# Generated by pormake.
# Topology ptr, (4,4)-cn, num edge types: 1
# Building blocks:
#     Node 0, Type 0, BuildingBlock: UXUYUI_clean_sbu_0, # of connection points: 4
#     Node 1, Type 0, BuildingBlock: UXUYUI_clean_sbu_0, # of connection points: 4
#     Node 2, Type 0, BuildingBlock: UXUYUI_clean_sbu_0, # of connection points: 4
#     Node 3, Type 0, BuildingBlock: UXUYUI_clean_sbu_0, # of connection points: 4
#     Node 4, Type 0, BuildingBlock: UXUYUI_clean_sbu_0, # of connection points: 4
#     Node 5, Type 0, BuildingBlock: UXUYUI_clean_sbu_0, # of connection points: 4
#     Node 6, Type 0, BuildingBlock: UXUYUI_clean_sbu_0, # of connection points: 4
#     Node 7, Type 0, BuildingBlock: UXUYUI_clean_sbu_0, # of connection points: 4
#     Node 8, Type 0, BuildingBlock: UXUYUI_clean_sbu_0, # of connection points: 4
#     Node 9, Type 0, BuildingBlock: UXUYUI_clean_sbu_0, # of connection points: 4
#     Node 10, Type 0, BuildingBlock: UXUYUI_clean_sbu_0, # of connection points: 4
#     Node 11, Type 0, BuildingBlock: UXUYUI_clean_sbu_0, # of connection points: 4
#     Node 12, Type 0, BuildingBlock: UXUYUI_clean_sbu_0, # of connection points: 4
#     Node 13, Type 0, BuildingBlock: UXUYUI_clean_sbu_0, # of connection points: 4
#     Node 14, Type 0, BuildingBlock: UXUYUI_clean_sbu_0, # of connection points: 4
#     Node 15, Type 0, BuildingBlock: UXUYUI_clean_sbu_0, # of connection points: 4
#     Node 16, Type 0, BuildingBlock: UXUYUI_clean_sbu_0, # of connection points: 4
#     Node 17, Type 0, BuildingBlock: UXUYUI_clean_sbu_0, # of connection points: 4
#     Node 18, Type 1, BuildingBlock: AZAVOO_clean_linker_0, # of connection points: 4
#     Node 19, Type 1, BuildingBlock: AZAVOO_clean_linker_0, # of connection points: 4
#     Node 20, Type 1, BuildingBlock: AZAVOO_clean_linker_0, # of connection points: 4
#     Node 21, Type 1, BuildingBlock: AZAVOO_clean_linker_0, # of connection points: 4
#     Node 22, Type 1, BuildingBlock: AZAVOO_clean_linker_0, # of connection points: 4
#     Node 23, Type 1, BuildingBlock: AZAVOO_clean_linker_0, # of connection points: 4
#     Node 24, Type 1, BuildingBlock: AZAVOO_clean_linker_0, # of connection points: 4
#     Node 25, Type 1, BuildingBlock: AZAVOO_clean_linker_0, # of connection points: 4
#     Node 26, Type 1, BuildingBlock: AZAVOO_clean_linker_0, # of connection points: 4
#     Node 27, Type 1, BuildingBlock: AZAVOO_clean_linker_0, # of connection points: 4
#     Node 28, Type 1, BuildingBlock: AZAVOO_clean_linker_0, # of connection points: 4
#     Node 29, Type 1, BuildingBlock: AZAVOO_clean_linker_0, # of connection points: 4
#     Node 30, Type 1, BuildingBlock: AZAVOO_clean_linker_0, # of connection points: 4
#     Node 31, Type 1, BuildingBlock: AZAVOO_clean_linker_0, # of connection points: 4
#     Node 32, Type 1, BuildingBlock: AZAVOO_clean_linker_0, # of connection points: 4
#     Node 33, Type 1, BuildingBlock: AZAVOO_clean_linker_0, # of connection points: 4
#     Node 34, Type 1, BuildingBlock: AZAVOO_clean_linker_0, # of connection points: 4
#     Node 35, Type 1, BuildingBlock: AZAVOO_clean_linker_0, # of connection points: 4
#     Edge 36, Type (0, 1), BuildingBlock: CIFDUS_clean_linker_0, # of connection points: 2
#     Edge 37, Type (0, 1), BuildingBlock: CIFDUS_clean_linker_0, # of connection points: 2
#     Edge 38, Type (0, 1), BuildingBlock: CIFDUS_clean_linker_0, # of connection points: 2
#     Edge 39, Type (0, 1), BuildingBlock: CIFDUS_clean_linker_0, # of connection points: 2
#     Edge 40, Type (0, 1), BuildingBlock: CIFDUS_clean_linker_0, # of connection points: 2
#     Edge 41, Type (0, 1), BuildingBlock: CIFDUS_clean_linker_0, # of connection points: 2
#     Edge 42, Type (0, 1), BuildingBlock: CIFDUS_clean_linker_0, # of connection points: 2
#     Edge 43, Type (0, 1), BuildingBlock: CIFDUS_clean_linker_0, # of connection points: 2
#     Edge 44, Type (0, 1), BuildingBlock: CIFDUS_clean_linker_0, # of connection points: 2
#     Edge 45, Type (0, 1), BuildingBlock: CIFDUS_clean_linker_0, # of connection points: 2
#     Edge 46, Type (0, 1), BuildingBlock: CIFDUS_clean_linker_0, # of connection points: 2
#     Edge 47, Type (0, 1), BuildingBlock: CIFDUS_clean_linker_0, # of connection points: 2
#     Edge 48, Type (0, 1), BuildingBlock: CIFDUS_clean_linker_0, # of connection points: 2
#     Edge 49, Type (0, 1), BuildingBlock: CIFDUS_clean_linker_0, # of connection points: 2
#     Edge 50, Type (0, 1), BuildingBlock: CIFDUS_clean_linker_0, # of connection points: 2
#     Edge 51, Type (0, 1), BuildingBlock: CIFDUS_clean_linker_0, # of connection points: 2
#     Edge 52, Type (0, 1), BuildingBlock: CIFDUS_clean_linker_0, # of connection points: 2
#     Edge 53, Type (0, 1), BuildingBlock: CIFDUS_clean_linker_0, # of connection points: 2
#     Edge 54, Type (0, 1), BuildingBlock: CIFDUS_clean_linker_0, # of connection points: 2
#     Edge 55, Type (0, 1), BuildingBlock: CIFDUS_clean_linker_0, # of connection points: 2
#     Edge 56, Type (0, 1), BuildingBlock: CIFDUS_clean_linker_0, # of connection points: 2
#     Edge 57, Type (0, 1), BuildingBlock: CIFDUS_clean_linker_0, # of connection points: 2
#     Edge 58, Type (0, 1), BuildingBlock: CIFDUS_clean_linker_0, # of connection points: 2
#     Edge 59, Type (0, 1), BuildingBlock: CIFDUS_clean_linker_0, # of connection points: 2
#     Edge 60, Type (0, 1), BuildingBlock: CIFDUS_clean_linker_0, # of connection points: 2
#     Edge 61, Type (0, 1), BuildingBlock: CIFDUS_clean_linker_0, # of connection points: 2
#     Edge 62, Type (0, 1), BuildingBlock: CIFDUS_clean_linker_0, # of connection points: 2
#     Edge 63, Type (0, 1), BuildingBlock: CIFDUS_clean_linker_0, # of connection points: 2
#     Edge 64, Type (0, 1), BuildingBlock: CIFDUS_clean_linker_0, # of connection points: 2
#     Edge 65, Type (0, 1), BuildingBlock: CIFDUS_clean_linker_0, # of connection points: 2
#     Edge 66, Type (0, 1), BuildingBlock: CIFDUS_clean_linker_0, # of connection points: 2
#     Edge 67, Type (0, 1), BuildingBlock: CIFDUS_clean_linker_0, # of connection points: 2
#     Edge 68, Type (0, 1), BuildingBlock: CIFDUS_clean_linker_0, # of connection points: 2
#     Edge 69, Type (0, 1), BuildingBlock: CIFDUS_clean_linker_0, # of connection points: 2
#     Edge 70, Type (0, 1), BuildingBlock: CIFDUS_clean_linker_0, # of connection points: 2
#     Edge 71, Type (0, 1), BuildingBlock: CIFDUS_clean_linker_0, # of connection points: 2
#     Edge 72, Type (0, 1), BuildingBlock: CIFDUS_clean_linker_0, # of connection points: 2
#     Edge 73, Type (0, 1), BuildingBlock: CIFDUS_clean_linker_0, # of connection points: 2
#     Edge 74, Type (0, 1), BuildingBlock: CIFDUS_clean_linker_0, # of connection points: 2
#     Edge 75, Type (0, 1), BuildingBlock: CIFDUS_clean_linker_0, # of connection points: 2
#     Edge 76, Type (0, 1), BuildingBlock: CIFDUS_clean_linker_0, # of connection points: 2
#     Edge 77, Type (0, 1), BuildingBlock: CIFDUS_clean_linker_0, # of connection points: 2
#     Edge 78, Type (0, 1), BuildingBlock: CIFDUS_clean_linker_0, # of connection points: 2
#     Edge 79, Type (0, 1), BuildingBlock: CIFDUS_clean_linker_0, # of connection points: 2
#     Edge 80, Type (0, 1), BuildingBlock: CIFDUS_clean_linker_0, # of connection points: 2
#     Edge 81, Type (0, 1), BuildingBlock: CIFDUS_clean_linker_0, # of connection points: 2
#     Edge 82, Type (0, 1), BuildingBlock: CIFDUS_clean_linker_0, # of connection points: 2
#     Edge 83, Type (0, 1), BuildingBlock: CIFDUS_clean_linker_0, # of connection points: 2
#     Edge 84, Type (0, 1), BuildingBlock: CIFDUS_clean_linker_0, # of connection points: 2
#     Edge 85, Type (0, 1), BuildingBlock: CIFDUS_clean_linker_0, # of connection points: 2
#     Edge 86, Type (0, 1), BuildingBlock: CIFDUS_clean_linker_0, # of connection points: 2
#     Edge 87, Type (0, 1), BuildingBlock: CIFDUS_clean_linker_0, # of connection points: 2
#     Edge 88, Type (0, 1), BuildingBlock: CIFDUS_clean_linker_0, # of connection points: 2
#     Edge 89, Type (0, 1), BuildingBlock: CIFDUS_clean_linker_0, # of connection points: 2
#     Edge 90, Type (0, 1), BuildingBlock: CIFDUS_clean_linker_0, # of connection points: 2
#     Edge 91, Type (0, 1), BuildingBlock: CIFDUS_clean_linker_0, # of connection points: 2
#     Edge 92, Type (0, 1), BuildingBlock: CIFDUS_clean_linker_0, # of connection points: 2
#     Edge 93, Type (0, 1), BuildingBlock: CIFDUS_clean_linker_0, # of connection points: 2
#     Edge 94, Type (0, 1), BuildingBlock: CIFDUS_clean_linker_0, # of connection points: 2
#     Edge 95, Type (0, 1), BuildingBlock: CIFDUS_clean_linker_0, # of connection points: 2
#     Edge 96, Type (0, 1), BuildingBlock: CIFDUS_clean_linker_0, # of connection points: 2
#     Edge 97, Type (0, 1), BuildingBlock: CIFDUS_clean_linker_0, # of connection points: 2
#     Edge 98, Type (0, 1), BuildingBlock: CIFDUS_clean_linker_0, # of connection points: 2
#     Edge 99, Type (0, 1), BuildingBlock: CIFDUS_clean_linker_0, # of connection points: 2
#     Edge 100, Type (0, 1), BuildingBlock: CIFDUS_clean_linker_0, # of connection points: 2
#     Edge 101, Type (0, 1), BuildingBlock: CIFDUS_clean_linker_0, # of connection points: 2
#     Edge 102, Type (0, 1), BuildingBlock: CIFDUS_clean_linker_0, # of connection points: 2
#     Edge 103, Type (0, 1), BuildingBlock: CIFDUS_clean_linker_0, # of connection points: 2
#     Edge 104, Type (0, 1), BuildingBlock: CIFDUS_clean_linker_0, # of connection points: 2
#     Edge 105, Type (0, 1), BuildingBlock: CIFDUS_clean_linker_0, # of connection points: 2
#     Edge 106, Type (0, 1), BuildingBlock: CIFDUS_clean_linker_0, # of connection points: 2
#     Edge 107, Type (0, 1), BuildingBlock: CIFDUS_clean_linker_0, # of connection points: 2
# Relax obj value: 0.132
# Max RMSD: 0.320
# Mean RMSD: 0.191
data_MOF--net-ptr--node1-UXUYUI_clean_sbu_0--node2-AZAVOO_clean_linker_0--edge1-CIFDUS_clean_linker_0
_symmetry_space_group_name_H-M    P1
_symmetry_Int_Tables_number       1
_symmetry_cell_setting            triclinic
loop_
_symmetry_equiv_pos_as_xyz
'x, y, z'
_cell_length_a     90.021891
_cell_length_b     89.208527
_cell_length_c     73.35067
_cell_angle_alpha  92.648389
_cell_angle_beta   92.34691
_cell_angle_gamma 120.25482
loop_
_atom_site_label
_atom_site_type_symbol
_atom_site_fract_x
_atom_site_fract_y
_atom_site_fract_z
_atom_type_partial_charge
Li0 Li 0.99291 0.34465 0.01108 0.0
Li1 Li 0.02129 0.35842 0.02718 0.0
Li2 Li 0.00055 0.36766 0.03514 0.0
Li3 Li 0.01474 0.3747 0.0064 0.0
C4 C 0.9926 0.33932 0.05389 0.0
N5 N 0.98074 0.32904 0.08789 0.0
C6 C 0.00407 0.34123 0.06849 0.0
C7 C 0.97509 0.33212 0.0566 0.0
C8 C 0.99782 0.33597 0.08556 0.0
C9 C 0.96935 0.32703 0.07388 0.0
C10 C 0.02533 0.3466 0.99534 0.0
C11 C 0.05294 0.35036 0.98857 0.0
N12 N 0.04579 0.33277 0.98668 0.0
C13 C 0.01821 0.32856 0.9932 0.0
C14 C 0.0428 0.35761 0.99289 0.0
C15 C 0.02879 0.32183 0.98886 0.0
C16 C 0.9725 0.32145 0.98094 0.0
N17 N 0.97553 0.32311 0.99944 0.0
C18 C 0.95686 0.29258 0.00114 0.0
C19 C 0.96795 0.30914 0.0096 0.0
C20 C 0.95368 0.29036 0.98202 0.0
C21 C 0.96145 0.3051 0.9719 0.0
H22 H 0.97916 0.33272 0.97317 0.0
H23 H 0.97099 0.31075 0.0242 0.0
C24 C 0.05285 0.36514 0.04574 0.0
N25 N 0.03731 0.35283 0.03757 0.0
C26 C 0.06301 0.36018 0.05577 0.0
C27 C 0.04111 0.33004 0.04831 0.0
C28 C 0.03142 0.33557 0.03847 0.0
C29 C 0.05696 0.34241 0.05746 0.0
H30 H 0.05702 0.37878 0.04512 0.0
H31 H 0.01881 0.32609 0.0322 0.0
C32 C 0.974 0.35864 0.00212 0.0
N33 N 0.94136 0.34432 0.9849 0.0
C34 C 0.97196 0.3603 0.98348 0.0
C35 C 0.95948 0.34983 0.01205 0.0
C36 C 0.95534 0.35293 0.97501 0.0
C37 C 0.94308 0.34264 0.00308 0.0
C38 C 0.03721 0.39942 0.03089 0.0
C39 C 0.03372 0.41205 0.03797 0.0
C40 C 0.05245 0.40451 0.02234 0.0
C41 C 0.04549 0.42961 0.03615 0.0
C42 C 0.06388 0.42219 0.02078 0.0
N43 N 0.06019 0.43427 0.02764 0.0
C44 C 0.99932 0.37853 0.0715 0.0
C45 C 0.98353 0.38441 0.04919 0.0
C46 C 0.99592 0.38753 0.08517 0.0
N47 N 0.99312 0.37713 0.05393 0.0
C48 C 0.98007 0.39381 0.06239 0.0
C49 C 0.98656 0.39574 0.08064 0.0
H50 H 0.0075 0.37327 0.07481 0.0
H51 H 0.97926 0.38361 0.03501 0.0
C52 C 0.02865 0.39062 0.97331 0.0
N53 N 0.02188 0.39179 0.98918 0.0
C54 C 0.03118 0.40224 0.95995 0.0
C55 C 0.02036 0.4163 0.97991 0.0
C56 C 0.01785 0.40435 0.99272 0.0
C57 C 0.02664 0.41506 0.96302 0.0
H58 H 0.03137 0.38025 0.97071 0.0
H59 H 0.0121 0.40468 0.00527 0.0
O60 O 0.99842 0.34426 0.03701 0.0
O61 O 0.01527 0.35345 -0.00011 0.0
O62 O 0.99014 0.3656 0.01062 0.0
O63 O 0.02574 0.38215 0.0323 0.0
H64 H 0.01768 0.34693 0.06677 0.0
H65 H 0.96601 0.33044 0.04546 0.0
H66 H 0.00657 0.33744 0.09698 0.0
H67 H 0.95583 0.32145 0.07616 0.0
H68 H 0.0665 0.35872 0.98673 0.0
H69 H 0.00472 0.31985 0.99506 0.0
H70 H 0.04846 0.37158 0.99437 0.0
H71 H 0.02348 0.3079 0.98727 0.0
H72 H 0.95101 0.2816 0.00948 0.0
H73 H 0.95955 0.30394 0.95711 0.0
H74 H 0.07507 0.37014 0.06278 0.0
H75 H 0.03606 0.31622 0.04908 0.0
H76 H 0.9831 0.36713 0.97563 0.0
H77 H 0.96087 0.34858 0.02652 0.0
H78 H 0.95354 0.35405 0.96056 0.0
H79 H 0.93172 0.33574 0.01058 0.0
H80 H 0.022 0.40834 0.04468 0.0
H81 H 0.05539 0.3949 0.0169 0.0
H82 H 0.04292 0.43952 0.04147 0.0
H83 H 0.07569 0.42631 0.0141 0.0
H84 H 0.001 0.38843 0.09907 0.0
H85 H 0.97308 0.40016 0.05816 0.0
H86 H 0.03586 0.40066 0.94705 0.0
H87 H 0.01695 0.42612 0.98304 0.0
Li88 Li 0.64935 0.62718 0.05193 0.0
Li89 Li 0.6376 0.64335 0.06686 0.0
Li90 Li 0.62745 0.61272 0.07333 0.0
Li91 Li 0.61943 0.61931 0.04404 0.0
C92 C 0.66714 0.64703 0.08465 0.0
N93 N 0.69949 0.67432 0.0967 0.0
C94 C 0.67674 0.66002 0.07306 0.0
C95 C 0.674 0.64792 0.10237 0.0
C96 C 0.69307 0.6737 0.0794 0.0
C97 C 0.69038 0.66183 0.10821 0.0
C98 C 0.64095 0.65403 0.03074 0.0
C99 C 0.62732 0.66988 0.02073 0.0
N100 N 0.64142 0.68024 0.01168 0.0
C101 C 0.65529 0.6648 0.02129 0.0
C102 C 0.62684 0.65655 0.03044 0.0
C103 C 0.65528 0.678 0.01175 0.0
C104 C 0.66986 0.63187 0.02336 0.0
N105 N 0.66929 0.62962 0.04154 0.0
C106 C 0.6982 0.63517 0.04355 0.0
C107 C 0.68285 0.63069 0.05163 0.0
C108 C 0.69946 0.6385 0.02496 0.0
C109 C 0.68489 0.63634 0.01474 0.0
H110 H 0.65879 0.63078 0.0157 0.0
H111 H 0.68201 0.62877 0.06608 0.0
C112 C 0.63641 0.66691 0.09322 0.0
N113 N 0.64315 0.66575 0.0773 0.0
C114 C 0.64043 0.68318 0.10124 0.0
C115 C 0.65819 0.69666 0.07633 0.0
C116 C 0.65412 0.68025 0.06904 0.0
C117 C 0.65128 0.69823 0.09257 0.0
H118 H 0.62792 0.65519 0.09966 0.0
H119 H 0.65994 0.6792 0.05688 0.0
C120 C 0.63344 0.59136 0.04971 0.0
N121 N 0.64333 0.56675 0.05196 0.0
C122 C 0.62652 0.57701 0.03686 0.0
C123 C 0.64538 0.59319 0.06372 0.0
C124 C 0.63169 0.5647 0.03823 0.0
C125 C 0.65022 0.58061 0.06462 0.0
C126 C 0.59767 0.62175 0.0693 0.0
C127 C 0.58375 0.60536 0.07209 0.0
C128 C 0.595 0.63578 0.0677 0.0
C129 C 0.56727 0.60315 0.07266 0.0
C130 C 0.57833 0.63306 0.06836 0.0
N131 N 0.56492 0.61693 0.07077 0.0
C132 C 0.62433 0.60055 0.1089 0.0
C133 C 0.60596 0.57973 0.08502 0.0
C134 C 0.6167 0.58836 0.12186 0.0
N135 N 0.61869 0.59607 0.09094 0.0
C136 C 0.59794 0.56717 0.09747 0.0
C137 C 0.60311 0.57147 0.11622 0.0
H138 H 0.63448 0.61368 0.11318 0.0
H139 H 0.60167 0.57661 0.07064 0.0
C140 C 0.60504 0.61694 0.00803 0.0
N141 N 0.60177 0.6099 0.02448 0.0
C142 C 0.59288 0.60911 0.99312 0.0
C143 C 0.57434 0.58654 0.01208 0.0
C144 C 0.58682 0.59492 0.0267 0.0
C145 C 0.57738 0.59359 0.99497 0.0
H146 H 0.61737 0.62822 0.00617 0.0
H147 H 0.58486 0.58908 0.03961 0.0
O148 O 0.65108 0.63351 0.07882 0.0
O149 O 0.64091 0.64124 0.04041 0.0
O150 O 0.62845 0.60347 0.0485 0.0
O151 O 0.61394 0.6242 0.06896 0.0
H152 H 0.67171 0.65951 0.05927 0.0
H153 H 0.66673 0.63797 0.11151 0.0
H154 H 0.70063 0.68382 0.07056 0.0
H155 H 0.69584 0.66268 0.1219 0.0
H156 H 0.61646 0.67194 0.02036 0.0
H157 H 0.66639 0.66312 0.0215 0.0
H158 H 0.61556 0.64815 0.03739 0.0
H159 H 0.66632 0.68648 0.00445 0.0
H160 H 0.70915 0.63673 0.05192 0.0
H161 H 0.68519 0.63841 0.00029 0.0
H162 H 0.63494 0.684 0.11385 0.0
H163 H 0.66685 0.70806 0.06949 0.0
H164 H 0.61725 0.57541 0.02595 0.0
H165 H 0.65084 0.60416 0.07384 0.0
H166 H 0.62644 0.55353 0.02837 0.0
H167 H 0.65944 0.58186 0.07538 0.0
H168 H 0.58561 0.59442 0.07372 0.0
H169 H 0.60568 0.64869 0.06615 0.0
H170 H 0.55636 0.59049 0.07464 0.0
H171 H 0.57607 0.64379 0.06706 0.0
H172 H 0.62123 0.59219 0.13615 0.0
H173 H 0.58736 0.55445 0.0925 0.0
H174 H 0.59597 0.61467 0.98002 0.0
H175 H 0.56261 0.57448 0.01401 0.0
Li176 Li 0.378 0.99091 0.00178 0.0
Li177 Li 0.38628 0.00132 0.03395 0.0
Li178 Li 0.35543 0.98118 0.02337 0.0
Li179 Li 0.37016 0.01134 0.01547 0.0
C180 C 0.37433 0.96192 0.01701 0.0
N181 N 0.37311 0.93174 0.00403 0.0
C182 C 0.38844 0.9597 0.02053 0.0
C183 C 0.35954 0.94875 0.00707 0.0
C184 C 0.3876 0.94436 0.0138 0.0
C185 C 0.35919 0.9336 0.00057 0.0
C186 C 0.40581 0.0322 0.01768 0.0
C187 C 0.41687 0.05741 0.03915 0.0
N188 N 0.43003 0.06646 0.02838 0.0
C189 C 0.41943 0.04174 0.00684 0.0
C190 C 0.4045 0.04008 0.03398 0.0
C191 C 0.43155 0.05905 0.01248 0.0
C192 C 0.37937 0.98689 0.96365 0.0
N193 N 0.38624 0.98605 0.98015 0.0
C194 C 0.40801 0.98299 0.96575 0.0
C195 C 0.40028 0.98413 0.98148 0.0
C196 C 0.4013 0.98399 0.94849 0.0
C197 C 0.38657 0.98564 0.94758 0.0
H198 H 0.3687 0.98922 0.96299 0.0
H199 H 0.40597 0.98429 0.99481 0.0
C200 C 0.39925 0.00719 0.07074 0.0
N201 N 0.40318 0.00642 0.05317 0.0
C202 C 0.41086 0.00927 0.08521 0.0
C203 C 0.43034 0.00972 0.06319 0.0
C204 C 0.41842 0.00782 0.04914 0.0
C205 C 0.42651 0.01028 0.08151 0.0
H206 H 0.38686 0.0056 0.0735 0.0
H207 H 0.42106 0.00697 0.03499 0.0
C208 C 0.34066 0.98164 0.98836 0.0
N209 N 0.31016 0.96458 0.96643 0.0
C210 C 0.32897 0.9876 0.98867 0.0
C211 C 0.3369 0.9671 0.97672 0.0
C212 C 0.3136 0.97876 0.97754 0.0
C213 C 0.3214 0.95864 0.96578 0.0
C214 C 0.35489 0.00709 0.04861 0.0
C215 C 0.33829 0.00103 0.04063 0.0
C216 C 0.36034 0.01762 0.06501 0.0
C217 C 0.32738 0.00556 0.04921 0.0
C218 C 0.34905 0.02189 0.07317 0.0
N219 N 0.33295 0.01581 0.06517 0.0
C220 C 0.33463 0.963 0.05034 0.0
C221 C 0.31978 0.95256 0.02099 0.0
C222 C 0.31949 0.95268 0.05875 0.0
N223 N 0.33443 0.96317 0.03182 0.0
C224 C 0.30434 0.94188 0.02883 0.0
C225 C 0.304 0.94227 0.04796 0.0
H226 H 0.34646 0.9715 0.05863 0.0
H227 H 0.31983 0.95272 0.00634 0.0
C228 C 0.36357 0.03036 0.99144 0.0
N229 N 0.36657 0.02982 0.00962 0.0
C230 C 0.3584 0.04169 0.98533 0.0
C231 C 0.36047 0.0525 0.01672 0.0
C232 C 0.36566 0.04094 0.02224 0.0
C233 C 0.35632 0.05262 0.99807 0.0
H234 H 0.36461 0.0215 0.98172 0.0
H235 H 0.36846 0.04052 0.03659 0.0
O236 O 0.37501 0.97693 0.02333 0.0
O237 O 0.39387 0.01526 0.01224 0.0
O238 O 0.35589 0.99025 0.99901 0.0
O239 O 0.36584 0.0029 0.04038 0.0
H240 H 0.39997 0.96978 0.02828 0.0
H241 H 0.34846 0.95021 0.0044 0.0
H242 H 0.39845 0.94248 0.01633 0.0
H243 H 0.34784 0.92331 0.99279 0.0
H244 H 0.41601 0.06367 0.05173 0.0
H245 H 0.42062 0.03581 0.99418 0.0
H246 H 0.39409 0.03293 0.04259 0.0
H247 H 0.44217 0.06659 0.00422 0.0
H248 H 0.41959 0.98216 0.96721 0.0
H249 H 0.38088 0.98639 0.93461 0.0
H250 H 0.40729 0.00932 0.09912 0.0
H251 H 0.44228 0.01049 0.05979 0.0
H252 H 0.33173 0.99898 0.99734 0.0
H253 H 0.3458 0.96233 0.9762 0.0
H254 H 0.30443 0.98321 0.9777 0.0
H255 H 0.3183 0.94733 0.95679 0.0
H256 H 0.33385 0.99288 0.02798 0.0
H257 H 0.37321 0.02263 0.07129 0.0
H258 H 0.31449 0.00092 0.04318 0.0
H259 H 0.35312 0.03007 0.08583 0.0
H260 H 0.31981 0.95312 0.07355 0.0
H261 H 0.29265 0.93403 0.02005 0.0
H262 H 0.35576 0.04167 0.97078 0.0
H263 H 0.35909 0.06075 0.02699 0.0
Li264 Li 0.01172 0.65686 0.05361 0.0
Li265 Li 0.99057 0.62661 0.05879 0.0
Li266 Li 0.00475 0.63392 0.02921 0.0
Li267 Li 0.98259 0.64134 0.03604 0.0
C268 C 0.03165 0.64187 0.06124 0.0
N269 N 0.06472 0.65261 0.07535 0.0
C270 C 0.03443 0.63801 0.07886 0.0
C271 C 0.04565 0.65098 0.05071 0.0
C272 C 0.05126 0.64361 0.08577 0.0
C273 C 0.06228 0.65636 0.0581 0.0
C274 C 0.98075 0.64778 0.07833 0.0
C275 C 0.95521 0.64026 0.09411 0.0
N276 N 0.96523 0.64832 0.10987 0.0
C277 C 0.99081 0.65621 0.09461 0.0
C278 C 0.96283 0.63993 0.078 0.0
C279 C 0.98271 0.65625 0.11044 0.0
C280 C 0.0291 0.69291 0.05667 0.0
N281 N 0.02851 0.67914 0.06452 0.0
C282 C 0.05033 0.69815 0.08761 0.0
C283 C 0.0387 0.68141 0.0798 0.0
C284 C 0.05129 0.71266 0.07975 0.0
C285 C 0.04045 0.70985 0.06406 0.0
H286 H 0.02055 0.69071 0.04477 0.0
H287 H 0.03764 0.67026 0.08613 0.0
C288 C 0.97627 0.59267 0.06971 0.0
N289 N 0.98343 0.60957 0.07628 0.0
C290 C 0.9736 0.57986 0.08154 0.0
C291 C 0.9853 0.60198 0.10678 0.0
C292 C 0.98777 0.61437 0.09445 0.0
C293 C 0.97854 0.58452 0.10029 0.0
H294 H 0.97341 0.58924 0.05516 0.0
H295 H 0.99412 0.62794 0.09926 0.0
C296 C 0.01432 0.66468 0.01262 0.0
N297 N 0.03175 0.68147 0.98301 0.0
C298 C 0.00516 0.66364 0.9963 0.0
C299 C 0.03232 0.67451 0.01399 0.0
C300 C 0.01421 0.67214 0.98145 0.0
C301 C 0.0409 0.68284 0.99885 0.0
C302 C 0.96343 0.60555 0.02803 0.0
C303 C 0.95917 0.59682 0.01062 0.0
C304 C 0.95056 0.60153 0.04012 0.0
C305 C 0.942 0.58432 0.00549 0.0
C306 C 0.93354 0.58894 0.03448 0.0
N307 N 0.92964 0.58068 0.01742 0.0
C308 C 0.02271 0.61843 0.01404 0.0
C309 C 0.00682 0.62503 0.99258 0.0
C310 C 0.02724 0.61066 7e-05 0.0
N311 N 0.0127 0.62542 0.01006 0.0
C312 C 0.01116 0.61755 0.97818 0.0
C313 C 0.02135 0.61008 0.98188 0.0
H314 H 0.02677 0.61844 0.02811 0.0
H315 H 0.99825 0.62997 0.98988 0.0
C316 C 0.96451 0.65898 0.03253 0.0
N317 N 0.96581 0.64554 0.02493 0.0
C318 C 0.95468 0.66478 0.02336 0.0
C319 C 0.94724 0.64241 0.99901 0.0
C320 C 0.95735 0.63715 0.00857 0.0
C321 C 0.94612 0.65664 0.00623 0.0
H322 H 0.97171 0.66565 0.04536 0.0
H323 H 0.95916 0.627 0.00246 0.0
O324 O 0.01527 0.63653 0.05429 0.0
O325 O 0.98847 0.64779 0.06267 0.0
O326 O 0.00566 0.65649 0.02732 0.0
O327 O 0.98016 0.61789 0.03323 0.0
H328 H 0.02373 0.63086 0.08716 0.0
H329 H 0.04368 0.65373 0.03692 0.0
H330 H 0.05362 0.6408 0.09943 0.0
H331 H 0.07324 0.66346 0.05011 0.0
H332 H 0.94134 0.63417 0.09408 0.0
H333 H 0.00472 0.66251 0.09504 0.0
H334 H 0.95488 0.63378 0.0654 0.0
H335 H 0.99033 0.66259 0.12317 0.0
H336 H 0.0585 0.69968 0.09964 0.0
H337 H 0.04047 0.72059 0.05775 0.0
H338 H 0.96828 0.56655 0.07597 0.0
H339 H 0.98961 0.6062 0.12107 0.0
H340 H 0.99122 0.65623 0.99505 0.0
H341 H 0.03959 0.67585 0.02667 0.0
H342 H 0.00729 0.67133 0.96868 0.0
H343 H 0.05484 0.69046 0.99971 0.0
H344 H 0.96902 0.59975 0.00114 0.0
H345 H 0.95372 0.60795 0.05374 0.0
H346 H 0.93849 0.57751 0.99202 0.0
H347 H 0.92344 0.5857 0.04369 0.0
H348 H 0.03507 0.60498 0.00346 0.0
H349 H 0.00602 0.61699 0.9644 0.0
H350 H 0.95406 0.67575 0.02941 0.0
H351 H 0.94107 0.63598 0.9857 0.0
Li352 Li 0.3533 0.37627 0.0113 0.0
Li353 Li 0.38306 0.38317 0.01912 0.0
Li354 Li 0.37471 0.39045 0.98921 0.0
Li355 Li 0.36556 0.36019 0.99433 0.0
C356 C 0.37097 0.41115 0.0226 0.0
N357 N 0.36291 0.43423 0.03942 0.0
C358 C 0.37766 0.41825 0.04045 0.0
C359 C 0.36036 0.41593 0.01322 0.0
C360 C 0.37339 0.42987 0.04874 0.0
C361 C 0.35638 0.42757 0.02198 0.0
C362 C 0.36007 0.35025 0.03394 0.0
C363 C 0.36494 0.3281 0.04554 0.0
N364 N 0.35717 0.3285 0.06093 0.0
C365 C 0.35191 0.35025 0.04975 0.0
C366 C 0.36646 0.33893 0.03171 0.0
C367 C 0.35067 0.33924 0.06328 0.0
C368 C 0.3175 0.36118 0.01259 0.0
N369 N 0.33291 0.3728 0.02162 0.0
C370 C 0.31878 0.37632 0.04691 0.0
C371 C 0.33381 0.38033 0.03848 0.0
C372 C 0.30271 0.3641 0.03809 0.0
C373 C 0.30212 0.35654 0.02067 0.0
H374 H 0.3172 0.35511 0.99936 0.0
H375 H 0.34619 0.38891 0.04572 0.0
C376 C 0.41726 0.40076 0.03559 0.0
N377 N 0.40031 0.3912 0.03885 0.0
C378 C 0.42993 0.40796 0.05016 0.0
C379 C 0.40746 0.39529 0.07111 0.0
C380 C 0.39526 0.38841 0.05617 0.0
C381 C 0.42506 0.40534 0.06822 0.0
H382 H 0.42092 0.40312 0.02169 0.0
H383 H 0.38171 0.38141 0.05843 0.0
C384 C 0.34453 0.37085 0.96829 0.0
N385 N 0.33114 0.37344 0.93481 0.0
C386 C 0.34569 0.36222 0.9525 0.0
C387 C 0.33631 0.38055 0.96711 0.0
C388 C 0.33891 0.36376 0.93568 0.0
C389 C 0.32969 0.38177 0.95004 0.0
C390 C 0.40156 0.37548 0.99103 0.0
C391 C 0.41039 0.37979 0.9751 0.0
C392 C 0.40524 0.36653 0.00391 0.0
C393 C 0.42259 0.3748 0.9722 0.0
C394 C 0.41753 0.36178 0.00053 0.0
N395 N 0.42587 0.36596 0.98486 0.0
C396 C 0.3889 0.42382 0.97518 0.0
C397 C 0.3846 0.40073 0.95422 0.0
C398 C 0.39702 0.43589 0.96222 0.0
N399 N 0.38305 0.40665 0.97101 0.0
C400 C 0.39246 0.41227 0.94082 0.0
C401 C 0.39918 0.43019 0.94486 0.0
H402 H 0.38793 0.42827 0.98879 0.0
H403 H 0.38029 0.38709 0.95144 0.0
C404 C 0.34424 0.32443 0.9875 0.0
N405 N 0.35931 0.33809 0.98295 0.0
C406 C 0.33794 0.30789 0.9788 0.0
C407 C 0.36287 0.31977 0.96096 0.0
C408 C 0.36863 0.33611 0.96993 0.0
C409 C 0.34724 0.30539 0.96523 0.0
H410 H 0.33695 0.3265 0.99767 0.0
H411 H 0.38032 0.34722 0.96619 0.0
O412 O 0.37489 0.39965 0.01434 0.0
O413 O 0.36121 0.36081 0.02047 0.0
O414 O 0.35109 0.3695 0.98486 0.0
O415 O 0.38954 0.38023 0.99401 0.0
H416 H 0.38598 0.41477 0.04786 0.0
H417 H 0.35526 0.41071 0.99933 0.0
H418 H 0.37839 0.4354 0.06259 0.0
H419 H 0.34812 0.43133 0.01491 0.0
H420 H 0.36988 0.31932 0.04401 0.0
H421 H 0.34671 0.35877 0.05162 0.0
H422 H 0.37235 0.33836 0.01935 0.0
H423 H 0.34451 0.33922 0.07565 0.0
H424 H 0.31973 0.38213 0.06052 0.0
H425 H 0.28994 0.34701 0.01352 0.0
H426 H 0.44337 0.41564 0.04734 0.0
H427 H 0.40309 0.39331 0.0848 0.0
H428 H 0.35189 0.35454 0.95321 0.0
H429 H 0.33497 0.38699 0.97925 0.0
H430 H 0.33984 0.35726 0.92333 0.0
H431 H 0.32335 0.3893 0.9489 0.0
H432 H 0.40778 0.38682 0.96504 0.0
H433 H 0.39882 0.36345 0.01648 0.0
H434 H 0.42946 0.37796 0.9599 0.0
H435 H 0.42049 0.35483 0.01038 0.0
H436 H 0.40223 0.44959 0.96605 0.0
H437 H 0.39364 0.40723 0.92758 0.0
H438 H 0.32569 0.29729 0.98233 0.0
H439 H 0.37056 0.31845 0.95074 0.0
Li440 Li 0.63572 0.9948 0.05205 0.0
Li441 Li 0.62602 0.01426 0.06382 0.0
Li442 Li 0.61999 0.00343 0.03078 0.0
Li443 Li 0.64945 0.02563 0.0428 0.0
C444 C 0.60034 0.97273 0.05422 0.0
N445 N 0.57779 0.93779 0.05754 0.0
C446 C 0.59313 0.96708 0.07084 0.0
C447 C 0.59589 0.96065 0.03922 0.0
C448 C 0.58181 0.94934 0.07227 0.0
C449 C 0.58452 0.94303 0.04119 0.0
C450 C 0.65747 0.02336 0.08431 0.0
C451 C 0.67677 0.04731 0.10591 0.0
N452 N 0.67416 0.03588 0.11877 0.0
C453 C 0.6552 0.01183 0.09764 0.0
C454 C 0.66853 0.04123 0.08837 0.0
C455 C 0.66366 0.01842 0.11502 0.0
C456 C 0.65629 0.97997 0.05053 0.0
N457 N 0.64187 0.97808 0.05788 0.0
C458 C 0.64011 0.9556 0.07573 0.0
C459 C 0.63369 0.96615 0.07021 0.0
C460 C 0.65521 0.95754 0.06866 0.0
C461 C 0.6632 0.96976 0.05572 0.0
H462 H 0.66274 0.98983 0.04105 0.0
H463 H 0.62266 0.96533 0.07638 0.0
C464 C 0.60666 0.027 0.08101 0.0
N465 N 0.61583 0.0189 0.08395 0.0
C466 C 0.59687 0.02829 0.0946 0.0
C467 C 0.6062 0.01303 0.11408 0.0
C468 C 0.61583 0.01204 0.10011 0.0
C469 C 0.59627 0.02094 0.11127 0.0
H470 H 0.60634 0.03181 0.06785 0.0
H471 H 0.62253 0.00496 0.10183 0.0
C472 C 0.64239 0.99642 0.0112 0.0
N473 N 0.6439 0.98179 0.9778 0.0
C474 C 0.65115 0.00705 0.99736 0.0
C475 C 0.63466 0.97837 0.00817 0.0
C476 C 0.65169 0.99941 0.98053 0.0
C477 C 0.63549 0.97121 0.99116 0.0
C478 C 0.63197 0.04424 0.04269 0.0
C479 C 0.62638 0.05033 0.02827 0.0
C480 C 0.6413 0.05545 0.05807 0.0
C481 C 0.63037 0.06766 0.02943 0.0
C482 C 0.64501 0.07268 0.05872 0.0
N483 N 0.63954 0.07839 0.0445 0.0
C484 C 0.58772 0.98707 0.00882 0.0
C485 C 0.61271 0.00803 0.99552 0.0
C486 C 0.57732 0.98572 0.99338 0.0
N487 N 0.60505 0.99819 0.00957 0.0
C488 C 0.6029 0.00701 0.97986 0.0
C489 C 0.5849 0.99605 0.97878 0.0
H490 H 0.5819 0.97978 0.02044 0.0
H491 H 0.62642 0.0172 0.99678 0.0
C492 C 0.68475 0.04288 0.03883 0.0
N493 N 0.6702 0.04346 0.03472 0.0
C494 C 0.69918 0.05191 0.02885 0.0
C495 C 0.68368 0.0628 0.01148 0.0
C496 C 0.66955 0.0535 0.02171 0.0
C497 C 0.69846 0.06144 0.01445 0.0
H498 H 0.68465 0.0343 0.04885 0.0
H499 H 0.65764 0.05319 0.01818 0.0
O500 O 0.61146 0.99003 0.05262 0.0
O501 O 0.64951 0.01714 0.06714 0.0
O502 O 0.64186 0.0037 0.02782 0.0
O503 O 0.62827 0.02735 0.04169 0.0
H504 H 0.59634 0.97628 0.08255 0.0
H505 H 0.60104 0.96486 0.02616 0.0
H506 H 0.57622 0.94477 0.08508 0.0
H507 H 0.58101 0.93353 0.0297 0.0
H508 H 0.6853 0.06111 0.10928 0.0
H509 H 0.64688 0.99795 0.09463 0.0
H510 H 0.67086 0.05029 0.07804 0.0
H511 H 0.66189 0.00966 0.12552 0.0
H512 H 0.63376 0.94658 0.08603 0.0
H513 H 0.67483 0.97162 0.04991 0.0
H514 H 0.58945 0.03456 0.09187 0.0
H515 H 0.60582 0.00684 0.12655 0.0
H516 H 0.6574 0.02106 0.99954 0.0
H517 H 0.62825 0.96997 0.01889 0.0
H518 H 0.65833 0.00748 0.96966 0.0
H519 H 0.62953 0.95726 0.98861 0.0
H520 H 0.6191 0.04178 0.01628 0.0
H521 H 0.64545 0.05083 0.06945 0.0
H522 H 0.62619 0.07258 0.01834 0.0
H523 H 0.65222 0.08151 0.07056 0.0
H524 H 0.56348 0.97727 0.99321 0.0
H525 H 0.60934 0.01505 0.96887 0.0
H526 H 0.71024 0.05034 0.03144 0.0
H527 H 0.68266 0.07012 0.00062 0.0
Li528 Li 0.65684 0.68285 0.34455 0.0
Li529 Li 0.68554 0.69635 0.36213 0.0
Li530 Li 0.66337 0.70485 0.36854 0.0
Li531 Li 0.67823 0.71262 0.34144 0.0
C532 C 0.65197 0.66466 0.37278 0.0
N533 N 0.63153 0.62913 0.37465 0.0
C534 C 0.65935 0.65413 0.37252 0.0
C535 C 0.6342 0.65713 0.3741 0.0
C536 C 0.64879 0.63619 0.37347 0.0
C537 C 0.62408 0.63914 0.37498 0.0
C538 C 0.68674 0.69493 0.31903 0.0
C539 C 0.71119 0.70833 0.30073 0.0
N540 N 0.70028 0.70307 0.28537 0.0
C541 C 0.67576 0.68961 0.30307 0.0
C542 C 0.7046 0.70434 0.31789 0.0
C543 C 0.68287 0.69387 0.28618 0.0
C544 C 0.62425 0.65906 0.32604 0.0
N545 N 0.64006 0.66175 0.33151 0.0
C546 C 0.63305 0.63409 0.31737 0.0
C547 C 0.64468 0.64974 0.32729 0.0
C548 C 0.61654 0.63084 0.31165 0.0
C549 C 0.61219 0.64358 0.31612 0.0
H550 H 0.62103 0.66897 0.32924 0.0
H551 H 0.65749 0.65241 0.33154 0.0
C552 C 0.7044 0.69367 0.39156 0.0
N553 N 0.70205 0.69178 0.373 0.0
C554 C 0.71553 0.68933 0.4005 0.0
C555 C 0.72177 0.68139 0.37101 0.0
C556 C 0.71038 0.68574 0.36264 0.0
C557 C 0.72434 0.68306 0.39018 0.0
H558 H 0.69741 0.69834 0.39939 0.0
H559 H 0.70793 0.68398 0.34793 0.0
C560 C 0.64229 0.70867 0.34745 0.0
N561 N 0.62056 0.72087 0.35658 0.0
C562 C 0.64692 0.72589 0.34485 0.0
C563 C 0.6266 0.69769 0.35473 0.0
C564 C 0.63575 0.73179 0.34952 0.0
C565 C 0.61581 0.7041 0.35928 0.0
C566 C 0.70306 0.73596 0.36642 0.0
C567 C 0.70144 0.75057 0.36434 0.0
C568 C 0.71948 0.73788 0.36812 0.0
C569 C 0.71628 0.76689 0.3639 0.0
C570 C 0.734 0.75442 0.36765 0.0
N571 N 0.73211 0.76845 0.36556 0.0
C572 C 0.6463 0.70111 0.40117 0.0
C573 C 0.65819 0.72896 0.3897 0.0
C574 C 0.64094 0.70671 0.41632 0.0
N575 N 0.65483 0.71228 0.3883 0.0
C576 C 0.65295 0.73506 0.4045 0.0
C577 C 0.64441 0.72394 0.41819 0.0
H578 H 0.64399 0.68798 0.39989 0.0
H579 H 0.66518 0.73765 0.37946 0.0
C580 C 0.67416 0.72754 0.31085 0.0
N581 N 0.68671 0.72909 0.32306 0.0
C582 C 0.67818 0.73896 0.29714 0.0
C583 C 0.70824 0.75277 0.30786 0.0
C584 C 0.7036 0.74101 0.32143 0.0
C585 C 0.69535 0.75205 0.29577 0.0
H586 H 0.66093 0.71744 0.31184 0.0
H587 H 0.71351 0.74147 0.33064 0.0
O588 O 0.66202 0.6822 0.37135 0.0
O589 O 0.68002 0.69128 0.33571 0.0
O590 O 0.65315 0.70268 0.34317 0.0
O591 O 0.68872 0.7199 0.36717 0.0
H592 H 0.67304 0.65968 0.37139 0.0
H593 H 0.62826 0.66507 0.37425 0.0
H594 H 0.65432 0.62787 0.37319 0.0
H595 H 0.61031 0.63313 0.37589 0.0
H596 H 0.72498 0.71571 0.29964 0.0
H597 H 0.66191 0.68244 0.30375 0.0
H598 H 0.71326 0.70879 0.33014 0.0
H599 H 0.67453 0.68992 0.27372 0.0
H600 H 0.63706 0.62478 0.31397 0.0
H601 H 0.59956 0.64157 0.31213 0.0
H602 H 0.71729 0.69092 0.4153 0.0
H603 H 0.72817 0.67639 0.36261 0.0
H604 H 0.65915 0.73473 0.33963 0.0
H605 H 0.62291 0.68444 0.35713 0.0
H606 H 0.63921 0.74509 0.34765 0.0
H607 H 0.60368 0.69576 0.36501 0.0
H608 H 0.68887 0.74932 0.36269 0.0
H609 H 0.72101 0.72674 0.36976 0.0
H610 H 0.7152 0.77829 0.36216 0.0
H611 H 0.74677 0.75609 0.36892 0.0
H612 H 0.63436 0.69773 0.42658 0.0
H613 H 0.65615 0.74852 0.40557 0.0
H614 H 0.66791 0.73759 0.28771 0.0
H615 H 0.72167 0.76254 0.30711 0.0
Li616 Li 0.28207 0.95216 0.38213 0.0
Li617 Li 0.29029 0.94687 0.41162 0.0
Li618 Li 0.30139 0.97651 0.40207 0.0
Li619 Li 0.31177 0.95886 0.38774 0.0
C620 C 0.26046 0.95427 0.40363 0.0
N621 N 0.22613 0.94455 0.39772 0.0
C622 C 0.24774 0.93985 0.41169 0.0
C623 C 0.25569 0.96375 0.39258 0.0
C624 C 0.23047 0.93516 0.40854 0.0
C625 C 0.23828 0.95861 0.38974 0.0
C626 C 0.27843 0.92025 0.37862 0.0
C627 C 0.2685 0.90038 0.35154 0.0
N628 N 0.25406 0.88932 0.35974 0.0
C629 C 0.26352 0.90867 0.38679 0.0
C630 C 0.28099 0.91605 0.36088 0.0
C631 C 0.25136 0.8931 0.37702 0.0
C632 C 0.26895 0.95041 0.34631 0.0
N633 N 0.26426 0.94326 0.36257 0.0
C634 C 0.23628 0.92213 0.34905 0.0
C635 C 0.24817 0.92953 0.36424 0.0
C636 C 0.24094 0.92903 0.33203 0.0
C637 C 0.25739 0.94356 0.33082 0.0
H638 H 0.28188 0.96109 0.34519 0.0
H639 H 0.2447 0.92394 0.3772 0.0
C640 C 0.27786 0.93992 0.44581 0.0
N641 N 0.28298 0.93329 0.43202 0.0
C642 C 0.26951 0.92983 0.46007 0.0
C643 C 0.27319 0.90678 0.44651 0.0
C644 C 0.28138 0.91732 0.43238 0.0
C645 C 0.26661 0.91284 0.4602 0.0
H646 H 0.27943 0.95273 0.44517 0.0
H647 H 0.28567 0.91242 0.42125 0.0
C648 C 0.31124 0.9893 0.37091 0.0
N649 N 0.32745 0.02357 0.3623 0.0
C650 C 0.32924 0.99925 0.37185 0.0
C651 C 0.30148 0.99674 0.36549 0.0
C652 C 0.33719 0.01656 0.36745 0.0
C653 C 0.30992 0.0141 0.36122 0.0
C654 C 0.32501 0.96258 0.42411 0.0
C655 C 0.33698 0.97423 0.43792 0.0
C656 C 0.32333 0.94623 0.42064 0.0
C657 C 0.34716 0.96935 0.44801 0.0
C658 C 0.33374 0.94184 0.43104 0.0
N659 N 0.34534 0.95339 0.44439 0.0
C660 C 0.29795 0.00584 0.41144 0.0
C661 C 0.32621 0.01033 0.41559 0.0
C662 C 0.30395 0.02321 0.41713 0.0
N663 N 0.30911 -0.00017 0.41065 0.0
C664 C 0.33277 0.02777 0.42145 0.0
C665 C 0.32158 0.03442 0.42219 0.0
H666 H 0.28442 0.99719 0.40761 0.0
H667 H 0.33478 0.00517 0.41473 0.0
C668 C 0.32719 0.95735 0.35706 0.0
N669 N 0.33045 0.95999 0.37553 0.0
C670 C 0.34025 0.96011 0.34575 0.0
C671 C 0.35988 0.96805 0.37267 0.0
C672 C 0.3464 0.96522 0.38351 0.0
C673 C 0.35692 0.96582 0.35352 0.0
H674 H 0.31456 0.95381 0.35109 0.0
H675 H 0.34892 0.96793 0.39816 0.0
O676 O 0.27746 0.95914 0.40663 0.0
O677 O 0.29046 0.93561 0.38793 0.0
O678 O 0.30321 0.97248 0.37566 0.0
O679 O 0.31485 0.96717 0.41431 0.0
H680 H 0.2511 0.93221 0.42009 0.0
H681 H 0.26529 0.97476 0.386 0.0
H682 H 0.2205 0.924 0.41464 0.0
H683 H 0.23441 0.96576 0.38113 0.0
H684 H 0.27028 0.897 0.33777 0.0
H685 H 0.26112 0.91184 0.40034 0.0
H686 H 0.29246 0.92478 0.35435 0.0
H687 H 0.2397 0.8841 0.38314 0.0
H688 H 0.22368 0.91094 0.35051 0.0
H689 H 0.26156 0.94908 0.31786 0.0
H690 H 0.26481 0.93502 0.47054 0.0
H691 H 0.27116 0.89372 0.44616 0.0
H692 H 0.33701 0.99377 0.37618 0.0
H693 H 0.28755 0.98923 0.3647 0.0
H694 H 0.35111 0.02445 0.36822 0.0
H695 H 0.30254 0.02005 0.3571 0.0
H696 H 0.33838 0.9869 0.44083 0.0
H697 H 0.31421 0.93706 0.40998 0.0
H698 H 0.35649 0.97824 0.45873 0.0
H699 H 0.3326 0.92925 0.42848 0.0
H700 H 0.29487 0.02777 0.41777 0.0
H701 H 0.34646 0.03603 0.42508 0.0
H702 H 0.33742 0.95817 0.33105 0.0
H703 H 0.37263 0.97272 0.37915 0.0
Li704 Li 0.05072 0.32346 0.33499 0.0
Li705 Li 0.05869 0.33448 0.36688 0.0
Li706 Li 0.02808 0.31838 0.35473 0.0
Li707 Li 0.04721 0.34769 0.34606 0.0
C708 C 0.04768 0.29682 0.35248 0.0
N709 N 0.05429 0.27061 0.3426 0.0
C710 C 0.06404 0.29911 0.35645 0.0
C711 C 0.03461 0.28113 0.34374 0.0
C712 C 0.06715 0.28573 0.35128 0.0
C713 C 0.03823 0.26805 0.33878 0.0
C714 C 0.08294 0.36325 0.3505 0.0
C715 C 0.0964 0.38942 0.3708 0.0
N716 N 0.11081 0.39576 0.36138 0.0
C717 C 0.09787 0.37001 0.34103 0.0
C718 C 0.08217 0.37301 0.36552 0.0
C719 C 0.11183 0.38648 0.34674 0.0
C720 C 0.04844 0.31099 0.298 0.0
N721 N 0.05798 0.3157 0.31429 0.0
C722 C 0.08077 0.31432 0.30011 0.0
C723 C 0.07385 0.31733 0.31563 0.0
C724 C 0.07138 0.3099 0.28301 0.0
C725 C 0.05487 0.30792 0.28215 0.0
H726 H 0.03617 0.31038 0.29706 0.0
H727 H 0.08147 0.32174 0.32859 0.0
C728 C 0.06442 0.33409 0.40387 0.0
N729 N 0.07285 0.33796 0.38831 0.0
C730 C 0.07316 0.33557 0.42056 0.0
C731 C 0.09921 0.34487 0.40494 0.0
C732 C 0.08993 0.34333 0.38848 0.0
C733 C 0.09076 0.34082 0.42127 0.0
H734 H 0.05079 0.32967 0.40324 0.0
H735 H 0.09626 0.34615 0.37583 0.0
C736 C 0.01558 0.31843 0.31974 0.0
N737 N 0.98422 0.30112 0.29937 0.0
C738 C 0.00767 0.32757 0.31378 0.0
C739 C 0.00756 0.30051 0.31529 0.0
C740 C 0.9918 0.31857 0.30351 0.0
C741 C 0.99171 0.29199 0.30498 0.0
C742 C 0.0293 0.34501 0.37774 0.0
C743 C 0.01611 0.34426 0.3663 0.0
C744 C 0.03093 0.35035 0.39629 0.0
C745 C 0.00468 0.34877 0.37362 0.0
C746 C 0.01926 0.35478 0.4031 0.0
N747 N 0.00648 0.35389 0.39172 0.0
C748 C 0.0068 0.29671 0.37921 0.0
C749 C 0.99073 0.3012 0.35591 0.0
C750 C 0.99215 0.28783 0.38887 0.0
N751 N 0.00591 0.30335 0.36317 0.0
C752 C 0.97567 0.2921 0.36496 0.0
C753 C 0.9764 0.28564 0.38184 0.0
H754 H 0.01911 0.29898 0.38488 0.0
H755 H 0.99034 0.30721 0.34363 0.0
C756 C 0.04924 0.37032 0.32064 0.0
N757 N 0.04853 0.36842 0.3389 0.0
C758 C 0.04849 0.38413 0.31346 0.0
C759 C 0.04686 0.39414 0.34412 0.0
C760 C 0.04783 0.38021 0.35075 0.0
C761 C 0.04691 0.39604 0.32522 0.0
H762 H 0.04981 0.36072 0.3116 0.0
H763 H 0.04761 0.37858 0.36526 0.0
O764 O 0.04445 0.30984 0.35724 0.0
O765 O 0.06924 0.34711 0.34504 0.0
O766 O 0.03111 0.32704 0.32984 0.0
O767 O 0.04052 0.34047 0.37091 0.0
H768 H 0.07427 0.31117 0.36328 0.0
H769 H 0.02179 0.27903 0.34089 0.0
H770 H 0.07979 0.28736 0.35413 0.0
H771 H 0.02825 0.25586 0.33193 0.0
H772 H 0.09598 0.39712 0.3824 0.0
H773 H 0.09866 0.36258 0.3294 0.0
H774 H 0.07077 0.36801 0.37308 0.0
H775 H 0.12347 0.39187 0.33954 0.0
H776 H 0.09368 0.3163 0.30134 0.0
H777 H 0.04718 0.30449 0.26926 0.0
H778 H 0.06616 0.33261 0.43279 0.0
H779 H 0.1127 0.34877 0.40479 0.0
H780 H 0.01367 0.34144 0.3171 0.0
H781 H 0.01353 0.29327 0.31975 0.0
H782 H 0.98551 0.32547 0.29886 0.0
H783 H 0.98536 0.27812 0.30146 0.0
H784 H 0.01472 0.34027 0.35192 0.0
H785 H 0.04113 0.35112 0.40533 0.0
H786 H 0.9944 0.34821 0.36491 0.0
H787 H 0.02037 0.35892 0.41743 0.0
H788 H 0.99317 0.28301 0.40188 0.0
H789 H 0.96377 0.29088 0.35929 0.0
H790 H 0.0484 0.38506 0.29879 0.0
H791 H 0.04584 0.40319 0.35362 0.0
Li792 Li 0.67706 0.98177 0.38821 0.0
Li793 Li 0.6575 0.95085 0.39157 0.0
Li794 Li 0.67464 0.9602 0.36398 0.0
Li795 Li 0.6498 0.96425 0.36783 0.0
C796 C 0.69969 0.96919 0.39653 0.0
N797 N 0.73344 0.98142 0.40932 0.0
C798 C 0.70336 0.96552 0.41391 0.0
C799 C 0.71316 0.97888 0.38557 0.0
C800 C 0.72052 0.97188 0.42015 0.0
C801 C 0.73014 0.985 0.3923 0.0
C802 C 0.64492 0.96777 0.4107 0.0
C803 C 0.61963 0.9533 0.42764 0.0
N804 N 0.62929 0.96232 0.4433 0.0
C805 C 0.65457 0.97704 0.42691 0.0
C806 C 0.62729 0.95593 0.411 0.0
C807 C 0.64643 0.97405 0.44327 0.0
C808 C 0.68909 0.01705 0.39311 0.0
N809 N 0.69158 0.00443 0.3997 0.0
C810 C 0.71443 0.02526 0.4208 0.0
C811 C 0.70375 0.00813 0.41349 0.0
C812 C 0.71244 0.03866 0.41396 0.0
C813 C 0.69942 0.03432 0.40004 0.0
H814 H 0.67914 0.01366 0.38229 0.0
H815 H 0.70526 0.99786 0.41879 0.0
C816 C 0.63942 0.91653 0.40255 0.0
N817 N 0.64951 0.93354 0.40875 0.0
C818 C 0.63502 0.90344 0.41453 0.0
C819 C 0.65115 0.92562 0.43914 0.0
C820 C 0.65534 0.93827 0.42666 0.0
C821 C 0.6411 0.90793 0.43305 0.0
H822 H 0.63524 0.91308 0.3882 0.0
H823 H 0.66378 0.95184 0.43113 0.0
C824 C 0.68297 0.99273 0.34914 0.0
N825 N 0.70263 0.01603 0.32444 0.0
C826 C 0.67537 0.99313 0.33231 0.0
C827 C 0.70053 0.00439 0.35352 0.0
C828 C 0.68554 0.00493 0.31996 0.0
C829 C 0.71026 0.01602 0.34083 0.0
C830 C 0.63562 0.93053 0.35481 0.0
C831 C 0.63704 0.92468 0.33731 0.0
C832 C 0.61933 0.92452 0.36128 0.0
C833 C 0.62206 0.91306 0.32647 0.0
C834 C 0.60467 0.91292 0.35002 0.0
N835 N 0.60632 0.90749 0.33298 0.0
C836 C 0.69463 0.946 0.3515 0.0
C837 C 0.68472 0.95758 0.32873 0.0
C838 C 0.70207 0.94049 0.33842 0.0
N839 N 0.68617 0.95436 0.34643 0.0
C840 C 0.69199 0.95236 0.31524 0.0
C841 C 0.70067 0.94354 0.31998 0.0
H842 H 0.69528 0.94329 0.36563 0.0
H843 H 0.67736 0.96362 0.32496 0.0
C844 C 0.62694 0.97649 0.363 0.0
N845 N 0.63253 0.96651 0.35466 0.0
C846 C 0.61613 0.98078 0.35325 0.0
C847 C 0.61653 0.96391 0.32671 0.0
C848 C 0.62757 0.96019 0.33687 0.0
C849 C 0.61095 0.97459 0.33482 0.0
H850 H 0.63138 0.98163 0.37705 0.0
H851 H 0.63274 0.95291 0.33032 0.0
O852 O 0.68295 0.96311 0.39027 0.0
O853 O 0.65267 0.97044 0.39458 0.0
O854 O 0.67313 0.98134 0.36144 0.0
O855 O 0.65013 0.94197 0.36557 0.0
H856 H 0.69309 0.95793 0.42252 0.0
H857 H 0.71054 0.9815 0.37195 0.0
H858 H 0.72356 0.96922 0.43361 0.0
H859 H 0.74069 0.99254 0.38397 0.0
H860 H 0.60601 0.9441 0.4281 0.0
H861 H 0.66822 0.98631 0.4269 0.0
H862 H 0.6196 0.94886 0.39853 0.0
H863 H 0.65376 0.98103 0.45595 0.0
H864 H 0.72438 0.028 0.43143 0.0
H865 H 0.69722 0.04417 0.39458 0.0
H866 H 0.62719 0.88994 0.40931 0.0
H867 H 0.65635 0.92963 0.45323 0.0
H868 H 0.66178 0.98432 0.32874 0.0
H869 H 0.70657 0.00465 0.36665 0.0
H870 H 0.67983 0.00529 0.30684 0.0
H871 H 0.72386 0.0251 0.34404 0.0
H872 H 0.64956 0.92911 0.33214 0.0
H873 H 0.61804 0.92881 0.37484 0.0
H874 H 0.62295 0.90848 0.31287 0.0
H875 H 0.59197 0.90823 0.35482 0.0
H876 H 0.70864 0.93372 0.34264 0.0
H877 H 0.69021 0.95458 0.30113 0.0
H878 H 0.61203 0.98903 0.35995 0.0
H879 H 0.613 0.95913 0.31243 0.0
Li880 Li 0.05204 0.72241 0.35914 0.0
Li881 Li 0.02178 0.71245 0.35057 0.0
Li882 Li 0.03775 0.69997 0.33392 0.0
Li883 Li 0.04391 0.7296 0.32927 0.0
C884 C 0.03378 0.69168 0.37503 0.0
N885 N 0.03819 0.67801 0.40647 0.0
C886 C 0.02562 0.69222 0.39065 0.0
C887 C 0.04391 0.6839 0.37529 0.0
C888 C 0.02808 0.68533 0.40644 0.0
C889 C 0.04606 0.67714 0.39134 0.0
C890 C 0.03575 0.74865 0.35563 0.0
C891 C 0.01955 0.76078 0.3424 0.0
N892 N 0.0243 0.77213 0.35746 0.0
C893 C 0.04056 0.76049 0.37094 0.0
C894 C 0.02522 0.74882 0.34122 0.0
C895 C 0.0346 0.77223 0.37162 0.0
C896 C 0.08455 0.73445 0.37947 0.0
N897 N 0.06785 0.73034 0.38016 0.0
C898 C 0.07147 0.73588 0.41266 0.0
C899 C 0.06133 0.73139 0.39624 0.0
C900 C 0.08863 0.73979 0.41246 0.0
C901 C 0.09529 0.73934 0.39559 0.0
H902 H 0.08952 0.73386 0.36647 0.0
H903 H 0.04815 0.72853 0.39629 0.0
C904 C 0.98617 0.69121 0.35452 0.0
N905 N 0.00062 0.70637 0.3607 0.0
C906 C 0.97118 0.68497 0.36387 0.0
C907 C 0.98616 0.71033 0.38538 0.0
C908 C 0.00083 0.71603 0.37568 0.0
C909 C 0.97121 0.69438 0.37979 0.0
H910 H 0.98654 0.6836 0.34283 0.0
H911 H 0.01262 0.72772 0.38065 0.0
C912 C 0.07251 0.71876 0.3273 0.0
N913 N 0.09624 0.71215 0.31164 0.0
C914 C 0.07895 0.72549 0.31069 0.0
C915 C 0.07827 0.70882 0.33602 0.0
C916 C 0.09091 0.72197 0.30298 0.0
C917 C 0.09023 0.70558 0.32786 0.0
C918 C 0.01081 0.70352 0.30889 0.0
C919 C 0.01244 0.69531 0.29304 0.0
C920 C 0.99746 0.70722 0.30935 0.0
C921 C 0.00093 0.69129 0.27776 0.0
C922 C 0.9862 0.70297 0.29379 0.0
N923 N 0.98816 0.69518 0.27845 0.0
C924 C 0.02343 0.66396 0.32922 0.0
C925 C 0.04322 0.67925 0.30725 0.0
C926 C 0.02021 0.64806 0.32104 0.0
N927 N 0.03483 0.67911 0.32229 0.0
C928 C 0.04061 0.66369 0.29881 0.0
C929 C 0.02893 0.64786 0.3057 0.0
H930 H 0.01674 0.66423 0.34103 0.0
H931 H 0.05171 0.69139 0.30156 0.0
C932 C 0.06106 0.76356 0.31683 0.0
N933 N 0.05124 0.74631 0.31144 0.0
C934 C 0.06829 0.77578 0.30383 0.0
C935 C 0.05491 0.7523 0.28 0.0
C936 C 0.04798 0.74056 0.29344 0.0
C937 C 0.06547 0.77015 0.28513 0.0
H938 H 0.06374 0.76777 0.33125 0.0
H939 H 0.04071 0.72679 0.28952 0.0
O940 O 0.03166 0.69852 0.3595 0.0
O941 O 0.0414 0.73701 0.35485 0.0
O942 O 0.06071 0.72198 0.33496 0.0
O943 O 0.02176 0.70725 0.32411 0.0
H944 H 0.01761 0.69806 0.39063 0.0
H945 H 0.04998 0.68301 0.36321 0.0
H946 H 0.02197 0.6858 0.41867 0.0
H947 H 0.05393 0.67116 0.39177 0.0
H948 H 0.01139 0.76106 0.33132 0.0
H949 H 0.04873 0.76051 0.3822 0.0
H950 H 0.02162 0.73995 0.32918 0.0
H951 H 0.03816 0.78143 0.38341 0.0
H952 H 0.066 0.73642 0.42538 0.0
H953 H 0.10851 0.74238 0.39495 0.0
H954 H 0.96001 0.67252 0.35921 0.0
H955 H 0.9867 0.71809 0.39746 0.0
H956 H 0.07474 0.73331 0.30381 0.0
H957 H 0.07357 0.70368 0.34895 0.0
H958 H 0.09595 0.72704 0.2901 0.0
H959 H 0.09474 0.69784 0.33443 0.0
H960 H 0.02259 0.69222 0.29248 0.0
H961 H 0.9957 0.71317 0.32162 0.0
H962 H 0.00214 0.68505 0.26537 0.0
H963 H 0.97585 0.7058 0.29395 0.0
H964 H 0.01113 0.63608 0.32672 0.0
H965 H 0.04735 0.66399 0.28681 0.0
H966 H 0.07629 0.78944 0.30838 0.0
H967 H 0.05272 0.74732 0.2658 0.0
Li968 Li 0.2891 0.34322 0.39952 0.0
Li969 Li 0.29721 0.32354 0.38648 0.0
Li970 Li 0.31054 0.35196 0.37648 0.0
Li971 Li 0.27952 0.33 0.36655 0.0
C972 C 0.32302 0.35951 0.41332 0.0
N973 N 0.34495 0.38798 0.43704 0.0
C974 C 0.33222 0.35769 0.42803 0.0
C975 C 0.32505 0.37581 0.41062 0.0
C976 C 0.34321 0.37224 0.43989 0.0
C977 C 0.33618 0.39005 0.42277 0.0
C978 C 0.26406 0.30303 0.39691 0.0
C979 C 0.24148 0.27288 0.39376 0.0
N980 N 0.24506 0.27135 0.41155 0.0
C981 C 0.26746 0.30119 0.41518 0.0
C982 C 0.25093 0.28881 0.38611 0.0
C983 C 0.25773 0.28505 0.42231 0.0
C984 C 0.2699 0.35481 0.41933 0.0
N985 N 0.2817 0.34961 0.42079 0.0
C986 C 0.28064 0.34971 0.45326 0.0
C987 C 0.2873 0.34725 0.43731 0.0
C988 C 0.268 0.35451 0.45218 0.0
C989 C 0.26289 0.35743 0.43498 0.0
H990 H 0.2655 0.3563 0.40596 0.0
H991 H 0.29648 0.34284 0.43805 0.0
C992 C 0.32069 0.31399 0.3962 0.0
N993 N 0.30346 0.30671 0.39214 0.0
C994 C 0.32763 0.30371 0.40084 0.0
C995 C 0.29896 0.27846 0.39701 0.0
C996 C 0.29262 0.28923 0.39198 0.0
C997 C 0.3167 0.28571 0.40174 0.0
H998 H 0.32909 0.32787 0.39571 0.0
H999 H 0.27908 0.28358 0.38806 0.0
C1000 C 0.29047 0.36898 0.36953 0.0
N1001 N 0.2912 0.39728 0.35475 0.0
C1002 C 0.2878 0.36897 0.35062 0.0
C1003 C 0.29325 0.38329 0.38095 0.0
C1004 C 0.2883 0.38342 0.34341 0.0
C1005 C 0.29365 0.3975 0.37321 0.0
C1006 C 0.30359 0.31759 0.35353 0.0
C1007 C 0.32045 0.32128 0.35156 0.0
C1008 C 0.28974 0.30088 0.34848 0.0
C1009 C 0.32319 0.30807 0.34468 0.0
C1010 C 0.29302 0.28803 0.34164 0.0
N1011 N 0.30953 0.29186 0.33991 0.0
C1012 C 0.34606 0.36921 0.37503 0.0
C1013 C 0.33238 0.37825 0.3535 0.0
C1014 C 0.36173 0.37859 0.36718 0.0
N1015 N 0.33175 0.36901 0.36797 0.0
C1016 C 0.34782 0.38783 0.34522 0.0
C1017 C 0.36263 0.38768 0.35176 0.0
H1018 H 0.34511 0.3613 0.38615 0.0
H1019 H 0.32078 0.37741 0.3477 0.0
C1020 C 0.24572 0.31731 0.34966 0.0
N1021 N 0.26239 0.32227 0.34699 0.0
C1022 C 0.23375 0.31265 0.33463 0.0
C1023 C 0.25637 0.3181 0.31461 0.0
C1024 C 0.2678 0.32249 0.32995 0.0
C1025 C 0.23917 0.31334 0.31684 0.0
H1026 H 0.24182 0.31729 0.36343 0.0
H1027 H 0.28115 0.32651 0.32828 0.0
O1028 O 0.31216 0.34531 0.40169 0.0
O1029 O 0.2733 0.31872 0.38969 0.0
O1030 O 0.28968 0.3548 0.3769 0.0
O1031 O 0.30065 0.33018 0.36073 0.0
H1032 H 0.3308 0.34514 0.43028 0.0
H1033 H 0.31826 0.37749 0.39918 0.0
H1034 H 0.35037 0.37101 0.45136 0.0
H1035 H 0.33787 0.40275 0.42082 0.0
H1036 H 0.23132 0.26174 0.38556 0.0
H1037 H 0.27763 0.31206 0.42367 0.0
H1038 H 0.24814 0.29005 0.37195 0.0
H1039 H 0.26028 0.2834 0.4364 0.0
H1040 H 0.28506 0.34748 0.46626 0.0
H1041 H 0.25302 0.36093 0.43352 0.0
H1042 H 0.34144 0.30989 0.40372 0.0
H1043 H 0.28996 0.26469 0.39754 0.0
H1044 H 0.2856 0.35803 0.34158 0.0
H1045 H 0.29499 0.3834 0.39565 0.0
H1046 H 0.28639 0.38363 0.32878 0.0
H1047 H 0.29585 0.40868 0.38188 0.0
H1048 H 0.3313 0.33415 0.35546 0.0
H1049 H 0.27662 0.2978 0.35007 0.0
H1050 H 0.33617 0.31069 0.34316 0.0
H1051 H 0.28244 0.275 0.33778 0.0
H1052 H 0.37286 0.37822 0.37273 0.0
H1053 H 0.34787 0.39442 0.33316 0.0
H1054 H 0.2206 0.30913 0.33685 0.0
H1055 H 0.26098 0.3186 0.30111 0.0
Li1056 Li 0.32439 0.01738 0.67904 0.0
Li1057 Li 0.35218 0.03329 0.69657 0.0
Li1058 Li 0.32995 0.04096 0.70084 0.0
Li1059 Li 0.34548 0.0472 0.67318 0.0
C1060 C 0.31956 0.00225 0.70967 0.0
N1061 N 0.2997 0.96731 0.71517 0.0
C1062 C 0.32709 0.99186 0.71028 0.0
C1063 C 0.30196 0.99489 0.71194 0.0
C1064 C 0.31682 0.97422 0.71308 0.0
C1065 C 0.29213 0.97719 0.71466 0.0
C1066 C 0.35369 0.02823 0.65329 0.0
C1067 C 0.37679 0.04253 0.63344 0.0
N1068 N 0.36549 0.03377 0.61866 0.0
C1069 C 0.34231 0.01935 0.63791 0.0
C1070 C 0.37108 0.03989 0.65106 0.0
C1071 C 0.34854 0.02233 0.62052 0.0
C1072 C 0.29103 0.99039 0.66509 0.0
N1073 N 0.30772 0.9948 0.66863 0.0
C1074 C 0.301 0.96585 0.65958 0.0
C1075 C 0.31293 0.98304 0.66578 0.0
C1076 C 0.28355 0.96078 0.65636 0.0
C1077 C 0.27864 0.97333 0.65899 0.0
H1078 H 0.28727 3e-05 0.66723 0.0
H1079 H 0.32633 0.98695 0.66872 0.0
C1080 C 0.36909 0.02996 0.72774 0.0
N1081 N 0.36924 0.03033 0.70924 0.0
C1082 C 0.38049 0.02652 0.73758 0.0
C1083 C 0.39205 0.02403 0.70915 0.0
C1084 C 0.38041 0.02751 0.69986 0.0
C1085 C 0.39207 0.02332 0.72826 0.0
H1086 H 0.35982 0.03195 0.73477 0.0
H1087 H 0.38006 0.02764 0.68513 0.0
C1088 C 0.30867 0.04218 0.67606 0.0
N1089 N 0.28579 0.05406 0.67942 0.0
C1090 C 0.31222 0.05788 0.66908 0.0
C1091 C 0.29347 0.03254 0.68476 0.0
C1092 C 0.30048 0.06365 0.67089 0.0
C1093 C 0.28209 0.03876 0.68634 0.0
C1094 C 0.36875 0.0652 0.71081 0.0
C1095 C 0.36644 0.06814 0.72908 0.0
C1096 C 0.38527 0.07021 0.70554 0.0
C1097 C 0.38074 0.07599 0.74182 0.0
C1098 C 0.39922 0.07799 0.7187 0.0
N1099 N 0.39669 0.0807 0.73642 0.0
C1100 C 0.31271 0.04083 0.73249 0.0
C1101 C 0.3228 0.06592 0.71587 0.0
C1102 C 0.30658 0.04788 0.74552 0.0
N1103 N 0.32064 0.04992 0.71807 0.0
C1104 C 0.31663 0.07333 0.72837 0.0
C1105 C 0.30859 0.06442 0.74363 0.0
H1106 H 0.31152 0.0283 0.73412 0.0
H1107 H 0.32946 0.07299 0.70444 0.0
C1108 C 0.34402 0.05934 0.63893 0.0
N1109 N 0.35401 0.06323 0.65479 0.0
C1110 C 0.3488 0.07142 0.62575 0.0
C1111 C 0.37448 0.09099 0.64511 0.0
C1112 C 0.36909 0.07858 0.65802 0.0
C1113 C 0.36411 0.08764 0.62885 0.0
H1114 H 0.33199 0.04707 0.63685 0.0
H1115 H 0.37673 0.08137 0.6708 0.0
O1116 O 0.32928 0.01943 0.70639 0.0
O1117 O 0.34777 0.02582 0.6704 0.0
O1118 O 0.3201 0.03639 0.67457 0.0
O1119 O 0.35487 0.05721 0.69819 0.0
H1120 H 0.34064 0.99726 0.70834 0.0
H1121 H 0.29589 0.00271 0.71137 0.0
H1122 H 0.32245 0.96601 0.71348 0.0
H1123 H 0.27846 0.9713 0.7163 0.0
H1124 H 0.39018 0.0516 0.6315 0.0
H1125 H 0.32879 0.01042 0.63937 0.0
H1126 H 0.38001 0.04705 0.6628 0.0
H1127 H 0.33987 0.0156 0.60849 0.0
H1128 H 0.30528 0.95653 0.65782 0.0
H1129 H 0.26535 0.96999 0.65637 0.0
H1130 H 0.37987 0.02585 0.75226 0.0
H1131 H 0.40087 0.02183 0.70145 0.0
H1132 H 0.32399 0.06568 0.66253 0.0
H1133 H 0.29066 0.02055 0.69058 0.0
H1134 H 0.30309 0.0758 0.6656 0.0
H1135 H 0.27034 0.03148 0.69315 0.0
H1136 H 0.35376 0.06428 0.73344 0.0
H1137 H 0.38726 0.06782 0.69151 0.0
H1138 H 0.37914 0.0783 0.75602 0.0
H1139 H 0.41206 0.08181 0.71484 0.0
H1140 H 0.30083 0.04066 0.75724 0.0
H1141 H 0.3183 0.08599 0.72617 0.0
H1142 H 0.3402 0.06831 0.61363 0.0
H1143 H 0.38651 0.10317 0.64799 0.0
Li1144 Li 0.9827 0.2918 0.71695 0.0
Li1145 Li 0.96724 0.30468 0.7295 0.0
Li1146 Li 0.96082 0.27637 0.73756 0.0
Li1147 Li 0.9528 0.2803 0.7073 0.0
C1148 C 0.99387 0.29584 0.75369 0.0
N1149 N 0.01626 0.29017 0.77513 0.0
C1150 C 0.00328 0.30724 0.76894 0.0
C1151 C 0.99584 0.28154 0.74934 0.0
C1152 C 0.01454 0.30415 0.7796 0.0
C1153 C 0.00723 0.2789 0.76035 0.0
C1154 C 0.98535 0.31963 0.69946 0.0
C1155 C 0.99836 0.34162 0.67799 0.0
N1156 N 0.01144 0.35177 0.69083 0.0
C1157 C 0.99892 0.33031 0.71245 0.0
C1158 C 0.98505 0.32534 0.68209 0.0
C1159 C 0.01199 0.3465 0.70782 0.0
C1160 C 0.00232 0.28921 0.69047 0.0
N1161 N 0.00383 0.29644 0.70764 0.0
C1162 C 0.03457 0.31152 0.70799 0.0
C1163 C 0.01952 0.30739 0.71652 0.0
C1164 C 0.03343 0.30448 0.69008 0.0
C1165 C 0.01699 0.29308 0.68138 0.0
H1166 H 0.98964 0.28082 0.68365 0.0
H1167 H 0.02038 0.31328 0.73003 0.0
C1168 C 0.97085 0.3284 0.75766 0.0
N1169 N 0.96875 0.32548 0.73916 0.0
C1170 C 0.97248 0.34359 0.76596 0.0
C1171 C 0.96959 0.3524 0.73595 0.0
C1172 C 0.9679 0.33697 0.72824 0.0
C1173 C 0.97202 0.35592 0.75507 0.0
H1174 H 0.97131 0.3189 0.76596 0.0
H1175 H 0.96609 0.33427 0.71355 0.0
C1176 C 0.9529 0.24953 0.71061 0.0
N1177 N 0.93001 0.21427 0.70361 0.0
C1178 C 0.93658 0.24191 0.7174 0.0
C1179 C 0.95758 0.23922 0.70025 0.0
C1180 C 0.9252 0.22407 0.71372 0.0
C1181 C 0.94583 0.22142 0.69686 0.0
C1182 C 0.93164 0.28793 0.72728 0.0
C1183 C 0.91788 0.28215 0.73846 0.0
C1184 C 0.93248 0.29791 0.71278 0.0
C1185 C 0.90518 0.28648 0.73498 0.0
C1186 C 0.91954 0.30197 0.70974 0.0
N1187 N 0.90627 0.29623 0.72081 0.0
C1188 C 0.94629 0.26695 0.77025 0.0
C1189 C 0.95557 0.2479 0.759 0.0
C1190 C 0.93965 0.25714 0.78517 0.0
N1191 N 0.95384 0.26209 0.75746 0.0
C1192 C 0.94903 0.23762 0.77375 0.0
C1193 C 0.9408 0.24215 0.78699 0.0
H1194 H 0.94518 0.27835 0.76863 0.0
H1195 H 0.96175 0.2444 0.74867 0.0
C1196 C 0.94256 0.27507 0.67014 0.0
N1197 N 0.9365 0.27008 0.68677 0.0
C1198 C 0.93152 0.26784 0.65429 0.0
C1199 C 0.90824 0.25028 0.67299 0.0
C1200 C 0.91967 0.25811 0.68853 0.0
C1201 C 0.91419 0.25516 0.65564 0.0
H1202 H 0.95603 0.28453 0.66919 0.0
H1203 H 0.91515 0.25452 0.70195 0.0
O1204 O 0.98278 0.29876 0.74322 0.0
O1205 O 0.97238 0.30366 0.70355 0.0
O1206 O 0.96432 0.26698 0.71394 0.0
O1207 O 0.94411 0.28371 0.7306 0.0
H1208 H 0.00189 0.31836 0.77248 0.0
H1209 H 0.98874 0.27259 0.73758 0.0
H1210 H 0.02191 0.31288 0.79144 0.0
H1211 H 0.00888 0.2679 0.75714 0.0
H1212 H 0.99828 0.34619 0.6646 0.0
H1213 H 0.99939 0.32622 0.72599 0.0
H1214 H 0.97462 0.31728 0.67188 0.0
H1215 H 0.02256 0.35487 0.71774 0.0
H1216 H 0.04694 0.32024 0.71529 0.0
H1217 H 0.01543 0.28761 0.66747 0.0
H1218 H 0.97401 0.3456 0.78075 0.0
H1219 H 0.96933 0.3616 0.72701 0.0
H1220 H 0.93271 0.24966 0.72544 0.0
H1221 H 0.97017 0.24494 0.69488 0.0
H1222 H 0.91253 0.21801 0.7189 0.0
H1223 H 0.94928 0.21329 0.68886 0.0
H1224 H 0.91701 0.27437 0.74971 0.0
H1225 H 0.94297 0.30245 0.70391 0.0
H1226 H 0.89446 0.2821 0.74353 0.0
H1227 H 0.92004 0.30968 0.69858 0.0
H1228 H 0.93319 0.26097 0.79487 0.0
H1229 H 0.95032 0.22625 0.77474 0.0
H1230 H 0.93658 0.27177 0.6411 0.0
H1231 H 0.89492 0.24058 0.6745 0.0
Li1232 Li 0.70507 0.67649 0.6807 0.0
Li1233 Li 0.6944 0.64814 0.6907 0.0
Li1234 Li 0.72329 0.66987 0.7002 0.0
Li1235 Li 0.71509 0.65776 0.66809 0.0
C1236 C 0.7061 0.68359 0.7182 0.0
N1237 N 0.71438 0.71155 0.74279 0.0
C1238 C 0.69649 0.68131 0.73338 0.0
C1239 C 0.71995 0.70008 0.71554 0.0
C1240 C 0.70087 0.69561 0.74565 0.0
C1241 C 0.72392 0.71405 0.72813 0.0
C1242 C 0.67502 0.65075 0.66176 0.0
C1243 C 0.6501 0.64084 0.64059 0.0
N1244 N 0.64189 0.6442 0.65394 0.0
C1245 C 0.66633 0.6541 0.67528 0.0
C1246 C 0.66685 0.64406 0.64428 0.0
C1247 C 0.6496 0.65071 0.67105 0.0
C1248 C 0.70457 0.69992 0.65756 0.0
N1249 N 0.69944 0.69342 0.67399 0.0
C1250 C 0.68522 0.70972 0.67803 0.0
C1251 C 0.6899 0.69801 0.68424 0.0
C1252 C 0.69022 0.71658 0.661 0.0
C1253 C 0.70007 0.71155 0.65075 0.0
H1254 H 0.71188 0.69576 0.64958 0.0
H1255 H 0.68565 0.69238 0.6971 0.0
C1256 C 0.67632 0.6297 0.7189 0.0
N1257 N 0.67502 0.62934 0.70036 0.0
C1258 C 0.66232 0.61814 0.72816 0.0
C1259 C 0.64592 0.60573 0.69901 0.0
C1260 C 0.6604 0.61738 0.69026 0.0
C1261 C 0.64675 0.60626 0.71822 0.0
H1262 H 0.6881 0.6394 0.72653 0.0
H1263 H 0.65976 0.61726 0.67551 0.0
C1264 C 0.74599 0.68999 0.67365 0.0
N1265 N 0.78002 0.70453 0.66564 0.0
C1266 C 0.7553 0.68187 0.67827 0.0
C1267 C 0.75397 0.70549 0.66497 0.0
C1268 C 0.7725 0.68942 0.67408 0.0
C1269 C 0.7712 0.71265 0.66105 0.0
C1270 C 0.70752 0.62816 0.69042 0.0
C1271 C 0.70868 0.6208 0.70644 0.0
C1272 C 0.69777 0.61735 0.67494 0.0
C1273 C 0.69994 0.6027 0.70674 0.0
C1274 C 0.68922 0.59931 0.67579 0.0
N1275 N 0.69047 0.59242 0.69154 0.0
C1276 C 0.73307 0.66718 0.73481 0.0
C1277 C 0.75491 0.69284 0.72315 0.0
C1278 C 0.74239 0.6715 0.75171 0.0
N1279 N 0.7394 0.67776 0.72097 0.0
C1280 C 0.76478 0.69766 0.73993 0.0
C1281 C 0.75838 0.68699 0.75452 0.0
H1282 H 0.72051 0.65555 0.73281 0.0
H1283 H 0.75943 0.70134 0.71212 0.0
C1284 C 0.71633 0.65425 0.63016 0.0
N1285 N 0.72275 0.6523 0.64639 0.0
C1286 C 0.72236 0.65163 0.61377 0.0
C1287 C 0.74146 0.645 0.63111 0.0
C1288 C 0.73485 0.64746 0.64716 0.0
C1289 C 0.73536 0.64726 0.61408 0.0
H1290 H 0.7067 0.6581 0.63 0.0
H1291 H 0.73967 0.64594 0.66027 0.0
O1292 O 0.702 0.6696 0.70623 0.0
O1293 O 0.69144 0.65395 0.66548 0.0
O1294 O 0.72916 0.68292 0.6776 0.0
O1295 O 0.71549 0.64584 0.68997 0.0
H1296 H 0.68576 0.66861 0.73564 0.0
H1297 H 0.72757 0.70213 0.70391 0.0
H1298 H 0.69353 0.69404 0.75745 0.0
H1299 H 0.7346 0.72688 0.72624 0.0
H1300 H 0.64362 0.63565 0.62711 0.0
H1301 H 0.67236 0.65916 0.68893 0.0
H1302 H 0.67338 0.64137 0.63367 0.0
H1303 H 0.64273 0.65322 0.68139 0.0
H1304 H 0.67776 0.71333 0.68647 0.0
H1305 H 0.70391 0.71618 0.63739 0.0
H1306 H 0.66341 0.61906 0.74298 0.0
H1307 H 0.63413 0.59665 0.69092 0.0
H1308 H 0.74935 0.66993 0.68512 0.0
H1309 H 0.74692 0.71194 0.66135 0.0
H1310 H 0.77986 0.68329 0.67758 0.0
H1311 H 0.77755 0.72466 0.65436 0.0
H1312 H 0.7162 0.62895 0.71853 0.0
H1313 H 0.6966 0.62284 0.66248 0.0
H1314 H 0.70067 0.59682 0.71906 0.0
H1315 H 0.68155 0.59079 0.66395 0.0
H1316 H 0.73705 0.66281 0.76253 0.0
H1317 H 0.77698 0.70981 0.74164 0.0
H1318 H 0.71696 0.65317 0.60103 0.0
H1319 H 0.75161 0.64188 0.63216 0.0
Li1320 Li 0.34644 0.31944 0.72012 0.0
Li1321 Li 0.32349 0.29082 0.7282 0.0
Li1322 Li 0.33542 0.29434 0.6972 0.0
Li1323 Li 0.31637 0.30557 0.70478 0.0
C1324 C 0.36319 0.30035 0.72677 0.0
N1325 N 0.39559 0.30594 0.73693 0.0
C1326 C 0.36652 0.29599 0.74391 0.0
C1327 C 0.37626 0.30734 0.71471 0.0
C1328 C 0.38301 0.29898 0.74882 0.0
C1329 C 0.39257 0.31012 0.72013 0.0
C1330 C 0.3174 0.31558 0.74618 0.0
C1331 C 0.29252 0.30969 0.76249 0.0
N1332 N 0.3031 0.31977 0.77724 0.0
C1333 C 0.32804 0.32607 0.76141 0.0
C1334 C 0.2995 0.30747 0.74663 0.0
C1335 C 0.32056 0.32795 0.77702 0.0
C1336 C 0.36729 0.35568 0.7231 0.0
N1337 N 0.3653 0.34096 0.73005 0.0
C1338 C 0.38854 0.35768 0.75269 0.0
C1339 C 0.37549 0.34165 0.74464 0.0
C1340 C 0.39079 0.37309 0.74591 0.0
C1341 C 0.38002 0.372 0.7309 0.0
H1342 H 0.35874 0.35471 0.71172 0.0
H1343 H 0.37321 0.32983 0.75039 0.0
C1344 C 0.30705 0.25876 0.74475 0.0
N1345 N 0.31662 0.27635 0.748 0.0
C1346 C 0.30436 0.24801 0.75904 0.0
C1347 C 0.32097 0.27372 0.77976 0.0
C1348 C 0.32345 0.28392 0.76509 0.0
C1349 C 0.3117 0.25549 0.77677 0.0
H1350 H 0.30218 0.25306 0.73093 0.0
H1351 H 0.33156 0.29788 0.76718 0.0
C1352 C 0.34767 0.32524 0.67904 0.0
N1353 N 0.36528 0.34033 0.64888 0.0
C1354 C 0.33865 0.32474 0.66284 0.0
C1355 C 0.36566 0.33372 0.68002 0.0
C1356 C 0.34778 0.33234 0.6477 0.0
C1357 C 0.37433 0.34119 0.66459 0.0
C1358 C 0.29405 0.26987 0.69832 0.0
C1359 C 0.28918 0.26201 0.68048 0.0
C1360 C 0.28147 0.26615 0.7107 0.0
C1361 C 0.27171 0.25082 0.67521 0.0
C1362 C 0.26414 0.25488 0.70492 0.0
N1363 N 0.25965 0.24753 0.68743 0.0
C1364 C 0.34873 0.27404 0.682 0.0
C1365 C 0.33519 0.28331 0.6606 0.0
C1366 C 0.35161 0.26482 0.66802 0.0
N1367 N 0.34071 0.28309 0.67804 0.0
C1368 C 0.33785 0.27435 0.64622 0.0
C1369 C 0.34602 0.2648 0.64984 0.0
H1370 H 0.35251 0.27361 0.69605 0.0
H1371 H 0.32832 0.29009 0.65789 0.0
C1372 C 0.29921 0.32448 0.70298 0.0
N1373 N 0.30021 0.31117 0.69454 0.0
C1374 C 0.28908 0.33049 0.69488 0.0
C1375 C 0.28104 0.30883 0.66962 0.0
C1376 C 0.29141 0.30333 0.67816 0.0
C1377 C 0.27995 0.32277 0.67785 0.0
H1378 H 0.30677 0.33085 0.71573 0.0
H1379 H 0.2929 0.29321 0.6714 0.0
O1380 O 0.34714 0.29759 0.7218 0.0
O1381 O 0.32451 0.31367 0.73077 0.0
O1382 O 0.33893 0.31796 0.69403 0.0
O1383 O 0.31109 0.28085 0.7037 0.0
H1384 H 0.35652 0.29044 0.75335 0.0
H1385 H 0.37378 0.3104 0.70125 0.0
H1386 H 0.3858 0.29576 0.76208 0.0
H1387 H 0.40282 0.31555 0.71094 0.0
H1388 H 0.27868 0.30345 0.76304 0.0
H1389 H 0.34193 0.33259 0.76121 0.0
H1390 H 0.29109 0.2997 0.73479 0.0
H1391 H 0.32864 0.33592 0.78896 0.0
H1392 H 0.39641 0.35803 0.76446 0.0
H1393 H 0.38141 0.38363 0.72531 0.0
H1394 H 0.29737 0.23403 0.75602 0.0
H1395 H 0.32674 0.28007 0.7932 0.0
H1396 H 0.32473 0.31842 0.66192 0.0
H1397 H 0.37288 0.3347 0.6926 0.0
H1398 H 0.34095 0.33192 0.63503 0.0
H1399 H 0.38826 0.34774 0.66514 0.0
H1400 H 0.29879 0.26464 0.67078 0.0
H1401 H 0.28507 0.27178 0.72467 0.0
H1402 H 0.26774 0.24475 0.66142 0.0
H1403 H 0.25426 0.25192 0.71434 0.0
H1404 H 0.35767 0.25738 0.6715 0.0
H1405 H 0.33343 0.27482 0.63242 0.0
H1406 H 0.28891 0.34146 0.70159 0.0
H1407 H 0.27412 0.30236 0.65658 0.0
Li1408 Li 0.68948 0.0437 0.67821 0.0
Li1409 Li 0.71766 0.04829 0.68485 0.0
Li1410 Li 0.71251 0.05751 0.65697 0.0
Li1411 Li 0.70037 0.02563 0.66166 0.0
C1412 C 0.70738 0.07938 0.68078 0.0
N1413 N 0.69889 0.10504 0.67826 0.0
C1414 C 0.71388 0.09326 0.6942 0.0
C1415 C 0.69654 0.07857 0.6661 0.0
C1416 C 0.70944 0.1061 0.69269 0.0
C1417 C 0.69241 0.09166 0.66505 0.0
C1418 C 0.69619 0.02197 0.70459 0.0
C1419 C 0.69774 0.00231 0.725 0.0
N1420 N 0.69845 0.01273 0.73956 0.0
C1421 C 0.6968 0.03242 0.71973 0.0
C1422 C 0.69657 0.00675 0.7072 0.0
C1423 C 0.698 0.02755 0.73731 0.0
C1424 C 0.65374 0.02842 0.68103 0.0
N1425 N 0.66941 0.04174 0.68779 0.0
C1426 C 0.65652 0.05006 0.71094 0.0
C1427 C 0.67105 0.05259 0.70234 0.0
C1428 C 0.64017 0.03611 0.70463 0.0
C1429 C 0.63883 0.0254 0.68925 0.0
H1430 H 0.65289 0.01981 0.66965 0.0
H1431 H 0.68369 0.06286 0.70766 0.0
C1432 C 0.74209 0.07059 0.71286 0.0
N1433 N 0.73455 0.05416 0.70478 0.0
C1434 C 0.75356 0.07549 0.7283 0.0
C1435 C 0.74973 0.04662 0.72656 0.0
C1436 C 0.73837 0.04229 0.71107 0.0
C1437 C 0.75732 0.06336 0.73552 0.0
H1438 H 0.73895 0.0798 0.70748 0.0
H1439 H 0.73239 0.02938 0.70425 0.0
C1440 C 0.67913 0.03402 0.63521 0.0
N1441 N 0.66012 0.02623 0.60203 0.0
C1442 C 0.68227 0.02568 0.62054 0.0
C1443 C 0.66614 0.03816 0.63307 0.0
C1444 C 0.67258 0.02193 0.60385 0.0
C1445 C 0.65672 0.03419 0.61617 0.0
C1446 C 0.74112 0.04878 0.66497 0.0
C1447 C 0.754 0.06632 0.66725 0.0
C1448 C 0.7453 0.03591 0.66779 0.0
C1449 C 0.7709 0.07072 0.6725 0.0
C1450 C 0.76235 0.04084 0.673 0.0
N1451 N 0.77468 0.05799 0.67525 0.0
C1452 C 0.73259 0.09141 0.64471 0.0
C1453 C 0.7204 0.06849 0.62124 0.0
C1454 C 0.74104 0.1036 0.632 0.0
N1455 N 0.72242 0.07422 0.63915 0.0
C1456 C 0.72867 0.08021 0.60807 0.0
C1457 C 0.73927 0.09801 0.61341 0.0
H1458 H 0.73459 0.09564 0.6591 0.0
H1459 H 0.71282 0.05475 0.6172 0.0
C1460 C 0.67813 0.98967 0.65443 0.0
N1461 N 0.69354 0.00336 0.65068 0.0
C1462 C 0.67282 0.97297 0.64674 0.0
C1463 C 0.69931 0.98487 0.63142 0.0
C1464 C 0.70408 0.00134 0.63937 0.0
C1465 C 0.68353 0.9704 0.63515 0.0
H1466 H 0.67006 0.99175 0.66351 0.0
H1467 H 0.71617 0.01254 0.6365 0.0
O1468 O 0.71149 0.06662 0.68229 0.0
O1469 O 0.69527 0.02663 0.68728 0.0
O1470 O 0.68823 0.03747 0.65179 0.0
O1471 O 0.72446 0.04426 0.6602 0.0
H1472 H 0.72218 0.09407 0.70576 0.0
H1473 H 0.69151 0.06809 0.65552 0.0
H1474 H 0.71437 0.11688 0.703 0.0
H1475 H 0.68408 0.09119 0.65371 0.0
H1476 H 0.69813 0.99061 0.72725 0.0
H1477 H 0.69664 0.0443 0.71792 0.0
H1478 H 0.6961 0.99854 0.69558 0.0
H1479 H 0.69863 0.03558 0.74917 0.0
H1480 H 0.65811 0.05874 0.72264 0.0
H1481 H 0.62652 0.01437 0.68409 0.0
H1482 H 0.75895 0.08848 0.73488 0.0
H1483 H 0.75243 0.03693 0.73155 0.0
H1484 H 0.69221 0.02232 0.62195 0.0
H1485 H 0.6633 0.04434 0.64436 0.0
H1486 H 0.67496 0.01559 0.59235 0.0
H1487 H 0.64668 0.03738 0.61431 0.0
H1488 H 0.75094 0.07643 0.6652 0.0
H1489 H 0.73544 0.02228 0.66623 0.0
H1490 H 0.78099 0.08424 0.67443 0.0
H1491 H 0.76577 0.03103 0.67535 0.0
H1492 H 0.74939 0.11716 0.63676 0.0
H1493 H 0.72696 0.07535 0.59388 0.0
H1494 H 0.66065 0.96214 0.65011 0.0
H1495 H 0.70782 0.9835 0.62237 0.0
Li1496 Li 0.95125 0.67914 0.72853 0.0
Li1497 Li 0.95585 0.65553 0.71754 0.0
Li1498 Li 0.97453 0.68602 0.708 0.0
Li1499 Li 0.94459 0.66769 0.69551 0.0
C1500 C 0.98115 0.68406 0.74931 0.0
N1501 N 0.99951 0.69777 0.78286 0.0
C1502 C 0.97896 0.67315 0.76329 0.0
C1503 C 0.99296 0.70189 0.75226 0.0
C1504 C 0.98828 0.68034 0.78019 0.0
C1505 C 0.00204 0.70859 0.76935 0.0
C1506 C 0.92086 0.63967 0.7216 0.0
C1507 C 0.90142 0.60908 0.71344 0.0
N1508 N 0.89501 0.6074 0.73017 0.0
C1509 C 0.91395 0.63767 0.73864 0.0
C1510 C 0.91444 0.62531 0.70882 0.0
C1511 C 0.90094 0.62124 0.74274 0.0
C1512 C 0.93544 0.6963 0.74476 0.0
N1513 N 0.94325 0.68698 0.74833 0.0
C1514 C 0.93601 0.68542 0.77943 0.0
C1515 C 0.94375 0.68162 0.76527 0.0
C1516 C 0.92748 0.69468 0.77607 0.0
C1517 C 0.92751 0.70039 0.75853 0.0
H1518 H 0.93486 0.70005 0.73106 0.0
H1519 H 0.94936 0.6736 0.76757 0.0
C1520 C 0.9668 0.63119 0.71533 0.0
N1521 N 0.95651 0.63562 0.72435 0.0
C1522 C 0.96893 0.61757 0.72081 0.0
C1523 C 0.94959 0.61315 0.74459 0.0
C1524 C 0.948 0.62697 0.73877 0.0
C1525 C 0.96034 0.60846 0.73571 0.0
H1526 H 0.97372 0.63854 0.70416 0.0
H1527 H 0.94046 0.63117 0.74619 0.0
C1528 C 0.96275 0.70974 0.70581 0.0
N1529 N 0.97607 0.74519 0.70521 0.0
C1530 C 0.96055 0.71668 0.68991 0.0
C1531 C 0.97151 0.72079 0.72147 0.0
C1532 C 0.96745 0.73465 0.68986 0.0
C1533 C 0.9782 0.73868 0.72088 0.0
C1534 C 0.96242 0.65581 0.67609 0.0
C1535 C 0.97225 0.66583 0.66237 0.0
C1536 C 0.95106 0.63797 0.67221 0.0
C1537 C 0.97023 0.6579 0.64485 0.0
C1538 C 0.94942 0.63052 0.65453 0.0
N1539 N 0.95894 0.64056 0.64132 0.0
C1540 C 0.01082 0.70195 0.70911 0.0
C1541 C 0.9983 0.71162 0.68693 0.0
C1542 C 0.02696 0.7115 0.7021 0.0
N1543 N 0.9969 0.70202 0.7013 0.0
C1544 C 0.01413 0.72134 0.67952 0.0
C1545 C 0.02862 0.72099 0.68678 0.0
H1546 H 0.00923 0.69384 0.72024 0.0
H1547 H 0.98694 0.71096 0.68057 0.0
C1548 C 0.91276 0.65253 0.67352 0.0
N1549 N 0.93013 0.66334 0.67408 0.0
C1550 C 0.90248 0.65006 0.65758 0.0
C1551 C 0.92819 0.66988 0.6432 0.0
C1552 C 0.93791 0.67208 0.65942 0.0
C1553 C 0.91019 0.65885 0.64214 0.0
H1554 H 0.90685 0.64607 0.68553 0.0
H1555 H 0.95169 0.68091 0.66041 0.0
O1556 O 0.97224 0.67719 0.73262 0.0
O1557 O 0.93367 0.65566 0.71739 0.0
O1558 O 0.95613 0.69218 0.70604 0.0
O1559 O 0.96414 0.66337 0.6933 0.0
H1560 H 0.97004 0.65929 0.76116 0.0
H1561 H 0.99525 0.71046 0.74143 0.0
H1562 H 0.98659 0.67207 0.79118 0.0
H1563 H 0.01118 0.72238 0.77184 0.0
H1564 H 0.89638 0.59785 0.7037 0.0
H1565 H 0.91863 0.64867 0.74863 0.0
H1566 H 0.91936 0.62668 0.69545 0.0
H1567 H 0.89555 0.61949 0.75592 0.0
H1568 H 0.93595 0.6804 0.7926 0.0
H1569 H 0.92114 0.70762 0.75537 0.0
H1570 H 0.97736 0.61435 0.71366 0.0
H1571 H 0.94307 0.60668 0.75639 0.0
H1572 H 0.95367 0.70829 0.67771 0.0
H1573 H 0.97294 0.7156 0.734 0.0
H1574 H 0.96593 0.74021 0.67762 0.0
H1575 H 0.98502 0.74739 0.73291 0.0
H1576 H 0.98123 0.6796 0.66516 0.0
H1577 H 0.9437 0.62994 0.68276 0.0
H1578 H 0.97765 0.66554 0.63407 0.0
H1579 H 0.94063 0.61675 0.65132 0.0
H1580 H 0.03776 0.71072 0.70797 0.0
H1581 H 0.01488 0.7286 0.66781 0.0
H1582 H 0.88864 0.64169 0.65751 0.0
H1583 H 0.93476 0.67677 0.63162 0.0
H1584 H 0.16689 0.34485 0.03759 0.0
H1585 H 0.25163 0.28177 0.17484 0.0
H1586 H 0.16044 0.34116 0.14107 0.0
H1587 H 0.14212 0.35001 0.12507 0.0
H1588 H 0.10377 0.29594 0.11133 0.0
H1589 H 0.12212 0.28722 0.12787 0.0
H1590 H 0.18549 0.34066 0.11377 0.0
H1591 H 0.18169 0.34746 0.08257 0.0
H1592 H 0.14037 0.29429 0.07015 0.0
H1593 H 0.14442 0.28766 0.10135 0.0
H1594 H 0.21384 0.33557 0.13731 0.0
H1595 H 0.23627 0.34288 0.11617 0.0
H1596 H 0.20159 0.29658 0.08134 0.0
H1597 H 0.17946 0.28886 0.10328 0.0
H1598 H 0.21217 0.32816 0.17484 0.0
H1599 H 0.23661 0.32503 0.18508 0.0
H1600 H 0.21327 0.27499 0.15417 0.0
H1601 H 0.18878 0.27818 0.14423 0.0
H1602 H 0.18172 0.33101 0.19087 0.0
H1603 H 0.19411 0.3344 0.22206 0.0
H1604 H 0.18505 0.28199 0.21598 0.0
H1605 H 0.17229 0.27855 0.18468 0.0
H1606 H 0.1521 0.33109 0.17449 0.0
H1607 H 0.13385 0.32887 0.19925 0.0
H1608 H 0.11724 0.27432 0.20085 0.0
H1609 H 0.13545 0.27664 0.17597 0.0
O1610 O 0.16828 0.34184 0.0498 0.0
O1611 O 0.14716 0.31435 0.0441 0.0
O1612 O 0.25353 0.30909 0.18674 0.0
O1613 O 0.24212 0.28333 0.17101 0.0
C1614 C 0.15544 0.30882 0.14152 0.0
C1615 C 0.16723 0.30973 0.12884 0.0
C1616 C 0.18138 0.30795 0.13457 0.0
C1617 C 0.18362 0.30501 0.15296 0.0
C1618 C 0.17184 0.30415 0.16567 0.0
C1619 C 0.1575 0.30564 0.15985 0.0
C1620 C 0.1425 0.31357 0.13576 0.0
C1621 C 0.14781 0.33123 0.13514 0.0
C1622 C 0.13746 0.33626 0.12576 0.0
C1623 C 0.12163 0.32368 0.11668 0.0
C1624 C 0.11585 0.30593 0.11828 0.0
C1625 C 0.12625 0.30091 0.12776 0.0
C1626 C 0.16526 0.31367 0.10974 0.0
C1627 C 0.17572 0.33049 0.10423 0.0
C1628 C 0.17348 0.33434 0.08643 0.0
C1629 C 0.16071 0.32142 0.07386 0.0
C1630 C 0.15032 0.30454 0.07947 0.0
C1631 C 0.15259 0.30071 0.09727 0.0
C1632 C 0.19509 0.31161 0.12192 0.0
C1633 C 0.21119 0.32684 0.12528 0.0
C1634 C 0.2239 0.33113 0.11301 0.0
C1635 C 0.22068 0.32043 0.0969 0.0
C1636 C 0.20455 0.30504 0.09366 0.0
C1637 C 0.19187 0.30064 0.10611 0.0
C1638 C 0.19863 0.3033 0.15896 0.0
C1639 C 0.21231 0.31648 0.1704 0.0
C1640 C 0.22628 0.31469 0.17617 0.0
C1641 C 0.22687 0.29973 0.17048 0.0
C1642 C 0.21321 0.28665 0.15884 0.0
C1643 C 0.19922 0.28844 0.15313 0.0
C1644 C 0.17615 0.30455 0.18551 0.0
C1645 C 0.1819 0.32005 0.19644 0.0
C1646 C 0.18911 0.32203 0.21418 0.0
C1647 C 0.19072 0.30853 0.2213 0.0
C1648 C 0.18388 0.29256 0.21081 0.0
C1649 C 0.17665 0.29059 0.19297 0.0
C1650 C 0.14489 0.30396 0.17321 0.0
C1651 C 0.14413 0.31855 0.1798 0.0
C1652 C 0.13377 0.31727 0.19402 0.0
C1653 C 0.12414 0.30142 0.20202 0.0
C1654 C 0.12464 0.28674 0.19508 0.0
C1655 C 0.13491 0.288 0.18079 0.0
C1656 C 0.15826 0.32558 0.05502 0.0
C1657 C 0.24167 0.29774 0.1766 0.0
H1658 H 0.66568 0.8228 0.04978 0.0
H1659 H 0.73002 0.97042 0.19761 0.0
H1660 H 0.66749 0.81808 0.14723 0.0
H1661 H 0.6591 0.78822 0.13706 0.0
H1662 H 0.71067 0.79921 0.15234 0.0
H1663 H 0.71914 0.82936 0.16218 0.0
H1664 H 0.66789 0.84417 0.1269 0.0
H1665 H 0.66208 0.83445 0.09434 0.0
H1666 H 0.7134 0.84202 0.0929 0.0
H1667 H 0.7191 0.85193 0.12544 0.0
H1668 H 0.67028 0.87199 0.15559 0.0
H1669 H 0.65945 0.88583 0.13536 0.0
H1670 H 0.70464 0.90377 0.10471 0.0
H1671 H 0.71558 0.88994 0.1254 0.0
H1672 H 0.68337 0.88368 0.19377 0.0
H1673 H 0.68768 0.91201 0.20473 0.0
H1674 H 0.73434 0.93754 0.17628 0.0
H1675 H 0.73 0.9091 0.16563 0.0
H1676 H 0.68295 0.8532 0.21165 0.0
H1677 H 0.68563 0.86546 0.24283 0.0
H1678 H 0.73757 0.90618 0.23512 0.0
H1679 H 0.73489 0.89356 0.20385 0.0
H1680 H 0.6742 0.82094 0.18871 0.0
H1681 H 0.67174 0.80199 0.21278 0.0
H1682 H 0.72662 0.83338 0.22672 0.0
H1683 H 0.72904 0.85217 0.20217 0.0
O1684 O 0.66827 0.82676 0.06264 0.0
O1685 O 0.69475 0.83079 0.06266 0.0
O1686 O 0.70399 0.94528 0.20795 0.0
O1687 O 0.72797 0.95905 0.19339 0.0
C1688 C 0.69883 0.8441 0.16109 0.0
C1689 C 0.69762 0.85486 0.14825 0.0
C1690 C 0.69954 0.87103 0.15432 0.0
C1691 C 0.7042 0.87716 0.17292 0.0
C1692 C 0.70588 0.86664 0.18573 0.0
C1693 C 0.70277 0.84992 0.17987 0.0
C1694 C 0.69401 0.82598 0.1551 0.0
C1695 C 0.67705 0.81413 0.14816 0.0
C1696 C 0.67226 0.79709 0.14244 0.0
C1697 C 0.68427 0.79148 0.14383 0.0
C1698 C 0.70116 0.80322 0.15121 0.0
C1699 C 0.70602 0.82041 0.15673 0.0
C1700 C 0.694 0.84897 0.12847 0.0
C1701 C 0.67792 0.84389 0.11949 0.0
C1702 C 0.67461 0.83826 0.1009 0.0
C1703 C 0.68729 0.8375 0.091 0.0
C1704 C 0.70336 0.84249 0.10011 0.0
C1705 C 0.70666 0.84815 0.11868 0.0
C1706 C 0.69373 0.88006 0.14199 0.0
C1707 C 0.6779 0.87899 0.14457 0.0
C1708 C 0.67165 0.88673 0.13288 0.0
C1709 C 0.68112 0.89572 0.11834 0.0
C1710 C 0.69711 0.89695 0.11584 0.0
C1711 C 0.70335 0.88908 0.12758 0.0
C1712 C 0.70649 0.89436 0.17909 0.0
C1713 C 0.69456 0.89541 0.19001 0.0
C1714 C 0.69702 0.91161 0.1962 0.0
C1715 C 0.7114 0.92705 0.19144 0.0
C1716 C 0.72317 0.92591 0.18024 0.0
C1717 C 0.72071 0.9097 0.17411 0.0
C1718 C 0.70877 0.87241 0.20552 0.0
C1719 C 0.69514 0.86438 0.21689 0.0
C1720 C 0.69668 0.87143 0.2347 0.0
C1721 C 0.7118 0.88679 0.24138 0.0
C1722 C 0.72574 0.89438 0.23026 0.0
C1723 C 0.72426 0.88717 0.21248 0.0
C1724 C 0.70181 0.83785 0.19364 0.0
C1725 C 0.68574 0.82356 0.19674 0.0
C1726 C 0.68434 0.81287 0.21062 0.0
C1727 C 0.69897 0.81631 0.22172 0.0
C1728 C 0.71516 0.83038 0.21829 0.0
C1729 C 0.71655 0.84112 0.20436 0.0
C1730 C 0.68373 0.83149 0.07126 0.0
C1731 C 0.71416 0.9443 0.19812 0.0
H1732 H 0.14074 0.83376 0.04034 0.0
H1733 H 0.2767 0.96289 0.18298 0.0
H1734 H 0.12725 0.84545 0.13299 0.0
H1735 H 0.1037 0.81618 0.12231 0.0
H1736 H 0.12728 0.79375 0.15523 0.0
H1737 H 0.151 0.82295 0.1654 0.0
H1738 H 0.15803 0.87429 0.11088 0.0
H1739 H 0.15009 0.86115 0.0794 0.0
H1740 H 0.15822 0.81963 0.09546 0.0
H1741 H 0.16635 0.83303 0.12683 0.0
H1742 H 0.19211 0.9092 0.12942 0.0
H1743 H 0.21551 0.92428 0.10927 0.0
H1744 H 0.22468 0.88114 0.10846 0.0
H1745 H 0.20132 0.86621 0.1285 0.0
H1746 H 0.1907 0.91763 0.17211 0.0
H1747 H 0.2175 0.94533 0.1797 0.0
H1748 H 0.24672 0.91953 0.1712 0.0
H1749 H 0.21981 0.89189 0.16386 0.0
H1750 H 0.16517 0.8952 0.19796 0.0
H1751 H 0.17556 0.90769 0.2297 0.0
H1752 H 0.21038 0.88766 0.22996 0.0
H1753 H 0.20017 0.87553 0.19833 0.0
H1754 H 0.12932 0.85613 0.17994 0.0
H1755 H 0.11203 0.84099 0.20522 0.0
H1756 H 0.1514 0.8298 0.22366 0.0
H1757 H 0.1685 0.84494 0.19852 0.0
O1758 O 0.14405 0.8388 0.05284 0.0
O1759 O 0.1483 0.81769 0.06183 0.0
O1760 O 0.25028 0.96471 0.18449 0.0
O1761 O 0.26591 0.9521 0.18012 0.0
C1762 C 0.15631 0.8538 0.15432 0.0
C1763 C 0.16718 0.86247 0.14029 0.0
C1764 C 0.18261 0.8785 0.14455 0.0
C1765 C 0.18703 0.88606 0.16273 0.0
C1766 C 0.17626 0.87738 0.17671 0.0
C1767 C 0.16093 0.86124 0.17256 0.0
C1768 C 0.1408 0.83633 0.15 0.0
C1769 C 0.12718 0.83421 0.13808 0.0
C1770 C 0.11381 0.81754 0.13197 0.0
C1771 C 0.11374 0.80277 0.13795 0.0
C1772 C 0.12695 0.80494 0.15058 0.0
C1773 C 0.14045 0.82159 0.15644 0.0
C1774 C 0.16266 0.85456 0.12114 0.0
C1775 C 0.15815 0.8624 0.10754 0.0
C1776 C 0.15358 0.85484 0.08959 0.0
C1777 C 0.15346 0.8393 0.08492 0.0
C1778 C 0.15813 0.83157 0.0986 0.0
C1779 C 0.16274 0.83917 0.11653 0.0
C1780 C 0.19504 0.88663 0.1304 0.0
C1781 C 0.19902 0.90293 0.12462 0.0
C1782 C 0.21242 0.91154 0.11322 0.0
C1783 C 0.22199 0.90393 0.10736 0.0
C1784 C 0.21743 0.88725 0.11255 0.0
C1785 C 0.2041 0.87871 0.124 0.0
C1786 C 0.20334 0.90281 0.16736 0.0
C1787 C 0.20291 0.918 0.17195 0.0
C1788 C 0.21823 0.9338 0.17624 0.0
C1789 C 0.23427 0.93465 0.17601 0.0
C1790 C 0.23461 0.91934 0.17147 0.0
C1791 C 0.21927 0.90355 0.16724 0.0
C1792 C 0.18194 0.88449 0.19597 0.0
C1793 C 0.17499 0.89351 0.20496 0.0
C1794 C 0.18093 0.90062 0.22298 0.0
C1795 C 0.19366 0.89851 0.23224 0.0
C1796 C 0.2004 0.88927 0.2232 0.0
C1797 C 0.19467 0.88243 0.20517 0.0
C1798 C 0.15022 0.85178 0.18754 0.0
C1799 C 0.13415 0.85039 0.18947 0.0
C1800 C 0.1243 0.84171 0.20386 0.0
C1801 C 0.13043 0.83435 0.21654 0.0
C1802 C 0.14648 0.83565 0.21437 0.0
C1803 C 0.15624 0.84424 0.19999 0.0
C1804 C 0.14847 0.83123 0.06587 0.0
C1805 C 0.25058 0.95142 0.18048 0.0
H1806 H 0.29837 0.16217 0.02063 0.0
H1807 H 0.31215 0.05076 0.86768 0.0
H1808 H 0.27845 0.1636 0.92563 0.0
H1809 H 0.2848 0.19217 0.93888 0.0
H1810 H 0.3335 0.21632 0.91404 0.0
H1811 H 0.32713 0.18784 0.90105 0.0
H1812 H 0.27787 0.13108 0.9453 0.0
H1813 H 0.28169 0.14021 0.97796 0.0
H1814 H 0.33318 0.18223 0.97065 0.0
H1815 H 0.32926 0.17283 0.93807 0.0
H1816 H 0.27775 0.09832 0.92547 0.0
H1817 H 0.28495 0.08046 0.94415 0.0
H1818 H 0.33829 0.12198 0.94988 0.0
H1819 H 0.33081 0.13977 0.93174 0.0
H1820 H 0.27075 0.09442 0.88099 0.0
H1821 H 0.27018 0.06765 0.87053 0.0
H1822 H 0.32498 0.09259 0.88502 0.0
H1823 H 0.32538 0.11931 0.89523 0.0
H1824 H 0.27153 0.11903 0.85474 0.0
H1825 H 0.27385 0.10931 0.82356 0.0
H1826 H 0.32892 0.13296 0.83501 0.0
H1827 H 0.32646 0.14255 0.86582 0.0
H1828 H 0.27155 0.15666 0.87874 0.0
H1829 H 0.27055 0.17569 0.85622 0.0
H1830 H 0.32203 0.18977 0.84251 0.0
H1831 H 0.32309 0.17126 0.86543 0.0
O1832 O 0.29716 0.15875 0.0077 0.0
O1833 O 0.32351 0.1802 0.00318 0.0
O1834 O 0.28386 0.04897 0.86443 0.0
O1835 O 0.312 0.06117 0.87172 0.0
C1836 C 0.2997 0.15636 0.9063 0.0
C1837 C 0.30078 0.14579 0.91951 0.0
C1838 C 0.30017 0.13015 0.91384 0.0
C1839 C 0.29833 0.12497 0.89503 0.0
C1840 C 0.29761 0.13566 0.88186 0.0
C1841 C 0.29804 0.15123 0.88744 0.0
C1842 C 0.30227 0.17368 0.91228 0.0
C1843 C 0.29035 0.17512 0.92284 0.0
C1844 C 0.29404 0.1914 0.93046 0.0
C1845 C 0.30966 0.20647 0.92751 0.0
C1846 C 0.32126 0.20499 0.91635 0.0
C1847 C 0.31762 0.18874 0.90888 0.0
C1848 C 0.30323 0.15138 0.93932 0.0
C1849 C 0.28997 0.14223 0.95081 0.0
C1850 C 0.29218 0.14749 0.96944 0.0
C1851 C 0.30772 0.16199 0.97691 0.0
C1852 C 0.32103 0.17105 0.96534 0.0
C1853 C 0.31881 0.16574 0.94672 0.0
C1854 C 0.30376 0.12031 0.92733 0.0
C1855 C 0.29088 0.10364 0.93116 0.0
C1856 C 0.29507 0.09343 0.94168 0.0
C1857 C 0.31223 0.09973 0.94842 0.0
C1858 C 0.32491 0.11679 0.94519 0.0
C1859 C 0.32069 0.12698 0.93478 0.0
C1860 C 0.29807 0.10871 0.88897 0.0
C1861 C 0.2826 0.09404 0.8819 0.0
C1862 C 0.28232 0.07879 0.87594 0.0
C1863 C 0.29754 0.07797 0.87697 0.0
C1864 C 0.31303 0.09276 0.88407 0.0
C1865 C 0.31329 0.10801 0.88997 0.0
C1866 C 0.29885 0.13156 0.86239 0.0
C1867 C 0.28409 0.12235 0.8503 0.0
C1868 C 0.28543 0.11674 0.83261 0.0
C1869 C 0.30158 0.12045 0.82683 0.0
C1870 C 0.31635 0.13017 0.8389 0.0
C1871 C 0.31498 0.1356 0.85652 0.0
C1872 C 0.29732 0.16246 0.87356 0.0
C1873 C 0.28258 0.16387 0.87082 0.0
C1874 C 0.282 0.17465 0.85791 0.0
C1875 C 0.29621 0.18425 0.84757 0.0
C1876 C 0.31094 0.18274 0.85039 0.0
C1877 C 0.31151 0.17201 0.86331 0.0
C1878 C 0.31001 0.16758 0.9967 0.0
C1879 C 0.29731 0.06181 0.87065 0.0
H1880 H 0.83629 0.17356 0.01829 0.0
H1881 H 0.74401 0.0236 0.87428 0.0
H1882 H 0.84114 0.17489 0.91813 0.0
H1883 H 0.8628 0.20482 0.92847 0.0
H1884 H 0.90282 0.19178 0.92473 0.0
H1885 H 0.88085 0.16156 0.91466 0.0
H1886 H 0.81597 0.15005 0.94083 0.0
H1887 H 0.82051 0.16088 0.97301 0.0
H1888 H 0.86329 0.15191 0.9799 0.0
H1889 H 0.85846 0.1409 0.94773 0.0
H1890 H 0.78847 0.11983 0.91528 0.0
H1891 H 0.76667 0.10805 0.93741 0.0
H1892 H 0.79748 0.09181 0.96815 0.0
H1893 H 0.81954 0.10414 0.94598 0.0
H1894 H 0.7895 0.11028 0.87551 0.0
H1895 H 0.76381 0.0826 0.86472 0.0
H1896 H 0.78317 0.05517 0.89578 0.0
H1897 H 0.8089 0.08293 0.90629 0.0
H1898 H 0.82203 0.14117 0.85858 0.0
H1899 H 0.81354 0.13113 0.82634 0.0
H1900 H 0.81815 0.08608 0.83537 0.0
H1901 H 0.82704 0.09646 0.86777 0.0
H1902 H 0.85011 0.17254 0.87947 0.0
H1903 H 0.87085 0.18983 0.85773 0.0
H1904 H 0.88554 0.15077 0.85125 0.0
H1905 H 0.86498 0.13366 0.87344 0.0
O1906 O 0.8347 0.1692 0.00561 0.0
O1907 O 0.85669 0.1645 0.00838 0.0
O1908 O 0.7447 0.04945 0.86254 0.0
O1909 O 0.75404 0.03473 0.87835 0.0
C1910 C 0.8459 0.14791 0.90995 0.0
C1911 C 0.834 0.13784 0.92251 0.0
C1912 C 0.81933 0.1217 0.91643 0.0
C1913 C 0.81683 0.11536 0.89789 0.0
C1914 C 0.82898 0.12526 0.88537 0.0
C1915 C 0.84362 0.14149 0.89146 0.0
C1916 C 0.85945 0.16607 0.9158 0.0
C1917 C 0.85459 0.1785 0.91957 0.0
C1918 C 0.86699 0.19562 0.92528 0.0
C1919 C 0.88452 0.20067 0.92733 0.0
C1920 C 0.88939 0.18821 0.92338 0.0
C1921 C 0.87692 0.17102 0.9176 0.0
C1922 C 0.83676 0.14451 0.94203 0.0
C1923 C 0.82622 0.1503 0.94936 0.0
C1924 C 0.82889 0.15655 0.96773 0.0
C1925 C 0.84224 0.15722 0.97905 0.0
C1926 C 0.85287 0.15153 0.97157 0.0
C1927 C 0.85015 0.14525 0.95322 0.0
C1928 C 0.80548 0.11269 0.92896 0.0
C1929 C 0.79037 0.11346 0.92663 0.0
C1930 C 0.77792 0.1067 0.9393 0.0
C1931 C 0.78029 0.09892 0.95455 0.0
C1932 C 0.79535 0.09788 0.95667 0.0
C1933 C 0.80787 0.10474 0.94396 0.0
C1934 C 0.80111 0.09858 0.89154 0.0
C1935 C 0.7882 0.09826 0.87988 0.0
C1936 C 0.77352 0.08244 0.87378 0.0
C1937 C 0.77145 0.06665 0.87935 0.0
C1938 C 0.78437 0.06707 0.89119 0.0
C1939 C 0.79906 0.0829 0.89724 0.0
C1940 C 0.82528 0.11962 0.86551 0.0
C1941 C 0.82163 0.12935 0.85354 0.0
C1942 C 0.81678 0.1236 0.83512 0.0
C1943 C 0.81525 0.10785 0.82833 0.0
C1944 C 0.81918 0.09823 0.84027 0.0
C1945 C 0.82427 0.10414 0.85871 0.0
C1946 C 0.85626 0.15199 0.87828 0.0
C1947 C 0.85801 0.16785 0.87362 0.0
C1948 C 0.86982 0.17768 0.86119 0.0
C1949 C 0.87988 0.17168 0.85295 0.0
C1950 C 0.87792 0.15566 0.85741 0.0
C1951 C 0.86625 0.14593 0.87007 0.0
C1952 C 0.84503 0.16384 0.99856 0.0
C1953 C 0.75591 0.04981 0.87287 0.0
H1954 H 0.85291 0.68547 0.03698 0.0
H1955 H 0.73681 0.692 0.8865 0.0
H1956 H 0.87667 0.71205 0.94862 0.0
H1957 H 0.89535 0.70272 0.96272 0.0
H1958 H 0.87294 0.65746 0.92394 0.0
H1959 H 0.85342 0.66628 0.9109 0.0
H1960 H 0.84579 0.71225 0.96788 0.0
H1961 H 0.84978 0.70574 0.99913 0.0
H1962 H 0.83818 0.65439 0.97886 0.0
H1963 H 0.83401 0.661 0.94771 0.0
H1964 H 0.81516 0.71543 0.94888 0.0
H1965 H 0.79152 0.70811 0.96875 0.0
H1966 H 0.77701 0.65389 0.96208 0.0
H1967 H 0.80077 0.6614 0.94265 0.0
H1968 H 0.8215 0.72617 0.90468 0.0
H1969 H 0.79717 0.72978 0.89521 0.0
H1970 H 0.76213 0.67506 0.90061 0.0
H1971 H 0.78658 0.67158 0.90983 0.0
H1972 H 0.84886 0.72475 0.87831 0.0
H1973 H 0.83918 0.72657 0.84694 0.0
H1974 H 0.79569 0.67446 0.84765 0.0
H1975 H 0.80553 0.67257 0.87852 0.0
H1976 H 0.8803 0.72125 0.9038 0.0
H1977 H 0.89982 0.72349 0.8803 0.0
H1978 H 0.85917 0.67561 0.85234 0.0
H1979 H 0.83985 0.67339 0.87589 0.0
O1980 O 0.85117 0.68774 0.02453 0.0
O1981 O 0.84521 0.66152 0.01341 0.0
O1982 O 0.76522 0.71898 0.88761 0.0
O1983 O 0.74665 0.69094 0.89026 0.0
C1984 C 0.84938 0.69304 0.92355 0.0
C1985 C 0.83751 0.69128 0.93657 0.0
C1986 C 0.82316 0.69294 0.93146 0.0
C1987 C 0.8207 0.69654 0.91343 0.0
C1988 C 0.83218 0.69772 0.90023 0.0
C1989 C 0.84665 0.69616 0.90532 0.0
C1990 C 0.86357 0.68979 0.92884 0.0
C1991 C 0.87604 0.70029 0.94297 0.0
C1992 C 0.88678 0.69494 0.95096 0.0
C1993 C 0.8855 0.67914 0.94469 0.0
C1994 C 0.87397 0.66944 0.92947 0.0
C1995 C 0.86301 0.67463 0.92174 0.0
C1996 C 0.83973 0.68715 0.95554 0.0
C1997 C 0.84407 0.69959 0.97024 0.0
C1998 C 0.84637 0.69584 0.98806 0.0
C1999 C 0.84435 0.67956 0.99149 0.0
C2000 C 0.83988 0.66707 0.9767 0.0
C2001 C 0.83753 0.67082 0.9589 0.0
C2002 C 0.80966 0.68895 0.94443 0.0
C2003 C 0.80695 0.70203 0.95193 0.0
C2004 C 0.79341 0.6978 0.96316 0.0
C2005 C 0.78239 0.68041 0.96701 0.0
C2006 C 0.78542 0.66743 0.95969 0.0
C2007 C 0.79894 0.67168 0.94852 0.0
C2008 C 0.80578 0.69867 0.90812 0.0
C2009 C 0.80855 0.715 0.90385 0.0
C2010 C 0.79464 0.71702 0.89844 0.0
C2011 C 0.77769 0.70271 0.8972 0.0
C2012 C 0.77499 0.68635 0.90148 0.0
C2013 C 0.78892 0.68435 0.90685 0.0
C2014 C 0.82774 0.69862 0.88074 0.0
C2015 C 0.8374 0.71368 0.87153 0.0
C2016 C 0.83189 0.71469 0.85371 0.0
C2017 C 0.81658 0.70074 0.84509 0.0
C2018 C 0.80739 0.68548 0.85413 0.0
C2019 C 0.81299 0.68439 0.87171 0.0
C2020 C 0.85861 0.69727 0.89142 0.0
C2021 C 0.87567 0.71123 0.89262 0.0
C2022 C 0.88678 0.71247 0.87924 0.0
C2023 C 0.88095 0.69981 0.86441 0.0
C2024 C 0.86392 0.68573 0.86343 0.0
C2025 C 0.85289 0.68442 0.87686 0.0
C2026 C 0.84692 0.67566 0.01043 0.0
C2027 C 0.76287 0.70477 0.8914 0.0
H2028 H 0.82581 0.67309 0.36596 0.0
H2029 H 0.9156 0.61822 0.50336 0.0
H2030 H 0.81973 0.67111 0.46534 0.0
H2031 H 0.79849 0.67775 0.45225 0.0
H2032 H 0.75904 0.62356 0.45196 0.0
H2033 H 0.78053 0.61698 0.46507 0.0
H2034 H 0.84591 0.67125 0.4423 0.0
H2035 H 0.84159 0.677 0.41081 0.0
H2036 H 0.79843 0.62441 0.40113 0.0
H2037 H 0.80302 0.61879 0.43261 0.0
H2038 H 0.87305 0.6692 0.46762 0.0
H2039 H 0.89646 0.67776 0.44747 0.0
H2040 H 0.8655 0.62983 0.41352 0.0
H2041 H 0.84192 0.62141 0.43385 0.0
H2042 H 0.8713 0.65976 0.50598 0.0
H2043 H 0.89668 0.65811 0.51598 0.0
H2044 H 0.87666 0.60973 0.48257 0.0
H2045 H 0.85124 0.61142 0.47287 0.0
H2046 H 0.83922 0.6587 0.52359 0.0
H2047 H 0.84923 0.65888 0.55495 0.0
H2048 H 0.84421 0.60862 0.54231 0.0
H2049 H 0.83287 0.60799 0.5112 0.0
H2050 H 0.81393 0.66248 0.50506 0.0
H2051 H 0.79612 0.66127 0.52977 0.0
H2052 H 0.7748 0.60558 0.52912 0.0
H2053 H 0.7934 0.60719 0.50496 0.0
O2054 O 0.82736 0.6705 0.37832 0.0
O2055 O 0.80525 0.64336 0.37407 0.0
O2056 O 0.91536 0.64403 0.51671 0.0
O2057 O 0.90568 0.61917 0.49967 0.0
C2058 C 0.81523 0.63958 0.47153 0.0
C2059 C 0.82727 0.64113 0.45887 0.0
C2060 C 0.84178 0.63998 0.46463 0.0
C2061 C 0.84389 0.63654 0.48286 0.0
C2062 C 0.83166 0.63464 0.49547 0.0
C2063 C 0.81728 0.63612 0.48976 0.0
C2064 C 0.80166 0.64356 0.46598 0.0
C2065 C 0.80646 0.6607 0.46264 0.0
C2066 C 0.79436 0.66445 0.45509 0.0
C2067 C 0.7772 0.65112 0.45088 0.0
C2068 C 0.77219 0.63406 0.45511 0.0
C2069 C 0.7844 0.63029 0.46258 0.0
C2070 C 0.82488 0.64455 0.43965 0.0
C2071 C 0.83564 0.66095 0.43329 0.0
C2072 C 0.83309 0.66421 0.41533 0.0
C2073 C 0.81967 0.65116 0.40344 0.0
C2074 C 0.80889 0.63475 0.40991 0.0
C2075 C 0.81149 0.63149 0.42787 0.0
C2076 C 0.85589 0.64461 0.4523 0.0
C2077 C 0.87138 0.66047 0.45592 0.0
C2078 C 0.88474 0.66531 0.44441 0.0
C2079 C 0.88289 0.6544 0.42899 0.0
C2080 C 0.86726 0.63854 0.42525 0.0
C2081 C 0.85385 0.63367 0.43686 0.0
C2082 C 0.85937 0.63562 0.48885 0.0
C2083 C 0.87238 0.64876 0.50094 0.0
C2084 C 0.88688 0.64781 0.50657 0.0
C2085 C 0.88868 0.63376 0.50009 0.0
C2086 C 0.87567 0.6207 0.48785 0.0
C2087 C 0.86114 0.62164 0.48227 0.0
C2088 C 0.8352 0.63329 0.51511 0.0
C2089 C 0.83964 0.64742 0.52777 0.0
C2090 C 0.84568 0.64764 0.54562 0.0
C2091 C 0.84788 0.63393 0.55109 0.0
C2092 C 0.84259 0.61935 0.53863 0.0
C2093 C 0.83619 0.619 0.52082 0.0
C2094 C 0.80492 0.63493 0.50322 0.0
C2095 C 0.80522 0.65 0.51011 0.0
C2096 C 0.79495 0.64923 0.52421 0.0
C2097 C 0.78397 0.63331 0.53156 0.0
C2098 C 0.7833 0.61812 0.5241 0.0
C2099 C 0.79378 0.61896 0.51015 0.0
C2100 C 0.81694 0.6547 0.38439 0.0
C2101 C 0.90406 0.63269 0.50603 0.0
H2102 H 0.3464 0.16484 0.37978 0.0
H2103 H 0.38833 0.29963 0.5391 0.0
H2104 H 0.33971 0.15322 0.47807 0.0
H2105 H 0.33334 0.12457 0.46578 0.0
H2106 H 0.38646 0.13911 0.47862 0.0
H2107 H 0.39265 0.16788 0.4912 0.0
H2108 H 0.34058 0.17803 0.45725 0.0
H2109 H 0.33789 0.1709 0.42423 0.0
H2110 H 0.39222 0.18783 0.42592 0.0
H2111 H 0.39474 0.19505 0.45895 0.0
H2112 H 0.33915 0.20204 0.4774 0.0
H2113 H 0.33229 0.22008 0.45872 0.0
H2114 H 0.38647 0.25374 0.4517 0.0
H2115 H 0.39322 0.23524 0.47012 0.0
H2116 H 0.34677 0.21333 0.52172 0.0
H2117 H 0.34708 0.23945 0.53411 0.0
H2118 H 0.39941 0.27112 0.51898 0.0
H2119 H 0.39898 0.24485 0.50688 0.0
H2120 H 0.34811 0.18341 0.54118 0.0
H2121 H 0.34615 0.19421 0.57169 0.0
H2122 H 0.39814 0.23756 0.57066 0.0
H2123 H 0.40019 0.22627 0.54043 0.0
H2124 H 0.34513 0.15225 0.51711 0.0
H2125 H 0.34465 0.131 0.53735 0.0
H2126 H 0.3977 0.16707 0.55627 0.0
H2127 H 0.39827 0.18817 0.53549 0.0
O2128 O 0.34777 0.16783 0.39283 0.0
O2129 O 0.37575 0.17664 0.39444 0.0
O2130 O 0.36101 0.27221 0.54198 0.0
O2131 O 0.38784 0.28909 0.53428 0.0
C2132 C 0.37011 0.17994 0.49265 0.0
C2133 C 0.36956 0.19147 0.48046 0.0
C2134 C 0.37046 0.20691 0.48734 0.0
C2135 C 0.37275 0.21132 0.50635 0.0
C2136 C 0.37375 0.20003 0.51862 0.0
C2137 C 0.37218 0.18418 0.51178 0.0
C2138 C 0.36667 0.16264 0.48531 0.0
C2139 C 0.35 0.15026 0.47809 0.0
C2140 C 0.34642 0.13393 0.47103 0.0
C2141 C 0.35945 0.12964 0.47102 0.0
C2142 C 0.37614 0.14203 0.4785 0.0
C2143 C 0.37972 0.15844 0.4856 0.0
C2144 C 0.3679 0.18725 0.46041 0.0
C2145 C 0.35192 0.18036 0.45042 0.0
C2146 C 0.3504 0.17621 0.43158 0.0
C2147 C 0.36485 0.17884 0.42242 0.0
C2148 C 0.38085 0.18569 0.43254 0.0
C2149 C 0.38233 0.18984 0.45138 0.0
C2150 C 0.36664 0.21731 0.47492 0.0
C2151 C 0.3495 0.21311 0.47151 0.0
C2152 C 0.34561 0.22337 0.46085 0.0
C2153 C 0.35886 0.2382 0.45373 0.0
C2154 C 0.37606 0.24234 0.45705 0.0
C2155 C 0.37992 0.23183 0.46747 0.0
C2156 C 0.37286 0.22724 0.51345 0.0
C2157 C 0.35828 0.22593 0.52112 0.0
C2158 C 0.35849 0.24086 0.52816 0.0
C2159 C 0.37328 0.25739 0.52754 0.0
C2160 C 0.38782 0.25861 0.51969 0.0
C2161 C 0.3876 0.24365 0.51272 0.0
C2162 C 0.37427 0.20408 0.53858 0.0
C2163 C 0.35931 0.19485 0.54785 0.0
C2164 C 0.35813 0.20118 0.56516 0.0
C2165 C 0.37187 0.21693 0.57344 0.0
C2166 C 0.38735 0.22537 0.56472 0.0
C2167 C 0.38855 0.21896 0.54744 0.0
C2168 C 0.37182 0.17163 0.52461 0.0
C2169 C 0.35672 0.15548 0.52543 0.0
C2170 C 0.35646 0.14338 0.53698 0.0
C2171 C 0.37119 0.14736 0.54821 0.0
C2172 C 0.38619 0.16371 0.54772 0.0
C2173 C 0.38653 0.17573 0.53591 0.0
C2174 C 0.36319 0.17439 0.4024 0.0
C2175 C 0.3736 0.27329 0.53505 0.0
H2176 H 0.80301 0.16912 0.36472 0.0
H2177 H 0.94867 0.28541 0.50587 0.0
H2178 H 0.79452 0.17359 0.46056 0.0
H2179 H 0.76953 0.1445 0.45197 0.0
H2180 H 0.79599 0.1213 0.47833 0.0
H2181 H 0.82097 0.15022 0.48638 0.0
H2182 H 0.82547 0.20506 0.43795 0.0
H2183 H 0.81545 0.19407 0.40601 0.0
H2184 H 0.82166 0.14991 0.41506 0.0
H2185 H 0.83187 0.16115 0.44689 0.0
H2186 H 0.8635 0.23897 0.45717 0.0
H2187 H 0.88573 0.25363 0.43557 0.0
H2188 H 0.88726 0.20649 0.42477 0.0
H2189 H 0.86582 0.19219 0.44704 0.0
H2190 H 0.86266 0.24483 0.49898 0.0
H2191 H 0.89055 0.27132 0.50674 0.0
H2192 H 0.91649 0.24315 0.49262 0.0
H2193 H 0.8885 0.21671 0.48513 0.0
H2194 H 0.83731 0.22295 0.52304 0.0
H2195 H 0.84912 0.23548 0.55447 0.0
H2196 H 0.88083 0.21188 0.55331 0.0
H2197 H 0.86934 0.19983 0.52183 0.0
H2198 H 0.7995 0.18259 0.50669 0.0
H2199 H 0.78151 0.16309 0.52924 0.0
H2200 H 0.82121 0.15086 0.54264 0.0
H2201 H 0.8389 0.17008 0.51995 0.0
O2202 O 0.80708 0.17326 0.37738 0.0
O2203 O 0.8104 0.15075 0.38276 0.0
O2204 O 0.9235 0.28894 0.51027 0.0
O2205 O 0.93747 0.27511 0.50298 0.0
C2206 C 0.82512 0.18139 0.47843 0.0
C2207 C 0.83524 0.19059 0.46417 0.0
C2208 C 0.85121 0.20614 0.46838 0.0
C2209 C 0.85663 0.21286 0.48682 0.0
C2210 C 0.84628 0.20387 0.50098 0.0
C2211 C 0.83066 0.18806 0.49684 0.0
C2212 C 0.80949 0.164 0.47421 0.0
C2213 C 0.79483 0.16221 0.46455 0.0
C2214 C 0.78063 0.14565 0.45967 0.0
C2215 C 0.78083 0.13071 0.46461 0.0
C2216 C 0.79539 0.13261 0.47462 0.0
C2217 C 0.80964 0.1491 0.47923 0.0
C2218 C 0.82926 0.18384 0.44477 0.0
C2219 C 0.82468 0.19303 0.43299 0.0
C2220 C 0.81894 0.18671 0.41476 0.0
C2221 C 0.8177 0.17108 0.40799 0.0
C2222 C 0.82241 0.16195 0.41984 0.0
C2223 C 0.82818 0.16831 0.43805 0.0
C2224 C 0.86303 0.2145 0.45371 0.0
C2225 C 0.86857 0.23179 0.45008 0.0
C2226 C 0.88119 0.24011 0.43775 0.0
C2227 C 0.88806 0.2311 0.42854 0.0
C2228 C 0.88197 0.2136 0.43159 0.0
C2229 C 0.86971 0.20544 0.44423 0.0
C2230 C 0.87359 0.22889 0.49149 0.0
C2231 C 0.87439 0.24441 0.49766 0.0
C2232 C 0.89033 0.25952 0.50203 0.0
C2233 C 0.90576 0.25936 0.50028 0.0
C2234 C 0.90487 0.24374 0.49411 0.0
C2235 C 0.88891 0.22863 0.4898 0.0
C2236 C 0.85248 0.21049 0.52028 0.0
C2237 C 0.84672 0.22043 0.52967 0.0
C2238 C 0.85347 0.22757 0.5475 0.0
C2239 C 0.86579 0.22453 0.55624 0.0
C2240 C 0.87121 0.21423 0.54691 0.0
C2241 C 0.86472 0.2074 0.52899 0.0
C2242 C 0.82054 0.17784 0.51181 0.0
C2243 C 0.80437 0.17587 0.51471 0.0
C2244 C 0.79415 0.16478 0.52758 0.0
C2245 C 0.79994 0.15539 0.53762 0.0
C2246 C 0.81635 0.15778 0.53497 0.0
C2247 C 0.82655 0.1689 0.52219 0.0
C2248 C 0.81152 0.16436 0.38864 0.0
C2249 C 0.92273 0.27539 0.50483 0.0
H2250 H 0.99947 0.51669 0.35322 0.0
H2251 H 0.02034 0.41054 0.19603 0.0
H2252 H 0.97129 0.50962 0.2596 0.0
H2253 H 0.97455 0.53715 0.27192 0.0
H2254 H 0.01925 0.56519 0.24102 0.0
H2255 H 0.01654 0.5377 0.22984 0.0
H2256 H 0.97614 0.48142 0.27973 0.0
H2257 H 0.98144 0.49211 0.31202 0.0
H2258 H 0.02986 0.53664 0.30023 0.0
H2259 H 0.02448 0.52569 0.26801 0.0
H2260 H 0.97659 0.45054 0.26113 0.0
H2261 H 0.98521 0.43487 0.28162 0.0
H2262 H 0.03805 0.47715 0.28371 0.0
H2263 H 0.02931 0.49258 0.263 0.0
H2264 H 0.97003 0.4413 0.22259 0.0
H2265 H 0.97321 0.41667 0.21205 0.0
H2266 H 0.02818 0.45145 0.21082 0.0
H2267 H 0.02476 0.47592 0.22135 0.0
H2268 H 0.96411 0.45829 0.1942 0.0
H2269 H 0.96506 0.44307 0.16608 0.0
H2270 H 0.01884 0.48201 0.16369 0.0
H2271 H 0.01801 0.49622 0.19245 0.0
H2272 H 0.96133 0.50021 0.21351 0.0
H2273 H 0.95576 0.51691 0.19131 0.0
H2274 H 0.00675 0.53616 0.17274 0.0
H2275 H 0.01232 0.51983 0.19516 0.0
O2276 O 0.99765 0.51268 0.34039 0.0
O2277 O 0.02238 0.53538 0.33359 0.0
O2278 O 0.99042 0.40264 0.20139 0.0
O2279 O 0.01873 0.41999 0.20042 0.0
C2280 C 0.99326 0.5052 0.23845 0.0
C2281 C 0.99661 0.49623 0.25198 0.0
C2282 C 0.99747 0.48129 0.24681 0.0
C2283 C 0.9951 0.47534 0.22822 0.0
C2284 C 0.99185 0.48429 0.21468 0.0
C2285 C 0.99076 0.49915 0.21976 0.0
C2286 C 0.99369 0.52166 0.24385 0.0
C2287 C 0.9817 0.52174 0.25542 0.0
C2288 C 0.98353 0.53748 0.26234 0.0
C2289 C 0.99727 0.55342 0.2576 0.0
C2290 C 0.00875 0.5532 0.24528 0.0
C2291 C 0.00706 0.53748 0.23862 0.0
C2292 C -0.00011 0.50282 0.27155 0.0
C2293 C 0.9879 0.49345 0.28417 0.0
C2294 C 0.99095 0.49961 0.3026 0.0
C2295 C 0.00607 0.51525 0.30871 0.0
C2296 C 0.01808 0.52457 0.29598 0.0
C2297 C 0.01503 0.51837 0.27757 0.0
C2298 C 0.00234 0.47264 0.26063 0.0
C2299 C 0.98997 0.45647 0.26622 0.0
C2300 C 0.99491 0.44761 0.27797 0.0
C2301 C 0.01232 0.45479 0.28422 0.0
C2302 C 0.02458 0.47124 0.27896 0.0
C2303 C 0.01962 0.48011 0.26726 0.0
C2304 C 0.99717 0.46031 0.22272 0.0
C2305 C 0.98274 0.44351 0.22013 0.0
C2306 C 0.9846 0.4295 0.21408 0.0
C2307 C 0.00096 0.4321 0.21055 0.0
C2308 C 0.01541 0.44899 0.21338 0.0
C2309 C 0.01351 0.46297 0.21944 0.0
C2310 C 0.99093 0.47848 0.19522 0.0
C2311 C 0.97592 0.46381 0.18723 0.0
C2312 C 0.97651 0.45512 0.17115 0.0
C2313 C 0.99212 0.46113 0.16275 0.0
C2314 C 0.00671 0.47676 0.17001 0.0
C2315 C 0.00618 0.48517 0.18624 0.0
C2316 C 0.98708 0.50846 0.20563 0.0
C2317 C 0.97121 0.50791 0.20451 0.0
C2318 C 0.9681 0.51751 0.19193 0.0
C2319 C 0.98077 0.5277 0.1802 0.0
C2320 C 0.99662 0.52815 0.18135 0.0
C2321 C -0.00022 0.51872 0.19405 0.0
C2322 C 0.00925 0.52177 0.32828 0.0
C2323 C 0.00298 0.41731 0.20386 0.0
H2324 H 0.49543 0.51118 0.35304 0.0
H2325 H 0.40842 0.36097 0.20677 0.0
H2326 H 0.50762 0.51459 0.25544 0.0
H2327 H 0.53143 0.54249 0.26879 0.0
H2328 H 0.56599 0.52224 0.26538 0.0
H2329 H 0.54189 0.49416 0.25231 0.0
H2330 H 0.47788 0.48851 0.27513 0.0
H2331 H 0.48142 0.49921 0.30725 0.0
H2332 H 0.5221 0.48751 0.31691 0.0
H2333 H 0.51828 0.47667 0.28479 0.0
H2334 H 0.44979 0.45722 0.24728 0.0
H2335 H 0.42642 0.44528 0.26772 0.0
H2336 H 0.4562 0.4311 0.30317 0.0
H2337 H 0.47933 0.44256 0.28217 0.0
H2338 H 0.45265 0.44772 0.209 0.0
H2339 H 0.4278 0.41986 0.19706 0.0
H2340 H 0.44615 0.39291 0.23042 0.0
H2341 H 0.47108 0.42087 0.24203 0.0
H2342 H 0.48377 0.47643 0.19233 0.0
H2343 H 0.4735 0.46283 0.16126 0.0
H2344 H 0.48306 0.42166 0.17487 0.0
H2345 H 0.49331 0.4354 0.20602 0.0
H2346 H 0.50828 0.5083 0.21527 0.0
H2347 H 0.52927 0.52874 0.19566 0.0
H2348 H 0.55299 0.49703 0.19193 0.0
H2349 H 0.53156 0.47638 0.21138 0.0
O2350 O 0.49421 0.50685 0.3404 0.0
O2351 O 0.5151 0.50068 0.34462 0.0
O2352 O 0.4093 0.38664 0.19431 0.0
O2353 O 0.4181 0.37217 0.2113 0.0
C2354 C 0.50826 0.48519 0.2462 0.0
C2355 C 0.49563 0.47524 0.25819 0.0
C2356 C 0.4808 0.45947 0.25148 0.0
C2357 C 0.47913 0.45317 0.23305 0.0
C2358 C 0.49188 0.46309 0.22105 0.0
C2359 C 0.50623 0.47932 0.22756 0.0
C2360 C 0.52306 0.50239 0.25304 0.0
C2361 C 0.52036 0.51624 0.2575 0.0
C2362 C 0.53399 0.53217 0.26499 0.0
C2363 C 0.55058 0.53454 0.26814 0.0
C2364 C 0.55331 0.52072 0.26328 0.0
C2365 C 0.53964 0.50476 0.25573 0.0
C2366 C 0.49774 0.48171 0.2777 0.0
C2367 C 0.48747 0.48818 0.28424 0.0
C2368 C 0.48956 0.49432 0.30258 0.0
C2369 C 0.50203 0.49419 0.31466 0.0
C2370 C 0.51236 0.48777 0.30798 0.0
C2371 C 0.51022 0.48159 0.28966 0.0
C2372 C 0.46619 0.45067 0.2632 0.0
C2373 C 0.45113 0.45125 0.25929 0.0
C2374 C 0.43791 0.44464 0.27112 0.0
C2375 C 0.43954 0.43742 0.28718 0.0
C2376 C 0.45451 0.43648 0.29085 0.0
C2377 C 0.46773 0.44304 0.27892 0.0
C2378 C 0.46373 0.43629 0.22624 0.0
C2379 C 0.45131 0.43578 0.21363 0.0
C2380 C 0.43711 0.41985 0.20688 0.0
C2381 C 0.43501 0.40414 0.21275 0.0
C2382 C 0.44739 0.40475 0.22558 0.0
C2383 C 0.46162 0.42069 0.23227 0.0
C2384 C 0.4893 0.45691 0.20141 0.0
C2385 C 0.48421 0.46481 0.18842 0.0
C2386 C 0.47831 0.45698 0.17067 0.0
C2387 C 0.47733 0.44108 0.16565 0.0
C2388 C 0.48346 0.43379 0.1784 0.0
C2389 C 0.48944 0.44167 0.19613 0.0
C2390 C 0.51846 0.49093 0.21474 0.0
C2391 C 0.51797 0.50574 0.21013 0.0
C2392 C 0.53006 0.51746 0.19907 0.0
C2393 C 0.54295 0.51463 0.19241 0.0
C2394 C 0.54318 0.49953 0.19676 0.0
C2395 C 0.531 0.48775 0.20786 0.0
C2396 C 0.50423 0.50075 0.33413 0.0
C2397 C 0.42001 0.38717 0.20553 0.0
H2398 H 0.50415 0.98293 0.36455 0.0
H2399 H 0.38615 0.98296 0.21194 0.0
H2400 H 0.5291 0.01626 0.27916 0.0
H2401 H 0.55016 0.00983 0.29276 0.0
H2402 H 0.53463 0.96796 0.2507 0.0
H2403 H 0.51251 0.97359 0.23825 0.0
H2404 H 0.4966 0.01181 0.29716 0.0
H2405 H 0.50028 0.00413 0.32793 0.0
H2406 H 0.49399 0.95557 0.30491 0.0
H2407 H 0.4901 0.96332 0.27423 0.0
H2408 H 0.46698 0.01561 0.27529 0.0
H2409 H 0.44464 0.00887 0.29672 0.0
H2410 H 0.43283 0.95546 0.29444 0.0
H2411 H 0.45507 0.96227 0.27285 0.0
H2412 H 0.4708 0.0259 0.2352 0.0
H2413 H 0.4447 0.02624 0.22521 0.0
H2414 H 0.4151 0.97017 0.22549 0.0
H2415 H 0.44134 0.97001 0.23525 0.0
H2416 H 0.50074 0.03292 0.21472 0.0
H2417 H 0.49256 0.03929 0.18493 0.0
H2418 H 0.45715 0.98436 0.17189 0.0
H2419 H 0.46529 0.97817 0.20162 0.0
H2420 H 0.53449 0.02848 0.23621 0.0
H2421 H 0.55637 0.03469 0.21424 0.0
H2422 H 0.52018 0.98782 0.18116 0.0
H2423 H 0.49852 0.98165 0.20321 0.0
O2424 O 0.50257 0.98566 0.35226 0.0
O2425 O 0.49934 0.96091 0.33974 0.0
O2426 O 0.41249 0.01202 0.21585 0.0
O2427 O 0.39667 0.98321 0.21588 0.0
C2428 C 0.50384 0.9967 0.25229 0.0
C2429 C 0.49103 0.99294 0.26479 0.0
C2430 C 0.4761 0.99353 0.25948 0.0
C2431 C 0.47386 0.99775 0.24166 0.0
C2432 C 0.48656 0.00138 0.22913 0.0
C2433 C 0.5016 0.00095 0.23443 0.0
C2434 C 0.51911 0.99526 0.25787 0.0
C2435 C 0.5304 0.00582 0.27278 0.0
C2436 C 0.54257 0.00218 0.28045 0.0
C2437 C 0.54404 0.98818 0.27302 0.0
C2438 C 0.53358 0.97851 0.25714 0.0
C2439 C 0.52111 0.9819 0.24977 0.0
C2440 C 0.49311 0.98814 0.28348 0.0
C2441 C 0.49594 0.99949 0.29881 0.0
C2442 C 0.49808 0.99508 0.31636 0.0
C2443 C 0.49746 0.97925 0.31888 0.0
C2444 C 0.49456 0.96788 0.30345 0.0
C2445 C 0.49237 0.97227 0.28592 0.0
C2446 C 0.46261 0.98943 0.27252 0.0
C2447 C 0.45951 0.00245 0.27938 0.0
C2448 C 0.44678 0.99859 0.29158 0.0
C2449 C 0.43704 0.98165 0.29724 0.0
C2450 C 0.44029 0.96866 0.29047 0.0
C2451 C 0.45291 0.97251 0.27812 0.0
C2452 C 0.45794 0.99794 0.23591 0.0
C2453 C 0.45867 0.01371 0.23303 0.0
C2454 C 0.44374 0.01387 0.22737 0.0
C2455 C 0.4278 0.99822 0.22454 0.0
C2456 C 0.42715 0.98244 0.22753 0.0
C2457 C 0.4421 0.98231 0.23315 0.0
C2458 C 0.4836 0.0051 0.21025 0.0
C2459 C 0.49148 0.02228 0.20524 0.0
C2460 C 0.48673 0.02589 0.18833 0.0
C2461 C 0.47422 0.01232 0.17613 0.0
C2462 C 0.46696 0.99506 0.18091 0.0
C2463 C 0.47155 0.9915 0.19787 0.0
C2464 C 0.51487 0.00471 0.22119 0.0
C2465 C 0.53134 0.01957 0.22422 0.0
C2466 C 0.5438 0.02306 0.21171 0.0
C2467 C 0.53993 0.0118 0.19592 0.0
C2468 C 0.52344 0.99689 0.19303 0.0
C2469 C 0.51106 0.99334 0.2056 0.0
C2470 C 0.49983 0.97465 0.33755 0.0
C2471 C 0.41191 0.9983 0.2185 0.0
H2472 H 0.51679 0.04921 0.71519 0.0
H2473 H 0.59663 0.97757 0.8442 0.0
H2474 H 0.49923 0.03158 0.81155 0.0
H2475 H 0.47738 0.0376 0.7989 0.0
H2476 H 0.44151 0.98235 0.78918 0.0
H2477 H 0.46361 0.97646 0.80177 0.0
H2478 H 0.53017 0.03651 0.78996 0.0
H2479 H 0.52858 0.04677 0.75997 0.0
H2480 H 0.48638 0.9954 0.74166 0.0
H2481 H 0.48825 0.98527 0.77166 0.0
H2482 H 0.55649 0.03058 0.81235 0.0
H2483 H 0.58108 0.03856 0.79393 0.0
H2484 H 0.54943 0.99337 0.75647 0.0
H2485 H 0.5248 0.98554 0.775 0.0
H2486 H 0.55068 0.01719 0.85063 0.0
H2487 H 0.57562 0.01493 0.86096 0.0
H2488 H 0.55903 0.97087 0.82159 0.0
H2489 H 0.53401 0.97312 0.81156 0.0
H2490 H 0.51626 0.01158 0.86784 0.0
H2491 H 0.52432 0.00705 0.89834 0.0
H2492 H 0.52141 0.95958 0.87693 0.0
H2493 H 0.51219 0.96366 0.84664 0.0
H2494 H 0.49105 0.01751 0.8481 0.0
H2495 H 0.47043 0.01186 0.8712 0.0
H2496 H 0.45297 0.9569 0.86421 0.0
H2497 H 0.474 0.96282 0.84138 0.0
O2498 O 0.51725 0.04486 0.72692 0.0
O2499 O 0.49553 0.01825 0.71822 0.0
O2500 O 0.59476 0.00137 0.8605 0.0
O2501 O 0.58686 0.97875 0.84039 0.0
C2502 C 0.49699 0.00026 0.81307 0.0
C2503 C 0.51022 0.004 0.8012 0.0
C2504 C 0.52441 0.00228 0.80689 0.0
C2505 C 0.52525 0.99653 0.82432 0.0
C2506 C 0.51187 0.9925 0.83609 0.0
C2507 C 0.49768 0.99431 0.83042 0.0
C2508 C 0.48297 0.0036 0.80752 0.0
C2509 C 0.48656 0.02079 0.80694 0.0
C2510 C 0.47406 0.02419 0.79978 0.0
C2511 C 0.45776 0.01044 0.79299 0.0
C2512 C 0.45402 0.99319 0.79415 0.0
C2513 C 0.46654 0.9898 0.80144 0.0
C2514 C 0.50938 0.01015 0.78292 0.0
C2515 C 0.52068 0.02748 0.7794 0.0
C2516 C 0.5197 0.03331 0.76228 0.0
C2517 C 0.50736 0.0219 0.74841 0.0
C2518 C 0.49604 0.00452 0.75203 0.0
C2519 C 0.49707 0.99871 0.76914 0.0
C2520 C 0.53894 0.00743 0.79506 0.0
C2521 C 0.55488 0.02244 0.80014 0.0
C2522 C 0.5689 0.02693 0.78965 0.0
C2523 C 0.56722 0.01652 0.77383 0.0
C2524 C 0.55108 0.00171 0.76851 0.0
C2525 C 0.53704 0.99719 0.77907 0.0
C2526 C 0.5405 0.99526 0.83043 0.0
C2527 C 0.55242 0.00701 0.84432 0.0
C2528 C 0.56667 0.00572 0.85016 0.0
C2529 C 0.56931 0.9927 0.84211 0.0
C2530 C 0.55738 0.98103 0.82809 0.0
C2531 C 0.5431 0.9823 0.82231 0.0
C2532 C 0.51369 0.98799 0.85499 0.0
C2533 C 0.51675 -0.00013 0.86986 0.0
C2534 C 0.52161 0.99739 0.88724 0.0
C2535 C 0.52388 0.98315 0.89002 0.0
C2536 C 0.51972 0.97065 0.87532 0.0
C2537 C 0.51455 0.973 0.85797 0.0
C2538 C 0.48394 0.99057 0.84302 0.0
C2539 C 0.48256 0.00423 0.85135 0.0
C2540 C 0.47074 0.00095 0.86453 0.0
C2541 C 0.46002 0.98391 0.86959 0.0
C2542 C 0.46117 0.97019 0.86083 0.0
C2543 C 0.47306 0.97351 0.84769 0.0
C2544 C 0.5063 0.02815 0.73026 0.0
C2545 C 0.58443 0.99126 0.84827 0.0
H2546 H 0.96017 0.46765 0.72198 0.0
H2547 H 0.03663 0.62262 0.86437 0.0
H2548 H 0.97467 0.46682 0.81936 0.0
H2549 H 0.96968 0.43832 0.80806 0.0
H2550 H 0.02461 0.45809 0.8139 0.0
H2551 H 0.02936 0.48643 0.82566 0.0
H2552 H 0.97127 0.49464 0.79856 0.0
H2553 H 0.96181 0.48267 0.76678 0.0
H2554 H 0.01208 0.48924 0.75911 0.0
H2555 H 0.02142 0.50136 0.79086 0.0
H2556 H 0.97861 0.52884 0.82273 0.0
H2557 H 0.97245 0.54638 0.80268 0.0
H2558 H 0.01528 0.55474 0.77129 0.0
H2559 H 0.02186 0.53782 0.79213 0.0
H2560 H 0.99064 0.53595 0.86266 0.0
H2561 H 0.99532 0.5644 0.87373 0.0
H2562 H 0.03997 0.58947 0.84215 0.0
H2563 H 0.03532 0.56092 0.83144 0.0
H2564 H 0.99332 0.50725 0.882 0.0
H2565 H 0.99832 0.52249 0.91221 0.0
H2566 H 0.04825 0.56269 0.8979 0.0
H2567 H 0.04329 0.54719 0.86779 0.0
H2568 H 0.98437 0.47258 0.85855 0.0
H2569 H 0.98577 0.45453 0.88176 0.0
H2570 H 0.04058 0.49033 0.8918 0.0
H2571 H 0.03914 0.50798 0.86787 0.0
O2572 O 0.96421 0.4725 0.73447 0.0
O2573 O 0.99025 0.4761 0.73125 0.0
O2574 O 0.0116 0.59766 0.87642 0.0
O2575 O 0.03441 0.6112 0.86009 0.0
C2576 C 0.00536 0.49611 0.82916 0.0
C2577 C 0.00268 0.506 0.81632 0.0
C2578 C 0.00492 0.52238 0.822 0.0
C2579 C 0.01035 0.5291 0.84039 0.0
C2580 C 0.01318 0.51926 0.85323 0.0
C2581 C 0.01042 0.50262 0.84768 0.0
C2582 C 0.00237 0.47864 0.82323 0.0
C2583 C 0.98559 0.46492 0.81828 0.0
C2584 C 0.98279 0.4487 0.81173 0.0
C2585 C 0.99676 0.44596 0.80994 0.0
C2586 C 0.01355 0.4597 0.81529 0.0
C2587 C 0.01632 0.4759 0.82193 0.0
C2588 C 0.99704 0.49892 0.79696 0.0
C2589 C 0.98024 0.49358 0.78995 0.0
C2590 C 0.97486 0.4867 0.77181 0.0
C2591 C 0.98619 0.485 0.7604 0.0
C2592 C 0.00303 0.49037 0.76752 0.0
C2593 C 0.0084 0.49729 0.78564 0.0
C2594 C 0.00075 0.5322 0.80897 0.0
C2595 C 0.98666 0.53449 0.81153 0.0
C2596 C 0.98305 0.54435 0.7999 0.0
C2597 C 0.99334 0.55195 0.7853 0.0
C2598 C 0.00724 0.54926 0.78252 0.0
C2599 C 0.01094 0.5395 0.79431 0.0
C2600 C 0.01272 0.54639 0.84636 0.0
C2601 C 0.00144 0.54761 0.85818 0.0
C2602 C 0.00413 0.56387 0.86446 0.0
C2603 C 0.01806 0.57922 0.85887 0.0
C2604 C 0.02915 0.57791 0.84676 0.0
C2605 C 0.02649 0.56163 0.84057 0.0
C2606 C 0.01791 0.52616 0.87269 0.0
C2607 C 0.00561 0.51898 0.88564 0.0
C2608 C 0.00846 0.52773 0.90286 0.0
C2609 C 0.02359 0.54385 0.90727 0.0
C2610 C 0.03641 0.55037 0.89474 0.0
C2611 C 0.03364 0.5415 0.87763 0.0
C2612 C 0.01166 0.49154 0.86146 0.0
C2613 C 0.99673 0.47639 0.86557 0.0
C2614 C 0.99753 0.46621 0.87899 0.0
C2615 C 0.01328 0.47106 0.88876 0.0
C2616 C 0.02829 0.48614 0.88442 0.0
C2617 C 0.02748 0.4963 0.87087 0.0
C2618 C 0.98041 0.47761 0.74117 0.0
C2619 C 0.02109 0.59654 0.86568 0.0
H2620 H 0.48281 0.50397 0.70152 0.0
H2621 H 0.61474 0.62267 0.85355 0.0
H2622 H 0.46534 0.51143 0.79454 0.0
H2623 H 0.44166 0.48321 0.78165 0.0
H2624 H 0.46265 0.45736 0.81302 0.0
H2625 H 0.48673 0.48561 0.82495 0.0
H2626 H 0.49794 0.54058 0.77414 0.0
H2627 H 0.49111 0.52927 0.742 0.0
H2628 H 0.49647 0.48555 0.75589 0.0
H2629 H 0.50349 0.49712 0.78794 0.0
H2630 H 0.53302 0.573 0.79287 0.0
H2631 H 0.5558 0.58572 0.7715 0.0
H2632 H 0.56106 0.54017 0.77198 0.0
H2633 H 0.53872 0.52787 0.79361 0.0
H2634 H 0.52918 0.58045 0.83696 0.0
H2635 H 0.55618 0.60731 0.84672 0.0
H2636 H 0.58425 0.58026 0.83844 0.0
H2637 H 0.55713 0.55346 0.8289 0.0
H2638 H 0.50039 0.55597 0.86115 0.0
H2639 H 0.50982 0.56807 0.89311 0.0
H2640 H 0.54635 0.55014 0.89394 0.0
H2641 H 0.53698 0.53828 0.86214 0.0
H2642 H 0.46469 0.51611 0.84052 0.0
H2643 H 0.44552 0.496 0.86193 0.0
H2644 H 0.48682 0.48841 0.88229 0.0
H2645 H 0.5055 0.50777 0.86041 0.0
O2646 O 0.48561 0.50824 0.71429 0.0
O2647 O 0.48844 0.48598 0.72215 0.0
O2648 O 0.58885 0.62554 0.85379 0.0
O2649 O 0.60389 0.61224 0.84972 0.0
C2650 C 0.49349 0.51757 0.81617 0.0
C2651 C 0.50512 0.52654 0.80287 0.0
C2652 C 0.52094 0.54186 0.80815 0.0
C2653 C 0.52476 0.54877 0.82655 0.0
C2654 C 0.51316 0.53981 0.83987 0.0
C2655 C 0.49765 0.52406 0.83476 0.0
C2656 C 0.47774 0.50056 0.81067 0.0
C2657 C 0.46466 0.49964 0.79877 0.0
C2658 C 0.45111 0.4835 0.7915 0.0
C2659 C 0.45034 0.46801 0.79616 0.0
C2660 C 0.46303 0.46903 0.80885 0.0
C2661 C 0.47667 0.48515 0.81591 0.0
C2662 C 0.50106 0.5196 0.78337 0.0
C2663 C 0.49765 0.52858 0.77019 0.0
C2664 C 0.49374 0.52207 0.75186 0.0
C2665 C 0.49319 0.50647 0.74638 0.0
C2666 C 0.49673 0.49757 0.75965 0.0
C2667 C 0.50069 0.50411 0.77797 0.0
C2668 C 0.53425 0.54954 0.79475 0.0
C2669 C 0.53911 0.56582 0.7883 0.0
C2670 C 0.55201 0.57298 0.77603 0.0
C2671 C 0.56024 0.56395 0.77009 0.0
C2672 C 0.55513 0.54754 0.77646 0.0
C2673 C 0.5423 0.54044 0.7887 0.0
C2674 C 0.54124 0.56508 0.83211 0.0
C2675 C 0.54119 0.58038 0.83725 0.0
C2676 C 0.55662 0.59569 0.84281 0.0
C2677 C 0.57239 0.59594 0.84333 0.0
C2678 C 0.57236 0.58054 0.83817 0.0
C2679 C 0.5569 0.56523 0.83265 0.0
C2680 C 0.51804 0.5463 0.85941 0.0
C2681 C 0.51033 0.55458 0.86834 0.0
C2682 C 0.51574 0.56149 0.88649 0.0
C2683 C 0.52874 0.55994 0.89598 0.0
C2684 C 0.53615 0.55131 0.88704 0.0
C2685 C 0.5309 0.54463 0.86888 0.0
C2686 C 0.48653 0.5135 0.849 0.0
C2687 C 0.46959 0.5102 0.84976 0.0
C2688 C 0.4587 0.49878 0.86203 0.0
C2689 C 0.46461 0.4905 0.87372 0.0
C2690 C 0.48177 0.49433 0.87328 0.0
C2691 C 0.49256 0.50561 0.86097 0.0
C2692 C 0.48895 0.49956 0.72691 0.0
C2693 C 0.58882 0.61216 0.84926 0.0
H2694 H 0.62934 0.83316 0.68806 0.0
H2695 H 0.64759 0.71589 0.54571 0.0
H2696 H 0.61166 0.83042 0.59224 0.0
H2697 H 0.61812 0.85975 0.60268 0.0
H2698 H 0.66604 0.88166 0.57634 0.0
H2699 H 0.65981 0.85239 0.56668 0.0
H2700 H 0.61059 0.79817 0.61434 0.0
H2701 H 0.61371 0.80892 0.64638 0.0
H2702 H 0.66466 0.85156 0.63833 0.0
H2703 H 0.66147 0.84055 0.60639 0.0
H2704 H 0.61216 0.76354 0.59511 0.0
H2705 H 0.62037 0.74707 0.61472 0.0
H2706 H 0.67081 0.79282 0.62669 0.0
H2707 H 0.66287 0.8087 0.60608 0.0
H2708 H 0.60491 0.75899 0.55119 0.0
H2709 H 0.60516 0.73228 0.54261 0.0
H2710 H 0.65906 0.7577 0.56172 0.0
H2711 H 0.65869 0.78438 0.56998 0.0
H2712 H 0.60409 0.78525 0.52477 0.0
H2713 H 0.60366 0.77122 0.49485 0.0
H2714 H 0.657 0.78624 0.50631 0.0
H2715 H 0.65744 0.80039 0.53582 0.0
H2716 H 0.60566 0.82298 0.54808 0.0
H2717 H 0.60511 0.84172 0.52494 0.0
H2718 H 0.65357 0.84967 0.50721 0.0
H2719 H 0.65422 0.83126 0.53056 0.0
O2720 O 0.62839 0.82913 0.67536 0.0
O2721 O 0.65448 0.85085 0.67048 0.0
O2722 O 0.61942 0.71382 0.53931 0.0
O2723 O 0.6471 0.72625 0.54905 0.0
C2724 C 0.6326 0.82164 0.5743 0.0
C2725 C 0.63372 0.81202 0.58858 0.0
C2726 C 0.63338 0.79623 0.58438 0.0
C2727 C 0.63164 0.78994 0.56591 0.0
C2728 C 0.63054 0.79955 0.55165 0.0
C2729 C 0.63081 0.81531 0.55581 0.0
C2730 C 0.63528 0.83929 0.57874 0.0
C2731 C 0.62346 0.8416 0.58861 0.0
C2732 C 0.62714 0.85834 0.59446 0.0
C2733 C 0.64268 0.87302 0.59048 0.0
C2734 C 0.65411 0.87062 0.57992 0.0
C2735 C 0.65048 0.85392 0.5742 0.0
C2736 C 0.63573 0.81866 0.60802 0.0
C2737 C 0.62242 0.80982 0.61954 0.0
C2738 C 0.62423 0.81601 0.63783 0.0
C2739 C 0.63942 0.83113 0.64491 0.0
C2740 C 0.65278 0.8399 0.63331 0.0
C2741 C 0.65096 0.83368 0.61504 0.0
C2742 C 0.63694 0.78729 0.59907 0.0
C2743 C 0.62489 0.77004 0.60219 0.0
C2744 C 0.62959 0.76069 0.6135 0.0
C2745 C 0.64637 0.76854 0.62209 0.0
C2746 C 0.65794 0.78622 0.61995 0.0
C2747 C 0.65333 0.79544 0.6084 0.0
C2748 C 0.63174 0.77356 0.56132 0.0
C2749 C 0.61674 0.75874 0.55354 0.0
C2750 C 0.61693 0.74351 0.54866 0.0
C2751 C 0.63214 0.74285 0.5515 0.0
C2752 C 0.64713 0.75775 0.55937 0.0
C2753 C 0.64694 0.77298 0.56418 0.0
C2754 C 0.63075 0.79367 0.53247 0.0
C2755 C 0.61575 0.78583 0.52057 0.0
C2756 C 0.61551 0.77781 0.50359 0.0
C2757 C 0.63022 0.77745 0.49851 0.0
C2758 C 0.64543 0.78612 0.51007 0.0
C2759 C 0.64572 0.79426 0.52684 0.0
C2760 C 0.62988 0.82559 0.54088 0.0
C2761 C 0.61609 0.82868 0.5391 0.0
C2762 C 0.61582 0.83942 0.52596 0.0
C2763 C 0.62927 0.84709 0.51426 0.0
C2764 C 0.64291 0.84372 0.51586 0.0
C2765 C 0.64327 0.83317 0.52915 0.0
C2766 C 0.64128 0.83768 0.66433 0.0
C2767 C 0.63243 0.72674 0.54624 0.0
H2768 H 0.16157 0.83146 0.69654 0.0
H2769 H 0.07573 0.69686 0.53579 0.0
H2770 H 0.1771 0.84296 0.60082 0.0
H2771 H 0.20061 0.87123 0.61337 0.0
H2772 H 0.23663 0.85308 0.60686 0.0
H2773 H 0.21286 0.82478 0.59386 0.0
H2774 H 0.1469 0.81576 0.61734 0.0
H2775 H 0.14922 0.82352 0.65018 0.0
H2776 H 0.18955 0.81105 0.65804 0.0
H2777 H 0.18696 0.80315 0.62518 0.0
H2778 H 0.12008 0.78828 0.5861 0.0
H2779 H 0.09446 0.77253 0.60299 0.0
H2780 H 0.12094 0.75326 0.63635 0.0
H2781 H 0.14662 0.76891 0.61903 0.0
H2782 H 0.12482 0.78339 0.54752 0.0
H2783 H 0.09942 0.75747 0.53277 0.0
H2784 H 0.11331 0.72493 0.56232 0.0
H2785 H 0.13883 0.75097 0.57675 0.0
H2786 H 0.15943 0.81463 0.53509 0.0
H2787 H 0.15105 0.80617 0.50246 0.0
H2788 H 0.15182 0.7587 0.50892 0.0
H2789 H 0.16091 0.76757 0.54152 0.0
H2790 H 0.1855 0.8436 0.56278 0.0
H2791 H 0.2068 0.86349 0.54321 0.0
H2792 H 0.22012 0.82444 0.5284 0.0
H2793 H 0.1995 0.80502 0.54918 0.0
O2794 O 0.16081 0.82825 0.6836 0.0
O2795 O 0.18153 0.82171 0.6869 0.0
O2796 O 0.07925 0.72465 0.52638 0.0
O2797 O 0.08567 0.70734 0.54145 0.0
C2798 C 0.17882 0.81499 0.58821 0.0
C2799 C 0.16535 0.80412 0.59897 0.0
C2800 C 0.15047 0.78927 0.59063 0.0
C2801 C 0.14943 0.78479 0.57169 0.0
C2802 C 0.16299 0.79556 0.56091 0.0
C2803 C 0.17764 0.81077 0.56916 0.0
C2804 C 0.19327 0.8318 0.5966 0.0
C2805 C 0.19004 0.84503 0.60231 0.0
C2806 C 0.2035 0.86116 0.60953 0.0
C2807 C 0.2205 0.86439 0.61127 0.0
C2808 C 0.2237 0.85105 0.60558 0.0
C2809 C 0.21017 0.83487 0.59826 0.0
C2810 C 0.16665 0.80873 0.61893 0.0
C2811 C 0.15612 0.81458 0.6262 0.0
C2812 C 0.15753 0.81907 0.64496 0.0
C2813 C 0.16955 0.81788 0.65675 0.0
C2814 C 0.18013 0.81209 0.64935 0.0
C2815 C 0.17869 0.80757 0.6306 0.0
C2816 C 0.13512 0.77955 0.60118 0.0
C2817 C 0.12031 0.78051 0.59691 0.0
C2818 C 0.10571 0.77154 0.60657 0.0
C2819 C 0.1057 0.7616 0.62087 0.0
C2820 C 0.12066 0.76088 0.6254 0.0
C2821 C 0.13526 0.76973 0.61553 0.0
C2822 C 0.13375 0.76905 0.56306 0.0
C2823 C 0.12241 0.77065 0.5507 0.0
C2824 C 0.10788 0.75582 0.54235 0.0
C2825 C 0.10436 0.73911 0.54633 0.0
C2826 C 0.11566 0.73759 0.55891 0.0
C2827 C 0.13022 0.75243 0.5672 0.0
C2828 C 0.16083 0.79175 0.54071 0.0
C2829 C 0.15843 0.80272 0.52936 0.0
C2830 C 0.15359 0.79785 0.51075 0.0
C2831 C 0.15074 0.78177 0.50325 0.0
C2832 C 0.15389 0.77114 0.51443 0.0
C2833 C 0.15909 0.77619 0.53299 0.0
C2834 C 0.19109 0.82294 0.5576 0.0
C2835 C 0.19329 0.83948 0.55565 0.0
C2836 C 0.2053 0.85073 0.5442 0.0
C2837 C 0.21508 0.84552 0.53403 0.0
C2838 C 0.21296 0.82897 0.53616 0.0
C2839 C 0.20111 0.8178 0.54791 0.0
C2840 C 0.17104 0.82271 0.67665 0.0
C2841 C 0.08899 0.72332 0.53742 0.0
H2842 H 0.2006 0.36706 0.70741 0.0
H2843 H 0.06558 0.33806 0.55653 0.0
H2844 H 0.21595 0.38362 0.61561 0.0
H2845 H 0.23809 0.37803 0.62873 0.0
H2846 H 0.21545 0.32952 0.59526 0.0
H2847 H 0.19298 0.33473 0.58288 0.0
H2848 H 0.18389 0.38293 0.63556 0.0
H2849 H 0.19139 0.38093 0.66746 0.0
H2850 H 0.18512 0.33042 0.65291 0.0
H2851 H 0.17738 0.33246 0.62114 0.0
H2852 H 0.14822 0.37956 0.61434 0.0
H2853 H 0.12492 0.37193 0.63461 0.0
H2854 H 0.12106 0.32207 0.64047 0.0
H2855 H 0.14338 0.32934 0.61919 0.0
H2856 H 0.15096 0.38626 0.57384 0.0
H2857 H 0.12352 0.38412 0.56437 0.0
H2858 H 0.09702 0.32878 0.57071 0.0
H2859 H 0.12459 0.33111 0.58 0.0
H2860 H 0.17454 0.38913 0.54929 0.0
H2861 H 0.16303 0.38764 0.51796 0.0
H2862 H 0.13827 0.33147 0.51511 0.0
H2863 H 0.14898 0.33318 0.54667 0.0
H2864 H 0.21284 0.39118 0.56658 0.0
H2865 H 0.23159 0.39351 0.54211 0.0
H2866 H 0.19827 0.33868 0.52621 0.0
H2867 H 0.17983 0.33649 0.55071 0.0
O2868 O 0.19745 0.36751 0.69476 0.0
O2869 O 0.19427 0.3417 0.68652 0.0
O2870 O 0.09084 0.36776 0.55714 0.0
O2871 O 0.0766 0.33927 0.56022 0.0
C2872 C 0.18751 0.36104 0.59312 0.0
C2873 C 0.17606 0.35941 0.60661 0.0
C2874 C 0.16044 0.35882 0.60159 0.0
C2875 C 0.15641 0.3602 0.58315 0.0
C2876 C 0.16784 0.36187 0.56972 0.0
C2877 C 0.18338 0.36234 0.57468 0.0
C2878 C 0.20291 0.35965 0.59817 0.0
C2879 C 0.216 0.37197 0.61084 0.0
C2880 C 0.22855 0.36875 0.61836 0.0
C2881 C 0.22841 0.35335 0.61298 0.0
C2882 C 0.21594 0.34157 0.59947 0.0
C2883 C 0.20319 0.34461 0.59227 0.0
C2884 C 0.18023 0.35791 0.62603 0.0
C2885 C 0.18408 0.37142 0.63932 0.0
C2886 C 0.18839 0.37025 0.65751 0.0
C2887 C 0.18892 0.35554 0.66272 0.0
C2888 C 0.18488 0.34195 0.64936 0.0
C2889 C 0.18051 0.3431 0.6312 0.0
C2890 C 0.14748 0.355 0.61526 0.0
C2891 C 0.1423 0.367 0.62003 0.0
C2892 C 0.12909 0.36266 0.63176 0.0
C2893 C 0.12099 0.34631 0.63913 0.0
C2894 C 0.1267 0.33461 0.63477 0.0
C2895 C 0.13965 0.33884 0.62281 0.0
C2896 C 0.13972 0.35885 0.5776 0.0
C2897 C 0.13921 0.37369 0.57312 0.0
C2898 C 0.12352 0.37243 0.56775 0.0
C2899 C 0.10806 0.35627 0.56679 0.0
C2900 C 0.10867 0.34142 0.57131 0.0
C2901 C 0.12438 0.34271 0.57665 0.0
C2902 C 0.16252 0.36126 0.55018 0.0
C2903 C 0.16671 0.37656 0.54178 0.0
C2904 C 0.1602 0.37565 0.52385 0.0
C2905 C 0.14955 0.35941 0.514 0.0
C2906 C 0.14605 0.34418 0.52236 0.0
C2907 C 0.15231 0.3451 0.54033 0.0
C2908 C 0.19503 0.36367 0.56037 0.0
C2909 C 0.2097 0.3797 0.55784 0.0
C2910 C 0.2203 0.38101 0.54383 0.0
C2911 C 0.2164 0.36626 0.53229 0.0
C2912 C 0.20173 0.35022 0.53502 0.0
C2913 C 0.19113 0.34895 0.54892 0.0
C2914 C 0.19369 0.35443 0.68202 0.0
C2915 C 0.09136 0.35485 0.56108 0.0
H2916 H 0.0103 0.41748 0.10762 0.0
H2917 H 0.95869 0.4001 0.0849 0.0
H2918 H 0.95616 0.41951 0.10757 0.0
H2919 H 0.96854 0.44112 0.13424 0.0
H2920 H 0.01927 0.45616 0.15811 0.0
H2921 H 0.02212 0.43792 0.13458 0.0
C2922 C 0.99834 0.41764 0.10776 0.0
C2923 C 0.98467 0.40718 0.09462 0.0
C2924 C 0.99685 0.42854 0.12099 0.0
C2925 C 0.9695 0.40807 0.09475 0.0
C2926 C 0.968 0.41911 0.10778 0.0
C2927 C 0.98018 0.44035 0.13435 0.0
C2928 C 0.99376 0.45029 0.14783 0.0
C2929 C 0.98159 0.42938 0.12101 0.0
C2930 C 0.00879 0.44914 0.14764 0.0
C2931 C 0.01038 0.43852 0.13429 0.0
H2932 H 0.59382 0.57794 0.14916 0.0
H2933 H 0.59065 0.5363 0.11368 0.0
H2934 H 0.57228 0.51505 0.13447 0.0
H2935 H 0.55567 0.50818 0.16177 0.0
H2936 H 0.55968 0.55006 0.19756 0.0
H2937 H 0.5793 0.57132 0.17764 0.0
C2938 C 0.58944 0.56427 0.14614 0.0
C2939 C 0.59355 0.55875 0.12981 0.0
C2940 C 0.5789 0.55212 0.15813 0.0
C2941 C 0.58747 0.5409 0.12601 0.0
C2942 C 0.57701 0.52874 0.13792 0.0
C2943 C 0.56105 0.52197 0.16537 0.0
C2944 C 0.55601 0.52748 0.18101 0.0
C2945 C 0.5724 0.53418 0.15387 0.0
C2946 C 0.56303 0.54542 0.18538 0.0
C2947 C 0.57434 0.55761 0.17406 0.0
H2948 H 0.43702 0.03044 0.11366 0.0
H2949 H 0.44176 0.99059 0.08344 0.0
H2950 H 0.45819 0.98864 0.10964 0.0
H2951 H 0.46918 0.9966 0.14198 0.0
H2952 H 0.46423 0.03625 0.1723 0.0
H2953 H 0.45007 0.04006 0.14523 0.0
C2954 C 0.44176 0.02141 0.11281 0.0
C2955 C 0.43809 0.0106 0.0967 0.0
C2956 C 0.45111 0.02029 0.12796 0.0
C2957 C 0.44451 0.99914 0.09565 0.0
C2958 C 0.4538 0.99793 0.11067 0.0
C2959 C 0.46511 0.00616 0.14257 0.0
C2960 C 0.46766 0.01606 0.1591 0.0
C2961 C 0.45688 0.0082 0.127 0.0
C2962 C 0.46254 0.02857 0.15967 0.0
C2963 C 0.45432 0.03066 0.14425 0.0
H2964 H 0.41709 0.96559 0.93954 0.0
H2965 H 0.40613 0.00412 0.91978 0.0
H2966 H 0.42217 0.00648 0.8931 0.0
H2967 H 0.44049 0.99875 0.87605 0.0
H2968 H 0.45324 0.96179 0.8968 0.0
H2969 H 0.43529 0.95766 0.92229 0.0
C2970 C 0.41826 0.97456 0.92945 0.0
C2971 C 0.41034 0.98462 0.93174 0.0
C2972 C 0.42786 0.97617 0.91427 0.0
C2973 C 0.41179 0.99597 0.9183 0.0
C2974 C 0.42111 0.99746 0.90308 0.0
C2975 C 0.43942 0.98985 0.88619 0.0
C2976 C 0.44827 0.98065 0.88449 0.0
C2977 C 0.42937 0.98779 0.90104 0.0
C2978 C 0.44643 0.9689 0.89759 0.0
C2979 C 0.43626 0.96662 0.91228 0.0
H2980 H 0.00303 0.42445 0.95445 0.0
H2981 H 0.05122 0.43054 0.93828 0.0
H2982 H 0.05138 0.44839 0.91382 0.0
H2983 H 0.03761 0.4621 0.89693 0.0
H2984 H 0.99007 0.45674 0.9145 0.0
H2985 H 0.99002 0.43889 0.93864 0.0
C2986 C 0.01376 0.42991 0.94582 0.0
C2987 C 0.02716 0.42625 0.94834 0.0
C2988 C 0.01386 0.44025 0.93197 0.0
C2989 C 0.04067 0.43304 0.9366 0.0
C2990 C 0.04082 0.44332 0.92266 0.0
C2991 C 0.02734 0.45717 0.90617 0.0
C2992 C 0.01378 0.46064 0.90376 0.0
C2993 C 0.02745 0.447 0.92021 0.0
C2994 C 0.00048 0.454 0.91576 0.0
C2995 C 0.00049 0.44387 0.92967 0.0
H2996 H 0.56607 0.6069 0.9688 0.0
H2997 H 0.56192 0.55898 0.98447 0.0
H2998 H 0.54511 0.54392 0.95575 0.0
H2999 H 0.53392 0.545 0.92504 0.0
H3000 H 0.53839 0.59293 0.90905 0.0
H3001 H 0.55262 0.60734 0.93906 0.0
C3002 C 0.56135 0.59313 0.96595 0.0
C3003 C 0.56532 0.5841 0.97867 0.0
C3004 C 0.55185 0.58459 0.94933 0.0
C3005 C 0.55893 0.5662 0.97497 0.0
C3006 C 0.54943 0.5576 0.95849 0.0
C3007 C 0.5379 0.55857 0.92822 0.0
C3008 C 0.53528 0.56796 0.91485 0.0
C3009 C 0.54617 0.56676 0.94541 0.0
C3010 C 0.54022 0.58544 0.91917 0.0
C3011 C 0.54846 0.5937 0.93627 0.0
H3012 H 0.0183 0.57822 0.98187 0.0
H3013 H 0.03185 0.62105 0.94819 0.0
H3014 H 0.03505 0.6047 0.92249 0.0
H3015 H 0.03208 0.57756 0.90907 0.0
H3016 H 0.01751 0.53428 0.94229 0.0
H3017 H 0.01677 0.55154 0.96883 0.0
C3018 C 0.02226 0.58408 0.969 0.0
C3019 C 0.02483 0.6008 0.9669 0.0
C3020 C 0.02382 0.57451 0.95423 0.0
C3021 C 0.02967 0.60814 0.95006 0.0
C3022 C 0.03153 0.59882 0.9354 0.0
C3023 C 0.02911 0.57205 0.92224 0.0
C3024 C 0.02498 0.55475 0.92382 0.0
C3025 C 0.02839 0.58191 0.93725 0.0
C3026 C 0.02073 0.54759 0.9408 0.0
C3027 C 0.0203 0.55743 0.95593 0.0
H3028 H 0.42229 0.42895 0.92317 0.0
H3029 H 0.39957 0.4602 0.93692 0.0
H3030 H 0.41771 0.48163 0.91607 0.0
H3031 H 0.44053 0.49172 0.89436 0.0
H3032 H 0.46209 0.45949 0.88007 0.0
H3033 H 0.44375 0.43815 0.90062 0.0
C3034 C 0.42102 0.44026 0.92139 0.0
C3035 C 0.4095 0.44288 0.93156 0.0
C3036 C 0.43137 0.45243 0.90934 0.0
C3037 C 0.40843 0.45791 0.92939 0.0
C3038 C 0.41875 0.47014 0.91741 0.0
C3039 C 0.44108 0.47994 0.89561 0.0
C3040 C 0.45284 0.47734 0.88583 0.0
C3041 C 0.43035 0.46757 0.90738 0.0
C3042 C 0.45346 0.46204 0.88772 0.0
C3043 C 0.44288 0.44975 0.89938 0.0
H3044 H 0.55642 0.96848 0.9603 0.0
H3045 H 0.58925 0.02433 0.9618 0.0
H3046 H 0.57307 0.02514 0.93489 0.0
H3047 H 0.55056 0.01011 0.91029 0.0
H3048 H 0.51659 0.95448 0.90887 0.0
H3049 H 0.53229 0.95348 0.93641 0.0
C3050 C 0.55989 0.98083 0.95485 0.0
C3051 C 0.57423 0.99627 0.96292 0.0
C3052 C 0.55039 0.98126 0.93938 0.0
C3053 C 0.57858 0.01218 0.95562 0.0
C3054 C 0.56925 0.01269 0.9403 0.0
C3055 C 0.54627 0.99778 0.91618 0.0
C3056 C 0.53233 0.98241 0.90754 0.0
C3057 C 0.55526 0.99732 0.93198 0.0
C3058 C 0.52736 0.96651 0.91515 0.0
C3059 C 0.53629 0.96593 0.93094 0.0
H3060 H 0.60225 0.02632 0.14846 0.0
H3061 H 0.56312 0.01351 0.10483 0.0
H3062 H 0.54257 0.01032 0.12712 0.0
H3063 H 0.53525 0.0099 0.15896 0.0
H3064 H 0.57395 0.02203 0.20278 0.0
H3065 H 0.59511 0.02678 0.18049 0.0
C3066 C 0.58922 0.02283 0.14385 0.0
C3067 C 0.58426 0.02019 0.12499 0.0
C3068 C 0.57736 0.02083 0.15677 0.0
C3069 C 0.56739 0.01588 0.11924 0.0
C3070 C 0.55556 0.01391 0.13198 0.0
C3071 C 0.54831 0.01353 0.16362 0.0
C3072 C 0.553 0.01549 0.18247 0.0
C3073 C 0.56034 0.01615 0.15076 0.0
C3074 C 0.57005 0.02053 0.18833 0.0
C3075 C 0.58213 0.02316 0.1756 0.0
H3076 H 0.96832 0.5796 0.13514 0.0
H3077 H 0.9885 0.56077 0.09322 0.0
H3078 H 0.99019 0.54101 0.11393 0.0
H3079 H 0.98731 0.53004 0.14439 0.0
H3080 H 0.96749 0.54889 0.1866 0.0
H3081 H 0.96424 0.56761 0.16538 0.0
C3082 C 0.97305 0.57113 0.13056 0.0
C3083 C 0.97825 0.57166 0.11265 0.0
C3084 C 0.97411 0.55984 0.14261 0.0
C3085 C 0.98417 0.56047 0.10684 0.0
C3086 C 0.98528 0.54925 0.11872 0.0
C3087 C 0.98228 0.53826 0.14892 0.0
C3088 C 0.97775 0.53818 0.16703 0.0
C3089 C 0.98049 0.54898 0.13669 0.0
C3090 C 0.97097 0.54866 0.17267 0.0
C3091 C 0.9692 0.55942 0.16058 0.0
H3092 H 0.42687 0.39118 0.09968 0.0
H3093 H 0.45229 0.43872 0.07238 0.0
H3094 H 0.47182 0.45366 0.09963 0.0
H3095 H 0.48014 0.4538 0.13205 0.0
H3096 H 0.45382 0.40646 0.1596 0.0
H3097 H 0.43634 0.39087 0.13143 0.0
C3098 C 0.43673 0.4048 0.09969 0.0
C3099 C 0.43803 0.41385 0.08407 0.0
C3100 C 0.44775 0.41336 0.11548 0.0
C3101 C 0.45107 0.43141 0.08416 0.0
C3102 C 0.46217 0.44 0.09979 0.0
C3103 C 0.47064 0.44005 0.13184 0.0
C3104 C 0.46829 0.43134 0.14792 0.0
C3105 C 0.4604 0.4312 0.11565 0.0
C3106 C 0.45608 0.41345 0.14737 0.0
C3107 C 0.44595 0.40454 0.1313 0.0
H3108 H 0.63015 0.74457 0.42047 0.0
H3109 H 0.64997 0.71882 0.45351 0.0
H3110 H 0.64629 0.73235 0.48129 0.0
H3111 H 0.63941 0.75305 0.49612 0.0
H3112 H 0.61971 0.77907 0.46351 0.0
H3113 H 0.62131 0.76387 0.43557 0.0
C3114 C 0.63358 0.74189 0.43377 0.0
C3115 C 0.6404 0.73078 0.43493 0.0
C3116 C 0.63156 0.74983 0.44971 0.0
C3117 C 0.64455 0.72719 0.45224 0.0
C3118 C 0.64258 0.73502 0.46813 0.0
C3119 C 0.63544 0.75533 0.48287 0.0
C3120 C 0.62969 0.76729 0.48174 0.0
C3121 C 0.63641 0.7466 0.46701 0.0
C3122 C 0.62421 0.76992 0.46462 0.0
C3123 C 0.62519 0.7613 0.44869 0.0
H3124 H 0.27246 0.89167 0.48138 0.0
H3125 H 0.23537 0.90744 0.46854 0.0
H3126 H 0.21613 0.88782 0.48992 0.0
H3127 H 0.20964 0.86603 0.5118 0.0
H3128 H 0.247 0.85097 0.52625 0.0
H3129 H 0.26614 0.87011 0.50434 0.0
C3130 C 0.26016 0.89075 0.48331 0.0
C3131 C 0.25537 0.90105 0.47354 0.0
C3132 C 0.24917 0.8795 0.49577 0.0
C3133 C 0.23943 0.89983 0.47614 0.0
C3134 C 0.22839 0.88855 0.48827 0.0
C3135 C 0.22208 0.86711 0.51044 0.0
C3136 C 0.22687 0.85713 0.52078 0.0
C3137 C 0.23314 0.87837 0.49816 0.0
C3138 C 0.24287 0.85836 0.51835 0.0
C3139 C 0.25388 0.86939 0.50591 0.0
H3140 H 0.12377 0.36503 0.43426 0.0
H3141 H 0.07847 0.31822 0.44806 0.0
H3142 H 0.09255 0.3201 0.47779 0.0
H3143 H 0.11718 0.33529 0.50019 0.0
H3144 H 0.16342 0.38098 0.48616 0.0
H3145 H 0.14942 0.37931 0.45626 0.0
C3146 C 0.11706 0.35512 0.44367 0.0
C3147 C 0.09997 0.34164 0.43895 0.0
C3148 C 0.12533 0.35612 0.46076 0.0
C3149 C 0.09145 0.32899 0.45143 0.0
C3150 C 0.09953 0.32997 0.46843 0.0
C3151 C 0.12439 0.34473 0.49051 0.0
C3152 C 0.14139 0.35821 0.49549 0.0
C3153 C 0.1164 0.34353 0.47328 0.0
C3154 C 0.15026 0.37057 0.48285 0.0
C3155 C 0.14229 0.36956 0.46568 0.0
H3156 H 0.09002 0.29393 0.27723 0.0
H3157 H 0.07059 0.32343 0.25066 0.0
H3158 H 0.08462 0.32287 0.22309 0.0
H3159 H 0.10326 0.3149 0.20682 0.0
H3160 H 0.12309 0.28578 0.23345 0.0
H3161 H 0.10804 0.28524 0.2606 0.0
C3162 C 0.08888 0.30024 0.2654 0.0
C3163 C 0.07926 0.30868 0.26601 0.0
C3164 C 0.09707 0.29995 0.24958 0.0
C3165 C 0.07773 0.31663 0.25048 0.0
C3166 C 0.08585 0.31643 0.23474 0.0
C3167 C 0.1043 0.30847 0.21859 0.0
C3168 C 0.11429 0.30043 0.21812 0.0
C3169 C 0.09567 0.30826 0.23419 0.0
C3170 C 0.11533 0.29192 0.23338 0.0
C3171 C 0.10681 0.29169 0.24896 0.0
H3172 H 0.6782 0.76877 0.28777 0.0
H3173 H 0.7219 0.76451 0.27308 0.0
H3174 H 0.7275 0.7848 0.24934 0.0
H3175 H 0.71887 0.80252 0.23169 0.0
H3176 H 0.67481 0.80609 0.24658 0.0
H3177 H 0.67028 0.78706 0.27114 0.0
C3178 C 0.6889 0.7722 0.2793 0.0
C3179 C 0.69949 0.76501 0.28202 0.0
C3180 C 0.69189 0.78365 0.26564 0.0
C3181 C 0.71358 0.76992 0.27127 0.0
C3182 C 0.71673 0.78144 0.25764 0.0
C3183 C 0.70841 0.79925 0.24045 0.0
C3184 C 0.69707 0.80552 0.2372 0.0
C3185 C 0.70583 0.78823 0.25457 0.0
C3186 C 0.6835 0.80115 0.24859 0.0
C3187 C 0.68095 0.79034 0.26269 0.0
H3188 H 0.2324 0.94412 0.30537 0.0
H3189 H 0.2237 0.8945 0.32118 0.0
H3190 H 0.20708 0.88037 0.2921 0.0
H3191 H 0.19704 0.88254 0.26123 0.0
H3192 H 0.20566 0.93204 0.24524 0.0
H3193 H 0.22017 0.94582 0.27538 0.0
C3194 C 0.22674 0.9302 0.30245 0.0
C3195 C 0.22932 0.92037 0.3153 0.0
C3196 C 0.21726 0.92218 0.28568 0.0
C3197 C 0.22176 0.90231 0.31153 0.0
C3198 C 0.21237 0.89424 0.29487 0.0
C3199 C 0.202 0.89632 0.26446 0.0
C3200 C 0.20047 0.90633 0.25109 0.0
C3201 C 0.21034 0.90411 0.28172 0.0
C3202 C 0.20667 0.9241 0.2554 0.0
C3203 C 0.21504 0.93198 0.27256 0.0
H3204 H 0.69732 0.91151 0.31673 0.0
H3205 H 0.71794 0.95967 0.29051 0.0
H3206 H 0.72489 0.94674 0.26455 0.0
H3207 H 0.72242 0.92094 0.24807 0.0
H3208 H 0.70128 0.87261 0.27397 0.0
H3209 H 0.69745 0.88651 0.30148 0.0
C3210 C 0.7037 0.9193 0.30554 0.0
C3211 C 0.70699 0.93648 0.30549 0.0
C3212 C 0.70747 0.91173 0.29058 0.0
C3213 C 0.71505 0.94633 0.29075 0.0
C3214 C 0.71907 0.93897 0.27593 0.0
C3215 C 0.7174 0.91358 0.25992 0.0
C3216 C 0.71211 0.89578 0.25901 0.0
C3217 C 0.71495 0.92156 0.27551 0.0
C3218 C 0.70532 0.8863 0.27433 0.0
C3219 C 0.70312 0.89423 0.29003 0.0
H3220 H 0.09883 0.79649 0.2875 0.0
H3221 H 0.05259 0.77134 0.25108 0.0
H3222 H 0.06843 0.78959 0.22686 0.0
H3223 H 0.09586 0.81136 0.21546 0.0
H3224 H 0.14195 0.83656 0.2521 0.0
H3225 H 0.12567 0.81968 0.27684 0.0
C3226 C 0.09211 0.79524 0.2744 0.0
C3227 C 0.07456 0.78252 0.27111 0.0
C3228 C 0.10131 0.80567 0.26051 0.0
C3229 C 0.06615 0.78089 0.25391 0.0
C3230 C 0.07518 0.79134 0.24007 0.0
C3231 C 0.10227 0.81336 0.22894 0.0
C3232 C 0.12013 0.82509 0.23187 0.0
C3233 C 0.09284 0.80357 0.24312 0.0
C3234 C 0.12828 0.82739 0.24939 0.0
C3235 C 0.11897 0.81781 0.26357 0.0
H3236 H 0.24563 0.33335 0.28848 0.0
H3237 H 0.20621 0.28605 0.3089 0.0
H3238 H 0.18742 0.28027 0.28111 0.0
H3239 H 0.18268 0.28849 0.25049 0.0
H3240 H 0.22248 0.33612 0.23082 0.0
H3241 H 0.24069 0.34193 0.2588 0.0
C3242 C 0.23295 0.32173 0.2868 0.0
C3243 C 0.22735 0.31003 0.30056 0.0
C3244 C 0.22231 0.31857 0.27093 0.0
C3245 C 0.21076 0.29523 0.29845 0.0
C3246 C 0.20007 0.2919 0.28255 0.0
C3247 C 0.19534 0.30011 0.25241 0.0
C3248 C 0.20121 0.31191 0.2387 0.0
C3249 C 0.20577 0.30343 0.26862 0.0
C3250 C 0.21759 0.32699 0.24132 0.0
C3251 C 0.22805 0.33028 0.25725 0.0
H3252 H 0.25951 0.3788 0.46293 0.0
H3253 H 0.25677 0.33143 0.47847 0.0
H3254 H 0.24139 0.33143 0.50503 0.0
H3255 H 0.22776 0.34417 0.52325 0.0
H3256 H 0.22975 0.39114 0.50769 0.0
H3257 H 0.24647 0.39209 0.48183 0.0
C3258 C 0.25552 0.36848 0.47213 0.0
C3259 C 0.25932 0.35517 0.46872 0.0
C3260 C 0.24655 0.36848 0.48737 0.0
C3261 C 0.25424 0.34198 0.4809 0.0
C3262 C 0.24533 0.34189 0.49604 0.0
C3263 C 0.23182 0.35458 0.51416 0.0
C3264 C 0.22743 0.36748 0.51729 0.0
C3265 C 0.24128 0.35497 0.49931 0.0
C3266 C 0.23306 0.38111 0.50562 0.0
C3267 C 0.24252 0.38159 0.49078 0.0
H3268 H 0.63143 0.90604 0.46795 0.0
H3269 H 0.64409 0.87928 0.42646 0.0
H3270 H 0.64093 0.85774 0.44768 0.0
H3271 H 0.63578 0.8472 0.47845 0.0
H3272 H 0.62318 0.87388 0.52004 0.0
H3273 H 0.62504 0.89472 0.4984 0.0
C3274 C 0.63347 0.89547 0.46359 0.0
C3275 C 0.63801 0.89428 0.44568 0.0
C3276 C 0.63168 0.88315 0.47589 0.0
C3277 C 0.6404 0.88039 0.44011 0.0
C3278 C 0.63872 0.86813 0.45227 0.0
C3279 C 0.63345 0.85759 0.48274 0.0
C3280 C 0.62943 0.85907 0.5008 0.0
C3281 C 0.63455 0.86949 0.47024 0.0
C3282 C 0.62618 0.87241 0.50615 0.0
C3283 C 0.62733 0.88438 0.49382 0.0
H3284 H 0.12041 0.76804 0.42117 0.0
H3285 H 0.08067 0.72163 0.44274 0.0
H3286 H 0.09726 0.72983 0.47238 0.0
H3287 H 0.12209 0.75111 0.49269 0.0
H3288 H 0.16107 0.79846 0.47191 0.0
H3289 H 0.14588 0.789 0.44137 0.0
C3290 C 0.11555 0.75966 0.43232 0.0
C3291 C 0.09938 0.74429 0.42987 0.0
C3292 C 0.12499 0.76466 0.44944 0.0
C3293 C 0.09305 0.73359 0.44443 0.0
C3294 C 0.10253 0.73825 0.46133 0.0
C3295 C 0.12741 0.75918 0.48136 0.0
C3296 C 0.14271 0.77536 0.48441 0.0
C3297 C 0.11838 0.75387 0.46407 0.0
C3298 C 0.1493 0.78592 0.46979 0.0
C3299 C 0.14062 0.78053 0.45239 0.0
H3300 H 0.32513 0.09861 0.75608 0.0
H3301 H 0.28024 0.04897 0.7638 0.0
H3302 H 0.27331 0.06225 0.78943 0.0
H3303 H 0.28129 0.08755 0.81105 0.0
H3304 H 0.3257 0.13721 0.80248 0.0
H3305 H 0.33124 0.12437 0.77539 0.0
C3306 C 0.31358 0.09071 0.76302 0.0
C3307 C 0.30333 0.07275 0.75804 0.0
C3308 C 0.30958 0.09844 0.77762 0.0
C3309 C 0.28859 0.06275 0.76753 0.0
C3310 C 0.28454 0.07036 0.78213 0.0
C3311 C 0.29193 0.09564 0.80299 0.0
C3312 C 0.30316 0.11326 0.80885 0.0
C3313 C 0.29513 0.08814 0.7875 0.0
C3314 C 0.31702 0.12355 0.79839 0.0
C3315 C 0.32019 0.11622 0.78291 0.0
H3316 H 0.92165 0.20676 0.78526 0.0
H3317 H 0.94146 0.2525 0.82278 0.0
H3318 H 0.92496 0.23455 0.8468 0.0
H3319 H 0.90339 0.20615 0.8565 0.0
H3320 H 0.8836 0.16035 0.81918 0.0
H3321 H 0.90191 0.17797 0.79583 0.0
C3322 C 0.92264 0.21276 0.7988 0.0
C3323 C 0.93262 0.23097 0.80215 0.0
C3324 C 0.91307 0.20236 0.81255 0.0
C3325 C 0.93363 0.23855 0.81974 0.0
C3326 C 0.92423 0.22829 0.8335 0.0
C3327 C 0.90316 0.20005 0.84326 0.0
C3328 C 0.89208 0.18205 0.83946 0.0
C3329 C 0.91362 0.21025 0.82993 0.0
C3330 C 0.89208 0.1742 0.82241 0.0
C3331 C 0.90248 0.18428 0.80904 0.0
H3332 H 0.79274 0.69938 0.76266 0.0
H3333 H 0.74529 0.68564 0.78749 0.0
H3334 H 0.75959 0.68998 0.8178 0.0
H3335 H 0.78478 0.69527 0.83708 0.0
H3336 H 0.83245 0.70905 0.81299 0.0
H3337 H 0.81902 0.70747 0.78257 0.0
C3338 C 0.78565 0.69764 0.77474 0.0
C3339 C 0.76791 0.69188 0.77282 0.0
C3340 C 0.79396 0.70008 0.79222 0.0
C3341 C 0.75886 0.68968 0.78859 0.0
C3342 C 0.76703 0.69221 0.80593 0.0
C3343 C 0.79224 0.69806 0.82514 0.0
C3344 C 0.80945 0.70204 0.82711 0.0
C3345 C 0.78443 0.69698 0.80786 0.0
C3346 C 0.81915 0.70593 0.81171 0.0
C3347 C 0.81145 0.70494 0.79435 0.0
H3348 H 0.74689 0.62491 0.60499 0.0
H3349 H 0.74122 0.66646 0.58426 0.0
H3350 H 0.75434 0.66476 0.5565 0.0
H3351 H 0.76847 0.65239 0.53853 0.0
H3352 H 0.7769 0.613 0.56062 0.0
H3353 H 0.7616 0.61295 0.58727 0.0
C3354 C 0.74864 0.63373 0.59452 0.0
C3355 C 0.74296 0.64576 0.59686 0.0
C3356 C 0.7567 0.63308 0.57873 0.0
C3357 C 0.7451 0.65681 0.58284 0.0
C3358 C 0.75278 0.65598 0.56696 0.0
C3359 C 0.76714 0.64389 0.54922 0.0
C3360 C 0.7739 0.63273 0.54744 0.0
C3361 C 0.75878 0.64429 0.56484 0.0
C3362 C 0.77162 0.62154 0.56134 0.0
C3363 C 0.763 0.62161 0.57674 0.0
H3364 H 0.35942 0.08335 0.59153 0.0
H3365 H 0.37868 0.12279 0.63669 0.0
H3366 H 0.38398 0.14492 0.61553 0.0
H3367 H 0.38107 0.15281 0.58446 0.0
H3368 H 0.35991 0.11311 0.53965 0.0
H3369 H 0.35709 0.0913 0.56045 0.0
C3370 C 0.3647 0.09676 0.5968 0.0
C3371 C 0.36858 0.1013 0.61574 0.0
C3372 C 0.36722 0.10938 0.58461 0.0
C3373 C 0.37578 0.11886 0.62219 0.0
C3374 C 0.37867 0.13156 0.61011 0.0
C3375 C 0.37606 0.13942 0.57926 0.0
C3376 C 0.37067 0.13452 0.56062 0.0
C3377 C 0.37419 0.12692 0.59134 0.0
C3378 C 0.364 0.11711 0.55402 0.0
C3379 C 0.36242 0.10467 0.56588 0.0
H3380 H 0.9083 0.27082 0.62778 0.0
H3381 H 0.8944 0.22046 0.64609 0.0
H3382 H 0.8774 0.20632 0.6171 0.0
H3383 H 0.86804 0.20852 0.58581 0.0
H3384 H 0.88123 0.2588 0.56783 0.0
H3385 H 0.89687 0.27281 0.59747 0.0
C3386 C 0.90143 0.25674 0.6254 0.0
C3387 C 0.90264 0.24665 0.63888 0.0
C3388 C 0.89162 0.24875 0.60879 0.0
C3389 C 0.89356 0.22844 0.63586 0.0
C3390 C 0.88393 0.22038 0.61929 0.0
C3391 C 0.87425 0.22252 0.5885 0.0
C3392 C 0.87364 0.23268 0.57474 0.0
C3393 C 0.8831 0.23043 0.60556 0.0
C3394 C 0.88152 0.25077 0.57833 0.0
C3395 C 0.89051 0.25877 0.5952 0.0
H3396 H 0.37375 0.26073 0.6447 0.0
H3397 H 0.32284 0.24529 0.62118 0.0
H3398 H 0.32626 0.22885 0.59593 0.0
H3399 H 0.34388 0.21954 0.58004 0.0
H3400 H 0.39449 0.23408 0.60355 0.0
H3401 H 0.39096 0.25012 0.62938 0.0
C3402 C 0.36333 0.25361 0.63417 0.0
C3403 C 0.34812 0.25441 0.63479 0.0
C3404 C 0.36531 0.24402 0.61969 0.0
C3405 C 0.33482 0.24523 0.62089 0.0
C3406 C 0.33671 0.2357 0.60649 0.0
C3407 C 0.35401 0.22589 0.59099 0.0
C3408 C 0.36937 0.22549 0.58993 0.0
C3409 C 0.35191 0.23508 0.60571 0.0
C3410 C 0.38257 0.23424 0.60401 0.0
C3411 C 0.38054 0.24339 0.61878 0.0
H3412 H 0.75706 0.09366 0.58677 0.0
H3413 H 0.74411 0.13058 0.60993 0.0
H3414 H 0.7615 0.15156 0.58833 0.0
H3415 H 0.7809 0.15957 0.56318 0.0
H3416 H 0.79371 0.12244 0.54029 0.0
H3417 H 0.77579 0.10135 0.5614 0.0
C3418 C 0.75784 0.10621 0.58693 0.0
C3419 C 0.74925 0.11053 0.59988 0.0
C3420 C 0.76791 0.1182 0.57457 0.0
C3421 C 0.7507 0.12699 0.60017 0.0
C3422 C 0.76059 0.13896 0.58779 0.0
C3423 C 0.77963 0.14681 0.56275 0.0
C3424 C 0.78869 0.14261 0.55028 0.0
C3425 C 0.76933 0.13474 0.57498 0.0
C3426 C 0.78707 0.12608 0.54996 0.0
C3427 C 0.77676 0.11398 0.56195 0.0
H3428 H 0.88179 0.62936 0.62638 0.0
H3429 H 0.9147 0.68417 0.61969 0.0
H3430 H 0.89841 0.68113 0.59111 0.0
H3431 H 0.87547 0.66299 0.56769 0.0
H3432 H 0.84118 0.60857 0.57479 0.0
H3433 H 0.85743 0.61142 0.60358 0.0
C3434 C 0.88527 0.64069 0.61881 0.0
C3435 C 0.89961 0.65693 0.62513 0.0
C3436 C 0.87565 0.63893 0.60244 0.0
C3437 C 0.904 0.67142 0.61499 0.0
C3438 C 0.89461 0.66974 0.59868 0.0
C3439 C 0.87126 0.65179 0.57567 0.0
C3440 C 0.85703 0.63561 0.56909 0.0
C3441 C 0.88049 0.65356 0.59225 0.0
C3442 C 0.85217 0.62115 0.57943 0.0
C3443 C 0.86141 0.62279 0.59594 0.0
H3444 H 0.93685 0.70367 0.81252 0.0
H3445 H 0.89542 0.69068 0.77168 0.0
H3446 H 0.87777 0.69205 0.79531 0.0
H3447 H 0.87344 0.69527 0.82771 0.0
H3448 H 0.91441 0.70749 0.86877 0.0
H3449 H 0.93291 0.7081 0.84494 0.0
C3450 C 0.92396 0.70116 0.80881 0.0
C3451 C 0.91747 0.69705 0.79036 0.0
C3452 C 0.91377 0.70173 0.82251 0.0
C3453 C 0.90084 0.69409 0.78573 0.0
C3454 C 0.89067 0.69472 0.79926 0.0
C3455 C 0.88641 0.69803 0.83143 0.0
C3456 C 0.89251 0.70117 0.84995 0.0
C3457 C 0.8969 0.69826 0.8177 0.0
C3458 C 0.90946 0.70509 0.85458 0.0
C3459 C 0.92 0.70536 0.84098 0.0
H3460 H 0.2845 0.22417 0.78458 0.0
H3461 H 0.33742 0.26187 0.80244 0.0
H3462 H 0.33692 0.24363 0.82633 0.0
H3463 H 0.32193 0.21666 0.84161 0.0
H3464 H 0.26956 0.17807 0.82306 0.0
H3465 H 0.26938 0.19698 0.80006 0.0
C3466 C 0.29594 0.22836 0.79365 0.0
C3467 C 0.31093 0.24445 0.79172 0.0
C3468 C 0.29569 0.21764 0.80724 0.0
C3469 C 0.32557 0.24974 0.80378 0.0
C3470 C 0.32537 0.23924 0.81737 0.0
C3471 C 0.31051 0.21231 0.83244 0.0
C3472 C 0.29583 0.19592 0.83398 0.0
C3473 C 0.31057 0.22312 0.81913 0.0
C3474 C 0.281 0.19067 0.82227 0.0
C3475 C 0.28092 0.20144 0.80904 0.0
H3476 H 0.78718 0.0936 0.74565 0.0
H3477 H 0.75191 0.04345 0.76447 0.0
H3478 H 0.76799 0.05218 0.79439 0.0
H3479 H 0.7902 0.07512 0.81614 0.0
H3480 H 0.82478 0.12561 0.79762 0.0
H3481 H 0.81076 0.11575 0.76669 0.0
C3482 C 0.78306 0.08456 0.75628 0.0
C3483 C 0.76829 0.06796 0.75287 0.0
C3484 C 0.79215 0.08979 0.77356 0.0
C3485 C 0.7633 0.05627 0.76667 0.0
C3486 C 0.77241 0.06129 0.78384 0.0
C3487 C 0.7949 0.08383 0.80523 0.0
C3488 C 0.80842 0.1011 0.80916 0.0
C3489 C 0.78662 0.07815 0.78756 0.0
C3490 C 0.81425 0.11232 0.79495 0.0
C3491 C 0.80625 0.10669 0.77728 0.0
H3492 H 0.09158 0.35509 0.06057 0.0
H3493 H 0.04391 0.31709 0.08148 0.0
H3494 H 0.05958 0.30779 0.10148 0.0
H3495 H 0.08692 0.31077 0.11347 0.0
H3496 H 0.13455 0.34872 0.09244 0.0
H3497 H 0.11886 0.35794 0.0724 0.0
C3498 C 0.08465 0.34485 0.06959 0.0
C3499 C 0.06661 0.33676 0.06946 0.0
C3500 C 0.09374 0.33963 0.08116 0.0
C3501 C 0.05778 0.32336 0.08108 0.0
C3502 C 0.06674 0.3181 0.09263 0.0
C3503 C 0.09384 0.32099 0.10443 0.0
C3504 C 0.11188 0.32915 0.1046 0.0
C3505 C 0.08472 0.32615 0.0928 0.0
C3506 C 0.12069 0.34246 0.09287 0.0
C3507 C 0.11172 0.34766 0.08129 0.0
H3508 H 0.6664 0.71384 0.12615 0.0
H3509 H 0.64579 0.72149 0.07565 0.0
H3510 H 0.654 0.75102 0.0872 0.0
H3511 H 0.66766 0.77483 0.11129 0.0
H3512 H 0.68955 0.768 0.1614 0.0
H3513 H 0.68045 0.73803 0.15036 0.0
C3514 C 0.66359 0.72199 0.11783 0.0
C3515 C 0.65543 0.71561 0.10018 0.0
C3516 C 0.66873 0.73908 0.12441 0.0
C3517 C 0.65206 0.72624 0.0893 0.0
C3518 C 0.65676 0.74308 0.09587 0.0
C3519 C 0.67032 0.76671 0.11983 0.0
C3520 C 0.67915 0.7735 0.13713 0.0
C3521 C 0.6652 0.74966 0.11334 0.0
C3522 C 0.68283 0.76302 0.14796 0.0
C3523 C 0.67756 0.7459 0.1417 0.0
H3524 H 0.29284 0.95453 0.07534 0.0
H3525 H 0.27805 0.90858 0.03981 0.0
H3526 H 0.25092 0.89281 0.0545 0.0
H3527 H 0.2318 0.89197 0.07803 0.0
H3528 H 0.24705 0.938 0.11372 0.0
H3529 H 0.27354 0.95392 0.09825 0.0
C3530 C 0.28373 0.94102 0.07092 0.0
C3531 C 0.2875 0.93265 0.05668 0.0
C3532 C 0.26821 0.9321 0.07937 0.0
C3533 C 0.27541 0.91528 0.05076 0.0
C3534 C 0.25994 0.90627 0.05918 0.0
C3535 C 0.24094 0.90548 0.08241 0.0
C3536 C 0.23744 0.91379 0.09699 0.0
C3537 C 0.25626 0.91453 0.07357 0.0
C3538 C 0.2493 0.93137 0.10237 0.0
C3539 C 0.26453 0.94045 0.09364 0.0
H3540 H 0.32981 0.04323 0.9727 0.0
H3541 H 0.36669 0.08636 0.00971 0.0
H3542 H 0.35532 0.10435 0.99866 0.0
H3543 H 0.33576 0.10814 0.97748 0.0
H3544 H 0.30022 0.06531 0.93923 0.0
H3545 H 0.31009 0.04684 0.95196 0.0
C3546 C 0.33548 0.05662 0.97825 0.0
C3547 C 0.34921 0.0635 0.99185 0.0
C3548 C 0.32905 0.06691 0.97169 0.0
C3549 C 0.35608 0.08072 0.99926 0.0
C3550 C 0.34963 0.09103 0.9929 0.0
C3551 C 0.33019 0.09478 0.9719 0.0
C3552 C 0.31725 0.08817 0.9574 0.0
C3553 C 0.33625 0.08431 0.97897 0.0
C3554 C 0.30998 0.07071 0.95057 0.0
C3555 C 0.31575 0.06016 0.95772 0.0
H3556 H 0.9294 0.28042 0.95359 0.0
H3557 H 0.95357 0.26061 0.98949 0.0
H3558 H 0.93491 0.23128 0.97512 0.0
H3559 H 0.91089 0.21104 0.95328 0.0
H3560 H 0.88695 0.23083 0.91708 0.0
H3561 H 0.90648 0.26041 0.93052 0.0
C3562 C 0.93072 0.26972 0.95812 0.0
C3563 C 0.94273 0.27269 0.97272 0.0
C3564 C 0.91998 0.25288 0.94977 0.0
C3565 C 0.94418 0.25864 0.97853 0.0
C3566 C 0.9336 0.24187 0.97024 0.0
C3567 C 0.91015 0.22187 0.94812 0.0
C3568 C 0.89745 0.21874 0.93427 0.0
C3569 C 0.92134 0.23881 0.95598 0.0
C3570 C 0.89649 0.23288 0.9279 0.0
C3571 C 0.90766 0.24979 0.93554 0.0
H3572 H 0.71363 0.66443 0.00215 0.0
H3573 H 0.72265 0.62732 0.0288 0.0
H3574 H 0.74973 0.63783 0.01412 0.0
H3575 H 0.77025 0.65687 0.99288 0.0
H3576 H 0.76031 0.69296 0.96522 0.0
H3577 H 0.73423 0.68364 0.98131 0.0
C3578 C 0.72144 0.65852 0.00462 0.0
C3579 C 0.71605 0.64498 0.01638 0.0
C3580 C 0.73685 0.66451 0.99604 0.0
C3581 C 0.72654 0.63779 0.01984 0.0
C3582 C 0.74198 0.64374 0.0114 0.0
C3583 C 0.76235 0.66265 0.99032 0.0
C3584 C 0.76723 0.67557 0.97782 0.0
C3585 C 0.74717 0.65699 0.99935 0.0
C3586 C 0.757 0.68316 0.97493 0.0
C3587 C 0.742 0.67773 0.984 0.0
H3588 H 0.91444 0.63837 0.98798 0.0
H3589 H 0.95745 0.6905 0.0001 0.0
H3590 H 0.94288 0.70203 0.98154 0.0
H3591 H 0.91807 0.69726 0.96166 0.0
H3592 H 0.87432 0.6452 0.95106 0.0
H3593 H 0.8893 0.63368 0.96867 0.0
C3594 C 0.92062 0.65224 0.98649 0.0
C3595 C 0.93695 0.66357 0.99542 0.0
C3596 C 0.91215 0.65879 0.97587 0.0
C3597 C 0.94476 0.68154 0.99355 0.0
C3598 C 0.9365 0.68813 0.98284 0.0
C3599 C 0.91172 0.68341 0.96329 0.0
C3600 C 0.8951 0.67216 0.95483 0.0
C3601 C 0.92019 0.67687 0.97394 0.0
C3602 C 0.88725 0.65419 0.95696 0.0
C3603 C 0.89573 0.64757 0.96724 0.0
H3604 H 0.33088 0.27366 0.97929 0.0
H3605 H 0.34834 0.29799 0.92885 0.0
H3606 H 0.33787 0.26957 0.91269 0.0
H3607 H 0.32402 0.23781 0.91289 0.0
H3608 H 0.3062 0.21345 0.96317 0.0
H3609 H 0.31598 0.24184 0.97922 0.0
C3610 C 0.33221 0.27276 0.96472 0.0
C3611 C 0.34052 0.288 0.95537 0.0
C3612 C 0.32595 0.25635 0.95543 0.0
C3613 C 0.34233 0.28654 0.93651 0.0
C3614 C 0.33621 0.27027 0.9272 0.0
C3615 C 0.32229 0.23874 0.92736 0.0
C3616 C 0.31442 0.22357 0.93683 0.0
C3617 C 0.32809 0.2551 0.93654 0.0
C3618 C 0.31203 0.22492 0.95552 0.0
C3619 C 0.31775 0.24116 0.96474 0.0
H3620 H 0.73347 0.07824 0.02164 0.0
H3621 H 0.6937 0.05875 0.97736 0.0
H3622 H 0.7154 0.06818 0.95511 0.0
H3623 H 0.74548 0.08144 0.94808 0.0
H3624 H 0.78564 0.10165 0.99196 0.0
H3625 H 0.76395 0.09187 0.01446 0.0
C3626 C 0.72959 0.07607 0.00712 0.0
C3627 C 0.712 0.06802 0.00121 0.0
C3628 C 0.74216 0.08141 0.99431 0.0
C3629 C 0.70716 0.06531 0.98233 0.0
C3630 C 0.71955 0.07052 0.96956 0.0
C3631 C 0.74953 0.08387 0.96256 0.0
C3632 C 0.76717 0.09231 0.96829 0.0
C3633 C 0.73706 0.07857 0.97539 0.0
C3634 C 0.77214 0.09499 0.98714 0.0
C3635 C 0.75975 0.08954 3e-05 0.0
H3636 H 0.63913 0.92321 0.07468 0.0
H3637 H 0.68918 0.96992 0.07867 0.0
H3638 H 0.702 0.95446 0.09292 0.0
H3639 H 0.6985 0.92833 0.10667 0.0
H3640 H 0.64833 0.88178 0.10304 0.0
H3641 H 0.63603 0.89653 0.08635 0.0
C3642 C 0.65285 0.92997 0.07862 0.0
C3643 C 0.66316 0.94769 0.07573 0.0
C3644 C 0.66009 0.92107 0.087 0.0
C3645 C 0.68097 0.95623 0.08062 0.0
C3646 C 0.6883 0.94744 0.08888 0.0
C3647 C 0.68495 0.92134 0.10191 0.0
C3648 C 0.6743 0.90407 0.10624 0.0
C3649 C 0.67793 0.92994 0.09244 0.0
C3650 C 0.65673 0.89519 0.10012 0.0
C3651 C 0.64969 0.90359 0.09055 0.0
H3652 H 0.05909 0.72383 0.11596 0.0
H3653 H 0.07056 0.74194 0.0619 0.0
H3654 H 0.09 0.77152 0.07518 0.0
H3655 H 0.10445 0.79213 0.10212 0.0
H3656 H 0.09418 0.77394 0.15617 0.0
H3657 H 0.07374 0.74441 0.14293 0.0
C3658 C 0.06598 0.7342 0.10707 0.0
C3659 C 0.06332 0.73062 0.08794 0.0
C3660 C 0.07735 0.75115 0.1148 0.0
C3661 C 0.07214 0.74432 0.07665 0.0
C3662 C 0.08335 0.76124 0.08423 0.0
C3663 C 0.09754 0.78172 0.11097 0.0
C3664 C 0.10066 0.78515 0.13005 0.0
C3665 C 0.08607 0.7648 0.10327 0.0
C3666 C 0.09195 0.77153 0.14142 0.0
C3667 C 0.08029 0.75469 0.13386 0.0
H3668 H 0.27795 0.3311 0.04332 0.0
H3669 H 0.2922 0.38474 0.05463 0.0
H3670 H 0.2673 0.37579 0.07283 0.0
H3671 H 0.24241 0.3529 0.08663 0.0
H3672 H 0.22926 0.29934 0.07721 0.0
H3673 H 0.25252 0.30801 0.05675 0.0
C3674 C 0.27541 0.34077 0.04956 0.0
C3675 C 0.2868 0.35853 0.04766 0.0
C3676 C 0.26131 0.33555 0.06033 0.0
C3677 C 0.28359 0.371 0.05601 0.0
C3678 C 0.26939 0.36589 0.06639 0.0
C3679 C 0.24469 0.34311 0.08023 0.0
C3680 C 0.23417 0.3255 0.08362 0.0
C3681 C 0.25834 0.34823 0.06889 0.0
C3682 C 0.23704 0.31296 0.07477 0.0
C3683 C 0.25043 0.31793 0.06316 0.0
H3684 H 0.71823 0.66351 0.41932 0.0
H3685 H 0.75667 0.69155 0.38154 0.0
H3686 H 0.77625 0.68384 0.39685 0.0
H3687 H 0.78257 0.66951 0.42116 0.0
H3688 H 0.74425 0.64126 0.45894 0.0
H3689 H 0.72439 0.64859 0.44338 0.0
C3690 C 0.73094 0.668 0.41454 0.0
C3691 C 0.73606 0.67815 0.3994 0.0
C3692 C 0.74209 0.66346 0.42336 0.0
C3693 C 0.75242 0.68364 0.3931 0.0
C3694 C 0.76363 0.67929 0.40188 0.0
C3695 C 0.7699 0.66506 0.42605 0.0
C3696 C 0.76491 0.65503 0.44126 0.0
C3697 C 0.75862 0.66929 0.41705 0.0
C3698 C 0.74833 0.64898 0.44722 0.0
C3699 C 0.73703 0.65323 0.43839 0.0
H3700 H 0.34425 0.05331 0.45127 0.0
H3701 H 0.31367 0.05696 0.40672 0.0
H3702 H 0.32342 0.08704 0.41743 0.0
H3703 H 0.33993 0.11194 0.43985 0.0
H3704 H 0.36988 0.1082 0.48499 0.0
H3705 H 0.36152 0.07867 0.47331 0.0
C3706 C 0.33989 0.06077 0.44379 0.0
C3707 C 0.32818 0.0529 0.42829 0.0
C3708 C 0.34549 0.07804 0.45007 0.0
C3709 C 0.32249 0.06265 0.41885 0.0
C3710 C 0.32812 0.07987 0.4249 0.0
C3711 C 0.34457 0.10463 0.44719 0.0
C3712 C 0.3554 0.11221 0.46334 0.0
C3713 C 0.33946 0.0876 0.4406 0.0
C3714 C 0.36163 0.10273 0.47245 0.0
C3715 C 0.35675 0.0858 0.46586 0.0
H3716 H 0.9443 0.25895 0.37072 0.0
H3717 H 0.97439 0.29456 0.41712 0.0
H3718 H 0.94931 0.28153 0.43533 0.0
H3719 H 0.91902 0.25948 0.43832 0.0
H3720 H 0.88932 0.22254 0.39274 0.0
H3721 H 0.91393 0.23662 0.37383 0.0
C3722 C 0.94527 0.26385 0.3848 0.0
C3723 C 0.9611 0.27762 0.39264 0.0
C3724 C 0.93088 0.25609 0.39527 0.0
C3725 C 0.96233 0.28383 0.41091 0.0
C3726 C 0.94801 0.27645 0.42128 0.0
C3727 C 0.91795 0.2547 0.42417 0.0
C3728 C 0.90245 0.24019 0.41678 0.0
C3729 C 0.93225 0.26253 0.41363 0.0
C3730 C 0.90119 0.23378 0.39859 0.0
C3731 C 0.91523 0.24179 0.38784 0.0
H3732 H 0.02271 0.40426 0.33363 0.0
H3733 H 0.06478 0.41787 0.29926 0.0
H3734 H 0.05835 0.43808 0.28426 0.0
H3735 H 0.03958 0.45032 0.27955 0.0
H3736 H 0.99708 0.43626 0.3134 0.0
H3737 H 0.00486 0.41775 0.33002 0.0
C3738 C 0.03065 0.41191 0.3231 0.0
C3739 C 0.04419 0.40961 0.31754 0.0
C3740 C 0.0267 0.42326 0.31434 0.0
C3741 C 0.05421 0.41935 0.30366 0.0
C3742 C 0.05055 0.4309 0.2951 0.0
C3743 C 0.03221 0.44345 0.29078 0.0
C3744 C 0.01778 0.44464 0.29525 0.0
C3745 C 0.03665 0.43273 0.30012 0.0
C3746 C 0.00815 0.43541 0.30961 0.0
C3747 C 0.01262 0.42488 0.31914 0.0
H3748 H 0.61025 0.59822 0.31703 0.0
H3749 H 0.59453 0.62633 0.28235 0.0
H3750 H 0.57314 0.59909 0.2655 0.0
H3751 H 0.55858 0.56727 0.26092 0.0
H3752 H 0.57427 0.53914 0.29555 0.0
H3753 H 0.59642 0.56649 0.31171 0.0
C3754 C 0.60231 0.59842 0.30564 0.0
C3755 C 0.60393 0.6143 0.30105 0.0
C3756 C 0.59012 0.58273 0.29591 0.0
C3757 C 0.59335 0.61428 0.28639 0.0
C3758 C 0.58119 0.59872 0.27666 0.0
C3759 C 0.56683 0.56713 0.27204 0.0
C3760 C 0.56475 0.55121 0.27707 0.0
C3761 C 0.57938 0.58287 0.28139 0.0
C3762 C 0.57573 0.55124 0.29129 0.0
C3763 C 0.5883 0.56686 0.30062 0.0
H3764 H 0.38195 0.95723 0.35649 0.0
H3765 H 0.36405 0.9848 0.32381 0.0
H3766 H 0.3873 0.99223 0.30368 0.0
H3767 H 0.41251 0.99067 0.29512 0.0
H3768 H 0.43057 0.96306 0.32745 0.0
H3769 H 0.40749 0.95584 0.34796 0.0
C3770 C 0.38324 0.96495 0.34502 0.0
C3771 C 0.37126 0.97037 0.34158 0.0
C3772 C 0.39663 0.96913 0.33344 0.0
C3773 C 0.37296 0.98025 0.32658 0.0
C3774 C 0.38631 0.98458 0.31512 0.0
C3775 C 0.41148 0.98321 0.30676 0.0
C3776 C 0.42323 0.97745 0.30983 0.0
C3777 C 0.39817 0.97906 0.31839 0.0
C3778 C 0.42158 0.96753 0.32476 0.0
C3779 C 0.40844 0.96346 0.33652 0.0
H3780 H 0.58161 0.95377 0.31334 0.0
H3781 H 0.61707 0.00744 0.33171 0.0
H3782 H 0.60017 0.01654 0.31324 0.0
H3783 H 0.57532 0.00919 0.29205 0.0
H3784 H 0.53841 0.95517 0.27591 0.0
H3785 H 0.55621 0.94636 0.29275 0.0
C3786 C 0.58562 0.96745 0.31322 0.0
C3787 C 0.60049 0.97993 0.32385 0.0
C3788 C 0.57571 0.97254 0.3028 0.0
C3789 C 0.60554 0.99761 0.32375 0.0
C3790 C 0.59594 0.00281 0.31313 0.0
C3791 C 0.57101 0.99547 0.29232 0.0
C3792 C 0.55549 0.98294 0.28255 0.0
C3793 C 0.58096 0.99038 0.30266 0.0
C3794 C 0.55044 0.96522 0.28286 0.0
C3795 C 0.56052 0.9601 0.29271 0.0
H3796 H 0.99807 0.61929 0.29479 0.0
H3797 H 0.05288 0.63935 0.29662 0.0
H3798 H 0.04788 0.61186 0.28192 0.0
H3799 H 0.02799 0.58213 0.26912 0.0
H3800 H 0.97313 0.56244 0.26564 0.0
H3801 H 0.97808 0.5897 0.28078 0.0
C3802 C 0.00887 0.61755 0.29202 0.0
C3803 C 0.0258 0.63121 0.2968 0.0
C3804 C 0.0059 0.60182 0.28337 0.0
C3805 C 0.03975 0.62899 0.29295 0.0
C3806 C 0.0369 0.6133 0.28461 0.0
C3807 C 0.01709 0.58386 0.27135 0.0
C3808 C 0.00021 0.57021 0.26619 0.0
C3809 C 0.02003 0.59965 0.27975 0.0
C3810 C 0.98626 0.57261 0.26966 0.0
C3811 C 0.98907 0.58824 0.27823 0.0
H3812 H 0.37768 0.41892 0.33671 0.0
H3813 H 0.38282 0.37392 0.3436 0.0
H3814 H 0.40752 0.38568 0.32498 0.0
H3815 H 0.42658 0.40787 0.3052 0.0
H3816 H 0.42145 0.45286 0.29816 0.0
H3817 H 0.39763 0.4418 0.31804 0.0
C3818 C 0.38423 0.41171 0.33414 0.0
C3819 C 0.37841 0.39559 0.34156 0.0
C3820 C 0.39831 0.41844 0.32321 0.0
C3821 C 0.38717 0.38649 0.33829 0.0
C3822 C 0.40122 0.39313 0.3275 0.0
C3823 C 0.42041 0.41537 0.30821 0.0
C3824 C 0.42569 0.43108 0.30006 0.0
C3825 C 0.40677 0.40899 0.31972 0.0
C3826 C 0.41742 0.44055 0.30397 0.0
C3827 C 0.40387 0.4343 0.31543 0.0
H3828 H 0.34307 0.29498 0.42762 0.0
H3829 H 0.30614 0.2517 0.39062 0.0
H3830 H 0.31639 0.23335 0.403 0.0
H3831 H 0.3351 0.22929 0.42524 0.0
H3832 H 0.37296 0.27305 0.46083 0.0
H3833 H 0.36354 0.29177 0.44747 0.0
C3834 C 0.33748 0.28167 0.42187 0.0
C3835 C 0.32371 0.27478 0.40825 0.0
C3836 C 0.34369 0.2713 0.42872 0.0
C3837 C 0.31647 0.25732 0.40138 0.0
C3838 C 0.32242 0.24683 0.40834 0.0
C3839 C 0.34136 0.24298 0.42989 0.0
C3840 C 0.35463 0.24983 0.44399 0.0
C3841 C 0.33587 0.25363 0.42217 0.0
C3842 C 0.36281 0.26757 0.44987 0.0
C3843 C 0.35733 0.27822 0.44235 0.0
H3844 H 0.72456 0.05138 0.44924 0.0
H3845 H 0.7267 0.06737 0.39428 0.0
H3846 H 0.74688 0.0975 0.40542 0.0
H3847 H 0.76537 0.11903 0.43042 0.0
H3848 H 0.76435 0.1029 0.4851 0.0
H3849 H 0.74242 0.07305 0.4744 0.0
C3850 C 0.7295 0.06143 0.43968 0.0
C3851 C 0.72414 0.05708 0.42095 0.0
C3852 C 0.74135 0.0787 0.44612 0.0
C3853 C 0.73043 0.07035 0.40881 0.0
C3854 C 0.74207 0.08759 0.41514 0.0
C3855 C 0.76012 0.10902 0.44002 0.0
C3856 C 0.76641 0.1131 0.45849 0.0
C3857 C 0.74776 0.09188 0.43372 0.0
C3858 C 0.75973 0.09999 0.47078 0.0
C3859 C 0.74722 0.08295 0.46467 0.0
H3860 H 0.93687 0.67764 0.36854 0.0
H3861 H 0.97197 0.69453 0.41693 0.0
H3862 H 0.94779 0.68318 0.43621 0.0
H3863 H 0.91682 0.6688 0.43948 0.0
H3864 H 0.88136 0.65194 0.39147 0.0
H3865 H 0.9055 0.66241 0.37187 0.0
C3866 C 0.9392 0.67872 0.38329 0.0
C3867 C 0.95624 0.68714 0.39126 0.0
C3868 C 0.92518 0.67205 0.39437 0.0
C3869 C 0.95903 0.68849 0.41043 0.0
C3870 C 0.9452 0.68187 0.42148 0.0
C3871 C 0.91436 0.66751 0.42473 0.0
C3872 C 0.89734 0.65973 0.41696 0.0
C3873 C 0.92826 0.67375 0.41361 0.0
C3874 C 0.89435 0.65777 0.3978 0.0
C3875 C 0.90815 0.66387 0.3866 0.0
H3876 H 0.41018 0.03767 0.76123 0.0
H3877 H 0.39996 0.99847 0.71797 0.0
H3878 H 0.41898 0.99076 0.7344 0.0
H3879 H 0.4388 0.99538 0.76083 0.0
H3880 H 0.44878 0.03423 0.80433 0.0
H3881 H 0.4294 0.04172 0.78812 0.0
C3882 C 0.41198 0.02733 0.75547 0.0
C3883 C 0.4037 0.01873 0.73835 0.0
C3884 C 0.42285 0.02286 0.76505 0.0
C3885 C 0.40639 0.00552 0.73098 0.0
C3886 C 0.41716 0.001 0.74043 0.0
C3887 C 0.43652 0.0053 0.76689 0.0
C3888 C 0.44515 0.01419 0.78377 0.0
C3889 C 0.42547 0.0096 0.75745 0.0
C3890 C 0.44235 0.02727 0.79128 0.0
C3891 C 0.43127 0.03154 0.78204 0.0
H3892 H 0.99415 0.37615 0.78401 0.0
H3893 H 0.9551 0.37296 0.74518 0.0
H3894 H 0.95946 0.40054 0.75863 0.0
H3895 H 0.97455 0.42568 0.78113 0.0
H3896 H 0.01255 0.42815 0.82095 0.0
H3897 H 0.00834 0.40065 0.80737 0.0
C3898 C 0.9864 0.38134 0.77863 0.0
C3899 C 0.97434 0.37248 0.76357 0.0
C3900 C 0.98882 0.3971 0.78656 0.0
C3901 C 0.96466 0.37961 0.75658 0.0
C3902 C 0.96707 0.39534 0.76433 0.0
C3903 C 0.98174 0.42009 0.78703 0.0
C3904 C 0.99385 0.42899 0.80204 0.0
C3905 C 0.97913 0.4042 0.77929 0.0
C3906 C 0.00331 0.42171 0.80925 0.0
C3907 C 0.00085 0.40593 0.80156 0.0
H3908 H 0.61515 0.60269 0.71264 0.0
H3909 H 0.64394 0.58629 0.74631 0.0
H3910 H 0.61944 0.57128 0.76502 0.0
H3911 H 0.59059 0.56437 0.77285 0.0
H3912 H 0.56184 0.58117 0.73964 0.0
H3913 H 0.58565 0.59467 0.71978 0.0
C3914 C 0.6159 0.59554 0.72387 0.0
C3915 C 0.63125 0.59551 0.72809 0.0
C3916 C 0.6019 0.58727 0.73477 0.0
C3917 C 0.63223 0.5865 0.74287 0.0
C3918 C 0.61827 0.57797 0.75357 0.0
C3919 C 0.58943 0.57077 0.76111 0.0
C3920 C 0.57447 0.57177 0.75772 0.0
C3921 C 0.60315 0.5785 0.74982 0.0
C3922 C 0.5733 0.5804 0.74266 0.0
C3923 C 0.58686 0.58802 0.73124 0.0
H3924 H 0.65936 0.71519 0.66362 0.0
H3925 H 0.70913 0.74504 0.64189 0.0
H3926 H 0.69994 0.76369 0.62821 0.0
H3927 H 0.67758 0.77083 0.62143 0.0
H3928 H 0.62832 0.74229 0.6445 0.0
H3929 H 0.63759 0.72381 0.65869 0.0
C3930 C 0.66832 0.72595 0.65617 0.0
C3931 C 0.68489 0.72858 0.6537 0.0
C3932 C 0.66304 0.7368 0.6485 0.0
C3933 C 0.69619 0.74246 0.64373 0.0
C3934 C 0.691 0.75322 0.63599 0.0
C3935 C 0.66895 0.76084 0.6299 0.0
C3936 C 0.65227 0.75803 0.6319 0.0
C3937 C 0.67441 0.75042 0.63816 0.0
C3938 C 0.64116 0.74465 0.64253 0.0
C3939 C 0.64648 0.73412 0.65073 0.0
H3940 H 0.28558 0.93935 0.6302 0.0
H3941 H 0.25221 0.94111 0.66977 0.0
H3942 H 0.23016 0.91115 0.65994 0.0
H3943 H 0.22015 0.88475 0.63977 0.0
H3944 H 0.25291 0.88318 0.59928 0.0
H3945 H 0.27564 0.91257 0.61023 0.0
C3946 C 0.27353 0.9331 0.63676 0.0
C3947 C 0.27046 0.94245 0.6506 0.0
C3948 C 0.26087 0.91589 0.63098 0.0
C3949 C 0.25475 0.93426 0.65889 0.0
C3950 C 0.24219 0.91711 0.65335 0.0
C3951 C 0.23222 0.89086 0.63324 0.0
C3952 C 0.23476 0.88179 0.61865 0.0
C3953 C 0.24505 0.90787 0.63931 0.0
C3954 C 0.25065 0.88978 0.61066 0.0
C3955 C 0.26361 0.90665 0.61681 0.0
H3956 H 0.06271 0.33638 0.69095 0.0
H3957 H 0.03956 0.28363 0.66685 0.0
H3958 H 0.06441 0.29202 0.64893 0.0
H3959 H 0.09214 0.31437 0.63938 0.0
H3960 H 0.11641 0.3667 0.66492 0.0
H3961 H 0.09158 0.35837 0.68296 0.0
C3962 C 0.0632 0.32662 0.68204 0.0
C3963 C 0.04917 0.3094 0.6802 0.0
C3964 C 0.07765 0.33147 0.67191 0.0
C3965 C 0.04999 0.29704 0.66831 0.0
C3966 C 0.06425 0.3018 0.65811 0.0
C3967 C 0.09223 0.32393 0.64913 0.0
C3968 C 0.1062 0.34117 0.65072 0.0
C3969 C 0.07808 0.31899 0.6597 0.0
C3970 C 0.10576 0.35341 0.66315 0.0
C3971 C 0.0916 0.34863 0.67359 0.0
H3972 H 0.27735 0.32668 0.64143 0.0
H3973 H 0.25995 0.33438 0.69314 0.0
H3974 H 0.24362 0.34582 0.67776 0.0
H3975 H 0.23332 0.35256 0.64944 0.0
H3976 H 0.24932 0.34323 0.59761 0.0
H3977 H 0.26703 0.3333 0.61319 0.0
C3978 C 0.26983 0.33066 0.64934 0.0
C3979 C 0.26987 0.32959 0.66844 0.0
C3980 C 0.26024 0.33696 0.64038 0.0
C3981 C 0.26034 0.33521 0.67847 0.0
C3982 C 0.25092 0.34168 0.66967 0.0
C3983 C 0.24091 0.34859 0.64163 0.0
C3984 C 0.2402 0.34874 0.62247 0.0
C3985 C 0.25073 0.34255 0.65063 0.0
C3986 C 0.24975 0.34323 0.6124 0.0
C3987 C 0.25982 0.33754 0.62128 0.0
H3988 H 0.65192 0.94518 0.62016 0.0
H3989 H 0.70382 0.95591 0.63258 0.0
H3990 H 0.69574 0.92687 0.61971 0.0
H3991 H 0.67394 0.89835 0.60549 0.0
H3992 H 0.62203 0.88737 0.5927 0.0
H3993 H 0.63002 0.91647 0.60559 0.0
C3994 C 0.66142 0.9411 0.62015 0.0
C3995 C 0.67846 0.95271 0.62727 0.0
C3996 C 0.65668 0.92434 0.61277 0.0
C3997 C 0.69068 0.94732 0.62696 0.0
C3998 C 0.68605 0.93069 0.6197 0.0
C3999 C 0.66441 0.90238 0.60528 0.0
C4000 C 0.64744 0.89073 0.59804 0.0
C4001 C 0.66911 0.91911 0.61257 0.0
C4002 C 0.63515 0.89604 0.59831 0.0
C4003 C 0.63973 0.9127 0.60559 0.0
H4004 H 0.03202 0.71994 0.65038 0.0
H4005 H 0.06179 0.74034 0.7023 0.0
H4006 H 0.08849 0.75399 0.68653 0.0
H4007 H 0.10322 0.76096 0.65776 0.0
H4008 H 0.07293 0.74077 0.60609 0.0
H4009 H 0.04652 0.72633 0.622 0.0
C4010 C 0.04433 0.72754 0.65827 0.0
C4011 C 0.04491 0.72932 0.67746 0.0
C4012 C 0.05952 0.73538 0.64915 0.0
C4013 C 0.06101 0.73878 0.6875 0.0
C4014 C 0.07626 0.74661 0.67849 0.0
C4015 C 0.09083 0.75323 0.65005 0.0
C4016 C 0.08998 0.75198 0.6308 0.0
C4017 C 0.07566 0.74507 0.6593 0.0
C4018 C 0.07386 0.74207 0.62092 0.0
C4019 C 0.05878 0.73379 0.62999 0.0
H4020 H 0.99119 0.61067 0.74256 0.0
H4021 H 0.93651 0.57623 0.74516 0.0
H4022 H 0.94188 0.555 0.75947 0.0
H4023 H 0.96218 0.54702 0.77266 0.0
H4024 H 0.01696 0.58243 0.77181 0.0
H4025 H 0.01147 0.60223 0.75484 0.0
C4026 C 0.98045 0.59838 0.74598 0.0
C4027 C 0.96349 0.59498 0.74283 0.0
C4028 C 0.98366 0.58642 0.75448 0.0
C4029 C 0.94969 0.57915 0.74759 0.0
C4030 C 0.95275 0.56702 0.75574 0.0
C4031 C 0.97293 0.55909 0.76883 0.0
C4032 C 0.98996 0.56324 0.77362 0.0
C4033 C 0.9697 0.57067 0.75954 0.0
C4034 C 0.00372 0.57877 0.76815 0.0
C4035 C 0.0006 0.5902 0.75857 0.0
H4036 H 0.38646 0.39996 0.75701 0.0
H4037 H 0.42457 0.3843 0.75504 0.0
H4038 H 0.44634 0.41231 0.77044 0.0
H4039 H 0.45451 0.4412 0.78412 0.0
H4040 H 0.41615 0.4565 0.78747 0.0
H4041 H 0.39454 0.42876 0.77153 0.0
C4042 C 0.39958 0.40278 0.75985 0.0
C4043 C 0.40398 0.39019 0.75486 0.0
C4044 C 0.41194 0.4188 0.7689 0.0
C4045 C 0.42092 0.39381 0.75885 0.0
C4046 C 0.43334 0.40981 0.7676 0.0
C4047 C 0.44136 0.43839 0.78165 0.0
C4048 C 0.43697 0.45092 0.78706 0.0
C4049 C 0.42897 0.42236 0.77273 0.0
C4050 C 0.41994 0.44718 0.7833 0.0
C4051 C 0.40755 0.43129 0.77426 0.0
H4052 H 0.6382 0.0368 0.7414 0.0
H4053 H 0.60755 0.02623 0.69056 0.0
H4054 H 0.58218 0.01904 0.70744 0.0
H4055 H 0.56881 0.01599 0.73676 0.0
H4056 H 0.59978 0.02664 0.7874 0.0
H4057 H 0.62503 0.03395 0.77046 0.0
C4058 C 0.62603 0.03317 0.73399 0.0
C4059 C 0.6248 0.03216 0.71475 0.0
C4060 C 0.61157 0.02912 0.74376 0.0
C4061 C 0.60882 0.027 0.70537 0.0
C4062 C 0.59433 0.02295 0.71501 0.0
C4063 C 0.58107 0.01981 0.74405 0.0
C4064 C 0.58243 0.02085 0.76331 0.0
C4065 C 0.59555 0.02394 0.73422 0.0
C4066 C 0.59844 0.02599 0.77259 0.0
C4067 C 0.61287 0.03008 0.76292 0.0
loop_
_geom_bond_atom_site_label_1
_geom_bond_atom_site_label_2
_geom_bond_distance
_geom_bond_site_symmetry_2
_ccdc_geom_bond_type
Li0 N17 1.990 . S
Li0 O60 1.955 . S
Li0 O61 1.970 1_655 S
Li0 O62 1.961 . S
Li1 N25 1.990 . S
Li1 O60 1.972 1_455 S
Li1 O61 1.956 . S
Li1 O63 1.961 . S
Li2 N47 2.039 . S
Li2 O60 1.918 . S
Li2 O62 1.986 . S
Li2 O63 1.906 1_655 S
Li3 N53 1.990 1_554 S
Li3 O61 1.961 . S
Li3 O62 1.970 1_455 S
Li3 O63 1.956 . S
C4 C6 1.348 1_655 S
C4 C7 1.356 . S
C4 O60 1.325 . S
N5 C8 1.314 . S
N5 C9 1.279 . S
C6 C4 1.348 1_455 S
C6 C8 1.353 1_455 S
C6 H64 0.929 . S
C7 C4 1.356 . S
C7 C9 1.358 . S
C7 H65 0.930 . S
C8 N5 1.314 . S
C8 C6 1.353 1_655 S
C8 H66 0.930 1_655 S
C9 N5 1.279 . S
C9 C7 1.358 . S
C9 H67 0.930 . S
C10 C13 1.348 . S
C10 C14 1.356 . S
C10 O61 1.325 1_556 S
C11 N12 1.279 . S
C11 C14 1.358 . S
C11 H68 0.930 . S
N12 C11 1.279 . S
N12 C15 1.314 . S
C13 C10 1.348 . S
C13 C15 1.353 . S
C13 H69 0.929 1_455 S
C14 C10 1.356 . S
C14 C11 1.358 . S
C14 H70 0.930 . S
C15 N12 1.314 . S
C15 C13 1.353 . S
C15 H71 0.930 . S
C16 N17 1.314 1_556 S
C16 C21 1.353 . S
C16 H22 0.930 . S
N17 Li0 1.990 . S
N17 C16 1.314 1_554 S
N17 C19 1.279 . S
C18 C19 1.358 . S
C18 C20 1.356 1_554 S
C18 H72 0.930 . S
C19 N17 1.279 . S
C19 C18 1.358 . S
C19 H23 0.930 . S
C20 C18 1.356 1_556 S
C20 C21 1.348 . S
C21 C16 1.353 . S
C21 C20 1.348 . S
C21 H73 0.929 . S
H22 C16 0.930 . S
H23 C19 0.930 . S
C24 N25 1.314 . S
C24 C26 1.353 . S
C24 H30 0.930 . S
N25 Li1 1.990 . S
N25 C24 1.314 . S
N25 C28 1.279 . S
C26 C24 1.353 . S
C26 C29 1.348 . S
C26 H74 0.929 . S
C27 C28 1.358 . S
C27 C29 1.356 . S
C27 H75 0.930 . S
C28 N25 1.279 . S
C28 C27 1.358 . S
C28 H31 0.930 . S
C29 C26 1.348 . S
C29 C27 1.356 . S
H30 C24 0.930 . S
H31 C28 0.930 . S
C32 C34 1.356 . S
C32 C35 1.356 . S
C32 O62 1.325 . S
N33 C36 1.314 . S
N33 C37 1.280 1_556 S
C34 C32 1.356 . S
C34 C36 1.350 1_554 S
C34 H76 0.925 1_554 S
C35 C32 1.356 . S
C35 C37 1.358 . S
C35 H77 0.930 . S
C36 N33 1.314 . S
C36 C34 1.350 1_556 S
C36 H78 0.930 . S
C37 N33 1.280 1_554 S
C37 C35 1.358 . S
C37 H79 0.930 . S
C38 C39 1.348 . S
C38 C40 1.356 . S
C38 O63 1.325 . S
C39 C38 1.348 . S
C39 C41 1.353 . S
C39 H80 0.929 . S
C40 C38 1.356 . S
C40 C42 1.358 . S
C40 H81 0.930 . S
C41 C39 1.353 . S
C41 N43 1.314 . S
C41 H82 0.930 . S
C42 C40 1.358 . S
C42 N43 1.279 . S
C42 H83 0.930 . S
N43 C41 1.314 . S
N43 C42 1.279 . S
C44 C46 1.353 . S
C44 N47 1.314 . S
C44 H50 0.930 1_655 S
C45 N47 1.279 . S
C45 C48 1.358 . S
C45 H51 0.930 . S
C46 C44 1.353 . S
C46 C49 1.348 . S
C46 H84 0.929 . S
N47 Li2 2.039 . S
N47 C44 1.314 . S
N47 C45 1.279 . S
C48 C45 1.358 . S
C48 C49 1.356 . S
C48 H85 0.930 . S
C49 C46 1.348 . S
C49 C48 1.356 . S
H50 C44 0.930 1_455 S
H51 C45 0.930 . S
C52 N53 1.314 . S
C52 C54 1.353 . S
C52 H58 0.930 . S
N53 Li3 1.990 1_556 S
N53 C52 1.314 . S
N53 C56 1.279 . S
C54 C52 1.353 . S
C54 C57 1.348 . S
C54 H86 0.929 . S
C55 C56 1.358 . S
C55 C57 1.356 . S
C55 H87 0.930 . S
C56 N53 1.279 . S
C56 C55 1.358 . S
C56 H59 0.899 1_556 S
C57 C54 1.348 . S
C57 C55 1.356 . S
H58 C52 0.930 . S
H59 C56 0.899 1_554 S
O60 Li0 1.955 . S
O60 Li1 1.972 1_655 S
O60 Li2 1.918 . S
O60 C4 1.325 . S
O61 Li0 1.970 1_455 S
O61 Li1 1.956 . S
O61 Li3 1.961 . S
O61 C10 1.325 1_554 S
O62 Li0 1.961 . S
O62 Li2 1.986 . S
O62 Li3 1.970 1_655 S
O62 C32 1.325 . S
O63 Li1 1.961 . S
O63 Li2 1.906 1_455 S
O63 Li3 1.956 . S
O63 C38 1.325 . S
H64 C6 0.929 . S
H65 C7 0.930 . S
H66 C8 0.930 1_455 S
H67 C9 0.930 . S
H68 C11 0.930 . S
H69 C13 0.929 1_655 S
H70 C14 0.930 . S
H71 C15 0.930 . S
H72 C18 0.930 . S
H73 C21 0.929 . S
H74 C26 0.929 . S
H75 C27 0.930 . S
H76 C34 0.925 1_556 S
H77 C35 0.930 . S
H78 C36 0.930 . S
H79 C37 0.930 . S
H80 C39 0.929 . S
H81 C40 0.930 . S
H82 C41 0.930 . S
H83 C42 0.930 . S
H84 C46 0.929 . S
H85 C48 0.930 . S
H86 C54 0.929 . S
H87 C55 0.930 . S
Li88 N105 1.990 . S
Li88 O148 1.956 . S
Li88 O149 1.970 . S
Li88 O150 1.961 . S
Li89 N113 1.990 . S
Li89 O148 1.970 . S
Li89 O149 1.956 . S
Li89 O151 1.961 . S
Li90 N135 1.990 . S
Li90 O148 1.961 . S
Li90 O150 1.956 . S
Li90 O151 1.970 . S
Li91 N141 1.990 . S
Li91 O149 1.961 . S
Li91 O150 1.970 . S
Li91 O151 1.956 . S
C92 C94 1.348 . S
C92 C95 1.356 . S
C92 O148 1.325 . S
N93 C96 1.314 . S
N93 C97 1.279 . S
C94 C92 1.348 . S
C94 C96 1.353 . S
C94 H152 0.929 . S
C95 C92 1.356 . S
C95 C97 1.358 . S
C95 H153 0.930 . S
C96 N93 1.314 . S
C96 C94 1.353 . S
C96 H154 0.930 . S
C97 N93 1.279 . S
C97 C95 1.358 . S
C97 H155 0.930 . S
C98 C101 1.348 . S
C98 C102 1.356 . S
C98 O149 1.325 . S
C99 N100 1.279 . S
C99 C102 1.358 . S
C99 H156 0.930 . S
N100 C99 1.279 . S
N100 C103 1.314 . S
C101 C98 1.348 . S
C101 C103 1.353 . S
C101 H157 0.929 . S
C102 C98 1.356 . S
C102 C99 1.358 . S
C102 H158 0.930 . S
C103 N100 1.314 . S
C103 C101 1.353 . S
C103 H159 0.930 . S
C104 N105 1.314 . S
C104 C109 1.353 . S
C104 H110 0.930 . S
N105 Li88 1.990 . S
N105 C104 1.314 . S
N105 C107 1.279 . S
C106 C107 1.358 . S
C106 C108 1.356 . S
C106 H160 0.930 . S
C107 N105 1.279 . S
C107 C106 1.358 . S
C107 H111 0.930 . S
C108 C106 1.356 . S
C108 C109 1.348 . S
C109 C104 1.353 . S
C109 C108 1.348 . S
C109 H161 0.929 . S
H110 C104 0.930 . S
H111 C107 0.930 . S
C112 N113 1.314 . S
C112 C114 1.353 . S
C112 H118 0.930 . S
N113 Li89 1.990 . S
N113 C112 1.314 . S
N113 C116 1.279 . S
C114 C112 1.353 . S
C114 C117 1.348 . S
C114 H162 0.929 . S
C115 C116 1.358 . S
C115 C117 1.356 . S
C115 H163 0.930 . S
C116 N113 1.279 . S
C116 C115 1.358 . S
C116 H119 0.930 . S
C117 C114 1.348 . S
C117 C115 1.356 . S
H118 C112 0.930 . S
H119 C116 0.930 . S
C120 C122 1.348 . S
C120 C123 1.356 . S
C120 O150 1.325 . S
N121 C124 1.314 . S
N121 C125 1.279 . S
C122 C120 1.348 . S
C122 C124 1.353 . S
C122 H164 0.929 . S
C123 C120 1.356 . S
C123 C125 1.358 . S
C123 H165 0.930 . S
C124 N121 1.314 . S
C124 C122 1.353 . S
C124 H166 0.930 . S
C125 N121 1.279 . S
C125 C123 1.358 . S
C125 H167 0.930 . S
C126 C127 1.348 . S
C126 C128 1.356 . S
C126 O151 1.325 . S
C127 C126 1.348 . S
C127 C129 1.353 . S
C127 H168 0.929 . S
C128 C126 1.356 . S
C128 C130 1.358 . S
C128 H169 0.930 . S
C129 C127 1.353 . S
C129 N131 1.314 . S
C129 H170 0.930 . S
C130 C128 1.358 . S
C130 N131 1.279 . S
C130 H171 0.930 . S
N131 C129 1.314 . S
N131 C130 1.279 . S
C132 C134 1.353 . S
C132 N135 1.314 . S
C132 H138 0.930 . S
C133 N135 1.279 . S
C133 C136 1.358 . S
C133 H139 0.930 . S
C134 C132 1.353 . S
C134 C137 1.348 . S
C134 H172 0.929 . S
N135 Li90 1.990 . S
N135 C132 1.314 . S
N135 C133 1.279 . S
C136 C133 1.358 . S
C136 C137 1.356 . S
C136 H173 0.930 . S
C137 C134 1.348 . S
C137 C136 1.356 . S
H138 C132 0.930 . S
H139 C133 0.930 . S
C140 N141 1.314 . S
C140 C142 1.353 1_554 S
C140 H146 0.930 . S
N141 Li91 1.990 . S
N141 C140 1.314 . S
N141 C144 1.279 . S
C142 C140 1.353 1_556 S
C142 C145 1.348 . S
C142 H174 0.929 . S
C143 C144 1.358 . S
C143 C145 1.356 1_554 S
C143 H175 0.930 . S
C144 N141 1.279 . S
C144 C143 1.358 . S
C144 H147 0.930 . S
C145 C142 1.348 . S
C145 C143 1.356 1_556 S
H146 C140 0.930 . S
H147 C144 0.930 . S
O148 Li88 1.956 . S
O148 Li89 1.970 . S
O148 Li90 1.961 . S
O148 C92 1.325 . S
O149 Li88 1.970 . S
O149 Li89 1.956 . S
O149 Li91 1.961 . S
O149 C98 1.325 . S
O150 Li88 1.961 . S
O150 Li90 1.956 . S
O150 Li91 1.970 . S
O150 C120 1.325 . S
O151 Li89 1.961 . S
O151 Li90 1.970 . S
O151 Li91 1.956 . S
O151 C126 1.325 . S
H152 C94 0.929 . S
H153 C95 0.930 . S
H154 C96 0.930 . S
H155 C97 0.930 . S
H156 C99 0.930 . S
H157 C101 0.929 . S
H158 C102 0.930 . S
H159 C103 0.930 . S
H160 C106 0.930 . S
H161 C109 0.929 . S
H162 C114 0.929 . S
H163 C115 0.930 . S
H164 C122 0.929 . S
H165 C123 0.930 . S
H166 C124 0.930 . S
H167 C125 0.930 . S
H168 C127 0.929 . S
H169 C128 0.930 . S
H170 C129 0.930 . S
H171 C130 0.930 . S
H172 C134 0.929 . S
H173 C136 0.930 . S
H174 C142 0.929 . S
H175 C143 0.930 . S
Li176 N193 1.990 1_554 S
Li176 O236 1.956 . S
Li176 O237 1.970 1_565 S
Li176 O238 1.961 . S
Li177 N201 1.990 . S
Li177 O236 1.970 1_545 S
Li177 O237 1.956 . S
Li177 O239 1.961 . S
Li178 N223 1.990 . S
Li178 O236 1.961 . S
Li178 O238 1.956 . S
Li178 O239 1.970 1_565 S
Li179 N229 1.990 . S
Li179 O237 1.961 . S
Li179 O238 1.970 1_545 S
Li179 O239 1.956 . S
C180 C182 1.348 . S
C180 C183 1.356 . S
C180 O236 1.325 . S
N181 C184 1.314 . S
N181 C185 1.279 . S
C182 C180 1.348 . S
C182 C184 1.353 . S
C182 H240 0.929 . S
C183 C180 1.356 . S
C183 C185 1.358 . S
C183 H241 0.930 . S
C184 N181 1.314 . S
C184 C182 1.353 . S
C184 H242 0.930 . S
C185 N181 1.279 . S
C185 C183 1.358 . S
C185 H243 0.930 . S
C186 C189 1.348 . S
C186 C190 1.356 . S
C186 O237 1.325 . S
C187 N188 1.279 . S
C187 C190 1.358 . S
C187 H244 0.930 . S
N188 C187 1.279 . S
N188 C191 1.313 1_554 S
C189 C186 1.348 . S
C189 C191 1.351 1_554 S
C189 H245 0.917 1_554 S
C190 C186 1.356 . S
C190 C187 1.358 . S
C190 H246 0.930 . S
C191 N188 1.313 1_556 S
C191 C189 1.351 1_556 S
C191 H247 0.933 . S
C192 N193 1.314 . S
C192 C197 1.353 . S
C192 H198 0.930 . S
N193 Li176 1.990 1_556 S
N193 C192 1.314 . S
N193 C195 1.279 . S
C194 C195 1.358 . S
C194 C196 1.356 . S
C194 H248 0.930 . S
C195 N193 1.279 . S
C195 C194 1.358 . S
C195 H199 0.930 . S
C196 C194 1.356 . S
C196 C197 1.348 . S
C197 C192 1.353 . S
C197 C196 1.348 . S
C197 H249 0.929 . S
H198 C192 0.930 . S
H199 C195 0.930 . S
C200 N201 1.314 . S
C200 C202 1.353 . S
C200 H206 0.930 . S
N201 Li177 1.990 . S
N201 C200 1.314 . S
N201 C204 1.279 . S
C202 C200 1.353 . S
C202 C205 1.348 . S
C202 H250 0.929 . S
C203 C204 1.358 . S
C203 C205 1.356 . S
C203 H251 0.930 . S
C204 N201 1.279 . S
C204 C203 1.358 . S
C204 H207 0.930 . S
C205 C202 1.348 . S
C205 C203 1.356 . S
H206 C200 0.930 . S
H207 C204 0.930 . S
C208 C210 1.348 . S
C208 C211 1.356 . S
C208 O238 1.325 1_556 S
N209 C212 1.314 . S
N209 C213 1.279 . S
C210 C208 1.348 . S
C210 C212 1.353 . S
C210 H252 0.929 1_565 S
C211 C208 1.356 . S
C211 C213 1.358 . S
C211 H253 0.930 . S
C212 N209 1.314 . S
C212 C210 1.353 . S
C212 H254 0.930 . S
C213 N209 1.279 . S
C213 C211 1.358 . S
C213 H255 0.930 . S
C214 C215 1.348 . S
C214 C216 1.356 . S
C214 O239 1.325 . S
C215 C214 1.348 . S
C215 C217 1.353 . S
C215 H256 0.929 1_545 S
C216 C214 1.356 . S
C216 C218 1.358 . S
C216 H257 0.930 . S
C217 C215 1.353 . S
C217 N219 1.314 . S
C217 H258 0.930 . S
C218 C216 1.358 . S
C218 N219 1.279 . S
C218 H259 0.930 . S
N219 C217 1.314 . S
N219 C218 1.279 . S
C220 C222 1.353 . S
C220 N223 1.314 . S
C220 H226 0.930 . S
C221 N223 1.279 . S
C221 C224 1.358 . S
C221 H227 0.930 . S
C222 C220 1.353 . S
C222 C225 1.348 . S
C222 H260 0.929 . S
N223 Li178 1.990 . S
N223 C220 1.314 . S
N223 C221 1.279 . S
C224 C221 1.358 . S
C224 C225 1.356 . S
C224 H261 0.930 . S
C225 C222 1.348 . S
C225 C224 1.356 . S
H226 C220 0.930 . S
H227 C221 0.930 . S
C228 N229 1.314 1_556 S
C228 C230 1.353 . S
C228 H234 0.930 . S
N229 Li179 1.990 . S
N229 C228 1.314 1_554 S
N229 C232 1.279 . S
C230 C228 1.353 . S
C230 C233 1.348 . S
C230 H262 0.929 . S
C231 C232 1.358 . S
C231 C233 1.356 1_554 S
C231 H263 0.930 . S
C232 N229 1.279 . S
C232 C231 1.358 . S
C232 H235 0.930 . S
C233 C230 1.348 . S
C233 C231 1.356 1_556 S
H234 C228 0.930 . S
H235 C232 0.930 . S
O236 Li176 1.956 . S
O236 Li177 1.970 1_565 S
O236 Li178 1.961 . S
O236 C180 1.325 . S
O237 Li176 1.970 1_545 S
O237 Li177 1.956 . S
O237 Li179 1.961 . S
O237 C186 1.325 . S
O238 Li176 1.961 . S
O238 Li178 1.956 . S
O238 Li179 1.970 1_565 S
O238 C208 1.325 1_554 S
O239 Li177 1.961 . S
O239 Li178 1.970 1_545 S
O239 Li179 1.956 . S
O239 C214 1.325 . S
H240 C182 0.929 . S
H241 C183 0.930 . S
H242 C184 0.930 . S
H243 C185 0.930 . S
H244 C187 0.930 . S
H245 C189 0.917 1_556 S
H246 C190 0.930 . S
H247 C191 0.933 . S
H248 C194 0.930 . S
H249 C197 0.929 . S
H250 C202 0.929 . S
H251 C203 0.930 . S
H252 C210 0.929 1_545 S
H253 C211 0.930 . S
H254 C212 0.930 . S
H255 C213 0.930 . S
H256 C215 0.929 1_565 S
H257 C216 0.930 . S
H258 C217 0.930 . S
H259 C218 0.930 . S
H260 C222 0.929 . S
H261 C224 0.930 . S
H262 C230 0.929 . S
H263 C231 0.930 . S
Li264 N281 1.990 . S
Li264 O324 1.956 . S
Li264 O325 1.970 1_455 S
Li264 O326 1.961 . S
Li265 N289 1.990 . S
Li265 O324 1.970 1_655 S
Li265 O325 1.956 . S
Li265 O327 1.961 . S
Li266 N311 1.990 . S
Li266 O324 1.961 . S
Li266 O326 1.956 . S
Li266 O327 1.970 1_455 S
Li267 N317 1.990 . S
Li267 O325 1.961 . S
Li267 O326 1.970 1_655 S
Li267 O327 1.956 . S
C268 C270 1.348 . S
C268 C271 1.356 . S
C268 O324 1.325 . S
N269 C272 1.314 . S
N269 C273 1.279 . S
C270 C268 1.348 . S
C270 C272 1.353 . S
C270 H328 0.929 . S
C271 C268 1.356 . S
C271 C273 1.358 . S
C271 H329 0.930 . S
C272 N269 1.314 . S
C272 C270 1.353 . S
C272 H330 0.930 . S
C273 N269 1.279 . S
C273 C271 1.358 . S
C273 H331 0.930 . S
C274 C277 1.348 1_655 S
C274 C278 1.356 . S
C274 O325 1.325 . S
C275 N276 1.279 . S
C275 C278 1.358 . S
C275 H332 0.930 . S
N276 C275 1.279 . S
N276 C279 1.314 . S
C277 C274 1.348 1_455 S
C277 C279 1.353 1_455 S
C277 H333 0.929 . S
C278 C274 1.356 . S
C278 C275 1.358 . S
C278 H334 0.930 . S
C279 N276 1.314 . S
C279 C277 1.353 1_655 S
C279 H335 0.930 1_655 S
C280 N281 1.314 . S
C280 C285 1.353 . S
C280 H286 0.930 . S
N281 Li264 1.990 . S
N281 C280 1.314 . S
N281 C283 1.279 . S
C282 C283 1.358 . S
C282 C284 1.356 . S
C282 H336 0.930 . S
C283 N281 1.279 . S
C283 C282 1.358 . S
C283 H287 0.930 . S
C284 C282 1.356 . S
C284 C285 1.348 . S
C285 C280 1.353 . S
C285 C284 1.348 . S
C285 H337 0.929 . S
H286 C280 0.930 . S
H287 C283 0.930 . S
C288 N289 1.314 . S
C288 C290 1.353 . S
C288 H294 0.930 . S
N289 Li265 1.990 . S
N289 C288 1.314 . S
N289 C292 1.279 . S
C290 C288 1.353 . S
C290 C293 1.348 . S
C290 H338 0.929 . S
C291 C292 1.358 . S
C291 C293 1.356 . S
C291 H339 0.930 . S
C292 N289 1.279 . S
C292 C291 1.358 . S
C292 H295 0.930 . S
C293 C290 1.348 . S
C293 C291 1.356 . S
H294 C288 0.930 . S
H295 C292 0.930 . S
C296 C298 1.310 1_454 S
C296 C299 1.356 . S
C296 O326 1.325 . S
N297 C300 1.314 . S
N297 C301 1.279 . S
C298 C296 1.310 1_656 S
C298 C300 1.358 1_655 S
C298 H340 0.957 1_556 S
C299 C296 1.356 . S
C299 C301 1.358 1_554 S
C299 H341 0.930 . S
C300 N297 1.314 . S
C300 C298 1.358 1_455 S
C300 H342 0.930 1_455 S
C301 N297 1.279 . S
C301 C299 1.358 1_556 S
C301 H343 0.930 . S
C302 C303 1.348 . S
C302 C304 1.356 . S
C302 O327 1.325 . S
C303 C302 1.348 . S
C303 C305 1.353 . S
C303 H344 0.929 . S
C304 C302 1.356 . S
C304 C306 1.358 . S
C304 H345 0.930 . S
C305 C303 1.353 . S
C305 N307 1.314 . S
C305 H346 0.930 1_554 S
C306 C304 1.358 . S
C306 N307 1.279 . S
C306 H347 0.930 . S
N307 C305 1.314 . S
N307 C306 1.279 . S
C308 C310 1.353 1_554 S
C308 N311 1.314 . S
C308 H314 0.930 . S
C309 N311 1.279 1_556 S
C309 C312 1.358 . S
C309 H315 0.930 . S
C310 C308 1.353 1_556 S
C310 C313 1.348 . S
C310 H348 0.929 . S
N311 Li266 1.990 . S
N311 C308 1.314 . S
N311 C309 1.279 1_554 S
C312 C309 1.358 . S
C312 C313 1.356 . S
C312 H349 0.930 . S
C313 C310 1.348 . S
C313 C312 1.356 . S
H314 C308 0.930 . S
H315 C309 0.930 . S
C316 N317 1.314 . S
C316 C318 1.353 . S
C316 H322 0.930 . S
N317 Li267 1.990 . S
N317 C316 1.314 . S
N317 C320 1.279 . S
C318 C316 1.353 . S
C318 C321 1.348 . S
C318 H350 0.929 . S
C319 C320 1.358 . S
C319 C321 1.356 . S
C319 H351 0.930 . S
C320 N317 1.279 . S
C320 C319 1.358 . S
C320 H323 0.930 . S
C321 C318 1.348 . S
C321 C319 1.356 . S
H322 C316 0.930 . S
H323 C320 0.930 . S
O324 Li264 1.956 . S
O324 Li265 1.970 1_455 S
O324 Li266 1.961 . S
O324 C268 1.325 . S
O325 Li264 1.970 1_655 S
O325 Li265 1.956 . S
O325 Li267 1.961 . S
O325 C274 1.325 . S
O326 Li264 1.961 . S
O326 Li266 1.956 . S
O326 Li267 1.970 1_455 S
O326 C296 1.325 . S
O327 Li265 1.961 . S
O327 Li266 1.970 1_655 S
O327 Li267 1.956 . S
O327 C302 1.325 . S
H328 C270 0.929 . S
H329 C271 0.930 . S
H330 C272 0.930 . S
H331 C273 0.930 . S
H332 C275 0.930 . S
H333 C277 0.929 . S
H334 C278 0.930 . S
H335 C279 0.930 1_455 S
H336 C282 0.930 . S
H337 C285 0.929 . S
H338 C290 0.929 . S
H339 C291 0.930 . S
H340 C298 0.957 1_554 S
H341 C299 0.930 . S
H342 C300 0.930 1_655 S
H343 C301 0.930 . S
H344 C303 0.929 . S
H345 C304 0.930 . S
H346 C305 0.930 1_556 S
H347 C306 0.930 . S
H348 C310 0.929 . S
H349 C312 0.930 . S
H350 C318 0.929 . S
H351 C319 0.930 . S
Li352 N369 1.990 . S
Li352 O412 1.956 . S
Li352 O413 1.970 . S
Li352 O414 1.961 1_554 S
Li353 N377 1.990 . S
Li353 O412 1.970 . S
Li353 O413 1.956 . S
Li353 O415 1.961 1_554 S
Li354 N399 1.990 . S
Li354 O412 1.961 1_556 S
Li354 O414 1.956 . S
Li354 O415 1.970 . S
Li355 N405 1.990 . S
Li355 O413 1.961 1_556 S
Li355 O414 1.970 . S
Li355 O415 1.956 . S
C356 C358 1.348 . S
C356 C359 1.356 . S
C356 O412 1.325 . S
N357 C360 1.314 . S
N357 C361 1.279 . S
C358 C356 1.348 . S
C358 C360 1.353 . S
C358 H416 0.929 . S
C359 C356 1.356 . S
C359 C361 1.358 . S
C359 H417 0.930 . S
C360 N357 1.314 . S
C360 C358 1.353 . S
C360 H418 0.930 . S
C361 N357 1.279 . S
C361 C359 1.358 . S
C361 H419 0.930 . S
C362 C365 1.348 . S
C362 C366 1.356 . S
C362 O413 1.325 . S
C363 N364 1.279 . S
C363 C366 1.358 . S
C363 H420 0.930 . S
N364 C363 1.279 . S
N364 C367 1.314 . S
C365 C362 1.348 . S
C365 C367 1.353 . S
C365 H421 0.929 . S
C366 C362 1.356 . S
C366 C363 1.358 . S
C366 H422 0.930 . S
C367 N364 1.314 . S
C367 C365 1.353 . S
C367 H423 0.930 . S
C368 N369 1.314 . S
C368 C373 1.353 . S
C368 H374 0.930 . S
N369 Li352 1.990 . S
N369 C368 1.314 . S
N369 C371 1.279 . S
C370 C371 1.358 . S
C370 C372 1.356 . S
C370 H424 0.930 . S
C371 N369 1.279 . S
C371 C370 1.358 . S
C371 H375 0.930 . S
C372 C370 1.356 . S
C372 C373 1.348 . S
C373 C368 1.353 . S
C373 C372 1.348 . S
C373 H425 0.929 . S
H374 C368 0.930 . S
H375 C371 0.930 . S
C376 N377 1.314 . S
C376 C378 1.353 . S
C376 H382 0.930 . S
N377 Li353 1.990 . S
N377 C376 1.314 . S
N377 C380 1.279 . S
C378 C376 1.353 . S
C378 C381 1.348 . S
C378 H426 0.929 . S
C379 C380 1.358 . S
C379 C381 1.356 . S
C379 H427 0.930 . S
C380 N377 1.279 . S
C380 C379 1.358 . S
C380 H383 0.930 . S
C381 C378 1.348 . S
C381 C379 1.356 . S
H382 C376 0.930 . S
H383 C380 0.930 . S
C384 C386 1.348 . S
C384 C387 1.356 . S
C384 O414 1.325 . S
N385 C388 1.314 . S
N385 C389 1.279 . S
C386 C384 1.348 . S
C386 C388 1.353 . S
C386 H428 0.929 . S
C387 C384 1.356 . S
C387 C389 1.358 . S
C387 H429 0.930 . S
C388 N385 1.314 . S
C388 C386 1.353 . S
C388 H430 0.930 . S
C389 N385 1.279 . S
C389 C387 1.358 . S
C389 H431 0.930 . S
C390 C391 1.348 . S
C390 C392 1.356 1_556 S
C390 O415 1.325 . S
C391 C390 1.348 . S
C391 C393 1.353 . S
C391 H432 0.929 . S
C392 C390 1.356 1_554 S
C392 C394 1.358 1_554 S
C392 H433 0.930 . S
C393 C391 1.353 . S
C393 N395 1.314 . S
C393 H434 0.930 . S
C394 C392 1.358 1_556 S
C394 N395 1.279 . S
C394 H435 0.930 1_556 S
N395 C393 1.314 . S
N395 C394 1.279 . S
C396 C398 1.353 . S
C396 N399 1.314 . S
C396 H402 0.930 . S
C397 N399 1.279 . S
C397 C400 1.358 . S
C397 H403 0.930 . S
C398 C396 1.353 . S
C398 C401 1.348 . S
C398 H436 0.929 . S
N399 Li354 1.990 . S
N399 C396 1.314 . S
N399 C397 1.279 . S
C400 C397 1.358 . S
C400 C401 1.356 . S
C400 H437 0.930 . S
C401 C398 1.348 . S
C401 C400 1.356 . S
H402 C396 0.930 . S
H403 C397 0.930 . S
C404 N405 1.314 . S
C404 C406 1.353 . S
C404 H410 0.930 . S
N405 Li355 1.990 . S
N405 C404 1.314 . S
N405 C408 1.279 . S
C406 C404 1.353 . S
C406 C409 1.348 . S
C406 H438 0.929 . S
C407 C408 1.358 . S
C407 C409 1.356 . S
C407 H439 0.930 . S
C408 N405 1.279 . S
C408 C407 1.358 . S
C408 H411 0.930 . S
C409 C406 1.348 . S
C409 C407 1.356 . S
H410 C404 0.930 . S
H411 C408 0.930 . S
O412 Li352 1.956 . S
O412 Li353 1.970 . S
O412 Li354 1.961 1_554 S
O412 C356 1.325 . S
O413 Li352 1.970 . S
O413 Li353 1.956 . S
O413 Li355 1.961 1_554 S
O413 C362 1.325 . S
O414 Li352 1.961 1_556 S
O414 Li354 1.956 . S
O414 Li355 1.970 . S
O414 C384 1.325 . S
O415 Li353 1.961 1_556 S
O415 Li354 1.970 . S
O415 Li355 1.956 . S
O415 C390 1.325 . S
H416 C358 0.929 . S
H417 C359 0.930 . S
H418 C360 0.930 . S
H419 C361 0.930 . S
H420 C363 0.930 . S
H421 C365 0.929 . S
H422 C366 0.930 . S
H423 C367 0.930 . S
H424 C370 0.930 . S
H425 C373 0.929 . S
H426 C378 0.929 . S
H427 C379 0.930 . S
H428 C386 0.929 . S
H429 C387 0.930 . S
H430 C388 0.930 . S
H431 C389 0.930 . S
H432 C391 0.929 . S
H433 C392 0.930 . S
H434 C393 0.930 . S
H435 C394 0.930 1_554 S
H436 C398 0.929 . S
H437 C400 0.930 . S
H438 C406 0.929 . S
H439 C407 0.930 . S
Li440 N457 1.990 . S
Li440 O500 1.956 . S
Li440 O501 1.970 1_565 S
Li440 O502 1.961 . S
Li441 N465 1.990 . S
Li441 O500 1.970 1_545 S
Li441 O501 1.956 . S
Li441 O503 1.961 . S
Li442 N487 1.990 . S
Li442 O500 1.961 . S
Li442 O502 1.956 . S
Li442 O503 1.970 1_565 S
Li443 N493 1.990 . S
Li443 O501 1.961 . S
Li443 O502 1.970 1_545 S
Li443 O503 1.956 . S
C444 C446 1.348 . S
C444 C447 1.356 . S
C444 O500 1.325 . S
N445 C448 1.314 . S
N445 C449 1.279 . S
C446 C444 1.348 . S
C446 C448 1.353 . S
C446 H504 0.929 . S
C447 C444 1.356 . S
C447 C449 1.358 . S
C447 H505 0.930 . S
C448 N445 1.314 . S
C448 C446 1.353 . S
C448 H506 0.930 . S
C449 N445 1.279 . S
C449 C447 1.358 . S
C449 H507 0.930 . S
C450 C453 1.348 . S
C450 C454 1.356 . S
C450 O501 1.325 . S
C451 N452 1.279 . S
C451 C454 1.358 . S
C451 H508 0.930 . S
N452 C451 1.279 . S
N452 C455 1.314 . S
C453 C450 1.348 . S
C453 C455 1.353 . S
C453 H509 0.929 1_545 S
C454 C450 1.356 . S
C454 C451 1.358 . S
C454 H510 0.930 . S
C455 N452 1.314 . S
C455 C453 1.353 . S
C455 H511 0.930 . S
C456 N457 1.314 . S
C456 C461 1.353 . S
C456 H462 0.930 . S
N457 Li440 1.990 . S
N457 C456 1.314 . S
N457 C459 1.279 . S
C458 C459 1.358 . S
C458 C460 1.356 . S
C458 H512 0.930 . S
C459 N457 1.279 . S
C459 C458 1.358 . S
C459 H463 0.930 . S
C460 C458 1.356 . S
C460 C461 1.348 . S
C461 C456 1.353 . S
C461 C460 1.348 . S
C461 H513 0.929 . S
H462 C456 0.930 . S
H463 C459 0.930 . S
C464 N465 1.314 . S
C464 C466 1.353 . S
C464 H470 0.930 . S
N465 Li441 1.990 . S
N465 C464 1.314 . S
N465 C468 1.279 . S
C466 C464 1.353 . S
C466 C469 1.348 . S
C466 H514 0.929 . S
C467 C468 1.358 . S
C467 C469 1.356 . S
C467 H515 0.930 . S
C468 N465 1.279 . S
C468 C467 1.358 . S
C468 H471 0.930 . S
C469 C466 1.348 . S
C469 C467 1.356 . S
H470 C464 0.930 . S
H471 C468 0.930 . S
C472 C474 1.348 1_565 S
C472 C475 1.356 . S
C472 O502 1.325 . S
N473 C476 1.314 . S
N473 C477 1.279 . S
C474 C472 1.348 1_545 S
C474 C476 1.353 1_544 S
C474 H516 0.929 . S
C475 C472 1.356 . S
C475 C477 1.358 1_554 S
C475 H517 0.930 . S
C476 N473 1.314 . S
C476 C474 1.353 1_566 S
C476 H518 0.930 1_565 S
C477 N473 1.279 . S
C477 C475 1.358 1_556 S
C477 H519 0.930 . S
C478 C479 1.348 . S
C478 C480 1.356 . S
C478 O503 1.325 . S
C479 C478 1.348 . S
C479 C481 1.353 . S
C479 H520 0.929 . S
C480 C478 1.356 . S
C480 C482 1.358 . S
C480 H521 0.930 . S
C481 C479 1.353 . S
C481 N483 1.314 . S
C481 H522 0.945 . S
C482 C480 1.358 . S
C482 N483 1.279 . S
C482 H523 0.930 . S
N483 C481 1.314 . S
N483 C482 1.279 . S
C484 C486 1.353 1_554 S
C484 N487 1.314 . S
C484 H490 0.930 . S
C485 N487 1.279 1_556 S
C485 C488 1.358 . S
C485 H491 0.930 . S
C486 C484 1.353 1_556 S
C486 C489 1.348 . S
C486 H524 0.929 . S
N487 Li442 1.990 . S
N487 C484 1.314 . S
N487 C485 1.279 1_554 S
C488 C485 1.358 . S
C488 C489 1.356 . S
C488 H525 0.930 . S
C489 C486 1.348 . S
C489 C488 1.356 . S
H490 C484 0.930 . S
H491 C485 0.930 . S
C492 N493 1.314 . S
C492 C494 1.353 . S
C492 H498 0.930 . S
N493 Li443 1.990 . S
N493 C492 1.314 . S
N493 C496 1.279 . S
C494 C492 1.353 . S
C494 C497 1.348 . S
C494 H526 0.929 . S
C495 C496 1.358 . S
C495 C497 1.356 . S
C495 H527 0.930 . S
C496 N493 1.279 . S
C496 C495 1.358 . S
C496 H499 0.930 . S
C497 C494 1.348 . S
C497 C495 1.356 . S
H498 C492 0.930 . S
H499 C496 0.930 . S
O500 Li440 1.956 . S
O500 Li441 1.970 1_565 S
O500 Li442 1.961 . S
O500 C444 1.325 . S
O501 Li440 1.970 1_545 S
O501 Li441 1.956 . S
O501 Li443 1.961 . S
O501 C450 1.325 . S
O502 Li440 1.961 . S
O502 Li442 1.956 . S
O502 Li443 1.970 1_565 S
O502 C472 1.325 . S
O503 Li441 1.961 . S
O503 Li442 1.970 1_545 S
O503 Li443 1.956 . S
O503 C478 1.325 . S
H504 C446 0.929 . S
H505 C447 0.930 . S
H506 C448 0.930 . S
H507 C449 0.930 . S
H508 C451 0.930 . S
H509 C453 0.929 1_565 S
H510 C454 0.930 . S
H511 C455 0.930 . S
H512 C458 0.930 . S
H513 C461 0.929 . S
H514 C466 0.929 . S
H515 C467 0.930 . S
H516 C474 0.929 . S
H517 C475 0.930 . S
H518 C476 0.930 1_545 S
H519 C477 0.930 . S
H520 C479 0.929 . S
H521 C480 0.930 . S
H522 C481 0.945 . S
H523 C482 0.930 . S
H524 C486 0.929 . S
H525 C488 0.930 . S
H526 C494 0.929 . S
H527 C495 0.930 . S
Li528 N545 1.990 . S
Li528 O588 1.956 . S
Li528 O589 1.970 . S
Li528 O590 1.961 . S
Li529 N553 1.990 . S
Li529 O588 1.970 . S
Li529 O589 1.956 . S
Li529 O591 1.961 . S
Li530 N575 1.990 . S
Li530 O588 1.961 . S
Li530 O590 1.956 . S
Li530 O591 1.970 . S
Li531 N581 1.990 . S
Li531 O589 1.961 . S
Li531 O590 1.970 . S
Li531 O591 1.956 . S
C532 C534 1.348 . S
C532 C535 1.356 . S
C532 O588 1.325 . S
N533 C536 1.314 . S
N533 C537 1.279 . S
C534 C532 1.348 . S
C534 C536 1.353 . S
C534 H592 0.929 . S
C535 C532 1.356 . S
C535 C537 1.358 . S
C535 H593 0.930 . S
C536 N533 1.314 . S
C536 C534 1.353 . S
C536 H594 0.930 . S
C537 N533 1.279 . S
C537 C535 1.358 . S
C537 H595 0.930 . S
C538 C541 1.348 . S
C538 C542 1.356 . S
C538 O589 1.325 . S
C539 N540 1.279 . S
C539 C542 1.358 . S
C539 H596 0.930 . S
N540 C539 1.279 . S
N540 C543 1.314 . S
C541 C538 1.348 . S
C541 C543 1.353 . S
C541 H597 0.929 . S
C542 C538 1.356 . S
C542 C539 1.358 . S
C542 H598 0.930 . S
C543 N540 1.314 . S
C543 C541 1.353 . S
C543 H599 0.930 . S
C544 N545 1.314 . S
C544 C549 1.353 . S
C544 H550 0.930 . S
N545 Li528 1.990 . S
N545 C544 1.314 . S
N545 C547 1.279 . S
C546 C547 1.358 . S
C546 C548 1.356 . S
C546 H600 0.930 . S
C547 N545 1.279 . S
C547 C546 1.358 . S
C547 H551 0.930 . S
C548 C546 1.356 . S
C548 C549 1.348 . S
C549 C544 1.353 . S
C549 C548 1.348 . S
C549 H601 0.929 . S
H550 C544 0.930 . S
H551 C547 0.930 . S
C552 N553 1.314 . S
C552 C554 1.353 . S
C552 H558 0.930 . S
N553 Li529 1.990 . S
N553 C552 1.314 . S
N553 C556 1.279 . S
C554 C552 1.353 . S
C554 C557 1.348 . S
C554 H602 0.929 . S
C555 C556 1.358 . S
C555 C557 1.356 . S
C555 H603 0.930 . S
C556 N553 1.279 . S
C556 C555 1.358 . S
C556 H559 0.930 . S
C557 C554 1.348 . S
C557 C555 1.356 . S
H558 C552 0.930 . S
H559 C556 0.930 . S
C560 C562 1.348 . S
C560 C563 1.356 . S
C560 O590 1.325 . S
N561 C564 1.314 . S
N561 C565 1.279 . S
C562 C560 1.348 . S
C562 C564 1.353 . S
C562 H604 0.929 . S
C563 C560 1.356 . S
C563 C565 1.358 . S
C563 H605 0.930 . S
C564 N561 1.314 . S
C564 C562 1.353 . S
C564 H606 0.930 . S
C565 N561 1.279 . S
C565 C563 1.358 . S
C565 H607 0.930 . S
C566 C567 1.348 . S
C566 C568 1.356 . S
C566 O591 1.325 . S
C567 C566 1.348 . S
C567 C569 1.353 . S
C567 H608 0.929 . S
C568 C566 1.356 . S
C568 C570 1.358 . S
C568 H609 0.930 . S
C569 C567 1.353 . S
C569 N571 1.314 . S
C569 H610 0.930 . S
C570 C568 1.358 . S
C570 N571 1.279 . S
C570 H611 0.930 . S
N571 C569 1.314 . S
N571 C570 1.279 . S
C572 C574 1.353 . S
C572 N575 1.314 . S
C572 H578 0.930 . S
C573 N575 1.279 . S
C573 C576 1.358 . S
C573 H579 0.930 . S
C574 C572 1.353 . S
C574 C577 1.348 . S
C574 H612 0.929 . S
N575 Li530 1.990 . S
N575 C572 1.314 . S
N575 C573 1.279 . S
C576 C573 1.358 . S
C576 C577 1.356 . S
C576 H613 0.930 . S
C577 C574 1.348 . S
C577 C576 1.356 . S
H578 C572 0.930 . S
H579 C573 0.930 . S
C580 N581 1.314 . S
C580 C582 1.353 . S
C580 H586 0.930 . S
N581 Li531 1.990 . S
N581 C580 1.314 . S
N581 C584 1.279 . S
C582 C580 1.353 . S
C582 C585 1.348 . S
C582 H614 0.929 . S
C583 C584 1.358 . S
C583 C585 1.356 . S
C583 H615 0.930 . S
C584 N581 1.279 . S
C584 C583 1.358 . S
C584 H587 0.930 . S
C585 C582 1.348 . S
C585 C583 1.356 . S
H586 C580 0.930 . S
H587 C584 0.930 . S
O588 Li528 1.956 . S
O588 Li529 1.970 . S
O588 Li530 1.961 . S
O588 C532 1.325 . S
O589 Li528 1.970 . S
O589 Li529 1.956 . S
O589 Li531 1.961 . S
O589 C538 1.325 . S
O590 Li528 1.961 . S
O590 Li530 1.956 . S
O590 Li531 1.970 . S
O590 C560 1.325 . S
O591 Li529 1.961 . S
O591 Li530 1.970 . S
O591 Li531 1.956 . S
O591 C566 1.325 . S
H592 C534 0.929 . S
H593 C535 0.930 . S
H594 C536 0.930 . S
H595 C537 0.930 . S
H596 C539 0.930 . S
H597 C541 0.929 . S
H598 C542 0.930 . S
H599 C543 0.930 . S
H600 C546 0.930 . S
H601 C549 0.929 . S
H602 C554 0.929 . S
H603 C555 0.930 . S
H604 C562 0.929 . S
H605 C563 0.930 . S
H606 C564 0.930 . S
H607 C565 0.930 . S
H608 C567 0.929 . S
H609 C568 0.930 . S
H610 C569 0.930 . S
H611 C570 0.930 . S
H612 C574 0.929 . S
H613 C576 0.930 . S
H614 C582 0.929 . S
H615 C583 0.930 . S
Li616 N633 1.990 . S
Li616 O676 1.956 . S
Li616 O677 1.970 . S
Li616 O678 1.961 . S
Li617 N641 1.990 . S
Li617 O676 1.970 . S
Li617 O677 1.956 . S
Li617 O679 1.961 . S
Li618 N663 1.990 1_565 S
Li618 O676 1.961 . S
Li618 O678 1.956 . S
Li618 O679 1.970 . S
Li619 N669 1.990 . S
Li619 O677 1.961 . S
Li619 O678 1.970 . S
Li619 O679 1.956 . S
C620 C622 1.348 . S
C620 C623 1.356 . S
C620 O676 1.325 . S
N621 C624 1.314 . S
N621 C625 1.279 . S
C622 C620 1.348 . S
C622 C624 1.353 . S
C622 H680 0.929 . S
C623 C620 1.356 . S
C623 C625 1.358 . S
C623 H681 0.930 . S
C624 N621 1.314 . S
C624 C622 1.353 . S
C624 H682 0.930 . S
C625 N621 1.279 . S
C625 C623 1.358 . S
C625 H683 0.930 . S
C626 C629 1.348 . S
C626 C630 1.356 . S
C626 O677 1.325 . S
C627 N628 1.279 . S
C627 C630 1.358 . S
C627 H684 0.930 . S
N628 C627 1.279 . S
N628 C631 1.314 . S
C629 C626 1.348 . S
C629 C631 1.353 . S
C629 H685 0.929 . S
C630 C626 1.356 . S
C630 C627 1.358 . S
C630 H686 0.930 . S
C631 N628 1.314 . S
C631 C629 1.353 . S
C631 H687 0.930 . S
C632 N633 1.314 . S
C632 C637 1.353 . S
C632 H638 0.930 . S
N633 Li616 1.990 . S
N633 C632 1.314 . S
N633 C635 1.279 . S
C634 C635 1.358 . S
C634 C636 1.356 . S
C634 H688 0.930 . S
C635 N633 1.279 . S
C635 C634 1.358 . S
C635 H639 0.930 . S
C636 C634 1.356 . S
C636 C637 1.348 . S
C637 C632 1.353 . S
C637 C636 1.348 . S
C637 H689 0.929 . S
H638 C632 0.930 . S
H639 C635 0.930 . S
C640 N641 1.314 . S
C640 C642 1.353 . S
C640 H646 0.930 . S
N641 Li617 1.990 . S
N641 C640 1.314 . S
N641 C644 1.279 . S
C642 C640 1.353 . S
C642 C645 1.348 . S
C642 H690 0.929 . S
C643 C644 1.358 . S
C643 C645 1.356 . S
C643 H691 0.930 . S
C644 N641 1.279 . S
C644 C643 1.358 . S
C644 H647 0.930 . S
C645 C642 1.348 . S
C645 C643 1.356 . S
H646 C640 0.930 . S
H647 C644 0.930 . S
C648 C650 1.348 . S
C648 C651 1.356 . S
C648 O678 1.325 . S
N649 C652 1.314 . S
N649 C653 1.279 . S
C650 C648 1.348 . S
C650 C652 1.353 1_565 S
C650 H692 0.929 . S
C651 C648 1.356 . S
C651 C653 1.358 1_565 S
C651 H693 0.930 . S
C652 N649 1.314 . S
C652 C650 1.353 1_545 S
C652 H694 0.930 . S
C653 N649 1.279 . S
C653 C651 1.358 1_545 S
C653 H695 0.930 . S
C654 C655 1.348 . S
C654 C656 1.356 . S
C654 O679 1.325 . S
C655 C654 1.348 . S
C655 C657 1.353 . S
C655 H696 0.972 . S
C656 C654 1.356 . S
C656 C658 1.358 . S
C656 H697 0.930 . S
C657 C655 1.353 . S
C657 N659 1.314 . S
C657 H698 0.930 1_565 S
C658 C656 1.358 . S
C658 N659 1.279 . S
C658 H699 0.930 . S
N659 C657 1.314 . S
N659 C658 1.279 . S
C660 C662 1.353 . S
C660 N663 1.314 . S
C660 H666 0.930 1_545 S
C661 N663 1.279 . S
C661 C664 1.358 . S
C661 H667 0.930 . S
C662 C660 1.353 . S
C662 C665 1.348 . S
C662 H700 0.929 . S
N663 Li618 1.990 1_545 S
N663 C660 1.314 . S
N663 C661 1.279 . S
C664 C661 1.358 . S
C664 C665 1.356 . S
C664 H701 0.930 . S
C665 C662 1.348 . S
C665 C664 1.356 . S
H666 C660 0.930 1_565 S
H667 C661 0.930 . S
C668 N669 1.314 . S
C668 C670 1.353 . S
C668 H674 0.930 . S
N669 Li619 1.990 . S
N669 C668 1.314 . S
N669 C672 1.279 . S
C670 C668 1.353 . S
C670 C673 1.348 . S
C670 H702 0.929 . S
C671 C672 1.358 . S
C671 C673 1.356 . S
C671 H703 0.930 . S
C672 N669 1.279 . S
C672 C671 1.358 . S
C672 H675 0.930 . S
C673 C670 1.348 . S
C673 C671 1.356 . S
H674 C668 0.930 . S
H675 C672 0.930 . S
O676 Li616 1.956 . S
O676 Li617 1.970 . S
O676 Li618 1.961 . S
O676 C620 1.325 . S
O677 Li616 1.970 . S
O677 Li617 1.956 . S
O677 Li619 1.961 . S
O677 C626 1.325 . S
O678 Li616 1.961 . S
O678 Li618 1.956 . S
O678 Li619 1.970 . S
O678 C648 1.325 . S
O679 Li617 1.961 . S
O679 Li618 1.970 . S
O679 Li619 1.956 . S
O679 C654 1.325 . S
H680 C622 0.929 . S
H681 C623 0.930 . S
H682 C624 0.930 . S
H683 C625 0.930 . S
H684 C627 0.930 . S
H685 C629 0.929 . S
H686 C630 0.930 . S
H687 C631 0.930 . S
H688 C634 0.930 . S
H689 C637 0.929 . S
H690 C642 0.929 . S
H691 C643 0.930 . S
H692 C650 0.929 . S
H693 C651 0.930 . S
H694 C652 0.930 . S
H695 C653 0.930 . S
H696 C655 0.972 . S
H697 C656 0.930 . S
H698 C657 0.930 1_545 S
H699 C658 0.930 . S
H700 C662 0.929 . S
H701 C664 0.930 . S
H702 C670 0.929 . S
H703 C671 0.930 . S
Li704 N721 1.990 . S
Li704 O764 1.956 . S
Li704 O765 1.970 . S
Li704 O766 1.961 . S
Li705 N729 1.990 . S
Li705 O764 1.970 . S
Li705 O765 1.956 . S
Li705 O767 1.961 . S
Li706 N751 1.990 . S
Li706 O764 1.961 . S
Li706 O766 1.956 . S
Li706 O767 1.970 . S
Li707 N757 1.990 . S
Li707 O765 1.961 . S
Li707 O766 1.970 . S
Li707 O767 1.956 . S
C708 C710 1.348 . S
C708 C711 1.356 . S
C708 O764 1.325 . S
N709 C712 1.314 . S
N709 C713 1.279 . S
C710 C708 1.348 . S
C710 C712 1.353 . S
C710 H768 0.929 . S
C711 C708 1.356 . S
C711 C713 1.358 . S
C711 H769 0.930 . S
C712 N709 1.314 . S
C712 C710 1.353 . S
C712 H770 0.930 . S
C713 N709 1.279 . S
C713 C711 1.358 . S
C713 H771 0.930 . S
C714 C717 1.348 . S
C714 C718 1.356 . S
C714 O765 1.325 . S
C715 N716 1.279 . S
C715 C718 1.358 . S
C715 H772 0.930 . S
N716 C715 1.279 . S
N716 C719 1.314 . S
C717 C714 1.348 . S
C717 C719 1.353 . S
C717 H773 0.929 . S
C718 C714 1.356 . S
C718 C715 1.358 . S
C718 H774 0.930 . S
C719 N716 1.314 . S
C719 C717 1.353 . S
C719 H775 0.930 . S
C720 N721 1.314 . S
C720 C725 1.353 . S
C720 H726 0.930 . S
N721 Li704 1.990 . S
N721 C720 1.314 . S
N721 C723 1.279 . S
C722 C723 1.358 . S
C722 C724 1.356 . S
C722 H776 0.930 . S
C723 N721 1.279 . S
C723 C722 1.358 . S
C723 H727 0.930 . S
C724 C722 1.356 . S
C724 C725 1.348 . S
C725 C720 1.353 . S
C725 C724 1.348 . S
C725 H777 0.929 . S
H726 C720 0.930 . S
H727 C723 0.930 . S
C728 N729 1.314 . S
C728 C730 1.353 . S
C728 H734 0.930 . S
N729 Li705 1.990 . S
N729 C728 1.314 . S
N729 C732 1.279 . S
C730 C728 1.353 . S
C730 C733 1.348 . S
C730 H778 0.929 . S
C731 C732 1.358 . S
C731 C733 1.356 . S
C731 H779 0.930 . S
C732 N729 1.279 . S
C732 C731 1.358 . S
C732 H735 0.930 . S
C733 C730 1.348 . S
C733 C731 1.356 . S
H734 C728 0.930 . S
H735 C732 0.930 . S
C736 C738 1.348 . S
C736 C739 1.356 . S
C736 O766 1.325 . S
N737 C740 1.310 . S
N737 C741 1.221 1_655 S
C738 C736 1.348 . S
C738 C740 1.336 1_455 S
C738 H780 0.929 . S
C739 C736 1.356 . S
C739 C741 1.404 . S
C739 H781 0.930 . S
C740 N737 1.310 . S
C740 C738 1.336 1_655 S
C740 H782 0.955 . S
C741 N737 1.221 1_455 S
C741 C739 1.404 . S
C741 H783 0.950 1_455 S
C742 C743 1.348 . S
C742 C744 1.356 . S
C742 O767 1.325 . S
C743 C742 1.348 . S
C743 C745 1.353 . S
C743 H784 0.929 . S
C744 C742 1.356 . S
C744 C746 1.358 . S
C744 H785 0.930 . S
C745 C743 1.353 . S
C745 N747 1.314 . S
C745 H786 0.930 . S
C746 C744 1.358 . S
C746 N747 1.279 . S
C746 H787 0.930 . S
N747 C745 1.314 . S
N747 C746 1.279 . S
C748 C750 1.353 1_455 S
C748 N751 1.314 . S
C748 H754 0.930 . S
C749 N751 1.279 1_655 S
C749 C752 1.358 . S
C749 H755 0.930 . S
C750 C748 1.353 1_655 S
C750 C753 1.348 . S
C750 H788 0.929 . S
N751 Li706 1.990 . S
N751 C748 1.314 . S
N751 C749 1.279 1_455 S
C752 C749 1.358 . S
C752 C753 1.356 . S
C752 H789 0.930 . S
C753 C750 1.348 . S
C753 C752 1.356 . S
H754 C748 0.930 . S
H755 C749 0.930 . S
C756 N757 1.314 . S
C756 C758 1.353 . S
C756 H762 0.930 . S
N757 Li707 1.990 . S
N757 C756 1.314 . S
N757 C760 1.279 . S
C758 C756 1.353 . S
C758 C761 1.348 . S
C758 H790 0.929 . S
C759 C760 1.358 . S
C759 C761 1.356 . S
C759 H791 0.930 . S
C760 N757 1.279 . S
C760 C759 1.358 . S
C760 H763 0.930 . S
C761 C758 1.348 . S
C761 C759 1.356 . S
H762 C756 0.930 . S
H763 C760 0.930 . S
O764 Li704 1.956 . S
O764 Li705 1.970 . S
O764 Li706 1.961 . S
O764 C708 1.325 . S
O765 Li704 1.970 . S
O765 Li705 1.956 . S
O765 Li707 1.961 . S
O765 C714 1.325 . S
O766 Li704 1.961 . S
O766 Li706 1.956 . S
O766 Li707 1.970 . S
O766 C736 1.325 . S
O767 Li705 1.961 . S
O767 Li706 1.970 . S
O767 Li707 1.956 . S
O767 C742 1.325 . S
H768 C710 0.929 . S
H769 C711 0.930 . S
H770 C712 0.930 . S
H771 C713 0.930 . S
H772 C715 0.930 . S
H773 C717 0.929 . S
H774 C718 0.930 . S
H775 C719 0.930 . S
H776 C722 0.930 . S
H777 C725 0.929 . S
H778 C730 0.929 . S
H779 C731 0.930 . S
H780 C738 0.929 . S
H781 C739 0.930 . S
H782 C740 0.955 . S
H783 C741 0.950 1_655 S
H784 C743 0.929 . S
H785 C744 0.930 . S
H786 C745 0.930 . S
H787 C746 0.930 . S
H788 C750 0.929 . S
H789 C752 0.930 . S
H790 C758 0.929 . S
H791 C759 0.930 . S
Li792 N809 1.990 1_565 S
Li792 O852 1.956 . S
Li792 O853 1.970 . S
Li792 O854 1.961 . S
Li793 N817 1.990 . S
Li793 O852 1.970 . S
Li793 O853 1.956 . S
Li793 O855 1.961 . S
Li794 N839 1.990 . S
Li794 O852 1.961 . S
Li794 O854 1.956 . S
Li794 O855 1.970 . S
Li795 N845 1.990 . S
Li795 O853 1.961 . S
Li795 O854 1.970 . S
Li795 O855 1.956 . S
C796 C798 1.348 . S
C796 C799 1.356 . S
C796 O852 1.325 . S
N797 C800 1.314 . S
N797 C801 1.279 . S
C798 C796 1.348 . S
C798 C800 1.353 . S
C798 H856 0.929 . S
C799 C796 1.356 . S
C799 C801 1.358 . S
C799 H857 0.930 . S
C800 N797 1.314 . S
C800 C798 1.353 . S
C800 H858 0.930 . S
C801 N797 1.279 . S
C801 C799 1.358 . S
C801 H859 0.930 . S
C802 C805 1.348 . S
C802 C806 1.356 . S
C802 O853 1.325 . S
C803 N804 1.279 . S
C803 C806 1.358 . S
C803 H860 0.930 . S
N804 C803 1.279 . S
N804 C807 1.314 . S
C805 C802 1.348 . S
C805 C807 1.353 . S
C805 H861 0.929 . S
C806 C802 1.356 . S
C806 C803 1.358 . S
C806 H862 0.930 . S
C807 N804 1.314 . S
C807 C805 1.353 . S
C807 H863 0.930 1_565 S
C808 N809 1.314 . S
C808 C813 1.353 . S
C808 H814 0.930 . S
N809 Li792 1.990 1_545 S
N809 C808 1.314 . S
N809 C811 1.279 . S
C810 C811 1.358 . S
C810 C812 1.356 . S
C810 H864 0.930 . S
C811 N809 1.279 . S
C811 C810 1.358 . S
C811 H815 0.930 1_545 S
C812 C810 1.356 . S
C812 C813 1.348 . S
C813 C808 1.353 . S
C813 C812 1.348 . S
C813 H865 0.929 . S
H814 C808 0.930 . S
H815 C811 0.930 1_565 S
C816 N817 1.314 . S
C816 C818 1.353 . S
C816 H822 0.930 . S
N817 Li793 1.990 . S
N817 C816 1.314 . S
N817 C820 1.279 . S
C818 C816 1.353 . S
C818 C821 1.348 . S
C818 H866 0.929 . S
C819 C820 1.358 . S
C819 C821 1.356 . S
C819 H867 0.930 . S
C820 N817 1.279 . S
C820 C819 1.358 . S
C820 H823 0.930 . S
C821 C818 1.348 . S
C821 C819 1.356 . S
H822 C816 0.930 . S
H823 C820 0.930 . S
C824 C826 1.348 . S
C824 C827 1.360 . S
C824 O854 1.325 . S
N825 C828 1.326 . S
N825 C829 1.279 . S
C826 C824 1.348 . S
C826 C828 1.322 1_565 S
C826 H868 0.929 . S
C827 C824 1.360 . S
C827 C829 1.345 1_565 S
C827 H869 0.922 . S
C828 N825 1.326 . S
C828 C826 1.322 1_545 S
C828 H870 0.926 . S
C829 N825 1.279 . S
C829 C827 1.345 1_545 S
C829 H871 0.930 . S
C830 C831 1.348 . S
C830 C832 1.356 . S
C830 O855 1.325 . S
C831 C830 1.348 . S
C831 C833 1.353 . S
C831 H872 0.929 . S
C832 C830 1.356 . S
C832 C834 1.358 . S
C832 H873 0.930 . S
C833 C831 1.353 . S
C833 N835 1.314 . S
C833 H874 0.930 . S
C834 C832 1.358 . S
C834 N835 1.279 . S
C834 H875 0.930 . S
N835 C833 1.314 . S
N835 C834 1.279 . S
C836 C838 1.353 . S
C836 N839 1.314 . S
C836 H842 0.930 . S
C837 N839 1.279 . S
C837 C840 1.358 . S
C837 H843 0.930 . S
C838 C836 1.353 . S
C838 C841 1.348 . S
C838 H876 0.929 . S
N839 Li794 1.990 . S
N839 C836 1.314 . S
N839 C837 1.279 . S
C840 C837 1.358 . S
C840 C841 1.356 . S
C840 H877 0.930 . S
C841 C838 1.348 . S
C841 C840 1.356 . S
H842 C836 0.930 . S
H843 C837 0.930 . S
C844 N845 1.314 . S
C844 C846 1.353 . S
C844 H850 0.930 . S
N845 Li795 1.990 . S
N845 C844 1.314 . S
N845 C848 1.279 . S
C846 C844 1.353 . S
C846 C849 1.348 . S
C846 H878 0.929 . S
C847 C848 1.358 . S
C847 C849 1.356 . S
C847 H879 0.930 . S
C848 N845 1.279 . S
C848 C847 1.358 . S
C848 H851 0.930 . S
C849 C846 1.348 . S
C849 C847 1.356 . S
H850 C844 0.930 . S
H851 C848 0.930 . S
O852 Li792 1.956 . S
O852 Li793 1.970 . S
O852 Li794 1.961 . S
O852 C796 1.325 . S
O853 Li792 1.970 . S
O853 Li793 1.956 . S
O853 Li795 1.961 . S
O853 C802 1.325 . S
O854 Li792 1.961 . S
O854 Li794 1.956 . S
O854 Li795 1.970 . S
O854 C824 1.325 . S
O855 Li793 1.961 . S
O855 Li794 1.970 . S
O855 Li795 1.956 . S
O855 C830 1.325 . S
H856 C798 0.929 . S
H857 C799 0.930 . S
H858 C800 0.930 . S
H859 C801 0.930 . S
H860 C803 0.930 . S
H861 C805 0.929 . S
H862 C806 0.930 . S
H863 C807 0.930 1_545 S
H864 C810 0.930 . S
H865 C813 0.929 . S
H866 C818 0.929 . S
H867 C819 0.930 . S
H868 C826 0.929 . S
H869 C827 0.922 . S
H870 C828 0.926 . S
H871 C829 0.930 . S
H872 C831 0.929 . S
H873 C832 0.930 . S
H874 C833 0.930 . S
H875 C834 0.930 . S
H876 C838 0.929 . S
H877 C840 0.930 . S
H878 C846 0.929 . S
H879 C847 0.930 . S
Li880 N897 1.990 . S
Li880 O940 1.956 . S
Li880 O941 1.970 . S
Li880 O942 1.961 . S
Li881 N905 1.998 1_455 S
Li881 O940 1.970 . S
Li881 O941 1.956 . S
Li881 O943 1.961 . S
Li882 N927 1.990 . S
Li882 O940 1.961 . S
Li882 O942 1.956 . S
Li882 O943 1.970 . S
Li883 N933 1.990 . S
Li883 O941 1.961 . S
Li883 O942 1.970 . S
Li883 O943 1.956 . S
C884 C886 1.348 . S
C884 C887 1.356 . S
C884 O940 1.325 . S
N885 C888 1.314 . S
N885 C889 1.279 . S
C886 C884 1.348 . S
C886 C888 1.353 . S
C886 H944 0.929 . S
C887 C884 1.356 . S
C887 C889 1.358 . S
C887 H945 0.930 . S
C888 N885 1.314 . S
C888 C886 1.353 . S
C888 H946 0.930 . S
C889 N885 1.279 . S
C889 C887 1.358 . S
C889 H947 0.930 . S
C890 C893 1.348 . S
C890 C894 1.356 . S
C890 O941 1.325 . S
C891 N892 1.279 . S
C891 C894 1.358 . S
C891 H948 0.930 . S
N892 C891 1.279 . S
N892 C895 1.314 . S
C893 C890 1.348 . S
C893 C895 1.353 . S
C893 H949 0.929 . S
C894 C890 1.356 . S
C894 C891 1.358 . S
C894 H950 0.930 . S
C895 N892 1.314 . S
C895 C893 1.353 . S
C895 H951 0.930 . S
C896 N897 1.314 . S
C896 C901 1.353 . S
C896 H902 0.930 . S
N897 Li880 1.990 . S
N897 C896 1.314 . S
N897 C899 1.279 . S
C898 C899 1.358 . S
C898 C900 1.356 . S
C898 H952 0.930 . S
C899 N897 1.279 . S
C899 C898 1.358 . S
C899 H903 0.930 . S
C900 C898 1.356 . S
C900 C901 1.348 . S
C901 C896 1.353 . S
C901 C900 1.348 . S
C901 H953 0.929 . S
H902 C896 0.930 . S
H903 C899 0.930 . S
C904 N905 1.310 . S
C904 C906 1.353 . S
C904 H910 0.930 . S
N905 Li881 1.998 1_655 S
N905 C904 1.310 . S
N905 C908 1.275 . S
C906 C904 1.353 . S
C906 C909 1.348 . S
C906 H954 0.929 . S
C907 C908 1.358 . S
C907 C909 1.356 . S
C907 H955 0.930 . S
C908 N905 1.275 . S
C908 C907 1.358 . S
C908 H911 0.930 1_655 S
C909 C906 1.348 . S
C909 C907 1.356 . S
H910 C904 0.930 . S
H911 C908 0.930 1_455 S
C912 C914 1.348 . S
C912 C915 1.356 . S
C912 O942 1.325 . S
N913 C916 1.314 . S
N913 C917 1.279 . S
C914 C912 1.348 . S
C914 C916 1.353 . S
C914 H956 0.929 . S
C915 C912 1.356 . S
C915 C917 1.358 . S
C915 H957 0.930 . S
C916 N913 1.314 . S
C916 C914 1.353 . S
C916 H958 0.930 . S
C917 N913 1.279 . S
C917 C915 1.358 . S
C917 H959 0.930 . S
C918 C919 1.348 . S
C918 C920 1.356 . S
C918 O943 1.325 . S
C919 C918 1.348 . S
C919 C921 1.401 . S
C919 H960 0.929 . S
C920 C918 1.356 . S
C920 C922 1.358 1_455 S
C920 H961 0.930 . S
C921 C919 1.401 . S
C921 N923 1.242 1_455 S
C921 H962 0.949 . S
C922 C920 1.358 1_655 S
C922 N923 1.279 . S
C922 H963 0.930 . S
N923 C921 1.242 1_655 S
N923 C922 1.279 . S
C924 C926 1.353 . S
C924 N927 1.314 . S
C924 H930 0.930 . S
C925 N927 1.279 . S
C925 C928 1.358 . S
C925 H931 0.930 . S
C926 C924 1.353 . S
C926 C929 1.348 . S
C926 H964 0.929 . S
N927 Li882 1.990 . S
N927 C924 1.314 . S
N927 C925 1.279 . S
C928 C925 1.358 . S
C928 C929 1.356 . S
C928 H965 0.930 . S
C929 C926 1.348 . S
C929 C928 1.356 . S
H930 C924 0.930 . S
H931 C925 0.930 . S
C932 N933 1.314 . S
C932 C934 1.353 . S
C932 H938 0.930 . S
N933 Li883 1.990 . S
N933 C932 1.314 . S
N933 C936 1.279 . S
C934 C932 1.353 . S
C934 C937 1.348 . S
C934 H966 0.929 . S
C935 C936 1.358 . S
C935 C937 1.356 . S
C935 H967 0.930 . S
C936 N933 1.279 . S
C936 C935 1.358 . S
C936 H939 0.930 . S
C937 C934 1.348 . S
C937 C935 1.356 . S
H938 C932 0.930 . S
H939 C936 0.930 . S
O940 Li880 1.956 . S
O940 Li881 1.970 . S
O940 Li882 1.961 . S
O940 C884 1.325 . S
O941 Li880 1.970 . S
O941 Li881 1.956 . S
O941 Li883 1.961 . S
O941 C890 1.325 . S
O942 Li880 1.961 . S
O942 Li882 1.956 . S
O942 Li883 1.970 . S
O942 C912 1.325 . S
O943 Li881 1.961 . S
O943 Li882 1.970 . S
O943 Li883 1.956 . S
O943 C918 1.325 . S
H944 C886 0.929 . S
H945 C887 0.930 . S
H946 C888 0.930 . S
H947 C889 0.930 . S
H948 C891 0.930 . S
H949 C893 0.929 . S
H950 C894 0.930 . S
H951 C895 0.930 . S
H952 C898 0.930 . S
H953 C901 0.929 . S
H954 C906 0.929 . S
H955 C907 0.930 . S
H956 C914 0.929 . S
H957 C915 0.930 . S
H958 C916 0.930 . S
H959 C917 0.930 . S
H960 C919 0.929 . S
H961 C920 0.930 . S
H962 C921 0.949 . S
H963 C922 0.930 . S
H964 C926 0.929 . S
H965 C928 0.930 . S
H966 C934 0.929 . S
H967 C935 0.930 . S
Li968 N985 1.990 . S
Li968 O1028 1.956 . S
Li968 O1029 1.970 . S
Li968 O1030 1.961 . S
Li969 N993 1.990 . S
Li969 O1028 1.970 . S
Li969 O1029 1.956 . S
Li969 O1031 1.961 . S
Li970 N1015 1.990 . S
Li970 O1028 1.961 . S
Li970 O1030 1.956 . S
Li970 O1031 1.970 . S
Li971 N1021 1.990 . S
Li971 O1029 1.961 . S
Li971 O1030 1.970 . S
Li971 O1031 1.956 . S
C972 C974 1.348 . S
C972 C975 1.356 . S
C972 O1028 1.325 . S
N973 C976 1.314 . S
N973 C977 1.279 . S
C974 C972 1.348 . S
C974 C976 1.353 . S
C974 H1032 0.929 . S
C975 C972 1.356 . S
C975 C977 1.358 . S
C975 H1033 0.930 . S
C976 N973 1.314 . S
C976 C974 1.353 . S
C976 H1034 0.930 . S
C977 N973 1.279 . S
C977 C975 1.358 . S
C977 H1035 0.930 . S
C978 C981 1.348 . S
C978 C982 1.356 . S
C978 O1029 1.325 . S
C979 N980 1.279 . S
C979 C982 1.358 . S
C979 H1036 0.930 . S
N980 C979 1.279 . S
N980 C983 1.314 . S
C981 C978 1.348 . S
C981 C983 1.353 . S
C981 H1037 0.929 . S
C982 C978 1.356 . S
C982 C979 1.358 . S
C982 H1038 0.930 . S
C983 N980 1.314 . S
C983 C981 1.353 . S
C983 H1039 0.930 . S
C984 N985 1.314 . S
C984 C989 1.353 . S
C984 H990 0.930 . S
N985 Li968 1.990 . S
N985 C984 1.314 . S
N985 C987 1.279 . S
C986 C987 1.358 . S
C986 C988 1.356 . S
C986 H1040 0.930 . S
C987 N985 1.279 . S
C987 C986 1.358 . S
C987 H991 0.930 . S
C988 C986 1.356 . S
C988 C989 1.348 . S
C989 C984 1.353 . S
C989 C988 1.348 . S
C989 H1041 0.929 . S
H990 C984 0.930 . S
H991 C987 0.930 . S
C992 N993 1.314 . S
C992 C994 1.353 . S
C992 H998 0.930 . S
N993 Li969 1.990 . S
N993 C992 1.314 . S
N993 C996 1.279 . S
C994 C992 1.353 . S
C994 C997 1.348 . S
C994 H1042 0.929 . S
C995 C996 1.358 . S
C995 C997 1.356 . S
C995 H1043 0.930 . S
C996 N993 1.279 . S
C996 C995 1.358 . S
C996 H999 0.930 . S
C997 C994 1.348 . S
C997 C995 1.356 . S
H998 C992 0.930 . S
H999 C996 0.930 . S
C1000 C1002 1.348 . S
C1000 C1003 1.356 . S
C1000 O1030 1.325 . S
N1001 C1004 1.314 . S
N1001 C1005 1.279 . S
C1002 C1000 1.348 . S
C1002 C1004 1.353 . S
C1002 H1044 0.929 . S
C1003 C1000 1.356 . S
C1003 C1005 1.358 . S
C1003 H1045 0.930 . S
C1004 N1001 1.314 . S
C1004 C1002 1.353 . S
C1004 H1046 0.930 . S
C1005 N1001 1.279 . S
C1005 C1003 1.358 . S
C1005 H1047 0.930 . S
C1006 C1007 1.348 . S
C1006 C1008 1.356 . S
C1006 O1031 1.325 . S
C1007 C1006 1.348 . S
C1007 C1009 1.353 . S
C1007 H1048 0.929 . S
C1008 C1006 1.356 . S
C1008 C1010 1.358 . S
C1008 H1049 0.930 . S
C1009 C1007 1.353 . S
C1009 N1011 1.314 . S
C1009 H1050 0.930 . S
C1010 C1008 1.358 . S
C1010 N1011 1.279 . S
C1010 H1051 0.930 . S
N1011 C1009 1.314 . S
N1011 C1010 1.279 . S
C1012 C1014 1.353 . S
C1012 N1015 1.314 . S
C1012 H1018 0.930 . S
C1013 N1015 1.279 . S
C1013 C1016 1.358 . S
C1013 H1019 0.930 . S
C1014 C1012 1.353 . S
C1014 C1017 1.348 . S
C1014 H1052 0.929 . S
N1015 Li970 1.990 . S
N1015 C1012 1.314 . S
N1015 C1013 1.279 . S
C1016 C1013 1.358 . S
C1016 C1017 1.356 . S
C1016 H1053 0.930 . S
C1017 C1014 1.348 . S
C1017 C1016 1.356 . S
H1018 C1012 0.930 . S
H1019 C1013 0.930 . S
C1020 N1021 1.314 . S
C1020 C1022 1.353 . S
C1020 H1026 0.930 . S
N1021 Li971 1.990 . S
N1021 C1020 1.314 . S
N1021 C1024 1.279 . S
C1022 C1020 1.353 . S
C1022 C1025 1.348 . S
C1022 H1054 0.929 . S
C1023 C1024 1.358 . S
C1023 C1025 1.356 . S
C1023 H1055 0.930 . S
C1024 N1021 1.279 . S
C1024 C1023 1.358 . S
C1024 H1027 0.930 . S
C1025 C1022 1.348 . S
C1025 C1023 1.356 . S
H1026 C1020 0.930 . S
H1027 C1024 0.930 . S
O1028 Li968 1.956 . S
O1028 Li969 1.970 . S
O1028 Li970 1.961 . S
O1028 C972 1.325 . S
O1029 Li968 1.970 . S
O1029 Li969 1.956 . S
O1029 Li971 1.961 . S
O1029 C978 1.325 . S
O1030 Li968 1.961 . S
O1030 Li970 1.956 . S
O1030 Li971 1.970 . S
O1030 C1000 1.325 . S
O1031 Li969 1.961 . S
O1031 Li970 1.970 . S
O1031 Li971 1.956 . S
O1031 C1006 1.325 . S
H1032 C974 0.929 . S
H1033 C975 0.930 . S
H1034 C976 0.930 . S
H1035 C977 0.930 . S
H1036 C979 0.930 . S
H1037 C981 0.929 . S
H1038 C982 0.930 . S
H1039 C983 0.930 . S
H1040 C986 0.930 . S
H1041 C989 0.929 . S
H1042 C994 0.929 . S
H1043 C995 0.930 . S
H1044 C1002 0.929 . S
H1045 C1003 0.930 . S
H1046 C1004 0.930 . S
H1047 C1005 0.930 . S
H1048 C1007 0.929 . S
H1049 C1008 0.930 . S
H1050 C1009 0.930 . S
H1051 C1010 0.930 . S
H1052 C1014 0.929 . S
H1053 C1016 0.930 . S
H1054 C1022 0.929 . S
H1055 C1023 0.930 . S
Li1056 N1073 1.990 1_545 S
Li1056 O1116 1.956 . S
Li1056 O1117 1.970 . S
Li1056 O1118 1.961 . S
Li1057 N1081 1.990 . S
Li1057 O1116 1.970 . S
Li1057 O1117 1.956 . S
Li1057 O1119 1.961 . S
Li1058 N1103 1.990 . S
Li1058 O1116 1.961 . S
Li1058 O1118 1.956 . S
Li1058 O1119 1.970 . S
Li1059 N1109 1.990 . S
Li1059 O1117 1.961 . S
Li1059 O1118 1.970 . S
Li1059 O1119 1.956 . S
C1060 C1062 1.348 . S
C1060 C1063 1.356 . S
C1060 O1116 1.325 . S
N1061 C1064 1.314 . S
N1061 C1065 1.279 . S
C1062 C1060 1.348 . S
C1062 C1064 1.353 1_545 S
C1062 H1120 0.929 . S
C1063 C1060 1.356 . S
C1063 C1065 1.358 1_545 S
C1063 H1121 0.930 . S
C1064 N1061 1.314 . S
C1064 C1062 1.353 1_565 S
C1064 H1122 0.930 . S
C1065 N1061 1.279 . S
C1065 C1063 1.358 1_565 S
C1065 H1123 0.930 . S
C1066 C1069 1.348 . S
C1066 C1070 1.356 . S
C1066 O1117 1.325 . S
C1067 N1068 1.279 . S
C1067 C1070 1.358 . S
C1067 H1124 0.930 . S
N1068 C1067 1.279 . S
N1068 C1071 1.314 . S
C1069 C1066 1.348 . S
C1069 C1071 1.353 . S
C1069 H1125 0.955 . S
C1070 C1066 1.356 . S
C1070 C1067 1.358 . S
C1070 H1126 0.930 . S
C1071 N1068 1.314 . S
C1071 C1069 1.353 . S
C1071 H1127 0.930 1_545 S
C1072 N1073 1.314 . S
C1072 C1077 1.353 . S
C1072 H1078 0.930 1_565 S
N1073 Li1056 1.990 1_565 S
N1073 C1072 1.314 . S
N1073 C1075 1.279 . S
C1074 C1075 1.358 . S
C1074 C1076 1.356 . S
C1074 H1128 0.930 . S
C1075 N1073 1.279 . S
C1075 C1074 1.358 . S
C1075 H1079 0.930 . S
C1076 C1074 1.356 . S
C1076 C1077 1.348 . S
C1077 C1072 1.353 . S
C1077 C1076 1.348 . S
C1077 H1129 0.929 . S
H1078 C1072 0.930 1_545 S
H1079 C1075 0.930 . S
C1080 N1081 1.314 . S
C1080 C1082 1.353 . S
C1080 H1086 0.930 . S
N1081 Li1057 1.990 . S
N1081 C1080 1.314 . S
N1081 C1084 1.279 . S
C1082 C1080 1.353 . S
C1082 C1085 1.348 . S
C1082 H1130 0.929 . S
C1083 C1084 1.358 . S
C1083 C1085 1.356 . S
C1083 H1131 0.930 . S
C1084 N1081 1.279 . S
C1084 C1083 1.358 . S
C1084 H1087 0.930 . S
C1085 C1082 1.348 . S
C1085 C1083 1.356 . S
H1086 C1080 0.930 . S
H1087 C1084 0.930 . S
C1088 C1090 1.348 . S
C1088 C1091 1.356 . S
C1088 O1118 1.325 . S
N1089 C1092 1.314 . S
N1089 C1093 1.279 . S
C1090 C1088 1.348 . S
C1090 C1092 1.353 . S
C1090 H1132 0.929 . S
C1091 C1088 1.356 . S
C1091 C1093 1.358 . S
C1091 H1133 0.930 . S
C1092 N1089 1.314 . S
C1092 C1090 1.353 . S
C1092 H1134 0.930 . S
C1093 N1089 1.279 . S
C1093 C1091 1.358 . S
C1093 H1135 0.930 . S
C1094 C1095 1.348 . S
C1094 C1096 1.356 . S
C1094 O1119 1.325 . S
C1095 C1094 1.348 . S
C1095 C1097 1.353 . S
C1095 H1136 0.929 . S
C1096 C1094 1.356 . S
C1096 C1098 1.358 . S
C1096 H1137 0.930 . S
C1097 C1095 1.353 . S
C1097 N1099 1.314 . S
C1097 H1138 0.930 . S
C1098 C1096 1.358 . S
C1098 N1099 1.279 . S
C1098 H1139 0.930 . S
N1099 C1097 1.314 . S
N1099 C1098 1.279 . S
C1100 C1102 1.353 . S
C1100 N1103 1.314 . S
C1100 H1106 0.930 . S
C1101 N1103 1.279 . S
C1101 C1104 1.358 . S
C1101 H1107 0.930 . S
C1102 C1100 1.353 . S
C1102 C1105 1.348 . S
C1102 H1140 0.929 . S
N1103 Li1058 1.990 . S
N1103 C1100 1.314 . S
N1103 C1101 1.279 . S
C1104 C1101 1.358 . S
C1104 C1105 1.356 . S
C1104 H1141 0.930 . S
C1105 C1102 1.348 . S
C1105 C1104 1.356 . S
H1106 C1100 0.930 . S
H1107 C1101 0.930 . S
C1108 N1109 1.314 . S
C1108 C1110 1.353 . S
C1108 H1114 0.930 . S
N1109 Li1059 1.990 . S
N1109 C1108 1.314 . S
N1109 C1112 1.279 . S
C1110 C1108 1.353 . S
C1110 C1113 1.348 . S
C1110 H1142 0.929 . S
C1111 C1112 1.358 . S
C1111 C1113 1.356 . S
C1111 H1143 0.930 . S
C1112 N1109 1.279 . S
C1112 C1111 1.358 . S
C1112 H1115 0.930 . S
C1113 C1110 1.348 . S
C1113 C1111 1.356 . S
H1114 C1108 0.930 . S
H1115 C1112 0.930 . S
O1116 Li1056 1.956 . S
O1116 Li1057 1.970 . S
O1116 Li1058 1.961 . S
O1116 C1060 1.325 . S
O1117 Li1056 1.970 . S
O1117 Li1057 1.956 . S
O1117 Li1059 1.961 . S
O1117 C1066 1.325 . S
O1118 Li1056 1.961 . S
O1118 Li1058 1.956 . S
O1118 Li1059 1.970 . S
O1118 C1088 1.325 . S
O1119 Li1057 1.961 . S
O1119 Li1058 1.970 . S
O1119 Li1059 1.956 . S
O1119 C1094 1.325 . S
H1120 C1062 0.929 . S
H1121 C1063 0.930 . S
H1122 C1064 0.930 . S
H1123 C1065 0.930 . S
H1124 C1067 0.930 . S
H1125 C1069 0.955 . S
H1126 C1070 0.930 . S
H1127 C1071 0.930 1_565 S
H1128 C1074 0.930 . S
H1129 C1077 0.929 . S
H1130 C1082 0.929 . S
H1131 C1083 0.930 . S
H1132 C1090 0.929 . S
H1133 C1091 0.930 . S
H1134 C1092 0.930 . S
H1135 C1093 0.930 . S
H1136 C1095 0.929 . S
H1137 C1096 0.930 . S
H1138 C1097 0.930 . S
H1139 C1098 0.930 . S
H1140 C1102 0.929 . S
H1141 C1104 0.930 . S
H1142 C1110 0.929 . S
H1143 C1111 0.930 . S
Li1144 N1161 1.990 1_655 S
Li1144 O1204 1.956 . S
Li1144 O1205 1.970 . S
Li1144 O1206 1.961 . S
Li1145 N1169 1.990 . S
Li1145 O1204 1.970 . S
Li1145 O1205 1.956 . S
Li1145 O1207 1.961 . S
Li1146 N1191 1.990 . S
Li1146 O1204 1.961 . S
Li1146 O1206 1.956 . S
Li1146 O1207 1.970 . S
Li1147 N1197 1.990 . S
Li1147 O1205 1.961 . S
Li1147 O1206 1.970 . S
Li1147 O1207 1.956 . S
C1148 C1150 1.348 . S
C1148 C1151 1.356 . S
C1148 O1204 1.325 . S
N1149 C1152 1.314 . S
N1149 C1153 1.279 . S
C1150 C1148 1.348 . S
C1150 C1152 1.353 1_655 S
C1150 H1208 0.929 . S
C1151 C1148 1.356 . S
C1151 C1153 1.358 1_655 S
C1151 H1209 0.930 . S
C1152 N1149 1.314 . S
C1152 C1150 1.353 1_455 S
C1152 H1210 0.930 . S
C1153 N1149 1.279 . S
C1153 C1151 1.358 1_455 S
C1153 H1211 0.930 . S
C1154 C1157 1.348 . S
C1154 C1158 1.356 . S
C1154 O1205 1.325 . S
C1155 N1156 1.279 . S
C1155 C1158 1.358 . S
C1155 H1212 0.930 . S
N1156 C1155 1.279 . S
N1156 C1159 1.314 . S
C1157 C1154 1.348 . S
C1157 C1159 1.353 . S
C1157 H1213 0.929 . S
C1158 C1154 1.356 . S
C1158 C1155 1.358 . S
C1158 H1214 0.930 . S
C1159 N1156 1.314 . S
C1159 C1157 1.353 . S
C1159 H1215 0.930 1_655 S
C1160 N1161 1.314 . S
C1160 C1165 1.353 . S
C1160 H1166 0.930 1_455 S
N1161 Li1144 1.990 1_455 S
N1161 C1160 1.314 . S
N1161 C1163 1.279 . S
C1162 C1163 1.358 . S
C1162 C1164 1.356 . S
C1162 H1216 0.930 . S
C1163 N1161 1.279 . S
C1163 C1162 1.358 . S
C1163 H1167 0.930 . S
C1164 C1162 1.356 . S
C1164 C1165 1.348 . S
C1165 C1160 1.353 . S
C1165 C1164 1.348 . S
C1165 H1217 0.929 . S
H1166 C1160 0.930 1_655 S
H1167 C1163 0.930 . S
C1168 N1169 1.314 . S
C1168 C1170 1.353 . S
C1168 H1174 0.930 . S
N1169 Li1145 1.990 . S
N1169 C1168 1.314 . S
N1169 C1172 1.279 . S
C1170 C1168 1.353 . S
C1170 C1173 1.348 . S
C1170 H1218 0.929 . S
C1171 C1172 1.358 . S
C1171 C1173 1.356 . S
C1171 H1219 0.930 . S
C1172 N1169 1.279 . S
C1172 C1171 1.358 . S
C1172 H1175 0.930 . S
C1173 C1170 1.348 . S
C1173 C1171 1.356 . S
H1174 C1168 0.930 . S
H1175 C1172 0.930 . S
C1176 C1178 1.348 . S
C1176 C1179 1.356 . S
C1176 O1206 1.325 . S
N1177 C1180 1.314 . S
N1177 C1181 1.279 . S
C1178 C1176 1.348 . S
C1178 C1180 1.353 . S
C1178 H1220 0.929 . S
C1179 C1176 1.356 . S
C1179 C1181 1.358 . S
C1179 H1221 0.930 . S
C1180 N1177 1.314 . S
C1180 C1178 1.353 . S
C1180 H1222 0.930 . S
C1181 N1177 1.279 . S
C1181 C1179 1.358 . S
C1181 H1223 0.930 . S
C1182 C1183 1.348 . S
C1182 C1184 1.356 . S
C1182 O1207 1.325 . S
C1183 C1182 1.348 . S
C1183 C1185 1.353 . S
C1183 H1224 0.929 . S
C1184 C1182 1.356 . S
C1184 C1186 1.358 . S
C1184 H1225 0.930 . S
C1185 C1183 1.353 . S
C1185 N1187 1.314 . S
C1185 H1226 0.930 . S
C1186 C1184 1.358 . S
C1186 N1187 1.279 . S
C1186 H1227 0.930 . S
N1187 C1185 1.314 . S
N1187 C1186 1.279 . S
C1188 C1190 1.353 . S
C1188 N1191 1.314 . S
C1188 H1194 0.930 . S
C1189 N1191 1.279 . S
C1189 C1192 1.358 . S
C1189 H1195 0.930 . S
C1190 C1188 1.353 . S
C1190 C1193 1.348 . S
C1190 H1228 0.929 . S
N1191 Li1146 1.990 . S
N1191 C1188 1.314 . S
N1191 C1189 1.279 . S
C1192 C1189 1.358 . S
C1192 C1193 1.356 . S
C1192 H1229 0.930 . S
C1193 C1190 1.348 . S
C1193 C1192 1.356 . S
H1194 C1188 0.930 . S
H1195 C1189 0.930 . S
C1196 N1197 1.314 . S
C1196 C1198 1.353 . S
C1196 H1202 0.930 . S
N1197 Li1147 1.990 . S
N1197 C1196 1.314 . S
N1197 C1200 1.279 . S
C1198 C1196 1.353 . S
C1198 C1201 1.348 . S
C1198 H1230 0.929 . S
C1199 C1200 1.358 . S
C1199 C1201 1.356 . S
C1199 H1231 0.930 . S
C1200 N1197 1.279 . S
C1200 C1199 1.358 . S
C1200 H1203 0.930 . S
C1201 C1198 1.348 . S
C1201 C1199 1.356 . S
H1202 C1196 0.930 . S
H1203 C1200 0.930 . S
O1204 Li1144 1.956 . S
O1204 Li1145 1.970 . S
O1204 Li1146 1.961 . S
O1204 C1148 1.325 . S
O1205 Li1144 1.970 . S
O1205 Li1145 1.956 . S
O1205 Li1147 1.961 . S
O1205 C1154 1.325 . S
O1206 Li1144 1.961 . S
O1206 Li1146 1.956 . S
O1206 Li1147 1.970 . S
O1206 C1176 1.325 . S
O1207 Li1145 1.961 . S
O1207 Li1146 1.970 . S
O1207 Li1147 1.956 . S
O1207 C1182 1.325 . S
H1208 C1150 0.929 . S
H1209 C1151 0.930 . S
H1210 C1152 0.930 . S
H1211 C1153 0.930 . S
H1212 C1155 0.930 . S
H1213 C1157 0.929 . S
H1214 C1158 0.930 . S
H1215 C1159 0.930 1_455 S
H1216 C1162 0.930 . S
H1217 C1165 0.929 . S
H1218 C1170 0.929 . S
H1219 C1171 0.930 . S
H1220 C1178 0.929 . S
H1221 C1179 0.930 . S
H1222 C1180 0.930 . S
H1223 C1181 0.930 . S
H1224 C1183 0.929 . S
H1225 C1184 0.930 . S
H1226 C1185 0.930 . S
H1227 C1186 0.930 . S
H1228 C1190 0.929 . S
H1229 C1192 0.930 . S
H1230 C1198 0.929 . S
H1231 C1199 0.930 . S
Li1232 N1249 1.990 . S
Li1232 O1292 1.956 . S
Li1232 O1293 1.970 . S
Li1232 O1294 1.961 . S
Li1233 N1257 1.990 . S
Li1233 O1292 1.970 . S
Li1233 O1293 1.956 . S
Li1233 O1295 1.961 . S
Li1234 N1279 1.990 . S
Li1234 O1292 1.961 . S
Li1234 O1294 1.956 . S
Li1234 O1295 1.970 . S
Li1235 N1285 1.990 . S
Li1235 O1293 1.961 . S
Li1235 O1294 1.970 . S
Li1235 O1295 1.956 . S
C1236 C1238 1.348 . S
C1236 C1239 1.356 . S
C1236 O1292 1.325 . S
N1237 C1240 1.314 . S
N1237 C1241 1.279 . S
C1238 C1236 1.348 . S
C1238 C1240 1.353 . S
C1238 H1296 0.929 . S
C1239 C1236 1.356 . S
C1239 C1241 1.358 . S
C1239 H1297 0.930 . S
C1240 N1237 1.314 . S
C1240 C1238 1.353 . S
C1240 H1298 0.930 . S
C1241 N1237 1.279 . S
C1241 C1239 1.358 . S
C1241 H1299 0.930 . S
C1242 C1245 1.348 . S
C1242 C1246 1.356 . S
C1242 O1293 1.325 . S
C1243 N1244 1.279 . S
C1243 C1246 1.358 . S
C1243 H1300 0.930 . S
N1244 C1243 1.279 . S
N1244 C1247 1.314 . S
C1245 C1242 1.348 . S
C1245 C1247 1.353 . S
C1245 H1301 0.929 . S
C1246 C1242 1.356 . S
C1246 C1243 1.358 . S
C1246 H1302 0.930 . S
C1247 N1244 1.314 . S
C1247 C1245 1.353 . S
C1247 H1303 0.930 . S
C1248 N1249 1.314 . S
C1248 C1253 1.353 . S
C1248 H1254 0.930 . S
N1249 Li1232 1.990 . S
N1249 C1248 1.314 . S
N1249 C1251 1.279 . S
C1250 C1251 1.358 . S
C1250 C1252 1.356 . S
C1250 H1304 0.930 . S
C1251 N1249 1.279 . S
C1251 C1250 1.358 . S
C1251 H1255 0.930 . S
C1252 C1250 1.356 . S
C1252 C1253 1.348 . S
C1253 C1248 1.353 . S
C1253 C1252 1.348 . S
C1253 H1305 0.929 . S
H1254 C1248 0.930 . S
H1255 C1251 0.930 . S
C1256 N1257 1.314 . S
C1256 C1258 1.353 . S
C1256 H1262 0.930 . S
N1257 Li1233 1.990 . S
N1257 C1256 1.314 . S
N1257 C1260 1.279 . S
C1258 C1256 1.353 . S
C1258 C1261 1.348 . S
C1258 H1306 0.929 . S
C1259 C1260 1.358 . S
C1259 C1261 1.356 . S
C1259 H1307 0.930 . S
C1260 N1257 1.279 . S
C1260 C1259 1.358 . S
C1260 H1263 0.930 . S
C1261 C1258 1.348 . S
C1261 C1259 1.356 . S
H1262 C1256 0.930 . S
H1263 C1260 0.930 . S
C1264 C1266 1.348 . S
C1264 C1267 1.356 . S
C1264 O1294 1.325 . S
N1265 C1268 1.314 . S
N1265 C1269 1.279 . S
C1266 C1264 1.348 . S
C1266 C1268 1.353 . S
C1266 H1308 0.929 . S
C1267 C1264 1.356 . S
C1267 C1269 1.358 . S
C1267 H1309 0.930 . S
C1268 N1265 1.314 . S
C1268 C1266 1.353 . S
C1268 H1310 0.930 . S
C1269 N1265 1.279 . S
C1269 C1267 1.358 . S
C1269 H1311 0.930 . S
C1270 C1271 1.348 . S
C1270 C1272 1.356 . S
C1270 O1295 1.325 . S
C1271 C1270 1.348 . S
C1271 C1273 1.353 . S
C1271 H1312 0.929 . S
C1272 C1270 1.356 . S
C1272 C1274 1.358 . S
C1272 H1313 0.930 . S
C1273 C1271 1.353 . S
C1273 N1275 1.314 . S
C1273 H1314 0.930 . S
C1274 C1272 1.358 . S
C1274 N1275 1.279 . S
C1274 H1315 0.930 . S
N1275 C1273 1.314 . S
N1275 C1274 1.279 . S
C1276 C1278 1.353 . S
C1276 N1279 1.314 . S
C1276 H1282 0.930 . S
C1277 N1279 1.279 . S
C1277 C1280 1.358 . S
C1277 H1283 0.930 . S
C1278 C1276 1.353 . S
C1278 C1281 1.348 . S
C1278 H1316 0.929 . S
N1279 Li1234 1.990 . S
N1279 C1276 1.314 . S
N1279 C1277 1.279 . S
C1280 C1277 1.358 . S
C1280 C1281 1.356 . S
C1280 H1317 0.930 . S
C1281 C1278 1.348 . S
C1281 C1280 1.356 . S
H1282 C1276 0.930 . S
H1283 C1277 0.930 . S
C1284 N1285 1.314 . S
C1284 C1286 1.353 . S
C1284 H1290 0.930 . S
N1285 Li1235 1.990 . S
N1285 C1284 1.314 . S
N1285 C1288 1.279 . S
C1286 C1284 1.353 . S
C1286 C1289 1.348 . S
C1286 H1318 0.929 . S
C1287 C1288 1.358 . S
C1287 C1289 1.356 . S
C1287 H1319 0.930 . S
C1288 N1285 1.279 . S
C1288 C1287 1.358 . S
C1288 H1291 0.930 . S
C1289 C1286 1.348 . S
C1289 C1287 1.356 . S
H1290 C1284 0.930 . S
H1291 C1288 0.930 . S
O1292 Li1232 1.956 . S
O1292 Li1233 1.970 . S
O1292 Li1234 1.961 . S
O1292 C1236 1.325 . S
O1293 Li1232 1.970 . S
O1293 Li1233 1.956 . S
O1293 Li1235 1.961 . S
O1293 C1242 1.325 . S
O1294 Li1232 1.961 . S
O1294 Li1234 1.956 . S
O1294 Li1235 1.970 . S
O1294 C1264 1.325 . S
O1295 Li1233 1.961 . S
O1295 Li1234 1.970 . S
O1295 Li1235 1.956 . S
O1295 C1270 1.325 . S
H1296 C1238 0.929 . S
H1297 C1239 0.930 . S
H1298 C1240 0.930 . S
H1299 C1241 0.930 . S
H1300 C1243 0.930 . S
H1301 C1245 0.929 . S
H1302 C1246 0.930 . S
H1303 C1247 0.930 . S
H1304 C1250 0.930 . S
H1305 C1253 0.929 . S
H1306 C1258 0.929 . S
H1307 C1259 0.930 . S
H1308 C1266 0.929 . S
H1309 C1267 0.930 . S
H1310 C1268 0.930 . S
H1311 C1269 0.930 . S
H1312 C1271 0.929 . S
H1313 C1272 0.930 . S
H1314 C1273 0.930 . S
H1315 C1274 0.930 . S
H1316 C1278 0.929 . S
H1317 C1280 0.930 . S
H1318 C1286 0.929 . S
H1319 C1287 0.930 . S
Li1320 N1337 1.990 . S
Li1320 O1380 1.956 . S
Li1320 O1381 1.970 . S
Li1320 O1382 1.961 . S
Li1321 N1345 1.990 . S
Li1321 O1380 1.970 . S
Li1321 O1381 1.956 . S
Li1321 O1383 1.961 . S
Li1322 N1367 1.990 . S
Li1322 O1380 1.961 . S
Li1322 O1382 1.956 . S
Li1322 O1383 1.970 . S
Li1323 N1373 1.990 . S
Li1323 O1381 1.961 . S
Li1323 O1382 1.970 . S
Li1323 O1383 1.956 . S
C1324 C1326 1.348 . S
C1324 C1327 1.356 . S
C1324 O1380 1.325 . S
N1325 C1328 1.314 . S
N1325 C1329 1.279 . S
C1326 C1324 1.348 . S
C1326 C1328 1.353 . S
C1326 H1384 0.929 . S
C1327 C1324 1.356 . S
C1327 C1329 1.358 . S
C1327 H1385 0.930 . S
C1328 N1325 1.314 . S
C1328 C1326 1.353 . S
C1328 H1386 0.930 . S
C1329 N1325 1.279 . S
C1329 C1327 1.358 . S
C1329 H1387 0.930 . S
C1330 C1333 1.348 . S
C1330 C1334 1.356 . S
C1330 O1381 1.325 . S
C1331 N1332 1.279 . S
C1331 C1334 1.358 . S
C1331 H1388 0.930 . S
N1332 C1331 1.279 . S
N1332 C1335 1.314 . S
C1333 C1330 1.348 . S
C1333 C1335 1.353 . S
C1333 H1389 0.929 . S
C1334 C1330 1.356 . S
C1334 C1331 1.358 . S
C1334 H1390 0.930 . S
C1335 N1332 1.314 . S
C1335 C1333 1.353 . S
C1335 H1391 0.930 . S
C1336 N1337 1.314 . S
C1336 C1341 1.353 . S
C1336 H1342 0.930 . S
N1337 Li1320 1.990 . S
N1337 C1336 1.314 . S
N1337 C1339 1.279 . S
C1338 C1339 1.358 . S
C1338 C1340 1.356 . S
C1338 H1392 0.930 . S
C1339 N1337 1.279 . S
C1339 C1338 1.358 . S
C1339 H1343 0.930 . S
C1340 C1338 1.356 . S
C1340 C1341 1.348 . S
C1341 C1336 1.353 . S
C1341 C1340 1.348 . S
C1341 H1393 0.929 . S
H1342 C1336 0.930 . S
H1343 C1339 0.930 . S
C1344 N1345 1.314 . S
C1344 C1346 1.353 . S
C1344 H1350 0.930 . S
N1345 Li1321 1.990 . S
N1345 C1344 1.314 . S
N1345 C1348 1.279 . S
C1346 C1344 1.353 . S
C1346 C1349 1.348 . S
C1346 H1394 0.929 . S
C1347 C1348 1.358 . S
C1347 C1349 1.356 . S
C1347 H1395 0.930 . S
C1348 N1345 1.279 . S
C1348 C1347 1.358 . S
C1348 H1351 0.930 . S
C1349 C1346 1.348 . S
C1349 C1347 1.356 . S
H1350 C1344 0.930 . S
H1351 C1348 0.930 . S
C1352 C1354 1.348 . S
C1352 C1355 1.356 . S
C1352 O1382 1.325 . S
N1353 C1356 1.314 . S
N1353 C1357 1.279 . S
C1354 C1352 1.348 . S
C1354 C1356 1.353 . S
C1354 H1396 0.929 . S
C1355 C1352 1.356 . S
C1355 C1357 1.358 . S
C1355 H1397 0.930 . S
C1356 N1353 1.314 . S
C1356 C1354 1.353 . S
C1356 H1398 0.930 . S
C1357 N1353 1.279 . S
C1357 C1355 1.358 . S
C1357 H1399 0.930 . S
C1358 C1359 1.348 . S
C1358 C1360 1.356 . S
C1358 O1383 1.325 . S
C1359 C1358 1.348 . S
C1359 C1361 1.353 . S
C1359 H1400 0.929 . S
C1360 C1358 1.356 . S
C1360 C1362 1.358 . S
C1360 H1401 0.930 . S
C1361 C1359 1.353 . S
C1361 N1363 1.314 . S
C1361 H1402 0.930 . S
C1362 C1360 1.358 . S
C1362 N1363 1.279 . S
C1362 H1403 0.930 . S
N1363 C1361 1.314 . S
N1363 C1362 1.279 . S
C1364 C1366 1.353 . S
C1364 N1367 1.314 . S
C1364 H1370 0.930 . S
C1365 N1367 1.279 . S
C1365 C1368 1.358 . S
C1365 H1371 0.930 . S
C1366 C1364 1.353 . S
C1366 C1369 1.348 . S
C1366 H1404 0.929 . S
N1367 Li1322 1.990 . S
N1367 C1364 1.314 . S
N1367 C1365 1.279 . S
C1368 C1365 1.358 . S
C1368 C1369 1.356 . S
C1368 H1405 0.930 . S
C1369 C1366 1.348 . S
C1369 C1368 1.356 . S
H1370 C1364 0.930 . S
H1371 C1365 0.930 . S
C1372 N1373 1.314 . S
C1372 C1374 1.353 . S
C1372 H1378 0.930 . S
N1373 Li1323 1.990 . S
N1373 C1372 1.314 . S
N1373 C1376 1.279 . S
C1374 C1372 1.353 . S
C1374 C1377 1.348 . S
C1374 H1406 0.929 . S
C1375 C1376 1.358 . S
C1375 C1377 1.356 . S
C1375 H1407 0.930 . S
C1376 N1373 1.279 . S
C1376 C1375 1.358 . S
C1376 H1379 0.930 . S
C1377 C1374 1.348 . S
C1377 C1375 1.356 . S
H1378 C1372 0.930 . S
H1379 C1376 0.930 . S
O1380 Li1320 1.956 . S
O1380 Li1321 1.970 . S
O1380 Li1322 1.961 . S
O1380 C1324 1.325 . S
O1381 Li1320 1.970 . S
O1381 Li1321 1.956 . S
O1381 Li1323 1.961 . S
O1381 C1330 1.325 . S
O1382 Li1320 1.961 . S
O1382 Li1322 1.956 . S
O1382 Li1323 1.970 . S
O1382 C1352 1.325 . S
O1383 Li1321 1.961 . S
O1383 Li1322 1.970 . S
O1383 Li1323 1.956 . S
O1383 C1358 1.325 . S
H1384 C1326 0.929 . S
H1385 C1327 0.930 . S
H1386 C1328 0.930 . S
H1387 C1329 0.930 . S
H1388 C1331 0.930 . S
H1389 C1333 0.929 . S
H1390 C1334 0.930 . S
H1391 C1335 0.930 . S
H1392 C1338 0.930 . S
H1393 C1341 0.929 . S
H1394 C1346 0.929 . S
H1395 C1347 0.930 . S
H1396 C1354 0.929 . S
H1397 C1355 0.930 . S
H1398 C1356 0.930 . S
H1399 C1357 0.930 . S
H1400 C1359 0.929 . S
H1401 C1360 0.930 . S
H1402 C1361 0.930 . S
H1403 C1362 0.930 . S
H1404 C1366 0.929 . S
H1405 C1368 0.930 . S
H1406 C1374 0.929 . S
H1407 C1375 0.930 . S
Li1408 N1425 1.990 . S
Li1408 O1468 1.956 . S
Li1408 O1469 1.970 . S
Li1408 O1470 1.961 . S
Li1409 N1433 1.990 . S
Li1409 O1468 1.970 . S
Li1409 O1469 1.956 . S
Li1409 O1471 1.961 . S
Li1410 N1455 1.990 . S
Li1410 O1468 1.961 . S
Li1410 O1470 1.956 . S
Li1410 O1471 1.970 . S
Li1411 N1461 1.990 1_545 S
Li1411 O1469 1.961 . S
Li1411 O1470 1.970 . S
Li1411 O1471 1.956 . S
C1412 C1414 1.348 . S
C1412 C1415 1.356 . S
C1412 O1468 1.325 . S
N1413 C1416 1.314 . S
N1413 C1417 1.279 . S
C1414 C1412 1.348 . S
C1414 C1416 1.353 . S
C1414 H1472 0.929 . S
C1415 C1412 1.356 . S
C1415 C1417 1.358 . S
C1415 H1473 0.930 . S
C1416 N1413 1.314 . S
C1416 C1414 1.353 . S
C1416 H1474 0.930 . S
C1417 N1413 1.279 . S
C1417 C1415 1.358 . S
C1417 H1475 0.930 . S
C1418 C1421 1.348 . S
C1418 C1422 1.356 . S
C1418 O1469 1.325 . S
C1419 N1420 1.279 . S
C1419 C1422 1.358 1_565 S
C1419 H1476 0.930 . S
N1420 C1419 1.279 . S
N1420 C1423 1.314 1_565 S
C1421 C1418 1.348 . S
C1421 C1423 1.353 . S
C1421 H1477 0.929 . S
C1422 C1418 1.356 . S
C1422 C1419 1.358 1_545 S
C1422 H1478 0.930 . S
C1423 N1420 1.314 1_545 S
C1423 C1421 1.353 . S
C1423 H1479 0.930 . S
C1424 N1425 1.314 . S
C1424 C1429 1.353 . S
C1424 H1430 0.930 . S
N1425 Li1408 1.990 . S
N1425 C1424 1.314 . S
N1425 C1427 1.279 . S
C1426 C1427 1.358 . S
C1426 C1428 1.356 . S
C1426 H1480 0.930 . S
C1427 N1425 1.279 . S
C1427 C1426 1.358 . S
C1427 H1431 0.930 . S
C1428 C1426 1.356 . S
C1428 C1429 1.348 . S
C1429 C1424 1.353 . S
C1429 C1428 1.348 . S
C1429 H1481 0.929 . S
H1430 C1424 0.930 . S
H1431 C1427 0.930 . S
C1432 N1433 1.314 . S
C1432 C1434 1.353 . S
C1432 H1438 0.930 . S
N1433 Li1409 1.990 . S
N1433 C1432 1.314 . S
N1433 C1436 1.279 . S
C1434 C1432 1.353 . S
C1434 C1437 1.348 . S
C1434 H1482 0.929 . S
C1435 C1436 1.358 . S
C1435 C1437 1.356 . S
C1435 H1483 0.930 . S
C1436 N1433 1.279 . S
C1436 C1435 1.358 . S
C1436 H1439 0.930 . S
C1437 C1434 1.348 . S
C1437 C1435 1.356 . S
H1438 C1432 0.930 . S
H1439 C1436 0.930 . S
C1440 C1442 1.348 . S
C1440 C1443 1.356 . S
C1440 O1470 1.325 . S
N1441 C1444 1.314 . S
N1441 C1445 1.279 . S
C1442 C1440 1.348 . S
C1442 C1444 1.353 . S
C1442 H1484 0.929 . S
C1443 C1440 1.356 . S
C1443 C1445 1.358 . S
C1443 H1485 0.930 . S
C1444 N1441 1.314 . S
C1444 C1442 1.353 . S
C1444 H1486 0.930 . S
C1445 N1441 1.279 . S
C1445 C1443 1.358 . S
C1445 H1487 0.930 . S
C1446 C1447 1.348 . S
C1446 C1448 1.356 . S
C1446 O1471 1.325 . S
C1447 C1446 1.348 . S
C1447 C1449 1.353 . S
C1447 H1488 0.929 . S
C1448 C1446 1.356 . S
C1448 C1450 1.358 . S
C1448 H1489 0.930 . S
C1449 C1447 1.353 . S
C1449 N1451 1.314 . S
C1449 H1490 0.930 . S
C1450 C1448 1.358 . S
C1450 N1451 1.279 . S
C1450 H1491 0.930 . S
N1451 C1449 1.314 . S
N1451 C1450 1.279 . S
C1452 C1454 1.353 . S
C1452 N1455 1.314 . S
C1452 H1458 0.930 . S
C1453 N1455 1.279 . S
C1453 C1456 1.358 . S
C1453 H1459 0.930 . S
C1454 C1452 1.353 . S
C1454 C1457 1.348 . S
C1454 H1492 0.929 . S
N1455 Li1410 1.990 . S
N1455 C1452 1.314 . S
N1455 C1453 1.279 . S
C1456 C1453 1.358 . S
C1456 C1457 1.356 . S
C1456 H1493 0.930 . S
C1457 C1454 1.348 . S
C1457 C1456 1.356 . S
H1458 C1452 0.930 . S
H1459 C1453 0.930 . S
C1460 N1461 1.314 . S
C1460 C1462 1.353 . S
C1460 H1466 0.930 . S
N1461 Li1411 1.990 1_565 S
N1461 C1460 1.314 . S
N1461 C1464 1.279 . S
C1462 C1460 1.353 . S
C1462 C1465 1.348 . S
C1462 H1494 0.929 . S
C1463 C1464 1.358 . S
C1463 C1465 1.356 . S
C1463 H1495 0.930 . S
C1464 N1461 1.279 . S
C1464 C1463 1.358 . S
C1464 H1467 0.930 1_565 S
C1465 C1462 1.348 . S
C1465 C1463 1.356 . S
H1466 C1460 0.930 . S
H1467 C1464 0.930 1_545 S
O1468 Li1408 1.956 . S
O1468 Li1409 1.970 . S
O1468 Li1410 1.961 . S
O1468 C1412 1.325 . S
O1469 Li1408 1.970 . S
O1469 Li1409 1.956 . S
O1469 Li1411 1.961 . S
O1469 C1418 1.325 . S
O1470 Li1408 1.961 . S
O1470 Li1410 1.956 . S
O1470 Li1411 1.970 . S
O1470 C1440 1.325 . S
O1471 Li1409 1.961 . S
O1471 Li1410 1.970 . S
O1471 Li1411 1.956 . S
O1471 C1446 1.325 . S
H1472 C1414 0.929 . S
H1473 C1415 0.930 . S
H1474 C1416 0.930 . S
H1475 C1417 0.930 . S
H1476 C1419 0.930 . S
H1477 C1421 0.929 . S
H1478 C1422 0.930 . S
H1479 C1423 0.930 . S
H1480 C1426 0.930 . S
H1481 C1429 0.929 . S
H1482 C1434 0.929 . S
H1483 C1435 0.930 . S
H1484 C1442 0.929 . S
H1485 C1443 0.930 . S
H1486 C1444 0.930 . S
H1487 C1445 0.930 . S
H1488 C1447 0.929 . S
H1489 C1448 0.930 . S
H1490 C1449 0.930 . S
H1491 C1450 0.930 . S
H1492 C1454 0.929 . S
H1493 C1456 0.930 . S
H1494 C1462 0.929 . S
H1495 C1463 0.930 . S
Li1496 N1513 1.990 . S
Li1496 O1556 1.956 . S
Li1496 O1557 1.970 . S
Li1496 O1558 1.961 . S
Li1497 N1521 1.990 . S
Li1497 O1556 1.970 . S
Li1497 O1557 1.956 . S
Li1497 O1559 1.961 . S
Li1498 N1543 1.990 . S
Li1498 O1556 1.961 . S
Li1498 O1558 1.956 . S
Li1498 O1559 1.970 . S
Li1499 N1549 1.990 . S
Li1499 O1557 1.961 . S
Li1499 O1558 1.970 . S
Li1499 O1559 1.956 . S
C1500 C1502 1.348 . S
C1500 C1503 1.356 . S
C1500 O1556 1.325 . S
N1501 C1504 1.314 1_455 S
N1501 C1505 1.279 . S
C1502 C1500 1.348 . S
C1502 C1504 1.353 . S
C1502 H1560 0.929 . S
C1503 C1500 1.356 . S
C1503 C1505 1.358 1_655 S
C1503 H1561 0.930 . S
C1504 N1501 1.314 1_655 S
C1504 C1502 1.353 . S
C1504 H1562 0.930 . S
C1505 N1501 1.279 . S
C1505 C1503 1.358 1_455 S
C1505 H1563 0.930 . S
C1506 C1509 1.348 . S
C1506 C1510 1.356 . S
C1506 O1557 1.325 . S
C1507 N1508 1.279 . S
C1507 C1510 1.358 . S
C1507 H1564 0.930 . S
N1508 C1507 1.279 . S
N1508 C1511 1.314 . S
C1509 C1506 1.348 . S
C1509 C1511 1.353 . S
C1509 H1565 0.929 . S
C1510 C1506 1.356 . S
C1510 C1507 1.358 . S
C1510 H1566 0.930 . S
C1511 N1508 1.314 . S
C1511 C1509 1.353 . S
C1511 H1567 0.930 . S
C1512 N1513 1.314 . S
C1512 C1517 1.353 . S
C1512 H1518 0.930 . S
N1513 Li1496 1.990 . S
N1513 C1512 1.314 . S
N1513 C1515 1.279 . S
C1514 C1515 1.358 . S
C1514 C1516 1.356 . S
C1514 H1568 0.930 . S
C1515 N1513 1.279 . S
C1515 C1514 1.358 . S
C1515 H1519 0.930 . S
C1516 C1514 1.356 . S
C1516 C1517 1.348 . S
C1517 C1512 1.353 . S
C1517 C1516 1.348 . S
C1517 H1569 0.929 . S
H1518 C1512 0.930 . S
H1519 C1515 0.930 . S
C1520 N1521 1.314 . S
C1520 C1522 1.353 . S
C1520 H1526 0.930 . S
N1521 Li1497 1.990 . S
N1521 C1520 1.314 . S
N1521 C1524 1.279 . S
C1522 C1520 1.353 . S
C1522 C1525 1.348 . S
C1522 H1570 0.929 . S
C1523 C1524 1.358 . S
C1523 C1525 1.356 . S
C1523 H1571 0.930 . S
C1524 N1521 1.279 . S
C1524 C1523 1.358 . S
C1524 H1527 0.930 . S
C1525 C1522 1.348 . S
C1525 C1523 1.356 . S
H1526 C1520 0.930 . S
H1527 C1524 0.930 . S
C1528 C1530 1.348 . S
C1528 C1531 1.356 . S
C1528 O1558 1.325 . S
N1529 C1532 1.314 . S
N1529 C1533 1.279 . S
C1530 C1528 1.348 . S
C1530 C1532 1.353 . S
C1530 H1572 0.929 . S
C1531 C1528 1.356 . S
C1531 C1533 1.358 . S
C1531 H1573 0.930 . S
C1532 N1529 1.314 . S
C1532 C1530 1.353 . S
C1532 H1574 0.930 . S
C1533 N1529 1.279 . S
C1533 C1531 1.358 . S
C1533 H1575 0.930 . S
C1534 C1535 1.348 . S
C1534 C1536 1.356 . S
C1534 O1559 1.325 . S
C1535 C1534 1.348 . S
C1535 C1537 1.353 . S
C1535 H1576 0.929 . S
C1536 C1534 1.356 . S
C1536 C1538 1.358 . S
C1536 H1577 0.930 . S
C1537 C1535 1.353 . S
C1537 N1539 1.314 . S
C1537 H1578 0.930 . S
C1538 C1536 1.358 . S
C1538 N1539 1.279 . S
C1538 H1579 0.930 . S
N1539 C1537 1.314 . S
N1539 C1538 1.279 . S
C1540 C1542 1.353 . S
C1540 N1543 1.314 1_455 S
C1540 H1546 0.930 . S
C1541 N1543 1.264 . S
C1541 C1544 1.310 1_655 S
C1541 H1547 1.006 . S
C1542 C1540 1.353 . S
C1542 C1545 1.348 . S
C1542 H1580 0.929 . S
N1543 Li1498 1.990 . S
N1543 C1540 1.314 1_655 S
N1543 C1541 1.264 . S
C1544 C1541 1.310 1_455 S
C1544 C1545 1.356 . S
C1544 H1581 0.930 . S
C1545 C1542 1.348 . S
C1545 C1544 1.356 . S
H1546 C1540 0.930 . S
H1547 C1541 1.006 . S
C1548 N1549 1.314 . S
C1548 C1550 1.353 . S
C1548 H1554 0.930 . S
N1549 Li1499 1.990 . S
N1549 C1548 1.314 . S
N1549 C1552 1.279 . S
C1550 C1548 1.353 . S
C1550 C1553 1.348 . S
C1550 H1582 0.929 . S
C1551 C1552 1.358 . S
C1551 C1553 1.356 . S
C1551 H1583 0.930 . S
C1552 N1549 1.279 . S
C1552 C1551 1.358 . S
C1552 H1555 0.930 . S
C1553 C1550 1.348 . S
C1553 C1551 1.356 . S
H1554 C1548 0.930 . S
H1555 C1552 0.930 . S
O1556 Li1496 1.956 . S
O1556 Li1497 1.970 . S
O1556 Li1498 1.961 . S
O1556 C1500 1.325 . S
O1557 Li1496 1.970 . S
O1557 Li1497 1.956 . S
O1557 Li1499 1.961 . S
O1557 C1506 1.325 . S
O1558 Li1496 1.961 . S
O1558 Li1498 1.956 . S
O1558 Li1499 1.970 . S
O1558 C1528 1.325 . S
O1559 Li1497 1.961 . S
O1559 Li1498 1.970 . S
O1559 Li1499 1.956 . S
O1559 C1534 1.325 . S
H1560 C1502 0.929 . S
H1561 C1503 0.930 . S
H1562 C1504 0.930 . S
H1563 C1505 0.930 . S
H1564 C1507 0.930 . S
H1565 C1509 0.929 . S
H1566 C1510 0.930 . S
H1567 C1511 0.930 . S
H1568 C1514 0.930 . S
H1569 C1517 0.929 . S
H1570 C1522 0.929 . S
H1571 C1523 0.930 . S
H1572 C1530 0.929 . S
H1573 C1531 0.930 . S
H1574 C1532 0.930 . S
H1575 C1533 0.930 . S
H1576 C1535 0.929 . S
H1577 C1536 0.930 . S
H1578 C1537 0.930 . S
H1579 C1538 0.930 . S
H1580 C1542 0.929 . S
H1581 C1544 0.930 . S
H1582 C1550 0.929 . S
H1583 C1551 0.930 . S
H1584 O1610 0.856 . S
H1585 O1613 0.854 . S
H1586 C1621 0.930 . S
H1587 C1622 0.930 . S
H1588 C1624 0.930 . S
H1589 C1625 0.930 . S
H1590 C1627 0.931 . S
H1591 C1628 0.930 . S
H1592 C1630 0.930 . S
H1593 C1631 0.929 . S
H1594 C1633 0.930 . S
H1595 C1634 0.931 . S
H1596 C1636 0.930 . S
H1597 C1637 0.929 . S
H1598 C1639 0.931 . S
H1599 C1640 0.930 . S
H1600 C1642 0.930 . S
H1601 C1643 0.932 . S
H1602 C1645 0.930 . S
H1603 C1646 0.929 . S
H1604 C1648 0.931 . S
H1605 C1649 0.930 . S
H1606 C1651 0.929 . S
H1607 C1652 0.931 . S
H1608 C1654 0.930 . S
H1609 C1655 0.929 . S
O1610 H1584 0.856 . S
O1610 C1656 1.300 . S
O1611 C1656 1.209 . S
O1612 C1657 1.199 . S
O1613 H1585 0.854 . S
O1613 C1657 1.297 . S
C1614 C1615 1.404 . S
C1614 C1619 1.397 . S
C1614 C1620 1.492 . S
C1615 C1614 1.404 . S
C1615 C1616 1.396 . S
C1615 C1626 1.492 . S
C1616 C1615 1.396 . S
C1616 C1617 1.397 . S
C1616 C1632 1.509 . S
C1617 C1616 1.397 . S
C1617 C1618 1.412 . S
C1617 C1638 1.485 . S
C1618 C1617 1.412 . S
C1618 C1619 1.388 . S
C1618 C1644 1.490 . S
C1619 C1614 1.397 . S
C1619 C1618 1.388 . S
C1619 C1650 1.519 . S
C1620 C1614 1.492 . S
C1620 C1621 1.363 . S
C1620 C1625 1.390 . S
C1621 H1586 0.930 . S
C1621 C1620 1.363 . S
C1621 C1622 1.372 . S
C1622 H1587 0.930 . S
C1622 C1621 1.372 . S
C1622 C1623 1.383 . S
C1623 C1622 1.383 . S
C1623 C1624 1.395 . S
C1624 H1588 0.930 . S
C1624 C1623 1.395 . S
C1624 C1625 1.362 . S
C1625 H1589 0.930 . S
C1625 C1620 1.390 . S
C1625 C1624 1.362 . S
C1626 C1615 1.492 . S
C1626 C1627 1.377 . S
C1626 C1631 1.397 . S
C1627 H1590 0.931 . S
C1627 C1626 1.377 . S
C1627 C1628 1.376 . S
C1628 H1591 0.930 . S
C1628 C1627 1.376 . S
C1628 C1629 1.376 . S
C1629 C1628 1.376 . S
C1629 C1630 1.378 . S
C1629 C1656 1.486 . S
C1630 H1592 0.930 . S
C1630 C1629 1.378 . S
C1630 C1631 1.376 . S
C1631 H1593 0.929 . S
C1631 C1626 1.397 . S
C1631 C1630 1.376 . S
C1632 C1616 1.509 . S
C1632 C1633 1.391 . S
C1632 C1637 1.386 . S
C1633 H1594 0.930 . S
C1633 C1632 1.391 . S
C1633 C1634 1.375 . S
C1634 H1595 0.931 . S
C1634 C1633 1.375 . S
C1634 C1635 1.375 . S
C1635 C1634 1.375 . S
C1635 C1636 1.361 . S
C1636 H1596 0.930 . S
C1636 C1635 1.361 . S
C1636 C1637 1.399 . S
C1637 H1597 0.929 . S
C1637 C1632 1.386 . S
C1637 C1636 1.399 . S
C1638 C1617 1.485 . S
C1638 C1639 1.394 . S
C1638 C1643 1.360 . S
C1639 H1598 0.931 . S
C1639 C1638 1.394 . S
C1639 C1640 1.372 . S
C1640 H1599 0.930 . S
C1640 C1639 1.372 . S
C1640 C1641 1.397 . S
C1641 C1640 1.397 . S
C1641 C1642 1.390 . S
C1641 C1657 1.476 . S
C1642 H1600 0.930 . S
C1642 C1641 1.390 . S
C1642 C1643 1.366 . S
C1643 H1601 0.932 . S
C1643 C1638 1.360 . S
C1643 C1642 1.366 . S
C1644 C1618 1.490 . S
C1644 C1645 1.380 . S
C1644 C1649 1.386 . S
C1645 H1602 0.930 . S
C1645 C1644 1.380 . S
C1645 C1646 1.381 . S
C1646 H1603 0.929 . S
C1646 C1645 1.381 . S
C1646 C1647 1.371 . S
C1647 C1646 1.371 . S
C1647 C1648 1.380 . S
C1648 H1604 0.931 . S
C1648 C1647 1.380 . S
C1648 C1649 1.387 . S
C1649 H1605 0.930 . S
C1649 C1644 1.386 . S
C1649 C1648 1.387 . S
C1650 C1619 1.519 . S
C1650 C1651 1.377 . S
C1650 C1655 1.361 . S
C1651 H1606 0.929 . S
C1651 C1650 1.377 . S
C1651 C1652 1.386 . S
C1652 H1607 0.931 . S
C1652 C1651 1.386 . S
C1652 C1653 1.363 . S
C1653 C1652 1.363 . S
C1653 C1654 1.385 . S
C1654 H1608 0.930 . S
C1654 C1653 1.385 . S
C1654 C1655 1.396 . S
C1655 H1609 0.929 . S
C1655 C1650 1.361 . S
C1655 C1654 1.396 . S
C1656 O1610 1.300 . S
C1656 O1611 1.209 . S
C1656 C1629 1.486 . S
C1657 O1612 1.199 . S
C1657 O1613 1.297 . S
C1657 C1641 1.476 . S
H1658 O1684 0.856 . S
H1659 O1687 0.854 . S
H1660 C1695 0.930 . S
H1661 C1696 0.930 . S
H1662 C1698 0.930 . S
H1663 C1699 0.930 . S
H1664 C1701 0.931 . S
H1665 C1702 0.930 . S
H1666 C1704 0.930 . S
H1667 C1705 0.929 . S
H1668 C1707 0.930 . S
H1669 C1708 0.931 . S
H1670 C1710 0.930 . S
H1671 C1711 0.929 . S
H1672 C1713 0.931 . S
H1673 C1714 0.930 . S
H1674 C1716 0.930 . S
H1675 C1717 0.932 . S
H1676 C1719 0.930 . S
H1677 C1720 0.929 . S
H1678 C1722 0.931 . S
H1679 C1723 0.930 . S
H1680 C1725 0.929 . S
H1681 C1726 0.931 . S
H1682 C1728 0.930 . S
H1683 C1729 0.929 . S
O1684 H1658 0.856 . S
O1684 C1730 1.300 . S
O1685 C1730 1.209 . S
O1686 C1731 1.199 . S
O1687 H1659 0.854 . S
O1687 C1731 1.297 . S
C1688 C1689 1.404 . S
C1688 C1693 1.397 . S
C1688 C1694 1.492 . S
C1689 C1688 1.404 . S
C1689 C1690 1.396 . S
C1689 C1700 1.492 . S
C1690 C1689 1.396 . S
C1690 C1691 1.397 . S
C1690 C1706 1.509 . S
C1691 C1690 1.397 . S
C1691 C1692 1.412 . S
C1691 C1712 1.485 . S
C1692 C1691 1.412 . S
C1692 C1693 1.388 . S
C1692 C1718 1.490 . S
C1693 C1688 1.397 . S
C1693 C1692 1.388 . S
C1693 C1724 1.519 . S
C1694 C1688 1.492 . S
C1694 C1695 1.363 . S
C1694 C1699 1.390 . S
C1695 H1660 0.930 . S
C1695 C1694 1.363 . S
C1695 C1696 1.372 . S
C1696 H1661 0.930 . S
C1696 C1695 1.372 . S
C1696 C1697 1.383 . S
C1697 C1696 1.383 . S
C1697 C1698 1.395 . S
C1698 H1662 0.930 . S
C1698 C1697 1.395 . S
C1698 C1699 1.362 . S
C1699 H1663 0.930 . S
C1699 C1694 1.390 . S
C1699 C1698 1.362 . S
C1700 C1689 1.492 . S
C1700 C1701 1.377 . S
C1700 C1705 1.397 . S
C1701 H1664 0.931 . S
C1701 C1700 1.377 . S
C1701 C1702 1.376 . S
C1702 H1665 0.930 . S
C1702 C1701 1.376 . S
C1702 C1703 1.376 . S
C1703 C1702 1.376 . S
C1703 C1704 1.378 . S
C1703 C1730 1.486 . S
C1704 H1666 0.930 . S
C1704 C1703 1.378 . S
C1704 C1705 1.376 . S
C1705 H1667 0.929 . S
C1705 C1700 1.397 . S
C1705 C1704 1.376 . S
C1706 C1690 1.509 . S
C1706 C1707 1.391 . S
C1706 C1711 1.386 . S
C1707 H1668 0.930 . S
C1707 C1706 1.391 . S
C1707 C1708 1.375 . S
C1708 H1669 0.931 . S
C1708 C1707 1.375 . S
C1708 C1709 1.375 . S
C1709 C1708 1.375 . S
C1709 C1710 1.361 . S
C1710 H1670 0.930 . S
C1710 C1709 1.361 . S
C1710 C1711 1.399 . S
C1711 H1671 0.929 . S
C1711 C1706 1.386 . S
C1711 C1710 1.399 . S
C1712 C1691 1.485 . S
C1712 C1713 1.394 . S
C1712 C1717 1.360 . S
C1713 H1672 0.931 . S
C1713 C1712 1.394 . S
C1713 C1714 1.372 . S
C1714 H1673 0.930 . S
C1714 C1713 1.372 . S
C1714 C1715 1.397 . S
C1715 C1714 1.397 . S
C1715 C1716 1.390 . S
C1715 C1731 1.476 . S
C1716 H1674 0.930 . S
C1716 C1715 1.390 . S
C1716 C1717 1.366 . S
C1717 H1675 0.932 . S
C1717 C1712 1.360 . S
C1717 C1716 1.366 . S
C1718 C1692 1.490 . S
C1718 C1719 1.380 . S
C1718 C1723 1.386 . S
C1719 H1676 0.930 . S
C1719 C1718 1.380 . S
C1719 C1720 1.381 . S
C1720 H1677 0.929 . S
C1720 C1719 1.381 . S
C1720 C1721 1.371 . S
C1721 C1720 1.371 . S
C1721 C1722 1.380 . S
C1722 H1678 0.931 . S
C1722 C1721 1.380 . S
C1722 C1723 1.387 . S
C1723 H1679 0.930 . S
C1723 C1718 1.386 . S
C1723 C1722 1.387 . S
C1724 C1693 1.519 . S
C1724 C1725 1.377 . S
C1724 C1729 1.361 . S
C1725 H1680 0.929 . S
C1725 C1724 1.377 . S
C1725 C1726 1.386 . S
C1726 H1681 0.931 . S
C1726 C1725 1.386 . S
C1726 C1727 1.363 . S
C1727 C1726 1.363 . S
C1727 C1728 1.385 . S
C1728 H1682 0.930 . S
C1728 C1727 1.385 . S
C1728 C1729 1.396 . S
C1729 H1683 0.929 . S
C1729 C1724 1.361 . S
C1729 C1728 1.396 . S
C1730 O1684 1.300 . S
C1730 O1685 1.209 . S
C1730 C1703 1.486 . S
C1731 O1686 1.199 . S
C1731 O1687 1.297 . S
C1731 C1715 1.476 . S
H1732 O1758 0.856 . S
H1733 O1761 0.854 . S
H1734 C1769 0.930 . S
H1735 C1770 0.930 . S
H1736 C1772 0.930 . S
H1737 C1773 0.930 . S
H1738 C1775 0.931 . S
H1739 C1776 0.930 . S
H1740 C1778 0.930 . S
H1741 C1779 0.929 . S
H1742 C1781 0.930 . S
H1743 C1782 0.931 . S
H1744 C1784 0.930 . S
H1745 C1785 0.929 . S
H1746 C1787 0.931 . S
H1747 C1788 0.930 . S
H1748 C1790 0.930 . S
H1749 C1791 0.932 . S
H1750 C1793 0.930 . S
H1751 C1794 0.929 . S
H1752 C1796 0.931 . S
H1753 C1797 0.930 . S
H1754 C1799 0.929 . S
H1755 C1800 0.931 . S
H1756 C1802 0.930 . S
H1757 C1803 0.929 . S
O1758 H1732 0.856 . S
O1758 C1804 1.300 . S
O1759 C1804 1.209 . S
O1760 C1805 1.199 . S
O1761 H1733 0.854 . S
O1761 C1805 1.297 . S
C1762 C1763 1.404 . S
C1762 C1767 1.397 . S
C1762 C1768 1.492 . S
C1763 C1762 1.404 . S
C1763 C1764 1.396 . S
C1763 C1774 1.492 . S
C1764 C1763 1.396 . S
C1764 C1765 1.397 . S
C1764 C1780 1.509 . S
C1765 C1764 1.397 . S
C1765 C1766 1.412 . S
C1765 C1786 1.485 . S
C1766 C1765 1.412 . S
C1766 C1767 1.388 . S
C1766 C1792 1.490 . S
C1767 C1762 1.397 . S
C1767 C1766 1.388 . S
C1767 C1798 1.519 . S
C1768 C1762 1.492 . S
C1768 C1769 1.363 . S
C1768 C1773 1.390 . S
C1769 H1734 0.930 . S
C1769 C1768 1.363 . S
C1769 C1770 1.372 . S
C1770 H1735 0.930 . S
C1770 C1769 1.372 . S
C1770 C1771 1.383 . S
C1771 C1770 1.383 . S
C1771 C1772 1.395 . S
C1772 H1736 0.930 . S
C1772 C1771 1.395 . S
C1772 C1773 1.362 . S
C1773 H1737 0.930 . S
C1773 C1768 1.390 . S
C1773 C1772 1.362 . S
C1774 C1763 1.492 . S
C1774 C1775 1.377 . S
C1774 C1779 1.397 . S
C1775 H1738 0.931 . S
C1775 C1774 1.377 . S
C1775 C1776 1.376 . S
C1776 H1739 0.930 . S
C1776 C1775 1.376 . S
C1776 C1777 1.376 . S
C1777 C1776 1.376 . S
C1777 C1778 1.378 . S
C1777 C1804 1.486 . S
C1778 H1740 0.930 . S
C1778 C1777 1.378 . S
C1778 C1779 1.376 . S
C1779 H1741 0.929 . S
C1779 C1774 1.397 . S
C1779 C1778 1.376 . S
C1780 C1764 1.509 . S
C1780 C1781 1.391 . S
C1780 C1785 1.386 . S
C1781 H1742 0.930 . S
C1781 C1780 1.391 . S
C1781 C1782 1.375 . S
C1782 H1743 0.931 . S
C1782 C1781 1.375 . S
C1782 C1783 1.375 . S
C1783 C1782 1.375 . S
C1783 C1784 1.361 . S
C1784 H1744 0.930 . S
C1784 C1783 1.361 . S
C1784 C1785 1.399 . S
C1785 H1745 0.929 . S
C1785 C1780 1.386 . S
C1785 C1784 1.399 . S
C1786 C1765 1.485 . S
C1786 C1787 1.394 . S
C1786 C1791 1.360 . S
C1787 H1746 0.931 . S
C1787 C1786 1.394 . S
C1787 C1788 1.372 . S
C1788 H1747 0.930 . S
C1788 C1787 1.372 . S
C1788 C1789 1.397 . S
C1789 C1788 1.397 . S
C1789 C1790 1.390 . S
C1789 C1805 1.476 . S
C1790 H1748 0.930 . S
C1790 C1789 1.390 . S
C1790 C1791 1.366 . S
C1791 H1749 0.932 . S
C1791 C1786 1.360 . S
C1791 C1790 1.366 . S
C1792 C1766 1.490 . S
C1792 C1793 1.380 . S
C1792 C1797 1.386 . S
C1793 H1750 0.930 . S
C1793 C1792 1.380 . S
C1793 C1794 1.381 . S
C1794 H1751 0.929 . S
C1794 C1793 1.381 . S
C1794 C1795 1.371 . S
C1795 C1794 1.371 . S
C1795 C1796 1.380 . S
C1796 H1752 0.931 . S
C1796 C1795 1.380 . S
C1796 C1797 1.387 . S
C1797 H1753 0.930 . S
C1797 C1792 1.386 . S
C1797 C1796 1.387 . S
C1798 C1767 1.519 . S
C1798 C1799 1.377 . S
C1798 C1803 1.361 . S
C1799 H1754 0.929 . S
C1799 C1798 1.377 . S
C1799 C1800 1.386 . S
C1800 H1755 0.931 . S
C1800 C1799 1.386 . S
C1800 C1801 1.363 . S
C1801 C1800 1.363 . S
C1801 C1802 1.385 . S
C1802 H1756 0.930 . S
C1802 C1801 1.385 . S
C1802 C1803 1.396 . S
C1803 H1757 0.929 . S
C1803 C1798 1.361 . S
C1803 C1802 1.396 . S
C1804 O1758 1.300 . S
C1804 O1759 1.209 . S
C1804 C1777 1.486 . S
C1805 O1760 1.199 . S
C1805 O1761 1.297 . S
C1805 C1789 1.476 . S
H1806 O1832 0.856 . S
H1807 O1835 0.854 . S
H1808 C1843 0.930 . S
H1809 C1844 0.930 . S
H1810 C1846 0.930 . S
H1811 C1847 0.930 . S
H1812 C1849 0.931 . S
H1813 C1850 0.930 . S
H1814 C1852 0.930 . S
H1815 C1853 0.929 . S
H1816 C1855 0.930 . S
H1817 C1856 0.931 . S
H1818 C1858 0.930 . S
H1819 C1859 0.929 . S
H1820 C1861 0.931 . S
H1821 C1862 0.930 . S
H1822 C1864 0.930 . S
H1823 C1865 0.932 . S
H1824 C1867 0.930 . S
H1825 C1868 0.929 . S
H1826 C1870 0.931 . S
H1827 C1871 0.930 . S
H1828 C1873 0.929 . S
H1829 C1874 0.931 . S
H1830 C1876 0.930 . S
H1831 C1877 0.929 . S
O1832 H1806 0.856 . S
O1832 C1878 1.300 1_554 S
O1833 C1878 1.209 1_554 S
O1834 C1879 1.199 . S
O1835 H1807 0.854 . S
O1835 C1879 1.297 . S
C1836 C1837 1.404 . S
C1836 C1841 1.397 . S
C1836 C1842 1.492 . S
C1837 C1836 1.404 . S
C1837 C1838 1.396 . S
C1837 C1848 1.492 . S
C1838 C1837 1.396 . S
C1838 C1839 1.397 . S
C1838 C1854 1.509 . S
C1839 C1838 1.397 . S
C1839 C1840 1.412 . S
C1839 C1860 1.485 . S
C1840 C1839 1.412 . S
C1840 C1841 1.388 . S
C1840 C1866 1.490 . S
C1841 C1836 1.397 . S
C1841 C1840 1.388 . S
C1841 C1872 1.519 . S
C1842 C1836 1.492 . S
C1842 C1843 1.363 . S
C1842 C1847 1.390 . S
C1843 H1808 0.930 . S
C1843 C1842 1.363 . S
C1843 C1844 1.372 . S
C1844 H1809 0.930 . S
C1844 C1843 1.372 . S
C1844 C1845 1.383 . S
C1845 C1844 1.383 . S
C1845 C1846 1.395 . S
C1846 H1810 0.930 . S
C1846 C1845 1.395 . S
C1846 C1847 1.362 . S
C1847 H1811 0.930 . S
C1847 C1842 1.390 . S
C1847 C1846 1.362 . S
C1848 C1837 1.492 . S
C1848 C1849 1.377 . S
C1848 C1853 1.397 . S
C1849 H1812 0.931 . S
C1849 C1848 1.377 . S
C1849 C1850 1.376 . S
C1850 H1813 0.930 . S
C1850 C1849 1.376 . S
C1850 C1851 1.376 . S
C1851 C1850 1.376 . S
C1851 C1852 1.378 . S
C1851 C1878 1.486 . S
C1852 H1814 0.930 . S
C1852 C1851 1.378 . S
C1852 C1853 1.376 . S
C1853 H1815 0.929 . S
C1853 C1848 1.397 . S
C1853 C1852 1.376 . S
C1854 C1838 1.509 . S
C1854 C1855 1.391 . S
C1854 C1859 1.386 . S
C1855 H1816 0.930 . S
C1855 C1854 1.391 . S
C1855 C1856 1.375 . S
C1856 H1817 0.931 . S
C1856 C1855 1.375 . S
C1856 C1857 1.375 . S
C1857 C1856 1.375 . S
C1857 C1858 1.361 . S
C1858 H1818 0.930 . S
C1858 C1857 1.361 . S
C1858 C1859 1.399 . S
C1859 H1819 0.929 . S
C1859 C1854 1.386 . S
C1859 C1858 1.399 . S
C1860 C1839 1.485 . S
C1860 C1861 1.394 . S
C1860 C1865 1.360 . S
C1861 H1820 0.931 . S
C1861 C1860 1.394 . S
C1861 C1862 1.372 . S
C1862 H1821 0.930 . S
C1862 C1861 1.372 . S
C1862 C1863 1.397 . S
C1863 C1862 1.397 . S
C1863 C1864 1.390 . S
C1863 C1879 1.476 . S
C1864 H1822 0.930 . S
C1864 C1863 1.390 . S
C1864 C1865 1.366 . S
C1865 H1823 0.932 . S
C1865 C1860 1.360 . S
C1865 C1864 1.366 . S
C1866 C1840 1.490 . S
C1866 C1867 1.380 . S
C1866 C1871 1.386 . S
C1867 H1824 0.930 . S
C1867 C1866 1.380 . S
C1867 C1868 1.381 . S
C1868 H1825 0.929 . S
C1868 C1867 1.381 . S
C1868 C1869 1.371 . S
C1869 C1868 1.371 . S
C1869 C1870 1.380 . S
C1870 H1826 0.931 . S
C1870 C1869 1.380 . S
C1870 C1871 1.387 . S
C1871 H1827 0.930 . S
C1871 C1866 1.386 . S
C1871 C1870 1.387 . S
C1872 C1841 1.519 . S
C1872 C1873 1.377 . S
C1872 C1877 1.361 . S
C1873 H1828 0.929 . S
C1873 C1872 1.377 . S
C1873 C1874 1.386 . S
C1874 H1829 0.931 . S
C1874 C1873 1.386 . S
C1874 C1875 1.363 . S
C1875 C1874 1.363 . S
C1875 C1876 1.385 . S
C1876 H1830 0.930 . S
C1876 C1875 1.385 . S
C1876 C1877 1.396 . S
C1877 H1831 0.929 . S
C1877 C1872 1.361 . S
C1877 C1876 1.396 . S
C1878 O1832 1.300 1_556 S
C1878 O1833 1.209 1_556 S
C1878 C1851 1.486 . S
C1879 O1834 1.199 . S
C1879 O1835 1.297 . S
C1879 C1863 1.476 . S
H1880 O1906 0.856 . S
H1881 O1909 0.854 . S
H1882 C1917 0.930 . S
H1883 C1918 0.930 . S
H1884 C1920 0.930 . S
H1885 C1921 0.930 . S
H1886 C1923 0.931 . S
H1887 C1924 0.930 . S
H1888 C1926 0.930 . S
H1889 C1927 0.929 . S
H1890 C1929 0.930 . S
H1891 C1930 0.931 . S
H1892 C1932 0.930 . S
H1893 C1933 0.929 . S
H1894 C1935 0.931 . S
H1895 C1936 0.930 . S
H1896 C1938 0.930 . S
H1897 C1939 0.932 . S
H1898 C1941 0.930 . S
H1899 C1942 0.929 . S
H1900 C1944 0.931 . S
H1901 C1945 0.930 . S
H1902 C1947 0.929 . S
H1903 C1948 0.931 . S
H1904 C1950 0.930 . S
H1905 C1951 0.929 . S
O1906 H1880 0.856 . S
O1906 C1952 1.300 . S
O1907 C1952 1.209 . S
O1908 C1953 1.199 . S
O1909 H1881 0.854 . S
O1909 C1953 1.297 . S
C1910 C1911 1.404 . S
C1910 C1915 1.397 . S
C1910 C1916 1.492 . S
C1911 C1910 1.404 . S
C1911 C1912 1.396 . S
C1911 C1922 1.492 . S
C1912 C1911 1.396 . S
C1912 C1913 1.397 . S
C1912 C1928 1.509 . S
C1913 C1912 1.397 . S
C1913 C1914 1.412 . S
C1913 C1934 1.485 . S
C1914 C1913 1.412 . S
C1914 C1915 1.388 . S
C1914 C1940 1.490 . S
C1915 C1910 1.397 . S
C1915 C1914 1.388 . S
C1915 C1946 1.519 . S
C1916 C1910 1.492 . S
C1916 C1917 1.363 . S
C1916 C1921 1.390 . S
C1917 H1882 0.930 . S
C1917 C1916 1.363 . S
C1917 C1918 1.372 . S
C1918 H1883 0.930 . S
C1918 C1917 1.372 . S
C1918 C1919 1.383 . S
C1919 C1918 1.383 . S
C1919 C1920 1.395 . S
C1920 H1884 0.930 . S
C1920 C1919 1.395 . S
C1920 C1921 1.362 . S
C1921 H1885 0.930 . S
C1921 C1916 1.390 . S
C1921 C1920 1.362 . S
C1922 C1911 1.492 . S
C1922 C1923 1.377 . S
C1922 C1927 1.397 . S
C1923 H1886 0.931 . S
C1923 C1922 1.377 . S
C1923 C1924 1.376 . S
C1924 H1887 0.930 . S
C1924 C1923 1.376 . S
C1924 C1925 1.376 . S
C1925 C1924 1.376 . S
C1925 C1926 1.378 . S
C1925 C1952 1.486 1_556 S
C1926 H1888 0.930 . S
C1926 C1925 1.378 . S
C1926 C1927 1.376 . S
C1927 H1889 0.929 . S
C1927 C1922 1.397 . S
C1927 C1926 1.376 . S
C1928 C1912 1.509 . S
C1928 C1929 1.391 . S
C1928 C1933 1.386 . S
C1929 H1890 0.930 . S
C1929 C1928 1.391 . S
C1929 C1930 1.375 . S
C1930 H1891 0.931 . S
C1930 C1929 1.375 . S
C1930 C1931 1.375 . S
C1931 C1930 1.375 . S
C1931 C1932 1.361 . S
C1932 H1892 0.930 . S
C1932 C1931 1.361 . S
C1932 C1933 1.399 . S
C1933 H1893 0.929 . S
C1933 C1928 1.386 . S
C1933 C1932 1.399 . S
C1934 C1913 1.485 . S
C1934 C1935 1.394 . S
C1934 C1939 1.360 . S
C1935 H1894 0.931 . S
C1935 C1934 1.394 . S
C1935 C1936 1.372 . S
C1936 H1895 0.930 . S
C1936 C1935 1.372 . S
C1936 C1937 1.397 . S
C1937 C1936 1.397 . S
C1937 C1938 1.390 . S
C1937 C1953 1.476 . S
C1938 H1896 0.930 . S
C1938 C1937 1.390 . S
C1938 C1939 1.366 . S
C1939 H1897 0.932 . S
C1939 C1934 1.360 . S
C1939 C1938 1.366 . S
C1940 C1914 1.490 . S
C1940 C1941 1.380 . S
C1940 C1945 1.386 . S
C1941 H1898 0.930 . S
C1941 C1940 1.380 . S
C1941 C1942 1.381 . S
C1942 H1899 0.929 . S
C1942 C1941 1.381 . S
C1942 C1943 1.371 . S
C1943 C1942 1.371 . S
C1943 C1944 1.380 . S
C1944 H1900 0.931 . S
C1944 C1943 1.380 . S
C1944 C1945 1.387 . S
C1945 H1901 0.930 . S
C1945 C1940 1.386 . S
C1945 C1944 1.387 . S
C1946 C1915 1.519 . S
C1946 C1947 1.377 . S
C1946 C1951 1.361 . S
C1947 H1902 0.929 . S
C1947 C1946 1.377 . S
C1947 C1948 1.386 . S
C1948 H1903 0.931 . S
C1948 C1947 1.386 . S
C1948 C1949 1.363 . S
C1949 C1948 1.363 . S
C1949 C1950 1.385 . S
C1950 H1904 0.930 . S
C1950 C1949 1.385 . S
C1950 C1951 1.396 . S
C1951 H1905 0.929 . S
C1951 C1946 1.361 . S
C1951 C1950 1.396 . S
C1952 O1906 1.300 . S
C1952 O1907 1.209 . S
C1952 C1925 1.486 1_554 S
C1953 O1908 1.199 . S
C1953 O1909 1.297 . S
C1953 C1937 1.476 . S
H1954 O1980 0.856 . S
H1955 O1983 0.854 . S
H1956 C1991 0.930 . S
H1957 C1992 0.930 . S
H1958 C1994 0.930 . S
H1959 C1995 0.930 . S
H1960 C1997 0.931 . S
H1961 C1998 0.889 1_554 S
H1962 C2000 0.930 . S
H1963 C2001 0.929 . S
H1964 C2003 0.930 . S
H1965 C2004 0.931 . S
H1966 C2006 0.930 . S
H1967 C2007 0.929 . S
H1968 C2009 0.931 . S
H1969 C2010 0.930 . S
H1970 C2012 0.930 . S
H1971 C2013 0.932 . S
H1972 C2015 0.930 . S
H1973 C2016 0.929 . S
H1974 C2018 0.931 . S
H1975 C2019 0.930 . S
H1976 C2021 0.929 . S
H1977 C2022 0.931 . S
H1978 C2024 0.930 . S
H1979 C2025 0.929 . S
O1980 H1954 0.856 . S
O1980 C2026 1.300 . S
O1981 C2026 1.209 . S
O1982 C2027 1.199 . S
O1983 H1955 0.854 . S
O1983 C2027 1.297 . S
C1984 C1985 1.404 . S
C1984 C1989 1.397 . S
C1984 C1990 1.492 . S
C1985 C1984 1.404 . S
C1985 C1986 1.396 . S
C1985 C1996 1.492 . S
C1986 C1985 1.396 . S
C1986 C1987 1.397 . S
C1986 C2002 1.509 . S
C1987 C1986 1.397 . S
C1987 C1988 1.412 . S
C1987 C2008 1.485 . S
C1988 C1987 1.412 . S
C1988 C1989 1.388 . S
C1988 C2014 1.490 . S
C1989 C1984 1.397 . S
C1989 C1988 1.388 . S
C1989 C2020 1.519 . S
C1990 C1984 1.492 . S
C1990 C1991 1.363 . S
C1990 C1995 1.390 . S
C1991 H1956 0.930 . S
C1991 C1990 1.363 . S
C1991 C1992 1.372 . S
C1992 H1957 0.930 . S
C1992 C1991 1.372 . S
C1992 C1993 1.383 . S
C1993 C1992 1.383 . S
C1993 C1994 1.395 . S
C1994 H1958 0.930 . S
C1994 C1993 1.395 . S
C1994 C1995 1.362 . S
C1995 H1959 0.930 . S
C1995 C1990 1.390 . S
C1995 C1994 1.362 . S
C1996 C1985 1.492 . S
C1996 C1997 1.377 . S
C1996 C2001 1.397 . S
C1997 H1960 0.931 . S
C1997 C1996 1.377 . S
C1997 C1998 1.376 . S
C1998 H1961 0.889 1_556 S
C1998 C1997 1.376 . S
C1998 C1999 1.376 . S
C1999 C1998 1.376 . S
C1999 C2000 1.378 . S
C1999 C2026 1.486 1_556 S
C2000 H1962 0.930 . S
C2000 C1999 1.378 . S
C2000 C2001 1.376 . S
C2001 H1963 0.929 . S
C2001 C1996 1.397 . S
C2001 C2000 1.376 . S
C2002 C1986 1.509 . S
C2002 C2003 1.391 . S
C2002 C2007 1.386 . S
C2003 H1964 0.930 . S
C2003 C2002 1.391 . S
C2003 C2004 1.375 . S
C2004 H1965 0.931 . S
C2004 C2003 1.375 . S
C2004 C2005 1.375 . S
C2005 C2004 1.375 . S
C2005 C2006 1.361 . S
C2006 H1966 0.930 . S
C2006 C2005 1.361 . S
C2006 C2007 1.399 . S
C2007 H1967 0.929 . S
C2007 C2002 1.386 . S
C2007 C2006 1.399 . S
C2008 C1987 1.485 . S
C2008 C2009 1.394 . S
C2008 C2013 1.360 . S
C2009 H1968 0.931 . S
C2009 C2008 1.394 . S
C2009 C2010 1.372 . S
C2010 H1969 0.930 . S
C2010 C2009 1.372 . S
C2010 C2011 1.397 . S
C2011 C2010 1.397 . S
C2011 C2012 1.390 . S
C2011 C2027 1.476 . S
C2012 H1970 0.930 . S
C2012 C2011 1.390 . S
C2012 C2013 1.366 . S
C2013 H1971 0.932 . S
C2013 C2008 1.360 . S
C2013 C2012 1.366 . S
C2014 C1988 1.490 . S
C2014 C2015 1.380 . S
C2014 C2019 1.386 . S
C2015 H1972 0.930 . S
C2015 C2014 1.380 . S
C2015 C2016 1.381 . S
C2016 H1973 0.929 . S
C2016 C2015 1.381 . S
C2016 C2017 1.371 . S
C2017 C2016 1.371 . S
C2017 C2018 1.380 . S
C2018 H1974 0.931 . S
C2018 C2017 1.380 . S
C2018 C2019 1.387 . S
C2019 H1975 0.930 . S
C2019 C2014 1.386 . S
C2019 C2018 1.387 . S
C2020 C1989 1.519 . S
C2020 C2021 1.377 . S
C2020 C2025 1.361 . S
C2021 H1976 0.929 . S
C2021 C2020 1.377 . S
C2021 C2022 1.386 . S
C2022 H1977 0.931 . S
C2022 C2021 1.386 . S
C2022 C2023 1.363 . S
C2023 C2022 1.363 . S
C2023 C2024 1.385 . S
C2024 H1978 0.930 . S
C2024 C2023 1.385 . S
C2024 C2025 1.396 . S
C2025 H1979 0.929 . S
C2025 C2020 1.361 . S
C2025 C2024 1.396 . S
C2026 O1980 1.300 . S
C2026 O1981 1.209 . S
C2026 C1999 1.486 1_554 S
C2027 O1982 1.199 . S
C2027 O1983 1.297 . S
C2027 C2011 1.476 . S
H2028 O2054 0.856 . S
H2029 O2057 0.854 . S
H2030 C2065 0.930 . S
H2031 C2066 0.930 . S
H2032 C2068 0.930 . S
H2033 C2069 0.930 . S
H2034 C2071 0.931 . S
H2035 C2072 0.930 . S
H2036 C2074 0.930 . S
H2037 C2075 0.929 . S
H2038 C2077 0.930 . S
H2039 C2078 0.931 . S
H2040 C2080 0.930 . S
H2041 C2081 0.929 . S
H2042 C2083 0.931 . S
H2043 C2084 0.930 . S
H2044 C2086 0.930 . S
H2045 C2087 0.932 . S
H2046 C2089 0.930 . S
H2047 C2090 0.929 . S
H2048 C2092 0.931 . S
H2049 C2093 0.930 . S
H2050 C2095 0.929 . S
H2051 C2096 0.931 . S
H2052 C2098 0.930 . S
H2053 C2099 0.929 . S
O2054 H2028 0.856 . S
O2054 C2100 1.300 . S
O2055 C2100 1.209 . S
O2056 C2101 1.199 . S
O2057 H2029 0.854 . S
O2057 C2101 1.297 . S
C2058 C2059 1.404 . S
C2058 C2063 1.397 . S
C2058 C2064 1.492 . S
C2059 C2058 1.404 . S
C2059 C2060 1.396 . S
C2059 C2070 1.492 . S
C2060 C2059 1.396 . S
C2060 C2061 1.397 . S
C2060 C2076 1.509 . S
C2061 C2060 1.397 . S
C2061 C2062 1.412 . S
C2061 C2082 1.485 . S
C2062 C2061 1.412 . S
C2062 C2063 1.388 . S
C2062 C2088 1.490 . S
C2063 C2058 1.397 . S
C2063 C2062 1.388 . S
C2063 C2094 1.519 . S
C2064 C2058 1.492 . S
C2064 C2065 1.363 . S
C2064 C2069 1.390 . S
C2065 H2030 0.930 . S
C2065 C2064 1.363 . S
C2065 C2066 1.372 . S
C2066 H2031 0.930 . S
C2066 C2065 1.372 . S
C2066 C2067 1.383 . S
C2067 C2066 1.383 . S
C2067 C2068 1.395 . S
C2068 H2032 0.930 . S
C2068 C2067 1.395 . S
C2068 C2069 1.362 . S
C2069 H2033 0.930 . S
C2069 C2064 1.390 . S
C2069 C2068 1.362 . S
C2070 C2059 1.492 . S
C2070 C2071 1.377 . S
C2070 C2075 1.397 . S
C2071 H2034 0.931 . S
C2071 C2070 1.377 . S
C2071 C2072 1.376 . S
C2072 H2035 0.930 . S
C2072 C2071 1.376 . S
C2072 C2073 1.376 . S
C2073 C2072 1.376 . S
C2073 C2074 1.378 . S
C2073 C2100 1.486 . S
C2074 H2036 0.930 . S
C2074 C2073 1.378 . S
C2074 C2075 1.376 . S
C2075 H2037 0.929 . S
C2075 C2070 1.397 . S
C2075 C2074 1.376 . S
C2076 C2060 1.509 . S
C2076 C2077 1.391 . S
C2076 C2081 1.386 . S
C2077 H2038 0.930 . S
C2077 C2076 1.391 . S
C2077 C2078 1.375 . S
C2078 H2039 0.931 . S
C2078 C2077 1.375 . S
C2078 C2079 1.375 . S
C2079 C2078 1.375 . S
C2079 C2080 1.361 . S
C2080 H2040 0.930 . S
C2080 C2079 1.361 . S
C2080 C2081 1.399 . S
C2081 H2041 0.929 . S
C2081 C2076 1.386 . S
C2081 C2080 1.399 . S
C2082 C2061 1.485 . S
C2082 C2083 1.394 . S
C2082 C2087 1.360 . S
C2083 H2042 0.931 . S
C2083 C2082 1.394 . S
C2083 C2084 1.372 . S
C2084 H2043 0.930 . S
C2084 C2083 1.372 . S
C2084 C2085 1.397 . S
C2085 C2084 1.397 . S
C2085 C2086 1.390 . S
C2085 C2101 1.476 . S
C2086 H2044 0.930 . S
C2086 C2085 1.390 . S
C2086 C2087 1.366 . S
C2087 H2045 0.932 . S
C2087 C2082 1.360 . S
C2087 C2086 1.366 . S
C2088 C2062 1.490 . S
C2088 C2089 1.380 . S
C2088 C2093 1.386 . S
C2089 H2046 0.930 . S
C2089 C2088 1.380 . S
C2089 C2090 1.381 . S
C2090 H2047 0.929 . S
C2090 C2089 1.381 . S
C2090 C2091 1.371 . S
C2091 C2090 1.371 . S
C2091 C2092 1.380 . S
C2092 H2048 0.931 . S
C2092 C2091 1.380 . S
C2092 C2093 1.387 . S
C2093 H2049 0.930 . S
C2093 C2088 1.386 . S
C2093 C2092 1.387 . S
C2094 C2063 1.519 . S
C2094 C2095 1.377 . S
C2094 C2099 1.361 . S
C2095 H2050 0.929 . S
C2095 C2094 1.377 . S
C2095 C2096 1.386 . S
C2096 H2051 0.931 . S
C2096 C2095 1.386 . S
C2096 C2097 1.363 . S
C2097 C2096 1.363 . S
C2097 C2098 1.385 . S
C2098 H2052 0.930 . S
C2098 C2097 1.385 . S
C2098 C2099 1.396 . S
C2099 H2053 0.929 . S
C2099 C2094 1.361 . S
C2099 C2098 1.396 . S
C2100 O2054 1.300 . S
C2100 O2055 1.209 . S
C2100 C2073 1.486 . S
C2101 O2056 1.199 . S
C2101 O2057 1.297 . S
C2101 C2085 1.476 . S
H2102 O2128 0.856 . S
H2103 O2131 0.854 . S
H2104 C2139 0.930 . S
H2105 C2140 0.930 . S
H2106 C2142 0.930 . S
H2107 C2143 0.930 . S
H2108 C2145 0.931 . S
H2109 C2146 0.930 . S
H2110 C2148 0.930 . S
H2111 C2149 0.929 . S
H2112 C2151 0.930 . S
H2113 C2152 0.931 . S
H2114 C2154 0.930 . S
H2115 C2155 0.929 . S
H2116 C2157 0.931 . S
H2117 C2158 0.930 . S
H2118 C2160 0.930 . S
H2119 C2161 0.932 . S
H2120 C2163 0.930 . S
H2121 C2164 0.929 . S
H2122 C2166 0.931 . S
H2123 C2167 0.930 . S
H2124 C2169 0.929 . S
H2125 C2170 0.931 . S
H2126 C2172 0.930 . S
H2127 C2173 0.929 . S
O2128 H2102 0.856 . S
O2128 C2174 1.300 . S
O2129 C2174 1.209 . S
O2130 C2175 1.199 . S
O2131 H2103 0.854 . S
O2131 C2175 1.297 . S
C2132 C2133 1.404 . S
C2132 C2137 1.397 . S
C2132 C2138 1.492 . S
C2133 C2132 1.404 . S
C2133 C2134 1.396 . S
C2133 C2144 1.492 . S
C2134 C2133 1.396 . S
C2134 C2135 1.397 . S
C2134 C2150 1.509 . S
C2135 C2134 1.397 . S
C2135 C2136 1.412 . S
C2135 C2156 1.485 . S
C2136 C2135 1.412 . S
C2136 C2137 1.388 . S
C2136 C2162 1.490 . S
C2137 C2132 1.397 . S
C2137 C2136 1.388 . S
C2137 C2168 1.519 . S
C2138 C2132 1.492 . S
C2138 C2139 1.363 . S
C2138 C2143 1.390 . S
C2139 H2104 0.930 . S
C2139 C2138 1.363 . S
C2139 C2140 1.372 . S
C2140 H2105 0.930 . S
C2140 C2139 1.372 . S
C2140 C2141 1.383 . S
C2141 C2140 1.383 . S
C2141 C2142 1.395 . S
C2142 H2106 0.930 . S
C2142 C2141 1.395 . S
C2142 C2143 1.362 . S
C2143 H2107 0.930 . S
C2143 C2138 1.390 . S
C2143 C2142 1.362 . S
C2144 C2133 1.492 . S
C2144 C2145 1.377 . S
C2144 C2149 1.397 . S
C2145 H2108 0.931 . S
C2145 C2144 1.377 . S
C2145 C2146 1.376 . S
C2146 H2109 0.930 . S
C2146 C2145 1.376 . S
C2146 C2147 1.376 . S
C2147 C2146 1.376 . S
C2147 C2148 1.378 . S
C2147 C2174 1.486 . S
C2148 H2110 0.930 . S
C2148 C2147 1.378 . S
C2148 C2149 1.376 . S
C2149 H2111 0.929 . S
C2149 C2144 1.397 . S
C2149 C2148 1.376 . S
C2150 C2134 1.509 . S
C2150 C2151 1.391 . S
C2150 C2155 1.386 . S
C2151 H2112 0.930 . S
C2151 C2150 1.391 . S
C2151 C2152 1.375 . S
C2152 H2113 0.931 . S
C2152 C2151 1.375 . S
C2152 C2153 1.375 . S
C2153 C2152 1.375 . S
C2153 C2154 1.361 . S
C2154 H2114 0.930 . S
C2154 C2153 1.361 . S
C2154 C2155 1.399 . S
C2155 H2115 0.929 . S
C2155 C2150 1.386 . S
C2155 C2154 1.399 . S
C2156 C2135 1.485 . S
C2156 C2157 1.394 . S
C2156 C2161 1.360 . S
C2157 H2116 0.931 . S
C2157 C2156 1.394 . S
C2157 C2158 1.372 . S
C2158 H2117 0.930 . S
C2158 C2157 1.372 . S
C2158 C2159 1.397 . S
C2159 C2158 1.397 . S
C2159 C2160 1.390 . S
C2159 C2175 1.476 . S
C2160 H2118 0.930 . S
C2160 C2159 1.390 . S
C2160 C2161 1.366 . S
C2161 H2119 0.932 . S
C2161 C2156 1.360 . S
C2161 C2160 1.366 . S
C2162 C2136 1.490 . S
C2162 C2163 1.380 . S
C2162 C2167 1.386 . S
C2163 H2120 0.930 . S
C2163 C2162 1.380 . S
C2163 C2164 1.381 . S
C2164 H2121 0.929 . S
C2164 C2163 1.381 . S
C2164 C2165 1.371 . S
C2165 C2164 1.371 . S
C2165 C2166 1.380 . S
C2166 H2122 0.931 . S
C2166 C2165 1.380 . S
C2166 C2167 1.387 . S
C2167 H2123 0.930 . S
C2167 C2162 1.386 . S
C2167 C2166 1.387 . S
C2168 C2137 1.519 . S
C2168 C2169 1.377 . S
C2168 C2173 1.361 . S
C2169 H2124 0.929 . S
C2169 C2168 1.377 . S
C2169 C2170 1.386 . S
C2170 H2125 0.931 . S
C2170 C2169 1.386 . S
C2170 C2171 1.363 . S
C2171 C2170 1.363 . S
C2171 C2172 1.385 . S
C2172 H2126 0.930 . S
C2172 C2171 1.385 . S
C2172 C2173 1.396 . S
C2173 H2127 0.929 . S
C2173 C2168 1.361 . S
C2173 C2172 1.396 . S
C2174 O2128 1.300 . S
C2174 O2129 1.209 . S
C2174 C2147 1.486 . S
C2175 O2130 1.199 . S
C2175 O2131 1.297 . S
C2175 C2159 1.476 . S
H2176 O2202 0.856 . S
H2177 O2205 0.854 . S
H2178 C2213 0.930 . S
H2179 C2214 0.930 . S
H2180 C2216 0.930 . S
H2181 C2217 0.930 . S
H2182 C2219 0.931 . S
H2183 C2220 0.930 . S
H2184 C2222 0.930 . S
H2185 C2223 0.929 . S
H2186 C2225 0.930 . S
H2187 C2226 0.931 . S
H2188 C2228 0.930 . S
H2189 C2229 0.929 . S
H2190 C2231 0.931 . S
H2191 C2232 0.930 . S
H2192 C2234 0.930 . S
H2193 C2235 0.932 . S
H2194 C2237 0.930 . S
H2195 C2238 0.929 . S
H2196 C2240 0.931 . S
H2197 C2241 0.930 . S
H2198 C2243 0.929 . S
H2199 C2244 0.931 . S
H2200 C2246 0.930 . S
H2201 C2247 0.929 . S
O2202 H2176 0.856 . S
O2202 C2248 1.300 . S
O2203 C2248 1.209 . S
O2204 C2249 1.199 . S
O2205 H2177 0.854 . S
O2205 C2249 1.297 . S
C2206 C2207 1.404 . S
C2206 C2211 1.397 . S
C2206 C2212 1.492 . S
C2207 C2206 1.404 . S
C2207 C2208 1.396 . S
C2207 C2218 1.492 . S
C2208 C2207 1.396 . S
C2208 C2209 1.397 . S
C2208 C2224 1.509 . S
C2209 C2208 1.397 . S
C2209 C2210 1.412 . S
C2209 C2230 1.485 . S
C2210 C2209 1.412 . S
C2210 C2211 1.388 . S
C2210 C2236 1.490 . S
C2211 C2206 1.397 . S
C2211 C2210 1.388 . S
C2211 C2242 1.519 . S
C2212 C2206 1.492 . S
C2212 C2213 1.363 . S
C2212 C2217 1.390 . S
C2213 H2178 0.930 . S
C2213 C2212 1.363 . S
C2213 C2214 1.372 . S
C2214 H2179 0.930 . S
C2214 C2213 1.372 . S
C2214 C2215 1.383 . S
C2215 C2214 1.383 . S
C2215 C2216 1.395 . S
C2216 H2180 0.930 . S
C2216 C2215 1.395 . S
C2216 C2217 1.362 . S
C2217 H2181 0.930 . S
C2217 C2212 1.390 . S
C2217 C2216 1.362 . S
C2218 C2207 1.492 . S
C2218 C2219 1.377 . S
C2218 C2223 1.397 . S
C2219 H2182 0.931 . S
C2219 C2218 1.377 . S
C2219 C2220 1.376 . S
C2220 H2183 0.930 . S
C2220 C2219 1.376 . S
C2220 C2221 1.376 . S
C2221 C2220 1.376 . S
C2221 C2222 1.378 . S
C2221 C2248 1.486 . S
C2222 H2184 0.930 . S
C2222 C2221 1.378 . S
C2222 C2223 1.376 . S
C2223 H2185 0.929 . S
C2223 C2218 1.397 . S
C2223 C2222 1.376 . S
C2224 C2208 1.509 . S
C2224 C2225 1.391 . S
C2224 C2229 1.386 . S
C2225 H2186 0.930 . S
C2225 C2224 1.391 . S
C2225 C2226 1.375 . S
C2226 H2187 0.931 . S
C2226 C2225 1.375 . S
C2226 C2227 1.375 . S
C2227 C2226 1.375 . S
C2227 C2228 1.361 . S
C2228 H2188 0.930 . S
C2228 C2227 1.361 . S
C2228 C2229 1.399 . S
C2229 H2189 0.929 . S
C2229 C2224 1.386 . S
C2229 C2228 1.399 . S
C2230 C2209 1.485 . S
C2230 C2231 1.394 . S
C2230 C2235 1.360 . S
C2231 H2190 0.931 . S
C2231 C2230 1.394 . S
C2231 C2232 1.372 . S
C2232 H2191 0.930 . S
C2232 C2231 1.372 . S
C2232 C2233 1.397 . S
C2233 C2232 1.397 . S
C2233 C2234 1.390 . S
C2233 C2249 1.476 . S
C2234 H2192 0.930 . S
C2234 C2233 1.390 . S
C2234 C2235 1.366 . S
C2235 H2193 0.932 . S
C2235 C2230 1.360 . S
C2235 C2234 1.366 . S
C2236 C2210 1.490 . S
C2236 C2237 1.380 . S
C2236 C2241 1.386 . S
C2237 H2194 0.930 . S
C2237 C2236 1.380 . S
C2237 C2238 1.381 . S
C2238 H2195 0.929 . S
C2238 C2237 1.381 . S
C2238 C2239 1.371 . S
C2239 C2238 1.371 . S
C2239 C2240 1.380 . S
C2240 H2196 0.931 . S
C2240 C2239 1.380 . S
C2240 C2241 1.387 . S
C2241 H2197 0.930 . S
C2241 C2236 1.386 . S
C2241 C2240 1.387 . S
C2242 C2211 1.519 . S
C2242 C2243 1.377 . S
C2242 C2247 1.361 . S
C2243 H2198 0.929 . S
C2243 C2242 1.377 . S
C2243 C2244 1.386 . S
C2244 H2199 0.931 . S
C2244 C2243 1.386 . S
C2244 C2245 1.363 . S
C2245 C2244 1.363 . S
C2245 C2246 1.385 . S
C2246 H2200 0.930 . S
C2246 C2245 1.385 . S
C2246 C2247 1.396 . S
C2247 H2201 0.929 . S
C2247 C2242 1.361 . S
C2247 C2246 1.396 . S
C2248 O2202 1.300 . S
C2248 O2203 1.209 . S
C2248 C2221 1.486 . S
C2249 O2204 1.199 . S
C2249 O2205 1.297 . S
C2249 C2233 1.476 . S
H2250 O2276 0.856 . S
H2251 O2279 0.854 . S
H2252 C2287 0.930 . S
H2253 C2288 0.930 . S
H2254 C2290 0.930 . S
H2255 C2291 0.930 . S
H2256 C2293 0.931 . S
H2257 C2294 0.930 1_655 S
H2258 C2296 0.930 . S
H2259 C2297 0.929 . S
H2260 C2299 0.930 . S
H2261 C2300 0.907 1_655 S
H2262 C2302 0.930 . S
H2263 C2303 0.929 . S
H2264 C2305 0.931 . S
H2265 C2306 0.930 . S
H2266 C2308 0.930 . S
H2267 C2309 0.932 . S
H2268 C2311 0.930 . S
H2269 C2312 0.929 . S
H2270 C2314 0.931 . S
H2271 C2315 0.930 . S
H2272 C2317 0.929 . S
H2273 C2318 0.931 . S
H2274 C2320 0.930 . S
H2275 C2321 0.929 . S
O2276 H2250 0.856 . S
O2276 C2322 1.300 . S
O2277 C2322 1.209 . S
O2278 C2323 1.199 1_655 S
O2279 H2251 0.854 . S
O2279 C2323 1.297 . S
C2280 C2281 1.404 . S
C2280 C2285 1.395 . S
C2280 C2286 1.492 . S
C2281 C2280 1.404 . S
C2281 C2282 1.396 . S
C2281 C2292 1.492 . S
C2282 C2281 1.396 . S
C2282 C2283 1.397 . S
C2282 C2298 1.509 . S
C2283 C2282 1.397 . S
C2283 C2284 1.423 . S
C2283 C2304 1.485 . S
C2284 C2283 1.423 . S
C2284 C2285 1.405 . S
C2284 C2310 1.490 1_455 S
C2285 C2280 1.395 . S
C2285 C2284 1.405 . S
C2285 C2316 1.487 1_455 S
C2286 C2280 1.492 . S
C2286 C2287 1.363 1_455 S
C2286 C2291 1.390 . S
C2287 H2252 0.930 . S
C2287 C2286 1.363 1_655 S
C2287 C2288 1.372 . S
C2288 H2253 0.930 . S
C2288 C2287 1.372 . S
C2288 C2289 1.383 . S
C2289 C2288 1.383 . S
C2289 C2290 1.395 1_655 S
C2290 H2254 0.930 . S
C2290 C2289 1.395 1_455 S
C2290 C2291 1.362 . S
C2291 H2255 0.930 . S
C2291 C2286 1.390 . S
C2291 C2290 1.362 . S
C2292 C2281 1.492 . S
C2292 C2293 1.377 1_455 S
C2292 C2297 1.397 . S
C2293 H2256 0.931 . S
C2293 C2292 1.377 1_655 S
C2293 C2294 1.376 1_655 S
C2294 H2257 0.930 1_455 S
C2294 C2293 1.376 1_455 S
C2294 C2295 1.376 . S
C2295 C2294 1.376 . S
C2295 C2296 1.378 . S
C2295 C2322 1.486 . S
C2296 H2258 0.930 . S
C2296 C2295 1.378 . S
C2296 C2297 1.376 . S
C2297 H2259 0.929 . S
C2297 C2292 1.397 . S
C2297 C2296 1.376 . S
C2298 C2282 1.509 . S
C2298 C2299 1.391 1_455 S
C2298 C2303 1.386 . S
C2299 H2260 0.930 . S
C2299 C2298 1.391 1_655 S
C2299 C2300 1.341 1_655 S
C2300 H2261 0.907 1_455 S
C2300 C2299 1.341 1_455 S
C2300 C2301 1.436 . S
C2301 C2300 1.436 . S
C2301 C2302 1.361 . S
C2302 H2262 0.930 . S
C2302 C2301 1.361 . S
C2302 C2303 1.399 . S
C2303 H2263 0.929 . S
C2303 C2298 1.386 . S
C2303 C2302 1.399 . S
C2304 C2283 1.485 . S
C2304 C2305 1.394 1_455 S
C2304 C2309 1.360 . S
C2305 H2264 0.931 . S
C2305 C2304 1.394 1_655 S
C2305 C2306 1.372 . S
C2306 H2265 0.930 . S
C2306 C2305 1.372 . S
C2306 C2307 1.397 1_655 S
C2307 C2306 1.397 1_455 S
C2307 C2308 1.390 . S
C2307 C2323 1.476 . S
C2308 H2266 0.930 . S
C2308 C2307 1.390 . S
C2308 C2309 1.366 . S
C2309 H2267 0.932 . S
C2309 C2304 1.360 . S
C2309 C2308 1.366 . S
C2310 C2284 1.490 1_655 S
C2310 C2311 1.380 . S
C2310 C2315 1.386 1_655 S
C2311 H2268 0.930 . S
C2311 C2310 1.380 . S
C2311 C2312 1.381 . S
C2312 H2269 0.929 . S
C2312 C2311 1.381 . S
C2312 C2313 1.371 . S
C2313 C2312 1.371 . S
C2313 C2314 1.380 1_655 S
C2314 H2270 0.931 . S
C2314 C2313 1.380 1_455 S
C2314 C2315 1.387 . S
C2315 H2271 0.930 . S
C2315 C2310 1.386 1_455 S
C2315 C2314 1.387 . S
C2316 C2285 1.487 1_655 S
C2316 C2317 1.411 . S
C2316 C2321 1.339 1_655 S
C2317 H2272 0.929 . S
C2317 C2316 1.411 . S
C2317 C2318 1.386 . S
C2318 H2273 0.931 . S
C2318 C2317 1.386 . S
C2318 C2319 1.386 . S
C2319 C2318 1.386 . S
C2319 C2320 1.351 1_655 S
C2320 H2274 0.930 . S
C2320 C2319 1.351 1_455 S
C2320 C2321 1.396 . S
C2321 H2275 0.929 . S
C2321 C2316 1.339 1_455 S
C2321 C2320 1.396 . S
C2322 O2276 1.300 . S
C2322 O2277 1.209 . S
C2322 C2295 1.486 . S
C2323 O2278 1.199 1_455 S
C2323 O2279 1.297 . S
C2323 C2307 1.476 . S
H2324 O2350 0.856 . S
H2325 O2353 0.854 . S
H2326 C2361 0.930 . S
H2327 C2362 0.930 . S
H2328 C2364 0.930 . S
H2329 C2365 0.930 . S
H2330 C2367 0.931 . S
H2331 C2368 0.930 . S
H2332 C2370 0.930 . S
H2333 C2371 0.929 . S
H2334 C2373 0.930 . S
H2335 C2374 0.931 . S
H2336 C2376 0.930 . S
H2337 C2377 0.929 . S
H2338 C2379 0.931 . S
H2339 C2380 0.930 . S
H2340 C2382 0.930 . S
H2341 C2383 0.932 . S
H2342 C2385 0.930 . S
H2343 C2386 0.929 . S
H2344 C2388 0.931 . S
H2345 C2389 0.930 . S
H2346 C2391 0.929 . S
H2347 C2392 0.931 . S
H2348 C2394 0.930 . S
H2349 C2395 0.929 . S
O2350 H2324 0.856 . S
O2350 C2396 1.300 . S
O2351 C2396 1.209 . S
O2352 C2397 1.199 . S
O2353 H2325 0.854 . S
O2353 C2397 1.297 . S
C2354 C2355 1.404 . S
C2354 C2359 1.397 . S
C2354 C2360 1.492 . S
C2355 C2354 1.404 . S
C2355 C2356 1.396 . S
C2355 C2366 1.492 . S
C2356 C2355 1.396 . S
C2356 C2357 1.397 . S
C2356 C2372 1.509 . S
C2357 C2356 1.397 . S
C2357 C2358 1.412 . S
C2357 C2378 1.485 . S
C2358 C2357 1.412 . S
C2358 C2359 1.388 . S
C2358 C2384 1.490 . S
C2359 C2354 1.397 . S
C2359 C2358 1.388 . S
C2359 C2390 1.519 . S
C2360 C2354 1.492 . S
C2360 C2361 1.363 . S
C2360 C2365 1.390 . S
C2361 H2326 0.930 . S
C2361 C2360 1.363 . S
C2361 C2362 1.372 . S
C2362 H2327 0.930 . S
C2362 C2361 1.372 . S
C2362 C2363 1.383 . S
C2363 C2362 1.383 . S
C2363 C2364 1.395 . S
C2364 H2328 0.930 . S
C2364 C2363 1.395 . S
C2364 C2365 1.362 . S
C2365 H2329 0.930 . S
C2365 C2360 1.390 . S
C2365 C2364 1.362 . S
C2366 C2355 1.492 . S
C2366 C2367 1.377 . S
C2366 C2371 1.397 . S
C2367 H2330 0.931 . S
C2367 C2366 1.377 . S
C2367 C2368 1.376 . S
C2368 H2331 0.930 . S
C2368 C2367 1.376 . S
C2368 C2369 1.376 . S
C2369 C2368 1.376 . S
C2369 C2370 1.378 . S
C2369 C2396 1.486 . S
C2370 H2332 0.930 . S
C2370 C2369 1.378 . S
C2370 C2371 1.376 . S
C2371 H2333 0.929 . S
C2371 C2366 1.397 . S
C2371 C2370 1.376 . S
C2372 C2356 1.509 . S
C2372 C2373 1.391 . S
C2372 C2377 1.386 . S
C2373 H2334 0.930 . S
C2373 C2372 1.391 . S
C2373 C2374 1.375 . S
C2374 H2335 0.931 . S
C2374 C2373 1.375 . S
C2374 C2375 1.375 . S
C2375 C2374 1.375 . S
C2375 C2376 1.361 . S
C2376 H2336 0.930 . S
C2376 C2375 1.361 . S
C2376 C2377 1.399 . S
C2377 H2337 0.929 . S
C2377 C2372 1.386 . S
C2377 C2376 1.399 . S
C2378 C2357 1.485 . S
C2378 C2379 1.394 . S
C2378 C2383 1.360 . S
C2379 H2338 0.931 . S
C2379 C2378 1.394 . S
C2379 C2380 1.372 . S
C2380 H2339 0.930 . S
C2380 C2379 1.372 . S
C2380 C2381 1.397 . S
C2381 C2380 1.397 . S
C2381 C2382 1.390 . S
C2381 C2397 1.476 . S
C2382 H2340 0.930 . S
C2382 C2381 1.390 . S
C2382 C2383 1.366 . S
C2383 H2341 0.932 . S
C2383 C2378 1.360 . S
C2383 C2382 1.366 . S
C2384 C2358 1.490 . S
C2384 C2385 1.380 . S
C2384 C2389 1.386 . S
C2385 H2342 0.930 . S
C2385 C2384 1.380 . S
C2385 C2386 1.381 . S
C2386 H2343 0.929 . S
C2386 C2385 1.381 . S
C2386 C2387 1.371 . S
C2387 C2386 1.371 . S
C2387 C2388 1.380 . S
C2388 H2344 0.931 . S
C2388 C2387 1.380 . S
C2388 C2389 1.387 . S
C2389 H2345 0.930 . S
C2389 C2384 1.386 . S
C2389 C2388 1.387 . S
C2390 C2359 1.519 . S
C2390 C2391 1.377 . S
C2390 C2395 1.361 . S
C2391 H2346 0.929 . S
C2391 C2390 1.377 . S
C2391 C2392 1.386 . S
C2392 H2347 0.931 . S
C2392 C2391 1.386 . S
C2392 C2393 1.363 . S
C2393 C2392 1.363 . S
C2393 C2394 1.385 . S
C2394 H2348 0.930 . S
C2394 C2393 1.385 . S
C2394 C2395 1.396 . S
C2395 H2349 0.929 . S
C2395 C2390 1.361 . S
C2395 C2394 1.396 . S
C2396 O2350 1.300 . S
C2396 O2351 1.209 . S
C2396 C2369 1.486 . S
C2397 O2352 1.199 . S
C2397 O2353 1.297 . S
C2397 C2381 1.476 . S
H2398 O2424 0.856 . S
H2399 O2427 0.854 . S
H2400 C2435 0.930 . S
H2401 C2436 0.930 . S
H2402 C2438 0.930 . S
H2403 C2439 0.930 . S
H2404 C2441 0.931 . S
H2405 C2442 0.926 . S
H2406 C2444 0.930 . S
H2407 C2445 0.929 . S
H2408 C2447 0.930 . S
H2409 C2448 0.992 . S
H2410 C2450 0.930 . S
H2411 C2451 0.929 . S
H2412 C2453 0.931 . S
H2413 C2454 0.930 . S
H2414 C2456 0.930 . S
H2415 C2457 0.932 . S
H2416 C2459 0.930 . S
H2417 C2460 0.929 . S
H2418 C2462 0.931 . S
H2419 C2463 0.930 . S
H2420 C2465 0.929 . S
H2421 C2466 0.931 . S
H2422 C2468 0.930 . S
H2423 C2469 0.929 . S
O2424 H2398 0.856 . S
O2424 C2470 1.300 . S
O2425 C2470 1.209 . S
O2426 C2471 1.199 1_545 S
O2427 H2399 0.854 . S
O2427 C2471 1.297 . S
C2428 C2429 1.404 . S
C2428 C2433 1.413 . S
C2428 C2434 1.492 . S
C2429 C2428 1.404 . S
C2429 C2430 1.396 . S
C2429 C2440 1.492 . S
C2430 C2429 1.396 . S
C2430 C2431 1.397 . S
C2430 C2446 1.509 . S
C2431 C2430 1.397 . S
C2431 C2432 1.410 . S
C2431 C2452 1.485 . S
C2432 C2431 1.410 . S
C2432 C2433 1.368 . S
C2432 C2458 1.487 1_565 S
C2433 C2428 1.413 . S
C2433 C2432 1.368 . S
C2433 C2464 1.535 1_565 S
C2434 C2428 1.492 . S
C2434 C2435 1.363 1_565 S
C2434 C2439 1.390 . S
C2435 H2400 0.930 . S
C2435 C2434 1.363 1_545 S
C2435 C2436 1.372 . S
C2436 H2401 0.930 . S
C2436 C2435 1.372 . S
C2436 C2437 1.383 . S
C2437 C2436 1.383 . S
C2437 C2438 1.395 1_545 S
C2438 H2402 0.930 . S
C2438 C2437 1.395 1_565 S
C2438 C2439 1.362 . S
C2439 H2403 0.930 . S
C2439 C2434 1.390 . S
C2439 C2438 1.362 . S
C2440 C2429 1.492 . S
C2440 C2441 1.377 1_565 S
C2440 C2445 1.397 . S
C2441 H2404 0.931 . S
C2441 C2440 1.377 1_545 S
C2441 C2442 1.374 . S
C2442 H2405 0.926 . S
C2442 C2441 1.374 . S
C2442 C2443 1.382 1_545 S
C2443 C2442 1.382 1_565 S
C2443 C2444 1.378 . S
C2443 C2470 1.486 . S
C2444 H2406 0.930 . S
C2444 C2443 1.378 . S
C2444 C2445 1.376 . S
C2445 H2407 0.929 . S
C2445 C2440 1.397 . S
C2445 C2444 1.376 . S
C2446 C2430 1.509 . S
C2446 C2447 1.391 1_565 S
C2446 C2451 1.386 . S
C2447 H2408 0.930 . S
C2447 C2446 1.391 1_545 S
C2447 C2448 1.366 . S
C2448 H2409 0.992 . S
C2448 C2447 1.366 . S
C2448 C2449 1.327 1_545 S
C2449 C2448 1.327 1_565 S
C2449 C2450 1.361 . S
C2450 H2410 0.930 . S
C2450 C2449 1.361 . S
C2450 C2451 1.399 . S
C2451 H2411 0.929 . S
C2451 C2446 1.386 . S
C2451 C2450 1.399 . S
C2452 C2431 1.485 . S
C2452 C2453 1.394 1_565 S
C2452 C2457 1.360 . S
C2453 H2412 0.931 . S
C2453 C2452 1.394 1_545 S
C2453 C2454 1.372 . S
C2454 H2413 0.930 . S
C2454 C2453 1.372 . S
C2454 C2455 1.397 1_545 S
C2455 C2454 1.397 1_565 S
C2455 C2456 1.390 . S
C2455 C2471 1.476 . S
C2456 H2414 0.930 . S
C2456 C2455 1.390 . S
C2456 C2457 1.366 . S
C2457 H2415 0.932 . S
C2457 C2452 1.360 . S
C2457 C2456 1.366 . S
C2458 C2432 1.487 1_545 S
C2458 C2459 1.380 . S
C2458 C2463 1.386 1_545 S
C2459 H2416 0.930 . S
C2459 C2458 1.380 . S
C2459 C2460 1.381 . S
C2460 H2417 0.929 . S
C2460 C2459 1.381 . S
C2460 C2461 1.371 . S
C2461 C2460 1.371 . S
C2461 C2462 1.380 1_545 S
C2462 H2418 0.931 . S
C2462 C2461 1.380 1_565 S
C2462 C2463 1.387 . S
C2463 H2419 0.930 . S
C2463 C2458 1.386 1_565 S
C2463 C2462 1.387 . S
C2464 C2433 1.535 1_545 S
C2464 C2465 1.378 . S
C2464 C2469 1.358 1_545 S
C2465 H2420 0.929 . S
C2465 C2464 1.378 . S
C2465 C2466 1.386 . S
C2466 H2421 0.931 . S
C2466 C2465 1.386 . S
C2466 C2467 1.333 1_545 S
C2467 C2466 1.333 1_565 S
C2467 C2468 1.401 . S
C2468 H2422 0.930 . S
C2468 C2467 1.401 . S
C2468 C2469 1.396 . S
C2469 H2423 0.929 . S
C2469 C2464 1.358 1_565 S
C2469 C2468 1.396 . S
C2470 O2424 1.300 . S
C2470 O2425 1.209 . S
C2470 C2443 1.486 . S
C2471 O2426 1.199 1_565 S
C2471 O2427 1.297 . S
C2471 C2455 1.476 . S
H2472 O2498 0.856 . S
H2473 O2501 0.854 . S
H2474 C2509 0.930 . S
H2475 C2510 0.930 . S
H2476 C2512 0.930 . S
H2477 C2513 0.930 . S
H2478 C2515 0.931 . S
H2479 C2516 0.930 . S
H2480 C2518 0.930 . S
H2481 C2519 0.929 . S
H2482 C2521 0.930 . S
H2483 C2522 0.931 . S
H2484 C2524 0.930 . S
H2485 C2525 0.929 . S
H2486 C2527 0.931 . S
H2487 C2528 0.930 . S
H2488 C2530 0.930 . S
H2489 C2531 0.932 . S
H2490 C2533 0.930 . S
H2491 C2534 0.929 . S
H2492 C2536 0.931 . S
H2493 C2537 0.930 . S
H2494 C2539 0.929 . S
H2495 C2540 0.931 . S
H2496 C2542 0.930 . S
H2497 C2543 0.929 . S
O2498 H2472 0.856 . S
O2498 C2544 1.300 . S
O2499 C2544 1.209 1_565 S
O2500 C2545 1.199 1_545 S
O2501 H2473 0.854 . S
O2501 C2545 1.297 . S
C2502 C2503 1.404 . S
C2502 C2507 1.398 1_545 S
C2502 C2508 1.492 . S
C2503 C2502 1.404 . S
C2503 C2504 1.434 . S
C2503 C2514 1.492 . S
C2504 C2503 1.434 . S
C2504 C2505 1.379 1_545 S
C2504 C2520 1.506 . S
C2505 C2504 1.379 1_565 S
C2505 C2506 1.418 . S
C2505 C2526 1.496 . S
C2506 C2505 1.418 . S
C2506 C2507 1.368 . S
C2506 C2532 1.488 . S
C2507 C2502 1.398 1_565 S
C2507 C2506 1.368 . S
C2507 C2538 1.519 . S
C2508 C2502 1.492 . S
C2508 C2509 1.363 . S
C2508 C2513 1.390 1_545 S
C2509 H2474 0.930 . S
C2509 C2508 1.363 . S
C2509 C2510 1.372 . S
C2510 H2475 0.930 . S
C2510 C2509 1.372 . S
C2510 C2511 1.383 . S
C2511 C2510 1.383 . S
C2511 C2512 1.395 1_545 S
C2512 H2476 0.930 . S
C2512 C2511 1.395 1_565 S
C2512 C2513 1.362 . S
C2513 H2477 0.930 . S
C2513 C2508 1.390 1_565 S
C2513 C2512 1.362 . S
C2514 C2503 1.492 . S
C2514 C2515 1.377 . S
C2514 C2519 1.397 1_545 S
C2515 H2478 0.931 . S
C2515 C2514 1.377 . S
C2515 C2516 1.376 . S
C2516 H2479 0.930 . S
C2516 C2515 1.376 . S
C2516 C2517 1.376 . S
C2517 C2516 1.376 . S
C2517 C2518 1.378 1_545 S
C2517 C2544 1.486 . S
C2518 H2480 0.930 . S
C2518 C2517 1.378 1_565 S
C2518 C2519 1.376 . S
C2519 H2481 0.929 . S
C2519 C2514 1.397 1_565 S
C2519 C2518 1.376 . S
C2520 C2504 1.506 . S
C2520 C2521 1.417 . S
C2520 C2525 1.344 1_545 S
C2521 H2482 0.930 . S
C2521 C2520 1.417 . S
C2521 C2522 1.375 . S
C2522 H2483 0.931 . S
C2522 C2521 1.375 . S
C2522 C2523 1.401 . S
C2523 C2522 1.401 . S
C2523 C2524 1.348 1_545 S
C2524 H2484 0.930 . S
C2524 C2523 1.348 1_565 S
C2524 C2525 1.399 . S
C2525 H2485 0.929 . S
C2525 C2520 1.344 1_565 S
C2525 C2524 1.399 . S
C2526 C2505 1.496 . S
C2526 C2527 1.394 1_565 S
C2526 C2531 1.360 . S
C2527 H2486 0.931 . S
C2527 C2526 1.394 1_545 S
C2527 C2528 1.372 . S
C2528 H2487 0.930 . S
C2528 C2527 1.372 . S
C2528 C2529 1.397 1_545 S
C2529 C2528 1.397 1_565 S
C2529 C2530 1.390 . S
C2529 C2545 1.476 . S
C2530 H2488 0.930 . S
C2530 C2529 1.390 . S
C2530 C2531 1.366 . S
C2531 H2489 0.932 . S
C2531 C2526 1.360 . S
C2531 C2530 1.366 . S
C2532 C2506 1.488 . S
C2532 C2533 1.341 1_565 S
C2532 C2537 1.434 . S
C2533 H2490 0.930 . S
C2533 C2532 1.341 1_545 S
C2533 C2534 1.381 . S
C2534 H2491 0.929 . S
C2534 C2533 1.381 . S
C2534 C2535 1.378 . S
C2535 C2534 1.378 . S
C2535 C2536 1.374 1_545 S
C2536 H2492 0.931 . S
C2536 C2535 1.374 1_565 S
C2536 C2537 1.387 . S
C2537 H2493 0.930 . S
C2537 C2532 1.434 . S
C2537 C2536 1.387 . S
C2538 C2507 1.519 . S
C2538 C2539 1.377 1_565 S
C2538 C2543 1.361 . S
C2539 H2494 0.929 . S
C2539 C2538 1.377 1_545 S
C2539 C2540 1.386 . S
C2540 H2495 0.931 . S
C2540 C2539 1.386 . S
C2540 C2541 1.363 1_545 S
C2541 C2540 1.363 1_565 S
C2541 C2542 1.385 . S
C2542 H2496 0.930 . S
C2542 C2541 1.385 . S
C2542 C2543 1.396 . S
C2543 H2497 0.929 . S
C2543 C2538 1.361 . S
C2543 C2542 1.396 . S
C2544 O2498 1.300 . S
C2544 O2499 1.209 1_545 S
C2544 C2517 1.486 . S
C2545 O2500 1.199 1_565 S
C2545 O2501 1.297 . S
C2545 C2529 1.476 . S
H2546 O2572 0.856 . S
H2547 O2575 0.854 . S
H2548 C2583 0.930 . S
H2549 C2584 0.930 . S
H2550 C2586 0.930 . S
H2551 C2587 0.930 . S
H2552 C2589 0.931 . S
H2553 C2590 0.930 . S
H2554 C2592 0.930 . S
H2555 C2593 0.929 . S
H2556 C2595 0.930 . S
H2557 C2596 0.931 . S
H2558 C2598 0.930 . S
H2559 C2599 0.929 . S
H2560 C2601 0.931 . S
H2561 C2602 0.930 . S
H2562 C2604 0.930 . S
H2563 C2605 0.932 . S
H2564 C2607 0.930 . S
H2565 C2608 0.929 . S
H2566 C2610 0.931 . S
H2567 C2611 0.930 . S
H2568 C2613 0.929 . S
H2569 C2614 0.931 . S
H2570 C2616 0.930 . S
H2571 C2617 0.929 . S
O2572 H2546 0.856 . S
O2572 C2618 1.300 . S
O2573 C2618 1.209 1_455 S
O2574 C2619 1.199 1_655 S
O2575 H2547 0.854 . S
O2575 C2619 1.297 . S
C2576 C2577 1.404 . S
C2576 C2581 1.398 . S
C2576 C2582 1.492 . S
C2577 C2576 1.404 . S
C2577 C2578 1.396 . S
C2577 C2588 1.492 . S
C2578 C2577 1.396 . S
C2578 C2579 1.397 . S
C2578 C2594 1.509 . S
C2579 C2578 1.397 . S
C2579 C2580 1.395 1_655 S
C2579 C2600 1.526 1_655 S
C2580 C2579 1.395 1_455 S
C2580 C2581 1.405 1_455 S
C2580 C2606 1.485 . S
C2581 C2576 1.398 . S
C2581 C2580 1.405 1_655 S
C2581 C2612 1.522 1_655 S
C2582 C2576 1.492 . S
C2582 C2583 1.363 . S
C2582 C2587 1.390 1_655 S
C2583 H2548 0.930 . S
C2583 C2582 1.363 . S
C2583 C2584 1.372 . S
C2584 H2549 0.930 . S
C2584 C2583 1.372 . S
C2584 C2585 1.383 . S
C2585 C2584 1.383 . S
C2585 C2586 1.395 1_655 S
C2586 H2550 0.930 . S
C2586 C2585 1.395 1_455 S
C2586 C2587 1.362 . S
C2587 H2551 0.930 . S
C2587 C2582 1.390 1_455 S
C2587 C2586 1.362 . S
C2588 C2577 1.492 . S
C2588 C2589 1.377 . S
C2588 C2593 1.397 1_655 S
C2589 H2552 0.931 . S
C2589 C2588 1.377 . S
C2589 C2590 1.376 . S
C2590 H2553 0.930 . S
C2590 C2589 1.376 . S
C2590 C2591 1.376 . S
C2591 C2590 1.376 . S
C2591 C2592 1.378 1_655 S
C2591 C2618 1.486 . S
C2592 H2554 0.930 . S
C2592 C2591 1.378 1_455 S
C2592 C2593 1.376 . S
C2593 H2555 0.929 . S
C2593 C2588 1.397 1_455 S
C2593 C2592 1.376 . S
C2594 C2578 1.509 . S
C2594 C2595 1.391 . S
C2594 C2599 1.386 1_655 S
C2595 H2556 0.930 . S
C2595 C2594 1.391 . S
C2595 C2596 1.375 . S
C2596 H2557 0.931 . S
C2596 C2595 1.375 . S
C2596 C2597 1.375 . S
C2597 C2596 1.375 . S
C2597 C2598 1.361 1_655 S
C2598 H2558 0.930 . S
C2598 C2597 1.361 1_455 S
C2598 C2599 1.399 . S
C2599 H2559 0.929 . S
C2599 C2594 1.386 1_455 S
C2599 C2598 1.399 . S
C2600 C2579 1.526 1_455 S
C2600 C2601 1.328 1_455 S
C2600 C2605 1.392 . S
C2601 H2560 0.931 . S
C2601 C2600 1.328 1_655 S
C2601 C2602 1.372 . S
C2602 H2561 0.930 . S
C2602 C2601 1.372 . S
C2602 C2603 1.397 1_655 S
C2603 C2602 1.397 1_455 S
C2603 C2604 1.390 . S
C2603 C2619 1.476 . S
C2604 H2562 0.930 . S
C2604 C2603 1.390 . S
C2604 C2605 1.366 . S
C2605 H2563 0.932 . S
C2605 C2600 1.392 . S
C2605 C2604 1.366 . S
C2606 C2580 1.485 . S
C2606 C2607 1.380 1_455 S
C2606 C2611 1.386 . S
C2607 H2564 0.930 . S
C2607 C2606 1.380 1_655 S
C2607 C2608 1.381 . S
C2608 H2565 0.929 . S
C2608 C2607 1.381 . S
C2608 C2609 1.371 1_655 S
C2609 C2608 1.371 1_455 S
C2609 C2610 1.380 . S
C2610 H2566 0.931 . S
C2610 C2609 1.380 . S
C2610 C2611 1.387 . S
C2611 H2567 0.930 . S
C2611 C2606 1.386 . S
C2611 C2610 1.387 . S
C2612 C2581 1.522 1_455 S
C2612 C2613 1.377 1_455 S
C2612 C2617 1.361 . S
C2613 H2568 0.929 . S
C2613 C2612 1.377 1_655 S
C2613 C2614 1.386 . S
C2614 H2569 0.931 . S
C2614 C2613 1.386 . S
C2614 C2615 1.363 1_655 S
C2615 C2614 1.363 1_455 S
C2615 C2616 1.385 . S
C2616 H2570 0.930 . S
C2616 C2615 1.385 . S
C2616 C2617 1.396 . S
C2617 H2571 0.929 . S
C2617 C2612 1.361 . S
C2617 C2616 1.396 . S
C2618 O2572 1.300 . S
C2618 O2573 1.209 1_655 S
C2618 C2591 1.486 . S
C2619 O2574 1.199 1_455 S
C2619 O2575 1.297 . S
C2619 C2603 1.476 . S
H2620 O2646 0.856 . S
H2621 O2649 0.854 . S
H2622 C2657 0.930 . S
H2623 C2658 0.930 . S
H2624 C2660 0.930 . S
H2625 C2661 0.930 . S
H2626 C2663 0.931 . S
H2627 C2664 0.930 . S
H2628 C2666 0.930 . S
H2629 C2667 0.929 . S
H2630 C2669 0.930 . S
H2631 C2670 0.931 . S
H2632 C2672 0.930 . S
H2633 C2673 0.929 . S
H2634 C2675 0.931 . S
H2635 C2676 0.930 . S
H2636 C2678 0.930 . S
H2637 C2679 0.932 . S
H2638 C2681 0.930 . S
H2639 C2682 0.929 . S
H2640 C2684 0.931 . S
H2641 C2685 0.930 . S
H2642 C2687 0.929 . S
H2643 C2688 0.931 . S
H2644 C2690 0.930 . S
H2645 C2691 0.929 . S
O2646 H2620 0.856 . S
O2646 C2692 1.300 . S
O2647 C2692 1.209 . S
O2648 C2693 1.199 . S
O2649 H2621 0.854 . S
O2649 C2693 1.297 . S
C2650 C2651 1.404 . S
C2650 C2655 1.397 . S
C2650 C2656 1.492 . S
C2651 C2650 1.404 . S
C2651 C2652 1.396 . S
C2651 C2662 1.492 . S
C2652 C2651 1.396 . S
C2652 C2653 1.397 . S
C2652 C2668 1.509 . S
C2653 C2652 1.397 . S
C2653 C2654 1.412 . S
C2653 C2674 1.485 . S
C2654 C2653 1.412 . S
C2654 C2655 1.388 . S
C2654 C2680 1.490 . S
C2655 C2650 1.397 . S
C2655 C2654 1.388 . S
C2655 C2686 1.519 . S
C2656 C2650 1.492 . S
C2656 C2657 1.363 . S
C2656 C2661 1.390 . S
C2657 H2622 0.930 . S
C2657 C2656 1.363 . S
C2657 C2658 1.372 . S
C2658 H2623 0.930 . S
C2658 C2657 1.372 . S
C2658 C2659 1.383 . S
C2659 C2658 1.383 . S
C2659 C2660 1.395 . S
C2660 H2624 0.930 . S
C2660 C2659 1.395 . S
C2660 C2661 1.362 . S
C2661 H2625 0.930 . S
C2661 C2656 1.390 . S
C2661 C2660 1.362 . S
C2662 C2651 1.492 . S
C2662 C2663 1.377 . S
C2662 C2667 1.397 . S
C2663 H2626 0.931 . S
C2663 C2662 1.377 . S
C2663 C2664 1.376 . S
C2664 H2627 0.930 . S
C2664 C2663 1.376 . S
C2664 C2665 1.376 . S
C2665 C2664 1.376 . S
C2665 C2666 1.378 . S
C2665 C2692 1.486 . S
C2666 H2628 0.930 . S
C2666 C2665 1.378 . S
C2666 C2667 1.376 . S
C2667 H2629 0.929 . S
C2667 C2662 1.397 . S
C2667 C2666 1.376 . S
C2668 C2652 1.509 . S
C2668 C2669 1.391 . S
C2668 C2673 1.386 . S
C2669 H2630 0.930 . S
C2669 C2668 1.391 . S
C2669 C2670 1.375 . S
C2670 H2631 0.931 . S
C2670 C2669 1.375 . S
C2670 C2671 1.375 . S
C2671 C2670 1.375 . S
C2671 C2672 1.361 . S
C2672 H2632 0.930 . S
C2672 C2671 1.361 . S
C2672 C2673 1.399 . S
C2673 H2633 0.929 . S
C2673 C2668 1.386 . S
C2673 C2672 1.399 . S
C2674 C2653 1.485 . S
C2674 C2675 1.394 . S
C2674 C2679 1.360 . S
C2675 H2634 0.931 . S
C2675 C2674 1.394 . S
C2675 C2676 1.372 . S
C2676 H2635 0.930 . S
C2676 C2675 1.372 . S
C2676 C2677 1.397 . S
C2677 C2676 1.397 . S
C2677 C2678 1.390 . S
C2677 C2693 1.476 . S
C2678 H2636 0.930 . S
C2678 C2677 1.390 . S
C2678 C2679 1.366 . S
C2679 H2637 0.932 . S
C2679 C2674 1.360 . S
C2679 C2678 1.366 . S
C2680 C2654 1.490 . S
C2680 C2681 1.380 . S
C2680 C2685 1.386 . S
C2681 H2638 0.930 . S
C2681 C2680 1.380 . S
C2681 C2682 1.381 . S
C2682 H2639 0.929 . S
C2682 C2681 1.381 . S
C2682 C2683 1.371 . S
C2683 C2682 1.371 . S
C2683 C2684 1.380 . S
C2684 H2640 0.931 . S
C2684 C2683 1.380 . S
C2684 C2685 1.387 . S
C2685 H2641 0.930 . S
C2685 C2680 1.386 . S
C2685 C2684 1.387 . S
C2686 C2655 1.519 . S
C2686 C2687 1.377 . S
C2686 C2691 1.361 . S
C2687 H2642 0.929 . S
C2687 C2686 1.377 . S
C2687 C2688 1.386 . S
C2688 H2643 0.931 . S
C2688 C2687 1.386 . S
C2688 C2689 1.363 . S
C2689 C2688 1.363 . S
C2689 C2690 1.385 . S
C2690 H2644 0.930 . S
C2690 C2689 1.385 . S
C2690 C2691 1.396 . S
C2691 H2645 0.929 . S
C2691 C2686 1.361 . S
C2691 C2690 1.396 . S
C2692 O2646 1.300 . S
C2692 O2647 1.209 . S
C2692 C2665 1.486 . S
C2693 O2648 1.199 . S
C2693 O2649 1.297 . S
C2693 C2677 1.476 . S
H2694 O2720 0.856 . S
H2695 O2723 0.854 . S
H2696 C2731 0.930 . S
H2697 C2732 0.930 . S
H2698 C2734 0.930 . S
H2699 C2735 0.930 . S
H2700 C2737 0.931 . S
H2701 C2738 0.930 . S
H2702 C2740 0.930 . S
H2703 C2741 0.929 . S
H2704 C2743 0.930 . S
H2705 C2744 0.931 . S
H2706 C2746 0.930 . S
H2707 C2747 0.929 . S
H2708 C2749 0.931 . S
H2709 C2750 0.930 . S
H2710 C2752 0.930 . S
H2711 C2753 0.932 . S
H2712 C2755 0.930 . S
H2713 C2756 0.929 . S
H2714 C2758 0.931 . S
H2715 C2759 0.930 . S
H2716 C2761 0.929 . S
H2717 C2762 0.931 . S
H2718 C2764 0.930 . S
H2719 C2765 0.929 . S
O2720 H2694 0.856 . S
O2720 C2766 1.300 . S
O2721 C2766 1.209 . S
O2722 C2767 1.199 . S
O2723 H2695 0.854 . S
O2723 C2767 1.297 . S
C2724 C2725 1.404 . S
C2724 C2729 1.397 . S
C2724 C2730 1.492 . S
C2725 C2724 1.404 . S
C2725 C2726 1.396 . S
C2725 C2736 1.492 . S
C2726 C2725 1.396 . S
C2726 C2727 1.397 . S
C2726 C2742 1.509 . S
C2727 C2726 1.397 . S
C2727 C2728 1.412 . S
C2727 C2748 1.485 . S
C2728 C2727 1.412 . S
C2728 C2729 1.388 . S
C2728 C2754 1.490 . S
C2729 C2724 1.397 . S
C2729 C2728 1.388 . S
C2729 C2760 1.519 . S
C2730 C2724 1.492 . S
C2730 C2731 1.363 . S
C2730 C2735 1.390 . S
C2731 H2696 0.930 . S
C2731 C2730 1.363 . S
C2731 C2732 1.372 . S
C2732 H2697 0.930 . S
C2732 C2731 1.372 . S
C2732 C2733 1.383 . S
C2733 C2732 1.383 . S
C2733 C2734 1.395 . S
C2734 H2698 0.930 . S
C2734 C2733 1.395 . S
C2734 C2735 1.362 . S
C2735 H2699 0.930 . S
C2735 C2730 1.390 . S
C2735 C2734 1.362 . S
C2736 C2725 1.492 . S
C2736 C2737 1.377 . S
C2736 C2741 1.397 . S
C2737 H2700 0.931 . S
C2737 C2736 1.377 . S
C2737 C2738 1.376 . S
C2738 H2701 0.930 . S
C2738 C2737 1.376 . S
C2738 C2739 1.376 . S
C2739 C2738 1.376 . S
C2739 C2740 1.378 . S
C2739 C2766 1.486 . S
C2740 H2702 0.930 . S
C2740 C2739 1.378 . S
C2740 C2741 1.376 . S
C2741 H2703 0.929 . S
C2741 C2736 1.397 . S
C2741 C2740 1.376 . S
C2742 C2726 1.509 . S
C2742 C2743 1.391 . S
C2742 C2747 1.386 . S
C2743 H2704 0.930 . S
C2743 C2742 1.391 . S
C2743 C2744 1.375 . S
C2744 H2705 0.931 . S
C2744 C2743 1.375 . S
C2744 C2745 1.375 . S
C2745 C2744 1.375 . S
C2745 C2746 1.361 . S
C2746 H2706 0.930 . S
C2746 C2745 1.361 . S
C2746 C2747 1.399 . S
C2747 H2707 0.929 . S
C2747 C2742 1.386 . S
C2747 C2746 1.399 . S
C2748 C2727 1.485 . S
C2748 C2749 1.394 . S
C2748 C2753 1.360 . S
C2749 H2708 0.931 . S
C2749 C2748 1.394 . S
C2749 C2750 1.372 . S
C2750 H2709 0.930 . S
C2750 C2749 1.372 . S
C2750 C2751 1.397 . S
C2751 C2750 1.397 . S
C2751 C2752 1.390 . S
C2751 C2767 1.476 . S
C2752 H2710 0.930 . S
C2752 C2751 1.390 . S
C2752 C2753 1.366 . S
C2753 H2711 0.932 . S
C2753 C2748 1.360 . S
C2753 C2752 1.366 . S
C2754 C2728 1.490 . S
C2754 C2755 1.380 . S
C2754 C2759 1.386 . S
C2755 H2712 0.930 . S
C2755 C2754 1.380 . S
C2755 C2756 1.381 . S
C2756 H2713 0.929 . S
C2756 C2755 1.381 . S
C2756 C2757 1.371 . S
C2757 C2756 1.371 . S
C2757 C2758 1.380 . S
C2758 H2714 0.931 . S
C2758 C2757 1.380 . S
C2758 C2759 1.387 . S
C2759 H2715 0.930 . S
C2759 C2754 1.386 . S
C2759 C2758 1.387 . S
C2760 C2729 1.519 . S
C2760 C2761 1.377 . S
C2760 C2765 1.361 . S
C2761 H2716 0.929 . S
C2761 C2760 1.377 . S
C2761 C2762 1.386 . S
C2762 H2717 0.931 . S
C2762 C2761 1.386 . S
C2762 C2763 1.363 . S
C2763 C2762 1.363 . S
C2763 C2764 1.385 . S
C2764 H2718 0.930 . S
C2764 C2763 1.385 . S
C2764 C2765 1.396 . S
C2765 H2719 0.929 . S
C2765 C2760 1.361 . S
C2765 C2764 1.396 . S
C2766 O2720 1.300 . S
C2766 O2721 1.209 . S
C2766 C2739 1.486 . S
C2767 O2722 1.199 . S
C2767 O2723 1.297 . S
C2767 C2751 1.476 . S
H2768 O2794 0.856 . S
H2769 O2797 0.854 . S
H2770 C2805 0.930 . S
H2771 C2806 0.930 . S
H2772 C2808 0.930 . S
H2773 C2809 0.930 . S
H2774 C2811 0.931 . S
H2775 C2812 0.930 . S
H2776 C2814 0.930 . S
H2777 C2815 0.929 . S
H2778 C2817 0.930 . S
H2779 C2818 0.931 . S
H2780 C2820 0.930 . S
H2781 C2821 0.929 . S
H2782 C2823 0.931 . S
H2783 C2824 0.930 . S
H2784 C2826 0.930 . S
H2785 C2827 0.932 . S
H2786 C2829 0.930 . S
H2787 C2830 0.929 . S
H2788 C2832 0.931 . S
H2789 C2833 0.930 . S
H2790 C2835 0.929 . S
H2791 C2836 0.931 . S
H2792 C2838 0.930 . S
H2793 C2839 0.929 . S
O2794 H2768 0.856 . S
O2794 C2840 1.300 . S
O2795 C2840 1.209 . S
O2796 C2841 1.199 . S
O2797 H2769 0.854 . S
O2797 C2841 1.297 . S
C2798 C2799 1.404 . S
C2798 C2803 1.397 . S
C2798 C2804 1.492 . S
C2799 C2798 1.404 . S
C2799 C2800 1.396 . S
C2799 C2810 1.492 . S
C2800 C2799 1.396 . S
C2800 C2801 1.397 . S
C2800 C2816 1.509 . S
C2801 C2800 1.397 . S
C2801 C2802 1.412 . S
C2801 C2822 1.485 . S
C2802 C2801 1.412 . S
C2802 C2803 1.388 . S
C2802 C2828 1.490 . S
C2803 C2798 1.397 . S
C2803 C2802 1.388 . S
C2803 C2834 1.519 . S
C2804 C2798 1.492 . S
C2804 C2805 1.363 . S
C2804 C2809 1.390 . S
C2805 H2770 0.930 . S
C2805 C2804 1.363 . S
C2805 C2806 1.372 . S
C2806 H2771 0.930 . S
C2806 C2805 1.372 . S
C2806 C2807 1.383 . S
C2807 C2806 1.383 . S
C2807 C2808 1.395 . S
C2808 H2772 0.930 . S
C2808 C2807 1.395 . S
C2808 C2809 1.362 . S
C2809 H2773 0.930 . S
C2809 C2804 1.390 . S
C2809 C2808 1.362 . S
C2810 C2799 1.492 . S
C2810 C2811 1.377 . S
C2810 C2815 1.397 . S
C2811 H2774 0.931 . S
C2811 C2810 1.377 . S
C2811 C2812 1.376 . S
C2812 H2775 0.930 . S
C2812 C2811 1.376 . S
C2812 C2813 1.376 . S
C2813 C2812 1.376 . S
C2813 C2814 1.378 . S
C2813 C2840 1.486 . S
C2814 H2776 0.930 . S
C2814 C2813 1.378 . S
C2814 C2815 1.376 . S
C2815 H2777 0.929 . S
C2815 C2810 1.397 . S
C2815 C2814 1.376 . S
C2816 C2800 1.509 . S
C2816 C2817 1.391 . S
C2816 C2821 1.386 . S
C2817 H2778 0.930 . S
C2817 C2816 1.391 . S
C2817 C2818 1.375 . S
C2818 H2779 0.931 . S
C2818 C2817 1.375 . S
C2818 C2819 1.375 . S
C2819 C2818 1.375 . S
C2819 C2820 1.361 . S
C2820 H2780 0.930 . S
C2820 C2819 1.361 . S
C2820 C2821 1.399 . S
C2821 H2781 0.929 . S
C2821 C2816 1.386 . S
C2821 C2820 1.399 . S
C2822 C2801 1.485 . S
C2822 C2823 1.394 . S
C2822 C2827 1.360 . S
C2823 H2782 0.931 . S
C2823 C2822 1.394 . S
C2823 C2824 1.372 . S
C2824 H2783 0.930 . S
C2824 C2823 1.372 . S
C2824 C2825 1.397 . S
C2825 C2824 1.397 . S
C2825 C2826 1.390 . S
C2825 C2841 1.476 . S
C2826 H2784 0.930 . S
C2826 C2825 1.390 . S
C2826 C2827 1.366 . S
C2827 H2785 0.932 . S
C2827 C2822 1.360 . S
C2827 C2826 1.366 . S
C2828 C2802 1.490 . S
C2828 C2829 1.380 . S
C2828 C2833 1.386 . S
C2829 H2786 0.930 . S
C2829 C2828 1.380 . S
C2829 C2830 1.381 . S
C2830 H2787 0.929 . S
C2830 C2829 1.381 . S
C2830 C2831 1.371 . S
C2831 C2830 1.371 . S
C2831 C2832 1.380 . S
C2832 H2788 0.931 . S
C2832 C2831 1.380 . S
C2832 C2833 1.387 . S
C2833 H2789 0.930 . S
C2833 C2828 1.386 . S
C2833 C2832 1.387 . S
C2834 C2803 1.519 . S
C2834 C2835 1.377 . S
C2834 C2839 1.361 . S
C2835 H2790 0.929 . S
C2835 C2834 1.377 . S
C2835 C2836 1.386 . S
C2836 H2791 0.931 . S
C2836 C2835 1.386 . S
C2836 C2837 1.363 . S
C2837 C2836 1.363 . S
C2837 C2838 1.385 . S
C2838 H2792 0.930 . S
C2838 C2837 1.385 . S
C2838 C2839 1.396 . S
C2839 H2793 0.929 . S
C2839 C2834 1.361 . S
C2839 C2838 1.396 . S
C2840 O2794 1.300 . S
C2840 O2795 1.209 . S
C2840 C2813 1.486 . S
C2841 O2796 1.199 . S
C2841 O2797 1.297 . S
C2841 C2825 1.476 . S
H2842 O2868 0.856 . S
H2843 O2871 0.854 . S
H2844 C2879 0.930 . S
H2845 C2880 0.930 . S
H2846 C2882 0.930 . S
H2847 C2883 0.930 . S
H2848 C2885 0.931 . S
H2849 C2886 0.930 . S
H2850 C2888 0.930 . S
H2851 C2889 0.929 . S
H2852 C2891 0.930 . S
H2853 C2892 0.931 . S
H2854 C2894 0.930 . S
H2855 C2895 0.929 . S
H2856 C2897 0.931 . S
H2857 C2898 0.930 . S
H2858 C2900 0.930 . S
H2859 C2901 0.932 . S
H2860 C2903 0.930 . S
H2861 C2904 0.929 . S
H2862 C2906 0.931 . S
H2863 C2907 0.930 . S
H2864 C2909 0.929 . S
H2865 C2910 0.931 . S
H2866 C2912 0.930 . S
H2867 C2913 0.929 . S
O2868 H2842 0.856 . S
O2868 C2914 1.300 . S
O2869 C2914 1.209 . S
O2870 C2915 1.199 . S
O2871 H2843 0.854 . S
O2871 C2915 1.297 . S
C2872 C2873 1.404 . S
C2872 C2877 1.397 . S
C2872 C2878 1.492 . S
C2873 C2872 1.404 . S
C2873 C2874 1.396 . S
C2873 C2884 1.492 . S
C2874 C2873 1.396 . S
C2874 C2875 1.397 . S
C2874 C2890 1.509 . S
C2875 C2874 1.397 . S
C2875 C2876 1.412 . S
C2875 C2896 1.485 . S
C2876 C2875 1.412 . S
C2876 C2877 1.388 . S
C2876 C2902 1.490 . S
C2877 C2872 1.397 . S
C2877 C2876 1.388 . S
C2877 C2908 1.519 . S
C2878 C2872 1.492 . S
C2878 C2879 1.363 . S
C2878 C2883 1.390 . S
C2879 H2844 0.930 . S
C2879 C2878 1.363 . S
C2879 C2880 1.372 . S
C2880 H2845 0.930 . S
C2880 C2879 1.372 . S
C2880 C2881 1.383 . S
C2881 C2880 1.383 . S
C2881 C2882 1.395 . S
C2882 H2846 0.930 . S
C2882 C2881 1.395 . S
C2882 C2883 1.362 . S
C2883 H2847 0.930 . S
C2883 C2878 1.390 . S
C2883 C2882 1.362 . S
C2884 C2873 1.492 . S
C2884 C2885 1.377 . S
C2884 C2889 1.397 . S
C2885 H2848 0.931 . S
C2885 C2884 1.377 . S
C2885 C2886 1.376 . S
C2886 H2849 0.930 . S
C2886 C2885 1.376 . S
C2886 C2887 1.376 . S
C2887 C2886 1.376 . S
C2887 C2888 1.378 . S
C2887 C2914 1.486 . S
C2888 H2850 0.930 . S
C2888 C2887 1.378 . S
C2888 C2889 1.376 . S
C2889 H2851 0.929 . S
C2889 C2884 1.397 . S
C2889 C2888 1.376 . S
C2890 C2874 1.509 . S
C2890 C2891 1.391 . S
C2890 C2895 1.386 . S
C2891 H2852 0.930 . S
C2891 C2890 1.391 . S
C2891 C2892 1.375 . S
C2892 H2853 0.931 . S
C2892 C2891 1.375 . S
C2892 C2893 1.375 . S
C2893 C2892 1.375 . S
C2893 C2894 1.361 . S
C2894 H2854 0.930 . S
C2894 C2893 1.361 . S
C2894 C2895 1.399 . S
C2895 H2855 0.929 . S
C2895 C2890 1.386 . S
C2895 C2894 1.399 . S
C2896 C2875 1.485 . S
C2896 C2897 1.394 . S
C2896 C2901 1.360 . S
C2897 H2856 0.931 . S
C2897 C2896 1.394 . S
C2897 C2898 1.372 . S
C2898 H2857 0.930 . S
C2898 C2897 1.372 . S
C2898 C2899 1.397 . S
C2899 C2898 1.397 . S
C2899 C2900 1.390 . S
C2899 C2915 1.476 . S
C2900 H2858 0.930 . S
C2900 C2899 1.390 . S
C2900 C2901 1.366 . S
C2901 H2859 0.932 . S
C2901 C2896 1.360 . S
C2901 C2900 1.366 . S
C2902 C2876 1.490 . S
C2902 C2903 1.380 . S
C2902 C2907 1.386 . S
C2903 H2860 0.930 . S
C2903 C2902 1.380 . S
C2903 C2904 1.381 . S
C2904 H2861 0.929 . S
C2904 C2903 1.381 . S
C2904 C2905 1.371 . S
C2905 C2904 1.371 . S
C2905 C2906 1.380 . S
C2906 H2862 0.931 . S
C2906 C2905 1.380 . S
C2906 C2907 1.387 . S
C2907 H2863 0.930 . S
C2907 C2902 1.386 . S
C2907 C2906 1.387 . S
C2908 C2877 1.519 . S
C2908 C2909 1.377 . S
C2908 C2913 1.361 . S
C2909 H2864 0.929 . S
C2909 C2908 1.377 . S
C2909 C2910 1.386 . S
C2910 H2865 0.931 . S
C2910 C2909 1.386 . S
C2910 C2911 1.363 . S
C2911 C2910 1.363 . S
C2911 C2912 1.385 . S
C2912 H2866 0.930 . S
C2912 C2911 1.385 . S
C2912 C2913 1.396 . S
C2913 H2867 0.929 . S
C2913 C2908 1.361 . S
C2913 C2912 1.396 . S
C2914 O2868 1.300 . S
C2914 O2869 1.209 . S
C2914 C2887 1.486 . S
C2915 O2870 1.199 . S
C2915 O2871 1.297 . S
C2915 C2899 1.476 . S
H2916 C2922 0.930 1_455 S
H2917 C2925 0.930 . S
H2918 C2926 0.930 . S
H2919 C2927 0.930 . S
H2920 C2930 0.930 . S
H2921 C2931 0.930 . S
C2922 H2916 0.930 1_655 S
C2922 C2923 1.355 . S
C2922 C2924 1.415 . S
C2923 C2922 1.355 . S
C2923 C2925 1.419 . S
C2924 C2922 1.415 . S
C2924 C2929 1.425 . S
C2924 C2931 1.409 1_655 S
C2925 H2917 0.930 . S
C2925 C2923 1.419 . S
C2925 C2926 1.362 . S
C2926 H2918 0.930 . S
C2926 C2925 1.362 . S
C2926 C2929 1.409 . S
C2927 H2919 0.930 . S
C2927 C2928 1.355 . S
C2927 C2929 1.415 . S
C2928 C2927 1.355 . S
C2928 C2930 1.419 1_655 S
C2929 C2924 1.425 . S
C2929 C2926 1.409 . S
C2929 C2927 1.415 . S
C2930 H2920 0.930 . S
C2930 C2928 1.419 1_455 S
C2930 C2931 1.362 . S
C2931 H2921 0.930 . S
C2931 C2924 1.409 1_455 S
C2931 C2930 1.362 . S
H2932 C2938 0.930 . S
H2933 C2941 0.930 . S
H2934 C2942 0.930 . S
H2935 C2943 0.930 . S
H2936 C2946 0.930 . S
H2937 C2947 0.930 . S
C2938 H2932 0.930 . S
C2938 C2939 1.355 . S
C2938 C2940 1.415 . S
C2939 C2938 1.355 . S
C2939 C2941 1.419 . S
C2940 C2938 1.415 . S
C2940 C2945 1.425 . S
C2940 C2947 1.409 . S
C2941 H2933 0.930 . S
C2941 C2939 1.419 . S
C2941 C2942 1.362 . S
C2942 H2934 0.930 . S
C2942 C2941 1.362 . S
C2942 C2945 1.409 . S
C2943 H2935 0.930 . S
C2943 C2944 1.355 . S
C2943 C2945 1.415 . S
C2944 C2943 1.355 . S
C2944 C2946 1.419 . S
C2945 C2940 1.425 . S
C2945 C2942 1.409 . S
C2945 C2943 1.415 . S
C2946 H2936 0.930 . S
C2946 C2944 1.419 . S
C2946 C2947 1.362 . S
C2947 H2937 0.930 . S
C2947 C2940 1.409 . S
C2947 C2946 1.362 . S
H2948 C2954 0.930 . S
H2949 C2957 0.930 . S
H2950 C2958 0.930 . S
H2951 C2959 0.930 . S
H2952 C2962 0.930 . S
H2953 C2963 0.930 . S
C2954 H2948 0.930 . S
C2954 C2955 1.355 . S
C2954 C2956 1.415 . S
C2955 C2954 1.355 . S
C2955 C2957 1.419 . S
C2956 C2954 1.415 . S
C2956 C2961 1.425 . S
C2956 C2963 1.409 . S
C2957 H2949 0.930 . S
C2957 C2955 1.419 . S
C2957 C2958 1.362 . S
C2958 H2950 0.930 . S
C2958 C2957 1.362 . S
C2958 C2961 1.409 . S
C2959 H2951 0.930 . S
C2959 C2960 1.355 . S
C2959 C2961 1.415 . S
C2960 C2959 1.355 . S
C2960 C2962 1.419 . S
C2961 C2956 1.425 . S
C2961 C2958 1.409 . S
C2961 C2959 1.415 . S
C2962 H2952 0.930 . S
C2962 C2960 1.419 . S
C2962 C2963 1.362 . S
C2963 H2953 0.930 . S
C2963 C2956 1.409 . S
C2963 C2962 1.362 . S
H2964 C2970 0.930 . S
H2965 C2973 0.930 . S
H2966 C2974 0.930 1_545 S
H2967 C2975 0.930 1_545 S
H2968 C2978 0.930 . S
H2969 C2979 0.930 . S
C2970 H2964 0.930 . S
C2970 C2971 1.355 . S
C2970 C2972 1.415 . S
C2971 C2970 1.355 . S
C2971 C2973 1.419 . S
C2972 C2970 1.415 . S
C2972 C2977 1.425 . S
C2972 C2979 1.409 . S
C2973 H2965 0.930 . S
C2973 C2971 1.419 . S
C2973 C2974 1.362 . S
C2974 H2966 0.930 1_565 S
C2974 C2973 1.362 . S
C2974 C2977 1.409 . S
C2975 H2967 0.930 1_565 S
C2975 C2976 1.355 . S
C2975 C2977 1.415 . S
C2976 C2975 1.355 . S
C2976 C2978 1.419 . S
C2977 C2972 1.425 . S
C2977 C2974 1.409 . S
C2977 C2975 1.415 . S
C2978 H2968 0.930 . S
C2978 C2976 1.419 . S
C2978 C2979 1.362 . S
C2979 H2969 0.930 . S
C2979 C2972 1.409 . S
C2979 C2978 1.362 . S
H2980 C2986 0.930 . S
H2981 C2989 0.930 . S
H2982 C2990 0.930 . S
H2983 C2991 0.930 . S
H2984 C2994 0.930 1_655 S
H2985 C2995 0.930 1_655 S
C2986 H2980 0.930 . S
C2986 C2987 1.355 . S
C2986 C2988 1.415 . S
C2987 C2986 1.355 . S
C2987 C2989 1.419 . S
C2988 C2986 1.415 . S
C2988 C2993 1.425 . S
C2988 C2995 1.409 . S
C2989 H2981 0.930 . S
C2989 C2987 1.419 . S
C2989 C2990 1.362 . S
C2990 H2982 0.930 . S
C2990 C2989 1.362 . S
C2990 C2993 1.409 . S
C2991 H2983 0.930 . S
C2991 C2992 1.355 . S
C2991 C2993 1.415 . S
C2992 C2991 1.355 . S
C2992 C2994 1.419 . S
C2993 C2988 1.425 . S
C2993 C2990 1.409 . S
C2993 C2991 1.415 . S
C2994 H2984 0.930 1_455 S
C2994 C2992 1.419 . S
C2994 C2995 1.362 . S
C2995 H2985 0.930 1_455 S
C2995 C2988 1.409 . S
C2995 C2994 1.362 . S
H2996 C3002 0.930 . S
H2997 C3005 0.930 . S
H2998 C3006 0.930 . S
H2999 C3007 0.930 . S
H3000 C3010 0.930 . S
H3001 C3011 0.930 . S
C3002 H2996 0.930 . S
C3002 C3003 1.355 . S
C3002 C3004 1.415 . S
C3003 C3002 1.355 . S
C3003 C3005 1.419 . S
C3004 C3002 1.415 . S
C3004 C3009 1.425 . S
C3004 C3011 1.409 . S
C3005 H2997 0.930 . S
C3005 C3003 1.419 . S
C3005 C3006 1.362 . S
C3006 H2998 0.930 . S
C3006 C3005 1.362 . S
C3006 C3009 1.409 . S
C3007 H2999 0.930 . S
C3007 C3008 1.355 . S
C3007 C3009 1.415 . S
C3008 C3007 1.355 . S
C3008 C3010 1.419 . S
C3009 C3004 1.425 . S
C3009 C3006 1.409 . S
C3009 C3007 1.415 . S
C3010 H3000 0.930 . S
C3010 C3008 1.419 . S
C3010 C3011 1.362 . S
C3011 H3001 0.930 . S
C3011 C3004 1.409 . S
C3011 C3010 1.362 . S
H3012 C3018 0.930 . S
H3013 C3021 0.930 . S
H3014 C3022 0.930 . S
H3015 C3023 0.930 . S
H3016 C3026 0.930 . S
H3017 C3027 0.930 . S
C3018 H3012 0.930 . S
C3018 C3019 1.355 . S
C3018 C3020 1.415 . S
C3019 C3018 1.355 . S
C3019 C3021 1.419 . S
C3020 C3018 1.415 . S
C3020 C3025 1.425 . S
C3020 C3027 1.409 . S
C3021 H3013 0.930 . S
C3021 C3019 1.419 . S
C3021 C3022 1.362 . S
C3022 H3014 0.930 . S
C3022 C3021 1.362 . S
C3022 C3025 1.409 . S
C3023 H3015 0.930 . S
C3023 C3024 1.355 . S
C3023 C3025 1.415 . S
C3024 C3023 1.355 . S
C3024 C3026 1.419 . S
C3025 C3020 1.425 . S
C3025 C3022 1.409 . S
C3025 C3023 1.415 . S
C3026 H3016 0.930 . S
C3026 C3024 1.419 . S
C3026 C3027 1.362 . S
C3027 H3017 0.930 . S
C3027 C3020 1.409 . S
C3027 C3026 1.362 . S
H3028 C3034 0.930 . S
H3029 C3037 0.930 . S
H3030 C3038 0.930 . S
H3031 C3039 0.930 . S
H3032 C3042 0.930 . S
H3033 C3043 0.930 . S
C3034 H3028 0.930 . S
C3034 C3035 1.355 . S
C3034 C3036 1.415 . S
C3035 C3034 1.355 . S
C3035 C3037 1.419 . S
C3036 C3034 1.415 . S
C3036 C3041 1.425 . S
C3036 C3043 1.409 . S
C3037 H3029 0.930 . S
C3037 C3035 1.419 . S
C3037 C3038 1.362 . S
C3038 H3030 0.930 . S
C3038 C3037 1.362 . S
C3038 C3041 1.409 . S
C3039 H3031 0.930 . S
C3039 C3040 1.355 . S
C3039 C3041 1.415 . S
C3040 C3039 1.355 . S
C3040 C3042 1.419 . S
C3041 C3036 1.425 . S
C3041 C3038 1.409 . S
C3041 C3039 1.415 . S
C3042 H3032 0.930 . S
C3042 C3040 1.419 . S
C3042 C3043 1.362 . S
C3043 H3033 0.930 . S
C3043 C3036 1.409 . S
C3043 C3042 1.362 . S
H3044 C3050 0.930 . S
H3045 C3053 0.930 1_545 S
H3046 C3054 0.930 . S
H3047 C3055 0.930 . S
H3048 C3058 0.930 . S
H3049 C3059 0.930 . S
C3050 H3044 0.930 . S
C3050 C3051 1.355 . S
C3050 C3052 1.415 . S
C3051 C3050 1.355 . S
C3051 C3053 1.419 . S
C3052 C3050 1.415 . S
C3052 C3057 1.425 . S
C3052 C3059 1.409 . S
C3053 H3045 0.930 1_565 S
C3053 C3051 1.419 . S
C3053 C3054 1.362 1_565 S
C3054 H3046 0.930 . S
C3054 C3053 1.362 1_545 S
C3054 C3057 1.409 1_545 S
C3055 H3047 0.930 . S
C3055 C3056 1.355 1_545 S
C3055 C3057 1.415 1_545 S
C3056 C3055 1.355 1_565 S
C3056 C3058 1.419 . S
C3057 C3052 1.425 . S
C3057 C3054 1.409 1_565 S
C3057 C3055 1.415 1_565 S
C3058 H3048 0.930 . S
C3058 C3056 1.419 . S
C3058 C3059 1.362 . S
C3059 H3049 0.930 . S
C3059 C3052 1.409 . S
C3059 C3058 1.362 . S
H3060 C3066 0.930 . S
H3061 C3069 0.930 . S
H3062 C3070 0.930 1_565 S
H3063 C3071 0.930 1_565 S
H3064 C3074 0.930 . S
H3065 C3075 0.930 . S
C3066 H3060 0.930 . S
C3066 C3067 1.355 . S
C3066 C3068 1.415 . S
C3067 C3066 1.355 . S
C3067 C3069 1.419 . S
C3068 C3066 1.415 . S
C3068 C3073 1.425 . S
C3068 C3075 1.409 . S
C3069 H3061 0.930 . S
C3069 C3067 1.419 . S
C3069 C3070 1.362 . S
C3070 H3062 0.930 1_545 S
C3070 C3069 1.362 . S
C3070 C3073 1.409 . S
C3071 H3063 0.930 1_545 S
C3071 C3072 1.355 . S
C3071 C3073 1.415 . S
C3072 C3071 1.355 . S
C3072 C3074 1.419 . S
C3073 C3068 1.425 . S
C3073 C3070 1.409 . S
C3073 C3071 1.415 . S
C3074 H3064 0.930 . S
C3074 C3072 1.419 . S
C3074 C3075 1.362 . S
C3075 H3065 0.930 . S
C3075 C3068 1.409 . S
C3075 C3074 1.362 . S
H3076 C3082 0.930 . S
H3077 C3085 0.930 . S
H3078 C3086 0.930 . S
H3079 C3087 0.879 1_455 S
H3080 C3090 0.930 . S
H3081 C3091 0.930 . S
C3082 H3076 0.930 . S
C3082 C3083 1.355 . S
C3082 C3084 1.415 . S
C3083 C3082 1.355 . S
C3083 C3085 1.419 . S
C3084 C3082 1.415 . S
C3084 C3089 1.425 . S
C3084 C3091 1.409 . S
C3085 H3077 0.930 . S
C3085 C3083 1.419 . S
C3085 C3086 1.362 . S
C3086 H3078 0.930 . S
C3086 C3085 1.362 . S
C3086 C3089 1.409 . S
C3087 H3079 0.879 1_655 S
C3087 C3088 1.355 . S
C3087 C3089 1.415 . S
C3088 C3087 1.355 . S
C3088 C3090 1.419 . S
C3089 C3084 1.425 . S
C3089 C3086 1.409 . S
C3089 C3087 1.415 . S
C3090 H3080 0.930 . S
C3090 C3088 1.419 . S
C3090 C3091 1.362 . S
C3091 H3081 0.930 . S
C3091 C3084 1.409 . S
C3091 C3090 1.362 . S
H3092 C3098 0.930 . S
H3093 C3101 0.930 . S
H3094 C3102 0.930 . S
H3095 C3103 0.930 . S
H3096 C3106 0.930 . S
H3097 C3107 0.930 . S
C3098 H3092 0.930 . S
C3098 C3099 1.355 . S
C3098 C3100 1.415 . S
C3099 C3098 1.355 . S
C3099 C3101 1.419 . S
C3100 C3098 1.415 . S
C3100 C3105 1.425 . S
C3100 C3107 1.409 . S
C3101 H3093 0.930 . S
C3101 C3099 1.419 . S
C3101 C3102 1.362 . S
C3102 H3094 0.930 . S
C3102 C3101 1.362 . S
C3102 C3105 1.409 . S
C3103 H3095 0.930 . S
C3103 C3104 1.355 . S
C3103 C3105 1.415 . S
C3104 C3103 1.355 . S
C3104 C3106 1.419 . S
C3105 C3100 1.425 . S
C3105 C3102 1.409 . S
C3105 C3103 1.415 . S
C3106 H3096 0.930 . S
C3106 C3104 1.419 . S
C3106 C3107 1.362 . S
C3107 H3097 0.930 . S
C3107 C3100 1.409 . S
C3107 C3106 1.362 . S
H3108 C3114 0.930 . S
H3109 C3117 0.930 . S
H3110 C3118 0.930 . S
H3111 C3119 0.930 . S
H3112 C3122 0.930 . S
H3113 C3123 0.930 . S
C3114 H3108 0.930 . S
C3114 C3115 1.355 . S
C3114 C3116 1.415 . S
C3115 C3114 1.355 . S
C3115 C3117 1.419 . S
C3116 C3114 1.415 . S
C3116 C3121 1.425 . S
C3116 C3123 1.409 . S
C3117 H3109 0.930 . S
C3117 C3115 1.419 . S
C3117 C3118 1.362 . S
C3118 H3110 0.930 . S
C3118 C3117 1.362 . S
C3118 C3121 1.409 . S
C3119 H3111 0.930 . S
C3119 C3120 1.355 . S
C3119 C3121 1.415 . S
C3120 C3119 1.355 . S
C3120 C3122 1.419 . S
C3121 C3116 1.425 . S
C3121 C3118 1.409 . S
C3121 C3119 1.415 . S
C3122 H3112 0.930 . S
C3122 C3120 1.419 . S
C3122 C3123 1.362 . S
C3123 H3113 0.930 . S
C3123 C3116 1.409 . S
C3123 C3122 1.362 . S
H3124 C3130 0.930 . S
H3125 C3133 0.930 . S
H3126 C3134 0.930 . S
H3127 C3135 0.930 . S
H3128 C3138 0.930 . S
H3129 C3139 0.930 . S
C3130 H3124 0.930 . S
C3130 C3131 1.355 . S
C3130 C3132 1.415 . S
C3131 C3130 1.355 . S
C3131 C3133 1.419 . S
C3132 C3130 1.415 . S
C3132 C3137 1.425 . S
C3132 C3139 1.409 . S
C3133 H3125 0.930 . S
C3133 C3131 1.419 . S
C3133 C3134 1.362 . S
C3134 H3126 0.930 . S
C3134 C3133 1.362 . S
C3134 C3137 1.409 . S
C3135 H3127 0.930 . S
C3135 C3136 1.355 . S
C3135 C3137 1.415 . S
C3136 C3135 1.355 . S
C3136 C3138 1.419 . S
C3137 C3132 1.425 . S
C3137 C3134 1.409 . S
C3137 C3135 1.415 . S
C3138 H3128 0.930 . S
C3138 C3136 1.419 . S
C3138 C3139 1.362 . S
C3139 H3129 0.930 . S
C3139 C3132 1.409 . S
C3139 C3138 1.362 . S
H3140 C3146 0.930 . S
H3141 C3149 0.930 . S
H3142 C3150 0.930 . S
H3143 C3151 0.930 . S
H3144 C3154 0.930 . S
H3145 C3155 0.930 . S
C3146 H3140 0.930 . S
C3146 C3147 1.355 . S
C3146 C3148 1.415 . S
C3147 C3146 1.355 . S
C3147 C3149 1.419 . S
C3148 C3146 1.415 . S
C3148 C3153 1.425 . S
C3148 C3155 1.409 . S
C3149 H3141 0.930 . S
C3149 C3147 1.419 . S
C3149 C3150 1.362 . S
C3150 H3142 0.930 . S
C3150 C3149 1.362 . S
C3150 C3153 1.409 . S
C3151 H3143 0.930 . S
C3151 C3152 1.355 . S
C3151 C3153 1.415 . S
C3152 C3151 1.355 . S
C3152 C3154 1.419 . S
C3153 C3148 1.425 . S
C3153 C3150 1.409 . S
C3153 C3151 1.415 . S
C3154 H3144 0.930 . S
C3154 C3152 1.419 . S
C3154 C3155 1.362 . S
C3155 H3145 0.930 . S
C3155 C3148 1.409 . S
C3155 C3154 1.362 . S
H3156 C3162 0.930 . S
H3157 C3165 0.930 . S
H3158 C3166 0.930 . S
H3159 C3167 0.930 . S
H3160 C3170 0.930 . S
H3161 C3171 0.930 . S
C3162 H3156 0.930 . S
C3162 C3163 1.355 . S
C3162 C3164 1.415 . S
C3163 C3162 1.355 . S
C3163 C3165 1.419 . S
C3164 C3162 1.415 . S
C3164 C3169 1.425 . S
C3164 C3171 1.409 . S
C3165 H3157 0.930 . S
C3165 C3163 1.419 . S
C3165 C3166 1.362 . S
C3166 H3158 0.930 . S
C3166 C3165 1.362 . S
C3166 C3169 1.409 . S
C3167 H3159 0.930 . S
C3167 C3168 1.355 . S
C3167 C3169 1.415 . S
C3168 C3167 1.355 . S
C3168 C3170 1.419 . S
C3169 C3164 1.425 . S
C3169 C3166 1.409 . S
C3169 C3167 1.415 . S
C3170 H3160 0.930 . S
C3170 C3168 1.419 . S
C3170 C3171 1.362 . S
C3171 H3161 0.930 . S
C3171 C3164 1.409 . S
C3171 C3170 1.362 . S
H3172 C3178 0.930 . S
H3173 C3181 0.930 . S
H3174 C3182 0.930 . S
H3175 C3183 0.930 . S
H3176 C3186 0.930 . S
H3177 C3187 0.930 . S
C3178 H3172 0.930 . S
C3178 C3179 1.355 . S
C3178 C3180 1.415 . S
C3179 C3178 1.355 . S
C3179 C3181 1.419 . S
C3180 C3178 1.415 . S
C3180 C3185 1.425 . S
C3180 C3187 1.409 . S
C3181 H3173 0.930 . S
C3181 C3179 1.419 . S
C3181 C3182 1.362 . S
C3182 H3174 0.930 . S
C3182 C3181 1.362 . S
C3182 C3185 1.409 . S
C3183 H3175 0.930 . S
C3183 C3184 1.355 . S
C3183 C3185 1.415 . S
C3184 C3183 1.355 . S
C3184 C3186 1.419 . S
C3185 C3180 1.425 . S
C3185 C3182 1.409 . S
C3185 C3183 1.415 . S
C3186 H3176 0.930 . S
C3186 C3184 1.419 . S
C3186 C3187 1.362 . S
C3187 H3177 0.930 . S
C3187 C3180 1.409 . S
C3187 C3186 1.362 . S
H3188 C3194 0.930 . S
H3189 C3197 0.930 . S
H3190 C3198 0.930 . S
H3191 C3199 0.930 . S
H3192 C3202 0.930 . S
H3193 C3203 0.930 . S
C3194 H3188 0.930 . S
C3194 C3195 1.355 . S
C3194 C3196 1.415 . S
C3195 C3194 1.355 . S
C3195 C3197 1.419 . S
C3196 C3194 1.415 . S
C3196 C3201 1.425 . S
C3196 C3203 1.409 . S
C3197 H3189 0.930 . S
C3197 C3195 1.419 . S
C3197 C3198 1.362 . S
C3198 H3190 0.930 . S
C3198 C3197 1.362 . S
C3198 C3201 1.409 . S
C3199 H3191 0.930 . S
C3199 C3200 1.355 . S
C3199 C3201 1.415 . S
C3200 C3199 1.355 . S
C3200 C3202 1.419 . S
C3201 C3196 1.425 . S
C3201 C3198 1.409 . S
C3201 C3199 1.415 . S
C3202 H3192 0.930 . S
C3202 C3200 1.419 . S
C3202 C3203 1.362 . S
C3203 H3193 0.930 . S
C3203 C3196 1.409 . S
C3203 C3202 1.362 . S
H3204 C3210 0.930 . S
H3205 C3213 0.930 . S
H3206 C3214 0.930 . S
H3207 C3215 0.930 . S
H3208 C3218 0.930 . S
H3209 C3219 0.930 . S
C3210 H3204 0.930 . S
C3210 C3211 1.355 . S
C3210 C3212 1.415 . S
C3211 C3210 1.355 . S
C3211 C3213 1.419 . S
C3212 C3210 1.415 . S
C3212 C3217 1.425 . S
C3212 C3219 1.409 . S
C3213 H3205 0.930 . S
C3213 C3211 1.419 . S
C3213 C3214 1.362 . S
C3214 H3206 0.930 . S
C3214 C3213 1.362 . S
C3214 C3217 1.409 . S
C3215 H3207 0.930 . S
C3215 C3216 1.355 . S
C3215 C3217 1.415 . S
C3216 C3215 1.355 . S
C3216 C3218 1.419 . S
C3217 C3212 1.425 . S
C3217 C3214 1.409 . S
C3217 C3215 1.415 . S
C3218 H3208 0.930 . S
C3218 C3216 1.419 . S
C3218 C3219 1.362 . S
C3219 H3209 0.930 . S
C3219 C3212 1.409 . S
C3219 C3218 1.362 . S
H3220 C3226 0.930 . S
H3221 C3229 0.930 . S
H3222 C3230 0.930 . S
H3223 C3231 0.930 . S
H3224 C3234 0.930 . S
H3225 C3235 0.930 . S
C3226 H3220 0.930 . S
C3226 C3227 1.355 . S
C3226 C3228 1.415 . S
C3227 C3226 1.355 . S
C3227 C3229 1.419 . S
C3228 C3226 1.415 . S
C3228 C3233 1.425 . S
C3228 C3235 1.409 . S
C3229 H3221 0.930 . S
C3229 C3227 1.419 . S
C3229 C3230 1.362 . S
C3230 H3222 0.930 . S
C3230 C3229 1.362 . S
C3230 C3233 1.409 . S
C3231 H3223 0.930 . S
C3231 C3232 1.355 . S
C3231 C3233 1.415 . S
C3232 C3231 1.355 . S
C3232 C3234 1.419 . S
C3233 C3228 1.425 . S
C3233 C3230 1.409 . S
C3233 C3231 1.415 . S
C3234 H3224 0.930 . S
C3234 C3232 1.419 . S
C3234 C3235 1.362 . S
C3235 H3225 0.930 . S
C3235 C3228 1.409 . S
C3235 C3234 1.362 . S
H3236 C3242 0.930 . S
H3237 C3245 0.930 . S
H3238 C3246 0.930 . S
H3239 C3247 0.930 . S
H3240 C3250 0.930 . S
H3241 C3251 0.930 . S
C3242 H3236 0.930 . S
C3242 C3243 1.355 . S
C3242 C3244 1.415 . S
C3243 C3242 1.355 . S
C3243 C3245 1.419 . S
C3244 C3242 1.415 . S
C3244 C3249 1.425 . S
C3244 C3251 1.409 . S
C3245 H3237 0.930 . S
C3245 C3243 1.419 . S
C3245 C3246 1.362 . S
C3246 H3238 0.930 . S
C3246 C3245 1.362 . S
C3246 C3249 1.409 . S
C3247 H3239 0.930 . S
C3247 C3248 1.355 . S
C3247 C3249 1.415 . S
C3248 C3247 1.355 . S
C3248 C3250 1.419 . S
C3249 C3244 1.425 . S
C3249 C3246 1.409 . S
C3249 C3247 1.415 . S
C3250 H3240 0.930 . S
C3250 C3248 1.419 . S
C3250 C3251 1.362 . S
C3251 H3241 0.930 . S
C3251 C3244 1.409 . S
C3251 C3250 1.362 . S
H3252 C3258 0.930 . S
H3253 C3261 0.930 . S
H3254 C3262 0.930 . S
H3255 C3263 0.930 . S
H3256 C3266 0.930 . S
H3257 C3267 0.930 . S
C3258 H3252 0.930 . S
C3258 C3259 1.355 . S
C3258 C3260 1.415 . S
C3259 C3258 1.355 . S
C3259 C3261 1.419 . S
C3260 C3258 1.415 . S
C3260 C3265 1.425 . S
C3260 C3267 1.409 . S
C3261 H3253 0.930 . S
C3261 C3259 1.419 . S
C3261 C3262 1.362 . S
C3262 H3254 0.930 . S
C3262 C3261 1.362 . S
C3262 C3265 1.409 . S
C3263 H3255 0.930 . S
C3263 C3264 1.355 . S
C3263 C3265 1.415 . S
C3264 C3263 1.355 . S
C3264 C3266 1.419 . S
C3265 C3260 1.425 . S
C3265 C3262 1.409 . S
C3265 C3263 1.415 . S
C3266 H3256 0.930 . S
C3266 C3264 1.419 . S
C3266 C3267 1.362 . S
C3267 H3257 0.930 . S
C3267 C3260 1.409 . S
C3267 C3266 1.362 . S
H3268 C3274 0.930 . S
H3269 C3277 0.930 . S
H3270 C3278 0.930 . S
H3271 C3279 0.930 . S
H3272 C3282 0.930 . S
H3273 C3283 0.930 . S
C3274 H3268 0.930 . S
C3274 C3275 1.355 . S
C3274 C3276 1.415 . S
C3275 C3274 1.355 . S
C3275 C3277 1.419 . S
C3276 C3274 1.415 . S
C3276 C3281 1.425 . S
C3276 C3283 1.409 . S
C3277 H3269 0.930 . S
C3277 C3275 1.419 . S
C3277 C3278 1.362 . S
C3278 H3270 0.930 . S
C3278 C3277 1.362 . S
C3278 C3281 1.409 . S
C3279 H3271 0.930 . S
C3279 C3280 1.355 . S
C3279 C3281 1.415 . S
C3280 C3279 1.355 . S
C3280 C3282 1.419 . S
C3281 C3276 1.425 . S
C3281 C3278 1.409 . S
C3281 C3279 1.415 . S
C3282 H3272 0.930 . S
C3282 C3280 1.419 . S
C3282 C3283 1.362 . S
C3283 H3273 0.930 . S
C3283 C3276 1.409 . S
C3283 C3282 1.362 . S
H3284 C3290 0.930 . S
H3285 C3293 0.930 . S
H3286 C3294 0.930 . S
H3287 C3295 0.930 . S
H3288 C3298 0.930 . S
H3289 C3299 0.930 . S
C3290 H3284 0.930 . S
C3290 C3291 1.355 . S
C3290 C3292 1.415 . S
C3291 C3290 1.355 . S
C3291 C3293 1.419 . S
C3292 C3290 1.415 . S
C3292 C3297 1.425 . S
C3292 C3299 1.409 . S
C3293 H3285 0.930 . S
C3293 C3291 1.419 . S
C3293 C3294 1.362 . S
C3294 H3286 0.930 . S
C3294 C3293 1.362 . S
C3294 C3297 1.409 . S
C3295 H3287 0.930 . S
C3295 C3296 1.355 . S
C3295 C3297 1.415 . S
C3296 C3295 1.355 . S
C3296 C3298 1.419 . S
C3297 C3292 1.425 . S
C3297 C3294 1.409 . S
C3297 C3295 1.415 . S
C3298 H3288 0.930 . S
C3298 C3296 1.419 . S
C3298 C3299 1.362 . S
C3299 H3289 0.930 . S
C3299 C3292 1.409 . S
C3299 C3298 1.362 . S
H3300 C3306 0.930 . S
H3301 C3309 0.930 . S
H3302 C3310 0.930 . S
H3303 C3311 0.930 . S
H3304 C3314 0.930 . S
H3305 C3315 0.930 . S
C3306 H3300 0.930 . S
C3306 C3307 1.355 . S
C3306 C3308 1.415 . S
C3307 C3306 1.355 . S
C3307 C3309 1.419 . S
C3308 C3306 1.415 . S
C3308 C3313 1.425 . S
C3308 C3315 1.409 . S
C3309 H3301 0.930 . S
C3309 C3307 1.419 . S
C3309 C3310 1.362 . S
C3310 H3302 0.930 . S
C3310 C3309 1.362 . S
C3310 C3313 1.409 . S
C3311 H3303 0.930 . S
C3311 C3312 1.355 . S
C3311 C3313 1.415 . S
C3312 C3311 1.355 . S
C3312 C3314 1.419 . S
C3313 C3308 1.425 . S
C3313 C3310 1.409 . S
C3313 C3311 1.415 . S
C3314 H3304 0.930 . S
C3314 C3312 1.419 . S
C3314 C3315 1.362 . S
C3315 H3305 0.930 . S
C3315 C3308 1.409 . S
C3315 C3314 1.362 . S
H3316 C3322 0.930 . S
H3317 C3325 0.930 . S
H3318 C3326 0.930 . S
H3319 C3327 0.930 . S
H3320 C3330 0.930 . S
H3321 C3331 0.930 . S
C3322 H3316 0.930 . S
C3322 C3323 1.355 . S
C3322 C3324 1.415 . S
C3323 C3322 1.355 . S
C3323 C3325 1.419 . S
C3324 C3322 1.415 . S
C3324 C3329 1.425 . S
C3324 C3331 1.409 . S
C3325 H3317 0.930 . S
C3325 C3323 1.419 . S
C3325 C3326 1.362 . S
C3326 H3318 0.930 . S
C3326 C3325 1.362 . S
C3326 C3329 1.409 . S
C3327 H3319 0.930 . S
C3327 C3328 1.355 . S
C3327 C3329 1.415 . S
C3328 C3327 1.355 . S
C3328 C3330 1.419 . S
C3329 C3324 1.425 . S
C3329 C3326 1.409 . S
C3329 C3327 1.415 . S
C3330 H3320 0.930 . S
C3330 C3328 1.419 . S
C3330 C3331 1.362 . S
C3331 H3321 0.930 . S
C3331 C3324 1.409 . S
C3331 C3330 1.362 . S
H3332 C3338 0.930 . S
H3333 C3341 0.930 . S
H3334 C3342 0.930 . S
H3335 C3343 0.930 . S
H3336 C3346 0.930 . S
H3337 C3347 0.930 . S
C3338 H3332 0.930 . S
C3338 C3339 1.355 . S
C3338 C3340 1.415 . S
C3339 C3338 1.355 . S
C3339 C3341 1.419 . S
C3340 C3338 1.415 . S
C3340 C3345 1.425 . S
C3340 C3347 1.409 . S
C3341 H3333 0.930 . S
C3341 C3339 1.419 . S
C3341 C3342 1.362 . S
C3342 H3334 0.930 . S
C3342 C3341 1.362 . S
C3342 C3345 1.409 . S
C3343 H3335 0.930 . S
C3343 C3344 1.355 . S
C3343 C3345 1.415 . S
C3344 C3343 1.355 . S
C3344 C3346 1.419 . S
C3345 C3340 1.425 . S
C3345 C3342 1.409 . S
C3345 C3343 1.415 . S
C3346 H3336 0.930 . S
C3346 C3344 1.419 . S
C3346 C3347 1.362 . S
C3347 H3337 0.930 . S
C3347 C3340 1.409 . S
C3347 C3346 1.362 . S
H3348 C3354 0.930 . S
H3349 C3357 0.930 . S
H3350 C3358 0.930 . S
H3351 C3359 0.930 . S
H3352 C3362 0.930 . S
H3353 C3363 0.930 . S
C3354 H3348 0.930 . S
C3354 C3355 1.355 . S
C3354 C3356 1.415 . S
C3355 C3354 1.355 . S
C3355 C3357 1.419 . S
C3356 C3354 1.415 . S
C3356 C3361 1.425 . S
C3356 C3363 1.409 . S
C3357 H3349 0.930 . S
C3357 C3355 1.419 . S
C3357 C3358 1.362 . S
C3358 H3350 0.930 . S
C3358 C3357 1.362 . S
C3358 C3361 1.409 . S
C3359 H3351 0.930 . S
C3359 C3360 1.355 . S
C3359 C3361 1.415 . S
C3360 C3359 1.355 . S
C3360 C3362 1.419 . S
C3361 C3356 1.425 . S
C3361 C3358 1.409 . S
C3361 C3359 1.415 . S
C3362 H3352 0.930 . S
C3362 C3360 1.419 . S
C3362 C3363 1.362 . S
C3363 H3353 0.930 . S
C3363 C3356 1.409 . S
C3363 C3362 1.362 . S
H3364 C3370 0.930 . S
H3365 C3373 0.930 . S
H3366 C3374 0.930 . S
H3367 C3375 0.930 . S
H3368 C3378 0.930 . S
H3369 C3379 0.930 . S
C3370 H3364 0.930 . S
C3370 C3371 1.355 . S
C3370 C3372 1.415 . S
C3371 C3370 1.355 . S
C3371 C3373 1.419 . S
C3372 C3370 1.415 . S
C3372 C3377 1.425 . S
C3372 C3379 1.409 . S
C3373 H3365 0.930 . S
C3373 C3371 1.419 . S
C3373 C3374 1.362 . S
C3374 H3366 0.930 . S
C3374 C3373 1.362 . S
C3374 C3377 1.409 . S
C3375 H3367 0.930 . S
C3375 C3376 1.355 . S
C3375 C3377 1.415 . S
C3376 C3375 1.355 . S
C3376 C3378 1.419 . S
C3377 C3372 1.425 . S
C3377 C3374 1.409 . S
C3377 C3375 1.415 . S
C3378 H3368 0.930 . S
C3378 C3376 1.419 . S
C3378 C3379 1.362 . S
C3379 H3369 0.930 . S
C3379 C3372 1.409 . S
C3379 C3378 1.362 . S
H3380 C3386 0.930 . S
H3381 C3389 0.930 . S
H3382 C3390 0.930 . S
H3383 C3391 0.930 . S
H3384 C3394 0.930 . S
H3385 C3395 0.930 . S
C3386 H3380 0.930 . S
C3386 C3387 1.355 . S
C3386 C3388 1.415 . S
C3387 C3386 1.355 . S
C3387 C3389 1.419 . S
C3388 C3386 1.415 . S
C3388 C3393 1.425 . S
C3388 C3395 1.409 . S
C3389 H3381 0.930 . S
C3389 C3387 1.419 . S
C3389 C3390 1.362 . S
C3390 H3382 0.930 . S
C3390 C3389 1.362 . S
C3390 C3393 1.409 . S
C3391 H3383 0.930 . S
C3391 C3392 1.355 . S
C3391 C3393 1.415 . S
C3392 C3391 1.355 . S
C3392 C3394 1.419 . S
C3393 C3388 1.425 . S
C3393 C3390 1.409 . S
C3393 C3391 1.415 . S
C3394 H3384 0.930 . S
C3394 C3392 1.419 . S
C3394 C3395 1.362 . S
C3395 H3385 0.930 . S
C3395 C3388 1.409 . S
C3395 C3394 1.362 . S
H3396 C3402 0.930 . S
H3397 C3405 0.930 . S
H3398 C3406 0.930 . S
H3399 C3407 0.930 . S
H3400 C3410 0.930 . S
H3401 C3411 0.930 . S
C3402 H3396 0.930 . S
C3402 C3403 1.355 . S
C3402 C3404 1.415 . S
C3403 C3402 1.355 . S
C3403 C3405 1.419 . S
C3404 C3402 1.415 . S
C3404 C3409 1.425 . S
C3404 C3411 1.409 . S
C3405 H3397 0.930 . S
C3405 C3403 1.419 . S
C3405 C3406 1.362 . S
C3406 H3398 0.930 . S
C3406 C3405 1.362 . S
C3406 C3409 1.409 . S
C3407 H3399 0.930 . S
C3407 C3408 1.355 . S
C3407 C3409 1.415 . S
C3408 C3407 1.355 . S
C3408 C3410 1.419 . S
C3409 C3404 1.425 . S
C3409 C3406 1.409 . S
C3409 C3407 1.415 . S
C3410 H3400 0.930 . S
C3410 C3408 1.419 . S
C3410 C3411 1.362 . S
C3411 H3401 0.930 . S
C3411 C3404 1.409 . S
C3411 C3410 1.362 . S
H3412 C3418 0.930 . S
H3413 C3421 0.930 . S
H3414 C3422 0.930 . S
H3415 C3423 0.930 . S
H3416 C3426 0.930 . S
H3417 C3427 0.930 . S
C3418 H3412 0.930 . S
C3418 C3419 1.355 . S
C3418 C3420 1.415 . S
C3419 C3418 1.355 . S
C3419 C3421 1.419 . S
C3420 C3418 1.415 . S
C3420 C3425 1.425 . S
C3420 C3427 1.409 . S
C3421 H3413 0.930 . S
C3421 C3419 1.419 . S
C3421 C3422 1.362 . S
C3422 H3414 0.930 . S
C3422 C3421 1.362 . S
C3422 C3425 1.409 . S
C3423 H3415 0.930 . S
C3423 C3424 1.355 . S
C3423 C3425 1.415 . S
C3424 C3423 1.355 . S
C3424 C3426 1.419 . S
C3425 C3420 1.425 . S
C3425 C3422 1.409 . S
C3425 C3423 1.415 . S
C3426 H3416 0.930 . S
C3426 C3424 1.419 . S
C3426 C3427 1.362 . S
C3427 H3417 0.930 . S
C3427 C3420 1.409 . S
C3427 C3426 1.362 . S
H3428 C3434 0.930 . S
H3429 C3437 0.930 . S
H3430 C3438 0.930 . S
H3431 C3439 0.930 . S
H3432 C3442 0.930 . S
H3433 C3443 0.930 . S
C3434 H3428 0.930 . S
C3434 C3435 1.355 . S
C3434 C3436 1.415 . S
C3435 C3434 1.355 . S
C3435 C3437 1.419 . S
C3436 C3434 1.415 . S
C3436 C3441 1.425 . S
C3436 C3443 1.409 . S
C3437 H3429 0.930 . S
C3437 C3435 1.419 . S
C3437 C3438 1.362 . S
C3438 H3430 0.930 . S
C3438 C3437 1.362 . S
C3438 C3441 1.409 . S
C3439 H3431 0.930 . S
C3439 C3440 1.355 . S
C3439 C3441 1.415 . S
C3440 C3439 1.355 . S
C3440 C3442 1.419 . S
C3441 C3436 1.425 . S
C3441 C3438 1.409 . S
C3441 C3439 1.415 . S
C3442 H3432 0.930 . S
C3442 C3440 1.419 . S
C3442 C3443 1.362 . S
C3443 H3433 0.930 . S
C3443 C3436 1.409 . S
C3443 C3442 1.362 . S
H3444 C3450 0.930 . S
H3445 C3453 0.930 . S
H3446 C3454 0.930 . S
H3447 C3455 0.930 . S
H3448 C3458 0.930 . S
H3449 C3459 0.930 . S
C3450 H3444 0.930 . S
C3450 C3451 1.355 . S
C3450 C3452 1.415 . S
C3451 C3450 1.355 . S
C3451 C3453 1.419 . S
C3452 C3450 1.415 . S
C3452 C3457 1.425 . S
C3452 C3459 1.409 . S
C3453 H3445 0.930 . S
C3453 C3451 1.419 . S
C3453 C3454 1.362 . S
C3454 H3446 0.930 . S
C3454 C3453 1.362 . S
C3454 C3457 1.409 . S
C3455 H3447 0.930 . S
C3455 C3456 1.355 . S
C3455 C3457 1.415 . S
C3456 C3455 1.355 . S
C3456 C3458 1.419 . S
C3457 C3452 1.425 . S
C3457 C3454 1.409 . S
C3457 C3455 1.415 . S
C3458 H3448 0.930 . S
C3458 C3456 1.419 . S
C3458 C3459 1.362 . S
C3459 H3449 0.930 . S
C3459 C3452 1.409 . S
C3459 C3458 1.362 . S
H3460 C3466 0.930 . S
H3461 C3469 0.930 . S
H3462 C3470 0.930 . S
H3463 C3471 0.930 . S
H3464 C3474 0.930 . S
H3465 C3475 0.930 . S
C3466 H3460 0.930 . S
C3466 C3467 1.355 . S
C3466 C3468 1.415 . S
C3467 C3466 1.355 . S
C3467 C3469 1.419 . S
C3468 C3466 1.415 . S
C3468 C3473 1.425 . S
C3468 C3475 1.409 . S
C3469 H3461 0.930 . S
C3469 C3467 1.419 . S
C3469 C3470 1.362 . S
C3470 H3462 0.930 . S
C3470 C3469 1.362 . S
C3470 C3473 1.409 . S
C3471 H3463 0.930 . S
C3471 C3472 1.355 . S
C3471 C3473 1.415 . S
C3472 C3471 1.355 . S
C3472 C3474 1.419 . S
C3473 C3468 1.425 . S
C3473 C3470 1.409 . S
C3473 C3471 1.415 . S
C3474 H3464 0.930 . S
C3474 C3472 1.419 . S
C3474 C3475 1.362 . S
C3475 H3465 0.930 . S
C3475 C3468 1.409 . S
C3475 C3474 1.362 . S
H3476 C3482 0.930 . S
H3477 C3485 0.930 . S
H3478 C3486 0.930 . S
H3479 C3487 0.930 . S
H3480 C3490 0.930 . S
H3481 C3491 0.930 . S
C3482 H3476 0.930 . S
C3482 C3483 1.355 . S
C3482 C3484 1.415 . S
C3483 C3482 1.355 . S
C3483 C3485 1.419 . S
C3484 C3482 1.415 . S
C3484 C3489 1.425 . S
C3484 C3491 1.409 . S
C3485 H3477 0.930 . S
C3485 C3483 1.419 . S
C3485 C3486 1.362 . S
C3486 H3478 0.930 . S
C3486 C3485 1.362 . S
C3486 C3489 1.409 . S
C3487 H3479 0.930 . S
C3487 C3488 1.355 . S
C3487 C3489 1.415 . S
C3488 C3487 1.355 . S
C3488 C3490 1.419 . S
C3489 C3484 1.425 . S
C3489 C3486 1.409 . S
C3489 C3487 1.415 . S
C3490 H3480 0.930 . S
C3490 C3488 1.419 . S
C3490 C3491 1.362 . S
C3491 H3481 0.930 . S
C3491 C3484 1.409 . S
C3491 C3490 1.362 . S
H3492 C3498 0.930 . S
H3493 C3501 0.930 . S
H3494 C3502 0.930 . S
H3495 C3503 0.930 . S
H3496 C3506 0.930 . S
H3497 C3507 0.930 . S
C3498 H3492 0.930 . S
C3498 C3499 1.355 . S
C3498 C3500 1.415 . S
C3499 C3498 1.355 . S
C3499 C3501 1.419 . S
C3500 C3498 1.415 . S
C3500 C3505 1.425 . S
C3500 C3507 1.409 . S
C3501 H3493 0.930 . S
C3501 C3499 1.419 . S
C3501 C3502 1.362 . S
C3502 H3494 0.930 . S
C3502 C3501 1.362 . S
C3502 C3505 1.409 . S
C3503 H3495 0.930 . S
C3503 C3504 1.355 . S
C3503 C3505 1.415 . S
C3504 C3503 1.355 . S
C3504 C3506 1.419 . S
C3505 C3500 1.425 . S
C3505 C3502 1.409 . S
C3505 C3503 1.415 . S
C3506 H3496 0.930 . S
C3506 C3504 1.419 . S
C3506 C3507 1.362 . S
C3507 H3497 0.930 . S
C3507 C3500 1.409 . S
C3507 C3506 1.362 . S
H3508 C3514 0.930 . S
H3509 C3517 0.930 . S
H3510 C3518 0.930 . S
H3511 C3519 0.930 . S
H3512 C3522 0.930 . S
H3513 C3523 0.930 . S
C3514 H3508 0.930 . S
C3514 C3515 1.355 . S
C3514 C3516 1.415 . S
C3515 C3514 1.355 . S
C3515 C3517 1.419 . S
C3516 C3514 1.415 . S
C3516 C3521 1.425 . S
C3516 C3523 1.409 . S
C3517 H3509 0.930 . S
C3517 C3515 1.419 . S
C3517 C3518 1.362 . S
C3518 H3510 0.930 . S
C3518 C3517 1.362 . S
C3518 C3521 1.409 . S
C3519 H3511 0.930 . S
C3519 C3520 1.355 . S
C3519 C3521 1.415 . S
C3520 C3519 1.355 . S
C3520 C3522 1.419 . S
C3521 C3516 1.425 . S
C3521 C3518 1.409 . S
C3521 C3519 1.415 . S
C3522 H3512 0.930 . S
C3522 C3520 1.419 . S
C3522 C3523 1.362 . S
C3523 H3513 0.930 . S
C3523 C3516 1.409 . S
C3523 C3522 1.362 . S
H3524 C3530 0.930 . S
H3525 C3533 0.930 . S
H3526 C3534 0.930 . S
H3527 C3535 0.930 . S
H3528 C3538 0.930 . S
H3529 C3539 0.930 . S
C3530 H3524 0.930 . S
C3530 C3531 1.355 . S
C3530 C3532 1.415 . S
C3531 C3530 1.355 . S
C3531 C3533 1.419 . S
C3532 C3530 1.415 . S
C3532 C3537 1.425 . S
C3532 C3539 1.409 . S
C3533 H3525 0.930 . S
C3533 C3531 1.419 . S
C3533 C3534 1.362 . S
C3534 H3526 0.930 . S
C3534 C3533 1.362 . S
C3534 C3537 1.409 . S
C3535 H3527 0.930 . S
C3535 C3536 1.355 . S
C3535 C3537 1.415 . S
C3536 C3535 1.355 . S
C3536 C3538 1.419 . S
C3537 C3532 1.425 . S
C3537 C3534 1.409 . S
C3537 C3535 1.415 . S
C3538 H3528 0.930 . S
C3538 C3536 1.419 . S
C3538 C3539 1.362 . S
C3539 H3529 0.930 . S
C3539 C3532 1.409 . S
C3539 C3538 1.362 . S
H3540 C3546 0.930 . S
H3541 C3549 0.930 . S
H3542 C3550 0.930 . S
H3543 C3551 0.930 . S
H3544 C3554 0.930 . S
H3545 C3555 0.930 . S
C3546 H3540 0.930 . S
C3546 C3547 1.355 . S
C3546 C3548 1.415 . S
C3547 C3546 1.355 . S
C3547 C3549 1.419 1_556 S
C3548 C3546 1.415 . S
C3548 C3553 1.425 . S
C3548 C3555 1.409 . S
C3549 H3541 0.930 . S
C3549 C3547 1.419 1_554 S
C3549 C3550 1.362 . S
C3550 H3542 0.930 . S
C3550 C3549 1.362 . S
C3550 C3553 1.409 1_554 S
C3551 H3543 0.930 . S
C3551 C3552 1.355 . S
C3551 C3553 1.415 . S
C3552 C3551 1.355 . S
C3552 C3554 1.419 . S
C3553 C3548 1.425 . S
C3553 C3550 1.409 1_556 S
C3553 C3551 1.415 . S
C3554 H3544 0.930 . S
C3554 C3552 1.419 . S
C3554 C3555 1.362 . S
C3555 H3545 0.930 . S
C3555 C3548 1.409 . S
C3555 C3554 1.362 . S
H3556 C3562 0.930 . S
H3557 C3565 0.930 . S
H3558 C3566 0.930 . S
H3559 C3567 0.930 . S
H3560 C3570 0.930 . S
H3561 C3571 0.930 . S
C3562 H3556 0.930 . S
C3562 C3563 1.355 . S
C3562 C3564 1.415 . S
C3563 C3562 1.355 . S
C3563 C3565 1.419 . S
C3564 C3562 1.415 . S
C3564 C3569 1.425 . S
C3564 C3571 1.409 . S
C3565 H3557 0.930 . S
C3565 C3563 1.419 . S
C3565 C3566 1.362 . S
C3566 H3558 0.930 . S
C3566 C3565 1.362 . S
C3566 C3569 1.409 . S
C3567 H3559 0.930 . S
C3567 C3568 1.355 . S
C3567 C3569 1.415 . S
C3568 C3567 1.355 . S
C3568 C3570 1.419 . S
C3569 C3564 1.425 . S
C3569 C3566 1.409 . S
C3569 C3567 1.415 . S
C3570 H3560 0.930 . S
C3570 C3568 1.419 . S
C3570 C3571 1.362 . S
C3571 H3561 0.930 . S
C3571 C3564 1.409 . S
C3571 C3570 1.362 . S
H3572 C3578 0.930 1_556 S
H3573 C3581 0.930 . S
H3574 C3582 0.930 . S
H3575 C3583 0.930 . S
H3576 C3586 0.930 . S
H3577 C3587 0.930 . S
C3578 H3572 0.930 1_554 S
C3578 C3579 1.355 . S
C3578 C3580 1.407 1_554 S
C3579 C3578 1.355 . S
C3579 C3581 1.419 . S
C3580 C3578 1.407 1_556 S
C3580 C3585 1.417 1_556 S
C3580 C3587 1.426 . S
C3581 H3573 0.930 . S
C3581 C3579 1.419 . S
C3581 C3582 1.362 . S
C3582 H3574 0.930 . S
C3582 C3581 1.362 . S
C3582 C3585 1.409 . S
C3583 H3575 0.930 . S
C3583 C3584 1.355 1_554 S
C3583 C3585 1.415 . S
C3584 C3583 1.355 1_556 S
C3584 C3586 1.419 . S
C3585 C3580 1.417 1_554 S
C3585 C3582 1.409 . S
C3585 C3583 1.415 . S
C3586 H3576 0.930 . S
C3586 C3584 1.419 . S
C3586 C3587 1.362 . S
C3587 H3577 0.930 . S
C3587 C3580 1.426 . S
C3587 C3586 1.362 . S
H3588 C3594 0.930 . S
H3589 C3597 0.930 1_554 S
H3590 C3598 0.930 . S
H3591 C3599 0.930 . S
H3592 C3602 0.930 . S
H3593 C3603 0.930 . S
C3594 H3588 0.930 . S
C3594 C3595 1.355 . S
C3594 C3596 1.415 . S
C3595 C3594 1.355 . S
C3595 C3597 1.419 . S
C3596 C3594 1.415 . S
C3596 C3601 1.425 . S
C3596 C3603 1.409 . S
C3597 H3589 0.930 1_556 S
C3597 C3595 1.419 . S
C3597 C3598 1.362 . S
C3598 H3590 0.930 . S
C3598 C3597 1.362 . S
C3598 C3601 1.409 . S
C3599 H3591 0.930 . S
C3599 C3600 1.355 . S
C3599 C3601 1.415 . S
C3600 C3599 1.355 . S
C3600 C3602 1.419 . S
C3601 C3596 1.425 . S
C3601 C3598 1.409 . S
C3601 C3599 1.415 . S
C3602 H3592 0.930 . S
C3602 C3600 1.419 . S
C3602 C3603 1.362 . S
C3603 H3593 0.930 . S
C3603 C3596 1.409 . S
C3603 C3602 1.362 . S
H3604 C3610 0.930 . S
H3605 C3613 0.930 . S
H3606 C3614 0.930 . S
H3607 C3615 0.930 . S
H3608 C3618 0.930 . S
H3609 C3619 0.930 . S
C3610 H3604 0.930 . S
C3610 C3611 1.355 . S
C3610 C3612 1.415 . S
C3611 C3610 1.355 . S
C3611 C3613 1.419 . S
C3612 C3610 1.415 . S
C3612 C3617 1.425 . S
C3612 C3619 1.409 . S
C3613 H3605 0.930 . S
C3613 C3611 1.419 . S
C3613 C3614 1.362 . S
C3614 H3606 0.930 . S
C3614 C3613 1.362 . S
C3614 C3617 1.409 . S
C3615 H3607 0.930 . S
C3615 C3616 1.355 . S
C3615 C3617 1.415 . S
C3616 C3615 1.355 . S
C3616 C3618 1.419 . S
C3617 C3612 1.425 . S
C3617 C3614 1.409 . S
C3617 C3615 1.415 . S
C3618 H3608 0.930 . S
C3618 C3616 1.419 . S
C3618 C3619 1.362 . S
C3619 H3609 0.930 . S
C3619 C3612 1.409 . S
C3619 C3618 1.362 . S
H3620 C3626 0.930 . S
H3621 C3629 0.930 . S
H3622 C3630 0.930 . S
H3623 C3631 0.930 . S
H3624 C3634 0.933 . S
H3625 C3635 0.930 . S
C3626 H3620 0.930 . S
C3626 C3627 1.355 . S
C3626 C3628 1.415 . S
C3627 C3626 1.355 . S
C3627 C3629 1.419 1_554 S
C3628 C3626 1.415 . S
C3628 C3633 1.425 1_554 S
C3628 C3635 1.409 . S
C3629 H3621 0.930 . S
C3629 C3627 1.419 1_556 S
C3629 C3630 1.362 . S
C3630 H3622 0.930 . S
C3630 C3629 1.362 . S
C3630 C3633 1.409 . S
C3631 H3623 0.930 . S
C3631 C3632 1.355 . S
C3631 C3633 1.415 . S
C3632 C3631 1.355 . S
C3632 C3634 1.408 1_556 S
C3633 C3628 1.425 1_556 S
C3633 C3630 1.409 . S
C3633 C3631 1.415 . S
C3634 H3624 0.933 . S
C3634 C3632 1.408 1_554 S
C3634 C3635 1.370 . S
C3635 H3625 0.930 . S
C3635 C3628 1.409 . S
C3635 C3634 1.370 . S
H3636 C3642 0.930 . S
H3637 C3645 0.930 . S
H3638 C3646 0.930 . S
H3639 C3647 0.930 . S
H3640 C3650 0.930 . S
H3641 C3651 0.930 . S
C3642 H3636 0.930 . S
C3642 C3643 1.355 . S
C3642 C3644 1.415 . S
C3643 C3642 1.355 . S
C3643 C3645 1.419 . S
C3644 C3642 1.415 . S
C3644 C3649 1.425 . S
C3644 C3651 1.409 . S
C3645 H3637 0.930 . S
C3645 C3643 1.419 . S
C3645 C3646 1.362 . S
C3646 H3638 0.930 . S
C3646 C3645 1.362 . S
C3646 C3649 1.409 . S
C3647 H3639 0.930 . S
C3647 C3648 1.355 . S
C3647 C3649 1.415 . S
C3648 C3647 1.355 . S
C3648 C3650 1.419 . S
C3649 C3644 1.425 . S
C3649 C3646 1.409 . S
C3649 C3647 1.415 . S
C3650 H3640 0.930 . S
C3650 C3648 1.419 . S
C3650 C3651 1.362 . S
C3651 H3641 0.930 . S
C3651 C3644 1.409 . S
C3651 C3650 1.362 . S
H3652 C3658 0.930 . S
H3653 C3661 0.930 . S
H3654 C3662 0.930 . S
H3655 C3663 0.930 . S
H3656 C3666 0.930 . S
H3657 C3667 0.930 . S
C3658 H3652 0.930 . S
C3658 C3659 1.355 . S
C3658 C3660 1.415 . S
C3659 C3658 1.355 . S
C3659 C3661 1.419 . S
C3660 C3658 1.415 . S
C3660 C3665 1.425 . S
C3660 C3667 1.409 . S
C3661 H3653 0.930 . S
C3661 C3659 1.419 . S
C3661 C3662 1.362 . S
C3662 H3654 0.930 . S
C3662 C3661 1.362 . S
C3662 C3665 1.409 . S
C3663 H3655 0.930 . S
C3663 C3664 1.355 . S
C3663 C3665 1.415 . S
C3664 C3663 1.355 . S
C3664 C3666 1.419 . S
C3665 C3660 1.425 . S
C3665 C3662 1.409 . S
C3665 C3663 1.415 . S
C3666 H3656 0.930 . S
C3666 C3664 1.419 . S
C3666 C3667 1.362 . S
C3667 H3657 0.930 . S
C3667 C3660 1.409 . S
C3667 C3666 1.362 . S
H3668 C3674 0.930 . S
H3669 C3677 0.930 . S
H3670 C3678 0.930 . S
H3671 C3679 0.930 . S
H3672 C3682 0.930 . S
H3673 C3683 0.930 . S
C3674 H3668 0.930 . S
C3674 C3675 1.355 . S
C3674 C3676 1.415 . S
C3675 C3674 1.355 . S
C3675 C3677 1.419 . S
C3676 C3674 1.415 . S
C3676 C3681 1.425 . S
C3676 C3683 1.409 . S
C3677 H3669 0.930 . S
C3677 C3675 1.419 . S
C3677 C3678 1.362 . S
C3678 H3670 0.930 . S
C3678 C3677 1.362 . S
C3678 C3681 1.409 . S
C3679 H3671 0.930 . S
C3679 C3680 1.355 . S
C3679 C3681 1.415 . S
C3680 C3679 1.355 . S
C3680 C3682 1.419 . S
C3681 C3676 1.425 . S
C3681 C3678 1.409 . S
C3681 C3679 1.415 . S
C3682 H3672 0.930 . S
C3682 C3680 1.419 . S
C3682 C3683 1.362 . S
C3683 H3673 0.930 . S
C3683 C3676 1.409 . S
C3683 C3682 1.362 . S
H3684 C3690 0.930 . S
H3685 C3693 0.930 . S
H3686 C3694 0.930 . S
H3687 C3695 0.930 . S
H3688 C3698 0.930 . S
H3689 C3699 0.930 . S
C3690 H3684 0.930 . S
C3690 C3691 1.355 . S
C3690 C3692 1.415 . S
C3691 C3690 1.355 . S
C3691 C3693 1.419 . S
C3692 C3690 1.415 . S
C3692 C3697 1.425 . S
C3692 C3699 1.409 . S
C3693 H3685 0.930 . S
C3693 C3691 1.419 . S
C3693 C3694 1.362 . S
C3694 H3686 0.930 . S
C3694 C3693 1.362 . S
C3694 C3697 1.409 . S
C3695 H3687 0.930 . S
C3695 C3696 1.355 . S
C3695 C3697 1.415 . S
C3696 C3695 1.355 . S
C3696 C3698 1.419 . S
C3697 C3692 1.425 . S
C3697 C3694 1.409 . S
C3697 C3695 1.415 . S
C3698 H3688 0.930 . S
C3698 C3696 1.419 . S
C3698 C3699 1.362 . S
C3699 H3689 0.930 . S
C3699 C3692 1.409 . S
C3699 C3698 1.362 . S
H3700 C3706 0.930 . S
H3701 C3709 0.930 . S
H3702 C3710 0.930 . S
H3703 C3711 0.930 . S
H3704 C3714 0.930 . S
H3705 C3715 0.930 . S
C3706 H3700 0.930 . S
C3706 C3707 1.355 . S
C3706 C3708 1.415 . S
C3707 C3706 1.355 . S
C3707 C3709 1.419 . S
C3708 C3706 1.415 . S
C3708 C3713 1.425 . S
C3708 C3715 1.409 . S
C3709 H3701 0.930 . S
C3709 C3707 1.419 . S
C3709 C3710 1.362 . S
C3710 H3702 0.930 . S
C3710 C3709 1.362 . S
C3710 C3713 1.409 . S
C3711 H3703 0.930 . S
C3711 C3712 1.355 . S
C3711 C3713 1.415 . S
C3712 C3711 1.355 . S
C3712 C3714 1.419 . S
C3713 C3708 1.425 . S
C3713 C3710 1.409 . S
C3713 C3711 1.415 . S
C3714 H3704 0.930 . S
C3714 C3712 1.419 . S
C3714 C3715 1.362 . S
C3715 H3705 0.930 . S
C3715 C3708 1.409 . S
C3715 C3714 1.362 . S
H3716 C3722 0.930 . S
H3717 C3725 0.930 . S
H3718 C3726 0.930 . S
H3719 C3727 0.930 . S
H3720 C3730 0.930 . S
H3721 C3731 0.930 . S
C3722 H3716 0.930 . S
C3722 C3723 1.355 . S
C3722 C3724 1.415 . S
C3723 C3722 1.355 . S
C3723 C3725 1.419 . S
C3724 C3722 1.415 . S
C3724 C3729 1.425 . S
C3724 C3731 1.409 . S
C3725 H3717 0.930 . S
C3725 C3723 1.419 . S
C3725 C3726 1.362 . S
C3726 H3718 0.930 . S
C3726 C3725 1.362 . S
C3726 C3729 1.409 . S
C3727 H3719 0.930 . S
C3727 C3728 1.355 . S
C3727 C3729 1.415 . S
C3728 C3727 1.355 . S
C3728 C3730 1.419 . S
C3729 C3724 1.425 . S
C3729 C3726 1.409 . S
C3729 C3727 1.415 . S
C3730 H3720 0.930 . S
C3730 C3728 1.419 . S
C3730 C3731 1.362 . S
C3731 H3721 0.930 . S
C3731 C3724 1.409 . S
C3731 C3730 1.362 . S
H3732 C3738 0.930 . S
H3733 C3741 0.930 . S
H3734 C3742 0.930 . S
H3735 C3743 0.930 . S
H3736 C3746 0.930 1_655 S
H3737 C3747 0.916 1_655 S
C3738 H3732 0.930 . S
C3738 C3739 1.355 . S
C3738 C3740 1.415 . S
C3739 C3738 1.355 . S
C3739 C3741 1.419 . S
C3740 C3738 1.415 . S
C3740 C3745 1.425 . S
C3740 C3747 1.409 . S
C3741 H3733 0.930 . S
C3741 C3739 1.419 . S
C3741 C3742 1.362 . S
C3742 H3734 0.930 . S
C3742 C3741 1.362 . S
C3742 C3745 1.409 . S
C3743 H3735 0.930 . S
C3743 C3744 1.355 . S
C3743 C3745 1.415 . S
C3744 C3743 1.355 . S
C3744 C3746 1.419 . S
C3745 C3740 1.425 . S
C3745 C3742 1.409 . S
C3745 C3743 1.415 . S
C3746 H3736 0.930 1_455 S
C3746 C3744 1.419 . S
C3746 C3747 1.362 . S
C3747 H3737 0.916 1_455 S
C3747 C3740 1.409 . S
C3747 C3746 1.362 . S
H3748 C3754 0.930 . S
H3749 C3757 0.930 . S
H3750 C3758 0.930 . S
H3751 C3759 0.930 . S
H3752 C3762 0.930 . S
H3753 C3763 0.930 . S
C3754 H3748 0.930 . S
C3754 C3755 1.355 . S
C3754 C3756 1.415 . S
C3755 C3754 1.355 . S
C3755 C3757 1.419 . S
C3756 C3754 1.415 . S
C3756 C3761 1.425 . S
C3756 C3763 1.409 . S
C3757 H3749 0.930 . S
C3757 C3755 1.419 . S
C3757 C3758 1.362 . S
C3758 H3750 0.930 . S
C3758 C3757 1.362 . S
C3758 C3761 1.409 . S
C3759 H3751 0.930 . S
C3759 C3760 1.355 . S
C3759 C3761 1.415 . S
C3760 C3759 1.355 . S
C3760 C3762 1.419 . S
C3761 C3756 1.425 . S
C3761 C3758 1.409 . S
C3761 C3759 1.415 . S
C3762 H3752 0.930 . S
C3762 C3760 1.419 . S
C3762 C3763 1.362 . S
C3763 H3753 0.930 . S
C3763 C3756 1.409 . S
C3763 C3762 1.362 . S
H3764 C3770 0.930 . S
H3765 C3773 0.930 . S
H3766 C3774 0.930 . S
H3767 C3775 0.930 . S
H3768 C3778 0.930 . S
H3769 C3779 0.930 . S
C3770 H3764 0.930 . S
C3770 C3771 1.355 . S
C3770 C3772 1.415 . S
C3771 C3770 1.355 . S
C3771 C3773 1.419 . S
C3772 C3770 1.415 . S
C3772 C3777 1.425 . S
C3772 C3779 1.409 . S
C3773 H3765 0.930 . S
C3773 C3771 1.419 . S
C3773 C3774 1.362 . S
C3774 H3766 0.930 . S
C3774 C3773 1.362 . S
C3774 C3777 1.409 . S
C3775 H3767 0.930 . S
C3775 C3776 1.355 . S
C3775 C3777 1.415 . S
C3776 C3775 1.355 . S
C3776 C3778 1.419 . S
C3777 C3772 1.425 . S
C3777 C3774 1.409 . S
C3777 C3775 1.415 . S
C3778 H3768 0.930 . S
C3778 C3776 1.419 . S
C3778 C3779 1.362 . S
C3779 H3769 0.930 . S
C3779 C3772 1.409 . S
C3779 C3778 1.362 . S
H3780 C3786 0.930 . S
H3781 C3789 0.930 . S
H3782 C3790 0.930 1_545 S
H3783 C3791 0.964 . S
H3784 C3794 0.930 . S
H3785 C3795 0.930 . S
C3786 H3780 0.930 . S
C3786 C3787 1.355 . S
C3786 C3788 1.415 . S
C3787 C3786 1.355 . S
C3787 C3789 1.419 . S
C3788 C3786 1.415 . S
C3788 C3793 1.425 . S
C3788 C3795 1.409 . S
C3789 H3781 0.930 . S
C3789 C3787 1.419 . S
C3789 C3790 1.362 . S
C3790 H3782 0.930 1_565 S
C3790 C3789 1.362 . S
C3790 C3793 1.409 . S
C3791 H3783 0.964 . S
C3791 C3792 1.382 1_545 S
C3791 C3793 1.359 1_545 S
C3792 C3791 1.382 1_565 S
C3792 C3794 1.419 . S
C3793 C3788 1.425 . S
C3793 C3790 1.409 . S
C3793 C3791 1.359 1_565 S
C3794 H3784 0.930 . S
C3794 C3792 1.419 . S
C3794 C3795 1.362 . S
C3795 H3785 0.930 . S
C3795 C3788 1.409 . S
C3795 C3794 1.362 . S
H3796 C3802 0.930 . S
H3797 C3805 0.930 . S
H3798 C3806 0.930 . S
H3799 C3807 0.930 . S
H3800 C3810 0.930 . S
H3801 C3811 0.930 . S
C3802 H3796 0.930 . S
C3802 C3803 1.355 . S
C3802 C3804 1.415 . S
C3803 C3802 1.355 . S
C3803 C3805 1.419 . S
C3804 C3802 1.415 . S
C3804 C3809 1.425 . S
C3804 C3811 1.409 1_455 S
C3805 H3797 0.930 . S
C3805 C3803 1.419 . S
C3805 C3806 1.362 . S
C3806 H3798 0.930 . S
C3806 C3805 1.362 . S
C3806 C3809 1.409 . S
C3807 H3799 0.930 . S
C3807 C3808 1.301 1_455 S
C3807 C3809 1.415 . S
C3808 C3807 1.301 1_655 S
C3808 C3810 1.490 . S
C3809 C3804 1.425 . S
C3809 C3806 1.409 . S
C3809 C3807 1.415 . S
C3810 H3800 0.930 . S
C3810 C3808 1.490 . S
C3810 C3811 1.362 . S
C3811 H3801 0.930 . S
C3811 C3804 1.409 1_655 S
C3811 C3810 1.362 . S
H3812 C3818 0.930 . S
H3813 C3821 0.930 . S
H3814 C3822 0.930 . S
H3815 C3823 0.930 . S
H3816 C3826 0.930 . S
H3817 C3827 0.930 . S
C3818 H3812 0.930 . S
C3818 C3819 1.355 . S
C3818 C3820 1.415 . S
C3819 C3818 1.355 . S
C3819 C3821 1.419 . S
C3820 C3818 1.415 . S
C3820 C3825 1.425 . S
C3820 C3827 1.409 . S
C3821 H3813 0.930 . S
C3821 C3819 1.419 . S
C3821 C3822 1.362 . S
C3822 H3814 0.930 . S
C3822 C3821 1.362 . S
C3822 C3825 1.409 . S
C3823 H3815 0.930 . S
C3823 C3824 1.355 . S
C3823 C3825 1.415 . S
C3824 C3823 1.355 . S
C3824 C3826 1.419 . S
C3825 C3820 1.425 . S
C3825 C3822 1.409 . S
C3825 C3823 1.415 . S
C3826 H3816 0.930 . S
C3826 C3824 1.419 . S
C3826 C3827 1.362 . S
C3827 H3817 0.930 . S
C3827 C3820 1.409 . S
C3827 C3826 1.362 . S
H3828 C3834 0.930 . S
H3829 C3837 0.930 . S
H3830 C3838 0.930 . S
H3831 C3839 0.930 . S
H3832 C3842 0.930 . S
H3833 C3843 0.930 . S
C3834 H3828 0.930 . S
C3834 C3835 1.355 . S
C3834 C3836 1.415 . S
C3835 C3834 1.355 . S
C3835 C3837 1.419 . S
C3836 C3834 1.415 . S
C3836 C3841 1.425 . S
C3836 C3843 1.409 . S
C3837 H3829 0.930 . S
C3837 C3835 1.419 . S
C3837 C3838 1.362 . S
C3838 H3830 0.930 . S
C3838 C3837 1.362 . S
C3838 C3841 1.409 . S
C3839 H3831 0.930 . S
C3839 C3840 1.355 . S
C3839 C3841 1.415 . S
C3840 C3839 1.355 . S
C3840 C3842 1.419 . S
C3841 C3836 1.425 . S
C3841 C3838 1.409 . S
C3841 C3839 1.415 . S
C3842 H3832 0.930 . S
C3842 C3840 1.419 . S
C3842 C3843 1.362 . S
C3843 H3833 0.930 . S
C3843 C3836 1.409 . S
C3843 C3842 1.362 . S
H3844 C3850 0.930 . S
H3845 C3853 0.930 . S
H3846 C3854 0.930 . S
H3847 C3855 0.930 . S
H3848 C3858 0.930 . S
H3849 C3859 0.930 . S
C3850 H3844 0.930 . S
C3850 C3851 1.355 . S
C3850 C3852 1.415 . S
C3851 C3850 1.355 . S
C3851 C3853 1.419 . S
C3852 C3850 1.415 . S
C3852 C3857 1.425 . S
C3852 C3859 1.409 . S
C3853 H3845 0.930 . S
C3853 C3851 1.419 . S
C3853 C3854 1.362 . S
C3854 H3846 0.930 . S
C3854 C3853 1.362 . S
C3854 C3857 1.409 . S
C3855 H3847 0.930 . S
C3855 C3856 1.355 . S
C3855 C3857 1.415 . S
C3856 C3855 1.355 . S
C3856 C3858 1.419 . S
C3857 C3852 1.425 . S
C3857 C3854 1.409 . S
C3857 C3855 1.415 . S
C3858 H3848 0.930 . S
C3858 C3856 1.419 . S
C3858 C3859 1.362 . S
C3859 H3849 0.930 . S
C3859 C3852 1.409 . S
C3859 C3858 1.362 . S
H3860 C3866 0.930 . S
H3861 C3869 0.930 . S
H3862 C3870 0.930 . S
H3863 C3871 0.930 . S
H3864 C3874 0.930 . S
H3865 C3875 0.930 . S
C3866 H3860 0.930 . S
C3866 C3867 1.355 . S
C3866 C3868 1.415 . S
C3867 C3866 1.355 . S
C3867 C3869 1.419 . S
C3868 C3866 1.415 . S
C3868 C3873 1.425 . S
C3868 C3875 1.409 . S
C3869 H3861 0.930 . S
C3869 C3867 1.419 . S
C3869 C3870 1.362 . S
C3870 H3862 0.930 . S
C3870 C3869 1.362 . S
C3870 C3873 1.409 . S
C3871 H3863 0.930 . S
C3871 C3872 1.355 . S
C3871 C3873 1.415 . S
C3872 C3871 1.355 . S
C3872 C3874 1.419 . S
C3873 C3868 1.425 . S
C3873 C3870 1.409 . S
C3873 C3871 1.415 . S
C3874 H3864 0.930 . S
C3874 C3872 1.419 . S
C3874 C3875 1.362 . S
C3875 H3865 0.930 . S
C3875 C3868 1.409 . S
C3875 C3874 1.362 . S
H3876 C3882 0.930 . S
H3877 C3885 0.930 . S
H3878 C3886 0.930 1_565 S
H3879 C3887 0.930 1_565 S
H3880 C3890 0.930 . S
H3881 C3891 0.930 . S
C3882 H3876 0.930 . S
C3882 C3883 1.355 . S
C3882 C3884 1.415 . S
C3883 C3882 1.355 . S
C3883 C3885 1.419 . S
C3884 C3882 1.415 . S
C3884 C3889 1.425 . S
C3884 C3891 1.409 . S
C3885 H3877 0.930 . S
C3885 C3883 1.419 . S
C3885 C3886 1.362 . S
C3886 H3878 0.930 1_545 S
C3886 C3885 1.362 . S
C3886 C3889 1.409 . S
C3887 H3879 0.930 1_545 S
C3887 C3888 1.355 . S
C3887 C3889 1.415 . S
C3888 C3887 1.355 . S
C3888 C3890 1.419 . S
C3889 C3884 1.425 . S
C3889 C3886 1.409 . S
C3889 C3887 1.415 . S
C3890 H3880 0.930 . S
C3890 C3888 1.419 . S
C3890 C3891 1.362 . S
C3891 H3881 0.930 . S
C3891 C3884 1.409 . S
C3891 C3890 1.362 . S
H3892 C3898 0.930 . S
H3893 C3901 0.930 . S
H3894 C3902 0.930 . S
H3895 C3903 0.930 . S
H3896 C3906 0.930 1_455 S
H3897 C3907 0.930 1_455 S
C3898 H3892 0.930 . S
C3898 C3899 1.355 . S
C3898 C3900 1.415 . S
C3899 C3898 1.355 . S
C3899 C3901 1.419 . S
C3900 C3898 1.415 . S
C3900 C3905 1.425 . S
C3900 C3907 1.409 . S
C3901 H3893 0.930 . S
C3901 C3899 1.419 . S
C3901 C3902 1.362 . S
C3902 H3894 0.930 . S
C3902 C3901 1.362 . S
C3902 C3905 1.409 . S
C3903 H3895 0.930 . S
C3903 C3904 1.355 . S
C3903 C3905 1.415 . S
C3904 C3903 1.355 . S
C3904 C3906 1.419 . S
C3905 C3900 1.425 . S
C3905 C3902 1.409 . S
C3905 C3903 1.415 . S
C3906 H3896 0.930 1_655 S
C3906 C3904 1.419 . S
C3906 C3907 1.362 . S
C3907 H3897 0.930 1_655 S
C3907 C3900 1.409 . S
C3907 C3906 1.362 . S
H3908 C3914 0.930 . S
H3909 C3917 0.930 . S
H3910 C3918 0.930 . S
H3911 C3919 0.930 . S
H3912 C3922 0.930 . S
H3913 C3923 0.930 . S
C3914 H3908 0.930 . S
C3914 C3915 1.355 . S
C3914 C3916 1.415 . S
C3915 C3914 1.355 . S
C3915 C3917 1.419 . S
C3916 C3914 1.415 . S
C3916 C3921 1.425 . S
C3916 C3923 1.409 . S
C3917 H3909 0.930 . S
C3917 C3915 1.419 . S
C3917 C3918 1.362 . S
C3918 H3910 0.930 . S
C3918 C3917 1.362 . S
C3918 C3921 1.409 . S
C3919 H3911 0.930 . S
C3919 C3920 1.355 . S
C3919 C3921 1.415 . S
C3920 C3919 1.355 . S
C3920 C3922 1.419 . S
C3921 C3916 1.425 . S
C3921 C3918 1.409 . S
C3921 C3919 1.415 . S
C3922 H3912 0.930 . S
C3922 C3920 1.419 . S
C3922 C3923 1.362 . S
C3923 H3913 0.930 . S
C3923 C3916 1.409 . S
C3923 C3922 1.362 . S
H3924 C3930 0.930 . S
H3925 C3933 0.930 . S
H3926 C3934 0.930 . S
H3927 C3935 0.930 . S
H3928 C3938 0.930 . S
H3929 C3939 0.930 . S
C3930 H3924 0.930 . S
C3930 C3931 1.355 . S
C3930 C3932 1.415 . S
C3931 C3930 1.355 . S
C3931 C3933 1.419 . S
C3932 C3930 1.415 . S
C3932 C3937 1.425 . S
C3932 C3939 1.409 . S
C3933 H3925 0.930 . S
C3933 C3931 1.419 . S
C3933 C3934 1.362 . S
C3934 H3926 0.930 . S
C3934 C3933 1.362 . S
C3934 C3937 1.409 . S
C3935 H3927 0.930 . S
C3935 C3936 1.355 . S
C3935 C3937 1.415 . S
C3936 C3935 1.355 . S
C3936 C3938 1.419 . S
C3937 C3932 1.425 . S
C3937 C3934 1.409 . S
C3937 C3935 1.415 . S
C3938 H3928 0.930 . S
C3938 C3936 1.419 . S
C3938 C3939 1.362 . S
C3939 H3929 0.930 . S
C3939 C3932 1.409 . S
C3939 C3938 1.362 . S
H3940 C3946 0.930 . S
H3941 C3949 0.930 . S
H3942 C3950 0.930 . S
H3943 C3951 0.930 . S
H3944 C3954 0.930 . S
H3945 C3955 0.930 . S
C3946 H3940 0.930 . S
C3946 C3947 1.355 . S
C3946 C3948 1.415 . S
C3947 C3946 1.355 . S
C3947 C3949 1.419 . S
C3948 C3946 1.415 . S
C3948 C3953 1.425 . S
C3948 C3955 1.409 . S
C3949 H3941 0.930 . S
C3949 C3947 1.419 . S
C3949 C3950 1.362 . S
C3950 H3942 0.930 . S
C3950 C3949 1.362 . S
C3950 C3953 1.409 . S
C3951 H3943 0.930 . S
C3951 C3952 1.355 . S
C3951 C3953 1.415 . S
C3952 C3951 1.355 . S
C3952 C3954 1.419 . S
C3953 C3948 1.425 . S
C3953 C3950 1.409 . S
C3953 C3951 1.415 . S
C3954 H3944 0.930 . S
C3954 C3952 1.419 . S
C3954 C3955 1.362 . S
C3955 H3945 0.930 . S
C3955 C3948 1.409 . S
C3955 C3954 1.362 . S
H3956 C3962 0.930 . S
H3957 C3965 0.930 . S
H3958 C3966 0.930 . S
H3959 C3967 0.930 . S
H3960 C3970 0.930 . S
H3961 C3971 0.930 . S
C3962 H3956 0.930 . S
C3962 C3963 1.355 . S
C3962 C3964 1.415 . S
C3963 C3962 1.355 . S
C3963 C3965 1.419 . S
C3964 C3962 1.415 . S
C3964 C3969 1.425 . S
C3964 C3971 1.409 . S
C3965 H3957 0.930 . S
C3965 C3963 1.419 . S
C3965 C3966 1.362 . S
C3966 H3958 0.930 . S
C3966 C3965 1.362 . S
C3966 C3969 1.409 . S
C3967 H3959 0.930 . S
C3967 C3968 1.355 . S
C3967 C3969 1.415 . S
C3968 C3967 1.355 . S
C3968 C3970 1.419 . S
C3969 C3964 1.425 . S
C3969 C3966 1.409 . S
C3969 C3967 1.415 . S
C3970 H3960 0.930 . S
C3970 C3968 1.419 . S
C3970 C3971 1.362 . S
C3971 H3961 0.930 . S
C3971 C3964 1.409 . S
C3971 C3970 1.362 . S
H3972 C3978 0.930 . S
H3973 C3981 0.930 . S
H3974 C3982 0.930 . S
H3975 C3983 0.930 . S
H3976 C3986 0.930 . S
H3977 C3987 0.930 . S
C3978 H3972 0.930 . S
C3978 C3979 1.355 . S
C3978 C3980 1.415 . S
C3979 C3978 1.355 . S
C3979 C3981 1.419 . S
C3980 C3978 1.415 . S
C3980 C3985 1.425 . S
C3980 C3987 1.409 . S
C3981 H3973 0.930 . S
C3981 C3979 1.419 . S
C3981 C3982 1.362 . S
C3982 H3974 0.930 . S
C3982 C3981 1.362 . S
C3982 C3985 1.409 . S
C3983 H3975 0.930 . S
C3983 C3984 1.355 . S
C3983 C3985 1.415 . S
C3984 C3983 1.355 . S
C3984 C3986 1.419 . S
C3985 C3980 1.425 . S
C3985 C3982 1.409 . S
C3985 C3983 1.415 . S
C3986 H3976 0.930 . S
C3986 C3984 1.419 . S
C3986 C3987 1.362 . S
C3987 H3977 0.930 . S
C3987 C3980 1.409 . S
C3987 C3986 1.362 . S
H3988 C3994 0.930 . S
H3989 C3997 0.930 . S
H3990 C3998 0.930 . S
H3991 C3999 0.930 . S
H3992 C4002 0.930 . S
H3993 C4003 0.930 . S
C3994 H3988 0.930 . S
C3994 C3995 1.355 . S
C3994 C3996 1.415 . S
C3995 C3994 1.355 . S
C3995 C3997 1.419 . S
C3996 C3994 1.415 . S
C3996 C4001 1.425 . S
C3996 C4003 1.409 . S
C3997 H3989 0.930 . S
C3997 C3995 1.419 . S
C3997 C3998 1.362 . S
C3998 H3990 0.930 . S
C3998 C3997 1.362 . S
C3998 C4001 1.409 . S
C3999 H3991 0.930 . S
C3999 C4000 1.355 . S
C3999 C4001 1.415 . S
C4000 C3999 1.355 . S
C4000 C4002 1.419 . S
C4001 C3996 1.425 . S
C4001 C3998 1.409 . S
C4001 C3999 1.415 . S
C4002 H3992 0.930 . S
C4002 C4000 1.419 . S
C4002 C4003 1.362 . S
C4003 H3993 0.930 . S
C4003 C3996 1.409 . S
C4003 C4002 1.362 . S
H4004 C4010 0.930 . S
H4005 C4013 0.930 . S
H4006 C4014 0.930 . S
H4007 C4015 0.930 . S
H4008 C4018 0.930 . S
H4009 C4019 0.930 . S
C4010 H4004 0.930 . S
C4010 C4011 1.355 . S
C4010 C4012 1.415 . S
C4011 C4010 1.355 . S
C4011 C4013 1.419 . S
C4012 C4010 1.415 . S
C4012 C4017 1.425 . S
C4012 C4019 1.409 . S
C4013 H4005 0.930 . S
C4013 C4011 1.419 . S
C4013 C4014 1.362 . S
C4014 H4006 0.930 . S
C4014 C4013 1.362 . S
C4014 C4017 1.409 . S
C4015 H4007 0.930 . S
C4015 C4016 1.355 . S
C4015 C4017 1.415 . S
C4016 C4015 1.355 . S
C4016 C4018 1.419 . S
C4017 C4012 1.425 . S
C4017 C4014 1.409 . S
C4017 C4015 1.415 . S
C4018 H4008 0.930 . S
C4018 C4016 1.419 . S
C4018 C4019 1.362 . S
C4019 H4009 0.930 . S
C4019 C4012 1.409 . S
C4019 C4018 1.362 . S
H4020 C4026 0.930 . S
H4021 C4029 0.930 . S
H4022 C4030 0.930 . S
H4023 C4031 0.930 . S
H4024 C4034 0.930 . S
H4025 C4035 0.930 . S
C4026 H4020 0.930 . S
C4026 C4027 1.355 . S
C4026 C4028 1.415 . S
C4027 C4026 1.355 . S
C4027 C4029 1.419 . S
C4028 C4026 1.415 . S
C4028 C4033 1.425 . S
C4028 C4035 1.409 1_655 S
C4029 H4021 0.930 . S
C4029 C4027 1.419 . S
C4029 C4030 1.362 . S
C4030 H4022 0.930 . S
C4030 C4029 1.362 . S
C4030 C4033 1.409 . S
C4031 H4023 0.930 . S
C4031 C4032 1.355 . S
C4031 C4033 1.415 . S
C4032 C4031 1.355 . S
C4032 C4034 1.419 1_655 S
C4033 C4028 1.425 . S
C4033 C4030 1.409 . S
C4033 C4031 1.415 . S
C4034 H4024 0.930 . S
C4034 C4032 1.419 1_455 S
C4034 C4035 1.362 . S
C4035 H4025 0.930 . S
C4035 C4028 1.409 1_455 S
C4035 C4034 1.362 . S
H4036 C4042 0.930 . S
H4037 C4045 0.930 . S
H4038 C4046 0.930 . S
H4039 C4047 0.930 . S
H4040 C4050 0.930 . S
H4041 C4051 0.930 . S
C4042 H4036 0.930 . S
C4042 C4043 1.355 . S
C4042 C4044 1.415 . S
C4043 C4042 1.355 . S
C4043 C4045 1.419 . S
C4044 C4042 1.415 . S
C4044 C4049 1.425 . S
C4044 C4051 1.409 . S
C4045 H4037 0.930 . S
C4045 C4043 1.419 . S
C4045 C4046 1.362 . S
C4046 H4038 0.930 . S
C4046 C4045 1.362 . S
C4046 C4049 1.409 . S
C4047 H4039 0.930 . S
C4047 C4048 1.355 . S
C4047 C4049 1.415 . S
C4048 C4047 1.355 . S
C4048 C4050 1.419 . S
C4049 C4044 1.425 . S
C4049 C4046 1.409 . S
C4049 C4047 1.415 . S
C4050 H4040 0.930 . S
C4050 C4048 1.419 . S
C4050 C4051 1.362 . S
C4051 H4041 0.930 . S
C4051 C4044 1.409 . S
C4051 C4050 1.362 . S
H4052 C4058 0.930 . S
H4053 C4061 0.930 . S
H4054 C4062 0.930 1_565 S
H4055 C4063 0.943 . S
H4056 C4066 0.930 . S
H4057 C4067 0.930 . S
C4058 H4052 0.930 . S
C4058 C4059 1.355 . S
C4058 C4060 1.415 . S
C4059 C4058 1.355 . S
C4059 C4061 1.419 . S
C4060 C4058 1.415 . S
C4060 C4065 1.425 . S
C4060 C4067 1.409 . S
C4061 H4053 0.930 . S
C4061 C4059 1.419 . S
C4061 C4062 1.362 . S
C4062 H4054 0.930 1_545 S
C4062 C4061 1.362 . S
C4062 C4065 1.409 . S
C4063 H4055 0.943 . S
C4063 C4064 1.344 1_565 S
C4063 C4065 1.413 1_565 S
C4064 C4063 1.344 1_545 S
C4064 C4066 1.419 . S
C4065 C4060 1.425 . S
C4065 C4062 1.409 . S
C4065 C4063 1.413 1_545 S
C4066 H4056 0.930 . S
C4066 C4064 1.419 . S
C4066 C4067 1.362 . S
C4067 H4057 0.930 . S
C4067 C4060 1.409 . S
C4067 C4066 1.362 . S
C2923 C49 1.252 . S
C2928 C2313 1.167 . S
C2939 C137 1.624 . S
C2944 C2393 1.566 . S
C2960 C2461 1.383 . S
C2955 C205 1.415 . S
C2971 C196 1.766 . S
C2976 C2541 1.837 . S
C2987 C57 1.620 . S
C2992 C2615 1.636 . S
C3003 C145 1.636 . S
C3008 C2683 1.537 . S
C3019 C313 1.292 . S
C3024 C2609 1.283 . S
C3040 C2689 1.520 . S
C3035 C401 1.507 . S
C3056 C2535 1.434 1_565 S
C3051 C489 1.420 . S
C3067 C469 1.839 . S
C3072 C2467 1.910 1_545 S
C3088 C2319 1.673 . S
C3083 C293 1.599 . S
C3099 C381 1.489 . S
C3104 C2387 1.480 . S
C3115 C577 1.452 . S
C3120 C2757 1.392 . S
C3131 C645 1.640 . S
C3136 C2837 1.619 . S
C3152 C2905 1.517 . S
C3147 C733 1.552 . S
C3163 C724 1.878 . S
C3168 C1653 1.871 . S
C3179 C585 1.746 . S
C3184 C1727 1.676 . S
C3195 C636 1.674 . S
C3200 C1795 1.565 . S
C3211 C841 1.174 . S
C3216 C1721 1.156 . S
C3227 C937 1.575 . S
C3232 C1801 1.566 . S
C3248 C1647 1.433 . S
C3243 C1025 1.467 . S
C3264 C2911 1.886 . S
C3259 C988 1.862 . S
C3280 C2763 1.547 . S
C3275 C821 1.528 . S
C3296 C2831 1.506 . S
C3291 C900 1.507 . S
C3307 C1105 1.351 . S
C3312 C1869 1.271 . S
C3323 C1193 1.693 . S
C3328 C1949 1.645 . S
C3339 C1281 1.611 . S
C3344 C2017 1.561 . S
C3355 C1289 1.968 . S
C3360 C2097 1.945 . S
C3376 C2171 1.626 . S
C3371 C1113 1.682 . S
C3392 C2239 1.623 . S
C3387 C1201 1.680 . S
C3408 C2165 1.270 . S
C3403 C1369 1.273 . S
C3424 C2245 1.503 . S
C3419 C1457 1.494 . S
C3435 C1553 1.348 . S
C3440 C2091 1.367 . S
C3456 C2023 1.809 . S
C3451 C1516 1.773 . S
C3467 C1349 1.617 . S
C3472 C1875 1.631 . S
C3488 C1943 1.536 . S
C3483 C1437 1.513 . S
C3504 C1623 2.105 . S
C3499 C29 2.109 . S
C3515 C117 1.504 . S
C3520 C1697 1.504 . S
C3536 C1783 1.748 . S
C3531 C225 1.733 . S
C3552 C1857 1.296 . S
C3547 C233 1.324 . S
C3568 C1919 1.688 . S
C3563 C20 1.687 . S
C3584 C2005 1.651 . S
C3579 C108 1.656 . S
C3595 C321 2.342 1_556 S
C3600 C1993 2.235 . S
C3611 C409 1.790 . S
C3616 C1845 1.693 . S
C3627 C497 2.043 . S
C3632 C1931 2.046 . S
C3643 C460 1.634 . S
C3648 C1709 1.566 . S
C3664 C1771 1.848 . S
C3659 C284 1.967 . S
C3675 C372 1.959 . S
C3680 C1635 1.927 . S
C3696 C2067 1.986 . S
C3691 C557 2.005 . S
C3707 C665 1.600 . S
C3712 C2141 1.588 . S
C3723 C753 1.621 . S
C3728 C2227 1.643 . S
C3744 C2301 0.936 . S
C3739 C761 0.921 . S
C3755 C548 1.496 . S
C3760 C2363 1.479 . S
C3771 C673 1.296 . S
C3776 C2449 1.343 . S
C3787 C849 1.763 . S
C3792 C2437 1.688 1_565 S
C3803 C929 1.305 . S
C3808 C2289 1.253 . S
C3824 C2375 1.761 . S
C3819 C1017 1.803 . S
C3835 C997 1.647 . S
C3840 C2153 1.548 . S
C3851 C812 1.887 . S
C3856 C2215 1.770 . S
C3872 C2079 1.961 . S
C3867 C909 1.998 . S
C3888 C2511 1.685 . S
C3883 C1085 1.695 . S
C3899 C1173 1.116 . S
C3904 C2585 1.116 . S
C3915 C1261 1.538 . S
C3920 C2671 1.563 . S
C3936 C2745 1.276 . S
C3931 C1252 1.274 . S
C3952 C2807 1.656 . S
C3947 C1076 1.662 . S
C3963 C1164 1.684 . S
C3968 C2893 1.714 . S
C3979 C1377 2.230 . S
C3984 C2881 2.105 . S
C3995 C1465 1.866 . S
C4000 C2733 1.771 . S
C4016 C2819 1.844 . S
C4011 C1545 1.933 . S
C4032 C2597 1.068 . S
C4027 C1525 1.091 . S
C4048 C2659 1.731 . S
C4043 C1340 1.812 . S
C4059 C1428 1.449 . S
C4064 C2523 1.432 . S
