# Generated by pormake.
# Topology tsx, (6,3)-cn, num edge types: 1
# Building blocks:
#     Node 0, Type 0, BuildingBlock: JUFBIX_clean_sbu_0, # of connection points: 6
#     Node 1, Type 0, BuildingBlock: JUFBIX_clean_sbu_0, # of connection points: 6
#     Node 2, Type 1, BuildingBlock: BETDIP_clean_linker_0, # of connection points: 3
#     Node 3, Type 1, BuildingBlock: BETDIP_clean_linker_0, # of connection points: 3
#     Node 4, Type 1, BuildingBlock: BETDIP_clean_linker_0, # of connection points: 3
#     Node 5, Type 1, BuildingBlock: BETDIP_clean_linker_0, # of connection points: 3
#     Edge 6, Type (0, 1), BuildingBlock: EZIPEK_clean_linker_0, # of connection points: 2
#     Edge 7, Type (0, 1), BuildingBlock: EZIPEK_clean_linker_0, # of connection points: 2
#     Edge 8, Type (0, 1), BuildingBlock: EZIPEK_clean_linker_0, # of connection points: 2
#     Edge 9, Type (0, 1), BuildingBlock: EZIPEK_clean_linker_0, # of connection points: 2
#     Edge 10, Type (0, 1), BuildingBlock: EZIPEK_clean_linker_0, # of connection points: 2
#     Edge 11, Type (0, 1), BuildingBlock: EZIPEK_clean_linker_0, # of connection points: 2
#     Edge 12, Type (0, 1), BuildingBlock: EZIPEK_clean_linker_0, # of connection points: 2
#     Edge 13, Type (0, 1), BuildingBlock: EZIPEK_clean_linker_0, # of connection points: 2
#     Edge 14, Type (0, 1), BuildingBlock: EZIPEK_clean_linker_0, # of connection points: 2
#     Edge 15, Type (0, 1), BuildingBlock: EZIPEK_clean_linker_0, # of connection points: 2
#     Edge 16, Type (0, 1), BuildingBlock: EZIPEK_clean_linker_0, # of connection points: 2
#     Edge 17, Type (0, 1), BuildingBlock: EZIPEK_clean_linker_0, # of connection points: 2
# Relax obj value: 0.106
# Max RMSD: 0.136
# Mean RMSD: 0.119
data_MOF--net-tsx--node1-JUFBIX_clean_sbu_0--node2-BETDIP_clean_linker_0--edge1-EZIPEK_clean_linker_0
_symmetry_space_group_name_H-M    P1
_symmetry_Int_Tables_number       1
_symmetry_cell_setting            triclinic
loop_
_symmetry_equiv_pos_as_xyz
'x, y, z'
_cell_length_a     15.210231
_cell_length_b     17.38942
_cell_length_c     24.654149
_cell_angle_alpha  90.485322
_cell_angle_beta   100.33811
_cell_angle_gamma 101.86292
loop_
_atom_site_label
_atom_site_type_symbol
_atom_site_fract_x
_atom_site_fract_y
_atom_site_fract_z
_atom_type_partial_charge
Co0 Co 0.09063 0.99068 -0.02119 0.0
C1 C 0.99486 1.01469 0.87591 0.0
Co2 Co 0.9741 0.04691 -0.01814 0.0
C3 C 0.19621 0.88137 0.94695 0.0
C4 C 0.27397 0.97012 0.00755 0.0
N5 N 0.1901 0.94553 -0.02386 0.0
N6 N 0.28044 0.8652 0.95944 0.0
C7 C 0.32962 0.92079 -0.00263 0.0
H8 H 0.13995 0.84647 0.91792 0.0
H9 H 0.293 1.02005 0.03685 0.0
C10 C 0.07055 1.01904 0.08433 0.0
N11 N 0.87858 0.09553 -0.012 0.0
C12 C 0.85787 0.15898 0.96147 0.0
C13 C 0.83299 0.08919 0.03047 0.0
N14 N 0.80431 0.19427 -0.01289 0.0
C15 C 0.7886 0.15043 0.03053 0.0
C16 C 0.9278 0.88485 -0.01828 0.0
O17 O 0.11568 0.98736 0.05578 0.0
O18 O 1.00773 0.05182 0.06061 0.0
O19 O 0.8994 0.94817 -0.01506 0.0
O20 O 1.00998 0.88842 -0.02458 0.0
O21 O 0.94209 0.04001 0.90323 0.0
H22 H 0.83754 0.04649 0.06195 0.0
H23 H 0.88747 0.18263 0.92676 0.0
O24 O 0.06531 0.99286 0.90132 0.0
O25 O 0.16866 0.09435 -0.01673 0.0
O26 O 0.04837 0.14618 -0.02069 0.0
C27 C 0.13374 0.15499 -0.01708 0.0
H28 H 0.40036 0.92474 0.01653 0.0
H29 H 0.75057 0.16366 0.0613 0.0
Co30 Co 0.58175 0.48329 0.47933 0.0
C31 C 0.49181 0.50963 0.3758 0.0
Co32 Co 0.46563 0.54111 0.48098 0.0
C33 C 0.69709 0.38208 0.44489 0.0
C34 C 0.76073 0.45644 0.51683 0.0
N35 N 0.68239 0.43743 0.47915 0.0
N36 N 0.78116 0.36613 0.46033 0.0
C37 C 0.82131 0.4127 0.50543 0.0
H38 H 0.64813 0.3551 0.40897 0.0
H39 H 0.77362 0.50037 0.55023 0.0
C40 C 0.55654 0.51184 0.58409 0.0
N41 N 0.36943 0.59028 0.48531 0.0
C42 C 0.35113 0.65541 0.45998 0.0
C43 C 0.32006 0.58156 0.52602 0.0
N44 N 0.29527 0.68929 0.48476 0.0
C45 C 0.27578 0.64285 0.52632 0.0
C46 C 0.41716 0.37859 0.47915 0.0
O47 O 0.60152 0.47888 0.55625 0.0
O48 O 0.49551 0.54595 0.55973 0.0
O49 O 0.39013 0.4425 0.483 0.0
O50 O 0.49968 0.38153 0.4737 0.0
O51 O 0.43756 0.53458 0.40221 0.0
H52 H 0.32192 0.53707 0.55636 0.0
H53 H 0.38389 0.68108 0.42692 0.0
O54 O 0.56113 0.48696 0.40203 0.0
O55 O 0.66096 0.58679 0.48575 0.0
O56 O 0.54094 0.63978 0.47958 0.0
C57 C 0.62648 0.64781 0.48463 0.0
H58 H 0.89041 0.41617 0.52748 0.0
H59 H 0.2352 0.6543 0.55616 0.0
H60 H 0.13059 0.02867 0.47616 0.0
H61 H 0.04232 0.08957 0.30921 0.0
H62 H 0.19918 0.91198 0.33961 0.0
H63 H 0.05647 0.20796 0.35547 0.0
C64 C 1.0096 0.18424 0.38221 0.0
C65 C 0.12698 1.02036 0.43243 0.0
C66 C 0.16825 0.96262 0.41269 0.0
C67 C 0.08102 0.0669 0.39539 0.0
C68 C 0.07938 0.05657 0.33885 0.0
C69 C 0.12372 1.00275 0.31922 0.0
C70 C 0.16741 0.95542 0.35573 0.0
N71 N 0.03263 0.12079 0.41434 0.0
H72 H 0.91474 1.013 0.47928 0.0
H73 H 0.0582 0.09799 0.6413 0.0
H74 H 0.84676 0.8907 0.6227 0.0
H75 H 0.17717 0.1311 0.59868 0.0
C76 C 0.14953 0.1499 0.5585 0.0
C77 C 0.92739 1.00434 0.52294 0.0
C78 C 0.87413 0.94091 0.54559 0.0
C79 C 0.99848 0.05766 0.55687 0.0
C80 C 1.00863 0.05388 0.61439 0.0
C81 C 0.95176 0.99532 0.63792 0.0
C82 C 0.88814 0.93732 0.60366 0.0
N83 N 0.05866 0.11452 0.53226 0.0
H84 H 0.63911 0.53102 -0.02251 0.0
H85 H 0.53239 0.58687 0.81258 0.0
H86 H 0.6951 0.41189 0.83781 0.0
H87 H 0.39807 0.57161 0.85856 0.0
C88 C 0.43579 0.61646 0.88989 0.0
C89 C 0.63078 0.52115 0.9335 0.0
C90 C 0.67065 0.4637 0.91246 0.0
C91 C 0.57628 0.56243 0.89745 0.0
C92 C 0.57107 0.55298 0.84066 0.0
C93 C 0.61587 0.50075 0.81949 0.0
C94 C 0.66394 0.4549 0.85499 0.0
N95 N 0.52487 0.61182 0.91794 0.0
H96 H 0.42837 0.51755 -0.01955 0.0
H97 H 0.56883 0.59856 0.14381 0.0
H98 H 0.3534 0.394 0.12156 0.0
H99 H 0.68599 0.6433 0.10387 0.0
C100 C 0.66038 0.65701 0.06193 0.0
C101 C 0.43972 0.50819 0.02394 0.0
C102 C 0.38432 0.44513 0.04546 0.0
C103 C 0.51077 0.56044 0.05868 0.0
C104 C 0.51935 0.55549 0.11608 0.0
C105 C 0.4605 0.49706 0.1385 0.0
C106 C 0.39652 0.44039 0.10336 0.0
N107 N 0.57174 0.61752 0.03468 0.0
C108 C 0.25826 0.25983 0.95682 0.0
C109 C 0.19107 0.23582 -0.01015 0.0
C110 C 0.22418 0.36971 0.03024 0.0
C111 C 0.30762 0.38621 0.01081 0.0
N112 N 0.39439 0.35205 0.94414 0.0
N113 N 0.11846 0.2681 0.06458 0.0
C114 C 0.32166 0.33326 0.97015 0.0
C115 C 0.17479 0.29116 0.02766 0.0
N116 N 0.25895 0.21421 0.9115 0.0
N117 N 0.19495 0.42901 0.05356 0.0
H118 H 0.08703 0.20978 0.0684 0.0
H119 H 0.1114 0.30592 0.0958 0.0
H120 H 0.23097 0.48732 0.05539 0.0
H121 H 0.13119 0.42121 0.0652 0.0
H122 H 0.30008 0.23181 0.88246 0.0
H123 H 0.21157 0.16169 0.89968 0.0
H124 H 0.41567 0.31143 0.92093 0.0
H125 H 0.4337 0.40836 0.94524 0.0
C126 C 0.28404 0.7241 0.95452 0.0
C127 C 0.31285 0.80143 0.93782 0.0
C128 C 0.42117 0.75745 0.88837 0.0
C129 C 0.39109 0.67972 0.9045 0.0
N130 N 0.27709 0.58503 0.93908 0.0
N131 N 0.39478 0.89075 0.88161 0.0
C132 C 0.31711 0.66167 0.93325 0.0
C133 C 0.37749 0.81777 0.9025 0.0
N134 N 0.2282 0.71113 -0.00739 0.0
N135 N 0.49087 0.77319 0.85929 0.0
H136 H 0.3621 0.93509 0.89089 0.0
H137 H 0.43556 0.90605 0.85212 0.0
H138 H 0.52148 0.72975 0.84609 0.0
H139 H 0.52143 0.8295 0.85007 0.0
H140 H 0.21272 0.65764 0.01112 0.0
H141 H 0.20322 0.75591 0.0091 0.0
H142 H 0.2179 0.56829 0.95551 0.0
H143 H 0.29782 0.53778 0.92257 0.0
C144 C 0.77006 0.80429 0.96651 0.0
C145 C 0.86385 0.80991 -0.01096 0.0
C146 C 0.81959 0.69492 0.04261 0.0
C147 C 0.72738 0.70375 0.03111 0.0
N148 N 0.61787 0.77766 -0.01318 0.0
N149 N 0.97802 0.76086 0.05337 0.0
C150 C 0.70265 0.76035 -0.00648 0.0
C151 C 0.88925 0.75445 0.02771 0.0
N152 N 0.74569 0.84248 0.91986 0.0
N153 N 0.84069 0.62919 0.06709 0.0
H154 H 0.03244 0.80248 0.04445 0.0
H155 H 0.99681 0.72762 0.0868 0.0
H156 H 0.79102 0.58295 0.07659 0.0
H157 H 0.90575 0.61673 0.07188 0.0
H158 H 0.67816 0.836 0.89961 0.0
H159 H 0.79409 0.87324 0.89837 0.0
H160 H 0.60142 0.82503 0.96451 0.0
H161 H 0.56744 0.75107 0.00819 0.0
C162 C 0.68367 0.2716 -0.02661 0.0
C163 C 0.77577 0.26738 -0.02556 0.0
C164 C 0.80733 0.40457 0.94747 0.0
C165 C 0.71523 0.40827 0.94834 0.0
N166 N 0.58621 0.3571 -0.00847 0.0
N167 N 0.93149 0.33895 -0.01945 0.0
C168 C 0.65949 0.34567 0.97051 0.0
C169 C 0.83998 0.33668 0.96683 0.0
N170 N 0.61799 0.20485 -0.02739 0.0
N171 N 0.86313 0.46576 0.92815 0.0
H172 H 0.95735 0.29243 -0.00123 0.0
H173 H 0.98122 0.3898 -0.02028 0.0
H174 H 0.84266 0.51833 0.91775 0.0
H175 H 0.92767 0.46292 0.92061 0.0
H176 H 0.54866 0.20585 0.96777 0.0
H177 H 0.63146 0.14864 0.9701 0.0
H178 H 0.54823 0.31352 0.01185 0.0
H179 H 0.57268 0.41259 -0.00363 0.0
C180 C 0.66749 0.78319 0.53012 0.0
C181 C 0.68409 0.72843 0.49207 0.0
C182 C 0.81226 0.82749 0.47121 0.0
C183 C 0.79805 0.8801 0.51208 0.0
N184 N 0.68554 0.92068 0.55627 0.0
N185 N 0.751 0.70761 0.41318 0.0
C186 C 0.71552 0.86216 0.53253 0.0
C187 C 0.75019 0.75327 0.45848 0.0
N188 N 0.61156 0.75923 0.56712 0.0
N189 N 0.88392 0.84734 0.44441 0.0
H190 H 0.70491 0.65423 0.402 0.0
H191 H 0.79088 0.72572 0.38361 0.0
H192 H 0.92252 0.90389 0.44539 0.0
H193 H 0.90527 0.80732 0.42075 0.0
H194 H 0.60438 0.79647 0.59865 0.0
H195 H 0.58045 0.70071 0.57052 0.0
H196 H 0.6223 0.91185 0.56865 0.0
H197 H 0.7202 0.97936 0.55777 0.0
C198 C 0.81321 0.23586 0.44192 0.0
C199 C 0.82523 0.31689 0.43183 0.0
C200 C 0.93912 0.3051 0.37499 0.0
C201 C 0.93622 0.22638 0.39156 0.0
N202 N 0.83802 0.10912 0.41487 0.0
N203 N 0.89776 0.43046 0.38972 0.0
C204 C 0.86401 0.18918 0.41785 0.0
C205 C 0.88697 0.35174 0.39802 0.0
N206 N 0.75586 0.2044 0.47644 0.0
N207 N 0.98654 0.33382 0.33474 0.0
H208 H 0.85643 0.46475 0.40328 0.0
H209 H 0.95032 0.46276 0.37225 0.0
H210 H 0.01752 0.29988 0.31223 0.0
H211 H 0.98559 0.38851 0.31816 0.0
H212 H 0.75225 0.14793 0.49092 0.0
H213 H 0.71627 0.23709 0.49348 0.0
H214 H 0.78115 0.0785 0.42939 0.0
H215 H 0.86594 0.07384 0.39118 0.0
C216 C 0.37564 0.24249 0.51839 0.0
C217 C 0.35099 0.30389 0.48485 0.0
C218 C 0.19158 0.25995 0.49523 0.0
C219 C 0.21523 0.19786 0.5276 0.0
N220 N 0.32285 0.11381 0.55205 0.0
N221 N 0.23015 0.3462 0.4229 0.0
C222 C 0.30507 0.18377 0.5333 0.0
C223 C 0.25685 0.30358 0.46676 0.0
N224 N 0.46494 0.24168 0.53915 0.0
N225 N 0.11028 0.28192 0.49476 0.0
H226 H 0.27654 0.37607 0.39978 0.0
H227 H 0.16166 0.3441 0.40616 0.0
H228 H 0.06193 0.25482 0.51743 0.0
H229 H 0.09514 0.33233 0.47598 0.0
H230 H 0.48403 0.20396 0.5696 0.0
H231 H 0.52037 0.28059 0.52893 0.0
H232 H 0.38515 0.09766 0.55195 0.0
H233 H 0.2722 0.06843 0.56156 0.0
C234 C 0.33378 0.83322 0.46893 0.0
C235 C 0.26806 0.76338 0.47333 0.0
C236 C 0.15212 0.84243 0.46856 0.0
C237 C 0.21018 0.90613 0.44913 0.0
N238 N 0.36113 0.96493 0.43443 0.0
N239 N 0.10889 0.70136 0.46703 0.0
C240 C 0.30296 0.90244 0.45064 0.0
C241 C 0.17556 0.76797 0.4705 0.0
N242 N 0.42481 0.83461 0.4847 0.0
N243 N 0.07722 0.85321 0.48798 0.0
H244 H 0.12194 0.64514 0.46358 0.0
H245 H 0.03959 0.70287 0.46095 0.0
H246 H 0.06393 0.90877 0.49311 0.0
H247 H 0.0376 0.80888 0.50683 0.0
H248 H 0.47533 0.88551 0.48617 0.0
H249 H 0.44906 0.78698 0.5023 0.0
H250 H 0.42671 0.96266 0.42855 0.0
H251 H 0.34166 1.01818 0.42499 0.0
C252 C 0.1687 0.05713 0.17696 0.0
C253 C 0.0874 1.01239 0.14454 0.0
C254 C 0.04522 0.9457 0.2261 0.0
C255 C 0.12082 0.99654 0.25919 0.0
N256 N 0.25384 0.10184 0.26866 0.0
N257 N 0.94521 0.91707 0.1369 0.0
C258 C 0.18312 0.05206 0.23525 0.0
C259 C 0.0249 0.95717 0.16869 0.0
N260 N 0.23169 0.10446 0.15193 0.0
N261 N 0.99337 0.88632 0.24985 0.0
H262 H 0.92893 0.92206 0.09443 0.0
H263 H 0.89215 0.88246 0.1527 0.0
H264 H 1.00602 0.87721 0.29205 0.0
H265 H 0.94271 0.84213 0.22764 0.0
H266 H 0.29671 0.13202 0.1723 0.0
H267 H 0.2209 0.11329 0.10966 0.0
H268 H 0.29526 0.15014 0.25485 0.0
H269 H 0.26905 0.09671 0.3113 0.0
C270 C 0.95668 0.07268 0.78339 0.0
C271 C 0.97436 1.00771 0.81478 0.0
C272 C 0.98129 0.93533 0.73045 0.0
C273 C 0.95599 0.99754 0.69868 0.0
N274 N 0.89471 0.1155 0.69422 0.0
N275 N 0.97677 0.86915 0.81604 0.0
C276 C 0.93584 0.0632 0.72495 0.0
C277 C 0.97858 0.93648 0.78766 0.0
N278 N 0.96468 0.14459 0.80881 0.0
N279 N 1.01147 0.8768 0.70673 0.0
H280 H 0.96991 0.86654 0.85736 0.0
H281 H 0.97142 0.81423 0.79698 0.0
H282 H 0.01688 0.87482 0.66519 0.0
H283 H 0.03943 0.83451 0.72948 0.0
H284 H 0.96155 0.19544 0.78712 0.0
H285 H 0.98369 0.1554 0.85138 0.0
H286 H 0.87088 0.16011 0.71175 0.0
H287 H 0.87562 0.10926 0.65135 0.0
C288 C 0.51188 0.453 0.66945 0.0
C289 C 0.5737 0.50742 0.64437 0.0
C290 C 0.67072 0.54984 0.73426 0.0
C291 C 0.60949 0.49477 0.7592 0.0
N292 N 0.48149 0.3853 0.75205 0.0
N293 N 0.71727 0.60001 0.64995 0.0
C294 C 0.53305 0.44344 0.72712 0.0
C295 C 0.65508 0.55333 0.67592 0.0
N296 N 0.43238 0.41157 0.63818 0.0
N297 N 0.74165 0.60071 0.76674 0.0
H298 H 0.70565 0.60773 0.60755 0.0
H299 H 0.78248 0.62807 0.66968 0.0
H300 H 0.75779 0.59703 0.80947 0.0
H301 H 0.78217 0.64876 0.75206 0.0
H302 H 0.37977 0.37714 0.65443 0.0
H303 H 0.41596 0.41499 0.59551 0.0
H304 H 0.42987 0.341 0.73077 0.0
H305 H 0.49493 0.37752 0.79442 0.0
C306 C 0.47941 0.43398 0.28703 0.0
C307 C 0.47465 0.50461 0.31469 0.0
C308 C 0.44223 0.56342 0.22551 0.0
C309 C 0.46263 0.49807 0.19903 0.0
N310 N 0.51573 0.3762 0.20649 0.0
N311 N 0.46786 0.64224 0.31029 0.0
C312 C 0.48525 0.43451 0.23027 0.0
C313 C 0.45997 0.57094 0.28402 0.0
N314 N 0.4751 0.36567 0.31441 0.0
N315 N 0.40369 0.61724 0.1949 0.0
H316 H 0.48459 0.65158 0.35304 0.0
H317 H 0.46696 0.69395 0.28933 0.0
H318 H 0.38686 0.61252 0.15191 0.0
H319 H 0.37965 0.66173 0.21242 0.0
H320 H 0.46993 0.3112 0.29476 0.0
H321 H 0.46609 0.36191 0.35533 0.0
H322 H 0.5418 0.33283 0.22904 0.0
H323 H 0.52333 0.37542 0.1653 0.0
loop_
_geom_bond_atom_site_label_1
_geom_bond_atom_site_label_2
_geom_bond_distance
_geom_bond_site_symmetry_2
_ccdc_geom_bond_type
Co0 N5 2.060 . S
Co0 O17 2.021 . S
Co0 O20 2.062 1_455 S
Co0 O24 2.117 1_554 S
Co0 O25 2.020 1_565 S
C1 O21 1.259 . S
C1 O24 1.259 1_645 S
Co2 N11 2.057 1_556 S
Co2 O18 2.118 1_556 S
Co2 O19 2.020 1_545 S
Co2 O21 2.021 . S
Co2 O26 2.062 1_656 S
C3 N5 1.322 . S
C3 N6 1.347 . S
C3 H8 0.931 . S
C4 N5 1.366 1_556 S
C4 C7 1.350 . S
C4 H9 0.930 . S
N5 Co0 2.060 . S
N5 C3 1.322 . S
N5 C4 1.366 1_554 S
N6 C3 1.347 . S
N6 C7 1.373 1_554 S
C7 C4 1.350 . S
C7 N6 1.373 1_556 S
C7 H28 0.931 . S
H8 C3 0.931 . S
H9 C4 0.930 . S
C10 O17 1.259 1_545 S
C10 O18 1.253 1_455 S
N11 Co2 2.057 1_554 S
N11 C12 1.316 1_554 S
N11 C13 1.375 . S
C12 N11 1.316 1_556 S
C12 N14 1.347 1_556 S
C12 H23 0.931 . S
C13 N11 1.375 . S
C13 C15 1.350 . S
C13 H22 0.930 . S
N14 C12 1.347 1_554 S
N14 C15 1.373 . S
C15 C13 1.350 . S
C15 N14 1.373 . S
C15 H29 0.931 . S
C16 O19 1.256 1_554 S
C16 O20 1.255 . S
O17 Co0 2.021 . S
O17 C10 1.259 1_565 S
O18 Co2 2.118 1_554 S
O18 C10 1.253 1_655 S
O19 Co2 2.020 1_565 S
O19 C16 1.256 1_556 S
O20 Co0 2.062 1_655 S
O20 C16 1.255 . S
O21 C1 1.259 . S
O21 Co2 2.021 . S
H22 C13 0.930 . S
H23 C12 0.931 . S
O24 Co0 2.117 1_556 S
O24 C1 1.259 1_465 S
O25 Co0 2.020 1_545 S
O25 C27 1.256 . S
O26 Co2 2.062 1_454 S
O26 C27 1.255 . S
C27 O25 1.256 . S
C27 O26 1.255 . S
H28 C7 0.931 . S
H29 C15 0.931 . S
Co30 N35 2.057 . S
Co30 O47 2.021 . S
Co30 O50 2.062 . S
Co30 O54 2.117 . S
Co30 O55 2.020 . S
C31 O51 1.259 . S
C31 O54 1.258 . S
Co32 N41 2.057 . S
Co32 O48 2.117 . S
Co32 O49 2.020 . S
Co32 O51 2.021 . S
Co32 O56 2.062 . S
C33 N35 1.316 . S
C33 N36 1.347 . S
C33 H38 0.931 . S
C34 N35 1.375 . S
C34 C37 1.350 . S
C34 H39 0.930 . S
N35 Co30 2.057 . S
N35 C33 1.316 . S
N35 C34 1.375 . S
N36 C33 1.347 . S
N36 C37 1.373 . S
C37 C34 1.350 . S
C37 N36 1.373 . S
C37 H58 0.931 . S
H38 C33 0.931 . S
H39 C34 0.930 . S
C40 O47 1.259 . S
C40 O48 1.258 . S
N41 Co32 2.057 . S
N41 C42 1.316 . S
N41 C43 1.375 . S
C42 N41 1.316 . S
C42 N44 1.347 . S
C42 H53 0.931 . S
C43 N41 1.375 . S
C43 C45 1.350 . S
C43 H52 0.930 . S
N44 C42 1.347 . S
N44 C45 1.373 . S
C45 C43 1.350 . S
C45 N44 1.373 . S
C45 H59 0.931 . S
C46 O49 1.256 . S
C46 O50 1.255 . S
O47 Co30 2.021 . S
O47 C40 1.259 . S
O48 Co32 2.117 . S
O48 C40 1.258 . S
O49 Co32 2.020 . S
O49 C46 1.256 . S
O50 Co30 2.062 . S
O50 C46 1.255 . S
O51 C31 1.259 . S
O51 Co32 2.021 . S
H52 C43 0.930 . S
H53 C42 0.931 . S
O54 Co30 2.117 . S
O54 C31 1.258 . S
O55 Co30 2.020 . S
O55 C57 1.256 . S
O56 Co32 2.062 . S
O56 C57 1.255 . S
C57 O55 1.256 . S
C57 O56 1.255 . S
H58 C37 0.931 . S
H59 C45 0.931 . S
H60 C65 0.930 . S
H61 C68 0.930 1_655 S
H62 C70 0.930 . S
H63 C64 1.016 . S
C64 H63 1.016 . S
C64 N71 1.286 . S
C65 H60 0.930 . S
C65 C66 1.397 . S
C65 C67 1.361 1_565 S
C66 C65 1.397 . S
C66 C70 1.390 . S
C67 C65 1.361 1_545 S
C67 C68 1.393 . S
C67 N71 1.413 1_455 S
C68 H61 0.930 1_455 S
C68 C67 1.393 . S
C68 C69 1.399 1_545 S
C69 C68 1.399 1_565 S
C69 C70 1.381 . S
C70 H62 0.930 . S
C70 C66 1.390 . S
C70 C69 1.381 . S
N71 C64 1.286 . S
N71 C67 1.413 1_655 S
H72 C77 0.930 . S
H73 C80 0.930 . S
H74 C82 0.930 . S
H75 C76 1.016 . S
C76 H75 1.016 . S
C76 N83 1.286 . S
C77 H72 0.930 . S
C77 C78 1.397 . S
C77 C79 1.361 1_665 S
C78 C77 1.397 . S
C78 C82 1.390 . S
C79 C77 1.361 1_445 S
C79 C80 1.393 . S
C79 N83 1.413 . S
C80 H73 0.930 . S
C80 C79 1.393 . S
C80 C81 1.399 1_445 S
C81 C80 1.399 1_665 S
C81 C82 1.381 . S
C82 H74 0.930 . S
C82 C78 1.390 . S
C82 C81 1.381 . S
N83 C76 1.286 . S
N83 C79 1.413 . S
H84 C89 0.930 1_554 S
H85 C92 0.930 . S
H86 C94 0.930 . S
H87 C88 1.016 . S
C88 H87 1.016 . S
C88 N95 1.286 . S
C89 H84 0.930 1_556 S
C89 C90 1.397 . S
C89 C91 1.361 . S
C90 C89 1.397 . S
C90 C94 1.390 . S
C91 C89 1.361 . S
C91 C92 1.393 . S
C91 N95 1.413 . S
C92 H85 0.930 . S
C92 C91 1.393 . S
C92 C93 1.399 . S
C93 C92 1.399 . S
C93 C94 1.381 . S
C94 H86 0.930 . S
C94 C90 1.390 . S
C94 C93 1.381 . S
N95 C88 1.286 . S
N95 C91 1.413 . S
H96 C101 0.930 1_556 S
H97 C104 0.930 . S
H98 C106 0.930 . S
H99 C100 1.016 . S
C100 H99 1.016 . S
C100 N107 1.286 . S
C101 H96 0.930 1_554 S
C101 C102 1.397 . S
C101 C103 1.361 . S
C102 C101 1.397 . S
C102 C106 1.390 . S
C103 C101 1.361 . S
C103 C104 1.393 . S
C103 N107 1.413 . S
C104 H97 0.930 . S
C104 C103 1.393 . S
C104 C105 1.399 . S
C105 C104 1.399 . S
C105 C106 1.381 . S
C106 H98 0.930 . S
C106 C102 1.390 . S
C106 C105 1.381 . S
N107 C100 1.286 . S
N107 C103 1.413 . S
C108 C109 1.363 1_556 S
C108 C114 1.379 . S
C108 N116 1.356 . S
C109 C108 1.363 1_554 S
C109 C115 1.363 . S
C110 C111 1.363 . S
C110 C115 1.379 . S
C110 N117 1.356 . S
C111 C110 1.363 . S
C111 C114 1.363 1_554 S
N112 C114 1.356 . S
N112 H124 0.984 . S
N112 H125 0.985 . S
N113 C115 1.356 . S
N113 H118 0.984 . S
N113 H119 0.985 . S
C114 C108 1.379 . S
C114 C111 1.363 1_556 S
C114 N112 1.356 . S
C115 C109 1.363 . S
C115 C110 1.379 . S
C115 N113 1.356 . S
N116 C108 1.356 . S
N116 H122 0.984 . S
N116 H123 0.984 . S
N117 C110 1.356 . S
N117 H120 0.984 . S
N117 H121 0.985 . S
H118 N113 0.984 . S
H119 N113 0.985 . S
H120 N117 0.984 . S
H121 N117 0.985 . S
H122 N116 0.984 . S
H123 N116 0.984 . S
H124 N112 0.984 . S
H125 N112 0.985 . S
C126 C127 1.363 . S
C126 C132 1.379 . S
C126 N134 1.356 . S
C127 C126 1.363 . S
C127 C133 1.363 1_554 S
C128 C129 1.363 1_556 S
C128 C133 1.379 . S
C128 N135 1.356 . S
C129 C128 1.363 1_554 S
C129 C132 1.363 . S
N130 C132 1.356 . S
N130 H142 0.984 . S
N130 H143 0.985 . S
N131 C133 1.356 . S
N131 H136 0.984 . S
N131 H137 0.985 . S
C132 C126 1.379 . S
C132 C129 1.363 . S
C132 N130 1.356 . S
C133 C127 1.363 1_556 S
C133 C128 1.379 . S
C133 N131 1.356 . S
N134 C126 1.356 . S
N134 H140 0.984 . S
N134 H141 0.984 . S
N135 C128 1.356 . S
N135 H138 0.984 . S
N135 H139 0.985 . S
H136 N131 0.984 . S
H137 N131 0.985 . S
H138 N135 0.984 . S
H139 N135 0.985 . S
H140 N134 0.984 . S
H141 N134 0.984 . S
H142 N130 0.984 . S
H143 N130 0.985 . S
C144 C145 1.356 1_556 S
C144 C150 1.379 . S
C144 N152 1.356 . S
C145 C144 1.356 1_554 S
C145 C151 1.372 . S
C146 C147 1.363 . S
C146 C151 1.379 . S
C146 N153 1.356 . S
C147 C146 1.363 . S
C147 C150 1.363 1_554 S
N148 C150 1.356 . S
N148 H160 0.984 . S
N148 H161 0.985 . S
N149 C151 1.356 . S
N149 H154 0.984 . S
N149 H155 0.985 . S
C150 C144 1.379 . S
C150 C147 1.363 1_556 S
C150 N148 1.356 . S
C151 C145 1.372 . S
C151 C146 1.379 . S
C151 N149 1.356 . S
N152 C144 1.356 . S
N152 H158 0.984 . S
N152 H159 0.984 . S
N153 C146 1.356 . S
N153 H156 0.984 . S
N153 H157 0.985 . S
H154 N149 0.984 . S
H155 N149 0.985 . S
H156 N153 0.984 . S
H157 N153 0.985 . S
H158 N152 0.984 . S
H159 N152 0.984 . S
H160 N148 0.984 . S
H161 N148 0.985 . S
C162 C163 1.363 1_554 S
C162 C168 1.379 . S
C162 N170 1.356 . S
C163 C162 1.363 1_556 S
C163 C169 1.363 . S
C164 C165 1.363 . S
C164 C169 1.379 . S
C164 N171 1.356 . S
C165 C164 1.363 . S
C165 C168 1.363 1_556 S
N166 C168 1.356 . S
N166 H178 0.984 . S
N166 H179 0.985 . S
N167 C169 1.356 . S
N167 H172 0.984 . S
N167 H173 0.985 . S
C168 C162 1.379 . S
C168 C165 1.363 1_554 S
C168 N166 1.356 . S
C169 C163 1.363 . S
C169 C164 1.379 . S
C169 N167 1.356 . S
N170 C162 1.356 . S
N170 H176 0.984 . S
N170 H177 0.984 . S
N171 C164 1.356 . S
N171 H174 0.984 . S
N171 H175 0.985 . S
H172 N167 0.984 . S
H173 N167 0.985 . S
H174 N171 0.984 . S
H175 N171 0.985 . S
H176 N170 0.984 . S
H177 N170 0.984 . S
H178 N166 0.984 . S
H179 N166 0.985 . S
C180 C181 1.363 . S
C180 C186 1.379 . S
C180 N188 1.356 . S
C181 C180 1.363 . S
C181 C187 1.363 . S
C182 C183 1.363 . S
C182 C187 1.379 . S
C182 N189 1.356 . S
C183 C182 1.363 . S
C183 C186 1.363 . S
N184 C186 1.356 . S
N184 H196 0.984 . S
N184 H197 0.985 . S
N185 C187 1.356 . S
N185 H190 0.984 . S
N185 H191 0.985 . S
C186 C180 1.379 . S
C186 C183 1.363 . S
C186 N184 1.356 . S
C187 C181 1.363 . S
C187 C182 1.379 . S
C187 N185 1.356 . S
N188 C180 1.356 . S
N188 H194 0.984 . S
N188 H195 0.984 . S
N189 C182 1.356 . S
N189 H192 0.984 . S
N189 H193 0.985 . S
H190 N185 0.984 . S
H191 N185 0.985 . S
H192 N189 0.984 . S
H193 N189 0.985 . S
H194 N188 0.984 . S
H195 N188 0.984 . S
H196 N184 0.984 . S
H197 N184 0.985 . S
C198 C199 1.363 . S
C198 C204 1.379 . S
C198 N206 1.356 . S
C199 C198 1.363 . S
C199 C205 1.363 . S
C200 C201 1.363 . S
C200 C205 1.379 . S
C200 N207 1.356 . S
C201 C200 1.363 . S
C201 C204 1.363 . S
N202 C204 1.356 . S
N202 H214 0.984 1_655 S
N202 H215 0.985 1_655 S
N203 C205 1.356 . S
N203 H208 0.984 . S
N203 H209 0.985 . S
C204 C198 1.379 . S
C204 C201 1.363 . S
C204 N202 1.356 . S
C205 C199 1.363 . S
C205 C200 1.379 . S
C205 N203 1.356 . S
N206 C198 1.356 . S
N206 H212 0.984 . S
N206 H213 0.984 . S
N207 C200 1.356 . S
N207 H210 0.984 . S
N207 H211 0.985 . S
H208 N203 0.984 . S
H209 N203 0.985 . S
H210 N207 0.984 . S
H211 N207 0.985 . S
H212 N206 0.984 . S
H213 N206 0.984 . S
H214 N202 0.984 1_455 S
H215 N202 0.985 1_455 S
C216 C217 1.363 . S
C216 C222 1.379 . S
C216 N224 1.356 . S
C217 C216 1.363 . S
C217 C223 1.363 . S
C218 C219 1.363 . S
C218 C223 1.379 . S
C218 N225 1.356 . S
C219 C218 1.363 . S
C219 C222 1.363 . S
N220 C222 1.356 . S
N220 H232 0.984 . S
N220 H233 0.985 . S
N221 C223 1.356 . S
N221 H226 0.984 . S
N221 H227 0.985 . S
C222 C216 1.379 . S
C222 C219 1.363 . S
C222 N220 1.356 . S
C223 C217 1.363 . S
C223 C218 1.379 . S
C223 N221 1.356 . S
N224 C216 1.356 . S
N224 H230 0.984 . S
N224 H231 0.984 . S
N225 C218 1.356 . S
N225 H228 0.984 . S
N225 H229 0.985 . S
H226 N221 0.984 . S
H227 N221 0.985 . S
H228 N225 0.984 . S
H229 N225 0.985 . S
H230 N224 0.984 . S
H231 N224 0.984 . S
H232 N220 0.984 . S
H233 N220 0.985 . S
C234 C235 1.363 . S
C234 C240 1.379 . S
C234 N242 1.356 . S
C235 C234 1.363 . S
C235 C241 1.363 . S
C236 C237 1.363 . S
C236 C241 1.379 . S
C236 N243 1.356 . S
C237 C236 1.363 . S
C237 C240 1.363 . S
N238 C240 1.356 . S
N238 H250 0.984 . S
N238 H251 0.985 . S
N239 C241 1.356 . S
N239 H244 0.984 . S
N239 H245 0.985 . S
C240 C234 1.379 . S
C240 C237 1.363 . S
C240 N238 1.356 . S
C241 C235 1.363 . S
C241 C236 1.379 . S
C241 N239 1.356 . S
N242 C234 1.356 . S
N242 H248 0.984 . S
N242 H249 0.984 . S
N243 C236 1.356 . S
N243 H246 0.984 . S
N243 H247 0.985 . S
H244 N239 0.984 . S
H245 N239 0.985 . S
H246 N243 0.984 . S
H247 N243 0.985 . S
H248 N242 0.984 . S
H249 N242 0.984 . S
H250 N238 0.984 . S
H251 N238 0.985 . S
C252 C253 1.363 . S
C252 C258 1.379 . S
C252 N260 1.356 . S
C253 C252 1.363 . S
C253 C259 1.363 1_445 S
C254 C255 1.363 1_655 S
C254 C259 1.379 . S
C254 N261 1.356 . S
C255 C254 1.363 1_455 S
C255 C258 1.363 1_565 S
N256 C258 1.356 . S
N256 H268 0.984 . S
N256 H269 0.985 . S
N257 C259 1.356 . S
N257 H262 0.984 . S
N257 H263 0.985 . S
C258 C252 1.379 . S
C258 C255 1.363 1_545 S
C258 N256 1.356 . S
C259 C253 1.363 1_665 S
C259 C254 1.379 . S
C259 N257 1.356 . S
N260 C252 1.356 . S
N260 H266 0.984 . S
N260 H267 0.984 . S
N261 C254 1.356 . S
N261 H264 0.984 . S
N261 H265 0.985 . S
H262 N257 0.984 . S
H263 N257 0.985 . S
H264 N261 0.984 . S
H265 N261 0.985 . S
H266 N260 0.984 . S
H267 N260 0.984 . S
H268 N256 0.984 . S
H269 N256 0.985 . S
C270 C271 1.363 . S
C270 C276 1.379 . S
C270 N278 1.356 . S
C271 C270 1.363 . S
C271 C277 1.363 1_645 S
C272 C273 1.363 1_455 S
C272 C277 1.379 . S
C272 N279 1.356 . S
C273 C272 1.363 1_655 S
C273 C276 1.363 1_565 S
N274 C276 1.356 . S
N274 H286 0.984 . S
N274 H287 0.985 . S
N275 C277 1.356 . S
N275 H280 0.984 . S
N275 H281 0.985 . S
C276 C270 1.379 . S
C276 C273 1.363 1_545 S
C276 N274 1.356 . S
C277 C271 1.363 1_465 S
C277 C272 1.379 . S
C277 N275 1.356 . S
N278 C270 1.356 . S
N278 H284 0.984 . S
N278 H285 0.984 . S
N279 C272 1.356 . S
N279 H282 0.984 . S
N279 H283 0.985 . S
H280 N275 0.984 . S
H281 N275 0.985 . S
H282 N279 0.984 . S
H283 N279 0.985 . S
H284 N278 0.984 . S
H285 N278 0.984 . S
H286 N274 0.984 . S
H287 N274 0.985 . S
C288 C289 1.363 . S
C288 C294 1.379 . S
C288 N296 1.356 . S
C289 C288 1.363 . S
C289 C295 1.363 . S
C290 C291 1.363 . S
C290 C295 1.379 . S
C290 N297 1.356 . S
C291 C290 1.363 . S
C291 C294 1.363 . S
N292 C294 1.356 . S
N292 H304 0.984 . S
N292 H305 0.985 . S
N293 C295 1.356 . S
N293 H298 0.984 . S
N293 H299 0.985 . S
C294 C288 1.379 . S
C294 C291 1.363 . S
C294 N292 1.356 . S
C295 C289 1.363 . S
C295 C290 1.379 . S
C295 N293 1.356 . S
N296 C288 1.356 . S
N296 H302 0.984 . S
N296 H303 0.984 . S
N297 C290 1.356 . S
N297 H300 0.984 . S
N297 H301 0.985 . S
H298 N293 0.984 . S
H299 N293 0.985 . S
H300 N297 0.984 . S
H301 N297 0.985 . S
H302 N296 0.984 . S
H303 N296 0.984 . S
H304 N292 0.984 . S
H305 N292 0.985 . S
C306 C307 1.363 . S
C306 C312 1.379 . S
C306 N314 1.356 . S
C307 C306 1.363 . S
C307 C313 1.363 . S
C308 C309 1.363 . S
C308 C313 1.379 . S
C308 N315 1.356 . S
C309 C308 1.363 . S
C309 C312 1.363 . S
N310 C312 1.356 . S
N310 H322 0.984 . S
N310 H323 0.985 . S
N311 C313 1.356 . S
N311 H316 0.984 . S
N311 H317 0.985 . S
C312 C306 1.379 . S
C312 C309 1.363 . S
C312 N310 1.356 . S
C313 C307 1.363 . S
C313 C308 1.379 . S
C313 N311 1.356 . S
N314 C306 1.356 . S
N314 H320 0.984 . S
N314 H321 0.984 . S
N315 C308 1.356 . S
N315 H318 0.984 . S
N315 H319 0.985 . S
H316 N311 0.984 . S
H317 N311 0.985 . S
H318 N315 0.984 . S
H319 N315 0.985 . S
H320 N314 0.984 . S
H321 N314 0.984 . S
H322 N310 0.984 . S
H323 N310 0.985 . S
C111 C102 1.472 . S
C109 C27 1.504 . S
C127 N6 1.401 . S
C129 C88 1.421 1_554 S
C145 C16 1.477 . S
C147 C100 1.423 . S
C163 N14 1.452 1_556 S
C165 C90 1.450 . S
C181 C57 1.504 . S
C183 C78 1.472 . S
C199 N36 1.402 . S
C201 C64 1.421 . S
C219 C76 1.423 . S
C217 C46 1.479 . S
C237 C66 1.450 . S
C235 N44 1.452 . S
C253 C10 1.478 . S
C255 C69 1.479 . S
C271 C1 1.550 . S
C273 C81 1.548 . S
C291 C93 1.479 . S
C289 C40 1.478 . S
C307 C31 1.550 . S
C309 C105 1.548 . S
