# Generated by pormake.
# Topology zzz, (3,6)-cn, num edge types: 1
# Building blocks:
#     Node 0, Type 0, BuildingBlock: KAKCAD_clean_linker_0, # of connection points: 3
#     Node 1, Type 0, BuildingBlock: KAKCAD_clean_linker_0, # of connection points: 3
#     Node 2, Type 0, BuildingBlock: KAKCAD_clean_linker_0, # of connection points: 3
#     Node 3, Type 0, BuildingBlock: KAKCAD_clean_linker_0, # of connection points: 3
#     Node 4, Type 0, BuildingBlock: KAKCAD_clean_linker_0, # of connection points: 3
#     Node 5, Type 0, BuildingBlock: KAKCAD_clean_linker_0, # of connection points: 3
#     Node 6, Type 0, BuildingBlock: KAKCAD_clean_linker_0, # of connection points: 3
#     Node 7, Type 0, BuildingBlock: KAKCAD_clean_linker_0, # of connection points: 3
#     Node 8, Type 1, BuildingBlock: HISSIN_clean_sbu_0, # of connection points: 6
#     Node 9, Type 1, BuildingBlock: HISSIN_clean_sbu_0, # of connection points: 6
#     Node 10, Type 1, BuildingBlock: HISSIN_clean_sbu_0, # of connection points: 6
#     Node 11, Type 1, BuildingBlock: HISSIN_clean_sbu_0, # of connection points: 6
#     Edge 12, Type (0, 1), BuildingBlock: UVAHIK_clean_linker_0, # of connection points: 2
#     Edge 13, Type (0, 1), BuildingBlock: UVAHIK_clean_linker_0, # of connection points: 2
#     Edge 14, Type (0, 1), BuildingBlock: UVAHIK_clean_linker_0, # of connection points: 2
#     Edge 15, Type (0, 1), BuildingBlock: UVAHIK_clean_linker_0, # of connection points: 2
#     Edge 16, Type (0, 1), BuildingBlock: UVAHIK_clean_linker_0, # of connection points: 2
#     Edge 17, Type (0, 1), BuildingBlock: UVAHIK_clean_linker_0, # of connection points: 2
#     Edge 18, Type (0, 1), BuildingBlock: UVAHIK_clean_linker_0, # of connection points: 2
#     Edge 19, Type (0, 1), BuildingBlock: UVAHIK_clean_linker_0, # of connection points: 2
#     Edge 20, Type (0, 1), BuildingBlock: UVAHIK_clean_linker_0, # of connection points: 2
#     Edge 21, Type (0, 1), BuildingBlock: UVAHIK_clean_linker_0, # of connection points: 2
#     Edge 22, Type (0, 1), BuildingBlock: UVAHIK_clean_linker_0, # of connection points: 2
#     Edge 23, Type (0, 1), BuildingBlock: UVAHIK_clean_linker_0, # of connection points: 2
#     Edge 24, Type (0, 1), BuildingBlock: UVAHIK_clean_linker_0, # of connection points: 2
#     Edge 25, Type (0, 1), BuildingBlock: UVAHIK_clean_linker_0, # of connection points: 2
#     Edge 26, Type (0, 1), BuildingBlock: UVAHIK_clean_linker_0, # of connection points: 2
#     Edge 27, Type (0, 1), BuildingBlock: UVAHIK_clean_linker_0, # of connection points: 2
#     Edge 28, Type (0, 1), BuildingBlock: UVAHIK_clean_linker_0, # of connection points: 2
#     Edge 29, Type (0, 1), BuildingBlock: UVAHIK_clean_linker_0, # of connection points: 2
#     Edge 30, Type (0, 1), BuildingBlock: UVAHIK_clean_linker_0, # of connection points: 2
#     Edge 31, Type (0, 1), BuildingBlock: UVAHIK_clean_linker_0, # of connection points: 2
#     Edge 32, Type (0, 1), BuildingBlock: UVAHIK_clean_linker_0, # of connection points: 2
#     Edge 33, Type (0, 1), BuildingBlock: UVAHIK_clean_linker_0, # of connection points: 2
#     Edge 34, Type (0, 1), BuildingBlock: UVAHIK_clean_linker_0, # of connection points: 2
#     Edge 35, Type (0, 1), BuildingBlock: UVAHIK_clean_linker_0, # of connection points: 2
# Relax obj value: 0.355
# Max RMSD: 0.209
# Mean RMSD: 0.187
data_MOF--net-zzz--node1-HISSIN_clean_sbu_0--node2-KAKCAD_clean_linker_0--edge1-UVAHIK_clean_linker_0
_symmetry_space_group_name_H-M    P1
_symmetry_Int_Tables_number       1
_symmetry_cell_setting            triclinic
loop_
_symmetry_equiv_pos_as_xyz
'x, y, z'
_cell_length_a     69.491057
_cell_length_b     70.175763
_cell_length_c     26.722691
_cell_angle_alpha  89.353373
_cell_angle_beta   91.61045
_cell_angle_gamma 91.635673
loop_
_atom_site_label
_atom_site_type_symbol
_atom_site_fract_x
_atom_site_fract_y
_atom_site_fract_z
_atom_type_partial_charge
C0 C 0.7846 0.59692 0.03987 0.0
C1 C 0.80206 0.58735 0.04255 0.0
C2 C 0.77214 0.59601 0.08014 0.0
C3 C 0.77676 0.58516 0.1233 0.0
C4 C 0.79454 0.57606 0.12608 0.0
C5 C 0.80708 0.57728 0.08642 0.0
C6 C 0.76266 0.58194 0.16368 0.0
C7 C 0.74296 0.57955 0.15206 0.0
C8 C 0.72974 0.57418 0.18894 0.0
C9 C 0.73661 0.57045 0.23826 0.0
C10 C 0.75636 0.57323 0.25046 0.0
C11 C 0.76904 0.57939 0.21342 0.0
C12 C 0.765 0.56859 0.30015 0.0
C13 C 0.77163 0.58345 0.33141 0.0
C14 C 0.77183 0.55019 0.30894 0.0
C15 C 0.78619 0.54701 0.34568 0.0
C16 C 0.79406 0.56221 0.37435 0.0
C17 C 0.70906 0.57192 0.17343 0.0
C18 C 0.70064 0.58598 0.1428 0.0
C19 C 0.69856 0.55489 0.18244 0.0
C20 C 0.68054 0.55152 0.15842 0.0
C21 C 0.67269 0.56514 0.12497 0.0
C22 C 0.6828 0.58263 0.11876 0.0
C23 C 0.78588 0.58027 0.36842 0.0
H24 H 0.78046 0.60478 1.00634 0.0
H25 H 0.75873 0.60348 0.07697 0.0
H26 H 0.79848 0.56717 0.15788 0.0
H27 H 0.82027 0.56942 0.08905 0.0
H28 H 0.73788 0.58099 0.11353 0.0
H29 H 0.78418 0.58152 0.22337 0.0
H30 H 0.72676 0.56563 0.26676 0.0
H31 H 0.76686 0.59784 0.32462 0.0
H32 H 0.76732 0.53862 0.28436 0.0
H33 H 0.79217 0.53295 0.34868 0.0
H34 H 0.70835 0.59931 0.13536 0.0
H35 H 0.70472 0.54376 0.20572 0.0
H36 H 0.79124 0.59224 0.39047 0.0
H37 H 0.67753 0.59344 0.09304 0.0
H38 H 0.67306 0.53802 0.16493 0.0
C39 C 0.94556 0.77425 0.03589 0.0
C40 C 0.95047 0.79375 0.03764 0.0
C41 C 0.94997 0.76235 0.07678 0.0
C42 C 0.95998 0.76966 0.11938 0.0
C43 C 0.96408 0.78941 0.12136 0.0
C44 C 0.95915 0.8013 0.08131 0.0
C45 C 0.96793 0.75681 0.15931 0.0
C46 C 0.97432 0.73867 0.14756 0.0
C47 C 0.98426 0.72753 0.18317 0.0
C48 C 0.98863 0.735 0.23116 0.0
C49 C 0.98176 0.75301 0.24396 0.0
C50 C 0.97101 0.76338 0.20833 0.0
C51 C 0.98637 0.76248 0.29247 0.0
C52 C 0.9712 0.76883 0.32109 0.0
C53 C 1.00511 0.76974 0.30288 0.0
C54 C 1.00828 0.78431 0.3381 0.0
C55 C 0.99273 0.79193 0.36318 0.0
C56 C 0.98994 0.70832 0.16746 0.0
C57 C 0.97544 0.69487 0.15377 0.0
C58 C 1.00901 0.70493 0.15497 0.0
C59 C 0.01329 0.68894 0.12656 0.0
C60 C 0.99855 0.67606 0.11004 0.0
C61 C 0.97968 0.67893 0.12561 0.0
C62 C 0.97433 0.78337 0.356 0.0
H63 H 0.93891 0.76815 1.00236 0.0
H64 H 0.94611 0.74734 0.07416 0.0
H65 H 0.97218 0.79572 0.15243 0.0
H66 H 0.96347 0.81624 0.08311 0.0
H67 H 0.97232 0.7333 0.10987 0.0
H68 H 0.9657 0.77713 0.21864 0.0
H69 H 0.99692 0.72682 0.25831 0.0
H70 H 0.9566 0.76361 0.31347 0.0
H71 H 0.01699 0.76537 0.28067 0.0
H72 H 0.02262 0.79061 0.34269 0.0
H73 H 0.96056 0.69738 0.16211 0.0
H74 H 0.02038 0.71528 0.16428 0.0
H75 H 0.96211 0.78868 0.3753 0.0
H76 H 0.96788 0.66956 0.11328 0.0
H77 H 0.02803 0.68708 0.11592 0.0
C78 C 0.75609 0.93692 0.01581 0.0
C79 C 0.73707 0.94267 1.00753 0.0
C80 C 0.76609 0.94169 0.06028 0.0
C81 C 0.75734 0.95257 0.09686 0.0
C82 C 0.73789 0.95711 0.08979 0.0
C83 C 0.72786 0.95214 0.0458 0.0
C84 C 0.7689 0.9613 0.13878 0.0
C85 C 0.78741 0.96881 0.13019 0.0
C86 C 0.79754 0.9796 0.16654 0.0
C87 C 0.78891 0.98321 0.21258 0.0
C88 C 0.77038 0.97537 0.22228 0.0
C89 C 0.76075 0.96425 0.18537 0.0
C90 C 0.75981 0.97949 0.26854 0.0
C91 C 0.75035 0.96451 0.2942 0.0
C92 C 0.7561 0.99833 0.28173 0.0
C93 C 0.74219 1.00208 0.31726 0.0
C94 C 0.73174 0.98705 0.34051 0.0
C95 C 0.81683 0.98719 0.15299 0.0
C96 C 0.83276 0.97546 0.15907 0.0
C97 C 0.81819 1.00309 0.12076 0.0
C98 C 0.83467 1.00645 0.09252 0.0
C99 C 0.85009 0.99384 0.09554 0.0
C100 C 0.84925 0.97878 0.13083 0.0
C101 C 0.73653 0.96822 0.32962 0.0
H102 H 0.76347 0.92946 0.98706 0.0
H103 H 0.78094 0.93758 0.06501 0.0
H104 H 0.7307 0.96572 0.11655 0.0
H105 H 0.71331 0.95706 0.04028 0.0
H106 H 0.7938 0.96701 0.09404 0.0
H107 H 0.74641 0.95851 0.19227 0.0
H108 H 0.79647 0.99197 0.24033 0.0
H109 H 0.75288 0.94983 0.28476 0.0
H110 H 0.76302 0.01017 0.26229 0.0
H111 H 0.73917 0.01677 0.32526 0.0
H112 H 0.83188 0.96285 0.18275 0.0
H113 H 0.80587 0.012 0.11431 0.0
H114 H 0.72879 0.95622 0.34617 0.0
H115 H 0.86095 0.96897 0.13481 0.0
H116 H 0.83467 0.01808 0.06555 0.0
C117 C 0.48898 0.73601 0.34558 0.0
C118 C 0.50828 0.73178 0.35716 0.0
C119 C 0.48436 0.74863 0.30665 0.0
C120 C 0.49885 0.75735 0.27803 0.0
C121 C 0.5182 0.75432 0.29161 0.0
C122 C 0.52288 0.74163 0.33083 0.0
C123 C 0.4935 0.76628 0.22919 0.0
C124 C 0.49941 0.78501 0.2156 0.0
C125 C 0.49329 0.79276 0.169 0.0
C126 C 0.48204 0.7814 0.1358 0.0
C127 C 0.4768 0.76261 0.14818 0.0
C128 C 0.48235 0.75526 0.19506 0.0
C129 C 0.46672 0.75026 0.11071 0.0
C130 C 0.45084 0.7568 0.08231 0.0
C131 C 0.47364 0.73207 0.10147 0.0
C132 C 0.46519 0.72083 0.06378 0.0
C133 C 0.44957 0.72747 0.0347 0.0
C134 C 0.49876 0.81236 0.15216 0.0
C135 C 0.4844 0.82408 0.13181 0.0
C136 C 0.51819 0.81795 0.14686 0.0
C137 C 0.5231 0.83411 0.11786 0.0
C138 C 0.50863 0.84473 0.09367 0.0
C139 C 0.48927 0.84002 0.10271 0.0
C140 C 0.44223 0.74542 0.04479 0.0
H141 H 0.47728 0.72864 0.36432 0.0
H142 H 0.46932 0.75068 0.2968 0.0
H143 H 0.52964 0.76077 0.26988 0.0
H144 H 0.53791 0.739 0.33922 0.0
H145 H 0.50822 0.79357 0.24135 0.0
H146 H 0.4782 0.7407 0.20481 0.0
H147 H 0.47804 0.787 0.09907 0.0
H148 H 0.44519 0.77075 0.08893 0.0
H149 H 0.48596 0.72674 0.12245 0.0
H150 H 0.47097 0.70693 0.05711 0.0
H151 H 0.46931 0.82014 0.13557 0.0
H152 H 0.52953 0.80907 0.16178 0.0
H153 H 0.43021 0.75084 0.02281 0.0
H154 H 0.47785 0.84813 0.08509 0.0
H155 H 0.53814 0.83747 0.11142 0.0
C156 C 0.24896 0.44822 0.21436 0.0
C157 C 0.23267 0.43623 0.2054 0.0
C158 C 0.2638 0.44927 0.18038 0.0
C159 C 0.26265 0.43849 0.13646 0.0
C160 C 0.24717 0.42541 0.12926 0.0
C161 C 0.23236 0.42419 0.1636 0.0
C162 C 0.27603 0.44306 0.09562 0.0
C163 C 0.2957 0.4462 0.10588 0.0
C164 C 0.30789 0.45383 0.06923 0.0
C165 C 0.30014 0.4585 0.02134 0.0
C166 C 0.28045 0.45461 0.01018 0.0
C167 C 0.26866 0.44685 0.04743 0.0
C168 C 0.27097 0.45937 0.96147 0.0
C169 C 0.26657 0.47835 0.94988 0.0
C170 C 0.2617 0.44467 0.93396 0.0
C171 C 0.24711 0.44872 0.89871 0.0
C172 C 0.24138 0.46757 0.89034 0.0
C173 C 0.32836 0.45742 0.08407 0.0
C174 C 0.33561 0.47613 0.0909 0.0
C175 C 0.33919 0.44216 0.10259 0.0
C176 C 0.35614 0.44552 0.13083 0.0
C177 C 0.36261 0.46424 0.14148 0.0
C178 C 0.35265 0.47952 0.11932 0.0
C179 C 0.25192 0.48244 0.91443 0.0
H180 H 0.24966 0.45793 0.24559 0.0
H181 H 0.27544 0.45964 0.18667 0.0
H182 H 0.24609 0.41675 0.09594 0.0
H183 H 0.22025 0.4145 0.15611 0.0
H184 H 0.30146 0.44328 0.14325 0.0
H185 H 0.25333 0.44485 0.03953 0.0
H186 H 0.3093 0.46482 0.99314 0.0
H187 H 0.27322 0.4899 0.97135 0.0
H188 H 0.26468 0.42991 0.94269 0.0
H189 H 0.23951 0.43697 0.88018 0.0
H190 H 0.32733 0.48813 0.07771 0.0
H191 H 0.33382 0.42761 0.09807 0.0
H192 H 0.24782 0.49711 0.90895 0.0
H193 H 0.35724 0.49411 0.12692 0.0
H194 H 0.36367 0.43343 0.1465 0.0
C195 C 0.0807 0.24474 0.23331 0.0
C196 C 0.09413 0.23138 0.21882 0.0
C197 C 0.07486 0.25908 0.20021 0.0
C198 C 0.08236 0.26037 0.15199 0.0
C199 C 0.09737 0.24841 0.13967 0.0
C200 C 0.10322 0.23403 0.17283 0.0
C201 C 0.07229 0.27173 0.11271 0.0
C202 C 0.06527 0.28969 0.12318 0.0
C203 C 0.05301 0.29902 0.08892 0.0
C204 C 0.04777 0.29026 0.04293 0.0
C205 C 0.05533 0.27239 0.03124 0.0
C206 C 0.06747 0.26339 0.06654 0.0
C207 C 0.05023 0.26185 0.98433 0.0
C208 C 0.03099 0.25723 0.9709 0.0
C209 C 0.06491 0.2532 0.95834 0.0
C210 C 0.06059 0.2391 0.92297 0.0
C211 C 0.04139 0.23334 0.91176 0.0
C212 C 0.04557 0.31756 0.10441 0.0
C213 C 0.02905 0.31789 0.1334 0.0
C214 C 0.05765 0.3339 0.10235 0.0
C215 C 0.05392 0.34988 0.13111 0.0
C216 C 0.03814 0.34978 0.1631 0.0
C217 C 0.02531 0.33386 0.16229 0.0
C218 C 0.02661 0.24317 0.93489 0.0
H219 H 0.07327 0.24306 0.26824 0.0
H220 H 0.06321 0.268 0.21082 0.0
H221 H 0.1037 0.24937 0.10311 0.0
H222 H 0.11387 0.22417 0.16103 0.0
H223 H 0.06892 0.29627 0.15888 0.0
H224 H 0.07229 0.24916 0.05909 0.0
H225 H 0.03808 0.29727 0.01665 0.0
H226 H 0.01936 0.26357 0.99045 0.0
H227 H 0.0799 0.25647 0.96782 0.0
H228 H 0.0725 0.23193 0.90688 0.0
H229 H 0.01984 0.30525 0.13667 0.0
H230 H 0.0707 0.33381 0.08111 0.0
H231 H 0.01162 0.23955 0.92657 0.0
H232 H 0.01312 0.33315 0.18667 0.0
H233 H 0.06393 0.36198 0.13003 0.0
C234 C 0.27964 0.08808 0.22844 0.0
C235 C 0.29533 0.10019 0.21632 0.0
C236 C 0.26639 0.08203 0.19154 0.0
C237 C 0.26843 0.08798 0.14155 0.0
C238 C 0.28299 0.10156 0.13024 0.0
C239 C 0.29632 0.10762 0.16732 0.0
C240 C 0.25723 0.07786 0.10128 0.0
C241 C 0.23811 0.07188 0.10859 0.0
C242 C 0.22865 0.05893 0.07602 0.0
C243 C 0.23839 0.0522 0.03427 0.0
C244 C 0.25729 0.05906 0.02491 0.0
C245 C 0.26649 0.07176 0.05865 0.0
C246 C 0.2686 0.05285 0.98197 0.0
C247 C 0.2772 0.03498 0.98297 0.0
C248 C 0.2746 0.06651 0.94647 0.0
C249 C 0.28969 0.06285 0.91464 0.0
C250 C 0.29934 0.04549 0.91787 0.0
C251 C 0.20908 0.05211 0.08983 0.0
C252 C 0.20658 0.03438 0.11406 0.0
C253 C 0.19428 0.06528 0.09147 0.0
C254 C 0.17795 0.06141 0.11971 0.0
C255 C 0.17609 0.04432 0.1475 0.0
C256 C 0.19021 0.0305 0.14254 0.0
C257 C 0.2924 0.03131 0.95114 0.0
H258 H 0.27849 0.0818 0.26548 0.0
H259 H 0.25553 0.07141 0.20167 0.0
H260 H 0.28468 0.10673 0.09223 0.0
H261 H 0.30807 0.11722 0.15698 0.0
H262 H 0.23076 0.07667 0.14123 0.0
H263 H 0.2814 0.07601 0.05295 0.0
H264 H 0.23134 0.04196 0.00931 0.0
H265 H 0.27315 0.02439 0.01082 0.0
H266 H 0.26838 0.0805 0.94545 0.0
H267 H 0.2943 0.07396 0.88883 0.0
H268 H 0.218 0.02418 0.1144 0.0
H269 H 0.19601 0.07917 0.07375 0.0
H270 H 0.29951 0.01782 0.95494 0.0
H271 H 0.18935 0.01723 0.16355 0.0
H272 H 0.1672 0.07223 0.12173 0.0
C273 C 0.51016 0.27853 0.92354 0.0
C274 C 0.52491 0.28719 0.89527 0.0
C275 C 0.51437 0.26442 0.95951 0.0
C276 C 0.53342 0.2588 0.96805 0.0
C277 C 0.5479 0.26648 0.93751 0.0
C278 C 0.54371 0.28046 0.90152 0.0
C279 C 0.53895 0.24801 0.01411 0.0
C280 C 0.53056 0.2301 0.02657 0.0
C281 C 0.5363 0.22072 0.07132 0.0
C282 C 0.54974 0.22974 0.10409 0.0
C283 C 0.55741 0.24794 0.09328 0.0
C284 C 0.55227 0.25673 0.04773 0.0
C285 C 0.56878 0.25883 0.13179 0.0
C286 C 0.56268 0.25884 0.18151 0.0
C287 C 0.58422 0.27103 0.11826 0.0
C288 C 0.59235 0.28402 0.15264 0.0
C289 C 0.58513 0.28504 0.20109 0.0
C290 C 0.52779 0.20207 0.08714 0.0
C291 C 0.50805 0.20011 0.09653 0.0
C292 C 0.54002 0.18733 0.10208 0.0
C293 C 0.53296 0.17159 0.12903 0.0
C294 C 0.51348 0.17024 0.14197 0.0
C295 C 0.50096 0.18436 0.12386 0.0
C296 C 0.5708 0.27179 0.21579 0.0
H297 H 0.49547 0.28318 0.91919 0.0
H298 H 0.50298 0.25885 0.98287 0.0
H299 H 0.56273 0.26244 0.94354 0.0
H300 H 0.55548 0.28684 0.88091 0.0
H301 H 0.51992 0.22343 1.0015 0.0
H302 H 0.55776 0.27101 0.03954 0.0
H303 H 0.5537 0.22282 0.13924 0.0
H304 H 0.55074 0.24974 0.19317 0.0
H305 H 0.58942 0.27114 0.08042 0.0
H306 H 0.60336 0.29409 0.14024 0.0
H307 H 0.49837 0.21137 0.08582 0.0
H308 H 0.55532 0.18858 0.09552 0.0
H309 H 0.56514 0.27212 0.25313 0.0
H310 H 0.48583 0.18363 0.13258 0.0
H311 H 0.54309 0.16116 0.14262 0.0
Eu312 Eu 0.99827 0.02182 0.59023 0.0
Eu313 Eu 0.03347 0.00774 0.66369 0.0
C314 C 0.0213 0.05077 0.66464 0.0
C315 C 0.9776 0.04767 0.48156 0.0
C316 C 0.97297 0.06701 0.48148 0.0
C317 C 0.99895 0.05401 0.41243 0.0
C318 C 0.98219 0.07993 0.44931 0.0
C319 C 0.98986 0.04113 0.44482 0.0
C320 C 0.99608 0.07366 0.41643 0.0
C321 C 0.97337 0.03574 0.526 0.0
O322 O 1.00726 0.00947 0.71201 0.0
O323 O 0.98257 0.00726 0.6533 0.0
C324 C 0.98887 0.00672 0.70014 0.0
O325 O 1.00459 0.99195 0.56591 0.0
O326 O 0.04679 1.00477 0.73836 0.0
O327 O 0.06113 0.9941 0.67429 0.0
O328 O 0.01804 0.98057 0.63895 0.0
C329 C 0.01017 0.97765 0.59439 0.0
O330 O 0.02546 0.0316 0.55182 0.0
O331 O 0.04588 0.00992 0.58669 0.0
O332 O 0.03633 0.0399 0.6627 0.0
O333 O 0.97877 0.01811 0.52517 0.0
O334 O 0.97788 0.04374 0.56866 0.0
O335 O 1.00426 0.04446 0.64876 0.0
C336 C 0.05925 0.974 0.7456 0.0
C337 C 0.05894 0.95777 0.71503 0.0
C338 C 0.04871 0.95406 0.81507 0.0
C339 C 0.05256 0.94012 0.73361 0.0
C340 C 0.0551 0.97175 0.79648 0.0
C341 C 0.04645 0.93833 0.78308 0.0
C342 C 0.05974 0.99329 0.7228 0.0
C343 C 0.04154 0.02225 0.55119 0.0
H344 H 0.96355 0.07241 0.50936 0.0
H345 H 1.00923 0.04872 0.38658 0.0
H346 H 0.97963 0.09497 0.45333 0.0
H347 H 0.99368 0.02629 0.44356 0.0
H348 H 0.06222 0.95889 0.6757 0.0
H349 H 0.04411 0.95314 0.85342 0.0
H350 H 0.05136 0.92813 0.70842 0.0
H351 H 0.05528 0.98398 0.82088 0.0
Eu352 Eu 0.52579 0.02874 0.66315 0.0
Eu353 Eu 0.50462 0.99636 0.59239 0.0
C354 C 0.52278 0.98444 0.69879 0.0
C355 C 0.56611 0.04616 0.73878 0.0
C356 C 0.56815 0.0274 0.75674 0.0
C357 C 0.601 0.04966 0.73569 0.0
C358 C 0.58627 0.01962 0.76202 0.0
C359 C 0.58271 0.05745 0.7298 0.0
C360 C 0.60276 0.03044 0.74979 0.0
C361 C 0.54733 0.05165 0.71724 0.0
O362 O 0.48313 1.00422 0.65012 0.0
O363 O 0.49411 0.03422 0.67173 0.0
C364 C 0.48044 0.02083 0.67074 0.0
O365 O 0.52156 0.04225 0.5869 0.0
O366 O 0.48612 0.97092 0.58221 0.0
O367 O 0.4977 0.98557 0.51756 0.0
O368 O 0.49511 0.02469 0.56141 0.0
C369 C 0.50656 0.03971 0.55665 0.0
O370 O 0.54945 0.01058 0.63527 0.0
O371 O 0.53468 1.00033 0.56278 0.0
O372 O 0.52007 0.9792 0.652 0.0
O373 O 0.54681 0.05237 0.66848 0.0
O374 O 0.53219 0.04265 0.73482 0.0
O375 O 0.52232 1.00242 0.71181 0.0
C376 C 0.46494 0.97761 0.51416 0.0
C377 C 0.45209 0.98689 0.54471 0.0
C378 C 0.44475 0.98534 0.44157 0.0
C379 C 0.43624 0.99602 0.52373 0.0
C380 C 0.46076 0.97626 0.46268 0.0
C381 C 0.43282 0.99605 0.47166 0.0
C382 C 0.48443 0.97375 0.53392 0.0
C383 C 0.55042 1.00397 0.58975 0.0
H384 H 0.55569 0.01821 0.76325 0.0
H385 H 0.61362 0.05825 0.72636 0.0
H386 H 0.58735 1.00485 0.77377 0.0
H387 H 0.58147 0.07181 0.71496 0.0
H388 H 0.45507 0.98844 0.58446 0.0
H389 H 0.44229 0.98477 0.40142 0.0
H390 H 0.42759 1.00427 0.54813 0.0
H391 H 0.47059 0.96935 0.43839 0.0
Eu392 Eu 0.4986 0.51443 0.66301 0.0
Eu393 Eu 0.53925 0.50823 0.60506 0.0
C394 C 0.53932 0.52452 0.71891 0.0
C395 C 0.45489 0.53658 0.71821 0.0
C396 C 0.46028 0.55476 0.70028 0.0
C397 C 0.43015 0.55059 0.76715 0.0
C398 C 0.45068 0.57076 0.71571 0.0
C399 C 0.43971 0.53454 0.75139 0.0
C400 C 0.43563 0.56887 0.74966 0.0
C401 C 0.46527 0.51982 0.70286 0.0
O402 O 0.528 0.47863 0.62574 0.0
O403 O 0.50942 0.48634 0.69172 0.0
C404 C 0.51874 0.47377 0.66645 0.0
O405 O 0.49193 0.49607 0.5956 0.0
O406 O 0.56895 0.49913 0.60684 0.0
O407 O 0.55627 0.5096 0.53744 0.0
O408 O 0.51532 0.50848 0.5461 0.0
C409 C 0.49846 0.49994 0.55099 0.0
O410 O 0.50407 0.54157 0.61852 0.0
O411 O 0.53661 0.54011 0.60597 0.0
O412 O 0.54815 0.51504 0.68468 0.0
O413 O 0.46772 0.51836 0.6549 0.0
O414 O 0.48084 0.51602 0.72901 0.0
O415 O 0.52092 0.52835 0.71477 0.0
C416 C 0.5786 0.48519 0.53267 0.0
C417 C 0.57042 0.46688 0.53955 0.0
C418 C 0.60113 0.4724 0.47493 0.0
C419 C 0.57758 0.45141 0.51436 0.0
C420 C 0.59401 0.48787 0.50043 0.0
C421 C 0.59295 0.45401 0.48161 0.0
C422 C 0.57103 0.50148 0.55887 0.0
C423 C 0.52055 0.54957 0.60536 0.0
H424 H 0.47207 0.55658 0.67486 0.0
H425 H 0.41858 0.54872 0.79324 0.0
H426 H 0.45548 0.58469 0.70234 0.0
H427 H 0.43538 0.52057 0.76549 0.0
H428 H 0.55842 0.46459 0.56412 0.0
H429 H 0.61302 0.47479 0.45006 0.0
H430 H 0.57074 0.43749 0.51955 0.0
H431 H 0.60047 0.50195 0.49481 0.0
Eu432 Eu 0.02694 0.53175 0.59609 0.0
Eu433 Eu 1.00824 0.49804 0.66652 0.0
C434 C 0.05426 0.50515 0.66538 0.0
C435 C 0.06146 0.55295 0.50746 0.0
C436 C 0.07777 0.54504 0.5309 0.0
C437 C 0.07523 0.54739 0.42653 0.0
C438 C 0.09225 0.53767 0.50251 0.0
C439 C 0.06062 0.55469 0.45511 0.0
C440 C 0.09084 0.53813 0.44995 0.0
C441 C 0.04412 0.55596 0.53656 0.0
O442 O 1.00199 0.52567 0.70505 0.0
O443 O 0.02618 0.5445 0.67303 0.0
C444 C 0.01326 0.54102 0.70711 0.0
O445 O 0.99538 0.5384 0.59756 0.0
O446 O 1.00232 0.48561 0.73994 0.0
O447 O 0.99103 0.47168 0.67307 0.0
O448 O 0.98452 0.50795 0.61369 0.0
C449 C 0.98138 0.52544 0.59812 0.0
O450 O 0.02047 0.50631 0.54643 0.0
O451 O 0.02247 0.48243 0.60487 0.0
O452 O 0.03938 0.50011 0.69232 0.0
O453 O 0.02902 0.54566 0.52276 0.0
O454 O 0.04656 0.55616 0.58513 0.0
O455 O 0.05214 0.51416 0.62225 0.0
C456 C 0.97012 0.47492 0.74048 0.0
C457 C 0.955 0.48054 0.70797 0.0
C458 C 0.95042 0.4817 0.81135 0.0
C459 C 0.93815 0.48752 0.72699 0.0
C460 C 0.96734 0.47473 0.79226 0.0
C461 C 0.93606 0.48901 0.77889 0.0
C462 C 0.9897 0.47328 0.72146 0.0
C463 C 0.02254 0.48823 0.55801 0.0
H464 H 0.07884 0.5434 0.57119 0.0
H465 H 0.07389 0.54829 0.38611 0.0
H466 H 0.10388 0.53048 0.52199 0.0
H467 H 0.04815 0.56069 0.43623 0.0
H468 H 0.9567 0.48091 0.66783 0.0
H469 H 0.94904 0.48235 0.85156 0.0
H470 H 0.92745 0.49312 0.70093 0.0
H471 H 0.97879 0.47049 0.81802 0.0
C472 C 0.15582 0.05726 0.21528 0.0
C473 C 0.16061 0.04186 0.18511 0.0
C474 C 0.14215 0.05499 0.2525 0.0
C475 C 0.1177 0.01797 0.33082 0.0
H476 H 0.0846 0.05956 0.36176 0.0
C477 C 0.0733 0.01734 0.51091 0.0
C478 C 0.05484 0.0251 0.5088 0.0
C479 C 0.0856 0.01935 0.47041 0.0
C480 C 0.09357 0.04769 0.35344 0.0
H481 H 0.15438 0.01199 0.1704 0.0
H482 H 0.13029 0.00805 0.23495 0.0
H483 H 0.10619 0.06271 0.29181 0.0
H484 H 0.03491 0.04102 0.46204 0.0
H485 H 0.05613 0.04415 0.39093 0.0
H486 H 0.10475 1.00276 0.39168 0.0
C487 C 0.13738 0.02187 0.23029 0.0
C488 C 0.10618 0.0496 0.31355 0.0
C489 C 0.15117 0.02413 0.19309 0.0
C490 C 0.04906 0.035 0.46513 0.0
C491 C 0.06131 0.03687 0.42438 0.0
C492 C 0.10503 0.01603 0.3706 0.0
C493 C 0.13274 0.03726 0.26078 0.0
C494 C 0.11858 0.03484 0.30187 0.0
C495 C 0.07976 0.02903 0.42635 0.0
C496 C 0.09288 0.03092 0.38284 0.0
H497 H 0.16309 0.07102 0.2112 0.0
H498 H 0.13935 0.0671 0.27572 0.0
H499 H 0.12709 1.00634 0.3235 0.0
H500 H 0.07831 0.0097 0.54399 0.0
H501 H 0.09979 0.01341 0.47394 0.0
C502 C 0.49514 0.16024 0.2182 0.0
C503 C 0.50699 0.15539 0.17872 0.0
C504 C 0.49145 0.14726 0.25717 0.0
C505 C 0.49521 0.09632 0.29674 0.0
H506 H 0.50078 0.11776 0.42965 0.0
C507 C 0.51495 0.07007 0.51084 0.0
C508 C 0.50321 0.05351 0.51491 0.0
C509 C 0.51278 0.08251 0.46998 0.0
C510 C 0.4992 0.11152 0.39282 0.0
H511 H 0.5232 0.13255 0.14783 0.0
H512 H 0.51702 0.11005 0.21608 0.0
H513 H 0.50145 0.13879 0.35665 0.0
H514 H 0.47968 0.03724 0.47932 0.0
H515 H 0.47585 0.05907 0.40798 0.0
H516 H 0.49367 0.06896 0.33315 0.0
C517 C 0.5105 0.12387 0.21688 0.0
C518 C 0.49935 0.12361 0.35088 0.0
C519 C 0.5142 0.13686 0.17791 0.0
C520 C 0.48898 0.04987 0.47744 0.0
C521 C 0.48686 0.06232 0.43634 0.0
C522 C 0.49501 0.08421 0.33879 0.0
C523 C 0.4995 0.12908 0.25771 0.0
C524 C 0.49763 0.11618 0.30222 0.0
C525 C 0.49883 0.07873 0.43195 0.0
C526 C 0.49733 0.09164 0.38735 0.0
H527 H 0.48947 0.17441 0.22041 0.0
H528 H 0.48266 0.15166 0.28757 0.0
H529 H 0.49367 0.09011 0.25988 0.0
H530 H 0.52609 0.07333 0.53886 0.0
H531 H 0.52243 0.09486 0.46755 0.0
C532 C 0.39289 0.48164 0.173 0.0
C533 C 0.37831 0.46763 0.17982 0.0
C534 C 0.40725 0.48484 0.21023 0.0
C535 C 0.42885 0.46252 0.32605 0.0
H536 H 0.44767 0.51398 0.35352 0.0
C537 C 0.46989 0.48321 0.50968 0.0
C538 C 0.48629 0.4953 0.50591 0.0
C539 C 0.45795 0.47946 0.46767 0.0
C540 C 0.4427 0.4995 0.34595 0.0
H541 H 0.36702 0.4465 0.23194 0.0
H542 H 0.39157 0.45226 0.29669 0.0
H543 H 0.42458 0.50835 0.28434 0.0
H544 H 0.50296 0.51293 0.4548 0.0
H545 H 0.48193 0.50655 0.3816 0.0
H546 H 0.44654 0.45381 0.38873 0.0
C547 C 0.39248 0.46038 0.2621 0.0
C548 C 0.42949 0.49624 0.30613 0.0
C549 C 0.37831 0.45708 0.22486 0.0
C550 C 0.49049 0.50349 0.45902 0.0
C551 C 0.47838 0.49994 0.41713 0.0
C552 C 0.44186 0.46582 0.36614 0.0
C553 C 0.40723 0.47424 0.25539 0.0
C554 C 0.4222 0.47771 0.29591 0.0
C555 C 0.46195 0.48791 0.421 0.0
C556 C 0.44881 0.48436 0.37685 0.0
H557 H 0.39331 0.48999 0.13868 0.0
H558 H 0.41846 0.49551 0.20336 0.0
H559 H 0.424 0.448 0.31878 0.0
H560 H 0.46621 0.47667 0.54519 0.0
H561 H 0.44531 0.47026 0.47199 0.0
C562 C 0.01804 0.37188 0.21317 0.0
C563 C 0.0362 0.36525 0.20061 0.0
C564 C 0.01635 0.38547 0.25084 0.0
C565 C 0.0425 0.40503 0.36284 0.0
H566 H 1.00648 0.44605 0.34926 0.0
C567 C 0.02631 0.45462 0.52801 0.0
C568 C 0.02434 0.47415 0.51717 0.0
C569 C 0.02761 0.44139 0.48938 0.0
C570 C 0.01671 0.43475 0.35358 0.0
H571 H 0.06681 0.36784 0.21848 0.0
H572 H 0.0639 0.39165 0.28304 0.0
H573 H 1.0091 0.42336 0.28133 0.0
H574 H 0.02235 0.49499 0.45675 0.0
H575 H 0.02473 0.472 0.38971 0.0
H576 H 0.05032 0.41654 0.43472 0.0
C577 C 0.05091 0.38626 0.26409 0.0
C578 C 0.01805 0.4216 0.31479 0.0
C579 C 0.0526 0.37276 0.2264 0.0
C580 C 0.02379 0.48008 0.46666 0.0
C581 C 0.02503 0.46686 0.42807 0.0
C582 C 0.0411 0.41812 0.40168 0.0
C583 C 0.03276 0.39268 0.27722 0.0
C584 C 0.03104 0.4066 0.31877 0.0
C585 C 0.02692 0.44731 0.43885 0.0
C586 C 0.02823 0.43321 0.39757 0.0
H587 H 1.00509 0.36651 0.19401 0.0
H588 H 1.00212 0.38998 0.2601 0.0
H589 H 0.0525 0.39354 0.36759 0.0
H590 H 0.02674 0.44949 0.56639 0.0
H591 H 0.02885 0.42645 0.49916 0.0
C592 C 0.8725 0.97858 0.0363 0.0
C593 C 0.86585 0.99518 0.05849 0.0
C594 C 0.88609 0.9797 0.9986 0.0
C595 C 0.92331 0.01155 0.94202 0.0
H596 H 0.91596 0.97812 0.82807 0.0
C597 C 0.98118 1.00502 0.79162 0.0
C598 C 0.97486 1.00421 0.74114 0.0
C599 C 0.96802 1.00372 0.83035 0.0
C600 C 0.91819 0.98764 0.85943 0.0
H601 H 0.86881 0.02601 0.05876 0.0
H602 H 0.89247 0.02798 0.99277 0.0
H603 H 0.89299 0.97666 0.89546 0.0
H604 H 0.94956 1.00109 0.69221 0.0
H605 H 0.92662 0.99881 0.75973 0.0
H606 H 0.94838 0.02271 0.90563 0.0
C607 C 0.88719 0.01405 1.00481 0.0
C608 C 0.90511 0.98666 0.89843 0.0
C609 C 0.8735 0.01294 0.04245 0.0
C610 C 0.955 1.00173 0.73055 0.0
C611 C 0.94182 1.00035 0.76935 0.0
C612 C 0.93645 0.01246 0.90312 0.0
C613 C 0.89351 0.99745 0.98193 0.0
C614 C 0.90749 0.99858 0.94033 0.0
C615 C 0.94814 1.00149 0.81981 0.0
C616 C 0.93408 1.00052 0.86127 0.0
H617 H 0.86677 0.96466 0.04698 0.0
H618 H 0.89077 0.9666 0.98239 0.0
H619 H 0.9257 0.02086 0.97378 0.0
H620 H 0.99635 0.00687 0.80141 0.0
H621 H 0.97346 1.00435 0.86868 0.0
C622 C 0.50465 0.85739 1.00654 0.0
C623 C 0.51335 0.85913 0.05444 0.0
C624 C 0.50864 0.87076 0.96893 0.0
C625 C 0.52235 0.92032 0.94774 0.0
H626 H 0.53388 0.90378 0.81416 0.0
C627 C 0.53272 0.97483 0.78627 0.0
C628 C 0.52535 0.96973 0.73859 0.0
C629 C 0.53392 0.96128 0.82498 0.0
C630 C 0.53044 0.90869 0.85102 0.0
H631 H 0.53319 0.87613 0.10053 0.0
H632 H 0.53984 0.90005 0.03461 0.0
H633 H 0.53096 0.88035 0.88178 0.0
H634 H 0.51364 0.94629 0.69411 0.0
H635 H 0.51503 0.92284 0.76177 0.0
H636 H 0.52083 0.94849 0.91697 0.0
C637 C 0.53002 0.88816 0.02636 0.0
C638 C 0.52892 0.89524 0.88985 0.0
C639 C 0.52629 0.8745 0.06392 0.0
C640 C 0.51953 0.95067 0.73027 0.0
C641 C 0.52044 0.93717 0.7692 0.0
C642 C 0.52357 0.93376 0.90875 0.0
C643 C 0.52125 0.88637 0.97844 0.0
C644 C 0.52464 0.90088 0.93848 0.0
C645 C 0.52748 0.94231 0.81732 0.0
C646 C 0.52741 0.92813 0.85961 0.0
H647 H 0.49476 0.84557 0.99809 0.0
H648 H 0.50155 0.86909 0.93255 0.0
H649 H 0.51882 0.92504 0.98476 0.0
H650 H 0.53747 0.98936 0.7939 0.0
H651 H 0.53983 0.96577 0.861 0.0
C652 C 0.64248 0.57535 0.07838 0.0
C653 C 0.65504 0.56077 0.09323 0.0
C654 C 0.62775 0.57199 0.04252 0.0
C655 C 0.59755 0.53528 0.97918 0.0
H656 H 0.59914 0.5695 0.8642 0.0
C657 C 0.54201 0.53249 0.81054 0.0
C658 C 0.55069 0.53066 0.76399 0.0
C659 C 0.55324 0.53688 0.85359 0.0
C660 C 0.59844 0.55992 0.89621 0.0
H661 H 0.66099 0.53085 0.08329 0.0
H662 H 0.6348 0.52491 0.02223 0.0
H663 H 0.62089 0.57536 0.93635 0.0
H664 H 0.57782 0.5326 0.72581 0.0
H665 H 0.59722 0.54088 0.80045 0.0
H666 H 0.57507 0.51983 0.93871 0.0
C667 C 0.6366 0.539 0.03818 0.0
C668 C 0.61081 0.56332 0.93757 0.0
C669 C 0.65157 0.54242 0.07348 0.0
C670 C 0.5707 0.53386 0.76113 0.0
C671 C 0.58182 0.53866 0.8038 0.0
C672 C 0.58488 0.5321 0.93814 0.0
C673 C 0.62489 0.55389 0.0213 0.0
C674 C 0.61069 0.55089 0.97922 0.0
C675 C 0.57326 0.53999 0.85057 0.0
C676 C 0.58542 0.54424 0.89594 0.0
H677 H 0.6443 0.58954 0.09355 0.0
H678 H 0.61875 0.58367 0.03075 0.0
H679 H 0.59713 0.5255 0.01081 0.0
H680 H 0.52665 0.53 0.81396 0.0
H681 H 0.5463 0.53788 0.88921 0.0
C682 C 0.01473 0.66443 0.03313 0.0
C683 C 1.00229 0.66081 0.07303 0.0
C684 C 0.01661 0.65102 0.99522 0.0
C685 C 1.00658 0.60001 0.96226 0.0
H686 H 1.00941 0.61947 0.82624 0.0
C687 C 0.99909 0.55077 0.78862 0.0
C688 C 0.0116 0.55467 0.74902 0.0
C689 C 0.99804 0.56345 0.82865 0.0
C690 C 1.00883 0.61376 0.864 0.0
H691 H 0.98275 0.63964 0.10507 0.0
H692 H 0.9857 0.61649 0.03864 0.0
H693 H 1.0081 0.64164 0.89538 0.0
H694 H 0.03275 0.57513 0.72074 0.0
H695 H 0.03093 0.59707 0.79023 0.0
H696 H 1.00713 0.57209 0.93056 0.0
C697 C 0.99414 0.62968 0.03674 0.0
C698 C 1.00813 0.62652 0.90382 0.0
C699 C 0.99229 0.64308 0.07472 0.0
C700 C 0.0229 0.57163 0.75039 0.0
C701 C 0.02179 0.58431 0.79023 0.0
C702 C 1.00722 0.58724 0.92235 0.0
C703 C 1.00607 0.63358 0.99595 0.0
C704 C 1.00705 0.61985 0.9536 0.0
C705 C 1.00939 0.58039 0.83002 0.0
C706 C 1.0084 0.59394 0.87266 0.0
H707 H 0.02253 0.67795 0.03005 0.0
H708 H 0.02621 0.65445 0.96499 0.0
H709 H 1.006 0.5943 1.00001 0.0
H710 H 0.99016 0.53787 0.78892 0.0
H711 H 0.98816 0.56005 0.85831 0.0
C712 C 0.09358 0.19585 0.21968 0.0
C713 C 0.09531 0.21297 0.24646 0.0
C714 C 0.08854 0.17882 0.24398 0.0
C715 C 0.05867 0.1655 0.34813 0.0
H716 H 0.06866 0.11402 0.30661 0.0
C717 C 1.00275 0.10496 0.37286 0.0
C718 C 1.00941 0.08762 0.39238 0.0
C719 C 0.01578 0.11912 0.35688 0.0
C720 C 0.06583 0.1283 0.31891 0.0
H721 H 0.09577 0.2252 0.32062 0.0
H722 H 0.08705 0.19534 0.36325 0.0
H723 H 0.09024 0.14032 0.2813 0.0
H724 H 0.03498 0.07148 0.40961 0.0
H725 H 0.05763 0.09602 0.38101 0.0
H726 H 0.03418 0.15362 0.38514 0.0
C727 C 0.08911 0.19522 0.32322 0.0
C728 C 0.07814 0.14334 0.30436 0.0
C729 C 0.09414 0.21229 0.29888 0.0
C730 C 0.02934 0.08449 0.39376 0.0
C731 C 0.04235 0.09861 0.37767 0.0
C732 C 0.04638 0.15051 0.36252 0.0
C733 C 0.08516 0.17857 0.29554 0.0
C734 C 0.07445 0.16216 0.31796 0.0
C735 C 0.03573 0.11623 0.36015 0.0
C736 C 0.04955 0.13184 0.3471 0.0
H737 H 0.09422 0.19583 0.17923 0.0
H738 H 0.08556 0.16628 0.22146 0.0
H739 H 0.05522 0.17983 0.35867 0.0
H740 H 0.98749 0.10772 0.37086 0.0
H741 H 0.01025 0.13244 0.34252 0.0
C742 C 0.3094 0.10155 0.30378 0.0
C743 C 0.31213 0.10164 0.25181 0.0
C744 C 0.32418 0.09601 0.33682 0.0
C745 C 0.37522 0.08233 0.34853 0.0
H746 H 0.35396 0.03687 0.41259 0.0
C747 C 0.42266 0.01956 0.40541 0.0
C748 C 0.41841 0.00904 0.449 0.0
C749 C 0.41024 0.03347 0.38727 0.0
C750 C 0.3602 0.04969 0.39608 0.0
H751 H 0.33338 0.09865 0.19453 0.0
H752 H 0.35914 0.08952 0.25213 0.0
H753 H 0.33246 0.05993 0.37502 0.0
H754 H 0.39737 1.00457 0.50678 0.0
H755 H 0.37613 0.02931 0.47639 0.0
H756 H 0.40301 0.07196 0.36908 0.0
C757 C 0.34554 0.09346 0.26734 0.0
C758 C 0.34783 0.06297 0.37461 0.0
C759 C 0.33071 0.09878 0.23425 0.0
C760 C 0.40121 0.01252 0.47339 0.0
C761 C 0.38892 0.02663 0.45565 0.0
C762 C 0.38764 0.06916 0.3707 0.0
C763 C 0.34199 0.0908 0.31843 0.0
C764 C 0.35521 0.07916 0.34953 0.0
C765 C 0.39336 0.03741 0.4126 0.0
C766 C 0.38027 0.0524 0.3935 0.0
H767 H 0.29538 0.10416 0.31858 0.0
H768 H 0.32123 0.09439 0.37626 0.0
H769 H 0.38125 0.09473 0.32943 0.0
H770 H 0.43592 0.01753 0.38606 0.0
H771 H 0.41394 0.04116 0.35336 0.0
C772 C 0.57582 0.31158 0.2556 0.0
C773 C 0.59046 0.30146 0.23347 0.0
C774 C 0.58016 0.32831 0.28151 0.0
C775 C 0.61662 0.35555 0.35065 0.0
H776 H 0.5854 0.39836 0.31038 0.0
C777 C 0.60156 0.41968 0.47545 0.0
C778 C 0.59959 0.43769 0.4526 0.0
C779 C 0.60525 0.40375 0.44676 0.0
C780 C 0.59449 0.38669 0.32158 0.0
H781 H 0.62121 0.30055 0.2226 0.0
H782 H 0.62888 0.32998 0.26911 0.0
H783 H 0.5822 0.36864 0.26447 0.0
H784 H 0.60099 0.45332 0.38228 0.0
H785 H 0.60752 0.42549 0.33219 0.0
H786 H 0.62839 0.3735 0.40907 0.0
C787 C 0.61406 0.32484 0.26587 0.0
C788 C 0.59251 0.36963 0.29559 0.0
C789 C 0.60967 0.30812 0.23925 0.0
C790 C 0.60249 0.43965 0.40097 0.0
C791 C 0.6061 0.42371 0.37225 0.0
C792 C 0.61846 0.37263 0.37715 0.0
C793 C 0.59924 0.33527 0.28618 0.0
C794 C 0.60323 0.3538 0.31053 0.0
C795 C 0.60694 0.40552 0.39465 0.0
C796 C 0.60714 0.38825 0.36333 0.0
H797 H 0.56086 0.30699 0.2512 0.0
H798 H 0.56852 0.33602 0.29731 0.0
H799 H 0.62501 0.34349 0.36279 0.0
H800 H 0.59965 0.41782 0.51532 0.0
H801 H 0.6057 0.38991 0.46502 0.0
C802 C 0.21677 0.44354 0.286 0.0
C803 C 0.21516 0.4386 0.23518 0.0
C804 C 0.20101 0.45056 0.31047 0.0
C805 C 0.15676 0.47604 0.27705 0.0
H806 H 0.15046 0.47512 0.42074 0.0
C807 C 0.09774 0.51628 0.37937 0.0
C808 C 0.10448 0.52718 0.42049 0.0
C809 C 0.10995 0.50395 0.35579 0.0
C810 C 0.15211 0.47548 0.38054 0.0
H811 H 0.19503 0.43521 0.17197 0.0
H812 H 0.1674 0.44628 0.21549 0.0
H813 H 0.17276 0.45346 0.38345 0.0
H814 H 0.12966 0.53437 0.4672 0.0
H815 H 0.15079 0.51247 0.42665 0.0
H816 H 0.13595 0.49801 0.27443 0.0
C817 C 0.18107 0.44557 0.23582 0.0
C818 C 0.16488 0.46312 0.35916 0.0
C819 C 0.19691 0.43887 0.21108 0.0
C820 C 0.12389 0.52593 0.43629 0.0
C821 C 0.13599 0.5134 0.41319 0.0
C822 C 0.14379 0.48818 0.29838 0.0
C823 C 0.18317 0.45246 0.28493 0.0
C824 C 0.16769 0.46354 0.30723 0.0
C825 C 0.12904 0.5021 0.37329 0.0
C826 C 0.14168 0.48829 0.35037 0.0
H827 H 0.23049 0.44304 0.30612 0.0
H828 H 0.20324 0.45566 0.34832 0.0
H829 H 0.15878 0.47711 0.23708 0.0
H830 H 0.08282 0.51661 0.36669 0.0
H831 H 0.10429 0.49534 0.32506 0.0
C832 C 0.94213 0.82413 0.9943 0.0
C833 C 0.94983 0.8059 0.9923 0.0
C834 C 0.94738 0.8381 0.95932 0.0
C835 C 0.97728 0.86617 0.92393 0.0
H836 H 0.9949 0.85975 0.78895 0.0
C837 C 0.03802 0.91361 0.84792 0.0
C838 C 0.03544 0.92107 0.79935 0.0
C839 C 0.02577 0.89903 0.86527 0.0
C840 C 0.98991 0.86182 0.82649 0.0
H841 H 0.96724 0.78725 0.94954 0.0
H842 H 0.97681 0.81166 0.88915 0.0
H843 H 0.97295 0.83581 0.8252 0.0
H844 H 0.0183 0.91878 0.73035 0.0
H845 H 0.99698 0.89329 0.76068 0.0
H846 H 0.99419 0.89203 0.92554 0.0
C847 C 0.96653 0.81524 0.917 0.0
C848 C 0.97741 0.84809 0.84728 0.0
C849 C 0.96103 0.8012 0.9516 0.0
C850 C 0.02086 0.91312 0.76776 0.0
C851 C 1.00858 0.89857 0.78514 0.0
C852 C 0.9897 0.87983 0.90321 0.0
C853 C 0.96073 0.83414 0.92246 0.0
C854 C 0.97125 0.84995 0.89664 0.0
C855 C 0.01062 0.8917 0.83448 0.0
C856 C 0.99652 0.87759 0.85476 0.0
H857 H 0.93335 0.82799 0.02529 0.0
H858 H 0.94222 0.85239 0.96361 0.0
H859 H 0.97315 0.86796 0.96233 0.0
H860 H 0.04928 0.91929 0.87285 0.0
H861 H 0.02797 0.89371 0.90314 0.0
C862 C 0.70785 0.9376 0.95211 0.0
C863 C 0.72769 0.94173 0.95714 0.0
C864 C 0.69778 0.94247 0.90818 0.0
C865 C 0.70143 0.98079 0.81656 0.0
H866 H 0.65093 0.96046 0.77708 0.0
C867 C 0.63685 0.02762 0.78043 0.0
C868 C 0.62146 0.02104 0.74976 0.0
C869 C 0.65322 0.01667 0.7871 0.0
C870 C 0.66517 0.96627 0.78645 0.0
H871 H 0.75295 0.95196 0.91802 0.0
H872 H 0.7354 0.96005 0.84078 0.0
H873 H 0.67372 0.93992 0.82013 0.0
H874 H 0.61161 0.999 0.69821 0.0
H875 H 0.6404 0.98007 0.70876 0.0
H876 H 0.69267 0.00728 0.78417 0.0
C877 C 0.72756 0.95348 0.87121 0.0
C878 C 0.67817 0.95449 0.81163 0.0
C879 C 0.73764 0.94864 0.91529 0.0
C880 C 0.62326 1.00418 0.72269 0.0
C881 C 0.63969 0.99334 0.72886 0.0
C882 C 0.68848 0.99252 0.79105 0.0
C883 C 0.70737 0.95151 0.86834 0.0
C884 C 0.69605 0.9619 0.82934 0.0
C885 C 0.65451 0.99905 0.76274 0.0
C886 C 0.66984 0.98567 0.77805 0.0
H887 H 0.69988 0.93202 0.98359 0.0
H888 H 0.68224 0.94075 0.90748 0.0
H889 H 0.71504 0.98704 0.82971 0.0
H890 H 0.63569 0.04058 0.80166 0.0
H891 H 0.66424 0.02143 0.81391 0.0
C892 C 0.45395 0.70751 0.9597 0.0
C893 C 0.44149 0.71573 0.9932 0.0
C894 C 0.44682 0.69489 0.92341 0.0
C895 C 0.40815 0.65979 0.90411 0.0
H896 H 0.43322 0.65456 0.77742 0.0
C897 C 0.42464 0.58794 0.82136 0.0
C898 C 0.42688 0.58613 0.76961 0.0
C899 C 0.41949 0.60529 0.84133 0.0
C900 C 0.42563 0.65591 0.81199 0.0
H901 H 0.41171 0.71797 0.01374 0.0
H902 H 0.39912 0.69563 0.94995 0.0
H903 H 0.43733 0.68409 0.82348 0.0
H904 H 0.42381 0.60049 0.69772 0.0
H905 H 0.41459 0.63084 0.73257 0.0
H906 H 0.39691 0.63137 0.89328 0.0
C907 C 0.41443 0.69897 0.95203 0.0
C908 C 0.42818 0.6728 0.83867 0.0
C909 C 0.42159 0.71178 0.98828 0.0
C910 C 0.42251 0.60161 0.73788 0.0
C911 C 0.41724 0.61896 0.75783 0.0
C912 C 0.40551 0.64289 0.87727 0.0
C913 C 0.42704 0.69015 0.91982 0.0
C914 C 0.42028 0.67454 0.88615 0.0
C915 C 0.41636 0.6212 0.80994 0.0
C916 C 0.41501 0.64043 0.83209 0.0
H917 H 0.46932 0.71051 0.96236 0.0
H918 H 0.45698 0.68816 0.89974 0.0
H919 H 0.40185 0.66069 0.94058 0.0
H920 H 0.42808 0.57632 0.8468 0.0
H921 H 0.41925 0.60653 0.88166 0.0
C922 C 0.80615 0.57897 0.95309 0.0
C923 C 0.81423 0.58579 0.99843 0.0
C924 C 0.81804 0.57261 0.91577 0.0
C925 C 0.86899 0.56948 0.87818 0.0
H926 H 0.85414 0.51711 0.84728 0.0
C927 C 0.92453 0.51383 0.83623 0.0
C928 C 0.92037 0.50042 0.79852 0.0
C929 C 0.91049 0.52615 0.8513 0.0
C930 C 0.85836 0.53182 0.8546 0.0
H931 H 0.84085 0.59326 0.03846 0.0
H932 H 0.86161 0.58221 0.97354 0.0
H933 H 0.83125 0.53752 0.8862 0.0
H934 H 0.89806 0.48918 0.74773 0.0
H935 H 0.87343 0.51086 0.77409 0.0
H936 H 0.89639 0.5635 0.84831 0.0
C937 C 0.84618 0.58169 0.96655 0.0
C938 C 0.84522 0.54355 0.87674 0.0
C939 C 0.83432 0.58792 1.0039 0.0
C940 C 0.9017 0.49939 0.77681 0.0
C941 C 0.8876 0.51176 0.79197 0.0
C942 C 0.88213 0.55775 0.85597 0.0
C943 C 0.83815 0.57314 0.92316 0.0
C944 C 0.85061 0.56231 0.89027 0.0
C945 C 0.89194 0.52542 0.82896 0.0
C946 C 0.87716 0.5386 0.84556 0.0
H947 H 0.79069 0.57713 0.94807 0.0
H948 H 0.81149 0.5663 0.8824 0.0
H949 H 0.87345 0.58394 0.88761 0.0
H950 H 0.93885 0.51524 0.8531 0.0
H951 H 0.91418 0.53627 0.8806 0.0
C952 C 0.02156 0.20357 0.88966 0.0
C953 C 0.03714 0.21619 0.87961 0.0
C954 C 0.01892 0.18643 0.86351 0.0
C955 C 0.0365 0.15942 0.75291 0.0
H956 H 0.01499 0.11605 0.82551 0.0
C957 C 0.04086 0.08014 0.68983 0.0
C958 C 0.02312 0.06996 0.68767 0.0
C959 C 0.04228 0.09831 0.71132 0.0
C960 C 0.02096 0.12806 0.80471 0.0
H961 H 0.06148 0.22076 0.83123 0.0
H962 H 0.05766 0.19066 0.78841 0.0
H963 H 0.01772 0.14702 0.86565 0.0
H964 H 0.99307 0.07082 0.70716 0.0
H965 H 0.99575 0.10218 0.746 0.0
H966 H 0.04047 0.13994 0.69282 0.0
C967 C 0.04715 0.19406 0.8158 0.0
C968 C 0.02238 0.14595 0.82752 0.0
C969 C 0.04956 0.21135 0.84123 0.0
C970 C 1.00693 0.07829 0.70797 0.0
C971 C 1.00846 0.09622 0.73043 0.0
C972 C 0.03545 0.14141 0.73056 0.0
C973 C 0.03195 0.18112 0.82699 0.0
C974 C 0.03011 0.16201 0.802 0.0
C975 C 0.02612 0.10648 0.73219 0.0
C976 C 0.0276 0.12556 0.75614 0.0
H977 H 0.0117 0.20653 0.91904 0.0
H978 H 1.0067 0.17726 0.87259 0.0
H979 H 0.04217 0.17132 0.73127 0.0
H980 H 0.05358 0.07415 0.67441 0.0
H981 H 0.0561 0.10588 0.71236 0.0
C982 C 0.33101 0.05811 0.88549 0.0
C983 C 0.31743 0.04293 0.88978 0.0
C984 C 0.34828 0.05581 0.8608 0.0
C985 C 0.38128 0.01871 0.81857 0.0
H986 H 0.40281 0.06031 0.73926 0.0
C987 C 0.44745 0.00922 0.69544 0.0
C988 C 0.46162 0.02397 0.6945 0.0
C989 C 0.42987 0.01173 0.71848 0.0
C990 C 0.39713 0.04861 0.7617 0.0
H991 H 0.31156 0.01336 0.87071 0.0
H992 H 0.34163 0.00936 0.82718 0.0
H993 H 0.3721 0.06402 0.77955 0.0
H994 H 0.46811 0.05309 0.71698 0.0
H995 H 0.43739 0.05746 0.75739 0.0
H996 H 0.40627 1.00328 0.80048 0.0
C997 C 0.339 0.02304 0.84363 0.0
C998 C 0.37946 0.05073 0.78489 0.0
C999 C 0.32169 0.02534 0.86853 0.0
C1000 C 0.45758 0.04141 0.7169 0.0
C1001 C 0.4399 0.04394 0.73989 0.0
C1002 C 0.3989 0.01657 0.79525 0.0
C1003 C 0.35259 0.03825 0.83949 0.0
C1004 C 0.37127 0.03583 0.81379 0.0
C1005 C 0.42585 0.02907 0.74127 0.0
C1006 C 0.4071 0.03149 0.76648 0.0
H1007 H 0.32852 0.07175 0.90236 0.0
H1008 H 0.35847 0.06776 0.85945 0.0
H1009 H 0.37569 0.00702 0.84117 0.0
H1010 H 0.44992 0.99559 0.67854 0.0
H1011 H 0.41934 1.00005 0.718 0.0
C1012 C 0.53089 0.30727 0.81793 0.0
C1013 C 0.52132 0.30438 0.86325 0.0
C1014 C 0.52938 0.32448 0.79122 0.0
C1015 C 0.50077 0.36849 0.77943 0.0
H1016 H 0.54806 0.39102 0.72873 0.0
C1017 C 0.50789 0.44821 0.72661 0.0
C1018 C 0.51847 0.45361 0.68437 0.0
C1019 C 0.50757 0.42936 0.74409 0.0
C1020 C 0.53466 0.38484 0.74196 0.0
H1021 H 0.50232 0.31736 0.91525 0.0
H1022 H 0.49961 0.34721 0.86873 0.0
H1023 H 0.54821 0.35916 0.76611 0.0
H1024 H 0.53701 0.44322 0.62733 0.0
H1025 H 0.53641 0.41023 0.65784 0.0
H1026 H 0.48728 0.39428 0.75599 0.0
C1027 C 0.50812 0.33609 0.85342 0.0
C1028 C 0.53473 0.36653 0.76341 0.0
C1029 C 0.50963 0.3189 0.88012 0.0
C1030 C 0.52873 0.4396 0.65999 0.0
C1031 C 0.52845 0.42069 0.67763 0.0
C1032 C 0.5007 0.38679 0.75803 0.0
C1033 C 0.51824 0.33926 0.80907 0.0
C1034 C 0.51784 0.3582 0.78301 0.0
C1035 C 0.51785 0.41532 0.71992 0.0
C1036 C 0.51769 0.39532 0.73961 0.0
H1037 H 0.5398 0.29631 0.80342 0.0
H1038 H 0.53709 0.32627 0.75675 0.0
H1039 H 0.48742 0.36242 0.79329 0.0
H1040 H 0.49984 0.45856 0.74653 0.0
H1041 H 0.49951 0.42586 0.77723 0.0
C1042 C 0.20646 0.46009 0.87186 0.0
C1043 C 0.22304 0.47135 0.86211 0.0
C1044 C 0.18878 0.46409 0.84848 0.0
C1045 C 0.16576 0.48707 0.73945 0.0
H1046 H 0.1215 0.48858 0.8243 0.0
C1047 C 0.09035 0.50949 0.66345 0.0
C1048 C 0.07396 0.50079 0.68467 0.0
C1049 C 0.10882 0.50616 0.68351 0.0
C1050 C 0.13358 0.48791 0.79973 0.0
H1051 H 0.23403 0.4955 0.81938 0.0
H1052 H 0.20298 0.50235 0.7776 0.0
H1053 H 0.15309 0.4823 0.86125 0.0
H1054 H 0.06432 0.48118 0.74264 0.0
H1055 H 0.09637 0.47483 0.77634 0.0
H1056 H 0.14621 0.49216 0.67765 0.0
C1057 C 0.2038 0.49043 0.80361 0.0
C1058 C 0.15175 0.48442 0.8211 0.0
C1059 C 0.22153 0.48658 0.82765 0.0
C1060 C 0.07657 0.4883 0.72562 0.0
C1061 C 0.09502 0.48478 0.74526 0.0
C1062 C 0.14749 0.49033 0.71787 0.0
C1063 C 0.18717 0.47936 0.81434 0.0
C1064 C 0.16804 0.48384 0.79124 0.0
C1065 C 0.11144 0.49386 0.72501 0.0
C1066 C 0.13108 0.49068 0.74769 0.0
H1067 H 0.20701 0.44844 0.89875 0.0
H1068 H 0.17629 0.45521 0.85725 0.0
H1069 H 0.17804 0.48656 0.71543 0.0
H1070 H 0.08891 0.51923 0.63198 0.0
H1071 H 0.12099 0.51361 0.66709 0.0
C1072 C 0.01051 0.81339 0.42587 0.0
C1073 C 0.99507 0.81012 0.39151 0.0
C1074 C 0.01275 0.83095 0.45054 0.0
C1075 C 1.00131 0.88147 0.4352 0.0
H1076 H 1.00834 0.88521 0.57918 0.0
C1077 C 0.99642 0.95398 0.53229 0.0
C1078 C 1.00819 0.95788 0.57476 0.0
C1079 C 0.99518 0.93565 0.51207 0.0
C1080 C 1.0067 0.88451 0.53884 0.0
H1081 H 0.97016 0.82292 0.35556 0.0
H1082 H 0.9742 0.8534 0.39789 0.0
H1083 H 1.00631 0.85385 0.54003 0.0
H1084 H 0.0278 0.94537 0.62958 0.0
H1085 H 0.02618 0.91358 0.59347 0.0
H1086 H 1.00218 0.9119 0.43316 0.0
C1087 C 0.98446 0.84238 0.40622 0.0
C1088 C 1.00548 0.86647 0.51646 0.0
C1089 C 0.98204 0.82482 0.38232 0.0
C1090 C 0.01852 0.94288 0.59693 0.0
C1091 C 0.0175 0.92455 0.57625 0.0
C1092 C 1.00282 0.89945 0.45735 0.0
C1093 C 0.99986 0.84572 0.44047 0.0
C1094 C 1.00247 0.86476 0.46444 0.0
C1095 C 1.00594 0.92068 0.53314 0.0
C1096 C 1.00521 0.90131 0.50963 0.0
H1097 H 0.0208 0.80237 0.43372 0.0
H1098 H 0.02481 0.83314 0.47659 0.0
H1099 H 0.99932 0.88065 0.39492 0.0
H1100 H 0.98808 0.96511 0.51451 0.0
H1101 H 0.98567 0.93327 0.47984 0.0
C1102 C 0.71051 0.97886 0.41367 0.0
C1103 C 0.71487 0.99076 0.37246 0.0
C1104 C 0.69353 0.98099 0.43994 0.0
C1105 C 0.64464 1.00089 0.42388 0.0
H1106 H 0.64169 0.99061 0.56632 0.0
C1107 C 0.57123 0.99365 0.51984 0.0
C1108 C 0.56967 1.00136 0.56785 0.0
C1109 C 0.58923 0.99229 0.49799 0.0
C1110 C 0.64224 0.99369 0.52658 0.0
H1111 H 0.70471 0.01468 0.3279 0.0
H1112 H 0.67558 0.01878 0.37455 0.0
H1113 H 0.6727 0.98969 0.526 0.0
H1114 H 0.58605 0.01345 0.63077 0.0
H1115 H 0.61733 0.01129 0.59251 0.0
H1116 H 0.61433 1.00535 0.42452 0.0
C1117 C 0.68511 0.00749 0.38598 0.0
C1118 C 0.66005 0.99295 0.50327 0.0
C1119 C 0.70205 1.00533 0.35961 0.0
C1120 C 0.58666 0.00735 0.5938 0.0
C1121 C 0.60467 1.00604 0.57186 0.0
C1122 C 0.62688 1.00168 0.44717 0.0
C1123 C 0.68038 0.99512 0.42595 0.0
C1124 C 0.66152 0.99647 0.45148 0.0
C1125 C 0.60622 0.99868 0.52335 0.0
C1126 C 0.62535 0.99799 0.49883 0.0
H1127 H 0.7201 0.96764 0.42524 0.0
H1128 H 0.69043 0.97109 0.47023 0.0
H1129 H 0.64504 1.00344 0.38388 0.0
H1130 H 0.55851 0.9888 0.4988 0.0
H1131 H 0.5898 0.98616 0.46107 0.0
C1132 C 0.50124 0.71204 0.43446 0.0
C1133 C 0.51277 0.7158 0.39277 0.0
C1134 C 0.50341 0.69538 0.46309 0.0
C1135 C 0.53595 0.65605 0.49434 0.0
H1136 H 0.48866 0.62646 0.51272 0.0
C1137 C 0.53616 0.57692 0.55873 0.0
C1138 C 0.52085 0.56967 0.58725 0.0
C1139 C 0.53589 0.5955 0.53909 0.0
C1140 C 0.50201 0.63461 0.50897 0.0
H1141 H 0.53634 0.70516 0.35041 0.0
H1142 H 0.54047 0.67644 0.40132 0.0
H1143 H 0.48745 0.65783 0.4734 0.0
H1144 H 0.49359 0.5766 0.61902 0.0
H1145 H 0.49344 0.60913 0.58657 0.0
H1146 H 0.55055 0.63299 0.53044 0.0
C1147 C 0.52966 0.6864 0.41154 0.0
C1148 C 0.50129 0.65263 0.48618 0.0
C1149 C 0.52734 0.70297 0.38249 0.0
C1150 C 0.50553 0.58164 0.5968 0.0
C1151 C 0.50539 0.60031 0.57779 0.0
C1152 C 0.53666 0.63811 0.51782 0.0
C1153 C 0.51736 0.68216 0.45129 0.0
C1154 C 0.51825 0.66349 0.47819 0.0
C1155 C 0.52044 0.60746 0.548 0.0
C1156 C 0.51971 0.62702 0.52508 0.0
H1157 H 0.49016 0.72175 0.44433 0.0
H1158 H 0.49395 0.69267 0.49405 0.0
H1159 H 0.54925 0.66416 0.48907 0.0
H1160 H 0.54813 0.56806 0.55032 0.0
H1161 H 0.54761 0.60026 0.51574 0.0
C1162 C 0.81559 0.54264 0.43177 0.0
C1163 C 0.81208 0.55976 0.40549 0.0
C1164 C 0.83337 0.53976 0.45642 0.0
C1165 C 0.88439 0.55699 0.45478 0.0
H1166 H 0.88893 0.52905 0.5803 0.0
C1167 C 0.95789 0.54844 0.55933 0.0
C1168 C 0.96168 0.53031 0.57968 0.0
C1169 C 0.93941 0.5527 0.54078 0.0
C1170 C 0.88793 0.53676 0.54503 0.0
H1171 H 0.82475 0.58736 0.38552 0.0
H1172 H 0.85528 0.58258 0.4296 0.0
H1173 H 0.85707 0.53525 0.54394 0.0
H1174 H 0.94878 0.50256 0.59688 0.0
H1175 H 0.91676 0.50997 0.56461 0.0
H1176 H 0.91522 0.55841 0.45567 0.0
C1177 C 0.84441 0.57123 0.43054 0.0
C1178 C 0.86963 0.5403 0.52413 0.0
C1179 C 0.82669 0.57409 0.40586 0.0
C1180 C 0.94646 0.51668 0.58163 0.0
C1181 C 0.928 0.52097 0.56333 0.0
C1182 C 0.90266 0.55348 0.4757 0.0
C1183 C 0.84815 0.55391 0.45544 0.0
C1184 C 0.8676 0.55043 0.47861 0.0
C1185 C 0.92424 0.53899 0.54232 0.0
C1186 C 0.9047 0.54325 0.52101 0.0
H1187 H 0.80467 0.53133 0.43273 0.0
H1188 H 0.83573 0.52618 0.47491 0.0
H1189 H 0.88347 0.5645 0.41921 0.0
H1190 H 0.96922 0.55932 0.55733 0.0
H1191 H 0.937 0.56681 0.52544 0.0
loop_
_geom_bond_atom_site_label_1
_geom_bond_atom_site_label_2
_geom_bond_distance
_geom_bond_site_symmetry_2
_ccdc_geom_bond_type
C0 C1 1.386 1_556 S
C0 C2 1.397 1_556 S
C0 H24 0.931 . S
C1 C0 1.386 1_554 S
C1 C5 1.397 . S
C2 C0 1.397 1_554 S
C2 C3 1.384 . S
C2 H25 0.930 . S
C3 C2 1.384 . S
C3 C4 1.377 . S
C3 C6 1.481 . S
C4 C3 1.377 . S
C4 C5 1.389 . S
C4 H26 0.929 . S
C5 C1 1.397 . S
C5 C4 1.389 . S
C5 H27 0.931 . S
C6 C3 1.481 . S
C6 C7 1.387 . S
C6 C11 1.390 . S
C7 C6 1.387 . S
C7 C8 1.401 . S
C7 H28 0.930 . S
C8 C7 1.401 . S
C8 C9 1.376 . S
C8 C17 1.511 . S
C9 C8 1.376 . S
C9 C10 1.392 . S
C9 H30 0.931 . S
C10 C9 1.392 . S
C10 C11 1.361 . S
C10 C12 1.500 . S
C11 C6 1.390 . S
C11 C10 1.361 . S
C11 H29 0.931 . S
C12 C10 1.500 . S
C12 C13 1.371 . S
C12 C14 1.365 . S
C13 C12 1.371 . S
C13 C23 1.386 . S
C13 H31 0.931 . S
C14 C12 1.365 . S
C14 C15 1.409 . S
C14 H32 0.929 . S
C15 C14 1.409 . S
C15 C16 1.380 . S
C15 H33 0.930 . S
C16 C15 1.380 . S
C16 C23 1.357 . S
C17 C8 1.511 . S
C17 C18 1.341 . S
C17 C19 1.371 . S
C18 C17 1.341 . S
C18 C22 1.394 . S
C18 H34 0.930 . S
C19 C17 1.371 . S
C19 C20 1.392 . S
C19 H35 0.931 . S
C20 C19 1.392 . S
C20 C21 1.331 . S
C20 H38 0.932 . S
C21 C20 1.331 . S
C21 C22 1.336 . S
C22 C18 1.394 . S
C22 C21 1.336 . S
C22 H37 0.929 . S
C23 C13 1.386 . S
C23 C16 1.357 . S
C23 H36 0.928 . S
H24 C0 0.931 . S
H25 C2 0.930 . S
H26 C4 0.929 . S
H27 C5 0.931 . S
H28 C7 0.930 . S
H29 C11 0.931 . S
H30 C9 0.931 . S
H31 C13 0.931 . S
H32 C14 0.929 . S
H33 C15 0.930 . S
H34 C18 0.930 . S
H35 C19 0.931 . S
H36 C23 0.928 . S
H37 C22 0.929 . S
H38 C20 0.932 . S
C39 C40 1.386 . S
C39 C41 1.397 . S
C39 H63 0.931 . S
C40 C39 1.386 . S
C40 C44 1.397 . S
C41 C39 1.397 . S
C41 C42 1.384 . S
C41 H64 0.930 . S
C42 C41 1.384 . S
C42 C43 1.377 . S
C42 C45 1.481 . S
C43 C42 1.377 . S
C43 C44 1.389 . S
C43 H65 0.929 . S
C44 C40 1.397 . S
C44 C43 1.389 . S
C44 H66 0.931 . S
C45 C42 1.481 . S
C45 C46 1.387 . S
C45 C50 1.390 . S
C46 C45 1.387 . S
C46 C47 1.401 . S
C46 H67 0.930 . S
C47 C46 1.401 . S
C47 C48 1.376 . S
C47 C56 1.511 . S
C48 C47 1.376 . S
C48 C49 1.392 . S
C48 H69 0.931 . S
C49 C48 1.392 . S
C49 C50 1.361 . S
C49 C51 1.500 . S
C50 C45 1.390 . S
C50 C49 1.361 . S
C50 H68 0.931 . S
C51 C49 1.500 . S
C51 C52 1.371 . S
C51 C53 1.365 . S
C52 C51 1.371 . S
C52 C62 1.386 . S
C52 H70 0.931 . S
C53 C51 1.365 . S
C53 C54 1.409 . S
C53 H71 0.929 . S
C54 C53 1.409 . S
C54 C55 1.380 . S
C54 H72 0.930 . S
C55 C54 1.380 . S
C55 C62 1.357 . S
C56 C47 1.511 . S
C56 C57 1.341 . S
C56 C58 1.371 . S
C57 C56 1.341 . S
C57 C61 1.394 . S
C57 H73 0.930 . S
C58 C56 1.371 . S
C58 C59 1.392 . S
C58 H74 0.931 . S
C59 C58 1.392 . S
C59 C60 1.331 . S
C59 H77 0.932 . S
C60 C59 1.331 . S
C60 C61 1.336 . S
C61 C57 1.394 . S
C61 C60 1.336 . S
C61 H76 0.929 . S
C62 C52 1.386 . S
C62 C55 1.357 . S
C62 H75 0.928 . S
H63 C39 0.931 . S
H64 C41 0.930 . S
H65 C43 0.929 . S
H66 C44 0.931 . S
H67 C46 0.930 . S
H68 C50 0.931 . S
H69 C48 0.931 . S
H70 C52 0.931 . S
H71 C53 0.929 . S
H72 C54 0.930 . S
H73 C57 0.930 . S
H74 C58 0.931 . S
H75 C62 0.928 . S
H76 C61 0.929 . S
H77 C59 0.932 . S
C78 C79 1.386 . S
C78 C80 1.397 . S
C78 H102 0.931 . S
C79 C78 1.386 . S
C79 C83 1.397 . S
C80 C78 1.397 . S
C80 C81 1.384 . S
C80 H103 0.930 . S
C81 C80 1.384 . S
C81 C82 1.377 . S
C81 C84 1.481 . S
C82 C81 1.377 . S
C82 C83 1.389 . S
C82 H104 0.929 . S
C83 C79 1.397 . S
C83 C82 1.389 . S
C83 H105 0.931 . S
C84 C81 1.481 . S
C84 C85 1.387 . S
C84 C89 1.390 . S
C85 C84 1.387 . S
C85 C86 1.401 . S
C85 H106 0.930 . S
C86 C85 1.401 . S
C86 C87 1.376 . S
C86 C95 1.511 . S
C87 C86 1.376 . S
C87 C88 1.392 . S
C87 H108 0.931 . S
C88 C87 1.392 . S
C88 C89 1.361 . S
C88 C90 1.500 . S
C89 C84 1.390 . S
C89 C88 1.361 . S
C89 H107 0.931 . S
C90 C88 1.500 . S
C90 C91 1.371 . S
C90 C92 1.365 . S
C91 C90 1.371 . S
C91 C101 1.386 . S
C91 H109 0.931 . S
C92 C90 1.365 . S
C92 C93 1.409 . S
C92 H110 0.929 . S
C93 C92 1.409 . S
C93 C94 1.380 . S
C93 H111 0.930 . S
C94 C93 1.380 . S
C94 C101 1.357 . S
C95 C86 1.511 . S
C95 C96 1.341 . S
C95 C97 1.371 . S
C96 C95 1.341 . S
C96 C100 1.394 . S
C96 H112 0.930 . S
C97 C95 1.371 . S
C97 C98 1.392 . S
C97 H113 0.931 . S
C98 C97 1.392 . S
C98 C99 1.331 . S
C98 H116 0.932 . S
C99 C98 1.331 . S
C99 C100 1.336 . S
C100 C96 1.394 . S
C100 C99 1.336 . S
C100 H115 0.929 . S
C101 C91 1.386 . S
C101 C94 1.357 . S
C101 H114 0.928 . S
H102 C78 0.931 . S
H103 C80 0.930 . S
H104 C82 0.929 . S
H105 C83 0.931 . S
H106 C85 0.930 . S
H107 C89 0.931 . S
H108 C87 0.931 . S
H109 C91 0.931 . S
H110 C92 0.929 . S
H111 C93 0.930 . S
H112 C96 0.930 . S
H113 C97 0.931 . S
H114 C101 0.928 . S
H115 C100 0.929 . S
H116 C98 0.932 . S
C117 C118 1.386 . S
C117 C119 1.397 . S
C117 H141 0.931 . S
C118 C117 1.386 . S
C118 C122 1.397 . S
C119 C117 1.397 . S
C119 C120 1.384 . S
C119 H142 0.930 . S
C120 C119 1.384 . S
C120 C121 1.377 . S
C120 C123 1.481 . S
C121 C120 1.377 . S
C121 C122 1.389 . S
C121 H143 0.929 . S
C122 C118 1.397 . S
C122 C121 1.389 . S
C122 H144 0.931 . S
C123 C120 1.481 . S
C123 C124 1.387 . S
C123 C128 1.390 . S
C124 C123 1.387 . S
C124 C125 1.401 . S
C124 H145 0.930 . S
C125 C124 1.401 . S
C125 C126 1.376 . S
C125 C134 1.511 . S
C126 C125 1.376 . S
C126 C127 1.392 . S
C126 H147 0.931 . S
C127 C126 1.392 . S
C127 C128 1.361 . S
C127 C129 1.500 . S
C128 C123 1.390 . S
C128 C127 1.361 . S
C128 H146 0.931 . S
C129 C127 1.500 . S
C129 C130 1.371 . S
C129 C131 1.365 . S
C130 C129 1.371 . S
C130 C140 1.386 . S
C130 H148 0.931 . S
C131 C129 1.365 . S
C131 C132 1.409 . S
C131 H149 0.929 . S
C132 C131 1.409 . S
C132 C133 1.380 . S
C132 H150 0.930 . S
C133 C132 1.380 . S
C133 C140 1.357 . S
C134 C125 1.511 . S
C134 C135 1.341 . S
C134 C136 1.371 . S
C135 C134 1.341 . S
C135 C139 1.394 . S
C135 H151 0.930 . S
C136 C134 1.371 . S
C136 C137 1.392 . S
C136 H152 0.931 . S
C137 C136 1.392 . S
C137 C138 1.331 . S
C137 H155 0.932 . S
C138 C137 1.331 . S
C138 C139 1.336 . S
C139 C135 1.394 . S
C139 C138 1.336 . S
C139 H154 0.929 . S
C140 C130 1.386 . S
C140 C133 1.357 . S
C140 H153 0.928 1_554 S
H141 C117 0.931 . S
H142 C119 0.930 . S
H143 C121 0.929 . S
H144 C122 0.931 . S
H145 C124 0.930 . S
H146 C128 0.931 . S
H147 C126 0.931 . S
H148 C130 0.931 . S
H149 C131 0.929 . S
H150 C132 0.930 . S
H151 C135 0.930 . S
H152 C136 0.931 . S
H153 C140 0.928 1_556 S
H154 C139 0.929 . S
H155 C137 0.932 . S
C156 C157 1.386 . S
C156 C158 1.397 . S
C156 H180 0.931 . S
C157 C156 1.386 . S
C157 C161 1.397 . S
C158 C156 1.397 . S
C158 C159 1.384 . S
C158 H181 0.930 . S
C159 C158 1.384 . S
C159 C160 1.377 . S
C159 C162 1.481 . S
C160 C159 1.377 . S
C160 C161 1.389 . S
C160 H182 0.929 . S
C161 C157 1.397 . S
C161 C160 1.389 . S
C161 H183 0.931 . S
C162 C159 1.481 . S
C162 C163 1.387 . S
C162 C167 1.390 . S
C163 C162 1.387 . S
C163 C164 1.401 . S
C163 H184 0.930 . S
C164 C163 1.401 . S
C164 C165 1.376 . S
C164 C173 1.511 . S
C165 C164 1.376 . S
C165 C166 1.392 . S
C165 H186 0.931 . S
C166 C165 1.392 . S
C166 C167 1.361 . S
C166 C168 1.500 1_554 S
C167 C162 1.390 . S
C167 C166 1.361 . S
C167 H185 0.931 . S
C168 C166 1.500 1_556 S
C168 C169 1.371 . S
C168 C170 1.365 . S
C169 C168 1.371 . S
C169 C179 1.386 . S
C169 H187 0.931 . S
C170 C168 1.365 . S
C170 C171 1.409 . S
C170 H188 0.929 . S
C171 C170 1.409 . S
C171 C172 1.380 . S
C171 H189 0.930 . S
C172 C171 1.380 . S
C172 C179 1.357 . S
C173 C164 1.511 . S
C173 C174 1.341 . S
C173 C175 1.371 . S
C174 C173 1.341 . S
C174 C178 1.394 . S
C174 H190 0.930 . S
C175 C173 1.371 . S
C175 C176 1.392 . S
C175 H191 0.931 . S
C176 C175 1.392 . S
C176 C177 1.331 . S
C176 H194 0.932 . S
C177 C176 1.331 . S
C177 C178 1.336 . S
C178 C174 1.394 . S
C178 C177 1.336 . S
C178 H193 0.929 . S
C179 C169 1.386 . S
C179 C172 1.357 . S
C179 H192 0.928 . S
H180 C156 0.931 . S
H181 C158 0.930 . S
H182 C160 0.929 . S
H183 C161 0.931 . S
H184 C163 0.930 . S
H185 C167 0.931 . S
H186 C165 0.931 . S
H187 C169 0.931 . S
H188 C170 0.929 . S
H189 C171 0.930 . S
H190 C174 0.930 . S
H191 C175 0.931 . S
H192 C179 0.928 . S
H193 C178 0.929 . S
H194 C176 0.932 . S
C195 C196 1.386 . S
C195 C197 1.397 . S
C195 H219 0.931 . S
C196 C195 1.386 . S
C196 C200 1.397 . S
C197 C195 1.397 . S
C197 C198 1.384 . S
C197 H220 0.930 . S
C198 C197 1.384 . S
C198 C199 1.377 . S
C198 C201 1.481 . S
C199 C198 1.377 . S
C199 C200 1.389 . S
C199 H221 0.929 . S
C200 C196 1.397 . S
C200 C199 1.389 . S
C200 H222 0.931 . S
C201 C198 1.481 . S
C201 C202 1.387 . S
C201 C206 1.390 . S
C202 C201 1.387 . S
C202 C203 1.401 . S
C202 H223 0.930 . S
C203 C202 1.401 . S
C203 C204 1.376 1_554 S
C203 C212 1.511 . S
C204 C203 1.376 1_556 S
C204 C205 1.392 . S
C204 H225 0.931 . S
C205 C204 1.392 . S
C205 C206 1.361 1_556 S
C205 C207 1.500 . S
C206 C201 1.390 . S
C206 C205 1.361 1_554 S
C206 H224 0.931 . S
C207 C205 1.500 . S
C207 C208 1.371 . S
C207 C209 1.365 . S
C208 C207 1.371 . S
C208 C218 1.386 . S
C208 H226 0.931 . S
C209 C207 1.365 . S
C209 C210 1.409 . S
C209 H227 0.929 . S
C210 C209 1.409 . S
C210 C211 1.380 . S
C210 H228 0.930 . S
C211 C210 1.380 . S
C211 C218 1.357 . S
C212 C203 1.511 . S
C212 C213 1.341 . S
C212 C214 1.371 . S
C213 C212 1.341 . S
C213 C217 1.394 . S
C213 H229 0.930 . S
C214 C212 1.371 . S
C214 C215 1.392 . S
C214 H230 0.931 1_554 S
C215 C214 1.392 . S
C215 C216 1.331 . S
C215 H233 0.932 . S
C216 C215 1.331 . S
C216 C217 1.336 . S
C217 C213 1.394 . S
C217 C216 1.336 . S
C217 H232 0.929 . S
C218 C208 1.386 . S
C218 C211 1.357 . S
C218 H231 0.928 . S
H219 C195 0.931 . S
H220 C197 0.930 . S
H221 C199 0.929 . S
H222 C200 0.931 . S
H223 C202 0.930 . S
H224 C206 0.931 . S
H225 C204 0.931 . S
H226 C208 0.931 . S
H227 C209 0.929 . S
H228 C210 0.930 . S
H229 C213 0.930 . S
H230 C214 0.931 1_556 S
H231 C218 0.928 . S
H232 C217 0.929 . S
H233 C215 0.932 . S
C234 C235 1.386 . S
C234 C236 1.397 . S
C234 H258 0.931 . S
C235 C234 1.386 . S
C235 C239 1.397 . S
C236 C234 1.397 . S
C236 C237 1.384 . S
C236 H259 0.930 . S
C237 C236 1.384 . S
C237 C238 1.377 . S
C237 C240 1.481 . S
C238 C237 1.377 . S
C238 C239 1.389 . S
C238 H260 0.929 . S
C239 C235 1.397 . S
C239 C238 1.389 . S
C239 H261 0.931 . S
C240 C237 1.481 . S
C240 C241 1.387 . S
C240 C245 1.390 1_554 S
C241 C240 1.387 . S
C241 C242 1.401 . S
C241 H262 0.930 . S
C242 C241 1.401 . S
C242 C243 1.376 1_554 S
C242 C251 1.511 . S
C243 C242 1.376 1_556 S
C243 C244 1.392 . S
C243 H264 0.931 . S
C244 C243 1.392 . S
C244 C245 1.361 . S
C244 C246 1.500 . S
C245 C240 1.390 1_556 S
C245 C244 1.361 . S
C245 H263 0.931 . S
C246 C244 1.500 . S
C246 C247 1.371 . S
C246 C248 1.365 . S
C247 C246 1.371 . S
C247 C257 1.386 . S
C247 H265 0.931 . S
C248 C246 1.365 . S
C248 C249 1.409 . S
C248 H266 0.929 . S
C249 C248 1.409 . S
C249 C250 1.380 . S
C249 H267 0.930 . S
C250 C249 1.380 . S
C250 C257 1.357 . S
C251 C242 1.511 . S
C251 C252 1.341 . S
C251 C253 1.371 1_554 S
C252 C251 1.341 . S
C252 C256 1.394 . S
C252 H268 0.930 . S
C253 C251 1.371 1_556 S
C253 C254 1.392 1_556 S
C253 H269 0.931 . S
C254 C253 1.392 1_554 S
C254 C255 1.331 . S
C254 H272 0.932 1_554 S
C255 C254 1.331 . S
C255 C256 1.336 . S
C256 C252 1.394 . S
C256 C255 1.336 . S
C256 H271 0.929 . S
C257 C247 1.386 . S
C257 C250 1.357 . S
C257 H270 0.928 . S
H258 C234 0.931 . S
H259 C236 0.930 . S
H260 C238 0.929 . S
H261 C239 0.931 . S
H262 C241 0.930 . S
H263 C245 0.931 . S
H264 C243 0.931 . S
H265 C247 0.931 . S
H266 C248 0.929 . S
H267 C249 0.930 . S
H268 C252 0.930 . S
H269 C253 0.931 . S
H270 C257 0.928 . S
H271 C256 0.929 . S
H272 C254 0.932 1_556 S
C273 C274 1.386 . S
C273 C275 1.397 . S
C273 H297 0.931 . S
C274 C273 1.386 . S
C274 C278 1.397 . S
C275 C273 1.397 . S
C275 C276 1.384 . S
C275 H298 0.930 . S
C276 C275 1.384 . S
C276 C277 1.377 . S
C276 C279 1.481 1_556 S
C277 C276 1.377 . S
C277 C278 1.389 . S
C277 H299 0.929 . S
C278 C274 1.397 . S
C278 C277 1.389 . S
C278 H300 0.931 . S
C279 C276 1.481 1_554 S
C279 C280 1.387 . S
C279 C284 1.390 . S
C280 C279 1.387 . S
C280 C281 1.401 . S
C280 H301 0.930 . S
C281 C280 1.401 . S
C281 C282 1.376 . S
C281 C290 1.511 . S
C282 C281 1.376 . S
C282 C283 1.392 . S
C282 H303 0.931 . S
C283 C282 1.392 . S
C283 C284 1.361 . S
C283 C285 1.500 . S
C284 C279 1.390 . S
C284 C283 1.361 . S
C284 H302 0.931 . S
C285 C283 1.500 . S
C285 C286 1.371 . S
C285 C287 1.365 . S
C286 C285 1.371 . S
C286 C296 1.386 . S
C286 H304 0.931 . S
C287 C285 1.365 . S
C287 C288 1.409 . S
C287 H305 0.929 . S
C288 C287 1.409 . S
C288 C289 1.380 . S
C288 H306 0.930 . S
C289 C288 1.380 . S
C289 C296 1.357 . S
C290 C281 1.511 . S
C290 C291 1.341 . S
C290 C292 1.371 . S
C291 C290 1.341 . S
C291 C295 1.394 . S
C291 H307 0.930 . S
C292 C290 1.371 . S
C292 C293 1.392 . S
C292 H308 0.931 . S
C293 C292 1.392 . S
C293 C294 1.331 . S
C293 H311 0.932 . S
C294 C293 1.331 . S
C294 C295 1.336 . S
C295 C291 1.394 . S
C295 C294 1.336 . S
C295 H310 0.929 . S
C296 C286 1.386 . S
C296 C289 1.357 . S
C296 H309 0.928 . S
H297 C273 0.931 . S
H298 C275 0.930 . S
H299 C277 0.929 . S
H300 C278 0.931 . S
H301 C280 0.930 . S
H302 C284 0.931 . S
H303 C282 0.931 . S
H304 C286 0.931 . S
H305 C287 0.929 . S
H306 C288 0.930 . S
H307 C291 0.930 . S
H308 C292 0.931 . S
H309 C296 0.928 . S
H310 C295 0.929 . S
H311 C293 0.932 . S
Eu312 C321 2.828 . S
Eu312 O323 2.392 . S
Eu312 O325 2.418 1_545 S
Eu312 O330 2.373 1_655 S
Eu312 O333 2.488 . S
Eu312 O334 2.471 . S
Eu312 O335 2.349 1_655 S
Eu313 O322 2.373 1_455 S
Eu313 O326 2.488 . S
Eu313 O327 2.471 . S
Eu313 O328 2.349 . S
Eu313 O331 2.392 1_565 S
Eu313 O332 2.418 1_565 S
Eu313 C342 2.828 . S
C314 O332 1.244 . S
C314 O335 1.265 . S
C315 C316 1.379 1_655 S
C315 C319 1.373 . S
C315 C321 1.505 . S
C316 C315 1.379 1_455 S
C316 C318 1.369 . S
C316 H344 0.930 . S
C317 C319 1.383 . S
C317 C320 1.382 1_655 S
C317 H345 0.930 . S
C318 C316 1.369 . S
C318 C320 1.392 . S
C318 H346 0.930 . S
C319 C315 1.373 . S
C319 C317 1.383 . S
C319 H347 0.931 . S
C320 C317 1.382 1_455 S
C320 C318 1.392 . S
C321 Eu312 2.828 . S
C321 C315 1.505 . S
C321 O333 1.249 . S
C321 O334 1.244 . S
O322 Eu313 2.373 1_655 S
O322 C324 1.258 . S
O323 Eu312 2.392 . S
O323 C324 1.242 1_545 S
C324 O322 1.258 . S
C324 O323 1.242 1_565 S
O325 Eu312 2.418 1_565 S
O325 C329 1.244 . S
O326 Eu313 2.488 . S
O326 C342 1.249 . S
O327 Eu313 2.471 . S
O327 C342 1.244 . S
O328 Eu313 2.349 . S
O328 C329 1.265 1_455 S
C329 O325 1.244 . S
C329 O328 1.265 1_655 S
O330 Eu312 2.373 1_455 S
O330 C343 1.258 . S
O331 Eu313 2.392 1_545 S
O331 C343 1.242 . S
O332 Eu313 2.418 1_545 S
O332 C314 1.244 . S
O333 Eu312 2.488 . S
O333 C321 1.249 . S
O334 Eu312 2.471 . S
O334 C321 1.244 . S
O335 Eu312 2.349 1_455 S
O335 C314 1.265 . S
C336 C337 1.379 . S
C336 C340 1.373 . S
C336 C342 1.505 . S
C337 C336 1.379 . S
C337 C339 1.369 . S
C337 H348 0.908 1_455 S
C338 C340 1.383 . S
C338 C341 1.382 . S
C338 H349 0.930 . S
C339 C337 1.369 . S
C339 C341 1.392 . S
C339 H350 0.930 1_455 S
C340 C336 1.373 . S
C340 C338 1.383 . S
C340 H351 0.931 . S
C341 C338 1.382 . S
C341 C339 1.392 . S
C342 Eu313 2.828 . S
C342 O326 1.249 . S
C342 O327 1.244 . S
C342 C336 1.505 . S
C343 O330 1.258 . S
C343 O331 1.242 . S
H344 C316 0.930 . S
H345 C317 0.930 . S
H346 C318 0.930 . S
H347 C319 0.931 . S
H348 C337 0.908 1_655 S
H349 C338 0.930 . S
H350 C339 0.930 1_655 S
H351 C340 0.931 . S
Eu352 C361 2.828 . S
Eu352 O363 2.392 . S
Eu352 O365 2.418 . S
Eu352 O370 2.373 . S
Eu352 O373 2.488 . S
Eu352 O374 2.471 . S
Eu352 O375 2.349 1_545 S
Eu353 O362 2.373 1_565 S
Eu353 O366 2.488 . S
Eu353 O367 2.471 1_565 S
Eu353 O368 2.349 1_565 S
Eu353 O371 2.392 . S
Eu353 O372 2.418 . S
Eu353 C382 2.828 . S
C354 O372 1.244 . S
C354 O375 1.265 . S
C355 C356 1.379 1_545 S
C355 C359 1.373 . S
C355 C361 1.505 . S
C356 C355 1.379 1_565 S
C356 C358 1.369 . S
C356 H384 0.930 . S
C357 C359 1.383 . S
C357 C360 1.382 . S
C357 H385 0.930 . S
C358 C356 1.369 . S
C358 C360 1.392 1_565 S
C358 H386 0.930 . S
C359 C355 1.373 . S
C359 C357 1.383 . S
C359 H387 0.931 . S
C360 C357 1.382 . S
C360 C358 1.392 1_545 S
C361 Eu352 2.828 . S
C361 C355 1.505 . S
C361 O373 1.249 . S
C361 O374 1.244 . S
O362 Eu353 2.373 1_545 S
O362 C364 1.258 . S
O363 Eu352 2.392 . S
O363 C364 1.242 . S
C364 O362 1.258 . S
C364 O363 1.242 . S
O365 Eu352 2.418 . S
O365 C369 1.244 . S
O366 Eu353 2.488 . S
O366 C382 1.249 . S
O367 Eu353 2.471 1_545 S
O367 C382 1.244 1_545 S
O368 Eu353 2.349 1_545 S
O368 C369 1.265 . S
C369 O365 1.244 . S
C369 O368 1.265 . S
O370 Eu352 2.373 . S
O370 C383 1.258 1_545 S
O371 Eu353 2.392 . S
O371 C383 1.242 . S
O372 Eu353 2.418 . S
O372 C354 1.244 . S
O373 Eu352 2.488 . S
O373 C361 1.249 . S
O374 Eu352 2.471 . S
O374 C361 1.244 . S
O375 Eu352 2.349 1_565 S
O375 C354 1.265 . S
C376 C377 1.379 . S
C376 C380 1.373 1_545 S
C376 C382 1.505 1_545 S
C377 C376 1.379 . S
C377 C379 1.369 . S
C377 H388 0.930 . S
C378 C380 1.383 . S
C378 C381 1.382 1_565 S
C378 H389 0.930 . S
C379 C377 1.369 . S
C379 C381 1.392 . S
C379 H390 0.930 . S
C380 C376 1.373 1_565 S
C380 C378 1.383 . S
C380 H391 0.931 . S
C381 C378 1.382 1_545 S
C381 C379 1.392 . S
C382 Eu353 2.828 . S
C382 O366 1.249 . S
C382 O367 1.244 1_565 S
C382 C376 1.505 1_565 S
C383 O370 1.258 1_565 S
C383 O371 1.242 . S
H384 C356 0.930 . S
H385 C357 0.930 . S
H386 C358 0.930 . S
H387 C359 0.931 . S
H388 C377 0.930 . S
H389 C378 0.930 . S
H390 C379 0.930 . S
H391 C380 0.931 . S
Eu392 C401 2.828 . S
Eu392 O403 2.392 . S
Eu392 O405 2.418 . S
Eu392 O410 2.373 . S
Eu392 O413 2.488 . S
Eu392 O414 2.471 . S
Eu392 O415 2.349 . S
Eu393 O402 2.373 . S
Eu393 O406 2.488 . S
Eu393 O407 2.471 . S
Eu393 O408 2.349 . S
Eu393 O411 2.392 . S
Eu393 O412 2.418 . S
Eu393 C422 2.828 . S
C394 O412 1.244 . S
C394 O415 1.265 . S
C395 C396 1.379 . S
C395 C399 1.373 . S
C395 C401 1.505 . S
C396 C395 1.379 . S
C396 C398 1.369 . S
C396 H424 0.930 . S
C397 C399 1.383 . S
C397 C400 1.382 . S
C397 H425 0.930 . S
C398 C396 1.369 . S
C398 C400 1.392 . S
C398 H426 0.930 . S
C399 C395 1.373 . S
C399 C397 1.383 . S
C399 H427 0.931 . S
C400 C397 1.382 . S
C400 C398 1.392 . S
C401 Eu392 2.828 . S
C401 C395 1.505 . S
C401 O413 1.249 . S
C401 O414 1.244 . S
O402 Eu393 2.373 . S
O402 C404 1.258 . S
O403 Eu392 2.392 . S
O403 C404 1.242 . S
C404 O402 1.258 . S
C404 O403 1.242 . S
O405 Eu392 2.418 . S
O405 C409 1.244 . S
O406 Eu393 2.488 . S
O406 C422 1.249 . S
O407 Eu393 2.471 . S
O407 C422 1.244 . S
O408 Eu393 2.349 . S
O408 C409 1.265 . S
C409 O405 1.244 . S
C409 O408 1.265 . S
O410 Eu392 2.373 . S
O410 C423 1.258 . S
O411 Eu393 2.392 . S
O411 C423 1.242 . S
O412 Eu393 2.418 . S
O412 C394 1.244 . S
O413 Eu392 2.488 . S
O413 C401 1.249 . S
O414 Eu392 2.471 . S
O414 C401 1.244 . S
O415 Eu392 2.349 . S
O415 C394 1.265 . S
C416 C417 1.379 . S
C416 C420 1.373 . S
C416 C422 1.505 . S
C417 C416 1.379 . S
C417 C419 1.369 . S
C417 H428 0.930 . S
C418 C420 1.383 . S
C418 C421 1.382 . S
C418 H429 0.930 . S
C419 C417 1.369 . S
C419 C421 1.392 . S
C419 H430 0.930 . S
C420 C416 1.373 . S
C420 C418 1.383 . S
C420 H431 0.931 . S
C421 C418 1.382 . S
C421 C419 1.392 . S
C422 Eu393 2.828 . S
C422 O406 1.249 . S
C422 O407 1.244 . S
C422 C416 1.505 . S
C423 O410 1.258 . S
C423 O411 1.242 . S
H424 C396 0.930 . S
H425 C397 0.930 . S
H426 C398 0.930 . S
H427 C399 0.931 . S
H428 C417 0.930 . S
H429 C418 0.930 . S
H430 C419 0.930 . S
H431 C420 0.931 . S
Eu432 C441 2.828 . S
Eu432 O443 2.392 . S
Eu432 O445 2.418 1_455 S
Eu432 O450 2.373 . S
Eu432 O453 2.488 . S
Eu432 O454 2.471 . S
Eu432 O455 2.349 . S
Eu433 O442 2.373 . S
Eu433 O446 2.488 . S
Eu433 O447 2.471 . S
Eu433 O448 2.349 . S
Eu433 O451 2.392 1_655 S
Eu433 O452 2.418 1_655 S
Eu433 C462 2.828 . S
C434 O452 1.244 . S
C434 O455 1.265 . S
C435 C436 1.379 . S
C435 C439 1.373 . S
C435 C441 1.505 . S
C436 C435 1.379 . S
C436 C438 1.369 . S
C436 H464 0.930 . S
C437 C439 1.383 . S
C437 C440 1.382 . S
C437 H465 0.930 . S
C438 C436 1.369 . S
C438 C440 1.392 . S
C438 H466 0.930 . S
C439 C435 1.373 . S
C439 C437 1.383 . S
C439 H467 0.931 . S
C440 C437 1.382 . S
C440 C438 1.392 . S
C441 Eu432 2.828 . S
C441 C435 1.505 . S
C441 O453 1.249 . S
C441 O454 1.244 . S
O442 Eu433 2.373 . S
O442 C444 1.258 1_655 S
O443 Eu432 2.392 . S
O443 C444 1.242 . S
C444 O442 1.258 1_455 S
C444 O443 1.242 . S
O445 Eu432 2.418 1_655 S
O445 C449 1.244 . S
O446 Eu433 2.488 . S
O446 C462 1.249 . S
O447 Eu433 2.471 . S
O447 C462 1.244 . S
O448 Eu433 2.349 . S
O448 C449 1.265 . S
C449 O445 1.244 . S
C449 O448 1.265 . S
O450 Eu432 2.373 . S
O450 C463 1.258 . S
O451 Eu433 2.392 1_455 S
O451 C463 1.242 . S
O452 Eu433 2.418 1_455 S
O452 C434 1.244 . S
O453 Eu432 2.488 . S
O453 C441 1.249 . S
O454 Eu432 2.471 . S
O454 C441 1.244 . S
O455 Eu432 2.349 . S
O455 C434 1.265 . S
C456 C457 1.379 . S
C456 C460 1.373 . S
C456 C462 1.505 . S
C457 C456 1.379 . S
C457 C459 1.369 . S
C457 H468 0.930 . S
C458 C460 1.383 . S
C458 C461 1.382 . S
C458 H469 0.930 . S
C459 C457 1.369 . S
C459 C461 1.392 . S
C459 H470 0.930 . S
C460 C456 1.373 . S
C460 C458 1.383 . S
C460 H471 0.931 . S
C461 C458 1.382 . S
C461 C459 1.392 . S
C462 Eu433 2.828 . S
C462 O446 1.249 . S
C462 O447 1.244 . S
C462 C456 1.505 . S
C463 O450 1.258 . S
C463 O451 1.242 . S
H464 C436 0.930 . S
H465 C437 0.930 . S
H466 C438 0.930 . S
H467 C439 0.931 . S
H468 C457 0.930 . S
H469 C458 0.930 . S
H470 C459 0.930 . S
H471 C460 0.931 . S
C472 C473 1.349 . S
C472 C474 1.327 . S
C472 H497 0.950 . S
C473 C472 1.349 . S
C473 C489 1.349 . S
C474 C472 1.327 . S
C474 C493 1.429 . S
C474 H498 0.950 . S
C475 C492 1.574 . S
C475 C494 1.368 . S
C475 H499 0.949 . S
H476 C480 0.949 . S
C477 C478 1.349 . S
C477 C479 1.327 . S
C477 H500 0.950 1_545 S
C478 C477 1.349 . S
C478 C490 1.349 . S
C479 C477 1.327 . S
C479 C495 1.429 . S
C479 H501 0.950 . S
C480 H476 0.949 . S
C480 C488 1.574 . S
C480 C496 1.368 . S
H481 C489 0.950 . S
H482 C487 0.950 . S
H483 C488 0.949 . S
H484 C490 0.950 . S
H485 C491 0.950 . S
H486 C492 0.949 . S
C487 H482 0.950 . S
C487 C489 1.327 . S
C487 C493 1.429 . S
C488 C480 1.574 . S
C488 H483 0.949 . S
C488 C494 1.368 . S
C489 C473 1.349 . S
C489 H481 0.950 . S
C489 C487 1.327 . S
C490 C478 1.349 . S
C490 H484 0.950 . S
C490 C491 1.327 . S
C491 H485 0.950 . S
C491 C490 1.327 . S
C491 C495 1.429 . S
C492 C475 1.574 . S
C492 H486 0.949 . S
C492 C496 1.368 . S
C493 C474 1.429 . S
C493 C487 1.429 . S
C493 C494 1.523 . S
C494 C475 1.368 . S
C494 C488 1.368 . S
C494 C493 1.523 . S
C495 C479 1.429 . S
C495 C491 1.429 . S
C495 C496 1.523 . S
C496 C480 1.368 . S
C496 C492 1.368 . S
C496 C495 1.523 . S
H497 C472 0.950 . S
H498 C474 0.950 . S
H499 C475 0.949 . S
H500 C477 0.950 1_565 S
H501 C479 0.950 . S
C502 C503 1.349 . S
C502 C504 1.327 . S
C502 H527 0.950 . S
C503 C502 1.349 . S
C503 C519 1.349 . S
C504 C502 1.327 . S
C504 C523 1.429 . S
C504 H528 0.950 . S
C505 C522 1.574 . S
C505 C524 1.368 . S
C505 H529 0.949 . S
H506 C510 0.949 . S
C507 C508 1.349 . S
C507 C509 1.327 . S
C507 H530 0.950 . S
C508 C507 1.349 . S
C508 C520 1.349 . S
C509 C507 1.327 . S
C509 C525 1.429 . S
C509 H531 0.950 . S
C510 H506 0.949 . S
C510 C518 1.574 . S
C510 C526 1.368 . S
H511 C519 0.950 . S
H512 C517 0.950 . S
H513 C518 0.949 . S
H514 C520 0.950 . S
H515 C521 0.950 . S
H516 C522 0.949 . S
C517 H512 0.950 . S
C517 C519 1.327 . S
C517 C523 1.429 . S
C518 C510 1.574 . S
C518 H513 0.949 . S
C518 C524 1.368 . S
C519 C503 1.349 . S
C519 H511 0.950 . S
C519 C517 1.327 . S
C520 C508 1.349 . S
C520 H514 0.950 . S
C520 C521 1.327 . S
C521 H515 0.950 . S
C521 C520 1.327 . S
C521 C525 1.429 . S
C522 C505 1.574 . S
C522 H516 0.949 . S
C522 C526 1.368 . S
C523 C504 1.429 . S
C523 C517 1.429 . S
C523 C524 1.523 . S
C524 C505 1.368 . S
C524 C518 1.368 . S
C524 C523 1.523 . S
C525 C509 1.429 . S
C525 C521 1.429 . S
C525 C526 1.523 . S
C526 C510 1.368 . S
C526 C522 1.368 . S
C526 C525 1.523 . S
H527 C502 0.950 . S
H528 C504 0.950 . S
H529 C505 0.949 . S
H530 C507 0.950 . S
H531 C509 0.950 . S
C532 C533 1.349 . S
C532 C534 1.327 . S
C532 H557 0.950 . S
C533 C532 1.349 . S
C533 C549 1.349 . S
C534 C532 1.327 . S
C534 C553 1.429 . S
C534 H558 0.950 . S
C535 C552 1.574 . S
C535 C554 1.368 . S
C535 H559 0.949 . S
H536 C540 0.949 . S
C537 C538 1.349 . S
C537 C539 1.327 . S
C537 H560 0.950 . S
C538 C537 1.349 . S
C538 C550 1.349 . S
C539 C537 1.327 . S
C539 C555 1.429 . S
C539 H561 0.950 . S
C540 H536 0.949 . S
C540 C548 1.574 . S
C540 C556 1.368 . S
H541 C549 0.950 . S
H542 C547 0.950 . S
H543 C548 0.949 . S
H544 C550 0.950 . S
H545 C551 0.950 . S
H546 C552 0.949 . S
C547 H542 0.950 . S
C547 C549 1.327 . S
C547 C553 1.429 . S
C548 C540 1.574 . S
C548 H543 0.949 . S
C548 C554 1.368 . S
C549 C533 1.349 . S
C549 H541 0.950 . S
C549 C547 1.327 . S
C550 C538 1.349 . S
C550 H544 0.950 . S
C550 C551 1.327 . S
C551 H545 0.950 . S
C551 C550 1.327 . S
C551 C555 1.429 . S
C552 C535 1.574 . S
C552 H546 0.949 . S
C552 C556 1.368 . S
C553 C534 1.429 . S
C553 C547 1.429 . S
C553 C554 1.523 . S
C554 C535 1.368 . S
C554 C548 1.368 . S
C554 C553 1.523 . S
C555 C539 1.429 . S
C555 C551 1.429 . S
C555 C556 1.523 . S
C556 C540 1.368 . S
C556 C552 1.368 . S
C556 C555 1.523 . S
H557 C532 0.950 . S
H558 C534 0.950 . S
H559 C535 0.949 . S
H560 C537 0.950 . S
H561 C539 0.950 . S
C562 C563 1.349 . S
C562 C564 1.327 . S
C562 H587 0.950 . S
C563 C562 1.349 . S
C563 C579 1.349 . S
C564 C562 1.327 . S
C564 C583 1.429 . S
C564 H588 0.950 . S
C565 C582 1.574 . S
C565 C584 1.368 . S
C565 H589 0.949 . S
H566 C570 0.949 . S
C567 C568 1.349 . S
C567 C569 1.327 . S
C567 H590 0.950 . S
C568 C567 1.349 . S
C568 C580 1.349 . S
C569 C567 1.327 . S
C569 C585 1.429 . S
C569 H591 0.950 . S
C570 H566 0.949 . S
C570 C578 1.574 . S
C570 C586 1.368 . S
H571 C579 0.950 . S
H572 C577 0.950 . S
H573 C578 0.949 . S
H574 C580 0.950 . S
H575 C581 0.950 . S
H576 C582 0.949 . S
C577 H572 0.950 . S
C577 C579 1.327 . S
C577 C583 1.429 . S
C578 C570 1.574 . S
C578 H573 0.949 . S
C578 C584 1.368 . S
C579 C563 1.349 . S
C579 H571 0.950 . S
C579 C577 1.327 . S
C580 C568 1.349 . S
C580 H574 0.950 . S
C580 C581 1.327 . S
C581 H575 0.950 . S
C581 C580 1.327 . S
C581 C585 1.429 . S
C582 C565 1.574 . S
C582 H576 0.949 . S
C582 C586 1.368 . S
C583 C564 1.429 . S
C583 C577 1.429 . S
C583 C584 1.523 . S
C584 C565 1.368 . S
C584 C578 1.368 . S
C584 C583 1.523 . S
C585 C569 1.429 . S
C585 C581 1.429 . S
C585 C586 1.523 . S
C586 C570 1.368 . S
C586 C582 1.368 . S
C586 C585 1.523 . S
H587 C562 0.950 . S
H588 C564 0.950 . S
H589 C565 0.949 . S
H590 C567 0.950 . S
H591 C569 0.950 . S
C592 C593 1.349 . S
C592 C594 1.327 . S
C592 H617 0.950 . S
C593 C592 1.349 . S
C593 C609 1.349 . S
C594 C592 1.327 . S
C594 C613 1.429 . S
C594 H618 0.950 1_554 S
C595 C612 1.574 . S
C595 C614 1.368 . S
C595 H619 0.949 1_556 S
H596 C600 0.949 . S
C597 C598 1.342 1_545 S
C597 C599 1.325 1_545 S
C597 H620 0.959 . S
C598 C597 1.342 1_565 S
C598 C610 1.349 . S
C599 C597 1.325 1_565 S
C599 C615 1.429 . S
C599 H621 0.950 1_565 S
C600 H596 0.949 . S
C600 C608 1.574 . S
C600 C616 1.368 . S
H601 C609 0.950 . S
H602 C607 0.950 . S
H603 C608 0.949 . S
H604 C610 0.950 . S
H605 C611 0.950 . S
H606 C612 0.949 . S
C607 H602 0.950 . S
C607 C609 1.327 . S
C607 C613 1.429 . S
C608 C600 1.574 . S
C608 H603 0.949 . S
C608 C614 1.368 . S
C609 C593 1.349 . S
C609 H601 0.950 . S
C609 C607 1.327 . S
C610 C598 1.349 . S
C610 H604 0.950 . S
C610 C611 1.327 . S
C611 H605 0.950 . S
C611 C610 1.327 . S
C611 C615 1.429 . S
C612 C595 1.574 . S
C612 H606 0.949 . S
C612 C616 1.368 . S
C613 C594 1.429 . S
C613 C607 1.429 . S
C613 C614 1.523 1_554 S
C614 C595 1.368 . S
C614 C608 1.368 . S
C614 C613 1.523 1_556 S
C615 C599 1.429 . S
C615 C611 1.429 . S
C615 C616 1.523 . S
C616 C600 1.368 . S
C616 C612 1.368 . S
C616 C615 1.523 . S
H617 C592 0.950 . S
H618 C594 0.950 1_556 S
H619 C595 0.949 1_554 S
H620 C597 0.959 . S
H621 C599 0.950 1_545 S
C622 C623 1.349 . S
C622 C624 1.327 1_554 S
C622 H647 0.950 . S
C623 C622 1.349 . S
C623 C639 1.349 . S
C624 C622 1.327 1_556 S
C624 C643 1.429 . S
C624 H648 0.950 . S
C625 C642 1.574 . S
C625 C644 1.368 . S
C625 H649 0.949 . S
H626 C630 0.949 . S
C627 C628 1.349 . S
C627 C629 1.327 . S
C627 H650 0.950 . S
C628 C627 1.349 . S
C628 C640 1.349 . S
C629 C627 1.327 . S
C629 C645 1.429 . S
C629 H651 0.950 . S
C630 H626 0.949 . S
C630 C638 1.574 . S
C630 C646 1.368 . S
H631 C639 0.950 . S
H632 C637 0.950 . S
H633 C638 0.949 . S
H634 C640 0.950 . S
H635 C641 0.950 . S
H636 C642 0.949 . S
C637 H632 0.950 . S
C637 C639 1.327 . S
C637 C643 1.429 1_554 S
C638 C630 1.574 . S
C638 H633 0.949 . S
C638 C644 1.368 . S
C639 C623 1.349 . S
C639 H631 0.950 . S
C639 C637 1.327 . S
C640 C628 1.349 . S
C640 H634 0.950 . S
C640 C641 1.327 . S
C641 H635 0.950 . S
C641 C640 1.327 . S
C641 C645 1.429 . S
C642 C625 1.574 . S
C642 H636 0.949 . S
C642 C646 1.368 . S
C643 C624 1.429 . S
C643 C637 1.429 1_556 S
C643 C644 1.523 . S
C644 C625 1.368 . S
C644 C638 1.368 . S
C644 C643 1.523 . S
C645 C629 1.429 . S
C645 C641 1.429 . S
C645 C646 1.523 . S
C646 C630 1.368 . S
C646 C642 1.368 . S
C646 C645 1.523 . S
H647 C622 0.950 . S
H648 C624 0.950 . S
H649 C625 0.949 . S
H650 C627 0.950 . S
H651 C629 0.950 . S
C652 C653 1.349 . S
C652 C654 1.327 1_554 S
C652 H677 0.950 . S
C653 C652 1.349 . S
C653 C669 1.349 . S
C654 C652 1.327 1_556 S
C654 C673 1.429 . S
C654 H678 0.950 . S
C655 C672 1.574 . S
C655 C674 1.368 . S
C655 H679 0.949 . S
H656 C660 0.949 . S
C657 C658 1.349 . S
C657 C659 1.327 . S
C657 H680 0.950 . S
C658 C657 1.349 . S
C658 C670 1.349 . S
C659 C657 1.327 . S
C659 C675 1.429 . S
C659 H681 0.950 . S
C660 H656 0.949 . S
C660 C668 1.574 . S
C660 C676 1.368 . S
H661 C669 0.950 . S
H662 C667 0.950 . S
H663 C668 0.949 . S
H664 C670 0.950 . S
H665 C671 0.950 . S
H666 C672 0.949 . S
C667 H662 0.950 . S
C667 C669 1.327 . S
C667 C673 1.429 1_554 S
C668 C660 1.574 . S
C668 H663 0.949 . S
C668 C674 1.368 . S
C669 C653 1.349 . S
C669 H661 0.950 . S
C669 C667 1.327 . S
C670 C658 1.349 . S
C670 H664 0.950 . S
C670 C671 1.327 . S
C671 H665 0.950 . S
C671 C670 1.327 . S
C671 C675 1.429 . S
C672 C655 1.574 . S
C672 H666 0.949 . S
C672 C676 1.368 . S
C673 C654 1.429 . S
C673 C667 1.429 1_556 S
C673 C674 1.523 . S
C674 C655 1.368 . S
C674 C668 1.368 . S
C674 C673 1.523 . S
C675 C659 1.429 . S
C675 C671 1.429 . S
C675 C676 1.523 . S
C676 C660 1.368 . S
C676 C672 1.368 . S
C676 C675 1.523 . S
H677 C652 0.950 . S
H678 C654 0.950 . S
H679 C655 0.949 . S
H680 C657 0.950 . S
H681 C659 0.950 . S
C682 C683 1.349 . S
C682 C684 1.327 . S
C682 H707 0.950 . S
C683 C682 1.349 . S
C683 C699 1.349 . S
C684 C682 1.327 . S
C684 C703 1.429 . S
C684 H708 0.950 1_554 S
C685 C702 1.574 . S
C685 C704 1.368 . S
C685 H709 0.949 . S
H686 C690 0.949 . S
C687 C688 1.349 . S
C687 C689 1.327 . S
C687 H710 0.950 . S
C688 C687 1.349 . S
C688 C700 1.349 1_655 S
C689 C687 1.327 . S
C689 C705 1.429 . S
C689 H711 0.950 . S
C690 H686 0.949 . S
C690 C698 1.574 . S
C690 C706 1.368 . S
H691 C699 0.950 . S
H692 C697 0.950 . S
H693 C698 0.949 . S
H694 C700 0.950 . S
H695 C701 0.950 1_455 S
H696 C702 0.949 . S
C697 H692 0.950 . S
C697 C699 1.327 . S
C697 C703 1.429 . S
C698 C690 1.574 . S
C698 H693 0.949 . S
C698 C704 1.368 . S
C699 C683 1.349 . S
C699 H691 0.950 . S
C699 C697 1.327 . S
C700 C688 1.349 1_455 S
C700 H694 0.950 . S
C700 C701 1.327 1_455 S
C701 H695 0.950 1_655 S
C701 C700 1.327 1_655 S
C701 C705 1.429 . S
C702 C685 1.574 . S
C702 H696 0.949 . S
C702 C706 1.368 . S
C703 C684 1.429 . S
C703 C697 1.429 . S
C703 C704 1.523 1_554 S
C704 C685 1.368 . S
C704 C698 1.368 . S
C704 C703 1.523 1_556 S
C705 C689 1.429 . S
C705 C701 1.429 . S
C705 C706 1.523 . S
C706 C690 1.368 . S
C706 C702 1.368 . S
C706 C705 1.523 . S
H707 C682 0.950 . S
H708 C684 0.950 1_556 S
H709 C685 0.949 . S
H710 C687 0.950 . S
H711 C689 0.950 . S
C712 C713 1.349 . S
C712 C714 1.327 . S
C712 H737 0.950 . S
C713 C712 1.349 . S
C713 C729 1.349 . S
C714 C712 1.327 . S
C714 C733 1.429 . S
C714 H738 0.950 . S
C715 C732 1.574 . S
C715 C734 1.368 . S
C715 H739 0.949 . S
H716 C720 0.949 . S
C717 C718 1.339 1_655 S
C717 C719 1.327 1_655 S
C717 H740 0.950 . S
C718 C717 1.339 1_455 S
C718 C730 1.371 . S
C719 C717 1.327 1_455 S
C719 C735 1.429 . S
C719 H741 0.950 1_455 S
C720 H716 0.949 . S
C720 C728 1.574 . S
C720 C736 1.368 . S
H721 C729 0.950 . S
H722 C727 0.950 . S
H723 C728 0.949 . S
H724 C730 0.950 . S
H725 C731 0.950 . S
H726 C732 0.949 . S
C727 H722 0.950 . S
C727 C729 1.327 . S
C727 C733 1.429 . S
C728 C720 1.574 . S
C728 H723 0.949 . S
C728 C734 1.368 . S
C729 C713 1.349 . S
C729 H721 0.950 . S
C729 C727 1.327 . S
C730 C718 1.371 . S
C730 H724 0.950 . S
C730 C731 1.327 . S
C731 H725 0.950 . S
C731 C730 1.327 . S
C731 C735 1.429 . S
C732 C715 1.574 . S
C732 H726 0.949 . S
C732 C736 1.368 . S
C733 C714 1.429 . S
C733 C727 1.429 . S
C733 C734 1.523 . S
C734 C715 1.368 . S
C734 C728 1.368 . S
C734 C733 1.523 . S
C735 C719 1.429 . S
C735 C731 1.429 . S
C735 C736 1.523 . S
C736 C720 1.368 . S
C736 C732 1.368 . S
C736 C735 1.523 . S
H737 C712 0.950 . S
H738 C714 0.950 . S
H739 C715 0.949 . S
H740 C717 0.950 . S
H741 C719 0.950 1_655 S
C742 C743 1.349 . S
C742 C744 1.327 . S
C742 H767 0.950 . S
C743 C742 1.349 . S
C743 C759 1.349 . S
C744 C742 1.327 . S
C744 C763 1.429 . S
C744 H768 0.950 . S
C745 C762 1.574 . S
C745 C764 1.368 . S
C745 H769 0.949 . S
H746 C750 0.949 . S
C747 C748 1.349 . S
C747 C749 1.327 . S
C747 H770 0.950 . S
C748 C747 1.349 . S
C748 C760 1.349 . S
C749 C747 1.327 . S
C749 C765 1.429 . S
C749 H771 0.950 . S
C750 H746 0.949 . S
C750 C758 1.574 . S
C750 C766 1.368 . S
H751 C759 0.950 . S
H752 C757 0.950 . S
H753 C758 0.949 . S
H754 C760 0.950 . S
H755 C761 0.950 . S
H756 C762 0.949 . S
C757 H752 0.950 . S
C757 C759 1.327 . S
C757 C763 1.429 . S
C758 C750 1.574 . S
C758 H753 0.949 . S
C758 C764 1.368 . S
C759 C743 1.349 . S
C759 H751 0.950 . S
C759 C757 1.327 . S
C760 C748 1.349 . S
C760 H754 0.950 . S
C760 C761 1.327 . S
C761 H755 0.950 . S
C761 C760 1.327 . S
C761 C765 1.429 . S
C762 C745 1.574 . S
C762 H756 0.949 . S
C762 C766 1.368 . S
C763 C744 1.429 . S
C763 C757 1.429 . S
C763 C764 1.523 . S
C764 C745 1.368 . S
C764 C758 1.368 . S
C764 C763 1.523 . S
C765 C749 1.429 . S
C765 C761 1.429 . S
C765 C766 1.523 . S
C766 C750 1.368 . S
C766 C762 1.368 . S
C766 C765 1.523 . S
H767 C742 0.950 . S
H768 C744 0.950 . S
H769 C745 0.949 . S
H770 C747 0.950 . S
H771 C749 0.950 . S
C772 C773 1.349 . S
C772 C774 1.327 . S
C772 H797 0.950 . S
C773 C772 1.349 . S
C773 C789 1.349 . S
C774 C772 1.327 . S
C774 C793 1.429 . S
C774 H798 0.950 . S
C775 C792 1.574 . S
C775 C794 1.368 . S
C775 H799 0.949 . S
H776 C780 0.949 . S
C777 C778 1.349 . S
C777 C779 1.327 . S
C777 H800 0.950 . S
C778 C777 1.349 . S
C778 C790 1.349 . S
C779 C777 1.327 . S
C779 C795 1.429 . S
C779 H801 0.950 . S
C780 H776 0.949 . S
C780 C788 1.574 . S
C780 C796 1.368 . S
H781 C789 0.950 . S
H782 C787 0.950 . S
H783 C788 0.949 . S
H784 C790 0.950 . S
H785 C791 0.950 . S
H786 C792 0.949 . S
C787 H782 0.950 . S
C787 C789 1.327 . S
C787 C793 1.429 . S
C788 C780 1.574 . S
C788 H783 0.949 . S
C788 C794 1.368 . S
C789 C773 1.349 . S
C789 H781 0.950 . S
C789 C787 1.327 . S
C790 C778 1.349 . S
C790 H784 0.950 . S
C790 C791 1.327 . S
C791 H785 0.950 . S
C791 C790 1.327 . S
C791 C795 1.429 . S
C792 C775 1.574 . S
C792 H786 0.949 . S
C792 C796 1.368 . S
C793 C774 1.429 . S
C793 C787 1.429 . S
C793 C794 1.523 . S
C794 C775 1.368 . S
C794 C788 1.368 . S
C794 C793 1.523 . S
C795 C779 1.429 . S
C795 C791 1.429 . S
C795 C796 1.523 . S
C796 C780 1.368 . S
C796 C792 1.368 . S
C796 C795 1.523 . S
H797 C772 0.950 . S
H798 C774 0.950 . S
H799 C775 0.949 . S
H800 C777 0.950 . S
H801 C779 0.950 . S
C802 C803 1.349 . S
C802 C804 1.327 . S
C802 H827 0.950 . S
C803 C802 1.349 . S
C803 C819 1.349 . S
C804 C802 1.327 . S
C804 C823 1.429 . S
C804 H828 0.950 . S
C805 C822 1.574 . S
C805 C824 1.368 . S
C805 H829 0.949 . S
H806 C810 0.949 . S
C807 C808 1.349 . S
C807 C809 1.327 . S
C807 H830 0.950 . S
C808 C807 1.349 . S
C808 C820 1.349 . S
C809 C807 1.327 . S
C809 C825 1.429 . S
C809 H831 0.950 . S
C810 H806 0.949 . S
C810 C818 1.574 . S
C810 C826 1.368 . S
H811 C819 0.950 . S
H812 C817 0.950 . S
H813 C818 0.949 . S
H814 C820 0.950 . S
H815 C821 0.950 . S
H816 C822 0.949 . S
C817 H812 0.950 . S
C817 C819 1.327 . S
C817 C823 1.429 . S
C818 C810 1.574 . S
C818 H813 0.949 . S
C818 C824 1.368 . S
C819 C803 1.349 . S
C819 H811 0.950 . S
C819 C817 1.327 . S
C820 C808 1.349 . S
C820 H814 0.950 . S
C820 C821 1.327 . S
C821 H815 0.950 . S
C821 C820 1.327 . S
C821 C825 1.429 . S
C822 C805 1.574 . S
C822 H816 0.949 . S
C822 C826 1.368 . S
C823 C804 1.429 . S
C823 C817 1.429 . S
C823 C824 1.523 . S
C824 C805 1.368 . S
C824 C818 1.368 . S
C824 C823 1.523 . S
C825 C809 1.429 . S
C825 C821 1.429 . S
C825 C826 1.523 . S
C826 C810 1.368 . S
C826 C822 1.368 . S
C826 C825 1.523 . S
H827 C802 0.950 . S
H828 C804 0.950 . S
H829 C805 0.949 . S
H830 C807 0.950 . S
H831 C809 0.950 . S
C832 C833 1.349 . S
C832 C834 1.327 1_554 S
C832 H857 0.950 1_554 S
C833 C832 1.349 . S
C833 C849 1.349 . S
C834 C832 1.327 1_556 S
C834 C853 1.429 . S
C834 H858 0.950 . S
C835 C852 1.574 1_655 S
C835 C854 1.368 . S
C835 H859 0.949 1_656 S
H836 C840 0.949 . S
C837 C838 1.349 . S
C837 C839 1.327 . S
C837 H860 0.950 . S
C838 C837 1.349 . S
C838 C850 1.349 1_455 S
C839 C837 1.327 . S
C839 C855 1.450 . S
C839 H861 0.950 . S
C840 H836 0.949 . S
C840 C848 1.574 . S
C840 C856 1.368 . S
H841 C849 0.950 . S
H842 C847 0.950 . S
H843 C848 0.949 . S
H844 C850 0.950 . S
H845 C851 0.950 . S
H846 C852 0.949 . S
C847 H842 0.950 . S
C847 C849 1.327 . S
C847 C853 1.429 1_554 S
C848 C840 1.574 . S
C848 H843 0.949 . S
C848 C854 1.368 . S
C849 C833 1.349 . S
C849 H841 0.950 . S
C849 C847 1.327 . S
C850 C838 1.349 1_655 S
C850 H844 0.950 . S
C850 C851 1.327 . S
C851 H845 0.950 . S
C851 C850 1.327 . S
C851 C855 1.418 1_655 S
C852 C835 1.574 1_455 S
C852 H846 0.949 . S
C852 C856 1.368 1_455 S
C853 C834 1.429 . S
C853 C847 1.429 1_556 S
C853 C854 1.523 . S
C854 C835 1.368 . S
C854 C848 1.368 . S
C854 C853 1.523 . S
C855 C839 1.450 . S
C855 C851 1.418 1_455 S
C855 C856 1.513 1_455 S
C856 C840 1.368 . S
C856 C852 1.368 1_655 S
C856 C855 1.513 1_655 S
H857 C832 0.950 1_556 S
H858 C834 0.950 . S
H859 C835 0.949 1_454 S
H860 C837 0.950 . S
H861 C839 0.950 . S
C862 C863 1.349 . S
C862 C864 1.327 1_554 S
C862 H887 0.950 . S
C863 C862 1.349 . S
C863 C879 1.349 . S
C864 C862 1.327 1_556 S
C864 C883 1.429 . S
C864 H888 0.950 . S
C865 C882 1.574 . S
C865 C884 1.368 . S
C865 H889 0.949 . S
H866 C870 0.949 . S
C867 C868 1.349 . S
C867 C869 1.327 . S
C867 H890 0.950 . S
C868 C867 1.349 . S
C868 C880 1.349 1_545 S
C869 C867 1.327 . S
C869 C885 1.429 1_545 S
C869 H891 0.950 . S
C870 H866 0.949 . S
C870 C878 1.574 . S
C870 C886 1.368 . S
H871 C879 0.950 . S
H872 C877 0.950 . S
H873 C878 0.949 . S
H874 C880 0.950 . S
H875 C881 0.950 . S
H876 C882 0.949 1_545 S
C877 H872 0.950 . S
C877 C879 1.327 . S
C877 C883 1.429 1_554 S
C878 C870 1.574 . S
C878 H873 0.949 . S
C878 C884 1.368 . S
C879 C863 1.349 . S
C879 H871 0.950 . S
C879 C877 1.327 . S
C880 C868 1.349 1_565 S
C880 H874 0.950 . S
C880 C881 1.327 . S
C881 H875 0.950 . S
C881 C880 1.327 . S
C881 C885 1.429 . S
C882 C865 1.574 . S
C882 H876 0.949 1_565 S
C882 C886 1.368 . S
C883 C864 1.429 . S
C883 C877 1.429 1_556 S
C883 C884 1.523 . S
C884 C865 1.368 . S
C884 C878 1.368 . S
C884 C883 1.523 . S
C885 C869 1.429 1_565 S
C885 C881 1.429 . S
C885 C886 1.523 . S
C886 C870 1.368 . S
C886 C882 1.368 . S
C886 C885 1.523 . S
H887 C862 0.950 . S
H888 C864 0.950 . S
H889 C865 0.949 . S
H890 C867 0.950 . S
H891 C869 0.950 . S
C892 C893 1.349 1_556 S
C892 C894 1.327 . S
C892 H917 0.950 . S
C893 C892 1.349 1_554 S
C893 C909 1.349 . S
C894 C892 1.327 . S
C894 C913 1.429 . S
C894 H918 0.950 . S
C895 C912 1.574 . S
C895 C914 1.368 . S
C895 H919 0.949 . S
H896 C900 0.949 . S
C897 C898 1.349 . S
C897 C899 1.327 . S
C897 H920 0.950 . S
C898 C897 1.349 . S
C898 C910 1.349 . S
C899 C897 1.327 . S
C899 C915 1.429 . S
C899 H921 0.950 . S
C900 H896 0.949 . S
C900 C908 1.574 . S
C900 C916 1.368 . S
H901 C909 0.950 . S
H902 C907 0.950 . S
H903 C908 0.949 . S
H904 C910 0.950 . S
H905 C911 0.950 . S
H906 C912 0.949 . S
C907 H902 0.950 . S
C907 C909 1.327 1_556 S
C907 C913 1.429 . S
C908 C900 1.574 . S
C908 H903 0.949 . S
C908 C914 1.368 . S
C909 C893 1.349 . S
C909 H901 0.950 . S
C909 C907 1.327 1_554 S
C910 C898 1.349 . S
C910 H904 0.950 . S
C910 C911 1.327 . S
C911 H905 0.950 . S
C911 C910 1.327 . S
C911 C915 1.429 . S
C912 C895 1.574 . S
C912 H906 0.949 . S
C912 C916 1.368 . S
C913 C894 1.429 . S
C913 C907 1.429 . S
C913 C914 1.523 . S
C914 C895 1.368 . S
C914 C908 1.368 . S
C914 C913 1.523 . S
C915 C899 1.429 . S
C915 C911 1.429 . S
C915 C916 1.523 . S
C916 C900 1.368 . S
C916 C912 1.368 . S
C916 C915 1.523 . S
H917 C892 0.950 . S
H918 C894 0.950 . S
H919 C895 0.949 . S
H920 C897 0.950 . S
H921 C899 0.950 . S
C922 C923 1.349 . S
C922 C924 1.327 . S
C922 H947 0.949 1_556 S
C923 C922 1.349 . S
C923 C939 1.349 . S
C924 C922 1.327 . S
C924 C943 1.429 . S
C924 H948 0.950 . S
C925 C942 1.574 . S
C925 C944 1.368 . S
C925 H949 0.949 . S
H926 C930 0.949 . S
C927 C928 1.349 . S
C927 C929 1.327 . S
C927 H950 0.950 . S
C928 C927 1.349 . S
C928 C940 1.349 . S
C929 C927 1.327 . S
C929 C945 1.429 . S
C929 H951 0.950 . S
C930 H926 0.949 . S
C930 C938 1.574 . S
C930 C946 1.368 . S
H931 C939 0.950 . S
H932 C937 0.950 . S
H933 C938 0.949 . S
H934 C940 0.950 . S
H935 C941 0.950 . S
H936 C942 0.949 . S
C937 H932 0.950 . S
C937 C939 1.327 . S
C937 C943 1.429 . S
C938 C930 1.574 . S
C938 H933 0.949 . S
C938 C944 1.368 . S
C939 C923 1.349 . S
C939 H931 0.950 . S
C939 C937 1.327 . S
C940 C928 1.349 . S
C940 H934 0.950 . S
C940 C941 1.327 . S
C941 H935 0.950 . S
C941 C940 1.327 . S
C941 C945 1.429 . S
C942 C925 1.574 . S
C942 H936 0.949 . S
C942 C946 1.368 . S
C943 C924 1.429 . S
C943 C937 1.429 . S
C943 C944 1.523 . S
C944 C925 1.368 . S
C944 C938 1.368 . S
C944 C943 1.523 . S
C945 C929 1.429 . S
C945 C941 1.429 . S
C945 C946 1.523 . S
C946 C930 1.368 . S
C946 C942 1.368 . S
C946 C945 1.523 . S
H947 C922 0.949 1_554 S
H948 C924 0.950 . S
H949 C925 0.949 . S
H950 C927 0.950 . S
H951 C929 0.950 . S
C952 C953 1.349 . S
C952 C954 1.327 . S
C952 H977 0.950 . S
C953 C952 1.349 . S
C953 C969 1.349 . S
C954 C952 1.327 . S
C954 C973 1.429 . S
C954 H978 0.950 . S
C955 C972 1.574 . S
C955 C974 1.368 . S
C955 H979 0.949 . S
H956 C960 0.949 . S
C957 C958 1.349 . S
C957 C959 1.327 . S
C957 H980 0.950 . S
C958 C957 1.349 . S
C958 C970 1.349 . S
C959 C957 1.327 . S
C959 C975 1.429 . S
C959 H981 0.950 . S
C960 H956 0.949 . S
C960 C968 1.574 . S
C960 C976 1.368 . S
H961 C969 0.950 . S
H962 C967 0.950 . S
H963 C968 0.949 . S
H964 C970 0.950 . S
H965 C971 0.950 . S
H966 C972 0.949 . S
C967 H962 0.950 . S
C967 C969 1.327 . S
C967 C973 1.429 . S
C968 C960 1.574 . S
C968 H963 0.949 . S
C968 C974 1.368 . S
C969 C953 1.349 . S
C969 H961 0.950 . S
C969 C967 1.327 . S
C970 C958 1.349 . S
C970 H964 0.950 . S
C970 C971 1.327 . S
C971 H965 0.950 . S
C971 C970 1.327 . S
C971 C975 1.429 . S
C972 C955 1.574 . S
C972 H966 0.949 . S
C972 C976 1.368 . S
C973 C954 1.429 . S
C973 C967 1.429 . S
C973 C974 1.523 . S
C974 C955 1.368 . S
C974 C968 1.368 . S
C974 C973 1.523 . S
C975 C959 1.429 . S
C975 C971 1.429 . S
C975 C976 1.523 . S
C976 C960 1.368 . S
C976 C972 1.368 . S
C976 C975 1.523 . S
H977 C952 0.950 . S
H978 C954 0.950 . S
H979 C955 0.949 . S
H980 C957 0.950 . S
H981 C959 0.950 . S
C982 C983 1.349 . S
C982 C984 1.327 . S
C982 H1007 0.950 . S
C983 C982 1.349 . S
C983 C999 1.349 . S
C984 C982 1.327 . S
C984 C1003 1.429 . S
C984 H1008 0.950 . S
C985 C1002 1.574 . S
C985 C1004 1.368 . S
C985 H1009 0.949 . S
H986 C990 0.949 . S
C987 C988 1.349 . S
C987 C989 1.327 . S
C987 H1010 0.950 . S
C988 C987 1.349 . S
C988 C1000 1.349 . S
C989 C987 1.327 . S
C989 C1005 1.429 . S
C989 H1011 0.950 . S
C990 H986 0.949 . S
C990 C998 1.574 . S
C990 C1006 1.368 . S
H991 C999 0.950 . S
H992 C997 0.950 . S
H993 C998 0.949 . S
H994 C1000 0.950 . S
H995 C1001 0.950 . S
H996 C1002 0.949 . S
C997 H992 0.950 . S
C997 C999 1.327 . S
C997 C1003 1.429 . S
C998 C990 1.574 . S
C998 H993 0.949 . S
C998 C1004 1.368 . S
C999 C983 1.349 . S
C999 H991 0.950 . S
C999 C997 1.327 . S
C1000 C988 1.349 . S
C1000 H994 0.950 . S
C1000 C1001 1.327 . S
C1001 H995 0.950 . S
C1001 C1000 1.327 . S
C1001 C1005 1.429 . S
C1002 C985 1.574 . S
C1002 H996 0.949 . S
C1002 C1006 1.368 . S
C1003 C984 1.429 . S
C1003 C997 1.429 . S
C1003 C1004 1.523 . S
C1004 C985 1.368 . S
C1004 C998 1.368 . S
C1004 C1003 1.523 . S
C1005 C989 1.429 . S
C1005 C1001 1.429 . S
C1005 C1006 1.523 . S
C1006 C990 1.368 . S
C1006 C1002 1.368 . S
C1006 C1005 1.523 . S
H1007 C982 0.950 . S
H1008 C984 0.950 . S
H1009 C985 0.949 . S
H1010 C987 0.950 . S
H1011 C989 0.950 . S
C1012 C1013 1.349 . S
C1012 C1014 1.327 . S
C1012 H1037 0.950 . S
C1013 C1012 1.349 . S
C1013 C1029 1.349 . S
C1014 C1012 1.327 . S
C1014 C1033 1.429 . S
C1014 H1038 0.950 . S
C1015 C1032 1.574 . S
C1015 C1034 1.368 . S
C1015 H1039 0.949 . S
H1016 C1020 0.949 . S
C1017 C1018 1.349 . S
C1017 C1019 1.327 . S
C1017 H1040 0.950 . S
C1018 C1017 1.349 . S
C1018 C1030 1.349 . S
C1019 C1017 1.327 . S
C1019 C1035 1.429 . S
C1019 H1041 0.950 . S
C1020 H1016 0.949 . S
C1020 C1028 1.574 . S
C1020 C1036 1.368 . S
H1021 C1029 0.950 . S
H1022 C1027 0.950 . S
H1023 C1028 0.949 . S
H1024 C1030 0.950 . S
H1025 C1031 0.950 . S
H1026 C1032 0.949 . S
C1027 H1022 0.950 . S
C1027 C1029 1.327 . S
C1027 C1033 1.429 . S
C1028 C1020 1.574 . S
C1028 H1023 0.949 . S
C1028 C1034 1.368 . S
C1029 C1013 1.349 . S
C1029 H1021 0.950 . S
C1029 C1027 1.327 . S
C1030 C1018 1.349 . S
C1030 H1024 0.950 . S
C1030 C1031 1.327 . S
C1031 H1025 0.950 . S
C1031 C1030 1.327 . S
C1031 C1035 1.429 . S
C1032 C1015 1.574 . S
C1032 H1026 0.949 . S
C1032 C1036 1.368 . S
C1033 C1014 1.429 . S
C1033 C1027 1.429 . S
C1033 C1034 1.523 . S
C1034 C1015 1.368 . S
C1034 C1028 1.368 . S
C1034 C1033 1.523 . S
C1035 C1019 1.429 . S
C1035 C1031 1.429 . S
C1035 C1036 1.523 . S
C1036 C1020 1.368 . S
C1036 C1032 1.368 . S
C1036 C1035 1.523 . S
H1037 C1012 0.950 . S
H1038 C1014 0.950 . S
H1039 C1015 0.949 . S
H1040 C1017 0.950 . S
H1041 C1019 0.950 . S
C1042 C1043 1.349 . S
C1042 C1044 1.327 . S
C1042 H1067 0.950 . S
C1043 C1042 1.349 . S
C1043 C1059 1.349 . S
C1044 C1042 1.327 . S
C1044 C1063 1.429 . S
C1044 H1068 0.950 . S
C1045 C1062 1.574 . S
C1045 C1064 1.368 . S
C1045 H1069 0.949 . S
H1046 C1050 0.949 . S
C1047 C1048 1.349 . S
C1047 C1049 1.327 . S
C1047 H1070 0.950 . S
C1048 C1047 1.349 . S
C1048 C1060 1.349 . S
C1049 C1047 1.327 . S
C1049 C1065 1.429 . S
C1049 H1071 0.950 . S
C1050 H1046 0.949 . S
C1050 C1058 1.574 . S
C1050 C1066 1.368 . S
H1051 C1059 0.950 . S
H1052 C1057 0.950 . S
H1053 C1058 0.949 . S
H1054 C1060 0.950 . S
H1055 C1061 0.950 . S
H1056 C1062 0.949 . S
C1057 H1052 0.950 . S
C1057 C1059 1.327 . S
C1057 C1063 1.429 . S
C1058 C1050 1.574 . S
C1058 H1053 0.949 . S
C1058 C1064 1.368 . S
C1059 C1043 1.349 . S
C1059 H1051 0.950 . S
C1059 C1057 1.327 . S
C1060 C1048 1.349 . S
C1060 H1054 0.950 . S
C1060 C1061 1.327 . S
C1061 H1055 0.950 . S
C1061 C1060 1.327 . S
C1061 C1065 1.429 . S
C1062 C1045 1.574 . S
C1062 H1056 0.949 . S
C1062 C1066 1.368 . S
C1063 C1044 1.429 . S
C1063 C1057 1.429 . S
C1063 C1064 1.523 . S
C1064 C1045 1.368 . S
C1064 C1058 1.368 . S
C1064 C1063 1.523 . S
C1065 C1049 1.429 . S
C1065 C1061 1.429 . S
C1065 C1066 1.523 . S
C1066 C1050 1.368 . S
C1066 C1062 1.368 . S
C1066 C1065 1.523 . S
H1067 C1042 0.950 . S
H1068 C1044 0.950 . S
H1069 C1045 0.949 . S
H1070 C1047 0.950 . S
H1071 C1049 0.950 . S
C1072 C1073 1.349 . S
C1072 C1074 1.327 . S
C1072 H1097 0.950 . S
C1073 C1072 1.349 . S
C1073 C1089 1.349 . S
C1074 C1072 1.327 . S
C1074 C1093 1.429 . S
C1074 H1098 0.950 . S
C1075 C1092 1.574 . S
C1075 C1094 1.368 . S
C1075 H1099 0.949 . S
H1076 C1080 0.949 1_455 S
C1077 C1078 1.349 . S
C1077 C1079 1.327 . S
C1077 H1100 0.950 . S
C1078 C1077 1.349 . S
C1078 C1090 1.349 1_655 S
C1079 C1077 1.327 . S
C1079 C1095 1.429 . S
C1079 H1101 0.950 . S
C1080 H1076 0.949 1_655 S
C1080 C1088 1.574 . S
C1080 C1096 1.368 . S
H1081 C1089 0.950 . S
H1082 C1087 0.950 . S
H1083 C1088 0.949 . S
H1084 C1090 0.950 . S
H1085 C1091 0.950 1_455 S
H1086 C1092 0.949 . S
C1087 H1082 0.950 . S
C1087 C1089 1.327 . S
C1087 C1093 1.429 . S
C1088 C1080 1.574 . S
C1088 H1083 0.949 . S
C1088 C1094 1.368 . S
C1089 C1073 1.349 . S
C1089 H1081 0.950 . S
C1089 C1087 1.327 . S
C1090 C1078 1.349 1_455 S
C1090 H1084 0.950 . S
C1090 C1091 1.327 1_455 S
C1091 H1085 0.950 1_655 S
C1091 C1090 1.327 1_655 S
C1091 C1095 1.429 . S
C1092 C1075 1.574 . S
C1092 H1086 0.949 . S
C1092 C1096 1.368 . S
C1093 C1074 1.429 . S
C1093 C1087 1.429 . S
C1093 C1094 1.523 . S
C1094 C1075 1.368 . S
C1094 C1088 1.368 . S
C1094 C1093 1.523 . S
C1095 C1079 1.429 . S
C1095 C1091 1.429 . S
C1095 C1096 1.523 . S
C1096 C1080 1.368 . S
C1096 C1092 1.368 . S
C1096 C1095 1.523 . S
H1097 C1072 0.950 . S
H1098 C1074 0.950 . S
H1099 C1075 0.949 . S
H1100 C1077 0.950 . S
H1101 C1079 0.950 . S
C1102 C1103 1.349 . S
C1102 C1104 1.327 . S
C1102 H1127 0.950 . S
C1103 C1102 1.349 . S
C1103 C1119 1.349 . S
C1104 C1102 1.327 . S
C1104 C1123 1.429 . S
C1104 H1128 0.950 . S
C1105 C1122 1.574 . S
C1105 C1124 1.368 . S
C1105 H1129 0.949 . S
H1106 C1110 0.949 . S
C1107 C1108 1.349 . S
C1107 C1109 1.327 . S
C1107 H1130 0.950 . S
C1108 C1107 1.349 . S
C1108 C1120 1.349 . S
C1109 C1107 1.327 . S
C1109 C1125 1.429 . S
C1109 H1131 0.950 . S
C1110 H1106 0.949 . S
C1110 C1118 1.574 . S
C1110 C1126 1.368 . S
H1111 C1119 0.950 . S
H1112 C1117 0.950 . S
H1113 C1118 0.949 . S
H1114 C1120 0.950 . S
H1115 C1121 0.950 . S
H1116 C1122 0.949 . S
C1117 H1112 0.950 . S
C1117 C1119 1.327 . S
C1117 C1123 1.429 . S
C1118 C1110 1.574 . S
C1118 H1113 0.949 . S
C1118 C1124 1.368 . S
C1119 C1103 1.349 . S
C1119 H1111 0.950 . S
C1119 C1117 1.327 . S
C1120 C1108 1.349 . S
C1120 H1114 0.950 . S
C1120 C1121 1.327 . S
C1121 H1115 0.950 . S
C1121 C1120 1.327 . S
C1121 C1125 1.429 . S
C1122 C1105 1.574 . S
C1122 H1116 0.949 . S
C1122 C1126 1.368 . S
C1123 C1104 1.429 . S
C1123 C1117 1.429 . S
C1123 C1124 1.523 . S
C1124 C1105 1.368 . S
C1124 C1118 1.368 . S
C1124 C1123 1.523 . S
C1125 C1109 1.429 . S
C1125 C1121 1.429 . S
C1125 C1126 1.523 . S
C1126 C1110 1.368 . S
C1126 C1122 1.368 . S
C1126 C1125 1.523 . S
H1127 C1102 0.950 . S
H1128 C1104 0.950 . S
H1129 C1105 0.949 . S
H1130 C1107 0.950 . S
H1131 C1109 0.950 . S
C1132 C1133 1.349 . S
C1132 C1134 1.327 . S
C1132 H1157 0.950 . S
C1133 C1132 1.349 . S
C1133 C1149 1.349 . S
C1134 C1132 1.327 . S
C1134 C1153 1.429 . S
C1134 H1158 0.950 . S
C1135 C1152 1.574 . S
C1135 C1154 1.368 . S
C1135 H1159 0.949 . S
H1136 C1140 0.949 . S
C1137 C1138 1.349 . S
C1137 C1139 1.327 . S
C1137 H1160 0.950 . S
C1138 C1137 1.349 . S
C1138 C1150 1.349 . S
C1139 C1137 1.327 . S
C1139 C1155 1.429 . S
C1139 H1161 0.950 . S
C1140 H1136 0.949 . S
C1140 C1148 1.574 . S
C1140 C1156 1.368 . S
H1141 C1149 0.950 . S
H1142 C1147 0.950 . S
H1143 C1148 0.949 . S
H1144 C1150 0.950 . S
H1145 C1151 0.950 . S
H1146 C1152 0.949 . S
C1147 H1142 0.950 . S
C1147 C1149 1.327 . S
C1147 C1153 1.429 . S
C1148 C1140 1.574 . S
C1148 H1143 0.949 . S
C1148 C1154 1.368 . S
C1149 C1133 1.349 . S
C1149 H1141 0.950 . S
C1149 C1147 1.327 . S
C1150 C1138 1.349 . S
C1150 H1144 0.950 . S
C1150 C1151 1.327 . S
C1151 H1145 0.950 . S
C1151 C1150 1.327 . S
C1151 C1155 1.429 . S
C1152 C1135 1.574 . S
C1152 H1146 0.949 . S
C1152 C1156 1.368 . S
C1153 C1134 1.429 . S
C1153 C1147 1.429 . S
C1153 C1154 1.523 . S
C1154 C1135 1.368 . S
C1154 C1148 1.368 . S
C1154 C1153 1.523 . S
C1155 C1139 1.429 . S
C1155 C1151 1.429 . S
C1155 C1156 1.523 . S
C1156 C1140 1.368 . S
C1156 C1152 1.368 . S
C1156 C1155 1.523 . S
H1157 C1132 0.950 . S
H1158 C1134 0.950 . S
H1159 C1135 0.949 . S
H1160 C1137 0.950 . S
H1161 C1139 0.950 . S
C1162 C1163 1.349 . S
C1162 C1164 1.327 . S
C1162 H1187 0.950 . S
C1163 C1162 1.349 . S
C1163 C1179 1.349 . S
C1164 C1162 1.327 . S
C1164 C1183 1.429 . S
C1164 H1188 0.950 . S
C1165 C1182 1.574 . S
C1165 C1184 1.368 . S
C1165 H1189 0.949 . S
H1166 C1170 0.949 . S
C1167 C1168 1.349 . S
C1167 C1169 1.327 . S
C1167 H1190 0.950 . S
C1168 C1167 1.349 . S
C1168 C1180 1.349 . S
C1169 C1167 1.327 . S
C1169 C1185 1.429 . S
C1169 H1191 0.950 . S
C1170 H1166 0.949 . S
C1170 C1178 1.574 . S
C1170 C1186 1.368 . S
H1171 C1179 0.950 . S
H1172 C1177 0.950 . S
H1173 C1178 0.949 . S
H1174 C1180 0.950 . S
H1175 C1181 0.950 . S
H1176 C1182 0.949 . S
C1177 H1172 0.950 . S
C1177 C1179 1.327 . S
C1177 C1183 1.429 . S
C1178 C1170 1.574 . S
C1178 H1173 0.949 . S
C1178 C1184 1.368 . S
C1179 C1163 1.349 . S
C1179 H1171 0.950 . S
C1179 C1177 1.327 . S
C1180 C1168 1.349 . S
C1180 H1174 0.950 . S
C1180 C1181 1.327 . S
C1181 H1175 0.950 . S
C1181 C1180 1.327 . S
C1181 C1185 1.429 . S
C1182 C1165 1.574 . S
C1182 H1176 0.949 . S
C1182 C1186 1.368 . S
C1183 C1164 1.429 . S
C1183 C1177 1.429 . S
C1183 C1184 1.523 . S
C1184 C1165 1.368 . S
C1184 C1178 1.368 . S
C1184 C1183 1.523 . S
C1185 C1169 1.429 . S
C1185 C1181 1.429 . S
C1185 C1186 1.523 . S
C1186 C1170 1.368 . S
C1186 C1182 1.368 . S
C1186 C1185 1.523 . S
H1187 C1162 0.950 . S
H1188 C1164 0.950 . S
H1189 C1165 0.949 . S
H1190 C1167 0.950 . S
H1191 C1169 0.950 . S
C473 C255 2.603 . S
C478 C343 2.763 . S
C508 C369 2.011 . S
C503 C294 1.851 . S
C538 C409 2.117 . S
C533 C177 1.986 . S
C568 C463 2.702 . S
C563 C216 2.577 . S
C598 C324 2.762 . S
C593 C99 2.614 . S
C623 C138 1.860 . S
C628 C354 2.010 . S
C653 C21 1.997 . S
C658 C394 2.117 . S
C683 C60 2.585 . S
C688 C444 2.703 1_655 S
C718 C320 0.300 . S
C713 C196 0.373 . S
C748 C381 0.470 . S
C743 C235 0.477 . S
C778 C421 0.252 . S
C773 C289 0.191 . S
C803 C157 0.532 . S
C808 C440 0.375 . S
C833 C40 0.349 . S
C838 C341 0.281 . S
C868 C360 0.470 . S
C863 C79 0.469 . S
C898 C400 0.252 . S
C893 C133 0.196 . S
C923 C1 0.509 1_556 S
C928 C461 0.376 . S
C953 C211 2.265 . S
C958 C314 2.536 . S
C983 C250 3.053 . S
C988 C364 3.337 . S
C1018 C404 3.004 . S
C1013 C274 2.753 . S
C1048 C434 2.267 . S
C1043 C172 2.042 . S
C1073 C55 2.263 . S
C1078 C329 2.537 . S
C1108 C383 3.338 . S
C1103 C94 3.050 . S
C1138 C423 3.003 . S
C1133 C118 2.757 . S
C1163 C16 2.038 . S
C1168 C449 2.266 . S
