# Generated by pormake.
# Topology pth, (4,4)-cn, num edge types: 1
# Building blocks:
#     Node 0, Type 0, BuildingBlock: QUQFOY_clean_sbu_1, # of connection points: 4
#     Node 1, Type 0, BuildingBlock: QUQFOY_clean_sbu_1, # of connection points: 4
#     Node 2, Type 0, BuildingBlock: QUQFOY_clean_sbu_1, # of connection points: 4
#     Node 3, Type 1, BuildingBlock: NAHDIM_clean_linker_0, # of connection points: 4
#     Node 4, Type 1, BuildingBlock: NAHDIM_clean_linker_0, # of connection points: 4
#     Node 5, Type 1, BuildingBlock: NAHDIM_clean_linker_0, # of connection points: 4
#     Edge 6, Type (0, 1), BuildingBlock: OJICUG_clean_linker_0, # of connection points: 2
#     Edge 7, Type (0, 1), BuildingBlock: OJICUG_clean_linker_0, # of connection points: 2
#     Edge 8, Type (0, 1), BuildingBlock: OJICUG_clean_linker_0, # of connection points: 2
#     Edge 9, Type (0, 1), BuildingBlock: OJICUG_clean_linker_0, # of connection points: 2
#     Edge 10, Type (0, 1), BuildingBlock: OJICUG_clean_linker_0, # of connection points: 2
#     Edge 11, Type (0, 1), BuildingBlock: OJICUG_clean_linker_0, # of connection points: 2
#     Edge 12, Type (0, 1), BuildingBlock: OJICUG_clean_linker_0, # of connection points: 2
#     Edge 13, Type (0, 1), BuildingBlock: OJICUG_clean_linker_0, # of connection points: 2
#     Edge 14, Type (0, 1), BuildingBlock: OJICUG_clean_linker_0, # of connection points: 2
#     Edge 15, Type (0, 1), BuildingBlock: OJICUG_clean_linker_0, # of connection points: 2
#     Edge 16, Type (0, 1), BuildingBlock: OJICUG_clean_linker_0, # of connection points: 2
#     Edge 17, Type (0, 1), BuildingBlock: OJICUG_clean_linker_0, # of connection points: 2
# Relax obj value: 0.030
# Max RMSD: 0.122
# Mean RMSD: 0.078
data_MOF--net-pth--node1-QUQFOY_clean_sbu_1--node2-NAHDIM_clean_linker_0--edge1-OJICUG_clean_linker_0
_symmetry_space_group_name_H-M    P1
_symmetry_Int_Tables_number       1
_symmetry_cell_setting            triclinic
loop_
_symmetry_equiv_pos_as_xyz
'x, y, z'
_cell_length_a     24.669997
_cell_length_b     27.021924
_cell_length_c     67.29411
_cell_angle_alpha  89.54835
_cell_angle_beta   90.78059
_cell_angle_gamma 120.03512
loop_
_atom_site_label
_atom_site_type_symbol
_atom_site_fract_x
_atom_site_fract_y
_atom_site_fract_z
_atom_type_partial_charge
O0 O 0.07777 0.12848 0.04797 0.0
Cd1 Cd 0.0036 0.07647 0.06594 0.0
Cd2 Cd 0.05498 0.00878 0.06362 0.0
O3 O 0.12719 0.07958 0.05018 0.0
O4 O 0.97024 0.12588 0.07508 0.0
O5 O 0.01204 0.08937 0.09555 0.0
C6 C 0.9867 0.12079 0.09289 0.0
C7 C 0.07761 0.96172 0.08881 0.0
C8 C 0.12457 0.12285 0.04394 0.0
C9 C 0.92934 0.96634 0.04408 0.0
O10 O 0.97678 0.95998 0.04617 0.0
O11 O 0.92842 0.00815 0.05225 0.0
O12 O 0.08987 0.95831 0.07048 0.0
O13 O 0.05282 0.99265 0.09296 0.0
O14 O 0.94634 0.07571 0.42023 0.0
Cd15 Cd 0.03572 0.09813 0.41206 0.0
Cd16 Cd 0.98424 0.98452 0.40578 0.0
O17 O 0.90246 0.9854 0.41121 0.0
O18 O 0.07886 0.18131 0.4058 0.0
O19 O 0.05816 0.11465 0.38325 0.0
C20 C 0.08012 0.16796 0.38752 0.0
C21 C 0.98209 0.92466 0.38039 0.0
C22 C 0.89786 0.02682 0.41809 0.0
C23 C 0.07835 0.03728 0.43947 0.0
O24 O 0.0385 0.99217 0.43045 0.0
O25 O 0.08826 0.08595 0.43362 0.0
O26 O 0.95292 0.90451 0.39682 0.0
O27 O 0.0128 0.97951 0.37819 0.0
O28 O 0.97349 0.99728 0.68614 0.0
Cd29 Cd 0.01127 0.97625 0.71007 0.0
Cd30 Cd 0.08642 0.09173 0.71356 0.0
O31 O 0.03109 0.09065 0.69008 0.0
O32 O 0.95049 0.89619 0.71795 0.0
O33 O 0.97722 0.97061 0.7375 0.0
C34 C 0.9454 0.91595 0.73478 0.0
C35 C 0.10543 0.15435 0.73982 0.0
C36 C 0.98854 0.04771 0.68075 0.0
C37 C 0.1499 0.0235 0.70607 0.0
O38 O 0.15625 0.07278 0.70832 0.0
O39 O 0.09582 0.97919 0.70645 0.0
O40 O 0.13106 0.17255 0.72275 0.0
O41 O 0.06772 0.10012 0.74196 0.0
C42 C 0.95013 0.78578 0.29864 0.0
C43 C 0.96612 0.76801 0.31861 0.0
C44 C 0.02856 0.72399 0.30898 0.0
C45 C 0.08911 0.73217 0.30798 0.0
C46 C 0.1005 0.69145 0.29902 0.0
C47 C 0.04979 0.64096 0.29104 0.0
C48 C 0.98815 0.63148 0.29252 0.0
C49 C 0.97818 0.67314 0.3013 0.0
C50 C 0.16678 0.70294 0.29764 0.0
C51 C 0.93271 0.57771 0.28442 0.0
C52 C 0.18953 0.33743 0.30967 0.0
C53 C 0.15527 0.34524 0.3272 0.0
C54 C 0.09545 0.38716 0.31214 0.0
C55 C 0.03527 0.37676 0.30743 0.0
C56 C 0.02585 0.41834 0.29791 0.0
C57 C 0.0782 0.47153 0.29274 0.0
C58 C 0.13921 0.48301 0.29788 0.0
C59 C 0.14727 0.4409 0.3076 0.0
C60 C 0.96009 0.40493 0.29289 0.0
C61 C 0.19606 0.53939 0.29264 0.0
C62 C 0.01812 0.34735 0.16796 0.0
C63 C 0.96805 0.35264 0.17528 0.0
C64 C 0.97857 0.4037 0.18405 0.0
C65 C 0.04035 0.45046 0.1857 0.0
C66 C 0.09069 0.44582 0.17803 0.0
C67 C 0.07884 0.39427 0.16925 0.0
C68 C 0.92368 0.40728 0.19199 0.0
C69 C 0.15709 0.49486 0.17957 0.0
C70 C 0.1636 0.87755 0.16805 0.0
C71 C 0.13439 0.83943 0.14969 0.0
C72 C 0.07743 0.74207 0.16374 0.0
C73 C 0.01814 0.69605 0.16807 0.0
C74 C 0.01108 0.64715 0.17793 0.0
C75 C 0.06487 0.64434 0.18362 0.0
C76 C 0.12499 0.69001 0.17886 0.0
C77 C 0.13073 0.73834 0.16899 0.0
C78 C 0.94629 0.5991 0.18272 0.0
C79 C 0.18336 0.68824 0.18463 0.0
C80 C 0.06092 0.59955 0.27994 0.0
C81 C 0.06583 0.55721 0.29059 0.0
C82 C 0.06978 0.51369 0.28074 0.0
C83 C 0.06656 0.51106 0.25972 0.0
C84 C 0.06632 0.46593 0.24935 0.0
C85 C 0.06117 0.46282 0.22873 0.0
C86 C 0.05816 0.50568 0.21761 0.0
C87 C 0.05215 0.50255 0.19665 0.0
C88 C 0.05369 0.54787 0.18595 0.0
C89 C 0.05893 0.59564 0.19573 0.0
C90 C 0.06042 0.59748 0.21675 0.0
C91 C 0.06153 0.64301 0.2271 0.0
C92 C 0.06157 0.64375 0.24777 0.0
C93 C 0.06214 0.59975 0.25892 0.0
C94 C 0.06338 0.55458 0.2488 0.0
C95 C 0.06082 0.55266 0.2277 0.0
C96 C 0.93473 0.21241 0.17638 0.0
C97 C 0.95474 0.24708 0.157 0.0
O98 O 0.02122 0.76625 0.31721 0.0
O99 O 0.08077 0.78903 0.15482 0.0
O100 O 0.0104 0.29811 0.15984 0.0
O101 O 0.10099 0.34396 0.32069 0.0
H102 H 0.92687 0.72496 0.32254 0.0
H103 H 0.94062 0.7532 0.28711 0.0
H104 H 0.9895 0.82728 0.29351 0.0
H105 H 0.90754 0.7896 0.30005 0.0
H106 H 0.12777 0.77126 0.31395 0.0
H107 H 0.93086 0.6655 0.30182 0.0
H108 H 0.17075 0.66832 0.30529 0.0
H109 H 0.20125 0.74456 0.30438 0.0
H110 H 0.17888 0.70284 0.2818 0.0
H111 H 0.88736 0.57339 0.2889 0.0
H112 H 0.93451 0.53946 0.28965 0.0
H113 H 0.93447 0.5783 0.26794 0.0
H114 H 0.18734 0.38719 0.33427 0.0
H115 H 0.23043 0.33433 0.31515 0.0
H116 H 0.20705 0.37448 0.29941 0.0
H117 H 0.15788 0.29838 0.30105 0.0
H118 H 0.99549 0.33545 0.31106 0.0
H119 H 0.19425 0.45022 0.31123 0.0
H120 H 0.95243 0.43962 0.29834 0.0
H121 H 0.9242 0.36371 0.29943 0.0
H122 H 0.95347 0.40267 0.2765 0.0
H123 H 0.24038 0.54222 0.29792 0.0
H124 H 0.19226 0.575 0.29929 0.0
H125 H 0.19822 0.54536 0.27627 0.0
H126 H 0.91695 0.25592 0.15237 0.0
H127 H 0.92065 0.31713 0.17451 0.0
H128 H 0.11724 0.39008 0.16356 0.0
H129 H 0.9278 0.41159 0.20841 0.0
H130 H 0.87806 0.36897 0.18817 0.0
H131 H 0.924 0.4458 0.18595 0.0
H132 H 0.19103 0.48494 0.17254 0.0
H133 H 0.17036 0.50544 0.19546 0.0
H134 H 0.16055 0.53339 0.17233 0.0
H135 H 0.16949 0.82963 0.14346 0.0
H136 H 0.20443 0.91917 0.16367 0.0
H137 H 0.18028 0.85684 0.17888 0.0
H138 H 0.12894 0.88548 0.17561 0.0
H139 H 0.9772 0.69894 0.16393 0.0
H140 H 0.17714 0.77307 0.16575 0.0
H141 H 0.94097 0.59412 0.1991 0.0
H142 H 0.93961 0.55828 0.17667 0.0
H143 H 0.90905 0.60668 0.17657 0.0
H144 H 0.22661 0.72578 0.17896 0.0
H145 H 0.18052 0.64869 0.17878 0.0
H146 H 0.18695 0.68713 0.20107 0.0
H147 H 0.06596 0.55781 0.3067 0.0
H148 H 0.069 0.43191 0.25706 0.0
H149 H 0.0602 0.42659 0.2216 0.0
H150 H 0.05053 0.54585 0.16985 0.0
H151 H 0.06135 0.67817 0.21935 0.0
H152 H 0.06164 0.67957 0.25491 0.0
H153 H 0.97275 0.20587 0.18247 0.0
H154 H 0.89228 0.1701 0.17374 0.0
H155 H 0.92335 0.23517 0.18777 0.0
C156 C 0.37216 0.96953 0.72154 0.0
C157 C 0.36965 0.99763 0.70199 0.0
C158 C 0.39768 0.9807 0.66877 0.0
C159 C 0.42571 0.03743 0.66187 0.0
C160 C 0.46013 0.05365 0.64418 0.0
C161 C 0.46556 0.01218 0.63306 0.0
C162 C 0.43488 0.9546 0.63951 0.0
C163 C 0.40125 0.93969 0.65728 0.0
C164 C 0.49143 0.11516 0.63748 0.0
C165 C 0.43881 0.90901 0.62786 0.0
C166 C 0.94814 0.11936 0.59344 0.0
C167 C 0.89157 0.08817 0.60703 0.0
C168 C 0.80187 0.10384 0.60909 0.0
C169 C 0.75542 0.04638 0.61186 0.0
C170 C 0.69166 0.02944 0.61006 0.0
C171 C 0.67413 0.07093 0.60582 0.0
C172 C 0.72072 0.12921 0.60423 0.0
C173 C 0.78404 0.14483 0.60587 0.0
C174 C 0.64306 0.96709 0.61224 0.0
C175 C 0.70368 0.17483 0.60029 0.0
C176 C 0.62041 0.01678 0.47703 0.0
C177 C 0.56961 0.96622 0.48439 0.0
C178 C 0.53121 0.96811 0.49917 0.0
C179 C 0.54254 0.02168 0.50624 0.0
C180 C 0.58991 0.07263 0.49751 0.0
C181 C 0.62857 0.06946 0.48306 0.0
C182 C 0.48 0.91281 0.50777 0.0
C183 C 0.60144 0.1304 0.50407 0.0
C184 C 0.08036 0.98444 0.52989 0.0
C185 C 0.1437 0.008 0.51975 0.0
C186 C 0.22447 0.98101 0.52509 0.0
C187 C 0.23393 0.93576 0.53033 0.0
C188 C 0.29426 0.94462 0.53395 0.0
C189 C 0.34636 1.00056 0.53262 0.0
C190 C 0.33739 0.04645 0.52686 0.0
C191 C 0.2766 0.03612 0.52287 0.0
C192 C 0.30226 0.89426 0.53928 0.0
C193 C 0.39209 0.10648 0.52496 0.0
C194 C 0.50591 0.02895 0.61526 0.0
C195 C 0.5686 0.04402 0.61809 0.0
C196 C 0.60749 0.05328 0.60192 0.0
C197 C 0.58301 0.04599 0.58236 0.0
C198 C 0.61936 0.05039 0.56581 0.0
C199 C 0.59472 0.04255 0.54664 0.0
C200 C 0.53333 0.03169 0.54321 0.0
C201 C 0.50797 0.02401 0.52375 0.0
C202 C 0.44738 0.01457 0.52084 0.0
C203 C 0.41038 0.01103 0.53694 0.0
C204 C 0.43406 0.01659 0.55657 0.0
C205 C 0.39736 0.01116 0.57318 0.0
C206 C 0.4205 0.01465 0.59243 0.0
C207 C 0.48196 0.02576 0.5958 0.0
C208 C 0.52044 0.03339 0.57929 0.0
C209 C 0.49602 0.02751 0.55967 0.0
C210 C 0.69638 0.95674 0.48173 0.0
C211 C 0.67591 0.97229 0.46204 0.0
O212 O 0.36707 0.96347 0.68634 0.0
O213 O 0.16452 0.96931 0.52234 0.0
O214 O 0.66361 0.01663 0.46471 0.0
O215 O 0.86409 0.12165 0.60932 0.0
H216 H 0.41363 0.03978 0.70157 0.0
H217 H 0.41488 0.9656 0.72203 0.0
H218 H 0.33058 0.9261 0.72298 0.0
H219 H 0.37396 0.996 0.73436 0.0
H220 H 0.42111 0.06924 0.67016 0.0
H221 H 0.37862 0.8959 0.66255 0.0
H222 H 0.54293 0.13317 0.63717 0.0
H223 H 0.48096 0.14197 0.64737 0.0
H224 H 0.47584 0.11758 0.62213 0.0
H225 H 0.41058 0.86587 0.63455 0.0
H226 H 0.48833 0.91936 0.62715 0.0
H227 H 0.42213 0.90792 0.61237 0.0
H228 H 0.85898 0.04744 0.59932 0.0
H229 H 0.97135 0.09353 0.59149 0.0
H230 H 0.98267 0.16177 0.59966 0.0
H231 H 0.9326 0.12606 0.57859 0.0
H232 H 0.76848 0.01454 0.6153 0.0
H233 H 0.82015 0.18917 0.60415 0.0
H234 H 0.61247 0.96161 0.625 0.0
H235 H 0.66436 0.93974 0.6147 0.0
H236 H 0.61287 0.95205 0.59871 0.0
H237 H 0.74475 0.2186 0.60173 0.0
H238 H 0.66703 0.17019 0.61077 0.0
H239 H 0.6841 0.16969 0.585 0.0
H240 H 0.63312 0.93424 0.45613 0.0
H241 H 0.56093 0.92512 0.47914 0.0
H242 H 0.66693 0.10828 0.47695 0.0
H243 H 0.48667 0.91213 0.5241 0.0
H244 H 0.47885 0.87471 0.5012 0.0
H245 H 0.43389 0.90968 0.50507 0.0
H246 H 0.63317 0.16504 0.49383 0.0
H247 H 0.62307 0.13996 0.51914 0.0
H248 H 0.55646 0.13031 0.50494 0.0
H249 H 0.1757 0.04909 0.52734 0.0
H250 H 0.0625 0.01471 0.5281 0.0
H251 H 0.08559 0.97869 0.54603 0.0
H252 H 0.04551 0.94239 0.52349 0.0
H253 H 0.19356 0.89326 0.53169 0.0
H254 H 0.2705 0.07129 0.51803 0.0
H255 H 0.31879 0.89831 0.55492 0.0
H256 H 0.33826 0.89367 0.52972 0.0
H257 H 0.25787 0.85289 0.53763 0.0
H258 H 0.37695 0.13823 0.52189 0.0
H259 H 0.42255 0.10818 0.51267 0.0
H260 H 0.42074 0.11889 0.53884 0.0
H261 H 0.58706 0.04759 0.63306 0.0
H262 H 0.66706 0.0591 0.56749 0.0
H263 H 0.62472 0.04559 0.53456 0.0
H264 H 0.42835 0.00888 0.50586 0.0
H265 H 0.34998 0.00324 0.57148 0.0
H266 H 0.38989 0.00919 0.60466 0.0
H267 H 0.71016 0.92396 0.47916 0.0
H268 H 0.6579 0.93857 0.49263 0.0
H269 H 0.73681 0.9952 0.48843 0.0
C270 C 0.85138 0.77992 0.81749 0.0
C271 C 0.80715 0.76109 0.79934 0.0
C272 C 0.70241 0.71856 0.81418 0.0
C273 C 0.65134 0.72627 0.81765 0.0
C274 C 0.59947 0.68604 0.82854 0.0
C275 C 0.59877 0.63679 0.83614 0.0
C276 C 0.6497 0.62812 0.83245 0.0
C277 C 0.70093 0.66897 0.82157 0.0
C278 C 0.54585 0.69648 0.8322 0.0
C279 C 0.65034 0.57585 0.84026 0.0
C280 C 0.13357 0.30123 0.8213 0.0
C281 C 0.18227 0.31685 0.80493 0.0
C282 C 0.28663 0.36655 0.82098 0.0
C283 C 0.34008 0.36275 0.82515 0.0
C284 C 0.39335 0.40826 0.83405 0.0
C285 C 0.39279 0.4587 0.83909 0.0
C286 C 0.33915 0.4632 0.83477 0.0
C287 C 0.28658 0.41713 0.82577 0.0
C288 C 0.44982 0.40208 0.83844 0.0
C289 C 0.33698 0.51636 0.84005 0.0
C290 C 0.34365 0.36355 0.97009 0.0
C291 C 0.39724 0.36736 0.96148 0.0
C292 C 0.43696 0.41445 0.94967 0.0
C293 C 0.42289 0.45861 0.94641 0.0
C294 C 0.36951 0.45531 0.95523 0.0
C295 C 0.33064 0.40778 0.96701 0.0
C296 C 0.49406 0.41707 0.94066 0.0
C297 C 0.35343 0.50184 0.95209 0.0
C298 C 0.7597 0.88103 0.96652 0.0
C299 C 0.73997 0.8389 0.98398 0.0
C300 C 0.69423 0.74572 0.96702 0.0
C301 C 0.70466 0.70112 0.962 0.0
C302 C 0.661 0.65475 0.95052 0.0
C303 C 0.60542 0.65306 0.94397 0.0
C304 C 0.59447 0.69805 0.94893 0.0
C305 C 0.63896 0.74397 0.96039 0.0
C306 C 0.67401 0.60739 0.9455 0.0
C307 C 0.53535 0.69723 0.94226 0.0
C308 C 0.546 0.59496 0.84853 0.0
C309 C 0.49473 0.54931 0.83903 0.0
C310 C 0.44668 0.50542 0.84999 0.0
C311 C 0.45027 0.50623 0.87099 0.0
C312 C 0.40446 0.46129 0.88244 0.0
C313 C 0.40923 0.46178 0.90307 0.0
C314 C 0.45916 0.50786 0.91306 0.0
C315 C 0.46483 0.50854 0.934 0.0
C316 C 0.51304 0.5563 0.94353 0.0
C317 C 0.5573 0.60311 0.93268 0.0
C318 C 0.55463 0.60193 0.91167 0.0
C319 C 0.60048 0.64685 0.90027 0.0
C320 C 0.59793 0.64463 0.87959 0.0
C321 C 0.54863 0.59802 0.86954 0.0
C322 C 0.50111 0.55299 0.88077 0.0
C323 C 0.50486 0.55435 0.90185 0.0
C324 C 0.27882 0.23013 0.9655 0.0
C325 C 0.30242 0.26707 0.98431 0.0
O326 O 0.75186 0.75998 0.8039 0.0
O327 O 0.73868 0.78917 0.97821 0.0
O328 O 0.30312 0.31824 0.98132 0.0
O329 O 0.23636 0.32022 0.81268 0.0
H330 H 0.79679 0.71761 0.79494 0.0
H331 H 0.8306 0.74834 0.82972 0.0
H332 H 0.86046 0.82195 0.82312 0.0
H333 H 0.89664 0.78317 0.81353 0.0
H334 H 0.65253 0.76439 0.81191 0.0
H335 H 0.73958 0.66171 0.81913 0.0
H336 H 0.50166 0.66013 0.8263 0.0
H337 H 0.55315 0.73664 0.82515 0.0
H338 H 0.54005 0.69883 0.84844 0.0
H339 H 0.69203 0.5739 0.83533 0.0
H340 H 0.60752 0.53657 0.83517 0.0
H341 H 0.65005 0.57594 0.85675 0.0
H342 H 0.19267 0.35888 0.79864 0.0
H343 H 0.0883 0.29327 0.81477 0.0
H344 H 0.14978 0.3369 0.83207 0.0
H345 H 0.12603 0.26274 0.82965 0.0
H346 H 0.33981 0.32366 0.82144 0.0
H347 H 0.24559 0.42089 0.82289 0.0
H348 H 0.45837 0.40427 0.85473 0.0
H349 H 0.49197 0.43798 0.83156 0.0
H350 H 0.4439 0.36108 0.83283 0.0
H351 H 0.29266 0.51413 0.83511 0.0
H352 H 0.3769 0.55436 0.83314 0.0
H353 H 0.34185 0.52266 0.8564 0.0
H354 H 0.35039 0.27581 0.9882 0.0
H355 H 0.40855 0.33392 0.96382 0.0
H356 H 0.28939 0.40464 0.97376 0.0
H357 H 0.49061 0.41777 0.9242 0.0
H358 H 0.49959 0.38014 0.9451 0.0
H359 H 0.53676 0.45713 0.94528 0.0
H360 H 0.30911 0.49204 0.95947 0.0
H361 H 0.34893 0.50795 0.93594 0.0
H362 H 0.39189 0.54283 0.95806 0.0
H363 H 0.69286 0.82869 0.98918 0.0
H364 H 0.76089 0.92098 0.97111 0.0
H365 H 0.72603 0.86235 0.95393 0.0
H366 H 0.80686 0.8918 0.96123 0.0
H367 H 0.74735 0.70278 0.96716 0.0
H368 H 0.62987 0.77797 0.9641 0.0
H369 H 0.67092 0.60084 0.92916 0.0
H370 H 0.63795 0.56683 0.95236 0.0
H371 H 0.72095 0.61653 0.95082 0.0
H372 H 0.53366 0.73543 0.94737 0.0
H373 H 0.49388 0.65832 0.94808 0.0
H374 H 0.53186 0.69537 0.92579 0.0
H375 H 0.49266 0.54748 0.82292 0.0
H376 H 0.36479 0.42479 0.87559 0.0
H377 H 0.37302 0.42575 0.9111 0.0
H378 H 0.51642 0.55689 0.95964 0.0
H379 H 0.63932 0.68385 0.90722 0.0
H380 H 0.63487 0.68014 0.87158 0.0
H381 H 0.23098 0.22127 0.9614 0.0
H382 H 0.27762 0.18887 0.96795 0.0
H383 H 0.3102 0.25205 0.95281 0.0
C384 C 0.0119 0.16157 0.12737 0.0
C385 C 0.97774 0.15132 0.10952 0.0
H386 H 0.03309 0.20129 0.15606 0.0
C387 C 0.93631 0.1725 0.10732 0.0
H388 H 0.04477 0.14639 0.12938 0.0
C389 C 0.9288 0.20294 0.12267 0.0
C390 C 0.96298 0.21346 0.14054 0.0
H391 H 0.90943 0.16542 0.09372 0.0
H392 H 0.89631 0.2185 0.12052 0.0
C393 C 0.0052 0.19297 0.14263 0.0
C394 C 0.83427 0.05865 0.43714 0.0
C395 C 0.83725 0.01626 0.426 0.0
H396 H 0.78116 0.07809 0.45727 0.0
C397 C 0.78369 0.96168 0.42461 0.0
H398 H 0.87467 0.10111 0.43857 0.0
C399 C 0.72983 0.94874 0.43519 0.0
C400 C 0.72825 0.99011 0.4473 0.0
H401 H 0.78434 0.92806 0.41615 0.0
H402 H 0.6905 0.90546 0.43477 0.0
C403 C 0.78056 0.04559 0.4478 0.0
C404 C 0.89202 0.89712 0.7678 0.0
C405 C 0.90626 0.87654 0.75068 0.0
H406 H 0.84802 0.87667 0.79632 0.0
C407 C 0.88453 0.81769 0.74911 0.0
H408 H 0.9077 0.94219 0.76937 0.0
C409 C 0.85139 0.78053 0.76461 0.0
C410 C 0.83847 0.80113 0.78197 0.0
H411 H 0.8946 0.80041 0.73612 0.0
H412 H 0.83687 0.73567 0.76314 0.0
C413 C 0.85792 0.85968 0.78321 0.0
C414 C 0.13226 0.90985 0.10044 0.0
C415 C 0.09149 0.93065 0.10441 0.0
H416 H 0.17793 0.86551 0.11154 0.0
C417 C 0.0636 0.92051 0.12319 0.0
H418 H 0.15441 0.91687 0.0861 0.0
C419 C 0.07626 0.89009 0.13769 0.0
C420 C 0.11821 0.87038 0.13385 0.0
H421 H 0.03143 0.93547 0.12659 0.0
H422 H 0.05358 0.88229 0.15195 0.0
C423 C 0.14573 0.88037 0.11501 0.0
C424 C 0.0937 0.978 0.46527 0.0
C425 C 0.10607 0.03203 0.45851 0.0
H426 H 0.09595 0.92815 0.48983 0.0
C427 C 0.13769 0.07929 0.47128 0.0
H428 H 0.0695 0.94066 0.45585 0.0
C429 C 0.15275 0.07195 0.49079 0.0
C430 C 0.13713 0.0174 0.49784 0.0
H431 H 0.1478 0.12147 0.46659 0.0
H432 H 0.17423 0.10854 0.50063 0.0
C433 C 0.10888 0.97074 0.48474 0.0
C434 C 0.11182 0.17546 0.77625 0.0
C435 C 0.1209 0.19471 0.75648 0.0
H436 H 0.1256 0.1985 0.807 0.0
C437 C 0.14822 0.25356 0.7527 0.0
H438 H 0.09173 0.1304 0.77959 0.0
C439 C 0.16635 0.29245 0.76836 0.0
C440 C 0.1579 0.27351 0.78818 0.0
H441 H 0.15606 0.26971 0.73761 0.0
H442 H 0.18797 0.33761 0.76495 0.0
C443 C 0.13102 0.21452 0.79195 0.0
C444 C 0.92153 0.01138 0.64996 0.0
C445 C 0.959 0.05692 0.66286 0.0
H446 H 0.87115 0.98569 0.62224 0.0
C447 C 0.97088 0.11212 0.65793 0.0
H448 H 0.91156 0.96836 0.65329 0.0
C449 C 0.94736 0.12183 0.64025 0.0
C450 C 0.91165 0.07663 0.62706 0.0
H451 H 0.99934 0.14814 0.66755 0.0
H452 H 0.95835 0.16497 0.63662 0.0
C453 C 0.89838 0.02122 0.63218 0.0
C454 C 0.82243 0.93122 0.02931 0.0
C455 C 0.87777 0.92841 0.03043 0.0
H456 H 0.73561 0.9047 0.01387 0.0
C457 C 0.88582 0.89289 0.01709 0.0
H458 H 0.81488 0.95835 0.03932 0.0
C459 C 0.84075 0.8627 0.00242 0.0
C460 C 0.78588 0.8663 0.00107 0.0
H461 H 0.92818 0.8902 0.0174 0.0
H462 H 0.84964 0.83769 0.99183 0.0
C463 C 0.777 0.90048 0.01478 0.0
C464 C 0.93496 0.82694 0.36578 0.0
C465 C 0.97953 0.88545 0.36469 0.0
H466 H 0.89573 0.74465 0.35219 0.0
C467 C 0.02124 0.90543 0.34868 0.0
H468 H 0.90215 0.81013 0.37792 0.0
C469 C 0.01816 0.86751 0.33403 0.0
C470 C 0.97254 0.80911 0.33491 0.0
H471 H 0.05645 0.95022 0.34755 0.0
H472 H 0.05098 0.88388 0.32189 0.0
C473 C 0.9313 0.78933 0.35103 0.0
C474 C 0.26649 0.0653 0.70566 0.0
C475 C 0.20599 0.01752 0.70371 0.0
H476 H 0.36528 0.09633 0.70665 0.0
C477 C 0.19964 0.96362 0.70019 0.0
H478 H 0.27311 0.10742 0.70841 0.0
C479 C 0.25247 0.95748 0.69907 0.0
C480 C 0.31282 0.00506 0.70145 0.0
H481 H 0.1538 0.92593 0.69859 0.0
H482 H 0.2462 0.9153 0.69674 0.0
C483 C 0.31932 0.05905 0.70463 0.0
C484 C 0.16302 0.20319 0.01942 0.0
C485 C 0.17335 0.16415 0.03042 0.0
H486 H 0.19469 0.26545 0.99613 0.0
C487 C 0.22822 0.16189 0.02713 0.0
H488 H 0.12094 0.20565 0.02144 0.0
C489 C 0.27096 0.19684 0.01278 0.0
C490 C 0.25979 0.23475 0.00141 0.0
H491 H 0.23745 0.13215 0.0353 0.0
H492 H 0.312 0.19312 0.01014 0.0
C493 C 0.20538 0.23762 0.00493 0.0
C494 C 0.08413 0.19785 0.35198 0.0
C495 C 0.10281 0.21245 0.37189 0.0
H496 H 0.08413 0.228 0.32245 0.0
C497 C 0.13985 0.27043 0.37699 0.0
H498 H 0.0548 0.15355 0.34766 0.0
C499 C 0.15761 0.31299 0.36251 0.0
C500 C 0.13822 0.2986 0.34262 0.0
H501 H 0.15476 0.28302 0.39224 0.0
H502 H 0.18585 0.35731 0.36695 0.0
C503 C 0.10095 0.24049 0.33754 0.0
loop_
_geom_bond_atom_site_label_1
_geom_bond_atom_site_label_2
_geom_bond_distance
_geom_bond_site_symmetry_2
_ccdc_geom_bond_type
O0 Cd1 2.223 1_455 S
O0 C8 1.315 . S
Cd1 O0 2.223 1_655 S
Cd1 O4 2.297 . S
Cd1 O5 2.439 1_655 S
Cd1 O11 2.240 1_545 S
Cd2 O3 2.240 1_565 S
Cd2 O10 2.223 . S
Cd2 O12 2.297 . S
Cd2 O13 2.439 . S
O3 Cd2 2.240 1_545 S
O3 C8 1.279 . S
O4 Cd1 2.297 . S
O4 C6 1.247 1_655 S
O5 Cd1 2.439 1_455 S
O5 C6 1.208 . S
C6 O4 1.247 1_455 S
C6 O5 1.208 . S
C7 O12 1.247 . S
C7 O13 1.208 . S
C8 O0 1.315 . S
C8 O3 1.279 . S
C9 O10 1.315 1_655 S
C9 O11 1.279 . S
O10 Cd2 2.223 . S
O10 C9 1.315 1_455 S
O11 Cd1 2.240 1_565 S
O11 C9 1.279 . S
O12 Cd2 2.297 . S
O12 C7 1.247 . S
O13 Cd2 2.439 . S
O13 C7 1.208 . S
O14 Cd15 2.223 . S
O14 C22 1.315 1_455 S
Cd15 O14 2.223 . S
Cd15 O18 2.297 . S
Cd15 O19 2.439 . S
Cd15 O25 2.240 . S
Cd16 O17 2.240 1_565 S
Cd16 O24 2.223 1_655 S
Cd16 O26 2.297 1_655 S
Cd16 O27 2.439 1_655 S
O17 Cd16 2.240 1_545 S
O17 C22 1.279 . S
O18 Cd15 2.297 . S
O18 C20 1.247 . S
O19 Cd15 2.439 . S
O19 C20 1.208 . S
C20 O18 1.247 . S
C20 O19 1.208 . S
C21 O26 1.247 . S
C21 O27 1.208 . S
C22 O14 1.315 1_655 S
C22 O17 1.279 . S
C23 O24 1.315 1_545 S
C23 O25 1.279 . S
O24 Cd16 2.223 1_455 S
O24 C23 1.315 1_565 S
O25 Cd15 2.240 . S
O25 C23 1.279 . S
O26 Cd16 2.297 1_455 S
O26 C21 1.247 . S
O27 Cd16 2.439 1_455 S
O27 C21 1.208 . S
O28 Cd29 2.223 . S
O28 C36 1.315 1_565 S
Cd29 O28 2.223 . S
Cd29 O32 2.297 . S
Cd29 O33 2.439 . S
Cd29 O39 2.240 1_665 S
Cd30 O31 2.240 1_455 S
Cd30 O38 2.223 . S
Cd30 O40 2.297 . S
Cd30 O41 2.439 . S
O31 Cd30 2.240 1_655 S
O31 C36 1.279 . S
O32 Cd29 2.297 . S
O32 C34 1.247 . S
O33 Cd29 2.439 . S
O33 C34 1.208 . S
C34 O32 1.247 . S
C34 O33 1.208 . S
C35 O40 1.247 . S
C35 O41 1.208 . S
C36 O28 1.315 1_545 S
C36 O31 1.279 . S
C37 O38 1.315 . S
C37 O39 1.279 . S
O38 Cd30 2.223 . S
O38 C37 1.315 . S
O39 Cd29 2.240 1_445 S
O39 C37 1.279 . S
O40 Cd30 2.297 . S
O40 C35 1.247 . S
O41 Cd30 2.439 . S
O41 C35 1.208 . S
C42 C43 1.560 . S
C42 H103 0.959 . S
C42 H104 0.959 . S
C42 H105 0.960 . S
C43 C42 1.560 . S
C43 O98 1.426 . S
C43 H102 0.980 1_655 S
C44 C45 1.407 1_655 S
C44 C49 1.418 . S
C44 O98 1.334 . S
C45 C44 1.407 1_455 S
C45 C46 1.360 . S
C45 H106 0.929 . S
C46 C45 1.360 . S
C46 C47 1.401 . S
C46 C50 1.527 . S
C47 C46 1.401 . S
C47 C48 1.405 1_455 S
C47 C80 1.587 . S
C48 C47 1.405 1_655 S
C48 C49 1.332 . S
C48 C51 1.496 . S
C49 C44 1.418 . S
C49 C48 1.332 . S
C49 H107 0.929 . S
C50 C46 1.527 . S
C50 H108 0.959 . S
C50 H109 0.961 . S
C50 H110 0.961 . S
C51 C48 1.496 . S
C51 H111 0.960 . S
C51 H112 0.960 . S
C51 H113 0.961 . S
C52 C53 1.517 . S
C52 H115 0.961 . S
C52 H116 0.960 . S
C52 H117 0.959 . S
C53 C52 1.517 . S
C53 O101 1.468 . S
C53 H114 0.980 . S
C54 C55 1.349 . S
C54 C59 1.367 . S
C54 O101 1.408 . S
C55 C54 1.349 . S
C55 C56 1.407 . S
C55 H118 0.930 . S
C56 C55 1.407 . S
C56 C57 1.449 . S
C56 C60 1.535 1_455 S
C57 C56 1.449 . S
C57 C58 1.384 . S
C57 C82 1.553 . S
C58 C57 1.384 . S
C58 C59 1.364 . S
C58 C61 1.450 . S
C59 C54 1.367 . S
C59 C58 1.364 . S
C59 H119 0.931 . S
C60 C56 1.535 1_655 S
C60 H120 0.959 . S
C60 H121 0.961 . S
C60 H122 0.959 . S
C61 C58 1.450 . S
C61 H123 0.960 . S
C61 H124 0.960 . S
C61 H125 0.960 . S
C62 C63 1.309 . S
C62 C67 1.304 . S
C62 O100 1.435 . S
C63 C62 1.309 . S
C63 C64 1.476 . S
C63 H127 0.930 1_455 S
C64 C63 1.476 . S
C64 C65 1.400 . S
C64 C68 1.567 1_455 S
C65 C64 1.400 . S
C65 C66 1.373 . S
C65 C87 1.432 . S
C66 C65 1.373 . S
C66 C67 1.339 . S
C66 C69 1.530 . S
C67 C62 1.304 . S
C67 C66 1.339 . S
C67 H128 0.930 . S
C68 C64 1.567 1_655 S
C68 H129 0.961 . S
C68 H130 0.960 . S
C68 H131 0.958 . S
C69 C66 1.530 . S
C69 H132 0.961 . S
C69 H133 0.960 . S
C69 H134 0.960 . S
C70 C71 1.530 1_655 S
C70 H136 0.961 . S
C70 H137 0.961 . S
C70 H138 0.959 . S
C71 C70 1.530 1_455 S
C71 O99 1.412 1_455 S
C71 H135 0.980 . S
C72 C73 1.288 . S
C72 C77 1.377 1_655 S
C72 O99 1.393 . S
C73 C72 1.288 . S
C73 C74 1.369 . S
C73 H139 0.932 . S
C74 C73 1.369 . S
C74 C75 1.398 1_655 S
C74 C78 1.527 . S
C75 C74 1.398 1_455 S
C75 C76 1.380 . S
C75 C89 1.497 . S
C76 C75 1.380 . S
C76 C77 1.383 . S
C76 C79 1.603 . S
C77 C72 1.377 1_455 S
C77 C76 1.383 . S
C77 H140 0.929 . S
C78 C74 1.527 . S
C78 H141 0.961 . S
C78 H142 0.959 . S
C78 H143 0.959 . S
C79 C76 1.603 . S
C79 H144 0.960 . S
C79 H145 0.962 . S
C79 H146 0.961 . S
C80 C47 1.587 . S
C80 C81 1.360 . S
C80 C93 1.412 . S
C81 C80 1.360 . S
C81 C82 1.365 . S
C81 H147 0.929 . S
C82 C57 1.553 . S
C82 C81 1.365 . S
C82 C83 1.404 . S
C83 C82 1.404 . S
C83 C84 1.395 . S
C83 C94 1.451 . S
C84 C83 1.395 . S
C84 C85 1.322 . S
C84 H148 0.930 . S
C85 C84 1.322 . S
C85 C86 1.459 . S
C85 H149 0.929 . S
C86 C85 1.459 . S
C86 C87 1.445 . S
C86 C95 1.395 . S
C87 C65 1.432 . S
C87 C86 1.445 . S
C87 C88 1.370 . S
C88 C87 1.370 . S
C88 C89 1.438 . S
C88 H150 0.930 . S
C89 C75 1.497 . S
C89 C88 1.438 . S
C89 C90 1.360 . S
C90 C89 1.360 . S
C90 C91 1.401 . S
C90 C95 1.446 . S
C91 C90 1.401 . S
C91 C92 1.347 . S
C91 H151 0.929 . S
C92 C91 1.347 . S
C92 C93 1.455 . S
C92 H152 0.930 . S
C93 C80 1.412 . S
C93 C92 1.455 . S
C93 C94 1.331 . S
C94 C83 1.451 . S
C94 C93 1.331 . S
C94 C95 1.497 . S
C95 C86 1.395 . S
C95 C90 1.446 . S
C95 C94 1.497 . S
C96 C97 1.582 . S
C96 H153 0.962 . S
C96 H154 0.959 . S
C96 H155 0.958 . S
C97 C96 1.582 . S
C97 O100 1.458 . S
C97 H126 0.980 . S
O98 C43 1.426 . S
O98 C44 1.334 . S
O99 C71 1.412 1_655 S
O99 C72 1.393 . S
O100 C62 1.435 . S
O100 C97 1.458 . S
O101 C53 1.468 . S
O101 C54 1.408 . S
H102 C43 0.980 1_455 S
H103 C42 0.959 . S
H104 C42 0.959 . S
H105 C42 0.960 . S
H106 C45 0.929 . S
H107 C49 0.929 . S
H108 C50 0.959 . S
H109 C50 0.961 . S
H110 C50 0.961 . S
H111 C51 0.960 . S
H112 C51 0.960 . S
H113 C51 0.961 . S
H114 C53 0.980 . S
H115 C52 0.961 . S
H116 C52 0.960 . S
H117 C52 0.959 . S
H118 C55 0.930 . S
H119 C59 0.931 . S
H120 C60 0.959 . S
H121 C60 0.961 . S
H122 C60 0.959 . S
H123 C61 0.960 . S
H124 C61 0.960 . S
H125 C61 0.960 . S
H126 C97 0.980 . S
H127 C63 0.930 1_655 S
H128 C67 0.930 . S
H129 C68 0.961 . S
H130 C68 0.960 . S
H131 C68 0.958 . S
H132 C69 0.961 . S
H133 C69 0.960 . S
H134 C69 0.960 . S
H135 C71 0.980 . S
H136 C70 0.961 . S
H137 C70 0.961 . S
H138 C70 0.959 . S
H139 C73 0.932 . S
H140 C77 0.929 . S
H141 C78 0.961 . S
H142 C78 0.959 . S
H143 C78 0.959 . S
H144 C79 0.960 . S
H145 C79 0.962 . S
H146 C79 0.961 . S
H147 C81 0.929 . S
H148 C84 0.930 . S
H149 C85 0.929 . S
H150 C88 0.930 . S
H151 C91 0.929 . S
H152 C92 0.930 . S
H153 C96 0.962 . S
H154 C96 0.959 . S
H155 C96 0.958 . S
C156 C157 1.560 1_565 S
C156 H217 0.959 . S
C156 H218 0.959 . S
C156 H219 0.960 . S
C157 C156 1.560 1_545 S
C157 O212 1.426 1_545 S
C157 H216 0.980 . S
C158 C159 1.407 . S
C158 C163 1.418 1_545 S
C158 O212 1.334 1_545 S
C159 C158 1.407 . S
C159 C160 1.360 . S
C159 H220 0.929 . S
C160 C159 1.360 . S
C160 C161 1.401 . S
C160 C164 1.527 . S
C161 C160 1.401 . S
C161 C162 1.405 1_545 S
C161 C194 1.587 . S
C162 C161 1.405 1_565 S
C162 C163 1.332 . S
C162 C165 1.496 . S
C163 C158 1.418 1_565 S
C163 C162 1.332 . S
C163 H221 0.929 . S
C164 C160 1.527 . S
C164 H222 0.959 . S
C164 H223 0.961 . S
C164 H224 0.961 . S
C165 C162 1.496 . S
C165 H225 0.960 . S
C165 H226 0.960 . S
C165 H227 0.961 . S
C166 C167 1.517 . S
C166 H229 0.961 . S
C166 H230 0.960 . S
C166 H231 0.959 . S
C167 C166 1.517 . S
C167 O215 1.468 . S
C167 H228 0.980 . S
C168 C169 1.349 . S
C168 C173 1.367 . S
C168 O215 1.408 . S
C169 C168 1.349 . S
C169 C170 1.407 . S
C169 H232 0.930 . S
C170 C169 1.407 . S
C170 C171 1.449 . S
C170 C174 1.535 1_545 S
C171 C170 1.449 . S
C171 C172 1.384 . S
C171 C196 1.553 . S
C172 C171 1.384 . S
C172 C173 1.364 . S
C172 C175 1.450 . S
C173 C168 1.367 . S
C173 C172 1.364 . S
C173 H233 0.931 . S
C174 C170 1.535 1_565 S
C174 H234 0.959 . S
C174 H235 0.961 . S
C174 H236 0.959 . S
C175 C172 1.450 . S
C175 H237 0.960 . S
C175 H238 0.960 . S
C175 H239 0.960 . S
C176 C177 1.309 . S
C176 C181 1.304 . S
C176 O214 1.435 . S
C177 C176 1.309 . S
C177 C178 1.476 . S
C177 H241 0.930 . S
C178 C177 1.476 . S
C178 C179 1.400 . S
C178 C182 1.567 1_545 S
C179 C178 1.400 . S
C179 C180 1.373 . S
C179 C201 1.432 . S
C180 C179 1.373 . S
C180 C181 1.339 . S
C180 C183 1.530 . S
C181 C176 1.304 . S
C181 C180 1.339 . S
C181 H242 0.930 . S
C182 C178 1.567 1_565 S
C182 H243 0.961 . S
C182 H244 0.960 . S
C182 H245 0.958 . S
C183 C180 1.530 . S
C183 H246 0.961 . S
C183 H247 0.960 . S
C183 H248 0.960 . S
C184 C185 1.530 1_565 S
C184 H250 0.961 1_565 S
C184 H251 0.961 . S
C184 H252 0.959 . S
C185 C184 1.530 1_545 S
C185 O213 1.412 1_545 S
C185 H249 0.980 . S
C186 C187 1.288 1_545 S
C186 C191 1.377 . S
C186 O213 1.393 1_545 S
C187 C186 1.288 1_565 S
C187 C188 1.369 . S
C187 H253 0.932 . S
C188 C187 1.369 . S
C188 C189 1.398 1_565 S
C188 C192 1.527 . S
C189 C188 1.398 1_545 S
C189 C190 1.380 . S
C189 C203 1.497 . S
C190 C189 1.380 . S
C190 C191 1.383 . S
C190 C193 1.603 . S
C191 C186 1.377 . S
C191 C190 1.383 . S
C191 H254 0.929 . S
C192 C188 1.527 . S
C192 H255 0.961 . S
C192 H256 0.959 . S
C192 H257 0.959 . S
C193 C190 1.603 . S
C193 H258 0.960 . S
C193 H259 0.962 . S
C193 H260 0.961 . S
C194 C161 1.587 . S
C194 C195 1.360 . S
C194 C207 1.412 . S
C195 C194 1.360 . S
C195 C196 1.365 . S
C195 H261 0.929 . S
C196 C171 1.553 . S
C196 C195 1.365 . S
C196 C197 1.404 . S
C197 C196 1.404 . S
C197 C198 1.395 . S
C197 C208 1.451 . S
C198 C197 1.395 . S
C198 C199 1.322 . S
C198 H262 0.930 . S
C199 C198 1.322 . S
C199 C200 1.459 . S
C199 H263 0.929 . S
C200 C199 1.459 . S
C200 C201 1.445 . S
C200 C209 1.395 . S
C201 C179 1.432 . S
C201 C200 1.445 . S
C201 C202 1.370 . S
C202 C201 1.370 . S
C202 C203 1.438 . S
C202 H264 0.930 . S
C203 C189 1.497 . S
C203 C202 1.438 . S
C203 C204 1.360 . S
C204 C203 1.360 . S
C204 C205 1.401 . S
C204 C209 1.446 . S
C205 C204 1.401 . S
C205 C206 1.347 . S
C205 H265 0.929 . S
C206 C205 1.347 . S
C206 C207 1.455 . S
C206 H266 0.930 . S
C207 C194 1.412 . S
C207 C206 1.455 . S
C207 C208 1.331 . S
C208 C197 1.451 . S
C208 C207 1.331 . S
C208 C209 1.497 . S
C209 C200 1.395 . S
C209 C204 1.446 . S
C209 C208 1.497 . S
C210 C211 1.582 . S
C210 H267 0.962 . S
C210 H268 0.959 . S
C210 H269 0.958 . S
C211 C210 1.582 . S
C211 O214 1.458 . S
C211 H240 0.980 . S
O212 C157 1.426 1_565 S
O212 C158 1.334 1_565 S
O213 C185 1.412 1_565 S
O213 C186 1.393 1_565 S
O214 C176 1.435 . S
O214 C211 1.458 . S
O215 C167 1.468 . S
O215 C168 1.408 . S
H216 C157 0.980 . S
H217 C156 0.959 . S
H218 C156 0.959 . S
H219 C156 0.960 . S
H220 C159 0.929 . S
H221 C163 0.929 . S
H222 C164 0.959 . S
H223 C164 0.961 . S
H224 C164 0.961 . S
H225 C165 0.960 . S
H226 C165 0.960 . S
H227 C165 0.961 . S
H228 C167 0.980 . S
H229 C166 0.961 . S
H230 C166 0.960 . S
H231 C166 0.959 . S
H232 C169 0.930 . S
H233 C173 0.931 . S
H234 C174 0.959 . S
H235 C174 0.961 . S
H236 C174 0.959 . S
H237 C175 0.960 . S
H238 C175 0.960 . S
H239 C175 0.960 . S
H240 C211 0.980 . S
H241 C177 0.930 . S
H242 C181 0.930 . S
H243 C182 0.961 . S
H244 C182 0.960 . S
H245 C182 0.958 . S
H246 C183 0.961 . S
H247 C183 0.960 . S
H248 C183 0.960 . S
H249 C185 0.980 . S
H250 C184 0.961 1_545 S
H251 C184 0.961 . S
H252 C184 0.959 . S
H253 C187 0.932 . S
H254 C191 0.929 . S
H255 C192 0.961 . S
H256 C192 0.959 . S
H257 C192 0.959 . S
H258 C193 0.960 . S
H259 C193 0.962 . S
H260 C193 0.961 . S
H261 C195 0.929 . S
H262 C198 0.930 . S
H263 C199 0.929 . S
H264 C202 0.930 . S
H265 C205 0.929 . S
H266 C206 0.930 . S
H267 C210 0.962 . S
H268 C210 0.959 . S
H269 C210 0.958 . S
C270 C271 1.560 . S
C270 H331 0.959 . S
C270 H332 0.959 . S
C270 H333 0.960 . S
C271 C270 1.560 . S
C271 O326 1.426 . S
C271 H330 0.980 . S
C272 C273 1.407 . S
C272 C277 1.418 . S
C272 O326 1.334 . S
C273 C272 1.407 . S
C273 C274 1.360 . S
C273 H334 0.929 . S
C274 C273 1.360 . S
C274 C275 1.401 . S
C274 C278 1.527 . S
C275 C274 1.401 . S
C275 C276 1.405 . S
C275 C308 1.587 . S
C276 C275 1.405 . S
C276 C277 1.332 . S
C276 C279 1.496 . S
C277 C272 1.418 . S
C277 C276 1.332 . S
C277 H335 0.929 . S
C278 C274 1.527 . S
C278 H336 0.959 . S
C278 H337 0.961 . S
C278 H338 0.961 . S
C279 C276 1.496 . S
C279 H339 0.960 . S
C279 H340 0.960 . S
C279 H341 0.961 . S
C280 C281 1.517 . S
C280 H343 0.961 . S
C280 H344 0.960 . S
C280 H345 0.959 . S
C281 C280 1.517 . S
C281 O329 1.468 . S
C281 H342 0.980 . S
C282 C283 1.349 . S
C282 C287 1.367 . S
C282 O329 1.408 . S
C283 C282 1.349 . S
C283 C284 1.407 . S
C283 H346 0.930 . S
C284 C283 1.407 . S
C284 C285 1.449 . S
C284 C288 1.535 . S
C285 C284 1.449 . S
C285 C286 1.384 . S
C285 C310 1.553 . S
C286 C285 1.384 . S
C286 C287 1.364 . S
C286 C289 1.450 . S
C287 C282 1.367 . S
C287 C286 1.364 . S
C287 H347 0.931 . S
C288 C284 1.535 . S
C288 H348 0.959 . S
C288 H349 0.961 . S
C288 H350 0.959 . S
C289 C286 1.450 . S
C289 H351 0.960 . S
C289 H352 0.960 . S
C289 H353 0.960 . S
C290 C291 1.309 . S
C290 C295 1.304 . S
C290 O328 1.435 . S
C291 C290 1.309 . S
C291 C292 1.476 . S
C291 H355 0.930 . S
C292 C291 1.476 . S
C292 C293 1.400 . S
C292 C296 1.567 . S
C293 C292 1.400 . S
C293 C294 1.373 . S
C293 C315 1.432 . S
C294 C293 1.373 . S
C294 C295 1.339 . S
C294 C297 1.530 . S
C295 C290 1.304 . S
C295 C294 1.339 . S
C295 H356 0.930 . S
C296 C292 1.567 . S
C296 H357 0.961 . S
C296 H358 0.960 . S
C296 H359 0.958 . S
C297 C294 1.530 . S
C297 H360 0.961 . S
C297 H361 0.960 . S
C297 H362 0.960 . S
C298 C299 1.530 . S
C298 H364 0.961 . S
C298 H365 0.961 . S
C298 H366 0.959 1_556 S
C299 C298 1.530 . S
C299 O327 1.412 . S
C299 H363 0.980 . S
C300 C301 1.288 . S
C300 C305 1.377 . S
C300 O327 1.393 . S
C301 C300 1.288 . S
C301 C302 1.369 . S
C301 H367 0.932 . S
C302 C301 1.369 . S
C302 C303 1.398 . S
C302 C306 1.527 . S
C303 C302 1.398 . S
C303 C304 1.380 . S
C303 C317 1.497 . S
C304 C303 1.380 . S
C304 C305 1.383 . S
C304 C307 1.603 . S
C305 C300 1.377 . S
C305 C304 1.383 . S
C305 H368 0.929 . S
C306 C302 1.527 . S
C306 H369 0.961 . S
C306 H370 0.959 . S
C306 H371 0.959 . S
C307 C304 1.603 . S
C307 H372 0.960 . S
C307 H373 0.962 . S
C307 H374 0.961 . S
C308 C275 1.587 . S
C308 C309 1.360 . S
C308 C321 1.412 . S
C309 C308 1.360 . S
C309 C310 1.365 . S
C309 H375 0.929 . S
C310 C285 1.553 . S
C310 C309 1.365 . S
C310 C311 1.404 . S
C311 C310 1.404 . S
C311 C312 1.395 . S
C311 C322 1.451 . S
C312 C311 1.395 . S
C312 C313 1.322 . S
C312 H376 0.930 . S
C313 C312 1.322 . S
C313 C314 1.459 . S
C313 H377 0.929 . S
C314 C313 1.459 . S
C314 C315 1.445 . S
C314 C323 1.395 . S
C315 C293 1.432 . S
C315 C314 1.445 . S
C315 C316 1.370 . S
C316 C315 1.370 . S
C316 C317 1.438 . S
C316 H378 0.930 . S
C317 C303 1.497 . S
C317 C316 1.438 . S
C317 C318 1.360 . S
C318 C317 1.360 . S
C318 C319 1.401 . S
C318 C323 1.446 . S
C319 C318 1.401 . S
C319 C320 1.347 . S
C319 H379 0.929 . S
C320 C319 1.347 . S
C320 C321 1.455 . S
C320 H380 0.930 . S
C321 C308 1.412 . S
C321 C320 1.455 . S
C321 C322 1.331 . S
C322 C311 1.451 . S
C322 C321 1.331 . S
C322 C323 1.497 . S
C323 C314 1.395 . S
C323 C318 1.446 . S
C323 C322 1.497 . S
C324 C325 1.582 . S
C324 H381 0.962 1_556 S
C324 H382 0.959 . S
C324 H383 0.974 . S
C325 C324 1.582 . S
C325 O328 1.458 . S
C325 H354 0.980 . S
O326 C271 1.426 . S
O326 C272 1.334 . S
O327 C299 1.412 . S
O327 C300 1.393 . S
O328 C290 1.435 . S
O328 C325 1.458 . S
O329 C281 1.468 . S
O329 C282 1.408 . S
H330 C271 0.980 . S
H331 C270 0.959 . S
H332 C270 0.959 . S
H333 C270 0.960 . S
H334 C273 0.929 . S
H335 C277 0.929 . S
H336 C278 0.959 . S
H337 C278 0.961 . S
H338 C278 0.961 . S
H339 C279 0.960 . S
H340 C279 0.960 . S
H341 C279 0.961 . S
H342 C281 0.980 . S
H343 C280 0.961 . S
H344 C280 0.960 . S
H345 C280 0.959 . S
H346 C283 0.930 . S
H347 C287 0.931 . S
H348 C288 0.959 . S
H349 C288 0.961 . S
H350 C288 0.959 . S
H351 C289 0.960 . S
H352 C289 0.960 . S
H353 C289 0.960 . S
H354 C325 0.980 . S
H355 C291 0.930 . S
H356 C295 0.930 . S
H357 C296 0.961 . S
H358 C296 0.960 . S
H359 C296 0.958 . S
H360 C297 0.961 . S
H361 C297 0.960 . S
H362 C297 0.960 . S
H363 C299 0.980 . S
H364 C298 0.961 . S
H365 C298 0.961 . S
H366 C298 0.959 1_554 S
H367 C301 0.932 . S
H368 C305 0.929 . S
H369 C306 0.961 . S
H370 C306 0.959 . S
H371 C306 0.959 . S
H372 C307 0.960 . S
H373 C307 0.962 . S
H374 C307 0.961 . S
H375 C309 0.929 . S
H376 C312 0.930 . S
H377 C313 0.929 . S
H378 C316 0.930 . S
H379 C319 0.929 . S
H380 C320 0.930 . S
H381 C324 0.962 1_554 S
H382 C324 0.959 . S
H383 C324 0.974 . S
C384 C385 1.387 . S
C384 H388 0.950 1_455 S
C384 C393 1.390 . S
C385 C384 1.387 . S
C385 C387 1.387 . S
H386 C393 0.950 1_655 S
C387 C385 1.387 . S
C387 C389 1.390 . S
C387 H391 0.950 . S
H388 C384 0.950 1_655 S
C389 C387 1.390 . S
C389 C390 1.387 . S
C389 H392 0.950 . S
C390 C389 1.387 . S
C390 C393 1.388 . S
H391 C387 0.950 . S
H392 C389 0.950 . S
C393 C384 1.390 . S
C393 H386 0.950 1_455 S
C393 C390 1.388 . S
C394 C395 1.387 . S
C394 H398 0.950 . S
C394 C403 1.390 . S
C395 C394 1.387 . S
C395 C397 1.387 1_545 S
H396 C403 0.950 . S
C397 C395 1.387 1_565 S
C397 C399 1.390 . S
C397 H401 0.950 . S
H398 C394 0.950 . S
C399 C397 1.390 . S
C399 C400 1.387 1_565 S
C399 H402 0.950 . S
C400 C399 1.387 1_545 S
C400 C403 1.387 . S
H401 C397 0.950 . S
H402 C399 0.950 . S
C403 C394 1.390 . S
C403 H396 0.950 . S
C403 C400 1.387 . S
C404 C405 1.387 . S
C404 H408 0.950 . S
C404 C413 1.390 . S
C405 C404 1.387 . S
C405 C407 1.387 . S
H406 C413 0.950 . S
C407 C405 1.387 . S
C407 C409 1.390 . S
C407 H411 0.950 . S
H408 C404 0.950 . S
C409 C407 1.390 . S
C409 C410 1.387 . S
C409 H412 0.950 . S
C410 C409 1.387 . S
C410 C413 1.387 . S
H411 C407 0.950 . S
H412 C409 0.950 . S
C413 C404 1.390 . S
C413 H406 0.950 . S
C413 C410 1.387 . S
C414 C415 1.387 . S
C414 H418 0.950 . S
C414 C423 1.390 . S
C415 C414 1.387 . S
C415 C417 1.387 . S
H416 C423 0.950 . S
C417 C415 1.387 . S
C417 C419 1.390 . S
C417 H421 0.950 . S
H418 C414 0.950 . S
C419 C417 1.390 . S
C419 C420 1.387 . S
C419 H422 0.950 . S
C420 C419 1.387 . S
C420 C423 1.387 . S
H421 C417 0.950 . S
H422 C419 0.950 . S
C423 C414 1.390 . S
C423 H416 0.950 . S
C423 C420 1.387 . S
C424 C425 1.387 1_565 S
C424 H428 0.950 . S
C424 C433 1.390 1_565 S
C425 C424 1.387 1_545 S
C425 C427 1.387 . S
H426 C433 0.950 1_565 S
C427 C425 1.387 . S
C427 C429 1.390 . S
C427 H431 0.950 . S
H428 C424 0.950 . S
C429 C427 1.390 . S
C429 C430 1.387 . S
C429 H432 0.950 . S
C430 C429 1.387 . S
C430 C433 1.387 . S
H431 C427 0.950 . S
H432 C429 0.950 . S
C433 C424 1.390 1_545 S
C433 H426 0.950 1_545 S
C433 C430 1.387 . S
C434 C435 1.387 . S
C434 H438 0.950 . S
C434 C443 1.390 . S
C435 C434 1.387 . S
C435 C437 1.387 . S
H436 C443 0.950 . S
C437 C435 1.387 . S
C437 C439 1.390 . S
C437 H441 0.950 . S
H438 C434 0.950 . S
C439 C437 1.390 . S
C439 C440 1.387 . S
C439 H442 0.950 . S
C440 C439 1.387 . S
C440 C443 1.387 . S
H441 C437 0.950 . S
H442 C439 0.950 . S
C443 C434 1.390 . S
C443 H436 0.950 . S
C443 C440 1.387 . S
C444 C445 1.387 . S
C444 H448 0.950 1_545 S
C444 C453 1.390 . S
C445 C444 1.387 . S
C445 C447 1.387 . S
H446 C453 0.957 . S
C447 C445 1.387 . S
C447 C449 1.390 . S
C447 H451 0.950 . S
H448 C444 0.950 1_565 S
C449 C447 1.390 . S
C449 C450 1.387 . S
C449 H452 0.950 . S
C450 C449 1.387 . S
C450 C453 1.387 . S
H451 C447 0.950 . S
H452 C449 0.950 . S
C453 C444 1.390 . S
C453 H446 0.957 . S
C453 C450 1.387 . S
C454 C455 1.387 . S
C454 H458 0.950 . S
C454 C463 1.390 . S
C455 C454 1.387 . S
C455 C457 1.387 . S
H456 C463 0.950 . S
C457 C455 1.387 . S
C457 C459 1.405 . S
C457 H461 0.950 . S
H458 C454 0.950 . S
C459 C457 1.405 . S
C459 C460 1.393 . S
C459 H462 0.930 1_554 S
C460 C459 1.393 . S
C460 C463 1.387 . S
H461 C457 0.950 . S
H462 C459 0.930 1_556 S
C463 C454 1.390 . S
C463 H456 0.950 . S
C463 C460 1.387 . S
C464 C465 1.387 . S
C464 H468 0.950 . S
C464 C473 1.390 . S
C465 C464 1.387 . S
C465 C467 1.387 . S
H466 C473 0.950 1_655 S
C467 C465 1.387 . S
C467 C469 1.390 . S
C467 H471 0.950 . S
H468 C464 0.950 . S
C469 C467 1.390 . S
C469 C470 1.387 . S
C469 H472 0.950 . S
C470 C469 1.387 . S
C470 C473 1.387 . S
H471 C467 0.950 . S
H472 C469 0.950 . S
C473 C464 1.390 . S
C473 H466 0.950 1_455 S
C473 C470 1.387 . S
C474 C475 1.387 . S
C474 H478 0.950 . S
C474 C483 1.390 . S
C475 C474 1.387 . S
C475 C477 1.387 1_545 S
H476 C483 0.950 . S
C477 C475 1.387 1_565 S
C477 C479 1.390 . S
C477 H481 0.950 . S
H478 C474 0.950 . S
C479 C477 1.390 . S
C479 C480 1.387 1_565 S
C479 H482 0.950 . S
C480 C479 1.387 1_545 S
C480 C483 1.387 . S
H481 C477 0.950 . S
H482 C479 0.950 . S
C483 C474 1.390 . S
C483 H476 0.950 . S
C483 C480 1.387 . S
C484 C485 1.387 . S
C484 H488 0.950 . S
C484 C493 1.390 . S
C485 C484 1.387 . S
C485 C487 1.387 . S
H486 C493 0.950 . S
C487 C485 1.387 . S
C487 C489 1.390 1_554 S
C487 H491 0.950 1_554 S
H488 C484 0.950 . S
C489 C487 1.390 1_556 S
C489 C490 1.387 . S
C489 H492 0.950 . S
C490 C489 1.387 . S
C490 C493 1.387 1_556 S
H491 C487 0.950 1_556 S
H492 C489 0.950 . S
C493 C484 1.390 . S
C493 H486 0.950 . S
C493 C490 1.387 1_554 S
C494 C495 1.387 . S
C494 H498 0.950 . S
C494 C503 1.390 . S
C495 C494 1.387 . S
C495 C497 1.387 . S
H496 C503 0.950 . S
C497 C495 1.387 . S
C497 C499 1.390 . S
C497 H501 0.950 . S
H498 C494 0.950 . S
C499 C497 1.390 . S
C499 C500 1.387 . S
C499 H502 0.950 . S
C500 C499 1.387 . S
C500 C503 1.387 . S
H501 C497 0.950 . S
H502 C499 0.950 . S
C503 C494 1.390 . S
C503 H496 0.950 . S
C503 C500 1.387 . S
C390 C97 1.138 . S
C385 C6 1.555 . S
C395 C22 1.642 . S
C400 C211 1.223 . S
C405 C34 1.158 . S
C410 C271 0.948 . S
C415 C7 1.427 . S
C420 C71 1.130 . S
C430 C185 1.193 . S
C425 C23 1.540 . S
C435 C35 1.320 . S
C440 C281 0.820 . S
C450 C167 1.009 . S
C445 C36 1.614 . S
C455 C9 1.749 . S
C460 C299 1.361 1_554 S
C470 C43 1.120 1_455 S
C465 C21 1.342 . S
C480 C157 1.171 . S
C475 C37 1.451 . S
C490 C325 1.369 . S
C485 C8 1.845 . S
C495 C20 1.480 . S
C500 C53 0.922 . S
