# Generated by pormake.
# Topology anh, (6,3)-cn, num edge types: 1
# Building blocks:
#     Node 0, Type 0, BuildingBlock: INOVEN_clean_sbu_0, # of connection points: 6
#     Node 1, Type 0, BuildingBlock: INOVEN_clean_sbu_0, # of connection points: 6
#     Node 2, Type 0, BuildingBlock: INOVEN_clean_sbu_0, # of connection points: 6
#     Node 3, Type 1, BuildingBlock: MIDCAF_clean_linker_0, # of connection points: 3
#     Node 4, Type 1, BuildingBlock: MIDCAF_clean_linker_0, # of connection points: 3
#     Node 5, Type 1, BuildingBlock: MIDCAF_clean_linker_0, # of connection points: 3
#     Node 6, Type 1, BuildingBlock: MIDCAF_clean_linker_0, # of connection points: 3
#     Node 7, Type 1, BuildingBlock: MIDCAF_clean_linker_0, # of connection points: 3
#     Node 8, Type 1, BuildingBlock: MIDCAF_clean_linker_0, # of connection points: 3
#     Edge 9, Type (0, 1), BuildingBlock: OJICUG_clean_linker_0, # of connection points: 2
#     Edge 10, Type (0, 1), BuildingBlock: OJICUG_clean_linker_0, # of connection points: 2
#     Edge 11, Type (0, 1), BuildingBlock: OJICUG_clean_linker_0, # of connection points: 2
#     Edge 12, Type (0, 1), BuildingBlock: OJICUG_clean_linker_0, # of connection points: 2
#     Edge 13, Type (0, 1), BuildingBlock: OJICUG_clean_linker_0, # of connection points: 2
#     Edge 14, Type (0, 1), BuildingBlock: OJICUG_clean_linker_0, # of connection points: 2
#     Edge 15, Type (0, 1), BuildingBlock: OJICUG_clean_linker_0, # of connection points: 2
#     Edge 16, Type (0, 1), BuildingBlock: OJICUG_clean_linker_0, # of connection points: 2
#     Edge 17, Type (0, 1), BuildingBlock: OJICUG_clean_linker_0, # of connection points: 2
#     Edge 18, Type (0, 1), BuildingBlock: OJICUG_clean_linker_0, # of connection points: 2
#     Edge 19, Type (0, 1), BuildingBlock: OJICUG_clean_linker_0, # of connection points: 2
#     Edge 20, Type (0, 1), BuildingBlock: OJICUG_clean_linker_0, # of connection points: 2
#     Edge 21, Type (0, 1), BuildingBlock: OJICUG_clean_linker_0, # of connection points: 2
#     Edge 22, Type (0, 1), BuildingBlock: OJICUG_clean_linker_0, # of connection points: 2
#     Edge 23, Type (0, 1), BuildingBlock: OJICUG_clean_linker_0, # of connection points: 2
#     Edge 24, Type (0, 1), BuildingBlock: OJICUG_clean_linker_0, # of connection points: 2
#     Edge 25, Type (0, 1), BuildingBlock: OJICUG_clean_linker_0, # of connection points: 2
#     Edge 26, Type (0, 1), BuildingBlock: OJICUG_clean_linker_0, # of connection points: 2
# Relax obj value: 0.210
# Max RMSD: 0.230
# Mean RMSD: 0.167
data_MOF--net-anh--node1-INOVEN_clean_sbu_0--node2-MIDCAF_clean_linker_0--edge1-OJICUG_clean_linker_0
_symmetry_space_group_name_H-M    P1
_symmetry_Int_Tables_number       1
_symmetry_cell_setting            triclinic
loop_
_symmetry_equiv_pos_as_xyz
'x, y, z'
_cell_length_a     30.18669
_cell_length_b     35.465425
_cell_length_c     51.909992
_cell_angle_alpha  92.697849
_cell_angle_beta   89.633995
_cell_angle_gamma 130.38718
loop_
_atom_site_label
_atom_site_type_symbol
_atom_site_fract_x
_atom_site_fract_y
_atom_site_fract_z
_atom_type_partial_charge
Gd0 Gd 0.14069 0.54577 0.14062 0.0
Gd1 Gd 0.06926 0.57238 0.15306 0.0
C2 C 0.207 0.66321 0.15078 0.0
C3 C 0.21609 0.53944 0.12343 0.0
C4 C 0.26814 0.55266 0.13598 0.0
C5 C 0.27082 0.55021 0.16281 0.0
C6 C 0.31505 0.56688 0.12112 0.0
C7 C 0.36332 0.56892 0.15918 0.0
C8 C 0.36248 0.57517 0.13265 0.0
C9 C 0.31794 0.55789 0.17432 0.0
C10 C 0.11789 0.54068 0.19133 0.0
C11 C 1.00538 0.45733 0.14609 0.0
C12 C 1.00495 0.58833 0.17322 0.0
C13 C 0.94094 0.55136 0.17238 0.0
C14 C 0.91153 0.52455 0.14903 0.0
C15 C 0.91062 0.53459 0.19547 0.0
C16 C 0.82456 0.46242 0.17201 0.0
C17 C 0.85259 0.49052 0.19527 0.0
C18 C 0.85412 0.4806 0.14887 0.0
C19 C 0.0606 0.54351 0.10236 0.0
O20 O 0.21234 0.62889 0.14911 0.0
O21 O 0.155 0.65049 0.15143 0.0
O22 O 0.16661 0.5022 0.13269 0.0
O23 O 0.2183 0.57645 0.11896 0.0
O24 O 0.12172 0.51073 0.17867 0.0
O25 O 0.13031 0.57396 0.1771 0.0
O26 O 1.00876 0.49097 0.1603 0.0
O27 O 1.04973 0.47145 0.13166 0.0
O28 O 1.03018 0.60637 0.15117 0.0
O29 O 1.02916 0.57541 0.18682 0.0
O30 O 1.01712 0.53197 0.11551 0.0
O31 O 0.10623 0.57082 0.11627 0.0
H32 H 0.23539 0.54032 0.17469 0.0
H33 H 0.31392 0.56959 0.10046 0.0
H34 H 0.39641 0.58282 0.12041 0.0
H35 H 0.31755 0.55275 0.19475 0.0
H36 H 0.93358 0.53607 0.13089 0.0
H37 H 0.93273 0.55412 0.21376 0.0
H38 H 0.83035 0.47755 0.21333 0.0
H39 H 0.83294 0.46052 0.13055 0.0
Gd40 Gd 0.63814 0.03264 0.47114 0.0
Gd41 Gd 0.56136 0.05589 0.46121 0.0
C42 C 0.49744 0.94157 0.46085 0.0
C43 C 0.68714 0.99971 0.48856 0.0
C44 C 0.67248 0.95243 0.49393 0.0
C45 C 0.71659 0.94953 0.49367 0.0
C46 C 0.6156 0.91046 0.49951 0.0
C47 C 0.64769 0.86338 0.50516 0.0
C48 C 0.60329 0.86628 0.50507 0.0
C49 C 0.70442 0.90553 0.49925 0.0
C50 C 0.63057 0.04636 0.42129 0.0
C51 C 0.70322 0.1475 0.46819 0.0
C52 C 0.51695 0.09416 0.44645 0.0
C53 C 0.53058 0.1411 0.45453 0.0
C54 C 0.56738 0.16924 0.47617 0.0
C55 C 0.50665 0.15784 0.44107 0.0
C56 C 0.55512 0.23008 0.47135 0.0
C57 C 0.51883 0.202 0.44939 0.0
C58 C 0.57935 0.2131 0.48455 0.0
C59 C 0.57182 0.04506 0.51147 0.0
O60 O 0.5465 0.95674 0.47195 0.0
O61 O 0.49494 0.97389 0.45097 0.0
O62 O 0.68672 1.00768 0.46429 0.0
O63 O 0.66451 0.01384 0.50339 0.0
O64 O 0.67798 0.06137 0.43276 0.0
O65 O 0.58837 0.02266 0.43627 0.0
O66 O 0.65176 0.13182 0.46036 0.0
O67 O 0.70889 0.11597 0.47633 0.0
O68 O 0.49444 0.06175 0.46417 0.0
O69 O 0.55753 0.09833 0.43391 0.0
O70 O 0.52437 0.03065 0.5005 0.0
O71 O 0.61263 0.06738 0.49582 0.0
H72 H 0.76077 0.9816 0.48944 0.0
H73 H 0.58091 0.91196 0.49977 0.0
H74 H 0.55902 0.83442 0.50926 0.0
H75 H 0.73987 0.90499 0.49955 0.0
H76 H 0.58627 0.15687 0.48683 0.0
H77 H 0.47835 0.13667 0.42424 0.0
H78 H 0.49998 0.21419 0.43856 0.0
H79 H 0.60656 0.23303 0.50179 0.0
Gd80 Gd 0.60555 0.56645 0.84521 0.0
Gd81 Gd 0.52212 0.45715 0.84487 0.0
C82 C 0.46043 0.50807 0.84745 0.0
C83 C 0.66194 0.65771 0.83387 0.0
C84 C 0.65023 0.69093 0.82791 0.0
C85 C 0.69572 0.74241 0.83009 0.0
C86 C 0.59512 0.6721 0.81892 0.0
C87 C 0.63195 0.7561 0.81341 0.0
C88 C 0.58605 0.70434 0.81178 0.0
C89 C 0.68677 0.77466 0.82293 0.0
C90 C 0.5819 0.52875 0.89188 0.0
C91 C 0.66806 0.51633 0.84593 0.0
C92 C 0.4717 0.36616 0.85357 0.0
C93 C 0.48674 0.33505 0.84613 0.0
C94 C 0.52539 0.34866 0.82617 0.0
C95 C 0.46343 0.29209 0.85904 0.0
C96 C 0.51645 0.27602 0.83167 0.0
C97 C 0.4781 0.2628 0.85188 0.0
C98 C 0.5399 0.31945 0.81896 0.0
C99 C 0.54455 0.49195 0.79739 0.0
O100 O 0.51493 0.54914 0.84247 0.0
O101 O 0.45292 0.46716 0.85177 0.0
O102 O 0.65414 0.64395 0.85757 0.0
O103 O 0.64306 0.6216 0.8167 0.0
O104 O 0.63386 0.5673 0.88566 0.0
O105 O 0.54574 0.51396 0.87375 0.0
O106 O 0.61247 0.47422 0.84744 0.0
O107 O 0.67698 0.55834 0.84353 0.0
O108 O 0.45607 0.37867 0.83456 0.0
O109 O 0.50767 0.40329 0.87023 0.0
O110 O 0.49394 0.45304 0.80436 0.0
O111 O 0.58189 0.50924 0.81551 0.0
H112 H 0.73866 0.7577 0.83685 0.0
H113 H 0.55933 0.63249 0.81704 0.0
H114 H 0.54306 0.68864 0.80489 0.0
H115 H 0.72336 0.81413 0.82415 0.0
H116 H 0.54409 0.3818 0.816 0.0
H117 H 0.43393 0.2812 0.87465 0.0
H118 H 0.45976 0.23007 0.86235 0.0
H119 H 0.56872 0.33054 0.80305 0.0
C120 C 0.41074 0.9068 0.17544 0.0
C121 C 0.41482 0.87478 0.16075 0.0
C122 C 0.47024 0.89492 0.15168 0.0
C123 C 0.52007 0.94465 0.15818 0.0
H124 H 0.70615 0.12894 0.14183 0.0
H125 H 0.78915 0.21198 0.12753 0.0
H126 H 0.7929 0.27756 0.20055 0.0
H127 H 0.71153 0.19681 0.21434 0.0
H128 H 0.69144 0.13831 0.26337 0.0
H129 H 0.69336 0.13612 0.31011 0.0
H130 H 0.53686 0.98217 0.30499 0.0
H131 H 0.5341 0.98439 0.25825 0.0
H132 H 0.45552 0.97834 0.19462 0.0
H133 H 0.36969 0.89321 0.18328 0.0
H134 H 0.47548 0.87193 0.14009 0.0
H135 H 0.56234 0.95798 0.15225 0.0
N136 N 0.61087 0.06429 0.17561 0.0
N137 N 0.65441 0.10429 0.2164 0.0
N138 N 0.56897 0.02169 0.21376 0.0
C139 C 0.65465 0.10623 0.19027 0.0
C140 C 0.61223 0.06245 0.2283 0.0
C141 C 0.56758 0.02174 0.18764 0.0
C142 C 0.70165 0.15565 0.1793 0.0
C143 C 0.72437 0.16127 0.1546 0.0
C144 C 0.77237 0.2089 0.14652 0.0
C145 C 0.79803 0.25203 0.16277 0.0
C146 C 0.77432 0.24589 0.18718 0.0
C147 C 0.7274 0.19897 0.19522 0.0
C148 C 0.61281 0.06145 0.25689 0.0
C149 C 0.65726 0.10396 0.27213 0.0
C150 C 0.65851 0.10268 0.29898 0.0
C151 C 0.6154 0.0589 0.31132 0.0
C152 C 0.57038 0.01665 0.29615 0.0
C153 C 0.56911 0.01788 0.26928 0.0
C154 C 0.51573 0.97547 0.17389 0.0
C155 C 0.46023 0.95603 0.18194 0.0
C156 C 0.6164 0.41354 0.54461 0.0
C157 C 0.59285 0.40012 0.51931 0.0
C158 C 0.57537 0.42479 0.50895 0.0
C159 C 0.5813 0.4621 0.5237 0.0
H160 H 0.60829 0.59679 0.51966 0.0
H161 H 0.61134 0.6612 0.50218 0.0
H162 H 0.62326 0.71798 0.57961 0.0
H163 H 0.61913 0.65364 0.59705 0.0
H164 H 0.64158 0.61437 0.64515 0.0
H165 H 0.63062 0.60516 0.6918 0.0
H166 H 0.56317 0.45468 0.6806 0.0
H167 H 0.57465 0.46369 0.6342 0.0
H168 H 0.63912 0.45891 0.57899 0.0
H169 H 0.62968 0.39485 0.55321 0.0
H170 H 0.55722 0.41525 0.48946 0.0
H171 H 0.56709 0.48023 0.51532 0.0
N172 N 0.60851 0.54709 0.55529 0.0
N173 N 0.61284 0.57871 0.59687 0.0
N174 N 0.60796 0.51021 0.59184 0.0
C175 C 0.6117 0.58092 0.57082 0.0
C176 C 0.6108 0.54344 0.60753 0.0
C177 C 0.60702 0.51178 0.56576 0.0
C178 C 0.61342 0.61979 0.55979 0.0
C179 C 0.61138 0.6229 0.53295 0.0
C180 C 0.61335 0.65997 0.52292 0.0
C181 C 0.61724 0.69466 0.53949 0.0
C182 C 0.61915 0.69139 0.56627 0.0
C183 C 0.61723 0.65453 0.57626 0.0
C184 C 0.60861 0.53963 0.6359 0.0
C185 C 0.62493 0.57946 0.65266 0.0
C186 C 0.61903 0.57439 0.67934 0.0
C187 C 0.59579 0.52917 0.68967 0.0
C188 C 0.58087 0.48984 0.67304 0.0
C189 C 0.58764 0.49511 0.64648 0.0
C190 C 0.6037 0.47466 0.54925 0.0
C191 C 0.62141 0.45007 0.55943 0.0
C192 C 0.86804 0.47098 0.84914 0.0
C193 C 0.87495 0.51508 0.85047 0.0
C194 C 0.93491 0.55897 0.85383 0.0
C195 C 0.98258 0.55869 0.85636 0.0
H196 H 0.20862 0.57555 0.83882 0.0
H197 H 0.28974 0.57526 0.83348 0.0
H198 H 0.1945 0.44079 0.87385 0.0
H199 H 0.11474 0.4414 0.87882 0.0
H200 H 0.12544 0.50795 0.9417 0.0
H201 H 0.12316 0.51114 0.98867 0.0
H202 H 0.99575 0.53006 0.98459 0.0
H203 H 0.99686 0.52569 0.93781 0.0
H204 H 0.90538 0.43533 0.85198 0.0
H205 H 0.82475 0.43535 0.84672 0.0
H206 H 0.94584 0.59466 0.85553 0.0
H207 H 1.02573 0.59385 0.86056 0.0
N208 N 0.06436 0.51221 0.85412 0.0
N209 N 0.10066 0.51248 0.89456 0.0
N210 N 1.02527 0.51565 0.89301 0.0
C211 C 0.10393 0.51144 0.86841 0.0
C212 C 0.06258 0.51485 0.90695 0.0
C213 C 1.02386 0.51419 0.86687 0.0
C214 C 0.15078 0.50708 0.85831 0.0
C215 C 0.2034 0.54463 0.84578 0.0
C216 C 0.2518 0.54486 0.84314 0.0
C217 C 0.25228 0.50783 0.85299 0.0
C218 C 0.19924 0.47034 0.86525 0.0
C219 C 0.15152 0.47038 0.86799 0.0
C220 C 0.06138 0.51656 0.93574 0.0
C221 C 0.0968 0.51268 0.95077 0.0
C222 C 0.0957 0.51475 0.9778 0.0
C223 C 0.05922 0.52083 0.99059 0.0
C224 C 1.02369 0.52451 0.97554 0.0
C225 C 1.02468 0.52234 0.94856 0.0
C226 C 0.97562 0.51472 0.85506 0.0
C227 C 0.91591 0.47086 0.85163 0.0
C228 C 0.23553 0.71052 0.45851 0.0
C229 C 0.29197 0.72939 0.45211 0.0
C230 C 0.29771 0.696 0.44066 0.0
C231 C 0.2486 0.64637 0.43436 0.0
H232 H 1.04643 0.45536 0.46844 0.0
H233 H 0.96361 0.37245 0.4826 0.0
H234 H 0.85925 0.35234 0.41813 0.0
H235 H 0.94035 0.43384 0.40443 0.0
H236 H 1.01813 0.46338 0.35051 0.0
H237 H 1.0196 0.46364 0.30357 0.0
H238 H 0.17453 0.61818 0.3084 0.0
H239 H 0.17297 0.61833 0.35531 0.0
H240 H 0.14341 0.64802 0.45622 0.0
H241 H 0.22919 0.73481 0.46752 0.0
H242 H 0.33998 0.70887 0.43511 0.0
H243 H 0.25449 0.6228 0.4239 0.0
N244 N 0.09663 0.53993 0.43817 0.0
N245 N 1.05165 0.49977 0.39758 0.0
N246 N 0.14045 0.58078 0.3998 0.0
C247 C 1.05122 0.49863 0.42375 0.0
C248 C 0.09582 0.54042 0.38545 0.0
C249 C 0.1415 0.58132 0.42595 0.0
C250 C 1.00037 0.45166 0.43529 0.0
C251 C 1.00539 0.43349 0.45766 0.0
C252 C 0.95801 0.38566 0.46558 0.0
C253 C 0.9042 0.35521 0.45159 0.0
C254 C 0.89922 0.37441 0.42974 0.0
C255 C 0.94626 0.42145 0.42174 0.0
C256 C 0.09561 0.54076 0.35682 0.0
C257 C 1.05243 0.49754 0.34164 0.0
C258 C 1.05336 0.49759 0.31469 0.0
C259 C 0.09726 0.54091 0.30225 0.0
C260 C 0.13976 0.58435 0.31738 0.0
C261 C 0.13905 0.58426 0.34432 0.0
C262 C 0.19219 0.62809 0.43979 0.0
C263 C 0.18631 0.66048 0.45249 0.0
C264 C 0.59505 0.16766 0.76567 0.0
C265 C 0.56827 0.15402 0.78963 0.0
C266 C 0.55106 0.1103 0.79981 0.0
C267 C 0.56015 0.08076 0.78616 0.0
H268 H 0.59618 0.98051 0.79283 0.0
H269 H 0.60105 0.92093 0.81103 0.0
H270 H 0.6164 0.87786 0.73451 0.0
H271 H 0.61051 0.93629 0.71631 0.0
H272 H 0.63359 1.00143 0.66786 0.0
H273 H 0.63032 1.0045 0.62084 0.0
H274 H 0.55977 0.07799 0.62987 0.0
H275 H 0.56346 0.0756 0.67653 0.0
H276 H 0.62318 0.1494 0.7333 0.0
H277 H 0.60825 0.20077 0.75714 0.0
H278 H 0.53052 0.09895 0.8183 0.0
H279 H 0.54584 0.04701 0.7943 0.0
N280 N 0.5939 0.02851 0.75672 0.0
N281 N 0.60186 1.00317 0.71548 0.0
N282 N 0.59351 0.06426 0.71989 0.0
C283 C 0.59953 0.99937 0.74155 0.0
C284 C 0.59863 0.03538 0.7045 0.0
C285 C 0.59128 0.06136 0.74591 0.0
C286 C 0.60279 0.96338 0.75303 0.0
C287 C 0.60049 0.95829 0.77986 0.0
C288 C 0.60358 0.92423 0.79033 0.0
C289 C 0.60885 0.89428 0.77426 0.0
C290 C 0.61129 0.89955 0.74749 0.0
C291 C 0.6083 0.93351 0.73704 0.0
C292 C 0.59863 0.03812 0.67602 0.0
C293 C 0.6176 0.01841 0.65981 0.0
C294 C 0.61607 0.02039 0.63292 0.0
C295 C 0.59455 0.04128 0.62176 0.0
C296 C 0.57613 0.06131 0.63796 0.0
C297 C 0.57851 0.06008 0.66473 0.0
C298 C 0.58551 0.09389 0.76182 0.0
C299 C 0.60323 0.13792 0.75191 0.0
C300 C 0.59655 0.31791 0.1126 0.0
C301 C 0.5924 0.31627 0.13966 0.0
C302 C 0.54322 0.30588 0.15079 0.0
C303 C 0.50631 0.30787 0.13609 0.0
H304 H 0.46959 0.40039 0.15652 0.0
H305 H 0.46473 0.45623 0.1834 0.0
H306 H 0.50161 0.54056 0.11692 0.0
H307 H 0.50709 0.48613 0.0906 0.0
H308 H 0.43234 0.39611 0.03455 0.0
H309 H 0.45297 0.42737 0.99161 0.0
H310 H 0.58481 0.41378 0.98443 0.0
H311 H 0.56394 0.38223 0.02786 0.0
H312 H 0.56831 0.32719 0.07769 0.0
H313 H 0.6333 0.32518 0.10316 0.0
H314 H 0.53754 0.30257 0.17142 0.0
H315 H 0.47319 0.30614 0.1458 0.0
N316 N 0.49274 0.37215 0.11408 0.0
N317 N 0.48566 0.40567 0.07835 0.0
N318 N 0.50021 0.34852 0.07225 0.0
C319 C 0.48656 0.40321 0.10424 0.0
C320 C 0.49192 0.37836 0.06223 0.0
C321 C 0.49908 0.34434 0.09827 0.0
C322 C 0.48715 0.43805 0.12129 0.0
C323 C 0.47744 0.43136 0.14785 0.0
C324 C 0.47511 0.46348 0.16327 0.0
C325 C 0.48305 0.50301 0.15239 0.0
C326 C 0.4964 0.51123 0.12619 0.0
C327 C 0.49826 0.47916 0.11086 0.0
C328 C 0.49657 0.3868 0.03447 0.0
C329 C 0.46481 0.3987 0.02358 0.0
C330 C 0.47656 0.41652 -0.00104 0.0
C331 C 0.52078 0.42333 0.98475 0.0
C332 C 0.55084 0.40926 0.99511 0.0
C333 C 0.53845 0.39069 0.01976 0.0
C334 C 0.51767 0.31935 0.11004 0.0
C335 C 0.5592 0.31929 0.09785 0.0
C336 C 0.38124 0.51806 0.17958 0.0
C337 C 0.40421 0.56315 0.16914 0.0
H338 H 0.38959 0.46324 0.1827 0.0
C339 C 0.46244 0.59518 0.16183 0.0
H340 H 0.33655 0.49279 0.18558 0.0
C341 C 0.49347 0.57848 0.16058 0.0
C342 C 0.46586 0.52925 0.16603 0.0
H343 H 0.48149 0.63064 0.15425 0.0
H344 H 0.53598 0.60165 0.15215 0.0
C345 C 0.4119 0.50109 0.17798 0.0
C346 C 0.74795 0.23524 0.45978 0.0
C347 C 0.75531 0.2016 0.46666 0.0
H348 H 0.78795 0.30922 0.45042 0.0
C349 C 0.81266 0.22007 0.47057 0.0
H350 H 0.70476 0.22299 0.45684 0.0
C351 C 0.86101 0.27017 0.46673 0.0
C352 C 0.85342 0.30324 0.4588 0.0
H353 H 0.82031 0.1955 0.47587 0.0
H354 H 0.90433 0.28247 0.469 0.0
C355 C 0.79599 0.28502 0.45597 0.0
C356 C 0.58967 0.77807 0.78182 0.0
C357 C 0.62351 0.79052 0.80428 0.0
H358 H 0.55783 0.80031 0.75504 0.0
C359 C 0.65076 0.83681 0.81734 0.0
H360 H 0.56849 0.74308 0.77105 0.0
C361 C 0.64519 0.87004 0.80794 0.0
C362 C 0.61235 0.85795 0.78517 0.0
H363 H 0.6766 0.84751 0.83486 0.0
H364 H 0.66784 0.90572 0.8182 0.0
C365 C 0.58416 0.81127 0.77242 0.0
C366 C 0.72048 0.41469 0.18236 0.0
C367 C 0.76345 0.41571 0.17104 0.0
H368 H 0.63126 0.38113 0.18154 0.0
C369 C 0.74663 0.37498 0.15504 0.0
H370 H 0.73227 0.44546 0.19489 0.0
C371 C 0.68828 0.33732 0.14757 0.0
C372 C 0.64617 0.34041 0.15567 0.0
H373 H 0.77909 0.37443 0.14655 0.0
H374 H 0.67713 0.30868 0.13344 0.0
C375 C 0.66223 0.37731 0.17474 0.0
C376 C 0.44829 0.8512 0.46558 0.0
C377 C 0.44464 0.88734 0.45922 0.0
H378 H 0.40384 0.77389 0.46862 0.0
C379 C 0.38979 0.87097 0.45135 0.0
H380 H 0.48951 0.86206 0.47173 0.0
C381 C 0.34034 0.82018 0.44972 0.0
C382 C 0.34412 0.78394 0.45566 0.0
H383 H 0.38492 0.89744 0.44636 0.0
H384 H 0.29931 0.80925 0.44312 0.0
C385 C 0.39896 0.80038 0.4637 0.0
C386 C 0.5872 0.26614 0.81483 0.0
C387 C 0.53116 0.24439 0.82333 0.0
H388 H 0.64293 0.2548 0.7979 0.0
C389 C 0.48879 0.19226 0.82261 0.0
H390 H 0.62146 0.30605 0.81567 0.0
C391 C 0.5015 0.16282 0.81273 0.0
C392 C 0.55672 0.18478 0.80314 0.0
H393 H 0.44502 0.17407 0.82874 0.0
H394 H 0.46732 0.12288 0.81154 0.0
C395 C 0.59968 0.23676 0.80476 0.0
C396 C 0.66308 0.80163 0.49978 0.0
C397 C 0.6358 0.81747 0.51241 0.0
H398 H 0.67892 0.75081 0.49841 0.0
C399 C 0.59937 0.7905 0.53293 0.0
H400 H 0.69076 0.82108 0.48366 0.0
C401 C 0.592 0.74982 0.54117 0.0
C402 C 0.62094 0.73508 0.52915 0.0
H403 H 0.57798 0.80177 0.54324 0.0
H404 H 0.56414 0.73027 0.55723 0.0
C405 C 0.65574 0.76094 0.50804 0.0
C406 C 0.71343 0.47203 0.84861 0.0
C407 C 0.72101 0.51602 0.84688 0.0
H408 H 0.75006 0.4361 0.85107 0.0
C409 C 0.78091 0.55962 0.84621 0.0
H410 H 0.66959 0.43687 0.84924 0.0
C411 C 0.82879 0.55932 0.84727 0.0
C412 C 0.82152 0.51532 0.84905 0.0
H413 H 0.79142 0.59499 0.84488 0.0
H414 H 0.87224 0.59468 0.84652 0.0
C415 C 0.76127 0.47167 0.84962 0.0
C416 C 0.25596 0.75424 0.15174 0.0
C417 C 0.26051 0.71721 0.15238 0.0
H418 H 0.2998 0.83178 0.1529 0.0
C419 C 0.31673 0.73255 0.15452 0.0
H420 H 0.21373 0.74423 0.14981 0.0
C421 C 0.36661 0.78327 0.15655 0.0
C422 C 0.362 0.82041 0.15641 0.0
H423 H 0.32231 0.70535 0.15504 0.0
H424 H 0.40871 0.79325 0.15898 0.0
C425 C 0.3057 0.80482 0.15362 0.0
C426 C 0.62106 0.31645 0.49232 0.0
C427 C 0.56645 0.276 0.48114 0.0
H428 H 0.67223 0.38738 0.5129 0.0
C429 C 0.52204 0.27884 0.48072 0.0
H430 H 0.65678 0.31625 0.49245 0.0
C431 C 0.53134 0.32015 0.49212 0.0
C432 C 0.58504 0.35928 0.50439 0.0
H433 H 0.47927 0.2483 0.47253 0.0
H434 H 0.49568 0.32045 0.49236 0.0
C435 C 0.6301 0.35739 0.50393 0.0
C436 C 0.4123 0.5501 0.84334 0.0
C437 C 0.40732 0.50825 0.84863 0.0
H438 H 0.37301 0.58393 0.84025 0.0
C439 C 0.34963 0.46639 0.85515 0.0
H440 H 0.45433 0.58386 0.8382 0.0
C441 C 0.30152 0.46635 0.85641 0.0
C442 C 0.30613 0.50816 0.85117 0.0
H443 H 0.3411 0.43267 0.85945 0.0
H444 H 0.25982 0.43226 0.86141 0.0
C445 C 0.36404 0.55003 0.84448 0.0
C446 C 0.90137 0.39276 0.15858 0.0
C447 C 0.951 0.40396 0.14729 0.0
H448 H 0.81501 0.33734 0.17148 0.0
C449 C 0.94796 0.36395 0.13879 0.0
H450 H 0.90113 0.42213 0.16502 0.0
C451 C 0.89765 0.31438 0.14267 0.0
C452 C 0.84914 0.30362 0.15515 0.0
H453 H 0.98512 0.37096 0.12996 0.0
H454 H 0.89772 0.28469 0.13688 0.0
C455 C 0.85157 0.34373 0.16236 0.0
C456 C 1.00729 0.5087 0.05937 0.0
C457 C 0.05951 0.5354 0.074 0.0
H458 H 0.96591 0.48233 0.02178 0.0
C459 C 0.11124 0.55563 0.06119 0.0
H460 H 0.96668 0.4924 0.06873 0.0
C461 C 0.11102 0.55029 0.03427 0.0
C462 C 0.05898 0.52443 0.01944 0.0
H463 H 0.15221 0.5764 0.07195 0.0
H464 H 0.152 0.56762 0.02504 0.0
C465 C 1.007 0.50324 0.03243 0.0
C466 C 0.67616 0.07659 0.37874 0.0
C467 C 0.62596 0.05059 0.39345 0.0
H468 H 0.71208 0.09906 0.3414 0.0
C469 C 0.57211 0.02827 0.38121 0.0
H470 H 0.7183 0.0942 0.38766 0.0
C471 C 0.56852 0.03124 0.35458 0.0
C472 C 0.61879 0.05684 0.33976 0.0
H473 H 0.53276 0.00817 0.39215 0.0
H474 H 0.52645 0.0137 0.3456 0.0
C475 C 0.67264 0.07967 0.35223 0.0
C476 C 0.51481 0.4725 0.75087 0.0
C477 C 0.5583 0.50373 0.77008 0.0
H478 H 0.49301 0.45606 0.71047 0.0
C479 C 0.61439 0.5446 0.76275 0.0
H480 H 0.47112 0.44078 0.7559 0.0
C481 C 0.62668 0.55374 0.73658 0.0
C482 C 0.58335 0.52153 0.71744 0.0
H483 H 0.64874 0.56914 0.77718 0.0
H484 H 0.67025 0.58519 0.73126 0.0
C485 C 0.52731 0.48107 0.72486 0.0
C486 C 0.63124 0.06046 0.55075 0.0
C487 C 0.57837 0.04322 0.53949 0.0
H488 H 0.67768 0.07274 0.58576 0.0
C489 C 0.5309 0.0243 0.55536 0.0
H490 H 0.66861 0.07548 0.53899 0.0
C491 C 0.53632 0.02345 0.58196 0.0
C492 C 0.58911 0.04086 0.59332 0.0
H493 H 0.48952 0.0106 0.54726 0.0
H494 H 0.49902 0.00897 0.5937 0.0
C495 C 0.6364 0.05884 0.57744 0.0
C496 C 0.61085 0.51418 0.9329 0.0
C497 C 0.56728 0.50153 0.9154 0.0
H498 H 0.6302 0.49876 0.96862 0.0
C499 C 0.50883 0.46143 0.92011 0.0
H500 H 0.65627 0.54475 0.92958 0.0
C501 C 0.49399 0.43497 0.94217 0.0
C502 C 0.5373 0.44803 0.96001 0.0
H503 H 0.47436 0.45063 0.90681 0.0
H504 H 0.44848 0.4045 0.94541 0.0
C505 C 0.59598 0.48751 0.95503 0.0
C506 C 0.11855 0.57975 0.23307 0.0
C507 C 0.11049 0.54044 0.21947 0.0
H508 H 0.12037 0.61066 0.26999 0.0
C509 C 0.09625 0.50074 0.23307 0.0
H510 H 0.12939 0.61075 0.22302 0.0
C511 C 0.09101 0.50059 0.25982 0.0
C512 C 0.10013 0.54028 0.27362 0.0
H513 H 0.08966 0.46987 0.22306 0.0
H514 H 0.0812 0.46989 0.26978 0.0
C515 C 0.11366 0.57978 0.25993 0.0
loop_
_geom_bond_atom_site_label_1
_geom_bond_atom_site_label_2
_geom_bond_distance
_geom_bond_site_symmetry_2
_ccdc_geom_bond_type
Gd0 C3 2.818 . S
Gd0 O20 2.377 . S
Gd0 O22 2.448 . S
Gd0 O23 2.506 . S
Gd0 O24 2.435 . S
Gd0 O25 2.717 . S
Gd0 O27 2.395 1_455 S
Gd0 O31 2.327 . S
Gd1 C12 2.818 . S
Gd1 O21 2.395 1_655 S
Gd1 O25 2.327 1_655 S
Gd1 O26 2.377 . S
Gd1 O28 2.448 . S
Gd1 O29 2.506 . S
Gd1 O30 2.435 1_655 S
Gd1 O31 2.717 1_655 S
C2 O20 1.240 . S
C2 O21 1.240 . S
C3 Gd0 2.818 . S
C3 C4 1.510 . S
C3 O22 1.249 . S
C3 O23 1.252 . S
C4 C3 1.510 . S
C4 C5 1.404 . S
C4 C6 1.352 . S
C5 C4 1.404 . S
C5 C9 1.389 . S
C5 H32 0.930 . S
C6 C4 1.352 . S
C6 C8 1.374 . S
C6 H33 0.931 . S
C7 C8 1.359 . S
C7 C9 1.364 . S
C8 C6 1.374 . S
C8 C7 1.359 . S
C8 H34 0.931 . S
C9 C5 1.389 . S
C9 C7 1.364 . S
C9 H35 0.931 . S
C10 O24 1.256 . S
C10 O25 1.257 . S
C11 O26 1.240 . S
C11 O27 1.240 . S
C12 Gd1 2.818 . S
C12 C13 1.510 . S
C12 O28 1.249 . S
C12 O29 1.252 . S
C13 C12 1.510 . S
C13 C14 1.404 . S
C13 C15 1.352 . S
C14 C13 1.404 . S
C14 C18 1.389 . S
C14 H36 0.930 . S
C15 C13 1.352 . S
C15 C17 1.374 . S
C15 H37 0.931 . S
C16 C17 1.359 . S
C16 C18 1.364 . S
C17 C15 1.374 . S
C17 C16 1.359 . S
C17 H38 0.931 . S
C18 C14 1.389 . S
C18 C16 1.364 . S
C18 H39 0.931 . S
C19 O30 1.256 . S
C19 O31 1.257 . S
O20 Gd0 2.377 . S
O20 C2 1.240 . S
O21 Gd1 2.395 1_455 S
O21 C2 1.240 . S
O22 Gd0 2.448 . S
O22 C3 1.249 . S
O23 Gd0 2.506 . S
O23 C3 1.252 . S
O24 Gd0 2.435 . S
O24 C10 1.256 . S
O25 Gd0 2.717 . S
O25 Gd1 2.327 1_455 S
O25 C10 1.257 . S
O26 Gd1 2.377 . S
O26 C11 1.240 . S
O27 Gd0 2.395 1_655 S
O27 C11 1.240 . S
O28 Gd1 2.448 . S
O28 C12 1.249 . S
O29 Gd1 2.506 . S
O29 C12 1.252 . S
O30 Gd1 2.435 1_455 S
O30 C19 1.256 . S
O31 Gd0 2.327 . S
O31 Gd1 2.717 1_455 S
O31 C19 1.257 . S
H32 C5 0.930 . S
H33 C6 0.931 . S
H34 C8 0.931 . S
H35 C9 0.931 . S
H36 C14 0.930 . S
H37 C15 0.931 . S
H38 C17 0.931 . S
H39 C18 0.931 . S
Gd40 C43 2.818 . S
Gd40 O60 2.377 . S
Gd40 O62 2.448 . S
Gd40 O63 2.506 . S
Gd40 O64 2.435 . S
Gd40 O65 2.717 1_565 S
Gd40 O67 2.395 1_565 S
Gd40 O71 2.327 1_565 S
Gd41 C52 2.818 . S
Gd41 O61 2.395 1_545 S
Gd41 O65 2.327 . S
Gd41 O66 2.377 . S
Gd41 O68 2.448 . S
Gd41 O69 2.506 . S
Gd41 O70 2.435 . S
Gd41 O71 2.717 . S
C42 O60 1.240 . S
C42 O61 1.240 . S
C43 Gd40 2.818 . S
C43 C44 1.510 . S
C43 O62 1.249 . S
C43 O63 1.252 . S
C44 C43 1.510 . S
C44 C45 1.404 . S
C44 C46 1.352 . S
C45 C44 1.404 . S
C45 C49 1.389 . S
C45 H72 0.930 . S
C46 C44 1.352 . S
C46 C48 1.374 . S
C46 H73 0.931 . S
C47 C48 1.359 . S
C47 C49 1.364 . S
C48 C46 1.374 . S
C48 C47 1.359 . S
C48 H74 0.931 . S
C49 C45 1.389 . S
C49 C47 1.364 . S
C49 H75 0.931 . S
C50 O64 1.256 1_545 S
C50 O65 1.257 . S
C51 O66 1.240 . S
C51 O67 1.240 . S
C52 Gd41 2.818 . S
C52 C53 1.510 . S
C52 O68 1.249 . S
C52 O69 1.252 . S
C53 C52 1.510 . S
C53 C54 1.404 . S
C53 C55 1.352 . S
C54 C53 1.404 . S
C54 C58 1.389 . S
C54 H76 0.930 . S
C55 C53 1.352 . S
C55 C57 1.374 . S
C55 H77 0.931 . S
C56 C57 1.359 . S
C56 C58 1.364 . S
C57 C55 1.374 . S
C57 C56 1.359 . S
C57 H78 0.931 . S
C58 C54 1.389 . S
C58 C56 1.364 . S
C58 H79 0.931 . S
C59 O70 1.256 . S
C59 O71 1.257 . S
O60 Gd40 2.377 . S
O60 C42 1.240 . S
O61 Gd41 2.395 1_565 S
O61 C42 1.240 . S
O62 Gd40 2.448 . S
O62 C43 1.249 . S
O63 Gd40 2.506 . S
O63 C43 1.252 . S
O64 Gd40 2.435 . S
O64 C50 1.256 1_565 S
O65 Gd40 2.717 1_545 S
O65 Gd41 2.327 . S
O65 C50 1.257 . S
O66 Gd41 2.377 . S
O66 C51 1.240 . S
O67 Gd40 2.395 1_545 S
O67 C51 1.240 . S
O68 Gd41 2.448 . S
O68 C52 1.249 . S
O69 Gd41 2.506 . S
O69 C52 1.252 . S
O70 Gd41 2.435 . S
O70 C59 1.256 . S
O71 Gd40 2.327 1_545 S
O71 Gd41 2.717 . S
O71 C59 1.257 . S
H72 C45 0.930 . S
H73 C46 0.931 . S
H74 C48 0.931 . S
H75 C49 0.931 . S
H76 C54 0.930 . S
H77 C55 0.931 . S
H78 C57 0.931 . S
H79 C58 0.931 . S
Gd80 C83 2.818 . S
Gd80 O100 2.377 . S
Gd80 O102 2.448 . S
Gd80 O103 2.506 . S
Gd80 O104 2.435 . S
Gd80 O105 2.717 . S
Gd80 O107 2.395 . S
Gd80 O111 2.327 . S
Gd81 C92 2.818 . S
Gd81 O101 2.395 . S
Gd81 O105 2.327 . S
Gd81 O106 2.377 . S
Gd81 O108 2.448 . S
Gd81 O109 2.506 . S
Gd81 O110 2.435 . S
Gd81 O111 2.717 . S
C82 O100 1.240 . S
C82 O101 1.240 . S
C83 Gd80 2.818 . S
C83 C84 1.510 . S
C83 O102 1.249 . S
C83 O103 1.252 . S
C84 C83 1.510 . S
C84 C85 1.404 . S
C84 C86 1.352 . S
C85 C84 1.404 . S
C85 C89 1.389 . S
C85 H112 0.930 . S
C86 C84 1.352 . S
C86 C88 1.374 . S
C86 H113 0.931 . S
C87 C88 1.359 . S
C87 C89 1.364 . S
C88 C86 1.374 . S
C88 C87 1.359 . S
C88 H114 0.931 . S
C89 C85 1.389 . S
C89 C87 1.364 . S
C89 H115 0.931 . S
C90 O104 1.256 . S
C90 O105 1.257 . S
C91 O106 1.240 . S
C91 O107 1.240 . S
C92 Gd81 2.818 . S
C92 C93 1.510 . S
C92 O108 1.249 . S
C92 O109 1.252 . S
C93 C92 1.510 . S
C93 C94 1.404 . S
C93 C95 1.352 . S
C94 C93 1.404 . S
C94 C98 1.389 . S
C94 H116 0.930 . S
C95 C93 1.352 . S
C95 C97 1.374 . S
C95 H117 0.931 . S
C96 C97 1.359 . S
C96 C98 1.364 . S
C97 C95 1.374 . S
C97 C96 1.359 . S
C97 H118 0.931 . S
C98 C94 1.389 . S
C98 C96 1.364 . S
C98 H119 0.931 . S
C99 O110 1.256 . S
C99 O111 1.257 . S
O100 Gd80 2.377 . S
O100 C82 1.240 . S
O101 Gd81 2.395 . S
O101 C82 1.240 . S
O102 Gd80 2.448 . S
O102 C83 1.249 . S
O103 Gd80 2.506 . S
O103 C83 1.252 . S
O104 Gd80 2.435 . S
O104 C90 1.256 . S
O105 Gd80 2.717 . S
O105 Gd81 2.327 . S
O105 C90 1.257 . S
O106 Gd81 2.377 . S
O106 C91 1.240 . S
O107 Gd80 2.395 . S
O107 C91 1.240 . S
O108 Gd81 2.448 . S
O108 C92 1.249 . S
O109 Gd81 2.506 . S
O109 C92 1.252 . S
O110 Gd81 2.435 . S
O110 C99 1.256 . S
O111 Gd80 2.327 . S
O111 Gd81 2.717 . S
O111 C99 1.257 . S
H112 C85 0.930 . S
H113 C86 0.931 . S
H114 C88 0.931 . S
H115 C89 0.931 . S
H116 C94 0.930 . S
H117 C95 0.931 . S
H118 C97 0.931 . S
H119 C98 0.931 . S
C120 C121 1.384 . S
C120 H133 0.947 . S
C120 C155 1.382 . S
C121 C120 1.384 . S
C121 C122 1.378 . S
C122 C121 1.378 . S
C122 C123 1.378 . S
C122 H134 0.952 . S
C123 C122 1.378 . S
C123 H135 0.950 . S
C123 C154 1.383 . S
H124 C143 0.947 . S
H125 C144 0.946 . S
H126 C146 0.953 . S
H127 C147 0.945 . S
H128 C149 0.952 . S
H129 C150 0.949 . S
H130 C152 0.950 . S
H131 C153 0.948 . S
H132 C155 0.951 . S
H133 C120 0.947 . S
H134 C122 0.952 . S
H135 C123 0.950 . S
N136 C139 1.382 . S
N136 C141 1.363 1_545 S
N137 C139 1.371 . S
N137 C140 1.372 . S
N138 C140 1.361 1_565 S
N138 C141 1.377 . S
C139 N136 1.382 . S
C139 N137 1.371 . S
C139 C142 1.480 . S
C140 N137 1.372 . S
C140 N138 1.361 1_545 S
C140 C148 1.457 . S
C141 N136 1.363 1_565 S
C141 N138 1.377 . S
C141 C154 1.479 . S
C142 C139 1.480 . S
C142 C143 1.383 . S
C142 C147 1.385 . S
C143 H124 0.947 . S
C143 C142 1.383 . S
C143 C144 1.388 . S
C144 H125 0.946 . S
C144 C143 1.388 . S
C144 C145 1.384 . S
C145 C144 1.384 . S
C145 C146 1.377 . S
C146 H126 0.953 . S
C146 C145 1.377 . S
C146 C147 1.369 . S
C147 H127 0.945 . S
C147 C142 1.385 . S
C147 C146 1.369 . S
C148 C140 1.457 . S
C148 C149 1.372 . S
C148 C153 1.364 1_545 S
C149 H128 0.952 . S
C149 C148 1.372 . S
C149 C150 1.389 . S
C150 H129 0.949 . S
C150 C149 1.389 . S
C150 C151 1.387 . S
C151 C150 1.387 . S
C151 C152 1.372 1_545 S
C152 H130 0.950 . S
C152 C151 1.372 1_565 S
C152 C153 1.379 . S
C153 H131 0.948 . S
C153 C148 1.364 1_565 S
C153 C152 1.379 . S
C154 C123 1.383 . S
C154 C141 1.479 . S
C154 C155 1.398 . S
C155 C120 1.382 . S
C155 H132 0.951 . S
C155 C154 1.398 . S
C156 C157 1.384 . S
C156 H169 0.947 . S
C156 C191 1.382 . S
C157 C156 1.384 . S
C157 C158 1.378 . S
C158 C157 1.378 . S
C158 C159 1.378 . S
C158 H170 0.952 . S
C159 C158 1.378 . S
C159 H171 0.950 . S
C159 C190 1.383 . S
H160 C179 0.947 . S
H161 C180 0.946 . S
H162 C182 0.953 . S
H163 C183 0.945 . S
H164 C185 0.952 . S
H165 C186 0.949 . S
H166 C188 0.950 . S
H167 C189 0.948 . S
H168 C191 0.951 . S
H169 C156 0.947 . S
H170 C158 0.952 . S
H171 C159 0.950 . S
N172 C175 1.382 . S
N172 C177 1.363 . S
N173 C175 1.371 . S
N173 C176 1.372 . S
N174 C176 1.361 . S
N174 C177 1.377 . S
C175 N172 1.382 . S
C175 N173 1.371 . S
C175 C178 1.480 . S
C176 N173 1.372 . S
C176 N174 1.361 . S
C176 C184 1.457 . S
C177 N172 1.363 . S
C177 N174 1.377 . S
C177 C190 1.479 . S
C178 C175 1.480 . S
C178 C179 1.383 . S
C178 C183 1.385 . S
C179 H160 0.947 . S
C179 C178 1.383 . S
C179 C180 1.388 . S
C180 H161 0.946 . S
C180 C179 1.388 . S
C180 C181 1.384 . S
C181 C180 1.384 . S
C181 C182 1.377 . S
C182 H162 0.953 . S
C182 C181 1.377 . S
C182 C183 1.369 . S
C183 H163 0.945 . S
C183 C178 1.385 . S
C183 C182 1.369 . S
C184 C176 1.457 . S
C184 C185 1.372 . S
C184 C189 1.364 . S
C185 H164 0.952 . S
C185 C184 1.372 . S
C185 C186 1.389 . S
C186 H165 0.949 . S
C186 C185 1.389 . S
C186 C187 1.387 . S
C187 C186 1.387 . S
C187 C188 1.372 . S
C188 H166 0.950 . S
C188 C187 1.372 . S
C188 C189 1.379 . S
C189 H167 0.948 . S
C189 C184 1.364 . S
C189 C188 1.379 . S
C190 C159 1.383 . S
C190 C177 1.479 . S
C190 C191 1.398 . S
C191 C156 1.382 . S
C191 H168 0.951 . S
C191 C190 1.398 . S
C192 C193 1.384 . S
C192 H205 0.947 . S
C192 C227 1.382 . S
C193 C192 1.384 . S
C193 C194 1.378 . S
C194 C193 1.378 . S
C194 C195 1.378 . S
C194 H206 0.952 . S
C195 C194 1.378 . S
C195 H207 0.950 1_655 S
C195 C226 1.383 . S
H196 C215 0.947 . S
H197 C216 0.946 . S
H198 C218 0.953 . S
H199 C219 0.945 . S
H200 C221 0.952 . S
H201 C222 0.949 . S
H202 C224 0.950 1_655 S
H203 C225 0.948 1_655 S
H204 C227 0.951 . S
H205 C192 0.947 . S
H206 C194 0.952 . S
H207 C195 0.950 1_455 S
N208 C211 1.382 . S
N208 C213 1.363 . S
N209 C211 1.371 . S
N209 C212 1.372 . S
N210 C212 1.361 . S
N210 C213 1.377 . S
C211 N208 1.382 . S
C211 N209 1.371 . S
C211 C214 1.480 . S
C212 N209 1.372 . S
C212 N210 1.361 . S
C212 C220 1.457 . S
C213 N208 1.363 . S
C213 N210 1.377 . S
C213 C226 1.479 1_455 S
C214 C211 1.480 . S
C214 C215 1.383 . S
C214 C219 1.385 . S
C215 H196 0.947 . S
C215 C214 1.383 . S
C215 C216 1.388 . S
C216 H197 0.946 . S
C216 C215 1.388 . S
C216 C217 1.384 . S
C217 C216 1.384 . S
C217 C218 1.377 . S
C218 H198 0.953 . S
C218 C217 1.377 . S
C218 C219 1.369 . S
C219 H199 0.945 . S
C219 C214 1.385 . S
C219 C218 1.369 . S
C220 C212 1.457 . S
C220 C221 1.372 . S
C220 C225 1.364 . S
C221 H200 0.952 . S
C221 C220 1.372 . S
C221 C222 1.389 . S
C222 H201 0.949 . S
C222 C221 1.389 . S
C222 C223 1.399 . S
C223 C222 1.399 . S
C223 C224 1.386 . S
C224 H202 0.950 1_455 S
C224 C223 1.386 . S
C224 C225 1.379 . S
C225 H203 0.948 1_455 S
C225 C220 1.364 . S
C225 C224 1.379 . S
C226 C195 1.383 . S
C226 C213 1.479 1_655 S
C226 C227 1.398 . S
C227 C192 1.382 . S
C227 H204 0.951 . S
C227 C226 1.398 . S
C228 C229 1.384 . S
C228 H241 0.947 . S
C228 C263 1.382 . S
C229 C228 1.384 . S
C229 C230 1.378 . S
C230 C229 1.378 . S
C230 C231 1.378 . S
C230 H242 0.952 . S
C231 C230 1.378 . S
C231 H243 0.950 . S
C231 C262 1.383 . S
H232 C251 0.947 . S
H233 C252 0.946 . S
H234 C254 0.953 . S
H235 C255 0.945 . S
H236 C257 0.952 . S
H237 C258 0.949 . S
H238 C260 0.950 . S
H239 C261 0.948 . S
H240 C263 0.951 . S
H241 C228 0.947 . S
H242 C230 0.952 . S
H243 C231 0.950 . S
N244 C247 1.382 1_455 S
N244 C249 1.363 . S
N245 C247 1.371 . S
N245 C248 1.372 1_655 S
N246 C248 1.361 . S
N246 C249 1.377 . S
C247 N244 1.382 1_655 S
C247 N245 1.371 . S
C247 C250 1.480 . S
C248 N245 1.372 1_455 S
C248 N246 1.361 . S
C248 C256 1.457 . S
C249 N244 1.363 . S
C249 N246 1.377 . S
C249 C262 1.479 . S
C250 C247 1.480 . S
C250 C251 1.383 . S
C250 C255 1.385 . S
C251 H232 0.947 . S
C251 C250 1.383 . S
C251 C252 1.388 . S
C252 H233 0.946 . S
C252 C251 1.388 . S
C252 C253 1.384 . S
C253 C252 1.384 . S
C253 C254 1.377 . S
C254 H234 0.953 . S
C254 C253 1.377 . S
C254 C255 1.369 . S
C255 H235 0.945 . S
C255 C250 1.385 . S
C255 C254 1.369 . S
C256 C248 1.457 . S
C256 C257 1.372 1_455 S
C256 C261 1.364 . S
C257 H236 0.952 . S
C257 C256 1.372 1_655 S
C257 C258 1.389 . S
C258 H237 0.949 . S
C258 C257 1.389 . S
C258 C259 1.387 1_655 S
C259 C258 1.387 1_455 S
C259 C260 1.372 . S
C260 H238 0.950 . S
C260 C259 1.372 . S
C260 C261 1.379 . S
C261 H239 0.948 . S
C261 C256 1.364 . S
C261 C260 1.379 . S
C262 C231 1.383 . S
C262 C249 1.479 . S
C262 C263 1.398 . S
C263 C228 1.382 . S
C263 H240 0.951 . S
C263 C262 1.398 . S
C264 C265 1.384 . S
C264 H277 0.947 . S
C264 C299 1.382 . S
C265 C264 1.384 . S
C265 C266 1.378 . S
C266 C265 1.378 . S
C266 C267 1.378 . S
C266 H278 0.952 . S
C267 C266 1.378 . S
C267 H279 0.950 . S
C267 C298 1.383 . S
H268 C287 0.947 . S
H269 C288 0.946 . S
H270 C290 0.953 . S
H271 C291 0.945 . S
H272 C293 0.952 . S
H273 C294 0.949 . S
H274 C296 0.950 . S
H275 C297 0.948 . S
H276 C299 0.951 . S
H277 C264 0.947 . S
H278 C266 0.952 . S
H279 C267 0.950 . S
N280 C283 1.382 1_545 S
N280 C285 1.363 . S
N281 C283 1.371 . S
N281 C284 1.372 1_565 S
N282 C284 1.361 . S
N282 C285 1.377 . S
C283 N280 1.382 1_565 S
C283 N281 1.371 . S
C283 C286 1.480 . S
C284 N281 1.372 1_545 S
C284 N282 1.361 . S
C284 C292 1.457 . S
C285 N280 1.363 . S
C285 N282 1.377 . S
C285 C298 1.479 . S
C286 C283 1.480 . S
C286 C287 1.383 . S
C286 C291 1.385 . S
C287 H268 0.947 . S
C287 C286 1.383 . S
C287 C288 1.388 . S
C288 H269 0.946 . S
C288 C287 1.388 . S
C288 C289 1.384 . S
C289 C288 1.384 . S
C289 C290 1.377 . S
C290 H270 0.953 . S
C290 C289 1.377 . S
C290 C291 1.369 . S
C291 H271 0.945 . S
C291 C286 1.385 . S
C291 C290 1.369 . S
C292 C284 1.457 . S
C292 C293 1.372 1_545 S
C292 C297 1.364 . S
C293 H272 0.952 . S
C293 C292 1.372 1_565 S
C293 C294 1.389 . S
C294 H273 0.949 . S
C294 C293 1.389 . S
C294 C295 1.387 . S
C295 C294 1.387 . S
C295 C296 1.372 1_565 S
C296 H274 0.950 . S
C296 C295 1.372 1_545 S
C296 C297 1.379 . S
C297 H275 0.948 . S
C297 C292 1.364 . S
C297 C296 1.379 . S
C298 C267 1.383 . S
C298 C285 1.479 . S
C298 C299 1.398 . S
C299 C264 1.382 . S
C299 H276 0.951 . S
C299 C298 1.398 . S
C300 C301 1.384 . S
C300 H313 0.947 . S
C300 C335 1.382 . S
C301 C300 1.384 . S
C301 C302 1.378 . S
C302 C301 1.378 . S
C302 C303 1.378 . S
C302 H314 0.952 . S
C303 C302 1.378 . S
C303 H315 0.950 . S
C303 C334 1.383 . S
H304 C323 0.947 . S
H305 C324 0.946 . S
H306 C326 0.953 . S
H307 C327 0.945 . S
H308 C329 0.952 . S
H309 C330 0.949 . S
H310 C332 0.950 . S
H311 C333 0.948 . S
H312 C335 0.951 . S
H313 C300 0.947 . S
H314 C302 0.952 . S
H315 C303 0.950 . S
N316 C319 1.382 . S
N316 C321 1.363 . S
N317 C319 1.371 . S
N317 C320 1.372 . S
N318 C320 1.361 . S
N318 C321 1.377 . S
C319 N316 1.382 . S
C319 N317 1.371 . S
C319 C322 1.480 . S
C320 N317 1.372 . S
C320 N318 1.361 . S
C320 C328 1.457 . S
C321 N316 1.363 . S
C321 N318 1.377 . S
C321 C334 1.479 . S
C322 C319 1.480 . S
C322 C323 1.383 . S
C322 C327 1.385 . S
C323 H304 0.947 . S
C323 C322 1.383 . S
C323 C324 1.388 . S
C324 H305 0.946 . S
C324 C323 1.388 . S
C324 C325 1.384 . S
C325 C324 1.384 . S
C325 C326 1.377 . S
C326 H306 0.953 . S
C326 C325 1.377 . S
C326 C327 1.369 . S
C327 H307 0.945 . S
C327 C322 1.385 . S
C327 C326 1.369 . S
C328 C320 1.457 . S
C328 C329 1.372 . S
C328 C333 1.364 . S
C329 H308 0.952 . S
C329 C328 1.372 . S
C329 C330 1.389 1_554 S
C330 H309 0.949 . S
C330 C329 1.389 1_556 S
C330 C331 1.387 . S
C331 C330 1.387 . S
C331 C332 1.372 . S
C332 H310 0.950 . S
C332 C331 1.372 . S
C332 C333 1.379 1_556 S
C333 H311 0.948 . S
C333 C328 1.364 . S
C333 C332 1.379 1_554 S
C334 C303 1.383 . S
C334 C321 1.479 . S
C334 C335 1.398 . S
C335 C300 1.382 . S
C335 H312 0.951 . S
C335 C334 1.398 . S
C336 C337 1.387 . S
C336 H340 0.950 . S
C336 C345 1.390 . S
C337 C336 1.387 . S
C337 C339 1.387 . S
H338 C345 0.950 . S
C339 C337 1.387 . S
C339 C341 1.390 . S
C339 H343 0.950 . S
H340 C336 0.950 . S
C341 C339 1.390 . S
C341 C342 1.387 . S
C341 H344 0.950 . S
C342 C341 1.387 . S
C342 C345 1.387 . S
H343 C339 0.950 . S
H344 C341 0.950 . S
C345 C336 1.390 . S
C345 H338 0.950 . S
C345 C342 1.387 . S
C346 C347 1.387 . S
C346 H350 0.950 . S
C346 C355 1.390 . S
C347 C346 1.387 . S
C347 C349 1.387 . S
H348 C355 0.950 . S
C349 C347 1.387 . S
C349 C351 1.390 . S
C349 H353 0.950 . S
H350 C346 0.950 . S
C351 C349 1.390 . S
C351 C352 1.387 . S
C351 H354 0.950 . S
C352 C351 1.387 . S
C352 C355 1.387 . S
H353 C349 0.950 . S
H354 C351 0.950 . S
C355 C346 1.390 . S
C355 H348 0.950 . S
C355 C352 1.387 . S
C356 C357 1.387 . S
C356 H360 0.950 . S
C356 C365 1.390 . S
C357 C356 1.387 . S
C357 C359 1.387 . S
H358 C365 0.950 . S
C359 C357 1.387 . S
C359 C361 1.390 . S
C359 H363 0.950 . S
H360 C356 0.950 . S
C361 C359 1.390 . S
C361 C362 1.387 . S
C361 H364 0.950 . S
C362 C361 1.387 . S
C362 C365 1.387 . S
H363 C359 0.950 . S
H364 C361 0.950 . S
C365 C356 1.390 . S
C365 H358 0.950 . S
C365 C362 1.387 . S
C366 C367 1.387 . S
C366 H370 0.950 . S
C366 C375 1.390 . S
C367 C366 1.387 . S
C367 C369 1.387 . S
H368 C375 0.950 . S
C369 C367 1.387 . S
C369 C371 1.390 . S
C369 H373 0.950 . S
H370 C366 0.950 . S
C371 C369 1.390 . S
C371 C372 1.387 . S
C371 H374 0.950 . S
C372 C371 1.387 . S
C372 C375 1.387 . S
H373 C369 0.950 . S
H374 C371 0.950 . S
C375 C366 1.390 . S
C375 H368 0.950 . S
C375 C372 1.387 . S
C376 C377 1.387 . S
C376 H380 0.950 . S
C376 C385 1.390 . S
C377 C376 1.387 . S
C377 C379 1.387 . S
H378 C385 0.950 . S
C379 C377 1.387 . S
C379 C381 1.390 . S
C379 H383 0.950 . S
H380 C376 0.950 . S
C381 C379 1.390 . S
C381 C382 1.387 . S
C381 H384 0.950 . S
C382 C381 1.387 . S
C382 C385 1.387 . S
H383 C379 0.950 . S
H384 C381 0.950 . S
C385 C376 1.390 . S
C385 H378 0.950 . S
C385 C382 1.387 . S
C386 C387 1.387 . S
C386 H390 0.950 . S
C386 C395 1.390 . S
C387 C386 1.387 . S
C387 C389 1.387 . S
H388 C395 0.950 . S
C389 C387 1.387 . S
C389 C391 1.390 . S
C389 H393 0.950 . S
H390 C386 0.950 . S
C391 C389 1.390 . S
C391 C392 1.387 . S
C391 H394 0.950 . S
C392 C391 1.387 . S
C392 C395 1.387 . S
H393 C389 0.950 . S
H394 C391 0.950 . S
C395 C386 1.390 . S
C395 H388 0.950 . S
C395 C392 1.387 . S
C396 C397 1.387 . S
C396 H400 0.950 . S
C396 C405 1.390 . S
C397 C396 1.387 . S
C397 C399 1.387 . S
H398 C405 0.950 . S
C399 C397 1.387 . S
C399 C401 1.390 . S
C399 H403 0.950 . S
H400 C396 0.950 . S
C401 C399 1.390 . S
C401 C402 1.387 . S
C401 H404 0.950 . S
C402 C401 1.387 . S
C402 C405 1.387 . S
H403 C399 0.950 . S
H404 C401 0.950 . S
C405 C396 1.390 . S
C405 H398 0.950 . S
C405 C402 1.387 . S
C406 C407 1.387 . S
C406 H410 0.950 . S
C406 C415 1.390 . S
C407 C406 1.387 . S
C407 C409 1.387 . S
H408 C415 0.950 . S
C409 C407 1.387 . S
C409 C411 1.390 . S
C409 H413 0.950 . S
H410 C406 0.950 . S
C411 C409 1.390 . S
C411 C412 1.387 . S
C411 H414 0.950 . S
C412 C411 1.387 . S
C412 C415 1.387 . S
H413 C409 0.950 . S
H414 C411 0.950 . S
C415 C406 1.390 . S
C415 H408 0.950 . S
C415 C412 1.387 . S
C416 C417 1.387 . S
C416 H420 0.950 . S
C416 C425 1.390 . S
C417 C416 1.387 . S
C417 C419 1.387 . S
H418 C425 0.950 . S
C419 C417 1.387 . S
C419 C421 1.390 . S
C419 H423 0.950 . S
H420 C416 0.950 . S
C421 C419 1.390 . S
C421 C422 1.387 . S
C421 H424 0.950 . S
C422 C421 1.387 . S
C422 C425 1.387 . S
H423 C419 0.950 . S
H424 C421 0.950 . S
C425 C416 1.390 . S
C425 H418 0.950 . S
C425 C422 1.387 . S
C426 C427 1.387 . S
C426 H430 0.950 . S
C426 C435 1.390 . S
C427 C426 1.387 . S
C427 C429 1.387 . S
H428 C435 0.950 . S
C429 C427 1.387 . S
C429 C431 1.390 . S
C429 H433 0.950 . S
H430 C426 0.950 . S
C431 C429 1.390 . S
C431 C432 1.387 . S
C431 H434 0.950 . S
C432 C431 1.387 . S
C432 C435 1.387 . S
H433 C429 0.950 . S
H434 C431 0.950 . S
C435 C426 1.390 . S
C435 H428 0.950 . S
C435 C432 1.387 . S
C436 C437 1.387 . S
C436 H440 0.950 . S
C436 C445 1.390 . S
C437 C436 1.387 . S
C437 C439 1.387 . S
H438 C445 0.950 . S
C439 C437 1.387 . S
C439 C441 1.390 . S
C439 H443 0.950 . S
H440 C436 0.950 . S
C441 C439 1.390 . S
C441 C442 1.387 . S
C441 H444 0.950 . S
C442 C441 1.387 . S
C442 C445 1.387 . S
H443 C439 0.950 . S
H444 C441 0.950 . S
C445 C436 1.390 . S
C445 H438 0.950 . S
C445 C442 1.387 . S
C446 C447 1.387 . S
C446 H450 0.950 . S
C446 C455 1.390 . S
C447 C446 1.387 . S
C447 C449 1.387 . S
H448 C455 0.950 . S
C449 C447 1.387 . S
C449 C451 1.390 . S
C449 H453 0.950 . S
H450 C446 0.950 . S
C451 C449 1.390 . S
C451 C452 1.387 . S
C451 H454 0.950 . S
C452 C451 1.387 . S
C452 C455 1.387 . S
H453 C449 0.950 . S
H454 C451 0.950 . S
C455 C446 1.390 . S
C455 H448 0.950 . S
C455 C452 1.387 . S
C456 C457 1.387 1_655 S
C456 H460 0.950 . S
C456 C465 1.390 1_655 S
C457 C456 1.387 1_455 S
C457 C459 1.387 . S
H458 C465 0.950 1_655 S
C459 C457 1.387 . S
C459 C461 1.390 . S
C459 H463 0.950 . S
H460 C456 0.950 . S
C461 C459 1.390 . S
C461 C462 1.387 . S
C461 H464 0.950 . S
C462 C461 1.387 . S
C462 C465 1.387 . S
H463 C459 0.950 . S
H464 C461 0.950 . S
C465 C456 1.390 1_455 S
C465 H458 0.950 1_455 S
C465 C462 1.387 . S
C466 C467 1.387 . S
C466 H470 0.950 . S
C466 C475 1.390 . S
C467 C466 1.387 . S
C467 C469 1.387 . S
H468 C475 0.950 . S
C469 C467 1.387 . S
C469 C471 1.390 . S
C469 H473 0.950 1_545 S
H470 C466 0.950 . S
C471 C469 1.390 . S
C471 C472 1.387 . S
C471 H474 0.950 1_545 S
C472 C471 1.387 . S
C472 C475 1.387 . S
H473 C469 0.950 1_565 S
H474 C471 0.950 1_565 S
C475 C466 1.390 . S
C475 H468 0.950 . S
C475 C472 1.387 . S
C476 C477 1.387 . S
C476 H480 0.950 . S
C476 C485 1.390 . S
C477 C476 1.387 . S
C477 C479 1.387 . S
H478 C485 0.950 . S
C479 C477 1.387 . S
C479 C481 1.390 . S
C479 H483 0.950 . S
H480 C476 0.950 . S
C481 C479 1.390 . S
C481 C482 1.387 . S
C481 H484 0.950 . S
C482 C481 1.387 . S
C482 C485 1.387 . S
H483 C479 0.950 . S
H484 C481 0.950 . S
C485 C476 1.390 . S
C485 H478 0.950 . S
C485 C482 1.387 . S
C486 C487 1.387 . S
C486 H490 0.950 . S
C486 C495 1.390 . S
C487 C486 1.387 . S
C487 C489 1.387 1_545 S
H488 C495 0.950 . S
C489 C487 1.387 1_565 S
C489 C491 1.390 . S
C489 H493 0.950 . S
H490 C486 0.950 . S
C491 C489 1.390 . S
C491 C492 1.387 . S
C491 H494 0.950 . S
C492 C491 1.387 . S
C492 C495 1.387 1_565 S
H493 C489 0.950 . S
H494 C491 0.950 . S
C495 C486 1.390 . S
C495 H488 0.950 . S
C495 C492 1.387 1_545 S
C496 C497 1.387 . S
C496 H500 0.950 . S
C496 C505 1.390 . S
C497 C496 1.387 . S
C497 C499 1.387 . S
H498 C505 0.950 . S
C499 C497 1.387 . S
C499 C501 1.390 . S
C499 H503 0.950 . S
H500 C496 0.950 . S
C501 C499 1.390 . S
C501 C502 1.387 . S
C501 H504 0.950 . S
C502 C501 1.387 . S
C502 C505 1.387 . S
H503 C499 0.950 . S
H504 C501 0.950 . S
C505 C496 1.390 . S
C505 H498 0.950 . S
C505 C502 1.387 . S
C506 C507 1.387 . S
C506 H510 0.950 . S
C506 C515 1.390 . S
C507 C506 1.387 . S
C507 C509 1.387 1_455 S
H508 C515 0.950 . S
C509 C507 1.387 1_655 S
C509 C511 1.390 . S
C509 H513 0.950 . S
H510 C506 0.950 . S
C511 C509 1.390 . S
C511 C512 1.387 1_655 S
C511 H514 0.950 . S
C512 C511 1.387 1_455 S
C512 C515 1.387 . S
H513 C509 0.950 . S
H514 C511 0.950 . S
C515 C506 1.390 . S
C515 H508 0.950 . S
C515 C512 1.387 . S
C337 C7 0.986 . S
C342 C325 1.088 . S
C347 C51 2.014 . S
C352 C253 1.913 . S
C357 C87 1.367 . S
C362 C289 1.398 . S
C367 C16 0.669 . S
C372 C301 0.615 . S
C382 C229 2.082 . S
C377 C42 2.179 . S
C392 C265 1.411 . S
C387 C96 1.393 . S
C397 C47 1.280 . S
C402 C181 1.316 . S
C407 C91 3.191 . S
C412 C193 3.130 . S
C417 C2 2.216 . S
C422 C121 2.134 . S
C432 C157 1.419 . S
C427 C56 1.384 . S
C442 C217 2.999 . S
C437 C82 3.101 . S
C447 C11 2.009 . S
C452 C145 1.927 . S
C462 C223 1.758 1_554 S
C457 C19 1.726 . S
C467 C50 1.338 . S
C472 C151 1.365 . S
C477 C99 1.463 . S
C482 C187 1.509 . S
C492 C295 1.479 . S
C487 C59 1.459 . S
C502 C331 1.133 . S
C497 C90 1.136 . S
C507 C10 1.329 . S
C512 C259 1.350 . S
