# Generated by pormake.
# Topology pyr, (3,6)-cn, num edge types: 1
# Building blocks:
#     Node 0, Type 0, BuildingBlock: PAMTOO_clean_linker_0, # of connection points: 3
#     Node 1, Type 0, BuildingBlock: PAMTOO_clean_linker_0, # of connection points: 3
#     Node 2, Type 0, BuildingBlock: PAMTOO_clean_linker_0, # of connection points: 3
#     Node 3, Type 0, BuildingBlock: PAMTOO_clean_linker_0, # of connection points: 3
#     Node 4, Type 0, BuildingBlock: PAMTOO_clean_linker_0, # of connection points: 3
#     Node 5, Type 0, BuildingBlock: PAMTOO_clean_linker_0, # of connection points: 3
#     Node 6, Type 0, BuildingBlock: PAMTOO_clean_linker_0, # of connection points: 3
#     Node 7, Type 0, BuildingBlock: PAMTOO_clean_linker_0, # of connection points: 3
#     Node 8, Type 1, BuildingBlock: JUFBIX_clean_sbu_0, # of connection points: 6
#     Node 9, Type 1, BuildingBlock: JUFBIX_clean_sbu_0, # of connection points: 6
#     Node 10, Type 1, BuildingBlock: JUFBIX_clean_sbu_0, # of connection points: 6
#     Node 11, Type 1, BuildingBlock: JUFBIX_clean_sbu_0, # of connection points: 6
#     Edge 12, Type (0, 1), BuildingBlock: EZIPEK_clean_linker_0, # of connection points: 2
#     Edge 13, Type (0, 1), BuildingBlock: EZIPEK_clean_linker_0, # of connection points: 2
#     Edge 14, Type (0, 1), BuildingBlock: EZIPEK_clean_linker_0, # of connection points: 2
#     Edge 15, Type (0, 1), BuildingBlock: EZIPEK_clean_linker_0, # of connection points: 2
#     Edge 16, Type (0, 1), BuildingBlock: EZIPEK_clean_linker_0, # of connection points: 2
#     Edge 17, Type (0, 1), BuildingBlock: EZIPEK_clean_linker_0, # of connection points: 2
#     Edge 18, Type (0, 1), BuildingBlock: EZIPEK_clean_linker_0, # of connection points: 2
#     Edge 19, Type (0, 1), BuildingBlock: EZIPEK_clean_linker_0, # of connection points: 2
#     Edge 20, Type (0, 1), BuildingBlock: EZIPEK_clean_linker_0, # of connection points: 2
#     Edge 21, Type (0, 1), BuildingBlock: EZIPEK_clean_linker_0, # of connection points: 2
#     Edge 22, Type (0, 1), BuildingBlock: EZIPEK_clean_linker_0, # of connection points: 2
#     Edge 23, Type (0, 1), BuildingBlock: EZIPEK_clean_linker_0, # of connection points: 2
#     Edge 24, Type (0, 1), BuildingBlock: EZIPEK_clean_linker_0, # of connection points: 2
#     Edge 25, Type (0, 1), BuildingBlock: EZIPEK_clean_linker_0, # of connection points: 2
#     Edge 26, Type (0, 1), BuildingBlock: EZIPEK_clean_linker_0, # of connection points: 2
#     Edge 27, Type (0, 1), BuildingBlock: EZIPEK_clean_linker_0, # of connection points: 2
#     Edge 28, Type (0, 1), BuildingBlock: EZIPEK_clean_linker_0, # of connection points: 2
#     Edge 29, Type (0, 1), BuildingBlock: EZIPEK_clean_linker_0, # of connection points: 2
#     Edge 30, Type (0, 1), BuildingBlock: EZIPEK_clean_linker_0, # of connection points: 2
#     Edge 31, Type (0, 1), BuildingBlock: EZIPEK_clean_linker_0, # of connection points: 2
#     Edge 32, Type (0, 1), BuildingBlock: EZIPEK_clean_linker_0, # of connection points: 2
#     Edge 33, Type (0, 1), BuildingBlock: EZIPEK_clean_linker_0, # of connection points: 2
#     Edge 34, Type (0, 1), BuildingBlock: EZIPEK_clean_linker_0, # of connection points: 2
#     Edge 35, Type (0, 1), BuildingBlock: EZIPEK_clean_linker_0, # of connection points: 2
# Relax obj value: 0.162
# Max RMSD: 0.207
# Mean RMSD: 0.140
data_MOF--net-pry--node1-JUFBIX_clean_sbu_0--node2-PAMTOO_clean_linker_0--edge1-EZIPEK_clean_linker_0
_symmetry_space_group_name_H-M    P1
_symmetry_Int_Tables_number       1
_symmetry_cell_setting            triclinic
loop_
_symmetry_equiv_pos_as_xyz
'x, y, z'
_cell_length_a     26.626709
_cell_length_b     25.793906
_cell_length_c     27.14613
_cell_angle_alpha  82.156755
_cell_angle_beta   89.764168
_cell_angle_gamma 95.242574
loop_
_atom_site_label
_atom_site_type_symbol
_atom_site_fract_x
_atom_site_fract_y
_atom_site_fract_z
_atom_type_partial_charge
H0 H 0.12937 0.22453 0.25901 0.0
H1 H 0.23987 0.11139 0.27669 0.0
H2 H 0.24014 0.2223 0.14283 0.0
H3 H 0.27155 0.11759 0.12807 0.0
C4 C 0.29506 0.10987 0.16151 0.0
O5 O 0.29063 0.14885 0.19203 0.0
H6 H 0.27747 0.07178 0.18093 0.0
C7 C 0.16108 0.20754 0.24439 0.0
C8 C 0.18151 0.22894 0.19679 0.0
C9 C 0.18053 0.16413 0.27321 0.0
C10 C 0.22329 0.14334 0.25439 0.0
C11 C 0.2456 0.16458 0.20745 0.0
C12 C 0.22345 0.20627 0.17877 0.0
H13 H 0.40759 0.98918 0.65426 0.0
H14 H 0.40957 0.86667 0.56209 0.0
H15 H 0.50619 0.8663 0.68793 0.0
H16 H 0.55811 0.84338 0.59505 0.0
C17 C 0.52522 0.82128 0.58016 0.0
O18 O 0.48304 0.82099 0.60992 0.0
H19 H 0.52011 0.84395 0.54295 0.0
C20 C 0.42432 0.95513 0.64434 0.0
C21 C 0.45939 0.93118 0.67618 0.0
C22 C 0.40313 0.9297 0.60602 0.0
C23 C 0.42541 0.88651 0.59194 0.0
C24 C 0.46457 0.86539 0.62033 0.0
C25 C 0.4799 0.88633 0.66347 0.0
H26 H 0.77837 0.2919 0.99654 0.0
H27 H 0.68513 0.30482 0.86712 0.0
H28 H 0.80428 0.42531 0.88181 0.0
H29 H 0.68654 0.45023 0.8429 0.0
C30 C 0.68678 0.4192 0.81842 0.0
O31 O 0.73065 0.39433 0.825 0.0
H32 H 0.65368 0.39109 0.83143 0.0
C33 C 0.76853 0.31327 0.96125 0.0
C34 C 0.79696 0.36073 0.94217 0.0
C35 C 0.72764 0.29329 0.9344 0.0
C36 C 0.71603 0.32048 0.88819 0.0
C37 C 0.74286 0.36846 0.86961 0.0
C38 C 0.78307 0.38862 0.89673 0.0
H39 H 0.93013 0.73124 0.51122 0.0
H40 H 0.97823 0.61226 0.43187 0.0
H41 H 0.08375 0.73923 0.45673 0.0
H42 H 0.11796 0.67907 0.35669 0.0
C43 C 0.07696 0.6723 0.3656 0.0
O44 O 0.07044 0.65578 0.41598 0.0
H45 H 0.06434 0.71207 0.35469 0.0
C46 C 0.96123 0.71431 0.49572 0.0
C47 C 1.01116 0.73871 0.49525 0.0
C48 C 0.94949 0.66872 0.47376 0.0
C49 C 0.9871 0.6473 0.44929 0.0
C50 C 0.03531 0.6735 0.44377 0.0
C51 C 0.04701 0.71906 0.46564 0.0
H52 H 0.82161 0.96589 0.82871 0.0
H53 H 0.83001 0.85294 0.96074 0.0
H54 H 0.94237 0.86383 0.84502 0.0
H55 H 0.88128 0.7507 0.9019 0.0
C56 C 0.89686 0.76101 0.93756 0.0
O57 O 0.91291 0.81447 0.93266 0.0
H58 H 0.86397 0.753 0.96371 0.0
C59 C 0.84023 0.93474 0.84996 0.0
C60 C 0.88507 0.9182 0.83019 0.0
C61 C 0.81976 0.91162 0.89744 0.0
C62 C 0.84461 0.87081 0.92447 0.0
C63 C 0.88822 0.85277 0.90527 0.0
C64 C 0.90813 0.87697 0.85878 0.0
H65 H 0.69287 0.10122 0.40237 0.0
H66 H 0.53698 0.13134 0.392 0.0
H67 H 0.62364 0.17176 0.51715 0.0
H68 H 0.47487 0.21504 0.46916 0.0
C69 C 0.51531 0.21794 0.45799 0.0
O70 O 0.53446 0.17117 0.47591 0.0
H71 H 0.51399 0.22317 0.41671 0.0
C72 C 0.66017 0.11631 0.4174 0.0
C73 C 0.66344 0.13623 0.46279 0.0
C74 C 0.61499 0.11485 0.39157 0.0
C75 C 0.57238 0.13305 0.41152 0.0
C76 C 0.57578 0.15453 0.45634 0.0
C77 C 0.62142 0.15637 0.48196 0.0
H78 H 0.33926 0.72698 0.09458 0.0
H79 H 0.31543 0.602 0.21792 0.0
H80 H 0.44324 0.71565 0.21597 0.0
H81 H 0.46035 0.60247 0.24035 0.0
C82 C 0.42885 0.5917 0.26793 0.0
O83 O 0.39645 0.63087 0.26532 0.0
H84 H 0.40918 0.55573 0.25608 0.0
C85 C 0.35076 0.70728 0.13 0.0
C86 C 0.39479 0.72722 0.15274 0.0
C87 C 0.32165 0.66176 0.15329 0.0
C88 C 0.33721 0.63683 0.19942 0.0
C89 C 0.38135 0.65569 0.22143 0.0
C90 C 0.40963 0.70075 0.19825 0.0
H91 H 0.04765 0.33558 0.71359 0.0
H92 H 0.13638 0.47935 0.65573 0.0
H93 H 0.08799 0.36817 0.558 0.0
H94 H 0.17987 0.44595 0.50187 0.0
C95 C 0.18194 0.43565 0.54276 0.0
O96 O 0.14212 0.45587 0.56452 0.0
H97 H 0.17758 0.39199 0.54695 0.0
C98 C 0.06475 0.36192 0.68225 0.0
C99 C 0.06569 0.3455 0.63493 0.0
C100 C 0.08971 0.41059 0.68982 0.0
C101 C 0.11493 0.44304 0.64976 0.0
C102 C 0.11367 0.42787 0.60217 0.0
C103 C 0.08716 0.38034 0.59466 0.0
Co104 Co 0.99692 0.05051 0.53668 0.0
C105 C 1.02846 0.95289 0.53184 0.0
Co106 Co 0.07089 0.0408 0.57003 0.0
C107 C 0.89651 0.08248 0.52768 0.0
C108 C 0.91888 0.04713 0.46494 0.0
N109 N 0.93504 0.06022 0.50904 0.0
N110 N 0.85706 0.08351 0.49689 0.0
C111 C 0.87072 0.06144 0.45739 0.0
H112 H 0.89728 0.09761 0.56299 0.0
H113 H 0.94082 0.0286 0.43986 0.0
C114 C 0.03824 0.1374 0.57787 0.0
N115 N 0.13376 0.03101 0.59614 0.0
C116 C 0.17124 0.01026 0.57398 0.0
C117 C 0.15255 0.04187 0.64004 0.0
N118 N 0.21249 1.00776 0.60227 0.0
C119 C 0.2011 0.02728 0.64401 0.0
C120 C 0.07809 0.08236 0.46725 0.0
O121 O 0.99967 0.11839 0.55684 0.0
O122 O 0.07567 0.11029 0.58555 0.0
O123 O 0.10335 0.06645 0.50521 0.0
O124 O 0.03022 0.08013 0.47254 0.0
O125 O 0.06562 0.97135 0.55511 0.0
H126 H 0.13209 0.05859 0.66757 0.0
H127 H 0.16805 0.99615 0.53825 0.0
O128 O 0.99388 0.98197 0.5176 0.0
O129 O 0.96401 0.02097 0.60033 0.0
O130 O 0.03769 0.01493 0.63518 0.0
C131 C 0.98954 1.00877 0.6392 0.0
H132 H 0.8475 0.05631 0.42546 0.0
H133 H 0.2258 0.02983 0.67533 0.0
Co134 Co 0.54008 1.00931 1.00558 0.0
C135 C 0.52406 0.91751 0.07768 0.0
Co136 Co 0.58388 0.01065 0.07356 0.0
C137 C 0.51493 1.00757 0.90152 0.0
C138 C 0.45582 0.97412 0.95319 0.0
N139 N 0.50195 1.00076 0.95029 0.0
N140 N 0.47943 0.98392 0.87443 0.0
C141 C 0.44242 0.96288 0.90708 0.0
H142 H 0.55068 0.0269 0.88669 0.0
H143 H 0.43447 0.96079 0.98727 0.0
C144 C 0.60049 0.10136 1.00282 0.0
N145 N 0.62046 0.01758 0.13033 0.0
C146 C 0.60143 0.02019 0.17597 0.0
C147 C 0.6704 0.03132 0.13339 0.0
N148 N 0.63714 0.03629 0.20677 0.0
C149 C 0.68073 0.04317 0.18049 0.0
C150 C 0.63843 0.97274 0.99793 0.0
O151 O 0.56765 0.0783 0.97716 0.0
O152 O 0.61112 0.0792 0.04571 0.0
O153 O 0.64067 0.98163 0.04313 0.0
O154 O 0.59714 0.98016 0.97528 0.0
O155 O 0.55728 0.94145 0.10183 0.0
H156 H 0.69687 0.03647 0.10242 0.0
H157 H 0.56164 0.01455 0.18556 0.0
O158 O 0.51269 0.93994 0.03515 0.0
O159 O 0.48361 0.03924 0.03477 0.0
O160 O 0.52625 0.04069 0.10288 0.0
C161 C 0.48579 0.04956 0.07932 0.0
H162 H 0.40845 0.93978 0.89824 0.0
H163 H 0.7165 0.05937 0.19329 0.0
Co164 Co 0.60636 0.5234 0.5202 0.0
C165 C 0.52406 0.53503 0.45853 0.0
Co166 Co 0.53339 0.50158 0.55943 0.0
C167 C 0.70882 0.56959 0.50235 0.0
C168 C 0.67995 0.53106 0.44188 0.0
N169 N 0.66722 0.54282 0.48701 0.0
N170 N 0.7468 0.57449 0.46863 0.0
C171 C 0.729 0.55055 0.43047 0.0
H172 H 0.71149 0.58465 0.53767 0.0
H173 H 0.6553 0.50931 0.41888 0.0
C174 C 0.61569 0.48963 0.62117 0.0
N175 N 0.47225 0.48029 0.59135 0.0
C176 C 0.42822 0.50187 0.58323 0.0
C177 C 0.45951 0.43182 0.61589 0.0
N178 N 0.38824 0.46723 0.59841 0.0
C179 C 0.40802 0.42343 0.61957 0.0
C180 C 0.57265 0.419 0.52028 0.0
O181 O 0.64065 0.50844 0.58174 0.0
O182 O 0.56787 0.48272 0.61982 0.0
O183 O 0.53558 0.43302 0.54285 0.0
O184 O 0.61033 0.45227 0.5081 0.0
O185 O 0.49931 0.52033 0.49886 0.0
H186 H 0.48564 0.40262 0.62609 0.0
H187 H 0.42538 0.54029 0.56226 0.0
O188 O 0.5719 0.53807 0.45919 0.0
O189 O 0.60121 0.59479 0.5319 0.0
O190 O 0.53076 0.57047 0.57482 0.0
C191 C 0.56415 0.6065 0.55679 0.0
H192 H 0.75016 0.54718 0.3971 0.0
H193 H 0.38659 0.38661 0.6336 0.0
Co194 Co 0.07649 0.50275 1.01918 0.0
C195 C 0.9774 0.4533 0.0296 0.0
Co196 Co 0.04007 0.50525 0.09149 0.0
C197 C 0.09083 0.46872 0.92321 0.0
C198 C 0.13662 0.53966 0.9313 0.0
N199 N 0.10392 0.50197 0.95637 0.0
N200 N 0.11377 0.4846 0.8787 0.0
C201 C 0.1428 0.52896 0.88347 0.0
H202 H 0.06344 0.43481 0.93065 0.0
H203 H 0.15302 0.57416 0.94599 0.0
C204 C 0.1389 0.55646 0.08047 0.0
N205 N 1.0127 0.50792 0.15372 0.0
C206 C 1.02367 0.54651 0.18187 0.0
C207 C 0.98329 0.47067 0.18322 0.0
N208 N 1.00337 0.53449 0.22781 0.0
C209 C 0.97742 0.48704 0.2291 0.0
C210 C 0.09606 0.41633 0.08957 0.0
O211 O 0.13785 0.5393 0.03879 0.0
O212 O 0.10019 0.54662 0.10881 0.0
O213 O 0.07038 0.4409 0.11714 0.0
O214 O 0.1025 0.43557 0.04378 0.0
O215 O 0.98046 0.46468 0.07369 0.0
H216 H 0.96931 0.43298 0.17296 0.0
H217 H 0.04822 0.58185 0.16998 0.0
O218 O 1.01492 0.4664 1.00001 0.0
O219 O 0.05009 0.56964 0.99521 0.0
O220 O 1.00954 0.56872 0.0654 0.0
C221 C 1.01942 0.59062 1.02099 0.0
H222 H 0.16508 0.55291 0.85389 0.0
H223 H 0.95841 0.46471 0.26162 0.0
C224 C 0.17138 0.16161 0.36775 0.0
C225 C 0.15576 0.14135 0.32343 0.0
C226 C 0.09194 0.07958 0.37388 0.0
C227 C 0.10452 0.10304 0.41741 0.0
N228 N 0.1515 0.17266 0.45315 0.0
N229 N 0.09627 0.08532 0.28358 0.0
C230 C 0.14324 0.14556 0.41359 0.0
C231 C 0.11457 0.10158 0.32643 0.0
N232 N 0.21374 0.19598 0.36622 0.0
N233 N 0.06008 0.03448 0.37814 0.0
H234 H 0.11276 0.09878 0.24871 0.0
H235 H 0.06275 0.06144 0.28209 0.0
H236 H 0.04358 0.01665 0.41186 0.0
H237 H 0.05355 0.01203 0.34934 0.0
H238 H 0.23082 0.20776 0.39781 0.0
H239 H 0.23429 0.20957 0.33347 0.0
H240 H 0.17505 0.20738 0.45148 0.0
H241 H 0.1312 0.16326 0.4866 0.0
C242 C 0.5163 0.95477 0.74667 0.0
C243 C 0.46739 0.9482 0.72629 0.0
C244 C 0.43342 0.98369 0.79666 0.0
C245 C 0.47921 0.97888 0.82213 0.0
N246 N 0.56229 0.94709 0.8234 0.0
N247 N 0.37718 0.93918 0.74438 0.0
C248 C 0.52062 0.96129 0.79776 0.0
C249 C 0.42508 0.95794 0.75465 0.0
N250 N 0.55841 0.9557 0.71765 0.0
N251 N 0.39749 0.01195 0.81311 0.0
H252 H 0.36943 0.91348 0.71834 0.0
H253 H 0.34618 0.94337 0.76665 0.0
H254 H 0.40383 0.03372 0.84258 0.0
H255 H 0.36438 0.01834 0.79368 0.0
H256 H 0.59466 0.96416 0.73058 0.0
H257 H 0.55672 0.95392 0.67953 0.0
H258 H 0.59127 0.93019 0.80729 0.0
H259 H 0.56527 0.94611 0.8617 0.0
C260 C 0.67695 0.49366 0.74752 0.0
C261 C 0.67912 0.43907 0.76353 0.0
C262 C 0.65555 0.42187 0.67934 0.0
C263 C 0.64198 0.4739 0.66818 0.0
N264 N 0.63571 0.55901 0.69364 0.0
N265 N 0.66839 0.34996 0.74356 0.0
C266 C 0.65168 0.50986 0.70277 0.0
C267 C 0.66833 0.40278 0.72893 0.0
N268 N 0.7005 0.53012 0.77377 0.0
N269 N 0.65707 0.39097 0.64241 0.0
H270 H 0.67896 0.33378 0.77878 0.0
H271 H 0.6547 0.32189 0.72154 0.0
H272 H 0.64924 0.40447 0.60551 0.0
H273 H 0.67109 0.35424 0.64737 0.0
H274 H 0.70281 0.57038 0.76157 0.0
H275 H 0.72369 0.52004 0.80375 0.0
H276 H 0.6375 0.58504 0.7199 0.0
H277 H 0.61668 0.57186 0.66143 0.0
C278 C 0.0774 0.58532 0.33121 0.0
C279 C 0.05235 0.63098 0.33607 0.0
C280 C 0.9895 0.60639 0.27545 0.0
C281 C 1.01596 0.56289 0.26869 0.0
N282 N 0.07973 0.50513 0.29348 0.0
N283 N 0.97561 0.67487 0.32517 0.0
C284 C 0.05812 0.55038 0.29804 0.0
C285 C 1.00552 0.63842 0.3121 0.0
N286 N 0.12027 0.5762 0.35743 0.0
N287 N 0.95004 0.61802 0.24519 0.0
H288 H 0.98485 0.69857 0.35247 0.0
H289 H 0.93897 0.67809 0.31266 0.0
H290 H 0.9364 0.59376 0.21949 0.0
H291 H 0.93284 0.65287 0.24339 0.0
H292 H 0.14395 0.54769 0.35155 0.0
H293 H 0.13324 0.59783 0.38531 0.0
H294 H 0.10789 0.49044 0.31626 0.0
H295 H 0.06757 0.48017 0.26794 0.0
C296 C 0.37815 0.06482 0.17295 0.0
C297 C 0.35059 0.10348 0.14548 0.0
C298 C 0.41891 0.11575 0.08055 0.0
C299 C 0.44095 0.07033 0.10375 0.0
N300 N 0.43675 0.99849 0.17096 0.0
N301 N 0.34829 0.17026 0.07458 0.0
C302 C 0.41962 0.04457 0.15004 0.0
C303 C 0.37236 0.13049 0.09984 0.0
N304 N 0.36524 0.04792 0.2216 0.0
N305 N 0.44373 0.14628 0.04118 0.0
H306 H 0.31833 0.18624 0.09007 0.0
H307 H 0.35719 0.18673 0.03809 0.0
H308 H 0.47794 0.13754 0.02697 0.0
H309 H 0.43308 0.18255 1.02524 0.0
H310 H 0.38652 0.02355 0.24521 0.0
H311 H 0.33666 0.06331 0.23988 0.0
H312 H 0.41924 0.97457 0.20137 0.0
H313 H 0.46552 0.98155 0.15489 0.0
C314 C 0.34547 0.99204 0.56335 0.0
C315 C 0.35153 0.94212 0.59058 0.0
C316 C 0.26111 0.93071 0.61183 0.0
C317 C 0.25756 0.98386 0.59263 0.0
N318 N 0.2938 0.06557 0.5484 0.0
N319 N 0.31523 0.86374 0.64272 0.0
C320 C 0.29889 0.01447 0.56709 0.0
C321 C 0.3091 0.91072 0.61434 0.0
N322 N 0.38475 0.01787 0.53475 0.0
N323 N 0.21837 0.8997 0.62824 0.0
H324 H 0.34925 0.84676 0.64548 0.0
H325 H 0.28722 0.84282 0.66624 0.0
H326 H 0.18298 0.91408 0.62799 0.0
H327 H 0.21718 0.85913 0.63793 0.0
H328 H 0.38237 0.05295 0.51126 0.0
H329 H 0.41889 1.00152 0.53161 0.0
H330 H 0.32353 0.09212 0.53346 0.0
H331 H 0.25958 0.0821 0.54998 0.0
C332 C 0.83931 0.42621 0.9935 0.0
C333 C 0.84203 0.38134 0.96894 0.0
C334 C 0.93113 0.37855 0.99238 0.0
C335 C 0.92994 0.42698 1.01159 0.0
N336 N 0.88452 0.50135 1.02341 0.0
N337 N 0.89211 0.31816 0.93951 0.0
C338 C 0.88435 0.45185 1.01065 0.0
C339 C 0.88835 0.35823 0.9671 0.0
N340 N 0.79344 0.44385 1.00119 0.0
N341 N 0.97269 0.35115 0.99955 0.0
H342 H 0.8617 0.30184 0.92088 0.0
H343 H 0.92618 0.30377 0.93187 0.0
H344 H 1.00442 0.3645 1.01828 0.0
H345 H 0.974 0.31311 0.99111 0.0
H346 H 0.7882 0.47287 1.0234 0.0
H347 H 0.75978 0.42612 0.98907 0.0
H348 H 0.85401 0.5239 1.0179 0.0
H349 H 0.91659 0.522 0.03541 0.0
C350 C 0.88171 0.59826 0.50628 0.0
C351 C 0.89665 0.64513 0.47385 0.0
C352 C 0.81036 0.64862 0.44362 0.0
C353 C 0.79677 0.59939 0.47237 0.0
N354 N 0.8193 0.52352 0.52618 0.0
N355 N 0.87762 0.71185 0.40693 0.0
C356 C 0.83237 0.5732 0.50259 0.0
C357 C 0.86159 0.66964 0.44125 0.0
N358 N 0.91429 0.57853 0.54128 0.0
N359 N 0.77375 0.67559 0.41958 0.0
H360 H 0.91483 0.72868 0.40424 0.0
H361 H 0.85504 0.72781 0.37863 0.0
H362 H 0.73588 0.6608 0.42098 0.0
H363 H 0.78001 0.7141 0.4019 0.0
H364 H 0.90396 0.54755 0.56926 0.0
H365 H 0.95086 0.59579 0.54479 0.0
H366 H 0.84488 0.49984 0.54463 0.0
H367 H 0.78327 0.5044 0.52412 0.0
C368 C 0.1066 0.2749 0.15687 0.0
C369 C 0.15938 0.27572 0.1663 0.0
C370 C 0.17067 0.36171 0.11243 0.0
C371 C 0.11765 0.36559 0.11138 0.0
N372 N 0.0345 0.32443 0.13537 0.0
N373 N 0.23961 0.32846 0.1611 0.0
C374 C 0.0855 0.32185 0.13484 0.0
C375 C 0.19088 0.32141 0.14605 0.0
N376 N 0.0768 0.22853 0.16615 0.0
N377 N 0.20228 0.39572 0.08101 0.0
H378 H 0.25508 0.30245 0.18839 0.0
H379 H 0.26253 0.3633 0.15088 0.0
H380 H 0.18967 0.42511 0.05515 0.0
H381 H 0.24059 0.39124 0.07742 0.0
H382 H 0.03918 0.22429 0.15579 0.0
H383 H 0.09105 0.19291 0.17898 0.0
H384 H 1.0097 0.29681 0.15704 0.0
H385 H 1.01714 0.35556 0.11608 0.0
C386 C 0.65718 0.24438 0.98948 0.0
C387 C 0.69612 0.24369 0.95372 0.0
C388 C 0.66619 0.15262 0.94395 0.0
C389 C 0.62975 0.15186 0.98259 0.0
N390 N 0.59359 0.19485 0.04595 0.0
N391 N 0.74308 0.19539 0.90251 0.0
C392 C 0.62626 0.19714 1.00654 0.0
C393 C 0.702 0.1973 0.93241 0.0
N394 N 0.64854 0.29071 1.00577 0.0
N395 N 0.6667 0.11067 0.91817 0.0
H396 H 0.77011 0.22725 0.89351 0.0
H397 H 0.75297 0.16117 0.89018 0.0
H398 H 0.64289 0.07624 0.92661 0.0
H399 H 0.68834 0.11114 0.88606 0.0
H400 H 0.61723 0.29539 0.02726 0.0
H401 H 0.67092 0.3258 0.99495 0.0
H402 H 0.59373 0.22388 0.0691 0.0
H403 H 0.56781 0.16244 0.05729 0.0
C404 C 0.98615 0.80684 0.54865 0.0
C405 C 1.02286 0.78832 0.51927 0.0
C406 C 0.06725 0.87614 0.50578 0.0
C407 C 1.02482 0.89671 0.52521 0.0
N408 N 0.94262 0.88022 0.56648 0.0
N409 N 0.1134 0.79971 0.51292 0.0
C410 C 0.98381 0.86174 0.54711 0.0
C411 C 0.06838 0.82103 0.50943 0.0
N412 N 0.95885 0.77221 0.5834 0.0
N413 N 0.106 0.90891 0.48261 0.0
H414 H 0.11533 0.75995 0.52608 0.0
H415 H 0.14803 0.82241 0.51046 0.0
H416 H 0.10586 0.94973 0.47707 0.0
H417 H 0.13569 0.89494 0.46468 0.0
H418 H 0.93518 0.78377 0.60975 0.0
H419 H 0.9653 0.73251 0.58955 0.0
H420 H 0.90985 0.85607 0.57753 0.0
H421 H 0.93976 0.91969 0.56921 0.0
C422 C 0.5043 0.73667 0.54256 0.0
C423 C 0.53455 0.7648 0.57506 0.0
C424 C 0.58824 0.6918 0.58973 0.0
C425 C 0.55616 0.66221 0.56027 0.0
N426 N 0.4801 0.65398 0.51252 0.0
N427 N 0.59373 0.76006 0.64268 0.0
C428 C 0.51313 0.68395 0.53786 0.0
C429 C 0.57329 0.73988 0.60243 0.0
N430 N 0.46716 0.76032 0.51579 0.0
N431 N 0.63302 0.67422 0.60572 0.0
H432 H 0.58066 0.7921 0.65666 0.0
H433 H 0.61893 0.74077 0.66628 0.0
H434 H 0.64542 0.63928 0.59718 0.0
H435 H 0.66002 0.69688 0.62324 0.0
H436 H 0.44939 0.74527 0.486 0.0
H437 H 0.45506 0.79628 0.52166 0.0
H438 H 0.4445 0.66436 0.50175 0.0
H439 H 0.48701 0.6171 0.50422 0.0
C440 C 0.9248 0.9979 0.76938 0.0
C441 C 0.90901 0.94299 0.77982 0.0
C442 C 0.95224 0.93113 0.7013 0.0
C443 C 0.96294 0.98633 0.68834 0.0
N444 N 0.95064 0.07292 0.70699 0.0
N445 N 0.89785 0.86016 0.74738 0.0
C446 C 0.94632 0.01986 0.72142 0.0
C447 C 0.91999 0.91049 0.74328 0.0
N448 N 0.92211 0.02895 0.80605 0.0
N449 N 0.97392 0.89796 0.67424 0.0
H450 H 0.87209 0.84443 0.77576 0.0
H451 H 0.90058 0.83623 0.71969 0.0
H452 H 0.9985 0.91154 0.6443 0.0
H453 H 0.97149 0.85737 0.68451 0.0
H454 H 0.93771 0.06785 0.80233 0.0
H455 H 0.90894 0.01454 0.84194 0.0
H456 H 0.93463 0.09914 0.72699 0.0
H457 H 0.96652 0.09023 0.67281 0.0
C458 C 0.61203 0.03924 0.3426 0.0
C459 C 0.61363 0.09431 0.34323 0.0
C460 C 0.62359 0.10993 0.25262 0.0
C461 C 0.62795 0.05563 0.25277 0.0
N462 N 0.62896 0.96836 0.29608 0.0
N463 N 0.62548 0.18294 0.30024 0.0
C464 C 0.62254 0.0201 0.29731 0.0
C465 C 0.6202 0.12998 0.29854 0.0
N466 N 0.59992 1.00556 0.38523 0.0
N467 N 0.62172 0.14198 0.20834 0.0
H468 H 0.62227 0.19921 0.33309 0.0
H469 H 0.63632 0.21076 0.26969 0.0
H470 H 0.62462 0.12843 0.17406 0.0
H471 H 0.61325 0.18089 0.20537 0.0
H472 H 0.59391 0.96495 0.38663 0.0
H473 H 0.59201 0.01859 0.41892 0.0
H474 H 0.63051 0.94075 0.32766 0.0
H475 H 0.63591 0.95364 0.26299 0.0
C476 C 0.49129 0.61367 0.3354 0.0
C477 C 0.44964 0.58114 0.32031 0.0
C478 C 0.45682 0.51852 0.39593 0.0
C479 C 0.49752 0.55146 0.41168 0.0
N480 N 0.54326 0.6376 0.40328 0.0
N481 N 0.38149 0.51449 0.34671 0.0
C482 C 0.51191 0.60115 0.38338 0.0
C483 C 0.42876 0.53728 0.35388 0.0
N484 N 0.51166 0.65637 0.30395 0.0
N485 N 0.44626 0.46836 0.41946 0.0
H486 H 0.35816 0.52942 0.3185 0.0
H487 H 0.36311 0.48517 0.37249 0.0
H488 H 0.46709 0.45208 0.44915 0.0
H489 H 0.42006 0.44125 0.40622 0.0
H490 H 0.54618 0.67674 0.31005 0.0
H491 H 0.49549 0.6702 0.27049 0.0
H492 H 0.5505 0.67646 0.38675 0.0
H493 H 0.55794 0.63094 0.43886 0.0
C494 C 0.05759 0.45817 0.75654 0.0
C495 C 0.0932 0.42598 0.74059 0.0
C496 C 0.13741 0.42648 0.81973 0.0
C497 C 0.10485 0.46247 0.83344 0.0
N498 N 0.03607 0.51573 0.81577 0.0
N499 N 0.16871 0.38146 0.75487 0.0
C500 C 0.06523 0.47894 0.80218 0.0
C501 C 0.13345 0.41035 0.77179 0.0
N502 N 1.01626 0.46816 0.7283 0.0
N503 N 0.17168 0.40744 0.85322 0.0
H504 H 0.16583 0.36731 0.72082 0.0
H505 H 0.20213 0.37382 0.77302 0.0
H506 H 0.17565 0.41967 0.88821 0.0
H507 H 0.1936 0.37717 0.84806 0.0
H508 H 0.98634 0.48713 0.73979 0.0
H509 H 1.01007 0.45418 0.69432 0.0
H510 H 1.00981 0.53389 0.79276 0.0
H511 H 0.04019 0.53043 0.84963 0.0
C512 C 0.77709 0.97019 0.95132 0.0
C513 C 0.77274 0.92994 0.9201 0.0
C514 C 0.68101 0.91558 0.94138 0.0
C515 C 0.68471 0.95786 0.97065 0.0
N516 N 0.73589 0.03352 0.99209 0.0
N517 N 0.7184 0.8705 0.8789 0.0
C518 C 0.73277 0.98722 0.97258 0.0
C519 C 0.72395 0.90469 0.91318 0.0
N520 N 0.82399 0.99189 0.96151 0.0
N521 N 0.63701 0.88382 0.94233 0.0
H522 H 0.74876 0.86076 0.85869 0.0
H523 H 0.68351 0.85527 0.86739 0.0
H524 H 0.60531 0.88976 0.96255 0.0
H525 H 0.63311 0.84899 0.92676 0.0
H526 H 0.83056 0.01643 0.98871 0.0
H527 H 0.85687 0.98238 0.94521 0.0
H528 H 0.76826 0.0597 0.98959 0.0
H529 H 0.70474 0.04884 1.00598 0.0
C530 C 0.7191 0.08383 0.5191 0.0
C531 C 0.71121 0.1323 0.49003 0.0
C532 C 0.80208 0.15508 0.47999 0.0
C533 C 0.80962 0.10407 0.5035 0.0
N534 N 0.77937 0.02478 0.55571 0.0
N535 N 0.74255 0.21958 0.45449 0.0
C536 C 0.76925 0.07031 0.52711 0.0
C537 C 0.75213 0.17014 0.47492 0.0
N538 N 0.6784 0.04972 0.53592 0.0
N539 N 0.84277 0.18755 0.46045 0.0
H540 H 0.70587 0.23073 0.45093 0.0
H541 H 0.77026 0.25033 0.44436 0.0
H542 H 0.87964 0.17728 0.46524 0.0
H543 H 0.84042 0.2238 0.43894 0.0
H544 H 0.6807 0.01147 0.55314 0.0
H545 H 0.64145 0.05988 0.5319 0.0
H546 H 0.75242 0.99918 0.57662 0.0
H547 H 0.81604 0.0141 0.56088 0.0
C548 C 0.23178 0.66486 0.12103 0.0
C549 C 0.27587 0.63773 0.12953 0.0
C550 C 0.22797 0.5569 0.11119 0.0
C551 C 0.18582 0.58496 0.09726 0.0
N552 N 0.15043 0.6681 0.08091 0.0
N553 N 0.31851 0.56102 0.11955 0.0
C554 C 0.1886 0.6398 0.09968 0.0
C555 C 0.27474 0.58472 0.12035 0.0
N556 N 0.23001 0.71331 0.13558 0.0
N557 N 0.22258 0.50333 0.11887 0.0
H558 H 0.35381 0.58069 0.12427 0.0
H559 H 0.3201 0.52388 0.10886 0.0
H560 H 0.18766 0.48209 0.11661 0.0
H561 H 0.25095 0.48074 0.13345 0.0
H562 H 0.19717 0.73243 0.13507 0.0
H563 H 0.26014 0.73245 0.15232 0.0
H564 H 0.15238 0.70897 0.07723 0.0
H565 H 0.11868 0.6509 0.06488 0.0
C566 C 0.25044 0.43081 0.609 0.0
C567 C 0.23275 0.4543 0.56258 0.0
C568 C 0.31875 0.49026 0.53944 0.0
C569 C 0.33546 0.47071 0.5876 0.0
N570 N 0.31169 0.44078 0.67313 0.0
N571 N 0.24848 0.52436 0.49381 0.0
C572 C 0.29922 0.44763 0.62416 0.0
C573 C 0.26623 0.49066 0.53148 0.0
N574 N 0.22336 0.38971 0.63706 0.0
N575 N 0.3515 0.50328 0.49997 0.0
H576 H 0.21005 0.52789 0.48882 0.0
H577 H 0.27214 0.55314 0.47204 0.0
H578 H 0.38925 0.49607 0.50147 0.0
H579 H 0.33935 0.51418 0.46387 0.0
H580 H 0.23853 0.36854 0.66809 0.0
H581 H 0.18876 0.37283 0.62682 0.0
H582 H 0.2852 0.42682 0.70139 0.0
H583 H 0.34686 0.45481 0.68528 0.0
C584 C 0.95117 0.71846 1.00859 0.0
C585 C 0.93803 0.72488 0.9574 0.0
C586 C 0.97754 0.64382 0.94809 0.0
C587 C 0.99332 0.63838 0.99862 0.0
N588 N 1.00622 0.68088 0.07228 0.0
N589 N 0.95813 0.70448 0.87596 0.0
C590 C 0.98336 0.67877 0.02754 0.0
C591 C 0.95767 0.69117 0.92638 0.0
N592 N 0.93226 0.74962 0.03962 0.0
N593 N 0.97771 0.60267 0.9213 0.0
H594 H 0.94747 0.74049 0.85893 0.0
H595 H 0.97547 0.68311 0.85186 0.0
H596 H 0.98658 0.56536 0.93636 0.0
H597 H 0.96254 0.60369 0.88588 0.0
H598 H 0.93477 0.74238 0.0782 0.0
H599 H 0.91169 0.78118 0.027 0.0
H600 H 1.00435 0.7121 0.09263 0.0
H601 H 0.03164 0.65458 0.08662 0.0
C602 C 0.43292 0.81875 0.15916 0.0
C603 C 0.42601 0.77647 0.13083 0.0
C604 C 0.48597 0.8252 0.06796 0.0
C605 C 0.49615 0.86554 0.09879 0.0
N606 N 0.49076 0.88783 0.18282 0.0
N607 N 0.45403 0.73483 0.0627 0.0
C608 C 0.4733 0.85852 0.14714 0.0
C609 C 0.45459 0.77846 0.08625 0.0
N610 N 0.40003 0.8217 0.19724 0.0
N611 N 0.50721 0.83074 1.02147 0.0
H612 H 0.43215 0.69985 0.07509 0.0
H613 H 0.47839 0.73174 0.03335 0.0
H614 H 0.53547 0.86019 1.00907 0.0
H615 H 0.49566 0.80695 0.99477 0.0
H616 H 0.40033 0.85448 0.2159 0.0
H617 H 0.36905 0.79415 0.20632 0.0
H618 H 0.47782 0.88012 0.21962 0.0
H619 H 0.52183 0.91548 0.17814 0.0
C620 C 0.07522 0.24795 0.65257 0.0
C621 C 0.05057 0.29013 0.6271 0.0
C622 C 1.01759 0.23246 0.56785 0.0
C623 C 0.03877 0.18933 0.596 0.0
N624 N 0.07037 0.15415 0.67607 0.0
N625 N 0.98581 0.31718 0.56999 0.0
C626 C 0.06193 0.19637 0.64193 0.0
C627 C 1.01725 0.2804 0.58808 0.0
N628 N 0.11385 0.25679 0.68417 0.0
N629 N 1.00115 0.22953 0.52061 0.0
H630 H 0.98421 0.35227 0.58484 0.0
H631 H 0.95791 0.31021 0.54424 0.0
H632 H 1.00451 0.19714 0.50217 0.0
H633 H 0.98959 0.26181 0.49754 0.0
H634 H 0.13555 0.22716 0.69955 0.0
H635 H 0.12815 0.29406 0.69056 0.0
H636 H 0.0837 0.15816 0.71155 0.0
H637 H 0.05809 0.11559 0.67149 0.0
C638 C 0.57219 0.30359 0.44577 0.0
C639 C 0.54294 0.26462 0.47836 0.0
C640 C 0.5519 0.32188 0.54351 0.0
C641 C 0.56968 0.36469 0.50712 0.0
N642 N 0.58993 0.39671 0.42051 0.0
N643 N 0.50692 0.23524 0.56033 0.0
C644 C 0.57895 0.35566 0.45753 0.0
C645 C 0.53407 0.27302 0.52817 0.0
N646 N 0.59355 0.29107 0.40366 0.0
N647 N 0.55259 0.32775 0.59278 0.0
H648 H 0.49575 0.19777 0.55177 0.0
H649 H 0.49331 0.24188 0.59472 0.0
H650 H 0.56544 0.36288 0.60541 0.0
H651 H 0.54502 0.29664 0.62133 0.0
H652 H 0.61853 0.31737 0.38081 0.0
H653 H 0.59146 0.25275 0.39519 0.0
H654 H 0.5918 0.39186 0.38307 0.0
H655 H 0.59165 0.43592 0.42609 0.0
loop_
_geom_bond_atom_site_label_1
_geom_bond_atom_site_label_2
_geom_bond_distance
_geom_bond_site_symmetry_2
_ccdc_geom_bond_type
H0 C7 0.929 . S
H1 C10 0.930 . S
H2 C12 0.929 . S
H3 C4 0.969 . S
C4 H3 0.969 . S
C4 O5 1.550 . S
C4 H6 0.973 . S
O5 C4 1.550 . S
O5 C11 1.412 . S
H6 C4 0.973 . S
C7 H0 0.929 . S
C7 C8 1.400 . S
C7 C9 1.364 . S
C8 C7 1.400 . S
C8 C12 1.377 . S
C9 C7 1.364 . S
C9 C10 1.374 . S
C10 H1 0.930 . S
C10 C9 1.374 . S
C10 C11 1.383 . S
C11 O5 1.412 . S
C11 C10 1.383 . S
C11 C12 1.394 . S
C12 H2 0.929 . S
C12 C8 1.377 . S
C12 C11 1.394 . S
H13 C20 0.929 . S
H14 C23 0.930 . S
H15 C25 0.929 . S
H16 C17 0.969 . S
C17 H16 0.969 . S
C17 O18 1.550 . S
C17 H19 0.973 . S
O18 C17 1.550 . S
O18 C24 1.412 . S
H19 C17 0.973 . S
C20 H13 0.929 . S
C20 C21 1.400 . S
C20 C22 1.364 . S
C21 C20 1.400 . S
C21 C25 1.377 . S
C22 C20 1.364 . S
C22 C23 1.374 . S
C23 H14 0.930 . S
C23 C22 1.374 . S
C23 C24 1.383 . S
C24 O18 1.412 . S
C24 C23 1.383 . S
C24 C25 1.394 . S
C25 H15 0.929 . S
C25 C21 1.377 . S
C25 C24 1.394 . S
H26 C33 0.929 . S
H27 C36 0.930 . S
H28 C38 0.929 . S
H29 C30 0.969 . S
C30 H29 0.969 . S
C30 O31 1.550 . S
C30 H32 0.973 . S
O31 C30 1.550 . S
O31 C37 1.412 . S
H32 C30 0.973 . S
C33 H26 0.929 . S
C33 C34 1.400 . S
C33 C35 1.364 . S
C34 C33 1.400 . S
C34 C38 1.377 . S
C35 C33 1.364 . S
C35 C36 1.374 . S
C36 H27 0.930 . S
C36 C35 1.374 . S
C36 C37 1.383 . S
C37 O31 1.412 . S
C37 C36 1.383 . S
C37 C38 1.394 . S
C38 H28 0.929 . S
C38 C34 1.377 . S
C38 C37 1.394 . S
H39 C46 0.929 . S
H40 C49 0.930 . S
H41 C51 0.929 1_455 S
H42 C43 0.969 . S
C43 H42 0.969 . S
C43 O44 1.550 . S
C43 H45 0.973 . S
O44 C43 1.550 . S
O44 C50 1.412 . S
H45 C43 0.973 . S
C46 H39 0.929 . S
C46 C47 1.400 . S
C46 C48 1.364 . S
C47 C46 1.400 . S
C47 C51 1.377 . S
C48 C46 1.364 . S
C48 C49 1.374 . S
C49 H40 0.930 . S
C49 C48 1.374 . S
C49 C50 1.383 . S
C50 O44 1.412 . S
C50 C49 1.383 . S
C50 C51 1.394 . S
C51 H41 0.929 1_655 S
C51 C47 1.377 . S
C51 C50 1.394 . S
H52 C59 0.929 . S
H53 C62 0.930 . S
H54 C64 0.929 . S
H55 C56 0.969 . S
C56 H55 0.969 . S
C56 O57 1.550 . S
C56 H58 0.973 . S
O57 C56 1.550 . S
O57 C63 1.412 . S
H58 C56 0.973 . S
C59 H52 0.929 . S
C59 C60 1.400 . S
C59 C61 1.364 . S
C60 C59 1.400 . S
C60 C64 1.377 . S
C61 C59 1.364 . S
C61 C62 1.374 . S
C62 H53 0.930 . S
C62 C61 1.374 . S
C62 C63 1.383 . S
C63 O57 1.412 . S
C63 C62 1.383 . S
C63 C64 1.394 . S
C64 H54 0.929 . S
C64 C60 1.377 . S
C64 C63 1.394 . S
H65 C72 0.929 . S
H66 C75 0.930 . S
H67 C77 0.929 . S
H68 C69 0.969 . S
C69 H68 0.969 . S
C69 O70 1.550 . S
C69 H71 0.973 . S
O70 C69 1.550 . S
O70 C76 1.412 . S
H71 C69 0.973 . S
C72 H65 0.929 . S
C72 C73 1.400 . S
C72 C74 1.364 . S
C73 C72 1.400 . S
C73 C77 1.377 . S
C74 C72 1.364 . S
C74 C75 1.374 . S
C75 H66 0.930 . S
C75 C74 1.374 . S
C75 C76 1.383 . S
C76 O70 1.412 . S
C76 C75 1.383 . S
C76 C77 1.394 . S
C77 H67 0.929 . S
C77 C73 1.377 . S
C77 C76 1.394 . S
H78 C85 0.929 . S
H79 C88 0.930 . S
H80 C90 0.929 . S
H81 C82 0.969 . S
C82 H81 0.969 . S
C82 O83 1.550 . S
C82 H84 0.973 . S
O83 C82 1.550 . S
O83 C89 1.412 . S
H84 C82 0.973 . S
C85 H78 0.929 . S
C85 C86 1.400 . S
C85 C87 1.364 . S
C86 C85 1.400 . S
C86 C90 1.377 . S
C87 C85 1.364 . S
C87 C88 1.374 . S
C88 H79 0.930 . S
C88 C87 1.374 . S
C88 C89 1.383 . S
C89 O83 1.412 . S
C89 C88 1.383 . S
C89 C90 1.394 . S
C90 H80 0.929 . S
C90 C86 1.377 . S
C90 C89 1.394 . S
H91 C98 0.929 . S
H92 C101 0.930 . S
H93 C103 0.929 . S
H94 C95 0.969 . S
C95 H94 0.969 . S
C95 O96 1.550 . S
C95 H97 0.973 . S
O96 C95 1.550 . S
O96 C102 1.412 . S
H97 C95 0.973 . S
C98 H91 0.929 . S
C98 C99 1.400 . S
C98 C100 1.364 . S
C99 C98 1.400 . S
C99 C103 1.377 . S
C100 C98 1.364 . S
C100 C101 1.374 . S
C101 H92 0.930 . S
C101 C100 1.374 . S
C101 C102 1.383 . S
C102 O96 1.412 . S
C102 C101 1.383 . S
C102 C103 1.394 . S
C103 H93 0.929 . S
C103 C99 1.377 . S
C103 C102 1.394 . S
Co104 N109 2.057 . S
Co104 O121 2.021 . S
Co104 O124 2.062 . S
Co104 O128 2.117 1_545 S
Co104 O129 2.020 . S
C105 O125 1.259 1_655 S
C105 O128 1.258 . S
Co106 N115 2.057 . S
Co106 O122 2.117 1_565 S
Co106 O123 2.020 1_565 S
Co106 O125 2.021 . S
Co106 O130 2.062 . S
C107 N109 1.316 . S
C107 N110 1.347 . S
C107 H112 0.931 . S
C108 N109 1.375 1_565 S
C108 C111 1.350 1_565 S
C108 H113 0.930 . S
N109 Co104 2.057 . S
N109 C107 1.316 . S
N109 C108 1.375 1_545 S
N110 C107 1.347 . S
N110 C111 1.373 . S
C111 C108 1.350 1_545 S
C111 N110 1.373 . S
C111 H132 0.931 1_545 S
H112 C107 0.931 . S
H113 C108 0.930 . S
C114 O121 1.259 1_455 S
C114 O122 1.258 . S
N115 Co106 2.057 . S
N115 C116 1.316 . S
N115 C117 1.375 1_565 S
C116 N115 1.316 . S
C116 N118 1.347 . S
C116 H127 0.931 . S
C117 N115 1.375 1_545 S
C117 C119 1.350 . S
C117 H126 0.930 . S
N118 C116 1.347 . S
N118 C119 1.373 1_565 S
C119 C117 1.350 . S
C119 N118 1.373 1_545 S
C119 H133 0.931 . S
C120 O123 1.256 . S
C120 O124 1.255 1_455 S
O121 Co104 2.021 . S
O121 C114 1.259 1_655 S
O122 Co106 2.117 1_545 S
O122 C114 1.258 . S
O123 Co106 2.020 1_545 S
O123 C120 1.256 . S
O124 Co104 2.062 . S
O124 C120 1.255 1_655 S
O125 C105 1.259 1_455 S
O125 Co106 2.021 . S
H126 C117 0.930 . S
H127 C116 0.931 . S
O128 Co104 2.117 1_565 S
O128 C105 1.258 . S
O129 Co104 2.020 . S
O129 C131 1.256 1_545 S
O130 Co106 2.062 . S
O130 C131 1.255 1_455 S
C131 O129 1.256 1_565 S
C131 O130 1.255 1_655 S
H132 C111 0.931 1_565 S
H133 C119 0.931 . S
Co134 N139 2.057 1_545 S
Co134 O151 2.021 . S
Co134 O154 2.062 1_545 S
Co134 O158 2.117 1_546 S
Co134 O159 2.020 . S
C135 O155 1.259 . S
C135 O158 1.258 . S
Co136 N145 2.057 . S
Co136 O152 2.117 . S
Co136 O153 2.022 . S
Co136 O155 2.021 1_545 S
Co136 O160 2.062 . S
C137 N139 1.316 . S
C137 N140 1.347 . S
C137 H142 0.931 1_565 S
C138 N139 1.375 . S
C138 C141 1.350 . S
C138 H143 0.930 . S
N139 Co134 2.057 1_565 S
N139 C137 1.316 . S
N139 C138 1.375 . S
N140 C137 1.347 . S
N140 C141 1.373 . S
C141 C138 1.350 . S
C141 N140 1.373 . S
C141 H162 0.931 . S
H142 C137 0.931 1_545 S
H143 C138 0.930 . S
C144 O151 1.259 . S
C144 O152 1.258 1_556 S
N145 Co136 2.057 . S
N145 C146 1.316 . S
N145 C147 1.375 . S
C146 N145 1.316 . S
C146 N148 1.347 . S
C146 H157 0.931 . S
C147 N145 1.375 . S
C147 C149 1.350 . S
C147 H156 0.930 . S
N148 C146 1.347 . S
N148 C149 1.373 . S
C149 C147 1.350 . S
C149 N148 1.373 . S
C149 H163 0.931 . S
C150 O153 1.254 1_566 S
C150 O154 1.255 . S
O151 Co134 2.021 . S
O151 C144 1.259 . S
O152 Co136 2.117 . S
O152 C144 1.258 1_554 S
O153 Co136 2.022 . S
O153 C150 1.254 1_544 S
O154 Co134 2.062 1_565 S
O154 C150 1.255 . S
O155 C135 1.259 . S
O155 Co136 2.021 1_565 S
H156 C147 0.930 . S
H157 C146 0.931 . S
O158 Co134 2.117 1_564 S
O158 C135 1.258 . S
O159 Co134 2.020 . S
O159 C161 1.256 1_556 S
O160 Co136 2.062 . S
O160 C161 1.255 . S
C161 O159 1.256 1_554 S
C161 O160 1.255 . S
H162 C141 0.931 . S
H163 C149 0.931 . S
Co164 N169 2.057 . S
Co164 O181 2.021 . S
Co164 O184 2.062 . S
Co164 O188 2.117 . S
Co164 O189 2.020 . S
C165 O185 1.259 . S
C165 O188 1.258 . S
Co166 N175 2.057 . S
Co166 O182 2.117 . S
Co166 O183 2.020 . S
Co166 O185 2.021 . S
Co166 O190 2.062 . S
C167 N169 1.316 . S
C167 N170 1.347 . S
C167 H172 0.931 . S
C168 N169 1.375 . S
C168 C171 1.350 . S
C168 H173 0.930 . S
N169 Co164 2.057 . S
N169 C167 1.316 . S
N169 C168 1.375 . S
N170 C167 1.347 . S
N170 C171 1.373 . S
C171 C168 1.350 . S
C171 N170 1.373 . S
C171 H192 0.931 . S
H172 C167 0.931 . S
H173 C168 0.930 . S
C174 O181 1.259 . S
C174 O182 1.258 . S
N175 Co166 2.057 . S
N175 C176 1.316 . S
N175 C177 1.375 . S
C176 N175 1.316 . S
C176 N178 1.347 . S
C176 H187 0.931 . S
C177 N175 1.375 . S
C177 C179 1.350 . S
C177 H186 0.930 . S
N178 C176 1.347 . S
N178 C179 1.373 . S
C179 C177 1.350 . S
C179 N178 1.373 . S
C179 H193 0.931 . S
C180 O183 1.256 . S
C180 O184 1.255 . S
O181 Co164 2.021 . S
O181 C174 1.259 . S
O182 Co166 2.117 . S
O182 C174 1.258 . S
O183 Co166 2.020 . S
O183 C180 1.256 . S
O184 Co164 2.062 . S
O184 C180 1.255 . S
O185 C165 1.259 . S
O185 Co166 2.021 . S
H186 C177 0.930 . S
H187 C176 0.931 . S
O188 Co164 2.117 . S
O188 C165 1.258 . S
O189 Co164 2.020 . S
O189 C191 1.256 . S
O190 Co166 2.062 . S
O190 C191 1.255 . S
C191 O189 1.256 . S
C191 O190 1.255 . S
H192 C171 0.931 . S
H193 C179 0.931 . S
Co194 N199 2.057 . S
Co194 O211 2.021 . S
Co194 O214 2.062 1_556 S
Co194 O218 2.117 1_455 S
Co194 O219 2.020 . S
C195 O215 1.259 . S
C195 O218 1.258 1_554 S
Co196 N205 2.057 . S
Co196 O212 2.117 . S
Co196 O213 2.020 . S
Co196 O215 2.021 1_455 S
Co196 O220 2.062 1_455 S
C197 N199 1.316 . S
C197 N200 1.347 . S
C197 H202 0.931 . S
C198 N199 1.375 . S
C198 C201 1.350 . S
C198 H203 0.930 1_455 S
N199 Co194 2.057 . S
N199 C197 1.316 . S
N199 C198 1.375 . S
N200 C197 1.347 . S
N200 C201 1.373 . S
C201 C198 1.350 . S
C201 N200 1.373 . S
C201 H222 0.931 . S
H202 C197 0.931 . S
H203 C198 0.930 1_655 S
C204 O211 1.259 1_554 S
C204 O212 1.258 . S
N205 Co196 2.057 . S
N205 C206 1.316 1_455 S
N205 C207 1.375 . S
C206 N205 1.316 1_655 S
C206 N208 1.347 . S
C206 H217 0.931 . S
C207 N205 1.375 . S
C207 C209 1.350 . S
C207 H216 0.930 . S
N208 C206 1.347 . S
N208 C209 1.373 1_655 S
C209 C207 1.350 . S
C209 N208 1.373 1_455 S
C209 H223 0.931 . S
C210 O213 1.256 . S
C210 O214 1.255 . S
O211 Co194 2.021 . S
O211 C204 1.259 1_556 S
O212 Co196 2.117 . S
O212 C204 1.258 . S
O213 Co196 2.020 . S
O213 C210 1.256 . S
O214 Co194 2.062 1_554 S
O214 C210 1.255 . S
O215 C195 1.259 . S
O215 Co196 2.021 1_655 S
H216 C207 0.930 . S
H217 C206 0.931 . S
O218 Co194 2.117 1_655 S
O218 C195 1.258 1_556 S
O219 Co194 2.020 . S
O219 C221 1.256 . S
O220 Co196 2.062 1_655 S
O220 C221 1.255 1_654 S
C221 O219 1.256 . S
C221 O220 1.255 1_456 S
H222 C201 0.931 . S
H223 C209 0.931 . S
C224 C225 1.363 . S
C224 C230 1.379 . S
C224 N232 1.356 . S
C225 C224 1.363 . S
C225 C231 1.363 . S
C226 C227 1.363 . S
C226 C231 1.379 . S
C226 N233 1.368 . S
C227 C226 1.363 . S
C227 C230 1.363 . S
N228 C230 1.356 . S
N228 H240 0.984 . S
N228 H241 0.985 . S
N229 C231 1.356 . S
N229 H234 0.984 . S
N229 H235 0.985 1_545 S
C230 C224 1.379 . S
C230 C227 1.363 . S
C230 N228 1.356 . S
C231 C225 1.363 . S
C231 C226 1.379 . S
C231 N229 1.356 . S
N232 C224 1.356 . S
N232 H238 0.984 . S
N232 H239 0.984 . S
N233 C226 1.368 . S
N233 H236 0.981 1_455 S
N233 H237 0.977 1_445 S
H234 N229 0.984 . S
H235 N229 0.985 1_565 S
H236 N233 0.981 1_655 S
H237 N233 0.977 1_665 S
H238 N232 0.984 . S
H239 N232 0.984 . S
H240 N228 0.984 . S
H241 N228 0.985 . S
C242 C243 1.363 . S
C242 C248 1.379 . S
C242 N250 1.356 . S
C243 C242 1.363 . S
C243 C249 1.363 . S
C244 C245 1.363 . S
C244 C249 1.379 . S
C244 N251 1.356 . S
C245 C244 1.363 . S
C245 C248 1.363 . S
N246 C248 1.356 1_545 S
N246 H258 0.984 . S
N246 H259 0.985 . S
N247 C249 1.356 . S
N247 H252 0.984 . S
N247 H253 0.985 . S
C248 C242 1.379 . S
C248 C245 1.363 . S
C248 N246 1.356 1_565 S
C249 C243 1.363 . S
C249 C244 1.379 . S
C249 N247 1.356 . S
N250 C242 1.356 . S
N250 H256 0.984 1_565 S
N250 H257 0.984 . S
N251 C244 1.356 . S
N251 H254 0.984 . S
N251 H255 0.985 . S
H252 N247 0.984 . S
H253 N247 0.985 . S
H254 N251 0.984 . S
H255 N251 0.985 . S
H256 N250 0.984 1_545 S
H257 N250 0.984 . S
H258 N246 0.984 . S
H259 N246 0.985 . S
C260 C261 1.363 . S
C260 C266 1.379 . S
C260 N268 1.356 . S
C261 C260 1.363 . S
C261 C267 1.363 . S
C262 C263 1.363 . S
C262 C267 1.379 . S
C262 N269 1.356 . S
C263 C262 1.363 . S
C263 C266 1.363 . S
N264 C266 1.356 . S
N264 H276 0.984 . S
N264 H277 0.985 . S
N265 C267 1.356 . S
N265 H270 0.984 . S
N265 H271 0.985 . S
C266 C260 1.379 . S
C266 C263 1.363 . S
C266 N264 1.356 . S
C267 C261 1.363 . S
C267 C262 1.379 . S
C267 N265 1.356 . S
N268 C260 1.356 . S
N268 H274 0.984 . S
N268 H275 0.984 . S
N269 C262 1.356 . S
N269 H272 0.984 . S
N269 H273 0.985 . S
H270 N265 0.984 . S
H271 N265 0.985 . S
H272 N269 0.984 . S
H273 N269 0.985 . S
H274 N268 0.984 . S
H275 N268 0.984 . S
H276 N264 0.984 . S
H277 N264 0.985 . S
C278 C279 1.363 . S
C278 C284 1.379 . S
C278 N286 1.356 . S
C279 C278 1.363 . S
C279 C285 1.363 . S
C280 C281 1.363 . S
C280 C285 1.379 . S
C280 N287 1.356 . S
C281 C280 1.363 . S
C281 C284 1.363 . S
N282 C284 1.356 . S
N282 H294 0.984 . S
N282 H295 0.985 . S
N283 C285 1.350 1_455 S
N283 H288 0.984 . S
N283 H289 0.992 . S
C284 C278 1.379 . S
C284 C281 1.363 . S
C284 N282 1.356 . S
C285 C279 1.363 . S
C285 C280 1.379 . S
C285 N283 1.350 1_655 S
N286 C278 1.356 . S
N286 H292 0.984 . S
N286 H293 0.984 . S
N287 C280 1.356 . S
N287 H290 0.984 . S
N287 H291 0.985 . S
H288 N283 0.984 . S
H289 N283 0.992 . S
H290 N287 0.984 . S
H291 N287 0.985 . S
H292 N286 0.984 . S
H293 N286 0.984 . S
H294 N282 0.984 . S
H295 N282 0.985 . S
C296 C297 1.363 . S
C296 C302 1.379 . S
C296 N304 1.356 . S
C297 C296 1.363 . S
C297 C303 1.363 . S
C298 C299 1.363 . S
C298 C303 1.379 . S
C298 N305 1.356 1_554 S
C299 C298 1.363 . S
C299 C302 1.363 . S
N300 C302 1.347 1_565 S
N300 H312 0.993 . S
N300 H313 0.985 1_565 S
N301 C303 1.356 . S
N301 H306 0.984 . S
N301 H307 0.985 . S
C302 C296 1.379 . S
C302 C299 1.363 . S
C302 N300 1.347 1_545 S
C303 C297 1.363 . S
C303 C298 1.379 . S
C303 N301 1.356 . S
N304 C296 1.356 . S
N304 H310 0.984 1_545 S
N304 H311 0.984 . S
N305 C298 1.356 1_556 S
N305 H308 0.984 . S
N305 H309 0.985 . S
H306 N301 0.984 . S
H307 N301 0.985 . S
H308 N305 0.984 . S
H309 N305 0.985 . S
H310 N304 0.984 1_565 S
H311 N304 0.984 . S
H312 N300 0.993 . S
H313 N300 0.985 1_545 S
C314 C315 1.363 . S
C314 C320 1.379 . S
C314 N322 1.356 . S
C315 C314 1.363 . S
C315 C321 1.363 . S
C316 C317 1.363 . S
C316 C321 1.379 . S
C316 N323 1.356 . S
C317 C316 1.363 . S
C317 C320 1.363 . S
N318 C320 1.356 . S
N318 H330 0.984 1_565 S
N318 H331 0.985 . S
N319 C321 1.356 . S
N319 H324 0.984 . S
N319 H325 0.985 . S
C320 C314 1.379 . S
C320 C317 1.363 . S
C320 N318 1.356 . S
C321 C315 1.363 . S
C321 C316 1.379 . S
C321 N319 1.356 . S
N322 C314 1.356 . S
N322 H328 0.984 . S
N322 H329 0.984 . S
N323 C316 1.356 . S
N323 H326 0.984 . S
N323 H327 0.985 . S
H324 N319 0.984 . S
H325 N319 0.985 . S
H326 N323 0.984 . S
H327 N323 0.985 . S
H328 N322 0.984 . S
H329 N322 0.984 . S
H330 N318 0.984 1_545 S
H331 N318 0.985 . S
C332 C333 1.363 . S
C332 C338 1.379 . S
C332 N340 1.356 . S
C333 C332 1.363 . S
C333 C339 1.363 . S
C334 C335 1.363 . S
C334 C339 1.379 . S
C334 N341 1.356 1_556 S
C335 C334 1.363 . S
C335 C338 1.363 . S
N336 C338 1.356 . S
N336 H348 0.984 . S
N336 H349 0.985 . S
N337 C339 1.356 . S
N337 H342 0.984 . S
N337 H343 0.985 1_556 S
C338 C332 1.379 . S
C338 C335 1.363 . S
C338 N336 1.356 . S
C339 C333 1.363 . S
C339 C334 1.379 . S
C339 N337 1.356 . S
N340 C332 1.356 . S
N340 H346 0.984 . S
N340 H347 0.984 . S
N341 C334 1.356 1_554 S
N341 H344 0.984 . S
N341 H345 0.985 . S
H342 N337 0.984 . S
H343 N337 0.985 1_554 S
H344 N341 0.984 . S
H345 N341 0.985 . S
H346 N340 0.984 . S
H347 N340 0.984 . S
H348 N336 0.984 . S
H349 N336 0.985 . S
C350 C351 1.363 . S
C350 C356 1.379 . S
C350 N358 1.356 . S
C351 C350 1.363 . S
C351 C357 1.363 . S
C352 C353 1.363 . S
C352 C357 1.379 . S
C352 N359 1.356 . S
C353 C352 1.363 . S
C353 C356 1.363 . S
N354 C356 1.356 . S
N354 H366 0.984 . S
N354 H367 0.985 . S
N355 C357 1.356 . S
N355 H360 0.984 . S
N355 H361 0.985 . S
C356 C350 1.379 . S
C356 C353 1.363 . S
C356 N354 1.356 . S
C357 C351 1.363 . S
C357 C352 1.379 . S
C357 N355 1.356 . S
N358 C350 1.356 . S
N358 H364 0.984 . S
N358 H365 0.984 . S
N359 C352 1.356 . S
N359 H362 0.984 . S
N359 H363 0.985 . S
H360 N355 0.984 . S
H361 N355 0.985 . S
H362 N359 0.984 . S
H363 N359 0.985 . S
H364 N358 0.984 . S
H365 N358 0.984 . S
H366 N354 0.984 . S
H367 N354 0.985 . S
C368 C369 1.363 . S
C368 C374 1.379 . S
C368 N376 1.356 . S
C369 C368 1.363 . S
C369 C375 1.363 . S
C370 C371 1.363 . S
C370 C375 1.379 . S
C370 N377 1.356 . S
C371 C370 1.363 . S
C371 C374 1.363 . S
N372 C374 1.356 1_655 S
N372 H384 0.984 . S
N372 H385 0.985 . S
N373 C375 1.356 . S
N373 H378 0.984 . S
N373 H379 0.985 . S
C374 C368 1.379 . S
C374 C371 1.363 . S
C374 N372 1.356 1_455 S
C375 C369 1.363 . S
C375 C370 1.379 . S
C375 N373 1.356 . S
N376 C368 1.356 . S
N376 H382 0.984 1_455 S
N376 H383 0.984 . S
N377 C370 1.356 . S
N377 H380 0.984 . S
N377 H381 0.985 . S
H378 N373 0.984 . S
H379 N373 0.985 . S
H380 N377 0.984 . S
H381 N377 0.985 . S
H382 N376 0.984 1_655 S
H383 N376 0.984 . S
H384 N372 0.984 . S
H385 N372 0.985 . S
C386 C387 1.363 . S
C386 C392 1.379 . S
C386 N394 1.356 . S
C387 C386 1.363 . S
C387 C393 1.363 . S
C388 C389 1.363 . S
C388 C393 1.379 . S
C388 N395 1.356 . S
C389 C388 1.363 . S
C389 C392 1.363 . S
N390 C392 1.356 1_554 S
N390 H402 0.984 . S
N390 H403 0.985 . S
N391 C393 1.356 . S
N391 H396 0.984 . S
N391 H397 0.985 . S
C392 C386 1.379 . S
C392 C389 1.363 . S
C392 N390 1.356 1_556 S
C393 C387 1.363 . S
C393 C388 1.379 . S
C393 N391 1.356 . S
N394 C386 1.356 . S
N394 H400 0.984 1_556 S
N394 H401 0.984 . S
N395 C388 1.356 . S
N395 H398 0.984 . S
N395 H399 0.985 . S
H396 N391 0.984 . S
H397 N391 0.985 . S
H398 N395 0.984 . S
H399 N395 0.985 . S
H400 N394 0.984 1_554 S
H401 N394 0.984 . S
H402 N390 0.984 . S
H403 N390 0.985 . S
C404 C405 1.363 . S
C404 C410 1.379 . S
C404 N412 1.356 . S
C405 C404 1.363 . S
C405 C411 1.363 . S
C406 C407 1.361 1_455 S
C406 C411 1.379 1_455 S
C406 N413 1.358 . S
C407 C406 1.361 1_655 S
C407 C410 1.363 . S
N408 C410 1.356 . S
N408 H420 0.984 . S
N408 H421 0.985 . S
N409 C411 1.356 1_455 S
N409 H414 0.984 . S
N409 H415 0.985 . S
C410 C404 1.379 . S
C410 C407 1.363 . S
C410 N408 1.356 . S
C411 C405 1.363 . S
C411 C406 1.379 1_655 S
C411 N409 1.356 1_655 S
N412 C404 1.356 . S
N412 H418 0.984 . S
N412 H419 0.984 . S
N413 C406 1.358 . S
N413 H416 0.984 . S
N413 H417 0.985 . S
H414 N409 0.984 . S
H415 N409 0.985 . S
H416 N413 0.984 . S
H417 N413 0.985 . S
H418 N412 0.984 . S
H419 N412 0.984 . S
H420 N408 0.984 . S
H421 N408 0.985 . S
C422 C423 1.363 . S
C422 C428 1.379 . S
C422 N430 1.356 . S
C423 C422 1.363 . S
C423 C429 1.363 . S
C424 C425 1.363 . S
C424 C429 1.379 . S
C424 N431 1.356 . S
C425 C424 1.363 . S
C425 C428 1.363 . S
N426 C428 1.356 . S
N426 H438 0.984 . S
N426 H439 0.985 . S
N427 C429 1.356 . S
N427 H432 0.984 . S
N427 H433 0.985 . S
C428 C422 1.379 . S
C428 C425 1.363 . S
C428 N426 1.356 . S
C429 C423 1.363 . S
C429 C424 1.379 . S
C429 N427 1.356 . S
N430 C422 1.356 . S
N430 H436 0.984 . S
N430 H437 0.984 . S
N431 C424 1.356 . S
N431 H434 0.984 . S
N431 H435 0.985 . S
H432 N427 0.984 . S
H433 N427 0.985 . S
H434 N431 0.984 . S
H435 N431 0.985 . S
H436 N430 0.984 . S
H437 N430 0.984 . S
H438 N426 0.984 . S
H439 N426 0.985 . S
C440 C441 1.363 . S
C440 C446 1.379 . S
C440 N448 1.356 1_565 S
C441 C440 1.363 . S
C441 C447 1.363 . S
C442 C443 1.363 . S
C442 C447 1.379 . S
C442 N449 1.356 . S
C443 C442 1.363 . S
C443 C446 1.373 . S
N444 C446 1.348 1_545 S
N444 H456 0.984 . S
N444 H457 0.985 . S
N445 C447 1.356 . S
N445 H450 0.984 . S
N445 H451 0.985 . S
C446 C440 1.379 . S
C446 C443 1.373 . S
C446 N444 1.348 1_565 S
C447 C441 1.363 . S
C447 C442 1.379 . S
C447 N445 1.356 . S
N448 C440 1.356 1_545 S
N448 H454 0.984 . S
N448 H455 0.982 1_545 S
N449 C442 1.356 . S
N449 H452 0.984 1_655 S
N449 H453 0.985 1_655 S
H450 N445 0.984 . S
H451 N445 0.985 . S
H452 N449 0.984 1_455 S
H453 N449 0.985 1_455 S
H454 N448 0.984 . S
H455 N448 0.982 1_565 S
H456 N444 0.984 . S
H457 N444 0.985 . S
C458 C459 1.363 . S
C458 C464 1.379 . S
C458 N466 1.356 . S
C459 C458 1.363 . S
C459 C465 1.363 . S
C460 C461 1.363 . S
C460 C465 1.379 . S
C460 N467 1.356 . S
C461 C460 1.363 . S
C461 C464 1.363 . S
N462 C464 1.356 . S
N462 H474 0.984 1_545 S
N462 H475 0.985 . S
N463 C465 1.356 . S
N463 H468 0.984 . S
N463 H469 0.985 . S
C464 C458 1.379 . S
C464 C461 1.363 . S
C464 N462 1.356 . S
C465 C459 1.363 . S
C465 C460 1.379 . S
C465 N463 1.356 . S
N466 C458 1.356 . S
N466 H472 0.984 . S
N466 H473 0.984 . S
N467 C460 1.356 . S
N467 H470 0.984 . S
N467 H471 0.985 . S
H468 N463 0.984 . S
H469 N463 0.985 . S
H470 N467 0.984 . S
H471 N467 0.985 . S
H472 N466 0.984 . S
H473 N466 0.984 . S
H474 N462 0.984 1_565 S
H475 N462 0.985 . S
C476 C477 1.363 . S
C476 C482 1.379 . S
C476 N484 1.356 . S
C477 C476 1.363 . S
C477 C483 1.363 . S
C478 C479 1.363 . S
C478 C483 1.379 . S
C478 N485 1.356 . S
C479 C478 1.363 . S
C479 C482 1.363 . S
N480 C482 1.356 . S
N480 H492 0.984 . S
N480 H493 0.985 . S
N481 C483 1.356 . S
N481 H486 0.984 . S
N481 H487 0.985 . S
C482 C476 1.379 . S
C482 C479 1.363 . S
C482 N480 1.356 . S
C483 C477 1.363 . S
C483 C478 1.379 . S
C483 N481 1.356 . S
N484 C476 1.356 . S
N484 H490 0.984 . S
N484 H491 0.984 . S
N485 C478 1.356 . S
N485 H488 0.984 . S
N485 H489 0.985 . S
H486 N481 0.984 . S
H487 N481 0.985 . S
H488 N485 0.984 . S
H489 N485 0.985 . S
H490 N484 0.984 . S
H491 N484 0.984 . S
H492 N480 0.984 . S
H493 N480 0.985 . S
C494 C495 1.363 . S
C494 C500 1.379 . S
C494 N502 1.356 . S
C495 C494 1.363 . S
C495 C501 1.363 . S
C496 C497 1.363 . S
C496 C501 1.379 . S
C496 N503 1.356 . S
C497 C496 1.363 . S
C497 C500 1.363 . S
N498 C500 1.356 . S
N498 H510 0.984 . S
N498 H511 0.985 . S
N499 C501 1.356 . S
N499 H504 0.984 . S
N499 H505 0.985 . S
C500 C494 1.379 . S
C500 C497 1.363 . S
C500 N498 1.356 . S
C501 C495 1.363 . S
C501 C496 1.379 . S
C501 N499 1.356 . S
N502 C494 1.356 . S
N502 H508 0.984 1_455 S
N502 H509 0.984 . S
N503 C496 1.356 . S
N503 H506 0.984 . S
N503 H507 0.985 . S
H504 N499 0.984 . S
H505 N499 0.985 . S
H506 N503 0.984 . S
H507 N503 0.985 . S
H508 N502 0.984 1_655 S
H509 N502 0.984 . S
H510 N498 0.984 . S
H511 N498 0.985 . S
C512 C513 1.363 . S
C512 C518 1.379 . S
C512 N520 1.356 . S
C513 C512 1.363 . S
C513 C519 1.363 . S
C514 C515 1.363 . S
C514 C519 1.379 . S
C514 N521 1.356 1_556 S
C515 C514 1.363 . S
C515 C518 1.363 . S
N516 C518 1.356 1_545 S
N516 H528 0.984 . S
N516 H529 0.985 . S
N517 C519 1.356 . S
N517 H522 0.984 . S
N517 H523 0.985 1_556 S
C518 C512 1.379 . S
C518 C515 1.363 . S
C518 N516 1.356 1_565 S
C519 C513 1.363 . S
C519 C514 1.379 . S
C519 N517 1.356 . S
N520 C512 1.356 . S
N520 H526 0.984 1_565 S
N520 H527 0.984 . S
N521 C514 1.356 1_554 S
N521 H524 0.984 . S
N521 H525 0.985 . S
H522 N517 0.984 . S
H523 N517 0.985 1_554 S
H524 N521 0.984 . S
H525 N521 0.985 . S
H526 N520 0.984 1_545 S
H527 N520 0.984 . S
H528 N516 0.984 . S
H529 N516 0.985 . S
C530 C531 1.363 . S
C530 C536 1.379 . S
C530 N538 1.356 . S
C531 C530 1.363 . S
C531 C537 1.363 . S
C532 C533 1.363 . S
C532 C537 1.379 . S
C532 N539 1.356 . S
C533 C532 1.363 . S
C533 C536 1.363 . S
N534 C536 1.356 . S
N534 H546 0.984 1_545 S
N534 H547 0.985 . S
N535 C537 1.356 . S
N535 H540 0.984 . S
N535 H541 0.985 . S
C536 C530 1.379 . S
C536 C533 1.363 . S
C536 N534 1.356 . S
C537 C531 1.363 . S
C537 C532 1.379 . S
C537 N535 1.356 . S
N538 C530 1.356 . S
N538 H544 0.984 . S
N538 H545 0.984 . S
N539 C532 1.356 . S
N539 H542 0.984 . S
N539 H543 0.985 . S
H540 N535 0.984 . S
H541 N535 0.985 . S
H542 N539 0.984 . S
H543 N539 0.985 . S
H544 N538 0.984 . S
H545 N538 0.984 . S
H546 N534 0.984 1_565 S
H547 N534 0.985 . S
C548 C549 1.363 . S
C548 C554 1.379 . S
C548 N556 1.356 . S
C549 C548 1.363 . S
C549 C555 1.363 . S
C550 C551 1.363 . S
C550 C555 1.379 . S
C550 N557 1.356 . S
C551 C550 1.363 . S
C551 C554 1.363 . S
N552 C554 1.356 . S
N552 H564 0.984 . S
N552 H565 0.985 . S
N553 C555 1.356 . S
N553 H558 0.984 . S
N553 H559 0.985 . S
C554 C548 1.379 . S
C554 C551 1.363 . S
C554 N552 1.356 . S
C555 C549 1.363 . S
C555 C550 1.379 . S
C555 N553 1.356 . S
N556 C548 1.356 . S
N556 H562 0.984 . S
N556 H563 0.984 . S
N557 C550 1.356 . S
N557 H560 0.984 . S
N557 H561 0.985 . S
H558 N553 0.984 . S
H559 N553 0.985 . S
H560 N557 0.984 . S
H561 N557 0.985 . S
H562 N556 0.984 . S
H563 N556 0.984 . S
H564 N552 0.984 . S
H565 N552 0.985 . S
C566 C567 1.363 . S
C566 C572 1.379 . S
C566 N574 1.356 . S
C567 C566 1.363 . S
C567 C573 1.363 . S
C568 C569 1.363 . S
C568 C573 1.379 . S
C568 N575 1.356 . S
C569 C568 1.363 . S
C569 C572 1.363 . S
N570 C572 1.356 . S
N570 H582 0.984 . S
N570 H583 0.985 . S
N571 C573 1.356 . S
N571 H576 0.984 . S
N571 H577 0.985 . S
C572 C566 1.379 . S
C572 C569 1.363 . S
C572 N570 1.356 . S
C573 C567 1.363 . S
C573 C568 1.379 . S
C573 N571 1.356 . S
N574 C566 1.356 . S
N574 H580 0.984 . S
N574 H581 0.984 . S
N575 C568 1.356 . S
N575 H578 0.984 . S
N575 H579 0.985 . S
H576 N571 0.984 . S
H577 N571 0.985 . S
H578 N575 0.984 . S
H579 N575 0.985 . S
H580 N574 0.984 . S
H581 N574 0.984 . S
H582 N570 0.984 . S
H583 N570 0.985 . S
C584 C585 1.363 1_554 S
C584 C590 1.380 . S
C584 N592 1.356 . S
C585 C584 1.363 1_556 S
C585 C591 1.363 . S
C586 C587 1.363 . S
C586 C591 1.379 . S
C586 N593 1.356 . S
C587 C586 1.363 . S
C587 C590 1.364 1_556 S
N588 C590 1.354 1_455 S
N588 H600 0.984 . S
N588 H601 0.985 . S
N589 C591 1.356 . S
N589 H594 0.984 . S
N589 H595 0.985 . S
C590 C584 1.380 . S
C590 C587 1.364 1_554 S
C590 N588 1.354 1_655 S
C591 C585 1.363 . S
C591 C586 1.379 . S
C591 N589 1.356 . S
N592 C584 1.356 . S
N592 H598 0.984 1_655 S
N592 H599 0.984 . S
N593 C586 1.356 . S
N593 H596 0.984 . S
N593 H597 0.985 . S
H594 N589 0.984 . S
H595 N589 0.985 . S
H596 N593 0.984 . S
H597 N593 0.985 . S
H598 N592 0.984 1_455 S
H599 N592 0.984 . S
H600 N588 0.984 . S
H601 N588 0.985 . S
C602 C603 1.363 . S
C602 C608 1.379 . S
C602 N610 1.356 . S
C603 C602 1.363 . S
C603 C609 1.363 . S
C604 C605 1.363 . S
C604 C609 1.379 . S
C604 N611 1.356 . S
C605 C604 1.363 . S
C605 C608 1.363 . S
N606 C608 1.356 . S
N606 H618 0.984 . S
N606 H619 0.985 . S
N607 C609 1.356 . S
N607 H612 0.984 . S
N607 H613 0.985 1_554 S
C608 C602 1.379 . S
C608 C605 1.363 . S
C608 N606 1.356 . S
C609 C603 1.363 . S
C609 C604 1.379 . S
C609 N607 1.356 . S
N610 C602 1.356 . S
N610 H616 0.984 . S
N610 H617 0.984 . S
N611 C604 1.356 . S
N611 H614 0.984 . S
N611 H615 0.985 1_554 S
H612 N607 0.984 . S
H613 N607 0.985 1_556 S
H614 N611 0.984 . S
H615 N611 0.985 1_556 S
H616 N610 0.984 . S
H617 N610 0.984 . S
H618 N606 0.984 . S
H619 N606 0.985 . S
C620 C621 1.363 . S
C620 C626 1.379 . S
C620 N628 1.356 . S
C621 C620 1.363 . S
C621 C627 1.363 . S
C622 C623 1.363 . S
C622 C627 1.379 . S
C622 N629 1.356 1_455 S
C623 C622 1.363 . S
C623 C626 1.363 . S
N624 C626 1.356 . S
N624 H636 0.984 . S
N624 H637 0.985 . S
N625 C627 1.356 1_655 S
N625 H630 0.984 . S
N625 H631 0.985 . S
C626 C620 1.379 . S
C626 C623 1.363 . S
C626 N624 1.356 . S
C627 C621 1.363 . S
C627 C622 1.379 . S
C627 N625 1.356 1_455 S
N628 C620 1.356 . S
N628 H634 0.984 . S
N628 H635 0.984 . S
N629 C622 1.356 1_655 S
N629 H632 0.984 . S
N629 H633 0.985 . S
H630 N625 0.984 . S
H631 N625 0.985 . S
H632 N629 0.984 . S
H633 N629 0.985 . S
H634 N628 0.984 . S
H635 N628 0.984 . S
H636 N624 0.984 . S
H637 N624 0.985 . S
C638 C639 1.363 . S
C638 C644 1.379 . S
C638 N646 1.356 . S
C639 C638 1.363 . S
C639 C645 1.363 . S
C640 C641 1.363 . S
C640 C645 1.379 . S
C640 N647 1.356 . S
C641 C640 1.363 . S
C641 C644 1.363 . S
N642 C644 1.356 . S
N642 H654 0.984 . S
N642 H655 0.985 . S
N643 C645 1.356 . S
N643 H648 0.984 . S
N643 H649 0.985 . S
C644 C638 1.379 . S
C644 C641 1.363 . S
C644 N642 1.356 . S
C645 C639 1.363 . S
C645 C640 1.379 . S
C645 N643 1.356 . S
N646 C638 1.356 . S
N646 H652 0.984 . S
N646 H653 0.984 . S
N647 C640 1.356 . S
N647 H650 0.984 . S
N647 H651 0.985 . S
H648 N643 0.984 . S
H649 N643 0.985 . S
H650 N647 0.984 . S
H651 N647 0.985 . S
H652 N646 0.984 . S
H653 N646 0.984 . S
H654 N642 0.984 . S
H655 N642 0.985 . S
C225 C9 2.429 . S
C227 C120 2.449 . S
C243 C21 1.113 . S
C245 N140 1.101 . S
C263 C174 1.758 . S
C261 C30 1.732 . S
C279 C43 1.066 . S
C281 N208 1.128 . S
C299 C161 2.193 . S
C297 C4 2.186 . S
C317 N118 1.475 . S
C315 C22 1.514 . S
C335 C195 1.761 1_556 S
C333 C34 1.754 . S
C353 N170 1.017 . S
C351 C48 0.995 . S
C369 C8 1.835 . S
C371 C210 1.846 . S
C389 C144 1.792 . S
C387 C35 1.776 . S
C405 C47 1.443 . S
C407 C105 1.465 . S
C423 C17 1.265 . S
C425 C191 1.263 . S
C443 C131 2.163 . S
C441 C60 2.134 . S
C459 C74 1.322 . S
C461 N148 1.323 . S
C477 C82 1.608 . S
C479 C165 1.597 . S
C495 C100 1.536 . S
C497 N200 1.438 . S
C513 C61 2.511 . S
C515 C150 2.528 . S
C533 N110 1.152 . S
C531 C73 1.177 . S
C551 C204 2.082 . S
C549 C87 2.077 . S
C569 N178 0.818 . S
C567 C95 0.799 . S
C585 C56 1.797 . S
C587 C221 1.864 1_655 S
C605 C135 1.822 . S
C603 C86 1.784 . S
C623 C114 1.460 . S
C621 C99 1.424 . S
C639 C69 1.353 . S
C641 C180 1.358 . S
