# Generated by pormake.
# Topology anh, (6,3)-cn, num edge types: 1
# Building blocks:
#     Node 0, Type 0, BuildingBlock: BETFAJ_clean_sbu_0, # of connection points: 6
#     Node 1, Type 0, BuildingBlock: BETFAJ_clean_sbu_0, # of connection points: 6
#     Node 2, Type 0, BuildingBlock: BETFAJ_clean_sbu_0, # of connection points: 6
#     Node 3, Type 1, BuildingBlock: PAMTOO_clean_linker_0, # of connection points: 3
#     Node 4, Type 1, BuildingBlock: PAMTOO_clean_linker_0, # of connection points: 3
#     Node 5, Type 1, BuildingBlock: PAMTOO_clean_linker_0, # of connection points: 3
#     Node 6, Type 1, BuildingBlock: PAMTOO_clean_linker_0, # of connection points: 3
#     Node 7, Type 1, BuildingBlock: PAMTOO_clean_linker_0, # of connection points: 3
#     Node 8, Type 1, BuildingBlock: PAMTOO_clean_linker_0, # of connection points: 3
#     Edge 9, Type (0, 1), BuildingBlock: XIVTED_clean_linker_0, # of connection points: 2
#     Edge 10, Type (0, 1), BuildingBlock: XIVTED_clean_linker_0, # of connection points: 2
#     Edge 11, Type (0, 1), BuildingBlock: XIVTED_clean_linker_0, # of connection points: 2
#     Edge 12, Type (0, 1), BuildingBlock: XIVTED_clean_linker_0, # of connection points: 2
#     Edge 13, Type (0, 1), BuildingBlock: XIVTED_clean_linker_0, # of connection points: 2
#     Edge 14, Type (0, 1), BuildingBlock: XIVTED_clean_linker_0, # of connection points: 2
#     Edge 15, Type (0, 1), BuildingBlock: XIVTED_clean_linker_0, # of connection points: 2
#     Edge 16, Type (0, 1), BuildingBlock: XIVTED_clean_linker_0, # of connection points: 2
#     Edge 17, Type (0, 1), BuildingBlock: XIVTED_clean_linker_0, # of connection points: 2
#     Edge 18, Type (0, 1), BuildingBlock: XIVTED_clean_linker_0, # of connection points: 2
#     Edge 19, Type (0, 1), BuildingBlock: XIVTED_clean_linker_0, # of connection points: 2
#     Edge 20, Type (0, 1), BuildingBlock: XIVTED_clean_linker_0, # of connection points: 2
#     Edge 21, Type (0, 1), BuildingBlock: XIVTED_clean_linker_0, # of connection points: 2
#     Edge 22, Type (0, 1), BuildingBlock: XIVTED_clean_linker_0, # of connection points: 2
#     Edge 23, Type (0, 1), BuildingBlock: XIVTED_clean_linker_0, # of connection points: 2
#     Edge 24, Type (0, 1), BuildingBlock: XIVTED_clean_linker_0, # of connection points: 2
#     Edge 25, Type (0, 1), BuildingBlock: XIVTED_clean_linker_0, # of connection points: 2
#     Edge 26, Type (0, 1), BuildingBlock: XIVTED_clean_linker_0, # of connection points: 2
# Relax obj value: 0.165
# Max RMSD: 0.184
# Mean RMSD: 0.125
data_MOF--net-anh--node1-BETFAJ_clean_sbu_0--node2-PAMTOO_clean_linker_0--edge1-XIVTED_clean_linker_0
_symmetry_space_group_name_H-M    P1
_symmetry_Int_Tables_number       1
_symmetry_cell_setting            triclinic
loop_
_symmetry_equiv_pos_as_xyz
'x, y, z'
_cell_length_a     31.178563
_cell_length_b     38.215502
_cell_length_c     49.493282
_cell_angle_alpha  87.82944
_cell_angle_beta   91.808127
_cell_angle_gamma 130.09466
loop_
_atom_site_label
_atom_site_type_symbol
_atom_site_fract_x
_atom_site_fract_y
_atom_site_fract_z
_atom_type_partial_charge
Sm0 Sm 0.2205 0.55951 0.13954 0.0
Sm1 Sm 0.15051 0.58236 0.16014 0.0
C2 C 0.28546 0.5503 0.11341 0.0
C3 C 0.28867 0.51414 0.10962 0.0
C4 C 0.32032 0.51809 0.0884 0.0
C5 C 0.32559 0.48481 0.08526 0.0
C6 C 0.29944 0.44717 0.10341 0.0
C7 C 0.26685 0.44298 0.12438 0.0
C8 C 0.26135 0.47613 0.1274 0.0
C9 C 0.21129 0.5552 0.19465 0.0
C10 C 0.2793 0.6675 0.14917 0.0
C11 C 1.08169 0.58586 0.18741 0.0
C12 C 1.02053 0.55631 0.18902 0.0
C13 C 0.99558 0.56705 0.20604 0.0
C14 C 0.93713 0.53932 0.20685 0.0
C15 C 0.90298 0.50037 0.19073 0.0
C16 C 0.9285 0.48942 0.17412 0.0
C17 C 0.98671 0.51718 0.17325 0.0
C18 C 0.15563 0.58284 0.10459 0.0
C19 C 0.0909 0.47278 0.15248 0.0
O20 O 0.29639 0.56621 0.13783 0.0
O21 O 0.24267 0.54417 0.10206 0.0
O22 O 0.21922 0.58589 0.17926 0.0
O23 O 0.21053 0.52622 0.18125 0.0
O24 O 0.27766 0.63903 0.13371 0.0
O25 O 0.23732 0.65215 0.16533 0.0
O26 O 0.10331 0.56799 0.19738 0.0
O27 O 0.10341 0.6072 0.16418 0.0
O28 O 0.14999 0.554 0.12079 0.0
O29 O 0.15556 0.61181 0.11744 0.0
O30 O 0.08871 0.50298 0.16294 0.0
O31 O 0.13623 0.48577 0.14007 0.0
H32 H 0.3416 0.54724 0.07449 0.0
H33 H 0.35133 0.48917 0.06906 0.0
H34 H 0.24556 0.41404 0.13844 0.0
H35 H 0.23631 0.47238 0.14379 0.0
H36 H 1.02127 0.5971 0.21842 0.0
H37 H 0.91869 0.5485 0.21992 0.0
H38 H 0.9036 0.46026 0.16102 0.0
H39 H 1.00538 0.50857 0.15987 0.0
Sm40 Sm 0.69505 0.04815 0.47832 0.0
Sm41 Sm 0.6223 0.07107 0.46064 0.0
C42 C 0.74033 0.01685 0.50432 0.0
C43 C 0.73498 0.97575 0.50678 0.0
C44 C 0.75249 0.96761 0.53081 0.0
C45 C 0.74996 0.92983 0.53345 0.0
C46 C 0.73002 0.89944 0.51203 0.0
C47 C 0.71143 0.90726 0.48808 0.0
C48 C 0.71384 0.94513 0.48549 0.0
C49 C 0.69129 0.0576 0.42316 0.0
C50 C 0.56029 0.9639 0.46489 0.0
C51 C 0.57886 0.1071 0.43968 0.0
C52 C 0.58533 0.14745 0.44654 0.0
C53 C 0.57759 0.17012 0.4267 0.0
C54 C 0.58483 0.20903 0.43314 0.0
C55 C 0.59987 0.22591 0.4596 0.0
C56 C 0.60768 0.20294 0.47937 0.0
C57 C 0.60081 0.16433 0.47287 0.0
C58 C 0.62941 0.0631 0.51587 0.0
C59 C 0.75848 0.15518 0.46954 0.0
O60 O 0.69959 0.0138 0.51422 0.0
O61 O 0.75917 0.03991 0.48138 0.0
O62 O 0.6498 0.0382 0.43859 0.0
O63 O 0.73522 0.06917 0.43632 0.0
O64 O 0.60504 0.97698 0.47907 0.0
O65 O 0.55985 0.99434 0.45162 0.0
O66 O 0.62328 0.11561 0.42987 0.0
O67 O 0.55311 0.07346 0.45757 0.0
O68 O 0.66957 0.08284 0.49968 0.0
O69 O 0.58384 0.04887 0.50333 0.0
O70 O 0.71208 0.14081 0.45667 0.0
O71 O 0.76061 0.12618 0.48348 0.0
H72 H 0.76853 0.99073 0.54751 0.0
H73 H 0.76344 0.92434 0.55239 0.0
H74 H 0.69613 0.88472 0.47114 0.0
H75 H 0.69987 0.95079 0.46679 0.0
H76 H 0.56626 0.15788 0.4062 0.0
H77 H 0.57934 0.22618 0.41728 0.0
H78 H 0.61841 0.21438 0.50003 0.0
H79 H 0.60747 0.14753 0.48846 0.0
Sm80 Sm 0.67438 0.58012 0.8355 0.0
Sm81 Sm 0.58801 0.47143 0.84097 0.0
C82 C 0.7298 0.66713 0.82144 0.0
C83 C 0.71988 0.69966 0.81552 0.0
C84 C 0.73784 0.72419 0.79083 0.0
C85 C 0.73147 0.75675 0.78517 0.0
C86 C 0.70733 0.76586 0.80422 0.0
C87 C 0.68858 0.7407 0.82883 0.0
C88 C 0.69468 0.7079 0.83441 0.0
C89 C 0.64819 0.54191 0.88666 0.0
C90 C 0.5344 0.52436 0.83711 0.0
C91 C 0.53423 0.38785 0.86076 0.0
C92 C 0.53566 0.35132 0.85393 0.0
C93 C 0.53516 0.32481 0.87451 0.0
C94 C 0.54109 0.29264 0.86831 0.0
C95 C 0.54772 0.28641 0.84134 0.0
C96 C 0.54741 0.31271 0.82077 0.0
C97 C 0.54176 0.34493 0.827 0.0
C98 C 0.61686 0.49641 0.78736 0.0
C99 C 0.72881 0.52915 0.83865 0.0
O100 O 0.71048 0.63513 0.80384 0.0
O101 O 0.72443 0.65271 0.84651 0.0
O102 O 0.61504 0.52887 0.86703 0.0
O103 O 0.69879 0.57808 0.88012 0.0
O104 O 0.58656 0.56294 0.83205 0.0
O105 O 0.52436 0.48518 0.84281 0.0
O106 O 0.5803 0.42397 0.87183 0.0
O107 O 0.51209 0.39809 0.84249 0.0
O108 O 0.63438 0.52266 0.80699 0.0
O109 O 0.58063 0.4543 0.79589 0.0
O110 O 0.67747 0.49113 0.8455 0.0
O111 O 0.7376 0.56716 0.83124 0.0
H112 H 0.75729 0.71841 0.77592 0.0
H113 H 0.74538 0.7747 0.76579 0.0
H114 H 0.67032 0.74703 0.84411 0.0
H115 H 0.68033 0.68949 0.85366 0.0
H116 H 0.53128 0.32963 0.89546 0.0
H117 H 0.54186 0.27349 0.88472 0.0
H118 H 0.55146 0.30842 0.79975 0.0
H119 H 0.54289 0.36525 0.81072 0.0
H120 H 0.76409 0.1574 0.22661 0.0
H121 H 0.64211 0.01393 0.2102 0.0
H122 H 0.7354 0.11095 0.14478 0.0
H123 H 0.61594 0.01894 0.12348 0.0
C124 C 0.60686 1.00785 0.14509 0.0
O125 O 0.65619 0.02327 0.15798 0.0
H126 H 0.59032 0.02365 0.15363 0.0
C127 C 0.74146 0.13011 0.21212 0.0
C128 C 0.75484 0.14032 0.1845 0.0
C129 C 0.70144 0.08477 0.22155 0.0
C130 C 0.67311 0.04908 0.20311 0.0
C131 C 0.68449 0.05844 0.17543 0.0
C132 C 0.72607 0.10399 0.16616 0.0
H133 H 0.70166 0.63894 0.59377 0.0
H134 H 0.67637 0.5167 0.5776 0.0
H135 H 0.69261 0.60061 0.5118 0.0
H136 H 0.60962 0.5004 0.49991 0.0
C137 C 0.62337 0.48849 0.51613 0.0
O138 O 0.67598 0.52566 0.52517 0.0
H139 H 0.59254 0.47276 0.53287 0.0
C140 C 0.69808 0.61618 0.57964 0.0
C141 C 0.69954 0.6252 0.55173 0.0
C142 C 0.6892 0.57695 0.58939 0.0
C143 C 0.68259 0.54692 0.57069 0.0
C144 C 0.68341 0.55533 0.54285 0.0
C145 C 0.69179 0.59433 0.53339 0.0
H146 H 1.04575 0.54336 0.90162 0.0
H147 H 0.17583 0.53397 0.89889 0.0
H148 H 0.0884 0.52111 0.82561 0.0
H149 H 0.24763 0.5815 0.8587 0.0
C150 C 0.22823 0.55599 0.84238 0.0
O151 O 0.17078 0.52091 0.84771 0.0
H152 H 0.2314 0.57412 0.82346 0.0
C153 C 1.07124 0.5394 0.88997 0.0
C154 C 1.06092 0.53219 0.86208 0.0
C155 C 0.11228 0.54014 0.90336 0.0
C156 C 0.1443 0.53356 0.88861 0.0
C157 C 0.1378 0.52772 0.86057 0.0
C158 C 0.09523 0.52674 0.84714 0.0
H159 H 1.07958 0.46072 0.39292 0.0
H160 H 0.22975 0.59995 0.40466 0.0
H161 H 0.12825 0.51597 0.47285 0.0
H162 H 0.1974 0.62262 0.48412 0.0
C163 C 0.21305 0.62973 0.4631 0.0
O164 O 0.2193 0.59824 0.45676 0.0
H165 H 0.18097 0.62605 0.44971 0.0
C166 C 0.10862 0.48897 0.40623 0.0
C167 C 0.0979 0.48306 0.43409 0.0
C168 C 0.15613 0.53073 0.39533 0.0
C169 C 0.19282 0.56743 0.41264 0.0
C170 C 0.18287 0.5623 0.4405 0.0
C171 C 0.13579 0.51987 0.45131 0.0
H172 H 0.66788 0.98935 0.71315 0.0
H173 H 0.63377 0.07946 0.72867 0.0
H174 H 0.64935 0.01254 0.79492 0.0
H175 H 0.56463 0.02461 0.80559 0.0
C176 C 0.57831 0.05055 0.78923 0.0
O177 O 0.6314 0.06918 0.78117 0.0
H178 H 0.54791 0.03321 0.77209 0.0
C179 C 0.66129 1.00644 0.72729 0.0
C180 C 0.66047 0.99756 0.7552 0.0
C181 C 0.6512 0.03554 0.71739 0.0
C182 C 0.64099 0.05646 0.73583 0.0
C183 C 0.64029 0.0481 0.76367 0.0
C184 C 0.64974 0.01857 0.77332 0.0
H185 H 0.59395 0.40651 0.08365 0.0
H186 H 0.4454 0.29721 0.04072 0.0
H187 H 0.47812 0.27246 0.12079 0.0
H188 H 0.35592 0.20372 0.11163 0.0
C189 C 0.35791 0.21803 0.09128 0.0
O190 O 0.40848 0.23637 0.0795 0.0
H191 H 0.32339 0.18886 0.07901 0.0
C192 C 0.55504 0.37147 0.08297 0.0
C193 C 0.53996 0.34178 0.10525 0.0
C194 C 0.52188 0.35594 0.05936 0.0
C195 C 0.47152 0.31039 0.05875 0.0
C196 C 0.4558 0.28063 0.08093 0.0
C197 C 0.49025 0.29609 0.10398 0.0
H198 H 0.29707 0.40798 0.05741 0.0
H199 H 0.37249 0.26599 0.13548 0.0
H200 H 0.32057 0.40916 0.14386 0.0
H201 H 0.32554 0.2488 0.05121 0.0
H202 H 0.35881 0.32204 0.13832 0.0
H203 H 0.31223 0.3529 0.05403 0.0
C204 C 0.30556 0.39673 0.07566 0.0
C205 C 0.30743 0.4131 0.10097 0.0
C206 C 0.35115 0.30589 0.11921 0.0
C207 C 0.32469 0.35008 0.09726 0.0
C208 C 0.35884 0.2739 0.11764 0.0
C209 C 0.34891 0.25227 0.09323 0.0
C210 C 0.33395 0.31665 0.0961 0.0
C211 C 0.3326 0.26432 0.07049 0.0
C212 C 0.31395 0.36515 0.07373 0.0
C213 C 0.31801 0.397 0.12399 0.0
N214 N 0.32549 0.2957 0.07246 0.0
N215 N 0.32638 0.36651 0.12157 0.0
H216 H 0.8643 0.20025 0.49178 0.0
H217 H 0.99045 0.43862 0.41757 0.0
H218 H 0.76677 0.22383 0.4437 0.0
H219 H 0.08844 0.42475 0.47288 0.0
H220 H 0.90738 0.36038 0.42895 0.0
H221 H 0.94618 0.28198 0.48685 0.0
C222 C 0.85992 0.22251 0.48031 0.0
C223 C 0.80843 0.20484 0.468 0.0
C224 C 0.94677 0.37435 0.43889 0.0
C225 C 0.90206 0.29847 0.46229 0.0
C226 C 0.9942 0.41913 0.43242 0.0
C227 C 1.04635 0.43816 0.44429 0.0
C228 C 0.9513 0.34777 0.45716 0.0
C229 C 1.04888 0.41141 0.46342 0.0
C230 C 0.90671 0.26921 0.47755 0.0
C231 C 0.80544 0.23553 0.45345 0.0
N232 N 1.00214 0.36734 0.46905 0.0
N233 N 0.85146 0.28052 0.45092 0.0
H234 H 0.78225 0.84888 0.77789 0.0
H235 H 0.60111 0.92824 0.7934 0.0
H236 H 0.62191 0.7656 0.81767 0.0
H237 H 0.74091 0.9941 0.73927 0.0
H238 H 0.61396 0.87311 0.80704 0.0
H239 H 0.77282 0.90655 0.76759 0.0
C240 C 0.74484 0.84247 0.78434 0.0
C241 C 0.70257 0.80189 0.79849 0.0
C242 C 0.6419 0.89972 0.79224 0.0
C243 C 0.69208 0.86862 0.78714 0.0
C244 C 0.63485 0.93137 0.7846 0.0
C245 C 0.66982 0.96567 0.76506 0.0
C246 C 0.68457 0.90265 0.78045 0.0
C247 C 0.71253 0.96786 0.75413 0.0
C248 C 0.73969 0.87567 0.77858 0.0
C249 C 0.65584 0.79639 0.80693 0.0
N250 N 0.71867 0.93682 0.76195 0.0
N251 N 0.65182 0.82929 0.80109 0.0
H252 H 0.84477 0.53164 0.18922 0.0
H253 H 0.57315 0.29806 0.13119 0.0
H254 H 0.8207 0.40709 0.18853 0.0
H255 H 0.59783 0.42285 0.13157 0.0
H256 H 0.65318 0.33224 0.16195 0.0
H257 H 0.7457 0.48788 0.17813 0.0
C258 C 0.8184 0.49492 0.18736 0.0
C259 C 0.84134 0.47314 0.18925 0.0
C260 C 0.6405 0.3519 0.15572 0.0
C261 C 0.72803 0.42293 0.17597 0.0
C262 C 0.59451 0.33224 0.1383 0.0
C263 C 0.5796 0.35803 0.12837 0.0
C264 C 0.67197 0.39774 0.16307 0.0
C265 C 0.6089 0.40222 0.13821 0.0
C266 C 0.76181 0.46994 0.18085 0.0
C267 C 0.80508 0.42546 0.18651 0.0
N268 N 0.65429 0.42098 0.15463 0.0
N269 N 0.75044 0.40207 0.17958 0.0
H270 H 0.46399 0.92338 0.43473 0.0
H271 H 0.3105 0.66871 0.49224 0.0
H272 H 0.54282 0.89085 0.49116 0.0
H273 H 0.2404 0.70116 0.43008 0.0
H274 H 0.39667 0.74935 0.49178 0.0
H275 H 0.38231 0.84206 0.43267 0.0
C276 C 0.46426 0.8992 0.4467 0.0
C277 C 0.51057 0.91427 0.46321 0.0
C278 C 0.36264 0.7388 0.47809 0.0
C279 C 0.41651 0.82049 0.46095 0.0
C280 C 0.31361 0.69279 0.47829 0.0
C281 C 0.26835 0.67824 0.46115 0.0
C282 C 0.36634 0.77067 0.46072 0.0
C283 C 0.27429 0.71086 0.44361 0.0
C284 C 0.41749 0.85261 0.44546 0.0
C285 C 0.50821 0.88101 0.47817 0.0
N286 N 0.3221 0.75545 0.44396 0.0
N287 N 0.462 0.83584 0.47676 0.0
H288 H 0.61633 0.29545 0.80292 0.0
H289 H 0.52989 0.05016 0.83485 0.0
H290 H 0.49746 0.20133 0.8644 0.0
H291 H 0.62379 0.13351 0.76467 0.0
H292 H 0.52466 0.10826 0.84857 0.0
H293 H 0.62623 0.23957 0.79108 0.0
C294 C 0.592 0.26296 0.81387 0.0
C295 C 0.55554 0.25309 0.83458 0.0
C296 C 0.54677 0.11405 0.83027 0.0
C297 C 0.56758 0.18903 0.82134 0.0
C298 C 0.54997 0.08101 0.82251 0.0
C299 C 0.57819 0.0875 0.79886 0.0
C300 C 0.57173 0.15383 0.81418 0.0
C301 C 0.60248 0.12762 0.7833 0.0
C302 C 0.59799 0.23113 0.80717 0.0
C303 C 0.52639 0.21076 0.84846 0.0
N304 N 0.59883 0.15931 0.79126 0.0
N305 N 0.53296 0.18032 0.84156 0.0
H306 H 0.80912 0.89779 0.53601 0.0
H307 H 0.63983 0.63133 0.51279 0.0
H308 H 0.64957 0.81144 0.49419 0.0
H309 H 0.77781 0.71267 0.56907 0.0
H310 H 0.64996 0.69907 0.50018 0.0
H311 H 0.80494 0.83219 0.54297 0.0
C312 C 0.77305 0.86499 0.52835 0.0
C313 C 0.72923 0.8601 0.51482 0.0
C314 C 0.67818 0.70209 0.51517 0.0
C315 C 0.72465 0.78473 0.52239 0.0
C316 C 0.67266 0.66358 0.52223 0.0
C317 C 0.70782 0.66641 0.54213 0.0
C318 C 0.7195 0.74373 0.52793 0.0
C319 C 0.74938 0.70889 0.55389 0.0
C320 C 0.77086 0.82757 0.53221 0.0
C321 C 0.6844 0.81693 0.50466 0.0
N322 N 0.75398 0.74581 0.54666 0.0
N323 N 0.68311 0.78084 0.50878 0.0
H324 H 0.84278 0.60188 0.83083 0.0
H325 H 0.94865 0.45645 0.85555 0.0
H326 H 0.72992 0.45702 0.84878 0.0
H327 H 1.0614 0.60299 0.84671 0.0
H328 H 0.86864 0.45487 0.84887 0.0
H329 H 0.92179 0.60202 0.83301 0.0
C330 C 0.83415 0.56991 0.83517 0.0
C331 C 0.77839 0.52938 0.83965 0.0
C332 C 0.91081 0.48742 0.84781 0.0
C333 C 0.87089 0.52932 0.84206 0.0
C334 C 0.95689 0.48828 0.85121 0.0
C335 C 1.01284 0.52979 0.85067 0.0
C336 C 0.91967 0.5285 0.84408 0.0
C337 C 1.01968 0.56994 0.84636 0.0
C338 C 0.87982 0.57007 0.83643 0.0
C339 C 0.77145 0.48934 0.8452 0.0
N340 N 0.97433 0.56828 0.84326 0.0
N341 N 0.8165 0.49038 0.8462 0.0
H342 H 0.3003 0.73322 0.18198 0.0
H343 H 0.59003 0.94314 0.11227 0.0
H344 H 0.37289 0.71569 0.11659 0.0
H345 H 0.52333 0.95536 0.18276 0.0
H346 H 0.51253 0.85995 0.11364 0.0
H347 H 0.38193 0.81443 0.18228 0.0
C348 C 0.33335 0.74636 0.1676 0.0
C349 C 0.32932 0.71726 0.14916 0.0
C350 C 0.51493 0.88074 0.12889 0.0
C351 C 0.42381 0.81111 0.14946 0.0
C352 C 0.55922 0.92816 0.12814 0.0
C353 C 0.56258 0.95617 0.14721 0.0
C354 C 0.47366 0.8611 0.14889 0.0
C355 C 0.52191 0.93505 0.1675 0.0
C356 C 0.38023 0.79293 0.16787 0.0
C357 C 0.37396 0.73666 0.13116 0.0
N358 N 0.47899 0.88897 0.16767 0.0
N359 N 0.41916 0.78231 0.1317 0.0
H360 H 0.67725 0.29467 0.49424 0.0
H361 H 0.5683 0.4347 0.47193 0.0
H362 H 0.53881 0.25124 0.44124 0.0
H363 H 0.67756 0.4585 0.53775 0.0
H364 H 0.56467 0.37243 0.45696 0.0
H365 H 0.68532 0.35974 0.50713 0.0
C366 C 0.64834 0.29859 0.48536 0.0
C367 C 0.60695 0.26698 0.46672 0.0
C368 C 0.58983 0.39151 0.47455 0.0
C369 C 0.61679 0.34221 0.48112 0.0
C370 C 0.59214 0.42716 0.48299 0.0
C371 C 0.62434 0.45243 0.50571 0.0
C372 C 0.61971 0.38083 0.48903 0.0
C373 C 0.65326 0.44051 0.51977 0.0
C374 C 0.65323 0.33598 0.49265 0.0
C375 C 0.57174 0.2748 0.45545 0.0
N376 N 0.65046 0.4057 0.51114 0.0
N377 N 0.57742 0.31152 0.46285 0.0
H378 H 0.53318 0.59275 0.81743 0.0
H379 H 0.22607 0.48761 0.86995 0.0
H380 H 0.42476 0.46028 0.85719 0.0
H381 H 0.32062 0.5967 0.81056 0.0
H382 H 0.2972 0.47764 0.86846 0.0
H383 H 0.45733 0.59619 0.81793 0.0
C384 C 0.49353 0.56418 0.82631 0.0
C385 C 0.4864 0.52602 0.83715 0.0
C386 C 0.30196 0.50332 0.85544 0.0
C387 C 0.39736 0.53015 0.83815 0.0
C388 C 0.26079 0.50876 0.85612 0.0
C389 C 0.26541 0.54207 0.83962 0.0
C390 C 0.34972 0.53229 0.83878 0.0
C391 C 0.31352 0.5696 0.82309 0.0
C392 C 0.44974 0.56619 0.82655 0.0
C393 C 0.43303 0.49043 0.84837 0.0
N394 N 0.35307 0.56428 0.82321 0.0
N395 N 0.39126 0.49349 0.84873 0.0
H396 H 1.07492 0.39804 0.13319 0.0
H397 H 0.76964 0.21595 0.19873 0.0
H398 H 0.99101 0.43404 0.17689 0.0
H399 H 0.84401 0.1758 0.15073 0.0
H400 H 0.84965 0.29611 0.18913 0.0
H401 H 0.99108 0.317 0.13799 0.0
C402 C 1.039 0.38906 0.14374 0.0
C403 C 1.04043 0.42323 0.15471 0.0
C404 C 0.84854 0.26993 0.18048 0.0
C405 C 0.94409 0.33029 0.16024 0.0
C406 C 0.80273 0.22403 0.18598 0.0
C407 C 0.80013 0.18896 0.17567 0.0
C408 C 0.89283 0.28134 0.16467 0.0
C409 C 0.84408 0.20165 0.159 0.0
C410 C 0.99105 0.34271 0.14642 0.0
C411 C 0.99232 0.40924 0.16811 0.0
N412 N 0.88885 0.24676 0.15423 0.0
N413 N 0.94651 0.36411 0.17054 0.0
H414 H 0.1572 0.6373 0.06631 0.0
H415 H 0.12686 0.4944 0.94148 0.0
H416 H 0.14591 0.5189 0.07528 0.0
H417 H 0.11806 0.60242 0.93296 0.0
H418 H 0.14017 0.50623 0.99025 0.0
H419 H 0.14874 0.62826 0.01715 0.0
C420 C 0.15316 0.60952 0.05791 0.0
C421 C 0.15229 0.57883 0.07486 0.0
C422 C 0.13537 0.52739 0.97773 0.0
C423 C 0.14263 0.56823 0.0187 0.0
C424 C 0.12809 0.52082 0.94984 0.0
C425 C 0.12122 0.54739 0.93306 0.0
C426 C 0.13608 0.56096 0.98902 0.0
C427 C 0.12248 0.58075 0.94513 0.0
C428 C 0.14825 0.60432 0.02987 0.0
C429 C 0.14696 0.54343 0.06293 0.0
N430 N 0.12979 0.5866 0.97233 0.0
N431 N 0.14232 0.5391 0.03562 0.0
H432 H 0.61615 0.05567 0.39157 0.0
H433 H 0.71816 0.03429 0.2527 0.0
H434 H 0.75805 0.06077 0.38727 0.0
H435 H 0.66508 0.11383 0.25691 0.0
H436 H 0.71157 0.0244 0.30217 0.0
H437 H 0.61329 0.05889 0.34176 0.0
C438 C 0.64639 0.0572 0.38013 0.0
C439 C 0.68759 0.05822 0.3934 0.0
C440 C 0.70088 0.04363 0.29219 0.0
C441 C 0.68364 0.06073 0.33696 0.0
C442 C 0.70429 0.04902 0.26408 0.0
C443 C 0.69217 0.0749 0.25093 0.0
C444 C 0.68408 0.06345 0.30709 0.0
C445 C 0.67486 0.09373 0.26647 0.0
C446 C 0.64481 0.05913 0.35185 0.0
C447 C 0.72587 0.06022 0.37776 0.0
N448 N 0.67107 0.08748 0.29382 0.0
N449 N 0.72271 0.06104 0.35034 0.0
H450 H 0.57359 0.43952 0.74523 0.0
H451 H 0.74972 0.63626 0.63132 0.0
H452 H 0.69281 0.58271 0.76402 0.0
H453 H 0.61583 0.49341 0.61504 0.0
H454 H 0.73508 0.61805 0.67987 0.0
H455 H 0.59456 0.45933 0.6975 0.0
C456 C 0.60428 0.47529 0.73927 0.0
C457 C 0.63119 0.50961 0.75859 0.0
C458 C 0.70914 0.59074 0.66563 0.0
C459 C 0.65561 0.53269 0.7037 0.0
C460 C 0.71729 0.60108 0.63791 0.0
C461 C 0.68385 0.56633 0.61896 0.0
C462 C 0.66735 0.5453 0.67451 0.0
C463 C 0.64317 0.52129 0.62875 0.0
C464 C 0.61625 0.4866 0.71195 0.0
C465 C 0.6708 0.55531 0.74972 0.0
N466 N 0.63602 0.51218 0.65577 0.0
N467 N 0.68181 0.56562 0.72283 0.0
H468 H 0.72056 0.0876 0.54528 0.0
H469 H 0.57402 0.0343 0.68839 0.0
H470 H 0.55035 0.03397 0.55376 0.0
H471 H 0.72479 0.05298 0.67903 0.0
H472 H 0.56993 0.04292 0.63935 0.0
H473 H 0.72771 0.08311 0.59458 0.0
C474 C 0.68476 0.07495 0.55755 0.0
C475 C 0.63475 0.06103 0.5455 0.0
C476 C 0.60397 0.04521 0.64802 0.0
C477 C 0.64272 0.05617 0.60177 0.0
C478 C 0.60655 0.04064 0.67602 0.0
C479 C 0.64975 0.04284 0.68779 0.0
C480 C 0.64518 0.05247 0.63165 0.0
C481 C 0.69044 0.05058 0.67075 0.0
C482 C 0.68882 0.07234 0.58564 0.0
C483 C 0.58963 0.04495 0.56227 0.0
N484 N 0.68721 0.05518 0.64355 0.0
N485 N 0.59473 0.04308 0.58955 0.0
H486 H 0.54183 0.47393 0.90323 0.0
H487 H 0.62938 0.41759 0.04023 0.0
H488 H 0.714 0.55363 0.92973 0.0
H489 H 0.46026 0.36344 0.02236 0.0
H490 H 0.66134 0.46586 -0.00053 0.0
H491 H 0.51139 0.43091 0.946 0.0
C492 C 0.57328 0.48247 0.91816 0.0
C493 C 0.63055 0.51733 0.91299 0.0
C494 C 0.61732 0.44365 0.00457 0.0
C495 C 0.59591 0.46798 0.96201 0.0
C496 C 0.59896 0.41621 0.02796 0.0
C497 C 0.5419 0.38641 0.03491 0.0
C498 C 0.57837 0.44103 0.98772 0.0
C499 C 0.50445 0.38539 0.01771 0.0
C500 C 0.55582 0.45794 0.9426 0.0
C501 C 0.66946 0.52701 0.933 0.0
N502 N 0.52331 0.41214 -0.00512 0.0
N503 N 0.65142 0.50221 0.95664 0.0
H504 H 0.21795 0.61594 0.22603 0.0
H505 H 0.14718 0.46987 0.36293 0.0
H506 H 0.19003 0.48969 0.23037 0.0
H507 H 0.19 0.60214 0.36065 0.0
H508 H 0.16142 0.47629 0.31422 0.0
H509 H 0.20653 0.6113 0.27512 0.0
C510 C 0.20951 0.58729 0.23736 0.0
C511 C 0.20501 0.55316 0.22421 0.0
C512 C 0.16787 0.50401 0.32433 0.0
C513 C 0.19182 0.54757 0.28025 0.0
C514 C 0.15946 0.50026 0.35214 0.0
C515 C 0.1671 0.53542 0.36587 0.0
C516 C 0.18388 0.54317 0.30999 0.0
C517 C 0.18401 0.57436 0.35091 0.0
C518 C 0.20306 0.58468 0.26536 0.0
C519 C 0.19394 0.51676 0.23976 0.0
N520 N 0.19157 0.5771 0.32374 0.0
N521 N 0.18763 0.51489 0.26695 0.0
loop_
_geom_bond_atom_site_label_1
_geom_bond_atom_site_label_2
_geom_bond_distance
_geom_bond_site_symmetry_2
_ccdc_geom_bond_type
Sm0 C2 2.846 . S
Sm0 O20 2.543 . S
Sm0 O21 2.450 . S
Sm0 O22 2.681 1_455 S
Sm0 O23 2.464 . S
Sm0 O24 2.396 . S
Sm0 O28 2.386 . S
Sm0 O31 2.408 1_455 S
Sm1 C11 2.846 . S
Sm1 O22 2.386 . S
Sm1 O25 2.408 1_655 S
Sm1 O26 2.543 . S
Sm1 O27 2.450 . S
Sm1 O28 2.681 1_655 S
Sm1 O29 2.464 . S
Sm1 O30 2.396 . S
C2 Sm0 2.846 . S
C2 C3 1.506 . S
C2 O20 1.261 . S
C2 O21 1.242 . S
C3 C2 1.506 . S
C3 C4 1.358 . S
C3 C8 1.382 . S
C4 C3 1.358 . S
C4 C5 1.385 . S
C4 H32 0.930 . S
C5 C4 1.385 . S
C5 C6 1.395 . S
C5 H33 0.929 . S
C6 C5 1.395 . S
C6 C7 1.335 . S
C7 C6 1.335 . S
C7 C8 1.398 . S
C7 H34 0.930 . S
C8 C3 1.382 . S
C8 C7 1.398 . S
C8 H35 0.929 . S
C9 O22 1.271 1_455 S
C9 O23 1.251 . S
C10 O24 1.252 . S
C10 O25 1.272 . S
C11 Sm1 2.846 . S
C11 C12 1.506 . S
C11 O26 1.261 . S
C11 O27 1.242 . S
C12 C11 1.506 . S
C12 C13 1.358 . S
C12 C17 1.382 . S
C13 C12 1.358 . S
C13 C14 1.385 . S
C13 H36 0.930 . S
C14 C13 1.385 . S
C14 C15 1.395 . S
C14 H37 0.929 . S
C15 C14 1.395 . S
C15 C16 1.335 . S
C16 C15 1.335 . S
C16 C17 1.398 . S
C16 H38 0.930 . S
C17 C12 1.382 . S
C17 C16 1.398 . S
C17 H39 0.929 . S
C18 O28 1.271 . S
C18 O29 1.251 1_455 S
C19 O30 1.252 . S
C19 O31 1.272 . S
O20 Sm0 2.543 . S
O20 C2 1.261 . S
O21 Sm0 2.450 . S
O21 C2 1.242 . S
O22 Sm0 2.681 1_655 S
O22 Sm1 2.386 . S
O22 C9 1.271 1_655 S
O23 Sm0 2.464 . S
O23 C9 1.251 . S
O24 Sm0 2.396 . S
O24 C10 1.252 . S
O25 Sm1 2.408 1_455 S
O25 C10 1.272 . S
O26 Sm1 2.543 . S
O26 C11 1.261 . S
O27 Sm1 2.450 . S
O27 C11 1.242 . S
O28 Sm0 2.386 . S
O28 Sm1 2.681 1_455 S
O28 C18 1.271 . S
O29 Sm1 2.464 . S
O29 C18 1.251 1_655 S
O30 Sm1 2.396 . S
O30 C19 1.252 . S
O31 Sm0 2.408 1_655 S
O31 C19 1.272 . S
H32 C4 0.930 . S
H33 C5 0.929 . S
H34 C7 0.930 . S
H35 C8 0.929 . S
H36 C13 0.930 . S
H37 C14 0.929 . S
H38 C16 0.930 . S
H39 C17 0.929 . S
Sm40 C42 2.846 1_545 S
Sm40 O60 2.543 1_545 S
Sm40 O61 2.450 1_545 S
Sm40 O62 2.681 . S
Sm40 O63 2.464 . S
Sm40 O64 2.396 1_545 S
Sm40 O68 2.386 . S
Sm40 O71 2.408 . S
Sm41 C51 2.846 . S
Sm41 O62 2.386 . S
Sm41 O65 2.408 1_545 S
Sm41 O66 2.543 . S
Sm41 O67 2.450 . S
Sm41 O68 2.681 . S
Sm41 O69 2.464 . S
Sm41 O70 2.396 . S
C42 Sm40 2.846 1_565 S
C42 C43 1.506 . S
C42 O60 1.261 . S
C42 O61 1.242 . S
C43 C42 1.506 . S
C43 C44 1.358 . S
C43 C48 1.382 . S
C44 C43 1.358 . S
C44 C45 1.385 . S
C44 H72 0.930 . S
C45 C44 1.385 . S
C45 C46 1.395 . S
C45 H73 0.929 . S
C46 C45 1.395 . S
C46 C47 1.335 . S
C47 C46 1.335 . S
C47 C48 1.398 . S
C47 H74 0.930 . S
C48 C43 1.382 . S
C48 C47 1.398 . S
C48 H75 0.929 . S
C49 O62 1.271 . S
C49 O63 1.251 . S
C50 O64 1.252 . S
C50 O65 1.272 . S
C51 Sm41 2.846 . S
C51 C52 1.506 . S
C51 O66 1.261 . S
C51 O67 1.242 . S
C52 C51 1.506 . S
C52 C53 1.358 . S
C52 C57 1.382 . S
C53 C52 1.358 . S
C53 C54 1.385 . S
C53 H76 0.930 . S
C54 C53 1.385 . S
C54 C55 1.395 . S
C54 H77 0.929 . S
C55 C54 1.395 . S
C55 C56 1.335 . S
C56 C55 1.335 . S
C56 C57 1.398 . S
C56 H78 0.930 . S
C57 C52 1.382 . S
C57 C56 1.398 . S
C57 H79 0.929 . S
C58 O68 1.271 . S
C58 O69 1.251 . S
C59 O70 1.252 . S
C59 O71 1.272 . S
O60 Sm40 2.543 1_565 S
O60 C42 1.261 . S
O61 Sm40 2.450 1_565 S
O61 C42 1.242 . S
O62 Sm40 2.681 . S
O62 Sm41 2.386 . S
O62 C49 1.271 . S
O63 Sm40 2.464 . S
O63 C49 1.251 . S
O64 Sm40 2.396 1_565 S
O64 C50 1.252 . S
O65 Sm41 2.408 1_565 S
O65 C50 1.272 . S
O66 Sm41 2.543 . S
O66 C51 1.261 . S
O67 Sm41 2.450 . S
O67 C51 1.242 . S
O68 Sm40 2.386 . S
O68 Sm41 2.681 . S
O68 C58 1.271 . S
O69 Sm41 2.464 . S
O69 C58 1.251 . S
O70 Sm41 2.396 . S
O70 C59 1.252 . S
O71 Sm40 2.408 . S
O71 C59 1.272 . S
H72 C44 0.930 . S
H73 C45 0.929 . S
H74 C47 0.930 . S
H75 C48 0.929 . S
H76 C53 0.930 . S
H77 C54 0.929 . S
H78 C56 0.930 . S
H79 C57 0.929 . S
Sm80 C82 2.846 . S
Sm80 O100 2.543 . S
Sm80 O101 2.450 . S
Sm80 O102 2.681 . S
Sm80 O103 2.464 . S
Sm80 O104 2.396 . S
Sm80 O108 2.386 . S
Sm80 O111 2.408 . S
Sm81 C91 2.846 . S
Sm81 O102 2.386 . S
Sm81 O105 2.408 . S
Sm81 O106 2.543 . S
Sm81 O107 2.450 . S
Sm81 O108 2.681 . S
Sm81 O109 2.464 . S
Sm81 O110 2.396 . S
C82 Sm80 2.846 . S
C82 C83 1.506 . S
C82 O100 1.261 . S
C82 O101 1.242 . S
C83 C82 1.506 . S
C83 C84 1.358 . S
C83 C88 1.382 . S
C84 C83 1.358 . S
C84 C85 1.385 . S
C84 H112 0.930 . S
C85 C84 1.385 . S
C85 C86 1.395 . S
C85 H113 0.929 . S
C86 C85 1.395 . S
C86 C87 1.335 . S
C87 C86 1.335 . S
C87 C88 1.398 . S
C87 H114 0.930 . S
C88 C83 1.382 . S
C88 C87 1.398 . S
C88 H115 0.929 . S
C89 O102 1.271 . S
C89 O103 1.251 . S
C90 O104 1.252 . S
C90 O105 1.272 . S
C91 Sm81 2.846 . S
C91 C92 1.506 . S
C91 O106 1.261 . S
C91 O107 1.242 . S
C92 C91 1.506 . S
C92 C93 1.358 . S
C92 C97 1.382 . S
C93 C92 1.358 . S
C93 C94 1.385 . S
C93 H116 0.930 . S
C94 C93 1.385 . S
C94 C95 1.395 . S
C94 H117 0.929 . S
C95 C94 1.395 . S
C95 C96 1.335 . S
C96 C95 1.335 . S
C96 C97 1.398 . S
C96 H118 0.930 . S
C97 C92 1.382 . S
C97 C96 1.398 . S
C97 H119 0.929 . S
C98 O108 1.271 . S
C98 O109 1.251 . S
C99 O110 1.252 . S
C99 O111 1.272 . S
O100 Sm80 2.543 . S
O100 C82 1.261 . S
O101 Sm80 2.450 . S
O101 C82 1.242 . S
O102 Sm80 2.681 . S
O102 Sm81 2.386 . S
O102 C89 1.271 . S
O103 Sm80 2.464 . S
O103 C89 1.251 . S
O104 Sm80 2.396 . S
O104 C90 1.252 . S
O105 Sm81 2.408 . S
O105 C90 1.272 . S
O106 Sm81 2.543 . S
O106 C91 1.261 . S
O107 Sm81 2.450 . S
O107 C91 1.242 . S
O108 Sm80 2.386 . S
O108 Sm81 2.681 . S
O108 C98 1.271 . S
O109 Sm81 2.464 . S
O109 C98 1.251 . S
O110 Sm81 2.396 . S
O110 C99 1.252 . S
O111 Sm80 2.408 . S
O111 C99 1.272 . S
H112 C84 0.930 . S
H113 C85 0.929 . S
H114 C87 0.930 . S
H115 C88 0.929 . S
H116 C93 0.930 . S
H117 C94 0.929 . S
H118 C96 0.930 . S
H119 C97 0.929 . S
H120 C127 0.929 . S
H121 C130 0.930 . S
H122 C132 0.929 . S
H123 C124 0.969 . S
C124 H123 0.969 . S
C124 O125 1.550 . S
C124 H126 0.973 . S
O125 C124 1.550 . S
O125 C131 1.412 . S
H126 C124 0.973 . S
C127 H120 0.929 . S
C127 C128 1.400 . S
C127 C129 1.364 . S
C128 C127 1.400 . S
C128 C132 1.377 . S
C129 C127 1.364 . S
C129 C130 1.374 1_545 S
C130 H121 0.930 . S
C130 C129 1.374 1_565 S
C130 C131 1.383 . S
C131 O125 1.412 . S
C131 C130 1.383 . S
C131 C132 1.394 1_565 S
C132 H122 0.929 . S
C132 C128 1.377 . S
C132 C131 1.394 1_545 S
H133 C140 0.929 . S
H134 C143 0.930 . S
H135 C145 0.929 . S
H136 C137 0.969 . S
C137 H136 0.969 . S
C137 O138 1.550 . S
C137 H139 0.973 . S
O138 C137 1.550 . S
O138 C144 1.412 . S
H139 C137 0.973 . S
C140 H133 0.929 . S
C140 C141 1.400 . S
C140 C142 1.364 . S
C141 C140 1.400 . S
C141 C145 1.377 . S
C142 C140 1.364 . S
C142 C143 1.374 . S
C143 H134 0.930 . S
C143 C142 1.374 . S
C143 C144 1.383 . S
C144 O138 1.412 . S
C144 C143 1.383 . S
C144 C145 1.394 . S
C145 H135 0.929 . S
C145 C141 1.377 . S
C145 C144 1.394 . S
H146 C153 0.929 . S
H147 C156 0.930 . S
H148 C158 0.929 . S
H149 C150 0.969 . S
C150 H149 0.969 . S
C150 O151 1.550 . S
C150 H152 0.973 . S
O151 C150 1.550 . S
O151 C157 1.412 . S
H152 C150 0.973 . S
C153 H146 0.929 . S
C153 C154 1.400 . S
C153 C155 1.364 . S
C154 C153 1.400 . S
C154 C158 1.377 . S
C155 C153 1.364 . S
C155 C156 1.374 . S
C156 H147 0.930 . S
C156 C155 1.374 . S
C156 C157 1.383 . S
C157 O151 1.412 . S
C157 C156 1.383 . S
C157 C158 1.394 . S
C158 H148 0.929 . S
C158 C154 1.377 . S
C158 C157 1.394 . S
H159 C166 0.929 . S
H160 C169 0.930 . S
H161 C171 0.929 . S
H162 C163 0.969 . S
C163 H162 0.969 . S
C163 O164 1.550 . S
C163 H165 0.973 . S
O164 C163 1.550 . S
O164 C170 1.412 . S
H165 C163 0.973 . S
C166 H159 0.929 . S
C166 C167 1.400 . S
C166 C168 1.364 1_655 S
C167 C166 1.400 . S
C167 C171 1.377 1_655 S
C168 C166 1.364 1_455 S
C168 C169 1.374 . S
C169 H160 0.930 . S
C169 C168 1.374 . S
C169 C170 1.383 . S
C170 O164 1.412 . S
C170 C169 1.383 . S
C170 C171 1.394 . S
C171 H161 0.929 . S
C171 C167 1.377 1_455 S
C171 C170 1.394 . S
H172 C179 0.929 . S
H173 C182 0.930 . S
H174 C184 0.929 . S
H175 C176 0.969 . S
C176 H175 0.969 . S
C176 O177 1.550 . S
C176 H178 0.973 . S
O177 C176 1.550 . S
O177 C183 1.412 . S
H178 C176 0.973 . S
C179 H172 0.929 . S
C179 C180 1.400 . S
C179 C181 1.364 1_565 S
C180 C179 1.400 . S
C180 C184 1.377 1_565 S
C181 C179 1.364 1_545 S
C181 C182 1.374 . S
C182 H173 0.930 . S
C182 C181 1.374 . S
C182 C183 1.383 . S
C183 O177 1.412 . S
C183 C182 1.383 . S
C183 C184 1.394 . S
C184 H174 0.929 . S
C184 C180 1.377 1_545 S
C184 C183 1.394 . S
H185 C192 0.929 . S
H186 C195 0.930 . S
H187 C197 0.929 . S
H188 C189 0.969 . S
C189 H188 0.969 . S
C189 O190 1.550 . S
C189 H191 0.973 . S
O190 C189 1.550 . S
O190 C196 1.412 . S
H191 C189 0.973 . S
C192 H185 0.929 . S
C192 C193 1.400 . S
C192 C194 1.364 . S
C193 C192 1.400 . S
C193 C197 1.377 . S
C194 C192 1.364 . S
C194 C195 1.374 . S
C195 H186 0.930 . S
C195 C194 1.374 . S
C195 C196 1.383 . S
C196 O190 1.412 . S
C196 C195 1.383 . S
C196 C197 1.394 . S
C197 H187 0.929 . S
C197 C193 1.377 . S
C197 C196 1.394 . S
H198 C204 0.930 . S
H199 C208 0.930 . S
H200 C213 0.929 . S
H201 C211 0.929 . S
H202 C206 0.929 . S
H203 C212 0.929 . S
C204 H198 0.930 . S
C204 C205 1.367 . S
C204 C212 1.378 . S
C205 C204 1.367 . S
C205 C213 1.433 . S
C206 H202 0.929 . S
C206 C208 1.378 . S
C206 C210 1.350 . S
C207 C210 1.463 . S
C207 C212 1.350 . S
C207 N215 1.427 . S
C208 H199 0.930 . S
C208 C206 1.378 . S
C208 C209 1.367 . S
C209 C208 1.367 . S
C209 C211 1.433 . S
C210 C206 1.350 . S
C210 C207 1.463 . S
C210 N214 1.427 . S
C211 H201 0.929 . S
C211 C209 1.433 . S
C211 N214 1.384 . S
C212 H203 0.929 . S
C212 C204 1.378 . S
C212 C207 1.350 . S
C213 H200 0.929 . S
C213 C205 1.433 . S
C213 N215 1.384 . S
N214 C210 1.427 . S
N214 C211 1.384 . S
N215 C207 1.427 . S
N215 C213 1.384 . S
H216 C222 0.930 . S
H217 C226 0.930 . S
H218 C231 0.929 . S
H219 C229 0.929 . S
H220 C224 0.929 . S
H221 C230 0.929 . S
C222 H216 0.930 . S
C222 C223 1.367 . S
C222 C230 1.378 . S
C223 C222 1.367 . S
C223 C231 1.433 . S
C224 H220 0.929 . S
C224 C226 1.378 . S
C224 C228 1.350 . S
C225 C228 1.463 . S
C225 C230 1.350 . S
C225 N233 1.427 . S
C226 H217 0.930 . S
C226 C224 1.378 . S
C226 C227 1.367 . S
C227 C226 1.367 . S
C227 C229 1.433 . S
C228 C224 1.350 . S
C228 C225 1.463 . S
C228 N232 1.427 . S
C229 H219 0.929 . S
C229 C227 1.433 . S
C229 N232 1.384 . S
C230 H221 0.929 . S
C230 C222 1.378 . S
C230 C225 1.350 . S
C231 H218 0.929 . S
C231 C223 1.433 . S
C231 N233 1.384 . S
N232 C228 1.427 . S
N232 C229 1.384 . S
N233 C225 1.427 . S
N233 C231 1.384 . S
H234 C240 0.930 . S
H235 C244 0.930 . S
H236 C249 0.929 . S
H237 C247 0.929 . S
H238 C242 0.929 . S
H239 C248 0.929 . S
C240 H234 0.930 . S
C240 C241 1.367 . S
C240 C248 1.378 . S
C241 C240 1.367 . S
C241 C249 1.433 . S
C242 H238 0.929 . S
C242 C244 1.378 . S
C242 C246 1.350 . S
C243 C246 1.463 . S
C243 C248 1.350 . S
C243 N251 1.427 . S
C244 H235 0.930 . S
C244 C242 1.378 . S
C244 C245 1.367 . S
C245 C244 1.367 . S
C245 C247 1.433 . S
C246 C242 1.350 . S
C246 C243 1.463 . S
C246 N250 1.427 . S
C247 H237 0.929 . S
C247 C245 1.433 . S
C247 N250 1.384 . S
C248 H239 0.929 . S
C248 C240 1.378 . S
C248 C243 1.350 . S
C249 H236 0.929 . S
C249 C241 1.433 . S
C249 N251 1.384 . S
N250 C246 1.427 . S
N250 C247 1.384 . S
N251 C243 1.427 . S
N251 C249 1.384 . S
H252 C258 0.930 . S
H253 C262 0.930 . S
H254 C267 0.929 . S
H255 C265 0.929 . S
H256 C260 0.929 . S
H257 C266 0.929 . S
C258 H252 0.930 . S
C258 C259 1.367 . S
C258 C266 1.378 . S
C259 C258 1.367 . S
C259 C267 1.433 . S
C260 H256 0.929 . S
C260 C262 1.378 . S
C260 C264 1.350 . S
C261 C264 1.463 . S
C261 C266 1.350 . S
C261 N269 1.427 . S
C262 H253 0.930 . S
C262 C260 1.378 . S
C262 C263 1.367 . S
C263 C262 1.367 . S
C263 C265 1.433 . S
C264 C260 1.350 . S
C264 C261 1.463 . S
C264 N268 1.427 . S
C265 H255 0.929 . S
C265 C263 1.433 . S
C265 N268 1.384 . S
C266 H257 0.929 . S
C266 C258 1.378 . S
C266 C261 1.350 . S
C267 H254 0.929 . S
C267 C259 1.433 . S
C267 N269 1.384 . S
N268 C264 1.427 . S
N268 C265 1.384 . S
N269 C261 1.427 . S
N269 C267 1.384 . S
H270 C276 0.930 . S
H271 C280 0.930 . S
H272 C285 0.929 . S
H273 C283 0.929 . S
H274 C278 0.929 . S
H275 C284 0.929 . S
C276 H270 0.930 . S
C276 C277 1.367 . S
C276 C284 1.378 . S
C277 C276 1.367 . S
C277 C285 1.433 . S
C278 H274 0.929 . S
C278 C280 1.378 . S
C278 C282 1.350 . S
C279 C282 1.463 . S
C279 C284 1.350 . S
C279 N287 1.427 . S
C280 H271 0.930 . S
C280 C278 1.378 . S
C280 C281 1.367 . S
C281 C280 1.367 . S
C281 C283 1.433 . S
C282 C278 1.350 . S
C282 C279 1.463 . S
C282 N286 1.427 . S
C283 H273 0.929 . S
C283 C281 1.433 . S
C283 N286 1.384 . S
C284 H275 0.929 . S
C284 C276 1.378 . S
C284 C279 1.350 . S
C285 H272 0.929 . S
C285 C277 1.433 . S
C285 N287 1.384 . S
N286 C282 1.427 . S
N286 C283 1.384 . S
N287 C279 1.427 . S
N287 C285 1.384 . S
H288 C294 0.930 . S
H289 C298 0.930 . S
H290 C303 0.929 . S
H291 C301 0.929 . S
H292 C296 0.929 . S
H293 C302 0.929 . S
C294 H288 0.930 . S
C294 C295 1.367 . S
C294 C302 1.378 . S
C295 C294 1.367 . S
C295 C303 1.433 . S
C296 H292 0.929 . S
C296 C298 1.378 . S
C296 C300 1.350 . S
C297 C300 1.463 . S
C297 C302 1.350 . S
C297 N305 1.427 . S
C298 H289 0.930 . S
C298 C296 1.378 . S
C298 C299 1.367 . S
C299 C298 1.367 . S
C299 C301 1.433 . S
C300 C296 1.350 . S
C300 C297 1.463 . S
C300 N304 1.427 . S
C301 H291 0.929 . S
C301 C299 1.433 . S
C301 N304 1.384 . S
C302 H293 0.929 . S
C302 C294 1.378 . S
C302 C297 1.350 . S
C303 H290 0.929 . S
C303 C295 1.433 . S
C303 N305 1.384 . S
N304 C300 1.427 . S
N304 C301 1.384 . S
N305 C297 1.427 . S
N305 C303 1.384 . S
H306 C312 0.930 . S
H307 C316 0.930 . S
H308 C321 0.929 . S
H309 C319 0.929 . S
H310 C314 0.929 . S
H311 C320 0.929 . S
C312 H306 0.930 . S
C312 C313 1.367 . S
C312 C320 1.378 . S
C313 C312 1.367 . S
C313 C321 1.433 . S
C314 H310 0.929 . S
C314 C316 1.378 . S
C314 C318 1.350 . S
C315 C318 1.463 . S
C315 C320 1.350 . S
C315 N323 1.427 . S
C316 H307 0.930 . S
C316 C314 1.378 . S
C316 C317 1.367 . S
C317 C316 1.367 . S
C317 C319 1.433 . S
C318 C314 1.350 . S
C318 C315 1.463 . S
C318 N322 1.427 . S
C319 H309 0.929 . S
C319 C317 1.433 . S
C319 N322 1.384 . S
C320 H311 0.929 . S
C320 C312 1.378 . S
C320 C315 1.350 . S
C321 H308 0.929 . S
C321 C313 1.433 . S
C321 N323 1.384 . S
N322 C318 1.427 . S
N322 C319 1.384 . S
N323 C315 1.427 . S
N323 C321 1.384 . S
H324 C330 0.930 . S
H325 C334 0.930 . S
H326 C339 0.929 . S
H327 C337 0.929 . S
H328 C332 0.929 . S
H329 C338 0.929 . S
C330 H324 0.930 . S
C330 C331 1.367 . S
C330 C338 1.378 . S
C331 C330 1.367 . S
C331 C339 1.433 . S
C332 H328 0.929 . S
C332 C334 1.378 . S
C332 C336 1.350 . S
C333 C336 1.463 . S
C333 C338 1.350 . S
C333 N341 1.427 . S
C334 H325 0.930 . S
C334 C332 1.378 . S
C334 C335 1.367 . S
C335 C334 1.367 . S
C335 C337 1.433 . S
C336 C332 1.350 . S
C336 C333 1.463 . S
C336 N340 1.427 . S
C337 H327 0.929 . S
C337 C335 1.433 . S
C337 N340 1.384 . S
C338 H329 0.929 . S
C338 C330 1.378 . S
C338 C333 1.350 . S
C339 H326 0.929 . S
C339 C331 1.433 . S
C339 N341 1.384 . S
N340 C336 1.427 . S
N340 C337 1.384 . S
N341 C333 1.427 . S
N341 C339 1.384 . S
H342 C348 0.930 . S
H343 C352 0.930 . S
H344 C357 0.929 . S
H345 C355 0.929 . S
H346 C350 0.929 . S
H347 C356 0.929 . S
C348 H342 0.930 . S
C348 C349 1.367 . S
C348 C356 1.378 . S
C349 C348 1.367 . S
C349 C357 1.433 . S
C350 H346 0.929 . S
C350 C352 1.378 . S
C350 C354 1.350 . S
C351 C354 1.463 . S
C351 C356 1.350 . S
C351 N359 1.427 . S
C352 H343 0.930 . S
C352 C350 1.378 . S
C352 C353 1.367 . S
C353 C352 1.367 . S
C353 C355 1.433 . S
C354 C350 1.350 . S
C354 C351 1.463 . S
C354 N358 1.427 . S
C355 H345 0.929 . S
C355 C353 1.433 . S
C355 N358 1.384 . S
C356 H347 0.929 . S
C356 C348 1.378 . S
C356 C351 1.350 . S
C357 H344 0.929 . S
C357 C349 1.433 . S
C357 N359 1.384 . S
N358 C354 1.427 . S
N358 C355 1.384 . S
N359 C351 1.427 . S
N359 C357 1.384 . S
H360 C366 0.930 . S
H361 C370 0.930 . S
H362 C375 0.929 . S
H363 C373 0.929 . S
H364 C368 0.929 . S
H365 C374 0.929 . S
C366 H360 0.930 . S
C366 C367 1.367 . S
C366 C374 1.378 . S
C367 C366 1.367 . S
C367 C375 1.433 . S
C368 H364 0.929 . S
C368 C370 1.378 . S
C368 C372 1.350 . S
C369 C372 1.463 . S
C369 C374 1.350 . S
C369 N377 1.427 . S
C370 H361 0.930 . S
C370 C368 1.378 . S
C370 C371 1.367 . S
C371 C370 1.367 . S
C371 C373 1.433 . S
C372 C368 1.350 . S
C372 C369 1.463 . S
C372 N376 1.427 . S
C373 H363 0.929 . S
C373 C371 1.433 . S
C373 N376 1.384 . S
C374 H365 0.929 . S
C374 C366 1.378 . S
C374 C369 1.350 . S
C375 H362 0.929 . S
C375 C367 1.433 . S
C375 N377 1.384 . S
N376 C372 1.427 . S
N376 C373 1.384 . S
N377 C369 1.427 . S
N377 C375 1.384 . S
H378 C384 0.930 . S
H379 C388 0.930 . S
H380 C393 0.929 . S
H381 C391 0.929 . S
H382 C386 0.929 . S
H383 C392 0.929 . S
C384 H378 0.930 . S
C384 C385 1.367 . S
C384 C392 1.378 . S
C385 C384 1.367 . S
C385 C393 1.433 . S
C386 H382 0.929 . S
C386 C388 1.378 . S
C386 C390 1.350 . S
C387 C390 1.463 . S
C387 C392 1.350 . S
C387 N395 1.427 . S
C388 H379 0.930 . S
C388 C386 1.378 . S
C388 C389 1.367 . S
C389 C388 1.367 . S
C389 C391 1.433 . S
C390 C386 1.350 . S
C390 C387 1.463 . S
C390 N394 1.427 . S
C391 H381 0.929 . S
C391 C389 1.433 . S
C391 N394 1.384 . S
C392 H383 0.929 . S
C392 C384 1.378 . S
C392 C387 1.350 . S
C393 H380 0.929 . S
C393 C385 1.433 . S
C393 N395 1.384 . S
N394 C390 1.427 . S
N394 C391 1.384 . S
N395 C387 1.427 . S
N395 C393 1.384 . S
H396 C402 0.930 . S
H397 C406 0.930 . S
H398 C411 0.929 . S
H399 C409 0.929 . S
H400 C404 0.929 . S
H401 C410 0.929 . S
C402 H396 0.930 . S
C402 C403 1.367 . S
C402 C410 1.378 . S
C403 C402 1.367 . S
C403 C411 1.433 . S
C404 H400 0.929 . S
C404 C406 1.378 . S
C404 C408 1.350 . S
C405 C408 1.463 . S
C405 C410 1.350 . S
C405 N413 1.427 . S
C406 H397 0.930 . S
C406 C404 1.378 . S
C406 C407 1.367 . S
C407 C406 1.367 . S
C407 C409 1.433 . S
C408 C404 1.350 . S
C408 C405 1.463 . S
C408 N412 1.427 . S
C409 H399 0.929 . S
C409 C407 1.433 . S
C409 N412 1.384 . S
C410 H401 0.929 . S
C410 C402 1.378 . S
C410 C405 1.350 . S
C411 H398 0.929 . S
C411 C403 1.433 . S
C411 N413 1.384 . S
N412 C408 1.427 . S
N412 C409 1.384 . S
N413 C405 1.427 . S
N413 C411 1.384 . S
H414 C420 0.930 . S
H415 C424 0.930 . S
H416 C429 0.929 . S
H417 C427 0.929 . S
H418 C422 0.929 . S
H419 C428 0.929 . S
C420 H414 0.930 . S
C420 C421 1.367 . S
C420 C428 1.378 . S
C421 C420 1.367 . S
C421 C429 1.433 . S
C422 H418 0.929 . S
C422 C424 1.378 . S
C422 C426 1.350 . S
C423 C426 1.463 1_554 S
C423 C428 1.350 . S
C423 N431 1.427 . S
C424 H415 0.930 . S
C424 C422 1.378 . S
C424 C425 1.367 . S
C425 C424 1.367 . S
C425 C427 1.433 . S
C426 C422 1.350 . S
C426 C423 1.463 1_556 S
C426 N430 1.427 . S
C427 H417 0.929 . S
C427 C425 1.433 . S
C427 N430 1.384 . S
C428 H419 0.929 . S
C428 C420 1.378 . S
C428 C423 1.350 . S
C429 H416 0.929 . S
C429 C421 1.433 . S
C429 N431 1.384 . S
N430 C426 1.427 . S
N430 C427 1.384 . S
N431 C423 1.427 . S
N431 C429 1.384 . S
H432 C438 0.930 . S
H433 C442 0.930 . S
H434 C447 0.929 . S
H435 C445 0.929 . S
H436 C440 0.929 . S
H437 C446 0.929 . S
C438 H432 0.930 . S
C438 C439 1.367 . S
C438 C446 1.378 . S
C439 C438 1.367 . S
C439 C447 1.433 1_545 S
C440 H436 0.929 . S
C440 C442 1.378 . S
C440 C444 1.350 1_565 S
C441 C444 1.463 . S
C441 C446 1.350 . S
C441 N449 1.427 1_545 S
C442 H433 0.930 . S
C442 C440 1.378 . S
C442 C443 1.367 1_565 S
C443 C442 1.367 1_545 S
C443 C445 1.433 . S
C444 C440 1.350 1_545 S
C444 C441 1.463 . S
C444 N448 1.427 . S
C445 H435 0.929 . S
C445 C443 1.433 . S
C445 N448 1.384 . S
C446 H437 0.929 . S
C446 C438 1.378 . S
C446 C441 1.350 . S
C447 H434 0.929 . S
C447 C439 1.433 1_565 S
C447 N449 1.384 . S
N448 C444 1.427 . S
N448 C445 1.384 . S
N449 C441 1.427 1_565 S
N449 C447 1.384 . S
H450 C456 0.930 . S
H451 C460 0.930 . S
H452 C465 0.929 . S
H453 C463 0.929 . S
H454 C458 0.929 . S
H455 C464 0.929 . S
C456 H450 0.930 . S
C456 C457 1.367 . S
C456 C464 1.378 . S
C457 C456 1.367 . S
C457 C465 1.433 . S
C458 H454 0.929 . S
C458 C460 1.378 . S
C458 C462 1.350 . S
C459 C462 1.463 . S
C459 C464 1.350 . S
C459 N467 1.427 . S
C460 H451 0.930 . S
C460 C458 1.378 . S
C460 C461 1.367 . S
C461 C460 1.367 . S
C461 C463 1.433 . S
C462 C458 1.350 . S
C462 C459 1.463 . S
C462 N466 1.427 . S
C463 H453 0.929 . S
C463 C461 1.433 . S
C463 N466 1.384 . S
C464 H455 0.929 . S
C464 C456 1.378 . S
C464 C459 1.350 . S
C465 H452 0.929 . S
C465 C457 1.433 . S
C465 N467 1.384 . S
N466 C462 1.427 . S
N466 C463 1.384 . S
N467 C459 1.427 . S
N467 C465 1.384 . S
H468 C474 0.930 . S
H469 C478 0.930 . S
H470 C483 0.929 . S
H471 C481 0.929 . S
H472 C476 0.929 . S
H473 C482 0.929 . S
C474 H468 0.930 . S
C474 C475 1.367 1_565 S
C474 C482 1.378 . S
C475 C474 1.367 1_545 S
C475 C483 1.433 . S
C476 H472 0.929 . S
C476 C478 1.378 . S
C476 C480 1.350 . S
C477 C480 1.463 . S
C477 C482 1.350 1_545 S
C477 N485 1.427 . S
C478 H469 0.930 . S
C478 C476 1.378 . S
C478 C479 1.367 . S
C479 C478 1.367 . S
C479 C481 1.433 1_545 S
C480 C476 1.350 . S
C480 C477 1.463 . S
C480 N484 1.427 1_545 S
C481 H471 0.929 . S
C481 C479 1.433 1_565 S
C481 N484 1.384 . S
C482 H473 0.929 . S
C482 C474 1.378 . S
C482 C477 1.350 1_565 S
C483 H470 0.929 . S
C483 C475 1.433 . S
C483 N485 1.384 . S
N484 C480 1.427 1_565 S
N484 C481 1.384 . S
N485 C477 1.427 . S
N485 C483 1.384 . S
H486 C492 0.930 . S
H487 C496 0.930 . S
H488 C501 0.929 . S
H489 C499 0.929 . S
H490 C494 0.929 1_556 S
H491 C500 0.929 . S
C492 H486 0.930 . S
C492 C493 1.367 . S
C492 C500 1.378 . S
C493 C492 1.367 . S
C493 C501 1.433 . S
C494 H490 0.929 1_554 S
C494 C496 1.378 . S
C494 C498 1.350 1_554 S
C495 C498 1.463 . S
C495 C500 1.350 . S
C495 N503 1.427 . S
C496 H487 0.930 . S
C496 C494 1.378 . S
C496 C497 1.367 . S
C497 C496 1.367 . S
C497 C499 1.433 . S
C498 C494 1.350 1_556 S
C498 C495 1.463 . S
C498 N502 1.427 1_556 S
C499 H489 0.929 . S
C499 C497 1.433 . S
C499 N502 1.384 . S
C500 H491 0.929 . S
C500 C492 1.378 . S
C500 C495 1.350 . S
C501 H488 0.929 . S
C501 C493 1.433 . S
C501 N503 1.384 . S
N502 C498 1.427 1_554 S
N502 C499 1.384 . S
N503 C495 1.427 . S
N503 C501 1.384 . S
H504 C510 0.930 . S
H505 C514 0.930 1_655 S
H506 C519 0.929 . S
H507 C517 0.929 . S
H508 C512 0.931 1_655 S
H509 C518 0.929 . S
C510 H504 0.930 . S
C510 C511 1.367 1_455 S
C510 C518 1.378 . S
C511 C510 1.367 1_655 S
C511 C519 1.433 . S
C512 H508 0.931 1_455 S
C512 C514 1.378 . S
C512 C516 1.347 . S
C513 C516 1.463 . S
C513 C518 1.350 . S
C513 N521 1.427 1_455 S
C514 H505 0.930 1_455 S
C514 C512 1.378 . S
C514 C515 1.367 . S
C515 C514 1.367 . S
C515 C517 1.433 . S
C516 C512 1.347 . S
C516 C513 1.463 . S
C516 N520 1.427 . S
C517 H507 0.929 . S
C517 C515 1.433 . S
C517 N520 1.384 . S
C518 H509 0.929 . S
C518 C510 1.378 . S
C518 C513 1.350 . S
C519 H506 0.929 . S
C519 C511 1.433 . S
C519 N521 1.384 . S
N520 C516 1.427 . S
N520 C517 1.384 . S
N521 C513 1.427 1_655 S
N521 C519 1.384 . S
C205 C6 0.608 . S
C209 C189 0.642 . S
C223 C59 1.830 . S
C227 C167 1.802 . S
C241 C86 1.181 . S
C245 C180 1.186 . S
C259 C15 0.397 . S
C263 C193 0.268 . S
C281 C163 1.873 . S
C277 C50 2.010 . S
C299 C176 1.278 . S
C295 C95 1.326 . S
C313 C46 1.092 . S
C317 C141 1.093 . S
C331 C99 3.030 . S
C335 C154 2.996 1_655 S
C349 C10 2.017 . S
C353 C124 1.889 . S
C371 C137 1.318 . S
C367 C55 1.343 . S
C389 C150 2.886 . S
C385 C90 3.064 . S
C403 C19 1.841 . S
C407 C128 1.832 . S
C425 C155 1.751 . S
C421 C18 1.695 . S
C439 C49 1.462 . S
C443 C129 1.491 . S
C457 C98 1.495 . S
C461 C142 1.598 . S
C479 C181 1.545 . S
C475 C58 1.474 . S
C497 C194 1.314 . S
C493 C89 1.299 . S
C511 C9 1.428 1_655 S
C515 C168 1.477 . S
