# Generated by pormake.
# Topology tsx, (6,3)-cn, num edge types: 1
# Building blocks:
#     Node 0, Type 0, BuildingBlock: JUFBIX_clean_sbu_0, # of connection points: 6
#     Node 1, Type 0, BuildingBlock: JUFBIX_clean_sbu_0, # of connection points: 6
#     Node 2, Type 1, BuildingBlock: BELTOD_clean_linker_0, # of connection points: 3
#     Node 3, Type 1, BuildingBlock: BELTOD_clean_linker_0, # of connection points: 3
#     Node 4, Type 1, BuildingBlock: BELTOD_clean_linker_0, # of connection points: 3
#     Node 5, Type 1, BuildingBlock: BELTOD_clean_linker_0, # of connection points: 3
#     Edge 6, Type (0, 1), BuildingBlock: KIFKEQ_clean_linker_1, # of connection points: 2
#     Edge 7, Type (0, 1), BuildingBlock: KIFKEQ_clean_linker_1, # of connection points: 2
#     Edge 8, Type (0, 1), BuildingBlock: KIFKEQ_clean_linker_1, # of connection points: 2
#     Edge 9, Type (0, 1), BuildingBlock: KIFKEQ_clean_linker_1, # of connection points: 2
#     Edge 10, Type (0, 1), BuildingBlock: KIFKEQ_clean_linker_1, # of connection points: 2
#     Edge 11, Type (0, 1), BuildingBlock: KIFKEQ_clean_linker_1, # of connection points: 2
#     Edge 12, Type (0, 1), BuildingBlock: KIFKEQ_clean_linker_1, # of connection points: 2
#     Edge 13, Type (0, 1), BuildingBlock: KIFKEQ_clean_linker_1, # of connection points: 2
#     Edge 14, Type (0, 1), BuildingBlock: KIFKEQ_clean_linker_1, # of connection points: 2
#     Edge 15, Type (0, 1), BuildingBlock: KIFKEQ_clean_linker_1, # of connection points: 2
#     Edge 16, Type (0, 1), BuildingBlock: KIFKEQ_clean_linker_1, # of connection points: 2
#     Edge 17, Type (0, 1), BuildingBlock: KIFKEQ_clean_linker_1, # of connection points: 2
# Relax obj value: 0.144
# Max RMSD: 0.160
# Mean RMSD: 0.126
data_MOF--net-tsx--node1-JUFBIX_clean_sbu_0--node2-BELTOD_clean_linker_0--edge1-KIFKEQ_clean_linker_1
_symmetry_space_group_name_H-M    P1
_symmetry_Int_Tables_number       1
_symmetry_cell_setting            triclinic
loop_
_symmetry_equiv_pos_as_xyz
'x, y, z'
_cell_length_a     22.807915
_cell_length_b     27.005669
_cell_length_c     40.335679
_cell_angle_alpha  92.847083
_cell_angle_beta   89.578256
_cell_angle_gamma 98.350209
loop_
_atom_site_label
_atom_site_type_symbol
_atom_site_fract_x
_atom_site_fract_y
_atom_site_fract_z
_atom_type_partial_charge
Co0 Co 0.0352 0.98255 0.01316 0.0
C1 C 0.99033 0.00832 0.95292 0.0
Co2 Co 0.9604 0.02626 0.01801 0.0
C3 C 0.11349 0.90635 0.01813 0.0
C4 C 0.14882 0.96719 0.98836 0.0
N5 N 0.10109 0.94993 0.00666 0.0
N6 N 0.16746 0.89651 0.00806 0.0
C7 C 0.18969 0.93474 0.98938 0.0
H8 H 0.08399 0.88268 0.03385 0.0
H9 H 0.15355 0.0012 0.97492 0.0
C10 C 0.00638 0.00072 0.07831 0.0
N11 N 0.89443 0.05853 0.02458 0.0
C12 C 0.88199 0.10197 0.01303 0.0
C13 C 0.84777 0.04224 0.04388 0.0
N14 N 0.8294 0.11343 0.02452 0.0
C15 C 0.80786 0.07565 0.04384 0.0
C16 C 0.92898 0.92154 0.01315 0.0
O17 O 0.04268 0.98051 0.05989 0.0
O18 O 0.96696 0.02199 0.06491 0.0
O19 O 0.90996 0.96352 0.01536 0.0
O20 O 0.98448 0.92058 0.0121 0.0
O21 O 0.95486 0.03023 0.97096 0.0
H22 H 0.84323 0.00827 0.05738 0.0
H23 H 0.9116 0.12514 0.99711 0.0
O24 O 0.02743 0.98508 0.96671 0.0
O25 O 0.08507 0.04499 0.01413 0.0
O26 O 0.01164 0.08882 0.02048 0.0
C27 C 0.06682 0.08719 0.01731 0.0
H28 H 0.23214 0.93842 0.97684 0.0
H29 H 0.76597 0.07204 0.05691 0.0
Co30 Co 0.53514 0.48831 0.51702 0.0
C31 C 0.4929 0.51311 0.45618 0.0
Co32 Co 0.45746 0.52902 0.52072 0.0
C33 C 0.60955 0.40905 0.51917 0.0
C34 C 0.65535 0.47668 0.50026 0.0
N35 N 0.60231 0.45637 0.51229 0.0
N36 N 0.66506 0.39965 0.51231 0.0
C37 C 0.69398 0.44215 0.50053 0.0
H38 H 0.57502 0.382 0.5291 0.0
H39 H 0.6653 0.51398 0.49125 0.0
C40 C 0.50102 0.50453 0.58167 0.0
N41 N 0.39061 0.56053 0.5258 0.0
C42 C 0.37784 0.60262 0.51244 0.0
C43 C 0.34477 0.54648 0.54623 0.0
N44 N 0.32611 0.61556 0.52406 0.0
C45 C 0.30522 0.58021 0.54528 0.0
C46 C 0.42955 0.42468 0.51517 0.0
O47 O 0.53809 0.48443 0.56376 0.0
O48 O 0.46244 0.52611 0.56776 0.0
O49 O 0.4084 0.46567 0.51836 0.0
O50 O 0.48535 0.42572 0.5137 0.0
O51 O 0.45379 0.5316 0.47356 0.0
H52 H 0.34088 0.51418 0.56135 0.0
H53 H 0.40685 0.62421 0.49539 0.0
O54 O 0.53191 0.49261 0.47055 0.0
O55 O 0.58367 0.55178 0.52029 0.0
O56 O 0.50695 0.59217 0.52302 0.0
C57 C 0.56276 0.59294 0.52221 0.0
H58 H 0.73937 0.44731 0.4918 0.0
H59 H 0.2643 0.57887 0.55919 0.0
P60 P 0.06526 0.06044 0.44161 0.0
H61 H 0.04647 0.12195 0.50033 0.0
H62 H 0.96222 0.15993 0.52049 0.0
H63 H 0.8512 0.07101 0.44646 0.0
H64 H 0.93731 0.03473 0.42568 0.0
H65 H 0.18407 0.04318 0.45801 0.0
H66 H 0.22471 0.9702 0.47476 0.0
H67 H 0.04795 0.88661 0.47681 0.0
H68 H 0.00728 0.96166 0.46201 0.0
H69 H 0.09929 0.1231 0.38558 0.0
H70 H 0.00952 0.97379 0.40004 0.0
O71 O 0.11732 0.11027 0.44781 0.0
H72 H 0.08902 0.10835 0.32558 0.0
H73 H 0.99904 0.95883 0.33987 0.0
C74 C 0.99871 0.07655 0.46108 0.0
C75 C 0.00383 0.10994 0.48888 0.0
C76 C 0.95507 0.13143 0.50052 0.0
C77 C 0.89955 0.11939 0.4848 0.0
C78 C 0.89348 0.08234 0.45865 0.0
C79 C 0.94272 0.06118 0.44684 0.0
C80 C 0.09261 0.00793 0.45882 0.0
C81 C 0.15382 0.00948 0.46263 0.0
C82 C 0.17718 0.96722 0.47177 0.0
C83 C 0.13998 0.92177 0.47642 0.0
C84 C 0.07818 0.92084 0.47363 0.0
C85 C 0.05473 0.96367 0.465 0.0
C86 C 0.05595 0.0493 0.39736 0.0
C87 C 0.07759 0.08702 0.3759 0.0
C88 C 0.07188 0.07851 0.34155 0.0
C89 C 0.04368 0.03228 0.32798 0.0
C90 C 0.02087 0.99488 0.34959 0.0
C91 C 0.02714 0.00329 0.38399 0.0
P92 P 0.05148 0.96611 0.59296 0.0
H93 H 0.02625 0.88029 0.54652 0.0
H94 H 0.9344 0.83518 0.5236 0.0
H95 H 0.8386 0.94907 0.56736 0.0
H96 H 0.93178 0.99401 0.59045 0.0
H97 H 0.16038 0.97649 0.55377 0.0
H98 H 0.22045 0.0489 0.53069 0.0
H99 H 0.08858 0.14145 0.5617 0.0
H100 H 0.02797 0.06833 0.58419 0.0
H101 H 0.9641 0.92205 0.64032 0.0
H102 H 0.10394 0.04798 0.6392 0.0
O103 O 0.09524 0.92194 0.59536 0.0
H104 H 0.9474 0.94041 0.69916 0.0
H105 H 0.08642 0.06745 0.69782 0.0
C106 C 0.98544 0.93961 0.57079 0.0
C107 C 0.98575 0.89607 0.5506 0.0
C108 C 0.93303 0.8705 0.53731 0.0
C109 C 0.87888 0.8882 0.54398 0.0
C110 C 0.87943 0.93405 0.56225 0.0
C111 C 0.93256 0.95981 0.57537 0.0
C112 C 0.09047 0.01749 0.57136 0.0
C113 C 0.14403 0.01222 0.55531 0.0
C114 C 0.17845 0.05367 0.54221 0.0
C115 C 0.15964 0.10101 0.54475 0.0
C116 C 0.10417 0.10543 0.55919 0.0
C117 C 0.06961 0.06381 0.57217 0.0
C118 C 0.03408 0.98447 0.63505 0.0
C119 C 0.99007 0.95456 0.65248 0.0
C120 C 0.98045 0.96519 0.68618 0.0
C121 C 0.01532 0.00562 0.70323 0.0
C122 C 0.05894 0.0359 0.68551 0.0
C123 C 0.06859 0.02512 0.65182 0.0
P124 P 0.57333 0.55792 0.94369 0.0
H125 H 0.57163 0.65104 0.98314 0.0
H126 H 0.49179 0.69208 0.00648 0.0
H127 H 0.36522 0.56291 0.97628 0.0
H128 H 0.44633 0.52194 0.95237 0.0
H129 H 0.67333 0.54451 0.98494 0.0
H130 H 0.71023 0.47037 0.00339 0.0
H131 H 0.5555 0.37748 0.96154 0.0
H132 H 0.51772 0.4527 0.9444 0.0
H133 H 0.48952 0.59258 0.89799 0.0
H134 H 0.61985 0.49156 0.89413 0.0
O135 O 0.633 0.60178 0.94355 0.0
H136 H 0.47257 0.57733 0.83837 0.0
H137 H 0.60261 0.47571 0.83465 0.0
C138 C 0.51481 0.58367 0.96569 0.0
C139 C 0.52689 0.63109 0.98187 0.0
C140 C 0.48102 0.65445 0.99553 0.0
C141 C 0.42188 0.63092 0.99319 0.0
C142 C 0.41019 0.58226 0.97821 0.0
C143 C 0.45644 0.5587 0.96471 0.0
C144 C 0.59323 0.50405 0.96301 0.0
C145 C 0.64666 0.50837 0.98043 0.0
C146 C 0.66806 0.46576 0.9906 0.0
C147 C 0.63669 0.41776 0.98315 0.0
C148 C 0.58096 0.4138 0.96762 0.0
C149 C 0.55929 0.45674 0.95776 0.0
C150 C 0.55471 0.54208 0.90076 0.0
C151 C 0.51342 0.56615 0.88454 0.0
C152 C 0.50378 0.55743 0.85039 0.0
C153 C 0.53613 0.52519 0.83177 0.0
C154 C 0.57724 0.50098 0.84822 0.0
C155 C 0.58666 0.50961 0.88233 0.0
P156 P 0.56362 0.4621 0.09767 0.0
H157 H 0.54949 0.39234 0.04054 0.0
H158 H 0.46262 0.34021 0.01582 0.0
H159 H 0.34903 0.41578 0.08099 0.0
H160 H 0.43622 0.46881 0.10466 0.0
H161 H 0.68645 0.49243 0.0785 0.0
H162 H 0.73748 0.56783 0.0546 0.0
H163 H 0.57101 0.62533 0.04768 0.0
H164 H 0.51985 0.54906 0.07157 0.0
H165 H 0.49605 0.40584 0.14825 0.0
H166 H 0.59217 0.55461 0.14022 0.0
O167 O 0.61021 0.42002 0.0995 0.0
H168 H 0.47577 0.42501 0.20667 0.0
H169 H 0.57147 0.57421 0.19851 0.0
C170 C 0.49918 0.43282 0.07515 0.0
C171 C 0.50579 0.3982 0.04896 0.0
C172 C 0.45615 0.36844 0.035 0.0
C173 C 0.39907 0.37298 0.04712 0.0
C174 C 0.39238 0.41119 0.07123 0.0
C175 C 0.44223 0.44117 0.08503 0.0
C176 C 0.59936 0.51508 0.07647 0.0
C177 C 0.66067 0.52079 0.07131 0.0
C178 C 0.68981 0.56391 0.05752 0.0
C179 C 0.65815 0.6023 0.04885 0.0
C180 C 0.59646 0.5962 0.05381 0.0
C181 C 0.56721 0.55271 0.06738 0.0
C182 C 0.54484 0.47893 0.13975 0.0
C183 C 0.51189 0.44293 0.15893 0.0
C184 C 0.50007 0.45403 0.19227 0.0
C185 C 0.52174 0.50125 0.20718 0.0
C186 C 0.55438 0.53745 0.18776 0.0
C187 C 0.56595 0.52633 0.15433 0.0
H188 H 0.17364 0.09754 0.98709 0.0
H189 H 0.05829 0.18045 0.04583 0.0
H190 H 0.25053 0.16975 0.98947 0.0
H191 H 0.13688 0.25288 0.04956 0.0
H192 H 0.28423 0.38519 0.03271 0.0
H193 H 0.2 0.31905 0.02169 0.0
H194 H 0.31552 0.20721 0.03196 0.0
H195 H 0.39866 0.27252 0.04228 0.0
C196 C 0.16481 0.13134 1.00061 0.0
C197 C 0.11041 0.13317 0.01676 0.0
C198 C 0.209 0.17274 0.00208 0.0
C199 C 0.20044 0.21681 0.02031 0.0
C200 C 0.14487 0.21956 0.03522 0.0
C201 C 0.1 0.17809 0.03326 0.0
C202 C 0.2914 0.34639 0.03227 0.0
C203 C 0.34822 0.33407 0.03789 0.0
C204 C 0.24322 0.30856 0.02612 0.0
C205 C 0.25103 0.25779 0.02563 0.0
C206 C 0.308 0.24582 0.03121 0.0
C207 C 0.35587 0.28338 0.03712 0.0
H208 H 0.11809 0.79896 0.00733 0.0
H209 H 0.28227 0.89844 0.02278 0.0
H210 H 0.17144 0.72637 0.01048 0.0
H211 H 0.33541 0.82681 0.0261 0.0
H212 H 0.41635 0.6932 0.04857 0.0
H213 H 0.34683 0.75287 0.05917 0.0
H214 H 0.24742 0.69332 0.97184 0.0
H215 H 0.31732 0.63414 0.96089 0.0
C216 C 0.16529 0.80515 0.01215 0.0
C217 C 0.1963 0.85408 0.01465 0.0
C218 C 0.19583 0.7638 0.01374 0.0
C219 C 0.25761 0.7709 0.01855 0.0
C220 C 0.28778 0.82 0.02277 0.0
C221 C 0.25753 0.86103 0.02062 0.0
C222 C 0.37922 0.69236 0.03187 0.0
C223 C 0.37305 0.65945 0.00356 0.0
C224 C 0.33934 0.72644 0.038 0.0
C225 C 0.29213 0.72821 0.0161 0.0
C226 C 0.28313 0.69265 0.9893 0.0
C227 C 0.32324 0.65867 0.98305 0.0
H228 H 0.80822 0.91117 0.01059 0.0
H229 H 0.95403 0.82581 0.01519 0.0
H230 H 0.73814 0.83428 0.01326 0.0
H231 H 0.88399 0.74915 0.01882 0.0
H232 H 0.74797 0.61366 0.00327 0.0
H233 H 0.80998 0.69109 0.98941 0.0
H234 H 0.70506 0.7752 0.05455 0.0
H235 H 0.64242 0.69786 0.06784 0.0
C236 C 0.82533 0.87596 0.01208 0.0
C237 C 0.88669 0.87458 0.01286 0.0
C238 C 0.78513 0.83193 0.01375 0.0
C239 C 0.80539 0.78557 0.01638 0.0
C240 C 0.86682 0.78411 0.01632 0.0
C241 C 0.90703 0.82812 0.01449 0.0
C242 C 0.73768 0.64876 0.01427 0.0
C243 C 0.69054 0.64963 0.03683 0.0
C244 C 0.77339 0.69311 0.00645 0.0
C245 C 0.763 0.73928 0.0212 0.0
C246 C 0.714 0.74036 0.04247 0.0
C247 C 0.67804 0.69601 0.05012 0.0
H248 H 0.8473 0.17261 0.97171 0.0
H249 H 0.74907 0.15384 0.06335 0.0
H250 H 0.79975 0.24565 0.96124 0.0
H251 H 0.70138 0.22625 0.0527 0.0
H252 H 0.58336 0.32703 0.00504 0.0
H253 H 0.62968 0.25287 0.01421 0.0
H254 H 0.79873 0.33153 0.98422 0.0
H255 H 0.75247 0.40504 0.97427 0.0
C256 C 0.81595 0.18412 0.98972 0.0
C257 C 0.80199 0.15704 0.01831 0.0
C258 C 0.78859 0.22596 0.9837 0.0
C259 C 0.74657 0.2416 0.00608 0.0
C260 C 0.73273 0.21464 0.03466 0.0
C261 C 0.76017 0.17301 0.04074 0.0
C262 C 0.63037 0.32856 1.0004 0.0
C263 C 0.66426 0.37239 0.9894 0.0
C264 C 0.65699 0.28612 0.00582 0.0
C265 C 0.71794 0.28637 1.00001 0.0
C266 C 0.75163 0.32996 0.98869 0.0
C267 C 0.72516 0.37239 0.98346 0.0
H268 H 0.53715 0.68795 0.53672 0.0
H269 H 0.68054 0.60627 0.50807 0.0
H270 H 0.60632 0.7666 0.53759 0.0
H271 H 0.74876 0.68419 0.50878 0.0
H272 H 0.85111 0.83118 0.4866 0.0
H273 H 0.76805 0.76389 0.478 0.0
H274 H 0.69588 0.80355 0.57327 0.0
H275 H 0.77927 0.87026 0.58221 0.0
C276 C 0.58322 0.68679 0.53046 0.0
C277 C 0.60345 0.64087 0.52248 0.0
C278 C 0.62268 0.73172 0.53096 0.0
C279 C 0.68272 0.7315 0.52293 0.0
C280 C 0.70254 0.68565 0.51451 0.0
C281 C 0.66348 0.6409 0.51443 0.0
C282 C 0.81706 0.82604 0.50549 0.0
C283 C 0.82233 0.85557 0.53531 0.0
C284 C 0.76954 0.78757 0.50055 0.0
C285 C 0.72609 0.77807 0.52521 0.0
C286 C 0.72861 0.81018 0.55378 0.0
C287 C 0.77638 0.84852 0.55884 0.0
H288 H 0.772 0.38909 0.53603 0.0
H289 H 0.61228 0.30646 0.49329 0.0
H290 H 0.81826 0.31275 0.53387 0.0
H291 H 0.65902 0.22974 0.49036 0.0
H292 H 0.81835 0.14889 0.4427 0.0
H293 H 0.75133 0.20988 0.45449 0.0
H294 H 0.80559 0.22266 0.5571 0.0
H295 H 0.87075 0.1596 0.54597 0.0
C296 C 0.74664 0.35427 0.52662 0.0
C297 C 0.68878 0.35347 0.5148 0.0
C298 C 0.77286 0.3106 0.52554 0.0
C299 C 0.74216 0.26536 0.51197 0.0
C300 C 0.68357 0.26415 0.50097 0.0
C301 C 0.6568 0.30779 0.50278 0.0
C302 C 0.81463 0.16305 0.46809 0.0
C303 C 0.85093 0.14952 0.49326 0.0
C304 C 0.77623 0.19828 0.47476 0.0
C305 C 0.77377 0.22131 0.50661 0.0
C306 C 0.8072 0.20582 0.53223 0.0
C307 C 0.84484 0.16994 0.52572 0.0
H308 H 0.45842 0.33077 0.50246 0.0
H309 H 0.31036 0.40941 0.52645 0.0
H310 H 0.39318 0.251 0.50433 0.0
H311 H 0.24569 0.32985 0.52943 0.0
H312 H 0.13224 0.18059 0.51107 0.0
H313 H 0.19761 0.25726 0.49899 0.0
H314 H 0.34281 0.20093 0.54579 0.0
H315 H 0.27789 0.1241 0.55709 0.0
C316 C 0.41194 0.33103 0.50808 0.0
C317 C 0.38961 0.37638 0.51447 0.0
C318 C 0.37459 0.28531 0.50931 0.0
C319 C 0.3142 0.28393 0.5172 0.0
C320 C 0.29171 0.32943 0.5228 0.0
C321 C 0.32894 0.37512 0.52133 0.0
C322 C 0.17821 0.18442 0.51848 0.0
C323 C 0.19985 0.14616 0.53494 0.0
C324 C 0.21568 0.22846 0.51168 0.0
C325 C 0.27549 0.23542 0.52152 0.0
C326 C 0.29734 0.19658 0.5373 0.0
C327 C 0.26003 0.15247 0.54384 0.0
H328 H 0.26219 0.66797 0.56585 0.0
H329 H 0.33006 0.66177 0.46588 0.0
H330 H 0.21671 0.74119 0.55391 0.0
H331 H 0.28294 0.73426 0.45329 0.0
H332 H 0.24356 0.89418 0.4516 0.0
H333 H 0.28874 0.82123 0.4635 0.0
H334 H 0.13892 0.7684 0.52501 0.0
H335 H 0.0957 0.84334 0.51501 0.0
C336 C 0.26673 0.68198 0.54114 0.0
C337 C 0.2996 0.65908 0.51677 0.0
C338 C 0.24042 0.7239 0.5342 0.0
C339 C 0.24572 0.74375 0.50255 0.0
C340 C 0.27861 0.72066 0.47812 0.0
C341 C 0.30556 0.67902 0.48523 0.0
C342 C 0.22057 0.86763 0.46822 0.0
C343 C 0.16618 0.87554 0.48282 0.0
C344 C 0.24614 0.82509 0.47456 0.0
C345 C 0.21773 0.78868 0.4953 0.0
C346 C 0.16276 0.79598 0.50938 0.0
C347 C 0.13746 0.83886 0.5033 0.0
H348 H 0.92772 0.02981 0.12408 0.0
H349 H 0.0945 0.97199 0.1155 0.0
H350 H 0.93649 0.03373 0.1844 0.0
H351 H 0.10304 0.97581 0.17597 0.0
H352 H 0.12902 0.05479 0.28105 0.0
H353 H 0.11918 0.0436 0.2208 0.0
H354 H 0.9363 0.97794 0.23198 0.0
H355 H 0.94594 0.9898 0.29233 0.0
C356 C 0.96611 0.01767 0.13505 0.0
C357 C 0.01054 0.00077 0.11495 0.0
C358 C 0.97091 0.01963 0.16964 0.0
C359 C 0.02048 0.00516 0.18494 0.0
C360 C 0.06459 0.98767 0.16487 0.0
C361 C 0.05953 0.98526 0.13025 0.0
C362 C 0.0867 0.03803 0.27063 0.0
C363 C 0.03817 0.02339 0.29141 0.0
C364 C 0.08123 0.03117 0.23615 0.0
C365 C 0.02696 0.00992 0.22165 0.0
C366 C 0.97856 0.99478 0.24243 0.0
C367 C 0.9842 0.00119 0.27696 0.0
H368 H 0.91771 0.05347 0.91333 0.0
H369 H 0.06415 0.96806 0.90953 0.0
H370 H 0.92216 0.05817 0.85275 0.0
H371 H 0.06797 0.97231 0.84969 0.0
H372 H 0.10405 0.02991 0.74883 0.0
H373 H 0.09569 0.03554 0.80896 0.0
H374 H 0.90516 0.00225 0.80113 0.0
H375 H 0.91332 0.99841 0.74057 0.0
C376 C 0.9506 0.03561 0.89963 0.0
C377 C 0.99063 0.01051 0.91629 0.0
C378 C 0.95305 0.03819 0.86499 0.0
C379 C 0.99585 0.01607 0.84649 0.0
C380 C 0.03526 0.99062 0.86323 0.0
C381 C 0.0327 0.98787 0.89761 0.0
C382 C 0.06023 0.0249 0.75979 0.0
C383 C 0.00937 0.0135 0.73981 0.0
C384 C 0.05549 0.02753 0.79432 0.0
C385 C 0.9998 0.01869 0.80981 0.0
C386 C 0.94868 0.00935 0.78992 0.0
C387 C 0.95342 0.00666 0.75526 0.0
H388 H 0.57317 0.45728 0.61938 0.0
H389 H 0.43447 0.5506 0.62696 0.0
H390 H 0.57919 0.45864 0.67974 0.0
H391 H 0.44164 0.55311 0.68723 0.0
H392 H 0.43335 0.51212 0.79553 0.0
H393 H 0.42274 0.50372 0.73522 0.0
H394 H 0.61303 0.51641 0.72505 0.0
H395 H 0.62341 0.52418 0.78515 0.0
C396 C 0.54401 0.47813 0.63392 0.0
C397 C 0.50349 0.50397 0.61833 0.0
C398 C 0.54768 0.47915 0.66854 0.0
C399 C 0.5111 0.50618 0.68841 0.0
C400 C 0.46996 0.53138 0.67277 0.0
C401 C 0.46612 0.53021 0.63816 0.0
C402 C 0.47284 0.51316 0.78036 0.0
C403 C 0.52919 0.51868 0.79513 0.0
C404 C 0.46682 0.50843 0.7458 0.0
C405 C 0.51703 0.50935 0.72522 0.0
C406 C 0.57331 0.51458 0.74009 0.0
C407 C 0.57929 0.5191 0.77459 0.0
H408 H 0.41026 0.54305 0.41513 0.0
H409 H 0.57986 0.48936 0.41453 0.0
H410 H 0.41478 0.54646 0.35448 0.0
H411 H 0.58405 0.49261 0.35454 0.0
H412 H 0.60407 0.54734 0.25167 0.0
H413 H 0.59452 0.55614 0.3118 0.0
H414 H 0.41261 0.48475 0.30497 0.0
H415 H 0.42167 0.477 0.24453 0.0
C416 C 0.44842 0.5321 0.40212 0.0
C417 C 0.49461 0.51584 0.41963 0.0
C418 C 0.45092 0.53392 0.36746 0.0
C419 C 0.49997 0.52014 0.34983 0.0
C420 C 0.54613 0.50425 0.36745 0.0
C421 C 0.54343 0.502 0.40187 0.0
C422 C 0.56163 0.53449 0.26288 0.0
C423 C 0.51372 0.5112 0.24335 0.0
C424 C 0.55635 0.5391 0.29736 0.0
C425 C 0.503 0.52067 0.31309 0.0
C426 C 0.45419 0.49946 0.29352 0.0
C427 C 0.45957 0.49461 0.25898 0.0
loop_
_geom_bond_atom_site_label_1
_geom_bond_atom_site_label_2
_geom_bond_distance
_geom_bond_site_symmetry_2
_ccdc_geom_bond_type
Co0 N5 2.057 . S
Co0 O17 2.021 . S
Co0 O20 2.062 1_455 S
Co0 O24 2.117 1_554 S
Co0 O25 2.020 1_565 S
C1 O21 1.259 1_455 S
C1 O24 1.258 1_545 S
Co2 N11 2.057 . S
Co2 O18 2.117 . S
Co2 O19 2.020 1_545 S
Co2 O21 2.021 1_554 S
Co2 O26 2.062 1_655 S
C3 N5 1.316 . S
C3 N6 1.347 . S
C3 H8 0.931 . S
C4 N5 1.375 1_556 S
C4 C7 1.350 . S
C4 H9 0.930 . S
N5 Co0 2.057 . S
N5 C3 1.316 . S
N5 C4 1.375 1_554 S
N6 C3 1.347 . S
N6 C7 1.373 1_554 S
C7 C4 1.350 . S
C7 N6 1.373 1_556 S
C7 H28 0.931 . S
H8 C3 0.931 . S
H9 C4 0.930 . S
C10 O17 1.259 1_545 S
C10 O18 1.258 1_455 S
N11 Co2 2.057 . S
N11 C12 1.316 . S
N11 C13 1.375 . S
C12 N11 1.316 . S
C12 N14 1.347 . S
C12 H23 0.931 1_554 S
C13 N11 1.375 . S
C13 C15 1.350 . S
C13 H22 0.930 . S
N14 C12 1.347 . S
N14 C15 1.373 . S
C15 C13 1.350 . S
C15 N14 1.373 . S
C15 H29 0.931 . S
C16 O19 1.256 . S
C16 O20 1.255 . S
O17 Co0 2.021 . S
O17 C10 1.259 1_565 S
O18 Co2 2.117 . S
O18 C10 1.258 1_655 S
O19 Co2 2.020 1_565 S
O19 C16 1.256 . S
O20 Co0 2.062 1_655 S
O20 C16 1.255 . S
O21 C1 1.259 1_655 S
O21 Co2 2.021 1_556 S
H22 C13 0.930 . S
H23 C12 0.931 1_556 S
O24 Co0 2.117 1_556 S
O24 C1 1.258 1_565 S
O25 Co0 2.020 1_545 S
O25 C27 1.256 . S
O26 Co2 2.062 1_455 S
O26 C27 1.255 . S
C27 O25 1.256 . S
C27 O26 1.255 . S
H28 C7 0.931 . S
H29 C15 0.931 . S
Co30 N35 2.057 . S
Co30 O47 2.021 . S
Co30 O50 2.062 . S
Co30 O54 2.117 . S
Co30 O55 2.020 . S
C31 O51 1.259 . S
C31 O54 1.258 . S
Co32 N41 2.057 . S
Co32 O48 2.117 . S
Co32 O49 2.020 . S
Co32 O51 2.021 . S
Co32 O56 2.062 . S
C33 N35 1.316 . S
C33 N36 1.347 . S
C33 H38 0.931 . S
C34 N35 1.375 . S
C34 C37 1.350 . S
C34 H39 0.930 . S
N35 Co30 2.057 . S
N35 C33 1.316 . S
N35 C34 1.375 . S
N36 C33 1.347 . S
N36 C37 1.373 . S
C37 C34 1.350 . S
C37 N36 1.373 . S
C37 H58 0.931 . S
H38 C33 0.931 . S
H39 C34 0.930 . S
C40 O47 1.259 . S
C40 O48 1.258 . S
N41 Co32 2.057 . S
N41 C42 1.316 . S
N41 C43 1.375 . S
C42 N41 1.316 . S
C42 N44 1.347 . S
C42 H53 0.931 . S
C43 N41 1.375 . S
C43 C45 1.350 . S
C43 H52 0.930 . S
N44 C42 1.347 . S
N44 C45 1.373 . S
C45 C43 1.350 . S
C45 N44 1.373 . S
C45 H59 0.931 . S
C46 O49 1.256 . S
C46 O50 1.255 . S
O47 Co30 2.021 . S
O47 C40 1.259 . S
O48 Co32 2.117 . S
O48 C40 1.258 . S
O49 Co32 2.020 . S
O49 C46 1.256 . S
O50 Co30 2.062 . S
O50 C46 1.255 . S
O51 C31 1.259 . S
O51 Co32 2.021 . S
H52 C43 0.930 . S
H53 C42 0.931 . S
O54 Co30 2.117 . S
O54 C31 1.258 . S
O55 Co30 2.020 . S
O55 C57 1.256 . S
O56 Co32 2.062 . S
O56 C57 1.255 . S
C57 O55 1.256 . S
C57 O56 1.255 . S
H58 C37 0.931 . S
H59 C45 0.931 . S
P60 O71 1.490 . S
P60 C74 1.812 . S
P60 C80 1.803 1_545 S
P60 C86 1.819 . S
H61 C75 0.941 . S
H62 C76 0.939 . S
H63 C78 0.940 . S
H64 C79 0.940 . S
H65 C81 0.939 1_545 S
H66 C82 0.942 . S
H67 C84 0.940 . S
H68 C85 0.930 1_655 S
H69 C87 0.941 . S
H70 C91 0.939 . S
O71 P60 1.490 . S
H72 C88 0.939 . S
H73 C90 0.940 . S
C74 P60 1.812 . S
C74 C75 1.389 . S
C74 C79 1.391 1_455 S
C75 H61 0.941 . S
C75 C74 1.389 . S
C75 C76 1.397 1_455 S
C76 H62 0.939 . S
C76 C75 1.397 1_655 S
C76 C77 1.378 . S
C77 C76 1.378 . S
C77 C78 1.378 . S
C78 H63 0.940 . S
C78 C77 1.378 . S
C78 C79 1.396 . S
C79 H64 0.940 . S
C79 C74 1.391 1_655 S
C79 C78 1.396 . S
C80 P60 1.803 1_565 S
C80 C81 1.378 . S
C80 C85 1.400 . S
C81 H65 0.939 1_565 S
C81 C80 1.378 . S
C81 C82 1.361 . S
C82 H66 0.942 . S
C82 C81 1.361 . S
C82 C83 1.369 . S
C83 C82 1.369 . S
C83 C84 1.404 . S
C84 H67 0.940 . S
C84 C83 1.404 . S
C84 C85 1.389 . S
C85 H68 0.930 1_455 S
C85 C80 1.400 . S
C85 C84 1.389 . S
C86 P60 1.819 . S
C86 C87 1.391 . S
C86 C91 1.391 1_545 S
C87 H69 0.941 . S
C87 C86 1.391 . S
C87 C88 1.396 . S
C88 H72 0.939 . S
C88 C87 1.396 . S
C88 C89 1.397 . S
C89 C88 1.397 . S
C89 C90 1.385 1_545 S
C90 H73 0.940 . S
C90 C89 1.385 1_565 S
C90 C91 1.388 . S
C91 H70 0.939 . S
C91 C86 1.391 1_565 S
C91 C90 1.388 . S
P92 O103 1.490 . S
P92 C106 1.812 1_455 S
P92 C112 1.803 1_565 S
P92 C118 1.819 . S
H93 C107 0.930 1_455 S
H94 C108 0.939 . S
H95 C110 0.940 . S
H96 C111 0.940 . S
H97 C113 0.939 . S
H98 C114 0.942 . S
H99 C116 0.940 . S
H100 C117 0.939 . S
H101 C119 0.941 . S
H102 C123 0.939 . S
O103 P92 1.490 . S
H104 C120 0.939 . S
H105 C122 0.940 . S
C106 P92 1.812 1_655 S
C106 C107 1.390 . S
C106 C111 1.391 . S
C107 H93 0.930 1_655 S
C107 C106 1.390 . S
C107 C108 1.405 . S
C108 H94 0.939 . S
C108 C107 1.405 . S
C108 C109 1.378 . S
C109 C108 1.378 . S
C109 C110 1.378 . S
C110 H95 0.940 . S
C110 C109 1.378 . S
C110 C111 1.396 . S
C111 H96 0.940 . S
C111 C106 1.391 . S
C111 C110 1.396 . S
C112 P92 1.803 1_545 S
C112 C113 1.378 . S
C112 C117 1.400 . S
C113 H97 0.939 . S
C113 C112 1.378 . S
C113 C114 1.361 . S
C114 H98 0.942 . S
C114 C113 1.361 . S
C114 C115 1.369 . S
C115 C114 1.369 . S
C115 C116 1.404 . S
C116 H99 0.940 . S
C116 C115 1.404 . S
C116 C117 1.389 . S
C117 H100 0.939 . S
C117 C112 1.400 . S
C117 C116 1.389 . S
C118 P92 1.819 . S
C118 C119 1.391 . S
C118 C123 1.391 1_565 S
C119 H101 0.941 . S
C119 C118 1.391 . S
C119 C120 1.396 . S
C120 H104 0.939 . S
C120 C119 1.396 . S
C120 C121 1.397 1_565 S
C121 C120 1.397 1_545 S
C121 C122 1.385 . S
C122 H105 0.940 . S
C122 C121 1.385 . S
C122 C123 1.388 . S
C123 H102 0.939 . S
C123 C118 1.391 1_545 S
C123 C122 1.388 . S
P124 O135 1.490 . S
P124 C138 1.812 . S
P124 C144 1.803 . S
P124 C150 1.819 . S
H125 C139 0.941 . S
H126 C140 0.939 1_554 S
H127 C142 0.940 . S
H128 C143 0.940 . S
H129 C145 0.939 . S
H130 C146 0.942 . S
H131 C148 0.940 . S
H132 C149 0.939 . S
H133 C151 0.941 . S
H134 C155 0.939 . S
O135 P124 1.490 . S
H136 C152 0.939 . S
H137 C154 0.940 . S
C138 P124 1.812 . S
C138 C139 1.389 . S
C138 C143 1.391 . S
C139 H125 0.941 . S
C139 C138 1.389 . S
C139 C140 1.397 . S
C140 H126 0.939 1_556 S
C140 C139 1.397 . S
C140 C141 1.378 . S
C141 C140 1.378 . S
C141 C142 1.378 . S
C142 H127 0.940 . S
C142 C141 1.378 . S
C142 C143 1.396 . S
C143 H128 0.940 . S
C143 C138 1.391 . S
C143 C142 1.396 . S
C144 P124 1.803 . S
C144 C145 1.378 . S
C144 C149 1.400 . S
C145 H129 0.939 . S
C145 C144 1.378 . S
C145 C146 1.361 . S
C146 H130 0.942 . S
C146 C145 1.361 . S
C146 C147 1.369 . S
C147 C146 1.369 . S
C147 C148 1.404 . S
C148 H131 0.940 . S
C148 C147 1.404 . S
C148 C149 1.389 . S
C149 H132 0.939 . S
C149 C144 1.400 . S
C149 C148 1.389 . S
C150 P124 1.819 . S
C150 C151 1.391 . S
C150 C155 1.391 . S
C151 H133 0.941 . S
C151 C150 1.391 . S
C151 C152 1.396 . S
C152 H136 0.939 . S
C152 C151 1.396 . S
C152 C153 1.397 . S
C153 C152 1.397 . S
C153 C154 1.385 . S
C154 H137 0.940 . S
C154 C153 1.385 . S
C154 C155 1.388 . S
C155 H134 0.939 . S
C155 C150 1.391 . S
C155 C154 1.388 . S
P156 O167 1.490 . S
P156 C170 1.812 . S
P156 C176 1.803 . S
P156 C182 1.819 . S
H157 C171 0.941 . S
H158 C172 0.939 . S
H159 C174 0.940 . S
H160 C175 0.940 . S
H161 C177 0.939 . S
H162 C178 0.942 . S
H163 C180 0.940 . S
H164 C181 0.939 . S
H165 C183 0.941 . S
H166 C187 0.939 . S
O167 P156 1.490 . S
H168 C184 0.939 . S
H169 C186 0.940 . S
C170 P156 1.812 . S
C170 C171 1.389 . S
C170 C175 1.391 . S
C171 H157 0.941 . S
C171 C170 1.389 . S
C171 C172 1.397 . S
C172 H158 0.939 . S
C172 C171 1.397 . S
C172 C173 1.378 . S
C173 C172 1.378 . S
C173 C174 1.378 . S
C174 H159 0.940 . S
C174 C173 1.378 . S
C174 C175 1.396 . S
C175 H160 0.940 . S
C175 C170 1.391 . S
C175 C174 1.396 . S
C176 P156 1.803 . S
C176 C177 1.378 . S
C176 C181 1.400 . S
C177 H161 0.939 . S
C177 C176 1.378 . S
C177 C178 1.361 . S
C178 H162 0.942 . S
C178 C177 1.361 . S
C178 C179 1.369 . S
C179 C178 1.369 . S
C179 C180 1.404 . S
C180 H163 0.940 . S
C180 C179 1.404 . S
C180 C181 1.389 . S
C181 H164 0.939 . S
C181 C176 1.400 . S
C181 C180 1.389 . S
C182 P156 1.819 . S
C182 C183 1.391 . S
C182 C187 1.391 . S
C183 H165 0.941 . S
C183 C182 1.391 . S
C183 C184 1.396 . S
C184 H168 0.939 . S
C184 C183 1.396 . S
C184 C185 1.397 . S
C185 C184 1.397 . S
C185 C186 1.385 . S
C186 H169 0.940 . S
C186 C185 1.385 . S
C186 C187 1.388 . S
C187 H166 0.939 . S
C187 C182 1.391 . S
C187 C186 1.388 . S
H188 C196 0.950 . S
H189 C201 0.950 . S
H190 C198 0.950 . S
H191 C200 0.950 . S
H192 C202 0.950 . S
H193 C204 0.950 . S
H194 C206 0.950 . S
H195 C207 0.950 . S
C196 H188 0.950 . S
C196 C197 1.386 . S
C196 C198 1.391 . S
C197 C196 1.386 . S
C197 C201 1.393 . S
C198 H190 0.950 . S
C198 C196 1.391 . S
C198 C199 1.400 . S
C199 C198 1.400 . S
C199 C200 1.398 . S
C199 C205 1.491 . S
C200 H191 0.950 . S
C200 C199 1.398 . S
C200 C201 1.391 . S
C201 H189 0.950 . S
C201 C197 1.393 . S
C201 C200 1.391 . S
C202 H192 0.950 . S
C202 C203 1.386 . S
C202 C204 1.391 . S
C203 C202 1.386 . S
C203 C207 1.393 . S
C204 H193 0.950 . S
C204 C202 1.391 . S
C204 C205 1.400 . S
C205 C199 1.491 . S
C205 C204 1.400 . S
C205 C206 1.398 . S
C206 H194 0.950 . S
C206 C205 1.398 . S
C206 C207 1.391 . S
C207 H195 0.950 . S
C207 C203 1.393 . S
C207 C206 1.391 . S
H208 C216 0.950 . S
H209 C221 0.950 . S
H210 C218 0.950 . S
H211 C220 0.950 . S
H212 C222 0.950 . S
H213 C224 0.950 . S
H214 C226 0.950 . S
H215 C227 0.950 . S
C216 H208 0.950 . S
C216 C217 1.386 1_556 S
C216 C218 1.391 . S
C217 C216 1.386 1_554 S
C217 C221 1.393 . S
C218 H210 0.950 . S
C218 C216 1.391 . S
C218 C219 1.400 1_556 S
C219 C218 1.400 1_554 S
C219 C220 1.398 . S
C219 C225 1.491 1_554 S
C220 H211 0.950 . S
C220 C219 1.398 . S
C220 C221 1.391 . S
C221 H209 0.950 . S
C221 C217 1.393 . S
C221 C220 1.391 . S
C222 H212 0.950 . S
C222 C223 1.386 1_554 S
C222 C224 1.391 . S
C223 C222 1.386 1_556 S
C223 C227 1.393 . S
C224 H213 0.950 . S
C224 C222 1.391 . S
C224 C225 1.401 1_554 S
C225 C219 1.491 1_556 S
C225 C224 1.401 1_556 S
C225 C226 1.397 . S
C226 H214 0.950 . S
C226 C225 1.397 . S
C226 C227 1.391 . S
C227 H215 0.950 . S
C227 C223 1.393 . S
C227 C226 1.391 . S
H228 C236 0.950 . S
H229 C241 0.950 1_556 S
H230 C238 0.950 . S
H231 C240 0.950 1_556 S
H232 C242 0.950 . S
H233 C244 0.950 . S
H234 C246 0.950 . S
H235 C247 0.950 . S
C236 H228 0.950 . S
C236 C237 1.386 . S
C236 C238 1.391 . S
C237 C236 1.386 . S
C237 C241 1.393 . S
C238 H230 0.950 . S
C238 C236 1.391 . S
C238 C239 1.400 . S
C239 C238 1.400 . S
C239 C240 1.398 . S
C239 C245 1.491 . S
C240 H231 0.950 1_554 S
C240 C239 1.398 . S
C240 C241 1.391 . S
C241 H229 0.950 1_554 S
C241 C237 1.393 . S
C241 C240 1.391 . S
C242 H232 0.950 . S
C242 C243 1.386 . S
C242 C244 1.391 . S
C243 C242 1.386 . S
C243 C247 1.393 . S
C244 H233 0.950 . S
C244 C242 1.391 . S
C244 C245 1.400 . S
C245 C239 1.491 . S
C245 C244 1.400 . S
C245 C246 1.398 . S
C246 H234 0.950 . S
C246 C245 1.398 . S
C246 C247 1.391 . S
C247 H235 0.950 . S
C247 C243 1.393 . S
C247 C246 1.391 . S
H248 C256 0.950 . S
H249 C261 0.950 . S
H250 C258 0.950 . S
H251 C260 0.950 . S
H252 C262 0.950 . S
H253 C264 0.950 . S
H254 C266 0.950 . S
H255 C267 0.950 . S
C256 H248 0.950 . S
C256 C257 1.386 1_556 S
C256 C258 1.391 . S
C257 C256 1.386 1_554 S
C257 C261 1.393 . S
C258 H250 0.950 . S
C258 C256 1.391 . S
C258 C259 1.400 1_556 S
C259 C258 1.400 1_554 S
C259 C260 1.398 . S
C259 C265 1.485 1_554 S
C260 H251 0.950 . S
C260 C259 1.398 . S
C260 C261 1.391 . S
C261 H249 0.950 . S
C261 C257 1.393 . S
C261 C260 1.391 . S
C262 H252 0.950 . S
C262 C263 1.386 1_554 S
C262 C264 1.391 . S
C263 C262 1.386 1_556 S
C263 C267 1.393 . S
C264 H253 0.950 . S
C264 C262 1.391 . S
C264 C265 1.377 1_554 S
C265 C259 1.485 1_556 S
C265 C264 1.377 1_556 S
C265 C266 1.427 . S
C266 H254 0.950 . S
C266 C265 1.427 . S
C266 C267 1.391 . S
C267 H255 0.950 . S
C267 C263 1.393 . S
C267 C266 1.391 . S
H268 C276 0.950 . S
H269 C281 0.950 . S
H270 C278 0.950 . S
H271 C280 0.950 . S
H272 C282 0.950 . S
H273 C284 0.950 . S
H274 C286 0.950 . S
H275 C287 0.950 . S
C276 H268 0.950 . S
C276 C277 1.386 . S
C276 C278 1.391 . S
C277 C276 1.386 . S
C277 C281 1.393 . S
C278 H270 0.950 . S
C278 C276 1.391 . S
C278 C279 1.400 . S
C279 C278 1.400 . S
C279 C280 1.398 . S
C279 C285 1.491 . S
C280 H271 0.950 . S
C280 C279 1.398 . S
C280 C281 1.391 . S
C281 H269 0.950 . S
C281 C277 1.393 . S
C281 C280 1.391 . S
C282 H272 0.950 . S
C282 C283 1.386 . S
C282 C284 1.391 . S
C283 C282 1.386 . S
C283 C287 1.393 . S
C284 H273 0.950 . S
C284 C282 1.391 . S
C284 C285 1.400 . S
C285 C279 1.491 . S
C285 C284 1.400 . S
C285 C286 1.398 . S
C286 H274 0.950 . S
C286 C285 1.398 . S
C286 C287 1.391 . S
C287 H275 0.950 . S
C287 C283 1.393 . S
C287 C286 1.391 . S
H288 C296 0.950 . S
H289 C301 0.950 . S
H290 C298 0.950 . S
H291 C300 0.950 . S
H292 C302 0.950 . S
H293 C304 0.950 . S
H294 C306 0.950 . S
H295 C307 0.950 . S
C296 H288 0.950 . S
C296 C297 1.386 . S
C296 C298 1.391 . S
C297 C296 1.386 . S
C297 C301 1.393 . S
C298 H290 0.950 . S
C298 C296 1.391 . S
C298 C299 1.400 . S
C299 C298 1.400 . S
C299 C300 1.398 . S
C299 C305 1.491 . S
C300 H291 0.950 . S
C300 C299 1.398 . S
C300 C301 1.391 . S
C301 H289 0.950 . S
C301 C297 1.393 . S
C301 C300 1.391 . S
C302 H292 0.950 . S
C302 C303 1.386 . S
C302 C304 1.391 . S
C303 C302 1.386 . S
C303 C307 1.393 . S
C304 H293 0.950 . S
C304 C302 1.391 . S
C304 C305 1.400 . S
C305 C299 1.491 . S
C305 C304 1.400 . S
C305 C306 1.398 . S
C306 H294 0.950 . S
C306 C305 1.398 . S
C306 C307 1.391 . S
C307 H295 0.950 . S
C307 C303 1.393 . S
C307 C306 1.391 . S
H308 C316 0.950 . S
H309 C321 0.950 . S
H310 C318 0.950 . S
H311 C320 0.950 . S
H312 C322 0.950 . S
H313 C324 0.950 . S
H314 C326 0.950 . S
H315 C327 0.950 . S
C316 H308 0.950 . S
C316 C317 1.386 . S
C316 C318 1.391 . S
C317 C316 1.386 . S
C317 C321 1.393 . S
C318 H310 0.950 . S
C318 C316 1.391 . S
C318 C319 1.400 . S
C319 C318 1.400 . S
C319 C320 1.398 . S
C319 C325 1.491 . S
C320 H311 0.950 . S
C320 C319 1.398 . S
C320 C321 1.391 . S
C321 H309 0.950 . S
C321 C317 1.393 . S
C321 C320 1.391 . S
C322 H312 0.950 . S
C322 C323 1.386 . S
C322 C324 1.391 . S
C323 C322 1.386 . S
C323 C327 1.393 . S
C324 H313 0.950 . S
C324 C322 1.391 . S
C324 C325 1.400 . S
C325 C319 1.491 . S
C325 C324 1.400 . S
C325 C326 1.398 . S
C326 H314 0.950 . S
C326 C325 1.398 . S
C326 C327 1.391 . S
C327 H315 0.950 . S
C327 C323 1.393 . S
C327 C326 1.391 . S
H328 C336 0.950 . S
H329 C341 0.950 . S
H330 C338 0.950 . S
H331 C340 0.950 . S
H332 C342 0.950 . S
H333 C344 0.950 . S
H334 C346 0.950 . S
H335 C347 0.950 . S
C336 H328 0.950 . S
C336 C337 1.386 . S
C336 C338 1.391 . S
C337 C336 1.386 . S
C337 C341 1.393 . S
C338 H330 0.950 . S
C338 C336 1.391 . S
C338 C339 1.400 . S
C339 C338 1.400 . S
C339 C340 1.398 . S
C339 C345 1.491 . S
C340 H331 0.950 . S
C340 C339 1.398 . S
C340 C341 1.391 . S
C341 H329 0.950 . S
C341 C337 1.393 . S
C341 C340 1.391 . S
C342 H332 0.950 . S
C342 C343 1.386 . S
C342 C344 1.391 . S
C343 C342 1.386 . S
C343 C347 1.393 . S
C344 H333 0.950 . S
C344 C342 1.391 . S
C344 C345 1.400 . S
C345 C339 1.491 . S
C345 C344 1.400 . S
C345 C346 1.398 . S
C346 H334 0.950 . S
C346 C345 1.398 . S
C346 C347 1.391 . S
C347 H335 0.950 . S
C347 C343 1.393 . S
C347 C346 1.391 . S
H348 C356 0.950 . S
H349 C361 0.950 . S
H350 C358 0.950 . S
H351 C360 0.950 . S
H352 C362 0.950 . S
H353 C364 0.950 . S
H354 C366 0.950 . S
H355 C367 0.950 . S
C356 H348 0.950 . S
C356 C357 1.386 1_665 S
C356 C358 1.391 . S
C357 C356 1.386 1_445 S
C357 C361 1.393 . S
C358 H350 0.950 . S
C358 C356 1.391 . S
C358 C359 1.400 1_665 S
C359 C358 1.400 1_445 S
C359 C360 1.398 . S
C359 C365 1.491 . S
C360 H351 0.950 . S
C360 C359 1.398 . S
C360 C361 1.391 . S
C361 H349 0.950 . S
C361 C357 1.393 . S
C361 C360 1.391 . S
C362 H352 0.950 . S
C362 C363 1.400 . S
C362 C364 1.391 . S
C363 C362 1.400 . S
C363 C367 1.379 1_445 S
C364 H353 0.950 . S
C364 C362 1.391 . S
C364 C365 1.400 . S
C365 C359 1.491 . S
C365 C364 1.400 . S
C365 C366 1.398 1_445 S
C366 H354 0.950 . S
C366 C365 1.398 1_665 S
C366 C367 1.391 . S
C367 H355 0.950 . S
C367 C363 1.379 1_665 S
C367 C366 1.391 . S
H368 C376 0.950 . S
H369 C381 0.950 . S
H370 C378 0.950 . S
H371 C380 0.950 . S
H372 C382 0.950 . S
H373 C384 0.950 . S
H374 C386 0.950 . S
H375 C387 0.950 . S
C376 H368 0.950 . S
C376 C377 1.386 1_665 S
C376 C378 1.391 . S
C377 C376 1.386 1_445 S
C377 C381 1.393 . S
C378 H370 0.950 . S
C378 C376 1.391 . S
C378 C379 1.400 1_665 S
C379 C378 1.400 1_445 S
C379 C380 1.398 . S
C379 C385 1.491 . S
C380 H371 0.950 . S
C380 C379 1.398 . S
C380 C381 1.391 . S
C381 H369 0.950 . S
C381 C377 1.393 . S
C381 C380 1.391 . S
C382 H372 0.950 . S
C382 C383 1.386 . S
C382 C384 1.391 . S
C383 C382 1.386 . S
C383 C387 1.393 1_445 S
C384 H373 0.950 . S
C384 C382 1.391 . S
C384 C385 1.400 . S
C385 C379 1.491 . S
C385 C384 1.400 . S
C385 C386 1.398 1_445 S
C386 H374 0.950 . S
C386 C385 1.398 1_665 S
C386 C387 1.391 . S
C387 H375 0.950 . S
C387 C383 1.393 1_665 S
C387 C386 1.391 . S
H388 C396 0.950 . S
H389 C401 0.950 . S
H390 C398 0.950 . S
H391 C400 0.950 . S
H392 C402 0.950 . S
H393 C404 0.950 . S
H394 C406 0.950 . S
H395 C407 0.950 . S
C396 H388 0.950 . S
C396 C397 1.386 . S
C396 C398 1.391 . S
C397 C396 1.386 . S
C397 C401 1.393 . S
C398 H390 0.950 . S
C398 C396 1.391 . S
C398 C399 1.400 . S
C399 C398 1.400 . S
C399 C400 1.398 . S
C399 C405 1.491 . S
C400 H391 0.950 . S
C400 C399 1.398 . S
C400 C401 1.391 . S
C401 H389 0.950 . S
C401 C397 1.393 . S
C401 C400 1.391 . S
C402 H392 0.950 . S
C402 C403 1.386 . S
C402 C404 1.391 . S
C403 C402 1.386 . S
C403 C407 1.393 . S
C404 H393 0.950 . S
C404 C402 1.391 . S
C404 C405 1.400 . S
C405 C399 1.491 . S
C405 C404 1.400 . S
C405 C406 1.398 . S
C406 H394 0.950 . S
C406 C405 1.398 . S
C406 C407 1.391 . S
C407 H395 0.950 . S
C407 C403 1.393 . S
C407 C406 1.391 . S
H408 C416 0.950 . S
H409 C421 0.950 . S
H410 C418 0.950 . S
H411 C420 0.950 . S
H412 C422 0.950 . S
H413 C424 0.950 . S
H414 C426 0.950 . S
H415 C427 0.950 . S
C416 H408 0.950 . S
C416 C417 1.386 . S
C416 C418 1.391 . S
C417 C416 1.386 . S
C417 C421 1.393 . S
C418 H410 0.950 . S
C418 C416 1.391 . S
C418 C419 1.400 . S
C419 C418 1.400 . S
C419 C420 1.398 . S
C419 C425 1.491 . S
C420 H411 0.950 . S
C420 C419 1.398 . S
C420 C421 1.391 . S
C421 H409 0.950 . S
C421 C417 1.393 . S
C421 C420 1.391 . S
C422 H412 0.950 . S
C422 C423 1.386 . S
C422 C424 1.391 . S
C423 C422 1.386 . S
C423 C427 1.393 . S
C424 H413 0.950 . S
C424 C422 1.391 . S
C424 C425 1.400 . S
C425 C419 1.491 . S
C425 C424 1.400 . S
C425 C426 1.398 . S
C426 H414 0.950 . S
C426 C425 1.398 . S
C426 C427 1.391 . S
C427 H415 0.950 . S
C427 C423 1.393 . S
C427 C426 1.391 . S
C203 C173 1.401 . S
C197 C27 1.450 . S
C217 N6 1.342 . S
C223 C141 1.382 . S
C237 C16 1.441 . S
C243 C179 1.386 . S
C257 N14 1.378 . S
C263 C147 1.352 . S
C277 C57 1.447 . S
C283 C109 1.419 . S
C297 N36 1.361 . S
C303 C77 1.362 . S
C323 C115 1.396 . S
C317 C46 1.435 . S
C343 C83 1.375 . S
C337 N44 1.391 . S
C357 C10 1.395 . S
C363 C89 1.368 . S
C377 C1 1.528 . S
C383 C121 1.491 . S
C403 C153 1.378 . S
C397 C40 1.396 . S
C417 C31 1.532 . S
C423 C185 1.501 . S
