# Generated by pormake.
# Topology zzz, (3,6)-cn, num edge types: 1
# Building blocks:
#     Node 0, Type 0, BuildingBlock: QEWDON_clean_linker_0, # of connection points: 3
#     Node 1, Type 0, BuildingBlock: QEWDON_clean_linker_0, # of connection points: 3
#     Node 2, Type 0, BuildingBlock: QEWDON_clean_linker_0, # of connection points: 3
#     Node 3, Type 0, BuildingBlock: QEWDON_clean_linker_0, # of connection points: 3
#     Node 4, Type 0, BuildingBlock: QEWDON_clean_linker_0, # of connection points: 3
#     Node 5, Type 0, BuildingBlock: QEWDON_clean_linker_0, # of connection points: 3
#     Node 6, Type 0, BuildingBlock: QEWDON_clean_linker_0, # of connection points: 3
#     Node 7, Type 0, BuildingBlock: QEWDON_clean_linker_0, # of connection points: 3
#     Node 8, Type 1, BuildingBlock: CUWYAW_clean_sbu_0, # of connection points: 6
#     Node 9, Type 1, BuildingBlock: CUWYAW_clean_sbu_0, # of connection points: 6
#     Node 10, Type 1, BuildingBlock: CUWYAW_clean_sbu_0, # of connection points: 6
#     Node 11, Type 1, BuildingBlock: CUWYAW_clean_sbu_0, # of connection points: 6
#     Edge 12, Type (0, 1), BuildingBlock: ZUJKAS_clean_linker_0, # of connection points: 2
#     Edge 13, Type (0, 1), BuildingBlock: ZUJKAS_clean_linker_0, # of connection points: 2
#     Edge 14, Type (0, 1), BuildingBlock: ZUJKAS_clean_linker_0, # of connection points: 2
#     Edge 15, Type (0, 1), BuildingBlock: ZUJKAS_clean_linker_0, # of connection points: 2
#     Edge 16, Type (0, 1), BuildingBlock: ZUJKAS_clean_linker_0, # of connection points: 2
#     Edge 17, Type (0, 1), BuildingBlock: ZUJKAS_clean_linker_0, # of connection points: 2
#     Edge 18, Type (0, 1), BuildingBlock: ZUJKAS_clean_linker_0, # of connection points: 2
#     Edge 19, Type (0, 1), BuildingBlock: ZUJKAS_clean_linker_0, # of connection points: 2
#     Edge 20, Type (0, 1), BuildingBlock: ZUJKAS_clean_linker_0, # of connection points: 2
#     Edge 21, Type (0, 1), BuildingBlock: ZUJKAS_clean_linker_0, # of connection points: 2
#     Edge 22, Type (0, 1), BuildingBlock: ZUJKAS_clean_linker_0, # of connection points: 2
#     Edge 23, Type (0, 1), BuildingBlock: ZUJKAS_clean_linker_0, # of connection points: 2
#     Edge 24, Type (0, 1), BuildingBlock: ZUJKAS_clean_linker_0, # of connection points: 2
#     Edge 25, Type (0, 1), BuildingBlock: ZUJKAS_clean_linker_0, # of connection points: 2
#     Edge 26, Type (0, 1), BuildingBlock: ZUJKAS_clean_linker_0, # of connection points: 2
#     Edge 27, Type (0, 1), BuildingBlock: ZUJKAS_clean_linker_0, # of connection points: 2
#     Edge 28, Type (0, 1), BuildingBlock: ZUJKAS_clean_linker_0, # of connection points: 2
#     Edge 29, Type (0, 1), BuildingBlock: ZUJKAS_clean_linker_0, # of connection points: 2
#     Edge 30, Type (0, 1), BuildingBlock: ZUJKAS_clean_linker_0, # of connection points: 2
#     Edge 31, Type (0, 1), BuildingBlock: ZUJKAS_clean_linker_0, # of connection points: 2
#     Edge 32, Type (0, 1), BuildingBlock: ZUJKAS_clean_linker_0, # of connection points: 2
#     Edge 33, Type (0, 1), BuildingBlock: ZUJKAS_clean_linker_0, # of connection points: 2
#     Edge 34, Type (0, 1), BuildingBlock: ZUJKAS_clean_linker_0, # of connection points: 2
#     Edge 35, Type (0, 1), BuildingBlock: ZUJKAS_clean_linker_0, # of connection points: 2
# Relax obj value: 0.130
# Max RMSD: 0.135
# Mean RMSD: 0.092
data_MOF--net-zzz--node1-CUWYAW_clean_sbu_0--node2-QEWDON_clean_linker_0--edge1-ZUJKAS_clean_linker_0
_symmetry_space_group_name_H-M    P1
_symmetry_Int_Tables_number       1
_symmetry_cell_setting            triclinic
loop_
_symmetry_equiv_pos_as_xyz
'x, y, z'
_cell_length_a     70.404936
_cell_length_b     70.367894
_cell_length_c     17.465063
_cell_angle_alpha  89.932292
_cell_angle_beta   89.894376
_cell_angle_gamma 90.066321
loop_
_atom_site_label
_atom_site_type_symbol
_atom_site_fract_x
_atom_site_fract_y
_atom_site_fract_z
_atom_type_partial_charge
H0 H 0.75353 0.52247 0.21605 0.0
C1 C 0.76357 0.52213 0.26281 0.0
C2 C 0.78075 0.51255 0.25154 0.0
C3 C 0.75973 0.53185 0.33174 0.0
H4 H 0.80822 0.50631 0.29903 0.0
C5 C 0.7945 0.51283 0.30937 0.0
C6 C 0.79158 0.52275 0.37773 0.0
C7 C 0.7741 0.53217 0.38914 0.0
C8 C 0.74132 0.54256 0.34006 0.0
H9 H 0.77184 0.5396 0.44256 0.0
C10 C 0.72478 0.53711 0.29886 0.0
C11 C 0.70813 0.54831 0.29992 0.0
C12 C 0.74039 0.55908 0.38526 0.0
H13 H 0.75265 0.56421 0.41626 0.0
C14 C 0.72375 0.5698 0.38893 0.0
H15 H 0.72472 0.52414 0.26571 0.0
C16 C 0.70784 0.56462 0.3463 0.0
H17 H 0.69548 0.57375 0.34808 0.0
H18 H 0.72336 0.58256 0.4235 0.0
H19 H 0.02521 0.75213 0.21328 0.0
C20 C 0.02425 0.76176 0.26139 0.0
C21 C 0.03458 0.77872 0.258 0.0
C22 C 1.01215 0.75779 0.32401 0.0
H23 H 0.03975 0.80585 0.31053 0.0
C24 C 0.03251 0.79228 0.31579 0.0
C25 C 1.01984 0.78941 0.37618 0.0
C26 C 1.00995 0.77201 0.38141 0.0
C27 C 1.00099 0.73948 0.32549 0.0
H28 H 1.00048 0.76987 0.42947 0.0
C29 C 1.0075 0.723 0.28648 0.0
C30 C 0.99634 0.70631 0.28282 0.0
C31 C 0.98325 0.73854 0.3627 0.0
H32 H 0.97725 0.75077 0.39129 0.0
C33 C 0.97248 0.72189 0.36151 0.0
H34 H 1.02128 0.72295 0.25899 0.0
C35 C 0.97886 0.70596 0.32172 0.0
H36 H 0.96979 0.69353 0.31957 0.0
H37 H 0.95883 0.72148 0.39012 0.0
H38 H 0.79308 0.02664 0.19825 0.0
C39 C 0.78292 0.02602 0.24469 0.0
C40 C 0.76474 0.03338 0.2317 0.0
C41 C 0.78764 1.01729 0.315 0.0
H42 H 0.73639 0.03616 0.27684 0.0
C43 C 0.75078 0.03144 0.28831 0.0
C44 C 0.75464 1.02236 0.35766 0.0
C45 C 0.7732 1.01578 0.37207 0.0
C46 C 0.80703 1.0085 0.32502 0.0
H47 H 0.77605 1.00909 0.42663 0.0
C48 C 0.82296 1.01481 0.28167 0.0
C49 C 0.84056 1.00518 0.28448 0.0
C50 C 0.80955 0.99279 0.37403 0.0
H51 H 0.79788 0.98694 0.40678 0.0
C52 C 0.82712 0.98374 0.37952 0.0
H53 H 0.82185 0.02722 0.24536 0.0
C54 C 0.84243 0.98972 0.33483 0.0
H55 H 0.85558 0.9818 0.33809 0.0
H56 H 0.82872 0.9716 0.41709 0.0
H57 H 0.5301 0.78858 0.19996 0.0
C58 C 0.52942 0.77837 0.24615 0.0
C59 C 0.52699 0.75926 0.22665 0.0
C60 C 0.53181 0.78398 0.32323 0.0
H61 H 0.5255 0.73055 0.26827 0.0
C62 C 0.52741 0.74536 0.28383 0.0
C63 C 0.53001 0.75016 0.36077 0.0
C64 C 0.53163 0.76954 0.38069 0.0
C65 C 0.5356 0.80461 0.34196 0.0
H66 H 0.5331 0.77309 0.44059 0.0
C67 C 0.53039 0.81952 0.29104 0.0
C68 C 0.53558 0.83859 0.30531 0.0
C69 C 0.54557 0.80959 0.40896 0.0
H70 H 0.55053 0.79895 0.4488 0.0
C71 C 0.55003 0.82851 0.42483 0.0
H72 H 0.52223 0.81656 0.24007 0.0
C73 C 0.5452 0.84288 0.37347 0.0
H74 H 0.54955 0.8573 0.38609 0.0
H75 H 0.55776 0.832 0.47646 0.0
H76 H 0.29043 0.53162 0.19237 0.0
C77 C 0.27997 0.5285 0.14884 0.0
C78 C 0.26085 0.52809 0.1705 0.0
C79 C 0.28544 0.52562 0.07197 0.0
H80 H 0.23197 0.52602 0.13154 0.0
C81 C 0.24682 0.52555 0.11486 0.0
C82 C 0.25153 0.52338 0.03755 0.0
C83 C 0.2709 0.52284 0.01632 0.0
C84 C 0.30611 0.52728 0.05049 0.0
H85 H 0.27445 0.52081 0.95659 0.0
C86 C 0.32077 0.5232 0.104 0.0
C87 C 0.33993 0.52759 0.08768 0.0
C88 C 0.31138 0.53467 0.97853 0.0
H89 H 0.30083 0.53843 0.93624 0.0
C90 C 0.33042 0.53822 0.96102 0.0
H91 H 0.31737 0.51723 0.15949 0.0
C92 C 0.34455 0.53498 0.01534 0.0
H93 H 0.35914 0.53835 0.00095 0.0
H94 H 0.33419 0.54404 0.90564 0.0
H95 H 0.03358 0.28718 0.18598 0.0
C96 C 0.03114 0.27713 0.14022 0.0
C97 C 0.02801 0.25814 0.16004 0.0
C98 C 0.03169 0.28287 0.06269 0.0
H99 H 0.02324 0.22984 0.11875 0.0
C100 C 0.02561 0.24455 0.10261 0.0
C101 C 0.02595 0.24954 0.02509 0.0
C102 C 0.02904 0.26876 0.00515 0.0
C103 C 0.03545 0.30339 0.04297 0.0
H104 H 0.02889 0.2726 0.94516 0.0
C105 C 0.03103 0.31829 0.09492 0.0
C106 C 0.03583 0.33736 0.07864 0.0
C107 C 0.04432 0.30827 0.97329 0.0
H108 H 0.04854 0.29751 0.93251 0.0
C109 C 0.0485 0.32718 0.95582 0.0
H110 H 0.02373 0.31526 0.14808 0.0
C111 C 0.04439 0.3416 0.00797 0.0
H112 H 0.04842 0.35604 0.99377 0.0
H113 H 0.05538 0.33064 0.90211 0.0
H114 H 0.25258 1.0134 0.15227 0.0
C115 C 0.26352 1.01558 0.10969 0.0
C116 C 0.2823 1.01249 0.13199 0.0
C117 C 0.25904 1.02074 0.03359 0.0
H118 H 0.31148 1.01158 0.09627 0.0
C119 C 0.29692 1.01389 0.07816 0.0
C120 C 0.29323 1.01891 0.0022 0.0
C121 C 0.27433 1.02287 0.98044 0.0
C122 C 0.23851 1.02288 0.0099 0.0
H123 H 0.27174 0.0273 0.9221 0.0
C124 C 0.22385 0.02643 0.06429 0.0
C125 C 0.20447 0.0262 0.04312 0.0
C126 C 0.23315 1.02008 0.933 0.0
H127 H 0.24347 1.01674 0.8892 0.0
C128 C 0.21412 1.02086 0.91114 0.0
H129 H 0.22726 0.02891 0.12368 0.0
C130 C 0.19991 0.02377 0.96548 0.0
H131 H 0.18527 0.024 0.94657 0.0
H132 H 0.21032 1.01874 0.85172 0.0
H133 H 0.52103 0.252 0.16186 0.0
C134 C 0.51837 0.26209 0.11646 0.0
C135 C 0.51353 0.28066 0.1372 0.0
C136 C 0.52027 0.25681 0.03878 0.0
H137 H 0.50853 0.30907 0.09634 0.0
C138 C 0.51126 0.29444 0.08021 0.0
C139 C 0.51376 0.29009 0.00295 0.0
C140 C 0.51806 0.27122 0.98195 0.0
C141 C 0.52534 0.23657 0.01873 0.0
H142 H 0.51948 0.26798 0.92171 0.0
C143 C 0.52146 0.22127 0.0698 0.0
C144 C 0.52772 0.20258 0.05437 0.0
C145 C 0.53496 0.23238 0.95 0.0
H146 H 0.53882 0.24342 0.90978 0.0
C147 C 0.54033 0.2138 0.9326 0.0
H148 H 0.5139 0.22381 0.12265 0.0
C149 C 0.53684 0.19905 0.98414 0.0
H150 H 0.54138 0.18486 0.96887 0.0
H151 H 0.54761 0.21086 0.87926 0.0
C152 C 1.00416 0.04279 0.45839 0.0
Eu153 Eu 1.01167 0.02772 0.58967 0.0
C154 C 0.99523 0.0613 0.44415 0.0
C155 C 0.9827 0.06893 0.49876 0.0
C156 C 0.97793 0.08816 0.49681 0.0
C157 C 0.98574 0.10016 0.44064 0.0
C158 C 0.99738 0.09221 0.38335 0.0
C159 C 1.0021 0.07293 0.38522 0.0
C160 C 0.98697 0.02511 0.71057 0.0
C161 C 0.02297 0.06154 0.7126 0.0
C162 C 0.04813 1.00261 0.86069 0.0
Eu163 Eu 0.03451 1.01824 0.73786 0.0
C164 C 0.04993 0.98257 0.88293 0.0
C165 C 0.06652 0.97624 0.91899 0.0
C166 C 0.06937 0.95684 0.93179 0.0
C167 C 0.0557 0.94348 0.90823 0.0
C168 C 0.03897 0.94996 0.87307 0.0
C169 C 0.03609 0.96931 0.8607 0.0
C170 C 0.05529 0.0288 0.61386 0.0
C171 C 1.01941 0.98361 0.62395 0.0
O172 O 1.02089 0.04406 0.49079 0.0
O173 O 0.99334 0.02964 0.48946 0.0
O174 O 0.98176 0.02846 0.6407 0.0
O175 O 1.00473 1.02306 0.7111 0.0
O176 O 1.01873 0.05672 0.64122 0.0
O177 O 0.0275 0.0487 0.76486 0.0
O178 O 0.03084 1.00939 0.85653 0.0
O179 O 0.0587 1.00766 0.80253 0.0
O180 O 0.05894 0.03427 0.68334 0.0
O181 O 0.041 1.0179 0.61344 0.0
O182 O 0.02664 0.98898 0.69072 0.0
O183 O 1.01366 0.99603 0.57191 0.0
H184 H 0.97748 0.0603 0.54568 0.0
H185 H 0.96875 0.09378 0.54114 0.0
H186 H 1.00386 0.10108 0.33984 0.0
H187 H 1.01209 0.06739 0.34359 0.0
H188 H 0.07742 0.98627 0.93586 0.0
H189 H 0.08226 0.95233 0.9602 0.0
H190 H 0.02826 0.94004 0.85338 0.0
H191 H 0.02325 0.97383 0.83193 0.0
C192 C 0.50338 0.99897 0.49526 0.0
Eu193 Eu 0.51994 1.01112 0.61837 0.0
C194 C 0.48298 0.99953 0.47538 0.0
C195 C 0.4716 0.98335 0.4866 0.0
C196 C 0.45184 0.98466 0.48271 0.0
C197 C 0.44308 1.00217 0.46695 0.0
C198 C 0.4545 1.01808 0.45112 0.0
C199 C 0.47424 1.01679 0.45525 0.0
C200 C 0.52876 0.98904 0.74075 0.0
C201 C 0.48516 0.02552 0.73023 0.0
C202 C 0.54514 0.04619 0.87658 0.0
Eu203 Eu 0.52858 0.03328 0.7548 0.0
C204 C 0.56569 0.04914 0.88979 0.0
C205 C 0.57414 0.06687 0.8744 0.0
C206 C 0.59392 0.06871 0.87229 0.0
C207 C 0.60555 0.05285 0.88547 0.0
C208 C 0.59712 0.03543 0.90531 0.0
C209 C 0.57742 0.03361 0.90779 0.0
C210 C 0.51974 0.05502 0.63131 0.0
C211 C 0.56362 1.01897 0.64257 0.0
O212 O 0.51212 1.01537 0.49896 0.0
O213 O 0.50787 0.9878 0.5523 0.0
O214 O 0.53449 0.98575 0.67133 0.0
O215 O 0.51835 1.00368 0.74247 0.0
O216 O 0.49068 1.02112 0.65997 0.0
O217 O 0.49781 0.02883 0.78408 0.0
O218 O 0.53961 0.02851 0.86952 0.0
O219 O 0.53727 0.05728 0.82559 0.0
O220 O 0.51367 0.05839 0.7002 0.0
O221 O 0.53036 0.04057 0.63102 0.0
O222 O 0.55816 0.02522 0.7106 0.0
O223 O 0.55103 1.01375 0.59093 0.0
H224 H 0.47793 0.96985 0.50202 0.0
H225 H 0.44342 0.97215 0.49526 0.0
H226 H 0.44817 0.03165 0.43693 0.0
H227 H 0.48255 0.02953 0.44565 0.0
H228 H 0.5655 0.07912 0.86067 0.0
H229 H 0.60008 0.08233 0.85735 0.0
H230 H 0.60577 1.0231 0.91781 0.0
H231 H 0.57144 1.01978 0.92075 0.0
C232 C 0.54308 0.5017 0.51122 0.0
Eu233 Eu 0.5332 0.51895 0.63547 0.0
C234 C 0.53943 0.48167 0.49223 0.0
C235 C 0.55411 0.47028 0.46346 0.0
C236 C 0.55181 0.45056 0.4593 0.0
C237 C 0.53478 0.442 0.4839 0.0
C238 C 0.51992 0.45351 0.51042 0.0
C239 C 0.52224 0.47313 0.5148 0.0
C240 C 0.55515 0.52947 0.75495 0.0
C241 C 0.51808 0.4844 0.75275 0.0
C242 C 0.50688 0.54409 0.9205 0.0
Eu243 Eu 0.5114 0.52831 0.78869 0.0
C244 C 0.50685 0.56486 0.93317 0.0
C245 C 0.48978 0.57434 0.94952 0.0
C246 C 0.48864 0.59412 0.94244 0.0
C247 C 0.50455 0.60476 0.91871 0.0
C248 C 0.52186 0.5953 0.90671 0.0
C249 C 0.52303 0.57565 0.91423 0.0
C250 C 0.48602 0.52517 0.6709 0.0
C251 C 0.5234 0.56248 0.66665 0.0
O252 O 0.52811 0.51275 0.51507 0.0
O253 O 0.55474 0.50418 0.56861 0.0
O254 O 0.55877 0.53416 0.68427 0.0
O255 O 0.54058 0.51894 0.75832 0.0
O256 O 0.52599 0.4899 0.68719 0.0
O257 O 0.5114 0.49655 0.80398 0.0
O258 O 0.52311 0.53678 0.89869 0.0
O259 O 0.49253 0.53747 0.88094 0.0
O260 O 0.48115 0.52855 0.74132 0.0
O261 O 0.50381 0.52333 0.66866 0.0
O262 O 0.51897 0.55725 0.73752 0.0
O263 O 0.52773 0.54999 0.61272 0.0
H264 H 0.56757 0.47655 0.44702 0.0
H265 H 0.56342 0.44199 0.43783 0.0
H266 H 0.50675 0.44729 0.53067 0.0
H267 H 0.51085 0.4815 0.53918 0.0
H268 H 0.47709 0.56638 0.96396 0.0
H269 H 0.4752 0.60102 0.95403 0.0
H270 H 0.53436 0.60294 0.88756 0.0
H271 H 0.53643 0.56889 0.90049 0.0
C272 C 0.04455 0.53857 0.4847 0.0
Eu273 Eu 0.02873 0.53121 0.61467 0.0
C274 C 0.06332 0.54721 0.47431 0.0
C275 C 0.07157 0.55702 0.5359 0.0
C276 C 0.09094 0.5611 0.53596 0.0
C277 C 0.10242 0.55536 0.47449 0.0
C278 C 0.09388 0.54665 0.41058 0.0
C279 C 0.07446 0.5425 0.41073 0.0
C280 C 0.02575 0.55636 0.73382 0.0
C281 C 0.06194 0.51931 0.7391 0.0
C282 C 1.00147 0.49626 0.88572 0.0
Eu283 Eu 1.01821 0.50901 0.76366 0.0
C284 C 0.98118 0.496 0.90591 0.0
C285 C 0.97253 0.47879 0.92684 0.0
C286 C 0.95276 0.4775 0.9321 0.0
C287 C 0.94134 0.49343 0.91655 0.0
C288 C 0.95013 0.51086 0.89921 0.0
C289 C 0.96984 0.51211 0.89351 0.0
C290 C 0.02874 0.48755 0.64178 0.0
C291 C 0.9844 0.52419 0.64583 0.0
O292 O 0.04521 0.52173 0.51673 0.0
O293 O 0.03142 0.54956 0.51454 0.0
O294 O 0.02964 0.56128 0.66403 0.0
O295 O 0.02352 0.53863 0.73525 0.0
O296 O 0.05733 0.52342 0.6674 0.0
O297 O 0.0489 0.51528 0.79141 0.0
O298 O 1.00973 0.51294 0.88268 0.0
O299 O 1.00597 0.48543 0.82773 0.0
O300 O 0.03372 0.48397 0.71194 0.0
O301 O 1.01825 0.50211 0.63959 0.0
O302 O 0.98928 0.51748 0.71423 0.0
O303 O 0.9972 0.52927 0.59407 0.0
H304 H 0.0633 0.56042 0.58638 0.0
H305 H 0.0971 0.56761 0.58632 0.0
H306 H 0.10236 0.54233 0.36181 0.0
H307 H 0.06838 0.53468 0.36329 0.0
H308 H 0.98102 0.46615 0.93566 0.0
H309 H 0.94642 0.46385 0.94518 0.0
H310 H 0.94177 0.52349 0.88851 0.0
H311 H 0.97611 0.52554 0.87648 0.0
H312 H 0.20239 0.04896 0.17197 0.0
H313 H 0.17689 0.05012 0.26786 0.0
H314 H 0.14556 1.0079 0.14156 0.0
H315 H 0.17114 1.00608 0.04769 0.0
H316 H 0.1388 0.05936 0.25328 0.0
H317 H 0.14577 0.98503 0.35417 0.0
H318 H 0.16359 0.9964 0.29548 0.0
H319 H 0.14244 0.98678 0.2526 0.0
C320 C 0.19019 0.03975 0.16505 0.0
C321 C 0.18893 0.02742 0.10177 0.0
C322 C 0.17553 0.04053 0.21972 0.0
C323 C 0.15938 0.02888 0.21279 0.0
C324 C 0.158 1.01676 0.14927 0.0
H325 H 0.05482 1.01101 0.47407 0.0
H326 H 0.07949 1.01203 0.37443 0.0
C327 C 0.17259 1.01595 0.09485 0.0
C328 C 0.14382 0.02951 0.27106 0.0
H329 H 0.11816 1.00172 0.39468 0.0
C330 C 0.13438 0.04678 0.28455 0.0
C331 C 0.13796 1.0131 0.31198 0.0
C332 C 0.14808 0.99432 0.3035 0.0
C333 C 0.11906 0.04799 0.33639 0.0
C334 C 0.11312 0.03154 0.37668 0.0
C335 C 0.12258 1.0143 0.36339 0.0
C336 C 0.0975 0.03197 0.43457 0.0
C337 C 0.1091 0.06679 0.34644 0.0
C338 C 0.09932 0.04288 0.50146 0.0
C339 C 0.08529 0.04226 0.55843 0.0
C340 C 0.06912 0.0307 0.54992 0.0
C341 C 0.06707 1.0201 0.48221 0.0
C342 C 0.08119 1.02064 0.42535 0.0
H343 H 0.11201 0.0766 0.29792 0.0
H344 H 0.0935 0.06476 0.35163 0.0
H345 H 0.11423 0.07366 0.3997 0.0
H346 H 0.11188 0.05148 0.51066 0.0
H347 H 0.08732 0.05055 0.61001 0.0
H348 H 0.49802 0.1956 0.15495 0.0
H349 H 0.49582 0.17072 0.25281 0.0
H350 H 0.55002 0.14855 0.18086 0.0
H351 H 0.5529 0.17387 0.08659 0.0
H352 H 0.49475 0.13252 0.24465 0.0
H353 H 0.55901 0.15342 0.40598 0.0
H354 H 0.54884 0.16832 0.33268 0.0
H355 H 0.56419 0.14885 0.3072 0.0
C356 C 0.50963 0.18563 0.16059 0.0
C357 C 0.5257 0.18695 0.11256 0.0
C358 C 0.50826 0.17127 0.21631 0.0
C359 C 0.52292 0.1579 0.22558 0.0
C360 C 0.53872 0.15891 0.17652 0.0
H361 H 0.5397 0.05524 0.49651 0.0
H362 H 0.53954 0.07988 0.39672 0.0
C363 C 0.54018 0.17331 0.12143 0.0
C364 C 0.5217 0.14279 0.28572 0.0
H365 H 0.54593 0.12295 0.43566 0.0
C366 C 0.50588 0.13055 0.28673 0.0
C367 C 0.53616 0.14018 0.34124 0.0
C368 C 0.5529 0.15351 0.34737 0.0
C369 C 0.50439 0.1156 0.3402 0.0
C370 C 0.51908 0.11276 0.39405 0.0
C371 C 0.53478 0.12504 0.3937 0.0
C372 C 0.5183 0.09729 0.45219 0.0
C373 C 0.4873 0.10269 0.33832 0.0
C374 C 0.50636 0.09886 0.51634 0.0
C375 C 0.50656 0.0849 0.57372 0.0
C376 C 0.51862 0.06905 0.56787 0.0
C377 C 0.53023 0.06727 0.50263 0.0
C378 C 0.53018 0.08134 0.44564 0.0
H379 H 0.47822 0.10533 0.28743 0.0
H380 H 0.49187 0.08759 0.33817 0.0
H381 H 0.47863 0.105 0.39064 0.0
H382 H 0.49718 0.11109 0.52278 0.0
H383 H 0.49744 0.08666 0.62322 0.0
H384 H 0.34922 0.49632 0.17461 0.0
H385 H 0.37503 0.49343 0.26829 0.0
H386 H 0.39007 0.55215 0.23003 0.0
H387 H 0.36498 0.55471 0.13404 0.0
H388 H 0.42089 0.53279 0.23835 0.0
H389 H 0.37616 0.51038 0.48356 0.0
H390 H 0.37471 0.4942 0.40463 0.0
H391 H 0.36607 0.51816 0.39419 0.0
C392 C 0.358 0.5086 0.18666 0.0
C393 C 0.35505 0.52574 0.14707 0.0
C394 C 0.37271 0.50699 0.24064 0.0
C395 C 0.38443 0.52267 0.2579 0.0
C396 C 0.38136 0.53979 0.2182 0.0
H397 H 0.45011 0.53863 0.66945 0.0
H398 H 0.42682 0.53738 0.56659 0.0
C399 C 0.36696 0.54127 0.16332 0.0
C400 C 0.40001 0.52142 0.31626 0.0
H401 H 0.4094 0.50979 0.50264 0.0
C402 C 0.41833 0.52778 0.29621 0.0
C403 C 0.3968 0.51506 0.39229 0.0
C404 C 0.37734 0.50925 0.42027 0.0
C405 C 0.43329 0.5283 0.34972 0.0
C406 C 0.43018 0.52156 0.42527 0.0
C407 C 0.41196 0.51486 0.44485 0.0
C408 C 0.44506 0.52253 0.48664 0.0
C409 C 0.45202 0.53685 0.32527 0.0
C410 C 0.46333 0.51467 0.47694 0.0
C411 C 0.47693 0.51579 0.53575 0.0
C412 C 0.47238 0.52433 0.6061 0.0
C413 C 0.45409 0.53192 0.61597 0.0
C414 C 0.44069 0.53115 0.55705 0.0
H415 H 0.45039 0.54616 0.27428 0.0
H416 H 0.45845 0.54534 0.37209 0.0
H417 H 0.46199 0.52527 0.30977 0.0
H418 H 0.46702 0.50744 0.42436 0.0
H419 H 0.4908 0.50961 0.52681 0.0
H420 H 0.04342 0.33638 0.23254 0.0
H421 H 0.04142 0.36255 0.3248 0.0
H422 H 1.02034 0.39958 0.14767 0.0
H423 H 1.02214 0.37346 0.05524 0.0
H424 H 0.06105 0.39897 0.30814 0.0
H425 H 0.98271 0.40722 0.33019 0.0
H426 H 0.99371 0.38572 0.29529 0.0
H427 H 0.99239 0.40632 0.23489 0.0
C428 C 0.03801 0.34998 0.2135 0.0
C429 C 0.03291 0.35278 0.13639 0.0
C430 C 0.037 0.36497 0.26621 0.0
C431 C 0.03061 0.38301 0.24337 0.0
C432 C 0.02511 0.38575 0.16691 0.0
H433 H 1.01515 0.48999 0.49469 0.0
H434 H 1.01645 0.46547 0.39472 0.0
C435 C 0.02627 0.37082 0.114 0.0
C436 C 0.0306 0.39917 0.29854 0.0
H437 H 1.00152 0.43001 0.3942 0.0
C438 C 0.04804 0.40573 0.32713 0.0
C439 C 1.01364 0.40816 0.32256 0.0
C440 C 0.9945 0.40148 0.29476 0.0
C441 C 0.049 0.42107 0.37867 0.0
C442 C 0.032 0.42981 0.40426 0.0
C443 C 1.01456 0.42337 0.37484 0.0
C444 C 0.03196 0.44513 0.46351 0.0
C445 C 0.0683 0.42799 0.40384 0.0
C446 C 0.0402 0.44196 0.53563 0.0
C447 C 0.03962 0.45599 0.59236 0.0
C448 C 0.03054 0.47346 0.57888 0.0
C449 C 1.02233 0.47672 0.50669 0.0
C450 C 0.023 0.46267 0.44964 0.0
H451 H 0.07945 0.42431 0.36129 0.0
H452 H 0.0684 0.44361 0.41256 0.0
H453 H 0.0721 0.42102 0.45873 0.0
H454 H 0.04675 0.42844 0.54879 0.0
H455 H 0.04593 0.45295 0.64753 0.0
H456 H 0.87889 1.00606 0.31587 0.0
H457 H 0.90515 1.01126 0.22624 0.0
H458 H 0.8651 1.02074 0.04384 0.0
H459 H 0.83877 1.01543 0.13282 0.0
H460 H 0.91385 0.9906 0.09695 0.0
H461 H 0.90082 0.0657 0.01809 0.0
H462 H 0.8897 0.05461 0.09997 0.0
H463 H 0.88035 0.05082 0.00538 0.0
C464 C 0.87562 1.00935 0.25676 0.0
C465 C 0.85661 1.01034 0.23186 0.0
C466 C 0.8907 1.01236 0.20555 0.0
C467 C 0.88718 1.01661 0.12827 0.0
C468 C 0.86824 1.01792 0.10344 0.0
H469 H 0.94867 0.02778 0.70552 0.0
H470 H 0.92594 0.02579 0.81085 0.0
C471 C 0.85315 1.01491 0.1546 0.0
C472 C 0.90326 1.01866 0.07283 0.0
H473 H 0.92233 0.04849 0.93831 0.0
C474 C 0.91584 1.00335 0.06287 0.0
C475 C 0.90594 0.03529 0.02835 0.0
C476 C 0.89361 0.05262 0.03888 0.0
C477 C 0.93046 1.0039 0.00768 0.0
C478 C 0.93283 1.02036 0.96188 0.0
C479 C 0.92053 0.03584 0.97317 0.0
C480 C 0.94713 1.02142 0.89864 0.0
C481 C 0.94275 0.98656 0.99673 0.0
C482 C 0.96676 1.01975 0.9125 0.0
C483 C 0.97989 1.02084 0.85179 0.0
C484 C 0.97361 0.02369 0.7763 0.0
C485 C 0.954 0.0255 0.76294 0.0
C486 C 0.94096 0.02441 0.82324 0.0
H487 H 0.93648 0.97376 0.0242 0.0
H488 H 0.94494 0.98358 0.93492 0.0
H489 H 0.95686 0.98914 0.02296 0.0
H490 H 0.97195 1.01781 0.97029 0.0
H491 H 0.99489 1.01961 0.86399 0.0
H492 H 0.54102 0.83723 0.14981 0.0
H493 H 0.53876 0.86338 0.0576 0.0
H494 H 0.52001 0.90087 0.23755 0.0
H495 H 0.52256 0.87487 0.33015 0.0
H496 H 0.51035 0.88578 0.00865 0.0
H497 H 0.56396 0.93082 0.15367 0.0
H498 H 0.56 0.90634 0.17985 0.0
H499 H 0.54432 0.92462 0.21431 0.0
C500 C 0.5362 0.85098 0.16963 0.0
C501 C 0.53212 0.85395 0.24764 0.0
C502 C 0.53501 0.86599 0.11685 0.0
C503 C 0.52969 0.88431 0.14068 0.0
C504 C 0.52476 0.88708 0.2179 0.0
H505 H 0.51479 0.99142 0.88748 0.0
H506 H 0.51461 0.96638 0.98596 0.0
C507 C 0.5261 0.87214 0.27081 0.0
C508 C 0.52938 0.90045 0.08479 0.0
H509 H 0.54736 0.94492 0.04999 0.0
C510 C 0.51849 0.89867 0.01777 0.0
C511 C 0.54001 0.91736 0.09623 0.0
C512 C 0.55288 0.91988 0.1645 0.0
C513 C 0.51783 0.91327 0.96261 0.0
C514 C 0.52843 0.93012 0.97418 0.0
C515 C 0.53916 0.93204 0.04136 0.0
C516 C 0.52905 0.94559 0.91574 0.0
C517 C 0.50564 0.91064 0.89246 0.0
C518 C 0.53761 0.9424 0.84424 0.0
C519 C 0.53788 0.95669 0.78835 0.0
C520 C 0.52951 0.9745 0.8025 0.0
C521 C 0.5213 0.97784 0.87475 0.0
C522 C 0.52118 0.96354 0.93101 0.0
H523 H 0.4952 0.89894 0.89992 0.0
H524 H 0.49786 0.92393 0.87867 0.0
H525 H 0.51486 0.90713 0.84287 0.0
H526 H 0.54404 0.92878 0.83152 0.0
H527 H 0.54439 0.95366 0.73349 0.0
H528 H 0.67003 0.55169 0.33344 0.0
H529 H 0.64302 0.54733 0.24733 0.0
H530 H 0.68111 0.53047 0.06641 0.0
H531 H 0.70825 0.53503 0.15175 0.0
H532 H 0.63614 0.56639 0.11092 0.0
H533 H 0.64057 0.48876 0.05991 0.0
H534 H 0.65294 0.50032 0.13747 0.0
H535 H 0.66237 0.50127 0.0418 0.0
C536 C 0.67272 0.547 0.27541 0.0
C537 C 0.69144 0.54375 0.24984 0.0
C538 C 0.6572 0.54445 0.22624 0.0
C539 C 0.65994 0.53841 0.1504 0.0
C540 C 0.67854 0.53478 0.12502 0.0
H541 H 0.58634 0.5524 0.75665 0.0
H542 H 0.61077 0.55481 0.85581 0.0
C543 C 0.69409 0.53736 0.17413 0.0
C544 C 0.64345 0.53689 0.09693 0.0
H545 H 0.61974 0.50624 0.97873 0.0
C546 C 0.63251 0.5532 0.08238 0.0
C547 C 0.6385 0.51965 0.06017 0.0
C548 C 0.64908 0.50144 0.07601 0.0
C549 C 0.61716 0.55286 0.03081 0.0
C550 C 0.61265 0.5358 0.99194 0.0
C551 C 0.62325 0.51936 0.00799 0.0
C552 C 0.59731 0.53486 0.93314 0.0
C553 C 0.60578 0.57077 0.01872 0.0
C554 C 0.58159 0.52274 0.94305 0.0
C555 C 0.56754 0.52139 0.88634 0.0
C556 C 0.56905 0.53195 0.81815 0.0
C557 C 0.58471 0.54415 0.80865 0.0
C558 C 0.59867 0.54559 0.86546 0.0
H559 H 0.60773 0.58099 0.06652 0.0
H560 H 0.61057 0.57778 0.96511 0.0
H561 H 0.59041 0.56751 0.01307 0.0
H562 H 0.58025 0.51426 0.99457 0.0
H563 H 0.55573 0.51173 0.89511 0.0
H564 H 1.01255 0.70637 0.13959 0.0
H565 H 1.01899 0.67908 0.05669 0.0
H566 H 0.99976 0.6411 0.23455 0.0
H567 H 0.99327 0.6683 0.31775 0.0
H568 H 0.04207 0.64732 0.07199 0.0
H569 H 0.96635 0.6255 0.05544 0.0
H570 H 0.97362 0.64815 0.09384 0.0
H571 H 0.97566 0.62697 0.15088 0.0
C572 C 1.00994 0.69221 0.1616 0.0
C573 C 1.00221 0.68961 0.23529 0.0
C574 C 1.01354 0.67659 0.11388 0.0
C575 C 1.00946 0.658 0.13854 0.0
C576 C 1.00253 0.6553 0.21324 0.0
H577 H 1.01485 0.5496 0.88362 0.0
H578 H 1.01178 0.57311 0.98731 0.0
C579 C 0.99888 0.6709 0.2609 0.0
C580 C 1.01223 0.64156 0.08564 0.0
H581 H 0.98862 0.60572 0.99334 0.0
C582 C 0.03038 0.63822 0.05497 0.0
C583 C 0.99701 0.62954 0.06353 0.0
C584 C 0.97702 0.63275 0.09199 0.0
C585 C 0.03371 0.62333 0.00284 0.0
C586 C 1.01841 0.61161 0.9794 0.0
C587 C 1.00036 0.61464 0.01138 0.0
C588 C 1.0206 0.59706 0.91783 0.0
C589 C 0.05364 0.62025 0.97357 0.0
C590 C 0.02628 0.60266 0.84414 0.0
C591 C 0.02798 0.58932 0.78529 0.0
C592 C 0.02396 0.57 0.79833 0.0
C593 C 1.01815 0.56433 0.87193 0.0
C594 C 1.01637 0.57777 0.93111 0.0
H595 H 0.06438 0.62618 0.01354 0.0
H596 H 0.05662 0.60491 0.96495 0.0
H597 H 0.05533 0.62762 0.91774 0.0
H598 H 0.02919 0.61747 0.83173 0.0
H599 H 0.03239 0.5942 0.72916 0.0
H600 H 1.00296 0.2714 0.26631 0.0
H601 H 0.99221 0.25387 0.37982 0.0
H602 H 0.03673 0.21268 0.34299 0.0
H603 H 0.04769 0.23045 0.23241 0.0
H604 H 0.97708 0.22167 0.35615 0.0
H605 H 0.0324 0.2073 0.56635 0.0
H606 H 0.03431 0.22717 0.50107 0.0
H607 H 0.04348 0.20405 0.47514 0.0
C608 C 1.01103 0.25919 0.28538 0.0
C609 C 0.02597 0.25205 0.24055 0.0
C610 C 1.00484 0.24913 0.35 0.0
C611 C 1.01359 0.23189 0.37031 0.0
C612 C 0.02992 0.2261 0.33024 0.0
H613 H 0.98041 0.12547 0.32368 0.0
H614 H 0.9821 0.15996 0.33056 0.0
C615 C 0.03611 0.23616 0.26623 0.0
C616 C 1.00339 0.2176 0.41764 0.0
H617 H 1.01394 0.17823 0.52262 0.0
C618 C 0.9849 0.21258 0.39511 0.0
C619 C 1.01305 0.20592 0.47076 0.0
C620 C 0.03182 0.21162 0.50518 0.0
C621 C 0.97714 0.19489 0.41471 0.0
C622 C 0.98837 0.18179 0.45592 0.0
C623 C 1.00555 0.18797 0.48839 0.0
C624 C 0.98436 0.16111 0.45428 0.0
C625 C 0.95748 0.18999 0.38674 0.0
C626 C 0.98527 0.15016 0.52128 0.0
C627 C 0.98474 0.13033 0.51726 0.0
C628 C 0.98339 0.12109 0.44595 0.0
C629 C 0.98162 0.13212 0.37934 0.0
C630 C 0.98226 0.1519 0.38342 0.0
H631 H 0.94817 0.20272 0.38819 0.0
H632 H 0.95831 0.1852 0.3263 0.0
H633 H 0.95085 0.17857 0.42173 0.0
H634 H 0.98712 0.15699 0.57627 0.0
H635 H 0.98639 0.12226 0.56965 0.0
H636 H 0.30068 0.98186 0.18954 0.0
H637 H 0.3188 0.98132 0.3081 0.0
H638 H 0.29452 0.03526 0.37294 0.0
H639 H 0.2763 0.03577 0.25343 0.0
H640 H 0.33191 0.03719 0.3441 0.0
H641 H 0.32021 0.97694 0.53907 0.0
H642 H 0.31955 0.96878 0.44195 0.0
H643 H 0.30195 0.9855 0.47496 0.0
C644 C 0.29848 0.99309 0.23105 0.0
C645 C 0.28733 1.00893 0.21258 0.0
C646 C 0.30871 0.99272 0.29925 0.0
C647 C 0.30799 1.00824 0.34966 0.0
C648 C 0.29513 1.02306 0.3352 0.0
H649 H 0.42213 0.0311 0.5281 0.0
H650 H 0.38757 0.0344 0.5298 0.0
C651 C 0.28475 0.02336 0.26702 0.0
C652 C 0.32424 1.01123 0.40187 0.0
H653 H 0.35386 0.98599 0.51775 0.0
C654 C 0.33648 0.0264 0.38448 0.0
C655 C 0.33013 0.9972 0.45455 0.0
C656 C 0.31712 0.98131 0.47923 0.0
C657 C 0.3553 0.02657 0.41014 0.0
C658 C 0.36181 1.01143 0.45657 0.0
C659 C 0.34891 0.99744 0.48124 0.0
C660 C 0.38235 1.0082 0.46856 0.0
C661 C 0.36848 0.04191 0.38065 0.0
C662 C 0.39081 0.99194 0.43685 0.0
C663 C 0.4105 0.98981 0.4374 0.0
C664 C 0.42211 1.00399 0.46911 0.0
C665 C 0.41356 1.02 0.5028 0.0
C666 C 0.39382 1.02192 0.50374 0.0
H667 H 0.36178 0.05075 0.33539 0.0
H668 H 0.3725 0.05145 0.42849 0.0
H669 H 0.38166 0.03558 0.35682 0.0
H670 H 0.38221 0.98123 0.40889 0.0
H671 H 0.41665 0.97739 0.41049 0.0
H672 H 0.48682 0.30304 0.20405 0.0
H673 H 0.49152 0.32211 0.31819 0.0
H674 H 0.54204 0.29012 0.37202 0.0
H675 H 0.53823 0.27196 0.2536 0.0
H676 H 0.49741 0.3227 0.46727 0.0
H677 H 0.56531 0.33979 0.31599 0.0
H678 H 0.54782 0.32441 0.27391 0.0
H679 H 0.56255 0.31599 0.35098 0.0
C680 C 0.49873 0.2998 0.24104 0.0
C681 C 0.51262 0.28666 0.21833 0.0
C682 C 0.50131 0.31058 0.30684 0.0
C683 C 0.51764 0.30812 0.35172 0.0
C684 C 0.52978 0.29276 0.33631 0.0
H685 H 0.56023 0.41538 0.53286 0.0
H686 H 0.55689 0.38078 0.52806 0.0
C687 C 0.52745 0.28223 0.26909 0.0
C688 C 0.52344 0.32393 0.40248 0.0
H689 H 0.55419 0.36138 0.40397 0.0
C690 C 0.51009 0.33095 0.45509 0.0
C691 C 0.54003 0.33471 0.38659 0.0
C692 C 0.55472 0.32848 0.3286 0.0
C693 C 0.51187 0.34922 0.4863 0.0
C694 C 0.5277 0.36055 0.46549 0.0
C695 C 0.54206 0.35269 0.41973 0.0
C696 C 0.52858 0.38127 0.47984 0.0
C697 C 0.4961 0.35631 0.5373 0.0
C698 C 0.51384 0.39305 0.45394 0.0
C699 C 0.51575 0.41277 0.45638 0.0
C700 C 0.53258 0.42109 0.48357 0.0
C701 C 0.54724 0.40932 0.51044 0.0
C702 C 0.54526 0.38959 0.50847 0.0
H703 H 0.49191 0.34509 0.57885 0.0
H704 H 0.49995 0.36929 0.56935 0.0
H705 H 0.48345 0.35945 0.50162 0.0
H706 H 0.50113 0.38701 0.42898 0.0
H707 H 0.50432 0.4215 0.43452 0.0
H708 H 0.26999 0.5588 0.25824 0.0
H709 H 0.25308 0.56933 0.37352 0.0
H710 H 0.22086 0.51709 0.37344 0.0
H711 H 0.23783 0.50658 0.25981 0.0
H712 H 0.21671 0.57575 0.35422 0.0
H713 H 0.22198 0.52728 0.59865 0.0
H714 H 0.24019 0.5284 0.52554 0.0
H715 H 0.21976 0.51312 0.51407 0.0
C716 C 0.25993 0.54925 0.28526 0.0
C717 C 0.25498 0.53201 0.25012 0.0
C718 C 0.2503 0.55526 0.35108 0.0
C719 C 0.23578 0.54398 0.38267 0.0
C720 C 0.23229 0.52589 0.35165 0.0
H721 H 0.12834 0.52853 0.43484 0.0
H722 H 0.1628 0.53065 0.44122 0.0
C723 C 0.24181 0.51996 0.28597 0.0
C724 C 0.22105 0.5525 0.43263 0.0
H725 H 0.18882 0.53796 0.56611 0.0
C726 C 0.21099 0.56806 0.40295 0.0
C727 C 0.21373 0.54271 0.49694 0.0
C728 C 0.22468 0.52708 0.53595 0.0
C729 C 0.19247 0.57206 0.42753 0.0
C730 C 0.18408 0.56035 0.48405 0.0
C731 C 0.19519 0.54667 0.52164 0.0
C732 C 0.16321 0.55888 0.49033 0.0
C733 C 0.18127 0.58722 0.38634 0.0
C734 C 0.15201 0.57403 0.51641 0.0
C735 C 0.1322 0.573 0.51135 0.0
C736 C 0.12337 0.55679 0.48023 0.0
C737 C 0.13469 0.54142 0.45694 0.0
C738 C 0.15439 0.54248 0.46187 0.0
H739 H 0.18973 0.59444 0.34109 0.0
H740 H 0.16846 0.58089 0.35949 0.0
H741 H 0.17647 0.59811 0.42795 0.0
H742 H 0.15859 0.58676 0.53898 0.0
H743 H 0.12382 0.58501 0.53022 0.0
H744 H 0.07258 0.78471 0.24259 0.0
H745 H 0.0868 0.80638 0.14856 0.0
H746 H 0.03334 0.80912 0.02877 0.0
H747 H 1.0195 0.78678 0.12016 0.0
H748 H 0.06405 0.81818 0.93393 0.0
H749 H 0.06541 0.8578 0.21049 0.0
H750 H 0.08036 0.83722 0.2055 0.0
H751 H 0.05496 0.83455 0.20243 0.0
C752 C 0.0643 0.78909 0.19343 0.0
C753 C 0.04497 0.78437 0.18851 0.0
C754 C 0.07235 0.80154 0.14015 0.0
C755 C 0.06089 0.80985 0.08358 0.0
C756 C 0.04238 0.80298 0.07239 0.0
H757 H 0.02948 0.91742 0.95553 0.0
H758 H 0.03456 0.88388 0.98409 0.0
C759 C 0.03447 0.7902 0.12457 0.0
C760 C 0.06605 0.82844 0.04982 0.0
H761 H 0.06962 0.87526 0.09899 0.0
C762 C 0.06578 0.83062 0.96983 0.0
C763 C 0.06788 0.84472 0.09714 0.0
C764 C 0.06703 0.8436 0.18358 0.0
C765 C 0.06646 0.84876 0.93616 0.0
C766 C 0.06755 0.86488 0.9838 0.0
C767 C 0.06893 0.86269 0.06313 0.0
C768 C 0.06439 0.88422 0.95456 0.0
C769 C 0.06482 0.85078 0.85053 0.0
C770 C 0.07954 0.89535 0.92813 0.0
C771 C 0.07668 0.91458 0.91136 0.0
C772 C 0.05866 0.92288 0.92145 0.0
C773 C 0.04346 0.91144 0.94616 0.0
C774 C 0.04632 0.89229 0.96255 0.0
H775 H 0.06538 0.83684 0.82087 0.0
H776 H 0.05118 0.85785 0.83631 0.0
H777 H 0.07646 0.85996 0.82852 0.0
H778 H 0.09362 0.88931 0.92254 0.0
H779 H 0.0886 0.92297 0.89132 0.0
H780 H 0.74465 0.06557 0.20222 0.0
H781 H 0.72629 0.07175 0.0867 0.0
H782 H 0.75401 0.0249 0.97353 0.0
H783 H 0.77187 1.01811 0.09045 0.0
H784 H 0.72815 0.07588 0.92375 0.0
H785 H 0.70031 1.00528 0.01875 0.0
H786 H 0.71702 1.01847 0.07574 0.0
H787 H 0.72479 1.00658 0.9902 0.0
C788 C 0.74726 0.05696 0.15191 0.0
C789 C 0.75918 0.041 0.15594 0.0
C790 C 0.73691 0.06062 0.08564 0.0
C791 C 0.73842 0.04842 0.0225 0.0
C792 C 0.75243 0.03424 0.02237 0.0
H793 H 0.6292 0.02809 0.81309 0.0
H794 H 0.66387 0.02821 0.81278 0.0
C795 C 0.76268 0.03043 0.08912 0.0
C796 C 0.72246 0.04783 0.96776 0.0
H797 H 0.68139 0.02327 0.93921 0.0
C798 C 0.71811 0.06418 0.92513 0.0
C799 C 0.70939 0.03252 0.96969 0.0
C800 C 0.71295 1.01474 0.01622 0.0
C801 C 0.70046 0.06611 0.88853 0.0
C802 C 0.6868 0.05147 0.89636 0.0
C803 C 0.69185 0.03451 0.9333 0.0
C804 C 0.66643 0.05421 0.87818 0.0
C805 C 0.69641 0.08404 0.84425 0.0
C806 C 0.6563 0.0691 0.91292 0.0
C807 C 0.63647 0.06921 0.912 0.0
C808 C 0.62644 0.05421 0.87788 0.0
C809 C 0.63659 0.0398 0.84011 0.0
C810 C 0.65639 0.03991 0.83952 0.0
H811 H 0.70957 0.0896 0.81706 0.0
H812 H 0.68556 0.08168 0.79916 0.0
H813 H 0.69113 0.09511 0.8842 0.0
H814 H 0.66365 0.07996 0.94528 0.0
H815 H 0.62899 0.0804 0.94211 0.0
H816 H 0.49992 0.77202 0.12688 0.0
H817 H 0.49005 0.75626 0.00773 0.0
H818 H 0.53681 0.71705 0.02999 0.0
H819 H 0.54682 0.7329 0.14703 0.0
H820 H 0.52692 0.72495 0.87465 0.0
H821 H 0.46397 0.70556 0.05404 0.0
H822 H 0.46865 0.73008 0.03187 0.0
H823 H 0.48395 0.71752 0.0967 0.0
C824 C 0.50843 0.76048 0.10443 0.0
C825 C 0.52387 0.75335 0.14649 0.0
C826 C 0.50275 0.75146 0.03673 0.0
C827 C 0.51247 0.73525 0.01095 0.0
C828 C 0.52907 0.72951 0.04881 0.0
H829 H 0.53114 0.63183 0.951 0.0
H830 H 0.52883 0.6659 0.93292 0.0
C831 C 0.53471 0.73845 0.11603 0.0
C832 C 0.50396 0.72183 0.95556 0.0
H833 H 0.4746 0.68339 0.9654 0.0
C834 C 0.51495 0.71625 0.89224 0.0
C835 C 0.48806 0.71068 0.97729 0.0
C836 C 0.47541 0.71615 0.0436 0.0
C837 C 0.5122 0.69844 0.85794 0.0
C838 C 0.4984 0.68602 0.8888 0.0
C839 C 0.48542 0.69288 0.94296 0.0
C840 C 0.50064 0.66518 0.88358 0.0
C841 C 0.52527 0.6923 0.79412 0.0
C842 C 0.48545 0.65338 0.86264 0.0
C843 C 0.48678 0.63369 0.87265 0.0
C844 C 0.50318 0.62556 0.90514 0.0
C845 C 0.51844 0.63748 0.92458 0.0
C846 C 0.5172 0.65703 0.9137 0.0
H847 H 0.52918 0.7046 0.75734 0.0
H848 H 0.53857 0.68654 0.819 0.0
H849 H 0.51864 0.68113 0.75804 0.0
H850 H 0.47243 0.65945 0.84054 0.0
H851 H 0.4749 0.62487 0.85564 0.0
H852 H 0.77527 0.52814 0.10966 0.0
H853 H 0.79275 0.51983 0.99378 0.0
H854 H 0.81652 0.47117 0.10977 0.0
H855 H 0.79818 0.4787 0.22336 0.0
H856 H 0.82824 0.52436 0.00857 0.0
H857 H 0.82021 0.45203 0.89864 0.0
H858 H 0.80203 0.46294 0.95705 0.0
H859 H 0.82153 0.45023 0.00063 0.0
C860 C 0.78335 0.51505 0.10894 0.0
C861 C 0.78579 0.50432 0.17613 0.0
C862 C 0.79339 0.51033 0.04258 0.0
C863 C 0.80615 0.49498 0.04291 0.0
C864 C 0.80663 0.48291 0.10701 0.0
H865 H 0.91863 0.47369 0.01644 0.0
H866 H 0.88393 0.47312 0.02029 0.0
C867 C 0.79636 0.48743 0.17275 0.0
C868 C 0.82239 0.49466 0.98876 0.0
H869 H 0.85393 0.46365 0.90906 0.0
C870 C 0.8335 0.51123 0.98398 0.0
C871 C 0.82933 0.47762 0.9563 0.0
C872 C 0.81746 0.4598 0.95288 0.0
C873 C 0.85214 0.5107 0.95634 0.0
C874 C 0.85977 0.49316 0.93188 0.0
C875 C 0.84809 0.477 0.92916 0.0
C876 C 0.88041 0.49095 0.92028 0.0
C877 C 0.86408 0.52854 0.96032 0.0
C878 C 0.88982 0.50085 0.86186 0.0
C879 C 0.90962 0.50141 0.86023 0.0
C880 C 0.92034 0.49185 0.91617 0.0
C881 C 0.91081 0.48112 0.97226 0.0
C882 C 0.891 0.48071 0.97433 0.0
H883 H 0.85662 0.54036 0.98984 0.0
H884 H 0.87759 0.5257 0.99093 0.0
H885 H 0.86765 0.53332 0.90146 0.0
H886 H 0.88184 0.50869 0.81934 0.0
H887 H 0.91655 0.50963 0.81599 0.0
H888 H 0.99818 0.22259 0.02364 0.0
H889 H 0.99789 0.19288 0.95228 0.0
H890 H 0.04683 0.21143 0.82329 0.0
H891 H 0.04772 0.24103 0.89808 0.0
H892 H 0.99457 0.18102 0.81165 0.0
H893 H 0.0672 0.1632 0.91208 0.0
H894 H 0.05436 0.18353 0.94732 0.0
H895 H 0.06596 0.18445 0.85547 0.0
C896 C 1.00878 0.22047 0.97943 0.0
C897 C 0.0232 0.23405 0.9676 0.0
C898 C 1.00858 0.20343 0.93841 0.0
C899 C 1.02269 0.1995 0.88379 0.0
C900 C 0.03614 0.21377 0.86687 0.0
H901 H 1.01595 0.09246 0.62022 0.0
H902 H 1.01636 0.1261 0.65538 0.0
C903 C 0.03646 0.23086 0.90871 0.0
C904 C 0.02368 0.18005 0.849 0.0
H905 H 0.05195 0.14063 0.83427 0.0
C906 C 1.0072 0.17228 0.81594 0.0
C907 C 0.04001 0.16836 0.85595 0.0
C908 C 0.05783 0.17519 0.89523 0.0
C909 C 1.00648 0.15323 0.79114 0.0
C910 C 0.02287 0.14169 0.79716 0.0
C911 C 0.03944 0.14951 0.82892 0.0
C912 C 1.02282 0.12118 0.77483 0.0
C913 C 0.98786 0.14528 0.76292 0.0
C914 C 0.02685 0.1071 0.82958 0.0
C915 C 0.02685 0.08781 0.80952 0.0
C916 C 0.02288 0.08208 0.734 0.0
C917 C 1.01897 0.09624 0.67906 0.0
C918 C 1.01906 0.11555 0.69918 0.0
H919 H 0.97578 0.15502 0.77442 0.0
H920 H 0.98869 0.14291 0.70035 0.0
H921 H 0.98487 0.13136 0.79048 0.0
H922 H 0.02987 0.11104 0.88826 0.0
H923 H 0.02995 0.0774 0.85343 0.0
H924 H 0.30506 0.04883 0.91177 0.0
H925 H 0.33576 0.05177 0.84477 0.0
H926 H 0.34974 0.99433 0.90972 0.0
H927 H 0.3192 0.99129 0.97466 0.0
H928 H 0.3702 0.05031 0.90953 0.0
H929 H 0.36704 0.99408 0.69081 0.0
H930 H 0.34615 1.00223 0.74093 0.0
H931 H 0.36133 0.98448 0.78316 0.0
C932 C 0.31445 0.03667 0.90933 0.0
C933 C 0.30967 1.0198 0.94811 0.0
C934 C 0.33207 0.03839 0.87168 0.0
C935 C 0.34512 0.02321 0.87131 0.0
C936 C 0.3399 1.00613 0.90733 0.0
H937 H 0.46821 0.02796 0.87159 0.0
H938 H 0.43429 0.02847 0.90158 0.0
C939 C 0.32241 1.00443 0.94487 0.0
C940 C 0.36485 0.02557 0.84041 0.0
H941 H 0.39856 1.00353 0.7308 0.0
C942 C 0.37631 0.04023 0.86956 0.0
C943 C 0.37289 1.0127 0.78708 0.0
C944 C 0.36113 0.99763 0.74808 0.0
C945 C 0.39567 0.04184 0.84983 0.0
C946 C 0.40411 0.02802 0.80144 0.0
C947 C 0.39239 1.01392 0.76931 0.0
C948 C 0.42496 0.02785 0.78348 0.0
C949 C 0.40676 0.05851 0.88064 0.0
C950 C 0.4313 0.02656 0.70732 0.0
C951 C 0.45075 0.02587 0.68992 0.0
C952 C 0.46445 0.02652 0.7485 0.0
C953 C 0.45812 0.02771 0.82486 0.0
C954 C 0.43864 0.02816 0.84212 0.0
H955 H 0.39731 0.07077 0.89283 0.0
H956 H 0.41363 0.05436 0.93529 0.0
H957 H 0.41794 0.06318 0.83982 0.0
H958 H 0.42109 0.02611 0.66124 0.0
H959 H 0.45503 0.02486 0.63046 0.0
H960 H 0.54268 0.30489 0.91657 0.0
H961 H 0.54379 0.33711 0.86166 0.0
H962 H 0.48456 0.34471 0.91631 0.0
H963 H 0.48351 0.31274 0.97173 0.0
H964 H 0.52287 0.35841 0.74891 0.0
H965 H 0.51154 0.38629 0.0421 0.0
H966 H 0.51762 0.36181 0.02355 0.0
H967 H 0.49359 0.36987 0.01107 0.0
C968 C 0.52974 0.31318 0.91396 0.0
C969 C 0.51297 0.30624 0.94783 0.0
C970 C 0.53042 0.33167 0.8834 0.0
C971 C 0.51437 0.34355 0.8866 0.0
C972 C 0.49723 0.33601 0.91458 0.0
H973 H 0.49097 0.46425 0.8317 0.0
H974 H 0.49049 0.43006 0.85881 0.0
C975 C 0.49656 0.31762 0.94521 0.0
C976 C 0.51577 0.36416 0.86623 0.0
H977 H 0.51071 0.40873 0.94138 0.0
C978 C 0.52026 0.36946 0.79088 0.0
C979 C 0.51256 0.3786 0.92119 0.0
C980 C 0.50874 0.37393 0.00419 0.0
C981 C 0.52093 0.38872 0.76828 0.0
C982 C 0.5173 0.40325 0.82293 0.0
C983 C 0.51322 0.39782 0.89878 0.0
C984 C 0.5174 0.42408 0.80331 0.0
C985 C 0.525 0.39314 0.68544 0.0
C986 C 0.53267 0.43246 0.76347 0.0
C987 C 0.53257 0.45189 0.74547 0.0
C988 C 0.51765 0.46369 0.77003 0.0
C989 C 0.50267 0.45554 0.81197 0.0
C990 C 0.50243 0.43595 0.82758 0.0
H991 H 0.52271 0.38054 0.6487 0.0
H992 H 0.51602 0.405 0.66433 0.0
H993 H 0.54015 0.39716 0.67903 0.0
H994 H 0.54493 0.42414 0.74736 0.0
H995 H 0.5445 0.4578 0.71419 0.0
H996 H 0.24051 0.49472 0.93955 0.0
H997 H 0.21039 0.49279 0.86805 0.0
H998 H 0.19597 0.54934 0.94305 0.0
H999 H 0.2259 0.55132 0.01285 0.0
H1000 H 0.17531 0.49362 0.92862 0.0
H1001 H 0.18061 0.55262 0.72189 0.0
H1002 H 0.20104 0.54353 0.77234 0.0
H1003 H 0.1857 0.5608 0.81685 0.0
C1004 C 0.23116 0.50693 0.93838 0.0
C1005 C 0.23565 0.52325 0.98104 0.0
C1006 C 0.21387 0.50579 0.89813 0.0
C1007 C 0.20086 0.52101 0.89912 0.0
C1008 C 0.2058 0.53756 0.93942 0.0
H1009 H 0.07784 0.51639 0.88252 0.0
H1010 H 0.11152 0.51603 0.91624 0.0
C1011 C 0.22294 0.53866 0.97962 0.0
C1012 C 0.1814 0.51915 0.86511 0.0
H1013 H 0.14878 0.5426 0.75491 0.0
C1014 C 0.16962 0.5042 0.88977 0.0
C1015 C 0.17388 0.53269 0.81317 0.0
C1016 C 0.18605 0.54818 0.77887 0.0
C1017 C 0.15045 0.50291 0.86701 0.0
C1018 C 0.1425 0.51731 0.82002 0.0
C1019 C 0.15456 0.53175 0.7923 0.0
C1020 C 0.12179 0.51776 0.79943 0.0
C1021 C 0.13903 0.48593 0.89317 0.0
C1022 C 0.11605 0.51971 0.72272 0.0
C1023 C 0.09671 0.5203 0.70337 0.0
C1024 C 0.08252 0.51891 0.76021 0.0
C1025 C 0.08828 0.51723 0.83705 0.0
C1026 C 0.10763 0.51685 0.8564 0.0
H1027 H 0.14834 0.47351 0.90456 0.0
H1028 H 0.13163 0.48947 0.94745 0.0
H1029 H 0.12826 0.48177 0.84996 0.0
H1030 H 0.12655 0.52063 0.67743 0.0
H1031 H 0.09292 0.52171 0.64356 0.0
H1032 H 0.99242 0.81575 0.35495 0.0
H1033 H 0.99123 0.84769 0.41046 0.0
H1034 H 0.03738 0.83313 0.56161 0.0
H1035 H 0.03906 0.80139 0.50334 0.0
H1036 H 0.98586 0.86412 0.5455 0.0
H1037 H 0.06013 0.87779 0.45427 0.0
H1038 H 0.04738 0.85671 0.42626 0.0
H1039 H 0.058 0.85827 0.51978 0.0
C1040 C 1.00189 0.81921 0.40174 0.0
C1041 C 1.01562 0.80602 0.42577 0.0
C1042 C 1.00134 0.83754 0.43306 0.0
C1043 C 1.01455 0.84313 0.489 0.0
C1044 C 0.02738 0.82945 0.51701 0.0
H1045 H 0.03659 0.95411 0.69989 0.0
H1046 H 0.0348 0.9201 0.67149 0.0
C1047 C 0.02811 0.81117 0.48485 0.0
C1048 C 1.01546 0.86348 0.51428 0.0
H1049 H 0.04506 0.90209 0.52516 0.0
C1050 C 0.99884 0.87237 0.54104 0.0
C1051 C 0.03233 0.87447 0.50799 0.0
C1052 C 0.05042 0.86641 0.47482 0.0
C1053 C 0.99865 0.89172 0.56196 0.0
C1054 C 1.0155 0.9026 0.55589 0.0
C1055 C 0.03217 0.89373 0.53015 0.0
C1056 C 1.01606 0.92332 0.57438 0.0
C1057 C 0.98043 0.9004 0.59093 0.0
C1058 C 1.00626 0.93656 0.52894 0.0
C1059 C 1.00733 0.95609 0.54482 0.0
C1060 C 1.01816 0.96284 0.60685 0.0
C1061 C 0.02794 0.9495 0.65225 0.0
C1062 C 0.02699 0.93 0.63591 0.0
H1063 H 0.96984 0.88941 0.60727 0.0
H1064 H 0.98321 0.90964 0.64121 0.0
H1065 H 0.97416 0.90937 0.5452 0.0
H1066 H 0.99795 0.9318 0.48047 0.0
H1067 H 0.99962 0.96589 0.50851 0.0
H1068 H 0.72561 0.99814 0.33161 0.0
H1069 H 0.69495 0.99689 0.39748 0.0
H1070 H 0.7153 0.03728 0.56388 0.0
H1071 H 0.74607 0.03879 0.49648 0.0
H1072 H 0.6824 0.98803 0.54119 0.0
H1073 H 0.66895 0.06436 0.47983 0.0
H1074 H 0.68854 0.05161 0.43758 0.0
H1075 H 0.68988 0.05959 0.53517 0.0
C1076 C 0.72369 1.00638 0.38345 0.0
C1077 C 0.73825 1.01844 0.40934 0.0
C1078 C 0.70611 1.00574 0.42088 0.0
C1079 C 0.70256 1.01728 0.48486 0.0
C1080 C 0.7175 0.02853 0.51369 0.0
H1081 H 0.59282 0.03785 0.71354 0.0
H1082 H 0.62663 0.03764 0.67945 0.0
C1083 C 0.73518 0.02918 0.47598 0.0
C1084 C 0.68291 1.01806 0.51781 0.0
H1085 H 0.64478 0.04757 0.54402 0.0
C1086 C 0.67424 1.00109 0.54217 0.0
C1087 C 0.67213 0.03508 0.51919 0.0
C1088 C 0.68023 0.05369 0.49101 0.0
C1089 C 0.65518 1.00061 0.56699 0.0
C1090 C 0.64427 1.01751 0.56635 0.0
C1091 C 0.65308 0.03459 0.54421 0.0
C1092 C 0.62361 1.01767 0.58648 0.0
C1093 C 0.64692 0.98199 0.59411 0.0
C1094 C 0.61045 1.00701 0.54382 0.0
C1095 C 0.59102 1.00742 0.56192 0.0
C1096 C 0.58429 1.01836 0.62366 0.0
C1097 C 0.59749 0.02907 0.6662 0.0
C1098 C 0.61686 0.02894 0.64699 0.0
H1099 H 0.6582 0.97183 0.61132 0.0
H1100 H 0.63718 0.98417 0.6434 0.0
H1101 H 0.6387 0.97545 0.54684 0.0
H1102 H 0.61518 0.99855 0.49569 0.0
H1103 H 0.58129 0.99909 0.52768 0.0
H1104 H 0.50945 0.74415 0.49369 0.0
H1105 H 0.50879 0.7149 0.57173 0.0
H1106 H 0.55264 0.69081 0.42919 0.0
H1107 H 0.55363 0.71984 0.35338 0.0
H1108 H 0.49906 0.6798 0.52386 0.0
H1109 H 0.57202 0.67573 0.63543 0.0
H1110 H 0.56247 0.69732 0.59503 0.0
H1111 H 0.57257 0.67931 0.53388 0.0
C1112 C 0.51933 0.73281 0.48081 0.0
C1113 C 0.53163 0.73433 0.41753 0.0
C1114 C 0.51885 0.71603 0.52496 0.0
C1115 C 0.53083 0.7006 0.5072 0.0
C1116 C 0.54357 0.70253 0.44571 0.0
H1117 H 0.53962 0.58021 0.54229 0.0
H1118 H 0.54068 0.61433 0.51404 0.0
C1119 C 0.54404 0.71915 0.40189 0.0
C1120 C 0.52903 0.68181 0.54706 0.0
H1121 H 0.55557 0.64549 0.62154 0.0
C1122 C 0.51135 0.67248 0.54677 0.0
C1123 C 0.54497 0.67216 0.57774 0.0
C1124 C 0.564 0.68177 0.58634 0.0
C1125 C 0.5095 0.65346 0.57134 0.0
C1126 C 0.52573 0.64345 0.59668 0.0
C1127 C 0.54318 0.65305 0.60081 0.0
C1128 C 0.52507 0.62274 0.61518 0.0
C1129 C 0.49037 0.64386 0.56683 0.0
C1130 C 0.51599 0.61608 0.68166 0.0
C1131 C 0.5154 0.59656 0.69808 0.0
C1132 C 0.52385 0.58322 0.64837 0.0
C1133 C 0.53289 0.58999 0.58175 0.0
C1134 C 0.53359 0.60952 0.56565 0.0
H1135 H 0.47958 0.65292 0.53829 0.0
H1136 H 0.49157 0.63025 0.53511 0.0
H1137 H 0.48531 0.64052 0.62555 0.0
H1138 H 0.50941 0.626 0.72095 0.0
H1139 H 0.50814 0.5919 0.74948 0.0
H1140 H 0.80902 0.55485 0.43294 0.0
H1141 H 0.84089 0.55665 0.49042 0.0
H1142 H 0.84352 0.49549 0.4974 0.0
H1143 H 0.81187 0.49366 0.44005 0.0
H1144 H 0.85965 0.54036 0.62698 0.0
H1145 H 0.88781 0.51193 0.353 0.0
H1146 H 0.86401 0.52117 0.36223 0.0
H1147 H 0.86951 0.49774 0.39652 0.0
C1148 C 0.81613 0.54183 0.44934 0.0
C1149 C 0.80793 0.52411 0.43189 0.0
C1150 C 0.83442 0.54285 0.48157 0.0
C1151 C 0.8448 0.52619 0.49673 0.0
C1152 C 0.83597 0.50854 0.48503 0.0
H1153 H 0.95394 0.50827 0.72124 0.0
H1154 H 0.92035 0.50941 0.68498 0.0
C1155 C 0.81779 0.50751 0.45286 0.0
C1156 C 0.86532 0.52708 0.51847 0.0
H1157 H 0.90972 0.51494 0.45501 0.0
C1158 C 0.87061 0.53485 0.58937 0.0
C1159 C 0.87971 0.52016 0.46895 0.0
C1160 C 0.87508 0.51243 0.3906 0.0
C1161 C 0.88979 0.53545 0.6127 0.0
C1162 C 0.90411 0.52792 0.56418 0.0
C1163 C 0.89882 0.52058 0.49258 0.0
C1164 C 0.92463 0.52744 0.58646 0.0
C1165 C 0.89463 0.54441 0.68861 0.0
C1166 C 0.93845 0.53651 0.5411 0.0
C1167 C 0.95777 0.53556 0.56051 0.0
C1168 C 0.96379 0.52552 0.62597 0.0
C1169 C 0.9499 0.5164 0.67117 0.0
C1170 C 0.93061 0.51719 0.65108 0.0
H1171 H 0.88294 0.55358 0.71001 0.0
H1172 H 0.89711 0.53307 0.73155 0.0
H1173 H 0.90779 0.55306 0.68409 0.0
H1174 H 0.93427 0.54436 0.49045 0.0
H1175 H 0.96799 0.54273 0.52414 0.0
loop_
_geom_bond_atom_site_label_1
_geom_bond_atom_site_label_2
_geom_bond_distance
_geom_bond_site_symmetry_2
_ccdc_geom_bond_type
H0 C1 0.949 . S
C1 H0 0.949 . S
C1 C2 1.395 . S
C1 C3 1.391 . S
C2 C1 1.395 . S
C2 C5 1.390 . S
C3 C1 1.391 . S
C3 C7 1.387 . S
C3 C8 1.491 . S
H4 C5 0.950 . S
C5 C2 1.390 . S
C5 H4 0.950 . S
C5 C6 1.378 . S
C6 C5 1.378 . S
C6 C7 1.409 . S
C7 C3 1.387 . S
C7 C6 1.409 . S
C7 H9 0.951 . S
C8 C3 1.491 . S
C8 C10 1.382 . S
C8 C12 1.404 . S
H9 C7 0.951 . S
C10 C8 1.382 . S
C10 C11 1.390 . S
C10 H15 0.949 . S
C11 C10 1.390 . S
C11 C16 1.399 . S
C12 C8 1.404 . S
C12 H13 0.950 . S
C12 C14 1.375 . S
H13 C12 0.950 . S
C14 C12 1.375 . S
C14 C16 1.382 . S
C14 H18 0.950 . S
H15 C10 0.949 . S
C16 C11 1.399 . S
C16 C14 1.382 . S
C16 H17 0.952 . S
H17 C16 0.952 . S
H18 C14 0.950 . S
H19 C20 0.949 . S
C20 H19 0.949 . S
C20 C21 1.396 . S
C20 C22 1.391 . S
C21 C20 1.396 . S
C21 C24 1.387 1_655 S
C22 C20 1.391 . S
C22 C26 1.387 . S
C22 C27 1.491 . S
H23 C24 0.961 . S
C24 C21 1.387 1_455 S
C24 H23 0.961 . S
C24 C25 1.374 1_455 S
C25 C24 1.374 1_655 S
C25 C26 1.414 . S
C26 C22 1.387 . S
C26 C25 1.414 . S
C26 H28 0.951 . S
C27 C22 1.491 . S
C27 C29 1.410 . S
C27 C31 1.404 . S
H28 C26 0.951 . S
C29 C27 1.410 . S
C29 C30 1.404 . S
C29 H34 0.909 1_655 S
C30 C29 1.404 . S
C30 C35 1.399 . S
C31 C27 1.404 . S
C31 H32 0.950 . S
C31 C33 1.375 . S
H32 C31 0.950 . S
C33 C31 1.375 . S
C33 C35 1.382 . S
C33 H37 0.950 . S
H34 C29 0.909 1_455 S
C35 C30 1.399 . S
C35 C33 1.382 . S
C35 H36 0.952 . S
H36 C35 0.952 . S
H37 C33 0.950 . S
H38 C39 0.949 . S
C39 H38 0.949 . S
C39 C40 1.395 . S
C39 C41 1.391 . S
C40 C39 1.395 . S
C40 C43 1.390 1_565 S
C41 C39 1.391 . S
C41 C45 1.387 . S
C41 C46 1.491 . S
H42 C43 0.950 . S
C43 C40 1.390 1_545 S
C43 H42 0.950 . S
C43 C44 1.377 1_545 S
C44 C43 1.377 1_565 S
C44 C45 1.413 . S
C45 C41 1.387 . S
C45 C44 1.413 . S
C45 H47 0.951 . S
C46 C41 1.491 . S
C46 C48 1.407 . S
C46 C50 1.404 . S
H47 C45 0.951 . S
C48 C46 1.407 . S
C48 C49 1.403 . S
C48 H53 0.913 1_565 S
C49 C48 1.403 . S
C49 C54 1.399 . S
C50 C46 1.404 . S
C50 H51 0.950 . S
C50 C52 1.375 . S
H51 C50 0.950 . S
C52 C50 1.375 . S
C52 C54 1.382 . S
C52 H56 0.950 . S
H53 C48 0.913 1_545 S
C54 C49 1.399 . S
C54 C52 1.382 . S
C54 H55 0.952 . S
H55 C54 0.952 . S
H56 C52 0.950 . S
H57 C58 0.949 . S
C58 H57 0.949 . S
C58 C59 1.395 . S
C58 C60 1.391 . S
C59 C58 1.395 . S
C59 C62 1.390 . S
C60 C58 1.391 . S
C60 C64 1.387 . S
C60 C65 1.491 . S
H61 C62 0.950 . S
C62 C59 1.390 . S
C62 H61 0.950 . S
C62 C63 1.378 . S
C63 C62 1.378 . S
C63 C64 1.409 . S
C64 C60 1.387 . S
C64 C63 1.409 . S
C64 H66 0.951 . S
C65 C60 1.491 . S
C65 C67 1.382 . S
C65 C69 1.404 . S
H66 C64 0.951 . S
C67 C65 1.382 . S
C67 C68 1.390 . S
C67 H72 0.949 . S
C68 C67 1.390 . S
C68 C73 1.399 . S
C69 C65 1.404 . S
C69 H70 0.950 . S
C69 C71 1.375 . S
H70 C69 0.950 . S
C71 C69 1.375 . S
C71 C73 1.382 . S
C71 H75 0.950 . S
H72 C67 0.949 . S
C73 C68 1.399 . S
C73 C71 1.382 . S
C73 H74 0.952 . S
H74 C73 0.952 . S
H75 C71 0.950 . S
H76 C77 0.949 . S
C77 H76 0.949 . S
C77 C78 1.395 . S
C77 C79 1.391 . S
C78 C77 1.395 . S
C78 C81 1.390 . S
C79 C77 1.391 . S
C79 C83 1.387 1_554 S
C79 C84 1.491 . S
H80 C81 0.950 . S
C81 C78 1.390 . S
C81 H80 0.950 . S
C81 C82 1.378 1_554 S
C82 C81 1.378 1_556 S
C82 C83 1.409 . S
C83 C79 1.387 1_556 S
C83 C82 1.409 . S
C83 H85 0.951 . S
C84 C79 1.491 . S
C84 C86 1.382 . S
C84 C88 1.404 1_554 S
H85 C83 0.951 . S
C86 C84 1.382 . S
C86 C87 1.390 . S
C86 H91 0.949 . S
C87 C86 1.390 . S
C87 C92 1.399 . S
C88 C84 1.404 1_556 S
C88 H89 0.950 . S
C88 C90 1.375 . S
H89 C88 0.950 . S
C90 C88 1.375 . S
C90 C92 1.382 1_556 S
C90 H94 0.950 . S
H91 C86 0.949 . S
C92 C87 1.399 . S
C92 C90 1.382 1_554 S
C92 H93 0.952 . S
H93 C92 0.952 . S
H94 C90 0.950 . S
H95 C96 0.949 . S
C96 H95 0.949 . S
C96 C97 1.392 1_655 S
C96 C98 1.391 . S
C97 C96 1.392 1_455 S
C97 C100 1.391 . S
C98 C96 1.391 . S
C98 C102 1.387 1_554 S
C98 C103 1.491 . S
H99 C100 0.950 . S
C100 C97 1.391 . S
C100 H99 0.950 . S
C100 C101 1.378 1_554 S
C101 C100 1.378 1_556 S
C101 C102 1.409 1_455 S
C102 C98 1.387 1_556 S
C102 C101 1.409 1_655 S
C102 H104 0.951 . S
C103 C98 1.491 . S
C103 C105 1.390 . S
C103 C107 1.404 1_554 S
H104 C102 0.951 . S
C105 C103 1.390 . S
C105 C106 1.394 . S
C105 H110 0.936 1_655 S
C106 C105 1.394 . S
C106 C111 1.399 . S
C107 C103 1.404 1_556 S
C107 H108 0.950 . S
C107 C109 1.375 . S
H108 C107 0.950 . S
C109 C107 1.375 . S
C109 C111 1.382 1_556 S
C109 H113 0.950 . S
H110 C105 0.936 1_455 S
C111 C106 1.399 . S
C111 C109 1.382 1_554 S
C111 H112 0.952 . S
H112 C111 0.952 . S
H113 C109 0.950 . S
H114 C115 0.949 . S
C115 H114 0.949 . S
C115 C116 1.391 1_565 S
C115 C117 1.391 . S
C116 C115 1.391 1_545 S
C116 C119 1.392 . S
C117 C115 1.391 . S
C117 C121 1.387 1_554 S
C117 C122 1.491 . S
H118 C119 0.950 . S
C119 C116 1.392 . S
C119 H118 0.950 . S
C119 C120 1.379 1_554 S
C120 C119 1.379 1_556 S
C120 C121 1.407 1_545 S
C121 C117 1.387 1_556 S
C121 C120 1.407 1_565 S
C121 H123 0.951 . S
C122 C117 1.491 . S
C122 C124 1.386 . S
C122 C126 1.404 1_554 S
H123 C121 0.951 . S
C124 C122 1.386 . S
C124 C125 1.392 . S
C124 H129 0.942 1_565 S
C125 C124 1.392 . S
C125 C130 1.399 . S
C126 C122 1.404 1_556 S
C126 H127 0.950 . S
C126 C128 1.375 . S
H127 C126 0.950 . S
C128 C126 1.375 . S
C128 C130 1.382 1_556 S
C128 H132 0.950 . S
H129 C124 0.942 1_545 S
C130 C125 1.399 . S
C130 C128 1.382 1_554 S
C130 H131 0.952 . S
H131 C130 0.952 . S
H132 C128 0.950 . S
H133 C134 0.949 . S
C134 H133 0.949 . S
C134 C135 1.395 . S
C134 C136 1.391 . S
C135 C134 1.395 . S
C135 C138 1.390 . S
C136 C134 1.391 . S
C136 C140 1.387 1_554 S
C136 C141 1.491 . S
H137 C138 0.950 . S
C138 C135 1.390 . S
C138 H137 0.950 . S
C138 C139 1.378 1_554 S
C139 C138 1.378 1_556 S
C139 C140 1.409 . S
C140 C136 1.387 1_556 S
C140 C139 1.409 . S
C140 H142 0.951 . S
C141 C136 1.491 . S
C141 C143 1.382 . S
C141 C145 1.404 1_554 S
H142 C140 0.951 . S
C143 C141 1.382 . S
C143 C144 1.390 . S
C143 H148 0.949 . S
C144 C143 1.390 . S
C144 C149 1.399 . S
C145 C141 1.404 1_556 S
C145 H146 0.950 . S
C145 C147 1.375 . S
H146 C145 0.950 . S
C147 C145 1.375 . S
C147 C149 1.382 1_556 S
C147 H151 0.950 . S
H148 C143 0.949 . S
C149 C144 1.399 . S
C149 C147 1.382 1_554 S
C149 H150 0.952 . S
H150 C149 0.952 . S
H151 C147 0.950 . S
C152 Eu153 2.835 . S
C152 C154 1.500 . S
C152 O172 1.257 1_655 S
C152 O173 1.260 . S
Eu153 C152 2.835 . S
Eu153 O172 2.473 1_655 S
Eu153 O173 2.480 . S
Eu153 O174 2.430 . S
Eu153 O175 2.670 1_545 S
Eu153 O176 2.394 . S
Eu153 O181 2.355 1_655 S
Eu153 O183 2.374 1_545 S
C154 C152 1.500 . S
C154 C155 1.377 . S
C154 C159 1.377 1_655 S
C155 C154 1.377 . S
C155 C156 1.395 . S
C155 H184 0.931 . S
C156 C155 1.395 . S
C156 C157 1.383 . S
C156 H185 0.931 . S
C157 C156 1.383 . S
C157 C158 1.373 1_655 S
C158 C157 1.373 1_455 S
C158 C159 1.379 . S
C158 H186 0.951 . S
C159 C154 1.377 1_455 S
C159 C158 1.379 . S
C159 H187 0.931 . S
C160 O174 1.285 . S
C160 O175 1.252 1_545 S
C161 O176 1.251 1_455 S
C161 O177 1.251 . S
C162 Eu163 2.835 . S
C162 C164 1.500 . S
C162 O178 1.257 1_455 S
C162 O179 1.260 . S
Eu163 C162 2.835 . S
Eu163 O175 2.355 1_455 S
Eu163 O177 2.374 1_565 S
Eu163 O178 2.473 1_455 S
Eu163 O179 2.480 . S
Eu163 O180 2.430 . S
Eu163 O181 2.670 1_565 S
Eu163 O182 2.394 . S
C164 C162 1.500 . S
C164 C165 1.377 . S
C164 C169 1.324 1_455 S
C165 C164 1.377 . S
C165 C166 1.395 . S
C165 H188 0.931 . S
C166 C165 1.395 . S
C166 C167 1.383 . S
C166 H189 0.931 . S
C167 C166 1.383 . S
C167 C168 1.389 1_455 S
C168 C167 1.389 1_655 S
C168 C169 1.377 . S
C168 H190 0.936 . S
C169 C164 1.324 1_655 S
C169 C168 1.377 . S
C169 H191 0.988 . S
C170 O180 1.267 . S
C170 O181 1.264 1_565 S
C171 O182 1.251 1_655 S
C171 O183 1.251 . S
O172 C152 1.257 1_455 S
O172 Eu153 2.473 1_455 S
O173 C152 1.260 . S
O173 Eu153 2.480 . S
O174 Eu153 2.430 . S
O174 C160 1.285 . S
O175 Eu153 2.670 1_565 S
O175 C160 1.252 1_565 S
O175 Eu163 2.355 1_655 S
O176 Eu153 2.394 . S
O176 C161 1.251 1_655 S
O177 C161 1.251 . S
O177 Eu163 2.374 1_545 S
O178 C162 1.257 1_655 S
O178 Eu163 2.473 1_655 S
O179 C162 1.260 . S
O179 Eu163 2.480 . S
O180 Eu163 2.430 . S
O180 C170 1.267 . S
O181 Eu153 2.355 1_455 S
O181 Eu163 2.670 1_545 S
O181 C170 1.264 1_545 S
O182 Eu163 2.394 . S
O182 C171 1.251 1_455 S
O183 Eu153 2.374 1_565 S
O183 C171 1.251 . S
H184 C155 0.931 . S
H185 C156 0.931 . S
H186 C158 0.951 . S
H187 C159 0.931 . S
H188 C165 0.931 . S
H189 C166 0.931 . S
H190 C168 0.936 . S
H191 C169 0.988 . S
C192 Eu193 2.835 . S
C192 C194 1.500 . S
C192 O212 1.257 1_565 S
C192 O213 1.260 . S
Eu193 C192 2.835 . S
Eu193 O212 2.473 1_565 S
Eu193 O213 2.480 . S
Eu193 O214 2.430 . S
Eu193 O215 2.670 . S
Eu193 O216 2.394 . S
Eu193 O221 2.355 1_565 S
Eu193 O223 2.374 . S
C194 C192 1.500 . S
C194 C195 1.377 . S
C194 C199 1.377 1_565 S
C195 C194 1.377 . S
C195 C196 1.395 . S
C195 H224 0.931 . S
C196 C195 1.395 . S
C196 C197 1.383 . S
C196 H225 0.931 . S
C197 C196 1.383 . S
C197 C198 1.366 1_565 S
C198 C197 1.366 1_545 S
C198 C199 1.380 . S
C198 H226 0.958 . S
C199 C194 1.377 1_545 S
C199 C198 1.380 . S
C199 H227 0.931 . S
C200 O214 1.259 . S
C200 O215 1.270 . S
C201 O216 1.251 1_545 S
C201 O217 1.251 . S
C202 Eu203 2.835 . S
C202 C204 1.500 . S
C202 O218 1.204 1_545 S
C202 O219 1.260 . S
Eu203 C202 2.835 . S
Eu203 O215 2.355 1_545 S
Eu203 O217 2.374 . S
Eu203 O218 2.448 1_545 S
Eu203 O219 2.480 . S
Eu203 O220 2.430 . S
Eu203 O221 2.670 . S
Eu203 O222 2.394 . S
C204 C202 1.500 . S
C204 C205 1.377 . S
C204 C209 1.331 1_545 S
C205 C204 1.377 . S
C205 C206 1.395 . S
C205 H228 0.931 . S
C206 C205 1.395 . S
C206 C207 1.383 . S
C206 H229 0.931 . S
C207 C206 1.383 . S
C207 C208 1.396 1_545 S
C208 C207 1.396 1_565 S
C208 C209 1.377 . S
C208 H230 0.929 . S
C209 C204 1.331 1_565 S
C209 C208 1.377 . S
C209 H231 0.981 . S
C210 O220 1.259 . S
C210 O221 1.270 . S
C211 O222 1.251 1_565 S
C211 O223 1.251 . S
O212 C192 1.257 1_545 S
O212 Eu193 2.473 1_545 S
O213 C192 1.260 . S
O213 Eu193 2.480 . S
O214 Eu193 2.430 . S
O214 C200 1.259 . S
O215 Eu193 2.670 . S
O215 C200 1.270 . S
O215 Eu203 2.355 1_565 S
O216 Eu193 2.394 . S
O216 C201 1.251 1_565 S
O217 C201 1.251 . S
O217 Eu203 2.374 . S
O218 C202 1.204 1_565 S
O218 Eu203 2.448 1_565 S
O219 C202 1.260 . S
O219 Eu203 2.480 . S
O220 Eu203 2.430 . S
O220 C210 1.259 . S
O221 Eu193 2.355 1_545 S
O221 Eu203 2.670 . S
O221 C210 1.270 . S
O222 Eu203 2.394 . S
O222 C211 1.251 1_545 S
O223 Eu193 2.374 . S
O223 C211 1.251 . S
H224 C195 0.931 . S
H225 C196 0.931 . S
H226 C198 0.958 . S
H227 C199 0.931 . S
H228 C205 0.931 . S
H229 C206 0.931 . S
H230 C208 0.929 . S
H231 C209 0.981 . S
C232 Eu233 2.835 . S
C232 C234 1.500 . S
C232 O252 1.257 . S
C232 O253 1.260 . S
Eu233 C232 2.835 . S
Eu233 O252 2.473 . S
Eu233 O253 2.480 . S
Eu233 O254 2.430 . S
Eu233 O255 2.670 . S
Eu233 O256 2.394 . S
Eu233 O261 2.355 . S
Eu233 O263 2.374 . S
C234 C232 1.500 . S
C234 C235 1.377 . S
C234 C239 1.377 . S
C235 C234 1.377 . S
C235 C236 1.395 . S
C235 H264 0.931 . S
C236 C235 1.395 . S
C236 C237 1.383 . S
C236 H265 0.931 . S
C237 C236 1.383 . S
C237 C238 1.394 . S
C238 C237 1.394 . S
C238 C239 1.378 . S
C238 H266 0.931 . S
C239 C234 1.377 . S
C239 C238 1.378 . S
C239 H267 0.931 . S
C240 O254 1.259 . S
C240 O255 1.270 . S
C241 O256 1.251 . S
C241 O257 1.251 . S
C242 Eu243 2.835 . S
C242 C244 1.500 . S
C242 O258 1.257 . S
C242 O259 1.260 . S
Eu243 C242 2.835 . S
Eu243 O255 2.355 . S
Eu243 O257 2.374 . S
Eu243 O258 2.473 . S
Eu243 O259 2.480 . S
Eu243 O260 2.430 . S
Eu243 O261 2.670 . S
Eu243 O262 2.394 . S
C244 C242 1.500 . S
C244 C245 1.377 . S
C244 C249 1.377 . S
C245 C244 1.377 . S
C245 C246 1.395 . S
C245 H268 0.931 . S
C246 C245 1.395 . S
C246 C247 1.383 . S
C246 H269 0.931 . S
C247 C246 1.383 . S
C247 C248 1.394 . S
C248 C247 1.394 . S
C248 C249 1.378 . S
C248 H270 0.931 . S
C249 C244 1.377 . S
C249 C248 1.378 . S
C249 H271 0.931 . S
C250 O260 1.259 . S
C250 O261 1.270 . S
C251 O262 1.251 . S
C251 O263 1.251 . S
O252 C232 1.257 . S
O252 Eu233 2.473 . S
O253 C232 1.260 . S
O253 Eu233 2.480 . S
O254 Eu233 2.430 . S
O254 C240 1.259 . S
O255 Eu233 2.670 . S
O255 C240 1.270 . S
O255 Eu243 2.355 . S
O256 Eu233 2.394 . S
O256 C241 1.251 . S
O257 C241 1.251 . S
O257 Eu243 2.374 . S
O258 C242 1.257 . S
O258 Eu243 2.473 . S
O259 C242 1.260 . S
O259 Eu243 2.480 . S
O260 Eu243 2.430 . S
O260 C250 1.259 . S
O261 Eu233 2.355 . S
O261 Eu243 2.670 . S
O261 C250 1.270 . S
O262 Eu243 2.394 . S
O262 C251 1.251 . S
O263 Eu233 2.374 . S
O263 C251 1.251 . S
H264 C235 0.931 . S
H265 C236 0.931 . S
H266 C238 0.931 . S
H267 C239 0.931 . S
H268 C245 0.931 . S
H269 C246 0.931 . S
H270 C248 0.931 . S
H271 C249 0.931 . S
C272 Eu273 2.835 . S
C272 C274 1.500 . S
C272 O292 1.257 . S
C272 O293 1.260 . S
Eu273 C272 2.835 . S
Eu273 O292 2.473 . S
Eu273 O293 2.480 . S
Eu273 O294 2.430 . S
Eu273 O295 2.670 1_455 S
Eu273 O296 2.394 . S
Eu273 O301 2.355 . S
Eu273 O303 2.374 1_455 S
C274 C272 1.500 . S
C274 C275 1.377 . S
C274 C279 1.377 . S
C275 C274 1.377 . S
C275 C276 1.395 . S
C275 H304 0.931 . S
C276 C275 1.395 . S
C276 C277 1.383 . S
C276 H305 0.931 . S
C277 C276 1.383 . S
C277 C278 1.394 . S
C278 C277 1.394 . S
C278 C279 1.378 . S
C278 H306 0.931 . S
C279 C274 1.377 . S
C279 C278 1.378 . S
C279 H307 0.931 . S
C280 O294 1.280 . S
C280 O295 1.255 1_455 S
C281 O296 1.251 . S
C281 O297 1.251 . S
C282 Eu283 2.835 . S
C282 C284 1.500 . S
C282 O298 1.257 . S
C282 O299 1.260 . S
Eu283 C282 2.835 . S
Eu283 O295 2.355 . S
Eu283 O297 2.374 1_655 S
Eu283 O298 2.473 . S
Eu283 O299 2.480 . S
Eu283 O300 2.430 . S
Eu283 O301 2.670 1_655 S
Eu283 O302 2.394 . S
C284 C282 1.500 . S
C284 C285 1.377 . S
C284 C289 1.377 . S
C285 C284 1.377 . S
C285 C286 1.395 . S
C285 H308 0.931 . S
C286 C285 1.395 . S
C286 C287 1.383 . S
C286 H309 0.931 . S
C287 C286 1.383 . S
C287 C288 1.394 . S
C288 C287 1.394 . S
C288 C289 1.378 . S
C288 H310 0.931 . S
C289 C284 1.377 . S
C289 C288 1.378 . S
C289 H311 0.931 . S
C290 O300 1.272 . S
C290 O301 1.261 1_655 S
C291 O302 1.251 . S
C291 O303 1.251 . S
O292 C272 1.257 . S
O292 Eu273 2.473 . S
O293 C272 1.260 . S
O293 Eu273 2.480 . S
O294 Eu273 2.430 . S
O294 C280 1.280 . S
O295 Eu273 2.670 1_655 S
O295 C280 1.255 1_655 S
O295 Eu283 2.355 . S
O296 Eu273 2.394 . S
O296 C281 1.251 . S
O297 C281 1.251 . S
O297 Eu283 2.374 1_455 S
O298 C282 1.257 . S
O298 Eu283 2.473 . S
O299 C282 1.260 . S
O299 Eu283 2.480 . S
O300 Eu283 2.430 . S
O300 C290 1.272 . S
O301 Eu273 2.355 . S
O301 Eu283 2.670 1_455 S
O301 C290 1.261 1_455 S
O302 Eu283 2.394 . S
O302 C291 1.251 . S
O303 Eu273 2.374 1_655 S
O303 C291 1.251 . S
H304 C275 0.931 . S
H305 C276 0.931 . S
H306 C278 0.931 . S
H307 C279 0.931 . S
H308 C285 0.931 . S
H309 C286 0.931 . S
H310 C288 0.931 . S
H311 C289 0.931 . S
H312 C320 0.929 . S
H313 C322 0.930 . S
H314 C324 0.930 . S
H315 C327 0.929 . S
H316 C330 0.930 . S
H317 C332 0.960 . S
H318 C332 0.960 . S
H319 C332 0.960 . S
C320 H312 0.929 . S
C320 C321 1.411 . S
C320 C322 1.384 . S
C321 C320 1.411 . S
C321 C327 1.357 1_545 S
C322 H313 0.930 . S
C322 C320 1.384 . S
C322 C323 1.372 . S
C323 C322 1.372 . S
C323 C324 1.400 1_545 S
C323 C328 1.490 . S
C324 H314 0.930 . S
C324 C323 1.400 1_565 S
C324 C327 1.386 . S
H325 C341 0.930 . S
H326 C342 0.931 . S
C327 H315 0.929 . S
C327 C321 1.357 1_565 S
C327 C324 1.386 . S
C328 C323 1.490 . S
C328 C330 1.395 . S
C328 C331 1.403 1_545 S
H329 C335 0.930 . S
C330 H316 0.930 . S
C330 C328 1.395 . S
C330 C333 1.403 . S
C331 C328 1.403 1_565 S
C331 C332 1.524 . S
C331 C335 1.400 . S
C332 H317 0.960 . S
C332 H318 0.960 . S
C332 H319 0.960 . S
C332 C331 1.524 . S
C333 C330 1.403 . S
C333 C334 1.392 . S
C333 C337 1.495 . S
C334 C333 1.392 . S
C334 C335 1.385 1_545 S
C334 C336 1.478 . S
C335 H329 0.930 . S
C335 C331 1.400 . S
C335 C334 1.385 1_565 S
C336 C334 1.478 . S
C336 C338 1.381 . S
C336 C342 1.383 1_545 S
C337 C333 1.495 . S
C337 H343 0.959 . S
C337 H344 0.961 . S
C337 H345 0.960 . S
C338 C336 1.381 . S
C338 C339 1.394 . S
C338 H346 0.930 . S
C339 C338 1.394 . S
C339 C340 1.383 . S
C339 H347 0.929 . S
C340 C339 1.383 . S
C340 C341 1.377 1_545 S
C341 H325 0.930 . S
C341 C340 1.377 1_565 S
C341 C342 1.379 . S
C342 H326 0.931 . S
C342 C336 1.383 1_565 S
C342 C341 1.379 . S
H343 C337 0.959 . S
H344 C337 0.961 . S
H345 C337 0.960 . S
H346 C338 0.930 . S
H347 C339 0.929 . S
H348 C356 0.929 . S
H349 C358 0.930 . S
H350 C360 0.930 . S
H351 C363 0.929 . S
H352 C366 0.930 . S
H353 C368 0.960 . S
H354 C368 0.960 . S
H355 C368 0.960 . S
C356 H348 0.929 . S
C356 C357 1.377 . S
C356 C358 1.384 . S
C357 C356 1.377 . S
C357 C363 1.390 . S
C358 H349 0.930 . S
C358 C356 1.384 . S
C358 C359 1.372 . S
C359 C358 1.372 . S
C359 C360 1.400 . S
C359 C364 1.490 . S
C360 H350 0.930 . S
C360 C359 1.400 . S
C360 C363 1.386 . S
H361 C377 0.930 . S
H362 C378 0.931 . S
C363 H351 0.929 . S
C363 C357 1.390 . S
C363 C360 1.386 . S
C364 C359 1.490 . S
C364 C366 1.395 . S
C364 C367 1.403 . S
H365 C371 0.930 . S
C366 H352 0.930 . S
C366 C364 1.395 . S
C366 C369 1.403 . S
C367 C364 1.403 . S
C367 C368 1.524 . S
C367 C371 1.400 . S
C368 H353 0.960 . S
C368 H354 0.960 . S
C368 H355 0.960 . S
C368 C367 1.524 . S
C369 C366 1.403 . S
C369 C370 1.392 . S
C369 C373 1.495 . S
C370 C369 1.392 . S
C370 C371 1.385 . S
C370 C372 1.478 . S
C371 H365 0.930 . S
C371 C367 1.400 . S
C371 C370 1.385 . S
C372 C370 1.478 . S
C372 C374 1.381 . S
C372 C378 1.383 . S
C373 C369 1.495 . S
C373 H379 0.959 . S
C373 H380 0.961 . S
C373 H381 0.960 . S
C374 C372 1.381 . S
C374 C375 1.394 . S
C374 H382 0.930 . S
C375 C374 1.394 . S
C375 C376 1.383 . S
C375 H383 0.929 . S
C376 C375 1.383 . S
C376 C377 1.377 . S
C377 H361 0.930 . S
C377 C376 1.377 . S
C377 C378 1.379 . S
C378 H362 0.931 . S
C378 C372 1.383 . S
C378 C377 1.379 . S
H379 C373 0.959 . S
H380 C373 0.961 . S
H381 C373 0.960 . S
H382 C374 0.930 . S
H383 C375 0.929 . S
H384 C392 0.929 . S
H385 C394 0.930 . S
H386 C396 0.930 . S
H387 C399 0.929 . S
H388 C402 0.930 . S
H389 C404 0.960 . S
H390 C404 0.960 . S
H391 C404 0.960 . S
C392 H384 0.929 . S
C392 C393 1.377 . S
C392 C394 1.384 . S
C393 C392 1.377 . S
C393 C399 1.390 . S
C394 H385 0.930 . S
C394 C392 1.384 . S
C394 C395 1.372 . S
C395 C394 1.372 . S
C395 C396 1.400 . S
C395 C400 1.490 . S
C396 H386 0.930 . S
C396 C395 1.400 . S
C396 C399 1.386 . S
H397 C413 0.930 . S
H398 C414 0.931 . S
C399 H387 0.929 . S
C399 C393 1.390 . S
C399 C396 1.386 . S
C400 C395 1.490 . S
C400 C402 1.395 . S
C400 C403 1.403 . S
H401 C407 0.930 . S
C402 H388 0.930 . S
C402 C400 1.395 . S
C402 C405 1.403 . S
C403 C400 1.403 . S
C403 C404 1.524 . S
C403 C407 1.400 . S
C404 H389 0.960 . S
C404 H390 0.960 . S
C404 H391 0.960 . S
C404 C403 1.524 . S
C405 C402 1.403 . S
C405 C406 1.392 . S
C405 C409 1.495 . S
C406 C405 1.392 . S
C406 C407 1.385 . S
C406 C408 1.478 . S
C407 H401 0.930 . S
C407 C403 1.400 . S
C407 C406 1.385 . S
C408 C406 1.478 . S
C408 C410 1.381 . S
C408 C414 1.383 . S
C409 C405 1.495 . S
C409 H415 0.959 . S
C409 H416 0.961 . S
C409 H417 0.960 . S
C410 C408 1.381 . S
C410 C411 1.394 . S
C410 H418 0.930 . S
C411 C410 1.394 . S
C411 C412 1.383 . S
C411 H419 0.929 . S
C412 C411 1.383 . S
C412 C413 1.377 . S
C413 H397 0.930 . S
C413 C412 1.377 . S
C413 C414 1.379 . S
C414 H398 0.931 . S
C414 C408 1.383 . S
C414 C413 1.379 . S
H415 C409 0.959 . S
H416 C409 0.961 . S
H417 C409 0.960 . S
H418 C410 0.930 . S
H419 C411 0.929 . S
H420 C428 0.929 . S
H421 C430 0.930 . S
H422 C432 0.930 . S
H423 C435 0.929 . S
H424 C438 0.930 . S
H425 C440 0.960 . S
H426 C440 0.960 . S
H427 C440 0.960 . S
C428 H420 0.929 . S
C428 C429 1.389 . S
C428 C430 1.384 . S
C429 C428 1.389 . S
C429 C435 1.378 1_455 S
C430 H421 0.930 . S
C430 C428 1.384 . S
C430 C431 1.372 . S
C431 C430 1.372 . S
C431 C432 1.400 1_455 S
C431 C436 1.490 . S
C432 H422 0.930 . S
C432 C431 1.400 1_655 S
C432 C435 1.386 . S
H433 C449 0.930 . S
H434 C450 0.931 . S
C435 H423 0.929 . S
C435 C429 1.378 1_655 S
C435 C432 1.386 . S
C436 C431 1.490 . S
C436 C438 1.395 . S
C436 C439 1.403 1_455 S
H437 C443 0.930 . S
C438 H424 0.930 . S
C438 C436 1.395 . S
C438 C441 1.403 . S
C439 C436 1.403 1_655 S
C439 C440 1.524 . S
C439 C443 1.400 . S
C440 H425 0.960 . S
C440 H426 0.960 . S
C440 H427 0.960 . S
C440 C439 1.524 . S
C441 C438 1.403 . S
C441 C442 1.392 . S
C441 C445 1.495 . S
C442 C441 1.392 . S
C442 C443 1.385 1_455 S
C442 C444 1.478 . S
C443 H437 0.930 . S
C443 C439 1.400 . S
C443 C442 1.385 1_655 S
C444 C442 1.478 . S
C444 C446 1.381 . S
C444 C450 1.383 1_455 S
C445 C441 1.495 . S
C445 H451 0.959 . S
C445 H452 0.961 . S
C445 H453 0.960 . S
C446 C444 1.381 . S
C446 C447 1.394 . S
C446 H454 0.930 . S
C447 C446 1.394 . S
C447 C448 1.383 . S
C447 H455 0.929 . S
C448 C447 1.383 . S
C448 C449 1.377 1_455 S
C449 H433 0.930 . S
C449 C448 1.377 1_655 S
C449 C450 1.379 . S
C450 H434 0.931 . S
C450 C444 1.383 1_655 S
C450 C449 1.379 . S
H451 C445 0.959 . S
H452 C445 0.961 . S
H453 C445 0.960 . S
H454 C446 0.930 . S
H455 C447 0.929 . S
H456 C464 0.929 . S
H457 C466 0.930 . S
H458 C468 0.930 . S
H459 C471 0.929 . S
H460 C474 0.930 . S
H461 C476 0.960 1_556 S
H462 C476 0.960 . S
H463 C476 0.960 . S
C464 H456 0.929 . S
C464 C465 1.377 1_565 S
C464 C466 1.384 . S
C465 C464 1.377 1_545 S
C465 C471 1.390 . S
C466 H457 0.930 . S
C466 C464 1.384 . S
C466 C467 1.372 . S
C467 C466 1.372 . S
C467 C468 1.400 1_565 S
C467 C472 1.489 . S
C468 H458 0.930 . S
C468 C467 1.400 1_545 S
C468 C471 1.386 . S
H469 C485 0.930 . S
H470 C486 0.931 . S
C471 H459 0.929 . S
C471 C465 1.390 . S
C471 C468 1.386 . S
C472 C467 1.489 . S
C472 C474 1.434 . S
C472 C475 1.366 1_565 S
H473 C479 0.930 . S
C474 H460 0.930 . S
C474 C472 1.434 . S
C474 C477 1.403 . S
C475 C472 1.366 1_545 S
C475 C476 1.524 . S
C475 C479 1.400 1_554 S
C476 H461 0.960 1_554 S
C476 H462 0.960 . S
C476 H463 0.960 . S
C476 C475 1.524 . S
C477 C474 1.403 . S
C477 C478 1.392 1_554 S
C477 C481 1.495 . S
C478 C477 1.392 1_556 S
C478 C479 1.385 1_565 S
C478 C480 1.478 . S
C479 H473 0.930 . S
C479 C475 1.400 1_556 S
C479 C478 1.385 1_545 S
C480 C478 1.478 . S
C480 C482 1.381 . S
C480 C486 1.383 . S
C481 C477 1.495 . S
C481 H487 0.959 . S
C481 H488 0.961 1_554 S
C481 H489 0.960 . S
C482 C480 1.381 . S
C482 C483 1.394 . S
C482 H490 0.930 . S
C483 C482 1.394 . S
C483 C484 1.383 . S
C483 H491 0.929 . S
C484 C483 1.383 . S
C484 C485 1.377 . S
C485 H469 0.930 . S
C485 C484 1.377 . S
C485 C486 1.379 . S
C486 H470 0.931 . S
C486 C480 1.383 . S
C486 C485 1.379 . S
H487 C481 0.959 . S
H488 C481 0.961 1_556 S
H489 C481 0.960 . S
H490 C482 0.930 . S
H491 C483 0.929 . S
H492 C500 0.929 . S
H493 C502 0.930 . S
H494 C504 0.930 . S
H495 C507 0.929 . S
H496 C510 0.930 . S
H497 C512 0.960 . S
H498 C512 0.960 . S
H499 C512 0.960 . S
C500 H492 0.929 . S
C500 C501 1.377 . S
C500 C502 1.384 . S
C501 C500 1.377 . S
C501 C507 1.390 . S
C502 H493 0.930 . S
C502 C500 1.384 . S
C502 C503 1.372 . S
C503 C502 1.372 . S
C503 C504 1.400 . S
C503 C508 1.490 . S
C504 H494 0.930 . S
C504 C503 1.400 . S
C504 C507 1.386 . S
H505 C521 0.930 . S
H506 C522 0.931 . S
C507 H495 0.929 . S
C507 C501 1.390 . S
C507 C504 1.386 . S
C508 C503 1.490 . S
C508 C510 1.395 1_554 S
C508 C511 1.403 . S
H509 C515 0.930 . S
C510 H496 0.930 . S
C510 C508 1.395 1_556 S
C510 C513 1.403 . S
C511 C508 1.403 . S
C511 C512 1.524 . S
C511 C515 1.400 . S
C512 H497 0.960 . S
C512 H498 0.960 . S
C512 H499 0.960 . S
C512 C511 1.524 . S
C513 C510 1.403 . S
C513 C514 1.392 . S
C513 C517 1.495 . S
C514 C513 1.392 . S
C514 C515 1.385 1_556 S
C514 C516 1.478 . S
C515 H509 0.930 . S
C515 C511 1.400 . S
C515 C514 1.385 1_554 S
C516 C514 1.478 . S
C516 C518 1.381 . S
C516 C522 1.383 . S
C517 C513 1.495 . S
C517 H523 0.959 . S
C517 H524 0.961 . S
C517 H525 0.960 . S
C518 C516 1.381 . S
C518 C519 1.394 . S
C518 H526 0.930 . S
C519 C518 1.394 . S
C519 C520 1.383 . S
C519 H527 0.929 . S
C520 C519 1.383 . S
C520 C521 1.377 . S
C521 H505 0.930 . S
C521 C520 1.377 . S
C521 C522 1.379 . S
C522 H506 0.931 . S
C522 C516 1.383 . S
C522 C521 1.379 . S
H523 C517 0.959 . S
H524 C517 0.961 . S
H525 C517 0.960 . S
H526 C518 0.930 . S
H527 C519 0.929 . S
H528 C536 0.929 . S
H529 C538 0.930 . S
H530 C540 0.930 . S
H531 C543 0.929 . S
H532 C546 0.930 . S
H533 C548 0.960 . S
H534 C548 0.960 1_554 S
H535 C548 0.960 . S
C536 H528 0.929 . S
C536 C537 1.377 . S
C536 C538 1.384 . S
C537 C536 1.377 . S
C537 C543 1.390 . S
C538 H529 0.930 . S
C538 C536 1.384 . S
C538 C539 1.372 . S
C539 C538 1.372 . S
C539 C540 1.400 . S
C539 C544 1.490 . S
C540 H530 0.930 . S
C540 C539 1.400 . S
C540 C543 1.386 . S
H541 C557 0.930 . S
H542 C558 0.931 . S
C543 H531 0.929 . S
C543 C537 1.390 . S
C543 C540 1.386 . S
C544 C539 1.490 . S
C544 C546 1.395 . S
C544 C547 1.403 . S
H545 C551 0.930 . S
C546 H532 0.930 . S
C546 C544 1.395 . S
C546 C549 1.403 . S
C547 C544 1.403 . S
C547 C548 1.524 1_554 S
C547 C551 1.400 1_554 S
C548 H533 0.960 . S
C548 H534 0.960 1_556 S
C548 H535 0.960 . S
C548 C547 1.524 1_556 S
C549 C546 1.403 . S
C549 C550 1.392 1_554 S
C549 C553 1.495 . S
C550 C549 1.392 1_556 S
C550 C551 1.385 . S
C550 C552 1.478 . S
C551 H545 0.930 . S
C551 C547 1.400 1_556 S
C551 C550 1.385 . S
C552 C550 1.478 . S
C552 C554 1.381 . S
C552 C558 1.383 . S
C553 C549 1.495 . S
C553 H559 0.959 . S
C553 H560 0.961 . S
C553 H561 0.960 . S
C554 C552 1.381 . S
C554 C555 1.394 . S
C554 H562 0.930 . S
C555 C554 1.394 . S
C555 C556 1.383 . S
C555 H563 0.929 . S
C556 C555 1.383 . S
C556 C557 1.377 . S
C557 H541 0.930 . S
C557 C556 1.377 . S
C557 C558 1.379 . S
C558 H542 0.931 . S
C558 C552 1.383 . S
C558 C557 1.379 . S
H559 C553 0.959 . S
H560 C553 0.961 . S
H561 C553 0.960 . S
H562 C554 0.930 . S
H563 C555 0.929 . S
H564 C572 0.929 . S
H565 C574 0.930 . S
H566 C576 0.930 . S
H567 C579 0.929 . S
H568 C582 0.930 . S
H569 C584 0.960 . S
H570 C584 0.960 . S
H571 C584 0.960 . S
C572 H564 0.929 . S
C572 C573 1.371 1_455 S
C572 C574 1.384 . S
C573 C572 1.371 1_655 S
C573 C579 1.397 . S
C574 H565 0.930 . S
C574 C572 1.384 . S
C574 C575 1.371 . S
C575 C574 1.371 . S
C575 C576 1.400 1_455 S
C575 C580 1.489 . S
C576 H566 0.930 . S
C576 C575 1.400 1_655 S
C576 C579 1.386 . S
H577 C593 0.930 . S
H578 C594 0.931 . S
C579 H567 0.929 . S
C579 C573 1.397 . S
C579 C576 1.386 . S
C580 C575 1.489 . S
C580 C582 1.435 . S
C580 C583 1.365 1_455 S
H581 C587 0.930 . S
C582 H568 0.930 . S
C582 C580 1.435 . S
C582 C585 1.398 1_554 S
C583 C580 1.365 1_655 S
C583 C584 1.524 . S
C583 C587 1.400 1_554 S
C584 H569 0.960 . S
C584 H570 0.960 . S
C584 H571 0.960 . S
C584 C583 1.524 . S
C585 C582 1.398 1_556 S
C585 C586 1.395 . S
C585 C589 1.497 . S
C586 C585 1.395 . S
C586 C587 1.385 1_455 S
C586 C588 1.478 . S
C587 H581 0.930 . S
C587 C583 1.400 1_556 S
C587 C586 1.385 1_655 S
C588 C586 1.478 . S
C588 C590 1.381 . S
C588 C594 1.383 1_455 S
C589 C585 1.497 . S
C589 H595 0.959 1_556 S
C589 H596 0.961 . S
C589 H597 0.960 . S
C590 C588 1.381 . S
C590 C591 1.394 . S
C590 H598 0.930 . S
C591 C590 1.394 . S
C591 C592 1.407 . S
C591 H599 0.929 . S
C592 C591 1.407 . S
C592 C593 1.359 1_455 S
C593 H577 0.930 . S
C593 C592 1.359 1_655 S
C593 C594 1.379 . S
C594 H578 0.931 . S
C594 C588 1.383 1_655 S
C594 C593 1.379 . S
H595 C589 0.959 1_554 S
H596 C589 0.961 . S
H597 C589 0.960 . S
H598 C590 0.930 . S
H599 C591 0.929 . S
H600 C608 0.929 . S
H601 C610 0.930 . S
H602 C612 0.930 . S
H603 C615 0.929 . S
H604 C618 0.930 . S
H605 C620 0.960 . S
H606 C620 0.960 . S
H607 C620 0.960 . S
C608 H600 0.929 . S
C608 C609 1.377 1_655 S
C608 C610 1.384 . S
C609 C608 1.377 1_455 S
C609 C615 1.390 . S
C610 H601 0.930 . S
C610 C608 1.384 . S
C610 C611 1.372 . S
C611 C610 1.372 . S
C611 C612 1.400 1_655 S
C611 C616 1.490 . S
C612 H602 0.930 . S
C612 C611 1.400 1_455 S
C612 C615 1.386 . S
H613 C629 0.930 . S
H614 C630 0.931 . S
C615 H603 0.929 . S
C615 C609 1.390 . S
C615 C612 1.386 . S
C616 C611 1.490 . S
C616 C618 1.395 . S
C616 C619 1.403 1_655 S
H617 C623 0.930 . S
C618 H604 0.930 . S
C618 C616 1.395 . S
C618 C621 1.403 . S
C619 C616 1.403 1_455 S
C619 C620 1.524 . S
C619 C623 1.400 . S
C620 H605 0.960 . S
C620 H606 0.960 . S
C620 H607 0.960 . S
C620 C619 1.524 . S
C621 C618 1.403 . S
C621 C622 1.392 . S
C621 C625 1.495 . S
C622 C621 1.392 . S
C622 C623 1.385 1_655 S
C622 C624 1.478 . S
C623 H617 0.930 . S
C623 C619 1.400 . S
C623 C622 1.385 1_455 S
C624 C622 1.478 . S
C624 C626 1.381 . S
C624 C630 1.383 . S
C625 C621 1.495 . S
C625 H631 0.959 . S
C625 H632 0.961 . S
C625 H633 0.960 . S
C626 C624 1.381 . S
C626 C627 1.394 . S
C626 H634 0.930 . S
C627 C626 1.394 . S
C627 C628 1.383 . S
C627 H635 0.929 . S
C628 C627 1.383 . S
C628 C629 1.377 . S
C629 H613 0.930 . S
C629 C628 1.377 . S
C629 C630 1.379 . S
C630 H614 0.931 . S
C630 C624 1.383 . S
C630 C629 1.379 . S
H631 C625 0.959 . S
H632 C625 0.961 . S
H633 C625 0.960 . S
H634 C626 0.930 . S
H635 C627 0.929 . S
H636 C644 0.929 . S
H637 C646 0.930 . S
H638 C648 0.930 . S
H639 C651 0.929 . S
H640 C654 0.930 . S
H641 C656 0.960 . S
H642 C656 0.960 . S
H643 C656 0.960 . S
C644 H636 0.929 . S
C644 C645 1.333 1_565 S
C644 C646 1.384 . S
C645 C644 1.333 1_545 S
C645 C651 1.427 . S
C646 H637 0.930 . S
C646 C644 1.384 . S
C646 C647 1.372 . S
C647 C646 1.372 . S
C647 C648 1.400 1_565 S
C647 C652 1.490 . S
C648 H638 0.930 . S
C648 C647 1.400 1_545 S
C648 C651 1.386 . S
H649 C665 0.930 1_545 S
H650 C666 0.925 1_545 S
C651 H639 0.929 . S
C651 C645 1.427 . S
C651 C648 1.386 . S
C652 C647 1.490 . S
C652 C654 1.395 . S
C652 C655 1.403 . S
H653 C659 0.930 . S
C654 H640 0.930 . S
C654 C652 1.395 . S
C654 C657 1.403 . S
C655 C652 1.403 . S
C655 C656 1.524 . S
C655 C659 1.400 . S
C656 H641 0.960 . S
C656 H642 0.960 . S
C656 H643 0.960 . S
C656 C655 1.524 . S
C657 C654 1.403 . S
C657 C658 1.392 . S
C657 C661 1.495 . S
C658 C657 1.392 . S
C658 C659 1.385 . S
C658 C660 1.478 . S
C659 H653 0.930 . S
C659 C655 1.400 . S
C659 C658 1.385 . S
C660 C658 1.478 . S
C660 C662 1.381 . S
C660 C666 1.388 . S
C661 C657 1.495 . S
C661 H667 0.959 . S
C661 H668 0.961 1_565 S
C661 H669 0.960 . S
C662 C660 1.381 . S
C662 C663 1.394 . S
C662 H670 0.930 . S
C663 C662 1.394 . S
C663 C664 1.383 . S
C663 H671 0.929 . S
C664 C663 1.383 . S
C664 C665 1.377 . S
C665 H649 0.930 1_565 S
C665 C664 1.377 . S
C665 C666 1.381 . S
C666 H650 0.925 1_565 S
C666 C660 1.388 . S
C666 C665 1.381 . S
H667 C661 0.959 . S
H668 C661 0.961 1_545 S
H669 C661 0.960 . S
H670 C662 0.930 . S
H671 C663 0.929 . S
H672 C680 0.929 . S
H673 C682 0.930 . S
H674 C684 0.930 . S
H675 C687 0.929 . S
H676 C690 0.930 . S
H677 C692 0.960 . S
H678 C692 0.960 . S
H679 C692 0.960 . S
C680 H672 0.929 . S
C680 C681 1.377 . S
C680 C682 1.384 . S
C681 C680 1.377 . S
C681 C687 1.390 . S
C682 H673 0.930 . S
C682 C680 1.384 . S
C682 C683 1.372 . S
C683 C682 1.372 . S
C683 C684 1.400 . S
C683 C688 1.490 . S
C684 H674 0.930 . S
C684 C683 1.400 . S
C684 C687 1.386 . S
H685 C701 0.930 . S
H686 C702 0.931 . S
C687 H675 0.929 . S
C687 C681 1.390 . S
C687 C684 1.386 . S
C688 C683 1.490 . S
C688 C690 1.395 . S
C688 C691 1.403 . S
H689 C695 0.930 . S
C690 H676 0.930 . S
C690 C688 1.395 . S
C690 C693 1.403 . S
C691 C688 1.403 . S
C691 C692 1.524 . S
C691 C695 1.400 . S
C692 H677 0.960 . S
C692 H678 0.960 . S
C692 H679 0.960 . S
C692 C691 1.524 . S
C693 C690 1.403 . S
C693 C694 1.392 . S
C693 C697 1.495 . S
C694 C693 1.392 . S
C694 C695 1.385 . S
C694 C696 1.478 . S
C695 H689 0.930 . S
C695 C691 1.400 . S
C695 C694 1.385 . S
C696 C694 1.478 . S
C696 C698 1.381 . S
C696 C702 1.383 . S
C697 C693 1.495 . S
C697 H703 0.959 . S
C697 H704 0.961 . S
C697 H705 0.960 . S
C698 C696 1.381 . S
C698 C699 1.394 . S
C698 H706 0.930 . S
C699 C698 1.394 . S
C699 C700 1.383 . S
C699 H707 0.929 . S
C700 C699 1.383 . S
C700 C701 1.377 . S
C701 H685 0.930 . S
C701 C700 1.377 . S
C701 C702 1.379 . S
C702 H686 0.931 . S
C702 C696 1.383 . S
C702 C701 1.379 . S
H703 C697 0.959 . S
H704 C697 0.961 . S
H705 C697 0.960 . S
H706 C698 0.930 . S
H707 C699 0.929 . S
H708 C716 0.929 . S
H709 C718 0.930 . S
H710 C720 0.930 . S
H711 C723 0.929 . S
H712 C726 0.930 . S
H713 C728 0.960 . S
H714 C728 0.960 . S
H715 C728 0.960 . S
C716 H708 0.929 . S
C716 C717 1.377 . S
C716 C718 1.384 . S
C717 C716 1.377 . S
C717 C723 1.390 . S
C718 H709 0.930 . S
C718 C716 1.384 . S
C718 C719 1.372 . S
C719 C718 1.372 . S
C719 C720 1.400 . S
C719 C724 1.490 . S
C720 H710 0.930 . S
C720 C719 1.400 . S
C720 C723 1.386 . S
H721 C737 0.930 . S
H722 C738 0.931 . S
C723 H711 0.929 . S
C723 C717 1.390 . S
C723 C720 1.386 . S
C724 C719 1.490 . S
C724 C726 1.395 . S
C724 C727 1.403 . S
H725 C731 0.930 . S
C726 H712 0.930 . S
C726 C724 1.395 . S
C726 C729 1.403 . S
C727 C724 1.403 . S
C727 C728 1.524 . S
C727 C731 1.400 . S
C728 H713 0.960 . S
C728 H714 0.960 . S
C728 H715 0.960 . S
C728 C727 1.524 . S
C729 C726 1.403 . S
C729 C730 1.392 . S
C729 C733 1.495 . S
C730 C729 1.392 . S
C730 C731 1.385 . S
C730 C732 1.478 . S
C731 H725 0.930 . S
C731 C727 1.400 . S
C731 C730 1.385 . S
C732 C730 1.478 . S
C732 C734 1.381 . S
C732 C738 1.383 . S
C733 C729 1.495 . S
C733 H739 0.959 . S
C733 H740 0.961 . S
C733 H741 0.960 . S
C734 C732 1.381 . S
C734 C735 1.394 . S
C734 H742 0.930 . S
C735 C734 1.394 . S
C735 C736 1.383 . S
C735 H743 0.929 . S
C736 C735 1.383 . S
C736 C737 1.377 . S
C737 H721 0.930 . S
C737 C736 1.377 . S
C737 C738 1.379 . S
C738 H722 0.931 . S
C738 C732 1.383 . S
C738 C737 1.379 . S
H739 C733 0.959 . S
H740 C733 0.961 . S
H741 C733 0.960 . S
H742 C734 0.930 . S
H743 C735 0.929 . S
H744 C752 0.929 . S
H745 C754 0.930 . S
H746 C756 0.930 . S
H747 C759 0.929 . S
H748 C762 0.929 . S
H749 C764 0.960 . S
H750 C764 0.960 . S
H751 C764 0.960 . S
C752 H744 0.929 . S
C752 C753 1.354 1_455 S
C752 C754 1.384 . S
C753 C752 1.354 1_655 S
C753 C759 1.409 . S
C754 H745 0.930 . S
C754 C752 1.384 . S
C754 C755 1.372 . S
C755 C754 1.372 . S
C755 C756 1.400 1_455 S
C755 C760 1.490 . S
C756 H746 0.930 . S
C756 C755 1.400 1_655 S
C756 C759 1.386 . S
H757 C773 0.930 1_655 S
H758 C774 0.931 1_655 S
C759 H747 0.929 . S
C759 C753 1.409 . S
C759 C756 1.386 . S
C760 C755 1.490 . S
C760 C762 1.395 . S
C760 C763 1.403 . S
H761 C767 0.930 . S
C762 H748 0.929 . S
C762 C760 1.395 . S
C762 C765 1.403 . S
C763 C760 1.403 . S
C763 C764 1.524 . S
C763 C767 1.400 . S
C764 H749 0.960 . S
C764 H750 0.960 . S
C764 H751 0.960 . S
C764 C763 1.524 . S
C765 C762 1.403 . S
C765 C766 1.392 . S
C765 C769 1.510 1_554 S
C766 C765 1.392 . S
C766 C767 1.385 . S
C766 C768 1.478 . S
C767 H761 0.930 . S
C767 C763 1.400 . S
C767 C766 1.385 . S
C768 C766 1.478 . S
C768 C770 1.381 1_554 S
C768 C774 1.383 . S
C769 C765 1.510 1_556 S
C769 H775 0.945 1_455 S
C769 H776 0.914 1_455 S
C769 H777 1.012 . S
C770 C768 1.381 1_556 S
C770 C771 1.394 . S
C770 H778 0.930 . S
C771 C770 1.394 . S
C771 C772 1.383 . S
C771 H779 0.929 . S
C772 C771 1.383 . S
C772 C773 1.377 1_556 S
C773 H757 0.930 1_455 S
C773 C772 1.377 1_554 S
C773 C774 1.379 . S
C774 H758 0.931 1_455 S
C774 C768 1.383 . S
C774 C773 1.379 . S
H775 C769 0.945 1_655 S
H776 C769 0.914 1_655 S
H777 C769 1.012 . S
H778 C770 0.930 . S
H779 C771 0.929 . S
H780 C788 0.929 . S
H781 C790 0.930 . S
H782 C792 0.930 . S
H783 C795 0.929 . S
H784 C798 0.930 . S
H785 C800 0.960 . S
H786 C800 0.960 1_545 S
H787 C800 0.960 . S
C788 H780 0.929 . S
C788 C789 1.346 1_545 S
C788 C790 1.384 . S
C789 C788 1.346 1_565 S
C789 C795 1.416 . S
C790 H781 0.930 . S
C790 C788 1.384 . S
C790 C791 1.372 . S
C791 C790 1.372 . S
C791 C792 1.400 1_545 S
C791 C796 1.490 . S
C792 H782 0.930 . S
C792 C791 1.400 1_565 S
C792 C795 1.386 . S
H793 C809 0.930 1_565 S
H794 C810 0.925 . S
C795 H783 0.929 . S
C795 C789 1.416 . S
C795 C792 1.386 . S
C796 C791 1.490 . S
C796 C798 1.395 . S
C796 C799 1.403 . S
H797 C803 0.930 . S
C798 H784 0.930 . S
C798 C796 1.395 . S
C798 C801 1.403 . S
C799 C796 1.403 . S
C799 C800 1.524 1_545 S
C799 C803 1.400 . S
C800 H785 0.960 . S
C800 H786 0.960 1_565 S
C800 H787 0.960 . S
C800 C799 1.524 1_565 S
C801 C798 1.403 . S
C801 C802 1.392 . S
C801 C805 1.495 1_554 S
C802 C801 1.392 . S
C802 C803 1.385 . S
C802 C804 1.478 . S
C803 H797 0.930 . S
C803 C799 1.400 . S
C803 C802 1.385 . S
C804 C802 1.478 . S
C804 C806 1.381 . S
C804 C810 1.388 1_545 S
C805 C801 1.495 1_556 S
C805 H811 0.959 . S
C805 H812 0.961 . S
C805 H813 0.960 . S
C806 C804 1.381 . S
C806 C807 1.394 1_554 S
C806 H814 0.930 . S
C807 C806 1.394 1_556 S
C807 C808 1.383 . S
C807 H815 0.929 . S
C808 C807 1.383 . S
C808 C809 1.377 . S
C809 H793 0.930 1_545 S
C809 C808 1.377 . S
C809 C810 1.380 1_546 S
C810 H794 0.925 . S
C810 C804 1.388 1_565 S
C810 C809 1.380 1_564 S
H811 C805 0.959 . S
H812 C805 0.961 . S
H813 C805 0.960 . S
H814 C806 0.930 . S
H815 C807 0.929 . S
H816 C824 0.929 . S
H817 C826 0.930 . S
H818 C828 0.930 . S
H819 C831 0.929 . S
H820 C834 0.930 . S
H821 C836 0.960 . S
H822 C836 0.960 . S
H823 C836 0.960 . S
C824 H816 0.929 . S
C824 C825 1.377 . S
C824 C826 1.384 . S
C825 C824 1.377 . S
C825 C831 1.390 . S
C826 H817 0.930 . S
C826 C824 1.384 . S
C826 C827 1.372 . S
C827 C826 1.372 . S
C827 C828 1.400 . S
C827 C832 1.490 . S
C828 H818 0.930 . S
C828 C827 1.400 . S
C828 C831 1.386 . S
H829 C845 0.930 . S
H830 C846 0.931 . S
C831 H819 0.929 . S
C831 C825 1.390 . S
C831 C828 1.386 . S
C832 C827 1.490 . S
C832 C834 1.395 . S
C832 C835 1.403 . S
H833 C839 0.930 . S
C834 H820 0.930 . S
C834 C832 1.395 . S
C834 C837 1.403 . S
C835 C832 1.403 . S
C835 C836 1.524 . S
C835 C839 1.400 . S
C836 H821 0.960 . S
C836 H822 0.960 . S
C836 H823 0.960 . S
C836 C835 1.524 . S
C837 C834 1.403 . S
C837 C838 1.392 . S
C837 C841 1.495 1_554 S
C838 C837 1.392 . S
C838 C839 1.385 . S
C838 C840 1.478 . S
C839 H833 0.930 . S
C839 C835 1.400 . S
C839 C838 1.385 . S
C840 C838 1.478 . S
C840 C842 1.381 1_554 S
C840 C846 1.383 . S
C841 C837 1.495 1_556 S
C841 H847 0.959 . S
C841 H848 0.961 . S
C841 H849 0.960 . S
C842 C840 1.381 1_556 S
C842 C843 1.394 . S
C842 H850 0.930 . S
C843 C842 1.394 . S
C843 C844 1.383 . S
C843 H851 0.929 . S
C844 C843 1.383 . S
C844 C845 1.377 1_556 S
C845 H829 0.930 . S
C845 C844 1.377 1_554 S
C845 C846 1.379 . S
C846 H830 0.931 . S
C846 C840 1.383 . S
C846 C845 1.379 . S
H847 C841 0.959 . S
H848 C841 0.961 . S
H849 C841 0.960 . S
H850 C842 0.930 . S
H851 C843 0.929 . S
H852 C860 0.929 . S
H853 C862 0.930 . S
H854 C864 0.930 . S
H855 C867 0.929 . S
H856 C870 0.930 . S
H857 C872 0.960 . S
H858 C872 0.960 . S
H859 C872 0.960 . S
C860 H852 0.929 . S
C860 C861 1.377 . S
C860 C862 1.384 . S
C861 C860 1.377 . S
C861 C867 1.390 . S
C862 H853 0.930 . S
C862 C860 1.384 . S
C862 C863 1.372 . S
C863 C862 1.372 . S
C863 C864 1.400 . S
C863 C868 1.490 . S
C864 H854 0.930 . S
C864 C863 1.400 . S
C864 C867 1.386 . S
H865 C881 0.930 . S
H866 C882 0.931 . S
C867 H855 0.929 . S
C867 C861 1.390 . S
C867 C864 1.386 . S
C868 C863 1.490 . S
C868 C870 1.395 . S
C868 C871 1.403 . S
H869 C875 0.930 . S
C870 H856 0.930 . S
C870 C868 1.395 . S
C870 C873 1.403 . S
C871 C868 1.403 . S
C871 C872 1.524 . S
C871 C875 1.400 . S
C872 H857 0.960 . S
C872 H858 0.960 . S
C872 H859 0.960 . S
C872 C871 1.524 . S
C873 C870 1.403 . S
C873 C874 1.392 . S
C873 C877 1.495 . S
C874 C873 1.392 . S
C874 C875 1.385 . S
C874 C876 1.478 . S
C875 H869 0.930 . S
C875 C871 1.400 . S
C875 C874 1.385 . S
C876 C874 1.478 . S
C876 C878 1.381 1_554 S
C876 C882 1.383 . S
C877 C873 1.495 . S
C877 H883 0.959 . S
C877 H884 0.961 . S
C877 H885 0.960 . S
C878 C876 1.381 1_556 S
C878 C879 1.394 . S
C878 H886 0.930 . S
C879 C878 1.394 . S
C879 C880 1.383 . S
C879 H887 0.929 . S
C880 C879 1.383 . S
C880 C881 1.377 1_556 S
C881 H865 0.930 . S
C881 C880 1.377 1_554 S
C881 C882 1.379 . S
C882 H866 0.931 . S
C882 C876 1.383 . S
C882 C881 1.379 . S
H883 C877 0.959 . S
H884 C877 0.961 . S
H885 C877 0.960 . S
H886 C878 0.930 . S
H887 C879 0.929 . S
H888 C896 0.929 . S
H889 C898 0.930 . S
H890 C900 0.930 . S
H891 C903 0.929 . S
H892 C906 0.930 . S
H893 C908 0.960 . S
H894 C908 0.960 . S
H895 C908 0.960 . S
C896 H888 0.929 . S
C896 C897 1.377 1_655 S
C896 C898 1.384 . S
C897 C896 1.377 1_455 S
C897 C903 1.390 . S
C898 H889 0.930 . S
C898 C896 1.384 . S
C898 C899 1.372 1_655 S
C899 C898 1.372 1_455 S
C899 C900 1.400 . S
C899 C904 1.490 . S
C900 H890 0.930 . S
C900 C899 1.400 . S
C900 C903 1.386 . S
H901 C917 0.930 . S
H902 C918 0.931 . S
C903 H891 0.929 . S
C903 C897 1.390 . S
C903 C900 1.386 . S
C904 C899 1.490 . S
C904 C906 1.395 1_455 S
C904 C907 1.403 . S
H905 C911 0.930 . S
C906 H892 0.930 . S
C906 C904 1.395 1_655 S
C906 C909 1.403 . S
C907 C904 1.403 . S
C907 C908 1.524 . S
C907 C911 1.400 . S
C908 H893 0.960 . S
C908 H894 0.960 . S
C908 H895 0.960 . S
C908 C907 1.524 . S
C909 C906 1.403 . S
C909 C910 1.377 1_655 S
C909 C913 1.495 . S
C910 C909 1.377 1_455 S
C910 C911 1.401 . S
C910 C912 1.477 . S
C911 H905 0.930 . S
C911 C907 1.400 . S
C911 C910 1.401 . S
C912 C910 1.477 . S
C912 C914 1.354 1_455 S
C912 C918 1.418 . S
C913 C909 1.495 . S
C913 H919 0.959 . S
C913 H920 0.961 . S
C913 H921 0.960 . S
C914 C912 1.354 1_655 S
C914 C915 1.394 . S
C914 H922 0.930 . S
C915 C914 1.394 . S
C915 C916 1.383 1_655 S
C915 H923 0.929 . S
C916 C915 1.383 1_455 S
C916 C917 1.377 . S
C917 H901 0.930 . S
C917 C916 1.377 . S
C917 C918 1.379 . S
C918 H902 0.931 . S
C918 C912 1.418 . S
C918 C917 1.379 . S
H919 C913 0.959 . S
H920 C913 0.961 . S
H921 C913 0.960 . S
H922 C914 0.930 . S
H923 C915 0.929 . S
H924 C932 0.929 . S
H925 C934 0.930 . S
H926 C936 0.930 . S
H927 C939 0.929 . S
H928 C942 0.930 . S
H929 C944 0.960 . S
H930 C944 0.960 . S
H931 C944 0.960 . S
C932 H924 0.929 . S
C932 C933 1.377 . S
C932 C934 1.384 . S
C933 C932 1.377 . S
C933 C939 1.390 1_545 S
C934 H925 0.930 . S
C934 C932 1.384 . S
C934 C935 1.372 . S
C935 C934 1.372 . S
C935 C936 1.400 1_545 S
C935 C940 1.490 . S
C936 H926 0.930 . S
C936 C935 1.400 1_565 S
C936 C939 1.386 . S
H937 C953 0.930 . S
H938 C954 0.931 . S
C939 H927 0.929 . S
C939 C933 1.390 1_565 S
C939 C936 1.386 . S
C940 C935 1.490 . S
C940 C942 1.395 . S
C940 C943 1.403 1_545 S
H941 C947 0.930 . S
C942 H928 0.930 . S
C942 C940 1.395 . S
C942 C945 1.403 . S
C943 C940 1.403 1_565 S
C943 C944 1.524 . S
C943 C947 1.400 . S
C944 H929 0.960 . S
C944 H930 0.960 . S
C944 H931 0.960 . S
C944 C943 1.524 . S
C945 C942 1.403 . S
C945 C946 1.392 . S
C945 C949 1.495 . S
C946 C945 1.392 . S
C946 C947 1.385 1_545 S
C946 C948 1.478 . S
C947 H941 0.930 . S
C947 C943 1.400 . S
C947 C946 1.385 1_565 S
C948 C946 1.478 . S
C948 C950 1.381 . S
C948 C954 1.383 1_545 S
C949 C945 1.495 . S
C949 H955 0.959 . S
C949 H956 0.961 . S
C949 H957 0.960 . S
C950 C948 1.381 . S
C950 C951 1.394 . S
C950 H958 0.930 . S
C951 C950 1.394 . S
C951 C952 1.383 . S
C951 H959 0.929 . S
C952 C951 1.383 . S
C952 C953 1.377 1_545 S
C953 H937 0.930 . S
C953 C952 1.377 1_565 S
C953 C954 1.379 . S
C954 H938 0.931 . S
C954 C948 1.383 1_565 S
C954 C953 1.379 . S
H955 C949 0.959 . S
H956 C949 0.961 . S
H957 C949 0.960 . S
H958 C950 0.930 . S
H959 C951 0.929 . S
H960 C968 0.929 . S
H961 C970 0.930 . S
H962 C972 0.930 . S
H963 C975 0.929 . S
H964 C978 0.930 . S
H965 C980 0.960 1_554 S
H966 C980 0.960 1_554 S
H967 C980 0.960 . S
C968 H960 0.929 . S
C968 C969 1.377 . S
C968 C970 1.384 . S
C969 C968 1.377 . S
C969 C975 1.390 . S
C970 H961 0.930 . S
C970 C968 1.384 . S
C970 C971 1.372 . S
C971 C970 1.372 . S
C971 C972 1.400 . S
C971 C976 1.490 . S
C972 H962 0.930 . S
C972 C971 1.400 . S
C972 C975 1.386 . S
H973 C989 0.930 . S
H974 C990 0.931 . S
C975 H963 0.929 . S
C975 C969 1.390 . S
C975 C972 1.386 . S
C976 C971 1.490 . S
C976 C978 1.395 . S
C976 C979 1.403 . S
H977 C983 0.930 . S
C978 H964 0.930 . S
C978 C976 1.395 . S
C978 C981 1.403 . S
C979 C976 1.403 . S
C979 C980 1.524 . S
C979 C983 1.400 . S
C980 H965 0.960 1_556 S
C980 H966 0.960 1_556 S
C980 H967 0.960 . S
C980 C979 1.524 . S
C981 C978 1.403 . S
C981 C982 1.392 . S
C981 C985 1.495 . S
C982 C981 1.392 . S
C982 C983 1.385 . S
C982 C984 1.478 . S
C983 H977 0.930 . S
C983 C979 1.400 . S
C983 C982 1.385 . S
C984 C982 1.478 . S
C984 C986 1.381 . S
C984 C990 1.383 . S
C985 C981 1.495 . S
C985 H991 0.959 . S
C985 H992 0.961 . S
C985 H993 0.960 . S
C986 C984 1.381 . S
C986 C987 1.394 . S
C986 H994 0.930 . S
C987 C986 1.394 . S
C987 C988 1.383 . S
C987 H995 0.929 . S
C988 C987 1.383 . S
C988 C989 1.377 . S
C989 H973 0.930 . S
C989 C988 1.377 . S
C989 C990 1.379 . S
C990 H974 0.931 . S
C990 C984 1.383 . S
C990 C989 1.379 . S
H991 C985 0.959 . S
H992 C985 0.961 . S
H993 C985 0.960 . S
H994 C986 0.930 . S
H995 C987 0.929 . S
H996 C1004 0.929 . S
H997 C1006 0.930 . S
H998 C1008 0.930 . S
H999 C1011 0.929 . S
H1000 C1014 0.930 . S
H1001 C1016 0.960 . S
H1002 C1016 0.960 . S
H1003 C1016 0.960 . S
C1004 H996 0.929 . S
C1004 C1005 1.377 . S
C1004 C1006 1.384 . S
C1005 C1004 1.377 . S
C1005 C1011 1.390 . S
C1006 H997 0.930 . S
C1006 C1004 1.384 . S
C1006 C1007 1.372 . S
C1007 C1006 1.372 . S
C1007 C1008 1.400 . S
C1007 C1012 1.490 . S
C1008 H998 0.930 . S
C1008 C1007 1.400 . S
C1008 C1011 1.386 . S
H1009 C1025 0.930 . S
H1010 C1026 0.931 . S
C1011 H999 0.929 . S
C1011 C1005 1.390 . S
C1011 C1008 1.386 . S
C1012 C1007 1.490 . S
C1012 C1014 1.395 . S
C1012 C1015 1.403 . S
H1013 C1019 0.930 . S
C1014 H1000 0.930 . S
C1014 C1012 1.395 . S
C1014 C1017 1.403 . S
C1015 C1012 1.403 . S
C1015 C1016 1.524 . S
C1015 C1019 1.400 . S
C1016 H1001 0.960 . S
C1016 H1002 0.960 . S
C1016 H1003 0.960 . S
C1016 C1015 1.524 . S
C1017 C1014 1.403 . S
C1017 C1018 1.392 . S
C1017 C1021 1.495 . S
C1018 C1017 1.392 . S
C1018 C1019 1.385 . S
C1018 C1020 1.478 . S
C1019 H1013 0.930 . S
C1019 C1015 1.400 . S
C1019 C1018 1.385 . S
C1020 C1018 1.478 . S
C1020 C1022 1.381 . S
C1020 C1026 1.383 . S
C1021 C1017 1.495 . S
C1021 H1027 0.959 . S
C1021 H1028 0.961 . S
C1021 H1029 0.960 . S
C1022 C1020 1.381 . S
C1022 C1023 1.394 . S
C1022 H1030 0.930 . S
C1023 C1022 1.394 . S
C1023 C1024 1.383 . S
C1023 H1031 0.929 . S
C1024 C1023 1.383 . S
C1024 C1025 1.377 . S
C1025 H1009 0.930 . S
C1025 C1024 1.377 . S
C1025 C1026 1.379 . S
C1026 H1010 0.931 . S
C1026 C1020 1.383 . S
C1026 C1025 1.379 . S
H1027 C1021 0.959 . S
H1028 C1021 0.961 . S
H1029 C1021 0.960 . S
H1030 C1022 0.930 . S
H1031 C1023 0.929 . S
H1032 C1040 0.929 . S
H1033 C1042 0.930 . S
H1034 C1044 0.930 . S
H1035 C1047 0.929 . S
H1036 C1050 0.930 . S
H1037 C1052 0.960 . S
H1038 C1052 0.960 . S
H1039 C1052 0.960 . S
C1040 H1032 0.929 . S
C1040 C1041 1.400 . S
C1040 C1042 1.384 . S
C1041 C1040 1.400 . S
C1041 C1047 1.369 1_655 S
C1042 H1033 0.930 . S
C1042 C1040 1.384 . S
C1042 C1043 1.372 . S
C1043 C1042 1.372 . S
C1043 C1044 1.400 1_655 S
C1043 C1048 1.490 . S
C1044 H1034 0.930 . S
C1044 C1043 1.400 1_455 S
C1044 C1047 1.386 . S
H1045 C1061 0.951 . S
H1046 C1062 0.931 . S
C1047 H1035 0.929 . S
C1047 C1041 1.369 1_455 S
C1047 C1044 1.386 . S
C1048 C1043 1.490 . S
C1048 C1050 1.395 . S
C1048 C1051 1.403 1_655 S
H1049 C1055 0.930 . S
C1050 H1036 0.930 . S
C1050 C1048 1.395 . S
C1050 C1053 1.403 . S
C1051 C1048 1.403 1_455 S
C1051 C1052 1.524 . S
C1051 C1055 1.400 . S
C1052 H1037 0.960 . S
C1052 H1038 0.960 . S
C1052 H1039 0.960 . S
C1052 C1051 1.524 . S
C1053 C1050 1.403 . S
C1053 C1054 1.392 . S
C1053 C1057 1.495 . S
C1054 C1053 1.392 . S
C1054 C1055 1.385 1_655 S
C1054 C1056 1.478 . S
C1055 H1049 0.930 . S
C1055 C1051 1.400 . S
C1055 C1054 1.385 1_455 S
C1056 C1054 1.478 . S
C1056 C1058 1.381 . S
C1056 C1062 1.383 1_655 S
C1057 C1053 1.495 . S
C1057 H1063 0.959 . S
C1057 H1064 0.961 . S
C1057 H1065 0.960 . S
C1058 C1056 1.381 . S
C1058 C1059 1.394 . S
C1058 H1066 0.930 . S
C1059 C1058 1.394 . S
C1059 C1060 1.383 . S
C1059 H1067 0.929 . S
C1060 C1059 1.383 . S
C1060 C1061 1.358 1_655 S
C1061 H1045 0.951 . S
C1061 C1060 1.358 1_455 S
C1061 C1062 1.379 . S
C1062 H1046 0.931 . S
C1062 C1056 1.383 1_455 S
C1062 C1061 1.379 . S
H1063 C1057 0.959 . S
H1064 C1057 0.961 . S
H1065 C1057 0.960 . S
H1066 C1058 0.930 . S
H1067 C1059 0.929 . S
H1068 C1076 0.929 . S
H1069 C1078 0.930 . S
H1070 C1080 0.930 . S
H1071 C1083 0.929 . S
H1072 C1086 0.930 . S
H1073 C1088 0.960 . S
H1074 C1088 0.960 . S
H1075 C1088 0.960 . S
C1076 H1068 0.929 . S
C1076 C1077 1.394 . S
C1076 C1078 1.384 . S
C1077 C1076 1.394 . S
C1077 C1083 1.375 1_565 S
C1078 H1069 0.930 . S
C1078 C1076 1.384 . S
C1078 C1079 1.372 . S
C1079 C1078 1.372 . S
C1079 C1080 1.400 1_565 S
C1079 C1084 1.490 . S
C1080 H1070 0.930 . S
C1080 C1079 1.400 1_545 S
C1080 C1083 1.386 . S
H1081 C1097 0.929 . S
H1082 C1098 0.919 1_545 S
C1083 H1071 0.929 . S
C1083 C1077 1.375 1_545 S
C1083 C1080 1.386 . S
C1084 C1079 1.490 . S
C1084 C1086 1.395 . S
C1084 C1087 1.403 1_565 S
H1085 C1091 0.930 . S
C1086 H1072 0.930 . S
C1086 C1084 1.395 . S
C1086 C1089 1.403 . S
C1087 C1084 1.403 1_545 S
C1087 C1088 1.524 . S
C1087 C1091 1.400 . S
C1088 H1073 0.960 . S
C1088 H1074 0.960 . S
C1088 H1075 0.960 . S
C1088 C1087 1.524 . S
C1089 C1086 1.403 . S
C1089 C1090 1.392 . S
C1089 C1093 1.495 . S
C1090 C1089 1.392 . S
C1090 C1091 1.385 1_565 S
C1090 C1092 1.478 . S
C1091 H1085 0.930 . S
C1091 C1087 1.400 . S
C1091 C1090 1.385 1_545 S
C1092 C1090 1.478 . S
C1092 C1094 1.381 . S
C1092 C1098 1.396 . S
C1093 C1089 1.495 . S
C1093 H1099 0.959 . S
C1093 H1100 0.961 . S
C1093 H1101 0.960 . S
C1094 C1092 1.381 . S
C1094 C1095 1.394 . S
C1094 H1102 0.930 . S
C1095 C1094 1.394 . S
C1095 C1096 1.383 . S
C1095 H1103 0.929 . S
C1096 C1095 1.383 . S
C1096 C1097 1.377 1_565 S
C1097 H1081 0.929 . S
C1097 C1096 1.377 1_545 S
C1097 C1098 1.379 1_545 S
C1098 H1082 0.919 1_565 S
C1098 C1092 1.396 . S
C1098 C1097 1.379 1_565 S
H1099 C1093 0.959 . S
H1100 C1093 0.961 . S
H1101 C1093 0.960 . S
H1102 C1094 0.930 . S
H1103 C1095 0.929 . S
H1104 C1112 0.929 . S
H1105 C1114 0.930 . S
H1106 C1116 0.930 . S
H1107 C1119 0.929 . S
H1108 C1122 0.930 . S
H1109 C1124 0.960 . S
H1110 C1124 0.960 . S
H1111 C1124 0.960 . S
C1112 H1104 0.929 . S
C1112 C1113 1.377 . S
C1112 C1114 1.384 . S
C1113 C1112 1.377 . S
C1113 C1119 1.390 . S
C1114 H1105 0.930 . S
C1114 C1112 1.384 . S
C1114 C1115 1.372 . S
C1115 C1114 1.372 . S
C1115 C1116 1.400 . S
C1115 C1120 1.490 . S
C1116 H1106 0.930 . S
C1116 C1115 1.400 . S
C1116 C1119 1.386 . S
H1117 C1133 0.930 . S
H1118 C1134 0.931 . S
C1119 H1107 0.929 . S
C1119 C1113 1.390 . S
C1119 C1116 1.386 . S
C1120 C1115 1.490 . S
C1120 C1122 1.395 . S
C1120 C1123 1.403 . S
H1121 C1127 0.930 . S
C1122 H1108 0.930 . S
C1122 C1120 1.395 . S
C1122 C1125 1.403 . S
C1123 C1120 1.403 . S
C1123 C1124 1.524 . S
C1123 C1127 1.400 . S
C1124 H1109 0.960 . S
C1124 H1110 0.960 . S
C1124 H1111 0.960 . S
C1124 C1123 1.524 . S
C1125 C1122 1.403 . S
C1125 C1126 1.392 . S
C1125 C1129 1.495 . S
C1126 C1125 1.392 . S
C1126 C1127 1.385 . S
C1126 C1128 1.478 . S
C1127 H1121 0.930 . S
C1127 C1123 1.400 . S
C1127 C1126 1.385 . S
C1128 C1126 1.478 . S
C1128 C1130 1.381 . S
C1128 C1134 1.383 . S
C1129 C1125 1.495 . S
C1129 H1135 0.959 . S
C1129 H1136 0.961 . S
C1129 H1137 0.960 . S
C1130 C1128 1.381 . S
C1130 C1131 1.394 . S
C1130 H1138 0.930 . S
C1131 C1130 1.394 . S
C1131 C1132 1.383 . S
C1131 H1139 0.929 . S
C1132 C1131 1.383 . S
C1132 C1133 1.377 . S
C1133 H1117 0.930 . S
C1133 C1132 1.377 . S
C1133 C1134 1.379 . S
C1134 H1118 0.931 . S
C1134 C1128 1.383 . S
C1134 C1133 1.379 . S
H1135 C1129 0.959 . S
H1136 C1129 0.961 . S
H1137 C1129 0.960 . S
H1138 C1130 0.930 . S
H1139 C1131 0.929 . S
H1140 C1148 0.929 . S
H1141 C1150 0.930 . S
H1142 C1152 0.930 . S
H1143 C1155 0.929 . S
H1144 C1158 0.930 . S
H1145 C1160 0.960 . S
H1146 C1160 0.960 . S
H1147 C1160 0.960 . S
C1148 H1140 0.929 . S
C1148 C1149 1.377 . S
C1148 C1150 1.384 . S
C1149 C1148 1.377 . S
C1149 C1155 1.390 . S
C1150 H1141 0.930 . S
C1150 C1148 1.384 . S
C1150 C1151 1.372 . S
C1151 C1150 1.372 . S
C1151 C1152 1.400 . S
C1151 C1156 1.490 . S
C1152 H1142 0.930 . S
C1152 C1151 1.400 . S
C1152 C1155 1.386 . S
H1153 C1169 0.930 . S
H1154 C1170 0.931 . S
C1155 H1143 0.929 . S
C1155 C1149 1.390 . S
C1155 C1152 1.386 . S
C1156 C1151 1.490 . S
C1156 C1158 1.395 . S
C1156 C1159 1.403 . S
H1157 C1163 0.930 . S
C1158 H1144 0.930 . S
C1158 C1156 1.395 . S
C1158 C1161 1.403 . S
C1159 C1156 1.403 . S
C1159 C1160 1.524 . S
C1159 C1163 1.400 . S
C1160 H1145 0.960 . S
C1160 H1146 0.960 . S
C1160 H1147 0.960 . S
C1160 C1159 1.524 . S
C1161 C1158 1.403 . S
C1161 C1162 1.392 . S
C1161 C1165 1.495 . S
C1162 C1161 1.392 . S
C1162 C1163 1.385 . S
C1162 C1164 1.478 . S
C1163 H1157 0.930 . S
C1163 C1159 1.400 . S
C1163 C1162 1.385 . S
C1164 C1162 1.478 . S
C1164 C1166 1.381 . S
C1164 C1170 1.383 . S
C1165 C1161 1.495 . S
C1165 H1171 0.959 . S
C1165 H1172 0.961 . S
C1165 H1173 0.960 . S
C1166 C1164 1.381 . S
C1166 C1167 1.394 . S
C1166 H1174 0.930 . S
C1167 C1166 1.394 . S
C1167 C1168 1.383 . S
C1167 H1175 0.929 . S
C1168 C1167 1.383 . S
C1168 C1169 1.377 . S
C1169 H1153 0.930 . S
C1169 C1168 1.377 . S
C1169 C1170 1.379 . S
C1170 H1154 0.931 . S
C1170 C1164 1.383 . S
C1170 C1169 1.379 . S
H1171 C1165 0.959 . S
H1172 C1165 0.961 . S
H1173 C1165 0.960 . S
H1174 C1166 0.930 . S
H1175 C1167 0.929 . S
C321 C125 1.829 1_545 S
C340 C170 1.879 1_545 S
C376 C210 1.879 . S
C357 C144 1.836 . S
C412 C250 1.881 . S
C393 C87 1.838 . S
C448 C290 1.874 1_455 S
C429 C106 1.830 1_455 S
C484 C160 1.872 1_565 S
C465 C49 1.836 1_545 S
C501 C68 1.829 . S
C520 C200 1.858 . S
C537 C11 1.837 . S
C556 C240 1.880 . S
C573 C30 1.836 . S
C592 C280 1.866 . S
C628 C157 0.411 . S
C609 C97 0.476 . S
C664 C197 0.384 . S
C645 C116 0.455 . S
C700 C237 0.326 . S
C681 C135 0.441 . S
C717 C78 0.460 . S
C736 C277 0.393 . S
C753 C21 0.448 . S
C772 C167 0.334 . S
C808 C207 0.365 . S
C789 C40 0.438 . S
C844 C247 0.332 . S
C825 C59 0.451 . S
C861 C2 0.470 . S
C880 C287 0.335 . S
C897 C101 1.928 . S
C916 C161 2.079 . S
C933 C120 1.941 . S
C952 C201 2.101 . S
C988 C241 2.088 . S
C969 C139 1.930 . S
C1024 C281 2.103 . S
C1005 C82 1.940 . S
C1041 C25 1.928 . S
C1060 C171 2.104 . S
C1096 C211 2.103 . S
C1077 C44 1.928 . S
C1132 C251 2.079 . S
C1113 C63 1.937 . S
C1149 C6 1.930 . S
C1168 C291 2.094 . S
