# Generated by pormake.
# Topology nom, (4,4)-cn, num edge types: 1
# Building blocks:
#     Node 0, Type 0, BuildingBlock: MIFKUJ_clean_linker_1, # of connection points: 4
#     Node 1, Type 0, BuildingBlock: MIFKUJ_clean_linker_1, # of connection points: 4
#     Node 2, Type 0, BuildingBlock: MIFKUJ_clean_linker_1, # of connection points: 4
#     Node 3, Type 0, BuildingBlock: MIFKUJ_clean_linker_1, # of connection points: 4
#     Node 4, Type 0, BuildingBlock: MIFKUJ_clean_linker_1, # of connection points: 4
#     Node 5, Type 0, BuildingBlock: MIFKUJ_clean_linker_1, # of connection points: 4
#     Node 6, Type 1, BuildingBlock: AZAVOO_clean_sbu_0, # of connection points: 4
#     Node 7, Type 1, BuildingBlock: AZAVOO_clean_sbu_0, # of connection points: 4
#     Node 8, Type 1, BuildingBlock: AZAVOO_clean_sbu_0, # of connection points: 4
#     Node 9, Type 1, BuildingBlock: AZAVOO_clean_sbu_0, # of connection points: 4
#     Node 10, Type 1, BuildingBlock: AZAVOO_clean_sbu_0, # of connection points: 4
#     Node 11, Type 1, BuildingBlock: AZAVOO_clean_sbu_0, # of connection points: 4
#     Edge 12, Type (0, 1), None
#     Edge 13, Type (0, 1), None
#     Edge 14, Type (0, 1), None
#     Edge 15, Type (0, 1), None
#     Edge 16, Type (0, 1), None
#     Edge 17, Type (0, 1), None
#     Edge 18, Type (0, 1), None
#     Edge 19, Type (0, 1), None
#     Edge 20, Type (0, 1), None
#     Edge 21, Type (0, 1), None
#     Edge 22, Type (0, 1), None
#     Edge 23, Type (0, 1), None
#     Edge 24, Type (0, 1), None
#     Edge 25, Type (0, 1), None
#     Edge 26, Type (0, 1), None
#     Edge 27, Type (0, 1), None
#     Edge 28, Type (0, 1), None
#     Edge 29, Type (0, 1), None
#     Edge 30, Type (0, 1), None
#     Edge 31, Type (0, 1), None
#     Edge 32, Type (0, 1), None
#     Edge 33, Type (0, 1), None
#     Edge 34, Type (0, 1), None
#     Edge 35, Type (0, 1), None
# Relax obj value: 0.036
# Max RMSD: 0.160
# Mean RMSD: 0.126
data_MOF--net-nom--node1-AZAVOO_clean_sbu_0--node2-MIFKUJ_clean_linker_1--edge1-none
_symmetry_space_group_name_H-M    P1
_symmetry_Int_Tables_number       1
_symmetry_cell_setting            triclinic
loop_
_symmetry_equiv_pos_as_xyz
'x, y, z'
_cell_length_a     29.613898
_cell_length_b     29.833289
_cell_length_c     28.400952
_cell_angle_alpha  92.28329
_cell_angle_beta   92.393989
_cell_angle_gamma 119.99165
loop_
_atom_site_label
_atom_site_type_symbol
_atom_site_fract_x
_atom_site_fract_y
_atom_site_fract_z
_atom_type_partial_charge
H0 H 0.92925 0.38963 0.25914 0.0
H1 H 0.87055 0.35447 0.188 0.0
H2 H 0.81915 0.46523 0.2135 0.0
H3 H 0.87881 0.50065 0.28506 0.0
H4 H 0.01093 0.49187 0.26996 0.0
H5 H 0.85089 0.38156 0.35788 0.0
H6 H 0.7614 0.36179 0.37015 0.0
H7 H 0.81946 0.52337 0.41171 0.0
H8 H 0.90849 0.5426 0.40005 0.0
H9 H 0.07239 0.60547 0.44946 0.0
H10 H 0.13565 0.62927 0.51792 0.0
H11 H 0.14305 0.49027 0.48729 0.0
H12 H 0.08183 0.468 0.41777 0.0
H13 H 0.97116 0.50163 0.43669 0.0
H14 H 0.11335 0.61891 0.36389 0.0
H15 H 0.19722 0.67176 0.33114 0.0
H16 H 0.17755 0.53617 0.25086 0.0
H17 H 0.09377 0.48307 0.28483 0.0
C18 C 0.90855 0.44774 0.27761 0.0
C19 C 0.90486 0.40595 0.24985 0.0
C20 C 0.87115 0.38589 0.20902 0.0
C21 C 0.84024 0.40723 0.19458 0.0
C22 C 0.84221 0.44772 0.22354 0.0
C23 C 0.87624 0.46794 0.26459 0.0
C24 C 0.94982 0.47255 0.31723 0.0
C25 C 0.0021 0.49282 0.30655 0.0
C26 C 0.9389 0.47768 0.36457 0.0
C27 C 0.88592 0.46361 0.37744 0.0
C28 C 0.84426 0.41237 0.37058 0.0
C29 C 0.79336 0.40111 0.37807 0.0
C30 C 0.78364 0.44116 0.39177 0.0
C31 C 0.8259 0.49183 0.40112 0.0
C32 C 0.87668 0.50286 0.39438 0.0
C33 C 0.0727 0.53512 0.42861 0.0
C34 C 0.08851 0.58076 0.45705 0.0
C35 C 0.12476 0.59441 0.49588 0.0
C36 C 0.14423 0.56161 0.5077 0.0
C37 C 0.12872 0.51625 0.47883 0.0
C38 C 0.09381 0.50351 0.43922 0.0
C39 C 0.03176 0.51822 0.38943 0.0
C40 C 0.97985 0.49951 0.4002 0.0
C41 C 0.04327 0.51716 0.34185 0.0
C42 C 0.0975 0.54682 0.32734 0.0
C43 C 0.12783 0.60011 0.34055 0.0
C44 C 0.17563 0.63048 0.32132 0.0
C45 C 0.19382 0.60828 0.28801 0.0
C46 C 0.16449 0.55451 0.27627 0.0
C47 C 0.11664 0.52407 0.29568 0.0
H48 H 0.38441 0.91244 0.55745 0.0
H49 H 0.33377 0.82391 0.58152 0.0
H50 H 0.45026 0.7904 0.531 0.0
H51 H 0.50061 0.87928 0.50679 0.0
H52 H 0.48859 0.98627 0.59063 0.0
H53 H 0.39022 0.89119 0.44118 0.0
H54 H 0.36414 0.83161 0.37052 0.0
H55 H 0.52615 0.90115 0.33875 0.0
H56 H 0.55174 0.95976 0.40947 0.0
H57 H 0.62658 0.11756 0.4578 0.0
H58 H 0.65925 0.20124 0.4232 0.0
H59 H 0.5265 0.20974 0.47011 0.0
H60 H 0.49389 0.12587 0.50364 0.0
H61 H 0.52459 0.03264 0.42525 0.0
H62 H 0.61403 0.07493 0.59676 0.0
H63 H 0.65032 0.1321 0.66913 0.0
H64 H 0.52579 0.16762 0.65696 0.0
H65 H 0.48871 0.10876 0.58548 0.0
C66 C 0.44614 0.90229 0.53036 0.0
C67 C 0.39883 0.88588 0.55137 0.0
C68 C 0.36985 0.83519 0.5649 0.0
C69 C 0.38803 0.80009 0.55824 0.0
C70 C 0.4352 0.81649 0.53663 0.0
C71 C 0.46398 0.86718 0.52271 0.0
C72 C 0.47726 0.95671 0.5179 0.0
C73 C 0.49588 -0.00361 0.55435 0.0
C74 C 0.48924 0.96975 0.47093 0.0
C75 C 0.47301 0.93002 0.43073 0.0
C76 C 0.42017 0.89278 0.41953 0.0
C77 C 0.4053 0.85875 0.37901 0.0
C78 C 0.44298 0.86167 0.34866 0.0
C79 C 0.49597 0.89784 0.36102 0.0
C80 C 0.51073 0.93158 0.40148 0.0
C81 C 0.55848 0.11613 0.48422 0.0
C82 C 0.60527 0.13814 0.46149 0.0
C83 C 0.62369 0.18582 0.44155 0.0
C84 C 0.59531 0.21205 0.44366 0.0
C85 C 0.54939 0.19066 0.46793 0.0
C86 C 0.531 0.14299 0.48773 0.0
C87 C 0.53407 0.06196 0.49768 0.0
C88 C 0.51711 0.02235 0.46148 0.0
C89 C 0.52485 0.04886 0.54488 0.0
C90 C 0.5492 0.08828 0.58533 0.0
C91 C 0.595 0.09562 0.60937 0.0
C92 C 0.6156 0.12821 0.65078 0.0
C93 C 0.59106 0.15458 0.66878 0.0
C94 C 0.54601 0.1484 0.64375 0.0
C95 C 0.52486 0.11495 0.60273 0.0
H96 H 0.55844 0.63011 0.74414 0.0
H97 H 0.52722 0.66591 0.80575 0.0
H98 H 0.36957 0.53963 0.77118 0.0
H99 H 0.40108 0.50406 0.71065 0.0
H100 H 0.54465 0.52596 0.73377 0.0
H101 H 0.48917 0.63415 0.64188 0.0
H102 H 0.41688 0.65151 0.63123 0.0
H103 H 0.31164 0.48937 0.58961 0.0
H104 H 0.38415 0.47258 0.59949 0.0
H105 H 0.48227 0.40864 0.5589 0.0
H106 H 0.51511 0.38331 0.49079 0.0
H107 H 0.6631 0.52585 0.51505 0.0
H108 H 0.63089 0.54974 0.5844 0.0
H109 H 0.48716 0.51506 0.56494 0.0
H110 H 0.51133 0.39772 0.64409 0.0
H111 H 0.54101 0.34388 0.68098 0.0
H112 H 0.66639 0.48006 0.75883 0.0
H113 H 0.63686 0.53403 0.72084 0.0
C114 C 0.48189 0.56502 0.72228 0.0
C115 C 0.51722 0.61009 0.75023 0.0
C116 C 0.49937 0.6304 0.78545 0.0
C117 C 0.44594 0.60561 0.79351 0.0
C118 C 0.41101 0.55963 0.76623 0.0
C119 C 0.42885 0.53945 0.73117 0.0
C120 C 0.50046 0.54423 0.68411 0.0
C121 C 0.53354 0.52504 0.6967 0.0
C122 C 0.48224 0.5391 0.63619 0.0
C123 C 0.44175 0.55204 0.6219 0.0
C124 C 0.4508 0.60274 0.62919 0.0
C125 C 0.40954 0.6126 0.62281 0.0
C126 C 0.35857 0.57167 0.60984 0.0
C127 C 0.35046 0.52159 0.59972 0.0
C128 C 0.39183 0.51197 0.60528 0.0
C129 C 0.55438 0.4808 0.57668 0.0
C130 C 0.52218 0.4337 0.55016 0.0
C131 C 0.54101 0.41927 0.51148 0.0
C132 C 0.59162 0.45268 0.49786 0.0
C133 C 0.624 0.49943 0.52496 0.0
C134 C 0.60572 0.51304 0.56448 0.0
C135 C 0.53343 0.49897 0.61453 0.0
C136 C 0.49991 0.51761 0.60183 0.0
C137 C 0.5485 0.50052 0.66263 0.0
C138 C 0.57241 0.47009 0.67905 0.0
C139 C 0.54637 0.41634 0.66773 0.0
C140 C 0.56298 0.38542 0.6894 0.0
C141 C 0.6057 0.4076 0.72323 0.0
C142 C 0.63314 0.46174 0.73309 0.0
C143 C 0.61648 0.4927 0.7113 0.0
H144 H 0.06168 0.63007 0.76387 0.0
H145 H 0.12998 0.66418 0.70771 0.0
H146 H 0.15592 0.53567 0.72815 0.0
H147 H 0.08738 0.50181 0.78354 0.0
H148 H 0.96622 0.51084 0.76313 0.0
H149 H 0.13874 0.64476 0.86265 0.0
H150 H 0.22825 0.66023 0.87281 0.0
H151 H 0.16743 0.5 0.90298 0.0
H152 H 0.07851 0.48527 0.89401 0.0
H153 H 0.93279 0.42804 0.93832 0.0
H154 H 0.86796 0.39795 0.99774 0.0
H155 H 0.83511 0.52027 0.96854 0.0
H156 H 0.89909 0.54926 0.9084 0.0
H157 H 0.02395 0.53866 0.93381 0.0
H158 H 0.91373 0.39735 0.83434 0.0
H159 H 0.82814 0.32164 0.81396 0.0
H160 H 0.76747 0.42209 0.77777 0.0
H161 H 0.85444 0.49819 0.79812 0.0
C162 C 0.07009 0.56383 0.77791 0.0
C163 C 0.08174 0.60905 0.75557 0.0
C164 C 0.12072 0.62844 0.72362 0.0
C165 C 0.14836 0.60264 0.71352 0.0
C166 C 0.13521 0.55633 0.73491 0.0
C167 C 0.09625 0.53701 0.76674 0.0
C168 C 0.03217 0.54594 0.81454 0.0
C169 C 0.97874 0.51903 0.80047 0.0
C170 C 0.04856 0.55076 0.86288 0.0
C171 C 0.10235 0.56396 0.87761 0.0
C172 C 0.14497 0.61359 0.87295 0.0
C173 C 0.19591 0.62228 0.87883 0.0
C174 C 0.20452 0.58111 0.8884 0.0
C175 C 0.16178 0.53227 0.8955 0.0
C176 C 0.11111 0.52393 0.89061 0.0
C177 C 0.92007 0.49042 0.91896 0.0
C178 C 0.91161 0.4483 0.94495 0.0
C179 C 0.87473 0.4313 0.97887 0.0
C180 C 0.84672 0.45695 0.98787 0.0
C181 C 0.8566 0.50019 0.96272 0.0
C182 C 0.89267 0.51647 0.92814 0.0
C183 C 0.9581 0.50806 0.88253 0.0
C184 C 0.01141 0.53397 0.89661 0.0
C185 C 0.94169 0.49733 0.83402 0.0
C186 C 0.88984 0.45304 0.81841 0.0
C187 C 0.88203 0.40295 0.82153 0.0
C188 C 0.83309 0.35971 0.80957 0.0
C189 C 0.7907 0.36565 0.79444 0.0
C190 C 0.7993 0.4161 0.78918 0.0
C191 C 0.84872 0.45963 0.80108 0.0
H192 H 0.58985 0.08874 0.06553 0.0
H193 H 0.66658 0.17474 0.08378 0.0
H194 H 0.57381 0.24503 0.04787 0.0
H195 H 0.49739 0.15859 0.02838 0.0
H196 H 0.48226 0.04126 0.09984 0.0
H197 H 0.5808 0.10333 0.95673 0.0
H198 H 0.61661 0.16679 0.89744 0.0
H199 H 0.46239 0.14243 0.86057 0.0
H200 H 0.42692 0.07903 0.92073 0.0
H201 H 0.35133 0.8997 0.93285 0.0
H202 H 0.33027 0.81533 0.8964 0.0
H203 H 0.44714 0.81359 0.99151 0.0
H204 H 0.46837 0.89817 0.02739 0.0
H205 H 0.44042 0.98539 0.92911 0.0
H206 H 0.337 0.90536 0.05651 0.0
H207 H 0.30077 0.83963 0.11475 0.0
H208 H 0.45565 0.89914 0.18129 0.0
H209 H 0.49174 0.96429 0.12328 0.0
C210 C 0.5383 0.11763 0.04533 0.0
C211 C 0.58591 0.12273 0.06241 0.0
C212 C 0.62961 0.17175 0.07287 0.0
C213 C 0.62607 0.21644 0.06741 0.0
C214 C 0.57746 0.21116 0.05295 0.0
C215 C 0.53392 0.16198 0.04148 0.0
C216 C 0.49485 0.06559 0.02908 0.0
C217 C 0.47245 0.02891 0.06256 0.0
C218 C 0.48017 0.05019 0.98058 0.0
C219 C 0.5015 0.08742 0.94365 0.0
C220 C 0.55478 0.11177 0.93594 0.0
C221 C 0.57503 0.14764 0.90163 0.0
C222 C 0.54226 0.15957 0.87416 0.0
C223 C 0.48857 0.13399 0.88108 0.0
C224 C 0.46831 0.09797 0.91548 0.0
C225 C 0.41097 0.90514 0.98323 0.0
C226 C 0.37175 0.88074 0.94639 0.0
C227 C 0.35996 0.83255 0.92548 0.0
C228 C 0.38748 0.80797 0.94074 0.0
C229 C 0.42534 0.83151 0.97884 0.0
C230 C 0.43706 0.87967 0.99976 0.0
C231 C 0.43019 0.95993 0.99994 0.0
C232 C 0.4479 -0.00254 0.96651 0.0
C233 C 0.43953 0.9763 0.04854 0.0
C234 C 0.41709 0.93904 0.08526 0.0
C235 C 0.36298 0.90444 0.08397 0.0
C236 C 0.34228 0.86754 0.11748 0.0
C237 C 0.37565 0.8645 0.15207 0.0
C238 C 0.42936 0.90053 0.15453 0.0
C239 C 0.44993 0.93776 0.12154 0.0
H240 H 0.44319 0.37203 0.20116 0.0
H241 H 0.4742 0.33218 0.25841 0.0
H242 H 0.5793 0.48347 0.32733 0.0
H243 H 0.54821 0.5231 0.27038 0.0
H244 H 0.45802 0.51666 0.24183 0.0
H245 H 0.46562 0.38717 0.08073 0.0
H246 H 0.52453 0.35676 0.05603 0.0
H247 H 0.64573 0.46949 0.15683 0.0
H248 H 0.58725 0.50032 0.18043 0.0
H249 H 0.48073 0.6168 0.09539 0.0
H250 H 0.45137 0.64144 0.02386 0.0
H251 H 0.33896 0.47983 0.98678 0.0
H252 H 0.3679 0.45595 0.05798 0.0
H253 H 0.47332 0.47871 0.07346 0.0
H254 H 0.51849 0.62879 0.19664 0.0
H255 H 0.50474 0.70012 0.22158 0.0
H256 H 0.33752 0.59618 0.20424 0.0
H257 H 0.35192 0.52491 0.17857 0.0
C258 C 0.49398 0.45053 0.23129 0.0
C259 C 0.47234 0.39644 0.22911 0.0
C260 C 0.48976 0.37373 0.26188 0.0
C261 C 0.52962 0.40496 0.29664 0.0
C262 C 0.54926 0.45873 0.30024 0.0
C263 C 0.53123 0.48134 0.26802 0.0
C264 C 0.48025 0.47502 0.19333 0.0
C265 C 0.46077 0.50783 0.20498 0.0
C266 C 0.48794 0.4671 0.14566 0.0
C267 C 0.5217 0.44552 0.13284 0.0
C268 C 0.50474 0.405 0.09768 0.0
C269 C 0.53848 0.38767 0.0837 0.0
C270 C 0.58986 0.41076 0.10451 0.0
C271 C 0.60637 0.45069 0.14028 0.0
C272 C 0.57277 0.46811 0.15404 0.0
C273 C 0.42623 0.53449 0.08227 0.0
C274 C 0.44886 0.58693 0.07244 0.0
C275 C 0.43225 0.60093 0.03133 0.0
C276 C 0.39313 0.56262 0.9992 0.0
C277 C 0.3695 0.51044 1.01029 0.0
C278 C 0.38589 0.49663 0.05119 0.0
C279 C 0.44736 0.51739 0.12165 0.0
C280 C 0.46887 0.48604 0.11022 0.0
C281 C 0.4462 0.53063 0.16975 0.0
C282 C 0.43615 0.57229 0.18483 0.0
C283 C 0.47889 0.62148 0.1984 0.0
C284 C 0.47099 0.66195 0.21306 0.0
C285 C 0.42011 0.65364 0.21511 0.0
C286 C 0.37719 0.60353 0.20358 0.0
C287 C 0.38522 0.56306 0.18824 0.0
Mg288 Mg 0.60433 0.35179 0.37565 0.0
O289 O 0.59455 0.39446 0.44016 0.0
O290 O 0.63322 0.47878 0.42682 0.0
Mg291 Mg 0.66137 0.48931 0.35224 0.0
C292 C 0.60848 0.44138 0.45301 0.0
C293 C 0.61177 0.25974 0.41839 0.0
O294 O 0.6527 0.27771 0.39311 0.0
O295 O 0.69169 0.38705 0.39406 0.0
O296 O 0.72346 0.46865 0.37395 0.0
O297 O 0.52807 0.33733 0.34186 0.0
O298 O 0.60465 0.40697 0.33346 0.0
C299 C 0.72995 0.43218 0.38846 0.0
C300 C 0.55473 0.38247 0.32527 0.0
O301 O 0.58453 0.28185 0.41847 0.0
Mg302 Mg 0.26852 0.6585 0.63176 0.0
O303 O 0.21052 0.61843 0.56637 0.0
O304 O 0.1659 0.5335 0.57721 0.0
Mg305 Mg 0.18982 0.51993 0.65051 0.0
C306 C 0.17625 0.5718 0.55238 0.0
C307 C 0.35923 0.74771 0.57601 0.0
O308 O 0.38073 0.71848 0.57759 0.0
O309 O 0.31943 0.62451 0.61099 0.0
O310 O 0.27142 0.54167 0.62798 0.0
O311 O 0.20914 0.67048 0.66694 0.0
O312 O 0.21773 0.60153 0.67346 0.0
C313 C 0.31336 0.57932 0.61444 0.0
C314 C 0.1929 0.62544 0.6834 0.0
O315 O 0.31524 0.73245 0.59317 0.0
Mg316 Mg 0.61216 0.27587 0.7896 0.0
O317 O 0.59752 0.21924 0.72546 0.0
O318 O 0.63599 0.17381 0.74475 0.0
Mg319 Mg 0.66804 0.19556 0.82238 0.0
C320 C 0.61006 0.18499 0.71517 0.0
C321 C 0.61949 0.37418 0.75011 0.0
O322 O 0.65752 0.39477 0.78366 0.0
O323 O 0.69866 0.32586 0.77835 0.0
O324 O 0.73068 0.27788 0.80683 0.0
O325 O 0.53747 0.21746 0.819 0.0
O326 O 0.61434 0.22474 0.83565 0.0
C327 C 0.73716 0.32003 0.7909 0.0
C328 C 0.56512 0.20129 0.84127 0.0
O329 O 0.59255 0.32505 0.74327 0.0
Mg330 Mg 0.38228 0.66375 0.88146 0.0
O331 O 0.3938 0.62286 0.94508 0.0
O332 O 0.35206 0.53845 0.92165 0.0
Mg333 Mg 0.31903 0.52516 0.84503 0.0
C334 C 0.37857 0.5756 0.95303 0.0
C335 C 0.37797 0.75925 0.91553 0.0
O336 O 0.34411 0.7393 0.87859 0.0
O337 O 0.29691 0.63175 0.89444 0.0
O338 O 0.2596 0.54866 0.8672 0.0
O339 O 0.45531 0.67377 0.85005 0.0
O340 O 0.37666 0.60608 0.83419 0.0
C341 C 0.25669 0.58719 0.88472 0.0
C342 C 0.42561 0.62897 0.82751 0.0
O343 O 0.40343 0.73702 0.92765 0.0
Mg344 Mg 0.7253 0.39259 0.06758 0.0
O345 O 0.77801 0.40511 0.13583 0.0
O346 O 0.82022 0.36251 0.11888 0.0
Mg347 Mg 0.8007 0.32896 0.04211 0.0
C348 C 0.81016 0.38989 0.14763 0.0
C349 C 0.62674 0.39515 0.08716 0.0
O350 O 0.61279 0.36201 0.05012 0.0
O351 O 0.67043 0.30805 0.0792 0.0
O352 O 0.71578 0.27046 0.05647 0.0
O353 O 0.78717 0.46469 0.03868 0.0
O354 O 0.77869 0.38724 0.0264 0.0
C355 C 0.67392 0.26779 0.06993 0.0
C356 C 0.80376 0.4359 0.01964 0.0
O357 O 0.67332 0.41585 0.10559 0.0
Mg358 Mg 0.33138 0.74169 0.22688 0.0
O359 O 0.37951 0.79603 0.29243 0.0
O360 O 0.46161 0.84352 0.27203 0.0
Mg361 Mg 0.46596 0.82396 0.19423 0.0
C362 C 0.42729 0.83097 0.30233 0.0
C363 C 0.24102 0.64162 0.26324 0.0
O364 O 0.25564 0.62148 0.2293 0.0
O365 O 0.36837 0.69126 0.23412 0.0
O366 O 0.44705 0.74153 0.2073 0.0
O367 O 0.31285 0.80115 0.20072 0.0
O368 O 0.38202 0.79535 0.18366 0.0
C369 C 0.41223 0.69844 0.22153 0.0
C370 C 0.35629 0.81928 0.18023 0.0
O371 O 0.26523 0.69059 0.27168 0.0
loop_
_geom_bond_atom_site_label_1
_geom_bond_atom_site_label_2
_geom_bond_distance
_geom_bond_site_symmetry_2
_ccdc_geom_bond_type
H0 C19 0.949 . S
H1 C20 0.950 . S
H2 C22 0.950 . S
H3 C23 0.950 . S
H4 C25 0.950 . S
H5 C28 0.950 . S
H6 C29 0.950 . S
H7 C31 0.951 . S
H8 C32 0.949 . S
H9 C34 0.949 . S
H10 C35 0.950 . S
H11 C37 0.950 . S
H12 C38 0.950 . S
H13 C40 0.950 . S
H14 C43 0.950 . S
H15 C44 0.950 . S
H16 C46 0.951 . S
H17 C47 0.949 . S
C18 C19 1.376 . S
C18 C23 1.386 . S
C18 C24 1.483 . S
C19 H0 0.949 . S
C19 C18 1.376 . S
C19 C20 1.397 . S
C20 H1 0.950 . S
C20 C19 1.397 . S
C20 C21 1.391 . S
C21 C20 1.391 . S
C21 C22 1.405 . S
C22 H2 0.950 . S
C22 C21 1.405 . S
C22 C23 1.367 . S
C23 H3 0.950 . S
C23 C18 1.386 . S
C23 C22 1.367 . S
C24 C18 1.483 . S
C24 C25 1.382 1_655 S
C24 C26 1.403 . S
C25 H4 0.950 . S
C25 C24 1.382 1_455 S
C25 C41 1.411 . S
C26 C24 1.403 . S
C26 C27 1.489 . S
C26 C40 1.411 . S
C27 C26 1.489 . S
C27 C28 1.383 . S
C27 C32 1.382 . S
C28 H5 0.950 . S
C28 C27 1.383 . S
C28 C29 1.395 . S
C29 H6 0.950 . S
C29 C28 1.395 . S
C29 C30 1.288 . S
C30 C29 1.288 . S
C30 C31 1.392 . S
C31 H7 0.951 . S
C31 C30 1.392 . S
C31 C32 1.392 . S
C32 H8 0.949 . S
C32 C27 1.382 . S
C32 C31 1.392 . S
C33 C34 1.376 . S
C33 C38 1.386 . S
C33 C39 1.483 . S
C34 H9 0.949 . S
C34 C33 1.376 . S
C34 C35 1.397 . S
C35 H10 0.950 . S
C35 C34 1.397 . S
C35 C36 1.391 . S
C36 C35 1.391 . S
C36 C37 1.405 . S
C37 H11 0.950 . S
C37 C36 1.405 . S
C37 C38 1.367 . S
C38 H12 0.950 . S
C38 C33 1.386 . S
C38 C37 1.367 . S
C39 C33 1.483 . S
C39 C40 1.382 1_455 S
C39 C41 1.403 . S
C40 H13 0.950 . S
C40 C26 1.411 . S
C40 C39 1.382 1_655 S
C41 C25 1.411 . S
C41 C39 1.403 . S
C41 C42 1.489 . S
C42 C41 1.489 . S
C42 C43 1.383 . S
C42 C47 1.382 . S
C43 H14 0.950 . S
C43 C42 1.383 . S
C43 C44 1.395 . S
C44 H15 0.950 . S
C44 C43 1.395 . S
C44 C45 1.288 . S
C45 C44 1.288 . S
C45 C46 1.392 . S
C46 H16 0.951 . S
C46 C45 1.392 . S
C46 C47 1.392 . S
C47 H17 0.949 . S
C47 C42 1.382 . S
C47 C46 1.392 . S
H48 C67 0.949 . S
H49 C68 0.950 . S
H50 C70 0.950 . S
H51 C71 0.950 . S
H52 C73 0.950 . S
H53 C76 0.950 . S
H54 C77 0.950 . S
H55 C79 0.951 . S
H56 C80 0.949 . S
H57 C82 0.949 . S
H58 C83 0.950 . S
H59 C85 0.950 . S
H60 C86 0.950 . S
H61 C88 0.950 . S
H62 C91 0.950 . S
H63 C92 0.950 . S
H64 C94 0.951 . S
H65 C95 0.949 . S
C66 C67 1.376 . S
C66 C71 1.386 . S
C66 C72 1.483 . S
C67 H48 0.949 . S
C67 C66 1.376 . S
C67 C68 1.397 . S
C68 H49 0.950 . S
C68 C67 1.397 . S
C68 C69 1.391 . S
C69 C68 1.391 . S
C69 C70 1.405 . S
C70 H50 0.950 . S
C70 C69 1.405 . S
C70 C71 1.367 . S
C71 H51 0.950 . S
C71 C66 1.386 . S
C71 C70 1.367 . S
C72 C66 1.483 . S
C72 C73 1.382 . S
C72 C74 1.403 . S
C73 H52 0.950 . S
C73 C72 1.382 . S
C73 C89 1.411 1_565 S
C74 C72 1.403 . S
C74 C75 1.489 . S
C74 C88 1.411 1_565 S
C75 C74 1.489 . S
C75 C76 1.383 . S
C75 C80 1.382 . S
C76 H53 0.950 . S
C76 C75 1.383 . S
C76 C77 1.395 . S
C77 H54 0.950 . S
C77 C76 1.395 . S
C77 C78 1.288 . S
C78 C77 1.288 . S
C78 C79 1.392 . S
C79 H55 0.951 . S
C79 C78 1.392 . S
C79 C80 1.392 . S
C80 H56 0.949 . S
C80 C75 1.382 . S
C80 C79 1.392 . S
C81 C82 1.376 . S
C81 C86 1.386 . S
C81 C87 1.483 . S
C82 H57 0.949 . S
C82 C81 1.376 . S
C82 C83 1.397 . S
C83 H58 0.950 . S
C83 C82 1.397 . S
C83 C84 1.391 . S
C84 C83 1.391 . S
C84 C85 1.405 . S
C85 H59 0.950 . S
C85 C84 1.405 . S
C85 C86 1.367 . S
C86 H60 0.950 . S
C86 C81 1.386 . S
C86 C85 1.367 . S
C87 C81 1.483 . S
C87 C88 1.382 . S
C87 C89 1.403 . S
C88 H61 0.950 . S
C88 C74 1.411 1_545 S
C88 C87 1.382 . S
C89 C73 1.411 1_545 S
C89 C87 1.403 . S
C89 C90 1.489 . S
C90 C89 1.489 . S
C90 C91 1.383 . S
C90 C95 1.382 . S
C91 H62 0.950 . S
C91 C90 1.383 . S
C91 C92 1.395 . S
C92 H63 0.950 . S
C92 C91 1.395 . S
C92 C93 1.288 . S
C93 C92 1.288 . S
C93 C94 1.392 . S
C94 H64 0.951 . S
C94 C93 1.392 . S
C94 C95 1.392 . S
C95 H65 0.949 . S
C95 C90 1.382 . S
C95 C94 1.392 . S
H96 C115 0.949 . S
H97 C116 0.950 . S
H98 C118 0.950 . S
H99 C119 0.950 . S
H100 C121 0.950 . S
H101 C124 0.950 . S
H102 C125 0.950 . S
H103 C127 0.951 . S
H104 C128 0.949 . S
H105 C130 0.949 . S
H106 C131 0.950 . S
H107 C133 0.950 . S
H108 C134 0.950 . S
H109 C136 0.950 . S
H110 C139 0.950 . S
H111 C140 0.950 . S
H112 C142 0.951 . S
H113 C143 0.949 . S
C114 C115 1.376 . S
C114 C119 1.386 . S
C114 C120 1.483 . S
C115 H96 0.949 . S
C115 C114 1.376 . S
C115 C116 1.397 . S
C116 H97 0.950 . S
C116 C115 1.397 . S
C116 C117 1.391 . S
C117 C116 1.391 . S
C117 C118 1.405 . S
C118 H98 0.950 . S
C118 C117 1.405 . S
C118 C119 1.367 . S
C119 H99 0.950 . S
C119 C114 1.386 . S
C119 C118 1.367 . S
C120 C114 1.483 . S
C120 C121 1.382 . S
C120 C122 1.403 . S
C121 H100 0.950 . S
C121 C120 1.382 . S
C121 C137 1.411 . S
C122 C120 1.403 . S
C122 C123 1.489 . S
C122 C136 1.411 . S
C123 C122 1.489 . S
C123 C124 1.383 . S
C123 C128 1.382 . S
C124 H101 0.950 . S
C124 C123 1.383 . S
C124 C125 1.395 . S
C125 H102 0.950 . S
C125 C124 1.395 . S
C125 C126 1.288 . S
C126 C125 1.288 . S
C126 C127 1.392 . S
C127 H103 0.951 . S
C127 C126 1.392 . S
C127 C128 1.392 . S
C128 H104 0.949 . S
C128 C123 1.382 . S
C128 C127 1.392 . S
C129 C130 1.376 . S
C129 C134 1.386 . S
C129 C135 1.483 . S
C130 H105 0.949 . S
C130 C129 1.376 . S
C130 C131 1.397 . S
C131 H106 0.950 . S
C131 C130 1.397 . S
C131 C132 1.391 . S
C132 C131 1.391 . S
C132 C133 1.405 . S
C133 H107 0.950 . S
C133 C132 1.405 . S
C133 C134 1.367 . S
C134 H108 0.950 . S
C134 C129 1.386 . S
C134 C133 1.367 . S
C135 C129 1.483 . S
C135 C136 1.382 . S
C135 C137 1.403 . S
C136 H109 0.950 . S
C136 C122 1.411 . S
C136 C135 1.382 . S
C137 C121 1.411 . S
C137 C135 1.403 . S
C137 C138 1.489 . S
C138 C137 1.489 . S
C138 C139 1.383 . S
C138 C143 1.382 . S
C139 H110 0.950 . S
C139 C138 1.383 . S
C139 C140 1.395 . S
C140 H111 0.950 . S
C140 C139 1.395 . S
C140 C141 1.288 . S
C141 C140 1.288 . S
C141 C142 1.392 . S
C142 H112 0.951 . S
C142 C141 1.392 . S
C142 C143 1.392 . S
C143 H113 0.949 . S
C143 C138 1.382 . S
C143 C142 1.392 . S
H144 C163 0.949 . S
H145 C164 0.950 . S
H146 C166 0.950 . S
H147 C167 0.950 . S
H148 C169 0.950 . S
H149 C172 0.950 . S
H150 C173 0.950 . S
H151 C175 0.951 . S
H152 C176 0.949 . S
H153 C178 0.949 . S
H154 C179 0.950 . S
H155 C181 0.950 . S
H156 C182 0.950 . S
H157 C184 0.950 . S
H158 C187 0.950 . S
H159 C188 0.950 . S
H160 C190 0.951 . S
H161 C191 0.949 . S
C162 C163 1.376 . S
C162 C167 1.386 . S
C162 C168 1.483 . S
C163 H144 0.949 . S
C163 C162 1.376 . S
C163 C164 1.397 . S
C164 H145 0.950 . S
C164 C163 1.397 . S
C164 C165 1.391 . S
C165 C164 1.391 . S
C165 C166 1.405 . S
C166 H146 0.950 . S
C166 C165 1.405 . S
C166 C167 1.367 . S
C167 H147 0.950 . S
C167 C162 1.386 . S
C167 C166 1.367 . S
C168 C162 1.483 . S
C168 C169 1.382 1_455 S
C168 C170 1.403 . S
C169 H148 0.950 . S
C169 C168 1.382 1_655 S
C169 C185 1.411 . S
C170 C168 1.403 . S
C170 C171 1.489 . S
C170 C184 1.411 . S
C171 C170 1.489 . S
C171 C172 1.383 . S
C171 C176 1.382 . S
C172 H149 0.950 . S
C172 C171 1.383 . S
C172 C173 1.395 . S
C173 H150 0.950 . S
C173 C172 1.395 . S
C173 C174 1.288 . S
C174 C173 1.288 . S
C174 C175 1.392 . S
C175 H151 0.951 . S
C175 C174 1.392 . S
C175 C176 1.392 . S
C176 H152 0.949 . S
C176 C171 1.382 . S
C176 C175 1.392 . S
C177 C178 1.376 . S
C177 C182 1.386 . S
C177 C183 1.483 . S
C178 H153 0.949 . S
C178 C177 1.376 . S
C178 C179 1.397 . S
C179 H154 0.950 . S
C179 C178 1.397 . S
C179 C180 1.391 . S
C180 C179 1.391 . S
C180 C181 1.405 . S
C181 H155 0.950 . S
C181 C180 1.405 . S
C181 C182 1.367 . S
C182 H156 0.950 . S
C182 C177 1.386 . S
C182 C181 1.367 . S
C183 C177 1.483 . S
C183 C184 1.382 1_655 S
C183 C185 1.403 . S
C184 H157 0.950 . S
C184 C170 1.411 . S
C184 C183 1.382 1_455 S
C185 C169 1.411 . S
C185 C183 1.403 . S
C185 C186 1.489 . S
C186 C185 1.489 . S
C186 C187 1.383 . S
C186 C191 1.382 . S
C187 H158 0.950 . S
C187 C186 1.383 . S
C187 C188 1.395 . S
C188 H159 0.950 . S
C188 C187 1.395 . S
C188 C189 1.288 . S
C189 C188 1.288 . S
C189 C190 1.392 . S
C190 H160 0.951 . S
C190 C189 1.392 . S
C190 C191 1.392 . S
C191 H161 0.949 . S
C191 C186 1.382 . S
C191 C190 1.392 . S
H192 C211 0.949 . S
H193 C212 0.950 . S
H194 C214 0.950 . S
H195 C215 0.950 1_556 S
H196 C217 0.950 . S
H197 C220 0.950 . S
H198 C221 0.950 . S
H199 C223 0.951 . S
H200 C224 0.949 . S
H201 C226 0.949 . S
H202 C227 0.950 . S
H203 C229 0.950 . S
H204 C230 0.961 . S
H205 C232 0.947 1_565 S
H206 C235 0.950 . S
H207 C236 0.950 . S
H208 C238 0.951 . S
H209 C239 0.949 . S
C210 C211 1.376 . S
C210 C215 1.386 . S
C210 C216 1.487 . S
C211 H192 0.949 . S
C211 C210 1.376 . S
C211 C212 1.397 . S
C212 H193 0.950 . S
C212 C211 1.397 . S
C212 C213 1.391 . S
C213 C212 1.391 . S
C213 C214 1.405 . S
C214 H194 0.950 . S
C214 C213 1.405 . S
C214 C215 1.367 . S
C215 H195 0.950 1_554 S
C215 C210 1.386 . S
C215 C214 1.367 . S
C216 C210 1.487 . S
C216 C217 1.395 . S
C216 C218 1.386 1_554 S
C217 H196 0.950 . S
C217 C216 1.395 . S
C217 C233 1.411 1_545 S
C218 C216 1.386 1_556 S
C218 C219 1.489 . S
C218 C232 1.424 . S
C219 C218 1.489 . S
C219 C220 1.383 . S
C219 C224 1.382 . S
C220 H197 0.950 . S
C220 C219 1.383 . S
C220 C221 1.395 . S
C221 H198 0.950 . S
C221 C220 1.395 . S
C221 C222 1.288 . S
C222 C221 1.288 . S
C222 C223 1.392 . S
C223 H199 0.951 . S
C223 C222 1.392 . S
C223 C224 1.392 . S
C224 H200 0.949 . S
C224 C219 1.382 . S
C224 C223 1.392 . S
C225 C226 1.376 . S
C225 C230 1.386 . S
C225 C231 1.483 . S
C226 H201 0.949 . S
C226 C225 1.376 . S
C226 C227 1.397 . S
C227 H202 0.950 . S
C227 C226 1.397 . S
C227 C228 1.391 . S
C228 C227 1.391 . S
C228 C229 1.405 . S
C229 H203 0.950 . S
C229 C228 1.405 . S
C229 C230 1.367 . S
C230 H204 0.961 . S
C230 C225 1.386 . S
C230 C229 1.367 . S
C231 C225 1.483 . S
C231 C232 1.372 1_565 S
C231 C233 1.403 1_556 S
C232 H205 0.947 1_545 S
C232 C218 1.424 . S
C232 C231 1.372 1_545 S
C233 C217 1.411 1_565 S
C233 C231 1.403 1_554 S
C233 C234 1.489 . S
C234 C233 1.489 . S
C234 C235 1.383 . S
C234 C239 1.382 . S
C235 H206 0.950 . S
C235 C234 1.383 . S
C235 C236 1.395 . S
C236 H207 0.950 . S
C236 C235 1.395 . S
C236 C237 1.288 . S
C237 C236 1.288 . S
C237 C238 1.392 . S
C238 H208 0.951 . S
C238 C237 1.392 . S
C238 C239 1.392 . S
C239 H209 0.949 . S
C239 C234 1.382 . S
C239 C238 1.392 . S
H240 C259 0.949 . S
H241 C260 0.950 . S
H242 C262 0.950 . S
H243 C263 0.950 . S
H244 C265 0.950 . S
H245 C268 0.950 . S
H246 C269 0.950 . S
H247 C271 0.951 . S
H248 C272 0.949 . S
H249 C274 0.949 . S
H250 C275 0.950 1_556 S
H251 C277 0.950 . S
H252 C278 0.950 . S
H253 C280 0.950 . S
H254 C283 0.950 . S
H255 C284 0.950 . S
H256 C286 0.951 . S
H257 C287 0.949 . S
C258 C259 1.376 . S
C258 C263 1.386 . S
C258 C264 1.483 . S
C259 H240 0.949 . S
C259 C258 1.376 . S
C259 C260 1.397 . S
C260 H241 0.950 . S
C260 C259 1.397 . S
C260 C261 1.391 . S
C261 C260 1.391 . S
C261 C262 1.405 . S
C262 H242 0.950 . S
C262 C261 1.405 . S
C262 C263 1.367 . S
C263 H243 0.950 . S
C263 C258 1.386 . S
C263 C262 1.367 . S
C264 C258 1.483 . S
C264 C265 1.382 . S
C264 C266 1.403 . S
C265 H244 0.950 . S
C265 C264 1.382 . S
C265 C281 1.411 . S
C266 C264 1.403 . S
C266 C267 1.489 . S
C266 C280 1.411 . S
C267 C266 1.489 . S
C267 C268 1.383 . S
C267 C272 1.382 . S
C268 H245 0.950 . S
C268 C267 1.383 . S
C268 C269 1.395 . S
C269 H246 0.950 . S
C269 C268 1.395 . S
C269 C270 1.288 . S
C270 C269 1.288 . S
C270 C271 1.392 . S
C271 H247 0.951 . S
C271 C270 1.392 . S
C271 C272 1.392 . S
C272 H248 0.949 . S
C272 C267 1.382 . S
C272 C271 1.392 . S
C273 C274 1.376 . S
C273 C278 1.386 . S
C273 C279 1.483 . S
C274 H249 0.949 . S
C274 C273 1.376 . S
C274 C275 1.397 . S
C275 H250 0.950 1_554 S
C275 C274 1.397 . S
C275 C276 1.391 . S
C276 C275 1.391 . S
C276 C277 1.405 . S
C277 H251 0.950 . S
C277 C276 1.405 . S
C277 C278 1.367 . S
C278 H252 0.950 . S
C278 C273 1.386 . S
C278 C277 1.367 . S
C279 C273 1.483 . S
C279 C280 1.382 . S
C279 C281 1.403 . S
C280 H253 0.950 . S
C280 C266 1.411 . S
C280 C279 1.382 . S
C281 C265 1.411 . S
C281 C279 1.403 . S
C281 C282 1.489 . S
C282 C281 1.489 . S
C282 C283 1.383 . S
C282 C287 1.382 . S
C283 H254 0.950 . S
C283 C282 1.383 . S
C283 C284 1.395 . S
C284 H255 0.950 . S
C284 C283 1.395 . S
C284 C285 1.288 . S
C285 C284 1.288 . S
C285 C286 1.392 . S
C286 H256 0.951 . S
C286 C285 1.392 . S
C286 C287 1.392 . S
C287 H257 0.949 . S
C287 C282 1.382 . S
C287 C286 1.392 . S
Mg288 O289 2.028 . S
Mg288 O295 1.986 . S
Mg288 O297 2.114 . S
Mg288 O298 2.251 . S
Mg288 O301 2.010 . S
O289 Mg288 2.028 . S
O289 C292 1.250 . S
O290 Mg291 2.028 . S
O290 C292 1.248 . S
Mg291 O290 2.028 . S
Mg291 O296 2.032 . S
Mg291 O298 2.079 . S
C292 O289 1.250 . S
C292 O290 1.248 . S
C293 O294 1.264 . S
C293 O301 1.249 . S
O294 C293 1.264 . S
O295 Mg288 1.986 . S
O295 C299 1.246 . S
O296 Mg291 2.032 . S
O296 C299 1.259 . S
O297 Mg288 2.114 . S
O297 C300 1.252 . S
O298 Mg288 2.251 . S
O298 Mg291 2.079 . S
O298 C300 1.273 . S
C299 O295 1.246 . S
C299 O296 1.259 . S
C300 O297 1.252 . S
C300 O298 1.273 . S
O301 Mg288 2.010 . S
O301 C293 1.249 . S
Mg302 O303 2.028 . S
Mg302 O309 1.986 . S
Mg302 O311 2.114 . S
Mg302 O312 2.251 . S
Mg302 O315 2.010 . S
O303 Mg302 2.028 . S
O303 C306 1.250 . S
O304 Mg305 2.028 . S
O304 C306 1.248 . S
Mg305 O304 2.028 . S
Mg305 O310 2.032 . S
Mg305 O312 2.079 . S
C306 O303 1.250 . S
C306 O304 1.248 . S
C307 O308 1.264 . S
C307 O315 1.249 . S
O308 C307 1.264 . S
O309 Mg302 1.986 . S
O309 C313 1.246 . S
O310 Mg305 2.032 . S
O310 C313 1.259 . S
O311 Mg302 2.114 . S
O311 C314 1.252 . S
O312 Mg302 2.251 . S
O312 Mg305 2.079 . S
O312 C314 1.273 . S
C313 O309 1.246 . S
C313 O310 1.259 . S
C314 O311 1.252 . S
C314 O312 1.273 . S
O315 Mg302 2.010 . S
O315 C307 1.249 . S
Mg316 O317 2.028 . S
Mg316 O323 1.986 . S
Mg316 O325 2.114 . S
Mg316 O326 2.251 . S
Mg316 O329 2.010 . S
O317 Mg316 2.028 . S
O317 C320 1.250 . S
O318 Mg319 2.028 . S
O318 C320 1.248 . S
Mg319 O318 2.028 . S
Mg319 O324 2.032 . S
Mg319 O326 2.079 . S
C320 O317 1.250 . S
C320 O318 1.248 . S
C321 O322 1.264 . S
C321 O329 1.249 . S
O322 C321 1.264 . S
O323 Mg316 1.986 . S
O323 C327 1.246 . S
O324 Mg319 2.032 . S
O324 C327 1.259 . S
O325 Mg316 2.114 . S
O325 C328 1.252 . S
O326 Mg316 2.251 . S
O326 Mg319 2.079 . S
O326 C328 1.273 . S
C327 O323 1.246 . S
C327 O324 1.259 . S
C328 O325 1.252 . S
C328 O326 1.273 . S
O329 Mg316 2.010 . S
O329 C321 1.249 . S
Mg330 O331 2.028 . S
Mg330 O337 1.986 . S
Mg330 O339 2.114 . S
Mg330 O340 2.251 . S
Mg330 O343 2.010 . S
O331 Mg330 2.028 . S
O331 C334 1.250 . S
O332 Mg333 2.028 . S
O332 C334 1.248 . S
Mg333 O332 2.028 . S
Mg333 O338 2.032 . S
Mg333 O340 2.079 . S
C334 O331 1.250 . S
C334 O332 1.248 . S
C335 O336 1.264 . S
C335 O343 1.249 . S
O336 C335 1.264 . S
O337 Mg330 1.986 . S
O337 C341 1.246 . S
O338 Mg333 2.032 . S
O338 C341 1.259 . S
O339 Mg330 2.114 . S
O339 C342 1.252 . S
O340 Mg330 2.251 . S
O340 Mg333 2.079 . S
O340 C342 1.273 . S
C341 O337 1.246 . S
C341 O338 1.259 . S
C342 O339 1.252 . S
C342 O340 1.273 . S
O343 Mg330 2.010 . S
O343 C335 1.249 . S
Mg344 O345 2.028 . S
Mg344 O351 1.986 . S
Mg344 O353 2.114 . S
Mg344 O354 2.251 . S
Mg344 O357 2.010 . S
O345 Mg344 2.028 . S
O345 C348 1.250 . S
O346 Mg347 2.028 . S
O346 C348 1.248 . S
Mg347 O346 2.028 . S
Mg347 O352 2.032 . S
Mg347 O354 2.079 . S
C348 O345 1.250 . S
C348 O346 1.248 . S
C349 O350 1.264 . S
C349 O357 1.249 . S
O350 C349 1.264 . S
O351 Mg344 1.986 . S
O351 C355 1.246 . S
O352 Mg347 2.032 . S
O352 C355 1.259 . S
O353 Mg344 2.114 . S
O353 C356 1.252 . S
O354 Mg344 2.251 . S
O354 Mg347 2.079 . S
O354 C356 1.273 . S
C355 O351 1.246 . S
C355 O352 1.259 . S
C356 O353 1.252 . S
C356 O354 1.273 . S
O357 Mg344 2.010 . S
O357 C349 1.249 . S
Mg358 O359 2.028 . S
Mg358 O365 1.986 . S
Mg358 O367 2.114 . S
Mg358 O368 2.251 . S
Mg358 O371 2.010 . S
O359 Mg358 2.028 . S
O359 C362 1.250 . S
O360 Mg361 2.028 . S
O360 C362 1.248 . S
Mg361 O360 2.028 . S
Mg361 O366 2.032 . S
Mg361 O368 2.079 . S
C362 O359 1.250 . S
C362 O360 1.248 . S
C363 O364 1.264 . S
C363 O371 1.249 . S
O364 C363 1.264 . S
O365 Mg358 1.986 . S
O365 C369 1.246 . S
O366 Mg361 2.032 . S
O366 C369 1.259 . S
O367 Mg358 2.114 . S
O367 C370 1.252 . S
O368 Mg358 2.251 . S
O368 Mg361 2.079 . S
O368 C370 1.273 . S
C369 O365 1.246 . S
C369 O366 1.259 . S
C370 O367 1.252 . S
C370 O368 1.273 . S
O371 Mg358 2.010 . S
O371 C363 1.249 . S
C363 C45 1.833 . S
C84 C293 1.866 . S
C126 C313 2.093 . S
C189 C327 2.198 . S
C335 C228 1.737 . S
C270 C349 1.526 . S
C69 C307 1.725 . S
C141 C321 1.802 . S
C174 C341 1.960 . S
C355 C213 2.132 . S
C369 C285 2.286 . S
C299 C30 2.087 . S
C36 C306 1.637 . S
C93 C320 1.611 . S
C342 C117 1.520 . S
C180 C356 1.610 1_556 S
C370 C237 1.578 . S
C300 C261 1.515 . S
C362 C78 1.492 . S
C132 C292 1.620 . S
C314 C165 1.564 . S
C222 C328 1.483 . S
C276 C334 1.658 1_554 S
C21 C348 1.612 . S
