# Generated by pormake.
# Topology ptr, (4,4)-cn, num edge types: 1
# Building blocks:
#     Node 0, Type 0, BuildingBlock: QUQFOY_clean_sbu_3, # of connection points: 4
#     Node 1, Type 0, BuildingBlock: QUQFOY_clean_sbu_3, # of connection points: 4
#     Node 2, Type 0, BuildingBlock: QUQFOY_clean_sbu_3, # of connection points: 4
#     Node 3, Type 0, BuildingBlock: QUQFOY_clean_sbu_3, # of connection points: 4
#     Node 4, Type 0, BuildingBlock: QUQFOY_clean_sbu_3, # of connection points: 4
#     Node 5, Type 0, BuildingBlock: QUQFOY_clean_sbu_3, # of connection points: 4
#     Node 6, Type 0, BuildingBlock: QUQFOY_clean_sbu_3, # of connection points: 4
#     Node 7, Type 0, BuildingBlock: QUQFOY_clean_sbu_3, # of connection points: 4
#     Node 8, Type 0, BuildingBlock: QUQFOY_clean_sbu_3, # of connection points: 4
#     Node 9, Type 0, BuildingBlock: QUQFOY_clean_sbu_3, # of connection points: 4
#     Node 10, Type 0, BuildingBlock: QUQFOY_clean_sbu_3, # of connection points: 4
#     Node 11, Type 0, BuildingBlock: QUQFOY_clean_sbu_3, # of connection points: 4
#     Node 12, Type 0, BuildingBlock: QUQFOY_clean_sbu_3, # of connection points: 4
#     Node 13, Type 0, BuildingBlock: QUQFOY_clean_sbu_3, # of connection points: 4
#     Node 14, Type 0, BuildingBlock: QUQFOY_clean_sbu_3, # of connection points: 4
#     Node 15, Type 0, BuildingBlock: QUQFOY_clean_sbu_3, # of connection points: 4
#     Node 16, Type 0, BuildingBlock: QUQFOY_clean_sbu_3, # of connection points: 4
#     Node 17, Type 0, BuildingBlock: QUQFOY_clean_sbu_3, # of connection points: 4
#     Node 18, Type 1, BuildingBlock: KUFVIS_clean_linker_0, # of connection points: 4
#     Node 19, Type 1, BuildingBlock: KUFVIS_clean_linker_0, # of connection points: 4
#     Node 20, Type 1, BuildingBlock: KUFVIS_clean_linker_0, # of connection points: 4
#     Node 21, Type 1, BuildingBlock: KUFVIS_clean_linker_0, # of connection points: 4
#     Node 22, Type 1, BuildingBlock: KUFVIS_clean_linker_0, # of connection points: 4
#     Node 23, Type 1, BuildingBlock: KUFVIS_clean_linker_0, # of connection points: 4
#     Node 24, Type 1, BuildingBlock: KUFVIS_clean_linker_0, # of connection points: 4
#     Node 25, Type 1, BuildingBlock: KUFVIS_clean_linker_0, # of connection points: 4
#     Node 26, Type 1, BuildingBlock: KUFVIS_clean_linker_0, # of connection points: 4
#     Node 27, Type 1, BuildingBlock: KUFVIS_clean_linker_0, # of connection points: 4
#     Node 28, Type 1, BuildingBlock: KUFVIS_clean_linker_0, # of connection points: 4
#     Node 29, Type 1, BuildingBlock: KUFVIS_clean_linker_0, # of connection points: 4
#     Node 30, Type 1, BuildingBlock: KUFVIS_clean_linker_0, # of connection points: 4
#     Node 31, Type 1, BuildingBlock: KUFVIS_clean_linker_0, # of connection points: 4
#     Node 32, Type 1, BuildingBlock: KUFVIS_clean_linker_0, # of connection points: 4
#     Node 33, Type 1, BuildingBlock: KUFVIS_clean_linker_0, # of connection points: 4
#     Node 34, Type 1, BuildingBlock: KUFVIS_clean_linker_0, # of connection points: 4
#     Node 35, Type 1, BuildingBlock: KUFVIS_clean_linker_0, # of connection points: 4
#     Edge 36, Type (0, 1), BuildingBlock: OJICUG_clean_linker_0, # of connection points: 2
#     Edge 37, Type (0, 1), BuildingBlock: OJICUG_clean_linker_0, # of connection points: 2
#     Edge 38, Type (0, 1), BuildingBlock: OJICUG_clean_linker_0, # of connection points: 2
#     Edge 39, Type (0, 1), BuildingBlock: OJICUG_clean_linker_0, # of connection points: 2
#     Edge 40, Type (0, 1), BuildingBlock: OJICUG_clean_linker_0, # of connection points: 2
#     Edge 41, Type (0, 1), BuildingBlock: OJICUG_clean_linker_0, # of connection points: 2
#     Edge 42, Type (0, 1), BuildingBlock: OJICUG_clean_linker_0, # of connection points: 2
#     Edge 43, Type (0, 1), BuildingBlock: OJICUG_clean_linker_0, # of connection points: 2
#     Edge 44, Type (0, 1), BuildingBlock: OJICUG_clean_linker_0, # of connection points: 2
#     Edge 45, Type (0, 1), BuildingBlock: OJICUG_clean_linker_0, # of connection points: 2
#     Edge 46, Type (0, 1), BuildingBlock: OJICUG_clean_linker_0, # of connection points: 2
#     Edge 47, Type (0, 1), BuildingBlock: OJICUG_clean_linker_0, # of connection points: 2
#     Edge 48, Type (0, 1), BuildingBlock: OJICUG_clean_linker_0, # of connection points: 2
#     Edge 49, Type (0, 1), BuildingBlock: OJICUG_clean_linker_0, # of connection points: 2
#     Edge 50, Type (0, 1), BuildingBlock: OJICUG_clean_linker_0, # of connection points: 2
#     Edge 51, Type (0, 1), BuildingBlock: OJICUG_clean_linker_0, # of connection points: 2
#     Edge 52, Type (0, 1), BuildingBlock: OJICUG_clean_linker_0, # of connection points: 2
#     Edge 53, Type (0, 1), BuildingBlock: OJICUG_clean_linker_0, # of connection points: 2
#     Edge 54, Type (0, 1), BuildingBlock: OJICUG_clean_linker_0, # of connection points: 2
#     Edge 55, Type (0, 1), BuildingBlock: OJICUG_clean_linker_0, # of connection points: 2
#     Edge 56, Type (0, 1), BuildingBlock: OJICUG_clean_linker_0, # of connection points: 2
#     Edge 57, Type (0, 1), BuildingBlock: OJICUG_clean_linker_0, # of connection points: 2
#     Edge 58, Type (0, 1), BuildingBlock: OJICUG_clean_linker_0, # of connection points: 2
#     Edge 59, Type (0, 1), BuildingBlock: OJICUG_clean_linker_0, # of connection points: 2
#     Edge 60, Type (0, 1), BuildingBlock: OJICUG_clean_linker_0, # of connection points: 2
#     Edge 61, Type (0, 1), BuildingBlock: OJICUG_clean_linker_0, # of connection points: 2
#     Edge 62, Type (0, 1), BuildingBlock: OJICUG_clean_linker_0, # of connection points: 2
#     Edge 63, Type (0, 1), BuildingBlock: OJICUG_clean_linker_0, # of connection points: 2
#     Edge 64, Type (0, 1), BuildingBlock: OJICUG_clean_linker_0, # of connection points: 2
#     Edge 65, Type (0, 1), BuildingBlock: OJICUG_clean_linker_0, # of connection points: 2
#     Edge 66, Type (0, 1), BuildingBlock: OJICUG_clean_linker_0, # of connection points: 2
#     Edge 67, Type (0, 1), BuildingBlock: OJICUG_clean_linker_0, # of connection points: 2
#     Edge 68, Type (0, 1), BuildingBlock: OJICUG_clean_linker_0, # of connection points: 2
#     Edge 69, Type (0, 1), BuildingBlock: OJICUG_clean_linker_0, # of connection points: 2
#     Edge 70, Type (0, 1), BuildingBlock: OJICUG_clean_linker_0, # of connection points: 2
#     Edge 71, Type (0, 1), BuildingBlock: OJICUG_clean_linker_0, # of connection points: 2
#     Edge 72, Type (0, 1), BuildingBlock: OJICUG_clean_linker_0, # of connection points: 2
#     Edge 73, Type (0, 1), BuildingBlock: OJICUG_clean_linker_0, # of connection points: 2
#     Edge 74, Type (0, 1), BuildingBlock: OJICUG_clean_linker_0, # of connection points: 2
#     Edge 75, Type (0, 1), BuildingBlock: OJICUG_clean_linker_0, # of connection points: 2
#     Edge 76, Type (0, 1), BuildingBlock: OJICUG_clean_linker_0, # of connection points: 2
#     Edge 77, Type (0, 1), BuildingBlock: OJICUG_clean_linker_0, # of connection points: 2
#     Edge 78, Type (0, 1), BuildingBlock: OJICUG_clean_linker_0, # of connection points: 2
#     Edge 79, Type (0, 1), BuildingBlock: OJICUG_clean_linker_0, # of connection points: 2
#     Edge 80, Type (0, 1), BuildingBlock: OJICUG_clean_linker_0, # of connection points: 2
#     Edge 81, Type (0, 1), BuildingBlock: OJICUG_clean_linker_0, # of connection points: 2
#     Edge 82, Type (0, 1), BuildingBlock: OJICUG_clean_linker_0, # of connection points: 2
#     Edge 83, Type (0, 1), BuildingBlock: OJICUG_clean_linker_0, # of connection points: 2
#     Edge 84, Type (0, 1), BuildingBlock: OJICUG_clean_linker_0, # of connection points: 2
#     Edge 85, Type (0, 1), BuildingBlock: OJICUG_clean_linker_0, # of connection points: 2
#     Edge 86, Type (0, 1), BuildingBlock: OJICUG_clean_linker_0, # of connection points: 2
#     Edge 87, Type (0, 1), BuildingBlock: OJICUG_clean_linker_0, # of connection points: 2
#     Edge 88, Type (0, 1), BuildingBlock: OJICUG_clean_linker_0, # of connection points: 2
#     Edge 89, Type (0, 1), BuildingBlock: OJICUG_clean_linker_0, # of connection points: 2
#     Edge 90, Type (0, 1), BuildingBlock: OJICUG_clean_linker_0, # of connection points: 2
#     Edge 91, Type (0, 1), BuildingBlock: OJICUG_clean_linker_0, # of connection points: 2
#     Edge 92, Type (0, 1), BuildingBlock: OJICUG_clean_linker_0, # of connection points: 2
#     Edge 93, Type (0, 1), BuildingBlock: OJICUG_clean_linker_0, # of connection points: 2
#     Edge 94, Type (0, 1), BuildingBlock: OJICUG_clean_linker_0, # of connection points: 2
#     Edge 95, Type (0, 1), BuildingBlock: OJICUG_clean_linker_0, # of connection points: 2
#     Edge 96, Type (0, 1), BuildingBlock: OJICUG_clean_linker_0, # of connection points: 2
#     Edge 97, Type (0, 1), BuildingBlock: OJICUG_clean_linker_0, # of connection points: 2
#     Edge 98, Type (0, 1), BuildingBlock: OJICUG_clean_linker_0, # of connection points: 2
#     Edge 99, Type (0, 1), BuildingBlock: OJICUG_clean_linker_0, # of connection points: 2
#     Edge 100, Type (0, 1), BuildingBlock: OJICUG_clean_linker_0, # of connection points: 2
#     Edge 101, Type (0, 1), BuildingBlock: OJICUG_clean_linker_0, # of connection points: 2
#     Edge 102, Type (0, 1), BuildingBlock: OJICUG_clean_linker_0, # of connection points: 2
#     Edge 103, Type (0, 1), BuildingBlock: OJICUG_clean_linker_0, # of connection points: 2
#     Edge 104, Type (0, 1), BuildingBlock: OJICUG_clean_linker_0, # of connection points: 2
#     Edge 105, Type (0, 1), BuildingBlock: OJICUG_clean_linker_0, # of connection points: 2
#     Edge 106, Type (0, 1), BuildingBlock: OJICUG_clean_linker_0, # of connection points: 2
#     Edge 107, Type (0, 1), BuildingBlock: OJICUG_clean_linker_0, # of connection points: 2
# Relax obj value: 0.042
# Max RMSD: 0.108
# Mean RMSD: 0.079
data_MOF--net-ptr--node1-QUQFOY_clean_sbu_3--node2-KUFVIS_clean_linker_0--edge1-OJICUG_clean_linker_0
_symmetry_space_group_name_H-M    P1
_symmetry_Int_Tables_number       1
_symmetry_cell_setting            triclinic
loop_
_symmetry_equiv_pos_as_xyz
'x, y, z'
_cell_length_a     58.271743
_cell_length_b     58.652315
_cell_length_c     37.489175
_cell_angle_alpha  90.215839
_cell_angle_beta   89.886312
_cell_angle_gamma 120.54072
loop_
_atom_site_label
_atom_site_type_symbol
_atom_site_fract_x
_atom_site_fract_y
_atom_site_fract_z
_atom_type_partial_charge
C0 C 0.97803 0.33585 0.9823 0.0
O1 O 0.96757 0.34797 -0.00309 0.0
Cd2 Cd 0.99234 0.39319 0.01447 0.0
O3 O 1.00317 0.34766 0.97683 0.0
Cd4 Cd 0.04512 0.39135 -0.01134 0.0
C5 C 0.02448 0.42316 0.9347 0.0
O6 O 0.02838 0.3948 0.04543 0.0
O7 O 0.06415 0.43031 0.03024 0.0
O8 O 0.0618 0.3614 -0.00225 0.0
C9 C 0.04629 0.41804 0.05353 0.0
O10 O 1.00757 0.41888 0.95923 0.0
C11 C 0.086 0.3778 -0.00941 0.0
O12 O 0.04013 0.41399 0.93699 0.0
O13 O 0.09142 0.40069 0.98067 0.0
C14 C 0.62726 0.70761 0.98627 0.0
O15 O 0.60283 0.69523 0.97746 0.0
Cd16 Cd 0.57992 0.64907 0.96055 0.0
O17 O 0.64072 0.69599 0.98507 0.0
Cd18 Cd 0.63488 0.6523 0.96904 0.0
C19 C 0.59041 0.62327 0.03578 0.0
O20 O 0.60528 0.64077 0.91669 0.0
O21 O 0.6087 0.60916 0.94038 0.0
O22 O 0.68034 0.67493 0.94522 0.0
C23 C 0.59969 0.61684 0.91535 0.0
O24 O 0.57319 0.62436 0.01613 0.0
C25 C 0.68792 0.66126 0.96237 0.0
O26 O 0.61453 0.6337 0.02573 0.0
O27 O 0.67082 0.64336 0.98261 0.0
C28 C 0.31179 0.92144 0.9854 0.0
O29 O 0.32461 0.91025 0.97582 0.0
Cd30 Cd 0.37102 0.93484 0.95945 0.0
O31 O 0.3233 0.94661 -0.01328 0.0
Cd32 Cd 0.36718 0.98639 0.97542 0.0
C33 C 0.39769 0.96845 0.03715 0.0
O34 O 0.37746 0.97034 0.92073 0.0
O35 O 0.40953 0.00606 0.94392 0.0
O36 O 0.34352 0.00887 0.95652 0.0
C37 C 0.40128 0.98942 0.91859 0.0
O38 O 0.39618 0.95097 0.01545 0.0
C39 C 0.35766 0.02985 0.97454 0.0
O40 O 0.3871 0.98222 0.0297 0.0
O41 O 0.3761 0.03057 -0.00664 0.0
C42 C 0.92347 0.6191 0.01316 0.0
O43 O 0.91123 0.59481 0.02177 0.0
Cd44 Cd 0.9346 0.57197 0.03682 0.0
O45 O 0.94886 0.63239 0.01287 0.0
Cd46 Cd 0.98754 0.62679 0.02489 0.0
C47 C 0.96829 0.58082 0.95899 0.0
O48 O 0.97022 0.59857 0.07814 0.0
O49 O 1.0055 0.60201 0.05409 0.0
O50 O 0.01137 0.67276 0.04614 0.0
C51 C 0.9888 0.59327 0.07941 0.0
O52 O 0.95033 0.56414 0.97978 0.0
C53 C 0.03255 0.67976 0.02845 0.0
O54 O 0.98293 0.6049 0.96838 0.0
O55 O 0.03288 0.66216 0.00902 0.0
C56 C 0.33936 0.37105 0.01588 0.0
O57 O 0.35287 0.39366 0.00146 0.0
Cd58 Cd 0.39815 0.41272 0.98362 0.0
O59 O 0.34966 0.35661 0.02134 0.0
Cd60 Cd 0.39173 0.35571 0.01001 0.0
C61 C 0.42713 0.40861 0.06318 0.0
O62 O 0.39708 0.37677 0.95402 0.0
O63 O 0.4306 0.37295 0.96828 0.0
O64 O 0.3596 0.30941 -0.0003 0.0
C65 C 0.41977 0.38061 0.9458 0.0
O66 O 0.4239 0.42179 0.03872 0.0
C67 C 0.37463 0.30058 0.00859 0.0
O68 O 0.41615 0.3835 0.06106 0.0
O69 O 0.39767 0.31738 0.02008 0.0
C70 C 0.717 0.0931 0.00792 0.0
O71 O 0.70491 0.105 0.01758 0.0
Cd72 Cd 0.65871 0.08126 0.03551 0.0
O73 O 0.70498 0.06789 0.00819 0.0
Cd74 Cd 0.66091 0.02936 0.02345 0.0
C75 C 0.63013 0.04522 0.96001 0.0
O76 O 0.65087 0.04688 0.07741 0.0
O77 O 0.61832 0.01171 0.05374 0.0
O78 O 0.68364 0.00688 0.04612 0.0
C79 C 0.62675 0.02827 0.07918 0.0
O80 O 0.63238 0.06353 0.9807 0.0
C81 C 0.66957 0.98543 0.029 0.0
O82 O 0.64052 0.03138 0.9682 0.0
O83 O 0.65156 0.98443 0.0089 0.0
C84 C 0.64364 0.66871 0.31563 0.0
O85 O 0.63326 0.68096 0.33008 0.0
Cd86 Cd 0.65837 0.72619 0.34749 0.0
O87 O 0.66879 0.6804 0.3103 0.0
Cd88 Cd 0.7108 0.72397 0.32224 0.0
C89 C 0.69072 0.75594 0.26779 0.0
O90 O 0.69407 0.72746 0.37904 0.0
O91 O 0.72986 0.76293 0.36382 0.0
O92 O 0.72717 0.69379 0.33148 0.0
C93 C 0.71207 0.75065 0.38719 0.0
O94 O 0.6738 0.75184 0.29223 0.0
C95 C 0.75143 0.71009 0.32452 0.0
O96 O 0.70622 0.74662 0.2703 0.0
O97 O 0.75703 0.73304 0.31463 0.0
C98 C 0.29568 0.04083 0.32024 0.0
O99 O 0.27134 0.02843 0.31099 0.0
Cd100 Cd 0.24859 0.98233 0.29401 0.0
O101 O 0.3092 0.02926 0.31938 0.0
Cd102 Cd 0.3037 0.98567 0.30332 0.0
C103 C 0.2588 0.95649 0.36957 0.0
O104 O 0.2744 0.97425 0.25074 0.0
O105 O 0.27767 0.94257 0.27445 0.0
O106 O 0.34919 0.00861 0.27964 0.0
C107 C 0.26877 0.95031 0.24936 0.0
O108 O 0.24176 0.9577 0.34966 0.0
C109 C 0.35687 0.99497 0.29663 0.0
O110 O 0.28299 0.96686 0.35984 0.0
O111 O 0.33983 0.97695 0.31681 0.0
C112 C 0.97896 0.25615 0.31794 0.0
O113 O 0.99183 0.24505 0.30827 0.0
Cd114 Cd 0.0382 0.26973 0.29181 0.0
O115 O 0.99038 0.28132 0.31928 0.0
Cd116 Cd 0.03419 0.32117 0.30785 0.0
C117 C 0.06484 0.30338 0.36952 0.0
O118 O 0.04446 0.30518 0.25313 0.0
O119 O 0.07653 0.3409 0.27633 0.0
O120 O 0.01049 0.34359 0.28887 0.0
C121 C 0.06827 0.32428 0.25098 0.0
O122 O 0.06335 0.28591 0.34782 0.0
C123 C 0.0246 0.36459 0.30685 0.0
O124 O 0.05421 0.31712 0.3621 0.0
O125 O 0.04303 0.36534 0.32574 0.0
C126 C 0.592 0.9527 0.34592 0.0
O127 O 0.57963 0.92841 0.35451 0.0
Cd128 Cd 0.60274 0.90535 0.3696 0.0
O129 O 0.6174 0.96588 0.34574 0.0
Cd130 Cd 0.65592 0.96007 0.35806 0.0
C131 C 0.6367 0.91432 0.29191 0.0
O132 O 0.63822 0.93177 0.41115 0.0
O133 O 0.67352 0.93502 0.38744 0.0
O134 O 0.6797 0.00596 0.3796 0.0
C135 C 0.65669 0.92633 0.41262 0.0
O136 O 0.61859 0.89766 0.31257 0.0
C137 C 0.70098 0.01298 0.36216 0.0
O138 O 0.65146 0.93835 0.30144 0.0
O139 O 0.70139 0.99541 0.34273 0.0
C140 C 1.00471 0.70438 0.34997 0.0
O141 O 0.01795 0.727 0.33551 0.0
Cd142 Cd 0.06324 0.74636 0.31774 0.0
O143 O 0.01531 0.69022 0.35536 0.0
Cd144 Cd 0.05777 0.69014 0.34359 0.0
C145 C 0.0925 0.74273 0.39719 0.0
O146 O 0.06263 0.71084 0.28732 0.0
O147 O 0.09696 0.70864 0.3023 0.0
O148 O 0.02628 0.64368 0.33315 0.0
C149 C 0.08559 0.71533 0.27932 0.0
O150 O 0.08917 0.75586 0.37277 0.0
C151 C 0.04168 0.63525 0.34178 0.0
O152 O 0.08173 0.71765 0.39495 0.0
O153 O 0.06465 0.65234 0.35317 0.0
C154 C 0.38299 0.42533 0.34155 0.0
O155 O 0.37097 0.43728 0.35132 0.0
Cd156 Cd 0.32479 0.41365 0.36926 0.0
O157 O 0.3709 0.40012 0.34173 0.0
Cd158 Cd 0.32682 0.36163 0.35698 0.0
C159 C 0.29617 0.37776 0.29363 0.0
O160 O 0.31693 0.37919 0.41101 0.0
O161 O 0.28428 0.34409 0.38737 0.0
O162 O 0.34953 0.33914 0.37959 0.0
C163 C 0.2928 0.36063 0.41281 0.0
O164 O 0.29851 0.39607 0.31438 0.0
C165 C 0.33541 0.31768 0.36253 0.0
O166 O 0.30644 0.3638 0.30176 0.0
O167 O 0.3174 0.31667 0.34246 0.0
C168 C 0.31054 1.00185 0.6498 0.0
O169 O 0.30023 0.01413 0.66431 0.0
Cd170 Cd 0.32533 0.05932 0.68185 0.0
O171 O 0.33569 0.01348 0.64441 0.0
Cd172 Cd 0.37779 0.05701 0.65628 0.0
C173 C 0.35763 0.08911 0.60213 0.0
O174 O 0.36107 0.06043 0.71306 0.0
O175 O 0.3969 0.09592 0.69799 0.0
O176 O 0.39428 0.02689 0.66532 0.0
C177 C 0.37905 0.0836 0.72129 0.0
O178 O 0.34074 0.08499 0.62661 0.0
C179 C 0.4185 0.04323 0.65822 0.0
O180 O 0.37312 0.07976 0.60455 0.0
O181 O 0.42402 0.06617 0.64836 0.0
C182 C 0.96211 0.37539 0.65311 0.0
O183 O 0.93774 0.36284 0.64405 0.0
Cd184 Cd 0.91523 0.31674 0.627 0.0
O185 O 0.97579 0.36399 0.65207 0.0
Cd186 Cd 0.97048 0.3205 0.63595 0.0
C187 C 0.9258 0.29099 0.70232 0.0
O188 O 0.94103 0.30884 0.58346 0.0
O189 O 0.94463 0.27736 0.6072 0.0
O190 O 0.01592 0.34348 0.61206 0.0
C191 C 0.9356 0.28497 0.58212 0.0
O192 O 0.90861 0.29203 0.68253 0.0
C193 C 0.0237 0.32996 0.62916 0.0
O194 O 0.94999 0.30159 0.6925 0.0
O195 O 1.00674 0.31201 0.64949 0.0
C196 C 0.64345 0.58805 0.65173 0.0
O197 O 0.65626 0.57685 0.64216 0.0
Cd198 Cd 0.70269 0.60132 0.62593 0.0
O199 O 0.65499 0.61322 0.65316 0.0
Cd200 Cd 0.69899 0.6529 0.64207 0.0
C201 C 0.7293 0.6347 0.70377 0.0
O202 O 0.70929 0.63692 0.58734 0.0
O203 O 0.7414 0.6725 0.61077 0.0
O204 O 0.67566 0.67569 0.62309 0.0
C205 C 0.73315 0.65595 0.58533 0.0
O206 O 0.72779 0.61725 0.68201 0.0
C207 C 0.68985 0.69661 0.6412 0.0
O208 O 0.71876 0.64853 0.69636 0.0
O209 O 0.70814 0.69713 0.66016 0.0
C210 C 0.25662 0.28446 0.67936 0.0
O211 O 0.24411 0.26012 0.68769 0.0
Cd212 Cd 0.26708 0.23689 0.70277 0.0
O213 O 0.28201 0.29753 0.67943 0.0
Cd214 Cd 0.3203 0.2914 0.69188 0.0
C215 C 0.30126 0.24596 0.62532 0.0
O216 O 0.3024 0.26286 0.74481 0.0
O217 O 0.33767 0.26608 0.72105 0.0
O218 O 0.34418 0.33717 0.71389 0.0
C219 C 0.32084 0.25737 0.74622 0.0
O220 O 0.28306 0.22924 0.64582 0.0
C221 C 0.36547 0.34422 0.69646 0.0
O222 O 0.31601 0.26994 0.63506 0.0
O223 O 0.36585 0.32672 0.67684 0.0
C224 C 0.67272 0.03824 0.68222 0.0
O225 O 0.68608 0.06087 0.66781 0.0
Cd226 Cd 0.73141 0.08018 0.65006 0.0
O227 O 0.6832 0.02397 0.68765 0.0
Cd228 Cd 0.72552 0.02355 0.67619 0.0
C229 C 0.76055 0.07634 0.72956 0.0
O230 O 0.73081 0.04455 0.62006 0.0
O231 O 0.76465 0.04143 0.63489 0.0
O232 O 0.6938 0.97716 0.66569 0.0
C233 C 0.75368 0.04873 0.61212 0.0
O234 O 0.75727 0.08949 0.70512 0.0
C235 C 0.70898 0.96855 0.67468 0.0
O236 O 0.74967 0.05125 0.72739 0.0
O237 O 0.73194 0.98551 0.68626 0.0
C238 C 0.04877 0.75975 0.67581 0.0
O239 O 0.03664 0.77162 0.68541 0.0
Cd240 Cd 0.99043 0.74782 0.70334 0.0
O241 O 0.03678 0.73454 0.67614 0.0
Cd242 Cd 0.99275 0.69598 0.69141 0.0
C243 C 0.96191 0.71172 0.6279 0.0
O244 O 0.98256 0.71345 0.74532 0.0
O245 O 0.95012 0.67824 0.72156 0.0
O246 O 0.01546 0.67349 0.71411 0.0
C247 C 0.95845 0.69479 0.747 0.0
O248 O 0.96411 0.73003 0.64854 0.0
C249 C 1.00145 0.65208 0.69687 0.0
O250 O 0.97235 0.69794 0.63615 0.0
O251 O 0.98348 0.65111 0.67672 0.0
H252 H 0.27723 0.35809 0.13323 0.0
H253 H 0.21598 0.34704 0.05993 0.0
H254 H 0.21074 0.3627 0.17188 0.0
H255 H 0.16818 0.33467 0.16288 0.0
H256 H 0.11137 0.34084 0.09834 0.0
H257 H 0.18832 0.36415 0.05466 0.0
C258 C 0.25815 0.35657 0.1283 0.0
C259 C 0.24451 0.35982 0.15659 0.0
C260 C 0.24824 0.35249 0.09352 0.0
C261 C 0.22378 0.351 0.08685 0.0
C262 C 0.20931 0.35382 0.11516 0.0
C263 C 0.22061 0.35929 0.14979 0.0
C264 C 0.18208 0.34996 0.10948 0.0
C265 C 0.16339 0.34019 0.13768 0.0
C266 C 0.13819 0.33738 0.134 0.0
C267 C 0.13074 0.3426 0.10112 0.0
C268 C 0.1485 0.35171 0.07232 0.0
C269 C 0.17439 0.35598 0.07663 0.0
H270 H 0.65527 0.91766 0.12739 0.0
H271 H 0.67705 0.87269 0.05914 0.0
H272 H 0.6531 0.8487 0.16849 0.0
H273 H 0.68745 0.84124 0.16321 0.0
H274 H 0.67891 0.77341 0.10798 0.0
H275 H 0.65647 0.82434 0.05578 0.0
C276 C 0.65787 0.90077 0.1234 0.0
C277 C 0.65388 0.88395 0.15192 0.0
C278 C 0.66594 0.89674 0.09 0.0
C279 C 0.66987 0.87519 0.08469 0.0
C280 C 0.66555 0.85766 0.11315 0.0
C281 C 0.65677 0.86194 0.14635 0.0
C282 C 0.67137 0.83568 0.10974 0.0
C283 C 0.68178 0.82912 0.13932 0.0
C284 C 0.68397 0.80642 0.13926 0.0
C285 C 0.67804 0.79145 0.10794 0.0
C286 C 0.66869 0.79808 0.07746 0.0
C287 C 0.66498 0.82002 0.07861 0.0
H288 H 0.24365 0.90733 0.09943 0.0
H289 H 0.19385 0.83065 0.0527 0.0
H290 H 0.17886 0.8475 0.15993 0.0
H291 H 0.16747 0.80505 0.16683 0.0
H292 H 0.09988 0.73645 0.12334 0.0
H293 H 0.14685 0.80281 0.05515 0.0
C294 C 0.22612 0.8877 0.10091 0.0
C295 C 0.21201 0.87934 0.13293 0.0
C296 C 0.21954 0.87039 0.07184 0.0
C297 C 0.19816 0.84423 0.07475 0.0
C298 C 0.18302 0.83551 0.10644 0.0
C299 C 0.19012 0.85348 0.1353 0.0
C300 C 0.16064 0.80752 0.1102 0.0
C301 C 0.15517 0.79498 0.14386 0.0
C302 C 0.13298 0.76972 0.14859 0.0
C303 C 0.11717 0.75604 0.11942 0.0
C304 C 0.12212 0.76768 0.08581 0.0
C305 C 0.14379 0.79351 0.081 0.0
H306 H 0.37062 0.09645 0.88041 0.0
H307 H 0.34711 0.14125 0.9456 0.0
H308 H 0.36839 0.1618 0.83444 0.0
H309 H 0.33697 0.17238 0.83871 0.0
H310 H 0.33468 0.2332 0.89895 0.0
H311 H 0.36332 0.18669 0.94874 0.0
C312 C 0.36756 0.11314 0.88349 0.0
C313 C 0.36975 0.1283 0.85378 0.0
C314 C 0.35967 0.11783 0.9165 0.0
C315 C 0.35445 0.13861 0.92028 0.0
C316 C 0.35762 0.15504 0.89076 0.0
C317 C 0.36591 0.14987 0.85768 0.0
C318 C 0.35076 0.1764 0.89355 0.0
C319 C 0.34062 0.18308 0.86361 0.0
C320 C 0.33501 0.20366 0.86532 0.0
C321 C 0.33824 0.21675 0.89773 0.0
C322 C 0.348 0.21046 0.92793 0.0
C323 C 0.35471 0.19063 0.92569 0.0
H324 H 0.78219 0.10683 0.8884 0.0
H325 H 0.83556 0.18128 0.93865 0.0
H326 H 0.85133 0.16422 0.83213 0.0
H327 H 0.86139 0.20592 0.82436 0.0
H328 H 0.93068 0.27441 0.86472 0.0
H329 H 0.88237 0.21037 0.93595 0.0
C330 C 0.8008 0.12563 0.88802 0.0
C331 C 0.81569 0.13394 0.85658 0.0
C332 C 0.80826 0.14225 0.91805 0.0
C333 C 0.8308 0.16792 0.91623 0.0
C334 C 0.8465 0.1764 0.88497 0.0
C335 C 0.83923 0.15859 0.85604 0.0
C336 C 0.86927 0.20413 0.88064 0.0
C337 C 0.87455 0.21607 0.84661 0.0
C338 C 0.89705 0.24091 0.84055 0.0
C339 C 0.91376 0.2547 0.86908 0.0
C340 C 0.90839 0.24405 0.90347 0.0
C341 C 0.88611 0.21871 0.9094 0.0
H342 H 0.74614 0.65214 0.86456 0.0
H343 H 0.81002 0.66994 0.93709 0.0
H344 H 0.8144 0.65022 0.82667 0.0
H345 H 0.85717 0.68241 0.83579 0.0
H346 H 0.91425 0.67501 0.89835 0.0
H347 H 0.83653 0.64912 0.94178 0.0
C348 C 0.76549 0.65428 0.86963 0.0
C349 C 0.7794 0.65111 0.84163 0.0
C350 C 0.77625 0.66086 0.90391 0.0
C351 C 0.8014 0.66396 0.91072 0.0
C352 C 0.81573 0.66041 0.88281 0.0
C353 C 0.80405 0.65328 0.84849 0.0
C354 C 0.84336 0.66548 0.88838 0.0
C355 C 0.86224 0.67656 0.86054 0.0
C356 C 0.88768 0.67982 0.8639 0.0
C357 C 0.89492 0.67339 0.89615 0.0
C358 C 0.87677 0.66263 0.92449 0.0
C359 C 0.85087 0.65842 0.92043 0.0
H360 H 0.94269 0.69115 0.46773 0.0
H361 H 0.88109 0.67922 0.39448 0.0
H362 H 0.87585 0.69521 0.50628 0.0
H363 H 0.8333 0.66674 0.49734 0.0
H364 H 0.77625 0.67247 0.43273 0.0
H365 H 0.85334 0.69629 0.38916 0.0
C366 C 0.92351 0.68941 0.46279 0.0
C367 C 0.90982 0.69265 0.49104 0.0
C368 C 0.91352 0.68508 0.42804 0.0
C369 C 0.88895 0.68334 0.42137 0.0
C370 C 0.87444 0.68614 0.44965 0.0
C371 C 0.88579 0.69184 0.48424 0.0
C372 C 0.84713 0.68206 0.44395 0.0
C373 C 0.82844 0.67218 0.47213 0.0
C374 C 0.80317 0.6692 0.46843 0.0
C375 C 0.79567 0.67434 0.43553 0.0
C376 C 0.81345 0.68358 0.40675 0.0
C377 C 0.83939 0.68802 0.4111 0.0
H378 H 0.32034 0.24953 0.46077 0.0
H379 H 0.34344 0.20531 0.39314 0.0
H380 H 0.31896 0.18105 0.50227 0.0
H381 H 0.35365 0.17405 0.49748 0.0
H382 H 0.34641 0.10673 0.44234 0.0
H383 H 0.32341 0.15707 0.38969 0.0
C384 C 0.32323 0.2328 0.45692 0.0
C385 C 0.31929 0.21603 0.4855 0.0
C386 C 0.33164 0.22895 0.42368 0.0
C387 C 0.33598 0.20764 0.41856 0.0
C388 C 0.3317 0.19015 0.44705 0.0
C389 C 0.32259 0.19425 0.4801 0.0
C390 C 0.3379 0.16842 0.44381 0.0
C391 C 0.34828 0.162 0.47355 0.0
C392 C 0.35084 0.13951 0.47357 0.0
C393 C 0.34529 0.12463 0.44222 0.0
C394 C 0.33596 0.13113 0.41161 0.0
C395 C 0.3319 0.15285 0.41264 0.0
H396 H 0.91065 0.24182 0.43214 0.0
H397 H 0.86162 0.16484 0.38582 0.0
H398 H 0.84645 0.1816 0.49297 0.0
H399 H 0.83598 0.13943 0.50014 0.0
H400 H 0.7689 0.07 0.45742 0.0
H401 H 0.81463 0.13635 0.38863 0.0
C402 C 0.89329 0.22209 0.43371 0.0
C403 C 0.87927 0.21366 0.4658 0.0
C404 C 0.88689 0.20473 0.40472 0.0
C405 C 0.86578 0.17845 0.40778 0.0
C406 C 0.85075 0.16964 0.43954 0.0
C407 C 0.85764 0.18766 0.4683 0.0
C408 C 0.82876 0.14149 0.44354 0.0
C409 C 0.82369 0.12911 0.47727 0.0
C410 C 0.80187 0.10366 0.48221 0.0
C411 C 0.786 0.08967 0.45324 0.0
C412 C 0.79057 0.10117 0.41956 0.0
C413 C 0.81189 0.12717 0.41451 0.0
H414 H 0.03726 0.43087 0.21209 0.0
H415 H 0.01489 0.47639 0.2777 0.0
H416 H 0.03611 0.49691 0.16651 0.0
H417 H 1.00517 0.5081 0.17096 0.0
H418 H 1.00318 0.56881 0.23185 0.0
H419 H 0.03138 0.52176 0.28108 0.0
C420 C 0.03449 0.44774 0.21527 0.0
C421 C 0.03691 0.46305 0.18565 0.0
C422 C 0.02685 0.45258 0.24837 0.0
C423 C 0.02205 0.47363 0.2523 0.0
C424 C 0.02539 0.49018 0.22285 0.0
C425 C 0.03347 0.48487 0.18969 0.0
C426 C 0.01888 0.51177 0.22581 0.0
C427 C 0.00888 0.5187 0.19595 0.0
C428 C 1.00341 0.53937 0.19789 0.0
C429 C 1.00668 0.55234 0.23041 0.0
C430 C 0.01632 0.5458 0.26052 0.0
C431 C 0.02289 0.52589 0.25807 0.0
H432 H 0.44853 0.43895 0.22204 0.0
H433 H 0.50129 0.51358 0.27231 0.0
H434 H 0.51756 0.49676 0.16596 0.0
H435 H 0.52685 0.53831 0.15815 0.0
H436 H 0.59572 0.6073 0.19838 0.0
H437 H 0.54818 0.54298 0.26962 0.0
C438 C 0.46705 0.45783 0.2217 0.0
C439 C 0.48199 0.46624 0.19031 0.0
C440 C 0.4743 0.47445 0.25172 0.0
C441 C 0.4967 0.50021 0.24993 0.0
C442 C 0.51243 0.5088 0.21872 0.0
C443 C 0.5054 0.49101 0.18982 0.0
C444 C 0.53494 0.53665 0.21437 0.0
C445 C 0.53999 0.54859 0.18036 0.0
C446 C 0.56227 0.57359 0.17428 0.0
C447 C 0.57895 0.5875 0.20276 0.0
C448 C 0.5738 0.57682 0.23713 0.0
C449 C 0.55175 0.55135 0.24309 0.0
H450 H 0.41495 0.9863 0.19801 0.0
H451 H 0.47899 1.00398 0.27019 0.0
H452 H 0.48305 0.98428 0.15965 0.0
H453 H 0.52586 0.01633 0.16855 0.0
H454 H 0.58299 0.00873 0.23075 0.0
H455 H 0.50547 0.98319 0.27464 0.0
C456 C 0.43431 0.98844 0.20295 0.0
C457 C 0.44812 0.98523 0.17485 0.0
C458 C 0.44515 0.99497 0.23719 0.0
C459 C 0.47031 0.99804 0.24384 0.0
C460 C 0.48456 0.99449 0.21581 0.0
C461 C 0.47278 0.98738 0.18155 0.0
C462 C 0.51218 0.99948 0.22121 0.0
C463 C 0.53097 0.01047 0.19327 0.0
C464 C 0.55638 0.01362 0.19647 0.0
C465 C 0.56368 0.0072 0.22867 0.0
C466 C 0.54562 0.99653 0.25711 0.0
C467 C 0.51974 0.99242 0.25321 0.0
H468 H 0.61083 0.02515 0.79966 0.0
H469 H 0.54897 0.01309 0.72682 0.0
H470 H 0.54394 0.02888 0.83878 0.0
H471 H 0.50141 1.00039 0.83008 0.0
H472 H 0.44397 0.00579 0.76593 0.0
H473 H 0.52096 0.02987 0.7218 0.0
C474 C 0.59161 0.02336 0.79487 0.0
C475 C 0.57795 0.02648 0.82325 0.0
C476 C 0.58153 0.01905 0.76017 0.0
C477 C 0.55689 0.01721 0.75367 0.0
C478 C 0.5424 0.01989 0.78209 0.0
C479 C 0.55385 0.02559 0.81663 0.0
C480 C 0.51502 0.01569 0.7766 0.0
C481 C 0.49643 0.00578 0.80491 0.0
C482 C 0.4711 1.00268 0.8014 0.0
C483 C 0.46343 0.00775 0.76858 0.0
C484 C 0.4811 0.01702 0.73968 0.0
C485 C 0.50711 0.02158 0.74383 0.0
H486 H 0.98673 0.58388 0.79459 0.0
H487 H 0.00961 0.53965 0.72664 0.0
H488 H 0.98544 0.5154 0.83587 0.0
H489 H 0.01996 0.5082 0.8308 0.0
H490 H 0.01275 0.44108 0.77515 0.0
H491 H 0.98957 0.49147 0.72307 0.0
C492 C 0.9896 0.56714 0.79066 0.0
C493 C 0.98577 0.5504 0.81921 0.0
C494 C 0.99792 0.5633 0.75735 0.0
C495 C 1.00222 0.54198 0.75212 0.0
C496 C 0.99799 0.52447 0.78057 0.0
C497 C 0.98901 0.52859 0.81372 0.0
C498 C 1.00414 0.50271 0.77719 0.0
C499 C 0.01456 0.49622 0.80682 0.0
C500 C 0.01717 0.47375 0.80663 0.0
C501 C 0.01159 0.45895 0.77519 0.0
C502 C 1.00219 0.46551 0.74471 0.0
C503 C 0.9981 0.48721 0.74594 0.0
H504 H 0.57457 0.57394 0.76524 0.0
H505 H 0.52596 0.49683 0.71902 0.0
H506 H 0.51062 0.51345 0.82612 0.0
H507 H 0.50128 0.47154 0.83331 0.0
H508 H 0.43457 0.40139 0.79147 0.0
H509 H 0.47874 0.46788 0.72226 0.0
C510 C 0.55728 0.55417 0.76681 0.0
C511 C 0.54328 0.54567 0.79891 0.0
C512 C 0.551 0.53681 0.73784 0.0
C513 C 0.53001 0.51046 0.74093 0.0
C514 C 0.51504 0.50158 0.77271 0.0
C515 C 0.52179 0.51961 0.80143 0.0
C516 C 0.49342 0.47331 0.77689 0.0
C517 C 0.48889 0.46102 0.8106 0.0
C518 C 0.46749 0.43537 0.81577 0.0
C519 C 0.45144 0.42116 0.78705 0.0
C520 C 0.45546 0.4326 0.75338 0.0
C521 C 0.4764 0.45876 0.7481 0.0
H522 H 0.70357 0.76326 0.54663 0.0
H523 H 0.68123 0.80901 0.6118 0.0
H524 H 0.70282 0.8294 0.50068 0.0
H525 H 0.67198 0.84072 0.50483 0.0
H526 H 0.67025 0.90175 0.56523 0.0
H527 H 0.69793 0.85447 0.61506 0.0
C528 C 0.70087 0.78017 0.54968 0.0
C529 C 0.70339 0.79547 0.51999 0.0
C530 C 0.69316 0.78508 0.5827 0.0
C531 C 0.68845 0.8062 0.58649 0.0
C532 C 0.69195 0.82275 0.55698 0.0
C533 C 0.70007 0.81737 0.52391 0.0
C534 C 0.68555 0.84443 0.55976 0.0
C535 C 0.67568 0.85138 0.52977 0.0
C536 C 0.67036 0.87215 0.53152 0.0
C537 C 0.67361 0.88519 0.56397 0.0
C538 C 0.68311 0.87864 0.5942 0.0
C539 C 0.68954 0.85861 0.59195 0.0
H540 H 0.11376 0.77334 0.55618 0.0
H541 H 0.16738 0.84777 0.60631 0.0
H542 H 0.18309 0.83039 0.49994 0.0
H543 H 0.1935 0.87213 0.49196 0.0
H544 H 0.2631 0.94032 0.53223 0.0
H545 H 0.21421 0.87666 0.60366 0.0
C546 C 0.13241 0.79209 0.55578 0.0
C547 C 0.14733 0.8003 0.52436 0.0
C548 C 0.13994 0.80876 0.58578 0.0
C549 C 0.16257 0.83436 0.58393 0.0
C550 C 0.1783 0.84273 0.55268 0.0
C551 C 0.17097 0.82487 0.52382 0.0
C552 C 0.20121 0.87038 0.54831 0.0
C553 C 0.20665 0.88224 0.51421 0.0
C554 C 0.22933 0.90695 0.5081 0.0
C555 C 0.24604 0.92071 0.53664 0.0
C556 C 0.24051 0.91015 0.57109 0.0
C557 C 0.21806 0.88494 0.57706 0.0
H558 H 0.08204 0.32172 0.53022 0.0
H559 H 0.14531 0.33797 0.60308 0.0
H560 H 0.14952 0.31824 0.49262 0.0
H561 H 0.19245 0.34991 0.50189 0.0
H562 H 0.24865 0.34103 0.56441 0.0
H563 H 0.17118 0.31646 0.60774 0.0
C564 C 0.10122 0.32348 0.53535 0.0
C565 C 0.11494 0.31995 0.50742 0.0
C566 C 0.11188 0.32976 0.56971 0.0
C567 C 0.13677 0.33226 0.57664 0.0
C568 C 0.15094 0.32845 0.54876 0.0
C569 C 0.13932 0.32157 0.51439 0.0
C570 C 0.17836 0.33296 0.55439 0.0
C571 C 0.1973 0.34381 0.52662 0.0
C572 C 0.22251 0.34652 0.52997 0.0
C573 C 0.22949 0.33981 0.5622 0.0
C574 C 0.21128 0.32928 0.5905 0.0
C575 C 0.18558 0.32559 0.58642 0.0
C576 C 0.06266 0.45729 0.09495 0.0
C577 C 0.04401 0.43078 0.0863 0.0
H578 H 0.07492 0.4887 0.13355 0.0
C579 C 0.0225 0.41602 0.1094 0.0
H580 H 0.07933 0.46917 0.07745 0.0
C581 C 0.02 0.42711 0.14087 0.0
C582 C 0.03895 0.45324 0.15018 0.0
H583 H 1.00763 0.39566 0.10344 0.0
H584 H 1.00337 0.41505 0.15838 0.0
C585 C 0.06008 0.46851 0.12676 0.0
C586 C 0.55613 0.59757 0.08287 0.0
C587 C 0.58263 0.60981 0.07072 0.0
H588 H 0.52884 0.57644 0.12538 0.0
C589 C 0.60195 0.6092 0.0924 0.0
H590 H 0.54076 0.59762 0.06674 0.0
C591 C 0.59511 0.59706 0.12566 0.0
C592 C 0.56879 0.58524 0.13811 0.0
H593 H 0.62251 0.61824 0.08383 0.0
H594 H 0.61049 0.59693 0.14171 0.0
C595 C 0.54926 0.58531 0.11629 0.0
C596 C 0.41515 0.99384 0.09379 0.0
C597 C 0.41198 0.97317 0.07144 0.0
H598 H 0.42957 0.01408 0.14339 0.0
C599 C 0.42239 0.95727 0.08241 0.0
H600 H 0.40776 0.00672 0.08608 0.0
C601 C 0.43496 0.96154 0.11563 0.0
C602 C 0.43719 0.98167 0.13832 0.0
H603 H 0.42041 0.94129 0.06567 0.0
H604 H 0.44218 0.94864 0.12402 0.0
C605 C 0.42764 0.99806 0.12671 0.0
C606 C 0.44676 0.00922 0.89208 0.0
C607 C 0.41923 0.99127 0.88948 0.0
H608 H 0.48476 0.02651 0.86636 0.0
C609 C 0.40911 0.9755 0.85873 0.0
H610 H 0.45518 0.02151 0.91558 0.0
C611 C 0.42609 0.97841 0.83049 0.0
C612 C 0.45352 0.99687 0.83277 0.0
H613 H 0.38799 0.96142 0.85608 0.0
H614 H 0.41775 0.96658 0.80661 0.0
C615 C 0.46375 0.01189 0.86409 0.0
C616 C 0.00979 0.45071 0.90226 0.0
C617 C 0.02499 0.43825 0.90276 0.0
H618 H 0.99548 0.47158 0.87176 0.0
C619 C 0.03955 0.4395 0.87212 0.0
H620 H 0.99844 0.4503 0.92541 0.0
C621 C 0.03797 0.45197 0.84118 0.0
C622 C 0.02198 0.4636 0.8404 0.0
H623 H 0.05154 0.43021 0.87166 0.0
H624 H 0.04886 0.45208 0.81767 0.0
C625 C 1.00832 0.46322 0.87153 0.0
C626 C 0.57319 0.57108 0.89005 0.0
C627 C 0.58267 0.59834 0.88699 0.0
H628 H 0.55283 0.533 0.86481 0.0
C629 C 0.57641 0.60767 0.85621 0.0
H630 H 0.57748 0.56321 0.91357 0.0
C631 C 0.56222 0.59029 0.82826 0.0
C632 C 0.55375 0.5632 0.83072 0.0
H633 H 0.58326 0.62853 0.85318 0.0
H634 H 0.55856 0.59815 0.80422 0.0
C635 C 0.55878 0.55368 0.86229 0.0
C636 C 0.9573 0.54596 0.91195 0.0
C637 C 0.97251 0.57244 0.92349 0.0
H638 H 0.94947 0.5181 0.86965 0.0
C639 C 0.99214 0.5912 0.90071 0.0
H640 H 0.94207 0.53101 0.92893 0.0
C641 C 0.99634 0.58381 0.86714 0.0
C642 C 0.98099 0.55749 0.85532 0.0
H643 H 1.00438 0.61172 0.90873 0.0
H644 H 0.01185 0.59877 0.85045 0.0
C645 C 0.96157 0.53853 0.87814 0.0
C646 C 0.4224 0.40854 0.89471 0.0
C647 C 0.43392 0.39652 0.91425 0.0
H648 H 0.42469 0.4308 0.84852 0.0
C649 C 0.45841 0.39965 0.90297 0.0
H650 H 0.40372 0.40677 0.90287 0.0
C651 C 0.47051 0.41365 0.87163 0.0
C652 C 0.45824 0.42468 0.85167 0.0
H653 H 0.46775 0.39067 0.9177 0.0
H654 H 0.48876 0.41498 0.8623 0.0
C655 C 0.43446 0.42249 0.86379 0.0
C656 C 0.61199 0.01886 0.90406 0.0
C657 C 0.61533 0.0398 0.92602 0.0
H658 H 0.59705 0.998 0.85489 0.0
C659 C 0.60463 0.0554 0.91493 0.0
H660 H 0.61965 0.00622 0.91188 0.0
C661 C 0.59161 0.05063 0.88202 0.0
C662 C 0.58915 0.03023 0.85967 0.0
H663 H 0.60674 0.0716 0.93133 0.0
H664 H 0.58426 0.0634 0.87355 0.0
C665 C 0.59904 0.01413 0.87136 0.0
C666 C 0.58111 0.00929 0.10493 0.0
C667 C 0.60874 0.02655 0.10822 0.0
H668 H 0.54292 0.99209 0.1301 0.0
C669 C 0.61884 0.04142 0.1397 0.0
H670 H 0.57269 0.99769 0.0809 0.0
C671 C 0.60171 0.03816 0.16798 0.0
C672 C 0.57416 0.02025 0.16505 0.0
H673 H 0.64003 0.05495 0.14291 0.0
H674 H 0.61005 0.04918 0.19245 0.0
C675 C 0.564 0.00629 0.13296 0.0
C676 C 0.97396 0.57016 0.13836 0.0
C677 C 0.9906 0.57711 0.10831 0.0
H678 H 0.96464 0.55226 0.19013 0.0
C679 C 0.00959 0.56909 0.1065 0.0
H680 H 0.95902 0.57587 0.14043 0.0
C681 C 0.01262 0.55535 0.13477 0.0
C682 C 0.99688 0.54954 0.16557 0.0
H683 H 0.02259 0.57396 0.08358 0.0
H684 H 0.02819 0.55045 0.13325 0.0
C685 C 0.97714 0.5566 0.16677 0.0
C686 C 0.44382 0.40932 0.1253 0.0
C687 C 0.44331 0.42295 0.09479 0.0
H688 H 0.4569 0.41233 0.17948 0.0
C689 C 0.45769 0.45077 0.0951 0.0
H690 H 0.43307 0.38789 0.12585 0.0
C691 C 0.4713 0.46466 0.12559 0.0
C692 C 0.47091 0.45113 0.15665 0.0
H693 H 0.45792 0.46194 0.07202 0.0
H694 H 0.48108 0.48606 0.12528 0.0
C695 C 0.45742 0.42329 0.156 0.0
C696 C 0.68893 0.74831 0.4438 0.0
C697 C 0.71006 0.76327 0.42025 0.0
H698 H 0.67023 0.74713 0.49324 0.0
C699 C 0.72856 0.78985 0.42871 0.0
H700 H 0.67419 0.72788 0.43801 0.0
C701 C 0.72617 0.801 0.4607 0.0
C702 C 0.70539 0.78557 0.48453 0.0
H703 H 0.74494 0.80188 0.41086 0.0
H704 H 0.74085 0.8213 0.46727 0.0
C705 C 0.68662 0.75933 0.47546 0.0
C706 C 0.2697 0.94197 0.42634 0.0
C707 C 0.25068 0.94298 0.40446 0.0
H708 H 0.27767 0.92944 0.47585 0.0
C709 C 0.22416 0.93115 0.4164 0.0
H710 H 0.29026 0.95069 0.41794 0.0
C711 C 0.21697 0.91895 0.44983 0.0
C712 C 0.23619 0.9185 0.47188 0.0
H713 H 0.20903 0.93152 0.40012 0.0
H714 H 0.19655 0.91044 0.45876 0.0
C715 C 0.26253 0.92987 0.45962 0.0
C716 C 0.08257 0.32895 0.42598 0.0
C717 C 0.07913 0.30809 0.40381 0.0
H718 H 0.09711 0.34928 0.4755 0.0
C719 C 0.08922 0.29197 0.41499 0.0
H720 H 0.07543 0.34201 0.41809 0.0
C721 C 0.1017 0.29618 0.44827 0.0
C722 C 0.10418 0.31649 0.47079 0.0
H723 H 0.08703 0.27584 0.39839 0.0
H724 H 0.10864 0.28309 0.45683 0.0
C725 C 0.09498 0.33312 0.45895 0.0
C726 C 0.07609 0.31046 0.19105 0.0
C727 C 0.08623 0.32614 0.22188 0.0
H728 H 0.08476 0.30156 0.13893 0.0
C729 C 0.11377 0.344 0.22457 0.0
H730 H 0.05496 0.29645 0.18833 0.0
C731 C 0.13078 0.34663 0.19663 0.0
C732 C 0.12055 0.33168 0.16526 0.0
H733 H 0.12218 0.35623 0.24812 0.0
H734 H 0.15181 0.36115 0.19898 0.0
C735 C 0.0931 0.31334 0.16286 0.0
C736 C 0.70576 0.77183 0.20505 0.0
C737 C 0.6914 0.77099 0.23572 0.0
H738 H 0.71502 0.78405 0.15046 0.0
C739 C 0.67654 0.78379 0.2351 0.0
H740 H 0.71749 0.76225 0.20469 0.0
C741 C 0.67519 0.79625 0.20425 0.0
C742 C 0.68865 0.79624 0.1731 0.0
H743 H 0.66534 0.78369 0.25826 0.0
H744 H 0.6626 0.8049 0.2044 0.0
C745 C 0.7043 0.78425 0.17398 0.0
C746 C 0.24204 0.90456 0.22406 0.0
C747 C 0.25171 0.93186 0.22099 0.0
H748 H 0.22138 0.86648 0.19881 0.0
C749 C 0.24557 0.94129 0.19021 0.0
H750 H 0.24623 0.89663 0.24759 0.0
C751 C 0.23129 0.92396 0.16227 0.0
C752 C 0.2226 0.89683 0.16475 0.0
H753 H 0.25259 0.96219 0.18717 0.0
H754 H 0.22773 0.93189 0.13822 0.0
C755 C 0.22752 0.88721 0.19631 0.0
C756 C 0.62548 0.87955 0.24469 0.0
C757 C 0.64087 0.90597 0.25636 0.0
H758 H 0.61743 0.85175 0.20224 0.0
C759 C 0.66059 0.9247 0.23365 0.0
H760 H 0.61017 0.86462 0.26161 0.0
C761 C 0.6647 0.91733 0.2 0.0
C762 C 0.64918 0.89106 0.18807 0.0
H763 H 0.67296 0.94518 0.24177 0.0
H764 H 0.68028 0.93226 0.18336 0.0
C765 C 0.62967 0.87213 0.21082 0.0
C766 C 0.12506 0.73653 0.23783 0.0
C767 C 0.0993 0.73086 0.24731 0.0
H768 H 0.15643 0.7539 0.19865 0.0
C769 C 0.08616 0.74013 0.22564 0.0
H770 H 0.13568 0.72975 0.25424 0.0
C771 C 0.09799 0.7539 0.19455 0.0
C772 C 0.1232 0.7587 0.18429 0.0
H773 H 0.06644 0.73638 0.23233 0.0
H774 H 0.08708 0.7602 0.17783 0.0
C775 C 0.137 0.75045 0.20637 0.0
C776 C 0.27792 0.35152 0.23761 0.0
C777 C 0.28144 0.3725 0.2596 0.0
H778 H 0.26297 0.33081 0.18833 0.0
C779 C 0.27104 0.38836 0.24848 0.0
H780 H 0.28535 0.33869 0.24545 0.0
C781 C 0.25815 0.38379 0.21549 0.0
C782 C 0.25554 0.36335 0.1931 0.0
H783 H 0.27329 0.4046 0.26491 0.0
H784 H 0.25105 0.39676 0.20699 0.0
C785 C 0.2651 0.34699 0.20482 0.0
C786 C 0.24719 0.342 0.4385 0.0
C787 C 0.27485 0.35901 0.44187 0.0
H788 H 0.20899 0.32513 0.46354 0.0
C789 C 0.28503 0.37375 0.47344 0.0
H790 H 0.23871 0.33052 0.41439 0.0
C791 C 0.26793 0.3706 0.5017 0.0
C792 C 0.24034 0.35297 0.49865 0.0
H793 H 0.30626 0.38709 0.47672 0.0
H794 H 0.27632 0.38152 0.52623 0.0
C795 C 0.23011 0.33913 0.46649 0.0
C796 C 0.64146 0.90318 0.47149 0.0
C797 C 0.65824 0.91007 0.44159 0.0
H798 H 0.63181 0.88528 0.52325 0.0
C799 C 0.67712 0.9019 0.44002 0.0
H800 H 0.62659 0.90901 0.47337 0.0
C801 C 0.67991 0.8881 0.4684 0.0
C802 C 0.66404 0.88236 0.49906 0.0
H803 H 0.69022 0.90672 0.41722 0.0
H804 H 0.69541 0.88308 0.46708 0.0
C805 C 0.6444 0.88956 0.49999 0.0
C806 C 0.10896 0.74341 0.45942 0.0
C807 C 0.10857 0.75706 0.42887 0.0
H808 H 0.12192 0.74638 0.51366 0.0
C809 C 0.123 0.78487 0.42918 0.0
H810 H 0.09815 0.72197 0.45997 0.0
C811 C 0.13659 0.79874 0.45969 0.0
C812 C 0.13612 0.78519 0.49076 0.0
H813 H 0.1233 0.79606 0.40607 0.0
H814 H 0.14647 0.82015 0.45937 0.0
C815 C 0.12252 0.75736 0.49015 0.0
C816 C 0.35566 0.08122 0.77768 0.0
C817 C 0.37688 0.09621 0.75426 0.0
H818 H 0.33676 0.07999 0.82696 0.0
C819 C 0.39529 0.12282 0.76275 0.0
H820 H 0.34099 0.06077 0.77186 0.0
C821 C 0.39273 0.13394 0.79466 0.0
C822 C 0.37187 0.11847 0.81835 0.0
H823 H 0.41173 0.13487 0.745 0.0
H824 H 0.40735 0.15425 0.80128 0.0
C825 C 0.35319 0.09221 0.80925 0.0
C826 C 0.89136 0.26525 0.7492 0.0
C827 C 0.91787 0.27737 0.73715 0.0
H828 H 0.86391 0.24416 0.79157 0.0
C829 C 0.93706 0.27652 0.75884 0.0
H830 H 0.87609 0.2655 0.73306 0.0
C831 C 0.93006 0.26427 0.79202 0.0
C832 C 0.90373 0.25259 0.8044 0.0
H833 H 0.95762 0.28545 0.75034 0.0
H834 H 0.94534 0.26396 0.8081 0.0
C835 C 0.88434 0.2529 0.78255 0.0
C836 C 0.75381 0.62332 0.74909 0.0
C837 C 0.74354 0.63933 0.73808 0.0
H838 H 0.77342 0.61452 0.79078 0.0
C839 C 0.7468 0.66003 0.76043 0.0
H840 H 0.75176 0.6073 0.73234 0.0
C841 C 0.75922 0.66417 0.79339 0.0
C842 C 0.76862 0.64766 0.80503 0.0
H843 H 0.73951 0.67301 0.75269 0.0
H844 H 0.76121 0.68021 0.81007 0.0
C845 C 0.76632 0.6275 0.78235 0.0
C846 C 0.74103 0.64215 0.52542 0.0
C847 C 0.75113 0.65782 0.55627 0.0
H848 H 0.74975 0.63329 0.47332 0.0
C849 C 0.77866 0.67569 0.55901 0.0
H850 H 0.7199 0.62813 0.52267 0.0
C851 C 0.7957 0.67836 0.53107 0.0
C852 C 0.78551 0.66343 0.49968 0.0
H853 H 0.78705 0.68791 0.58256 0.0
H854 H 0.81672 0.69291 0.53345 0.0
C855 C 0.75806 0.64506 0.49725 0.0
C856 C 0.3729 0.10529 0.53956 0.0
C857 C 0.3583 0.10417 0.57009 0.0
H858 H 0.38237 0.11773 0.48508 0.0
C859 C 0.34319 0.11672 0.56935 0.0
H860 H 0.38483 0.09593 0.53929 0.0
C861 C 0.34184 0.12917 0.53849 0.0
C862 C 0.35554 0.12942 0.50747 0.0
H863 H 0.33179 0.1164 0.5924 0.0
H864 H 0.32905 0.13759 0.53853 0.0
C865 C 0.37146 0.11772 0.5085 0.0
C866 C 0.90921 0.23917 0.55688 0.0
C867 C 0.91863 0.26642 0.55376 0.0
H868 H 0.88887 0.20106 0.53171 0.0
C869 C 0.91236 0.27571 0.52295 0.0
H870 H 0.91351 0.23135 0.58043 0.0
C871 C 0.89819 0.25829 0.49503 0.0
C872 C 0.88976 0.23121 0.49756 0.0
H873 H 0.91919 0.29655 0.51987 0.0
H874 H 0.89452 0.26611 0.47096 0.0
C875 C 0.89481 0.22174 0.52916 0.0
C876 C 0.29045 0.2113 0.57806 0.0
C877 C 0.30559 0.23774 0.58977 0.0
H878 H 0.28283 0.18358 0.53565 0.0
C879 C 0.32524 0.2566 0.56711 0.0
H880 H 0.27521 0.19627 0.59494 0.0
C881 C 0.32956 0.24934 0.5335 0.0
C882 C 0.31432 0.22305 0.52156 0.0
H883 H 0.3374 0.2771 0.57525 0.0
H884 H 0.34509 0.26438 0.51692 0.0
C885 C 0.29486 0.20399 0.54424 0.0
C886 C 0.79291 0.06883 0.57023 0.0
C887 C 0.76779 0.0646 0.58052 0.0
H888 H 0.82391 0.08511 0.53046 0.0
C889 C 0.75568 0.07556 0.56 0.0
H890 H 0.80273 0.06071 0.58573 0.0
C891 C 0.7678 0.08953 0.52912 0.0
C892 C 0.79226 0.09283 0.518 0.0
H893 H 0.7365 0.07295 0.56738 0.0
H894 H 0.75761 0.09705 0.51315 0.0
C895 C 0.8051 0.0829 0.53896 0.0
C896 C 0.93647 0.72183 0.58263 0.0
C897 C 0.9471 0.7062 0.59391 0.0
H898 H 0.91618 0.72976 0.54105 0.0
C899 C 0.94368 0.68515 0.57214 0.0
H900 H 0.93863 0.7381 0.59889 0.0
C901 C 0.93075 0.68034 0.53941 0.0
C902 C 0.92096 0.69647 0.52752 0.0
H903 H 0.95129 0.67249 0.58011 0.0
H904 H 0.92871 0.66412 0.52309 0.0
C905 C 0.92346 0.71697 0.54969 0.0
C906 C 0.95032 0.70785 0.80747 0.0
C907 C 0.94034 0.693 0.77594 0.0
H908 H 0.94134 0.7155 0.86016 0.0
C909 C 0.91273 0.6757 0.77251 0.0
H910 H 0.9715 0.72141 0.81079 0.0
C911 C 0.89552 0.67261 0.80044 0.0
C912 C 0.90556 0.68654 0.83258 0.0
H913 H 0.9044 0.66413 0.74843 0.0
H914 H 0.87446 0.65838 0.79746 0.0
C915 C 0.93309 0.7045 0.83565 0.0
C916 C 0.34137 0.23305 0.77365 0.0
C917 C 0.32245 0.24117 0.77523 0.0
H918 H 0.35984 0.21442 0.80072 0.0
C919 C 0.30575 0.23433 0.80521 0.0
H920 H 0.35441 0.23783 0.75079 0.0
C921 C 0.30883 0.22083 0.83377 0.0
C922 C 0.32852 0.21371 0.83282 0.0
H923 H 0.29085 0.24012 0.80711 0.0
H924 H 0.29629 0.21659 0.85708 0.0
C925 C 0.3443 0.21937 0.80207 0.0
C926 C 0.79114 0.1185 0.76147 0.0
C927 C 0.77672 0.09069 0.76117 0.0
H928 H 0.81466 0.15379 0.79163 0.0
C929 C 0.77724 0.07705 0.79165 0.0
H930 H 0.79135 0.12968 0.73841 0.0
C931 C 0.79091 0.09101 0.82233 0.0
C932 C 0.80446 0.11884 0.82296 0.0
H933 H 0.76646 0.05561 0.79221 0.0
H934 H 0.7904 0.08003 0.84579 0.0
C935 C 0.80482 0.13238 0.79194 0.0
C936 C 0.09986 0.34493 0.00336 0.0
C937 C 0.10687 0.37151 -0.00049 0.0
H938 H 0.10879 0.31776 0.02881 0.0
C939 C 0.13202 0.39151 0.01156 0.0
H940 H 0.08072 0.32912 -0.00596 0.0
C941 C 0.14813 0.38494 0.03161 0.0
C942 C 0.13932 0.35834 0.03935 0.0
H943 H 0.13793 0.41218 0.00896 0.0
H944 H 0.16585 0.40062 0.04435 0.0
C945 C 0.11603 0.33841 0.02298 0.0
C946 C 0.66637 0.748 0.01228 0.0
C947 C 0.63936 0.73443 0.00236 0.0
H948 H 0.69702 0.77939 0.04329 0.0
C949 C 0.62348 0.74524 0.01202 0.0
H950 H 0.67929 0.74048 0.00493 0.0
C951 C 0.63376 0.7677 0.03399 0.0
C952 C 0.66006 0.77967 0.0466 0.0
H953 H 0.60263 0.73539 0.00464 0.0
H954 H 0.62055 0.77438 0.04334 0.0
C955 C 0.67659 0.77036 0.03417 0.0
C956 C 0.27426 0.87913 0.01015 0.0
C957 C 0.28429 0.90546 -0.0008 0.0
H958 H 0.24516 0.84698 0.04184 0.0
C959 C 0.26917 0.91753 0.00588 0.0
H960 H 0.28536 0.86921 0.00516 0.0
C961 C 0.24605 0.90467 0.02639 0.0
C962 C 0.2377 0.87957 0.04078 0.0
H963 H 0.27608 0.93761 -0.00276 0.0
H964 H 0.23586 0.91521 0.03343 0.0
C965 C 0.25112 0.86629 0.03091 0.0
C966 C 0.3319 0.0508 0.95388 0.0
C967 C 0.35474 0.05334 0.97026 0.0
H968 H 0.31509 0.07046 0.92546 0.0
C969 C 0.37627 0.07885 0.97766 0.0
H970 H 0.31489 0.03142 0.94821 0.0
C971 C 0.37632 0.10122 0.96462 0.0
C972 C 0.35466 0.09836 0.94465 0.0
H973 H 0.39411 0.08143 -0.0096 0.0
H974 H 0.39438 0.12038 0.96673 0.0
C975 C 0.3318 0.07317 0.9414 0.0
C976 C 0.97069 0.29602 0.94766 0.0
C977 C 0.96043 0.30844 0.96914 0.0
H978 H 0.96172 0.26475 0.91048 0.0
C979 C 0.93272 0.29543 0.97508 0.0
H980 H 0.99191 0.30526 0.94289 0.0
C981 C 0.91549 0.27199 0.95688 0.0
C982 C 0.92569 0.26125 0.93247 0.0
H983 H 0.92415 0.30422 -0.00805 0.0
H984 H 0.89417 0.26373 0.95932 0.0
C985 C 0.95345 0.27265 0.92942 0.0
C986 C 0.71941 0.64397 0.96491 0.0
C987 C 0.71454 0.6645 0.95641 0.0
H988 H 0.74405 0.62709 0.95526 0.0
C989 C 0.73432 0.68685 0.93837 0.0
H990 H 0.70459 0.62655 0.97896 0.0
C991 C 0.75718 0.68742 0.9258 0.0
C992 C 0.76053 0.66556 0.9307 0.0
H993 H 0.7313 0.70312 0.93184 0.0
H994 H 0.77084 0.70372 0.90896 0.0
C995 C 0.74218 0.64441 0.95186 0.0
C996 C 0.88209 0.6154 -0.0132 0.0
C997 C 0.90851 0.63128 -0.00119 0.0
H998 H 0.85095 0.61318 0.95378 0.0
C999 C 0.92177 0.65866 -0.00757 0.0
H1000 H 0.87125 0.59426 -0.00853 0.0
C1001 C 0.91 0.66946 0.9713 0.0
C1002 C 0.88481 0.6531 0.95595 0.0
H1003 H 0.94195 0.67153 0.00179 0.0
H1004 H 0.92147 0.69029 0.9646 0.0
C1005 C 0.87034 0.62624 0.96543 0.0
C1006 C 0.3402 0.25448 -0.00745 0.0
C1007 C 0.36701 0.27307 -0.00025 0.0
H1008 H 0.31298 0.21897 0.96474 0.0
C1009 C 0.38665 0.26676 -0.00887 0.0
H1010 H 0.32462 0.25867 -0.00071 0.0
C1011 C 0.37993 0.24395 0.97116 0.0
C1012 C 0.35353 0.22724 0.95996 0.0
H1013 H 0.40748 0.28072 -0.00356 0.0
H1014 H 0.39572 0.24099 0.9613 0.0
C1015 C 0.3335 0.23169 0.97294 0.0
C1016 C 0.75496 0.13478 0.98201 0.0
C1017 C 0.74411 0.1082 -0.00762 0.0
H1018 H 0.78441 0.16677 0.95033 0.0
C1019 C 0.75802 0.09514 0.98381 0.0
H1020 H 0.74482 0.14547 -0.01162 0.0
C1021 C 0.78074 0.10744 0.96243 0.0
C1022 C 0.79002 0.13302 0.9491 0.0
H1023 H 0.75049 0.07482 -0.00819 0.0
H1024 H 0.78999 0.09624 0.95417 0.0
C1025 C 0.77775 0.1471 0.96046 0.0
C1026 C 0.69425 0.96459 0.05416 0.0
C1027 C 0.67219 0.96194 0.03534 0.0
H1028 H 0.70999 0.94502 0.08505 0.0
C1029 C 0.65115 0.93638 0.0269 0.0
H1030 H 0.71088 0.984 0.06074 0.0
C1031 C 0.65075 0.91403 0.04077 0.0
C1032 C 0.67157 0.91696 0.06271 0.0
H1033 H 0.63392 0.93369 0.0123 0.0
H1034 H 0.63302 0.89476 0.03736 0.0
C1035 C 0.69397 0.94227 0.0676 0.0
C1036 C 0.08204 0.71054 0.02583 0.0
C1037 C 0.05648 0.70634 0.03317 0.0
H1038 H 0.12395 0.73467 0.03636 0.0
C1039 C 0.05423 0.72677 0.04929 0.0
H1040 H 0.0844 0.69519 0.01328 0.0
C1041 C 0.07694 0.74969 0.06136 0.0
C1042 C 0.10221 0.75239 0.05802 0.0
H1043 H 0.03483 0.72425 0.05488 0.0
H1044 H 0.07445 0.76387 0.077 0.0
C1045 C 0.10476 0.73333 0.03849 0.0
C1046 C 0.30073 0.37831 0.02304 0.0
C1047 C 0.3121 0.36241 0.02878 0.0
H1048 H 0.2705 0.38694 0.03868 0.0
C1049 C 0.29821 0.33956 0.04978 0.0
H1050 H 0.31068 0.39583 0.00653 0.0
C1051 C 0.27505 0.33438 0.06775 0.0
C1052 C 0.26533 0.35187 0.0649 0.0
H1053 H 0.30617 0.32668 0.05435 0.0
H1054 H 0.266 0.31798 0.08628 0.0
C1055 C 0.27748 0.37305 0.04097 0.0
C1056 C 0.76491 0.677 0.33769 0.0
C1057 C 0.77214 0.70362 0.33365 0.0
H1058 H 0.77354 0.6497 0.36341 0.0
C1059 C 0.79734 0.72353 0.34569 0.0
H1060 H 0.74573 0.66125 0.32837 0.0
C1061 C 0.81329 0.71685 0.36588 0.0
C1062 C 0.80428 0.69023 0.3738 0.0
H1063 H 0.80341 0.74422 0.34294 0.0
H1064 H 0.83107 0.73248 0.37857 0.0
C1065 C 0.78092 0.67036 0.35747 0.0
C1066 C 0.33446 0.08125 0.34676 0.0
C1067 C 0.30755 0.0676 0.3364 0.0
H1068 H 0.36476 0.11268 0.37811 0.0
C1069 C 0.29149 0.07831 0.34565 0.0
H1070 H 0.34751 0.07381 0.33971 0.0
C1071 C 0.30148 0.10071 0.36766 0.0
C1072 C 0.32767 0.11276 0.38071 0.0
H1073 H 0.27071 0.06839 0.33793 0.0
H1074 H 0.28812 0.10729 0.3767 0.0
C1075 C 0.3444 0.10358 0.36866 0.0
C1076 C 0.94162 0.21378 0.3428 0.0
C1077 C 0.9515 0.24007 0.33184 0.0
H1078 H 0.9127 0.18157 0.37458 0.0
C1079 C 0.93628 0.25203 0.33863 0.0
H1080 H 0.95279 0.20394 0.33774 0.0
C1081 C 0.91321 0.23908 0.35923 0.0
C1082 C 0.90503 0.21401 0.37362 0.0
H1083 H 0.94308 0.27208 0.32999 0.0
H1084 H 0.90294 0.24953 0.36632 0.0
C1085 C 0.91854 0.20084 0.36366 0.0
C1086 C 0.04323 0.41359 0.30987 0.0
C1087 C 0.02171 0.38809 0.30243 0.0
H1088 H 0.0614 0.45511 0.29887 0.0
C1089 C 0.99893 0.38555 0.28585 0.0
H1090 H 0.06102 0.41618 0.32277 0.0
C1091 C 0.9989 0.40791 0.27321 0.0
C1092 C 0.02176 0.4331 0.27653 0.0
H1093 H 0.98193 0.36617 0.28013 0.0
H1094 H 0.98225 0.4052 0.25713 0.0
C1095 C 0.04334 0.43596 0.2967 0.0
C1096 C 0.63617 0.62879 0.28111 0.0
C1097 C 0.62597 0.64131 0.30254 0.0
H1098 H 0.6271 0.59743 0.24405 0.0
C1099 C 0.59827 0.62837 0.30849 0.0
H1100 H 0.65738 0.63798 0.27632 0.0
C1101 C 0.58099 0.60491 0.29039 0.0
C1102 C 0.59114 0.59406 0.26606 0.0
H1103 H 0.58976 0.63725 0.32531 0.0
H1104 H 0.55968 0.59669 0.29284 0.0
C1105 C 0.61888 0.6054 0.26296 0.0
C1106 C 0.40318 0.02072 0.27238 0.0
C1107 C 0.38353 0.99832 0.29047 0.0
H1108 H 0.43956 0.03772 0.24263 0.0
C1109 C 0.38852 0.97784 0.29873 0.0
H1110 H 0.40007 0.03696 0.26601 0.0
C1111 C 0.41127 0.97838 0.2854 0.0
C1112 C 0.42948 0.99957 0.26417 0.0
H1113 H 0.3738 0.96038 0.31281 0.0
H1114 H 0.41323 0.96109 0.28863 0.0
C1115 C 0.42602 0.02139 0.25951 0.0
C1116 C 0.59063 0.99238 0.32488 0.0
C1117 C 0.5772 0.96502 0.33146 0.0
H1118 H 0.59054 0.02405 0.29688 0.0
C1119 C 0.55072 0.94926 0.31959 0.0
H1120 H 0.61086 1.00516 0.33413 0.0
C1121 C 0.53906 0.96017 0.29819 0.0
C1122 C 0.55368 0.98699 0.28853 0.0
H1123 H 0.53975 0.92813 0.32441 0.0
H1124 H 0.51961 0.94718 0.28667 0.0
C1125 C 0.57895 1.00325 0.30372 0.0
C1126 C 1.0078 0.58895 0.3258 0.0
C1127 C 0.03454 0.60789 0.3328 0.0
H1128 H 0.98091 0.5533 0.29797 0.0
C1129 C 0.05447 0.60207 0.32384 0.0
H1130 H 0.992 0.59276 0.33279 0.0
C1131 C 0.04807 0.57941 0.30375 0.0
C1132 C 0.02168 0.56234 0.29276 0.0
H1133 H 0.07526 0.61632 0.32899 0.0
H1134 H 0.06403 0.57683 0.2936 0.0
C1135 C 1.00142 0.56629 0.30605 0.0
C1136 C 0.42393 0.42726 0.31732 0.0
C1137 C 0.41009 0.44038 0.32598 0.0
H1138 H 0.45585 0.42832 0.28765 0.0
C1139 C 0.42099 0.46698 0.31568 0.0
H1140 H 0.41635 0.40693 0.32528 0.0
C1141 C 0.44377 0.47927 0.29412 0.0
C1142 C 0.45598 0.46515 0.28268 0.0
H1143 H 0.41091 0.47771 0.32212 0.0
H1144 H 0.45049 0.49897 0.28406 0.0
C1145 C 0.44664 0.43954 0.29594 0.0
C1146 C 0.31694 0.26862 0.3605 0.0
C1147 C 0.338 0.29417 0.36891 0.0
H1148 H 0.29874 0.227 0.37101 0.0
C1149 C 0.36003 0.2968 0.38778 0.0
H1150 H 0.29973 0.26595 0.34587 0.0
C1151 C 0.35971 0.27447 0.40128 0.0
C1152 C 0.33729 0.24917 0.39638 0.0
H1153 H 0.37668 0.3162 0.39436 0.0
H1154 H 0.37571 0.27719 0.41875 0.0
C1155 C 0.31649 0.24626 0.37441 0.0
C1156 C 0.75048 0.04377 0.35984 0.0
C1157 C 0.7249 0.03953 0.3671 0.0
H1158 H 0.79238 0.06798 0.3704 0.0
C1159 C 0.72259 0.05991 0.38327 0.0
H1160 H 0.75289 0.02846 0.34727 0.0
C1161 C 0.74526 0.08285 0.39539 0.0
C1162 C 0.77056 0.08562 0.39201 0.0
H1163 H 0.70317 0.05736 0.38882 0.0
H1164 H 0.74273 0.09701 0.41101 0.0
C1165 C 0.77316 0.06658 0.37254 0.0
C1166 C 0.96391 0.67274 0.38435 0.0
C1167 C 0.97742 0.69545 0.36302 0.0
H1168 H 0.93199 0.65111 0.42124 0.0
C1169 C 0.96566 0.71098 0.3571 0.0
H1170 H 0.97218 0.66014 0.38907 0.0
C1171 C 0.94241 0.70553 0.37516 0.0
C1172 C 0.93064 0.68453 0.39942 0.0
H1173 H 0.97531 0.72838 0.34033 0.0
H1174 H 0.93512 0.71916 0.37271 0.0
C1175 C 0.94074 0.66737 0.40247 0.0
C1176 C 0.43216 0.01024 0.67113 0.0
C1177 C 0.4393 0.03684 0.66713 0.0
H1178 H 0.44102 0.98304 0.69662 0.0
C1179 C 0.46454 0.0568 0.67895 0.0
H1180 H 0.41295 0.99445 0.66197 0.0
C1181 C 0.48065 0.05019 0.69893 0.0
C1182 C 0.47175 0.0236 0.70683 0.0
H1183 H 0.47055 0.07748 0.67621 0.0
H1184 H 0.49847 0.06587 0.71148 0.0
C1185 C 0.44833 1.00368 0.69069 0.0
C1186 C 1.00084 0.41596 0.67942 0.0
C1187 C 0.97388 0.40215 0.66929 0.0
H1188 H 0.03114 0.44747 0.71068 0.0
C1189 C 0.95771 0.41267 0.67881 0.0
H1190 H 0.01398 0.40867 0.67216 0.0
C1191 C 0.96765 0.43504 0.70088 0.0
C1192 C 0.99391 0.44724 0.71371 0.0
H1193 H 0.93688 0.40263 0.67127 0.0
H1194 H 0.95422 0.44147 0.71014 0.0
C1195 C 0.01073 0.43825 0.70139 0.0
C1196 C 0.60078 0.58412 0.67209 0.0
C1197 C 0.61592 0.57205 0.66542 0.0
H1198 H 0.56741 0.58172 0.69951 0.0
C1199 C 0.60587 0.54571 0.6763 0.0
H1200 H 0.60772 0.60421 0.66349 0.0
C1201 C 0.5827 0.53283 0.69698 0.0
C1202 C 0.56926 0.54609 0.70686 0.0
H1203 H 0.61698 0.5358 0.67131 0.0
H1204 H 0.57674 0.51351 0.70786 0.0
C1205 C 0.57762 0.57121 0.69251 0.0
C1206 C 0.66457 0.71797 0.62018 0.0
C1207 C 0.68723 0.72027 0.63681 0.0
H1208 H 0.64825 0.73794 0.59142 0.0
C1209 C 0.7089 0.74567 0.64429 0.0
H1210 H 0.64746 0.69868 0.61443 0.0
C1211 C 0.70929 0.76817 0.63109 0.0
C1212 C 0.68783 0.76555 0.61088 0.0
H1213 H 0.72661 0.74807 0.65722 0.0
H1214 H 0.72746 0.78723 0.63329 0.0
C1215 C 0.66481 0.74048 0.60754 0.0
C1216 C 0.26508 0.96166 0.64253 0.0
C1217 C 0.29279 0.97446 0.63669 0.0
H1218 H 0.22645 0.93015 0.62673 0.0
C1219 C 0.30292 0.96185 0.61534 0.0
H1220 H 0.25662 0.97061 0.6593 0.0
C1221 C 0.28557 0.93851 0.59713 0.0
C1222 C 0.25784 0.92733 0.60008 0.0
H1223 H 0.32413 0.97093 0.61065 0.0
H1224 H 0.29376 0.93046 0.57829 0.0
C1225 C 0.24774 0.93825 0.62437 0.0
C1226 C 0.06989 0.35563 0.60453 0.0
C1227 C 0.05037 0.33335 0.62295 0.0
H1228 H 0.10615 0.37246 0.57452 0.0
C1229 C 0.05546 0.31299 0.63152 0.0
H1230 H 0.0667 0.37177 0.59794 0.0
C1231 C 0.07819 0.31348 0.61816 0.0
C1232 C 0.09624 0.33451 0.59659 0.0
H1233 H 0.04084 0.29562 0.64587 0.0
H1234 H 0.08023 0.29626 0.62166 0.0
C1235 C 0.0927 0.35625 0.59163 0.0
C1236 C 0.21561 0.28143 0.6527 0.0
C1237 C 0.24202 0.29699 0.66491 0.0
H1238 H 0.1848 0.27975 0.61951 0.0
C1239 C 0.25562 0.3244 0.65865 0.0
H1240 H 0.20451 0.26027 0.65726 0.0
C1241 C 0.24419 0.33552 0.63746 0.0
C1242 C 0.219 0.31946 0.62196 0.0
H1243 H 0.27581 0.33704 0.66815 0.0
H1244 H 0.25592 0.35635 0.63086 0.0
C1245 C 0.2042 0.29259 0.63129 0.0
C1246 C 0.72145 0.93503 0.65728 0.0
C1247 C 0.70163 0.94109 0.66594 0.0
H1248 H 0.73081 0.90948 0.62745 0.0
C1249 C 0.67487 0.92228 0.6589 0.0
H1250 H 0.74225 0.94918 0.66247 0.0
C1251 C 0.66835 0.8995 0.63937 0.0
C1252 C 0.68852 0.89529 0.62634 0.0
H1253 H 0.65916 0.92628 0.66567 0.0
H1254 H 0.64784 0.8866 0.63123 0.0
C1255 C 0.71491 0.91224 0.6374 0.0
C1256 C 0.08667 0.8014 0.64972 0.0
C1257 C 0.07587 0.77485 0.66023 0.0
H1258 H 0.11607 0.83331 0.61789 0.0
C1259 C 0.08981 0.7618 0.65175 0.0
H1260 H 0.07651 0.81207 0.65601 0.0
C1261 C 0.1125 0.77406 0.63031 0.0
C1262 C 0.12173 0.7996 0.61686 0.0
H1263 H 0.08231 0.74151 0.65986 0.0
H1264 H 0.12176 0.76287 0.62212 0.0
C1265 C 0.10944 0.81368 0.62812 0.0
C1266 C 0.98309 0.60305 0.69452 0.0
C1267 C 1.0041 0.6286 0.70308 0.0
H1268 H 0.965 0.56141 0.70475 0.0
C1269 C 0.02616 0.63123 0.72187 0.0
H1270 H 0.96586 0.60039 0.67995 0.0
C1271 C 0.02592 0.60888 0.73515 0.0
C1272 C 1.00354 0.58356 0.73013 0.0
H1273 H 0.04277 0.65063 0.72854 0.0
H1274 H 0.04194 0.61159 0.75257 0.0
C1275 C 0.98272 0.58067 0.70823 0.0
C1276 C 0.41497 0.37503 0.69396 0.0
C1277 C 0.38941 0.37074 0.70153 0.0
H1278 H 0.45693 0.39929 0.70409 0.0
C1279 C 0.38716 0.39107 0.718 0.0
H1280 H 0.41734 0.35976 0.68116 0.0
C1281 C 0.40987 0.41401 0.73002 0.0
C1282 C 0.43518 0.41686 0.72621 0.0
H1283 H 0.36775 0.38848 0.72381 0.0
H1284 H 0.40741 0.42814 0.74581 0.0
C1285 C 0.4377 0.39784 0.70654 0.0
C1286 C 0.63386 0.04515 0.6895 0.0
C1287 C 0.64543 0.02941 0.69518 0.0
H1288 H 0.60346 0.0535 0.70526 0.0
C1289 C 0.6317 0.00655 0.71619 0.0
H1290 H 0.64369 0.06267 0.67298 0.0
C1291 C 0.60851 1.00121 0.73424 0.0
C1292 C 0.5986 0.01854 0.73145 0.0
H1293 H 0.63981 0.99379 0.72072 0.0
H1294 H 0.5996 0.98481 0.75279 0.0
C1295 C 0.61059 0.03972 0.7075 0.0
loop_
_geom_bond_atom_site_label_1
_geom_bond_atom_site_label_2
_geom_bond_distance
_geom_bond_site_symmetry_2
_ccdc_geom_bond_type
C0 O1 1.306 1_556 S
C0 O3 1.160 . S
O1 C0 1.306 1_554 S
O1 Cd2 2.228 . S
Cd2 O1 2.228 . S
Cd2 O6 2.273 . S
Cd2 O10 2.277 1_554 S
O3 C0 1.160 . S
O3 Cd4 2.203 1_656 S
Cd4 O3 2.203 1_454 S
Cd4 O6 2.411 1_455 S
Cd4 O7 2.333 . S
Cd4 O8 2.352 . S
Cd4 O12 2.277 1_554 S
Cd4 O13 2.356 . S
C5 O10 1.209 1_455 S
C5 O12 1.226 . S
O6 Cd2 2.273 . S
O6 Cd4 2.411 1_655 S
O6 C9 1.320 1_655 S
O7 Cd4 2.333 . S
O7 C9 1.215 . S
O8 Cd4 2.352 . S
O8 C11 1.258 . S
C9 O6 1.320 1_455 S
C9 O7 1.215 . S
O10 Cd2 2.277 1_556 S
O10 C5 1.209 1_655 S
C11 O8 1.258 . S
C11 O13 1.282 . S
O12 Cd4 2.277 1_556 S
O12 C5 1.226 . S
O13 Cd4 2.356 . S
O13 C11 1.282 . S
C14 O15 1.306 . S
C14 O17 1.160 . S
O15 C14 1.306 . S
O15 Cd16 2.228 . S
Cd16 O15 2.228 . S
Cd16 O20 2.273 1_554 S
Cd16 O24 2.277 . S
O17 C14 1.160 . S
O17 Cd18 2.203 . S
Cd18 O17 2.203 . S
Cd18 O20 2.411 1_554 S
Cd18 O21 2.333 1_554 S
Cd18 O22 2.352 1_554 S
Cd18 O26 2.277 . S
Cd18 O27 2.356 . S
C19 O24 1.209 . S
C19 O26 1.226 . S
O20 Cd16 2.273 1_556 S
O20 Cd18 2.411 1_556 S
O20 C23 1.320 . S
O21 Cd18 2.333 1_556 S
O21 C23 1.214 . S
O22 Cd18 2.352 1_556 S
O22 C25 1.258 . S
C23 O20 1.320 . S
C23 O21 1.214 . S
O24 Cd16 2.277 . S
O24 C19 1.209 . S
C25 O22 1.258 . S
C25 O27 1.282 1_556 S
O26 Cd18 2.277 . S
O26 C19 1.226 . S
O27 Cd18 2.356 . S
O27 C25 1.282 1_554 S
C28 O29 1.306 . S
C28 O31 1.160 . S
O29 C28 1.306 . S
O29 Cd30 2.228 . S
Cd30 O29 2.228 . S
Cd30 O34 2.273 1_554 S
Cd30 O38 2.277 . S
O31 C28 1.160 . S
O31 Cd32 2.203 1_565 S
Cd32 O31 2.203 1_545 S
Cd32 O34 2.411 1_544 S
Cd32 O35 2.333 1_554 S
Cd32 O36 2.352 1_554 S
Cd32 O40 2.277 . S
Cd32 O41 2.356 . S
C33 O38 1.209 1_545 S
C33 O40 1.226 . S
O34 Cd30 2.273 1_556 S
O34 Cd32 2.411 1_566 S
O34 C37 1.320 1_565 S
O35 Cd32 2.333 1_556 S
O35 C37 1.214 . S
O36 Cd32 2.352 1_556 S
O36 C39 1.258 . S
C37 O34 1.320 1_545 S
C37 O35 1.214 . S
O38 Cd30 2.277 . S
O38 C33 1.209 1_565 S
C39 O36 1.258 . S
C39 O41 1.282 1_556 S
O40 Cd32 2.277 . S
O40 C33 1.226 . S
O41 Cd32 2.356 . S
O41 C39 1.282 1_554 S
C42 O43 1.306 . S
C42 O45 1.160 . S
O43 C42 1.306 . S
O43 Cd44 2.228 1_556 S
Cd44 O43 2.228 1_554 S
Cd44 O48 2.273 . S
Cd44 O52 2.277 1_554 S
O45 C42 1.160 . S
O45 Cd46 2.203 1_656 S
Cd46 O45 2.203 1_454 S
Cd46 O48 2.411 1_455 S
Cd46 O49 2.333 . S
Cd46 O50 2.352 . S
Cd46 O54 2.277 1_554 S
Cd46 O55 2.356 . S
C47 O52 1.209 1_455 S
C47 O54 1.226 . S
O48 Cd44 2.273 . S
O48 Cd46 2.411 1_655 S
O48 C51 1.322 1_655 S
O49 Cd46 2.333 . S
O49 C51 1.212 . S
O50 Cd46 2.352 . S
O50 C53 1.258 . S
C51 O48 1.322 1_455 S
C51 O49 1.212 . S
O52 Cd44 2.277 1_556 S
O52 C47 1.209 1_655 S
C53 O50 1.258 . S
C53 O55 1.282 . S
O54 Cd46 2.277 1_556 S
O54 C47 1.226 . S
O55 Cd46 2.356 . S
O55 C53 1.282 . S
C56 O57 1.306 . S
C56 O59 1.160 . S
O57 C56 1.306 . S
O57 Cd58 2.228 . S
Cd58 O57 2.228 . S
Cd58 O62 2.273 1_554 S
Cd58 O66 2.277 . S
O59 C56 1.160 . S
O59 Cd60 2.203 . S
Cd60 O59 2.203 . S
Cd60 O62 2.411 1_554 S
Cd60 O63 2.333 1_554 S
Cd60 O64 2.352 1_554 S
Cd60 O68 2.277 . S
Cd60 O69 2.361 . S
C61 O66 1.209 . S
C61 O68 1.226 . S
O62 Cd58 2.273 1_556 S
O62 Cd60 2.411 1_556 S
O62 C65 1.320 . S
O63 Cd60 2.333 1_556 S
O63 C65 1.214 . S
O64 Cd60 2.352 1_556 S
O64 C67 1.258 . S
C65 O62 1.320 . S
C65 O63 1.214 . S
O66 Cd58 2.277 . S
O66 C61 1.209 . S
C67 O64 1.258 . S
C67 O69 1.263 1_556 S
O68 Cd60 2.277 . S
O68 C61 1.226 . S
O69 Cd60 2.361 . S
O69 C67 1.263 1_554 S
C70 O71 1.309 . S
C70 O73 1.160 . S
O71 C70 1.309 . S
O71 Cd72 2.226 1_556 S
Cd72 O71 2.226 1_554 S
Cd72 O76 2.273 . S
Cd72 O80 2.277 1_554 S
O73 C70 1.160 . S
O73 Cd74 2.203 1_546 S
Cd74 O73 2.203 1_564 S
Cd74 O76 2.411 1_565 S
Cd74 O77 2.333 . S
Cd74 O78 2.352 . S
Cd74 O82 2.277 1_554 S
Cd74 O83 2.356 . S
C75 O80 1.173 1_565 S
C75 O82 1.277 . S
O76 Cd72 2.273 . S
O76 Cd74 2.411 1_545 S
O76 C79 1.341 . S
O77 Cd74 2.333 . S
O77 C79 1.170 1_565 S
O78 Cd74 2.352 . S
O78 C81 1.258 . S
C79 O76 1.341 . S
C79 O77 1.170 1_545 S
O80 Cd72 2.277 1_556 S
O80 C75 1.173 1_545 S
C81 O78 1.258 . S
C81 O83 1.282 . S
O82 Cd74 2.277 1_556 S
O82 C75 1.277 . S
O83 Cd74 2.356 . S
O83 C81 1.282 . S
C84 O85 1.306 . S
C84 O87 1.160 . S
O85 C84 1.306 . S
O85 Cd86 2.228 . S
Cd86 O85 2.228 . S
Cd86 O90 2.273 . S
Cd86 O94 2.277 . S
O87 C84 1.160 . S
O87 Cd88 2.203 . S
Cd88 O87 2.203 . S
Cd88 O90 2.411 . S
Cd88 O91 2.333 . S
Cd88 O92 2.352 . S
Cd88 O96 2.277 . S
Cd88 O97 2.356 . S
C89 O94 1.209 . S
C89 O96 1.226 . S
O90 Cd86 2.273 . S
O90 Cd88 2.411 . S
O90 C93 1.320 . S
O91 Cd88 2.333 . S
O91 C93 1.214 . S
O92 Cd88 2.352 . S
O92 C95 1.258 . S
C93 O90 1.320 . S
C93 O91 1.214 . S
O94 Cd86 2.277 . S
O94 C89 1.209 . S
C95 O92 1.258 . S
C95 O97 1.282 . S
O96 Cd88 2.277 . S
O96 C89 1.226 . S
O97 Cd88 2.356 . S
O97 C95 1.282 . S
C98 O99 1.306 . S
C98 O101 1.160 . S
O99 C98 1.306 . S
O99 Cd100 2.228 1_545 S
Cd100 O99 2.228 1_565 S
Cd100 O104 2.273 . S
Cd100 O108 2.277 . S
O101 C98 1.160 . S
O101 Cd102 2.203 1_545 S
Cd102 O101 2.203 1_565 S
Cd102 O104 2.411 . S
Cd102 O105 2.333 . S
Cd102 O106 2.352 1_565 S
Cd102 O110 2.277 . S
Cd102 O111 2.356 . S
C103 O108 1.209 . S
C103 O110 1.226 . S
O104 Cd100 2.273 . S
O104 Cd102 2.411 . S
O104 C107 1.320 . S
O105 Cd102 2.333 . S
O105 C107 1.214 . S
O106 Cd102 2.352 1_545 S
O106 C109 1.258 1_545 S
C107 O104 1.320 . S
C107 O105 1.214 . S
O108 Cd100 2.277 . S
O108 C103 1.209 . S
C109 O106 1.258 1_565 S
C109 O111 1.282 . S
O110 Cd102 2.277 . S
O110 C103 1.226 . S
O111 Cd102 2.356 . S
O111 C109 1.282 . S
C112 O113 1.306 . S
C112 O115 1.160 . S
O113 C112 1.306 . S
O113 Cd114 2.228 1_655 S
Cd114 O113 2.228 1_455 S
Cd114 O118 2.273 . S
Cd114 O122 2.277 . S
O115 C112 1.160 . S
O115 Cd116 2.203 1_655 S
Cd116 O115 2.203 1_455 S
Cd116 O118 2.411 . S
Cd116 O119 2.333 . S
Cd116 O120 2.352 . S
Cd116 O124 2.277 . S
Cd116 O125 2.356 . S
C117 O122 1.209 . S
C117 O124 1.226 . S
O118 Cd114 2.273 . S
O118 Cd116 2.411 . S
O118 C121 1.320 . S
O119 Cd116 2.333 . S
O119 C121 1.214 . S
O120 Cd116 2.352 . S
O120 C123 1.258 . S
C121 O118 1.320 . S
C121 O119 1.214 . S
O122 Cd114 2.277 . S
O122 C117 1.209 . S
C123 O120 1.258 . S
C123 O125 1.282 . S
O124 Cd116 2.277 . S
O124 C117 1.226 . S
O125 Cd116 2.356 . S
O125 C123 1.282 . S
C126 O127 1.306 . S
C126 O129 1.161 . S
O127 C126 1.306 . S
O127 Cd128 2.228 . S
Cd128 O127 2.228 . S
Cd128 O132 2.273 . S
Cd128 O136 2.277 . S
O129 C126 1.161 . S
O129 Cd130 2.218 . S
Cd130 O129 2.218 . S
Cd130 O132 2.411 . S
Cd130 O133 2.333 . S
Cd130 O134 2.352 1_565 S
Cd130 O138 2.277 . S
Cd130 O139 2.356 1_565 S
C131 O136 1.209 . S
C131 O138 1.226 . S
O132 Cd128 2.273 . S
O132 Cd130 2.411 . S
O132 C135 1.320 . S
O133 Cd130 2.333 . S
O133 C135 1.214 . S
O134 Cd130 2.352 1_545 S
O134 C137 1.258 . S
C135 O132 1.320 . S
C135 O133 1.214 . S
O136 Cd128 2.277 . S
O136 C131 1.209 . S
C137 O134 1.258 . S
C137 O139 1.282 . S
O138 Cd130 2.277 . S
O138 C131 1.226 . S
O139 Cd130 2.356 1_545 S
O139 C137 1.282 . S
C140 O141 1.306 . S
C140 O143 1.160 . S
O141 C140 1.306 . S
O141 Cd142 2.228 1_655 S
Cd142 O141 2.228 1_455 S
Cd142 O146 2.273 . S
Cd142 O150 2.277 . S
O143 C140 1.160 . S
O143 Cd144 2.203 1_655 S
Cd144 O143 2.203 1_455 S
Cd144 O146 2.411 . S
Cd144 O147 2.333 . S
Cd144 O148 2.352 1_455 S
Cd144 O152 2.277 . S
Cd144 O153 2.356 . S
C145 O150 1.209 . S
C145 O152 1.226 . S
O146 Cd142 2.273 . S
O146 Cd144 2.411 . S
O146 C149 1.320 . S
O147 Cd144 2.333 . S
O147 C149 1.214 . S
O148 Cd144 2.352 1_655 S
O148 C151 1.258 1_655 S
C149 O146 1.320 . S
C149 O147 1.214 . S
O150 Cd142 2.277 . S
O150 C145 1.209 . S
C151 O148 1.258 1_455 S
C151 O153 1.282 . S
O152 Cd144 2.277 . S
O152 C145 1.226 . S
O153 Cd144 2.356 . S
O153 C151 1.282 . S
C154 O155 1.306 . S
C154 O157 1.160 . S
O155 C154 1.306 . S
O155 Cd156 2.228 . S
Cd156 O155 2.228 . S
Cd156 O160 2.273 . S
Cd156 O164 2.277 . S
O157 C154 1.160 . S
O157 Cd158 2.203 . S
Cd158 O157 2.203 . S
Cd158 O160 2.411 . S
Cd158 O161 2.333 . S
Cd158 O162 2.352 . S
Cd158 O166 2.277 . S
Cd158 O167 2.356 . S
C159 O164 1.209 . S
C159 O166 1.226 . S
O160 Cd156 2.273 . S
O160 Cd158 2.411 . S
O160 C163 1.320 . S
O161 Cd158 2.333 . S
O161 C163 1.214 . S
O162 Cd158 2.352 . S
O162 C165 1.258 . S
C163 O160 1.320 . S
C163 O161 1.214 . S
O164 Cd156 2.277 . S
O164 C159 1.209 . S
C165 O162 1.258 . S
C165 O167 1.282 . S
O166 Cd158 2.277 . S
O166 C159 1.226 . S
O167 Cd158 2.356 . S
O167 C165 1.282 . S
C168 O169 1.306 . S
C168 O171 1.160 . S
O169 C168 1.306 . S
O169 Cd170 2.228 1_565 S
Cd170 O169 2.228 1_545 S
Cd170 O174 2.273 . S
Cd170 O178 2.277 . S
O171 C168 1.160 . S
O171 Cd172 2.203 1_565 S
Cd172 O171 2.203 1_545 S
Cd172 O174 2.411 . S
Cd172 O175 2.333 . S
Cd172 O176 2.352 1_545 S
Cd172 O180 2.277 . S
Cd172 O181 2.356 . S
C173 O178 1.209 . S
C173 O180 1.226 . S
O174 Cd170 2.273 . S
O174 Cd172 2.411 . S
O174 C177 1.320 . S
O175 Cd172 2.333 . S
O175 C177 1.214 . S
O176 Cd172 2.352 1_565 S
O176 C179 1.258 1_565 S
C177 O174 1.320 . S
C177 O175 1.214 . S
O178 Cd170 2.277 . S
O178 C173 1.209 . S
C179 O176 1.258 1_545 S
C179 O181 1.282 . S
O180 Cd172 2.277 . S
O180 C173 1.226 . S
O181 Cd172 2.356 . S
O181 C179 1.282 . S
C182 O183 1.306 . S
C182 O185 1.160 1_655 S
O183 C182 1.306 . S
O183 Cd184 2.228 . S
Cd184 O183 2.228 . S
Cd184 O188 2.273 . S
Cd184 O192 2.277 . S
O185 C182 1.160 1_455 S
O185 Cd186 2.203 1_455 S
Cd186 O185 2.203 1_655 S
Cd186 O188 2.411 . S
Cd186 O189 2.333 . S
Cd186 O190 2.352 1_655 S
Cd186 O194 2.277 . S
Cd186 O195 2.356 1_655 S
C187 O192 1.209 . S
C187 O194 1.226 . S
O188 Cd184 2.273 . S
O188 Cd186 2.411 . S
O188 C191 1.320 . S
O189 Cd186 2.333 . S
O189 C191 1.214 . S
O190 Cd186 2.352 1_455 S
O190 C193 1.258 . S
C191 O188 1.320 . S
C191 O189 1.214 . S
O192 Cd184 2.277 . S
O192 C187 1.209 . S
C193 O190 1.258 . S
C193 O195 1.282 . S
O194 Cd186 2.277 . S
O194 C187 1.226 . S
O195 Cd186 2.356 1_455 S
O195 C193 1.282 . S
C196 O197 1.306 . S
C196 O199 1.160 . S
O197 C196 1.306 . S
O197 Cd198 2.228 . S
Cd198 O197 2.228 . S
Cd198 O202 2.273 . S
Cd198 O206 2.277 . S
O199 C196 1.160 . S
O199 Cd200 2.203 . S
Cd200 O199 2.203 . S
Cd200 O202 2.411 . S
Cd200 O203 2.333 . S
Cd200 O204 2.352 . S
Cd200 O208 2.277 . S
Cd200 O209 2.356 . S
C201 O206 1.209 . S
C201 O208 1.226 . S
O202 Cd198 2.273 . S
O202 Cd200 2.411 . S
O202 C205 1.320 . S
O203 Cd200 2.333 . S
O203 C205 1.214 . S
O204 Cd200 2.352 . S
O204 C207 1.258 . S
C205 O202 1.320 . S
C205 O203 1.214 . S
O206 Cd198 2.277 . S
O206 C201 1.209 . S
C207 O204 1.258 . S
C207 O209 1.282 . S
O208 Cd200 2.277 . S
O208 C201 1.226 . S
O209 Cd200 2.356 . S
O209 C207 1.282 . S
C210 O211 1.306 . S
C210 O213 1.160 . S
O211 C210 1.306 . S
O211 Cd212 2.228 . S
Cd212 O211 2.228 . S
Cd212 O216 2.273 . S
Cd212 O220 2.277 . S
O213 C210 1.160 . S
O213 Cd214 2.203 . S
Cd214 O213 2.203 . S
Cd214 O216 2.411 . S
Cd214 O217 2.333 . S
Cd214 O218 2.352 . S
Cd214 O222 2.277 . S
Cd214 O223 2.356 . S
C215 O220 1.209 . S
C215 O222 1.226 . S
O216 Cd212 2.273 . S
O216 Cd214 2.411 . S
O216 C219 1.320 . S
O217 Cd214 2.333 . S
O217 C219 1.214 . S
O218 Cd214 2.352 . S
O218 C221 1.258 . S
C219 O216 1.320 . S
C219 O217 1.214 . S
O220 Cd212 2.277 . S
O220 C215 1.209 . S
C221 O218 1.258 . S
C221 O223 1.282 . S
O222 Cd214 2.277 . S
O222 C215 1.226 . S
O223 Cd214 2.356 . S
O223 C221 1.282 . S
C224 O225 1.306 . S
C224 O227 1.160 . S
O225 C224 1.306 . S
O225 Cd226 2.228 . S
Cd226 O225 2.228 . S
Cd226 O230 2.273 . S
Cd226 O234 2.277 . S
O227 C224 1.160 . S
O227 Cd228 2.203 . S
Cd228 O227 2.203 . S
Cd228 O230 2.411 . S
Cd228 O231 2.333 . S
Cd228 O232 2.352 1_545 S
Cd228 O236 2.277 . S
Cd228 O237 2.356 1_545 S
C229 O234 1.209 . S
C229 O236 1.226 . S
O230 Cd226 2.273 . S
O230 Cd228 2.411 . S
O230 C233 1.320 . S
O231 Cd228 2.333 . S
O231 C233 1.214 . S
O232 Cd228 2.352 1_565 S
O232 C235 1.258 . S
C233 O230 1.320 . S
C233 O231 1.214 . S
O234 Cd226 2.277 . S
O234 C229 1.209 . S
C235 O232 1.258 . S
C235 O237 1.282 . S
O236 Cd228 2.277 . S
O236 C229 1.226 . S
O237 Cd228 2.356 1_565 S
O237 C235 1.282 . S
C238 O239 1.306 . S
C238 O241 1.160 . S
O239 C238 1.306 . S
O239 Cd240 2.228 1_455 S
Cd240 O239 2.228 1_655 S
Cd240 O244 2.273 . S
Cd240 O248 2.277 . S
O241 C238 1.160 . S
O241 Cd242 2.203 1_455 S
Cd242 O241 2.203 1_655 S
Cd242 O244 2.411 . S
Cd242 O245 2.333 . S
Cd242 O246 2.352 1_655 S
Cd242 O250 2.277 . S
Cd242 O251 2.356 . S
C243 O248 1.209 . S
C243 O250 1.226 . S
O244 Cd240 2.273 . S
O244 Cd242 2.411 . S
O244 C247 1.320 . S
O245 Cd242 2.333 . S
O245 C247 1.214 . S
O246 Cd242 2.352 1_455 S
O246 C249 1.258 1_455 S
C247 O244 1.320 . S
C247 O245 1.214 . S
O248 Cd240 2.277 . S
O248 C243 1.209 . S
C249 O246 1.258 1_655 S
C249 O251 1.282 . S
O250 Cd242 2.277 . S
O250 C243 1.226 . S
O251 Cd242 2.356 . S
O251 C249 1.282 . S
H252 C258 0.930 . S
H253 C261 0.931 . S
H254 C263 0.931 . S
H255 C265 0.930 . S
H256 C267 0.930 . S
H257 C269 0.931 . S
C258 H252 0.930 . S
C258 C259 1.380 . S
C258 C260 1.394 . S
C259 C258 1.380 . S
C259 C263 1.382 . S
C260 C258 1.394 . S
C260 C261 1.400 . S
C261 H253 0.931 . S
C261 C260 1.400 . S
C261 C262 1.375 . S
C262 C261 1.375 . S
C262 C263 1.415 . S
C262 C264 1.501 . S
C263 H254 0.931 . S
C263 C259 1.382 . S
C263 C262 1.415 . S
C264 C262 1.501 . S
C264 C265 1.384 . S
C264 C269 1.408 . S
C265 H255 0.930 . S
C265 C264 1.384 . S
C265 C266 1.389 . S
C266 C265 1.389 . S
C266 C267 1.405 . S
C267 H256 0.930 . S
C267 C266 1.405 . S
C267 C268 1.364 . S
C268 C267 1.364 . S
C268 C269 1.400 . S
C269 H257 0.931 . S
C269 C264 1.408 . S
C269 C268 1.400 . S
H270 C276 0.930 . S
H271 C279 0.931 . S
H272 C281 0.931 . S
H273 C283 0.930 . S
H274 C285 0.930 . S
H275 C287 0.931 . S
C276 H270 0.930 . S
C276 C277 1.380 . S
C276 C278 1.394 . S
C277 C276 1.380 . S
C277 C281 1.382 . S
C278 C276 1.394 . S
C278 C279 1.400 . S
C279 H271 0.931 . S
C279 C278 1.400 . S
C279 C280 1.375 . S
C280 C279 1.375 . S
C280 C281 1.415 . S
C280 C282 1.501 . S
C281 H272 0.931 . S
C281 C277 1.382 . S
C281 C280 1.415 . S
C282 C280 1.501 . S
C282 C283 1.384 . S
C282 C287 1.408 . S
C283 H273 0.930 . S
C283 C282 1.384 . S
C283 C284 1.389 . S
C284 C283 1.389 . S
C284 C285 1.405 . S
C285 H274 0.930 . S
C285 C284 1.405 . S
C285 C286 1.364 . S
C286 C285 1.364 . S
C286 C287 1.400 . S
C287 H275 0.931 . S
C287 C282 1.408 . S
C287 C286 1.400 . S
H288 C294 0.930 . S
H289 C297 0.931 . S
H290 C299 0.931 . S
H291 C301 0.930 . S
H292 C303 0.930 . S
H293 C305 0.931 . S
C294 H288 0.930 . S
C294 C295 1.380 . S
C294 C296 1.394 . S
C295 C294 1.380 . S
C295 C299 1.382 . S
C296 C294 1.394 . S
C296 C297 1.400 . S
C297 H289 0.931 . S
C297 C296 1.400 . S
C297 C298 1.375 . S
C298 C297 1.375 . S
C298 C299 1.415 . S
C298 C300 1.501 . S
C299 H290 0.931 . S
C299 C295 1.382 . S
C299 C298 1.415 . S
C300 C298 1.501 . S
C300 C301 1.384 . S
C300 C305 1.408 . S
C301 H291 0.930 . S
C301 C300 1.384 . S
C301 C302 1.389 . S
C302 C301 1.389 . S
C302 C303 1.405 . S
C303 H292 0.930 . S
C303 C302 1.405 . S
C303 C304 1.364 . S
C304 C303 1.364 . S
C304 C305 1.400 . S
C305 H293 0.931 . S
C305 C300 1.408 . S
C305 C304 1.400 . S
H306 C312 0.930 . S
H307 C315 0.931 . S
H308 C317 0.931 . S
H309 C319 0.930 . S
H310 C321 0.930 . S
H311 C323 0.931 . S
C312 H306 0.930 . S
C312 C313 1.380 . S
C312 C314 1.394 . S
C313 C312 1.380 . S
C313 C317 1.382 . S
C314 C312 1.394 . S
C314 C315 1.400 . S
C315 H307 0.931 . S
C315 C314 1.400 . S
C315 C316 1.375 . S
C316 C315 1.375 . S
C316 C317 1.415 . S
C316 C318 1.501 . S
C317 H308 0.931 . S
C317 C313 1.382 . S
C317 C316 1.415 . S
C318 C316 1.501 . S
C318 C319 1.384 . S
C318 C323 1.408 . S
C319 H309 0.930 . S
C319 C318 1.384 . S
C319 C320 1.389 . S
C320 C319 1.389 . S
C320 C321 1.405 . S
C321 H310 0.930 . S
C321 C320 1.405 . S
C321 C322 1.364 . S
C322 C321 1.364 . S
C322 C323 1.400 . S
C323 H311 0.931 . S
C323 C318 1.408 . S
C323 C322 1.400 . S
H324 C330 0.930 . S
H325 C333 0.931 . S
H326 C335 0.931 . S
H327 C337 0.930 . S
H328 C339 0.930 . S
H329 C341 0.931 . S
C330 H324 0.930 . S
C330 C331 1.380 . S
C330 C332 1.394 . S
C331 C330 1.380 . S
C331 C335 1.382 . S
C332 C330 1.394 . S
C332 C333 1.400 . S
C333 H325 0.931 . S
C333 C332 1.400 . S
C333 C334 1.375 . S
C334 C333 1.375 . S
C334 C335 1.415 . S
C334 C336 1.501 . S
C335 H326 0.931 . S
C335 C331 1.382 . S
C335 C334 1.415 . S
C336 C334 1.501 . S
C336 C337 1.384 . S
C336 C341 1.408 . S
C337 H327 0.930 . S
C337 C336 1.384 . S
C337 C338 1.389 . S
C338 C337 1.389 . S
C338 C339 1.405 . S
C339 H328 0.930 . S
C339 C338 1.405 . S
C339 C340 1.364 . S
C340 C339 1.364 . S
C340 C341 1.400 . S
C341 H329 0.931 . S
C341 C336 1.408 . S
C341 C340 1.400 . S
H342 C348 0.930 . S
H343 C351 0.931 . S
H344 C353 0.931 . S
H345 C355 0.930 . S
H346 C357 0.930 . S
H347 C359 0.931 . S
C348 H342 0.930 . S
C348 C349 1.380 . S
C348 C350 1.394 . S
C349 C348 1.380 . S
C349 C353 1.382 . S
C350 C348 1.394 . S
C350 C351 1.400 . S
C351 H343 0.931 . S
C351 C350 1.400 . S
C351 C352 1.375 . S
C352 C351 1.375 . S
C352 C353 1.415 . S
C352 C354 1.501 . S
C353 H344 0.931 . S
C353 C349 1.382 . S
C353 C352 1.415 . S
C354 C352 1.501 . S
C354 C355 1.384 . S
C354 C359 1.408 . S
C355 H345 0.930 . S
C355 C354 1.384 . S
C355 C356 1.389 . S
C356 C355 1.389 . S
C356 C357 1.405 . S
C357 H346 0.930 . S
C357 C356 1.405 . S
C357 C358 1.364 . S
C358 C357 1.364 . S
C358 C359 1.400 . S
C359 H347 0.931 . S
C359 C354 1.408 . S
C359 C358 1.400 . S
H360 C366 0.930 . S
H361 C369 0.931 . S
H362 C371 0.931 . S
H363 C373 0.930 . S
H364 C375 0.930 . S
H365 C377 0.931 . S
C366 H360 0.930 . S
C366 C367 1.380 . S
C366 C368 1.394 . S
C367 C366 1.380 . S
C367 C371 1.382 . S
C368 C366 1.394 . S
C368 C369 1.400 . S
C369 H361 0.931 . S
C369 C368 1.400 . S
C369 C370 1.375 . S
C370 C369 1.375 . S
C370 C371 1.415 . S
C370 C372 1.501 . S
C371 H362 0.931 . S
C371 C367 1.382 . S
C371 C370 1.415 . S
C372 C370 1.501 . S
C372 C373 1.384 . S
C372 C377 1.408 . S
C373 H363 0.930 . S
C373 C372 1.384 . S
C373 C374 1.389 . S
C374 C373 1.389 . S
C374 C375 1.405 . S
C375 H364 0.930 . S
C375 C374 1.405 . S
C375 C376 1.364 . S
C376 C375 1.364 . S
C376 C377 1.400 . S
C377 H365 0.931 . S
C377 C372 1.408 . S
C377 C376 1.400 . S
H378 C384 0.930 . S
H379 C387 0.931 . S
H380 C389 0.931 . S
H381 C391 0.930 . S
H382 C393 0.930 . S
H383 C395 0.931 . S
C384 H378 0.930 . S
C384 C385 1.380 . S
C384 C386 1.394 . S
C385 C384 1.380 . S
C385 C389 1.382 . S
C386 C384 1.394 . S
C386 C387 1.400 . S
C387 H379 0.931 . S
C387 C386 1.400 . S
C387 C388 1.375 . S
C388 C387 1.375 . S
C388 C389 1.415 . S
C388 C390 1.501 . S
C389 H380 0.931 . S
C389 C385 1.382 . S
C389 C388 1.415 . S
C390 C388 1.501 . S
C390 C391 1.384 . S
C390 C395 1.408 . S
C391 H381 0.930 . S
C391 C390 1.384 . S
C391 C392 1.389 . S
C392 C391 1.389 . S
C392 C393 1.405 . S
C393 H382 0.930 . S
C393 C392 1.405 . S
C393 C394 1.364 . S
C394 C393 1.364 . S
C394 C395 1.400 . S
C395 H383 0.931 . S
C395 C390 1.408 . S
C395 C394 1.400 . S
H396 C402 0.930 . S
H397 C405 0.931 . S
H398 C407 0.931 . S
H399 C409 0.930 . S
H400 C411 0.930 . S
H401 C413 0.931 . S
C402 H396 0.930 . S
C402 C403 1.380 . S
C402 C404 1.394 . S
C403 C402 1.380 . S
C403 C407 1.382 . S
C404 C402 1.394 . S
C404 C405 1.400 . S
C405 H397 0.931 . S
C405 C404 1.400 . S
C405 C406 1.375 . S
C406 C405 1.375 . S
C406 C407 1.415 . S
C406 C408 1.501 . S
C407 H398 0.931 . S
C407 C403 1.382 . S
C407 C406 1.415 . S
C408 C406 1.501 . S
C408 C409 1.384 . S
C408 C413 1.408 . S
C409 H399 0.930 . S
C409 C408 1.384 . S
C409 C410 1.389 . S
C410 C409 1.389 . S
C410 C411 1.405 . S
C411 H400 0.930 . S
C411 C410 1.405 . S
C411 C412 1.364 . S
C412 C411 1.364 . S
C412 C413 1.400 . S
C413 H401 0.931 . S
C413 C408 1.408 . S
C413 C412 1.400 . S
H414 C420 0.922 . S
H415 C423 0.931 . S
H416 C425 0.931 . S
H417 C427 0.930 . S
H418 C429 0.930 . S
H419 C431 0.942 . S
C420 H414 0.922 . S
C420 C421 1.386 . S
C420 C422 1.395 1_655 S
C421 C420 1.386 . S
C421 C425 1.382 . S
C422 C420 1.395 1_455 S
C422 C423 1.400 . S
C423 H415 0.931 . S
C423 C422 1.400 . S
C423 C424 1.375 . S
C424 C423 1.375 . S
C424 C425 1.415 1_455 S
C424 C426 1.501 . S
C425 H416 0.931 . S
C425 C421 1.382 . S
C425 C424 1.415 1_655 S
C426 C424 1.501 . S
C426 C427 1.384 . S
C426 C431 1.421 . S
C427 H417 0.930 . S
C427 C426 1.384 . S
C427 C428 1.389 . S
C428 C427 1.389 . S
C428 C429 1.405 . S
C429 H418 0.930 . S
C429 C428 1.405 . S
C429 C430 1.359 . S
C430 C429 1.359 . S
C430 C431 1.391 . S
C431 H419 0.942 . S
C431 C426 1.421 . S
C431 C430 1.391 . S
H432 C438 0.930 . S
H433 C441 0.931 . S
H434 C443 0.931 . S
H435 C445 0.930 . S
H436 C447 0.930 . S
H437 C449 0.931 . S
C438 H432 0.930 . S
C438 C439 1.380 . S
C438 C440 1.394 . S
C439 C438 1.380 . S
C439 C443 1.382 . S
C440 C438 1.394 . S
C440 C441 1.400 . S
C441 H433 0.931 . S
C441 C440 1.400 . S
C441 C442 1.375 . S
C442 C441 1.375 . S
C442 C443 1.415 . S
C442 C444 1.501 . S
C443 H434 0.931 . S
C443 C439 1.382 . S
C443 C442 1.415 . S
C444 C442 1.501 . S
C444 C445 1.384 . S
C444 C449 1.408 . S
C445 H435 0.930 . S
C445 C444 1.384 . S
C445 C446 1.389 . S
C446 C445 1.389 . S
C446 C447 1.405 . S
C447 H436 0.930 . S
C447 C446 1.405 . S
C447 C448 1.364 . S
C448 C447 1.364 . S
C448 C449 1.400 . S
C449 H437 0.931 . S
C449 C444 1.408 . S
C449 C448 1.400 . S
H450 C456 0.930 . S
H451 C459 0.931 . S
H452 C461 0.931 . S
H453 C463 0.930 . S
H454 C465 0.930 . S
H455 C467 0.930 . S
C456 H450 0.930 . S
C456 C457 1.380 . S
C456 C458 1.394 1_545 S
C457 C456 1.380 . S
C457 C461 1.382 . S
C458 C456 1.394 1_565 S
C458 C459 1.400 . S
C459 H451 0.931 . S
C459 C458 1.400 . S
C459 C460 1.375 . S
C460 C459 1.375 . S
C460 C461 1.415 1_565 S
C460 C462 1.501 . S
C461 H452 0.931 . S
C461 C457 1.382 . S
C461 C460 1.415 1_545 S
C462 C460 1.501 . S
C462 C463 1.384 . S
C462 C467 1.408 . S
C463 H453 0.930 . S
C463 C462 1.384 . S
C463 C464 1.389 . S
C464 C463 1.389 . S
C464 C465 1.405 . S
C465 H454 0.930 . S
C465 C464 1.405 . S
C465 C466 1.381 . S
C466 C465 1.381 . S
C466 C467 1.375 . S
C467 H455 0.930 . S
C467 C462 1.408 . S
C467 C466 1.375 . S
H468 C474 0.915 . S
H469 C477 0.931 . S
H470 C479 0.926 1_545 S
H471 C481 0.930 . S
H472 C483 0.930 . S
H473 C485 0.931 . S
C474 H468 0.915 . S
C474 C475 1.382 . S
C474 C476 1.401 1_545 S
C475 C474 1.382 . S
C475 C479 1.403 1_545 S
C476 C474 1.401 1_565 S
C476 C477 1.400 . S
C477 H469 0.931 . S
C477 C476 1.400 . S
C477 C478 1.375 . S
C478 C477 1.375 . S
C478 C479 1.411 . S
C478 C480 1.501 . S
C479 H470 0.926 1_565 S
C479 C475 1.403 1_565 S
C479 C478 1.411 . S
C480 C478 1.501 . S
C480 C481 1.384 . S
C480 C485 1.408 1_565 S
C481 H471 0.930 . S
C481 C480 1.384 . S
C481 C482 1.389 . S
C482 C481 1.389 . S
C482 C483 1.405 . S
C483 H472 0.930 . S
C483 C482 1.405 . S
C483 C484 1.364 1_565 S
C484 C483 1.364 1_545 S
C484 C485 1.400 . S
C485 H473 0.931 . S
C485 C480 1.408 1_545 S
C485 C484 1.400 . S
H486 C492 0.955 . S
H487 C495 0.931 . S
H488 C497 0.936 1_655 S
H489 C499 0.930 . S
H490 C501 0.930 . S
H491 C503 0.931 . S
C492 H486 0.955 . S
C492 C493 1.379 . S
C492 C494 1.382 1_655 S
C493 C492 1.379 . S
C493 C497 1.358 1_655 S
C494 C492 1.382 1_455 S
C494 C495 1.400 . S
C495 H487 0.931 . S
C495 C494 1.400 . S
C495 C496 1.375 . S
C496 C495 1.375 . S
C496 C497 1.417 . S
C496 C498 1.501 . S
C497 H488 0.936 1_455 S
C497 C493 1.358 1_455 S
C497 C496 1.417 . S
C498 C496 1.501 . S
C498 C499 1.384 . S
C498 C503 1.408 1_455 S
C499 H489 0.930 . S
C499 C498 1.384 . S
C499 C500 1.389 . S
C500 C499 1.389 . S
C500 C501 1.405 . S
C501 H490 0.930 . S
C501 C500 1.405 . S
C501 C502 1.364 1_455 S
C502 C501 1.364 1_655 S
C502 C503 1.400 . S
C503 H491 0.931 . S
C503 C498 1.408 1_655 S
C503 C502 1.400 . S
H504 C510 0.930 . S
H505 C513 0.931 . S
H506 C515 0.931 . S
H507 C517 0.930 . S
H508 C519 0.930 . S
H509 C521 0.931 . S
C510 H504 0.930 . S
C510 C511 1.380 . S
C510 C512 1.394 . S
C511 C510 1.380 . S
C511 C515 1.382 . S
C512 C510 1.394 . S
C512 C513 1.400 . S
C513 H505 0.931 . S
C513 C512 1.400 . S
C513 C514 1.375 . S
C514 C513 1.375 . S
C514 C515 1.415 . S
C514 C516 1.501 . S
C515 H506 0.931 . S
C515 C511 1.382 . S
C515 C514 1.415 . S
C516 C514 1.501 . S
C516 C517 1.384 . S
C516 C521 1.408 . S
C517 H507 0.930 . S
C517 C516 1.384 . S
C517 C518 1.389 . S
C518 C517 1.389 . S
C518 C519 1.405 . S
C519 H508 0.930 . S
C519 C518 1.405 . S
C519 C520 1.364 . S
C520 C519 1.364 . S
C520 C521 1.400 . S
C521 H509 0.931 . S
C521 C516 1.408 . S
C521 C520 1.400 . S
H522 C528 0.930 . S
H523 C531 0.931 . S
H524 C533 0.931 . S
H525 C535 0.930 . S
H526 C537 0.930 . S
H527 C539 0.931 . S
C528 H522 0.930 . S
C528 C529 1.380 . S
C528 C530 1.394 . S
C529 C528 1.380 . S
C529 C533 1.382 . S
C530 C528 1.394 . S
C530 C531 1.400 . S
C531 H523 0.931 . S
C531 C530 1.400 . S
C531 C532 1.375 . S
C532 C531 1.375 . S
C532 C533 1.415 . S
C532 C534 1.501 . S
C533 H524 0.931 . S
C533 C529 1.382 . S
C533 C532 1.415 . S
C534 C532 1.501 . S
C534 C535 1.384 . S
C534 C539 1.408 . S
C535 H525 0.930 . S
C535 C534 1.384 . S
C535 C536 1.389 . S
C536 C535 1.389 . S
C536 C537 1.405 . S
C537 H526 0.930 . S
C537 C536 1.405 . S
C537 C538 1.364 . S
C538 C537 1.364 . S
C538 C539 1.400 . S
C539 H527 0.931 . S
C539 C534 1.408 . S
C539 C538 1.400 . S
H540 C546 0.930 . S
H541 C549 0.931 . S
H542 C551 0.931 . S
H543 C553 0.930 . S
H544 C555 0.930 . S
H545 C557 0.931 . S
C546 H540 0.930 . S
C546 C547 1.380 . S
C546 C548 1.394 . S
C547 C546 1.380 . S
C547 C551 1.382 . S
C548 C546 1.394 . S
C548 C549 1.400 . S
C549 H541 0.931 . S
C549 C548 1.400 . S
C549 C550 1.375 . S
C550 C549 1.375 . S
C550 C551 1.415 . S
C550 C552 1.501 . S
C551 H542 0.931 . S
C551 C547 1.382 . S
C551 C550 1.415 . S
C552 C550 1.501 . S
C552 C553 1.384 . S
C552 C557 1.408 . S
C553 H543 0.930 . S
C553 C552 1.384 . S
C553 C554 1.389 . S
C554 C553 1.389 . S
C554 C555 1.405 . S
C555 H544 0.930 . S
C555 C554 1.405 . S
C555 C556 1.364 . S
C556 C555 1.364 . S
C556 C557 1.400 . S
C557 H545 0.931 . S
C557 C552 1.408 . S
C557 C556 1.400 . S
H558 C564 0.930 . S
H559 C567 0.931 . S
H560 C569 0.931 . S
H561 C571 0.930 . S
H562 C573 0.930 . S
H563 C575 0.931 . S
C564 H558 0.930 . S
C564 C565 1.380 . S
C564 C566 1.394 . S
C565 C564 1.380 . S
C565 C569 1.382 . S
C566 C564 1.394 . S
C566 C567 1.400 . S
C567 H559 0.931 . S
C567 C566 1.400 . S
C567 C568 1.375 . S
C568 C567 1.375 . S
C568 C569 1.415 . S
C568 C570 1.501 . S
C569 H560 0.931 . S
C569 C565 1.382 . S
C569 C568 1.415 . S
C570 C568 1.501 . S
C570 C571 1.384 . S
C570 C575 1.408 . S
C571 H561 0.930 . S
C571 C570 1.384 . S
C571 C572 1.389 . S
C572 C571 1.389 . S
C572 C573 1.405 . S
C573 H562 0.930 . S
C573 C572 1.405 . S
C573 C574 1.364 . S
C574 C573 1.364 . S
C574 C575 1.400 . S
C575 H563 0.931 . S
C575 C570 1.408 . S
C575 C574 1.400 . S
C576 C577 1.377 1_455 S
C576 H580 0.983 . S
C576 C585 1.368 . S
C577 C576 1.377 1_655 S
C577 C579 1.387 . S
H578 C585 0.949 . S
C579 C577 1.387 . S
C579 C581 1.390 . S
C579 H583 0.950 . S
H580 C576 0.983 . S
C581 C579 1.390 . S
C581 C582 1.387 . S
C581 H584 0.950 . S
C582 C581 1.387 . S
C582 C585 1.389 1_655 S
H583 C579 0.950 . S
H584 C581 0.950 . S
C585 C576 1.368 . S
C585 H578 0.949 . S
C585 C582 1.389 1_455 S
C586 C587 1.387 . S
C586 H590 0.950 . S
C586 C595 1.390 . S
C587 C586 1.387 . S
C587 C589 1.387 . S
H588 C595 0.950 . S
C589 C587 1.387 . S
C589 C591 1.390 . S
C589 H593 0.950 . S
H590 C586 0.950 . S
C591 C589 1.390 . S
C591 C592 1.387 . S
C591 H594 0.950 . S
C592 C591 1.387 . S
C592 C595 1.387 . S
H593 C589 0.950 . S
H594 C591 0.950 . S
C595 C586 1.390 . S
C595 H588 0.950 . S
C595 C592 1.387 . S
C596 C597 1.387 . S
C596 H600 0.950 . S
C596 C605 1.390 . S
C597 C596 1.387 . S
C597 C599 1.387 1_545 S
H598 C605 0.950 . S
C599 C597 1.387 1_565 S
C599 C601 1.390 . S
C599 H603 0.950 . S
H600 C596 0.950 . S
C601 C599 1.390 . S
C601 C602 1.387 1_565 S
C601 H604 0.950 . S
C602 C601 1.387 1_545 S
C602 C605 1.387 . S
H603 C599 0.950 . S
H604 C601 0.950 . S
C605 C596 1.390 . S
C605 H598 0.950 . S
C605 C602 1.387 . S
C606 C607 1.387 1_545 S
C606 H610 0.950 . S
C606 C615 1.390 . S
C607 C606 1.387 1_565 S
C607 C609 1.387 . S
H608 C615 0.950 . S
C609 C607 1.387 . S
C609 C611 1.390 . S
C609 H613 0.950 . S
H610 C606 0.950 . S
C611 C609 1.390 . S
C611 C612 1.387 . S
C611 H614 0.950 . S
C612 C611 1.387 . S
C612 C615 1.387 1_565 S
H613 C609 0.950 . S
H614 C611 0.950 . S
C615 C606 1.390 . S
C615 H608 0.950 . S
C615 C612 1.387 1_545 S
C616 C617 1.387 1_655 S
C616 H620 0.950 . S
C616 C625 1.390 . S
C617 C616 1.387 1_455 S
C617 C619 1.387 . S
H618 C625 0.950 . S
C619 C617 1.387 . S
C619 C621 1.390 . S
C619 H623 0.950 . S
H620 C616 0.950 . S
C621 C619 1.390 . S
C621 C622 1.387 . S
C621 H624 0.950 . S
C622 C621 1.387 . S
C622 C625 1.387 1_455 S
H623 C619 0.950 . S
H624 C621 0.950 . S
C625 C616 1.390 . S
C625 H618 0.950 . S
C625 C622 1.387 1_655 S
C626 C627 1.387 . S
C626 H630 0.950 . S
C626 C635 1.390 . S
C627 C626 1.387 . S
C627 C629 1.387 . S
H628 C635 0.950 . S
C629 C627 1.387 . S
C629 C631 1.390 . S
C629 H633 0.950 . S
H630 C626 0.950 . S
C631 C629 1.390 . S
C631 C632 1.387 . S
C631 H634 0.950 . S
C632 C631 1.387 . S
C632 C635 1.387 . S
H633 C629 0.950 . S
H634 C631 0.950 . S
C635 C626 1.390 . S
C635 H628 0.950 . S
C635 C632 1.387 . S
C636 C637 1.387 1_655 S
C636 H640 0.950 . S
C636 C645 1.390 . S
C637 C636 1.387 1_455 S
C637 C639 1.387 . S
H638 C645 0.950 . S
C639 C637 1.387 . S
C639 C641 1.390 . S
C639 H643 0.950 . S
H640 C636 0.950 . S
C641 C639 1.390 . S
C641 C642 1.390 1_455 S
C641 H644 0.950 . S
C642 C641 1.390 1_655 S
C642 C645 1.384 . S
H643 C639 0.950 . S
H644 C641 0.950 . S
C645 C636 1.390 . S
C645 H638 0.950 . S
C645 C642 1.384 . S
C646 C647 1.387 . S
C646 H650 0.950 . S
C646 C655 1.390 . S
C647 C646 1.387 . S
C647 C649 1.387 . S
H648 C655 0.950 . S
C649 C647 1.387 . S
C649 C651 1.390 . S
C649 H653 0.950 . S
H650 C646 0.950 . S
C651 C649 1.390 . S
C651 C652 1.387 . S
C651 H654 0.950 . S
C652 C651 1.387 . S
C652 C655 1.387 . S
H653 C649 0.950 . S
H654 C651 0.950 . S
C655 C646 1.390 . S
C655 H648 0.950 . S
C655 C652 1.387 . S
C656 C657 1.387 . S
C656 H660 0.950 . S
C656 C665 1.390 . S
C657 C656 1.387 . S
C657 C659 1.387 1_565 S
H658 C665 0.950 . S
C659 C657 1.387 1_545 S
C659 C661 1.390 . S
C659 H663 0.950 . S
H660 C656 0.950 . S
C661 C659 1.390 . S
C661 C662 1.396 . S
C661 H664 0.950 . S
C662 C661 1.396 . S
C662 C665 1.372 1_545 S
H663 C659 0.950 . S
H664 C661 0.950 . S
C665 C656 1.390 . S
C665 H658 0.950 . S
C665 C662 1.372 1_565 S
C666 C667 1.387 1_565 S
C666 H670 0.950 . S
C666 C675 1.390 . S
C667 C666 1.387 1_545 S
C667 C669 1.387 . S
H668 C675 0.950 . S
C669 C667 1.387 . S
C669 C671 1.390 . S
C669 H673 0.950 . S
H670 C666 0.950 . S
C671 C669 1.390 . S
C671 C672 1.384 1_545 S
C671 H674 0.950 . S
C672 C671 1.384 1_565 S
C672 C675 1.394 . S
H673 C669 0.950 . S
H674 C671 0.950 . S
C675 C666 1.390 . S
C675 H668 0.950 . S
C675 C672 1.394 . S
C676 C677 1.387 . S
C676 H680 0.950 . S
C676 C685 1.390 . S
C677 C676 1.387 . S
C677 C679 1.387 1_655 S
H678 C685 0.950 . S
C679 C677 1.387 1_455 S
C679 C681 1.390 . S
C679 H683 0.950 . S
H680 C676 0.950 . S
C681 C679 1.390 . S
C681 C682 1.385 1_455 S
C681 H684 0.950 . S
C682 C681 1.385 1_655 S
C682 C685 1.392 . S
H683 C679 0.950 . S
H684 C681 0.950 . S
C685 C676 1.390 . S
C685 H678 0.950 . S
C685 C682 1.392 . S
C686 C687 1.387 . S
C686 H690 0.950 . S
C686 C695 1.390 . S
C687 C686 1.387 . S
C687 C689 1.387 . S
H688 C695 0.950 . S
C689 C687 1.387 . S
C689 C691 1.390 . S
C689 H693 0.950 . S
H690 C686 0.950 . S
C691 C689 1.390 . S
C691 C692 1.387 . S
C691 H694 0.950 . S
C692 C691 1.387 . S
C692 C695 1.387 . S
H693 C689 0.950 . S
H694 C691 0.950 . S
C695 C686 1.390 . S
C695 H688 0.950 . S
C695 C692 1.387 . S
C696 C697 1.387 . S
C696 H700 0.950 . S
C696 C705 1.390 . S
C697 C696 1.387 . S
C697 C699 1.387 . S
H698 C705 0.950 . S
C699 C697 1.387 . S
C699 C701 1.390 . S
C699 H703 0.950 . S
H700 C696 0.950 . S
C701 C699 1.390 . S
C701 C702 1.387 . S
C701 H704 0.950 . S
C702 C701 1.387 . S
C702 C705 1.387 . S
H703 C699 0.950 . S
H704 C701 0.950 . S
C705 C696 1.390 . S
C705 H698 0.950 . S
C705 C702 1.387 . S
C706 C707 1.387 . S
C706 H710 0.950 . S
C706 C715 1.390 . S
C707 C706 1.387 . S
C707 C709 1.387 . S
H708 C715 0.950 . S
C709 C707 1.387 . S
C709 C711 1.390 . S
C709 H713 0.950 . S
H710 C706 0.950 . S
C711 C709 1.390 . S
C711 C712 1.387 . S
C711 H714 0.950 . S
C712 C711 1.387 . S
C712 C715 1.387 . S
H713 C709 0.950 . S
H714 C711 0.950 . S
C715 C706 1.390 . S
C715 H708 0.950 . S
C715 C712 1.387 . S
C716 C717 1.387 . S
C716 H720 0.950 . S
C716 C725 1.390 . S
C717 C716 1.387 . S
C717 C719 1.387 . S
H718 C725 0.950 . S
C719 C717 1.387 . S
C719 C721 1.390 . S
C719 H723 0.950 . S
H720 C716 0.950 . S
C721 C719 1.390 . S
C721 C722 1.387 . S
C721 H724 0.950 . S
C722 C721 1.387 . S
C722 C725 1.387 . S
H723 C719 0.950 . S
H724 C721 0.950 . S
C725 C716 1.390 . S
C725 H718 0.950 . S
C725 C722 1.387 . S
C726 C727 1.387 . S
C726 H730 0.950 . S
C726 C735 1.390 . S
C727 C726 1.387 . S
C727 C729 1.387 . S
H728 C735 0.950 . S
C729 C727 1.387 . S
C729 C731 1.390 . S
C729 H733 0.950 . S
H730 C726 0.950 . S
C731 C729 1.390 . S
C731 C732 1.387 . S
C731 H734 0.950 . S
C732 C731 1.387 . S
C732 C735 1.387 . S
H733 C729 0.950 . S
H734 C731 0.950 . S
C735 C726 1.390 . S
C735 H728 0.950 . S
C735 C732 1.387 . S
C736 C737 1.387 . S
C736 H740 0.950 . S
C736 C745 1.390 . S
C737 C736 1.387 . S
C737 C739 1.387 . S
H738 C745 0.950 . S
C739 C737 1.387 . S
C739 C741 1.390 . S
C739 H743 0.950 . S
H740 C736 0.950 . S
C741 C739 1.390 . S
C741 C742 1.387 . S
C741 H744 0.950 . S
C742 C741 1.387 . S
C742 C745 1.387 . S
H743 C739 0.950 . S
H744 C741 0.950 . S
C745 C736 1.390 . S
C745 H738 0.950 . S
C745 C742 1.387 . S
C746 C747 1.387 . S
C746 H750 0.950 . S
C746 C755 1.390 . S
C747 C746 1.387 . S
C747 C749 1.387 . S
H748 C755 0.950 . S
C749 C747 1.387 . S
C749 C751 1.390 . S
C749 H753 0.950 . S
H750 C746 0.950 . S
C751 C749 1.390 . S
C751 C752 1.387 . S
C751 H754 0.950 . S
C752 C751 1.387 . S
C752 C755 1.387 . S
H753 C749 0.950 . S
H754 C751 0.950 . S
C755 C746 1.390 . S
C755 H748 0.950 . S
C755 C752 1.387 . S
C756 C757 1.387 . S
C756 H760 0.950 . S
C756 C765 1.390 . S
C757 C756 1.387 . S
C757 C759 1.387 . S
H758 C765 0.950 . S
C759 C757 1.387 . S
C759 C761 1.390 . S
C759 H763 0.950 . S
H760 C756 0.950 . S
C761 C759 1.390 . S
C761 C762 1.387 . S
C761 H764 0.950 . S
C762 C761 1.387 . S
C762 C765 1.387 . S
H763 C759 0.950 . S
H764 C761 0.950 . S
C765 C756 1.390 . S
C765 H758 0.950 . S
C765 C762 1.387 . S
C766 C767 1.387 . S
C766 H770 0.950 . S
C766 C775 1.390 . S
C767 C766 1.387 . S
C767 C769 1.387 . S
H768 C775 0.950 . S
C769 C767 1.387 . S
C769 C771 1.390 . S
C769 H773 0.950 . S
H770 C766 0.950 . S
C771 C769 1.390 . S
C771 C772 1.387 . S
C771 H774 0.950 . S
C772 C771 1.387 . S
C772 C775 1.387 . S
H773 C769 0.950 . S
H774 C771 0.950 . S
C775 C766 1.390 . S
C775 H768 0.950 . S
C775 C772 1.387 . S
C776 C777 1.387 . S
C776 H780 0.950 . S
C776 C785 1.390 . S
C777 C776 1.387 . S
C777 C779 1.387 . S
H778 C785 0.950 . S
C779 C777 1.387 . S
C779 C781 1.390 . S
C779 H783 0.950 . S
H780 C776 0.950 . S
C781 C779 1.390 . S
C781 C782 1.387 . S
C781 H784 0.950 . S
C782 C781 1.387 . S
C782 C785 1.387 . S
H783 C779 0.950 . S
H784 C781 0.950 . S
C785 C776 1.390 . S
C785 H778 0.950 . S
C785 C782 1.387 . S
C786 C787 1.387 . S
C786 H790 0.950 . S
C786 C795 1.390 . S
C787 C786 1.387 . S
C787 C789 1.387 . S
H788 C795 0.950 . S
C789 C787 1.387 . S
C789 C791 1.390 . S
C789 H793 0.950 . S
H790 C786 0.950 . S
C791 C789 1.390 . S
C791 C792 1.387 . S
C791 H794 0.950 . S
C792 C791 1.387 . S
C792 C795 1.387 . S
H793 C789 0.950 . S
H794 C791 0.950 . S
C795 C786 1.390 . S
C795 H788 0.950 . S
C795 C792 1.387 . S
C796 C797 1.387 . S
C796 H800 0.950 . S
C796 C805 1.390 . S
C797 C796 1.387 . S
C797 C799 1.387 . S
H798 C805 0.950 . S
C799 C797 1.387 . S
C799 C801 1.390 . S
C799 H803 0.950 . S
H800 C796 0.950 . S
C801 C799 1.390 . S
C801 C802 1.387 . S
C801 H804 0.950 . S
C802 C801 1.387 . S
C802 C805 1.387 . S
H803 C799 0.950 . S
H804 C801 0.950 . S
C805 C796 1.390 . S
C805 H798 0.950 . S
C805 C802 1.387 . S
C806 C807 1.387 . S
C806 H810 0.950 . S
C806 C815 1.390 . S
C807 C806 1.387 . S
C807 C809 1.387 . S
H808 C815 0.950 . S
C809 C807 1.387 . S
C809 C811 1.390 . S
C809 H813 0.950 . S
H810 C806 0.950 . S
C811 C809 1.390 . S
C811 C812 1.387 . S
C811 H814 0.950 . S
C812 C811 1.387 . S
C812 C815 1.387 . S
H813 C809 0.950 . S
H814 C811 0.950 . S
C815 C806 1.390 . S
C815 H808 0.950 . S
C815 C812 1.387 . S
C816 C817 1.387 . S
C816 H820 0.950 . S
C816 C825 1.390 . S
C817 C816 1.387 . S
C817 C819 1.387 . S
H818 C825 0.950 . S
C819 C817 1.387 . S
C819 C821 1.390 . S
C819 H823 0.950 . S
H820 C816 0.950 . S
C821 C819 1.390 . S
C821 C822 1.387 . S
C821 H824 0.950 . S
C822 C821 1.387 . S
C822 C825 1.387 . S
H823 C819 0.950 . S
H824 C821 0.950 . S
C825 C816 1.390 . S
C825 H818 0.950 . S
C825 C822 1.387 . S
C826 C827 1.387 . S
C826 H830 0.950 . S
C826 C835 1.390 . S
C827 C826 1.387 . S
C827 C829 1.387 . S
H828 C835 0.950 . S
C829 C827 1.387 . S
C829 C831 1.390 . S
C829 H833 0.950 . S
H830 C826 0.950 . S
C831 C829 1.390 . S
C831 C832 1.387 . S
C831 H834 0.950 . S
C832 C831 1.387 . S
C832 C835 1.387 . S
H833 C829 0.950 . S
H834 C831 0.950 . S
C835 C826 1.390 . S
C835 H828 0.950 . S
C835 C832 1.387 . S
C836 C837 1.387 . S
C836 H840 0.950 . S
C836 C845 1.390 . S
C837 C836 1.387 . S
C837 C839 1.387 . S
H838 C845 0.950 . S
C839 C837 1.387 . S
C839 C841 1.390 . S
C839 H843 0.950 . S
H840 C836 0.950 . S
C841 C839 1.390 . S
C841 C842 1.387 . S
C841 H844 0.950 . S
C842 C841 1.387 . S
C842 C845 1.387 . S
H843 C839 0.950 . S
H844 C841 0.950 . S
C845 C836 1.390 . S
C845 H838 0.950 . S
C845 C842 1.387 . S
C846 C847 1.387 . S
C846 H850 0.950 . S
C846 C855 1.390 . S
C847 C846 1.387 . S
C847 C849 1.387 . S
H848 C855 0.950 . S
C849 C847 1.387 . S
C849 C851 1.390 . S
C849 H853 0.950 . S
H850 C846 0.950 . S
C851 C849 1.390 . S
C851 C852 1.387 . S
C851 H854 0.950 . S
C852 C851 1.387 . S
C852 C855 1.387 . S
H853 C849 0.950 . S
H854 C851 0.950 . S
C855 C846 1.390 . S
C855 H848 0.950 . S
C855 C852 1.387 . S
C856 C857 1.387 . S
C856 H860 0.950 . S
C856 C865 1.390 . S
C857 C856 1.387 . S
C857 C859 1.387 . S
H858 C865 0.950 . S
C859 C857 1.387 . S
C859 C861 1.390 . S
C859 H863 0.950 . S
H860 C856 0.950 . S
C861 C859 1.390 . S
C861 C862 1.387 . S
C861 H864 0.950 . S
C862 C861 1.387 . S
C862 C865 1.387 . S
H863 C859 0.950 . S
H864 C861 0.950 . S
C865 C856 1.390 . S
C865 H858 0.950 . S
C865 C862 1.387 . S
C866 C867 1.387 . S
C866 H870 0.950 . S
C866 C875 1.390 . S
C867 C866 1.387 . S
C867 C869 1.387 . S
H868 C875 0.950 . S
C869 C867 1.387 . S
C869 C871 1.390 . S
C869 H873 0.950 . S
H870 C866 0.950 . S
C871 C869 1.390 . S
C871 C872 1.387 . S
C871 H874 0.950 . S
C872 C871 1.387 . S
C872 C875 1.387 . S
H873 C869 0.950 . S
H874 C871 0.950 . S
C875 C866 1.390 . S
C875 H868 0.950 . S
C875 C872 1.387 . S
C876 C877 1.387 . S
C876 H880 0.950 . S
C876 C885 1.390 . S
C877 C876 1.387 . S
C877 C879 1.387 . S
H878 C885 0.950 . S
C879 C877 1.387 . S
C879 C881 1.390 . S
C879 H883 0.950 . S
H880 C876 0.950 . S
C881 C879 1.390 . S
C881 C882 1.387 . S
C881 H884 0.950 . S
C882 C881 1.387 . S
C882 C885 1.387 . S
H883 C879 0.950 . S
H884 C881 0.950 . S
C885 C876 1.390 . S
C885 H878 0.950 . S
C885 C882 1.387 . S
C886 C887 1.387 . S
C886 H890 0.950 . S
C886 C895 1.390 . S
C887 C886 1.387 . S
C887 C889 1.387 . S
H888 C895 0.950 . S
C889 C887 1.387 . S
C889 C891 1.390 . S
C889 H893 0.950 . S
H890 C886 0.950 . S
C891 C889 1.390 . S
C891 C892 1.387 . S
C891 H894 0.950 . S
C892 C891 1.387 . S
C892 C895 1.387 . S
H893 C889 0.950 . S
H894 C891 0.950 . S
C895 C886 1.390 . S
C895 H888 0.950 . S
C895 C892 1.387 . S
C896 C897 1.387 . S
C896 H900 0.950 . S
C896 C905 1.390 . S
C897 C896 1.387 . S
C897 C899 1.387 . S
H898 C905 0.950 . S
C899 C897 1.387 . S
C899 C901 1.390 . S
C899 H903 0.950 . S
H900 C896 0.950 . S
C901 C899 1.390 . S
C901 C902 1.387 . S
C901 H904 0.950 . S
C902 C901 1.387 . S
C902 C905 1.387 . S
H903 C899 0.950 . S
H904 C901 0.950 . S
C905 C896 1.390 . S
C905 H898 0.950 . S
C905 C902 1.387 . S
C906 C907 1.387 . S
C906 H910 0.950 . S
C906 C915 1.390 . S
C907 C906 1.387 . S
C907 C909 1.387 . S
H908 C915 0.950 . S
C909 C907 1.387 . S
C909 C911 1.390 . S
C909 H913 0.950 . S
H910 C906 0.950 . S
C911 C909 1.390 . S
C911 C912 1.387 . S
C911 H914 0.950 . S
C912 C911 1.387 . S
C912 C915 1.387 . S
H913 C909 0.950 . S
H914 C911 0.950 . S
C915 C906 1.390 . S
C915 H908 0.950 . S
C915 C912 1.387 . S
C916 C917 1.387 . S
C916 H920 0.950 . S
C916 C925 1.390 . S
C917 C916 1.387 . S
C917 C919 1.387 . S
H918 C925 0.950 . S
C919 C917 1.387 . S
C919 C921 1.390 . S
C919 H923 0.950 . S
H920 C916 0.950 . S
C921 C919 1.390 . S
C921 C922 1.387 . S
C921 H924 0.950 . S
C922 C921 1.387 . S
C922 C925 1.387 . S
H923 C919 0.950 . S
H924 C921 0.950 . S
C925 C916 1.390 . S
C925 H918 0.950 . S
C925 C922 1.387 . S
C926 C927 1.387 . S
C926 H930 0.950 . S
C926 C935 1.390 . S
C927 C926 1.387 . S
C927 C929 1.387 . S
H928 C935 0.950 . S
C929 C927 1.387 . S
C929 C931 1.390 . S
C929 H933 0.950 . S
H930 C926 0.950 . S
C931 C929 1.390 . S
C931 C932 1.387 . S
C931 H934 0.950 . S
C932 C931 1.387 . S
C932 C935 1.387 . S
H933 C929 0.950 . S
H934 C931 0.950 . S
C935 C926 1.390 . S
C935 H928 0.950 . S
C935 C932 1.387 . S
C936 C937 1.387 . S
C936 H940 0.950 . S
C936 C945 1.390 . S
C937 C936 1.387 . S
C937 C939 1.387 . S
H938 C945 0.950 . S
C939 C937 1.387 . S
C939 C941 1.390 . S
C939 H943 0.950 . S
H940 C936 0.950 . S
C941 C939 1.390 . S
C941 C942 1.387 . S
C941 H944 0.950 . S
C942 C941 1.387 . S
C942 C945 1.387 . S
H943 C939 0.950 . S
H944 C941 0.950 . S
C945 C936 1.390 . S
C945 H938 0.950 . S
C945 C942 1.387 . S
C946 C947 1.387 . S
C946 H950 0.950 . S
C946 C955 1.390 . S
C947 C946 1.387 . S
C947 C949 1.387 . S
H948 C955 0.950 . S
C949 C947 1.387 . S
C949 C951 1.390 . S
C949 H953 0.950 . S
H950 C946 0.950 . S
C951 C949 1.390 . S
C951 C952 1.387 . S
C951 H954 0.950 . S
C952 C951 1.387 . S
C952 C955 1.387 . S
H953 C949 0.950 . S
H954 C951 0.950 . S
C955 C946 1.390 . S
C955 H948 0.950 . S
C955 C952 1.387 . S
C956 C957 1.387 . S
C956 H960 0.950 . S
C956 C965 1.390 . S
C957 C956 1.387 . S
C957 C959 1.387 . S
H958 C965 0.950 . S
C959 C957 1.387 . S
C959 C961 1.390 . S
C959 H963 0.950 . S
H960 C956 0.950 . S
C961 C959 1.390 . S
C961 C962 1.387 . S
C961 H964 0.950 . S
C962 C961 1.387 . S
C962 C965 1.387 . S
H963 C959 0.950 . S
H964 C961 0.950 . S
C965 C956 1.390 . S
C965 H958 0.950 . S
C965 C962 1.387 . S
C966 C967 1.387 . S
C966 H970 0.950 . S
C966 C975 1.390 . S
C967 C966 1.387 . S
C967 C969 1.387 . S
H968 C975 0.950 . S
C969 C967 1.387 . S
C969 C971 1.390 . S
C969 H973 0.941 1_556 S
H970 C966 0.950 . S
C971 C969 1.390 . S
C971 C972 1.387 . S
C971 H974 0.950 . S
C972 C971 1.387 . S
C972 C975 1.387 . S
H973 C969 0.941 1_554 S
H974 C971 0.950 . S
C975 C966 1.390 . S
C975 H968 0.950 . S
C975 C972 1.387 . S
C976 C977 1.387 . S
C976 H980 0.950 1_556 S
C976 C985 1.390 . S
C977 C976 1.387 . S
C977 C979 1.387 . S
H978 C985 0.950 . S
C979 C977 1.387 . S
C979 C981 1.390 . S
C979 H983 0.950 . S
H980 C976 0.950 1_554 S
C981 C979 1.390 . S
C981 C982 1.387 . S
C981 H984 0.950 . S
C982 C981 1.387 . S
C982 C985 1.387 . S
H983 C979 0.950 . S
H984 C981 0.950 . S
C985 C976 1.390 . S
C985 H978 0.950 . S
C985 C982 1.387 . S
C986 C987 1.387 . S
C986 H990 0.950 . S
C986 C995 1.390 . S
C987 C986 1.387 . S
C987 C989 1.387 . S
H988 C995 0.950 . S
C989 C987 1.387 . S
C989 C991 1.390 . S
C989 H993 0.950 . S
H990 C986 0.950 . S
C991 C989 1.390 . S
C991 C992 1.387 . S
C991 H994 0.950 . S
C992 C991 1.387 . S
C992 C995 1.387 . S
H993 C989 0.950 . S
H994 C991 0.950 . S
C995 C986 1.390 . S
C995 H988 0.950 . S
C995 C992 1.387 . S
C996 C997 1.387 . S
C996 H1000 0.950 . S
C996 C1005 1.390 . S
C997 C996 1.387 . S
C997 C999 1.387 . S
H998 C1005 0.950 . S
C999 C997 1.387 . S
C999 C1001 1.390 . S
C999 H1003 0.950 . S
H1000 C996 0.950 . S
C1001 C999 1.390 . S
C1001 C1002 1.387 . S
C1001 H1004 0.950 . S
C1002 C1001 1.387 . S
C1002 C1005 1.387 . S
H1003 C999 0.950 . S
H1004 C1001 0.950 . S
C1005 C996 1.390 . S
C1005 H998 0.950 . S
C1005 C1002 1.387 . S
C1006 C1007 1.387 . S
C1006 H1010 0.950 . S
C1006 C1015 1.390 . S
C1007 C1006 1.387 . S
C1007 C1009 1.387 . S
H1008 C1015 0.950 . S
C1009 C1007 1.387 . S
C1009 C1011 1.390 . S
C1009 H1013 0.950 . S
H1010 C1006 0.950 . S
C1011 C1009 1.390 . S
C1011 C1012 1.387 . S
C1011 H1014 0.950 . S
C1012 C1011 1.387 . S
C1012 C1015 1.387 . S
H1013 C1009 0.950 . S
H1014 C1011 0.950 . S
C1015 C1006 1.390 . S
C1015 H1008 0.950 . S
C1015 C1012 1.387 . S
C1016 C1017 1.387 . S
C1016 H1020 0.950 . S
C1016 C1025 1.390 . S
C1017 C1016 1.387 . S
C1017 C1019 1.387 . S
H1018 C1025 0.950 . S
C1019 C1017 1.387 . S
C1019 C1021 1.390 . S
C1019 H1023 0.950 1_556 S
H1020 C1016 0.950 . S
C1021 C1019 1.390 . S
C1021 C1022 1.387 . S
C1021 H1024 0.950 . S
C1022 C1021 1.387 . S
C1022 C1025 1.387 . S
H1023 C1019 0.950 1_554 S
H1024 C1021 0.950 . S
C1025 C1016 1.390 . S
C1025 H1018 0.950 . S
C1025 C1022 1.387 . S
C1026 C1027 1.387 . S
C1026 H1030 0.950 . S
C1026 C1035 1.390 . S
C1027 C1026 1.387 . S
C1027 C1029 1.387 . S
H1028 C1035 0.950 . S
C1029 C1027 1.387 . S
C1029 C1031 1.390 . S
C1029 H1033 0.950 . S
H1030 C1026 0.950 . S
C1031 C1029 1.390 . S
C1031 C1032 1.387 . S
C1031 H1034 0.950 . S
C1032 C1031 1.387 . S
C1032 C1035 1.387 . S
H1033 C1029 0.950 . S
H1034 C1031 0.950 . S
C1035 C1026 1.390 . S
C1035 H1028 0.950 . S
C1035 C1032 1.387 . S
C1036 C1037 1.387 . S
C1036 H1040 0.950 . S
C1036 C1045 1.390 . S
C1037 C1036 1.387 . S
C1037 C1039 1.387 . S
H1038 C1045 0.950 . S
C1039 C1037 1.387 . S
C1039 C1041 1.390 . S
C1039 H1043 0.950 . S
H1040 C1036 0.950 . S
C1041 C1039 1.390 . S
C1041 C1042 1.387 . S
C1041 H1044 0.950 . S
C1042 C1041 1.387 . S
C1042 C1045 1.387 . S
H1043 C1039 0.950 . S
H1044 C1041 0.950 . S
C1045 C1036 1.390 . S
C1045 H1038 0.950 . S
C1045 C1042 1.387 . S
C1046 C1047 1.387 . S
C1046 H1050 0.950 . S
C1046 C1055 1.390 . S
C1047 C1046 1.387 . S
C1047 C1049 1.387 . S
H1048 C1055 0.950 . S
C1049 C1047 1.387 . S
C1049 C1051 1.390 . S
C1049 H1053 0.950 . S
H1050 C1046 0.950 . S
C1051 C1049 1.390 . S
C1051 C1052 1.387 . S
C1051 H1054 0.950 . S
C1052 C1051 1.387 . S
C1052 C1055 1.387 . S
H1053 C1049 0.950 . S
H1054 C1051 0.950 . S
C1055 C1046 1.390 . S
C1055 H1048 0.950 . S
C1055 C1052 1.387 . S
C1056 C1057 1.387 . S
C1056 H1060 0.950 . S
C1056 C1065 1.390 . S
C1057 C1056 1.387 . S
C1057 C1059 1.387 . S
H1058 C1065 0.950 . S
C1059 C1057 1.387 . S
C1059 C1061 1.390 . S
C1059 H1063 0.950 . S
H1060 C1056 0.950 . S
C1061 C1059 1.390 . S
C1061 C1062 1.387 . S
C1061 H1064 0.950 . S
C1062 C1061 1.387 . S
C1062 C1065 1.387 . S
H1063 C1059 0.950 . S
H1064 C1061 0.950 . S
C1065 C1056 1.390 . S
C1065 H1058 0.950 . S
C1065 C1062 1.387 . S
C1066 C1067 1.387 . S
C1066 H1070 0.950 . S
C1066 C1075 1.390 . S
C1067 C1066 1.387 . S
C1067 C1069 1.387 . S
H1068 C1075 0.950 . S
C1069 C1067 1.387 . S
C1069 C1071 1.390 . S
C1069 H1073 0.950 . S
H1070 C1066 0.950 . S
C1071 C1069 1.390 . S
C1071 C1072 1.387 . S
C1071 H1074 0.950 . S
C1072 C1071 1.387 . S
C1072 C1075 1.387 . S
H1073 C1069 0.950 . S
H1074 C1071 0.950 . S
C1075 C1066 1.390 . S
C1075 H1068 0.950 . S
C1075 C1072 1.387 . S
C1076 C1077 1.387 . S
C1076 H1080 0.950 . S
C1076 C1085 1.390 . S
C1077 C1076 1.387 . S
C1077 C1079 1.387 . S
H1078 C1085 0.950 . S
C1079 C1077 1.387 . S
C1079 C1081 1.390 . S
C1079 H1083 0.950 . S
H1080 C1076 0.950 . S
C1081 C1079 1.390 . S
C1081 C1082 1.387 . S
C1081 H1084 0.950 . S
C1082 C1081 1.387 . S
C1082 C1085 1.387 . S
H1083 C1079 0.950 . S
H1084 C1081 0.950 . S
C1085 C1076 1.390 . S
C1085 H1078 0.950 . S
C1085 C1082 1.387 . S
C1086 C1087 1.387 . S
C1086 H1090 0.950 . S
C1086 C1095 1.390 . S
C1087 C1086 1.387 . S
C1087 C1089 1.387 . S
H1088 C1095 0.950 . S
C1089 C1087 1.387 . S
C1089 C1091 1.390 . S
C1089 H1093 0.950 1_455 S
H1090 C1086 0.950 . S
C1091 C1089 1.390 . S
C1091 C1092 1.387 . S
C1091 H1094 0.950 1_455 S
C1092 C1091 1.387 . S
C1092 C1095 1.387 . S
H1093 C1089 0.950 1_655 S
H1094 C1091 0.950 1_655 S
C1095 C1086 1.390 . S
C1095 H1088 0.950 . S
C1095 C1092 1.387 . S
C1096 C1097 1.387 . S
C1096 H1100 0.950 . S
C1096 C1105 1.390 . S
C1097 C1096 1.387 . S
C1097 C1099 1.387 . S
H1098 C1105 0.950 . S
C1099 C1097 1.387 . S
C1099 C1101 1.390 . S
C1099 H1103 0.950 . S
H1100 C1096 0.950 . S
C1101 C1099 1.390 . S
C1101 C1102 1.387 . S
C1101 H1104 0.950 . S
C1102 C1101 1.387 . S
C1102 C1105 1.387 . S
H1103 C1099 0.950 . S
H1104 C1101 0.950 . S
C1105 C1096 1.390 . S
C1105 H1098 0.950 . S
C1105 C1102 1.387 . S
C1106 C1107 1.387 1_545 S
C1106 H1110 0.950 . S
C1106 C1115 1.390 . S
C1107 C1106 1.387 1_565 S
C1107 C1109 1.387 . S
H1108 C1115 0.950 . S
C1109 C1107 1.387 . S
C1109 C1111 1.390 . S
C1109 H1113 0.950 . S
H1110 C1106 0.950 . S
C1111 C1109 1.390 . S
C1111 C1112 1.387 . S
C1111 H1114 0.950 . S
C1112 C1111 1.387 . S
C1112 C1115 1.387 1_565 S
H1113 C1109 0.950 . S
H1114 C1111 0.950 . S
C1115 C1106 1.390 . S
C1115 H1108 0.950 . S
C1115 C1112 1.387 1_545 S
C1116 C1117 1.387 1_545 S
C1116 H1120 0.950 . S
C1116 C1125 1.390 . S
C1117 C1116 1.387 1_565 S
C1117 C1119 1.387 . S
H1118 C1125 0.950 . S
C1119 C1117 1.387 . S
C1119 C1121 1.390 . S
C1119 H1123 0.950 . S
H1120 C1116 0.950 . S
C1121 C1119 1.390 . S
C1121 C1122 1.387 . S
C1121 H1124 0.950 . S
C1122 C1121 1.387 . S
C1122 C1125 1.387 1_565 S
H1123 C1119 0.950 . S
H1124 C1121 0.950 . S
C1125 C1116 1.390 . S
C1125 H1118 0.950 . S
C1125 C1122 1.387 1_545 S
C1126 C1127 1.387 . S
C1126 H1130 0.950 . S
C1126 C1135 1.390 . S
C1127 C1126 1.387 . S
C1127 C1129 1.387 . S
H1128 C1135 0.950 . S
C1129 C1127 1.387 . S
C1129 C1131 1.380 . S
C1129 H1133 0.950 . S
H1130 C1126 0.950 . S
C1131 C1129 1.380 . S
C1131 C1132 1.387 . S
C1131 H1134 0.978 1_455 S
C1132 C1131 1.387 . S
C1132 C1135 1.378 . S
H1133 C1129 0.950 . S
H1134 C1131 0.978 1_655 S
C1135 C1126 1.390 . S
C1135 H1128 0.950 . S
C1135 C1132 1.378 . S
C1136 C1137 1.387 . S
C1136 H1140 0.950 . S
C1136 C1145 1.390 . S
C1137 C1136 1.387 . S
C1137 C1139 1.387 . S
H1138 C1145 0.950 . S
C1139 C1137 1.387 . S
C1139 C1141 1.390 . S
C1139 H1143 0.950 . S
H1140 C1136 0.950 . S
C1141 C1139 1.390 . S
C1141 C1142 1.387 . S
C1141 H1144 0.950 . S
C1142 C1141 1.387 . S
C1142 C1145 1.387 . S
H1143 C1139 0.950 . S
H1144 C1141 0.950 . S
C1145 C1136 1.390 . S
C1145 H1138 0.950 . S
C1145 C1142 1.387 . S
C1146 C1147 1.387 . S
C1146 H1150 0.950 . S
C1146 C1155 1.390 . S
C1147 C1146 1.387 . S
C1147 C1149 1.387 . S
H1148 C1155 0.950 . S
C1149 C1147 1.387 . S
C1149 C1151 1.390 . S
C1149 H1153 0.950 . S
H1150 C1146 0.950 . S
C1151 C1149 1.390 . S
C1151 C1152 1.387 . S
C1151 H1154 0.950 . S
C1152 C1151 1.387 . S
C1152 C1155 1.387 . S
H1153 C1149 0.950 . S
H1154 C1151 0.950 . S
C1155 C1146 1.390 . S
C1155 H1148 0.950 . S
C1155 C1152 1.387 . S
C1156 C1157 1.387 . S
C1156 H1160 0.950 . S
C1156 C1165 1.390 . S
C1157 C1156 1.387 . S
C1157 C1159 1.387 . S
H1158 C1165 0.950 . S
C1159 C1157 1.387 . S
C1159 C1161 1.390 . S
C1159 H1163 0.950 . S
H1160 C1156 0.950 . S
C1161 C1159 1.390 . S
C1161 C1162 1.387 . S
C1161 H1164 0.950 . S
C1162 C1161 1.387 . S
C1162 C1165 1.387 . S
H1163 C1159 0.950 . S
H1164 C1161 0.950 . S
C1165 C1156 1.390 . S
C1165 H1158 0.950 . S
C1165 C1162 1.387 . S
C1166 C1167 1.387 . S
C1166 H1170 0.950 . S
C1166 C1175 1.390 . S
C1167 C1166 1.387 . S
C1167 C1169 1.387 . S
H1168 C1175 0.950 . S
C1169 C1167 1.387 . S
C1169 C1171 1.390 . S
C1169 H1173 0.950 . S
H1170 C1166 0.950 . S
C1171 C1169 1.390 . S
C1171 C1172 1.387 . S
C1171 H1174 0.950 . S
C1172 C1171 1.387 . S
C1172 C1175 1.387 . S
H1173 C1169 0.950 . S
H1174 C1171 0.950 . S
C1175 C1166 1.390 . S
C1175 H1168 0.950 . S
C1175 C1172 1.387 . S
C1176 C1177 1.387 1_565 S
C1176 H1180 0.950 . S
C1176 C1185 1.390 . S
C1177 C1176 1.387 1_545 S
C1177 C1179 1.387 . S
H1178 C1185 0.950 . S
C1179 C1177 1.387 . S
C1179 C1181 1.390 . S
C1179 H1183 0.950 . S
H1180 C1176 0.950 . S
C1181 C1179 1.390 . S
C1181 C1182 1.387 . S
C1181 H1184 0.950 . S
C1182 C1181 1.387 . S
C1182 C1185 1.387 1_545 S
H1183 C1179 0.950 . S
H1184 C1181 0.950 . S
C1185 C1176 1.390 . S
C1185 H1178 0.950 . S
C1185 C1182 1.387 1_565 S
C1186 C1187 1.387 1_455 S
C1186 H1190 0.950 . S
C1186 C1195 1.390 . S
C1187 C1186 1.387 1_655 S
C1187 C1189 1.387 . S
H1188 C1195 0.950 . S
C1189 C1187 1.387 . S
C1189 C1191 1.390 . S
C1189 H1193 0.950 . S
H1190 C1186 0.950 . S
C1191 C1189 1.390 . S
C1191 C1192 1.387 . S
C1191 H1194 0.950 . S
C1192 C1191 1.387 . S
C1192 C1195 1.387 1_655 S
H1193 C1189 0.950 . S
H1194 C1191 0.950 . S
C1195 C1186 1.390 . S
C1195 H1188 0.950 . S
C1195 C1192 1.387 1_455 S
C1196 C1197 1.387 . S
C1196 H1200 0.950 . S
C1196 C1205 1.390 . S
C1197 C1196 1.387 . S
C1197 C1199 1.387 . S
H1198 C1205 0.950 . S
C1199 C1197 1.387 . S
C1199 C1201 1.390 . S
C1199 H1203 0.950 . S
H1200 C1196 0.950 . S
C1201 C1199 1.390 . S
C1201 C1202 1.387 . S
C1201 H1204 0.950 . S
C1202 C1201 1.387 . S
C1202 C1205 1.387 . S
H1203 C1199 0.950 . S
H1204 C1201 0.950 . S
C1205 C1196 1.390 . S
C1205 H1198 0.950 . S
C1205 C1202 1.387 . S
C1206 C1207 1.387 . S
C1206 H1210 0.950 . S
C1206 C1215 1.390 . S
C1207 C1206 1.387 . S
C1207 C1209 1.387 . S
H1208 C1215 0.950 . S
C1209 C1207 1.387 . S
C1209 C1211 1.390 . S
C1209 H1213 0.950 . S
H1210 C1206 0.950 . S
C1211 C1209 1.390 . S
C1211 C1212 1.387 . S
C1211 H1214 0.950 . S
C1212 C1211 1.387 . S
C1212 C1215 1.387 . S
H1213 C1209 0.950 . S
H1214 C1211 0.950 . S
C1215 C1206 1.390 . S
C1215 H1208 0.950 . S
C1215 C1212 1.387 . S
C1216 C1217 1.387 . S
C1216 H1220 0.950 . S
C1216 C1225 1.390 . S
C1217 C1216 1.387 . S
C1217 C1219 1.387 . S
H1218 C1225 0.950 . S
C1219 C1217 1.387 . S
C1219 C1221 1.390 . S
C1219 H1223 0.950 . S
H1220 C1216 0.950 . S
C1221 C1219 1.390 . S
C1221 C1222 1.387 . S
C1221 H1224 0.950 . S
C1222 C1221 1.387 . S
C1222 C1225 1.387 . S
H1223 C1219 0.950 . S
H1224 C1221 0.950 . S
C1225 C1216 1.390 . S
C1225 H1218 0.950 . S
C1225 C1222 1.387 . S
C1226 C1227 1.387 . S
C1226 H1230 0.950 . S
C1226 C1235 1.390 . S
C1227 C1226 1.387 . S
C1227 C1229 1.387 . S
H1228 C1235 0.950 . S
C1229 C1227 1.387 . S
C1229 C1231 1.390 . S
C1229 H1233 0.950 . S
H1230 C1226 0.950 . S
C1231 C1229 1.390 . S
C1231 C1232 1.387 . S
C1231 H1234 0.950 . S
C1232 C1231 1.387 . S
C1232 C1235 1.387 . S
H1233 C1229 0.950 . S
H1234 C1231 0.950 . S
C1235 C1226 1.390 . S
C1235 H1228 0.950 . S
C1235 C1232 1.387 . S
C1236 C1237 1.387 . S
C1236 H1240 0.950 . S
C1236 C1245 1.390 . S
C1237 C1236 1.387 . S
C1237 C1239 1.387 . S
H1238 C1245 0.950 . S
C1239 C1237 1.387 . S
C1239 C1241 1.390 . S
C1239 H1243 0.950 . S
H1240 C1236 0.950 . S
C1241 C1239 1.390 . S
C1241 C1242 1.387 . S
C1241 H1244 0.950 . S
C1242 C1241 1.387 . S
C1242 C1245 1.387 . S
H1243 C1239 0.950 . S
H1244 C1241 0.950 . S
C1245 C1236 1.390 . S
C1245 H1238 0.950 . S
C1245 C1242 1.387 . S
C1246 C1247 1.387 . S
C1246 H1250 0.950 . S
C1246 C1255 1.390 . S
C1247 C1246 1.387 . S
C1247 C1249 1.387 . S
H1248 C1255 0.950 . S
C1249 C1247 1.387 . S
C1249 C1251 1.390 . S
C1249 H1253 0.950 . S
H1250 C1246 0.950 . S
C1251 C1249 1.390 . S
C1251 C1252 1.387 . S
C1251 H1254 0.950 . S
C1252 C1251 1.387 . S
C1252 C1255 1.387 . S
H1253 C1249 0.950 . S
H1254 C1251 0.950 . S
C1255 C1246 1.390 . S
C1255 H1248 0.950 . S
C1255 C1252 1.387 . S
C1256 C1257 1.387 . S
C1256 H1260 0.950 . S
C1256 C1265 1.390 . S
C1257 C1256 1.387 . S
C1257 C1259 1.387 . S
H1258 C1265 0.950 . S
C1259 C1257 1.387 . S
C1259 C1261 1.390 . S
C1259 H1263 0.950 . S
H1260 C1256 0.950 . S
C1261 C1259 1.390 . S
C1261 C1262 1.387 . S
C1261 H1264 0.950 . S
C1262 C1261 1.387 . S
C1262 C1265 1.387 . S
H1263 C1259 0.950 . S
H1264 C1261 0.950 . S
C1265 C1256 1.390 . S
C1265 H1258 0.950 . S
C1265 C1262 1.387 . S
C1266 C1267 1.387 . S
C1266 H1270 0.950 . S
C1266 C1275 1.390 . S
C1267 C1266 1.387 . S
C1267 C1269 1.387 1_655 S
H1268 C1275 0.950 . S
C1269 C1267 1.387 1_455 S
C1269 C1271 1.390 . S
C1269 H1273 0.950 . S
H1270 C1266 0.950 . S
C1271 C1269 1.390 . S
C1271 C1272 1.389 . S
C1271 H1274 0.950 . S
C1272 C1271 1.389 . S
C1272 C1275 1.381 1_455 S
H1273 C1269 0.950 . S
H1274 C1271 0.950 . S
C1275 C1266 1.390 . S
C1275 H1268 0.950 . S
C1275 C1272 1.381 1_655 S
C1276 C1277 1.387 . S
C1276 H1280 0.950 . S
C1276 C1285 1.390 . S
C1277 C1276 1.387 . S
C1277 C1279 1.387 . S
H1278 C1285 0.950 . S
C1279 C1277 1.387 . S
C1279 C1281 1.390 . S
C1279 H1283 0.950 . S
H1280 C1276 0.950 . S
C1281 C1279 1.390 . S
C1281 C1282 1.387 . S
C1281 H1284 0.950 . S
C1282 C1281 1.387 . S
C1282 C1285 1.387 . S
H1283 C1279 0.950 . S
H1284 C1281 0.950 . S
C1285 C1276 1.390 . S
C1285 H1278 0.950 . S
C1285 C1282 1.387 . S
C1286 C1287 1.387 . S
C1286 H1290 0.950 . S
C1286 C1295 1.390 . S
C1287 C1286 1.387 . S
C1287 C1289 1.387 1_545 S
H1288 C1295 0.950 . S
C1289 C1287 1.387 1_565 S
C1289 C1291 1.390 . S
C1289 H1293 0.950 . S
H1290 C1286 0.950 . S
C1291 C1289 1.390 . S
C1291 C1292 1.340 1_565 S
C1291 H1294 0.950 . S
C1292 C1291 1.340 1_545 S
C1292 C1295 1.417 . S
H1293 C1289 0.950 . S
H1294 C1291 0.950 . S
C1295 C1286 1.390 . S
C1295 H1288 0.950 . S
C1295 C1292 1.417 . S
C577 C9 1.550 1_655 S
C582 C421 1.520 . S
C587 C19 1.568 . S
C592 C446 1.542 . S
C602 C457 1.538 . S
C597 C33 1.568 . S
C607 C37 1.558 1_565 S
C612 C482 1.537 . S
C617 C5 1.533 . S
C622 C500 1.516 . S
C627 C23 1.603 . S
C632 C511 1.557 . S
C637 C47 1.537 . S
C642 C493 1.527 . S
C652 C518 1.550 . S
C647 C65 1.574 . S
C662 C475 1.508 . S
C657 C75 1.514 . S
C667 C79 1.528 . S
C672 C464 1.490 . S
C682 C428 1.541 1_655 S
C677 C51 1.554 1_655 S
C687 C61 1.551 . S
C692 C439 1.532 . S
C697 C93 1.647 . S
C702 C529 1.591 . S
C707 C103 1.600 . S
C712 C554 1.573 . S
C722 C565 1.582 . S
C717 C117 1.629 . S
C727 C121 1.614 . S
C732 C266 1.578 . S
C737 C89 1.606 . S
C742 C284 1.575 . S
C747 C107 1.625 . S
C752 C295 1.578 . S
C757 C131 1.558 . S
C762 C277 1.535 . S
C767 C149 1.588 . S
C772 C302 1.563 . S
C782 C259 1.541 . S
C777 C159 1.563 . S
C792 C572 1.550 . S
C787 C163 1.574 . S
C802 C536 1.575 . S
C797 C135 1.606 . S
C812 C547 1.561 . S
C807 C145 1.579 . S
C817 C177 1.616 . S
C822 C313 1.563 . S
C827 C187 1.584 . S
C832 C338 1.558 . S
C837 C201 1.629 . S
C842 C349 1.583 . S
C847 C205 1.645 . S
C852 C374 1.609 . S
C862 C392 1.577 . S
C857 C173 1.608 . S
C872 C403 1.592 . S
C867 C191 1.642 . S
C882 C385 1.568 . S
C877 C215 1.591 . S
C892 C410 1.580 . S
C887 C233 1.606 . S
C897 C243 1.561 . S
C902 C367 1.539 . S
C912 C356 1.518 . S
C907 C247 1.541 . S
C917 C219 1.604 . S
C922 C320 1.575 . S
C932 C331 1.550 . S
C927 C229 1.570 . S
C942 C268 1.429 . S
C937 C11 1.496 . S
C947 C14 1.474 . S
C952 C286 1.402 . S
C962 C296 1.469 . S
C957 C28 1.537 . S
C972 C314 1.465 . S
C967 C39 1.532 . S
C982 C340 1.438 . S
C977 C0 1.505 . S
C992 C350 1.373 . S
C987 C25 1.447 . S
C997 C42 1.586 . S
C1002 C358 1.485 . S
C1007 C67 1.523 . S
C1012 C322 1.416 . S
C1017 C70 1.507 . S
C1022 C332 1.421 . S
C1027 C81 1.519 . S
C1032 C278 1.438 . S
C1042 C304 1.458 . S
C1037 C53 1.559 . S
C1047 C56 1.542 . S
C1052 C260 1.451 . S
C1062 C376 1.415 . S
C1057 C95 1.488 . S
C1067 C98 1.520 . S
C1072 C394 1.449 . S
C1077 C112 1.566 . S
C1082 C404 1.494 . S
C1092 C422 1.417 . S
C1087 C123 1.472 . S
C1097 C84 1.500 . S
C1102 C448 1.430 . S
C1107 C109 1.439 . S
C1112 C458 1.385 . S
C1117 C126 1.506 . S
C1122 C466 1.449 . S
C1127 C151 1.472 . S
C1132 C430 1.402 . S
C1142 C440 1.425 . S
C1137 C154 1.511 . S
C1147 C165 1.508 . S
C1152 C386 1.418 . S
C1157 C137 1.577 . S
C1162 C412 1.472 . S
C1172 C368 1.494 . S
C1167 C140 1.585 . S
C1182 C484 1.395 . S
C1177 C179 1.457 . S
C1187 C182 1.455 . S
C1192 C502 1.396 . S
C1197 C196 1.534 . S
C1202 C512 1.464 . S
C1212 C530 1.450 . S
C1207 C207 1.523 . S
C1222 C556 1.451 . S
C1217 C168 1.527 . S
C1227 C193 1.501 . S
C1232 C566 1.431 . S
C1237 C210 1.581 . S
C1242 C574 1.471 . S
C1247 C235 1.568 . S
C1252 C538 1.466 . S
C1262 C548 1.452 . S
C1257 C238 1.539 . S
C1272 C494 1.380 . S
C1267 C249 1.437 . S
C1282 C520 1.445 . S
C1277 C221 1.546 . S
C1287 C224 1.490 . S
C1292 C476 1.443 1_545 S
