# Generated by pormake.
# Topology pth, (4,4)-cn, num edge types: 1
# Building blocks:
#     Node 0, Type 0, BuildingBlock: KUFVIS_clean_sbu_0, # of connection points: 4
#     Node 1, Type 0, BuildingBlock: KUFVIS_clean_sbu_0, # of connection points: 4
#     Node 2, Type 0, BuildingBlock: KUFVIS_clean_sbu_0, # of connection points: 4
#     Node 3, Type 1, BuildingBlock: MIFKUJ_clean_linker_1, # of connection points: 4
#     Node 4, Type 1, BuildingBlock: MIFKUJ_clean_linker_1, # of connection points: 4
#     Node 5, Type 1, BuildingBlock: MIFKUJ_clean_linker_1, # of connection points: 4
#     Edge 6, Type (0, 1), BuildingBlock: XUDNAN_clean_linker_2, # of connection points: 2
#     Edge 7, Type (0, 1), BuildingBlock: XUDNAN_clean_linker_2, # of connection points: 2
#     Edge 8, Type (0, 1), BuildingBlock: XUDNAN_clean_linker_2, # of connection points: 2
#     Edge 9, Type (0, 1), BuildingBlock: XUDNAN_clean_linker_2, # of connection points: 2
#     Edge 10, Type (0, 1), BuildingBlock: XUDNAN_clean_linker_2, # of connection points: 2
#     Edge 11, Type (0, 1), BuildingBlock: XUDNAN_clean_linker_2, # of connection points: 2
#     Edge 12, Type (0, 1), BuildingBlock: XUDNAN_clean_linker_2, # of connection points: 2
#     Edge 13, Type (0, 1), BuildingBlock: XUDNAN_clean_linker_2, # of connection points: 2
#     Edge 14, Type (0, 1), BuildingBlock: XUDNAN_clean_linker_2, # of connection points: 2
#     Edge 15, Type (0, 1), BuildingBlock: XUDNAN_clean_linker_2, # of connection points: 2
#     Edge 16, Type (0, 1), BuildingBlock: XUDNAN_clean_linker_2, # of connection points: 2
#     Edge 17, Type (0, 1), BuildingBlock: XUDNAN_clean_linker_2, # of connection points: 2
# Relax obj value: 0.017
# Max RMSD: 0.085
# Mean RMSD: 0.064
data_MOF--net-pth--node1-KUFVIS_clean_sbu_0--node2-MIFKUJ_clean_linker_1--edge1-XUDNAN_clean_linker_2
_symmetry_space_group_name_H-M    P1
_symmetry_Int_Tables_number       1
_symmetry_cell_setting            triclinic
loop_
_symmetry_equiv_pos_as_xyz
'x, y, z'
_cell_length_a     29.066403
_cell_length_b     29.179202
_cell_length_c     64.116584
_cell_angle_alpha  90.368141
_cell_angle_beta   91.679927
_cell_angle_gamma 120.30552
loop_
_atom_site_label
_atom_site_type_symbol
_atom_site_fract_x
_atom_site_fract_y
_atom_site_fract_z
_atom_type_partial_charge
Mn0 Mn 0.04235 0.05185 0.04427 0.0
Mn1 Mn 0.992 0.11748 0.01813 0.0
C2 C 0.98273 0.01093 0.01623 0.0
C3 C 0.03478 0.99635 0.07166 0.0
C4 C 0.10518 0.13904 0.01352 0.0
O5 O 0.05928 0.11396 0.06398 0.0
O6 O 0.01585 0.14916 0.04679 0.0
C7 C 0.8965 0.08684 0.04273 0.0
N8 N 0.91854 0.08874 0.02408 0.0
C9 C 0.8323 0.04507 0.00634 0.0
C10 C 0.80875 0.0433 0.02532 0.0
C11 C 0.841 0.06415 0.0436 0.0
C12 C 0.88788 0.06863 0.0064 0.0
H13 H 0.92105 0.10218 0.05686 0.0
C14 C 0.04266 0.14692 0.06261 0.0
O15 O 0.08047 0.02635 0.06331 0.0
O16 O 0.99482 1.00036 0.06461 0.0
N17 N 0.96681 0.08993 0.99035 0.0
C18 C 0.99532 0.09111 0.97365 0.0
C19 C 0.96876 0.07006 0.95428 0.0
C20 C 0.91328 0.04816 0.95227 0.0
C21 C 0.88477 0.04717 0.96968 0.0
C22 C 0.91346 0.06934 0.98853 0.0
H23 H 0.03797 0.10788 0.9751 0.0
O24 O 0.014 0.99364 0.0224 0.0
O25 O 0.98746 0.05139 0.02671 0.0
O26 O 0.10152 0.10223 0.02526 0.0
O27 O 0.06736 0.14894 0.01054 0.0
C28 C 0.82892 0.02422 0.96916 0.0
C29 C 0.80269 0.02311 0.98748 0.0
H30 H 0.76591 0.02539 0.02609 0.0
H31 H 0.82308 0.06246 0.05835 0.0
H32 H 0.99098 0.07064 0.94094 0.0
H33 H 0.89292 0.03194 0.93731 0.0
H34 H 0.80566 0.00658 0.95482 0.0
H35 H 0.75964 0.00456 0.98696 0.0
Mn36 Mn 0.02318 0.04623 0.37676 0.0
Mn37 Mn 0.07146 0.1602 0.40508 0.0
C38 C 0.08521 0.06486 0.40362 0.0
C39 C 0.02716 1.00016 0.34778 0.0
C40 C 0.9606 0.06484 0.4098 0.0
O41 O 1.00376 0.0915 0.3587 0.0
O42 O 0.04483 0.16884 0.3772 0.0
C43 C 0.16402 0.2329 0.38047 0.0
N44 N 0.14379 0.20941 0.39889 0.0
C45 C 0.23034 0.2571 0.41628 0.0
C46 C 0.25207 0.28201 0.39752 0.0
C47 C 0.21876 0.2698 0.37954 0.0
C48 C 0.17538 0.22117 0.41633 0.0
H49 H 0.13858 0.22352 0.3666 0.0
C50 C 0.01866 0.14065 0.36098 0.0
O51 O 0.98321 0.98323 0.35758 0.0
O52 O 0.06835 0.04421 0.35451 0.0
N53 N 0.09912 0.157 0.43215 0.0
C54 C 0.07289 0.12552 0.44836 0.0
C55 C 0.10114 0.1303 0.46717 0.0
C56 C 0.15591 0.16759 0.46916 0.0
C57 C 0.18199 0.19971 0.4523 0.0
C58 C 0.15174 0.19329 0.43395 0.0
H59 H 0.03086 0.0966 0.44689 0.0
O60 O 0.05427 0.01639 0.39684 0.0
O61 O 0.07904 0.10115 0.39439 0.0
O62 O 0.96498 0.03362 0.39708 0.0
O63 O 0.99734 0.11295 0.41321 0.0
C64 C 0.23715 0.2366 0.45274 0.0
C65 C 0.26129 0.26535 0.43476 0.0
H66 H 0.29436 0.31009 0.39668 0.0
H67 H 0.23529 0.28867 0.36498 0.0
H68 H 0.08082 0.10511 0.48006 0.0
H69 H 0.17768 0.17073 0.48361 0.0
H70 H 0.26158 0.24237 0.4667 0.0
H71 H 0.30389 0.29286 0.43518 0.0
Mn72 Mn 0.04756 0.06107 0.71179 0.0
Mn73 Mn 0.9867 0.11948 0.73447 0.0
C74 C 0.08938 0.11956 0.73976 0.0
C75 C 0.10454 0.06591 0.68579 0.0
C76 C 0.95331 1.00318 0.73965 0.0
O77 O 0.98871 0.04908 0.69063 0.0
O78 O 0.95796 0.09874 0.70515 0.0
C79 C 0.02711 0.21725 0.71007 0.0
N80 N 0.02185 0.1935 0.72876 0.0
C81 C 0.06954 0.27808 0.74696 0.0
C82 C 0.07525 0.30347 0.72792 0.0
C83 C 0.05396 0.27291 0.7094 0.0
C84 C 0.04176 0.22248 0.7467 0.0
H85 H 0.01106 0.19387 0.6958 0.0
C86 C 0.95867 0.06937 0.6903 0.0
O87 O 0.07147 0.02057 0.69383 0.0
O88 O 0.10285 0.10693 0.6924 0.0
N89 N 0.01188 0.14142 0.76273 0.0
C90 C 0.0072 0.11092 0.77944 0.0
C91 C 0.0289 0.13548 0.79901 0.0
C92 C 0.05506 0.19104 0.8012 0.0
C93 C 0.05948 0.2216 0.78377 0.0
C94 C 0.03671 0.1949 0.76469 0.0
H95 H 0.98746 0.06823 0.7778 0.0
O96 O 0.10347 0.08531 0.73484 0.0
O97 O 0.05107 0.11787 0.7282 0.0
O98 O 0.99138 1.00324 0.73012 0.0
O99 O 0.94778 0.04375 0.74144 0.0
C100 C 0.08678 0.27753 0.78447 0.0
C101 C 0.0917 0.30575 0.76609 0.0
H102 H 0.09646 0.3464 0.7273 0.0
H103 H 0.05846 0.29222 0.69463 0.0
H104 H 0.02571 0.11167 0.81236 0.0
H105 H 0.07208 0.20985 0.81629 0.0
H106 H 0.10492 0.29925 0.79899 0.0
H107 H 0.11354 0.34875 0.76676 0.0
H108 H 0.11096 0.48381 0.21009 0.0
H109 H 0.11676 0.41588 0.19039 0.0
H110 H 0.00853 0.41728 0.14285 0.0
H111 H 0.99754 0.47981 0.16407 0.0
H112 H 0.05424 0.57272 0.17377 0.0
H113 H 0.10398 0.52437 0.25571 0.0
H114 H 0.09167 0.44834 0.27571 0.0
H115 H 0.94896 0.34596 0.23826 0.0
H116 H 0.96296 0.42211 0.21783 0.0
H117 H 0.96825 0.60729 0.24717 0.0
H118 H 0.96771 0.68171 0.26452 0.0
H119 H 0.12851 0.7869 0.24496 0.0
H120 H 0.12677 0.71278 0.22648 0.0
H121 H 0.03879 0.56585 0.25068 0.0
H122 H 0.97342 0.64138 0.20401 0.0
H123 H 0.96578 0.70805 0.18453 0.0
H124 H 0.10114 0.73632 0.14868 0.0
H125 H 0.11197 0.67296 0.17002 0.0
C126 C 0.05279 0.48644 0.18895 0.0
C127 C 0.08701 0.46821 0.19578 0.0
C128 C 0.09131 0.42997 0.18412 0.0
C129 C 0.06328 0.41047 0.16479 0.0
C130 C 0.02987 0.42974 0.15781 0.0
C131 C 0.02418 0.46656 0.16984 0.0
C132 C 0.04846 0.52775 0.20118 0.0
C133 C 0.05093 0.57103 0.19058 0.0
C134 C 0.04253 0.52527 0.22311 0.0
C135 C 0.03462 0.47882 0.23521 0.0
C136 C 0.07009 0.48548 0.25183 0.0
C137 C 0.06273 0.44192 0.26334 0.0
C138 C 0.01917 0.39078 0.2587 0.0
C139 C 0.98345 0.38444 0.24209 0.0
C140 C 0.9912 0.42799 0.23044 0.0
C141 C 0.04738 0.65471 0.23545 0.0
C142 C 1.00339 0.64646 0.24677 0.0
C143 C 1.00334 0.68919 0.25676 0.0
C144 C 0.04793 0.74088 0.2561 0.0
C145 C 0.09276 0.74827 0.24538 0.0
C146 C 0.09222 0.70578 0.23499 0.0
C147 C 0.04565 0.61057 0.22324 0.0
C148 C 0.04224 0.56721 0.23386 0.0
C149 C 0.04823 0.61177 0.20123 0.0
C150 C 0.04412 0.65286 0.18896 0.0
C151 C 1.00265 0.66306 0.19246 0.0
C152 C 0.99757 0.70059 0.18086 0.0
C153 C 0.03241 0.72749 0.16472 0.0
C154 C 0.07391 0.71709 0.16112 0.0
C155 C 0.0798 0.68031 0.17317 0.0
H156 H 0.61166 0.08986 0.5048 0.0
H157 H 0.67721 0.08427 0.4836 0.0
H158 H 0.63803 0.93528 0.51173 0.0
H159 H 0.57137 0.94046 0.53253 0.0
H160 H 0.50557 0.02402 0.50485 0.0
H161 H 0.6492 0.09723 0.55856 0.0
H162 H 0.7222 0.09776 0.57902 0.0
H163 H 0.61445 0.93763 0.59794 0.0
H164 H 0.54123 0.93775 0.5778 0.0
H165 H 0.40416 0.96675 0.58505 0.0
H166 H 0.34626 0.98301 0.60688 0.0
H167 H 0.38953 0.12678 0.57343 0.0
H168 H 0.45071 0.1126 0.55309 0.0
H169 H 0.50813 0.02153 0.58214 0.0
H170 H 0.35861 0.98655 0.53536 0.0
H171 H 0.30084 0.00979 0.51591 0.0
H172 H 0.43382 0.11417 0.47824 0.0
H173 H 0.49216 0.09767 0.50001 0.0
C174 C 0.58681 0.01574 0.52033 0.0
C175 C 0.61722 0.056 0.50641 0.0
C176 C 0.65497 0.05295 0.49442 0.0
C177 C 0.66294 0.00938 0.49601 0.0
C178 C 0.63253 0.96913 0.51002 0.0
C179 C 0.59481 0.9723 0.52207 0.0
C180 C 0.54573 0.01877 0.53252 0.0
C181 C 0.50613 0.02419 0.52177 0.0
C182 C 0.54618 0.01764 0.5545 0.0
C183 C 0.59004 0.01739 0.56669 0.0
C184 C 0.64138 0.06232 0.56715 0.0
C185 C 0.68288 0.06264 0.57885 0.0
C186 C 0.67382 0.0177 0.58998 0.0
C187 C 0.62244 0.9726 0.58936 0.0
C188 C 0.58068 0.97269 0.57798 0.0
C189 C 0.43135 0.03805 0.5672 0.0
C190 C 0.40135 1.00196 0.58254 0.0
C191 C 0.36765 0.01101 0.59486 0.0
C192 C 0.36281 0.05622 0.59201 0.0
C193 C 0.3927 0.09201 0.57646 0.0
C194 C 0.42725 0.08356 0.56451 0.0
C195 C 0.46811 0.02882 0.55453 0.0
C196 C 0.50677 0.02137 0.56521 0.0
C197 C 0.46786 0.03053 0.53236 0.0
C198 C 0.43043 0.04119 0.51966 0.0
C199 C 0.37562 0.01583 0.52335 0.0
C200 C 0.3421 0.0285 0.51174 0.0
C201 C 0.36186 0.06477 0.49531 0.0
C202 C 0.41643 0.08796 0.49113 0.0
C203 C 0.45019 0.07735 0.50338 0.0
H204 H 0.50517 0.42883 0.8402 0.0
H205 H 0.42664 0.36481 0.81874 0.0
H206 H 0.33418 0.42714 0.84532 0.0
H207 H 0.41195 0.49008 0.86702 0.0
H208 H 0.55259 0.54137 0.83869 0.0
H209 H 0.48561 0.40718 0.88925 0.0
H210 H 0.42122 0.33733 0.91123 0.0
H211 H 0.38594 0.45003 0.93982 0.0
H212 H 0.44994 0.51965 0.91758 0.0
H213 H 0.57625 0.67458 0.90223 0.0
H214 H 0.63736 0.75348 0.92316 0.0
H215 H 0.75897 0.70999 0.9196 0.0
H216 H 0.69799 0.63251 0.89762 0.0
H217 H 0.55415 0.56243 0.9156 0.0
H218 H 0.60321 0.68727 0.85896 0.0
H219 H 0.66151 0.75545 0.83498 0.0
H220 H 0.73102 0.66044 0.8184 0.0
H221 H 0.67218 0.59189 0.84252 0.0
C222 C 0.46421 0.46388 0.85527 0.0
C223 C 0.46772 0.42799 0.84165 0.0
C224 C 0.42301 0.39144 0.82953 0.0
C225 C 0.37471 0.3912 0.83061 0.0
C226 C 0.37102 0.4265 0.84444 0.0
C227 C 0.41531 0.46229 0.85679 0.0
C228 C 0.51201 0.50581 0.86689 0.0
C229 C 0.55378 0.54516 0.85557 0.0
C230 C 0.51297 0.51123 0.88885 0.0
C231 C 0.47248 0.46861 0.90171 0.0
C232 C 0.46363 0.41674 0.9001 0.0
C233 C 0.42718 0.37697 0.91279 0.0
C234 C 0.39866 0.38825 0.9273 0.0
C235 C 0.40702 0.44005 0.92868 0.0
C236 C 0.44381 0.47992 0.91609 0.0
C237 C 0.63271 0.64788 0.89852 0.0
C238 C 0.61637 0.68259 0.90577 0.0
C239 C 0.65129 0.72742 0.91788 0.0
C240 C 0.70297 0.73782 0.92342 0.0
C241 C 0.71973 0.70364 0.91552 0.0
C242 C 0.68489 0.65913 0.90307 0.0
C243 C 0.59372 0.59824 0.88733 0.0
C244 C 0.55369 0.55764 0.89879 0.0
C245 C 0.59454 0.59158 0.86555 0.0
C246 C 0.63364 0.63474 0.85259 0.0
C247 C 0.63165 0.68151 0.85047 0.0
C248 C 0.66472 0.72024 0.83669 0.0
C249 C 0.70059 0.71304 0.82481 0.0
C250 C 0.70398 0.66706 0.82749 0.0
C251 C 0.67032 0.62791 0.84115 0.0
H252 H 0.98066 0.18609 0.07602 0.0
H253 H 0.13156 0.19326 0.08877 0.0
H254 H 0.15324 0.26061 0.11687 0.0
H255 H 0.02411 0.32184 0.08449 0.0
H256 H 0.96477 0.31026 0.09718 0.0
H257 H 0.96122 0.26249 0.07832 0.0
H258 H 0.91998 0.18846 0.10558 0.0
H259 H 0.92299 0.23591 0.12449 0.0
H260 H 0.95429 0.19746 0.13049 0.0
H261 H 0.16106 0.33308 0.14136 0.0
H262 H 0.1513 0.39769 0.1627 0.0
H263 H 0.98986 0.3338 0.13675 0.0
C264 C 0.01816 0.2016 0.08479 0.0
C265 C 0.05465 0.18479 0.08017 0.0
C266 C 0.10306 0.20561 0.09212 0.0
C267 C 0.11573 0.24394 0.10803 0.0
C268 C 0.07899 0.26001 0.11205 0.0
C269 C 0.03077 0.23872 0.10102 0.0
C270 C 0.99764 0.26168 0.10865 0.0
C271 C 0.98629 0.2908 0.09111 0.0
C272 C 0.94565 0.21829 0.11786 0.0
C273 C 0.03522 0.30016 0.12544 0.0
C274 C 0.08209 0.299 0.12704 0.0
C275 C 0.124 0.33344 0.14057 0.0
C276 C 0.11774 0.36984 0.15283 0.0
C277 C 0.06945 0.37109 0.15184 0.0
C278 C 0.02766 0.33506 0.13795 0.0
H279 H 0.93493 0.1212 0.43672 0.0
H280 H 0.87354 0.96337 0.40943 0.0
H281 H 0.79138 0.93116 0.42916 0.0
H282 H 0.88315 0.08015 0.4877 0.0
H283 H 0.86784 0.13236 0.49096 0.0
H284 H 0.92188 0.14244 0.47492 0.0
H285 H 0.87925 0.16597 0.4438 0.0
H286 H 0.8251 0.15598 0.45973 0.0
H287 H 0.81138 0.11973 0.4353 0.0
H288 H 0.71536 0.91663 0.45193 0.0
H289 H 0.65112 0.92165 0.47492 0.0
H290 H 0.76344 0.08906 0.48707 0.0
C291 C 0.9044 0.07977 0.43484 0.0
C292 C 0.91091 0.04484 0.42148 0.0
C293 C 0.86962 0.99098 0.41954 0.0
C294 C 0.82281 0.97228 0.43071 0.0
C295 C 0.81787 0.0079 0.44374 0.0
C296 C 0.85756 0.06054 0.44579 0.0
C297 C 0.84236 0.09107 0.46051 0.0
C298 C 0.88111 0.11277 0.47966 0.0
C299 C 0.83933 0.13582 0.44915 0.0
C300 C 0.7877 0.04745 0.46639 0.0
C301 C 0.77431 0.99969 0.45666 0.0
C302 C 0.72555 0.9538 0.45967 0.0
C303 C 0.68945 0.95697 0.47286 0.0
C304 C 0.70222 0.00573 0.4828 0.0
C305 C 0.75223 0.05133 0.47954 0.0
H306 H 0.95866 0.93298 0.76711 0.0
H307 H 0.8493 0.96291 0.73039 0.0
H308 H 0.77296 0.88703 0.74626 0.0
H309 H 0.87242 0.78464 0.76726 0.0
H310 H 0.89123 0.78079 0.79395 0.0
H311 H 0.93766 0.833 0.77774 0.0
H312 H 0.94695 0.90314 0.80509 0.0
H313 H 0.90027 0.85128 0.82129 0.0
H314 H 0.88808 0.90331 0.81308 0.0
H315 H 0.70946 0.81595 0.76823 0.0
H316 H 0.66061 0.74972 0.79482 0.0
H317 H 0.80872 0.76337 0.81822 0.0
C318 C 0.91853 0.92226 0.76204 0.0
C319 C 0.90953 0.95313 0.74738 0.0
C320 C 0.85672 0.93935 0.74152 0.0
C321 C 0.81317 0.89634 0.75041 0.0
C322 C 0.82304 0.86747 0.76524 0.0
C323 C 0.87422 0.87937 0.77099 0.0
C324 C 0.87313 0.84412 0.78856 0.0
C325 C 0.8949 0.80852 0.78145 0.0
C326 C 0.90393 0.87746 0.80816 0.0
C327 C 0.8136 0.81169 0.79199 0.0
C328 C 0.78566 0.82579 0.77822 0.0
C329 C 0.73071 0.80399 0.77894 0.0
C330 C 0.70337 0.76673 0.79418 0.0
C331 C 0.7309 0.75153 0.80852 0.0
C332 C 0.7867 0.77389 0.80725 0.0
H333 H 0.10967 0.97712 0.0912 0.0
H334 H 0.9403 0.92323 0.08716 0.0
H335 H 0.92256 0.85035 0.11057 0.0
H336 H 0.09702 0.84934 0.09176 0.0
H337 H 0.15085 0.86676 0.11063 0.0
H338 H 0.15176 0.91682 0.09407 0.0
H339 H 0.16072 0.97432 0.12657 0.0
H340 H 0.16033 0.92464 0.14324 0.0
H341 H 0.11257 0.94595 0.14664 0.0
H342 H 0.92112 0.7794 0.13158 0.0
H343 H 0.93681 0.7181 0.15236 0.0
H344 H 0.10778 0.8198 0.14592 0.0
C345 C 0.06901 0.95032 0.09547 0.0
C346 C 0.02639 0.95594 0.08729 0.0
C347 C 0.97368 0.91995 0.0932 0.0
C348 C 0.96307 0.87822 0.10647 0.0
C349 C 1.00561 0.87316 0.11396 0.0
C350 C 0.05762 0.90848 0.109 0.0
C351 C 0.09563 0.89337 0.11936 0.0
C352 C 0.12557 0.88083 0.10297 0.0
C353 C 0.13461 0.93718 0.13488 0.0
C354 C 0.05657 0.84369 0.13059 0.0
C355 C 1.00492 0.83284 0.12709 0.0
C356 C 0.96148 0.78804 0.13487 0.0
C357 C 0.97099 0.75361 0.14686 0.0
C358 C 0.02368 0.76438 0.15136 0.0
C359 C 0.06699 0.81011 0.1429 0.0
H360 H 0.08927 0.01035 0.43739 0.0
H361 H 0.18758 0.14168 0.39802 0.0
H362 H 0.26726 0.1622 0.42001 0.0
H363 H 0.16246 0.06366 0.48738 0.0
H364 H 0.15607 1.00131 0.49485 0.0
H365 H 0.10547 1.00207 0.47816 0.0
H366 H 0.11765 0.94436 0.45039 0.0
H367 H 0.16796 0.94318 0.46703 0.0
H368 H 0.1831 0.96652 0.44076 0.0
H369 H 0.33455 0.1709 0.44754 0.0
H370 H 0.3901 0.15526 0.47241 0.0
H371 H 0.25101 0.00547 0.48866 0.0
C372 C 0.12748 0.0442 0.43381 0.0
C373 C 0.13205 0.07739 0.41713 0.0
C374 C 0.18297 0.11872 0.4118 0.0
C375 C 0.22839 0.13022 0.42405 0.0
C376 C 0.22233 0.09833 0.44102 0.0
C377 C 0.17352 0.05506 0.44547 0.0
C378 C 0.17935 0.02263 0.46261 0.0
C379 C 0.14904 0.02241 0.48189 0.0
C380 C 0.16094 0.96582 0.45472 0.0
C381 C 0.23915 0.05421 0.46692 0.0
C382 C 0.26269 0.09866 0.45482 0.0
C383 C 0.3169 0.13531 0.45666 0.0
C384 C 0.34838 0.12535 0.47074 0.0
C385 C 0.32628 0.07769 0.48222 0.0
C386 C 0.27031 0.04231 0.4804 0.0
H387 H 0.13681 0.12343 0.77783 0.0
H388 H 0.131 0.2216 0.72866 0.0
H389 H 0.19833 0.30212 0.74812 0.0
H390 H 0.1632 0.2157 0.82252 0.0
H391 H 0.20894 0.19929 0.83522 0.0
H392 H 0.15467 0.15055 0.8187 0.0
H393 H 0.22331 0.14012 0.79708 0.0
H394 H 0.27737 0.1899 0.81329 0.0
H395 H 0.27686 0.19779 0.78544 0.0
H396 H 0.26702 0.37146 0.77226 0.0
H397 H 0.34023 0.42558 0.79806 0.0
H398 H 0.30878 0.28295 0.83017 0.0
C399 C 0.14895 0.16208 0.77152 0.0
C400 C 0.12656 0.16688 0.75242 0.0
C401 C 0.14544 0.21759 0.74391 0.0
C402 C 0.18399 0.26342 0.75474 0.0
C403 C 0.20444 0.25766 0.7738 0.0
C404 C 0.18821 0.20832 0.78203 0.0
C405 C 0.22055 0.21316 0.80178 0.0
C406 C 0.18468 0.19349 0.82067 0.0
C407 C 0.25135 0.18348 0.79923 0.0
C408 C 0.25795 0.27278 0.80314 0.0
C409 C 0.24712 0.29765 0.78704 0.0
C410 C 0.27598 0.35253 0.78492 0.0
C411 C 0.31733 0.38286 0.79958 0.0
C412 C 0.32985 0.35813 0.81587 0.0
C413 C 0.29983 0.30248 0.81772 0.0
H414 H 0.90593 0.12136 0.67817 0.0
H415 H 0.92448 0.98702 0.66187 0.0
H416 H 0.85543 0.9606 0.63371 0.0
H417 H 0.76632 0.05697 0.6702 0.0
H418 H 0.76592 0.11339 0.65912 0.0
H419 H 0.81868 0.12336 0.67733 0.0
H420 H 0.88899 0.17922 0.65031 0.0
H421 H 0.83642 0.1697 0.63204 0.0
H422 H 0.88439 0.15128 0.62465 0.0
H423 H 0.77901 0.94456 0.60926 0.0
H424 H 0.70588 0.94449 0.5884 0.0
H425 H 0.74009 0.09123 0.61957 0.0
C426 C 0.89587 0.08665 0.66857 0.0
C427 C 0.92062 0.05622 0.67228 0.0
C428 C 0.90635 0.01118 0.65928 0.0
C429 C 0.86703 0.99572 0.64327 0.0
C430 C 0.84283 0.0261 0.64027 0.0
C431 C 0.85721 0.07104 0.65237 0.0
C432 C 0.82477 0.09651 0.64605 0.0
C433 C 0.79198 0.09759 0.66426 0.0
C434 C 0.8608 0.15249 0.63776 0.0
C435 C 0.78921 0.05833 0.62876 0.0
C436 C 0.80009 0.01785 0.62573 0.0
C437 C 0.77059 0.97641 0.61131 0.0
C438 C 0.72906 0.97652 0.59963 0.0
C439 C 0.71783 0.01803 0.60232 0.0
C440 C 0.74849 0.05948 0.61701 0.0
H441 H 0.97707 0.96427 0.97823 0.0
H442 H 0.88096 0.97505 0.02626 0.0
H443 H 0.79898 0.91115 0.00637 0.0
H444 H 0.886 0.94515 0.93241 0.0
H445 H 0.90114 0.89894 0.92017 0.0
H446 H 0.95031 0.95119 0.93723 0.0
H447 H 0.95559 0.87776 0.95853 0.0
H448 H 0.90399 0.82648 0.94193 0.0
H449 H 0.89593 0.82584 0.96971 0.0
H450 H 0.72837 0.84259 0.98291 0.0
H451 H 0.67204 0.77132 0.95747 0.0
H452 H 0.81278 0.80368 0.92391 0.0
C453 C 0.93861 0.95387 0.9842 0.0
C454 C 0.93487 0.97616 1.00322 0.0
C455 C 0.88427 0.96007 0.01121 0.0
C456 C 0.83762 0.9236 1.00011 0.0
C457 C 0.84239 0.90292 0.98121 0.0
C458 C 0.89148 0.91726 0.97327 0.0
C459 C 0.88511 0.88578 0.95339 0.0
C460 C 0.90699 0.92251 0.93471 0.0
C461 C 0.91173 0.85196 0.95606 0.0
C462 C 0.82487 0.85133 0.95155 0.0
C463 C 0.80119 0.86219 0.96772 0.0
C464 C 0.74629 0.83425 0.96996 0.0
C465 C 0.71457 0.79402 0.95527 0.0
C466 C 0.73764 0.78211 0.9384 0.0
C467 C 0.79371 0.81152 0.93658 0.0
H468 H 0.97966 0.89244 0.34368 0.0
H469 H 0.08621 0.03917 0.31334 0.0
H470 H 0.09855 0.98814 0.28525 0.0
H471 H 0.05712 0.83241 0.33466 0.0
H472 H 1.00099 0.76612 0.33084 0.0
H473 H 0.99535 0.81344 0.34709 0.0
H474 H 0.91336 0.79905 0.32459 0.0
H475 H 0.91871 0.75156 0.30827 0.0
H476 H 0.91897 0.80791 0.29679 0.0
H477 H 0.1 0.92122 0.26088 0.0
H478 H 0.09684 0.84453 0.24329 0.0
H479 H 0.99768 0.74226 0.29196 0.0
C480 C 1.00462 0.91358 0.33085 0.0
C481 C 0.0313 0.96951 0.33035 0.0
C482 C 0.06512 0.99621 0.31379 0.0
C483 C 0.07222 0.96759 0.2978 0.0
C484 C 0.04594 0.91242 0.29886 0.0
C485 C 0.01326 0.88569 0.31507 0.0
C486 C 0.9936 0.82675 0.31353 0.0
C487 C 0.01294 0.80864 0.33266 0.0
C488 C 0.93253 0.79442 0.31062 0.0
C489 C 0.02048 0.82457 0.29396 0.0
C490 C 0.04972 0.87424 0.28557 0.0
C491 C 0.07765 0.88218 0.26742 0.0
C492 C 0.07606 0.83824 0.25767 0.0
C493 C 0.04767 0.78695 0.26629 0.0
C494 C 0.01935 0.78043 0.28469 0.0
H495 H 0.11654 0.98873 0.66504 0.0
H496 H 0.18551 0.15934 0.67284 0.0
H497 H 0.25721 0.17434 0.6497 0.0
H498 H 0.23982 0.98903 0.66389 0.0
H499 H 0.21774 0.93785 0.64387 0.0
H500 H 0.17018 0.93924 0.66087 0.0
H501 H 0.11497 0.94124 0.6288 0.0
H502 H 0.16222 0.93954 0.6117 0.0
H503 H 0.14695 0.99209 0.60978 0.0
H504 H 0.32446 0.17233 0.6279 0.0
H505 H 0.38098 0.15322 0.60611 0.0
H506 H 0.26692 0.98411 0.6094 0.0
C507 C 0.14657 0.02914 0.66174 0.0
C508 C 0.1453 0.0728 0.67082 0.0
C509 C 0.18534 0.12513 0.66609 0.0
C510 C 0.22647 0.13422 0.65296 0.0
C511 C 0.22697 0.09061 0.64443 0.0
C512 C 0.18795 0.03908 0.64835 0.0
C513 C 0.19839 0.99971 0.63687 0.0
C514 C 0.20705 0.96438 0.6523 0.0
C515 C 0.15292 0.96617 0.62083 0.0
C516 C 0.2496 0.03737 0.62621 0.0
C517 C 0.26531 0.08954 0.63093 0.0
C518 C 0.31217 0.13164 0.62372 0.0
C519 C 0.34384 0.12027 0.61114 0.0
C520 C 0.32833 0.06713 0.60556 0.0
C521 C 0.28037 0.0252 0.61333 0.0
H522 H 0.1282 0.2211 0.98715 0.0
H523 H 0.19558 0.13087 0.01439 0.0
H524 H 0.27783 0.18446 0.99518 0.0
H525 H 0.18194 0.23388 0.93654 0.0
H526 H 0.19419 0.30036 0.93318 0.0
H527 H 0.14083 0.25496 0.94913 0.0
H528 H 0.18063 0.32256 0.98024 0.0
H529 H 0.23411 0.36817 0.96439 0.0
H530 H 0.24894 0.34768 0.98892 0.0
H531 H 0.35251 0.24752 0.97254 0.0
H532 H 0.41455 0.31665 0.94906 0.0
H533 H 0.29798 0.36537 0.93697 0.0
C534 C 0.16017 0.2125 0.98919 0.0
C535 C 0.15522 0.17162 1.00236 0.0
C536 C 0.19825 0.1619 0.00444 0.0
C537 C 0.24516 0.19212 0.99357 0.0
C538 C 0.24849 0.23193 0.9807 0.0
C539 C 0.20717 0.24223 0.97852 0.0
C540 C 0.22066 0.28724 0.96375 0.0
C541 C 0.18212 0.26794 0.94451 0.0
C542 C 0.22112 0.33419 0.975 0.0
C543 C 0.27622 0.30091 0.958 0.0
C544 C 0.29147 0.26839 0.96785 0.0
C545 C 0.34096 0.27319 0.96476 0.0
C546 C 0.37579 0.31234 0.95132 0.0
C547 C 0.36109 0.34637 0.94121 0.0
C548 C 0.31056 0.34035 0.94465 0.0
H549 H 0.03874 0.24334 0.36016 0.0
H550 H 0.97628 0.09953 0.32177 0.0
H551 H 0.96649 0.14684 0.29177 0.0
H552 H 0.95319 0.28955 0.33712 0.0
H553 H 1.00518 0.3583 0.33892 0.0
H554 H 1.0042 0.31206 0.35763 0.0
H555 H 0.10059 0.33825 0.3485 0.0
H556 H 0.10173 0.38422 0.32965 0.0
H557 H 0.1153 0.33292 0.32178 0.0
H558 H 0.96979 0.21183 0.26522 0.0
H559 H 0.98215 0.28818 0.24469 0.0
H560 H 0.03878 0.38818 0.30089 0.0
C561 C 0.02233 0.22143 0.34555 0.0
C562 C 0.00822 0.16755 0.34342 0.0
C563 C 0.98716 0.14069 0.32391 0.0
C564 C 0.98153 0.16726 0.30672 0.0
C565 C 0.99671 0.22057 0.30931 0.0
C566 C 0.01619 0.2472 0.32829 0.0
C567 C 0.03089 0.30477 0.32683 0.0
C568 C 0.99629 0.31686 0.34096 0.0
C569 C 0.09067 0.34223 0.33199 0.0
C570 C 0.01742 0.3066 0.30398 0.0
C571 C 0.99773 0.25766 0.29413 0.0
C572 C 0.98443 0.25016 0.27284 0.0
C573 C 0.99132 0.29381 0.26132 0.0
C574 C 0.01117 0.34441 0.27111 0.0
C575 C 0.02403 0.3504 0.29279 0.0
loop_
_geom_bond_atom_site_label_1
_geom_bond_atom_site_label_2
_geom_bond_distance
_geom_bond_site_symmetry_2
_ccdc_geom_bond_type
Mn0 O5 2.095 . S
Mn0 O15 2.162 . S
Mn0 O16 2.297 1_545 S
Mn0 O24 2.385 1_545 S
Mn0 O25 2.209 1_455 S
Mn0 O26 2.094 . S
Mn1 O6 2.121 . S
Mn1 N8 2.257 . S
Mn1 N17 2.282 1_554 S
Mn1 O25 2.215 . S
Mn1 O27 2.117 1_655 S
C2 O24 1.234 1_655 S
C2 O25 1.283 1_565 S
C3 O15 1.281 1_565 S
C3 O16 1.236 . S
C4 O26 1.240 . S
C4 O27 1.264 . S
O5 Mn0 2.095 . S
O5 C14 1.250 . S
O6 Mn1 2.121 . S
O6 C14 1.258 1_655 S
C7 N8 1.326 . S
C7 C11 1.460 . S
C7 H13 0.929 . S
N8 Mn1 2.257 . S
N8 C7 1.326 . S
N8 C12 1.362 1_554 S
C9 C10 1.258 1_556 S
C9 C12 1.431 . S
C9 C29 1.449 . S
C10 C9 1.258 1_554 S
C10 C11 1.477 . S
C10 H30 0.931 1_554 S
C11 C7 1.460 . S
C11 C10 1.477 . S
C11 H31 0.930 . S
C12 N8 1.362 1_556 S
C12 C9 1.431 . S
C12 C22 1.476 . S
H13 C7 0.929 . S
C14 O5 1.250 . S
C14 O6 1.258 1_455 S
O15 Mn0 2.162 . S
O15 C3 1.281 1_545 S
O16 Mn0 2.297 1_565 S
O16 C3 1.236 . S
N17 Mn1 2.282 1_556 S
N17 C18 1.328 . S
N17 C22 1.318 . S
C18 N17 1.328 . S
C18 C19 1.457 . S
C18 H23 0.929 1_655 S
C19 C18 1.457 . S
C19 C20 1.291 . S
C19 H32 0.931 . S
C20 C19 1.291 . S
C20 C21 1.373 . S
C20 H33 0.929 . S
C21 C20 1.373 . S
C21 C22 1.396 . S
C21 C28 1.403 . S
C22 C12 1.476 . S
C22 N17 1.318 . S
C22 C21 1.396 . S
H23 C18 0.929 1_455 S
O24 Mn0 2.385 1_565 S
O24 C2 1.234 1_455 S
O25 Mn0 2.209 1_655 S
O25 Mn1 2.215 . S
O25 C2 1.283 1_545 S
O26 Mn0 2.094 . S
O26 C4 1.240 . S
O27 Mn1 2.117 1_455 S
O27 C4 1.264 . S
C28 C21 1.403 . S
C28 C29 1.399 . S
C28 H34 0.929 . S
C29 C9 1.449 . S
C29 C28 1.399 . S
C29 H35 0.930 . S
H30 C10 0.931 1_556 S
H31 C11 0.930 . S
H32 C19 0.931 . S
H33 C20 0.929 . S
H34 C28 0.929 . S
H35 C29 0.930 . S
Mn36 O41 2.095 . S
Mn36 O51 2.162 1_545 S
Mn36 O52 2.297 1_655 S
Mn36 O60 2.385 1_655 S
Mn36 O61 2.209 1_655 S
Mn36 O62 2.094 . S
Mn37 O42 2.121 . S
Mn37 N44 2.257 . S
Mn37 N53 2.282 . S
Mn37 O61 2.215 . S
Mn37 O63 2.117 1_455 S
C38 O60 1.234 . S
C38 O61 1.283 . S
C39 O51 1.281 1_455 S
C39 O52 1.236 1_565 S
C40 O62 1.240 . S
C40 O63 1.264 . S
O41 Mn36 2.095 . S
O41 C50 1.250 1_655 S
O42 Mn37 2.121 . S
O42 C50 1.258 . S
C43 N44 1.326 . S
C43 C47 1.460 . S
C43 H49 0.929 . S
N44 Mn37 2.257 . S
N44 C43 1.326 . S
N44 C48 1.362 . S
C45 C46 1.258 . S
C45 C48 1.431 . S
C45 C65 1.449 . S
C46 C45 1.258 . S
C46 C47 1.477 . S
C46 H66 0.931 . S
C47 C43 1.460 . S
C47 C46 1.477 . S
C47 H67 0.930 . S
C48 N44 1.362 . S
C48 C45 1.431 . S
C48 C58 1.476 . S
H49 C43 0.929 . S
C50 O41 1.250 1_455 S
C50 O42 1.258 . S
O51 Mn36 2.162 1_565 S
O51 C39 1.281 1_655 S
O52 Mn36 2.297 1_455 S
O52 C39 1.236 1_545 S
N53 Mn37 2.282 . S
N53 C54 1.328 . S
N53 C58 1.318 . S
C54 N53 1.328 . S
C54 C55 1.457 . S
C54 H59 0.929 . S
C55 C54 1.457 . S
C55 C56 1.291 . S
C55 H68 0.931 . S
C56 C55 1.291 . S
C56 C57 1.373 . S
C56 H69 0.929 . S
C57 C56 1.373 . S
C57 C58 1.396 . S
C57 C64 1.403 . S
C58 C48 1.476 . S
C58 N53 1.318 . S
C58 C57 1.396 . S
H59 C54 0.929 . S
O60 Mn36 2.385 1_455 S
O60 C38 1.234 . S
O61 Mn36 2.209 1_455 S
O61 Mn37 2.215 . S
O61 C38 1.283 . S
O62 Mn36 2.094 . S
O62 C40 1.240 . S
O63 Mn37 2.117 1_655 S
O63 C40 1.264 . S
C64 C57 1.403 . S
C64 C65 1.399 . S
C64 H70 0.929 . S
C65 C45 1.449 . S
C65 C64 1.399 . S
C65 H71 0.930 . S
H66 C46 0.931 . S
H67 C47 0.930 . S
H68 C55 0.931 . S
H69 C56 0.929 . S
H70 C64 0.929 . S
H71 C65 0.930 . S
Mn72 O77 2.095 1_455 S
Mn72 O87 2.162 . S
Mn72 O88 2.297 . S
Mn72 O96 2.385 . S
Mn72 O97 2.209 . S
Mn72 O98 2.094 1_445 S
Mn73 O78 2.121 . S
Mn73 N80 2.257 . S
Mn73 N89 2.277 1_655 S
Mn73 O97 2.215 1_655 S
Mn73 O99 2.117 . S
C74 O96 1.234 . S
C74 O97 1.283 . S
C75 O87 1.281 . S
C75 O88 1.236 . S
C76 O98 1.240 . S
C76 O99 1.264 1_565 S
O77 Mn72 2.095 1_655 S
O77 C86 1.250 . S
O78 Mn73 2.121 . S
O78 C86 1.258 . S
C79 N80 1.326 . S
C79 C83 1.461 1_655 S
C79 H85 0.929 . S
N80 Mn73 2.257 . S
N80 C79 1.326 . S
N80 C84 1.362 1_655 S
C81 C82 1.258 . S
C81 C84 1.431 . S
C81 C101 1.449 . S
C82 C81 1.258 . S
C82 C83 1.478 . S
C82 H102 0.931 . S
C83 C79 1.461 1_455 S
C83 C82 1.478 . S
C83 H103 0.928 1_455 S
C84 N80 1.362 1_455 S
C84 C81 1.431 . S
C84 C94 1.476 . S
H85 C79 0.929 . S
C86 O77 1.250 . S
C86 O78 1.258 . S
O87 Mn72 2.162 . S
O87 C75 1.281 . S
O88 Mn72 2.297 . S
O88 C75 1.236 . S
N89 Mn73 2.277 1_455 S
N89 C90 1.339 . S
N89 C94 1.313 . S
C90 N89 1.339 . S
C90 C91 1.457 . S
C90 H95 0.929 1_455 S
C91 C90 1.457 . S
C91 C92 1.291 . S
C91 H104 0.931 . S
C92 C91 1.291 . S
C92 C93 1.373 . S
C92 H105 0.929 . S
C93 C92 1.373 . S
C93 C94 1.396 . S
C93 C100 1.403 . S
C94 C84 1.476 . S
C94 N89 1.313 . S
C94 C93 1.396 . S
H95 C90 0.929 1_655 S
O96 Mn72 2.385 . S
O96 C74 1.234 . S
O97 Mn72 2.209 . S
O97 Mn73 2.215 1_455 S
O97 C74 1.283 . S
O98 Mn72 2.094 1_665 S
O98 C76 1.240 . S
O99 Mn73 2.117 . S
O99 C76 1.264 1_545 S
C100 C93 1.403 . S
C100 C101 1.399 . S
C100 H106 0.929 . S
C101 C81 1.449 . S
C101 C100 1.399 . S
C101 H107 0.930 . S
H102 C82 0.931 . S
H103 C83 0.928 1_655 S
H104 C91 0.931 . S
H105 C92 0.929 . S
H106 C100 0.929 . S
H107 C101 0.930 . S
H108 C127 0.949 . S
H109 C128 0.950 . S
H110 C130 0.950 . S
H111 C131 0.950 . S
H112 C133 0.950 . S
H113 C136 0.950 . S
H114 C137 0.950 . S
H115 C139 0.951 . S
H116 C140 0.949 . S
H117 C142 0.949 . S
H118 C143 0.950 . S
H119 C145 0.950 . S
H120 C146 0.950 . S
H121 C148 0.950 . S
H122 C151 0.950 . S
H123 C152 0.950 . S
H124 C154 0.951 . S
H125 C155 0.949 . S
C126 C127 1.376 . S
C126 C131 1.386 1_455 S
C126 C132 1.483 . S
C127 H108 0.949 . S
C127 C126 1.376 . S
C127 C128 1.397 . S
C128 H109 0.950 . S
C128 C127 1.397 . S
C128 C129 1.391 . S
C129 C128 1.391 . S
C129 C130 1.405 1_455 S
C130 H110 0.950 . S
C130 C129 1.405 1_655 S
C130 C131 1.367 . S
C131 H111 0.950 . S
C131 C126 1.386 1_655 S
C131 C130 1.367 . S
C132 C126 1.483 . S
C132 C133 1.382 . S
C132 C134 1.403 . S
C133 H112 0.950 . S
C133 C132 1.382 . S
C133 C149 1.411 . S
C134 C132 1.403 . S
C134 C135 1.489 . S
C134 C148 1.411 . S
C135 C134 1.489 . S
C135 C136 1.383 . S
C135 C140 1.382 1_455 S
C136 H113 0.950 . S
C136 C135 1.383 . S
C136 C137 1.395 . S
C137 H114 0.950 . S
C137 C136 1.395 . S
C137 C138 1.288 . S
C138 C137 1.288 . S
C138 C139 1.392 1_455 S
C139 H115 0.951 . S
C139 C138 1.392 1_655 S
C139 C140 1.392 . S
C140 H116 0.949 . S
C140 C135 1.382 1_655 S
C140 C139 1.392 . S
C141 C142 1.376 1_455 S
C141 C146 1.386 . S
C141 C147 1.483 . S
C142 H117 0.949 . S
C142 C141 1.376 1_655 S
C142 C143 1.397 . S
C143 H118 0.950 . S
C143 C142 1.397 . S
C143 C144 1.391 1_655 S
C144 C143 1.391 1_455 S
C144 C145 1.405 . S
C145 H119 0.950 . S
C145 C144 1.405 . S
C145 C146 1.367 . S
C146 H120 0.950 . S
C146 C141 1.386 . S
C146 C145 1.367 . S
C147 C141 1.483 . S
C147 C148 1.382 . S
C147 C149 1.403 . S
C148 H121 0.950 . S
C148 C134 1.411 . S
C148 C147 1.382 . S
C149 C133 1.411 . S
C149 C147 1.403 . S
C149 C150 1.489 . S
C150 C149 1.489 . S
C150 C151 1.383 1_455 S
C150 C155 1.382 . S
C151 H122 0.950 . S
C151 C150 1.383 1_655 S
C151 C152 1.395 . S
C152 H123 0.950 . S
C152 C151 1.395 . S
C152 C153 1.288 1_655 S
C153 C152 1.288 1_455 S
C153 C154 1.392 . S
C154 H124 0.951 . S
C154 C153 1.392 . S
C154 C155 1.392 . S
C155 H125 0.949 . S
C155 C150 1.382 . S
C155 C154 1.392 . S
H156 C175 0.949 . S
H157 C176 0.950 . S
H158 C178 0.950 . S
H159 C179 0.950 . S
H160 C181 0.950 . S
H161 C184 0.950 . S
H162 C185 0.950 . S
H163 C187 0.951 . S
H164 C188 0.949 . S
H165 C190 0.973 . S
H166 C191 0.963 . S
H167 C193 0.950 . S
H168 C194 0.950 . S
H169 C196 0.950 . S
H170 C199 0.950 . S
H171 C200 0.950 . S
H172 C202 0.951 . S
H173 C203 0.949 . S
C174 C175 1.376 . S
C174 C179 1.386 . S
C174 C180 1.483 . S
C175 H156 0.949 . S
C175 C174 1.376 . S
C175 C176 1.397 . S
C176 H157 0.950 . S
C176 C175 1.397 . S
C176 C177 1.391 . S
C177 C176 1.391 . S
C177 C178 1.405 . S
C178 H158 0.950 . S
C178 C177 1.405 . S
C178 C179 1.367 . S
C179 H159 0.950 . S
C179 C174 1.386 . S
C179 C178 1.367 . S
C180 C174 1.483 . S
C180 C181 1.382 . S
C180 C182 1.403 . S
C181 H160 0.950 . S
C181 C180 1.382 . S
C181 C197 1.411 . S
C182 C180 1.403 . S
C182 C183 1.489 . S
C182 C196 1.411 . S
C183 C182 1.489 . S
C183 C184 1.383 . S
C183 C188 1.382 . S
C184 H161 0.950 . S
C184 C183 1.383 . S
C184 C185 1.395 . S
C185 H162 0.950 . S
C185 C184 1.395 . S
C185 C186 1.288 . S
C186 C185 1.288 . S
C186 C187 1.392 . S
C187 H163 0.951 . S
C187 C186 1.392 . S
C187 C188 1.392 . S
C188 H164 0.949 . S
C188 C183 1.382 . S
C188 C187 1.392 . S
C189 C190 1.376 . S
C189 C194 1.386 . S
C189 C195 1.483 . S
C190 H165 0.973 . S
C190 C189 1.376 . S
C190 C191 1.397 . S
C191 H166 0.963 . S
C191 C190 1.397 . S
C191 C192 1.391 . S
C192 C191 1.391 . S
C192 C193 1.405 . S
C193 H167 0.950 . S
C193 C192 1.405 . S
C193 C194 1.367 . S
C194 H168 0.950 . S
C194 C189 1.386 . S
C194 C193 1.367 . S
C195 C189 1.483 . S
C195 C196 1.382 . S
C195 C197 1.403 . S
C196 H169 0.950 . S
C196 C182 1.411 . S
C196 C195 1.382 . S
C197 C181 1.411 . S
C197 C195 1.403 . S
C197 C198 1.489 . S
C198 C197 1.489 . S
C198 C199 1.383 . S
C198 C203 1.382 . S
C199 H170 0.950 . S
C199 C198 1.383 . S
C199 C200 1.395 . S
C200 H171 0.950 . S
C200 C199 1.395 . S
C200 C201 1.288 . S
C201 C200 1.288 . S
C201 C202 1.392 . S
C202 H172 0.951 . S
C202 C201 1.392 . S
C202 C203 1.392 . S
C203 H173 0.949 . S
C203 C198 1.382 . S
C203 C202 1.392 . S
H204 C223 0.949 . S
H205 C224 0.950 . S
H206 C226 0.950 . S
H207 C227 0.950 . S
H208 C229 0.950 . S
H209 C232 0.950 . S
H210 C233 0.950 . S
H211 C235 0.951 . S
H212 C236 0.949 . S
H213 C238 0.949 . S
H214 C239 0.950 . S
H215 C241 0.950 . S
H216 C242 0.950 . S
H217 C244 0.950 . S
H218 C247 0.950 . S
H219 C248 0.950 . S
H220 C250 0.951 . S
H221 C251 0.949 . S
C222 C223 1.376 . S
C222 C227 1.386 . S
C222 C228 1.483 . S
C223 H204 0.949 . S
C223 C222 1.376 . S
C223 C224 1.397 . S
C224 H205 0.950 . S
C224 C223 1.397 . S
C224 C225 1.391 . S
C225 C224 1.391 . S
C225 C226 1.405 . S
C226 H206 0.950 . S
C226 C225 1.405 . S
C226 C227 1.367 . S
C227 H207 0.950 . S
C227 C222 1.386 . S
C227 C226 1.367 . S
C228 C222 1.483 . S
C228 C229 1.382 . S
C228 C230 1.403 . S
C229 H208 0.950 . S
C229 C228 1.382 . S
C229 C245 1.411 . S
C230 C228 1.403 . S
C230 C231 1.489 . S
C230 C244 1.411 . S
C231 C230 1.489 . S
C231 C232 1.383 . S
C231 C236 1.382 . S
C232 H209 0.950 . S
C232 C231 1.383 . S
C232 C233 1.395 . S
C233 H210 0.950 . S
C233 C232 1.395 . S
C233 C234 1.288 . S
C234 C233 1.288 . S
C234 C235 1.392 . S
C235 H211 0.951 . S
C235 C234 1.392 . S
C235 C236 1.392 . S
C236 H212 0.949 . S
C236 C231 1.382 . S
C236 C235 1.392 . S
C237 C238 1.376 . S
C237 C242 1.386 . S
C237 C243 1.483 . S
C238 H213 0.949 . S
C238 C237 1.376 . S
C238 C239 1.397 . S
C239 H214 0.950 . S
C239 C238 1.397 . S
C239 C240 1.391 . S
C240 C239 1.391 . S
C240 C241 1.405 . S
C241 H215 0.950 . S
C241 C240 1.405 . S
C241 C242 1.367 . S
C242 H216 0.950 . S
C242 C237 1.386 . S
C242 C241 1.367 . S
C243 C237 1.483 . S
C243 C244 1.382 . S
C243 C245 1.403 . S
C244 H217 0.950 . S
C244 C230 1.411 . S
C244 C243 1.382 . S
C245 C229 1.411 . S
C245 C243 1.403 . S
C245 C246 1.489 . S
C246 C245 1.489 . S
C246 C247 1.383 . S
C246 C251 1.382 . S
C247 H218 0.950 . S
C247 C246 1.383 . S
C247 C248 1.395 . S
C248 H219 0.950 . S
C248 C247 1.395 . S
C248 C249 1.288 . S
C249 C248 1.288 . S
C249 C250 1.392 . S
C250 H220 0.951 . S
C250 C249 1.392 . S
C250 C251 1.392 . S
C251 H221 0.949 . S
C251 C246 1.382 . S
C251 C250 1.392 . S
H252 C264 0.930 1_655 S
H253 C266 0.930 . S
H254 C267 0.930 . S
H255 C271 0.959 . S
H256 C271 0.959 . S
H257 C271 0.961 . S
H258 C272 0.962 1_655 S
H259 C272 0.955 1_655 S
H260 C272 0.967 . S
H261 C275 0.929 . S
H262 C276 0.931 . S
H263 C278 0.930 1_655 S
C264 H252 0.930 1_455 S
C264 C265 1.399 . S
C264 C269 1.399 . S
C265 C264 1.399 . S
C265 C266 1.376 . S
C266 H253 0.930 . S
C266 C265 1.376 . S
C266 C267 1.388 . S
C267 H254 0.930 . S
C267 C266 1.388 . S
C267 C268 1.390 . S
C268 C267 1.390 . S
C268 C269 1.394 . S
C268 C274 1.465 . S
C269 C264 1.399 . S
C269 C268 1.394 . S
C269 C270 1.516 1_455 S
C270 C269 1.516 1_655 S
C270 C271 1.502 . S
C270 C272 1.557 1_655 S
C270 C273 1.526 1_655 S
C271 H255 0.959 . S
C271 H256 0.959 . S
C271 H257 0.961 . S
C271 C270 1.502 . S
C272 H258 0.962 1_455 S
C272 H259 0.955 1_455 S
C272 H260 0.967 . S
C272 C270 1.557 1_455 S
C273 C270 1.526 1_455 S
C273 C274 1.396 . S
C273 C278 1.390 . S
C274 C268 1.465 . S
C274 C273 1.396 . S
C274 C275 1.399 . S
C275 H261 0.929 . S
C275 C274 1.399 . S
C275 C276 1.385 . S
C276 H262 0.931 . S
C276 C275 1.385 . S
C276 C277 1.389 . S
C277 C276 1.389 . S
C277 C278 1.387 . S
C278 H263 0.930 1_455 S
C278 C273 1.390 . S
C278 C277 1.387 . S
H279 C291 0.930 . S
H280 C293 0.930 . S
H281 C294 0.930 . S
H282 C298 0.959 . S
H283 C298 0.959 . S
H284 C298 0.961 . S
H285 C299 0.960 . S
H286 C299 0.961 . S
H287 C299 0.959 . S
H288 C302 0.929 . S
H289 C303 0.931 1_565 S
H290 C305 0.930 . S
C291 H279 0.930 . S
C291 C292 1.399 . S
C291 C296 1.399 . S
C292 C291 1.399 . S
C292 C293 1.376 1_545 S
C293 H280 0.930 . S
C293 C292 1.376 1_565 S
C293 C294 1.388 . S
C294 H281 0.930 . S
C294 C293 1.388 . S
C294 C295 1.390 1_565 S
C295 C294 1.390 1_545 S
C295 C296 1.394 . S
C295 C301 1.465 . S
C296 C291 1.399 . S
C296 C295 1.394 . S
C296 C297 1.516 . S
C297 C296 1.516 . S
C297 C298 1.502 . S
C297 C299 1.561 . S
C297 C300 1.526 . S
C298 H282 0.959 . S
C298 H283 0.959 . S
C298 H284 0.961 . S
C298 C297 1.502 . S
C299 H285 0.960 . S
C299 H286 0.961 . S
C299 H287 0.959 . S
C299 C297 1.561 . S
C300 C297 1.526 . S
C300 C301 1.396 . S
C300 C305 1.390 . S
C301 C295 1.465 . S
C301 C300 1.396 . S
C301 C302 1.399 1_545 S
C302 H288 0.929 . S
C302 C301 1.399 1_565 S
C302 C303 1.385 1_565 S
C303 H289 0.931 1_545 S
C303 C302 1.385 1_545 S
C303 C304 1.389 . S
C304 C303 1.389 . S
C304 C305 1.387 . S
C305 H290 0.930 . S
C305 C300 1.390 . S
C305 C304 1.387 . S
H306 C318 0.930 . S
H307 C320 0.930 . S
H308 C321 0.930 . S
H309 C325 0.959 . S
H310 C325 0.959 . S
H311 C325 0.961 . S
H312 C326 0.960 . S
H313 C326 0.961 . S
H314 C326 0.959 . S
H315 C329 0.929 . S
H316 C330 0.931 . S
H317 C332 0.930 . S
C318 H306 0.930 . S
C318 C319 1.399 . S
C318 C323 1.399 . S
C319 C318 1.399 . S
C319 C320 1.376 . S
C320 H307 0.930 . S
C320 C319 1.376 . S
C320 C321 1.388 . S
C321 H308 0.930 . S
C321 C320 1.388 . S
C321 C322 1.390 . S
C322 C321 1.390 . S
C322 C323 1.394 . S
C322 C328 1.465 . S
C323 C318 1.399 . S
C323 C322 1.394 . S
C323 C324 1.516 . S
C324 C323 1.516 . S
C324 C325 1.502 . S
C324 C326 1.561 . S
C324 C327 1.526 . S
C325 H309 0.959 . S
C325 H310 0.959 . S
C325 H311 0.961 . S
C325 C324 1.502 . S
C326 H312 0.960 . S
C326 H313 0.961 . S
C326 H314 0.959 . S
C326 C324 1.561 . S
C327 C324 1.526 . S
C327 C328 1.396 . S
C327 C332 1.390 . S
C328 C322 1.465 . S
C328 C327 1.396 . S
C328 C329 1.399 . S
C329 H315 0.929 . S
C329 C328 1.399 . S
C329 C330 1.385 . S
C330 H316 0.931 . S
C330 C329 1.385 . S
C330 C331 1.389 . S
C331 C330 1.389 . S
C331 C332 1.387 . S
C332 H317 0.930 . S
C332 C327 1.390 . S
C332 C331 1.387 . S
H333 C345 0.930 . S
H334 C347 0.930 . S
H335 C348 0.930 . S
H336 C352 0.959 . S
H337 C352 0.959 . S
H338 C352 0.961 . S
H339 C353 0.960 . S
H340 C353 0.961 . S
H341 C353 0.959 . S
H342 C356 0.929 . S
H343 C357 0.931 . S
H344 C359 0.930 . S
C345 H333 0.930 . S
C345 C346 1.399 . S
C345 C350 1.399 . S
C346 C345 1.399 . S
C346 C347 1.376 1_455 S
C347 H334 0.930 . S
C347 C346 1.376 1_655 S
C347 C348 1.388 . S
C348 H335 0.930 . S
C348 C347 1.388 . S
C348 C349 1.390 1_655 S
C349 C348 1.390 1_455 S
C349 C350 1.394 . S
C349 C355 1.465 . S
C350 C345 1.399 . S
C350 C349 1.394 . S
C350 C351 1.516 . S
C351 C350 1.516 . S
C351 C352 1.502 . S
C351 C353 1.561 . S
C351 C354 1.526 . S
C352 H336 0.959 . S
C352 H337 0.959 . S
C352 H338 0.961 . S
C352 C351 1.502 . S
C353 H339 0.960 . S
C353 H340 0.961 . S
C353 H341 0.959 . S
C353 C351 1.561 . S
C354 C351 1.526 . S
C354 C355 1.396 . S
C354 C359 1.390 . S
C355 C349 1.465 . S
C355 C354 1.396 . S
C355 C356 1.399 1_455 S
C356 H342 0.929 . S
C356 C355 1.399 1_655 S
C356 C357 1.385 . S
C357 H343 0.931 . S
C357 C356 1.385 . S
C357 C358 1.389 1_655 S
C358 C357 1.389 1_455 S
C358 C359 1.387 . S
C359 H344 0.930 . S
C359 C354 1.390 . S
C359 C358 1.387 . S
H360 C372 0.930 1_565 S
H361 C374 0.930 . S
H362 C375 0.930 . S
H363 C379 0.959 1_545 S
H364 C379 0.959 . S
H365 C379 0.961 . S
H366 C380 0.960 . S
H367 C380 0.961 . S
H368 C380 0.959 . S
H369 C383 0.929 . S
H370 C384 0.931 . S
H371 C386 0.930 . S
C372 H360 0.930 1_545 S
C372 C373 1.399 . S
C372 C377 1.399 . S
C373 C372 1.399 . S
C373 C374 1.376 . S
C374 H361 0.930 . S
C374 C373 1.376 . S
C374 C375 1.388 . S
C375 H362 0.930 . S
C375 C374 1.388 . S
C375 C376 1.390 . S
C376 C375 1.390 . S
C376 C377 1.394 . S
C376 C382 1.465 . S
C377 C372 1.399 . S
C377 C376 1.394 . S
C377 C378 1.516 . S
C378 C377 1.516 . S
C378 C379 1.502 1_545 S
C378 C380 1.561 1_545 S
C378 C381 1.526 . S
C379 H363 0.959 1_565 S
C379 H364 0.959 . S
C379 H365 0.961 . S
C379 C378 1.502 1_565 S
C380 H366 0.960 . S
C380 H367 0.961 . S
C380 H368 0.959 . S
C380 C378 1.561 1_565 S
C381 C378 1.526 . S
C381 C382 1.396 . S
C381 C386 1.390 . S
C382 C376 1.465 . S
C382 C381 1.396 . S
C382 C383 1.399 . S
C383 H369 0.929 . S
C383 C382 1.399 . S
C383 C384 1.385 . S
C384 H370 0.931 . S
C384 C383 1.385 . S
C384 C385 1.389 . S
C385 C384 1.389 . S
C385 C386 1.387 . S
C386 H371 0.930 . S
C386 C381 1.390 . S
C386 C385 1.387 . S
H387 C399 0.930 . S
H388 C401 0.930 . S
H389 C402 0.930 . S
H390 C406 0.959 . S
H391 C406 0.959 . S
H392 C406 0.961 . S
H393 C407 0.960 . S
H394 C407 0.961 . S
H395 C407 0.959 . S
H396 C410 0.929 . S
H397 C411 0.931 . S
H398 C413 0.930 . S
C399 H387 0.930 . S
C399 C400 1.399 . S
C399 C404 1.399 . S
C400 C399 1.399 . S
C400 C401 1.376 . S
C401 H388 0.930 . S
C401 C400 1.376 . S
C401 C402 1.388 . S
C402 H389 0.930 . S
C402 C401 1.388 . S
C402 C403 1.390 . S
C403 C402 1.390 . S
C403 C404 1.394 . S
C403 C409 1.465 . S
C404 C399 1.399 . S
C404 C403 1.394 . S
C404 C405 1.516 . S
C405 C404 1.516 . S
C405 C406 1.502 . S
C405 C407 1.561 . S
C405 C408 1.526 . S
C406 H390 0.959 . S
C406 H391 0.959 . S
C406 H392 0.961 . S
C406 C405 1.502 . S
C407 H393 0.960 . S
C407 H394 0.961 . S
C407 H395 0.959 . S
C407 C405 1.561 . S
C408 C405 1.526 . S
C408 C409 1.396 . S
C408 C413 1.390 . S
C409 C403 1.465 . S
C409 C408 1.396 . S
C409 C410 1.399 . S
C410 H396 0.929 . S
C410 C409 1.399 . S
C410 C411 1.385 . S
C411 H397 0.931 . S
C411 C410 1.385 . S
C411 C412 1.389 . S
C412 C411 1.389 . S
C412 C413 1.387 . S
C413 H398 0.930 . S
C413 C408 1.390 . S
C413 C412 1.387 . S
H414 C426 0.930 . S
H415 C428 0.930 1_565 S
H416 C429 0.938 . S
H417 C433 0.959 . S
H418 C433 0.959 . S
H419 C433 0.961 . S
H420 C434 0.960 . S
H421 C434 0.961 . S
H422 C434 0.959 . S
H423 C437 0.929 1_565 S
H424 C438 0.931 1_565 S
H425 C440 0.930 . S
C426 H414 0.930 . S
C426 C427 1.399 . S
C426 C431 1.399 . S
C427 C426 1.399 . S
C427 C428 1.376 . S
C428 H415 0.930 1_545 S
C428 C427 1.376 . S
C428 C429 1.391 1_545 S
C429 H416 0.938 . S
C429 C428 1.391 1_565 S
C429 C430 1.379 1_565 S
C430 C429 1.379 1_545 S
C430 C431 1.394 . S
C430 C436 1.465 . S
C431 C426 1.399 . S
C431 C430 1.394 . S
C431 C432 1.516 . S
C432 C431 1.516 . S
C432 C433 1.502 . S
C432 C434 1.561 . S
C432 C435 1.526 . S
C433 H417 0.959 . S
C433 H418 0.959 . S
C433 H419 0.961 . S
C433 C432 1.502 . S
C434 H420 0.960 . S
C434 H421 0.961 . S
C434 H422 0.959 . S
C434 C432 1.561 . S
C435 C432 1.526 . S
C435 C436 1.396 . S
C435 C440 1.390 . S
C436 C430 1.465 . S
C436 C435 1.396 . S
C436 C437 1.399 . S
C437 H423 0.929 1_545 S
C437 C436 1.399 . S
C437 C438 1.385 . S
C438 H424 0.931 1_545 S
C438 C437 1.385 . S
C438 C439 1.389 . S
C439 C438 1.389 . S
C439 C440 1.387 . S
C440 H425 0.930 . S
C440 C435 1.390 . S
C440 C439 1.387 . S
H441 C453 0.930 . S
H442 C455 0.930 . S
H443 C456 0.930 . S
H444 C460 0.959 . S
H445 C460 0.959 . S
H446 C460 0.961 . S
H447 C461 0.960 . S
H448 C461 0.961 . S
H449 C461 0.959 . S
H450 C464 0.929 . S
H451 C465 0.931 . S
H452 C467 0.930 . S
C453 H441 0.930 . S
C453 C454 1.399 1_556 S
C453 C458 1.399 . S
C454 C453 1.399 1_554 S
C454 C455 1.376 . S
C455 H442 0.930 . S
C455 C454 1.376 . S
C455 C456 1.388 . S
C456 H443 0.930 . S
C456 C455 1.388 . S
C456 C457 1.390 1_554 S
C457 C456 1.390 1_556 S
C457 C458 1.394 . S
C457 C463 1.465 . S
C458 C453 1.399 . S
C458 C457 1.394 . S
C458 C459 1.516 . S
C459 C458 1.516 . S
C459 C460 1.502 . S
C459 C461 1.561 . S
C459 C462 1.526 . S
C460 H444 0.959 . S
C460 H445 0.959 . S
C460 H446 0.961 . S
C460 C459 1.502 . S
C461 H447 0.960 . S
C461 H448 0.961 . S
C461 H449 0.959 . S
C461 C459 1.561 . S
C462 C459 1.526 . S
C462 C463 1.396 . S
C462 C467 1.390 . S
C463 C457 1.465 . S
C463 C462 1.396 . S
C463 C464 1.399 . S
C464 H450 0.929 . S
C464 C463 1.399 . S
C464 C465 1.385 . S
C465 H451 0.931 . S
C465 C464 1.385 . S
C465 C466 1.389 . S
C466 C465 1.389 . S
C466 C467 1.387 . S
C467 H452 0.930 . S
C467 C462 1.390 . S
C467 C466 1.387 . S
H468 C480 0.930 . S
H469 C482 0.930 . S
H470 C483 0.930 . S
H471 C487 0.959 . S
H472 C487 0.959 . S
H473 C487 0.961 . S
H474 C488 0.960 . S
H475 C488 0.961 . S
H476 C488 0.959 . S
H477 C491 0.929 . S
H478 C492 0.931 . S
H479 C494 0.930 . S
C480 H468 0.930 . S
C480 C481 1.410 . S
C480 C485 1.399 . S
C481 C480 1.410 . S
C481 C482 1.371 1_455 S
C482 H469 0.930 . S
C482 C481 1.371 1_655 S
C482 C483 1.388 . S
C483 H470 0.930 . S
C483 C482 1.388 . S
C483 C484 1.390 . S
C484 C483 1.390 . S
C484 C485 1.394 1_655 S
C484 C490 1.465 1_655 S
C485 C480 1.399 . S
C485 C484 1.394 1_455 S
C485 C486 1.516 . S
C486 C485 1.516 . S
C486 C487 1.502 . S
C486 C488 1.561 1_455 S
C486 C489 1.526 . S
C487 H471 0.959 . S
C487 H472 0.959 . S
C487 H473 0.961 . S
C487 C486 1.502 . S
C488 H474 0.960 . S
C488 H475 0.961 . S
C488 H476 0.959 . S
C488 C486 1.561 1_655 S
C489 C486 1.526 . S
C489 C490 1.396 . S
C489 C494 1.390 . S
C490 C484 1.465 1_455 S
C490 C489 1.396 . S
C490 C491 1.399 1_455 S
C491 H477 0.929 . S
C491 C490 1.399 1_655 S
C491 C492 1.385 1_655 S
C492 H478 0.931 . S
C492 C491 1.385 1_455 S
C492 C493 1.389 . S
C493 C492 1.389 . S
C493 C494 1.387 . S
C494 H479 0.930 . S
C494 C489 1.390 . S
C494 C493 1.387 . S
H495 C507 0.930 1_565 S
H496 C509 0.930 . S
H497 C510 0.930 . S
H498 C514 0.959 . S
H499 C514 0.959 . S
H500 C514 0.961 . S
H501 C515 0.960 . S
H502 C515 0.961 . S
H503 C515 0.959 . S
H504 C518 0.929 . S
H505 C519 0.931 . S
H506 C521 0.930 . S
C507 H495 0.930 1_545 S
C507 C508 1.399 . S
C507 C512 1.399 . S
C508 C507 1.399 . S
C508 C509 1.376 . S
C509 H496 0.930 . S
C509 C508 1.376 . S
C509 C510 1.388 . S
C510 H497 0.930 . S
C510 C509 1.388 . S
C510 C511 1.390 . S
C511 C510 1.390 . S
C511 C512 1.394 . S
C511 C517 1.465 . S
C512 C507 1.399 . S
C512 C511 1.394 . S
C512 C513 1.516 1_545 S
C513 C512 1.516 1_565 S
C513 C514 1.502 . S
C513 C515 1.561 . S
C513 C516 1.526 1_565 S
C514 H498 0.959 . S
C514 H499 0.959 . S
C514 H500 0.961 . S
C514 C513 1.502 . S
C515 H501 0.960 . S
C515 H502 0.961 . S
C515 H503 0.959 . S
C515 C513 1.561 . S
C516 C513 1.526 1_545 S
C516 C517 1.396 . S
C516 C521 1.390 . S
C517 C511 1.465 . S
C517 C516 1.396 . S
C517 C518 1.399 . S
C518 H504 0.929 . S
C518 C517 1.399 . S
C518 C519 1.385 . S
C519 H505 0.931 . S
C519 C518 1.385 . S
C519 C520 1.389 . S
C520 C519 1.389 . S
C520 C521 1.387 . S
C521 H506 0.930 . S
C521 C516 1.390 . S
C521 C520 1.387 . S
H522 C534 0.930 . S
H523 C536 0.930 . S
H524 C537 0.930 . S
H525 C541 0.959 . S
H526 C541 0.959 . S
H527 C541 0.961 . S
H528 C542 0.960 . S
H529 C542 0.961 . S
H530 C542 0.959 . S
H531 C545 0.929 . S
H532 C546 0.931 . S
H533 C548 0.930 . S
C534 H522 0.930 . S
C534 C535 1.399 . S
C534 C539 1.399 . S
C535 C534 1.399 . S
C535 C536 1.376 1_556 S
C536 H523 0.930 . S
C536 C535 1.376 1_554 S
C536 C537 1.388 1_554 S
C537 H524 0.930 . S
C537 C536 1.388 1_556 S
C537 C538 1.390 . S
C538 C537 1.390 . S
C538 C539 1.394 . S
C538 C544 1.465 . S
C539 C534 1.399 . S
C539 C538 1.394 . S
C539 C540 1.516 . S
C540 C539 1.516 . S
C540 C541 1.502 . S
C540 C542 1.561 . S
C540 C543 1.526 . S
C541 H525 0.959 . S
C541 H526 0.959 . S
C541 H527 0.961 . S
C541 C540 1.502 . S
C542 H528 0.960 . S
C542 H529 0.961 . S
C542 H530 0.959 . S
C542 C540 1.561 . S
C543 C540 1.526 . S
C543 C544 1.396 . S
C543 C548 1.390 . S
C544 C538 1.465 . S
C544 C543 1.396 . S
C544 C545 1.399 . S
C545 H531 0.929 . S
C545 C544 1.399 . S
C545 C546 1.385 . S
C546 H532 0.931 . S
C546 C545 1.385 . S
C546 C547 1.389 . S
C547 C546 1.389 . S
C547 C548 1.387 . S
C548 H533 0.930 . S
C548 C543 1.390 . S
C548 C547 1.387 . S
H549 C561 0.930 . S
H550 C563 0.930 . S
H551 C564 0.930 . S
H552 C568 0.959 . S
H553 C568 0.959 . S
H554 C568 0.961 . S
H555 C569 0.960 . S
H556 C569 0.961 . S
H557 C569 0.959 . S
H558 C572 0.929 . S
H559 C573 0.931 . S
H560 C575 0.930 . S
C561 H549 0.930 . S
C561 C562 1.399 . S
C561 C566 1.399 . S
C562 C561 1.399 . S
C562 C563 1.376 1_455 S
C563 H550 0.930 . S
C563 C562 1.376 1_655 S
C563 C564 1.388 . S
C564 H551 0.930 . S
C564 C563 1.388 . S
C564 C565 1.390 . S
C565 C564 1.390 . S
C565 C566 1.393 1_655 S
C565 C571 1.465 . S
C566 C561 1.399 . S
C566 C565 1.393 1_455 S
C566 C567 1.516 . S
C567 C566 1.516 . S
C567 C568 1.502 . S
C567 C569 1.561 . S
C567 C570 1.526 . S
C568 H552 0.959 . S
C568 H553 0.959 . S
C568 H554 0.961 . S
C568 C567 1.502 . S
C569 H555 0.960 . S
C569 H556 0.961 . S
C569 H557 0.959 . S
C569 C567 1.561 . S
C570 C567 1.526 . S
C570 C571 1.396 1_455 S
C570 C575 1.390 . S
C571 C565 1.465 . S
C571 C570 1.396 1_655 S
C571 C572 1.399 . S
C572 H558 0.929 . S
C572 C571 1.399 . S
C572 C573 1.385 . S
C573 H559 0.931 . S
C573 C572 1.385 . S
C573 C574 1.389 1_655 S
C574 C573 1.389 1_455 S
C574 C575 1.387 . S
C575 H560 0.930 . S
C575 C570 1.390 . S
C575 C574 1.387 . S
C277 C129 1.486 . S
C265 C14 1.424 . S
C292 C40 1.520 . S
C304 C177 1.514 . S
C319 C76 1.462 . S
C331 C249 1.503 . S
C346 C3 1.473 . S
C358 C153 1.482 . S
C385 C201 1.496 . S
C373 C38 1.514 . S
C400 C74 1.454 . S
C412 C225 1.483 . S
C439 C186 1.443 . S
C427 C86 1.433 . S
C454 C2 1.460 . S
C466 C240 1.490 . S
C493 C144 1.472 . S
C481 C39 1.472 . S
C520 C192 1.485 . S
C508 C75 1.473 . S
C547 C234 1.486 . S
C535 C4 1.463 1_556 S
C562 C50 1.466 . S
C574 C138 1.478 . S
