# Generated by pormake.
# Topology pyr, (3,6)-cn, num edge types: 1
# Building blocks:
#     Node 0, Type 0, BuildingBlock: MIDCAF_clean_linker_0, # of connection points: 3
#     Node 1, Type 0, BuildingBlock: MIDCAF_clean_linker_0, # of connection points: 3
#     Node 2, Type 0, BuildingBlock: MIDCAF_clean_linker_0, # of connection points: 3
#     Node 3, Type 0, BuildingBlock: MIDCAF_clean_linker_0, # of connection points: 3
#     Node 4, Type 0, BuildingBlock: MIDCAF_clean_linker_0, # of connection points: 3
#     Node 5, Type 0, BuildingBlock: MIDCAF_clean_linker_0, # of connection points: 3
#     Node 6, Type 0, BuildingBlock: MIDCAF_clean_linker_0, # of connection points: 3
#     Node 7, Type 0, BuildingBlock: MIDCAF_clean_linker_0, # of connection points: 3
#     Node 8, Type 1, BuildingBlock: JUFBIX_clean_sbu_0, # of connection points: 6
#     Node 9, Type 1, BuildingBlock: JUFBIX_clean_sbu_0, # of connection points: 6
#     Node 10, Type 1, BuildingBlock: JUFBIX_clean_sbu_0, # of connection points: 6
#     Node 11, Type 1, BuildingBlock: JUFBIX_clean_sbu_0, # of connection points: 6
#     Edge 12, Type (0, 1), BuildingBlock: EZIPEK_clean_linker_0, # of connection points: 2
#     Edge 13, Type (0, 1), BuildingBlock: EZIPEK_clean_linker_0, # of connection points: 2
#     Edge 14, Type (0, 1), BuildingBlock: EZIPEK_clean_linker_0, # of connection points: 2
#     Edge 15, Type (0, 1), BuildingBlock: EZIPEK_clean_linker_0, # of connection points: 2
#     Edge 16, Type (0, 1), BuildingBlock: EZIPEK_clean_linker_0, # of connection points: 2
#     Edge 17, Type (0, 1), BuildingBlock: EZIPEK_clean_linker_0, # of connection points: 2
#     Edge 18, Type (0, 1), BuildingBlock: EZIPEK_clean_linker_0, # of connection points: 2
#     Edge 19, Type (0, 1), BuildingBlock: EZIPEK_clean_linker_0, # of connection points: 2
#     Edge 20, Type (0, 1), BuildingBlock: EZIPEK_clean_linker_0, # of connection points: 2
#     Edge 21, Type (0, 1), BuildingBlock: EZIPEK_clean_linker_0, # of connection points: 2
#     Edge 22, Type (0, 1), BuildingBlock: EZIPEK_clean_linker_0, # of connection points: 2
#     Edge 23, Type (0, 1), BuildingBlock: EZIPEK_clean_linker_0, # of connection points: 2
#     Edge 24, Type (0, 1), BuildingBlock: EZIPEK_clean_linker_0, # of connection points: 2
#     Edge 25, Type (0, 1), BuildingBlock: EZIPEK_clean_linker_0, # of connection points: 2
#     Edge 26, Type (0, 1), BuildingBlock: EZIPEK_clean_linker_0, # of connection points: 2
#     Edge 27, Type (0, 1), BuildingBlock: EZIPEK_clean_linker_0, # of connection points: 2
#     Edge 28, Type (0, 1), BuildingBlock: EZIPEK_clean_linker_0, # of connection points: 2
#     Edge 29, Type (0, 1), BuildingBlock: EZIPEK_clean_linker_0, # of connection points: 2
#     Edge 30, Type (0, 1), BuildingBlock: EZIPEK_clean_linker_0, # of connection points: 2
#     Edge 31, Type (0, 1), BuildingBlock: EZIPEK_clean_linker_0, # of connection points: 2
#     Edge 32, Type (0, 1), BuildingBlock: EZIPEK_clean_linker_0, # of connection points: 2
#     Edge 33, Type (0, 1), BuildingBlock: EZIPEK_clean_linker_0, # of connection points: 2
#     Edge 34, Type (0, 1), BuildingBlock: EZIPEK_clean_linker_0, # of connection points: 2
#     Edge 35, Type (0, 1), BuildingBlock: EZIPEK_clean_linker_0, # of connection points: 2
# Relax obj value: 0.065
# Max RMSD: 0.101
# Mean RMSD: 0.035
data_MOF--net-pry--node1-JUFBIX_clean_sbu_0--node2-MIDCAF_clean_linker_0--edge1-EZIPEK_clean_linker_0
_symmetry_space_group_name_H-M    P1
_symmetry_Int_Tables_number       1
_symmetry_cell_setting            triclinic
loop_
_symmetry_equiv_pos_as_xyz
'x, y, z'
_cell_length_a     35.986607
_cell_length_b     34.055752
_cell_length_c     36.067272
_cell_angle_alpha  84.954416
_cell_angle_beta   90.424329
_cell_angle_gamma 91.651977
loop_
_atom_site_label
_atom_site_type_symbol
_atom_site_fract_x
_atom_site_fract_y
_atom_site_fract_z
_atom_type_partial_charge
C0 C 0.10987 0.12946 0.29679 0.0
C1 C 0.12168 0.09337 0.3142 0.0
C2 C 0.15015 0.07413 0.29682 0.0
C3 C 0.16632 0.09062 0.26303 0.0
H4 H 0.24388 0.07224 0.16908 0.0
H5 H 0.29858 0.04672 0.13973 0.0
H6 H 0.32141 0.1614 0.08307 0.0
H7 H 0.26594 0.18657 0.11101 0.0
H8 H 0.17777 0.23257 0.08752 0.0
H9 H 0.14529 0.28983 0.05803 0.0
H10 H 0.08395 0.29841 0.15889 0.0
H11 H 0.11556 0.24101 0.18828 0.0
H12 H 0.11549 0.17362 0.25093 0.0
H13 H 0.08811 0.1451 0.30933 0.0
H14 H 0.15996 0.04629 0.30947 0.0
H15 H 0.18807 0.07485 0.25066 0.0
N16 N 0.20107 0.13003 0.1928 0.0
N17 N 0.19904 0.18051 0.14354 0.0
N18 N 0.15505 0.17785 0.19155 0.0
C19 C 0.2157 0.14768 0.16013 0.0
C20 C 0.16854 0.19578 0.15892 0.0
C21 C 0.17073 0.1451 0.20893 0.0
C22 C 0.24989 0.13169 0.14263 0.0
C23 C 0.26039 0.09213 0.1503 0.0
C24 C 0.29191 0.07739 0.13337 0.0
C25 C 0.31484 0.10181 0.10878 0.0
C26 C 0.30459 0.14147 0.10153 0.0
C27 C 0.27259 0.15595 0.11771 0.0
C28 C 0.14956 0.23163 0.14052 0.0
C29 C 0.1574 0.24655 0.10355 0.0
C30 C 0.13869 0.27941 0.08652 0.0
C31 C 0.11183 0.29882 0.10599 0.0
C32 C 0.10425 0.2842 0.14297 0.0
C33 C 0.12256 0.25114 0.15982 0.0
C34 C 0.15433 0.12679 0.24538 0.0
C35 C 0.12575 0.14577 0.26307 0.0
C36 C 0.32387 0.95273 0.57839 0.0
C37 C 0.30001 0.92985 0.55764 0.0
C38 C 0.3134 0.89628 0.54282 0.0
C39 C 0.34968 0.88431 0.55082 0.0
H40 H 0.42303 0.79682 0.53766 0.0
H41 H 0.44534 0.73814 0.51527 0.0
H42 H 0.53516 0.73743 0.59563 0.0
H43 H 0.51251 0.79641 0.61782 0.0
H44 H 0.46726 0.84677 0.70033 0.0
H45 H 0.47368 0.87377 0.76091 0.0
H46 H 0.48159 0.99155 0.7062 0.0
H47 H 0.47303 0.96467 0.64565 0.0
H48 H 0.37725 0.95847 0.6037 0.0
H49 H 0.31394 0.97886 0.58982 0.0
H50 H 0.29523 0.87843 0.5266 0.0
H51 H 0.35874 0.85723 0.54056 0.0
N52 N 0.42225 0.8565 0.57577 0.0
N53 N 0.46881 0.85507 0.62187 0.0
N54 N 0.42572 0.90564 0.61716 0.0
C55 C 0.45258 0.83921 0.59217 0.0
C56 C 0.45566 0.88862 0.63406 0.0
C57 C 0.40865 0.88975 0.58814 0.0
C58 C 0.46702 0.80286 0.57828 0.0
C59 C 0.44862 0.78512 0.54944 0.0
C60 C 0.46249 0.75151 0.53561 0.0
C61 C 0.49651 0.73528 0.54857 0.0
C62 C 0.5125 0.75111 0.58026 0.0
C63 C 0.4986 0.78482 0.5942 0.0
C64 C 0.46963 0.90375 0.66858 0.0
C65 C 0.47146 0.8783 0.70125 0.0
C66 C 0.4749 0.8937 0.7358 0.0
C67 C 0.47751 0.93468 0.73799 0.0
C68 C 0.47924 0.95989 0.70505 0.0
C69 C 0.47454 0.94456 0.67059 0.0
C70 C 0.37297 0.90579 0.57377 0.0
C71 C 0.36003 0.9409 0.58634 0.0
C72 C 0.64896 0.22713 0.92545 0.0
C73 C 0.60993 0.2205 0.92289 0.0
C74 C 0.59192 0.24362 0.89377 0.0
C75 C 0.61013 0.27572 0.87361 0.0
H76 H 0.59984 0.35775 0.78193 0.0
H77 H 0.57344 0.38657 0.72341 0.0
H78 H 0.67192 0.46012 0.70426 0.0
H79 H 0.69871 0.4317 0.7632 0.0
H80 H 0.73937 0.44637 0.86173 0.0
H81 H 0.79427 0.47182 0.89389 0.0
H82 H 0.82679 0.35286 0.92641 0.0
H83 H 0.77104 0.32741 0.89604 0.0
H84 H 0.69665 0.26406 0.91016 0.0
H85 H 0.66667 0.20731 0.94175 0.0
H86 H 0.56356 0.23712 0.88585 0.0
H87 H 0.59452 0.29341 0.85286 0.0
N88 N 0.6516 0.3399 0.83016 0.0
N89 N 0.70039 0.38759 0.82781 0.0
N90 N 0.69896 0.33551 0.87527 0.0
C91 C 0.6683 0.373 0.8129 0.0
C92 C 0.71591 0.36892 0.85907 0.0
C93 C 0.66668 0.32089 0.86126 0.0
C94 C 0.65165 0.39219 0.77766 0.0
C95 C 0.61603 0.38019 0.76555 0.0
C96 C 0.60073 0.39671 0.73197 0.0
C97 C 0.62059 0.42555 0.70929 0.0
C98 C 0.65599 0.43797 0.72126 0.0
C99 C 0.67126 0.42166 0.75509 0.0
C100 C 0.75067 0.3848 0.87622 0.0
C101 C 0.75827 0.42564 0.87563 0.0
C102 C 0.78967 0.44023 0.89416 0.0
C103 C 0.81498 0.4144 0.91285 0.0
C104 C 0.80782 0.37357 0.91256 0.0
C105 C 0.77588 0.35902 0.89504 0.0
C106 C 0.64768 0.2851 0.88048 0.0
C107 C 0.66707 0.25952 0.90583 0.0
C108 C 0.8242 0.60243 0.48488 0.0
C109 C 0.8076 0.57113 0.46746 0.0
C110 C 0.82914 0.54892 0.44531 0.0
C111 C 0.86637 0.5595 0.43854 0.0
H112 H 0.9789 0.53211 0.38487 0.0
H113 H 0.98645 0.50617 0.32402 0.0
H114 H 0.99157 0.62499 0.27149 0.0
H115 H 0.98629 0.65091 0.33223 0.0
H116 H 0.03408 0.69312 0.43807 0.0
H117 H 0.05231 0.75944 0.45515 0.0
H118 H 0.93678 0.78589 0.46751 0.0
H119 H 0.91862 0.71958 0.45226 0.0
H120 H 0.87304 0.63868 0.49041 0.0
H121 H 0.80784 0.6197 0.50221 0.0
H122 H 0.81665 0.52452 0.43185 0.0
H123 H 0.88178 0.54281 0.41991 0.0
N124 N 0.93744 0.59136 0.41355 0.0
N125 N 0.98095 0.6442 0.40751 0.0
N126 N 0.93243 0.64384 0.45071 0.0
C127 C 0.96819 0.60883 0.39707 0.0
C128 C 0.96341 0.66149 0.4348 0.0
C129 C 0.91938 0.60861 0.44046 0.0
C130 C 0.98202 0.59343 0.36307 0.0
C131 C 0.98309 0.55257 0.36042 0.0
C132 C 0.98722 0.53778 0.32577 0.0
C133 C 0.98868 0.56368 0.29325 0.0
C134 C 0.99021 0.60452 0.29624 0.0
C135 C 0.98741 0.6193 0.33096 0.0
C136 C 0.97501 0.70127 0.44419 0.0
C137 C 1.01271 0.7132 0.4445 0.0
C138 C 0.02311 0.75093 0.45414 0.0
C139 C 0.99584 0.77752 0.46237 0.0
C140 C 0.9582 0.76578 0.46123 0.0
C141 C 0.9479 0.72788 0.45269 0.0
C142 C 0.88258 0.5927 0.45366 0.0
C143 C 0.86145 0.61317 0.47803 0.0
C144 C 0.70848 0.91842 0.88017 0.0
C145 C 0.70338 0.91682 0.91914 0.0
C146 C 0.73228 0.90058 0.94176 0.0
C147 C 0.76446 0.88584 0.92619 0.0
H148 H 0.83061 0.77637 0.93808 0.0
H149 H 0.86161 0.71781 0.96733 0.0
H150 H 0.94942 0.7351 0.88665 0.0
H151 H 0.91891 0.79292 0.85725 0.0
H152 H 0.90531 0.84269 0.78268 0.0
H153 H 0.93628 0.87041 0.72748 0.0
H154 H 0.86518 0.97025 0.72305 0.0
H155 H 0.83415 0.94228 0.77888 0.0
H156 H 0.74392 0.90681 0.83459 0.0
H157 H 0.68703 0.93046 0.86166 0.0
H158 H 0.7298 0.89893 0.97177 0.0
H159 H 0.78556 0.87324 0.94481 0.0
N160 N 0.82165 0.84024 0.88943 0.0
N161 N 0.86667 0.84191 0.84251 0.0
N162 N 0.81904 0.88798 0.83776 0.0
C163 C 0.85279 0.82496 0.87534 0.0
C164 C 0.85048 0.87329 0.82334 0.0
C165 C 0.80436 0.87166 0.87093 0.0
C166 C 0.87189 0.78983 0.89496 0.0
C167 C 0.85663 0.76794 0.92662 0.0
C168 C 0.87443 0.73433 0.94352 0.0
C169 C 0.90815 0.72177 0.92946 0.0
C170 C 0.92362 0.74394 0.8983 0.0
C171 C 0.90587 0.77721 0.88137 0.0
C172 C 0.86843 0.89116 0.78749 0.0
C173 C 0.89729 0.87166 0.77112 0.0
C174 C 0.91631 0.88865 0.7394 0.0
C175 C 0.90952 0.9274 0.72342 0.0
C176 C 0.87696 0.9442 0.737 0.0
C177 C 0.85763 0.92713 0.76888 0.0
C178 C 0.76976 0.88787 0.88729 0.0
C179 C 0.74127 0.90482 0.86459 0.0
C180 C 0.5787 0.04541 0.31735 0.0
C181 C 0.55285 0.06509 0.29383 0.0
C182 C 0.53145 0.09452 0.30735 0.0
C183 C 0.53794 0.10617 0.34315 0.0
H184 H 0.51437 0.1932 0.41508 0.0
H185 H 0.49475 0.25926 0.42704 0.0
H186 H 0.58943 0.27209 0.49929 0.0
H187 H 0.60906 0.20629 0.48816 0.0
H188 H 0.6703 0.14477 0.49542 0.0
H189 H 0.73478 0.12808 0.51057 0.0
H190 H 0.72254 0.02407 0.45112 0.0
H191 H 0.65829 0.03994 0.43613 0.0
H192 H 0.6062 0.04178 0.36994 0.0
H193 H 0.59525 0.02244 0.30741 0.0
H194 H 0.51118 0.1098 0.2895 0.0
H195 H 0.52244 0.13036 0.35218 0.0
N196 N 0.5628 0.13817 0.41169 0.0
N197 N 0.60805 0.14093 0.45873 0.0
N198 N 0.60803 0.09004 0.4193 0.0
C199 C 0.57758 0.15617 0.44088 0.0
C200 C 0.62327 0.10767 0.44826 0.0
C201 C 0.57786 0.10488 0.40085 0.0
C202 C 0.56345 0.19444 0.45045 0.0
C203 C 0.53084 0.20988 0.4338 0.0
C204 C 0.51956 0.24756 0.44055 0.0
C205 C 0.54092 0.27048 0.4637 0.0
C206 C 0.57275 0.25479 0.4812 0.0
C207 C 0.58385 0.2171 0.4748 0.0
C208 C 0.65928 0.09407 0.46396 0.0
C209 C 0.68098 0.11783 0.48632 0.0
C210 C 0.71781 0.10843 0.495 0.0
C211 C 0.73329 0.07523 0.48142 0.0
C212 C 0.71098 0.04997 0.46154 0.0
C213 C 0.67428 0.05922 0.45295 0.0
C214 C 0.5657 0.08825 0.36596 0.0
C215 C 0.58492 0.05667 0.35313 0.0
C216 C 0.20968 0.59351 0.14763 0.0
C217 C 0.20504 0.59713 0.10861 0.0
C218 C 0.23453 0.61422 0.08679 0.0
C219 C 0.26725 0.6281 0.10344 0.0
H220 H 0.33435 0.73473 0.09482 0.0
H221 H 0.36556 0.7945 0.06574 0.0
H222 H 0.4525 0.78384 0.14836 0.0
H223 H 0.42166 0.72424 0.17784 0.0
H224 H 0.4067 0.66942 0.25103 0.0
H225 H 0.43794 0.6393 0.30455 0.0
H226 H 0.36678 0.53571 0.30112 0.0
H227 H 0.33565 0.56604 0.24693 0.0
H228 H 0.24545 0.60315 0.19432 0.0
H229 H 0.18754 0.58053 0.16528 0.0
H230 H 0.23206 0.61722 0.05673 0.0
H231 H 0.28905 0.64158 0.08564 0.0
N232 N 0.3246 0.67274 0.14254 0.0
N233 N 0.36965 0.67077 0.18982 0.0
N234 N 0.32091 0.62312 0.19239 0.0
C235 C 0.356 0.68835 0.15745 0.0
C236 C 0.35265 0.63824 0.20759 0.0
C237 C 0.30671 0.64031 0.15972 0.0
C238 C 0.37528 0.72438 0.13888 0.0
C239 C 0.36017 0.74488 0.10685 0.0
C240 C 0.37799 0.77912 0.09011 0.0
C241 C 0.41141 0.79362 0.10482 0.0
C242 C 0.4268 0.77316 0.13648 0.0
C243 C 0.40897 0.73903 0.15333 0.0
C244 C 0.37006 0.61934 0.24255 0.0
C245 C 0.39875 0.63931 0.26052 0.0
C246 C 0.4178 0.6211 0.29113 0.0
C247 C 0.41102 0.581 0.30397 0.0
C248 C 0.37846 0.56336 0.28914 0.0
C249 C 0.3591 0.58165 0.25839 0.0
C250 C 0.27205 0.62427 0.14241 0.0
C251 C 0.24293 0.60636 0.16427 0.0
C252 C 0.0778 0.25385 0.55768 0.0
C253 C 0.04812 0.23508 0.57776 0.0
C254 C 0.03252 0.2534 0.60712 0.0
C255 C 0.0479 0.28899 0.61761 0.0
H256 H 0.05898 0.38046 0.70943 0.0
H257 H 0.06303 0.39939 0.77355 0.0
H258 H 0.18242 0.41047 0.7647 0.0
H259 H 0.17832 0.39345 0.70007 0.0
H260 H 0.14799 0.47721 0.59039 0.0
H261 H 0.20488 0.51269 0.56762 0.0
H262 H 0.24832 0.40349 0.53666 0.0
H263 H 0.19082 0.36856 0.55727 0.0
H264 H 0.11623 0.30293 0.55217 0.0
H265 H 0.09012 0.24015 0.53489 0.0
H266 H 1.00942 0.23938 0.62275 0.0
H267 H 0.03623 0.30194 0.64114 0.0
N268 N 0.09564 0.35004 0.6476 0.0
N269 N 0.13705 0.40406 0.63592 0.0
N270 N 0.11909 0.36629 0.58731 0.0
C271 C 0.11597 0.38048 0.66008 0.0
C272 C 0.13827 0.39755 0.5995 0.0
C273 C 0.09714 0.34281 0.61109 0.0
C274 C 0.11824 0.38628 0.69991 0.0
C275 C 0.08602 0.38656 0.7214 0.0
C276 C 0.08836 0.39731 0.75787 0.0
C277 C 0.123 0.40705 0.77343 0.0
C278 C 0.15547 0.40365 0.75291 0.0
C279 C 0.15304 0.39409 0.71611 0.0
C280 C 0.16548 0.42028 0.57572 0.0
C281 C 0.16906 0.46131 0.57706 0.0
C282 C 0.20143 0.48151 0.56418 0.0
C283 C 0.23107 0.46039 0.55164 0.0
C284 C 0.22586 0.42015 0.54673 0.0
C285 C 0.19301 0.40025 0.55836 0.0
C286 C 0.07846 0.30722 0.59823 0.0
C287 C 0.09264 0.28975 0.5676 0.0
Co288 Co 0.99034 0.0119 0.50609 0.0
C289 C 0.01727 0.937 0.50151 0.0
Co290 Co 0.04543 1.00313 0.53151 0.0
C291 C 0.91412 0.03382 0.49854 0.0
C292 C 0.93338 0.00732 0.45073 0.0
N293 N 0.94435 0.0183 0.48426 0.0
N294 N 0.88476 0.03259 0.47534 0.0
C295 C 0.89659 0.01615 0.44515 0.0
H296 H 0.91348 0.04551 0.52547 0.0
H297 H 0.95095 0.99352 0.43174 0.0
C298 C 0.01865 0.07792 0.53624 0.0
N299 N 0.09152 0.99673 0.55329 0.0
C300 C 0.12136 0.98006 0.53941 0.0
C301 C 0.10285 0.00841 0.58645 0.0
N302 N 0.15078 0.98111 0.56258 0.0
C303 C 0.13943 0.99873 0.59227 0.0
C304 C 0.04949 0.03173 0.45552 0.0
O305 O 0.99015 0.06444 0.52011 0.0
O306 O 0.04612 0.05597 0.5434 0.0
O307 O 0.0689 0.01999 0.48388 0.0
O308 O 1.0142 0.031 0.45896 0.0
O309 O 0.04467 0.94992 0.51961 0.0
H310 H 0.08563 0.02311 0.60509 0.0
H311 H 0.12159 0.96745 0.51288 0.0
O312 O 0.99056 0.95939 0.49229 0.0
O313 O 0.96678 0.99288 0.55335 0.0
O314 O 0.02164 0.98674 0.57914 0.0
C315 C 0.98633 0.98406 0.58239 0.0
H316 H 0.87973 0.01089 0.421 0.0
H317 H 0.15641 1.00408 0.61631 0.0
Co318 Co 0.49382 0.00475 0.98695 0.0
C319 C 0.48236 0.93975 0.0394 0.0
Co320 Co 0.52338 0.0106 0.03971 0.0
C321 C 0.48299 0.99975 0.90855 0.0
C322 C 0.43372 0.98358 0.93993 0.0
N323 N 0.4686 0.99853 0.94309 0.0
N324 N 0.45893 0.98468 0.88436 0.0
C325 C 0.42776 0.97482 0.90383 0.0
H326 H 0.5115 0.00848 0.90188 0.0
H327 H 0.41482 0.97681 0.96294 0.0
C328 C 0.53495 0.0755 0.98719 0.0
N329 N 0.54903 0.01643 0.08374 0.0
C330 C 0.53488 0.02047 0.1177 0.0
C331 C 0.58622 0.02073 0.0881 0.0
N332 N 0.56164 0.02711 0.1428 0.0
C333 C 0.59405 0.02722 0.12449 0.0
C334 C 0.56711 0.9757 0.9864 0.0
O335 O 0.51281 0.05611 0.96739 0.0
O336 O 0.54273 0.06095 0.01994 0.0
O337 O 0.56673 0.98544 0.01975 0.0
O338 O 0.53767 0.981 0.96694 0.0
O339 O 0.50339 0.95979 0.05969 0.0
H340 H 0.60634 0.02067 0.06599 0.0
H341 H 0.50558 0.01992 0.12391 0.0
O342 O 0.47532 0.95354 1.00632 0.0
O343 O 0.44969 0.02838 1.00757 0.0
O344 O 0.48017 0.03607 0.0589 0.0
C345 C 0.44995 0.03991 0.04038 0.0
H346 H 0.40328 0.96035 0.8931 0.0
H347 H 0.62116 0.03321 0.13629 0.0
Co348 Co 0.54717 0.50901 0.49175 0.0
C349 C 0.4873 0.52329 0.44191 0.0
Co350 Co 0.49234 0.49924 0.51794 0.0
C351 C 0.62412 0.53301 0.48298 0.0
C352 C 0.60212 0.50682 0.43524 0.0
N353 N 0.59264 0.51755 0.46899 0.0
N354 N 0.65276 0.53195 0.45934 0.0
C355 C 0.63921 0.51573 0.42921 0.0
H356 H 0.62628 0.54397 0.51021 0.0
H357 H 0.58345 0.49254 0.41662 0.0
C358 C 0.55241 0.48444 0.56755 0.0
N359 N 0.44699 0.48903 0.54037 0.0
C360 C 0.41398 0.50553 0.53198 0.0
C361 C 0.43913 0.45827 0.56554 0.0
N362 N 0.38591 0.48543 0.55025 0.0
C363 C 0.40157 0.45603 0.57168 0.0
C364 C 0.52041 0.43273 0.49033 0.0
O365 O 0.57157 0.49537 0.53879 0.0
O366 O 0.51712 0.48427 0.56479 0.0
O367 O 0.49258 0.44597 0.50603 0.0
O368 O 0.54791 0.45561 0.48145 0.0
O369 O 0.46797 0.51422 0.47098 0.0
H370 H 0.45917 0.43752 0.57722 0.0
H371 H 0.41028 0.5303 0.51146 0.0
O372 O 0.52255 0.52235 0.44478 0.0
O373 O 0.54625 0.56266 0.50208 0.0
O374 O 0.49197 0.55258 0.52953 0.0
C375 C 0.51897 0.57571 0.51902 0.0
H376 H 0.65523 0.51013 0.40503 0.0
H377 H 0.38659 0.43368 0.58936 0.0
Co378 Co 0.02359 0.50478 0.9868 0.0
C379 C 0.94868 0.47449 0.98758 0.0
Co380 Co 0.9937 0.50962 0.03877 0.0
C381 C 0.07695 0.48224 0.93239 0.0
C382 C 0.02722 0.50694 0.90855 0.0
N383 N 0.04521 0.49951 0.94126 0.0
N384 N 0.07879 0.47864 0.89547 0.0
C385 C 0.04783 0.49447 0.88047 0.0
H386 H 0.0969 0.47024 0.95262 0.0
H387 H 0.99937 0.51747 0.90552 0.0
C388 C 0.06813 0.53986 0.03831 0.0
N389 N 0.97093 0.51519 0.08347 0.0
C390 C 0.98641 0.51101 0.11772 0.0
C391 C 0.93765 0.5312 0.08828 0.0
N392 N 0.96465 0.52513 0.14343 0.0
C393 C 0.93381 0.53756 0.12516 0.0
C394 C 0.03479 0.43952 0.03874 0.0
O395 O 0.06862 0.52888 1.00541 0.0
O396 O 0.03807 0.53545 0.05675 0.0
O397 O 1.01345 0.45862 0.05845 0.0
O398 O 0.04131 0.45353 1.00544 0.0
O399 O 0.94912 0.48413 0.02088 0.0
H400 H 0.91842 0.53986 0.06606 0.0
H401 H 1.01419 0.50048 0.12328 0.0
O402 O 0.97832 0.48034 0.96864 0.0
O403 O 1.00615 0.55686 0.96822 0.0
O404 O 0.97454 0.5605 0.01878 0.0
C405 C 0.98383 0.576 0.98659 0.0
H406 H 0.03966 0.49455 0.8515 0.0
H407 H 0.91094 0.55177 0.1374 0.0
C408 C 0.11587 0.08989 0.385 0.0
C409 C 0.10404 0.07622 0.35054 0.0
C410 C 0.05828 0.03113 0.38501 0.0
C411 C 0.06802 0.04719 0.41912 0.0
N412 N 0.10142 0.09781 0.44961 0.0
N413 N 0.06031 0.03751 0.31724 0.0
C414 C 0.09573 0.07805 0.41856 0.0
C415 C 0.07421 0.04784 0.35049 0.0
N416 N 0.14694 0.11384 0.38583 0.0
N417 N 0.03487 0.99876 0.38562 0.0
H418 H 0.07175 0.04812 0.29168 0.0
H419 H 0.03588 0.0208 0.31476 0.0
H420 H 0.02254 0.98574 0.40987 0.0
H421 H 0.03004 0.98273 0.3627 0.0
H422 H 0.15966 0.12126 0.41039 0.0
H423 H 0.16192 0.12363 0.36197 0.0
H424 H 0.11813 0.12324 0.44995 0.0
H425 H 0.08655 0.09126 0.47418 0.0
C426 C 0.50199 0.94128 0.80269 0.0
C427 C 0.47498 0.95097 0.77479 0.0
C428 C 0.44276 0.99006 0.81777 0.0
C429 C 0.46623 0.97529 0.847 0.0
N430 N 0.51365 0.92993 0.86877 0.0
N431 N 0.415 0.97833 0.75851 0.0
C432 C 0.49488 0.9492 0.83992 0.0
C433 C 0.44413 0.97391 0.78292 0.0
N434 N 0.53455 0.92495 0.79358 0.0
N435 N 0.41945 0.01988 0.82331 0.0
H436 H 0.41366 0.96532 0.73343 0.0
H437 H 0.39037 0.99152 0.76494 0.0
H438 H 0.41858 0.03281 0.84846 0.0
H439 H 0.40404 0.03433 0.80195 0.0
H440 H 0.55658 0.92067 0.81228 0.0
H441 H 0.54093 0.91942 0.76638 0.0
H442 H 0.5324 0.90785 0.86515 0.0
H443 H 0.50759 0.93277 0.89658 0.0
C444 C 0.58458 0.47735 0.6701 0.0
C445 C 0.60451 0.44175 0.67254 0.0
C446 C 0.59289 0.4359 0.60557 0.0
C447 C 0.57097 0.47024 0.60362 0.0
N448 N 0.5437 0.52238 0.6344 0.0
N449 N 0.62535 0.38517 0.64386 0.0
C450 C 0.56617 0.49055 0.63606 0.0
C451 C 0.60815 0.42063 0.64052 0.0
N452 N 0.5839 0.49897 0.70029 0.0
N453 N 0.59916 0.41775 0.57392 0.0
H454 H 0.63836 0.37396 0.66832 0.0
H455 H 0.6251 0.36559 0.62329 0.0
H456 H 0.58622 0.42563 0.54854 0.0
H457 H 0.61854 0.39595 0.57206 0.0
H458 H 0.57361 0.52725 0.69968 0.0
H459 H 0.5959 0.48962 0.72584 0.0
H460 H 0.53518 0.53579 0.6576 0.0
H461 H 0.53182 0.53456 0.60972 0.0
C462 C 1.01303 0.55849 0.22883 0.0
C463 C 0.98505 0.5487 0.25583 0.0
C464 C 0.94904 0.51464 0.20987 0.0
C465 C 0.97362 0.53044 0.18167 0.0
N466 N 0.02573 0.57399 0.16341 0.0
N467 N 0.92247 0.52356 0.26961 0.0
C468 C 1.00504 0.55388 0.19084 0.0
C469 C 0.95202 0.52807 0.24588 0.0
N470 N 0.04722 0.57203 0.23949 0.0
N471 N 0.92298 0.48656 0.20215 0.0
H472 H 0.92228 0.53482 0.29554 0.0
H473 H 0.89663 0.51219 0.26192 0.0
H474 H 0.92088 0.47557 0.17608 0.0
H475 H 0.90635 0.47141 0.22253 0.0
H476 H 0.06964 0.57629 0.22131 0.0
H477 H 0.05413 0.57506 0.26727 0.0
H478 H 0.04681 0.59438 0.16879 0.0
H479 H 0.01936 0.57368 0.13523 0.0
C480 C 0.35417 0.08891 0.05166 0.0
C481 C 0.34947 0.0861 0.09105 0.0
C482 C 0.40738 0.04818 0.09665 0.0
C483 C 0.41508 0.05594 0.05773 0.0
N484 N 0.39759 0.0933 1.00033 0.0
N485 N 0.37833 0.071 0.15099 0.0
C486 C 0.38891 0.07896 0.03583 0.0
C487 C 0.3781 0.06812 0.11346 0.0
N488 N 0.32503 0.09972 0.02893 0.0
N489 N 0.42627 0.01996 0.11769 0.0
H490 H 0.35853 0.08647 0.16431 0.0
H491 H 0.40049 0.06186 0.1681 0.0
H492 H 0.44536 1.00188 0.10666 0.0
H493 H 0.41931 0.01086 0.14518 0.0
H494 H 0.32565 0.09845 1.00018 0.0
H495 H 0.29893 0.10573 0.03907 0.0
H496 H 0.38111 0.11325 0.98458 0.0
H497 H 0.42315 0.08926 0.98818 0.0
C498 C 0.2492 0.97246 0.53057 0.0
C499 C 0.26016 0.93958 0.55462 0.0
C500 C 0.19643 0.92991 0.57773 0.0
C501 C 0.18686 0.9656 0.55748 0.0
N502 N 0.20337 0.0227 0.51648 0.0
N503 N 0.2455 0.88865 0.60372 0.0
C504 C 0.21295 0.98724 0.53405 0.0
C505 C 0.23403 0.9184 0.57867 0.0
N506 N 0.27338 0.98917 0.5043 0.0
N507 N 0.16921 0.90697 0.59569 0.0
H508 H 0.27276 0.87905 0.60525 0.0
H509 H 0.22867 0.87522 0.6248 0.0
H510 H 0.14146 0.91508 0.5954 0.0
H511 H 0.17343 0.87864 0.60802 0.0
H512 H 0.26609 0.01097 0.4837 0.0
H513 H 0.30012 0.97887 0.5012 0.0
H514 H 0.22211 0.04212 0.50202 0.0
H515 H 0.17687 0.03396 0.51847 0.0
C516 C 0.87525 0.45556 0.91283 0.0
C517 C 0.84889 0.43 0.93258 0.0
C518 C 0.8893 0.43062 0.98833 0.0
C519 C 0.91343 0.45964 0.96958 0.0
N520 N 0.9205 0.50865 0.91727 0.0
N521 N 0.82709 0.40121 0.99235 0.0
C522 C 0.90391 0.4746 0.93271 0.0
C523 C 0.85485 0.41981 0.9713 0.0
N524 N 0.87387 0.46091 0.87488 0.0
N525 N 0.89961 0.41208 0.02176 0.0
H526 H 0.80106 0.39421 0.98144 0.0
H527 H 0.82854 0.3966 0.02126 0.0
H528 H 0.92466 0.41827 0.0349 0.0
H529 H 0.88492 0.38786 0.03463 0.0
H530 H 0.89457 0.47642 0.85914 0.0
H531 H 0.85441 0.44636 0.85902 0.0
H532 H 0.91235 0.52254 0.89171 0.0
H533 H 0.93867 0.52572 0.93221 0.0
C534 C 0.7431 0.58826 0.44641 0.0
C535 C 0.76688 0.56369 0.46925 0.0
C536 C 0.71437 0.51896 0.48725 0.0
C537 C 0.69065 0.54407 0.46526 0.0
N538 N 0.67972 0.60573 0.43014 0.0
N539 N 0.77482 0.51018 0.51667 0.0
C540 C 0.70427 0.57982 0.44686 0.0
C541 C 0.75235 0.53041 0.49142 0.0
N542 N 0.7578 0.6184 0.42296 0.0
N543 N 0.70075 0.48344 0.50272 0.0
H544 H 0.80281 0.51791 0.52021 0.0
H545 H 0.76519 0.48787 0.53611 0.0
H546 H 0.67293 0.47454 0.50023 0.0
H547 H 0.71729 0.46176 0.51585 0.0
H548 H 0.74235 0.63447 0.40271 0.0
H549 H 0.78612 0.62574 0.4218 0.0
H550 H 0.68721 0.63416 0.41927 0.0
H551 H 0.6511 0.59982 0.43002 0.0
C552 C 0.11222 0.37024 0.07732 0.0
C553 C 0.09198 0.3346 0.08802 0.0
C554 C 0.03377 0.36838 0.06886 0.0
C555 C 0.05438 0.40294 0.05519 0.0
N556 N 0.11479 0.43343 0.04079 0.0
N557 N 0.0338 0.29789 0.08729 0.0
C558 C 0.09404 0.40269 0.05751 0.0
C559 C 0.05278 0.33327 0.08206 0.0
N560 N 0.1486 0.37411 0.08794 0.0
N561 N 0.99585 0.36885 0.06903 0.0
H562 H 0.04668 0.27159 0.09597 0.0
H563 H 1.00607 0.29382 0.07972 0.0
H564 H 0.98095 0.39267 0.05739 0.0
H565 H 0.97923 0.34667 0.08271 0.0
H566 H 0.16366 0.40077 0.08505 0.0
H567 H 0.16276 0.35167 0.1031 0.0
H568 H 0.14346 0.43249 0.03734 0.0
H569 H 0.10344 0.45905 0.02823 0.0
C570 C 0.60735 0.15946 0.9714 0.0
C571 C 0.58879 0.18761 0.94708 0.0
C572 C 0.53152 0.14597 0.95652 0.0
C573 C 0.55297 0.11413 0.97248 0.0
N574 N 0.61409 0.09064 0.99049 0.0
N575 N 0.5287 0.21684 0.94366 0.0
C576 C 0.59165 0.1209 0.97855 0.0
C577 C 0.54926 0.18363 0.94671 0.0
N578 N 0.63553 0.17129 0.99366 0.0
N579 N 0.49418 0.14084 0.95112 0.0
H580 H 0.54114 0.2449 0.9438 0.0
H581 H 0.49994 0.21663 0.9467 0.0
H582 H 0.47929 0.11544 0.96085 0.0
H583 H 0.47832 0.16123 0.9352 0.0
H584 H 0.64797 0.1522 0.014 0.0
H585 H 0.64147 0.20113 0.99616 0.0
H586 H 0.64288 0.09454 0.99255 0.0
H587 H 0.60473 0.06134 0.99443 0.0
C588 C 0.99554 0.82704 0.50957 0.0
C589 C 1.00603 0.81733 0.47373 0.0
C590 C 0.03132 0.88455 0.4597 0.0
C591 C 0.01529 0.89548 0.49289 0.0
N592 N 0.97704 0.87858 0.54695 0.0
N593 N 0.02945 0.8384 0.41231 0.0
C594 C 0.99601 0.86713 0.51723 0.0
C595 C 0.02306 0.8464 0.44815 0.0
N596 N 0.98587 0.79786 0.53651 0.0
N597 N 0.05444 0.91052 0.43933 0.0
H598 H 0.02305 0.81115 0.40243 0.0
H599 H 0.03809 0.85982 0.39153 0.0
H600 H 0.06107 0.93865 0.44719 0.0
H601 H 0.06963 0.90291 0.41668 0.0
H602 H 0.9813 0.80307 0.56412 0.0
H603 H 0.98626 0.76799 0.53216 0.0
H604 H 0.95942 0.85962 0.5634 0.0
H605 H 0.97623 0.90784 0.55315 0.0
C606 C 0.49413 0.68319 0.5015 0.0
C607 C 0.51183 0.69929 0.53214 0.0
C608 C 0.54303 0.63678 0.54657 0.0
C609 C 0.51729 0.6184 0.52309 0.0
N610 N 0.46851 0.62492 0.47647 0.0
N611 N 0.57352 0.6986 0.55824 0.0
C612 C 0.49295 0.64182 0.49989 0.0
C613 C 0.54243 0.67835 0.54801 0.0
N614 N 0.48368 0.70754 0.47142 0.0
N615 N 0.5674 0.6147 0.56812 0.0
H616 H 0.57627 0.72913 0.5524 0.0
H617 H 0.59803 0.68497 0.56696 0.0
H618 H 0.5691 0.58424 0.56743 0.0
H619 H 0.58397 0.62643 0.5885 0.0
H620 H 0.4739 0.69721 0.44669 0.0
H621 H 0.48963 0.73785 0.4699 0.0
H622 H 0.448 0.64087 0.46176 0.0
H623 H 0.46701 0.59474 0.4737 0.0
C624 C 0.92646 0.98472 0.6718 0.0
C625 C 0.93408 0.94734 0.69103 0.0
C626 C 0.98147 0.93872 0.64296 0.0
C627 C 0.96844 0.97177 0.62 0.0
N628 N 0.92852 0.02802 0.61472 0.0
N629 N 0.99002 0.91205 0.70642 0.0
C630 C 0.94062 0.99499 0.63489 0.0
C631 C 0.9676 0.93034 0.67997 0.0
N632 N 0.91307 0.0137 0.69138 0.0
N633 N 1.00664 0.9143 0.62962 0.0
H634 H 0.98477 0.91266 0.73478 0.0
H635 H 0.01638 0.9023 0.70062 0.0
H636 H 0.01778 0.91851 0.60296 0.0
H637 H 1.01382 0.88774 0.64417 0.0
H638 H 0.9095 0.04258 0.68011 0.0
H639 H 0.91245 0.01076 0.72041 0.0
H640 H 0.9049 0.04262 0.62188 0.0
H641 H 0.94115 0.04011 0.59028 0.0
C642 C 0.53734 0.01956 0.24452 0.0
C643 C 0.55099 0.05687 0.25414 0.0
C644 C 0.56494 0.07641 0.1887 0.0
C645 C 0.55631 0.03748 0.1801 0.0
N646 N 0.53769 0.9706 0.19953 0.0
N647 N 0.58317 0.11895 0.23624 0.0
C648 C 0.54314 0.00867 0.2079 0.0
C649 C 0.56604 0.08499 0.22643 0.0
N650 N 0.51841 0.99494 0.27025 0.0
N651 N 0.57118 0.10534 0.16057 0.0
H652 H 0.58529 0.1263 0.26364 0.0
H653 H 0.59816 0.13826 0.21755 0.0
H654 H 0.56971 0.09996 0.13256 0.0
H655 H 0.57403 0.13514 0.16486 0.0
H656 H 0.50484 0.96892 0.26398 0.0
H657 H 0.51348 1.00233 0.29722 0.0
H658 H 0.53173 0.94724 0.21939 0.0
H659 H 0.54204 0.96187 0.17293 0.0
C660 C 0.42753 0.52213 0.35255 0.0
C661 C 0.43577 0.56038 0.33472 0.0
C662 C 0.48286 0.56997 0.38333 0.0
C663 C 0.46936 0.53564 0.40498 0.0
N664 N 0.42858 0.47763 0.40878 0.0
N665 N 0.49191 0.59896 0.32069 0.0
C666 C 0.44135 0.51149 0.38934 0.0
C667 C 0.46945 0.57856 0.3464 0.0
N668 N 0.41383 0.49332 0.33184 0.0
N669 N 0.50762 0.59555 0.39808 0.0
H670 H 0.48621 0.59969 0.29222 0.0
H671 H 0.51839 0.60974 0.32709 0.0
H672 H 0.51752 0.59175 0.42534 0.0
H673 H 0.51529 0.62269 0.38415 0.0
H674 H 0.40985 0.464 0.34226 0.0
H675 H 0.41325 0.4973 0.30283 0.0
H676 H 0.40501 0.46198 0.40067 0.0
H677 H 0.44031 0.46611 0.43375 0.0
C678 C 0.13229 0.46385 0.81314 0.0
C679 C 0.12433 0.42305 0.81039 0.0
C680 C 0.099 0.41647 0.87339 0.0
C681 C 0.10432 0.45764 0.87478 0.0
N682 N 0.13648 0.51745 0.85343 0.0
N683 N 0.11213 0.35857 0.84146 0.0
C684 C 0.12535 0.47995 0.84727 0.0
C685 C 0.11199 0.39861 0.84199 0.0
N686 N 0.14316 0.48785 0.78254 0.0
N687 N 0.07894 0.39521 0.90057 0.0
H688 H 0.12171 0.34506 0.81861 0.0
H689 H 0.10614 0.33903 0.86464 0.0
H690 H 0.06994 0.40742 0.9243 0.0
H691 H 0.06999 0.36607 0.8989 0.0
H692 H 0.14529 0.51844 0.78211 0.0
H693 H 0.14769 0.47771 0.7566 0.0
H694 H 0.15432 0.53489 0.83585 0.0
H695 H 0.13042 0.5294 0.87833 0.0
C696 C 0.65671 0.97155 0.92748 0.0
C697 C 0.66815 0.932 0.93625 0.0
C698 C 0.61645 0.92322 0.98188 0.0
C699 C 0.60224 0.96076 0.96952 0.0
N700 N 0.60719 0.01873 0.92606 0.0
N701 N 0.65232 0.86766 0.96638 0.0
C702 C 0.62174 0.98412 0.94074 0.0
C703 C 0.64618 0.90719 0.96205 0.0
N704 N 0.68024 0.9981 0.90833 0.0
N705 N 0.60198 0.90274 0.01294 0.0
H706 H 0.67224 0.85437 0.9512 0.0
H707 H 0.63494 0.84753 0.98185 0.0
H708 H 0.58073 0.91341 0.02839 0.0
H709 H 0.61354 0.87712 0.0254 0.0
H710 H 0.67534 0.02818 0.90445 0.0
H711 H 0.70663 0.99093 0.89981 0.0
H712 H 0.61767 0.03464 0.90223 0.0
H713 H 0.58306 0.03023 0.93602 0.0
C714 C 0.79856 0.09054 0.45982 0.0
C715 C 0.77368 0.0684 0.48454 0.0
C716 C 0.82334 0.02386 0.50525 0.0
C717 C 0.84815 0.0464 0.48106 0.0
N718 N 0.86269 0.10541 0.44205 0.0
N719 N 0.76346 0.01954 0.53614 0.0
C720 C 0.83672 0.08121 0.46053 0.0
C721 C 0.78651 0.03682 0.50911 0.0
N722 N 0.78542 0.11898 0.43432 0.0
N723 N 0.83462 0.98914 0.52304 0.0
H724 H 0.73632 0.02857 0.53952 0.0
H725 H 0.77209 0.99874 0.55708 0.0
H726 H 0.86149 0.979 0.52061 0.0
H727 H 0.81684 0.9691 0.53807 0.0
H728 H 0.80147 0.13284 0.41283 0.0
H729 H 0.75766 0.12697 0.43288 0.0
H730 H 0.85695 0.13326 0.4294 0.0
H731 H 0.89088 0.09897 0.4423 0.0
C732 C 0.14765 0.60911 0.06726 0.0
C733 C 0.16961 0.58273 0.09057 0.0
C734 C 0.12205 0.53026 0.08353 0.0
C735 C 0.10285 0.55501 0.0564 0.0
N736 N 0.09964 0.61729 0.01954 0.0
N737 N 0.18097 0.5154 0.11363 0.0
C738 C 0.11653 0.59417 0.04722 0.0
C739 C 0.15764 0.54253 0.09675 0.0
N740 N 0.15524 0.64876 0.06577 0.0
N741 N 0.10614 0.49518 0.09739 0.0
H742 H 0.20781 0.52263 0.1223 0.0
H743 H 0.1752 0.48513 0.11532 0.0
H744 H 0.08033 0.48487 0.08855 0.0
H745 H 0.1171 0.47797 0.11995 0.0
H746 H 0.13816 0.66975 0.05231 0.0
H747 H 0.17657 0.66101 0.08115 0.0
H748 H 0.11066 0.64448 1.0087 0.0
H749 H 0.07589 0.60804 1.00559 0.0
C750 C 0.28798 0.47944 0.51421 0.0
C751 C 0.2692 0.47807 0.54871 0.0
C752 C 0.32688 0.49841 0.57871 0.0
C753 C 0.34665 0.49101 0.54661 0.0
N754 N 0.34675 0.47222 0.48368 0.0
N755 N 0.27215 0.48217 0.61557 0.0
C756 C 0.32744 0.48174 0.51392 0.0
C757 C 0.28875 0.48732 0.58143 0.0
N758 N 0.26803 0.47792 0.48199 0.0
N759 N 0.34522 0.5149 0.60701 0.0
H760 H 0.24478 0.47215 0.6197 0.0
H761 H 0.28665 0.48438 0.64044 0.0
H762 H 0.37343 0.52292 0.60526 0.0
H763 H 0.33179 0.52417 0.63007 0.0
H764 H 0.27999 0.48205 0.45567 0.0
H765 H 0.23901 0.47638 0.48167 0.0
H766 H 0.33412 0.46094 0.46064 0.0
H767 H 0.37566 0.47286 0.48262 0.0
C768 C 0.94538 0.68242 0.9805 0.0
C769 C 0.9267 0.68443 0.94548 0.0
C770 C 0.95358 0.62094 0.93371 0.0
C771 C 0.96787 0.61544 0.97092 0.0
N772 N 0.9782 0.64354 0.02952 0.0
N773 N 0.90634 0.6505 0.8929 0.0
C774 C 0.96363 0.64688 0.99433 0.0
C775 C 0.92873 0.65206 0.92354 0.0
N776 N 0.9473 0.71521 0.9998 0.0
N777 N 0.96524 0.59845 0.90684 0.0
H778 H 0.88752 0.67236 0.88466 0.0
H779 H 0.90359 0.62555 0.87819 0.0
H780 H 0.98693 0.57931 0.9107 0.0
H781 H 0.95766 0.60348 0.87892 0.0
H782 H 0.96384 0.71766 0.02333 0.0
H783 H 0.93435 0.74135 0.9907 0.0
H784 H 0.97144 0.66199 0.04984 0.0
H785 H 0.99683 0.62186 0.0387 0.0
C786 C 0.41587 0.86793 0.0952 0.0
C787 C 0.42977 0.83089 0.08763 0.0
C788 C 0.47865 0.86504 0.04821 0.0
C789 C 0.46378 0.90196 0.05486 0.0
N790 N 0.41223 0.93762 0.07572 0.0
N791 N 0.47113 0.79345 0.05319 0.0
C792 C 0.43071 0.90314 0.0759 0.0
C793 C 0.46038 0.82925 0.06312 0.0
N794 N 0.38897 0.86959 0.12154 0.0
N795 N 0.51024 0.86431 0.02754 0.0
H796 H 0.45866 0.76684 0.06386 0.0
H797 H 0.49065 0.78995 0.0327 0.0
H798 H 0.52214 0.88966 0.01363 0.0
H799 H 0.5254 0.83911 0.02513 0.0
H800 H 0.38073 0.89584 0.13135 0.0
H801 H 0.37702 0.8445 0.13594 0.0
H802 H 0.3861 0.93975 0.08749 0.0
H803 H 0.42119 0.96333 0.06019 0.0
C804 C 0.04121 0.16197 0.59466 0.0
C805 C 0.03507 0.19517 0.56892 0.0
C806 C 0.0158 0.15145 0.52142 0.0
C807 C 0.02005 0.11847 0.54787 0.0
N808 N 0.02598 0.09323 0.6122 0.0
N809 N 1.00764 0.22198 0.51131 0.0
C810 C 0.02927 0.12405 0.58535 0.0
C811 C 0.01939 0.19003 0.5334 0.0
N812 N 0.06038 0.16612 0.62702 0.0
N813 N 1.01065 0.14618 0.48458 0.0
H814 H 1.00947 0.2506 0.51954 0.0
H815 H 0.99282 0.21963 0.48664 0.0
H816 H 1.00867 0.11851 0.47436 0.0
H817 H 1.01158 0.16934 0.46368 0.0
H818 H 0.06904 0.1422 0.64464 0.0
H819 H 0.07077 0.19315 0.63465 0.0
H820 H 0.02904 0.09655 0.64052 0.0
H821 H 0.0162 0.06523 0.60653 0.0
C822 C 0.51893 0.32066 0.50465 0.0
C823 C 0.53094 0.31153 0.46915 0.0
C824 C 0.52763 0.38113 0.44601 0.0
C825 C 0.52128 0.39082 0.48282 0.0
N826 N 0.516 0.37024 0.54852 0.0
N827 N 0.55158 0.33355 0.40697 0.0
C828 C 0.51792 0.36071 0.51254 0.0
C829 C 0.53639 0.34185 0.43992 0.0
N830 N 0.50807 0.291 0.53065 0.0
N831 N 0.52434 0.40924 0.41676 0.0
H832 H 0.55867 0.30521 0.40135 0.0
H833 H 0.56005 0.35525 0.38637 0.0
H834 H 0.51709 0.43816 0.42012 0.0
H835 H 0.52506 0.40294 0.38904 0.0
H836 H 0.49556 0.29601 0.5557 0.0
H837 H 0.50827 0.26129 0.52563 0.0
H838 H 0.51781 0.34951 0.57143 0.0
H839 H 0.51604 0.39917 0.55579 0.0
loop_
_geom_bond_atom_site_label_1
_geom_bond_atom_site_label_2
_geom_bond_distance
_geom_bond_site_symmetry_2
_ccdc_geom_bond_type
C0 C1 1.384 . S
C0 H13 0.947 . S
C0 C35 1.382 . S
C1 C0 1.384 . S
C1 C2 1.378 . S
C2 C1 1.378 . S
C2 C3 1.378 . S
C2 H14 0.952 . S
C3 C2 1.378 . S
C3 H15 0.950 . S
C3 C34 1.383 . S
H4 C23 0.947 . S
H5 C24 0.946 . S
H6 C26 0.953 . S
H7 C27 0.945 . S
H8 C29 0.952 . S
H9 C30 0.949 . S
H10 C32 0.950 . S
H11 C33 0.948 . S
H12 C35 0.951 . S
H13 C0 0.947 . S
H14 C2 0.952 . S
H15 C3 0.950 . S
N16 C19 1.382 . S
N16 C21 1.363 . S
N17 C19 1.371 . S
N17 C20 1.372 . S
N18 C20 1.361 . S
N18 C21 1.377 . S
C19 N16 1.382 . S
C19 N17 1.371 . S
C19 C22 1.480 . S
C20 N17 1.372 . S
C20 N18 1.361 . S
C20 C28 1.457 . S
C21 N16 1.363 . S
C21 N18 1.377 . S
C21 C34 1.479 . S
C22 C19 1.480 . S
C22 C23 1.383 . S
C22 C27 1.385 . S
C23 H4 0.947 . S
C23 C22 1.383 . S
C23 C24 1.388 . S
C24 H5 0.946 . S
C24 C23 1.388 . S
C24 C25 1.384 . S
C25 C24 1.384 . S
C25 C26 1.377 . S
C26 H6 0.953 . S
C26 C25 1.377 . S
C26 C27 1.369 . S
C27 H7 0.945 . S
C27 C22 1.385 . S
C27 C26 1.369 . S
C28 C20 1.457 . S
C28 C29 1.372 . S
C28 C33 1.364 . S
C29 H8 0.952 . S
C29 C28 1.372 . S
C29 C30 1.389 . S
C30 H9 0.949 . S
C30 C29 1.389 . S
C30 C31 1.387 . S
C31 C30 1.387 . S
C31 C32 1.372 . S
C32 H10 0.950 . S
C32 C31 1.372 . S
C32 C33 1.379 . S
C33 H11 0.948 . S
C33 C28 1.364 . S
C33 C32 1.379 . S
C34 C3 1.383 . S
C34 C21 1.479 . S
C34 C35 1.398 . S
C35 C0 1.382 . S
C35 H12 0.951 . S
C35 C34 1.398 . S
C36 C37 1.384 . S
C36 H49 0.947 . S
C36 C71 1.382 . S
C37 C36 1.384 . S
C37 C38 1.378 . S
C38 C37 1.378 . S
C38 C39 1.378 . S
C38 H50 0.952 . S
C39 C38 1.378 . S
C39 H51 0.950 . S
C39 C70 1.383 . S
H40 C59 0.947 . S
H41 C60 0.946 . S
H42 C62 0.953 . S
H43 C63 0.945 . S
H44 C65 0.952 . S
H45 C66 0.949 . S
H46 C68 0.950 . S
H47 C69 0.948 . S
H48 C71 0.951 . S
H49 C36 0.947 . S
H50 C38 0.952 . S
H51 C39 0.950 . S
N52 C55 1.382 . S
N52 C57 1.363 . S
N53 C55 1.371 . S
N53 C56 1.372 . S
N54 C56 1.361 . S
N54 C57 1.377 . S
C55 N52 1.382 . S
C55 N53 1.371 . S
C55 C58 1.480 . S
C56 N53 1.372 . S
C56 N54 1.361 . S
C56 C64 1.457 . S
C57 N52 1.363 . S
C57 N54 1.377 . S
C57 C70 1.479 . S
C58 C55 1.480 . S
C58 C59 1.383 . S
C58 C63 1.385 . S
C59 H40 0.947 . S
C59 C58 1.383 . S
C59 C60 1.388 . S
C60 H41 0.946 . S
C60 C59 1.388 . S
C60 C61 1.384 . S
C61 C60 1.384 . S
C61 C62 1.377 . S
C62 H42 0.953 . S
C62 C61 1.377 . S
C62 C63 1.369 . S
C63 H43 0.945 . S
C63 C58 1.385 . S
C63 C62 1.369 . S
C64 C56 1.457 . S
C64 C65 1.372 . S
C64 C69 1.364 . S
C65 H44 0.952 . S
C65 C64 1.372 . S
C65 C66 1.389 . S
C66 H45 0.949 . S
C66 C65 1.389 . S
C66 C67 1.387 . S
C67 C66 1.387 . S
C67 C68 1.372 . S
C68 H46 0.950 . S
C68 C67 1.372 . S
C68 C69 1.379 . S
C69 H47 0.948 . S
C69 C64 1.364 . S
C69 C68 1.379 . S
C70 C39 1.383 . S
C70 C57 1.479 . S
C70 C71 1.398 . S
C71 C36 1.382 . S
C71 H48 0.951 . S
C71 C70 1.398 . S
C72 C73 1.384 . S
C72 H85 0.947 . S
C72 C107 1.382 . S
C73 C72 1.384 . S
C73 C74 1.378 . S
C74 C73 1.378 . S
C74 C75 1.378 . S
C74 H86 0.952 . S
C75 C74 1.378 . S
C75 H87 0.950 . S
C75 C106 1.383 . S
H76 C95 0.947 . S
H77 C96 0.946 . S
H78 C98 0.953 . S
H79 C99 0.945 . S
H80 C101 0.952 . S
H81 C102 0.949 . S
H82 C104 0.950 . S
H83 C105 0.948 . S
H84 C107 0.951 . S
H85 C72 0.947 . S
H86 C74 0.952 . S
H87 C75 0.950 . S
N88 C91 1.382 . S
N88 C93 1.363 . S
N89 C91 1.371 . S
N89 C92 1.372 . S
N90 C92 1.361 . S
N90 C93 1.377 . S
C91 N88 1.382 . S
C91 N89 1.371 . S
C91 C94 1.480 . S
C92 N89 1.372 . S
C92 N90 1.361 . S
C92 C100 1.457 . S
C93 N88 1.363 . S
C93 N90 1.377 . S
C93 C106 1.479 . S
C94 C91 1.480 . S
C94 C95 1.383 . S
C94 C99 1.385 . S
C95 H76 0.947 . S
C95 C94 1.383 . S
C95 C96 1.388 . S
C96 H77 0.946 . S
C96 C95 1.388 . S
C96 C97 1.384 . S
C97 C96 1.384 . S
C97 C98 1.377 . S
C98 H78 0.953 . S
C98 C97 1.377 . S
C98 C99 1.369 . S
C99 H79 0.945 . S
C99 C94 1.385 . S
C99 C98 1.369 . S
C100 C92 1.457 . S
C100 C101 1.372 . S
C100 C105 1.364 . S
C101 H80 0.952 . S
C101 C100 1.372 . S
C101 C102 1.389 . S
C102 H81 0.949 . S
C102 C101 1.389 . S
C102 C103 1.387 . S
C103 C102 1.387 . S
C103 C104 1.372 . S
C104 H82 0.950 . S
C104 C103 1.372 . S
C104 C105 1.379 . S
C105 H83 0.948 . S
C105 C100 1.364 . S
C105 C104 1.379 . S
C106 C75 1.383 . S
C106 C93 1.479 . S
C106 C107 1.398 . S
C107 C72 1.382 . S
C107 H84 0.951 . S
C107 C106 1.398 . S
C108 C109 1.384 . S
C108 H121 0.947 . S
C108 C143 1.382 . S
C109 C108 1.384 . S
C109 C110 1.378 . S
C110 C109 1.378 . S
C110 C111 1.378 . S
C110 H122 0.952 . S
C111 C110 1.378 . S
C111 H123 0.950 . S
C111 C142 1.383 . S
H112 C131 0.947 . S
H113 C132 0.946 . S
H114 C134 0.953 1_455 S
H115 C135 0.945 . S
H116 C137 0.952 . S
H117 C138 0.949 1_455 S
H118 C140 0.950 . S
H119 C141 0.948 . S
H120 C143 0.951 . S
H121 C108 0.947 . S
H122 C110 0.952 . S
H123 C111 0.950 . S
N124 C127 1.382 . S
N124 C129 1.363 . S
N125 C127 1.371 . S
N125 C128 1.372 . S
N126 C128 1.361 . S
N126 C129 1.377 . S
C127 N124 1.382 . S
C127 N125 1.371 . S
C127 C130 1.480 . S
C128 N125 1.372 . S
C128 N126 1.361 . S
C128 C136 1.457 . S
C129 N124 1.363 . S
C129 N126 1.377 . S
C129 C142 1.479 . S
C130 C127 1.480 . S
C130 C131 1.383 . S
C130 C135 1.385 . S
C131 H112 0.947 . S
C131 C130 1.383 . S
C131 C132 1.388 . S
C132 H113 0.946 . S
C132 C131 1.388 . S
C132 C133 1.384 . S
C133 C132 1.384 . S
C133 C134 1.377 . S
C134 H114 0.953 1_655 S
C134 C133 1.377 . S
C134 C135 1.369 . S
C135 H115 0.945 . S
C135 C130 1.385 . S
C135 C134 1.369 . S
C136 C128 1.457 . S
C136 C137 1.372 . S
C136 C141 1.364 . S
C137 H116 0.952 . S
C137 C136 1.372 . S
C137 C138 1.389 . S
C138 H117 0.949 1_655 S
C138 C137 1.389 . S
C138 C139 1.387 . S
C139 C138 1.387 . S
C139 C140 1.372 . S
C140 H118 0.950 . S
C140 C139 1.372 . S
C140 C141 1.379 . S
C141 H119 0.948 . S
C141 C136 1.364 . S
C141 C140 1.379 . S
C142 C111 1.383 . S
C142 C129 1.479 . S
C142 C143 1.398 . S
C143 C108 1.382 . S
C143 H120 0.951 . S
C143 C142 1.398 . S
C144 C145 1.384 . S
C144 H157 0.947 . S
C144 C179 1.382 . S
C145 C144 1.384 . S
C145 C146 1.378 . S
C146 C145 1.378 . S
C146 C147 1.378 . S
C146 H158 0.952 . S
C147 C146 1.378 . S
C147 H159 0.950 . S
C147 C178 1.383 . S
H148 C167 0.947 . S
H149 C168 0.946 . S
H150 C170 0.953 . S
H151 C171 0.945 . S
H152 C173 0.952 . S
H153 C174 0.949 . S
H154 C176 0.950 . S
H155 C177 0.948 . S
H156 C179 0.951 . S
H157 C144 0.947 . S
H158 C146 0.952 . S
H159 C147 0.950 . S
N160 C163 1.382 . S
N160 C165 1.363 . S
N161 C163 1.371 . S
N161 C164 1.372 . S
N162 C164 1.361 . S
N162 C165 1.377 . S
C163 N160 1.382 . S
C163 N161 1.371 . S
C163 C166 1.480 . S
C164 N161 1.372 . S
C164 N162 1.361 . S
C164 C172 1.457 . S
C165 N160 1.363 . S
C165 N162 1.377 . S
C165 C178 1.479 . S
C166 C163 1.480 . S
C166 C167 1.383 . S
C166 C171 1.385 . S
C167 H148 0.947 . S
C167 C166 1.383 . S
C167 C168 1.388 . S
C168 H149 0.946 . S
C168 C167 1.388 . S
C168 C169 1.384 . S
C169 C168 1.384 . S
C169 C170 1.377 . S
C170 H150 0.953 . S
C170 C169 1.377 . S
C170 C171 1.369 . S
C171 H151 0.945 . S
C171 C166 1.385 . S
C171 C170 1.369 . S
C172 C164 1.457 . S
C172 C173 1.372 . S
C172 C177 1.364 . S
C173 H152 0.952 . S
C173 C172 1.372 . S
C173 C174 1.389 . S
C174 H153 0.949 . S
C174 C173 1.389 . S
C174 C175 1.387 . S
C175 C174 1.387 . S
C175 C176 1.372 . S
C176 H154 0.950 . S
C176 C175 1.372 . S
C176 C177 1.379 . S
C177 H155 0.948 . S
C177 C172 1.364 . S
C177 C176 1.379 . S
C178 C147 1.383 . S
C178 C165 1.479 . S
C178 C179 1.398 . S
C179 C144 1.382 . S
C179 H156 0.951 . S
C179 C178 1.398 . S
C180 C181 1.384 . S
C180 H193 0.947 . S
C180 C215 1.382 . S
C181 C180 1.384 . S
C181 C182 1.378 . S
C182 C181 1.378 . S
C182 C183 1.378 . S
C182 H194 0.952 . S
C183 C182 1.378 . S
C183 H195 0.950 . S
C183 C214 1.383 . S
H184 C203 0.947 . S
H185 C204 0.946 . S
H186 C206 0.953 . S
H187 C207 0.945 . S
H188 C209 0.952 . S
H189 C210 0.949 . S
H190 C212 0.950 . S
H191 C213 0.948 . S
H192 C215 0.951 . S
H193 C180 0.947 . S
H194 C182 0.952 . S
H195 C183 0.950 . S
N196 C199 1.382 . S
N196 C201 1.363 . S
N197 C199 1.371 . S
N197 C200 1.372 . S
N198 C200 1.361 . S
N198 C201 1.377 . S
C199 N196 1.382 . S
C199 N197 1.371 . S
C199 C202 1.480 . S
C200 N197 1.372 . S
C200 N198 1.361 . S
C200 C208 1.457 . S
C201 N196 1.363 . S
C201 N198 1.377 . S
C201 C214 1.479 . S
C202 C199 1.480 . S
C202 C203 1.383 . S
C202 C207 1.385 . S
C203 H184 0.947 . S
C203 C202 1.383 . S
C203 C204 1.388 . S
C204 H185 0.946 . S
C204 C203 1.388 . S
C204 C205 1.384 . S
C205 C204 1.384 . S
C205 C206 1.377 . S
C206 H186 0.953 . S
C206 C205 1.377 . S
C206 C207 1.369 . S
C207 H187 0.945 . S
C207 C202 1.385 . S
C207 C206 1.369 . S
C208 C200 1.457 . S
C208 C209 1.372 . S
C208 C213 1.364 . S
C209 H188 0.952 . S
C209 C208 1.372 . S
C209 C210 1.389 . S
C210 H189 0.949 . S
C210 C209 1.389 . S
C210 C211 1.387 . S
C211 C210 1.387 . S
C211 C212 1.372 . S
C212 H190 0.950 . S
C212 C211 1.372 . S
C212 C213 1.379 . S
C213 H191 0.948 . S
C213 C208 1.364 . S
C213 C212 1.379 . S
C214 C183 1.383 . S
C214 C201 1.479 . S
C214 C215 1.398 . S
C215 C180 1.382 . S
C215 H192 0.951 . S
C215 C214 1.398 . S
C216 C217 1.384 . S
C216 H229 0.947 . S
C216 C251 1.382 . S
C217 C216 1.384 . S
C217 C218 1.378 . S
C218 C217 1.378 . S
C218 C219 1.378 . S
C218 H230 0.952 . S
C219 C218 1.378 . S
C219 H231 0.950 . S
C219 C250 1.383 . S
H220 C239 0.947 . S
H221 C240 0.946 . S
H222 C242 0.953 . S
H223 C243 0.945 . S
H224 C245 0.952 . S
H225 C246 0.949 . S
H226 C248 0.950 . S
H227 C249 0.948 . S
H228 C251 0.951 . S
H229 C216 0.947 . S
H230 C218 0.952 . S
H231 C219 0.950 . S
N232 C235 1.382 . S
N232 C237 1.363 . S
N233 C235 1.371 . S
N233 C236 1.372 . S
N234 C236 1.361 . S
N234 C237 1.377 . S
C235 N232 1.382 . S
C235 N233 1.371 . S
C235 C238 1.480 . S
C236 N233 1.372 . S
C236 N234 1.361 . S
C236 C244 1.457 . S
C237 N232 1.363 . S
C237 N234 1.377 . S
C237 C250 1.479 . S
C238 C235 1.480 . S
C238 C239 1.383 . S
C238 C243 1.385 . S
C239 H220 0.947 . S
C239 C238 1.383 . S
C239 C240 1.388 . S
C240 H221 0.946 . S
C240 C239 1.388 . S
C240 C241 1.384 . S
C241 C240 1.384 . S
C241 C242 1.377 . S
C242 H222 0.953 . S
C242 C241 1.377 . S
C242 C243 1.369 . S
C243 H223 0.945 . S
C243 C238 1.385 . S
C243 C242 1.369 . S
C244 C236 1.457 . S
C244 C245 1.372 . S
C244 C249 1.364 . S
C245 H224 0.952 . S
C245 C244 1.372 . S
C245 C246 1.389 . S
C246 H225 0.949 . S
C246 C245 1.389 . S
C246 C247 1.387 . S
C247 C246 1.387 . S
C247 C248 1.372 . S
C248 H226 0.950 . S
C248 C247 1.372 . S
C248 C249 1.379 . S
C249 H227 0.948 . S
C249 C244 1.364 . S
C249 C248 1.379 . S
C250 C219 1.383 . S
C250 C237 1.479 . S
C250 C251 1.398 . S
C251 C216 1.382 . S
C251 H228 0.951 . S
C251 C250 1.398 . S
C252 C253 1.384 . S
C252 H265 0.947 . S
C252 C287 1.382 . S
C253 C252 1.384 . S
C253 C254 1.378 . S
C254 C253 1.378 . S
C254 C255 1.378 . S
C254 H266 0.952 1_455 S
C255 C254 1.378 . S
C255 H267 0.950 . S
C255 C286 1.383 . S
H256 C275 0.947 . S
H257 C276 0.946 . S
H258 C278 0.953 . S
H259 C279 0.945 . S
H260 C281 0.952 . S
H261 C282 0.949 . S
H262 C284 0.950 . S
H263 C285 0.948 . S
H264 C287 0.951 . S
H265 C252 0.947 . S
H266 C254 0.952 1_655 S
H267 C255 0.950 . S
N268 C271 1.382 . S
N268 C273 1.363 . S
N269 C271 1.371 . S
N269 C272 1.372 . S
N270 C272 1.361 . S
N270 C273 1.377 . S
C271 N268 1.382 . S
C271 N269 1.371 . S
C271 C274 1.480 . S
C272 N269 1.372 . S
C272 N270 1.361 . S
C272 C280 1.457 . S
C273 N268 1.363 . S
C273 N270 1.377 . S
C273 C286 1.479 . S
C274 C271 1.480 . S
C274 C275 1.383 . S
C274 C279 1.385 . S
C275 H256 0.947 . S
C275 C274 1.383 . S
C275 C276 1.388 . S
C276 H257 0.946 . S
C276 C275 1.388 . S
C276 C277 1.384 . S
C277 C276 1.384 . S
C277 C278 1.377 . S
C278 H258 0.953 . S
C278 C277 1.377 . S
C278 C279 1.369 . S
C279 H259 0.945 . S
C279 C274 1.385 . S
C279 C278 1.369 . S
C280 C272 1.457 . S
C280 C281 1.372 . S
C280 C285 1.364 . S
C281 H260 0.952 . S
C281 C280 1.372 . S
C281 C282 1.389 . S
C282 H261 0.949 . S
C282 C281 1.389 . S
C282 C283 1.387 . S
C283 C282 1.387 . S
C283 C284 1.372 . S
C284 H262 0.950 . S
C284 C283 1.372 . S
C284 C285 1.379 . S
C285 H263 0.948 . S
C285 C280 1.364 . S
C285 C284 1.379 . S
C286 C255 1.383 . S
C286 C273 1.479 . S
C286 C287 1.398 . S
C287 C252 1.382 . S
C287 H264 0.951 . S
C287 C286 1.398 . S
Co288 N293 2.057 . S
Co288 O305 2.021 . S
Co288 O308 2.062 . S
Co288 O312 2.117 1_545 S
Co288 O313 2.020 1_545 S
C289 O309 1.259 1_655 S
C289 O312 1.258 . S
Co290 N299 2.057 . S
Co290 O306 2.117 1_565 S
Co290 O307 2.020 1_565 S
Co290 O309 2.021 . S
Co290 O314 2.062 . S
C291 N293 1.316 . S
C291 N294 1.347 . S
C291 H296 0.931 . S
C292 N293 1.375 1_565 S
C292 C295 1.350 1_565 S
C292 H297 0.930 . S
N293 Co288 2.057 . S
N293 C291 1.316 . S
N293 C292 1.375 1_545 S
N294 C291 1.347 . S
N294 C295 1.373 . S
C295 C292 1.350 1_545 S
C295 N294 1.373 . S
C295 H316 0.931 1_545 S
H296 C291 0.931 . S
H297 C292 0.930 . S
C298 O305 1.259 1_455 S
C298 O306 1.258 . S
N299 Co290 2.057 . S
N299 C300 1.316 . S
N299 C301 1.375 1_565 S
C300 N299 1.316 . S
C300 N302 1.347 . S
C300 H311 0.931 . S
C301 N299 1.375 1_545 S
C301 C303 1.350 1_545 S
C301 H310 0.930 . S
N302 C300 1.347 . S
N302 C303 1.373 . S
C303 C301 1.350 1_565 S
C303 N302 1.373 . S
C303 H317 0.931 1_565 S
C304 O307 1.256 . S
C304 O308 1.255 1_455 S
O305 Co288 2.021 . S
O305 C298 1.259 1_655 S
O306 Co290 2.117 1_545 S
O306 C298 1.258 . S
O307 Co290 2.020 1_545 S
O307 C304 1.256 . S
O308 Co288 2.062 . S
O308 C304 1.255 1_655 S
O309 C289 1.259 1_455 S
O309 Co290 2.021 . S
H310 C301 0.930 . S
H311 C300 0.931 . S
O312 Co288 2.117 1_565 S
O312 C289 1.258 . S
O313 Co288 2.020 1_565 S
O313 C315 1.256 . S
O314 Co290 2.062 . S
O314 C315 1.255 1_455 S
C315 O313 1.256 . S
C315 O314 1.255 1_655 S
H316 C295 0.931 1_565 S
H317 C303 0.931 1_545 S
Co318 N323 2.057 . S
Co318 O335 2.021 1_565 S
Co318 O338 2.062 . S
Co318 O342 2.111 1_556 S
Co318 O343 2.020 1_565 S
C319 O339 1.259 . S
C319 O342 1.268 . S
Co320 N329 2.057 . S
Co320 O336 2.117 . S
Co320 O337 2.020 1_545 S
Co320 O339 2.021 1_545 S
Co320 O344 2.062 . S
C321 N323 1.316 . S
C321 N324 1.347 . S
C321 H326 0.931 1_565 S
C322 N323 1.375 . S
C322 C325 1.350 . S
C322 H327 0.930 . S
N323 Co318 2.057 . S
N323 C321 1.316 . S
N323 C322 1.375 . S
N324 C321 1.347 . S
N324 C325 1.373 . S
C325 C322 1.350 . S
C325 N324 1.373 . S
C325 H346 0.931 . S
H326 C321 0.931 1_545 S
H327 C322 0.930 . S
C328 O335 1.259 . S
C328 O336 1.258 1_556 S
N329 Co320 2.057 . S
N329 C330 1.316 . S
N329 C331 1.375 . S
C330 N329 1.316 . S
C330 N332 1.347 . S
C330 H341 0.931 1_545 S
C331 N329 1.375 . S
C331 C333 1.350 . S
C331 H340 0.930 . S
N332 C330 1.347 . S
N332 C333 1.373 . S
C333 C331 1.350 . S
C333 N332 1.373 . S
C333 H347 0.931 . S
C334 O337 1.256 1_556 S
C334 O338 1.255 . S
O335 Co318 2.021 1_545 S
O335 C328 1.259 . S
O336 Co320 2.117 . S
O336 C328 1.258 1_554 S
O337 Co320 2.020 1_565 S
O337 C334 1.256 1_554 S
O338 Co318 2.062 . S
O338 C334 1.255 . S
O339 C319 1.259 . S
O339 Co320 2.021 1_565 S
H340 C331 0.930 . S
H341 C330 0.931 1_565 S
O342 Co318 2.111 1_554 S
O342 C319 1.268 . S
O343 Co318 2.020 1_545 S
O343 C345 1.256 1_556 S
O344 Co320 2.062 . S
O344 C345 1.255 . S
C345 O343 1.256 1_554 S
C345 O344 1.255 . S
H346 C325 0.931 . S
H347 C333 0.931 . S
Co348 N353 2.057 . S
Co348 O365 2.021 . S
Co348 O368 2.062 . S
Co348 O372 2.117 . S
Co348 O373 2.020 . S
C349 O369 1.259 . S
C349 O372 1.258 . S
Co350 N359 2.057 . S
Co350 O366 2.117 . S
Co350 O367 2.020 . S
Co350 O369 2.021 . S
Co350 O374 2.062 . S
C351 N353 1.316 . S
C351 N354 1.347 . S
C351 H356 0.931 . S
C352 N353 1.375 . S
C352 C355 1.350 . S
C352 H357 0.930 . S
N353 Co348 2.057 . S
N353 C351 1.316 . S
N353 C352 1.375 . S
N354 C351 1.347 . S
N354 C355 1.373 . S
C355 C352 1.350 . S
C355 N354 1.373 . S
C355 H376 0.931 . S
H356 C351 0.931 . S
H357 C352 0.930 . S
C358 O365 1.259 . S
C358 O366 1.258 . S
N359 Co350 2.057 . S
N359 C360 1.316 . S
N359 C361 1.375 . S
C360 N359 1.316 . S
C360 N362 1.347 . S
C360 H371 0.931 . S
C361 N359 1.375 . S
C361 C363 1.350 . S
C361 H370 0.930 . S
N362 C360 1.347 . S
N362 C363 1.373 . S
C363 C361 1.350 . S
C363 N362 1.373 . S
C363 H377 0.931 . S
C364 O367 1.256 . S
C364 O368 1.255 . S
O365 Co348 2.021 . S
O365 C358 1.259 . S
O366 Co350 2.117 . S
O366 C358 1.258 . S
O367 Co350 2.020 . S
O367 C364 1.256 . S
O368 Co348 2.062 . S
O368 C364 1.255 . S
O369 C349 1.259 . S
O369 Co350 2.021 . S
H370 C361 0.930 . S
H371 C360 0.931 . S
O372 Co348 2.117 . S
O372 C349 1.258 . S
O373 Co348 2.020 . S
O373 C375 1.256 . S
O374 Co350 2.062 . S
O374 C375 1.255 . S
C375 O373 1.256 . S
C375 O374 1.255 . S
H376 C355 0.931 . S
H377 C363 0.931 . S
Co378 N383 2.057 . S
Co378 O395 2.021 . S
Co378 O398 2.062 . S
Co378 O402 2.117 1_455 S
Co378 O403 2.020 1_455 S
C379 O399 1.259 1_556 S
C379 O402 1.258 . S
Co380 N389 2.057 . S
Co380 O396 2.117 1_655 S
Co380 O397 2.020 1_655 S
Co380 O399 2.021 . S
Co380 O404 2.062 . S
C381 N383 1.316 . S
C381 N384 1.347 . S
C381 H386 0.931 . S
C382 N383 1.375 1_655 S
C382 C385 1.350 1_655 S
C382 H387 0.930 . S
N383 Co378 2.057 . S
N383 C381 1.316 . S
N383 C382 1.375 1_455 S
N384 C381 1.347 . S
N384 C385 1.373 . S
C385 C382 1.350 1_455 S
C385 N384 1.373 . S
C385 H406 0.931 1_455 S
H386 C381 0.931 . S
H387 C382 0.930 . S
C388 O395 1.259 1_554 S
C388 O396 1.258 . S
N389 Co380 2.057 . S
N389 C390 1.316 . S
N389 C391 1.375 1_655 S
C390 N389 1.316 . S
C390 N392 1.347 . S
C390 H401 0.931 . S
C391 N389 1.375 1_455 S
C391 C393 1.350 1_455 S
C391 H400 0.930 . S
N392 C390 1.347 . S
N392 C393 1.373 . S
C393 C391 1.350 1_655 S
C393 N392 1.373 . S
C393 H407 0.931 1_655 S
C394 O397 1.256 . S
C394 O398 1.255 1_554 S
O395 Co378 2.021 . S
O395 C388 1.259 1_556 S
O396 Co380 2.117 1_455 S
O396 C388 1.258 . S
O397 Co380 2.020 1_455 S
O397 C394 1.256 . S
O398 Co378 2.062 . S
O398 C394 1.255 1_556 S
O399 C379 1.259 1_554 S
O399 Co380 2.021 . S
H400 C391 0.930 . S
H401 C390 0.931 . S
O402 Co378 2.117 1_655 S
O402 C379 1.258 . S
O403 Co378 2.020 1_655 S
O403 C405 1.256 . S
O404 Co380 2.062 . S
O404 C405 1.255 1_554 S
C405 O403 1.256 . S
C405 O404 1.255 1_556 S
H406 C385 0.931 1_655 S
H407 C393 0.931 1_455 S
C408 C409 1.363 . S
C408 C414 1.379 . S
C408 N416 1.356 . S
C409 C408 1.363 . S
C409 C415 1.363 . S
C410 C411 1.363 . S
C410 C415 1.379 . S
C410 N417 1.360 1_545 S
C411 C410 1.363 . S
C411 C414 1.363 . S
N412 C414 1.356 . S
N412 H424 0.984 . S
N412 H425 0.985 . S
N413 C415 1.356 1_565 S
N413 H418 0.984 1_565 S
N413 H419 0.985 . S
C414 C408 1.379 . S
C414 C411 1.363 . S
C414 N412 1.356 . S
C415 C409 1.363 . S
C415 C410 1.379 . S
C415 N413 1.356 1_545 S
N416 C408 1.356 . S
N416 H422 0.984 . S
N416 H423 0.984 . S
N417 C410 1.360 1_565 S
N417 H420 0.984 1_455 S
N417 H421 0.982 1_455 S
H418 N413 0.984 1_545 S
H419 N413 0.985 . S
H420 N417 0.984 1_655 S
H421 N417 0.982 1_655 S
H422 N416 0.984 . S
H423 N416 0.984 . S
H424 N412 0.984 . S
H425 N412 0.985 . S
C426 C427 1.363 . S
C426 C432 1.379 . S
C426 N434 1.356 . S
C427 C426 1.363 . S
C427 C433 1.363 . S
C428 C429 1.363 . S
C428 C433 1.379 . S
C428 N435 1.356 . S
C429 C428 1.363 . S
C429 C432 1.363 . S
N430 C432 1.356 1_545 S
N430 H442 0.984 . S
N430 H443 0.985 . S
N431 C433 1.356 . S
N431 H436 0.984 . S
N431 H437 0.985 . S
C432 C426 1.379 . S
C432 C429 1.363 . S
C432 N430 1.356 1_565 S
C433 C427 1.363 . S
C433 C428 1.379 . S
C433 N431 1.356 . S
N434 C426 1.356 . S
N434 H440 1.011 . S
N434 H441 0.984 . S
N435 C428 1.356 . S
N435 H438 0.984 . S
N435 H439 0.985 . S
H436 N431 0.984 . S
H437 N431 0.985 . S
H438 N435 0.984 . S
H439 N435 0.985 . S
H440 N434 1.011 . S
H441 N434 0.984 . S
H442 N430 0.984 . S
H443 N430 0.985 . S
C444 C445 1.363 . S
C444 C450 1.379 . S
C444 N452 1.356 . S
C445 C444 1.363 . S
C445 C451 1.363 . S
C446 C447 1.363 . S
C446 C451 1.379 . S
C446 N453 1.356 . S
C447 C446 1.363 . S
C447 C450 1.363 . S
N448 C450 1.356 . S
N448 H460 0.984 . S
N448 H461 0.985 . S
N449 C451 1.356 . S
N449 H454 0.984 . S
N449 H455 0.985 . S
C450 C444 1.379 . S
C450 C447 1.363 . S
C450 N448 1.356 . S
C451 C445 1.363 . S
C451 C446 1.379 . S
C451 N449 1.356 . S
N452 C444 1.356 . S
N452 H458 0.984 . S
N452 H459 0.984 . S
N453 C446 1.356 . S
N453 H456 0.984 . S
N453 H457 0.985 . S
H454 N449 0.984 . S
H455 N449 0.985 . S
H456 N453 0.984 . S
H457 N453 0.985 . S
H458 N452 0.984 . S
H459 N452 0.984 . S
H460 N448 0.984 . S
H461 N448 0.985 . S
C462 C463 1.363 . S
C462 C468 1.379 . S
C462 N470 1.356 1_655 S
C463 C462 1.363 . S
C463 C469 1.363 . S
C464 C465 1.363 . S
C464 C469 1.379 . S
C464 N471 1.356 . S
C465 C464 1.363 . S
C465 C468 1.363 . S
N466 C468 1.356 . S
N466 H478 0.984 . S
N466 H479 0.985 . S
N467 C469 1.356 . S
N467 H472 0.984 . S
N467 H473 0.985 . S
C468 C462 1.379 . S
C468 C465 1.363 . S
C468 N466 1.356 . S
C469 C463 1.363 . S
C469 C464 1.379 . S
C469 N467 1.356 . S
N470 C462 1.356 1_455 S
N470 H476 0.984 . S
N470 H477 0.984 . S
N471 C464 1.356 . S
N471 H474 0.984 . S
N471 H475 0.985 . S
H472 N467 0.984 . S
H473 N467 0.985 . S
H474 N471 0.984 . S
H475 N471 0.985 . S
H476 N470 0.984 . S
H477 N470 0.984 . S
H478 N466 0.984 . S
H479 N466 0.985 . S
C480 C481 1.363 . S
C480 C486 1.379 . S
C480 N488 1.356 1_554 S
C481 C480 1.363 . S
C481 C487 1.363 . S
C482 C483 1.363 . S
C482 C487 1.379 . S
C482 N489 1.356 . S
C483 C482 1.363 . S
C483 C486 1.363 . S
N484 C486 1.356 1_556 S
N484 H496 0.984 . S
N484 H497 0.985 . S
N485 C487 1.356 . S
N485 H490 0.984 . S
N485 H491 0.985 . S
C486 C480 1.379 . S
C486 C483 1.363 . S
C486 N484 1.356 1_554 S
C487 C481 1.363 . S
C487 C482 1.379 . S
C487 N485 1.356 . S
N488 C480 1.356 1_556 S
N488 H494 0.984 . S
N488 H495 0.984 1_556 S
N489 C482 1.356 . S
N489 H492 0.984 . S
N489 H493 0.985 . S
H490 N485 0.984 . S
H491 N485 0.985 . S
H492 N489 0.984 . S
H493 N489 0.985 . S
H494 N488 0.984 . S
H495 N488 0.984 1_554 S
H496 N484 0.984 . S
H497 N484 0.985 . S
C498 C499 1.363 . S
C498 C504 1.379 . S
C498 N506 1.356 . S
C499 C498 1.363 . S
C499 C505 1.363 . S
C500 C501 1.363 . S
C500 C505 1.379 . S
C500 N507 1.356 . S
C501 C500 1.363 . S
C501 C504 1.363 . S
N502 C504 1.356 . S
N502 H514 0.984 1_565 S
N502 H515 0.985 . S
N503 C505 1.356 . S
N503 H508 0.984 . S
N503 H509 0.985 . S
C504 C498 1.379 . S
C504 C501 1.363 . S
C504 N502 1.356 . S
C505 C499 1.363 . S
C505 C500 1.379 . S
C505 N503 1.356 . S
N506 C498 1.356 . S
N506 H512 0.984 1_565 S
N506 H513 0.984 . S
N507 C500 1.356 . S
N507 H510 0.984 . S
N507 H511 0.985 . S
H508 N503 0.984 . S
H509 N503 0.985 . S
H510 N507 0.984 . S
H511 N507 0.985 . S
H512 N506 0.984 1_545 S
H513 N506 0.984 . S
H514 N502 0.984 1_545 S
H515 N502 0.985 . S
C516 C517 1.363 . S
C516 C522 1.379 . S
C516 N524 1.356 . S
C517 C516 1.363 . S
C517 C523 1.363 . S
C518 C519 1.363 . S
C518 C523 1.379 . S
C518 N525 1.356 1_556 S
C519 C518 1.363 . S
C519 C522 1.363 . S
N520 C522 1.356 . S
N520 H532 0.984 . S
N520 H533 0.985 . S
N521 C523 1.356 . S
N521 H526 0.984 . S
N521 H527 0.985 1_556 S
C522 C516 1.379 . S
C522 C519 1.363 . S
C522 N520 1.356 . S
C523 C517 1.363 . S
C523 C518 1.379 . S
C523 N521 1.356 . S
N524 C516 1.356 . S
N524 H530 0.984 . S
N524 H531 0.984 . S
N525 C518 1.356 1_554 S
N525 H528 0.984 . S
N525 H529 0.985 . S
H526 N521 0.984 . S
H527 N521 0.985 1_554 S
H528 N525 0.984 . S
H529 N525 0.985 . S
H530 N524 0.984 . S
H531 N524 0.984 . S
H532 N520 0.984 . S
H533 N520 0.985 . S
C534 C535 1.363 . S
C534 C540 1.379 . S
C534 N542 1.356 . S
C535 C534 1.363 . S
C535 C541 1.363 . S
C536 C537 1.363 . S
C536 C541 1.379 . S
C536 N543 1.356 . S
C537 C536 1.363 . S
C537 C540 1.363 . S
N538 C540 1.356 . S
N538 H550 0.984 . S
N538 H551 0.985 . S
N539 C541 1.356 . S
N539 H544 0.984 . S
N539 H545 0.985 . S
C540 C534 1.379 . S
C540 C537 1.363 . S
C540 N538 1.356 . S
C541 C535 1.363 . S
C541 C536 1.379 . S
C541 N539 1.356 . S
N542 C534 1.356 . S
N542 H548 0.984 . S
N542 H549 0.984 . S
N543 C536 1.356 . S
N543 H546 0.984 . S
N543 H547 0.985 . S
H544 N539 0.984 . S
H545 N539 0.985 . S
H546 N543 0.984 . S
H547 N543 0.985 . S
H548 N542 0.984 . S
H549 N542 0.984 . S
H550 N538 0.984 . S
H551 N538 0.985 . S
C552 C553 1.363 . S
C552 C558 1.379 . S
C552 N560 1.356 . S
C553 C552 1.363 . S
C553 C559 1.363 . S
C554 C555 1.363 . S
C554 C559 1.379 . S
C554 N561 1.356 1_455 S
C555 C554 1.363 . S
C555 C558 1.363 . S
N556 C558 1.356 . S
N556 H568 0.984 1_554 S
N556 H569 0.985 . S
N557 C559 1.356 . S
N557 H562 0.984 . S
N557 H563 0.985 1_455 S
C558 C552 1.379 . S
C558 C555 1.363 . S
C558 N556 1.356 . S
C559 C553 1.363 . S
C559 C554 1.379 . S
C559 N557 1.356 . S
N560 C552 1.356 . S
N560 H566 0.984 . S
N560 H567 0.984 . S
N561 C554 1.356 1_655 S
N561 H564 0.984 . S
N561 H565 0.985 . S
H562 N557 0.984 . S
H563 N557 0.985 1_655 S
H564 N561 0.984 . S
H565 N561 0.985 . S
H566 N560 0.984 . S
H567 N560 0.984 . S
H568 N556 0.984 1_556 S
H569 N556 0.985 . S
C570 C571 1.363 . S
C570 C576 1.379 . S
C570 N578 1.356 . S
C571 C570 1.363 . S
C571 C577 1.363 . S
C572 C573 1.363 . S
C572 C577 1.379 . S
C572 N579 1.356 . S
C573 C572 1.363 . S
C573 C576 1.363 . S
N574 C576 1.356 1_554 S
N574 H586 0.984 . S
N574 H587 0.985 . S
N575 C577 1.356 . S
N575 H580 0.984 . S
N575 H581 0.985 . S
C576 C570 1.379 . S
C576 C573 1.363 . S
C576 N574 1.356 1_556 S
C577 C571 1.363 . S
C577 C572 1.379 . S
C577 N575 1.356 . S
N578 C570 1.356 . S
N578 H584 0.984 1_556 S
N578 H585 0.984 . S
N579 C572 1.356 . S
N579 H582 0.984 . S
N579 H583 0.985 . S
H580 N575 0.984 . S
H581 N575 0.985 . S
H582 N579 0.984 . S
H583 N579 0.985 . S
H584 N578 0.984 1_554 S
H585 N578 0.984 . S
H586 N574 0.984 . S
H587 N574 0.985 . S
C588 C589 1.363 . S
C588 C594 1.379 . S
C588 N596 1.356 . S
C589 C588 1.363 . S
C589 C595 1.363 . S
C590 C591 1.363 . S
C590 C595 1.379 . S
C590 N597 1.356 1_655 S
C591 C590 1.363 . S
C591 C594 1.363 . S
N592 C594 1.356 . S
N592 H604 0.984 . S
N592 H605 0.985 . S
N593 C595 1.356 1_455 S
N593 H598 0.984 . S
N593 H599 0.985 . S
C594 C588 1.379 . S
C594 C591 1.363 . S
C594 N592 1.356 . S
C595 C589 1.363 . S
C595 C590 1.379 . S
C595 N593 1.356 1_655 S
N596 C588 1.356 . S
N596 H602 0.984 . S
N596 H603 0.984 . S
N597 C590 1.356 1_455 S
N597 H600 0.984 . S
N597 H601 0.985 . S
H598 N593 0.984 . S
H599 N593 0.985 . S
H600 N597 0.984 . S
H601 N597 0.985 . S
H602 N596 0.984 . S
H603 N596 0.984 . S
H604 N592 0.984 . S
H605 N592 0.985 . S
C606 C607 1.363 . S
C606 C612 1.379 . S
C606 N614 1.356 . S
C607 C606 1.363 . S
C607 C613 1.363 . S
C608 C609 1.363 . S
C608 C613 1.379 . S
C608 N615 1.356 . S
C609 C608 1.363 . S
C609 C612 1.363 . S
N610 C612 1.356 . S
N610 H622 0.984 . S
N610 H623 0.985 . S
N611 C613 1.356 . S
N611 H616 0.984 . S
N611 H617 0.985 . S
C612 C606 1.379 . S
C612 C609 1.363 . S
C612 N610 1.356 . S
C613 C607 1.363 . S
C613 C608 1.379 . S
C613 N611 1.356 . S
N614 C606 1.356 . S
N614 H620 0.984 . S
N614 H621 0.984 . S
N615 C608 1.356 . S
N615 H618 0.984 . S
N615 H619 0.985 . S
H616 N611 0.984 . S
H617 N611 0.985 . S
H618 N615 0.984 . S
H619 N615 0.985 . S
H620 N614 0.984 . S
H621 N614 0.984 . S
H622 N610 0.984 . S
H623 N610 0.985 . S
C624 C625 1.363 . S
C624 C630 1.379 . S
C624 N632 1.356 1_565 S
C625 C624 1.363 . S
C625 C631 1.363 . S
C626 C627 1.363 . S
C626 C631 1.379 . S
C626 N633 1.356 1_655 S
C627 C626 1.363 . S
C627 C630 1.363 . S
N628 C630 1.356 1_545 S
N628 H640 0.984 . S
N628 H641 0.985 . S
N629 C631 1.356 . S
N629 H634 0.984 . S
N629 H635 0.985 . S
C630 C624 1.379 . S
C630 C627 1.363 . S
C630 N628 1.356 1_565 S
C631 C625 1.363 . S
C631 C626 1.379 . S
C631 N629 1.356 . S
N632 C624 1.356 1_545 S
N632 H638 0.984 . S
N632 H639 0.984 1_545 S
N633 C626 1.356 1_455 S
N633 H636 0.984 . S
N633 H637 0.985 . S
H634 N629 0.984 . S
H635 N629 0.985 . S
H636 N633 0.984 . S
H637 N633 0.985 . S
H638 N632 0.984 . S
H639 N632 0.984 1_565 S
H640 N628 0.984 . S
H641 N628 0.985 . S
C642 C643 1.363 . S
C642 C648 1.379 . S
C642 N650 1.356 . S
C643 C642 1.363 . S
C643 C649 1.363 . S
C644 C645 1.363 . S
C644 C649 1.379 . S
C644 N651 1.356 . S
C645 C644 1.363 . S
C645 C648 1.363 . S
N646 C648 1.356 . S
N646 H658 0.984 1_545 S
N646 H659 0.985 . S
N647 C649 1.356 . S
N647 H652 0.984 . S
N647 H653 0.985 . S
C648 C642 1.379 . S
C648 C645 1.363 . S
C648 N646 1.356 . S
C649 C643 1.363 . S
C649 C644 1.379 . S
C649 N647 1.356 . S
N650 C642 1.356 . S
N650 H656 0.984 . S
N650 H657 0.984 . S
N651 C644 1.356 . S
N651 H654 0.984 . S
N651 H655 0.985 . S
H652 N647 0.984 . S
H653 N647 0.985 . S
H654 N651 0.984 . S
H655 N651 0.985 . S
H656 N650 0.984 . S
H657 N650 0.984 . S
H658 N646 0.984 1_565 S
H659 N646 0.985 . S
C660 C661 1.363 . S
C660 C666 1.379 . S
C660 N668 1.356 . S
C661 C660 1.363 . S
C661 C667 1.363 . S
C662 C663 1.363 . S
C662 C667 1.379 . S
C662 N669 1.356 . S
C663 C662 1.363 . S
C663 C666 1.363 . S
N664 C666 1.356 . S
N664 H676 0.984 . S
N664 H677 0.985 . S
N665 C667 1.356 . S
N665 H670 0.984 . S
N665 H671 0.985 . S
C666 C660 1.379 . S
C666 C663 1.363 . S
C666 N664 1.356 . S
C667 C661 1.363 . S
C667 C662 1.379 . S
C667 N665 1.356 . S
N668 C660 1.356 . S
N668 H674 0.984 . S
N668 H675 0.984 . S
N669 C662 1.356 . S
N669 H672 0.984 . S
N669 H673 0.985 . S
H670 N665 0.984 . S
H671 N665 0.985 . S
H672 N669 0.984 . S
H673 N669 0.985 . S
H674 N668 0.984 . S
H675 N668 0.984 . S
H676 N664 0.984 . S
H677 N664 0.985 . S
C678 C679 1.363 . S
C678 C684 1.379 . S
C678 N686 1.356 . S
C679 C678 1.363 . S
C679 C685 1.363 . S
C680 C681 1.363 . S
C680 C685 1.379 . S
C680 N687 1.356 . S
C681 C680 1.363 . S
C681 C684 1.363 . S
N682 C684 1.356 . S
N682 H694 0.984 . S
N682 H695 0.985 . S
N683 C685 1.356 . S
N683 H688 0.984 . S
N683 H689 0.985 . S
C684 C678 1.379 . S
C684 C681 1.363 . S
C684 N682 1.356 . S
C685 C679 1.363 . S
C685 C680 1.379 . S
C685 N683 1.356 . S
N686 C678 1.356 . S
N686 H692 0.984 . S
N686 H693 0.984 . S
N687 C680 1.356 . S
N687 H690 0.984 . S
N687 H691 0.985 . S
H688 N683 0.984 . S
H689 N683 0.985 . S
H690 N687 0.984 . S
H691 N687 0.985 . S
H692 N686 0.984 . S
H693 N686 0.984 . S
H694 N682 0.984 . S
H695 N682 0.985 . S
C696 C697 1.363 . S
C696 C702 1.379 . S
C696 N704 1.356 1_565 S
C697 C696 1.363 . S
C697 C703 1.363 . S
C698 C699 1.363 . S
C698 C703 1.379 . S
C698 N705 1.356 1_556 S
C699 C698 1.363 . S
C699 C702 1.363 . S
N700 C702 1.356 1_545 S
N700 H712 0.984 . S
N700 H713 0.985 . S
N701 C703 1.356 . S
N701 H706 0.984 . S
N701 H707 0.985 . S
C702 C696 1.379 . S
C702 C699 1.363 . S
C702 N700 1.356 1_565 S
C703 C697 1.363 . S
C703 C698 1.379 . S
C703 N701 1.356 . S
N704 C696 1.356 1_545 S
N704 H710 0.984 . S
N704 H711 0.984 1_545 S
N705 C698 1.356 1_554 S
N705 H708 0.984 . S
N705 H709 0.985 . S
H706 N701 0.984 . S
H707 N701 0.985 . S
H708 N705 0.984 . S
H709 N705 0.985 . S
H710 N704 0.984 . S
H711 N704 0.984 1_565 S
H712 N700 0.984 . S
H713 N700 0.985 . S
C714 C715 1.363 . S
C714 C720 1.379 . S
C714 N722 1.356 . S
C715 C714 1.363 . S
C715 C721 1.363 . S
C716 C717 1.363 . S
C716 C721 1.379 . S
C716 N723 1.356 . S
C717 C716 1.363 . S
C717 C720 1.363 . S
N718 C720 1.356 . S
N718 H730 0.984 . S
N718 H731 0.985 . S
N719 C721 1.356 . S
N719 H724 0.984 . S
N719 H725 0.985 . S
C720 C714 1.379 . S
C720 C717 1.363 . S
C720 N718 1.356 . S
C721 C715 1.363 . S
C721 C716 1.379 . S
C721 N719 1.356 . S
N722 C714 1.356 . S
N722 H728 0.984 . S
N722 H729 0.984 . S
N723 C716 1.356 . S
N723 H726 0.984 . S
N723 H727 0.985 . S
H724 N719 0.984 . S
H725 N719 0.985 . S
H726 N723 0.984 . S
H727 N723 0.985 . S
H728 N722 0.984 . S
H729 N722 0.984 . S
H730 N718 0.984 . S
H731 N718 0.985 . S
C732 C733 1.363 . S
C732 C738 1.379 . S
C732 N740 1.356 . S
C733 C732 1.363 . S
C733 C739 1.363 . S
C734 C735 1.363 . S
C734 C739 1.379 . S
C734 N741 1.356 . S
C735 C734 1.363 . S
C735 C738 1.363 . S
N736 C738 1.365 . S
N736 H748 0.978 1_554 S
N736 H749 0.983 1_554 S
N737 C739 1.356 . S
N737 H742 0.984 . S
N737 H743 0.985 . S
C738 C732 1.379 . S
C738 C735 1.363 . S
C738 N736 1.365 . S
C739 C733 1.363 . S
C739 C734 1.379 . S
C739 N737 1.356 . S
N740 C732 1.356 . S
N740 H746 0.984 . S
N740 H747 0.984 . S
N741 C734 1.356 . S
N741 H744 0.984 . S
N741 H745 0.985 . S
H742 N737 0.984 . S
H743 N737 0.985 . S
H744 N741 0.984 . S
H745 N741 0.985 . S
H746 N740 0.984 . S
H747 N740 0.984 . S
H748 N736 0.978 1_556 S
H749 N736 0.983 1_556 S
C750 C751 1.363 . S
C750 C756 1.379 . S
C750 N758 1.356 . S
C751 C750 1.363 . S
C751 C757 1.363 . S
C752 C753 1.363 . S
C752 C757 1.379 . S
C752 N759 1.356 . S
C753 C752 1.363 . S
C753 C756 1.363 . S
N754 C756 1.356 . S
N754 H766 0.984 . S
N754 H767 0.985 . S
N755 C757 1.356 . S
N755 H760 0.984 . S
N755 H761 0.985 . S
C756 C750 1.379 . S
C756 C753 1.363 . S
C756 N754 1.356 . S
C757 C751 1.363 . S
C757 C752 1.379 . S
C757 N755 1.356 . S
N758 C750 1.356 . S
N758 H764 0.984 . S
N758 H765 0.984 . S
N759 C752 1.356 . S
N759 H762 0.984 . S
N759 H763 0.985 . S
H760 N755 0.984 . S
H761 N755 0.985 . S
H762 N759 0.984 . S
H763 N759 0.985 . S
H764 N758 0.984 . S
H765 N758 0.984 . S
H766 N754 0.984 . S
H767 N754 0.985 . S
C768 C769 1.363 . S
C768 C774 1.379 . S
C768 N776 1.356 1_556 S
C769 C768 1.363 . S
C769 C775 1.363 . S
C770 C771 1.363 . S
C770 C775 1.379 . S
C770 N777 1.356 . S
C771 C770 1.363 . S
C771 C774 1.363 . S
N772 C774 1.356 1_454 S
N772 H784 0.984 . S
N772 H785 0.985 . S
N773 C775 1.356 . S
N773 H778 0.984 . S
N773 H779 0.985 . S
C774 C768 1.379 . S
C774 C771 1.363 . S
C774 N772 1.356 1_656 S
C775 C769 1.363 . S
C775 C770 1.379 . S
C775 N773 1.356 . S
N776 C768 1.356 1_554 S
N776 H782 0.984 1_655 S
N776 H783 0.984 1_554 S
N777 C770 1.356 . S
N777 H780 0.984 . S
N777 H781 0.985 . S
H778 N773 0.984 . S
H779 N773 0.985 . S
H780 N777 0.984 . S
H781 N777 0.985 . S
H782 N776 0.984 1_455 S
H783 N776 0.984 1_556 S
H784 N772 0.984 . S
H785 N772 0.985 . S
C786 C787 1.363 . S
C786 C792 1.379 . S
C786 N794 1.356 . S
C787 C786 1.363 . S
C787 C793 1.363 . S
C788 C789 1.363 . S
C788 C793 1.379 . S
C788 N795 1.356 1_554 S
C789 C788 1.363 . S
C789 C792 1.363 . S
N790 C792 1.356 . S
N790 H802 0.984 . S
N790 H803 0.985 . S
N791 C793 1.356 . S
N791 H796 0.984 . S
N791 H797 0.985 1_554 S
C792 C786 1.379 . S
C792 C789 1.363 . S
C792 N790 1.356 . S
C793 C787 1.363 . S
C793 C788 1.379 . S
C793 N791 1.356 . S
N794 C786 1.356 . S
N794 H800 0.984 . S
N794 H801 0.984 . S
N795 C788 1.356 1_556 S
N795 H798 0.981 1_556 S
N795 H799 0.985 . S
H796 N791 0.984 . S
H797 N791 0.985 1_556 S
H798 N795 0.981 1_554 S
H799 N795 0.985 . S
H800 N794 0.984 . S
H801 N794 0.984 . S
H802 N790 0.984 . S
H803 N790 0.985 . S
C804 C805 1.363 . S
C804 C810 1.379 . S
C804 N812 1.356 . S
C805 C804 1.363 . S
C805 C811 1.363 . S
C806 C807 1.363 . S
C806 C811 1.379 . S
C806 N813 1.356 1_455 S
C807 C806 1.363 . S
C807 C810 1.363 . S
N808 C810 1.356 . S
N808 H820 0.984 . S
N808 H821 0.985 . S
N809 C811 1.356 1_655 S
N809 H814 0.984 . S
N809 H815 0.985 . S
C810 C804 1.379 . S
C810 C807 1.363 . S
C810 N808 1.356 . S
C811 C805 1.363 . S
C811 C806 1.379 . S
C811 N809 1.356 1_455 S
N812 C804 1.356 . S
N812 H818 0.984 . S
N812 H819 0.984 . S
N813 C806 1.356 1_655 S
N813 H816 0.984 . S
N813 H817 0.985 . S
H814 N809 0.984 . S
H815 N809 0.985 . S
H816 N813 0.984 . S
H817 N813 0.985 . S
H818 N812 0.984 . S
H819 N812 0.984 . S
H820 N808 0.984 . S
H821 N808 0.985 . S
C822 C823 1.363 . S
C822 C828 1.379 . S
C822 N830 1.356 . S
C823 C822 1.363 . S
C823 C829 1.363 . S
C824 C825 1.363 . S
C824 C829 1.379 . S
C824 N831 1.356 . S
C825 C824 1.363 . S
C825 C828 1.363 . S
N826 C828 1.356 . S
N826 H838 0.984 . S
N826 H839 0.985 . S
N827 C829 1.356 . S
N827 H832 0.984 . S
N827 H833 0.985 . S
C828 C822 1.379 . S
C828 C825 1.363 . S
C828 N826 1.356 . S
C829 C823 1.363 . S
C829 C824 1.379 . S
C829 N827 1.356 . S
N830 C822 1.356 . S
N830 H836 0.984 . S
N830 H837 0.984 . S
N831 C824 1.356 . S
N831 H834 0.984 . S
N831 H835 0.985 . S
H832 N827 0.984 . S
H833 N827 0.985 . S
H834 N831 0.984 . S
H835 N831 0.985 . S
H836 N830 0.984 . S
H837 N830 0.984 . S
H838 N826 0.984 . S
H839 N826 0.985 . S
C409 C1 2.131 . S
C411 C304 2.175 . S
C427 C67 1.162 . S
C429 N324 1.196 . S
C447 C358 2.023 . S
C445 C97 1.979 . S
C463 C133 1.459 . S
C465 N392 1.323 . S
C483 C345 2.327 . S
C481 C25 2.274 . S
C501 N302 1.215 . S
C499 C37 1.253 . S
C519 C379 2.059 . S
C517 C103 2.010 . S
C537 N354 1.155 . S
C535 C109 1.124 . S
C553 C31 1.802 . S
C555 C394 1.864 . S
C573 C328 1.761 . S
C571 C73 1.708 . S
C589 C139 1.547 . S
C591 C289 1.553 . S
C607 C61 1.438 . S
C609 C375 1.498 . S
C627 C315 2.186 . S
C625 C175 2.181 . S
C643 C181 1.168 . S
C645 N332 1.189 . S
C661 C247 2.045 . S
C663 C349 2.041 . S
C679 C277 1.438 . S
C681 N384 1.317 . S
C697 C145 2.317 . S
C699 C334 2.323 . S
C717 N294 1.221 . S
C715 C211 1.242 . S
C735 C388 2.046 . S
C733 C217 2.033 . S
C753 N362 1.165 . S
C751 C283 1.142 . S
C769 C169 1.840 . S
C771 C405 1.857 . S
C789 C319 1.760 . S
C787 C241 1.751 . S
C807 C298 1.541 . S
C805 C253 1.532 . S
C823 C205 1.443 . S
C825 C364 1.504 . S
