# Generated by pormake.
# Topology tsx, (6,3)-cn, num edge types: 1
# Building blocks:
#     Node 0, Type 0, BuildingBlock: JUFBIX_clean_sbu_0, # of connection points: 6
#     Node 1, Type 0, BuildingBlock: JUFBIX_clean_sbu_0, # of connection points: 6
#     Node 2, Type 1, BuildingBlock: MIDCAF_clean_linker_0, # of connection points: 3
#     Node 3, Type 1, BuildingBlock: MIDCAF_clean_linker_0, # of connection points: 3
#     Node 4, Type 1, BuildingBlock: MIDCAF_clean_linker_0, # of connection points: 3
#     Node 5, Type 1, BuildingBlock: MIDCAF_clean_linker_0, # of connection points: 3
#     Edge 6, Type (0, 1), BuildingBlock: FUNLAD_clean_linker_0, # of connection points: 2
#     Edge 7, Type (0, 1), BuildingBlock: FUNLAD_clean_linker_0, # of connection points: 2
#     Edge 8, Type (0, 1), BuildingBlock: FUNLAD_clean_linker_0, # of connection points: 2
#     Edge 9, Type (0, 1), BuildingBlock: FUNLAD_clean_linker_0, # of connection points: 2
#     Edge 10, Type (0, 1), BuildingBlock: FUNLAD_clean_linker_0, # of connection points: 2
#     Edge 11, Type (0, 1), BuildingBlock: FUNLAD_clean_linker_0, # of connection points: 2
#     Edge 12, Type (0, 1), BuildingBlock: FUNLAD_clean_linker_0, # of connection points: 2
#     Edge 13, Type (0, 1), BuildingBlock: FUNLAD_clean_linker_0, # of connection points: 2
#     Edge 14, Type (0, 1), BuildingBlock: FUNLAD_clean_linker_0, # of connection points: 2
#     Edge 15, Type (0, 1), BuildingBlock: FUNLAD_clean_linker_0, # of connection points: 2
#     Edge 16, Type (0, 1), BuildingBlock: FUNLAD_clean_linker_0, # of connection points: 2
#     Edge 17, Type (0, 1), BuildingBlock: FUNLAD_clean_linker_0, # of connection points: 2
# Relax obj value: 0.160
# Max RMSD: 0.166
# Mean RMSD: 0.134
data_MOF--net-tsx--node1-JUFBIX_clean_sbu_0--node2-MIDCAF_clean_linker_0--edge1-FUNLAD_clean_linker_0
_symmetry_space_group_name_H-M    P1
_symmetry_Int_Tables_number       1
_symmetry_cell_setting            triclinic
loop_
_symmetry_equiv_pos_as_xyz
'x, y, z'
_cell_length_a     26.890138
_cell_length_b     31.907754
_cell_length_c     49.197679
_cell_angle_alpha  92.310286
_cell_angle_beta   89.560985
_cell_angle_gamma 96.992592
loop_
_atom_site_label
_atom_site_type_symbol
_atom_site_fract_x
_atom_site_fract_y
_atom_site_fract_z
_atom_type_partial_charge
Co0 Co 0.04726 0.97906 0.01427 0.0
C1 C 0.0111 0.00692 0.96538 0.0
Co2 Co 0.9808 0.01368 0.01822 0.0
C3 C 0.11514 0.91433 0.01676 0.0
C4 C 0.14541 0.96827 0.99484 0.0
N5 N 0.10449 0.95233 0.00876 0.0
N6 N 0.16129 0.90623 0.00852 0.0
C7 C 0.18027 0.94021 0.99472 0.0
H8 H 0.08966 0.89317 0.0285 0.0
H9 H 0.14945 0.99831 0.98511 0.0
C10 C 0.01672 0.98622 0.06719 0.0
N11 N 0.92379 0.04033 0.02414 0.0
C12 C 0.91231 0.07771 0.01554 0.0
C13 C 0.88575 0.0266 0.04085 0.0
N14 N 0.86902 0.08794 0.02664 0.0
C15 C 0.85224 0.05582 0.04252 0.0
C16 C 0.95847 0.92624 0.00983 0.0
O17 O 0.04995 0.97134 0.05243 0.0
O18 O 0.98406 0.00547 0.05609 0.0
O19 O 0.94015 0.96096 0.01332 0.0
O20 O 0.00581 0.9265 0.00957 0.0
O21 O 0.9782 0.02164 0.98046 0.0
H22 H 0.88319 0.99759 0.0517 0.0
H23 H 0.93609 0.09773 0.00225 0.0
O24 O 0.04398 0.98727 0.9761 0.0
O25 O 0.08785 0.03204 0.01909 0.0
O26 O 0.02199 0.06621 0.02282 0.0
C27 C 0.06931 0.0667 0.02229 0.0
H28 H 0.21636 0.94411 0.98464 0.0
H29 H 0.81822 0.05374 0.05456 0.0
Co30 Co 0.53459 0.48262 0.50351 0.0
C31 C 0.49274 0.51288 0.45697 0.0
Co32 Co 0.47623 0.52483 0.51139 0.0
C33 C 0.60339 0.4188 0.50747 0.0
C34 C 0.62122 0.46144 0.47529 0.0
N35 N 0.58702 0.45152 0.49494 0.0
N36 N 0.64681 0.40857 0.49655 0.0
C37 C 0.65791 0.43524 0.47627 0.0
H38 H 0.58524 0.40418 0.52502 0.0
H39 H 0.62055 0.48722 0.46173 0.0
C40 C 0.51797 0.49574 0.5581 0.0
N41 N 0.42431 0.55613 0.52034 0.0
C42 C 0.41471 0.59411 0.51194 0.0
C43 C 0.38751 0.5446 0.53828 0.0
N44 N 0.37321 0.60663 0.52394 0.0
C45 C 0.35617 0.57542 0.54053 0.0
C46 C 0.44189 0.43798 0.50509 0.0
O47 O 0.54447 0.47625 0.54153 0.0
O48 O 0.48634 0.5179 0.54882 0.0
O49 O 0.42988 0.47498 0.50947 0.0
O50 O 0.48784 0.43301 0.50209 0.0
O51 O 0.46663 0.53193 0.47395 0.0
H52 H 0.38405 0.51575 0.54934 0.0
H53 H 0.43763 0.61204 0.49724 0.0
O54 O 0.5239 0.48962 0.46567 0.0
O55 O 0.58094 0.53248 0.50481 0.0
O56 O 0.52312 0.57427 0.51289 0.0
C57 C 0.56887 0.56949 0.5089 0.0
H58 H 0.69082 0.43622 0.46338 0.0
H59 H 0.32397 0.5752 0.55388 0.0
C60 C 0.91723 0.12817 0.45696 0.0
C61 C 0.90314 0.12538 0.4844 0.0
C62 C 0.92003 0.09378 0.49981 0.0
C63 C 0.95123 0.06586 0.48793 0.0
H64 H 0.04343 0.96453 0.50219 0.0
H65 H 0.09264 0.91697 0.52558 0.0
H66 H 0.18757 0.91035 0.45468 0.0
H67 H 0.1394 0.95742 0.43164 0.0
H68 H 0.08205 0.95815 0.37495 0.0
H69 H 0.08571 0.95202 0.32559 0.0
H70 H 0.98984 0.05064 0.32036 0.0
H71 H 0.98508 0.05619 0.3698 0.0
H72 H 0.95747 0.10342 0.4238 0.0
H73 H 0.90429 0.15196 0.44456 0.0
H74 H 0.90969 0.09108 0.52104 0.0
H75 H 0.96409 0.04199 0.50027 0.0
N76 N 0.02509 0.01559 0.46205 0.0
N77 N 0.05808 0.98785 0.42179 0.0
N78 N 1.0004 0.03663 0.41943 0.0
C79 C 0.05583 0.98998 0.44939 0.0
C80 C 0.03044 0.01084 0.40663 0.0
C81 C 0.99743 0.03927 0.44706 0.0
C82 C 0.08719 0.96442 0.46496 0.0
C83 C 0.07523 0.95328 0.49181 0.0
C84 C 0.10321 0.92596 0.50514 0.0
C85 C 0.14404 0.91 0.49197 0.0
C86 C 0.15684 0.9225 0.46555 0.0
C87 C 0.12877 0.94922 0.45222 0.0
C88 C 0.03318 0.00765 0.37647 0.0
C89 C 0.06171 0.97862 0.36335 0.0
C90 C 0.06409 0.97523 0.33498 0.0
C91 C 0.03811 0.00083 0.31897 0.0
C92 C 0.00975 0.02999 0.33206 0.0
C93 C 0.00725 0.03334 0.36046 0.0
C94 C 0.96508 0.06864 0.46033 0.0
C95 C 0.94753 0.1001 0.44505 0.0
C96 C 0.87598 0.88957 0.57693 0.0
C97 C 0.86853 0.88777 0.5487 0.0
C98 C 0.8922 0.92039 0.53307 0.0
C99 C 0.92301 0.95415 0.54558 0.0
H100 H 0.05489 0.04408 0.53432 0.0
H101 H 0.11552 0.09358 0.51057 0.0
H102 H 0.12198 0.18002 0.58064 0.0
H103 H 0.06208 0.13115 0.60431 0.0
H104 H 0.0388 0.08983 0.66248 0.0
H105 H 0.03584 0.09539 0.71204 0.0
H106 H 0.92648 0.98442 0.71267 0.0
H107 H 0.92858 0.97916 0.66332 0.0
H108 H 0.9107 0.92351 0.61127 0.0
H109 H 0.85761 0.8652 0.58955 0.0
H110 H 0.88711 0.91963 0.51123 0.0
H111 H 0.94075 0.97893 0.5331 0.0
N112 N 0.99153 0.02026 0.57349 0.0
N113 N 0.01677 0.05767 0.61417 0.0
N114 N 0.95862 0.99707 0.61531 0.0
C115 C 0.0196 0.05319 0.5866 0.0
C116 C 0.98636 0.0297 0.62869 0.0
C117 C 0.96082 0.99209 0.58781 0.0
C118 C 0.05386 0.08359 0.57129 0.0
C119 C 0.069 0.07381 0.54455 0.0
C120 C 0.1038 0.10196 0.53099 0.0
C121 C 0.12323 0.14059 0.54377 0.0
C122 C 0.10717 0.15066 0.57019 0.0
C123 C 0.07308 0.12246 0.58382 0.0
C124 C 0.984 0.034 0.6588 0.0
C125 C 0.01394 0.0667 0.67315 0.0
C126 C 0.01246 0.06979 0.70159 0.0
C127 C 0.98092 0.04035 0.71631 0.0
C128 C 0.95066 0.00797 0.70195 0.0
C129 C 0.95216 0.00483 0.67359 0.0
C130 C 0.92995 0.95605 0.57396 0.0
C131 C 0.90619 0.92326 0.58941 0.0
C132 C 0.4564 0.63088 0.96576 0.0
C133 C 0.42175 0.61924 0.98645 0.0
C134 C 0.41411 0.57671 0.99375 0.0
C135 C 0.44011 0.54642 0.98022 0.0
H136 H 0.56208 0.45252 0.99042 0.0
H137 H 0.60535 0.39512 0.00706 0.0
H138 H 0.60365 0.33836 0.92579 0.0
H139 H 0.56009 0.39407 0.90952 0.0
H140 H 0.5639 0.45194 0.86117 0.0
H141 H 0.56237 0.45393 0.81189 0.0
H142 H 0.4742 0.55839 0.81768 0.0
H143 H 0.47501 0.5562 0.86722 0.0
H144 H 0.50679 0.61043 0.93555 0.0
H145 H 0.46274 0.66325 0.95946 0.0
H146 H 0.38783 0.56688 0.00973 0.0
H147 H 0.43285 0.51372 0.98573 0.0
N148 N 0.51464 0.49297 0.95338 0.0
N149 N 0.53686 0.46832 0.90991 0.0
N150 N 0.49809 0.52981 0.91452 0.0
C151 C 0.53546 0.46398 0.93724 0.0
C152 C 0.5183 0.50087 0.89832 0.0
C153 C 0.49601 0.52607 0.94198 0.0
C154 C 0.55776 0.42812 0.9486 0.0
C155 C 0.57038 0.42739 0.97627 0.0
C156 C 0.59547 0.39472 0.98575 0.0
C157 C 0.60788 0.36204 0.96778 0.0
C158 C 0.59404 0.36248 0.94035 0.0
C159 C 0.56933 0.39489 0.93094 0.0
C160 C 0.51934 0.50381 0.86828 0.0
C161 C 0.54426 0.47551 0.85206 0.0
C162 C 0.54371 0.47678 0.82373 0.0
C163 C 0.51811 0.50624 0.81086 0.0
C164 C 0.49378 0.53497 0.82701 0.0
C165 C 0.4945 0.53386 0.85542 0.0
C166 C 0.47319 0.55807 0.95882 0.0
C167 C 0.48144 0.60062 0.95196 0.0
C168 C 0.31886 0.43709 0.07217 0.0
C169 C 0.32607 0.41495 0.04751 0.0
C170 C 0.36738 0.42881 0.03106 0.0
C171 C 0.40285 0.46223 0.0402 0.0
H172 H 0.5091 0.58365 0.02304 0.0
H173 H 0.57386 0.62799 0.99838 0.0
H174 H 0.67292 0.62959 0.06722 0.0
H175 H 0.60884 0.58565 0.0916 0.0
H176 H 0.5512 0.58603 0.15076 0.0
H177 H 0.55749 0.58716 0.20022 0.0
H178 H 0.42442 0.49678 0.20368 0.0
H179 H 0.41727 0.49637 0.15457 0.0
H180 H 0.34817 0.48543 0.1009 0.0
H181 H 0.28678 0.42773 0.08497 0.0
H182 H 0.37379 0.41229 0.01193 0.0
H183 H 0.43591 0.47066 0.02794 0.0
N184 N 0.4748 0.53291 0.06306 0.0
N185 N 0.51625 0.5604 0.10305 0.0
N186 N 0.44163 0.51499 0.10591 0.0
C187 C 0.51377 0.55761 0.07542 0.0
C188 C 0.48025 0.53923 0.11846 0.0
C189 C 0.43847 0.51156 0.07837 0.0
C190 C 0.55369 0.58137 0.05931 0.0
C191 C 0.54495 0.59303 0.03266 0.0
C192 C 0.5819 0.61854 0.01863 0.0
C193 C 0.62852 0.63216 0.03086 0.0
C194 C 0.63767 0.61919 0.0571 0.0
C195 C 0.60069 0.5943 0.07118 0.0
C196 C 0.48373 0.54111 0.14858 0.0
C197 C 0.5231 0.56657 0.16207 0.0
C198 C 0.52689 0.56706 0.19044 0.0
C199 C 0.49145 0.54208 0.20595 0.0
C200 C 0.45191 0.51695 0.19245 0.0
C201 C 0.44803 0.51653 0.16417 0.0
C202 C 0.39737 0.48216 0.06588 0.0
C203 C 0.35405 0.47023 0.08125 0.0
C204 C 0.08394 0.14589 0.02213 0.0
C205 C 0.1027 0.10704 0.02497 0.0
C206 C 0.11593 0.1839 0.02439 0.0
C207 C 0.16723 0.18373 0.02976 0.0
C208 C 0.18575 0.14494 0.0328 0.0
C209 C 0.15401 0.10699 0.03015 0.0
C210 C 0.20175 0.22331 0.03423 0.0
C211 C 0.19623 0.25987 0.02245 0.0
C212 C 0.23018 0.29934 0.02871 0.0
C213 C 0.24108 0.32928 0.00866 0.0
C214 C 0.27276 0.36679 0.01444 0.0
C215 C 0.29302 0.37532 0.04061 0.0
H216 H 0.24189 0.2863 0.07104 0.0
C217 C 0.28159 0.3455 0.06068 0.0
C218 C 0.25054 0.30804 0.05485 0.0
H219 H 0.29698 0.35103 0.08098 0.0
H220 H 0.04457 0.14694 0.01813 0.0
H221 H 0.10015 0.2133 0.02263 0.0
H222 H 0.225 0.14397 0.03722 0.0
H223 H 0.16962 0.07761 0.03251 0.0
H224 H 0.23397 0.22178 0.0472 0.0
H225 H 0.16725 0.26071 0.00729 0.0
H226 H 0.22542 0.32347 0.98844 0.0
H227 H 0.28076 0.38936 0.99866 0.0
C228 C 0.23789 0.87155 0.01312 0.0
C229 C 0.18535 0.86883 0.01234 0.0
C230 C 0.26188 0.83523 0.01435 0.0
C231 C 0.23387 0.795 0.01498 0.0
C232 C 0.18127 0.79232 0.01477 0.0
C233 C 0.15722 0.82884 0.01369 0.0
C234 C 0.25834 0.75538 0.01331 0.0
C235 C 0.30611 0.75359 0.02106 0.0
C236 C 0.33438 0.71679 0.01512 0.0
C237 C 0.38698 0.72405 0.01465 0.0
C238 C 0.41541 0.69188 0.00651 0.0
C239 C 0.39197 0.65138 0.99893 0.0
H240 H 0.27066 0.66817 0.00983 0.0
C241 C 0.33953 0.64322 0.00098 0.0
C242 C 0.31094 0.67559 0.00894 0.0
H243 H 0.32043 0.61228 0.99528 0.0
H244 H 0.26066 0.90188 0.01234 0.0
H245 H 0.30237 0.83896 0.01365 0.0
H246 H 0.15869 0.7618 0.01494 0.0
H247 H 0.11672 0.82562 0.01285 0.0
H248 H 0.23658 0.72754 0.00424 0.0
H249 H 0.3271 0.78148 0.03057 0.0
H250 H 0.40622 0.75523 0.01961 0.0
H251 H 0.45581 0.69897 0.0055 0.0
C252 C 0.87268 0.88675 0.00442 0.0
C253 C 0.92465 0.88612 0.00677 0.0
C254 C 0.84012 0.84913 0.00297 0.0
C255 C 0.85881 0.80988 0.0038 0.0
C256 C 0.9108 0.80925 0.00587 0.0
C257 C 0.94346 0.84694 0.00713 0.0
C258 C 0.82494 0.76954 0.00523 0.0
C259 C 0.77792 0.76394 0.99516 0.0
C260 C 0.74063 0.72672 0.00071 0.0
C261 C 0.68944 0.73063 0.9978 0.0
C262 C 0.65278 0.69879 0.00614 0.0
C263 C 0.6666 0.66227 0.01753 0.0
H264 H 0.79307 0.6833 0.01169 0.0
C265 C 0.71765 0.65696 0.01865 0.0
C266 C 0.7543 0.68867 0.0102 0.0
H267 H 0.72931 0.62865 0.02677 0.0
H268 H 0.85691 0.9164 0.00419 0.0
H269 H 0.80029 0.85119 0.0023 0.0
H270 H 0.92616 0.7795 0.00688 0.0
H271 H 0.9833 0.84537 0.00903 0.0
H272 H 0.83913 0.74457 0.01604 0.0
H273 H 0.76471 0.78906 0.98399 0.0
H274 H 0.67769 0.7593 0.99026 0.0
H275 H 0.61373 0.70384 0.00506 0.0
C276 C 0.84397 0.1432 0.99766 0.0
C277 C 0.84574 0.12566 0.02329 0.0
C278 C 0.81746 0.17775 0.99413 0.0
C279 C 0.79296 0.1957 0.01632 0.0
C280 C 0.79691 0.1794 0.04215 0.0
C281 C 0.82247 0.14439 0.04554 0.0
C282 C 0.76248 0.23097 0.01306 0.0
C283 C 0.73324 0.23283 0.99118 0.0
C284 C 0.69936 0.26577 0.98791 0.0
C285 C 0.65693 0.25596 0.97141 0.0
C286 C 0.62586 0.28663 0.96612 0.0
C287 C 0.63695 0.32826 0.9768 0.0
H288 H 0.74246 0.31587 0.01201 0.0
C289 C 0.6786 0.33787 0.99406 0.0
C290 C 0.70956 0.30694 0.99958 0.0
H291 H 0.68861 0.36973 0.00231 0.0
H292 H 0.8617 0.12932 0.98024 0.0
H293 H 0.81606 0.1903 0.97406 0.0
H294 H 0.77884 0.19294 0.05959 0.0
H295 H 0.82394 0.13178 0.06558 0.0
H296 H 0.76062 0.25347 0.03009 0.0
H297 H 0.7317 0.20758 0.97557 0.0
H298 H 0.64802 0.22448 0.96229 0.0
H299 H 0.5936 0.2779 0.95314 0.0
C300 C 0.59642 0.64742 0.51422 0.0
C301 C 0.60808 0.60618 0.50871 0.0
C302 C 0.6342 0.68171 0.5146 0.0
C303 C 0.68436 0.67536 0.50924 0.0
C304 C 0.69567 0.63419 0.50342 0.0
C305 C 0.65805 0.60002 0.50308 0.0
C306 C 0.72653 0.70991 0.51187 0.0
C307 C 0.72135 0.75132 0.51149 0.0
C308 C 0.76301 0.78502 0.51836 0.0
C309 C 0.76084 0.82614 0.50964 0.0
C310 C 0.7967 0.85941 0.5183 0.0
C311 C 0.83496 0.85213 0.53616 0.0
H312 H 0.80501 0.74686 0.54338 0.0
C313 C 0.83815 0.81081 0.54411 0.0
C314 C 0.80253 0.77767 0.53547 0.0
H315 H 0.86743 0.8043 0.55778 0.0
H316 H 0.55826 0.65315 0.5187 0.0
H317 H 0.62398 0.71275 0.51993 0.0
H318 H 0.73395 0.62829 0.49945 0.0
H319 H 0.66836 0.56867 0.49864 0.0
H320 H 0.76361 0.70043 0.5144 0.0
H321 H 0.68548 0.76118 0.50633 0.0
H322 H 0.7306 0.83275 0.49666 0.0
H323 H 0.79311 0.89109 0.51208 0.0
C324 C 0.65705 0.33793 0.51328 0.0
C325 C 0.6779 0.37826 0.50561 0.0
C326 C 0.68822 0.30722 0.51913 0.0
C327 C 0.74077 0.31674 0.5177 0.0
C328 C 0.76116 0.3579 0.51161 0.0
C329 C 0.73018 0.38814 0.50542 0.0
C330 C 0.77618 0.28485 0.52074 0.0
C331 C 0.76425 0.24294 0.51596 0.0
C332 C 0.80309 0.21378 0.51161 0.0
C333 C 0.7913 0.17051 0.51627 0.0
C334 C 0.82509 0.14177 0.50896 0.0
C335 C 0.87078 0.15579 0.49632 0.0
H336 H 0.85995 0.26052 0.49514 0.0
C337 C 0.88322 0.19913 0.49244 0.0
C338 C 0.84987 0.22779 0.49995 0.0
H339 H 0.91819 0.21071 0.48268 0.0
H340 H 0.61679 0.32974 0.51371 0.0
H341 H 0.67101 0.27619 0.52441 0.0
H342 H 0.80139 0.36634 0.51059 0.0
H343 H 0.74717 0.41925 0.50007 0.0
H344 H 0.81518 0.29709 0.52428 0.0
H345 H 0.72545 0.22971 0.51307 0.0
H346 H 0.75534 0.15879 0.52491 0.0
H347 H 0.81445 0.10841 0.5119 0.0
C348 C 0.41363 0.35995 0.50006 0.0
C349 C 0.4021 0.4017 0.50294 0.0
C350 C 0.37527 0.32604 0.49834 0.0
C351 C 0.32466 0.33343 0.49943 0.0
C352 C 0.31347 0.37523 0.50158 0.0
C353 C 0.35159 0.40891 0.50346 0.0
C354 C 0.28203 0.2991 0.49942 0.0
C355 C 0.28563 0.25927 0.50655 0.0
C356 C 0.2409 0.22874 0.51239 0.0
C357 C 0.24474 0.1852 0.5107 0.0
C358 C 0.20524 0.15609 0.51941 0.0
C359 C 0.16157 0.17018 0.53041 0.0
H360 H 0.19203 0.27575 0.52488 0.0
C361 C 0.15699 0.21353 0.5312 0.0
C362 C 0.19617 0.24252 0.52239 0.0
H363 H 0.12366 0.22518 0.53957 0.0
H364 H 0.45224 0.35343 0.4993 0.0
H365 H 0.38562 0.2944 0.49604 0.0
H366 H 0.27492 0.38195 0.5024 0.0
H367 H 0.34129 0.44068 0.50542 0.0
H368 H 0.24523 0.30818 0.49539 0.0
H369 H 0.32202 0.24906 0.50994 0.0
H370 H 0.27892 0.17378 0.50334 0.0
H371 H 0.20988 0.12281 0.51886 0.0
C372 C 0.3005 0.64716 0.526 0.0
C373 C 0.35163 0.64533 0.52053 0.0
C374 C 0.27955 0.68477 0.52365 0.0
C375 C 0.30931 0.72169 0.51584 0.0
C376 C 0.36012 0.71969 0.50976 0.0
C377 C 0.38116 0.682 0.51218 0.0
C378 C 0.28799 0.76202 0.5124 0.0
C379 C 0.24651 0.77209 0.52552 0.0
C380 C 0.22229 0.81032 0.5199 0.0
C381 C 0.17055 0.80951 0.52449 0.0
C382 C 0.14534 0.84299 0.5168 0.0
C383 C 0.17154 0.8781 0.50451 0.0
H384 H 0.28922 0.84954 0.50663 0.0
C385 C 0.22385 0.88022 0.50169 0.0
C386 C 0.24902 0.84679 0.50935 0.0
H387 H 0.24521 0.90737 0.49287 0.0
H388 H 0.2763 0.6193 0.53175 0.0
H389 H 0.2398 0.68433 0.52737 0.0
H390 H 0.38378 0.74752 0.50336 0.0
H391 H 0.42068 0.68183 0.50795 0.0
H392 H 0.30704 0.78362 0.49814 0.0
H393 H 0.22764 0.75046 0.53983 0.0
H394 H 0.14912 0.78206 0.53293 0.0
H395 H 0.10501 0.84034 0.51916 0.0
C396 C 0.05684 0.97095 0.11118 0.0
C397 C 0.01535 0.98178 0.09701 0.0
C398 C 0.05546 0.96892 0.13959 0.0
C399 C 0.01231 0.97734 0.15424 0.0
C400 C 0.97048 0.98679 0.13991 0.0
C401 C 0.97209 0.98938 0.11169 0.0
C402 C 0.00888 0.97639 0.18436 0.0
C403 C 0.04852 0.98615 0.20101 0.0
C404 C 0.04433 0.98906 0.23124 0.0
C405 C 0.0874 0.98728 0.2469 0.0
C406 C 0.08545 0.991 0.2753 0.0
C407 C 0.04033 0.99688 0.28875 0.0
H408 H 0.96543 0.99844 0.23363 0.0
C409 C 0.99729 0.99903 0.2731 0.0
C410 C 0.99925 0.9954 0.24472 0.0
H411 H 0.96185 0.00328 0.28277 0.0
H412 H 0.09057 0.96468 0.10038 0.0
H413 H 0.08794 0.96037 0.14991 0.0
H414 H 0.93665 0.99304 0.15064 0.0
H415 H 0.93927 0.99741 0.10138 0.0
H416 H 0.97161 0.96944 0.19288 0.0
H417 H 0.08571 0.99297 0.19228 0.0
H418 H 0.12279 0.98302 0.23714 0.0
H419 H 0.11953 0.98989 0.2867 0.0
C420 C 0.97724 0.03644 0.92381 0.0
C421 C 0.01169 0.01293 0.9357 0.0
C422 C 0.97819 0.04237 0.8958 0.0
C423 C 0.01343 0.02456 0.87901 0.0
C424 C 0.04818 0.00155 0.89101 0.0
C425 C 0.04729 0.99568 0.919 0.0
C426 C 0.01599 0.02977 0.84908 0.0
C427 C 0.97737 0.03919 0.83411 0.0
C428 C 0.97943 0.0416 0.80398 0.0
C429 C 0.9345 0.03439 0.78925 0.0
C430 C 0.93488 0.03467 0.76086 0.0
C431 C 0.98027 0.04257 0.74653 0.0
H432 H 0.06006 0.05814 0.8003 0.0
C433 C 0.02514 0.05129 0.7613 0.0
C434 C 0.02476 0.05095 0.78971 0.0
H435 H 0.06075 0.05746 0.75088 0.0
H436 H 0.94971 0.05058 0.93617 0.0
H437 H 0.95176 0.06147 0.8876 0.0
H438 H 0.076 0.98776 0.87866 0.0
H439 H 0.07456 0.97759 0.9275 0.0
H440 H 0.0502 0.02289 0.83891 0.0
H441 H 0.94158 0.0423 0.84383 0.0
H442 H 0.89898 0.02772 0.79971 0.0
H443 H 0.89957 0.02862 0.75012 0.0
C444 C 0.49896 0.52074 0.60528 0.0
C445 C 0.52377 0.49395 0.58792 0.0
C446 C 0.50384 0.51992 0.63342 0.0
C447 C 0.53307 0.49169 0.6451 0.0
C448 C 0.55857 0.46533 0.62775 0.0
C449 C 0.55395 0.46638 0.59942 0.0
C450 C 0.53891 0.49008 0.67513 0.0
C451 C 0.50522 0.50319 0.69306 0.0
C452 C 0.51019 0.50334 0.7232 0.0
C453 C 0.46782 0.50892 0.73922 0.0
C454 C 0.4705 0.51024 0.76759 0.0
C455 C 0.51575 0.50609 0.78069 0.0
H456 H 0.58975 0.49672 0.72494 0.0
C457 C 0.55836 0.50091 0.76475 0.0
C458 C 0.55576 0.49974 0.73633 0.0
H459 H 0.59399 0.49832 0.77427 0.0
H460 H 0.47601 0.54289 0.59713 0.0
H461 H 0.48525 0.54213 0.64579 0.0
H462 H 0.58188 0.44366 0.63614 0.0
H463 H 0.57378 0.44552 0.58659 0.0
H464 H 0.57107 0.47637 0.68238 0.0
H465 H 0.47103 0.51333 0.68546 0.0
H466 H 0.43228 0.51207 0.72976 0.0
H467 H 0.43685 0.5138 0.77926 0.0
C468 C 0.51628 0.49686 0.40865 0.0
C469 C 0.48789 0.51841 0.42743 0.0
C470 C 0.51255 0.50266 0.38077 0.0
C471 C 0.48062 0.53053 0.37105 0.0
C472 C 0.45171 0.55151 0.38982 0.0
C473 C 0.45538 0.54567 0.41771 0.0
C474 C 0.47501 0.53731 0.34154 0.0
C475 C 0.51005 0.5301 0.32273 0.0
C476 C 0.50417 0.5355 0.29304 0.0
C477 C 0.54699 0.53781 0.27637 0.0
C478 C 0.54306 0.54079 0.24822 0.0
C479 C 0.49606 0.54133 0.23602 0.0
H480 H 0.4229 0.53354 0.29264 0.0
C481 C 0.45323 0.53946 0.25271 0.0
C482 C 0.45711 0.53633 0.28083 0.0
H483 H 0.41648 0.54015 0.244 0.0
H484 H 0.54138 0.47534 0.41545 0.0
H485 H 0.53416 0.48465 0.36703 0.0
H486 H 0.42639 0.57279 0.38292 0.0
H487 H 0.43288 0.56269 0.43162 0.0
H488 H 0.44146 0.55022 0.33549 0.0
H489 H 0.54547 0.52086 0.32925 0.0
H490 H 0.58367 0.53684 0.28512 0.0
H491 H 0.57675 0.54151 0.23596 0.0
loop_
_geom_bond_atom_site_label_1
_geom_bond_atom_site_label_2
_geom_bond_distance
_geom_bond_site_symmetry_2
_ccdc_geom_bond_type
Co0 N5 2.057 . S
Co0 O17 2.021 . S
Co0 O20 2.062 1_455 S
Co0 O24 2.117 1_554 S
Co0 O25 2.020 1_565 S
C1 O21 1.259 1_455 S
C1 O24 1.258 1_545 S
Co2 N11 2.057 . S
Co2 O18 2.117 . S
Co2 O19 2.020 1_545 S
Co2 O21 2.021 1_554 S
Co2 O26 2.062 1_655 S
C3 N5 1.316 . S
C3 N6 1.347 . S
C3 H8 0.931 . S
C4 N5 1.375 1_556 S
C4 C7 1.350 . S
C4 H9 0.930 . S
N5 Co0 2.057 . S
N5 C3 1.316 . S
N5 C4 1.375 1_554 S
N6 C3 1.347 . S
N6 C7 1.373 1_554 S
C7 C4 1.350 . S
C7 N6 1.373 1_556 S
C7 H28 0.931 . S
H8 C3 0.931 . S
H9 C4 0.930 . S
C10 O17 1.259 1_545 S
C10 O18 1.258 1_455 S
N11 Co2 2.057 . S
N11 C12 1.316 . S
N11 C13 1.375 . S
C12 N11 1.316 . S
C12 N14 1.347 . S
C12 H23 0.931 1_554 S
C13 N11 1.375 . S
C13 C15 1.350 . S
C13 H22 0.930 . S
N14 C12 1.347 . S
N14 C15 1.373 . S
C15 C13 1.350 . S
C15 N14 1.373 . S
C15 H29 0.931 . S
C16 O19 1.256 . S
C16 O20 1.255 . S
O17 Co0 2.021 . S
O17 C10 1.259 1_565 S
O18 Co2 2.117 . S
O18 C10 1.258 1_655 S
O19 Co2 2.020 1_565 S
O19 C16 1.256 . S
O20 Co0 2.062 1_655 S
O20 C16 1.255 . S
O21 C1 1.259 1_655 S
O21 Co2 2.021 1_556 S
H22 C13 0.930 . S
H23 C12 0.931 1_556 S
O24 Co0 2.117 1_556 S
O24 C1 1.258 1_565 S
O25 Co0 2.020 1_545 S
O25 C27 1.256 . S
O26 Co2 2.062 1_455 S
O26 C27 1.255 . S
C27 O25 1.256 . S
C27 O26 1.255 . S
H28 C7 0.931 . S
H29 C15 0.931 . S
Co30 N35 2.057 . S
Co30 O47 2.021 . S
Co30 O50 2.062 . S
Co30 O54 2.117 . S
Co30 O55 2.020 . S
C31 O51 1.259 . S
C31 O54 1.258 . S
Co32 N41 2.057 . S
Co32 O48 2.117 . S
Co32 O49 2.020 . S
Co32 O51 2.021 . S
Co32 O56 2.062 . S
C33 N35 1.316 . S
C33 N36 1.347 . S
C33 H38 0.931 . S
C34 N35 1.375 . S
C34 C37 1.350 . S
C34 H39 0.930 . S
N35 Co30 2.057 . S
N35 C33 1.316 . S
N35 C34 1.375 . S
N36 C33 1.347 . S
N36 C37 1.373 . S
C37 C34 1.350 . S
C37 N36 1.373 . S
C37 H58 0.931 . S
H38 C33 0.931 . S
H39 C34 0.930 . S
C40 O47 1.259 . S
C40 O48 1.258 . S
N41 Co32 2.057 . S
N41 C42 1.316 . S
N41 C43 1.375 . S
C42 N41 1.316 . S
C42 N44 1.347 . S
C42 H53 0.931 . S
C43 N41 1.375 . S
C43 C45 1.350 . S
C43 H52 0.930 . S
N44 C42 1.347 . S
N44 C45 1.373 . S
C45 C43 1.350 . S
C45 N44 1.373 . S
C45 H59 0.931 . S
C46 O49 1.256 . S
C46 O50 1.255 . S
O47 Co30 2.021 . S
O47 C40 1.259 . S
O48 Co32 2.117 . S
O48 C40 1.258 . S
O49 Co32 2.020 . S
O49 C46 1.256 . S
O50 Co30 2.062 . S
O50 C46 1.255 . S
O51 C31 1.259 . S
O51 Co32 2.021 . S
H52 C43 0.930 . S
H53 C42 0.931 . S
O54 Co30 2.117 . S
O54 C31 1.258 . S
O55 Co30 2.020 . S
O55 C57 1.256 . S
O56 Co32 2.062 . S
O56 C57 1.255 . S
C57 O55 1.256 . S
C57 O56 1.255 . S
H58 C37 0.931 . S
H59 C45 0.931 . S
C60 C61 1.384 . S
C60 H73 0.947 . S
C60 C95 1.382 . S
C61 C60 1.384 . S
C61 C62 1.378 . S
C62 C61 1.378 . S
C62 C63 1.378 . S
C62 H74 0.952 . S
C63 C62 1.378 . S
C63 H75 0.950 . S
C63 C94 1.383 . S
H64 C83 0.947 . S
H65 C84 0.946 . S
H66 C86 0.953 . S
H67 C87 0.945 . S
H68 C89 0.952 . S
H69 C90 0.949 . S
H70 C92 0.950 . S
H71 C93 0.948 . S
H72 C95 0.951 . S
H73 C60 0.947 . S
H74 C62 0.952 . S
H75 C63 0.950 . S
N76 C79 1.382 1_545 S
N76 C81 1.363 1_455 S
N77 C79 1.371 . S
N77 C80 1.372 1_565 S
N78 C80 1.361 1_655 S
N78 C81 1.377 . S
C79 N76 1.382 1_565 S
C79 N77 1.371 . S
C79 C82 1.480 . S
C80 N77 1.372 1_545 S
C80 N78 1.361 1_455 S
C80 C88 1.457 . S
C81 N76 1.363 1_655 S
C81 N78 1.377 . S
C81 C94 1.479 . S
C82 C79 1.480 . S
C82 C83 1.383 . S
C82 C87 1.385 . S
C83 H64 0.947 . S
C83 C82 1.383 . S
C83 C84 1.388 . S
C84 H65 0.946 . S
C84 C83 1.388 . S
C84 C85 1.384 . S
C85 C84 1.384 . S
C85 C86 1.377 . S
C86 H66 0.953 . S
C86 C85 1.377 . S
C86 C87 1.369 . S
C87 H67 0.945 . S
C87 C82 1.385 . S
C87 C86 1.369 . S
C88 C80 1.457 . S
C88 C89 1.372 1_545 S
C88 C93 1.364 1_455 S
C89 H68 0.952 . S
C89 C88 1.372 1_565 S
C89 C90 1.389 . S
C90 H69 0.949 . S
C90 C89 1.389 . S
C90 C91 1.387 1_565 S
C91 C90 1.387 1_545 S
C91 C92 1.372 1_455 S
C92 H70 0.950 . S
C92 C91 1.372 1_655 S
C92 C93 1.379 . S
C93 H71 0.948 . S
C93 C88 1.364 1_655 S
C93 C92 1.379 . S
C94 C63 1.383 . S
C94 C81 1.479 . S
C94 C95 1.398 . S
C95 C60 1.382 . S
C95 H72 0.951 . S
C95 C94 1.398 . S
C96 C97 1.384 . S
C96 H109 0.947 . S
C96 C131 1.382 . S
C97 C96 1.384 . S
C97 C98 1.378 . S
C98 C97 1.378 . S
C98 C99 1.378 . S
C98 H110 0.952 . S
C99 C98 1.378 . S
C99 H111 0.950 . S
C99 C130 1.383 . S
H100 C119 0.947 . S
H101 C120 0.946 . S
H102 C122 0.953 . S
H103 C123 0.945 . S
H104 C125 0.952 . S
H105 C126 0.949 . S
H106 C128 0.950 . S
H107 C129 0.948 . S
H108 C131 0.951 . S
H109 C96 0.947 . S
H110 C98 0.952 . S
H111 C99 0.950 . S
N112 C115 1.382 . S
N112 C117 1.363 1_445 S
N113 C115 1.371 . S
N113 C116 1.372 . S
N114 C116 1.361 1_665 S
N114 C117 1.377 . S
C115 N112 1.382 . S
C115 N113 1.371 . S
C115 C118 1.480 . S
C116 N113 1.372 . S
C116 N114 1.361 1_445 S
C116 C124 1.457 . S
C117 N112 1.363 1_665 S
C117 N114 1.377 . S
C117 C130 1.479 . S
C118 C115 1.480 . S
C118 C119 1.383 . S
C118 C123 1.385 . S
C119 H100 0.947 . S
C119 C118 1.383 . S
C119 C120 1.388 . S
C120 H101 0.946 . S
C120 C119 1.388 . S
C120 C121 1.384 . S
C121 C120 1.384 . S
C121 C122 1.377 . S
C122 H102 0.953 . S
C122 C121 1.377 . S
C122 C123 1.369 . S
C123 H103 0.945 . S
C123 C118 1.385 . S
C123 C122 1.369 . S
C124 C116 1.457 . S
C124 C125 1.372 . S
C124 C129 1.364 1_445 S
C125 H104 0.952 . S
C125 C124 1.372 . S
C125 C126 1.389 . S
C126 H105 0.949 . S
C126 C125 1.389 . S
C126 C127 1.387 . S
C127 C126 1.387 . S
C127 C128 1.372 1_445 S
C128 H106 0.950 . S
C128 C127 1.372 1_665 S
C128 C129 1.379 . S
C129 H107 0.948 . S
C129 C124 1.364 1_665 S
C129 C128 1.379 . S
C130 C99 1.383 . S
C130 C117 1.479 . S
C130 C131 1.398 . S
C131 C96 1.382 . S
C131 H108 0.951 . S
C131 C130 1.398 . S
C132 C133 1.384 . S
C132 H145 0.947 . S
C132 C167 1.382 . S
C133 C132 1.384 . S
C133 C134 1.378 . S
C134 C133 1.378 . S
C134 C135 1.378 . S
C134 H146 0.952 1_556 S
C135 C134 1.378 . S
C135 H147 0.950 . S
C135 C166 1.383 . S
H136 C155 0.947 . S
H137 C156 0.946 1_554 S
H138 C158 0.953 . S
H139 C159 0.945 . S
H140 C161 0.952 . S
H141 C162 0.949 . S
H142 C164 0.950 . S
H143 C165 0.948 . S
H144 C167 0.951 . S
H145 C132 0.947 . S
H146 C134 0.952 1_554 S
H147 C135 0.950 . S
N148 C151 1.382 . S
N148 C153 1.363 . S
N149 C151 1.371 . S
N149 C152 1.372 . S
N150 C152 1.361 . S
N150 C153 1.377 . S
C151 N148 1.382 . S
C151 N149 1.371 . S
C151 C154 1.480 . S
C152 N149 1.372 . S
C152 N150 1.361 . S
C152 C160 1.457 . S
C153 N148 1.363 . S
C153 N150 1.377 . S
C153 C166 1.479 . S
C154 C151 1.480 . S
C154 C155 1.383 . S
C154 C159 1.385 . S
C155 H136 0.947 . S
C155 C154 1.383 . S
C155 C156 1.388 . S
C156 H137 0.946 1_556 S
C156 C155 1.388 . S
C156 C157 1.384 . S
C157 C156 1.384 . S
C157 C158 1.377 . S
C158 H138 0.953 . S
C158 C157 1.377 . S
C158 C159 1.369 . S
C159 H139 0.945 . S
C159 C154 1.385 . S
C159 C158 1.369 . S
C160 C152 1.457 . S
C160 C161 1.372 . S
C160 C165 1.364 . S
C161 H140 0.952 . S
C161 C160 1.372 . S
C161 C162 1.389 . S
C162 H141 0.949 . S
C162 C161 1.389 . S
C162 C163 1.387 . S
C163 C162 1.387 . S
C163 C164 1.372 . S
C164 H142 0.950 . S
C164 C163 1.372 . S
C164 C165 1.379 . S
C165 H143 0.948 . S
C165 C160 1.364 . S
C165 C164 1.379 . S
C166 C135 1.383 . S
C166 C153 1.479 . S
C166 C167 1.398 . S
C167 C132 1.382 . S
C167 H144 0.951 . S
C167 C166 1.398 . S
C168 C169 1.384 . S
C168 H181 0.947 . S
C168 C203 1.382 . S
C169 C168 1.384 . S
C169 C170 1.378 . S
C170 C169 1.378 . S
C170 C171 1.378 . S
C170 H182 0.952 . S
C171 C170 1.378 . S
C171 H183 0.950 . S
C171 C202 1.383 . S
H172 C191 0.947 . S
H173 C192 0.946 . S
H174 C194 0.953 . S
H175 C195 0.945 . S
H176 C197 0.952 . S
H177 C198 0.949 . S
H178 C200 0.950 . S
H179 C201 0.948 . S
H180 C203 0.951 . S
H181 C168 0.947 . S
H182 C170 0.952 . S
H183 C171 0.950 . S
N184 C187 1.382 . S
N184 C189 1.363 . S
N185 C187 1.371 . S
N185 C188 1.372 . S
N186 C188 1.361 . S
N186 C189 1.377 . S
C187 N184 1.382 . S
C187 N185 1.371 . S
C187 C190 1.480 . S
C188 N185 1.372 . S
C188 N186 1.361 . S
C188 C196 1.457 . S
C189 N184 1.363 . S
C189 N186 1.377 . S
C189 C202 1.479 . S
C190 C187 1.480 . S
C190 C191 1.383 . S
C190 C195 1.385 . S
C191 H172 0.947 . S
C191 C190 1.383 . S
C191 C192 1.388 . S
C192 H173 0.946 . S
C192 C191 1.388 . S
C192 C193 1.384 . S
C193 C192 1.384 . S
C193 C194 1.377 . S
C194 H174 0.953 . S
C194 C193 1.377 . S
C194 C195 1.369 . S
C195 H175 0.945 . S
C195 C190 1.385 . S
C195 C194 1.369 . S
C196 C188 1.457 . S
C196 C197 1.372 . S
C196 C201 1.364 . S
C197 H176 0.952 . S
C197 C196 1.372 . S
C197 C198 1.389 . S
C198 H177 0.949 . S
C198 C197 1.389 . S
C198 C199 1.387 . S
C199 C198 1.387 . S
C199 C200 1.372 . S
C200 H178 0.950 . S
C200 C199 1.372 . S
C200 C201 1.379 . S
C201 H179 0.948 . S
C201 C196 1.364 . S
C201 C200 1.379 . S
C202 C171 1.383 . S
C202 C189 1.479 . S
C202 C203 1.398 . S
C203 C168 1.382 . S
C203 H180 0.951 . S
C203 C202 1.398 . S
C204 C205 1.386 1_556 S
C204 C206 1.383 1_556 S
C204 H220 0.951 . S
C205 C204 1.386 1_554 S
C205 C209 1.383 . S
C206 C204 1.383 1_554 S
C206 C207 1.402 . S
C206 H221 0.951 1_554 S
C207 C206 1.402 . S
C207 C208 1.375 . S
C207 C210 1.481 . S
C208 C207 1.375 . S
C208 C209 1.367 . S
C208 H222 0.951 . S
C209 C205 1.383 . S
C209 C208 1.367 . S
C209 H223 0.950 . S
C210 C207 1.481 . S
C210 C211 1.297 . S
C210 H224 0.950 . S
C211 C210 1.297 . S
C211 C212 1.479 . S
C211 H225 0.950 . S
C212 C211 1.479 . S
C212 C213 1.375 . S
C212 C218 1.404 . S
C213 C212 1.375 . S
C213 C214 1.369 . S
C213 H226 0.950 1_554 S
C214 C213 1.369 . S
C214 C215 1.392 . S
C214 H227 0.951 1_554 S
C215 C214 1.392 . S
C215 C217 1.384 . S
H216 C218 0.949 . S
C217 C215 1.384 . S
C217 C218 1.385 . S
C217 H219 0.950 . S
C218 C212 1.404 . S
C218 H216 0.949 . S
C218 C217 1.385 . S
H219 C217 0.950 . S
H220 C204 0.951 . S
H221 C206 0.951 1_556 S
H222 C208 0.951 . S
H223 C209 0.950 . S
H224 C210 0.950 . S
H225 C211 0.950 . S
H226 C213 0.950 1_556 S
H227 C214 0.951 1_556 S
C228 C229 1.386 1_556 S
C228 C230 1.383 . S
C228 H244 0.951 . S
C229 C228 1.386 1_554 S
C229 C233 1.383 . S
C230 C228 1.383 . S
C230 C231 1.402 1_556 S
C230 H245 0.951 . S
C231 C230 1.402 1_554 S
C231 C232 1.375 . S
C231 C234 1.481 . S
C232 C231 1.375 . S
C232 C233 1.367 . S
C232 H246 0.951 . S
C233 C229 1.383 . S
C233 C232 1.367 . S
C233 H247 0.950 . S
C234 C231 1.481 . S
C234 C235 1.297 . S
C234 H248 0.950 . S
C235 C234 1.297 . S
C235 C236 1.480 . S
C235 H249 0.950 1_554 S
C236 C235 1.480 . S
C236 C237 1.358 1_554 S
C236 C242 1.419 . S
C237 C236 1.358 1_556 S
C237 C238 1.369 . S
C237 H250 0.950 . S
C238 C237 1.369 . S
C238 C239 1.392 . S
C238 H251 0.951 . S
C239 C238 1.392 . S
C239 C241 1.384 1_556 S
H240 C242 0.949 . S
C241 C239 1.384 1_554 S
C241 C242 1.385 . S
C241 H243 0.950 . S
C242 C236 1.419 . S
C242 H240 0.949 . S
C242 C241 1.385 . S
H243 C241 0.950 . S
H244 C228 0.951 . S
H245 C230 0.951 . S
H246 C232 0.951 . S
H247 C233 0.950 . S
H248 C234 0.950 . S
H249 C235 0.950 1_556 S
H250 C237 0.950 . S
H251 C238 0.951 . S
C252 C253 1.386 1_556 S
C252 C254 1.383 1_556 S
C252 H268 0.951 . S
C253 C252 1.386 1_554 S
C253 C257 1.383 . S
C254 C252 1.383 1_554 S
C254 C255 1.402 . S
C254 H269 0.951 1_554 S
C255 C254 1.402 . S
C255 C256 1.375 . S
C255 C258 1.481 . S
C256 C255 1.375 . S
C256 C257 1.367 . S
C256 H270 0.951 . S
C257 C253 1.383 . S
C257 C256 1.367 . S
C257 H271 0.950 . S
C258 C255 1.481 . S
C258 C259 1.297 . S
C258 H272 0.950 . S
C259 C258 1.297 . S
C259 C260 1.479 . S
C259 H273 0.950 1_554 S
C260 C259 1.479 . S
C260 C261 1.375 . S
C260 C266 1.404 . S
C261 C260 1.375 . S
C261 C262 1.369 . S
C261 H274 0.950 1_554 S
C262 C261 1.369 . S
C262 C263 1.392 . S
C262 H275 0.949 1_554 S
C263 C262 1.392 . S
C263 C265 1.384 . S
H264 C266 0.949 . S
C265 C263 1.384 . S
C265 C266 1.385 . S
C265 H267 0.950 . S
C266 C260 1.404 . S
C266 H264 0.949 . S
C266 C265 1.385 . S
H267 C265 0.950 . S
H268 C252 0.951 . S
H269 C254 0.951 1_556 S
H270 C256 0.951 . S
H271 C257 0.950 . S
H272 C258 0.950 . S
H273 C259 0.950 1_556 S
H274 C261 0.950 1_556 S
H275 C262 0.949 1_556 S
C276 C277 1.386 1_556 S
C276 C278 1.383 . S
C276 H292 0.951 . S
C277 C276 1.386 1_554 S
C277 C281 1.383 . S
C278 C276 1.383 . S
C278 C279 1.402 1_556 S
C278 H293 0.951 . S
C279 C278 1.402 1_554 S
C279 C280 1.375 . S
C279 C282 1.481 . S
C280 C279 1.375 . S
C280 C281 1.367 . S
C280 H294 0.951 . S
C281 C277 1.383 . S
C281 C280 1.367 . S
C281 H295 0.950 . S
C282 C279 1.481 . S
C282 C283 1.297 . S
C282 H296 0.950 . S
C283 C282 1.297 . S
C283 C284 1.477 1_554 S
C283 H297 0.950 1_554 S
C284 C283 1.477 1_556 S
C284 C285 1.397 . S
C284 C290 1.387 1_556 S
C285 C284 1.397 . S
C285 C286 1.369 . S
C285 H298 0.950 . S
C286 C285 1.369 . S
C286 C287 1.392 . S
C286 H299 0.951 . S
C287 C286 1.392 . S
C287 C289 1.384 1_556 S
H288 C290 0.949 . S
C289 C287 1.384 1_554 S
C289 C290 1.385 . S
C289 H291 0.950 . S
C290 C284 1.387 1_554 S
C290 H288 0.949 . S
C290 C289 1.385 . S
H291 C289 0.950 . S
H292 C276 0.951 . S
H293 C278 0.951 . S
H294 C280 0.951 . S
H295 C281 0.950 . S
H296 C282 0.950 . S
H297 C283 0.950 1_556 S
H298 C285 0.950 . S
H299 C286 0.951 . S
C300 C301 1.386 . S
C300 C302 1.383 . S
C300 H316 0.951 . S
C301 C300 1.386 . S
C301 C305 1.383 . S
C302 C300 1.383 . S
C302 C303 1.402 . S
C302 H317 0.951 . S
C303 C302 1.402 . S
C303 C304 1.375 . S
C303 C306 1.481 . S
C304 C303 1.375 . S
C304 C305 1.367 . S
C304 H318 0.951 . S
C305 C301 1.383 . S
C305 C304 1.367 . S
C305 H319 0.950 . S
C306 C303 1.481 . S
C306 C307 1.297 . S
C306 H320 0.950 . S
C307 C306 1.297 . S
C307 C308 1.479 . S
C307 H321 0.950 . S
C308 C307 1.479 . S
C308 C309 1.375 . S
C308 C314 1.404 . S
C309 C308 1.375 . S
C309 C310 1.369 . S
C309 H322 0.950 . S
C310 C309 1.369 . S
C310 C311 1.392 . S
C310 H323 0.951 . S
C311 C310 1.392 . S
C311 C313 1.384 . S
H312 C314 0.949 . S
C313 C311 1.384 . S
C313 C314 1.385 . S
C313 H315 0.950 . S
C314 C308 1.404 . S
C314 H312 0.949 . S
C314 C313 1.385 . S
H315 C313 0.950 . S
H316 C300 0.951 . S
H317 C302 0.951 . S
H318 C304 0.951 . S
H319 C305 0.950 . S
H320 C306 0.950 . S
H321 C307 0.950 . S
H322 C309 0.950 . S
H323 C310 0.951 . S
C324 C325 1.386 . S
C324 C326 1.383 . S
C324 H340 0.951 . S
C325 C324 1.386 . S
C325 C329 1.383 . S
C326 C324 1.383 . S
C326 C327 1.402 . S
C326 H341 0.951 . S
C327 C326 1.402 . S
C327 C328 1.375 . S
C327 C330 1.481 . S
C328 C327 1.375 . S
C328 C329 1.367 . S
C328 H342 0.951 . S
C329 C325 1.383 . S
C329 C328 1.367 . S
C329 H343 0.950 . S
C330 C327 1.481 . S
C330 C331 1.297 . S
C330 H344 0.950 . S
C331 C330 1.297 . S
C331 C332 1.479 . S
C331 H345 0.950 . S
C332 C331 1.479 . S
C332 C333 1.375 . S
C332 C338 1.404 . S
C333 C332 1.375 . S
C333 C334 1.369 . S
C333 H346 0.950 . S
C334 C333 1.369 . S
C334 C335 1.392 . S
C334 H347 0.951 . S
C335 C334 1.392 . S
C335 C337 1.384 . S
H336 C338 0.949 . S
C337 C335 1.384 . S
C337 C338 1.385 . S
C337 H339 0.950 . S
C338 C332 1.404 . S
C338 H336 0.949 . S
C338 C337 1.385 . S
H339 C337 0.950 . S
H340 C324 0.951 . S
H341 C326 0.951 . S
H342 C328 0.951 . S
H343 C329 0.950 . S
H344 C330 0.950 . S
H345 C331 0.950 . S
H346 C333 0.950 . S
H347 C334 0.951 . S
C348 C349 1.386 . S
C348 C350 1.383 . S
C348 H364 0.951 . S
C349 C348 1.386 . S
C349 C353 1.383 . S
C350 C348 1.383 . S
C350 C351 1.402 . S
C350 H365 0.951 . S
C351 C350 1.402 . S
C351 C352 1.375 . S
C351 C354 1.481 . S
C352 C351 1.375 . S
C352 C353 1.367 . S
C352 H366 0.951 . S
C353 C349 1.383 . S
C353 C352 1.367 . S
C353 H367 0.950 . S
C354 C351 1.481 . S
C354 C355 1.297 . S
C354 H368 0.950 . S
C355 C354 1.297 . S
C355 C356 1.479 . S
C355 H369 0.950 . S
C356 C355 1.479 . S
C356 C357 1.375 . S
C356 C362 1.404 . S
C357 C356 1.375 . S
C357 C358 1.369 . S
C357 H370 0.950 . S
C358 C357 1.369 . S
C358 C359 1.392 . S
C358 H371 0.951 . S
C359 C358 1.392 . S
C359 C361 1.384 . S
H360 C362 0.949 . S
C361 C359 1.384 . S
C361 C362 1.385 . S
C361 H363 0.950 . S
C362 C356 1.404 . S
C362 H360 0.949 . S
C362 C361 1.385 . S
H363 C361 0.950 . S
H364 C348 0.951 . S
H365 C350 0.951 . S
H366 C352 0.951 . S
H367 C353 0.950 . S
H368 C354 0.950 . S
H369 C355 0.950 . S
H370 C357 0.950 . S
H371 C358 0.951 . S
C372 C373 1.386 . S
C372 C374 1.383 . S
C372 H388 0.951 . S
C373 C372 1.386 . S
C373 C377 1.383 . S
C374 C372 1.383 . S
C374 C375 1.402 . S
C374 H389 0.951 . S
C375 C374 1.402 . S
C375 C376 1.375 . S
C375 C378 1.481 . S
C376 C375 1.375 . S
C376 C377 1.367 . S
C376 H390 0.951 . S
C377 C373 1.383 . S
C377 C376 1.367 . S
C377 H391 0.950 . S
C378 C375 1.481 . S
C378 C379 1.297 . S
C378 H392 0.950 . S
C379 C378 1.297 . S
C379 C380 1.479 . S
C379 H393 0.950 . S
C380 C379 1.479 . S
C380 C381 1.375 . S
C380 C386 1.404 . S
C381 C380 1.375 . S
C381 C382 1.369 . S
C381 H394 0.950 . S
C382 C381 1.369 . S
C382 C383 1.392 . S
C382 H395 0.951 . S
C383 C382 1.392 . S
C383 C385 1.384 . S
H384 C386 0.949 . S
C385 C383 1.384 . S
C385 C386 1.385 . S
C385 H387 0.950 . S
C386 C380 1.404 . S
C386 H384 0.949 . S
C386 C385 1.385 . S
H387 C385 0.950 . S
H388 C372 0.951 . S
H389 C374 0.951 . S
H390 C376 0.951 . S
H391 C377 0.950 . S
H392 C378 0.950 . S
H393 C379 0.950 . S
H394 C381 0.950 . S
H395 C382 0.951 . S
C396 C397 1.394 . S
C396 C398 1.384 . S
C396 H412 0.941 1_545 S
C397 C396 1.394 . S
C397 C401 1.383 1_455 S
C398 C396 1.384 . S
C398 C399 1.402 1_455 S
C398 H413 0.951 1_545 S
C399 C398 1.402 1_655 S
C399 C400 1.375 . S
C399 C402 1.481 . S
C400 C399 1.375 . S
C400 C401 1.367 . S
C400 H414 0.951 . S
C401 C397 1.383 1_655 S
C401 C400 1.367 . S
C401 H415 0.950 . S
C402 C399 1.481 . S
C402 C403 1.297 1_655 S
C402 H416 0.950 . S
C403 C402 1.297 1_455 S
C403 C404 1.479 . S
C403 H417 0.950 . S
C404 C403 1.479 . S
C404 C405 1.375 . S
C404 C410 1.404 1_455 S
C405 C404 1.375 . S
C405 C406 1.369 1_545 S
C405 H418 0.950 1_545 S
C406 C405 1.369 1_565 S
C406 C407 1.392 1_565 S
C406 H419 0.951 . S
C407 C406 1.392 1_545 S
C407 C409 1.384 1_455 S
H408 C410 0.949 . S
C409 C407 1.384 1_655 S
C409 C410 1.385 . S
C409 H411 0.950 . S
C410 C404 1.404 1_655 S
C410 H408 0.949 . S
C410 C409 1.385 . S
H411 C409 0.950 . S
H412 C396 0.941 1_565 S
H413 C398 0.951 1_565 S
H414 C400 0.951 . S
H415 C401 0.950 . S
H416 C402 0.950 . S
H417 C403 0.950 . S
H418 C405 0.950 1_565 S
H419 C406 0.951 . S
C420 C421 1.386 1_665 S
C420 C422 1.383 . S
C420 H436 0.951 . S
C421 C420 1.386 1_445 S
C421 C425 1.383 . S
C422 C420 1.383 . S
C422 C423 1.402 1_665 S
C422 H437 0.951 . S
C423 C422 1.402 1_445 S
C423 C424 1.375 . S
C423 C426 1.481 . S
C424 C423 1.375 . S
C424 C425 1.367 . S
C424 H438 0.951 . S
C425 C421 1.383 . S
C425 C424 1.367 . S
C425 H439 0.950 . S
C426 C423 1.481 . S
C426 C427 1.297 1_455 S
C426 H440 0.950 . S
C427 C426 1.297 1_655 S
C427 C428 1.479 . S
C427 H441 0.950 . S
C428 C427 1.479 . S
C428 C429 1.375 1_545 S
C428 C434 1.404 1_655 S
C429 C428 1.375 1_565 S
C429 C430 1.369 . S
C429 H442 0.950 . S
C430 C429 1.369 . S
C430 C431 1.386 1_665 S
C430 H443 0.951 . S
C431 C430 1.386 1_445 S
C431 C433 1.389 . S
H432 C434 0.949 . S
C433 C431 1.389 . S
C433 C434 1.385 . S
C433 H435 0.950 . S
C434 C428 1.404 1_455 S
C434 H432 0.949 . S
C434 C433 1.385 . S
H435 C433 0.950 . S
H436 C420 0.951 . S
H437 C422 0.951 . S
H438 C424 0.951 . S
H439 C425 0.950 . S
H440 C426 0.950 . S
H441 C427 0.950 . S
H442 C429 0.950 . S
H443 C430 0.951 . S
C444 C445 1.386 . S
C444 C446 1.383 . S
C444 H460 0.951 . S
C445 C444 1.386 . S
C445 C449 1.383 . S
C446 C444 1.383 . S
C446 C447 1.402 . S
C446 H461 0.951 . S
C447 C446 1.402 . S
C447 C448 1.375 . S
C447 C450 1.481 . S
C448 C447 1.375 . S
C448 C449 1.367 . S
C448 H462 0.951 . S
C449 C445 1.383 . S
C449 C448 1.367 . S
C449 H463 0.950 . S
C450 C447 1.481 . S
C450 C451 1.297 . S
C450 H464 0.950 . S
C451 C450 1.297 . S
C451 C452 1.479 . S
C451 H465 0.950 . S
C452 C451 1.479 . S
C452 C453 1.375 . S
C452 C458 1.404 . S
C453 C452 1.375 . S
C453 C454 1.369 . S
C453 H466 0.950 . S
C454 C453 1.369 . S
C454 C455 1.392 . S
C454 H467 0.951 . S
C455 C454 1.392 . S
C455 C457 1.384 . S
H456 C458 0.949 . S
C457 C455 1.384 . S
C457 C458 1.385 . S
C457 H459 0.950 . S
C458 C452 1.404 . S
C458 H456 0.949 . S
C458 C457 1.385 . S
H459 C457 0.950 . S
H460 C444 0.951 . S
H461 C446 0.951 . S
H462 C448 0.951 . S
H463 C449 0.950 . S
H464 C450 0.950 . S
H465 C451 0.950 . S
H466 C453 0.950 . S
H467 C454 0.951 . S
C468 C469 1.386 . S
C468 C470 1.383 . S
C468 H484 0.951 . S
C469 C468 1.386 . S
C469 C473 1.383 . S
C470 C468 1.383 . S
C470 C471 1.402 . S
C470 H485 0.951 . S
C471 C470 1.402 . S
C471 C472 1.375 . S
C471 C474 1.481 . S
C472 C471 1.375 . S
C472 C473 1.367 . S
C472 H486 0.951 . S
C473 C469 1.383 . S
C473 C472 1.367 . S
C473 H487 0.950 . S
C474 C471 1.481 . S
C474 C475 1.297 . S
C474 H488 0.950 . S
C475 C474 1.297 . S
C475 C476 1.479 . S
C475 H489 0.950 . S
C476 C475 1.479 . S
C476 C477 1.375 . S
C476 C482 1.404 . S
C477 C476 1.375 . S
C477 C478 1.369 . S
C477 H490 0.950 . S
C478 C477 1.369 . S
C478 C479 1.392 . S
C478 H491 0.951 . S
C479 C478 1.392 . S
C479 C481 1.384 . S
H480 C482 0.949 . S
C481 C479 1.384 . S
C481 C482 1.385 . S
C481 H483 0.950 . S
C482 C476 1.404 . S
C482 H480 0.949 . S
C482 C481 1.385 . S
H483 C481 0.950 . S
H484 C468 0.951 . S
H485 C470 0.951 . S
H486 C472 0.951 . S
H487 C473 0.950 . S
H488 C474 0.950 . S
H489 C475 0.950 . S
H490 C477 0.950 . S
H491 C478 0.951 . S
C215 C169 1.417 . S
C205 C27 1.439 . S
C229 N6 1.377 . S
C239 C133 1.372 . S
C253 C16 1.425 . S
C263 C193 1.397 . S
C277 N14 1.350 . S
C287 C157 1.379 . S
C301 C57 1.439 . S
C311 C97 1.399 . S
C325 N36 1.324 . S
C335 C61 1.370 . S
C359 C121 1.326 . S
C349 C46 1.419 . S
C383 C85 1.376 . S
C373 N44 1.373 . S
C397 C10 1.390 . S
C407 C91 1.357 . S
C421 C1 1.521 . S
C431 C127 1.529 . S
C455 C163 1.392 . S
C445 C40 1.377 . S
C469 C31 1.524 . S
C479 C199 1.499 . S
