# Generated by pormake.
# Topology sqc, (4,8)-cn, num edge types: 1
# Building blocks:
#     Node 0, Type 0, BuildingBlock: NAWXER_clean_linker_0, # of connection points: 4
#     Node 1, Type 0, BuildingBlock: NAWXER_clean_linker_0, # of connection points: 4
#     Node 2, Type 0, BuildingBlock: NAWXER_clean_linker_0, # of connection points: 4
#     Node 3, Type 0, BuildingBlock: NAWXER_clean_linker_0, # of connection points: 4
#     Node 4, Type 0, BuildingBlock: NAWXER_clean_linker_0, # of connection points: 4
#     Node 5, Type 0, BuildingBlock: NAWXER_clean_linker_0, # of connection points: 4
#     Node 6, Type 0, BuildingBlock: NAWXER_clean_linker_0, # of connection points: 4
#     Node 7, Type 0, BuildingBlock: NAWXER_clean_linker_0, # of connection points: 4
#     Node 8, Type 1, BuildingBlock: VETTIZ_charged_sbu_0, # of connection points: 8
#     Node 9, Type 1, BuildingBlock: VETTIZ_charged_sbu_0, # of connection points: 8
#     Node 10, Type 1, BuildingBlock: VETTIZ_charged_sbu_0, # of connection points: 8
#     Node 11, Type 1, BuildingBlock: VETTIZ_charged_sbu_0, # of connection points: 8
#     Edge 12, Type (0, 1), BuildingBlock: XUDNAN_clean_linker_2, # of connection points: 2
#     Edge 13, Type (0, 1), BuildingBlock: XUDNAN_clean_linker_2, # of connection points: 2
#     Edge 14, Type (0, 1), BuildingBlock: XUDNAN_clean_linker_2, # of connection points: 2
#     Edge 15, Type (0, 1), BuildingBlock: XUDNAN_clean_linker_2, # of connection points: 2
#     Edge 16, Type (0, 1), BuildingBlock: XUDNAN_clean_linker_2, # of connection points: 2
#     Edge 17, Type (0, 1), BuildingBlock: XUDNAN_clean_linker_2, # of connection points: 2
#     Edge 18, Type (0, 1), BuildingBlock: XUDNAN_clean_linker_2, # of connection points: 2
#     Edge 19, Type (0, 1), BuildingBlock: XUDNAN_clean_linker_2, # of connection points: 2
#     Edge 20, Type (0, 1), BuildingBlock: XUDNAN_clean_linker_2, # of connection points: 2
#     Edge 21, Type (0, 1), BuildingBlock: XUDNAN_clean_linker_2, # of connection points: 2
#     Edge 22, Type (0, 1), BuildingBlock: XUDNAN_clean_linker_2, # of connection points: 2
#     Edge 23, Type (0, 1), BuildingBlock: XUDNAN_clean_linker_2, # of connection points: 2
#     Edge 24, Type (0, 1), BuildingBlock: XUDNAN_clean_linker_2, # of connection points: 2
#     Edge 25, Type (0, 1), BuildingBlock: XUDNAN_clean_linker_2, # of connection points: 2
#     Edge 26, Type (0, 1), BuildingBlock: XUDNAN_clean_linker_2, # of connection points: 2
#     Edge 27, Type (0, 1), BuildingBlock: XUDNAN_clean_linker_2, # of connection points: 2
#     Edge 28, Type (0, 1), BuildingBlock: XUDNAN_clean_linker_2, # of connection points: 2
#     Edge 29, Type (0, 1), BuildingBlock: XUDNAN_clean_linker_2, # of connection points: 2
#     Edge 30, Type (0, 1), BuildingBlock: XUDNAN_clean_linker_2, # of connection points: 2
#     Edge 31, Type (0, 1), BuildingBlock: XUDNAN_clean_linker_2, # of connection points: 2
#     Edge 32, Type (0, 1), BuildingBlock: XUDNAN_clean_linker_2, # of connection points: 2
#     Edge 33, Type (0, 1), BuildingBlock: XUDNAN_clean_linker_2, # of connection points: 2
#     Edge 34, Type (0, 1), BuildingBlock: XUDNAN_clean_linker_2, # of connection points: 2
#     Edge 35, Type (0, 1), BuildingBlock: XUDNAN_clean_linker_2, # of connection points: 2
#     Edge 36, Type (0, 1), BuildingBlock: XUDNAN_clean_linker_2, # of connection points: 2
#     Edge 37, Type (0, 1), BuildingBlock: XUDNAN_clean_linker_2, # of connection points: 2
#     Edge 38, Type (0, 1), BuildingBlock: XUDNAN_clean_linker_2, # of connection points: 2
#     Edge 39, Type (0, 1), BuildingBlock: XUDNAN_clean_linker_2, # of connection points: 2
#     Edge 40, Type (0, 1), BuildingBlock: XUDNAN_clean_linker_2, # of connection points: 2
#     Edge 41, Type (0, 1), BuildingBlock: XUDNAN_clean_linker_2, # of connection points: 2
#     Edge 42, Type (0, 1), BuildingBlock: XUDNAN_clean_linker_2, # of connection points: 2
#     Edge 43, Type (0, 1), BuildingBlock: XUDNAN_clean_linker_2, # of connection points: 2
# Relax obj value: 0.124
# Max RMSD: 0.266
# Mean RMSD: 0.155
data_MOF--net-sqc--node1-VETTIZ_charged_sbu_0--node2-NAWXER_clean_linker_0--edge1-XUDNAN_clean_linker_2
_symmetry_space_group_name_H-M    P1
_symmetry_Int_Tables_number       1
_symmetry_cell_setting            triclinic
loop_
_symmetry_equiv_pos_as_xyz
'x, y, z'
_cell_length_a     27.963243
_cell_length_b     28.054489
_cell_length_c     83.88677
_cell_angle_alpha  90.088033
_cell_angle_beta   90.058599
_cell_angle_gamma 89.949158
loop_
_atom_site_label
_atom_site_type_symbol
_atom_site_fract_x
_atom_site_fract_y
_atom_site_fract_z
_atom_type_partial_charge
C0 C 0.17838 0.01144 0.48279 0.0
C1 C 0.18778 0.96671 0.47585 0.0
C2 C 0.13864 0.01805 0.49271 0.0
C3 C 0.10727 0.98011 0.49592 0.0
C4 C 0.15655 0.92868 0.47917 0.0
C5 C 0.1165 0.93546 0.48896 0.0
C6 C 0.06343 0.98759 0.50569 0.0
C7 C 0.18564 0.99929 0.53973 0.0
C8 C 0.19071 0.04363 0.54731 0.0
C9 C 0.14451 0.98901 0.53092 0.0
C10 C 0.10803 0.02322 0.52924 0.0
C11 C 0.15409 0.07774 0.5457 0.0
C12 C 0.11308 0.06753 0.53681 0.0
C13 C 0.06344 0.0118 0.5205 0.0
C14 C 0.85401 0.99852 0.54012 0.0
C15 C 0.84548 0.04548 0.54546 0.0
C16 C 0.89737 0.98595 0.53291 0.0
C17 C 0.93293 0.02032 0.5301 0.0
C18 C 0.88216 0.07938 0.54327 0.0
C19 C 0.92517 0.06695 0.53567 0.0
C20 C 0.97794 0.00805 0.52136 0.0
C21 C 0.85537 0.97476 0.48851 0.0
C22 C 0.84998 0.92527 0.48653 0.0
C23 C 0.89748 0.99337 0.49494 0.0
C24 C 0.93473 0.96274 0.49947 0.0
C25 C 0.88769 0.89482 0.49084 0.0
C26 C 0.92992 0.91348 0.49714 0.0
C27 C 0.97843 0.98141 0.50701 0.0
H28 H 0.20178 0.04142 0.48053 0.0
H29 H 0.13191 0.05315 0.49762 0.0
H30 H 0.16239 0.89394 0.47386 0.0
H31 H 0.09266 0.90574 0.49111 0.0
H32 H 0.21285 0.97205 0.54099 0.0
H33 H 0.14082 0.95387 0.5257 0.0
H34 H 0.15719 0.11242 0.55129 0.0
H35 H 0.0853 0.09432 0.53581 0.0
H36 H 0.82705 0.97113 0.5413 0.0
H37 H 0.90276 0.9492 0.52942 0.0
H38 H 0.87804 0.11556 0.54753 0.0
H39 H 0.95222 0.09409 0.53395 0.0
H40 H 0.82678 0.99898 0.48528 0.0
H41 H 0.90082 0.03156 0.49652 0.0
H42 H 0.88471 0.85663 0.48919 0.0
H43 H 0.9585 0.88939 0.50051 0.0
N44 N 0.02091 0.97252 0.4997 0.0
N45 N 0.02071 0.02198 0.52759 0.0
C46 C 0.33332 0.59407 0.75665 0.0
C47 C 0.32617 0.58366 0.74042 0.0
C48 C 0.31888 0.63778 0.76294 0.0
C49 C 0.29539 0.6713 0.75328 0.0
C50 C 0.3029 0.61748 0.73076 0.0
C51 C 0.28756 0.66073 0.73715 0.0
C52 C 0.28252 0.71895 0.75944 0.0
C53 C 0.19883 0.61283 0.78781 0.0
C54 C 0.21681 0.60668 0.80335 0.0
C55 C 0.21249 0.65215 0.7786 0.0
C56 C 0.24423 0.68646 0.78472 0.0
C57 C 0.24784 0.6416 0.80957 0.0
C58 C 0.26097 0.68134 0.80041 0.0
C59 C 0.26126 0.72647 0.77453 0.0
C60 C 0.20436 0.92993 0.77409 0.0
C61 C 0.22813 0.94956 0.78736 0.0
C62 C 0.21686 0.88483 0.76837 0.0
C63 C 0.2528 0.85837 0.77595 0.0
C64 C 0.26529 0.92323 0.79454 0.0
C65 C 0.27693 0.87773 0.78905 0.0
C66 C 0.26528 0.81048 0.7702 0.0
C67 C 0.33522 0.91913 0.73814 0.0
C68 C 0.31968 0.91689 0.72219 0.0
C69 C 0.32471 0.88216 0.74881 0.0
C70 C 0.29801 0.8423 0.74383 0.0
C71 C 0.29453 0.8761 0.71713 0.0
C72 C 0.284 0.83928 0.72779 0.0
C73 C 0.28549 0.80293 0.75499 0.0
H74 H 0.35076 0.56879 0.76447 0.0
H75 H 0.32723 0.64568 0.77526 0.0
H76 H 0.29781 0.61133 0.71813 0.0
H77 H 0.27022 0.68633 0.72939 0.0
H78 H 0.175 0.58661 0.78263 0.0
H79 H 0.19868 0.65548 0.76658 0.0
H80 H 0.26183 0.63827 0.82156 0.0
H81 H 0.28532 0.70738 0.80543 0.0
H82 H 0.17507 0.94858 0.7684 0.0
H83 H 0.19783 0.87014 0.75824 0.0
H84 H 0.28523 0.93752 0.80453 0.0
H85 H 0.30516 0.85785 0.7949 0.0
H86 H 0.35466 0.9499 0.74248 0.0
H87 H 0.33762 0.88476 0.76095 0.0
H88 H 0.28288 0.87256 0.70487 0.0
H89 H 0.26412 0.80866 0.72354 0.0
N90 N 0.29324 0.75734 0.75022 0.0
N91 N 0.25389 0.77216 0.77943 0.0
C92 C 0.35481 0.05852 0.99212 0.0
C93 C 0.34799 0.10815 0.99132 0.0
C94 C 0.39699 0.03964 0.9984 0.0
C95 C 0.43293 0.07003 0.00415 0.0
C96 C 0.384 0.13848 0.99713 0.0
C97 C 0.42625 0.11954 1.00339 0.0
C98 C 0.47829 0.05066 0.01042 0.0
C99 C 0.36042 0.00675 0.04392 0.0
C100 C 0.35139 0.95751 0.04294 0.0
C101 C 0.40254 0.02604 0.03759 0.0
C102 C 0.43665 0.99639 0.03028 0.0
C103 C 0.38602 0.92788 0.03585 0.0
C104 C 0.4284 0.94709 0.02974 0.0
C105 C 0.48023 0.0165 0.02275 0.0
C106 C 0.6877 0.02806 0.04132 0.0
C107 C 0.69437 0.98157 0.04704 0.0
C108 C 0.64621 0.03995 0.03292 0.0
C109 C 0.61117 1.00524 0.02967 0.0
C110 C 0.65932 0.9469 0.04386 0.0
C111 C 0.61813 0.95865 0.03527 0.0
C112 C 0.56561 0.01825 0.02167 0.0
C113 C 0.67991 0.04495 0.98522 0.0
C114 C 0.68834 0.09349 0.98223 0.0
C115 C 0.63934 0.03061 0.99374 0.0
C116 C 0.60628 0.06453 0.99934 0.0
C117 C 0.65467 0.12724 0.98756 0.0
C118 C 0.61382 0.11285 0.99587 0.0
C119 C 0.56341 0.04971 0.00852 0.0
H120 H 0.3276 0.03426 0.98779 0.0
H121 H 0.40178 1.00133 0.99856 0.0
H122 H 0.38005 0.17683 0.99646 0.0
H123 H 0.45379 0.14356 0.00764 0.0
H124 H 0.33442 0.03049 0.04929 0.0
H125 H 0.40832 0.06416 0.03829 0.0
H126 H 0.38042 0.88974 0.03511 0.0
H127 H 0.45428 0.92353 0.02421 0.0
H128 H 0.71372 0.05563 0.04386 0.0
H129 H 0.64101 0.07669 0.02939 0.0
H130 H 0.6637 0.91069 0.04809 0.0
H131 H 0.5915 0.93136 0.0331 0.0
H132 H 0.70526 0.01818 0.9813 0.0
H133 H 0.63382 0.993 0.99597 0.0
H134 H 0.65995 0.16486 0.98527 0.0
H135 H 0.58859 0.13959 0.99991 0.0
N136 N 0.51985 0.06558 1.00366 0.0
N137 N 0.52388 1.00193 0.02803 0.0
C138 C 0.22158 0.09317 0.24583 0.0
C139 C 0.17235 0.08646 0.24329 0.0
C140 C 0.23868 0.13659 0.25166 0.0
C141 C 0.20675 0.17389 0.25501 0.0
C142 C 0.1405 0.12375 0.2468 0.0
C143 C 0.15764 0.16726 0.25248 0.0
C144 C 0.22424 0.22065 0.26049 0.0
C145 C 0.24562 0.11364 0.2992 0.0
C146 C 0.29401 0.10479 0.30276 0.0
C147 C 0.23216 0.15381 0.29037 0.0
C148 C 0.26678 0.18585 0.28464 0.0
C149 C 0.32843 0.13795 0.29753 0.0
C150 C 0.31492 0.17808 0.28863 0.0
C151 C 0.25305 0.22656 0.27419 0.0
C152 C 0.24375 0.43982 0.28253 0.0
C153 C 0.28913 0.44859 0.28916 0.0
C154 C 0.23231 0.39509 0.27637 0.0
C155 C 0.26663 0.35851 0.27594 0.0
C156 C 0.32314 0.41148 0.28908 0.0
C157 C 0.31201 0.367 0.2825 0.0
C158 C 0.25442 0.31075 0.26952 0.0
C159 C 0.23185 0.41327 0.22832 0.0
C160 C 0.18443 0.41546 0.22271 0.0
C161 C 0.24596 0.37752 0.23904 0.0
C162 C 0.21274 0.34366 0.24455 0.0
C163 C 0.15137 0.38168 0.22837 0.0
C164 C 0.16542 0.34613 0.23904 0.0
C165 C 0.22687 0.30432 0.2555 0.0
H166 H 0.24683 0.06492 0.24321 0.0
H167 H 0.27681 0.14131 0.25332 0.0
H168 H 0.10248 0.11974 0.24471 0.0
H169 H 0.13255 0.19583 0.25489 0.0
H170 H 0.218 0.08961 0.30332 0.0
H171 H 0.19459 0.1596 0.28789 0.0
H172 H 0.36605 0.13226 0.29995 0.0
H173 H 0.3423 0.20233 0.28445 0.0
H174 H 0.21665 0.46736 0.28218 0.0
H175 H 0.19626 0.38914 0.2721 0.0
H176 H 0.35805 0.41624 0.29443 0.0
H177 H 0.33882 0.33909 0.28262 0.0
H178 H 0.25836 0.43833 0.22408 0.0
H179 H 0.28296 0.37589 0.24282 0.0
H180 H 0.11438 0.38267 0.22454 0.0
H181 H 0.13907 0.32057 0.24308 0.0
N182 N 0.2124 0.25953 0.25171 0.0
N183 N 0.26709 0.27152 0.27819 0.0
C184 C 0.82983 0.09901 0.23989 0.0
C185 C 0.81674 0.1011 0.22369 0.0
C186 C 0.8189 0.13687 0.25024 0.0
C187 C 0.79462 0.1774 0.24455 0.0
C188 C 0.79425 0.14256 0.21799 0.0
C189 C 0.7836 0.1803 0.22826 0.0
C190 C 0.78046 0.21732 0.25524 0.0
C191 C 0.69953 0.0878 0.27011 0.0
C192 C 0.70266 0.07598 0.28638 0.0
C193 C 0.71485 0.13219 0.26466 0.0
C194 C 0.73616 0.16497 0.27517 0.0
C195 C 0.72179 0.11001 0.297 0.0
C196 C 0.73865 0.15376 0.29142 0.0
C197 C 0.75401 0.21172 0.26952 0.0
C198 C 0.70231 0.41766 0.28438 0.0
C199 C 0.70782 0.41844 0.30102 0.0
C200 C 0.71596 0.37764 0.27552 0.0
C201 C 0.73718 0.33798 0.28299 0.0
C202 C 0.72657 0.37786 0.30864 0.0
C203 C 0.74124 0.33808 0.2997 0.0
C204 C 0.75444 0.29635 0.27346 0.0
C205 C 0.84225 0.42085 0.25535 0.0
C206 C 0.82834 0.43431 0.23986 0.0
C207 C 0.82629 0.37789 0.26187 0.0
C208 C 0.79648 0.34778 0.25295 0.0
C209 C 0.79765 0.40419 0.23117 0.0
C210 C 0.78247 0.36107 0.23757 0.0
C211 C 0.78086 0.30148 0.25922 0.0
H212 H 0.84721 0.06757 0.24464 0.0
H213 H 0.82873 0.13422 0.26269 0.0
H214 H 0.78447 0.1457 0.20553 0.0
H215 H 0.76551 0.21139 0.22353 0.0
H216 H 0.68538 0.06286 0.26147 0.0
H217 H 0.70995 0.14068 0.25219 0.0
H218 H 0.7233 0.1034 0.30969 0.0
H219 H 0.75374 0.17889 0.29986 0.0
H220 H 0.68684 0.44791 0.27823 0.0
H221 H 0.70982 0.37787 0.26278 0.0
H222 H 0.73092 0.37736 0.32147 0.0
H223 H 0.75664 0.30776 0.30582 0.0
H224 H 0.86628 0.44289 0.26229 0.0
H225 H 0.83785 0.36776 0.27372 0.0
H226 H 0.78517 0.41389 0.21939 0.0
H227 H 0.75927 0.33825 0.23057 0.0
N228 N 0.79241 0.26206 0.25065 0.0
N229 N 0.74244 0.25145 0.27813 0.0
C230 C 0.68451 0.92311 0.75405 0.0
C231 C 0.68876 0.93514 0.73785 0.0
C232 C 0.70312 0.88015 0.75972 0.0
C233 C 0.72745 0.84904 0.74938 0.0
C234 C 0.71192 0.90317 0.72747 0.0
C235 C 0.73111 0.86066 0.73319 0.0
C236 C 0.74665 0.803 0.75503 0.0
C237 C 0.82295 0.91953 0.78097 0.0
C238 C 0.81627 0.92014 0.79759 0.0
C239 C 0.81043 0.87943 0.77191 0.0
C240 C 0.78961 0.83924 0.77914 0.0
C241 C 0.79778 0.87901 0.80495 0.0
C242 C 0.78459 0.83905 0.79582 0.0
C243 C 0.77297 0.79775 0.76936 0.0
C244 C 0.83979 0.59694 0.77031 0.0
C245 C 0.81394 0.57567 0.78284 0.0
C246 C 0.8266 0.64173 0.76446 0.0
C247 C 0.78818 0.66643 0.77129 0.0
C248 C 0.7745 0.6005 0.78925 0.0
C249 C 0.76256 0.64585 0.7838 0.0
C250 C 0.77375 0.71335 0.76525 0.0
C251 C 0.69931 0.60091 0.73487 0.0
C252 C 0.70598 0.60605 0.71836 0.0
C253 C 0.71368 0.63699 0.74544 0.0
C254 C 0.73646 0.67843 0.73979 0.0
C255 C 0.72853 0.64749 0.71271 0.0
C256 C 0.74361 0.68314 0.72328 0.0
C257 C 0.74946 0.71884 0.7506 0.0
H258 H 0.66697 0.94691 0.76238 0.0
H259 H 0.69825 0.87121 0.77217 0.0
H260 H 0.71467 0.91054 0.71484 0.0
H261 H 0.74887 0.83678 0.72493 0.0
H262 H 0.83819 0.95007 0.77495 0.0
H263 H 0.81663 0.88013 0.75917 0.0
H264 H 0.79228 0.8782 0.81772 0.0
H265 H 0.76928 0.80842 0.80178 0.0
H266 H 0.87083 0.57967 0.76521 0.0
H267 H 0.84676 0.6574 0.75477 0.0
H268 H 0.75255 0.58506 0.79852 0.0
H269 H 0.73237 0.66437 0.78904 0.0
H270 H 0.68108 0.5699 0.73955 0.0
H271 H 0.70509 0.63309 0.75792 0.0
H272 H 0.7342 0.65252 0.70005 0.0
H273 H 0.76051 0.71479 0.71851 0.0
N274 N 0.73682 0.7636 0.74613 0.0
N275 N 0.78479 0.75278 0.77405 0.0
C276 C 0.65606 0.47677 0.98829 0.0
C277 C 0.66575 0.4276 0.98834 0.0
C278 C 0.61374 0.49421 0.99491 0.0
C279 C 0.58047 0.46273 1.00162 0.0
C280 C 0.63233 0.39618 0.99506 0.0
C281 C 0.58975 0.41363 1.00153 0.0
C282 C 0.53575 0.48077 0.00864 0.0
C283 C 0.65863 0.52152 0.0405 0.0
C284 C 0.66677 0.57103 0.04038 0.0
C285 C 0.61563 0.50262 0.03467 0.0
C286 C 0.57977 0.53283 0.02867 0.0
C287 C 0.63037 0.60118 0.03465 0.0
C288 C 0.58721 0.58229 0.02899 0.0
C289 C 0.53523 0.51328 0.02151 0.0
C290 C 0.32752 0.50351 0.04044 0.0
C291 C 0.32201 0.54935 0.04691 0.0
C292 C 0.36871 0.49167 0.03189 0.0
C293 C 0.4048 0.52574 0.02932 0.0
C294 C 0.35809 0.58341 0.04436 0.0
C295 C 0.39911 0.57167 0.03568 0.0
C296 C 0.44985 0.51256 0.02107 0.0
C297 C 0.33973 0.5036 0.9825 0.0
C298 C 0.32449 0.45685 0.97899 0.0
C299 C 0.38027 0.51176 0.99184 0.0
C300 C 0.40731 0.47352 0.99771 0.0
C301 C 0.35218 0.4185 0.98477 0.0
C302 C 0.39352 0.42682 0.99386 0.0
C303 C 0.4507 0.48301 0.00739 0.0
H304 H 0.68134 0.50171 0.98321 0.0
H305 H 0.60687 0.53222 0.99472 0.0
H306 H 0.63873 0.35809 0.99505 0.0
H307 H 0.56425 0.38887 0.00659 0.0
H308 H 0.68591 0.49731 0.04481 0.0
H309 H 0.61054 0.46436 0.03473 0.0
H310 H 0.63516 0.63949 0.03464 0.0
H311 H 0.56003 0.60631 0.02448 0.0
H312 H 0.30074 0.47631 0.04246 0.0
H313 H 0.37286 0.45537 0.02772 0.0
H314 H 0.35464 0.61916 0.04912 0.0
H315 H 0.4265 0.59848 0.03399 0.0
H316 H 0.32073 0.53426 0.9779 0.0
H317 H 0.3909 0.54816 0.99432 0.0
H318 H 0.34164 0.382 0.98251 0.0
H319 H 0.41413 0.39678 0.99818 0.0
N320 N 0.49361 0.46733 1.0019 0.0
N321 N 0.4922 0.52757 0.02738 0.0
C322 C 0.82486 0.53222 0.54184 0.0
C323 C 0.82244 0.48822 0.54979 0.0
C324 C 0.86584 0.545 0.53336 0.0
C325 C 0.90475 0.51334 0.53206 0.0
C326 C 0.86237 0.45755 0.54905 0.0
C327 C 0.90276 0.46981 0.54021 0.0
C328 C 0.94884 0.5267 0.52328 0.0
C329 C 0.83555 0.52934 0.48526 0.0
C330 C 0.82071 0.5754 0.48066 0.0
C331 C 0.87644 0.52267 0.49461 0.0
C332 C 0.90419 0.56172 0.49946 0.0
C333 C 0.8491 0.61448 0.48543 0.0
C334 C 0.89068 0.60761 0.49454 0.0
C335 C 0.94812 0.55414 0.50915 0.0
C336 C 0.15205 0.57495 0.4892 0.0
C337 C 0.15297 0.62465 0.48709 0.0
C338 C 0.11358 0.55341 0.497 0.0
C339 C 0.07608 0.58144 0.50301 0.0
C340 C 0.11585 0.65253 0.49342 0.0
C341 C 0.07768 0.63107 0.50125 0.0
C342 C 0.03322 0.55984 0.51013 0.0
C343 C 0.16087 0.52117 0.54055 0.0
C344 C 0.1665 0.4717 0.5427 0.0
C345 C 0.11784 0.54003 0.53466 0.0
C346 C 0.07974 0.50977 0.53042 0.0
C347 C 0.12773 0.44172 0.53895 0.0
C348 C 0.08494 0.46053 0.53293 0.0
C349 C 0.0345 0.52839 0.52329 0.0
H350 H 0.79509 0.55689 0.54208 0.0
H351 H 0.86707 0.58004 0.52802 0.0
H352 H 0.8629 0.4241 0.55546 0.0
H353 H 0.93261 0.44518 0.5398 0.0
H354 H 0.81597 0.49803 0.48149 0.0
H355 H 0.88676 0.48677 0.4979 0.0
H356 H 0.83895 0.65055 0.48237 0.0
H357 H 0.91175 0.63828 0.49804 0.0
H358 H 0.17992 0.55264 0.48421 0.0
H359 H 0.11247 0.51492 0.49794 0.0
H360 H 0.1159 0.69092 0.49203 0.0
H361 H 0.04894 0.65324 0.50577 0.0
H362 H 0.18953 0.54543 0.54364 0.0
H363 H 0.11446 0.57828 0.53338 0.0
H364 H 0.13075 0.40347 0.54037 0.0
H365 H 0.05614 0.43635 0.52988 0.0
N366 N 0.99203 0.51368 0.52949 0.0
N367 N 0.99027 0.57078 0.50342 0.0
Fe368 Fe 1.00279 0.76148 0.15692 0.0
O369 O 0.04426 0.78942 0.14006 0.0
Fe370 Fe 0.89647 0.7374 0.13764 0.0
Fe371 Fe 0.11426 0.78359 0.14107 0.0
O372 O 0.96591 0.73498 0.13868 0.0
O373 O 0.96653 0.73404 0.13715 0.0
O374 O 0.04444 0.78933 0.13844 0.0
Fe375 Fe 1.00754 0.762 0.12002 0.0
C376 C 0.0802 0.82499 0.17252 0.0
O377 O 0.04184 0.70003 0.15697 0.0
O378 O 0.11519 0.72979 0.15837 0.0
O379 O 0.96138 0.72858 0.10317 0.0
O380 O 0.90456 0.69085 0.11877 0.0
O381 O 0.90197 0.68923 0.15616 0.0
O382 O 0.95567 0.72788 0.17253 0.0
O383 O 0.12105 0.73227 0.12387 0.0
O384 O 0.04888 0.7009 0.11961 0.0
C385 C 0.92336 0.69573 0.16974 0.0
O386 O 0.9657 0.82283 0.11887 0.0
O387 O 0.89315 0.78969 0.1207 0.0
O388 O 0.04659 0.79335 0.1741 0.0
O389 O 0.1055 0.83092 0.15969 0.0
C390 C 0.08587 0.69543 0.16014 0.0
C391 C 0.09429 0.69935 0.11847 0.0
C392 C 0.09383 0.82445 0.10803 0.0
O393 O 0.11254 0.83087 0.12212 0.0
O394 O 0.05782 0.79599 0.10487 0.0
C395 C 0.92573 0.69883 0.10522 0.0
O396 O 0.89007 0.78996 0.15494 0.0
O397 O 0.96238 0.82253 0.15755 0.0
C398 C 0.92049 0.82393 0.11671 0.0
C399 C 0.91721 0.82429 0.15917 0.0
Fe400 Fe 0.50358 0.7619 0.40581 0.0
O401 O 0.47038 0.72658 0.38838 0.0
Fe402 Fe 0.54368 0.86442 0.38696 0.0
Fe403 Fe 0.46384 0.65699 0.38866 0.0
O404 O 0.53689 0.79487 0.38792 0.0
O405 O 0.5369 0.79472 0.3863 0.0
O406 O 0.4702 0.72653 0.38681 0.0
Fe407 Fe 0.50295 0.75982 0.36882 0.0
C408 C 0.55201 0.6691 0.41041 0.0
O409 O 0.4618 0.72364 0.42229 0.0
O410 O 0.41657 0.67362 0.40639 0.0
O411 O 0.44875 0.81082 0.36787 0.0
O412 O 0.49311 0.87657 0.36975 0.0
O413 O 0.4919 0.8784 0.40419 0.0
O414 O 0.44966 0.81141 0.40619 0.0
O415 O 0.41886 0.66798 0.36946 0.0
O416 O 0.46222 0.71819 0.35299 0.0
C417 C 0.45438 0.85592 0.40843 0.0
O418 O 0.54254 0.80011 0.3525 0.0
O419 O 0.58909 0.85014 0.36801 0.0
O420 O 0.5577 0.71246 0.4066 0.0
O421 O 0.51388 0.64661 0.40676 0.0
C422 C 0.42425 0.69752 0.41937 0.0
C423 C 0.42759 0.68833 0.35586 0.0
C424 C 0.55203 0.66398 0.36662 0.0
O425 O 0.51559 0.64217 0.37201 0.0
O426 O 0.557 0.70908 0.36795 0.0
C427 C 0.45484 0.85547 0.36561 0.0
O428 O 0.58958 0.85152 0.40568 0.0
O429 O 0.54441 0.80249 0.42181 0.0
C430 C 0.57744 0.8304 0.35448 0.0
C431 C 0.58059 0.83064 0.41917 0.0
Fe432 Fe 0.50548 0.26083 0.6559 0.0
O433 O 0.54529 0.23261 0.63863 0.0
Fe434 Fe 0.3964 0.28233 0.63808 0.0
Fe435 Fe 0.61524 0.23877 0.63869 0.0
O436 O 0.46597 0.28617 0.63809 0.0
O437 O 0.46649 0.28726 0.63654 0.0
O438 O 0.54518 0.2325 0.63702 0.0
Fe439 Fe 0.50606 0.25896 0.61897 0.0
C440 C 0.58829 0.32771 0.65798 0.0
O441 O 0.55136 0.23041 0.67267 0.0
O442 O 0.60933 0.19292 0.65778 0.0
O443 O 0.46483 0.1978 0.6185 0.0
O444 O 0.39197 0.22959 0.62131 0.0
O445 O 0.39311 0.23035 0.65554 0.0
O446 O 0.46613 0.19894 0.65723 0.0
O447 O 0.61135 0.18989 0.62034 0.0
O448 O 0.55483 0.2233 0.60329 0.0
C449 C 0.42113 0.1962 0.65919 0.0
O450 O 0.45748 0.29196 0.60264 0.0
O451 O 0.40093 0.32802 0.61898 0.0
O452 O 0.5439 0.32296 0.65536 0.0
O453 O 0.61775 0.29377 0.65555 0.0
C454 C 0.58533 0.19928 0.67085 0.0
C455 C 0.59024 0.19402 0.60656 0.0
C456 C 0.5919 0.32108 0.6159 0.0
O457 O 0.61944 0.2882 0.62086 0.0
O458 O 0.54689 0.32035 0.61808 0.0
C459 C 0.4195 0.19591 0.61691 0.0
O460 O 0.40279 0.33111 0.6565 0.0
O461 O 0.46002 0.29435 0.67192 0.0
C462 C 0.42075 0.3202 0.60519 0.0
C463 C 0.42667 0.32581 0.66968 0.0
Fe464 Fe 0.00789 0.26556 0.9059 0.0
O465 O 0.03974 0.22735 0.88894 0.0
Fe466 Fe 0.9706 0.36752 0.88678 0.0
Fe467 Fe 0.0423 0.15747 0.89014 0.0
O468 O 0.97591 0.29826 0.88777 0.0
O469 O 0.97513 0.29755 0.88619 0.0
O470 O 0.03983 0.22721 0.88737 0.0
Fe471 Fe 0.00861 0.26086 0.869 0.0
C472 C 0.0823 0.19707 0.92102 0.0
O473 O 0.9519 0.21912 0.90658 0.0
O474 O 0.99164 0.15123 0.90837 0.0
O475 O 0.97016 0.30207 0.85228 0.0
O476 O 0.92556 0.35355 0.86793 0.0
O477 O 0.92365 0.35668 0.90534 0.0
O478 O 0.96866 0.30842 0.92167 0.0
O479 O 0.9906 0.14356 0.8734 0.0
O480 O 0.95292 0.21173 0.86787 0.0
C481 C 0.93259 0.33663 0.91896 0.0
O482 O 0.06427 0.31051 0.8681 0.0
O483 O 0.02148 0.37762 0.86957 0.0
O484 O 0.047 0.22687 0.92294 0.0
O485 O 0.08997 0.17257 0.90812 0.0
C486 C 0.95516 0.17674 0.91154 0.0
C487 C 0.95616 0.16633 0.86707 0.0
C488 C 0.08089 0.18394 0.85698 0.0
O489 O 0.08768 0.16448 0.8709 0.0
O490 O 0.04898 0.21668 0.85378 0.0
C491 C 0.93612 0.33348 0.85437 0.0
O492 O 0.02172 0.37995 0.90435 0.0
O493 O 0.0637 0.31287 0.90578 0.0
C494 C 0.05856 0.35491 0.86518 0.0
C495 C 0.05914 0.3571 0.90857 0.0
H496 H 0.2523 0.89247 0.47479 0.0
H497 H 0.21622 0.02596 0.45169 0.0
H498 H 0.2824 0.01397 0.43258 0.0
H499 H 0.3828 0.90616 0.46958 0.0
H500 H 0.39204 0.8432 0.4666 0.0
H501 H 0.34374 0.86372 0.47907 0.0
H502 H 0.28216 0.81678 0.46183 0.0
H503 H 0.33192 0.79558 0.45032 0.0
H504 H 0.2824 0.82496 0.4405 0.0
H505 H 0.35197 0.98618 0.41546 0.0
H506 H 0.41739 0.94363 0.40142 0.0
H507 H 0.40538 0.82666 0.43488 0.0
C508 C 0.25833 0.91918 0.46571 0.0
C509 C 0.22896 0.96017 0.46475 0.0
C510 C 0.2385 0.99455 0.45279 0.0
C511 C 0.27596 0.98798 0.44184 0.0
C512 C 0.304 0.94701 0.44305 0.0
C513 C 0.29582 0.91337 0.45476 0.0
C514 C 0.33101 0.87243 0.45346 0.0
C515 C 0.36437 0.87134 0.46804 0.0
C516 C 0.30517 0.82462 0.45137 0.0
C517 C 0.35812 0.88658 0.43854 0.0
C518 C 0.34304 0.93049 0.433 0.0
C519 C 0.36393 0.95173 0.41967 0.0
C520 C 0.40102 0.9274 0.41178 0.0
C521 C 0.41598 0.88181 0.41698 0.0
C522 C 0.39413 0.86124 0.43053 0.0
H523 H 0.40055 0.97349 0.71888 0.0
H524 H 0.25708 0.95289 0.70022 0.0
H525 H 0.26925 0.01939 0.68157 0.0
H526 H 0.39725 0.10126 0.71737 0.0
H527 H 0.45862 0.10882 0.71146 0.0
H528 H 0.44152 0.05782 0.72317 0.0
H529 H 0.47613 1.00036 0.70213 0.0
H530 H 0.49515 0.05071 0.69045 0.0
H531 H 0.45757 1.00562 0.68161 0.0
H532 H 0.29487 0.08964 0.66564 0.0
H533 H 0.33313 0.15944 0.65316 0.0
H534 H 0.46087 0.13527 0.68145 0.0
C535 C 0.37168 0.98299 0.71088 0.0
C536 C 0.32794 0.95738 0.71096 0.0
C537 C 0.29122 0.97108 0.70023 0.0
C538 C 0.29767 0.00907 0.68962 0.0
C539 C 0.34111 0.03328 0.6898 0.0
C540 C 0.37759 0.0209 0.70012 0.0
C541 C 0.42031 0.05382 0.69804 0.0
C542 C 0.42999 0.08208 0.71343 0.0
C543 C 0.46492 0.02595 0.69274 0.0
C544 C 0.40216 0.08626 0.68486 0.0
C545 C 0.35622 0.07386 0.6804 0.0
C546 C 0.33092 0.09954 0.66896 0.0
C547 C 0.3529 0.13921 0.66197 0.0
C548 C 0.39997 0.1527 0.66629 0.0
C549 C 0.42508 0.12544 0.67777 0.0
H550 H 0.30642 0.07887 0.9636 0.0
H551 H 0.29225 0.183 1.00159 0.0
H552 H 0.2208 0.21673 0.9882 0.0
H553 H 0.27382 0.15611 0.93192 0.0
H554 H 0.24232 0.11062 0.92095 0.0
H555 H 0.29116 0.09447 0.93385 0.0
H556 H 0.23573 0.03603 0.94906 0.0
H557 H 0.18672 0.05204 0.93619 0.0
H558 H 0.18058 0.05777 0.9575 0.0
H559 H 0.15045 0.23879 0.97021 0.0
H560 H 0.09028 0.24926 0.94883 0.0
H561 H 0.15249 0.12967 0.92321 0.0
C562 C 0.28791 0.1083 0.96926 0.0
C563 C 0.30456 0.12808 0.98369 0.0
C564 C 0.28008 0.16743 0.99048 0.0
C565 C 0.2394 0.18663 0.98302 0.0
C566 C 0.22391 0.16609 0.96877 0.0
C567 C 0.24761 0.12788 0.96197 0.0
C568 C 0.22494 0.113 0.94641 0.0
C569 C 0.26016 0.11893 0.93246 0.0
C570 C 0.20585 0.06168 0.94736 0.0
C571 C 0.18468 0.14875 0.94547 0.0
C572 C 0.18434 0.17903 0.95846 0.0
C573 C 0.15035 0.21517 0.96 0.0
C574 C 0.11625 0.22076 0.94782 0.0
C575 C 0.11651 0.19029 0.93431 0.0
C576 C 0.15114 0.15374 0.9333 0.0
H577 H 0.20734 0.04067 0.21713 0.0
H578 H 0.09587 0.03285 0.25293 0.0
H579 H 0.06266 0.96133 0.23961 0.0
H580 H 0.13424 0.01059 0.1846 0.0
H581 H 0.1794 0.9766 0.17429 0.0
H582 H 0.19665 0.0243 0.18744 0.0
H583 H 0.25002 0.96597 0.20354 0.0
H584 H 0.23303 0.91806 0.19038 0.0
H585 H 0.22419 0.91227 0.21157 0.0
H586 H 0.04009 0.89292 0.22168 0.0
H587 H 0.02719 0.8351 0.19991 0.0
H588 H 0.1535 0.88911 0.1758 0.0
C589 C 0.17661 0.02322 0.22236 0.0
C590 C 0.15437 0.04179 0.23612 0.0
C591 C 0.11336 0.01896 0.24238 0.0
C592 C 0.09444 0.97831 0.23496 0.0
C593 C 0.117 0.96117 0.22129 0.0
C594 C 0.15714 0.98296 0.21505 0.0
C595 C 0.17281 0.95951 0.19968 0.0
C596 C 0.17062 0.99486 0.18568 0.0
C597 C 0.22299 0.93765 0.2014 0.0
C598 C 0.13496 0.92137 0.19816 0.0
C599 C 0.10335 0.92258 0.21079 0.0
C600 C 0.06467 0.8915 0.21174 0.0
C601 C 0.05778 0.85868 0.19933 0.0
C602 C 0.08941 0.85737 0.18612 0.0
C603 C 0.12868 0.88897 0.1857 0.0
H604 H 0.19241 0.08588 0.5766 0.0
H605 H 0.28506 0.02516 0.54045 0.0
H606 H 0.35592 0.04677 0.55666 0.0
H607 H 0.26188 0.18555 0.58435 0.0
H608 H 0.24923 0.18718 0.6054 0.0
H609 H 0.20673 0.16119 0.59188 0.0
H610 H 0.20886 0.08254 0.60815 0.0
H611 H 0.25193 0.10824 0.62165 0.0
H612 H 0.26524 0.05303 0.61156 0.0
H613 H 0.41679 0.08423 0.57557 0.0
H614 H 0.46052 0.13607 0.5946 0.0
H615 H 0.32671 0.16918 0.61829 0.0
C616 C 0.22759 0.07673 0.57215 0.0
C617 C 0.23331 0.05395 0.55728 0.0
C618 C 0.27991 0.04225 0.55191 0.0
C619 C 0.32031 0.05434 0.56104 0.0
C620 C 0.31337 0.07747 0.57558 0.0
C621 C 0.26803 0.08828 0.5811 0.0
C622 C 0.26984 0.11654 0.59641 0.0
C623 C 0.24551 0.16549 0.59438 0.0
C624 C 0.24766 0.08839 0.61026 0.0
C625 C 0.32327 0.12138 0.59842 0.0
C626 C 0.34807 0.09823 0.58645 0.0
C627 C 0.39777 0.10172 0.58517 0.0
C628 C 0.42238 0.13102 0.59607 0.0
C629 C 0.39699 0.15657 0.60791 0.0
C630 C 0.34718 0.14993 0.60941 0.0
H631 H 0.22496 0.97294 0.81896 0.0
H632 H 0.19276 0.02964 0.77202 0.0
H633 H 0.15801 0.10157 0.78456 0.0
H634 H 0.12282 0.0092 0.83763 0.0
H635 H 0.15108 0.02356 0.85635 0.0
H636 H 0.17718 0.97939 0.84351 0.0
H637 H 0.25715 0.02628 0.84333 0.0
H638 H 0.23124 0.07067 0.85626 0.0
H639 H 0.25735 0.08812 0.83752 0.0
H640 H 0.11783 0.16295 0.80286 0.0
H641 H 0.0789 0.20739 0.82488 0.0
H642 H 0.14533 0.1114 0.85896 0.0
C643 C 0.21231 1.001 0.81118 0.0
C644 C 0.21187 0.99542 0.79447 0.0
C645 C 0.19305 0.03266 0.78488 0.0
C646 C 0.17364 0.07391 0.79189 0.0
C647 C 0.17412 0.07773 0.80846 0.0
C648 C 0.19364 0.04239 0.81792 0.0
C649 C 0.1875 0.05308 0.83541 0.0
C650 C 0.15788 0.01401 0.8437 0.0
C651 C 0.23622 0.05996 0.8436 0.0
C652 C 0.16026 0.09937 0.83438 0.0
C653 C 0.15279 0.11338 0.81881 0.0
C654 C 0.12436 0.15283 0.81512 0.0
C655 C 0.10238 0.17786 0.8277 0.0
C656 C 0.10907 0.1632 0.84371 0.0
C657 C 0.1396 0.12423 0.84694 0.0
H658 H 0.30908 0.97441 0.07194 0.0
H659 H 0.29185 0.89348 0.02825 0.0
H660 H 0.21807 0.85706 0.03901 0.0
H661 H 0.2744 0.88212 0.09779 0.0
H662 H 0.24419 0.92053 0.11179 0.0
H663 H 0.29256 0.94344 0.09995 0.0
H664 H 0.23715 0.01049 0.08938 0.0
H665 H 0.18845 0.98748 0.10113 0.0
H666 H 0.18134 0.99501 0.07993 0.0
H667 H 0.14802 0.82623 0.05528 0.0
H668 H 0.09262 0.79886 0.07632 0.0
H669 H 0.1567 0.89937 0.10941 0.0
C670 C 0.28926 0.94969 0.06453 0.0
C671 C 0.30605 0.93699 0.04922 0.0
C672 C 0.27973 0.9036 0.04004 0.0
C673 C 0.23759 0.88301 0.04601 0.0
C674 C 0.22216 0.89607 0.06121 0.0
C675 C 0.2474 0.92847 0.07037 0.0
C676 C 0.22545 0.93368 0.08679 0.0
C677 C 0.26128 0.91905 0.09984 0.0
C678 C 0.207 0.9847 0.08946 0.0
C679 C 0.18447 0.89854 0.08555 0.0
C680 C 0.1826 0.87772 0.07063 0.0
C681 C 0.14892 0.84265 0.06696 0.0
C682 C 0.11732 0.8275 0.07898 0.0
C683 C 0.12001 0.84696 0.09455 0.0
C684 C 0.15337 0.88382 0.09764 0.0
H685 H 0.36276 0.09631 0.32614 0.0
H686 H 0.25852 0.01368 0.29957 0.0
H687 H 0.28364 0.94102 0.31399 0.0
H688 H 0.4548 0.00891 0.32577 0.0
H689 H 0.47565 0.02282 0.34557 0.0
H690 H 0.44729 0.06819 0.33372 0.0
H691 H 0.38559 0.08262 0.3563 0.0
H692 H 0.41363 0.03698 0.36816 0.0
H693 H 0.35071 0.03333 0.36365 0.0
H694 H 0.32413 0.87554 0.33083 0.0
H695 H 0.37669 0.82526 0.34779 0.0
H696 H 0.45268 0.95229 0.36303 0.0
C697 C 0.34518 0.06299 0.32331 0.0
C698 C 0.3085 0.06098 0.31171 0.0
C699 C 0.28622 0.01648 0.30855 0.0
C700 C 0.30039 0.97487 0.31665 0.0
C701 C 0.33679 0.97817 0.32798 0.0
C702 C 0.35875 0.02124 0.33129 0.0
C703 C 0.39782 0.01536 0.34362 0.0
C704 C 0.44677 0.02965 0.33676 0.0
C705 C 0.38622 0.04376 0.35883 0.0
C706 C 0.395 0.96221 0.34657 0.0
C707 C 0.35952 0.94113 0.33755 0.0
C708 C 0.35179 0.89187 0.33803 0.0
C709 C 0.38167 0.86353 0.34774 0.0
C710 C 0.41894 0.88457 0.35678 0.0
C711 C 0.42468 0.93473 0.35631 0.0
H712 H 0.79779 0.13295 0.54592 0.0
H713 H 0.78773 0.98816 0.56404 0.0
H714 H 0.71231 0.00853 0.57726 0.0
H715 H 0.76159 0.18657 0.58182 0.0
H716 H 0.72909 0.23442 0.57249 0.0
H717 H 0.77847 0.20725 0.56225 0.0
H718 H 0.72324 0.18971 0.53824 0.0
H719 H 0.67345 0.21664 0.54851 0.0
H720 H 0.66888 0.15638 0.5412 0.0
H721 H 0.64181 0.04527 0.59063 0.0
H722 H 0.5875 0.09812 0.60569 0.0
H723 H 0.64405 0.22052 0.58066 0.0
C724 C 0.77988 0.10525 0.55259 0.0
C725 C 0.79908 0.05841 0.5535 0.0
C726 C 0.77372 0.0238 0.5625 0.0
C727 C 0.7306 0.03508 0.57019 0.0
C728 C 0.71289 0.08135 0.56898 0.0
C729 C 0.73697 0.11607 0.56057 0.0
C730 C 0.71297 0.16429 0.56267 0.0
C731 C 0.74768 0.20021 0.57027 0.0
C732 C 0.69348 0.18284 0.5467 0.0
C733 C 0.67246 0.15154 0.57396 0.0
C734 C 0.67251 0.10316 0.57712 0.0
C735 C 0.64088 0.08303 0.58803 0.0
C736 C 0.60984 0.11325 0.59644 0.0
C737 C 0.61049 0.1631 0.59397 0.0
C738 C 0.64138 0.18234 0.58228 0.0
H739 H 0.73511 0.02405 0.3122 0.0
H740 H 0.62808 0.02184 0.27455 0.0
H741 H 0.59603 0.94717 0.28528 0.0
H742 H 0.74877 0.89359 0.31781 0.0
H743 H 0.75178 0.89952 0.33919 0.0
H744 H 0.77391 0.94663 0.32661 0.0
H745 H 0.7182 0.00722 0.34081 0.0
H746 H 0.69644 0.9605 0.35349 0.0
H747 H 0.65494 0.9952 0.34183 0.0
H748 H 0.56902 0.87849 0.30163 0.0
H749 H 0.54257 0.8285 0.32402 0.0
H750 H 0.66183 0.87969 0.35245 0.0
C751 C 0.70514 0.00797 0.30607 0.0
C752 C 0.68481 0.02912 0.29233 0.0
C753 C 0.64566 0.0061 0.28476 0.0
C754 C 0.62694 0.9635 0.2908 0.0
C755 C 0.64732 0.94434 0.30452 0.0
C756 C 0.68522 0.96615 0.31216 0.0
C757 C 0.69585 0.94264 0.32801 0.0
C758 C 0.74553 0.9192 0.32789 0.0
C759 C 0.69103 0.97852 0.34184 0.0
C760 C 0.65663 0.90552 0.32839 0.0
C761 C 0.63007 0.90601 0.31449 0.0
C762 C 0.58992 0.87728 0.31249 0.0
C763 C 0.57528 0.84881 0.32529 0.0
C764 C 0.60012 0.85018 0.34002 0.0
C765 C 0.64231 0.8776 0.34131 0.0
H766 H 0.6947 0.93451 0.07536 0.0
H767 H 0.78884 1.00176 0.04112 0.0
H768 H 0.85904 0.97811 0.05741 0.0
H769 H 0.76477 0.96459 0.11123 0.0
H770 H 0.75136 0.90837 0.12058 0.0
H771 H 0.70897 0.93493 0.10704 0.0
H772 H 0.70887 0.85786 0.08988 0.0
H773 H 0.75067 0.83102 0.10345 0.0
H774 H 0.76481 0.83463 0.08253 0.0
H775 H 0.91922 0.93842 0.07624 0.0
H776 H 0.96225 0.88566 0.09517 0.0
H777 H 0.82706 0.84884 0.11725 0.0
C778 C 0.73009 0.94457 0.07136 0.0
C779 C 0.73652 0.96968 0.05699 0.0
C780 C 0.78328 0.98266 0.05218 0.0
C781 C 0.82326 0.96947 0.06136 0.0
C782 C 0.81566 0.94413 0.07543 0.0
C783 C 0.77007 0.93222 0.08043 0.0
C784 C 0.77114 0.90256 0.09541 0.0
C785 C 0.74767 0.92922 0.10939 0.0
C786 C 0.74751 0.85364 0.09264 0.0
C787 C 0.82448 0.89802 0.09779 0.0
C788 C 0.84985 0.92254 0.08631 0.0
C789 C 0.8997 0.91981 0.08545 0.0
C790 C 0.92391 0.88999 0.09629 0.0
C791 C 0.89801 0.86321 0.10767 0.0
C792 C 0.84795 0.86895 0.10872 0.0
H793 H 0.86531 0.92609 0.8261 0.0
H794 H 0.79477 0.01313 0.79044 0.0
H795 H 0.81632 0.08578 0.80556 0.0
H796 H 0.83362 0.99874 0.86086 0.0
H797 H 0.89074 0.98979 0.87038 0.0
H798 H 0.86676 0.94459 0.85735 0.0
H799 H 0.94393 0.94735 0.84027 0.0
H800 H 0.96817 0.99225 0.8533 0.0
H801 H 0.96366 1.00352 0.83221 0.0
H802 H 0.84886 0.14993 0.82434 0.0
H803 H 0.89405 0.19883 0.84383 0.0
H804 H 0.94343 0.06948 0.86693 0.0
C805 C 0.85373 0.96038 0.8216 0.0
C806 C 0.82814 0.96378 0.80708 0.0
C807 C 0.81462 0.00954 0.80147 0.0
C808 C 0.82642 0.05104 0.81004 0.0
C809 C 0.85192 0.04647 0.82426 0.0
C810 C 0.86559 1.00223 0.82995 0.0
C811 C 0.89531 0.00711 0.84499 0.0
C812 C 0.87009 0.98366 0.85924 0.0
C813 C 0.94575 0.98634 0.84254 0.0
C814 C 0.89672 0.06091 0.84678 0.0
C815 C 0.87106 0.08311 0.83484 0.0
C816 C 0.86877 0.13281 0.83381 0.0
C817 C 0.89435 0.16039 0.845 0.0
C818 C 0.92227 0.13825 0.857 0.0
C819 C 0.92235 0.08778 0.85799 0.0
H820 H 0.80349 0.95621 0.45996 0.0
H821 H 0.79736 0.84933 0.49719 0.0
H822 H 0.72441 0.81528 0.48485 0.0
H823 H 0.67549 0.97431 0.45564 0.0
H824 H 0.6791 0.98096 0.43431 0.0
H825 H 0.72892 0.99812 0.44667 0.0
H826 H 0.78461 0.94209 0.43049 0.0
H827 H 0.73501 0.92482 0.41809 0.0
H828 H 0.76919 0.87999 0.42844 0.0
H829 H 0.65255 0.79258 0.46795 0.0
H830 H 0.59164 0.77961 0.44697 0.0
H831 H 0.64703 0.90154 0.42104 0.0
C832 C 0.78632 0.92614 0.46566 0.0
C833 C 0.80563 0.90556 0.47956 0.0
C834 C 0.78298 0.86547 0.48649 0.0
C835 C 0.74149 0.84613 0.47963 0.0
C836 C 0.72339 0.8673 0.46587 0.0
C837 C 0.74529 0.90628 0.45894 0.0
C838 C 0.72047 0.92096 0.44373 0.0
C839 C 0.69976 0.97158 0.44518 0.0
C840 C 0.75434 0.91668 0.42934 0.0
C841 C 0.68135 0.88396 0.44309 0.0
C842 C 0.68315 0.85359 0.45602 0.0
C843 C 0.65076 0.81621 0.45779 0.0
C844 C 0.6162 0.80925 0.44585 0.0
C845 C 0.61457 0.83951 0.43234 0.0
C846 C 0.64736 0.87757 0.43114 0.0
H847 H 0.89725 0.04427 0.22021 0.0
H848 H 0.75247 0.06398 0.20268 0.0
H849 H 0.76343 0.99686 0.18406 0.0
H850 H 0.95105 0.01341 0.18242 0.0
H851 H 0.99033 0.96879 0.19068 0.0
H852 H 0.97145 0.0185 0.20275 0.0
H853 H 0.93997 0.95989 0.22391 0.0
H854 H 0.95701 0.90956 0.21181 0.0
H855 H 0.89608 0.91575 0.2184 0.0
H856 H 0.78862 0.92713 0.16773 0.0
H857 H 0.82742 0.85893 0.15434 0.0
H858 H 0.957 0.88445 0.18157 0.0
C859 C 0.86786 0.03427 0.21249 0.0
C860 C 0.82406 0.05969 0.21282 0.0
C861 C 0.78655 0.0456 0.20247 0.0
C862 C 0.79234 0.00736 0.19189 0.0
C863 C 0.83597 0.98344 0.19172 0.0
C864 C 0.87319 0.99623 0.2017 0.0
C865 C 0.9163 0.96415 0.19904 0.0
C866 C 0.95985 0.99295 0.19338 0.0
C867 C 0.92802 0.93568 0.2142 0.0
C868 C 0.89749 0.93179 0.18593 0.0
C869 C 0.85091 0.94338 0.18201 0.0
C870 C 0.82516 0.91779 0.17064 0.0
C871 C 0.84745 0.87907 0.16312 0.0
C872 C 0.89522 0.86652 0.16685 0.0
C873 C 0.92064 0.89359 0.17832 0.0
H874 H 0.72832 0.05874 0.95445 0.0
H875 H 0.74873 0.16413 0.99174 0.0
H876 H 0.82234 0.19192 0.97849 0.0
H877 H 0.85473 0.03082 0.94798 0.0
H878 H 0.8485 0.02561 0.92666 0.0
H879 H 0.79869 0.01176 0.93946 0.0
H880 H 0.74602 0.07273 0.92431 0.0
H881 H 0.79556 0.08656 0.91143 0.0
H882 H 0.76619 0.13348 0.9224 0.0
H883 H 0.89199 0.20966 0.96127 0.0
H884 H 0.95151 0.22029 0.93985 0.0
H885 H 0.88649 0.10559 0.91289 0.0
C886 C 0.74869 0.08727 0.95989 0.0
C887 C 0.73291 0.10926 0.97416 0.0
C888 C 0.75999 0.14704 0.98078 0.0
C889 C 0.80202 0.16281 0.97341 0.0
C890 C 0.81653 0.14056 0.95936 0.0
C891 C 0.79064 0.10385 0.95256 0.0
C892 C 0.813 0.0881 0.93689 0.0
C893 C 0.82972 0.03597 0.93781 0.0
C894 C 0.77812 0.09569 0.92293 0.0
C895 C 0.85525 0.12196 0.93591 0.0
C896 C 0.85668 0.1515 0.94914 0.0
C897 C 0.89133 0.18667 0.9509 0.0
C898 C 0.92484 0.19255 0.9387 0.0
C899 C 0.9234 0.16381 0.92485 0.0
C900 C 0.88867 0.12748 0.92351 0.0
H901 H 0.72665 0.99317 0.71488 0.0
H902 H 0.60433 0.97874 0.74638 0.0
H903 H 0.5685 0.05092 0.73454 0.0
H904 H 0.73003 0.12342 0.71306 0.0
H905 H 0.74497 0.12354 0.69216 0.0
H906 H 0.764 0.07488 0.70465 0.0
H907 H 0.72226 0.01487 0.68565 0.0
H908 H 0.70319 0.06325 0.67312 0.0
H909 H 0.65968 0.02242 0.68112 0.0
H910 H 0.54364 0.1213 0.71797 0.0
H911 H 0.52886 0.18073 0.69683 0.0
H912 H 0.66558 0.14518 0.67532 0.0
C913 C 0.69243 1.00519 0.71939 0.0
C914 C 0.66845 0.9803 0.73162 0.0
C915 C 0.6239 0.99766 0.73723 0.0
C916 C 0.60315 0.03855 0.73055 0.0
C917 C 0.62744 0.06159 0.71829 0.0
C918 C 0.67102 0.04539 0.71274 0.0
C919 C 0.68786 0.07377 0.69852 0.0
C920 C 0.73448 0.10049 0.70234 0.0
C921 C 0.69355 0.04166 0.68373 0.0
C922 C 0.64638 0.10782 0.69669 0.0
C923 C 0.61228 0.10086 0.70836 0.0
C924 C 0.57009 0.12722 0.70878 0.0
C925 C 0.56215 0.16097 0.69676 0.0
C926 C 0.59606 0.16752 0.6844 0.0
C927 C 0.63895 0.14101 0.68458 0.0
H928 H 0.70126 0.45017 0.9591 0.0
H929 H 0.72903 0.36281 1.0007 0.0
H930 H 0.80248 0.33148 0.9879 0.0
H931 H 0.73845 0.3642 0.93038 0.0
H932 H 0.76427 0.40763 0.91713 0.0
H933 H 0.71531 0.42418 0.92992 0.0
H934 H 0.76608 0.4931 0.9417 0.0
H935 H 0.81524 0.47669 0.92896 0.0
H936 H 0.82385 0.48018 0.95023 0.0
H937 H 0.87336 0.31067 0.97043 0.0
H938 H 0.93312 0.29833 0.9492 0.0
H939 H 0.8558 0.39736 0.91885 0.0
C940 C 0.72314 0.42487 0.96558 0.0
C941 C 0.70991 0.4091 0.9809 0.0
C942 C 0.73871 0.37518 0.98891 0.0
C943 C 0.78048 0.35743 0.98178 0.0
C944 C 0.79256 0.37381 0.96663 0.0
C945 C 0.76451 0.40654 0.9586 0.0
C946 C 0.78416 0.41709 0.94221 0.0
C947 C 0.74842 0.40238 0.92915 0.0
C948 C 0.79817 0.4699 0.9407 0.0
C949 C 0.82771 0.38519 0.94225 0.0
C950 C 0.83224 0.36078 0.95645 0.0
C951 C 0.87 0.32941 0.95922 0.0
C952 C 0.90368 0.32249 0.94704 0.0
C953 C 0.8989 0.34621 0.93221 0.0
C954 C 0.86053 0.37831 0.92995 0.0
H955 H 0.85356 0.44855 0.20872 0.0
H956 H 0.84338 0.52129 0.25435 0.0
H957 H 0.87036 0.59592 0.24161 0.0
H958 H 0.95592 0.51198 0.19331 0.0
H959 H 0.93248 0.51359 0.1733 0.0
H960 H 0.9169 0.46519 0.18638 0.0
H961 H 0.82685 0.48325 0.18192 0.0
H962 H 0.84215 0.53177 0.16888 0.0
H963 H 0.80435 0.54231 0.18592 0.0
H964 H 0.8972 0.66299 0.22354 0.0
H965 H 0.9177 0.71772 0.20142 0.0
H966 H 0.90241 0.60146 0.16767 0.0
C967 C 0.85664 0.48012 0.21609 0.0
C968 C 0.84621 0.47898 0.23255 0.0
C969 C 0.8518 0.52104 0.24176 0.0
C970 C 0.86686 0.56366 0.23461 0.0
C971 C 0.87591 0.56355 0.21828 0.0
C972 C 0.8708 0.52287 0.20915 0.0
C973 C 0.88027 0.53243 0.19172 0.0
C974 C 0.92399 0.50412 0.18584 0.0
C975 C 0.83575 0.52182 0.18152 0.0
C976 C 0.89069 0.58515 0.19239 0.0
C977 C 0.8889 0.60237 0.20784 0.0
C978 C 0.89846 0.64995 0.2114 0.0
C979 C 0.91004 0.68067 0.19881 0.0
C980 C 0.9109 0.6637 0.18291 0.0
C981 C 0.9011 0.61541 0.17971 0.0
H982 H 0.79997 0.6451 0.45803 0.0
H983 H 0.73804 0.52202 0.48173 0.0
H984 H 0.66558 0.53041 0.46543 0.0
H985 H 0.68939 0.71275 0.45702 0.0
H986 H 0.70212 0.73942 0.43794 0.0
H987 H 0.75042 0.72258 0.45099 0.0
H988 H 0.7866 0.67072 0.42841 0.0
H989 H 0.73805 0.68715 0.41539 0.0
H990 H 0.75049 0.62514 0.41919 0.0
H991 H 0.59989 0.55067 0.44623 0.0
H992 H 0.5426 0.58615 0.42729 0.0
H993 H 0.64348 0.70001 0.41746 0.0
C994 C 0.77116 0.62007 0.45998 0.0
C995 C 0.77577 0.58222 0.4711 0.0
C996 C 0.73671 0.55038 0.47302 0.0
C997 C 0.69495 0.55506 0.46388 0.0
C998 C 0.69199 0.59225 0.45296 0.0
C999 C 0.7287 0.62467 0.45112 0.0
C1000 C 0.71544 0.66254 0.43896 0.0
C1001 C 0.71427 0.71227 0.44669 0.0
C1002 C 0.74969 0.66129 0.42464 0.0
C1003 C 0.66562 0.64617 0.43425 0.0
C1004 C 0.65308 0.60524 0.44235 0.0
C1005 C 0.60921 0.58287 0.43987 0.0
C1006 C 0.57693 0.60323 0.42901 0.0
C1007 C 0.58831 0.64593 0.42084 0.0
C1008 C 0.63353 0.66739 0.4235 0.0
H1009 H 0.71649 0.50798 0.71894 0.0
H1010 H 0.65103 0.62294 0.69212 0.0
H1011 H 0.61642 0.5644 0.67338 0.0
H1012 H 0.74673 0.43476 0.68441 0.0
H1013 H 0.73421 0.37922 0.69433 0.0
H1014 H 0.75415 0.43002 0.7057 0.0
H1015 H 0.67929 0.42359 0.72374 0.0
H1016 H 0.65922 0.37272 0.71245 0.0
H1017 H 0.62067 0.42379 0.71476 0.0
H1018 H 0.58457 0.49366 0.65859 0.0
H1019 H 0.56149 0.41512 0.64764 0.0
H1020 H 0.65155 0.34508 0.68259 0.0
C1021 C 0.69492 0.52071 0.70909 0.0
C1022 C 0.68653 0.5701 0.70696 0.0
C1023 C 0.65835 0.58539 0.69389 0.0
C1024 C 0.63838 0.55238 0.68322 0.0
C1025 C 0.64734 0.50405 0.68562 0.0
C1026 C 0.67529 0.48815 0.69812 0.0
C1027 C 0.67953 0.43412 0.69785 0.0
C1028 C 0.73176 0.41862 0.69543 0.0
C1029 C 0.65841 0.41228 0.71311 0.0
C1030 C 0.64916 0.42217 0.68335 0.0
C1031 C 0.63066 0.46314 0.67658 0.0
C1032 C 0.59937 0.4614 0.66365 0.0
C1033 C 0.58642 0.41669 0.65752 0.0
C1034 C 0.6053 0.37423 0.66411 0.0
C1035 C 0.63748 0.37708 0.67711 0.0
H1036 H 0.71596 0.54727 0.0676 0.0
H1037 H 0.72127 0.64128 0.02667 0.0
H1038 H 0.7958 0.67731 0.03707 0.0
H1039 H 0.75203 0.63212 0.09565 0.0
H1040 H 0.78642 0.59115 0.1076 0.0
H1041 H 0.73693 0.56966 0.09594 0.0
H1042 H 0.7931 0.50894 0.08202 0.0
H1043 H 0.84293 0.53068 0.09357 0.0
H1044 H 0.84625 0.5299 0.07211 0.0
H1045 H 0.86715 0.70717 0.05315 0.0
H1046 H 0.92334 0.73233 0.07439 0.0
H1047 H 0.871 0.6183 0.10454 0.0
C1048 C 0.73336 0.57471 0.06065 0.0
C1049 C 0.71287 0.59124 0.04627 0.0
C1050 C 0.73615 0.62816 0.03775 0.0
C1051 C 0.77876 0.64856 0.0435 0.0
C1052 C 0.79784 0.63165 0.05778 0.0
C1053 C 0.77569 0.59563 0.06626 0.0
C1054 C 0.80095 0.58661 0.08194 0.0
C1055 C 0.76707 0.59544 0.09611 0.0
C1056 C 0.82206 0.53602 0.08243 0.0
C1057 C 0.84005 0.62389 0.08118 0.0
C1058 C 0.83832 0.64906 0.06705 0.0
C1059 C 0.8692 0.68723 0.06416 0.0
C1060 C 0.90136 0.70107 0.07625 0.0
C1061 C 0.90192 0.67718 0.09111 0.0
C1062 C 0.87185 0.63711 0.09327 0.0
H1063 H 0.64923 0.42372 0.32723 0.0
H1064 H 0.73418 0.51071 0.29538 0.0
H1065 H 0.70902 0.58321 0.31004 0.0
H1066 H 0.55107 0.50416 0.32931 0.0
H1067 H 0.53766 0.49176 0.34989 0.0
H1068 H 0.56555 0.44682 0.33771 0.0
H1069 H 0.63506 0.44015 0.35808 0.0
H1070 H 0.6074 0.48523 0.37032 0.0
H1071 H 0.66808 0.49287 0.36356 0.0
H1072 H 0.67192 0.64695 0.32791 0.0
H1073 H 0.62193 0.69595 0.34599 0.0
H1074 H 0.56009 0.56677 0.36553 0.0
C1075 C 0.6631 0.45798 0.32353 0.0
C1076 C 0.694 0.46162 0.31027 0.0
C1077 C 0.71049 0.5072 0.30553 0.0
C1078 C 0.69657 0.54851 0.31382 0.0
C1079 C 0.66578 0.54379 0.32679 0.0
C1080 C 0.64899 0.49964 0.33153 0.0
C1081 C 0.61367 0.50446 0.34512 0.0
C1082 C 0.56407 0.4857 0.34021 0.0
C1083 C 0.63218 0.47918 0.36016 0.0
C1084 C 0.61318 0.5581 0.34729 0.0
C1085 C 0.64374 0.58027 0.33673 0.0
C1086 C 0.64806 0.62987 0.33628 0.0
C1087 C 0.61969 0.65747 0.34666 0.0
C1088 C 0.58706 0.63541 0.35725 0.0
C1089 C 0.58468 0.58497 0.35765 0.0
H1090 H 0.78614 0.39825 0.5537 0.0
H1091 H 0.75991 0.54586 0.5668 0.0
H1092 H 0.69023 0.5206 0.58274 0.0
H1093 H 0.6661 0.35466 0.55277 0.0
H1094 H 0.68015 0.29948 0.56263 0.0
H1095 H 0.72451 0.3283 0.55043 0.0
H1096 H 0.78368 0.32847 0.57352 0.0
H1097 H 0.74199 0.30223 0.5873 0.0
H1098 H 0.76905 0.35849 0.5919 0.0
H1099 H 0.62535 0.47674 0.59906 0.0
H1100 H 0.57859 0.41883 0.61529 0.0
H1101 H 0.6547 0.30242 0.59272 0.0
C1102 C 0.76601 0.42563 0.55984 0.0
C1103 C 0.77882 0.47415 0.55885 0.0
C1104 C 0.75054 0.50845 0.56703 0.0
C1105 C 0.71087 0.49445 0.57619 0.0
C1106 C 0.70009 0.44604 0.57716 0.0
C1107 C 0.7273 0.4123 0.56925 0.0
C1108 C 0.71282 0.36233 0.57364 0.0
C1109 C 0.69487 0.33456 0.55899 0.0
C1110 C 0.75432 0.33632 0.58205 0.0
C1111 C 0.6727 0.37293 0.58507 0.0
C1112 C 0.66519 0.42127 0.58694 0.0
C1113 C 0.6308 0.4388 0.59756 0.0
C1114 C 0.60431 0.40587 0.60667 0.0
C1115 C 0.61332 0.35647 0.60518 0.0
C1116 C 0.6472 0.34012 0.59405 0.0
H1117 H 0.80563 0.54693 0.81393 0.0
H1118 H 0.85839 0.49897 0.7679 0.0
H1119 H 0.88892 0.42551 0.78055 0.0
H1120 H 0.89773 0.50701 0.837 0.0
H1121 H 0.86075 0.48904 0.85351 0.0
H1122 H 0.84095 0.53571 0.84045 0.0
H1123 H 0.76259 0.48901 0.83481 0.0
H1124 H 0.7823 0.44201 0.84788 0.0
H1125 H 0.76586 0.42853 0.82758 0.0
H1126 H 0.92231 0.36155 0.7995 0.0
H1127 H 0.95221 0.31425 0.82237 0.0
H1128 H 0.86664 0.40133 0.85434 0.0
C1129 C 0.82194 0.52059 0.80623 0.0
C1130 C 0.82928 0.52923 0.78984 0.0
C1131 C 0.85284 0.49393 0.78055 0.0
C1132 C 0.86985 0.4517 0.78758 0.0
C1133 C 0.86198 0.44472 0.80382 0.0
C1134 C 0.83784 0.47806 0.81291 0.0
C1135 C 0.83544 0.46381 0.83019 0.0
C1136 C 0.86021 0.50108 0.8409 0.0
C1137 C 0.78345 0.45532 0.83542 0.0
C1138 C 0.86327 0.41781 0.82959 0.0
C1139 C 0.87853 0.40708 0.81435 0.0
C1140 C 0.90954 0.36899 0.81142 0.0
C1141 C 0.92625 0.34222 0.82448 0.0
C1142 C 0.91173 0.35376 0.84021 0.0
C1143 C 0.87832 0.3909 0.84254 0.0
H1144 H 0.32155 0.59577 0.07547 0.0
H1145 H 0.22745 0.52939 0.04086 0.0
H1146 H 0.15736 0.55161 0.05736 0.0
H1147 H 0.25299 0.56352 0.11109 0.0
H1148 H 0.26573 0.61945 0.1208 0.0
H1149 H 0.30814 0.59435 0.10697 0.0
H1150 H 0.30635 0.67233 0.09035 0.0
H1151 H 0.26449 0.6977 0.10423 0.0
H1152 H 0.24979 0.69497 0.08332 0.0
H1153 H 0.09713 0.5887 0.07668 0.0
H1154 H 0.05358 0.63866 0.0963 0.0
H1155 H 0.18876 0.67726 0.11823 0.0
C1156 C 0.28621 0.58572 0.07138 0.0
C1157 C 0.27983 0.56106 0.05688 0.0
C1158 C 0.23307 0.54806 0.05202 0.0
C1159 C 0.19312 0.56048 0.06131 0.0
C1160 C 0.2007 0.58524 0.07552 0.0
C1161 C 0.24623 0.59744 0.08053 0.0
C1162 C 0.24505 0.62627 0.09573 0.0
C1163 C 0.26942 0.59926 0.10946 0.0
C1164 C 0.26773 0.67573 0.09325 0.0
C1165 C 0.19171 0.62976 0.09828 0.0
C1166 C 0.16647 0.60557 0.08664 0.0
C1167 C 0.11656 0.60713 0.086 0.0
C1168 C 0.09208 0.63539 0.09723 0.0
C1169 C 0.11772 0.66183 0.10881 0.0
C1170 C 0.16799 0.65738 0.10958 0.0
H1171 H 0.12739 0.56803 0.80739 0.0
H1172 H 0.27561 0.54877 0.82113 0.0
H1173 H 0.25311 0.47772 0.83695 0.0
H1174 H 0.07775 0.53774 0.84496 0.0
H1175 H 0.02619 0.50826 0.83663 0.0
H1176 H 0.05499 0.55536 0.82573 0.0
H1177 H 0.0656 0.49861 0.80157 0.0
H1178 H 0.03711 0.45126 0.8125 0.0
H1179 H 0.09596 0.44247 0.80424 0.0
H1180 H 0.21274 0.40784 0.85178 0.0
H1181 H 0.15767 0.35231 0.86584 0.0
H1182 H 0.03702 0.42013 0.84263 0.0
C1183 C 0.15523 0.54855 0.81356 0.0
C1184 C 0.20334 0.56389 0.81293 0.0
C1185 C 0.23849 0.53788 0.82149 0.0
C1186 C 0.22607 0.49724 0.83042 0.0
C1187 C 0.17826 0.48305 0.83077 0.0
C1188 C 0.14339 0.5083 0.82264 0.0
C1189 C 0.09422 0.48763 0.82561 0.0
C1190 C 0.06138 0.52443 0.83372 0.0
C1191 C 0.07193 0.46888 0.81005 0.0
C1192 C 0.10666 0.44713 0.83679 0.0
C1193 C 0.1553 0.44434 0.8395 0.0
C1194 C 0.1746 0.40975 0.84968 0.0
C1195 C 0.14322 0.37813 0.85755 0.0
C1196 C 0.09321 0.38198 0.85534 0.0
C1197 C 0.07516 0.41642 0.8446 0.0
H1198 H 0.17796 0.40095 0.565 0.0
H1199 H 0.25881 0.49679 0.53481 0.0
H1200 H 0.33433 0.46359 0.54557 0.0
H1201 H 0.25257 0.41047 0.59868 0.0
H1202 H 0.24578 0.34905 0.60453 0.0
H1203 H 0.19897 0.37824 0.59352 0.0
H1204 H 0.203 0.3119 0.57199 0.0
H1205 H 0.2501 0.28273 0.58294 0.0
H1206 H 0.25922 0.29901 0.56239 0.0
H1207 H 0.40222 0.42025 0.56078 0.0
H1208 H 0.45323 0.37649 0.58028 0.0
H1209 H 0.32643 0.31081 0.60006 0.0
C1210 C 0.21149 0.41447 0.56043 0.0
C1211 C 0.21228 0.45137 0.54897 0.0
C1212 C 0.25715 0.46876 0.54365 0.0
C1213 C 0.3003 0.44981 0.5496 0.0
C1214 C 0.29817 0.4134 0.5609 0.0
C1215 C 0.25473 0.39615 0.56628 0.0
C1216 C 0.26164 0.35907 0.57916 0.0
C1217 C 0.23838 0.3752 0.5949 0.0
C1218 C 0.24235 0.31029 0.57379 0.0
C1219 C 0.31564 0.35855 0.58039 0.0
C1220 C 0.33646 0.38951 0.56966 0.0
C1221 C 0.38617 0.39569 0.56914 0.0
C1222 C 0.41497 0.37055 0.58015 0.0
C1223 C 0.39371 0.34026 0.59158 0.0
C1224 C 0.34362 0.33366 0.59138 0.0
H1225 H 0.37571 0.49619 0.29071 0.0
H1226 H 0.22739 0.50628 0.30585 0.0
H1227 H 0.2454 0.58077 0.31988 0.0
H1228 H 0.42268 0.52732 0.32735 0.0
H1229 H 0.47305 0.56005 0.31967 0.0
H1230 H 0.4468 0.51313 0.30799 0.0
H1231 H 0.43411 0.57234 0.28465 0.0
H1232 H 0.45991 0.61965 0.29641 0.0
H1233 H 0.40099 0.6266 0.28799 0.0
H1234 H 0.28025 0.64556 0.33577 0.0
H1235 H 0.33132 0.69303 0.35382 0.0
H1236 H 0.45759 0.64186 0.32936 0.0
C1237 C 0.34679 0.51426 0.29679 0.0
C1238 C 0.29985 0.49534 0.29685 0.0
C1239 C 0.2633 0.5204 0.30508 0.0
C1240 C 0.27319 0.56289 0.31318 0.0
C1241 C 0.31984 0.58007 0.31305 0.0
C1242 C 0.35618 0.55647 0.30515 0.0
C1243 C 0.40433 0.57899 0.30867 0.0
C1244 C 0.43869 0.54273 0.31638 0.0
C1245 C 0.4261 0.60069 0.29353 0.0
C1246 C 0.38951 0.61752 0.32036 0.0
C1247 C 0.34042 0.61815 0.32242 0.0
C1248 C 0.31855 0.64646 0.33397 0.0
C1249 C 0.34769 0.67337 0.34412 0.0
C1250 C 0.39795 0.67191 0.34256 0.0
C1251 C 0.41906 0.645 0.33023 0.0
H1252 H 0.30377 0.38313 0.9578 0.0
H1253 H 0.24259 0.51137 0.97871 0.0
H1254 H 0.17116 0.50162 0.96201 0.0
H1255 H 0.25802 0.39701 0.91838 0.0
H1256 H 0.24419 0.33481 0.91558 0.0
H1257 H 0.29201 0.3521 0.92878 0.0
H1258 H 0.25243 0.30533 0.9519 0.0
H1259 H 0.20491 0.28752 0.93867 0.0
H1260 H 0.19115 0.31778 0.95709 0.0
H1261 H 0.10718 0.48013 0.94255 0.0
H1262 H 0.05068 0.44314 0.92369 0.0
H1263 H 0.14921 0.32502 0.91689 0.0
C1264 C 0.27528 0.40898 0.95907 0.0
C1265 C 0.27987 0.44874 0.96944 0.0
C1266 C 0.24128 0.48154 0.97053 0.0
C1267 C 0.20012 0.47613 0.96116 0.0
C1268 C 0.19728 0.43719 0.95092 0.0
C1269 C 0.23336 0.40366 0.95001 0.0
C1270 C 0.22021 0.36409 0.93842 0.0
C1271 C 0.25573 0.3619 0.92446 0.0
C1272 C 0.21698 0.31583 0.94704 0.0
C1273 C 0.1713 0.38097 0.93292 0.0
C1274 C 0.15909 0.42349 0.94018 0.0
C1275 C 0.11617 0.44667 0.93685 0.0
C1276 C 0.08438 0.42544 0.92604 0.0
C1277 C 0.09533 0.38112 0.91876 0.0
C1278 C 0.13967 0.35889 0.92223 0.0
H1279 H 0.28677 0.5293 0.71644 0.0
H1280 H 0.41012 0.53805 0.74789 0.0
H1281 H 0.44505 0.46783 0.73475 0.0
H1282 H 0.28318 0.39924 0.7121 0.0
H1283 H 0.268 0.40236 0.69124 0.0
H1284 H 0.24914 0.44903 0.70462 0.0
H1285 H 0.29063 0.51176 0.68669 0.0
H1286 H 0.30973 0.46535 0.6733 0.0
H1287 H 0.3532 0.50501 0.68203 0.0
H1288 H 0.46981 0.40144 0.71701 0.0
H1289 H 0.48401 0.34415 0.6953 0.0
H1290 H 0.34717 0.38188 0.67416 0.0
C1291 C 0.32099 0.51639 0.72067 0.0
C1292 C 0.34538 0.53912 0.73334 0.0
C1293 C 0.39001 0.5207 0.73851 0.0
C1294 C 0.41037 0.48095 0.73104 0.0
C1295 C 0.38582 0.46019 0.71839 0.0
C1296 C 0.34218 0.47727 0.7132 0.0
C1297 C 0.3252 0.45105 0.69847 0.0
C1298 C 0.27862 0.4238 0.70182 0.0
C1299 C 0.31938 0.48534 0.68429 0.0
C1300 C 0.3667 0.41728 0.69599 0.0
C1301 C 0.40088 0.42267 0.70776 0.0
C1302 C 0.44312 0.39649 0.7078 0.0
C1303 C 0.45078 0.36401 0.69541 0.0
C1304 C 0.41658 0.35843 0.68305 0.0
C1305 C 0.37392 0.38531 0.68344 0.0
H1306 H 0.25031 0.61047 0.48806 0.0
H1307 H 0.13862 0.68821 0.46321 0.0
H1308 H 0.19861 0.72188 0.44497 0.0
H1309 H 0.34359 0.70393 0.48385 0.0
H1310 H 0.39073 0.66092 0.48096 0.0
H1311 H 0.33974 0.64611 0.49312 0.0
H1312 H 0.32395 0.57152 0.47561 0.0
H1313 H 0.37479 0.58612 0.46343 0.0
H1314 H 0.31681 0.57849 0.45437 0.0
H1315 H 0.26671 0.73783 0.42743 0.0
H1316 H 0.34277 0.74241 0.41266 0.0
H1317 H 0.41251 0.65726 0.44894 0.0
C1318 C 0.23877 0.63506 0.47889 0.0
C1319 C 0.18999 0.64705 0.47706 0.0
C1320 C 0.17594 0.67921 0.46494 0.0
C1321 C 0.20968 0.69837 0.4545 0.0
C1322 C 0.25733 0.68541 0.45647 0.0
C1323 C 0.27217 0.65507 0.46845 0.0
C1324 C 0.32551 0.64573 0.46745 0.0
C1325 C 0.35141 0.66535 0.48223 0.0
C1326 C 0.33585 0.5923 0.46507 0.0
C1327 C 0.33788 0.67428 0.4527 0.0
C1328 C 0.29778 0.69674 0.4466 0.0
C1329 C 0.29865 0.72154 0.43227 0.0
C1330 C 0.34187 0.72411 0.42403 0.0
C1331 C 0.38322 0.70135 0.43001 0.0
C1332 C 0.38157 0.67647 0.44457 0.0
H1333 H 0.20817 0.5114 0.22095 0.0
H1334 H 0.12654 0.40096 0.19691 0.0
H1335 H 0.09725 0.45998 0.17756 0.0
H1336 H 0.12224 0.60358 0.21678 0.0
H1337 H 0.16494 0.65042 0.21316 0.0
H1338 H 0.18197 0.5992 0.22476 0.0
H1339 H 0.25287 0.58342 0.20562 0.0
H1340 H 0.23601 0.63464 0.19394 0.0
H1341 H 0.2417 0.57707 0.18456 0.0
H1342 H 0.07204 0.53054 0.16202 0.0
H1343 H 0.05326 0.60934 0.1507 0.0
H1344 H 0.15312 0.67564 0.18355 0.0
C1345 C 0.18476 0.49952 0.21146 0.0
C1346 C 0.16938 0.45141 0.21058 0.0
C1347 C 0.1382 0.4376 0.19807 0.0
C1348 C 0.12164 0.47083 0.18691 0.0
C1349 C 0.13684 0.51789 0.18824 0.0
C1350 C 0.16788 0.53238 0.20011 0.0
C1351 C 0.17709 0.58572 0.19907 0.0
C1352 C 0.16056 0.61122 0.21435 0.0
C1353 C 0.23007 0.5958 0.19559 0.0
C1354 C 0.14574 0.59891 0.18492 0.0
C1355 C 0.12302 0.559 0.17889 0.0
C1356 C 0.09009 0.56195 0.16648 0.0
C1357 C 0.07958 0.60689 0.16016 0.0
C1358 C 0.10206 0.64847 0.16613 0.0
C1359 C 0.13619 0.64431 0.17853 0.0
loop_
_geom_bond_atom_site_label_1
_geom_bond_atom_site_label_2
_geom_bond_distance
_geom_bond_site_symmetry_2
_ccdc_geom_bond_type
C0 C1 1.384 . S
C0 C2 1.384 1_565 S
C0 H28 0.931 1_565 S
C1 C0 1.384 . S
C1 C4 1.382 . S
C2 C0 1.384 1_545 S
C2 C3 1.381 1_545 S
C2 H29 0.930 . S
C3 C2 1.381 1_565 S
C3 C5 1.381 . S
C3 C6 1.492 . S
C4 C1 1.382 . S
C4 C5 1.387 . S
C4 H30 0.930 . S
C5 C3 1.381 . S
C5 C4 1.387 . S
C5 H31 0.931 . S
C6 C3 1.492 . S
C6 C13 1.389 1_565 S
C6 N44 1.348 . S
C7 C8 1.384 . S
C7 C9 1.384 . S
C7 H32 0.931 . S
C8 C7 1.384 . S
C8 C11 1.382 . S
C9 C7 1.384 . S
C9 C10 1.381 . S
C9 H33 0.930 1_545 S
C10 C9 1.381 . S
C10 C12 1.381 . S
C10 C13 1.487 . S
C11 C8 1.382 . S
C11 C12 1.387 . S
C11 H34 0.930 . S
C12 C10 1.381 . S
C12 C11 1.387 . S
C12 H35 0.931 . S
C13 C6 1.389 1_545 S
C13 C10 1.487 . S
C13 N45 1.343 . S
C14 C15 1.384 . S
C14 C16 1.384 . S
C14 H36 0.931 . S
C15 C14 1.384 . S
C15 C18 1.382 . S
C16 C14 1.384 . S
C16 C17 1.381 . S
C16 H37 0.930 1_545 S
C17 C16 1.381 . S
C17 C19 1.381 . S
C17 C20 1.487 . S
C18 C15 1.382 . S
C18 C19 1.387 . S
C18 H38 0.930 . S
C19 C17 1.381 . S
C19 C18 1.387 . S
C19 H39 0.931 . S
C20 C17 1.487 . S
C20 C27 1.389 1_545 S
C20 N45 1.343 1_655 S
C21 C22 1.384 . S
C21 C23 1.384 1_565 S
C21 H40 0.931 1_565 S
C22 C21 1.384 . S
C22 C25 1.382 . S
C23 C21 1.384 1_545 S
C23 C24 1.381 1_545 S
C23 H41 0.930 . S
C24 C23 1.381 1_565 S
C24 C26 1.381 . S
C24 C27 1.492 . S
C25 C22 1.382 . S
C25 C26 1.387 . S
C25 H42 0.930 . S
C26 C24 1.381 . S
C26 C25 1.387 . S
C26 H43 0.931 . S
C27 C20 1.389 1_565 S
C27 C24 1.492 . S
C27 N44 1.348 1_655 S
H28 C0 0.931 1_545 S
H29 C2 0.930 . S
H30 C4 0.930 . S
H31 C5 0.931 . S
H32 C7 0.931 . S
H33 C9 0.930 1_565 S
H34 C11 0.930 . S
H35 C12 0.931 . S
H36 C14 0.931 . S
H37 C16 0.930 1_565 S
H38 C18 0.930 . S
H39 C19 0.931 . S
H40 C21 0.931 1_545 S
H41 C23 0.930 . S
H42 C25 0.930 . S
H43 C26 0.931 . S
N44 C6 1.348 . S
N44 C27 1.348 1_455 S
N45 C13 1.343 . S
N45 C20 1.343 1_455 S
C46 C47 1.384 . S
C46 C48 1.384 . S
C46 H74 0.931 . S
C47 C46 1.384 . S
C47 C50 1.382 . S
C48 C46 1.384 . S
C48 C49 1.381 . S
C48 H75 0.930 . S
C49 C48 1.381 . S
C49 C51 1.381 . S
C49 C52 1.487 . S
C50 C47 1.382 . S
C50 C51 1.387 . S
C50 H76 0.930 . S
C51 C49 1.381 . S
C51 C50 1.387 . S
C51 H77 0.931 . S
C52 C49 1.487 . S
C52 C59 1.399 . S
C52 N90 1.343 . S
C53 C54 1.384 . S
C53 C55 1.384 . S
C53 H78 0.931 . S
C54 C53 1.384 . S
C54 C57 1.382 . S
C55 C53 1.384 . S
C55 C56 1.381 . S
C55 H79 0.930 . S
C56 C55 1.381 . S
C56 C58 1.381 . S
C56 C59 1.487 . S
C57 C54 1.382 . S
C57 C58 1.387 . S
C57 H80 0.930 . S
C58 C56 1.381 . S
C58 C57 1.387 . S
C58 H81 0.931 . S
C59 C52 1.399 . S
C59 C56 1.487 . S
C59 N91 1.343 . S
C60 C61 1.384 . S
C60 C62 1.384 . S
C60 H82 0.931 . S
C61 C60 1.384 . S
C61 C64 1.382 . S
C62 C60 1.384 . S
C62 C63 1.381 . S
C62 H83 0.930 . S
C63 C62 1.381 . S
C63 C65 1.381 . S
C63 C66 1.487 . S
C64 C61 1.382 . S
C64 C65 1.387 . S
C64 H84 0.930 . S
C65 C63 1.381 . S
C65 C64 1.387 . S
C65 H85 0.931 . S
C66 C63 1.487 . S
C66 C73 1.399 . S
C66 N91 1.343 . S
C67 C68 1.384 . S
C67 C69 1.384 . S
C67 H86 0.931 . S
C68 C67 1.384 . S
C68 C71 1.382 . S
C69 C67 1.384 . S
C69 C70 1.381 . S
C69 H87 0.930 . S
C70 C69 1.381 . S
C70 C72 1.381 . S
C70 C73 1.487 . S
C71 C68 1.382 . S
C71 C72 1.387 . S
C71 H88 0.930 . S
C72 C70 1.381 . S
C72 C71 1.387 . S
C72 H89 0.931 . S
C73 C66 1.399 . S
C73 C70 1.487 . S
C73 N90 1.343 . S
H74 C46 0.931 . S
H75 C48 0.930 . S
H76 C50 0.930 . S
H77 C51 0.931 . S
H78 C53 0.931 . S
H79 C55 0.930 . S
H80 C57 0.930 . S
H81 C58 0.931 . S
H82 C60 0.931 . S
H83 C62 0.930 . S
H84 C64 0.930 . S
H85 C65 0.931 . S
H86 C67 0.931 . S
H87 C69 0.930 . S
H88 C71 0.930 . S
H89 C72 0.931 . S
N90 C52 1.343 . S
N90 C73 1.343 . S
N91 C59 1.343 . S
N91 C66 1.343 . S
C92 C93 1.384 . S
C92 C94 1.384 . S
C92 H120 0.931 1_545 S
C93 C92 1.384 . S
C93 C96 1.382 . S
C94 C92 1.384 . S
C94 C95 1.381 . S
C94 H121 0.930 1_545 S
C95 C94 1.381 . S
C95 C97 1.381 . S
C95 C98 1.487 1_556 S
C96 C93 1.382 . S
C96 C97 1.387 . S
C96 H122 0.930 . S
C97 C95 1.381 . S
C97 C96 1.387 . S
C97 H123 0.931 . S
C98 C95 1.487 1_554 S
C98 C105 1.399 1_545 S
C98 N136 1.343 1_554 S
C99 C100 1.384 . S
C99 C101 1.384 . S
C99 H124 0.931 1_565 S
C100 C99 1.384 . S
C100 C103 1.382 . S
C101 C99 1.384 . S
C101 C102 1.381 . S
C101 H125 0.930 1_565 S
C102 C101 1.381 . S
C102 C104 1.381 . S
C102 C105 1.487 . S
C103 C100 1.382 . S
C103 C104 1.387 . S
C103 H126 0.930 . S
C104 C102 1.381 . S
C104 C103 1.387 . S
C104 H127 0.931 . S
C105 C98 1.399 1_565 S
C105 C102 1.487 . S
C105 N137 1.343 . S
C106 C107 1.384 . S
C106 C108 1.384 . S
C106 H128 0.931 1_565 S
C107 C106 1.384 . S
C107 C110 1.382 . S
C108 C106 1.384 . S
C108 C109 1.381 . S
C108 H129 0.930 1_565 S
C109 C108 1.381 . S
C109 C111 1.381 . S
C109 C112 1.487 . S
C110 C107 1.382 . S
C110 C111 1.387 . S
C110 H130 0.930 . S
C111 C109 1.381 . S
C111 C110 1.387 . S
C111 H131 0.931 . S
C112 C109 1.487 . S
C112 C119 1.399 1_565 S
C112 N137 1.343 . S
C113 C114 1.384 . S
C113 C115 1.384 . S
C113 H132 0.931 1_545 S
C114 C113 1.384 . S
C114 C117 1.382 . S
C115 C113 1.384 . S
C115 C116 1.381 . S
C115 H133 0.930 1_545 S
C116 C115 1.381 . S
C116 C118 1.381 . S
C116 C119 1.487 1_556 S
C117 C114 1.382 . S
C117 C118 1.387 . S
C117 H134 0.930 . S
C118 C116 1.381 . S
C118 C117 1.387 . S
C118 H135 0.931 . S
C119 C112 1.399 1_545 S
C119 C116 1.487 1_554 S
C119 N136 1.343 1_554 S
H120 C92 0.931 1_565 S
H121 C94 0.930 1_565 S
H122 C96 0.930 . S
H123 C97 0.931 . S
H124 C99 0.931 1_545 S
H125 C101 0.930 1_545 S
H126 C103 0.930 . S
H127 C104 0.931 . S
H128 C106 0.931 1_545 S
H129 C108 0.930 1_545 S
H130 C110 0.930 . S
H131 C111 0.931 . S
H132 C113 0.931 1_565 S
H133 C115 0.930 1_565 S
H134 C117 0.930 . S
H135 C118 0.931 . S
N136 C98 1.343 1_556 S
N136 C119 1.343 1_556 S
N137 C105 1.343 . S
N137 C112 1.343 . S
C138 C139 1.384 . S
C138 C140 1.384 . S
C138 H166 0.931 . S
C139 C138 1.384 . S
C139 C142 1.382 . S
C140 C138 1.384 . S
C140 C141 1.381 . S
C140 H167 0.930 . S
C141 C140 1.381 . S
C141 C143 1.381 . S
C141 C144 1.487 . S
C142 C139 1.382 . S
C142 C143 1.387 . S
C142 H168 0.930 . S
C143 C141 1.381 . S
C143 C142 1.387 . S
C143 H169 0.931 . S
C144 C141 1.487 . S
C144 C151 1.399 . S
C144 N182 1.343 . S
C145 C146 1.384 . S
C145 C147 1.384 . S
C145 H170 0.931 . S
C146 C145 1.384 . S
C146 C149 1.382 . S
C147 C145 1.384 . S
C147 C148 1.381 . S
C147 H171 0.930 . S
C148 C147 1.381 . S
C148 C150 1.381 . S
C148 C151 1.487 . S
C149 C146 1.382 . S
C149 C150 1.387 . S
C149 H172 0.930 . S
C150 C148 1.381 . S
C150 C149 1.387 . S
C150 H173 0.931 . S
C151 C144 1.399 . S
C151 C148 1.487 . S
C151 N183 1.343 . S
C152 C153 1.384 . S
C152 C154 1.384 . S
C152 H174 0.931 . S
C153 C152 1.384 . S
C153 C156 1.382 . S
C154 C152 1.384 . S
C154 C155 1.381 . S
C154 H175 0.930 . S
C155 C154 1.381 . S
C155 C157 1.381 . S
C155 C158 1.487 . S
C156 C153 1.382 . S
C156 C157 1.387 . S
C156 H176 0.930 . S
C157 C155 1.381 . S
C157 C156 1.387 . S
C157 H177 0.931 . S
C158 C155 1.487 . S
C158 C165 1.399 . S
C158 N183 1.343 . S
C159 C160 1.384 . S
C159 C161 1.384 . S
C159 H178 0.931 . S
C160 C159 1.384 . S
C160 C163 1.382 . S
C161 C159 1.384 . S
C161 C162 1.381 . S
C161 H179 0.930 . S
C162 C161 1.381 . S
C162 C164 1.381 . S
C162 C165 1.487 . S
C163 C160 1.382 . S
C163 C164 1.387 . S
C163 H180 0.930 . S
C164 C162 1.381 . S
C164 C163 1.387 . S
C164 H181 0.931 . S
C165 C158 1.399 . S
C165 C162 1.487 . S
C165 N182 1.343 . S
H166 C138 0.931 . S
H167 C140 0.930 . S
H168 C142 0.930 . S
H169 C143 0.931 . S
H170 C145 0.931 . S
H171 C147 0.930 . S
H172 C149 0.930 . S
H173 C150 0.931 . S
H174 C152 0.931 . S
H175 C154 0.930 . S
H176 C156 0.930 . S
H177 C157 0.931 . S
H178 C159 0.931 . S
H179 C161 0.930 . S
H180 C163 0.930 . S
H181 C164 0.931 . S
N182 C144 1.343 . S
N182 C165 1.343 . S
N183 C151 1.343 . S
N183 C158 1.343 . S
C184 C185 1.384 . S
C184 C186 1.384 . S
C184 H212 0.931 . S
C185 C184 1.384 . S
C185 C188 1.382 . S
C186 C184 1.384 . S
C186 C187 1.381 . S
C186 H213 0.930 . S
C187 C186 1.381 . S
C187 C189 1.381 . S
C187 C190 1.487 . S
C188 C185 1.382 . S
C188 C189 1.387 . S
C188 H214 0.930 . S
C189 C187 1.381 . S
C189 C188 1.387 . S
C189 H215 0.931 . S
C190 C187 1.487 . S
C190 C197 1.399 . S
C190 N228 1.343 . S
C191 C192 1.384 . S
C191 C193 1.384 . S
C191 H216 0.931 . S
C192 C191 1.384 . S
C192 C195 1.382 . S
C193 C191 1.384 . S
C193 C194 1.381 . S
C193 H217 0.930 . S
C194 C193 1.381 . S
C194 C196 1.381 . S
C194 C197 1.487 . S
C195 C192 1.382 . S
C195 C196 1.387 . S
C195 H218 0.930 . S
C196 C194 1.381 . S
C196 C195 1.387 . S
C196 H219 0.931 . S
C197 C190 1.399 . S
C197 C194 1.487 . S
C197 N229 1.343 . S
C198 C199 1.384 . S
C198 C200 1.384 . S
C198 H220 0.931 . S
C199 C198 1.384 . S
C199 C202 1.382 . S
C200 C198 1.384 . S
C200 C201 1.381 . S
C200 H221 0.930 . S
C201 C200 1.381 . S
C201 C203 1.381 . S
C201 C204 1.487 . S
C202 C199 1.382 . S
C202 C203 1.387 . S
C202 H222 0.930 . S
C203 C201 1.381 . S
C203 C202 1.387 . S
C203 H223 0.931 . S
C204 C201 1.487 . S
C204 C211 1.399 . S
C204 N229 1.343 . S
C205 C206 1.384 . S
C205 C207 1.384 . S
C205 H224 0.931 . S
C206 C205 1.384 . S
C206 C209 1.382 . S
C207 C205 1.384 . S
C207 C208 1.381 . S
C207 H225 0.930 . S
C208 C207 1.381 . S
C208 C210 1.381 . S
C208 C211 1.487 . S
C209 C206 1.382 . S
C209 C210 1.387 . S
C209 H226 0.930 . S
C210 C208 1.381 . S
C210 C209 1.387 . S
C210 H227 0.931 . S
C211 C204 1.399 . S
C211 C208 1.487 . S
C211 N228 1.343 . S
H212 C184 0.931 . S
H213 C186 0.930 . S
H214 C188 0.930 . S
H215 C189 0.931 . S
H216 C191 0.931 . S
H217 C193 0.930 . S
H218 C195 0.930 . S
H219 C196 0.931 . S
H220 C198 0.931 . S
H221 C200 0.930 . S
H222 C202 0.930 . S
H223 C203 0.931 . S
H224 C205 0.931 . S
H225 C207 0.930 . S
H226 C209 0.930 . S
H227 C210 0.931 . S
N228 C190 1.343 . S
N228 C211 1.343 . S
N229 C197 1.343 . S
N229 C204 1.343 . S
C230 C231 1.384 . S
C230 C232 1.384 . S
C230 H258 0.931 . S
C231 C230 1.384 . S
C231 C234 1.382 . S
C232 C230 1.384 . S
C232 C233 1.381 . S
C232 H259 0.930 . S
C233 C232 1.381 . S
C233 C235 1.381 . S
C233 C236 1.487 . S
C234 C231 1.382 . S
C234 C235 1.387 . S
C234 H260 0.930 . S
C235 C233 1.381 . S
C235 C234 1.387 . S
C235 H261 0.931 . S
C236 C233 1.487 . S
C236 C243 1.399 . S
C236 N274 1.343 . S
C237 C238 1.384 . S
C237 C239 1.384 . S
C237 H262 0.931 . S
C238 C237 1.384 . S
C238 C241 1.382 . S
C239 C237 1.384 . S
C239 C240 1.381 . S
C239 H263 0.930 . S
C240 C239 1.381 . S
C240 C242 1.381 . S
C240 C243 1.487 . S
C241 C238 1.382 . S
C241 C242 1.387 . S
C241 H264 0.930 . S
C242 C240 1.381 . S
C242 C241 1.387 . S
C242 H265 0.931 . S
C243 C236 1.399 . S
C243 C240 1.487 . S
C243 N275 1.343 . S
C244 C245 1.384 . S
C244 C246 1.384 . S
C244 H266 0.931 . S
C245 C244 1.384 . S
C245 C248 1.382 . S
C246 C244 1.384 . S
C246 C247 1.381 . S
C246 H267 0.930 . S
C247 C246 1.381 . S
C247 C249 1.381 . S
C247 C250 1.487 . S
C248 C245 1.382 . S
C248 C249 1.387 . S
C248 H268 0.930 . S
C249 C247 1.381 . S
C249 C248 1.387 . S
C249 H269 0.931 . S
C250 C247 1.487 . S
C250 C257 1.399 . S
C250 N275 1.343 . S
C251 C252 1.384 . S
C251 C253 1.384 . S
C251 H270 0.931 . S
C252 C251 1.384 . S
C252 C255 1.382 . S
C253 C251 1.384 . S
C253 C254 1.381 . S
C253 H271 0.930 . S
C254 C253 1.381 . S
C254 C256 1.381 . S
C254 C257 1.487 . S
C255 C252 1.382 . S
C255 C256 1.387 . S
C255 H272 0.930 . S
C256 C254 1.381 . S
C256 C255 1.387 . S
C256 H273 0.931 . S
C257 C250 1.399 . S
C257 C254 1.487 . S
C257 N274 1.343 . S
H258 C230 0.931 . S
H259 C232 0.930 . S
H260 C234 0.930 . S
H261 C235 0.931 . S
H262 C237 0.931 . S
H263 C239 0.930 . S
H264 C241 0.930 . S
H265 C242 0.931 . S
H266 C244 0.931 . S
H267 C246 0.930 . S
H268 C248 0.930 . S
H269 C249 0.931 . S
H270 C251 0.931 . S
H271 C253 0.930 . S
H272 C255 0.930 . S
H273 C256 0.931 . S
N274 C236 1.343 . S
N274 C257 1.343 . S
N275 C243 1.343 . S
N275 C250 1.343 . S
C276 C277 1.384 . S
C276 C278 1.384 . S
C276 H304 0.931 . S
C277 C276 1.384 . S
C277 C280 1.382 . S
C278 C276 1.384 . S
C278 C279 1.381 . S
C278 H305 0.930 . S
C279 C278 1.381 . S
C279 C281 1.381 . S
C279 C282 1.487 1_556 S
C280 C277 1.382 . S
C280 C281 1.387 . S
C280 H306 0.930 . S
C281 C279 1.381 . S
C281 C280 1.387 . S
C281 H307 0.931 . S
C282 C279 1.487 1_554 S
C282 C289 1.399 . S
C282 N320 1.343 1_554 S
C283 C284 1.384 . S
C283 C285 1.384 . S
C283 H308 0.931 . S
C284 C283 1.384 . S
C284 C287 1.382 . S
C285 C283 1.384 . S
C285 C286 1.381 . S
C285 H309 0.930 . S
C286 C285 1.381 . S
C286 C288 1.381 . S
C286 C289 1.487 . S
C287 C284 1.382 . S
C287 C288 1.387 . S
C287 H310 0.930 . S
C288 C286 1.381 . S
C288 C287 1.387 . S
C288 H311 0.931 . S
C289 C282 1.399 . S
C289 C286 1.487 . S
C289 N321 1.343 . S
C290 C291 1.384 . S
C290 C292 1.384 . S
C290 H312 0.931 . S
C291 C290 1.384 . S
C291 C294 1.382 . S
C292 C290 1.384 . S
C292 C293 1.381 . S
C292 H313 0.930 . S
C293 C292 1.381 . S
C293 C295 1.381 . S
C293 C296 1.487 . S
C294 C291 1.382 . S
C294 C295 1.387 . S
C294 H314 0.930 . S
C295 C293 1.381 . S
C295 C294 1.387 . S
C295 H315 0.931 . S
C296 C293 1.487 . S
C296 C303 1.399 . S
C296 N321 1.343 . S
C297 C298 1.384 . S
C297 C299 1.384 . S
C297 H316 0.931 . S
C298 C297 1.384 . S
C298 C301 1.382 . S
C299 C297 1.384 . S
C299 C300 1.381 . S
C299 H317 0.930 . S
C300 C299 1.381 . S
C300 C302 1.381 . S
C300 C303 1.487 1_556 S
C301 C298 1.382 . S
C301 C302 1.387 . S
C301 H318 0.930 . S
C302 C300 1.381 . S
C302 C301 1.387 . S
C302 H319 0.931 . S
C303 C296 1.399 . S
C303 C300 1.487 1_554 S
C303 N320 1.343 1_554 S
H304 C276 0.931 . S
H305 C278 0.930 . S
H306 C280 0.930 . S
H307 C281 0.931 . S
H308 C283 0.931 . S
H309 C285 0.930 . S
H310 C287 0.930 . S
H311 C288 0.931 . S
H312 C290 0.931 . S
H313 C292 0.930 . S
H314 C294 0.930 . S
H315 C295 0.931 . S
H316 C297 0.931 . S
H317 C299 0.930 . S
H318 C301 0.930 . S
H319 C302 0.931 . S
N320 C282 1.343 1_556 S
N320 C303 1.343 1_556 S
N321 C289 1.343 . S
N321 C296 1.343 . S
C322 C323 1.384 . S
C322 C324 1.384 . S
C322 H350 0.931 . S
C323 C322 1.384 . S
C323 C326 1.382 . S
C324 C322 1.384 . S
C324 C325 1.381 . S
C324 H351 0.930 . S
C325 C324 1.381 . S
C325 C327 1.381 . S
C325 C328 1.487 . S
C326 C323 1.382 . S
C326 C327 1.387 . S
C326 H352 0.930 . S
C327 C325 1.381 . S
C327 C326 1.387 . S
C327 H353 0.931 . S
C328 C325 1.487 . S
C328 C335 1.399 . S
C328 N366 1.343 1_655 S
C329 C330 1.384 . S
C329 C331 1.384 . S
C329 H354 0.931 . S
C330 C329 1.384 . S
C330 C333 1.382 . S
C331 C329 1.384 . S
C331 C332 1.381 . S
C331 H355 0.930 . S
C332 C331 1.381 . S
C332 C334 1.381 . S
C332 C335 1.487 . S
C333 C330 1.382 . S
C333 C334 1.387 . S
C333 H356 0.930 . S
C334 C332 1.381 . S
C334 C333 1.387 . S
C334 H357 0.931 . S
C335 C328 1.399 . S
C335 C332 1.487 . S
C335 N367 1.343 1_655 S
C336 C337 1.384 . S
C336 C338 1.384 . S
C336 H358 0.931 . S
C337 C336 1.384 . S
C337 C340 1.382 . S
C338 C336 1.384 . S
C338 C339 1.381 . S
C338 H359 0.930 . S
C339 C338 1.381 . S
C339 C341 1.381 . S
C339 C342 1.487 . S
C340 C337 1.382 . S
C340 C341 1.387 . S
C340 H360 0.930 . S
C341 C339 1.381 . S
C341 C340 1.387 . S
C341 H361 0.931 . S
C342 C339 1.487 . S
C342 C349 1.399 . S
C342 N367 1.343 . S
C343 C344 1.384 . S
C343 C345 1.384 . S
C343 H362 0.931 . S
C344 C343 1.384 . S
C344 C347 1.382 . S
C345 C343 1.384 . S
C345 C346 1.381 . S
C345 H363 0.930 . S
C346 C345 1.381 . S
C346 C348 1.381 . S
C346 C349 1.487 . S
C347 C344 1.382 . S
C347 C348 1.387 . S
C347 H364 0.930 . S
C348 C346 1.381 . S
C348 C347 1.387 . S
C348 H365 0.931 . S
C349 C342 1.399 . S
C349 C346 1.487 . S
C349 N366 1.343 . S
H350 C322 0.931 . S
H351 C324 0.930 . S
H352 C326 0.930 . S
H353 C327 0.931 . S
H354 C329 0.931 . S
H355 C331 0.930 . S
H356 C333 0.930 . S
H357 C334 0.931 . S
H358 C336 0.931 . S
H359 C338 0.930 . S
H360 C340 0.930 . S
H361 C341 0.931 . S
H362 C343 0.931 . S
H363 C345 0.930 . S
H364 C347 0.930 . S
H365 C348 0.931 . S
N366 C328 1.343 1_455 S
N366 C349 1.343 . S
N367 C335 1.343 1_455 S
N367 C342 1.343 . S
Fe368 O369 1.886 . S
Fe368 O372 1.715 1_455 S
Fe368 O377 2.077 . S
Fe368 O382 1.935 1_455 S
Fe368 O388 2.077 . S
Fe368 O397 1.935 1_455 S
O369 Fe368 1.886 . S
O369 Fe371 1.715 . S
Fe370 O372 1.886 . S
Fe370 O373 1.715 . S
Fe370 O380 1.935 . S
Fe370 O381 2.077 . S
Fe370 O387 1.935 . S
Fe370 O396 2.077 . S
Fe371 O369 1.715 . S
Fe371 O374 1.886 . S
Fe371 O378 1.935 . S
Fe371 O383 2.077 . S
Fe371 O389 1.935 . S
Fe371 O393 2.077 . S
O372 Fe368 1.715 1_655 S
O372 Fe370 1.886 . S
O373 Fe370 1.715 . S
O373 Fe375 1.886 . S
O374 Fe371 1.886 . S
O374 Fe375 1.715 1_455 S
Fe375 O373 1.886 . S
Fe375 O374 1.715 1_655 S
Fe375 O379 2.077 . S
Fe375 O384 1.935 1_655 S
Fe375 O386 2.077 . S
Fe375 O394 1.935 1_655 S
C376 O388 1.381 . S
C376 O389 1.421 . S
O377 Fe368 2.077 . S
O377 C390 1.381 . S
O378 Fe371 1.935 . S
O378 C390 1.421 . S
O379 Fe375 2.077 . S
O379 C395 1.381 . S
O380 Fe370 1.935 . S
O380 C395 1.421 . S
O381 Fe370 2.077 . S
O381 C385 1.381 . S
O382 Fe368 1.935 1_655 S
O382 C385 1.421 . S
O383 Fe371 2.077 . S
O383 C391 1.381 . S
O384 Fe375 1.935 1_455 S
O384 C391 1.421 . S
C385 O381 1.381 . S
C385 O382 1.421 . S
O386 Fe375 2.077 . S
O386 C398 1.381 . S
O387 Fe370 1.935 . S
O387 C398 1.421 . S
O388 Fe368 2.077 . S
O388 C376 1.381 . S
O389 Fe371 1.935 . S
O389 C376 1.421 . S
C390 O377 1.381 . S
C390 O378 1.421 . S
C391 O383 1.381 . S
C391 O384 1.421 . S
C392 O393 1.381 . S
C392 O394 1.421 . S
O393 Fe371 2.077 . S
O393 C392 1.381 . S
O394 Fe375 1.935 1_455 S
O394 C392 1.421 . S
C395 O379 1.381 . S
C395 O380 1.421 . S
O396 Fe370 2.077 . S
O396 C399 1.381 . S
O397 Fe368 1.935 1_655 S
O397 C399 1.421 . S
C398 O386 1.381 . S
C398 O387 1.421 . S
C399 O396 1.381 . S
C399 O397 1.421 . S
Fe400 O401 1.886 . S
Fe400 O404 1.715 . S
Fe400 O409 2.077 . S
Fe400 O414 1.935 . S
Fe400 O420 2.077 . S
Fe400 O429 1.935 . S
O401 Fe400 1.886 . S
O401 Fe403 1.715 . S
Fe402 O404 1.886 . S
Fe402 O405 1.715 . S
Fe402 O412 1.935 . S
Fe402 O413 2.077 . S
Fe402 O419 1.935 . S
Fe402 O428 2.077 . S
Fe403 O401 1.715 . S
Fe403 O406 1.886 . S
Fe403 O410 1.935 . S
Fe403 O415 2.077 . S
Fe403 O421 1.935 . S
Fe403 O425 2.077 . S
O404 Fe400 1.715 . S
O404 Fe402 1.886 . S
O405 Fe402 1.715 . S
O405 Fe407 1.886 . S
O406 Fe403 1.886 . S
O406 Fe407 1.715 . S
Fe407 O405 1.886 . S
Fe407 O406 1.715 . S
Fe407 O411 2.077 . S
Fe407 O416 1.935 . S
Fe407 O418 2.077 . S
Fe407 O426 1.935 . S
C408 O420 1.381 . S
C408 O421 1.421 . S
O409 Fe400 2.077 . S
O409 C422 1.381 . S
O410 Fe403 1.935 . S
O410 C422 1.421 . S
O411 Fe407 2.077 . S
O411 C427 1.381 . S
O412 Fe402 1.935 . S
O412 C427 1.421 . S
O413 Fe402 2.077 . S
O413 C417 1.381 . S
O414 Fe400 1.935 . S
O414 C417 1.421 . S
O415 Fe403 2.077 . S
O415 C423 1.381 . S
O416 Fe407 1.935 . S
O416 C423 1.421 . S
C417 O413 1.381 . S
C417 O414 1.421 . S
O418 Fe407 2.077 . S
O418 C430 1.381 . S
O419 Fe402 1.935 . S
O419 C430 1.421 . S
O420 Fe400 2.077 . S
O420 C408 1.381 . S
O421 Fe403 1.935 . S
O421 C408 1.421 . S
C422 O409 1.381 . S
C422 O410 1.421 . S
C423 O415 1.381 . S
C423 O416 1.421 . S
C424 O425 1.381 . S
C424 O426 1.421 . S
O425 Fe403 2.077 . S
O425 C424 1.381 . S
O426 Fe407 1.935 . S
O426 C424 1.421 . S
C427 O411 1.381 . S
C427 O412 1.421 . S
O428 Fe402 2.077 . S
O428 C431 1.381 . S
O429 Fe400 1.935 . S
O429 C431 1.421 . S
C430 O418 1.381 . S
C430 O419 1.421 . S
C431 O428 1.381 . S
C431 O429 1.421 . S
Fe432 O433 1.886 . S
Fe432 O436 1.715 . S
Fe432 O441 2.077 . S
Fe432 O446 1.935 . S
Fe432 O452 2.077 . S
Fe432 O461 1.935 . S
O433 Fe432 1.886 . S
O433 Fe435 1.715 . S
Fe434 O436 1.886 . S
Fe434 O437 1.715 . S
Fe434 O444 1.935 . S
Fe434 O445 2.077 . S
Fe434 O451 1.935 . S
Fe434 O460 2.077 . S
Fe435 O433 1.715 . S
Fe435 O438 1.886 . S
Fe435 O442 1.935 . S
Fe435 O447 2.077 . S
Fe435 O453 1.935 . S
Fe435 O457 2.077 . S
O436 Fe432 1.715 . S
O436 Fe434 1.886 . S
O437 Fe434 1.715 . S
O437 Fe439 1.886 . S
O438 Fe435 1.886 . S
O438 Fe439 1.715 . S
Fe439 O437 1.886 . S
Fe439 O438 1.715 . S
Fe439 O443 2.077 . S
Fe439 O448 1.935 . S
Fe439 O450 2.077 . S
Fe439 O458 1.935 . S
C440 O452 1.381 . S
C440 O453 1.421 . S
O441 Fe432 2.077 . S
O441 C454 1.381 . S
O442 Fe435 1.935 . S
O442 C454 1.421 . S
O443 Fe439 2.077 . S
O443 C459 1.381 . S
O444 Fe434 1.935 . S
O444 C459 1.421 . S
O445 Fe434 2.077 . S
O445 C449 1.381 . S
O446 Fe432 1.935 . S
O446 C449 1.421 . S
O447 Fe435 2.077 . S
O447 C455 1.381 . S
O448 Fe439 1.935 . S
O448 C455 1.421 . S
C449 O445 1.381 . S
C449 O446 1.421 . S
O450 Fe439 2.077 . S
O450 C462 1.381 . S
O451 Fe434 1.935 . S
O451 C462 1.421 . S
O452 Fe432 2.077 . S
O452 C440 1.381 . S
O453 Fe435 1.935 . S
O453 C440 1.421 . S
C454 O441 1.381 . S
C454 O442 1.421 . S
C455 O447 1.381 . S
C455 O448 1.421 . S
C456 O457 1.381 . S
C456 O458 1.421 . S
O457 Fe435 2.077 . S
O457 C456 1.381 . S
O458 Fe439 1.935 . S
O458 C456 1.421 . S
C459 O443 1.381 . S
C459 O444 1.421 . S
O460 Fe434 2.077 . S
O460 C463 1.381 . S
O461 Fe432 1.935 . S
O461 C463 1.421 . S
C462 O450 1.381 . S
C462 O451 1.421 . S
C463 O460 1.381 . S
C463 O461 1.421 . S
Fe464 O465 1.886 . S
Fe464 O468 1.715 . S
Fe464 O473 2.077 1_455 S
Fe464 O478 1.935 1_455 S
Fe464 O484 2.077 . S
Fe464 O493 1.935 . S
O465 Fe464 1.886 . S
O465 Fe467 1.715 . S
Fe466 O468 1.886 . S
Fe466 O469 1.715 . S
Fe466 O476 1.935 1_455 S
Fe466 O477 2.077 1_455 S
Fe466 O483 1.935 . S
Fe466 O492 2.077 . S
Fe467 O465 1.715 . S
Fe467 O470 1.886 . S
Fe467 O474 1.935 1_455 S
Fe467 O479 2.077 1_455 S
Fe467 O485 1.935 . S
Fe467 O489 2.077 . S
O468 Fe464 1.715 . S
O468 Fe466 1.886 . S
O469 Fe466 1.715 . S
O469 Fe471 1.886 . S
O470 Fe467 1.886 . S
O470 Fe471 1.715 . S
Fe471 O469 1.886 . S
Fe471 O470 1.715 . S
Fe471 O475 2.077 1_455 S
Fe471 O480 1.935 1_455 S
Fe471 O482 2.077 . S
Fe471 O490 1.935 . S
C472 O484 1.381 . S
C472 O485 1.421 . S
O473 Fe464 2.077 1_655 S
O473 C486 1.381 . S
O474 Fe467 1.935 1_655 S
O474 C486 1.421 . S
O475 Fe471 2.077 1_655 S
O475 C491 1.381 . S
O476 Fe466 1.935 1_655 S
O476 C491 1.421 . S
O477 Fe466 2.077 1_655 S
O477 C481 1.381 . S
O478 Fe464 1.935 1_655 S
O478 C481 1.421 . S
O479 Fe467 2.077 1_655 S
O479 C487 1.381 . S
O480 Fe471 1.935 1_655 S
O480 C487 1.421 . S
C481 O477 1.381 . S
C481 O478 1.421 . S
O482 Fe471 2.077 . S
O482 C494 1.381 . S
O483 Fe466 1.935 . S
O483 C494 1.421 . S
O484 Fe464 2.077 . S
O484 C472 1.381 . S
O485 Fe467 1.935 . S
O485 C472 1.421 . S
C486 O473 1.381 . S
C486 O474 1.421 . S
C487 O479 1.381 . S
C487 O480 1.421 . S
C488 O489 1.381 . S
C488 O490 1.421 . S
O489 Fe467 2.077 . S
O489 C488 1.381 . S
O490 Fe471 1.935 . S
O490 C488 1.421 . S
C491 O475 1.381 . S
C491 O476 1.421 . S
O492 Fe466 2.077 . S
O492 C495 1.381 . S
O493 Fe464 1.935 . S
O493 C495 1.421 . S
C494 O482 1.381 . S
C494 O483 1.421 . S
C495 O492 1.381 . S
C495 O493 1.421 . S
H496 C508 0.930 . S
H497 C510 0.930 . S
H498 C511 0.930 . S
H499 C515 0.959 . S
H500 C515 0.959 . S
H501 C515 0.961 . S
H502 C516 0.960 . S
H503 C516 0.961 . S
H504 C516 0.959 . S
H505 C519 0.929 . S
H506 C520 0.931 . S
H507 C522 0.930 . S
C508 H496 0.930 . S
C508 C509 1.399 . S
C508 C513 1.399 . S
C509 C508 1.399 . S
C509 C510 1.376 . S
C510 H497 0.930 . S
C510 C509 1.376 . S
C510 C511 1.388 . S
C511 H498 0.930 . S
C511 C510 1.388 . S
C511 C512 1.390 . S
C512 C511 1.390 . S
C512 C513 1.394 . S
C512 C518 1.465 . S
C513 C508 1.399 . S
C513 C512 1.394 . S
C513 C514 1.516 . S
C514 C513 1.516 . S
C514 C515 1.502 . S
C514 C516 1.561 . S
C514 C517 1.526 . S
C515 H499 0.959 . S
C515 H500 0.959 . S
C515 H501 0.961 . S
C515 C514 1.502 . S
C516 H502 0.960 . S
C516 H503 0.961 . S
C516 H504 0.959 . S
C516 C514 1.561 . S
C517 C514 1.526 . S
C517 C518 1.396 . S
C517 C522 1.390 . S
C518 C512 1.465 . S
C518 C517 1.396 . S
C518 C519 1.399 . S
C519 H505 0.929 . S
C519 C518 1.399 . S
C519 C520 1.385 . S
C520 H506 0.931 . S
C520 C519 1.385 . S
C520 C521 1.389 . S
C521 C520 1.389 . S
C521 C522 1.387 . S
C522 H507 0.930 . S
C522 C517 1.390 . S
C522 C521 1.387 . S
H523 C535 0.930 . S
H524 C537 0.930 . S
H525 C538 0.930 . S
H526 C542 0.959 1_545 S
H527 C542 0.959 . S
H528 C542 0.961 . S
H529 C543 0.960 1_565 S
H530 C543 0.961 . S
H531 C543 0.959 . S
H532 C546 0.929 . S
H533 C547 0.931 . S
H534 C549 0.930 . S
C535 H523 0.930 . S
C535 C536 1.399 . S
C535 C540 1.399 1_565 S
C536 C535 1.399 . S
C536 C537 1.376 1_565 S
C537 H524 0.930 . S
C537 C536 1.376 1_545 S
C537 C538 1.388 . S
C538 H525 0.930 . S
C538 C537 1.388 . S
C538 C539 1.390 . S
C539 C538 1.390 . S
C539 C540 1.394 . S
C539 C545 1.465 . S
C540 C535 1.399 1_545 S
C540 C539 1.394 . S
C540 C541 1.516 . S
C541 C540 1.516 . S
C541 C542 1.502 1_545 S
C541 C543 1.561 . S
C541 C544 1.526 . S
C542 H526 0.959 1_565 S
C542 H527 0.959 . S
C542 H528 0.961 . S
C542 C541 1.502 1_565 S
C543 H529 0.960 1_545 S
C543 H530 0.961 . S
C543 H531 0.959 . S
C543 C541 1.561 . S
C544 C541 1.526 . S
C544 C545 1.396 . S
C544 C549 1.390 . S
C545 C539 1.465 . S
C545 C544 1.396 . S
C545 C546 1.399 . S
C546 H532 0.929 . S
C546 C545 1.399 . S
C546 C547 1.385 . S
C547 H533 0.931 . S
C547 C546 1.385 . S
C547 C548 1.389 . S
C548 C547 1.389 . S
C548 C549 1.387 . S
C549 H534 0.930 . S
C549 C544 1.390 . S
C549 C548 1.387 . S
H550 C562 0.930 . S
H551 C564 0.930 . S
H552 C565 0.930 . S
H553 C569 0.959 . S
H554 C569 0.959 . S
H555 C569 0.961 . S
H556 C570 0.960 . S
H557 C570 0.961 . S
H558 C570 0.959 . S
H559 C573 0.929 . S
H560 C574 0.931 . S
H561 C576 0.930 . S
C562 H550 0.930 . S
C562 C563 1.399 . S
C562 C567 1.399 . S
C563 C562 1.399 . S
C563 C564 1.376 . S
C564 H551 0.930 . S
C564 C563 1.376 . S
C564 C565 1.388 . S
C565 H552 0.930 . S
C565 C564 1.388 . S
C565 C566 1.390 . S
C566 C565 1.390 . S
C566 C567 1.394 . S
C566 C572 1.465 . S
C567 C562 1.399 . S
C567 C566 1.394 . S
C567 C568 1.516 . S
C568 C567 1.516 . S
C568 C569 1.502 . S
C568 C570 1.561 . S
C568 C571 1.526 . S
C569 H553 0.959 . S
C569 H554 0.959 . S
C569 H555 0.961 . S
C569 C568 1.502 . S
C570 H556 0.960 . S
C570 H557 0.961 . S
C570 H558 0.959 . S
C570 C568 1.561 . S
C571 C568 1.526 . S
C571 C572 1.396 . S
C571 C576 1.390 . S
C572 C566 1.465 . S
C572 C571 1.396 . S
C572 C573 1.399 . S
C573 H559 0.929 . S
C573 C572 1.399 . S
C573 C574 1.385 . S
C574 H560 0.931 . S
C574 C573 1.385 . S
C574 C575 1.389 . S
C575 C574 1.389 . S
C575 C576 1.387 . S
C576 H561 0.930 . S
C576 C571 1.390 . S
C576 C575 1.387 . S
H577 C589 0.930 . S
H578 C591 0.930 . S
H579 C592 0.930 . S
H580 C596 0.959 1_545 S
H581 C596 0.959 . S
H582 C596 0.961 1_545 S
H583 C597 0.960 . S
H584 C597 0.961 . S
H585 C597 0.959 . S
H586 C600 0.929 . S
H587 C601 0.931 . S
H588 C603 0.930 . S
C589 H577 0.930 . S
C589 C590 1.399 . S
C589 C594 1.399 1_545 S
C590 C589 1.399 . S
C590 C591 1.376 . S
C591 H578 0.930 . S
C591 C590 1.376 . S
C591 C592 1.388 1_545 S
C592 H579 0.930 . S
C592 C591 1.388 1_565 S
C592 C593 1.390 . S
C593 C592 1.390 . S
C593 C594 1.394 . S
C593 C599 1.465 . S
C594 C589 1.399 1_565 S
C594 C593 1.394 . S
C594 C595 1.516 . S
C595 C594 1.516 . S
C595 C596 1.502 . S
C595 C597 1.561 . S
C595 C598 1.526 . S
C596 H580 0.959 1_565 S
C596 H581 0.959 . S
C596 H582 0.961 1_565 S
C596 C595 1.502 . S
C597 H583 0.960 . S
C597 H584 0.961 . S
C597 H585 0.959 . S
C597 C595 1.561 . S
C598 C595 1.526 . S
C598 C599 1.396 . S
C598 C603 1.390 . S
C599 C593 1.465 . S
C599 C598 1.396 . S
C599 C600 1.399 . S
C600 H586 0.929 . S
C600 C599 1.399 . S
C600 C601 1.385 . S
C601 H587 0.931 . S
C601 C600 1.385 . S
C601 C602 1.389 . S
C602 C601 1.389 . S
C602 C603 1.387 . S
C603 H588 0.930 . S
C603 C598 1.390 . S
C603 C602 1.387 . S
H604 C616 0.930 . S
H605 C618 0.930 . S
H606 C619 0.930 . S
H607 C623 0.959 . S
H608 C623 0.959 . S
H609 C623 0.961 . S
H610 C624 0.960 . S
H611 C624 0.961 . S
H612 C624 0.959 . S
H613 C627 0.929 . S
H614 C628 0.931 . S
H615 C630 0.930 . S
C616 H604 0.930 . S
C616 C617 1.399 . S
C616 C621 1.399 . S
C617 C616 1.399 . S
C617 C618 1.376 . S
C618 H605 0.930 . S
C618 C617 1.376 . S
C618 C619 1.388 . S
C619 H606 0.930 . S
C619 C618 1.388 . S
C619 C620 1.390 . S
C620 C619 1.390 . S
C620 C621 1.394 . S
C620 C626 1.465 . S
C621 C616 1.399 . S
C621 C620 1.394 . S
C621 C622 1.516 . S
C622 C621 1.516 . S
C622 C623 1.502 . S
C622 C624 1.561 . S
C622 C625 1.526 . S
C623 H607 0.959 . S
C623 H608 0.959 . S
C623 H609 0.961 . S
C623 C622 1.502 . S
C624 H610 0.960 . S
C624 H611 0.961 . S
C624 H612 0.959 . S
C624 C622 1.561 . S
C625 C622 1.526 . S
C625 C626 1.396 . S
C625 C630 1.390 . S
C626 C620 1.465 . S
C626 C625 1.396 . S
C626 C627 1.399 . S
C627 H613 0.929 . S
C627 C626 1.399 . S
C627 C628 1.385 . S
C628 H614 0.931 . S
C628 C627 1.385 . S
C628 C629 1.389 . S
C629 C628 1.389 . S
C629 C630 1.387 . S
C630 H615 0.930 . S
C630 C625 1.390 . S
C630 C629 1.387 . S
H631 C643 0.930 . S
H632 C645 0.930 . S
H633 C646 0.930 . S
H634 C650 0.959 1_545 S
H635 C650 0.959 1_545 S
H636 C650 0.961 . S
H637 C651 0.960 . S
H638 C651 0.957 1_545 S
H639 C651 0.959 1_545 S
H640 C654 0.929 . S
H641 C655 0.931 . S
H642 C657 0.930 . S
C643 H631 0.930 . S
C643 C644 1.399 . S
C643 C648 1.399 1_565 S
C644 C643 1.399 . S
C644 C645 1.376 1_565 S
C645 H632 0.930 . S
C645 C644 1.376 1_545 S
C645 C646 1.388 . S
C646 H633 0.930 . S
C646 C645 1.388 . S
C646 C647 1.390 . S
C647 C646 1.390 . S
C647 C648 1.394 . S
C647 C653 1.465 . S
C648 C643 1.399 1_545 S
C648 C647 1.394 . S
C648 C649 1.516 . S
C649 C648 1.516 . S
C649 C650 1.502 1_545 S
C649 C651 1.561 1_545 S
C649 C652 1.526 . S
C650 H634 0.959 1_565 S
C650 H635 0.959 1_565 S
C650 H636 0.961 . S
C650 C649 1.502 1_565 S
C651 H637 0.960 . S
C651 H638 0.957 1_565 S
C651 H639 0.959 1_565 S
C651 C649 1.561 1_565 S
C652 C649 1.526 . S
C652 C653 1.396 . S
C652 C657 1.390 . S
C653 C647 1.465 . S
C653 C652 1.396 . S
C653 C654 1.399 . S
C654 H640 0.929 . S
C654 C653 1.399 . S
C654 C655 1.385 . S
C655 H641 0.931 . S
C655 C654 1.385 . S
C655 C656 1.389 . S
C656 C655 1.389 . S
C656 C657 1.387 . S
C657 H642 0.930 . S
C657 C652 1.390 . S
C657 C656 1.387 . S
H658 C670 0.930 . S
H659 C672 0.930 . S
H660 C673 0.930 . S
H661 C677 0.959 . S
H662 C677 0.959 . S
H663 C677 0.961 . S
H664 C678 0.960 1_545 S
H665 C678 0.961 . S
H666 C678 0.959 . S
H667 C681 0.929 . S
H668 C682 0.931 . S
H669 C684 0.930 . S
C670 H658 0.930 . S
C670 C671 1.399 . S
C670 C675 1.399 . S
C671 C670 1.399 . S
C671 C672 1.376 . S
C672 H659 0.930 . S
C672 C671 1.376 . S
C672 C673 1.388 . S
C673 H660 0.930 . S
C673 C672 1.388 . S
C673 C674 1.390 . S
C674 C673 1.390 . S
C674 C675 1.394 . S
C674 C680 1.465 . S
C675 C670 1.399 . S
C675 C674 1.394 . S
C675 C676 1.516 . S
C676 C675 1.516 . S
C676 C677 1.502 . S
C676 C678 1.561 . S
C676 C679 1.526 . S
C677 H661 0.959 . S
C677 H662 0.959 . S
C677 H663 0.961 . S
C677 C676 1.502 . S
C678 H664 0.960 1_565 S
C678 H665 0.961 . S
C678 H666 0.959 . S
C678 C676 1.561 . S
C679 C676 1.526 . S
C679 C680 1.396 . S
C679 C684 1.390 . S
C680 C674 1.465 . S
C680 C679 1.396 . S
C680 C681 1.399 . S
C681 H667 0.929 . S
C681 C680 1.399 . S
C681 C682 1.385 . S
C682 H668 0.931 . S
C682 C681 1.385 . S
C682 C683 1.389 . S
C683 C682 1.389 . S
C683 C684 1.387 . S
C684 H669 0.930 . S
C684 C679 1.390 . S
C684 C683 1.387 . S
H685 C697 0.930 . S
H686 C699 0.930 . S
H687 C700 0.930 . S
H688 C704 0.959 1_565 S
H689 C704 0.959 . S
H690 C704 0.961 . S
H691 C705 0.960 . S
H692 C705 0.961 . S
H693 C705 0.959 . S
H694 C708 0.929 . S
H695 C709 0.931 . S
H696 C711 0.930 . S
C697 H685 0.930 . S
C697 C698 1.399 . S
C697 C702 1.399 . S
C698 C697 1.399 . S
C698 C699 1.376 . S
C699 H686 0.930 . S
C699 C698 1.376 . S
C699 C700 1.388 1_545 S
C700 H687 0.930 . S
C700 C699 1.388 1_565 S
C700 C701 1.390 . S
C701 C700 1.390 . S
C701 C702 1.394 1_565 S
C701 C707 1.465 . S
C702 C697 1.399 . S
C702 C701 1.394 1_545 S
C702 C703 1.512 1_545 S
C703 C702 1.512 1_565 S
C703 C704 1.496 1_565 S
C703 C705 1.550 1_565 S
C703 C706 1.549 . S
C704 H688 0.959 1_545 S
C704 H689 0.959 . S
C704 H690 0.961 . S
C704 C703 1.496 1_545 S
C705 H691 0.960 . S
C705 H692 0.961 . S
C705 H693 0.959 . S
C705 C703 1.550 1_545 S
C706 C703 1.549 . S
C706 C707 1.396 . S
C706 C711 1.390 . S
C707 C701 1.465 . S
C707 C706 1.396 . S
C707 C708 1.399 . S
C708 H694 0.929 . S
C708 C707 1.399 . S
C708 C709 1.385 . S
C709 H695 0.931 . S
C709 C708 1.385 . S
C709 C710 1.389 . S
C710 C709 1.389 . S
C710 C711 1.387 . S
C711 H696 0.930 . S
C711 C706 1.390 . S
C711 C710 1.387 . S
H712 C724 0.930 . S
H713 C726 0.930 . S
H714 C727 0.930 . S
H715 C731 0.959 . S
H716 C731 0.959 . S
H717 C731 0.961 . S
H718 C732 0.960 . S
H719 C732 0.961 . S
H720 C732 0.959 . S
H721 C735 0.929 . S
H722 C736 0.931 . S
H723 C738 0.930 . S
C724 H712 0.930 . S
C724 C725 1.399 . S
C724 C729 1.399 . S
C725 C724 1.399 . S
C725 C726 1.376 . S
C726 H713 0.930 . S
C726 C725 1.376 . S
C726 C727 1.388 . S
C727 H714 0.930 . S
C727 C726 1.388 . S
C727 C728 1.390 . S
C728 C727 1.390 . S
C728 C729 1.394 . S
C728 C734 1.465 . S
C729 C724 1.399 . S
C729 C728 1.394 . S
C729 C730 1.516 . S
C730 C729 1.516 . S
C730 C731 1.502 . S
C730 C732 1.561 . S
C730 C733 1.526 . S
C731 H715 0.959 . S
C731 H716 0.959 . S
C731 H717 0.961 . S
C731 C730 1.502 . S
C732 H718 0.960 . S
C732 H719 0.961 . S
C732 H720 0.959 . S
C732 C730 1.561 . S
C733 C730 1.526 . S
C733 C734 1.396 . S
C733 C738 1.390 . S
C734 C728 1.465 . S
C734 C733 1.396 . S
C734 C735 1.399 . S
C735 H721 0.929 . S
C735 C734 1.399 . S
C735 C736 1.385 . S
C736 H722 0.931 . S
C736 C735 1.385 . S
C736 C737 1.389 . S
C737 C736 1.389 . S
C737 C738 1.387 . S
C738 H723 0.930 . S
C738 C733 1.390 . S
C738 C737 1.387 . S
H739 C751 0.930 . S
H740 C753 0.930 . S
H741 C754 0.930 . S
H742 C758 0.959 . S
H743 C758 0.959 . S
H744 C758 0.963 1_545 S
H745 C759 0.960 . S
H746 C759 0.961 . S
H747 C759 0.959 . S
H748 C762 0.929 . S
H749 C763 0.931 . S
H750 C765 0.930 . S
C751 H739 0.930 . S
C751 C752 1.399 . S
C751 C756 1.399 . S
C752 C751 1.399 . S
C752 C753 1.376 . S
C753 H740 0.930 . S
C753 C752 1.376 . S
C753 C754 1.388 1_545 S
C754 H741 0.930 . S
C754 C753 1.388 1_565 S
C754 C755 1.390 . S
C755 C754 1.390 . S
C755 C756 1.394 1_565 S
C755 C761 1.465 . S
C756 C751 1.399 . S
C756 C755 1.394 1_545 S
C756 C757 1.516 1_545 S
C757 C756 1.516 1_565 S
C757 C758 1.502 . S
C757 C759 1.561 1_565 S
C757 C760 1.526 . S
C758 H742 0.959 . S
C758 H743 0.959 . S
C758 H744 0.963 1_565 S
C758 C757 1.502 . S
C759 H745 0.960 . S
C759 H746 0.961 . S
C759 H747 0.959 . S
C759 C757 1.561 1_545 S
C760 C757 1.526 . S
C760 C761 1.396 . S
C760 C765 1.390 . S
C761 C755 1.465 . S
C761 C760 1.396 . S
C761 C762 1.399 . S
C762 H748 0.929 . S
C762 C761 1.399 . S
C762 C763 1.385 . S
C763 H749 0.931 . S
C763 C762 1.385 . S
C763 C764 1.389 . S
C764 C763 1.389 . S
C764 C765 1.387 . S
C765 H750 0.930 . S
C765 C760 1.390 . S
C765 C764 1.387 . S
H766 C778 0.930 . S
H767 C780 0.930 . S
H768 C781 0.930 . S
H769 C785 0.959 . S
H770 C785 0.959 . S
H771 C785 0.961 1_545 S
H772 C786 0.960 . S
H773 C786 0.961 . S
H774 C786 0.959 . S
H775 C789 0.929 . S
H776 C790 0.931 . S
H777 C792 0.930 . S
C778 H766 0.930 . S
C778 C779 1.399 . S
C778 C783 1.399 . S
C779 C778 1.399 . S
C779 C780 1.376 . S
C780 H767 0.930 . S
C780 C779 1.376 . S
C780 C781 1.388 . S
C781 H768 0.930 . S
C781 C780 1.388 . S
C781 C782 1.390 . S
C782 C781 1.390 . S
C782 C783 1.394 . S
C782 C788 1.465 . S
C783 C778 1.399 . S
C783 C782 1.394 . S
C783 C784 1.516 . S
C784 C783 1.516 . S
C784 C785 1.502 . S
C784 C786 1.561 . S
C784 C787 1.526 . S
C785 H769 0.959 . S
C785 H770 0.959 . S
C785 H771 0.961 1_565 S
C785 C784 1.502 . S
C786 H772 0.960 . S
C786 H773 0.961 . S
C786 H774 0.959 . S
C786 C784 1.561 . S
C787 C784 1.526 . S
C787 C788 1.396 . S
C787 C792 1.390 . S
C788 C782 1.465 . S
C788 C787 1.396 . S
C788 C789 1.399 . S
C789 H775 0.929 . S
C789 C788 1.399 . S
C789 C790 1.385 . S
C790 H776 0.931 . S
C790 C789 1.385 . S
C790 C791 1.389 . S
C791 C790 1.389 . S
C791 C792 1.387 . S
C792 H777 0.930 . S
C792 C787 1.390 . S
C792 C791 1.387 . S
H793 C805 0.930 . S
H794 C807 0.930 . S
H795 C808 0.930 . S
H796 C812 0.959 . S
H797 C812 0.959 . S
H798 C812 0.961 1_565 S
H799 C813 0.960 . S
H800 C813 0.961 . S
H801 C813 0.959 . S
H802 C816 0.929 . S
H803 C817 0.931 . S
H804 C819 0.930 . S
C805 H793 0.930 . S
C805 C806 1.399 . S
C805 C810 1.399 1_565 S
C806 C805 1.399 . S
C806 C807 1.376 . S
C807 H794 0.930 . S
C807 C806 1.376 . S
C807 C808 1.388 1_565 S
C808 H795 0.930 . S
C808 C807 1.388 1_545 S
C808 C809 1.390 . S
C809 C808 1.390 . S
C809 C810 1.394 . S
C809 C815 1.465 . S
C810 C805 1.399 1_545 S
C810 C809 1.394 . S
C810 C811 1.516 . S
C811 C810 1.516 . S
C811 C812 1.502 . S
C811 C813 1.561 1_545 S
C811 C814 1.526 . S
C812 H796 0.959 . S
C812 H797 0.959 . S
C812 H798 0.961 1_545 S
C812 C811 1.502 . S
C813 H799 0.960 . S
C813 H800 0.961 . S
C813 H801 0.959 . S
C813 C811 1.561 1_565 S
C814 C811 1.526 . S
C814 C815 1.396 . S
C814 C819 1.390 . S
C815 C809 1.465 . S
C815 C814 1.396 . S
C815 C816 1.399 . S
C816 H802 0.929 . S
C816 C815 1.399 . S
C816 C817 1.385 . S
C817 H803 0.931 . S
C817 C816 1.385 . S
C817 C818 1.389 . S
C818 C817 1.389 . S
C818 C819 1.387 . S
C819 H804 0.930 . S
C819 C814 1.390 . S
C819 C818 1.387 . S
H820 C832 0.930 . S
H821 C834 0.930 . S
H822 C835 0.930 . S
H823 C839 0.959 . S
H824 C839 0.959 . S
H825 C839 0.961 1_545 S
H826 C840 0.960 . S
H827 C840 0.961 . S
H828 C840 0.959 . S
H829 C843 0.929 . S
H830 C844 0.931 . S
H831 C846 0.930 . S
C832 H820 0.930 . S
C832 C833 1.399 . S
C832 C837 1.399 . S
C833 C832 1.399 . S
C833 C834 1.376 . S
C834 H821 0.930 . S
C834 C833 1.376 . S
C834 C835 1.388 . S
C835 H822 0.930 . S
C835 C834 1.388 . S
C835 C836 1.390 . S
C836 C835 1.390 . S
C836 C837 1.394 . S
C836 C842 1.465 . S
C837 C832 1.399 . S
C837 C836 1.394 . S
C837 C838 1.516 . S
C838 C837 1.516 . S
C838 C839 1.502 . S
C838 C840 1.561 . S
C838 C841 1.526 . S
C839 H823 0.959 . S
C839 H824 0.959 . S
C839 H825 0.961 1_565 S
C839 C838 1.502 . S
C840 H826 0.960 . S
C840 H827 0.961 . S
C840 H828 0.959 . S
C840 C838 1.561 . S
C841 C838 1.526 . S
C841 C842 1.396 . S
C841 C846 1.390 . S
C842 C836 1.465 . S
C842 C841 1.396 . S
C842 C843 1.399 . S
C843 H829 0.929 . S
C843 C842 1.399 . S
C843 C844 1.385 . S
C844 H830 0.931 . S
C844 C843 1.385 . S
C844 C845 1.389 . S
C845 C844 1.389 . S
C845 C846 1.387 . S
C846 H831 0.930 . S
C846 C841 1.390 . S
C846 C845 1.387 . S
H847 C859 0.930 . S
H848 C861 0.930 . S
H849 C862 0.930 . S
H850 C866 0.959 . S
H851 C866 0.959 . S
H852 C866 0.961 . S
H853 C867 0.960 . S
H854 C867 0.961 . S
H855 C867 0.949 1_565 S
H856 C870 0.929 . S
H857 C871 0.931 . S
H858 C873 0.930 . S
C859 H847 0.930 . S
C859 C860 1.399 . S
C859 C864 1.399 . S
C860 C859 1.399 . S
C860 C861 1.376 . S
C861 H848 0.930 . S
C861 C860 1.376 . S
C861 C862 1.388 1_545 S
C862 H849 0.930 . S
C862 C861 1.388 1_565 S
C862 C863 1.390 . S
C863 C862 1.390 . S
C863 C864 1.394 1_565 S
C863 C869 1.465 . S
C864 C859 1.399 . S
C864 C863 1.394 1_545 S
C864 C865 1.516 1_545 S
C865 C864 1.516 1_565 S
C865 C866 1.502 1_565 S
C865 C867 1.561 1_565 S
C865 C868 1.526 . S
C866 H850 0.959 . S
C866 H851 0.959 . S
C866 H852 0.961 . S
C866 C865 1.502 1_545 S
C867 H853 0.960 . S
C867 H854 0.961 . S
C867 H855 0.949 1_545 S
C867 C865 1.561 1_545 S
C868 C865 1.526 . S
C868 C869 1.396 . S
C868 C873 1.390 . S
C869 C863 1.465 . S
C869 C868 1.396 . S
C869 C870 1.399 . S
C870 H856 0.929 . S
C870 C869 1.399 . S
C870 C871 1.385 . S
C871 H857 0.931 . S
C871 C870 1.385 . S
C871 C872 1.389 . S
C872 C871 1.389 . S
C872 C873 1.387 . S
C873 H858 0.930 . S
C873 C868 1.390 . S
C873 C872 1.387 . S
H874 C886 0.930 . S
H875 C888 0.930 . S
H876 C889 0.930 . S
H877 C893 0.959 . S
H878 C893 0.959 . S
H879 C893 0.961 . S
H880 C894 0.960 . S
H881 C894 0.961 . S
H882 C894 0.959 . S
H883 C897 0.929 . S
H884 C898 0.931 . S
H885 C900 0.930 . S
C886 H874 0.930 . S
C886 C887 1.399 . S
C886 C891 1.399 . S
C887 C886 1.399 . S
C887 C888 1.376 . S
C888 H875 0.930 . S
C888 C887 1.376 . S
C888 C889 1.388 . S
C889 H876 0.930 . S
C889 C888 1.388 . S
C889 C890 1.390 . S
C890 C889 1.390 . S
C890 C891 1.394 . S
C890 C896 1.465 . S
C891 C886 1.399 . S
C891 C890 1.394 . S
C891 C892 1.516 . S
C892 C891 1.516 . S
C892 C893 1.502 . S
C892 C894 1.561 . S
C892 C895 1.526 . S
C893 H877 0.959 . S
C893 H878 0.959 . S
C893 H879 0.961 . S
C893 C892 1.502 . S
C894 H880 0.960 . S
C894 H881 0.961 . S
C894 H882 0.959 . S
C894 C892 1.561 . S
C895 C892 1.526 . S
C895 C896 1.396 . S
C895 C900 1.390 . S
C896 C890 1.465 . S
C896 C895 1.396 . S
C896 C897 1.399 . S
C897 H883 0.929 . S
C897 C896 1.399 . S
C897 C898 1.385 . S
C898 H884 0.931 . S
C898 C897 1.385 . S
C898 C899 1.389 . S
C899 C898 1.389 . S
C899 C900 1.387 . S
C900 H885 0.930 . S
C900 C895 1.390 . S
C900 C899 1.387 . S
H901 C913 0.930 . S
H902 C915 0.930 . S
H903 C916 0.930 . S
H904 C920 0.959 . S
H905 C920 0.959 . S
H906 C920 0.961 . S
H907 C921 0.960 . S
H908 C921 0.961 1_545 S
H909 C921 0.959 . S
H910 C924 0.929 . S
H911 C925 0.931 . S
H912 C927 0.930 . S
C913 H901 0.930 . S
C913 C914 1.399 . S
C913 C918 1.399 1_565 S
C914 C913 1.399 . S
C914 C915 1.376 . S
C915 H902 0.930 . S
C915 C914 1.376 . S
C915 C916 1.388 1_565 S
C916 H903 0.930 . S
C916 C915 1.388 1_545 S
C916 C917 1.390 . S
C917 C916 1.390 . S
C917 C918 1.394 . S
C917 C923 1.465 . S
C918 C913 1.399 1_545 S
C918 C917 1.394 . S
C918 C919 1.516 . S
C919 C918 1.516 . S
C919 C920 1.502 . S
C919 C921 1.561 1_545 S
C919 C922 1.526 . S
C920 H904 0.959 . S
C920 H905 0.959 . S
C920 H906 0.961 . S
C920 C919 1.502 . S
C921 H907 0.960 . S
C921 H908 0.961 1_565 S
C921 H909 0.959 . S
C921 C919 1.561 1_565 S
C922 C919 1.526 . S
C922 C923 1.396 . S
C922 C927 1.390 . S
C923 C917 1.465 . S
C923 C922 1.396 . S
C923 C924 1.399 . S
C924 H910 0.929 . S
C924 C923 1.399 . S
C924 C925 1.385 . S
C925 H911 0.931 . S
C925 C924 1.385 . S
C925 C926 1.389 . S
C926 C925 1.389 . S
C926 C927 1.387 . S
C927 H912 0.930 . S
C927 C922 1.390 . S
C927 C926 1.387 . S
H928 C940 0.930 . S
H929 C942 0.930 . S
H930 C943 0.930 . S
H931 C947 0.959 . S
H932 C947 0.959 . S
H933 C947 0.961 . S
H934 C948 0.960 . S
H935 C948 0.961 . S
H936 C948 0.959 . S
H937 C951 0.929 . S
H938 C952 0.931 . S
H939 C954 0.930 . S
C940 H928 0.930 . S
C940 C941 1.399 . S
C940 C945 1.399 . S
C941 C940 1.399 . S
C941 C942 1.376 . S
C942 H929 0.930 . S
C942 C941 1.376 . S
C942 C943 1.388 . S
C943 H930 0.930 . S
C943 C942 1.388 . S
C943 C944 1.390 . S
C944 C943 1.390 . S
C944 C945 1.394 . S
C944 C950 1.465 . S
C945 C940 1.399 . S
C945 C944 1.394 . S
C945 C946 1.516 . S
C946 C945 1.516 . S
C946 C947 1.502 . S
C946 C948 1.561 . S
C946 C949 1.526 . S
C947 H931 0.959 . S
C947 H932 0.959 . S
C947 H933 0.961 . S
C947 C946 1.502 . S
C948 H934 0.960 . S
C948 H935 0.961 . S
C948 H936 0.959 . S
C948 C946 1.561 . S
C949 C946 1.526 . S
C949 C950 1.396 . S
C949 C954 1.390 . S
C950 C944 1.465 . S
C950 C949 1.396 . S
C950 C951 1.399 . S
C951 H937 0.929 . S
C951 C950 1.399 . S
C951 C952 1.385 . S
C952 H938 0.931 . S
C952 C951 1.385 . S
C952 C953 1.389 . S
C953 C952 1.389 . S
C953 C954 1.387 . S
C954 H939 0.930 . S
C954 C949 1.390 . S
C954 C953 1.387 . S
H955 C967 0.930 . S
H956 C969 0.930 . S
H957 C970 0.930 . S
H958 C974 0.959 . S
H959 C974 0.959 . S
H960 C974 0.961 . S
H961 C975 0.960 . S
H962 C975 0.961 . S
H963 C975 0.959 . S
H964 C978 0.929 . S
H965 C979 0.931 . S
H966 C981 0.930 . S
C967 H955 0.930 . S
C967 C968 1.399 . S
C967 C972 1.399 . S
C968 C967 1.399 . S
C968 C969 1.376 . S
C969 H956 0.930 . S
C969 C968 1.376 . S
C969 C970 1.388 . S
C970 H957 0.930 . S
C970 C969 1.388 . S
C970 C971 1.390 . S
C971 C970 1.390 . S
C971 C972 1.394 . S
C971 C977 1.465 . S
C972 C967 1.399 . S
C972 C971 1.394 . S
C972 C973 1.516 . S
C973 C972 1.516 . S
C973 C974 1.502 . S
C973 C975 1.561 . S
C973 C976 1.526 . S
C974 H958 0.959 . S
C974 H959 0.959 . S
C974 H960 0.961 . S
C974 C973 1.502 . S
C975 H961 0.960 . S
C975 H962 0.961 . S
C975 H963 0.959 . S
C975 C973 1.561 . S
C976 C973 1.526 . S
C976 C977 1.396 . S
C976 C981 1.390 . S
C977 C971 1.465 . S
C977 C976 1.396 . S
C977 C978 1.399 . S
C978 H964 0.929 . S
C978 C977 1.399 . S
C978 C979 1.385 . S
C979 H965 0.931 . S
C979 C978 1.385 . S
C979 C980 1.389 . S
C980 C979 1.389 . S
C980 C981 1.387 . S
C981 H966 0.930 . S
C981 C976 1.390 . S
C981 C980 1.387 . S
H982 C994 0.930 . S
H983 C996 0.930 . S
H984 C997 0.930 . S
H985 C1001 0.959 . S
H986 C1001 0.959 . S
H987 C1001 0.961 . S
H988 C1002 0.960 . S
H989 C1002 0.961 . S
H990 C1002 0.959 . S
H991 C1005 0.929 . S
H992 C1006 0.931 . S
H993 C1008 0.930 . S
C994 H982 0.930 . S
C994 C995 1.399 . S
C994 C999 1.399 . S
C995 C994 1.399 . S
C995 C996 1.376 . S
C996 H983 0.930 . S
C996 C995 1.376 . S
C996 C997 1.388 . S
C997 H984 0.930 . S
C997 C996 1.388 . S
C997 C998 1.390 . S
C998 C997 1.390 . S
C998 C999 1.394 . S
C998 C1004 1.465 . S
C999 C994 1.399 . S
C999 C998 1.394 . S
C999 C1000 1.516 . S
C1000 C999 1.516 . S
C1000 C1001 1.502 . S
C1000 C1002 1.561 . S
C1000 C1003 1.526 . S
C1001 H985 0.959 . S
C1001 H986 0.959 . S
C1001 H987 0.961 . S
C1001 C1000 1.502 . S
C1002 H988 0.960 . S
C1002 H989 0.961 . S
C1002 H990 0.959 . S
C1002 C1000 1.561 . S
C1003 C1000 1.526 . S
C1003 C1004 1.396 . S
C1003 C1008 1.390 . S
C1004 C998 1.465 . S
C1004 C1003 1.396 . S
C1004 C1005 1.399 . S
C1005 H991 0.929 . S
C1005 C1004 1.399 . S
C1005 C1006 1.385 . S
C1006 H992 0.931 . S
C1006 C1005 1.385 . S
C1006 C1007 1.389 . S
C1007 C1006 1.389 . S
C1007 C1008 1.387 . S
C1008 H993 0.930 . S
C1008 C1003 1.390 . S
C1008 C1007 1.387 . S
H1009 C1021 0.930 . S
H1010 C1023 0.930 . S
H1011 C1024 0.930 . S
H1012 C1028 0.959 . S
H1013 C1028 0.959 . S
H1014 C1028 0.961 . S
H1015 C1029 0.960 . S
H1016 C1029 0.961 . S
H1017 C1029 0.959 . S
H1018 C1032 0.929 . S
H1019 C1033 0.931 . S
H1020 C1035 0.930 . S
C1021 H1009 0.930 . S
C1021 C1022 1.399 . S
C1021 C1026 1.399 . S
C1022 C1021 1.399 . S
C1022 C1023 1.376 . S
C1023 H1010 0.930 . S
C1023 C1022 1.376 . S
C1023 C1024 1.388 . S
C1024 H1011 0.930 . S
C1024 C1023 1.388 . S
C1024 C1025 1.390 . S
C1025 C1024 1.390 . S
C1025 C1026 1.394 . S
C1025 C1031 1.465 . S
C1026 C1021 1.399 . S
C1026 C1025 1.394 . S
C1026 C1027 1.516 . S
C1027 C1026 1.516 . S
C1027 C1028 1.502 . S
C1027 C1029 1.561 . S
C1027 C1030 1.526 . S
C1028 H1012 0.959 . S
C1028 H1013 0.959 . S
C1028 H1014 0.961 . S
C1028 C1027 1.502 . S
C1029 H1015 0.960 . S
C1029 H1016 0.961 . S
C1029 H1017 0.959 . S
C1029 C1027 1.561 . S
C1030 C1027 1.526 . S
C1030 C1031 1.396 . S
C1030 C1035 1.390 . S
C1031 C1025 1.465 . S
C1031 C1030 1.396 . S
C1031 C1032 1.399 . S
C1032 H1018 0.929 . S
C1032 C1031 1.399 . S
C1032 C1033 1.385 . S
C1033 H1019 0.931 . S
C1033 C1032 1.385 . S
C1033 C1034 1.389 . S
C1034 C1033 1.389 . S
C1034 C1035 1.387 . S
C1035 H1020 0.930 . S
C1035 C1030 1.390 . S
C1035 C1034 1.387 . S
H1036 C1048 0.930 . S
H1037 C1050 0.930 . S
H1038 C1051 0.930 . S
H1039 C1055 0.959 . S
H1040 C1055 0.959 . S
H1041 C1055 0.961 . S
H1042 C1056 0.960 . S
H1043 C1056 0.961 . S
H1044 C1056 0.959 . S
H1045 C1059 0.929 . S
H1046 C1060 0.931 . S
H1047 C1062 0.930 . S
C1048 H1036 0.930 . S
C1048 C1049 1.399 . S
C1048 C1053 1.399 . S
C1049 C1048 1.399 . S
C1049 C1050 1.376 . S
C1050 H1037 0.930 . S
C1050 C1049 1.376 . S
C1050 C1051 1.388 . S
C1051 H1038 0.930 . S
C1051 C1050 1.388 . S
C1051 C1052 1.390 . S
C1052 C1051 1.390 . S
C1052 C1053 1.394 . S
C1052 C1058 1.465 . S
C1053 C1048 1.399 . S
C1053 C1052 1.394 . S
C1053 C1054 1.516 . S
C1054 C1053 1.516 . S
C1054 C1055 1.502 . S
C1054 C1056 1.561 . S
C1054 C1057 1.526 . S
C1055 H1039 0.959 . S
C1055 H1040 0.959 . S
C1055 H1041 0.961 . S
C1055 C1054 1.502 . S
C1056 H1042 0.960 . S
C1056 H1043 0.961 . S
C1056 H1044 0.959 . S
C1056 C1054 1.561 . S
C1057 C1054 1.526 . S
C1057 C1058 1.396 . S
C1057 C1062 1.390 . S
C1058 C1052 1.465 . S
C1058 C1057 1.396 . S
C1058 C1059 1.399 . S
C1059 H1045 0.929 . S
C1059 C1058 1.399 . S
C1059 C1060 1.385 . S
C1060 H1046 0.931 . S
C1060 C1059 1.385 . S
C1060 C1061 1.389 . S
C1061 C1060 1.389 . S
C1061 C1062 1.387 . S
C1062 H1047 0.930 . S
C1062 C1057 1.390 . S
C1062 C1061 1.387 . S
H1063 C1075 0.930 . S
H1064 C1077 0.930 . S
H1065 C1078 0.930 . S
H1066 C1082 0.959 . S
H1067 C1082 0.959 . S
H1068 C1082 0.961 . S
H1069 C1083 0.960 . S
H1070 C1083 0.961 . S
H1071 C1083 0.959 . S
H1072 C1086 0.929 . S
H1073 C1087 0.931 . S
H1074 C1089 0.930 . S
C1075 H1063 0.930 . S
C1075 C1076 1.399 . S
C1075 C1080 1.399 . S
C1076 C1075 1.399 . S
C1076 C1077 1.376 . S
C1077 H1064 0.930 . S
C1077 C1076 1.376 . S
C1077 C1078 1.388 . S
C1078 H1065 0.930 . S
C1078 C1077 1.388 . S
C1078 C1079 1.390 . S
C1079 C1078 1.390 . S
C1079 C1080 1.394 . S
C1079 C1085 1.465 . S
C1080 C1075 1.399 . S
C1080 C1079 1.394 . S
C1080 C1081 1.516 . S
C1081 C1080 1.516 . S
C1081 C1082 1.502 . S
C1081 C1083 1.561 . S
C1081 C1084 1.526 . S
C1082 H1066 0.959 . S
C1082 H1067 0.959 . S
C1082 H1068 0.961 . S
C1082 C1081 1.502 . S
C1083 H1069 0.960 . S
C1083 H1070 0.961 . S
C1083 H1071 0.959 . S
C1083 C1081 1.561 . S
C1084 C1081 1.526 . S
C1084 C1085 1.396 . S
C1084 C1089 1.390 . S
C1085 C1079 1.465 . S
C1085 C1084 1.396 . S
C1085 C1086 1.399 . S
C1086 H1072 0.929 . S
C1086 C1085 1.399 . S
C1086 C1087 1.385 . S
C1087 H1073 0.931 . S
C1087 C1086 1.385 . S
C1087 C1088 1.389 . S
C1088 C1087 1.389 . S
C1088 C1089 1.387 . S
C1089 H1074 0.930 . S
C1089 C1084 1.390 . S
C1089 C1088 1.387 . S
H1090 C1102 0.930 . S
H1091 C1104 0.930 . S
H1092 C1105 0.930 . S
H1093 C1109 0.959 . S
H1094 C1109 0.959 . S
H1095 C1109 0.961 . S
H1096 C1110 0.960 . S
H1097 C1110 0.961 . S
H1098 C1110 0.959 . S
H1099 C1113 0.929 . S
H1100 C1114 0.931 . S
H1101 C1116 0.930 . S
C1102 H1090 0.930 . S
C1102 C1103 1.399 . S
C1102 C1107 1.399 . S
C1103 C1102 1.399 . S
C1103 C1104 1.376 . S
C1104 H1091 0.930 . S
C1104 C1103 1.376 . S
C1104 C1105 1.388 . S
C1105 H1092 0.930 . S
C1105 C1104 1.388 . S
C1105 C1106 1.390 . S
C1106 C1105 1.390 . S
C1106 C1107 1.394 . S
C1106 C1112 1.465 . S
C1107 C1102 1.399 . S
C1107 C1106 1.394 . S
C1107 C1108 1.516 . S
C1108 C1107 1.516 . S
C1108 C1109 1.502 . S
C1108 C1110 1.561 . S
C1108 C1111 1.526 . S
C1109 H1093 0.959 . S
C1109 H1094 0.959 . S
C1109 H1095 0.961 . S
C1109 C1108 1.502 . S
C1110 H1096 0.960 . S
C1110 H1097 0.961 . S
C1110 H1098 0.959 . S
C1110 C1108 1.561 . S
C1111 C1108 1.526 . S
C1111 C1112 1.396 . S
C1111 C1116 1.390 . S
C1112 C1106 1.465 . S
C1112 C1111 1.396 . S
C1112 C1113 1.399 . S
C1113 H1099 0.929 . S
C1113 C1112 1.399 . S
C1113 C1114 1.385 . S
C1114 H1100 0.931 . S
C1114 C1113 1.385 . S
C1114 C1115 1.389 . S
C1115 C1114 1.389 . S
C1115 C1116 1.387 . S
C1116 H1101 0.930 . S
C1116 C1111 1.390 . S
C1116 C1115 1.387 . S
H1117 C1129 0.930 . S
H1118 C1131 0.930 . S
H1119 C1132 0.930 . S
H1120 C1136 0.959 . S
H1121 C1136 0.959 . S
H1122 C1136 0.961 . S
H1123 C1137 0.960 . S
H1124 C1137 0.961 . S
H1125 C1137 0.959 . S
H1126 C1140 0.929 . S
H1127 C1141 0.931 . S
H1128 C1143 0.930 . S
C1129 H1117 0.930 . S
C1129 C1130 1.399 . S
C1129 C1134 1.399 . S
C1130 C1129 1.399 . S
C1130 C1131 1.376 . S
C1131 H1118 0.930 . S
C1131 C1130 1.376 . S
C1131 C1132 1.388 . S
C1132 H1119 0.930 . S
C1132 C1131 1.388 . S
C1132 C1133 1.390 . S
C1133 C1132 1.390 . S
C1133 C1134 1.394 . S
C1133 C1139 1.465 . S
C1134 C1129 1.399 . S
C1134 C1133 1.394 . S
C1134 C1135 1.516 . S
C1135 C1134 1.516 . S
C1135 C1136 1.502 . S
C1135 C1137 1.561 . S
C1135 C1138 1.526 . S
C1136 H1120 0.959 . S
C1136 H1121 0.959 . S
C1136 H1122 0.961 . S
C1136 C1135 1.502 . S
C1137 H1123 0.960 . S
C1137 H1124 0.961 . S
C1137 H1125 0.959 . S
C1137 C1135 1.561 . S
C1138 C1135 1.526 . S
C1138 C1139 1.396 . S
C1138 C1143 1.390 . S
C1139 C1133 1.465 . S
C1139 C1138 1.396 . S
C1139 C1140 1.399 . S
C1140 H1126 0.929 . S
C1140 C1139 1.399 . S
C1140 C1141 1.385 . S
C1141 H1127 0.931 . S
C1141 C1140 1.385 . S
C1141 C1142 1.389 . S
C1142 C1141 1.389 . S
C1142 C1143 1.387 . S
C1143 H1128 0.930 . S
C1143 C1138 1.390 . S
C1143 C1142 1.387 . S
H1144 C1156 0.930 . S
H1145 C1158 0.930 . S
H1146 C1159 0.930 . S
H1147 C1163 0.959 . S
H1148 C1163 0.959 . S
H1149 C1163 0.961 . S
H1150 C1164 0.960 . S
H1151 C1164 0.961 . S
H1152 C1164 0.959 . S
H1153 C1167 0.929 . S
H1154 C1168 0.931 . S
H1155 C1170 0.930 . S
C1156 H1144 0.930 . S
C1156 C1157 1.399 . S
C1156 C1161 1.399 . S
C1157 C1156 1.399 . S
C1157 C1158 1.376 . S
C1158 H1145 0.930 . S
C1158 C1157 1.376 . S
C1158 C1159 1.388 . S
C1159 H1146 0.930 . S
C1159 C1158 1.388 . S
C1159 C1160 1.390 . S
C1160 C1159 1.390 . S
C1160 C1161 1.394 . S
C1160 C1166 1.465 . S
C1161 C1156 1.399 . S
C1161 C1160 1.394 . S
C1161 C1162 1.516 . S
C1162 C1161 1.516 . S
C1162 C1163 1.502 . S
C1162 C1164 1.561 . S
C1162 C1165 1.526 . S
C1163 H1147 0.959 . S
C1163 H1148 0.959 . S
C1163 H1149 0.961 . S
C1163 C1162 1.502 . S
C1164 H1150 0.960 . S
C1164 H1151 0.961 . S
C1164 H1152 0.959 . S
C1164 C1162 1.561 . S
C1165 C1162 1.526 . S
C1165 C1166 1.396 . S
C1165 C1170 1.390 . S
C1166 C1160 1.465 . S
C1166 C1165 1.396 . S
C1166 C1167 1.399 . S
C1167 H1153 0.929 . S
C1167 C1166 1.399 . S
C1167 C1168 1.385 . S
C1168 H1154 0.931 . S
C1168 C1167 1.385 . S
C1168 C1169 1.389 . S
C1169 C1168 1.389 . S
C1169 C1170 1.387 . S
C1170 H1155 0.930 . S
C1170 C1165 1.390 . S
C1170 C1169 1.387 . S
H1171 C1183 0.930 . S
H1172 C1185 0.930 . S
H1173 C1186 0.930 . S
H1174 C1190 0.959 . S
H1175 C1190 0.959 . S
H1176 C1190 0.961 . S
H1177 C1191 0.960 . S
H1178 C1191 0.961 . S
H1179 C1191 0.959 . S
H1180 C1194 0.929 . S
H1181 C1195 0.931 . S
H1182 C1197 0.930 . S
C1183 H1171 0.930 . S
C1183 C1184 1.399 . S
C1183 C1188 1.399 . S
C1184 C1183 1.399 . S
C1184 C1185 1.376 . S
C1185 H1172 0.930 . S
C1185 C1184 1.376 . S
C1185 C1186 1.388 . S
C1186 H1173 0.930 . S
C1186 C1185 1.388 . S
C1186 C1187 1.390 . S
C1187 C1186 1.390 . S
C1187 C1188 1.394 . S
C1187 C1193 1.465 . S
C1188 C1183 1.399 . S
C1188 C1187 1.394 . S
C1188 C1189 1.516 . S
C1189 C1188 1.516 . S
C1189 C1190 1.502 . S
C1189 C1191 1.561 . S
C1189 C1192 1.526 . S
C1190 H1174 0.959 . S
C1190 H1175 0.959 . S
C1190 H1176 0.961 . S
C1190 C1189 1.502 . S
C1191 H1177 0.960 . S
C1191 H1178 0.961 . S
C1191 H1179 0.959 . S
C1191 C1189 1.561 . S
C1192 C1189 1.526 . S
C1192 C1193 1.396 . S
C1192 C1197 1.390 . S
C1193 C1187 1.465 . S
C1193 C1192 1.396 . S
C1193 C1194 1.399 . S
C1194 H1180 0.929 . S
C1194 C1193 1.399 . S
C1194 C1195 1.385 . S
C1195 H1181 0.931 . S
C1195 C1194 1.385 . S
C1195 C1196 1.389 . S
C1196 C1195 1.389 . S
C1196 C1197 1.387 . S
C1197 H1182 0.930 . S
C1197 C1192 1.390 . S
C1197 C1196 1.387 . S
H1198 C1210 0.930 . S
H1199 C1212 0.930 . S
H1200 C1213 0.930 . S
H1201 C1217 0.959 . S
H1202 C1217 0.959 . S
H1203 C1217 0.961 . S
H1204 C1218 0.960 . S
H1205 C1218 0.961 . S
H1206 C1218 0.959 . S
H1207 C1221 0.929 . S
H1208 C1222 0.931 . S
H1209 C1224 0.930 . S
C1210 H1198 0.930 . S
C1210 C1211 1.399 . S
C1210 C1215 1.399 . S
C1211 C1210 1.399 . S
C1211 C1212 1.376 . S
C1212 H1199 0.930 . S
C1212 C1211 1.376 . S
C1212 C1213 1.388 . S
C1213 H1200 0.930 . S
C1213 C1212 1.388 . S
C1213 C1214 1.390 . S
C1214 C1213 1.390 . S
C1214 C1215 1.394 . S
C1214 C1220 1.465 . S
C1215 C1210 1.399 . S
C1215 C1214 1.394 . S
C1215 C1216 1.516 . S
C1216 C1215 1.516 . S
C1216 C1217 1.502 . S
C1216 C1218 1.561 . S
C1216 C1219 1.526 . S
C1217 H1201 0.959 . S
C1217 H1202 0.959 . S
C1217 H1203 0.961 . S
C1217 C1216 1.502 . S
C1218 H1204 0.960 . S
C1218 H1205 0.961 . S
C1218 H1206 0.959 . S
C1218 C1216 1.561 . S
C1219 C1216 1.526 . S
C1219 C1220 1.396 . S
C1219 C1224 1.390 . S
C1220 C1214 1.465 . S
C1220 C1219 1.396 . S
C1220 C1221 1.399 . S
C1221 H1207 0.929 . S
C1221 C1220 1.399 . S
C1221 C1222 1.385 . S
C1222 H1208 0.931 . S
C1222 C1221 1.385 . S
C1222 C1223 1.389 . S
C1223 C1222 1.389 . S
C1223 C1224 1.387 . S
C1224 H1209 0.930 . S
C1224 C1219 1.390 . S
C1224 C1223 1.387 . S
H1225 C1237 0.930 . S
H1226 C1239 0.930 . S
H1227 C1240 0.930 . S
H1228 C1244 0.959 . S
H1229 C1244 0.959 . S
H1230 C1244 0.961 . S
H1231 C1245 0.960 . S
H1232 C1245 0.961 . S
H1233 C1245 0.959 . S
H1234 C1248 0.929 . S
H1235 C1249 0.931 . S
H1236 C1251 0.930 . S
C1237 H1225 0.930 . S
C1237 C1238 1.399 . S
C1237 C1242 1.399 . S
C1238 C1237 1.399 . S
C1238 C1239 1.376 . S
C1239 H1226 0.930 . S
C1239 C1238 1.376 . S
C1239 C1240 1.388 . S
C1240 H1227 0.930 . S
C1240 C1239 1.388 . S
C1240 C1241 1.390 . S
C1241 C1240 1.390 . S
C1241 C1242 1.394 . S
C1241 C1247 1.465 . S
C1242 C1237 1.399 . S
C1242 C1241 1.394 . S
C1242 C1243 1.516 . S
C1243 C1242 1.516 . S
C1243 C1244 1.502 . S
C1243 C1245 1.561 . S
C1243 C1246 1.526 . S
C1244 H1228 0.959 . S
C1244 H1229 0.959 . S
C1244 H1230 0.961 . S
C1244 C1243 1.502 . S
C1245 H1231 0.960 . S
C1245 H1232 0.961 . S
C1245 H1233 0.959 . S
C1245 C1243 1.561 . S
C1246 C1243 1.526 . S
C1246 C1247 1.396 . S
C1246 C1251 1.390 . S
C1247 C1241 1.465 . S
C1247 C1246 1.396 . S
C1247 C1248 1.399 . S
C1248 H1234 0.929 . S
C1248 C1247 1.399 . S
C1248 C1249 1.385 . S
C1249 H1235 0.931 . S
C1249 C1248 1.385 . S
C1249 C1250 1.389 . S
C1250 C1249 1.389 . S
C1250 C1251 1.387 . S
C1251 H1236 0.930 . S
C1251 C1246 1.390 . S
C1251 C1250 1.387 . S
H1252 C1264 0.930 . S
H1253 C1266 0.930 . S
H1254 C1267 0.930 . S
H1255 C1271 0.959 . S
H1256 C1271 0.959 . S
H1257 C1271 0.961 . S
H1258 C1272 0.960 . S
H1259 C1272 0.961 . S
H1260 C1272 0.959 . S
H1261 C1275 0.929 . S
H1262 C1276 0.931 . S
H1263 C1278 0.930 . S
C1264 H1252 0.930 . S
C1264 C1265 1.399 . S
C1264 C1269 1.399 . S
C1265 C1264 1.399 . S
C1265 C1266 1.376 . S
C1266 H1253 0.930 . S
C1266 C1265 1.376 . S
C1266 C1267 1.388 . S
C1267 H1254 0.930 . S
C1267 C1266 1.388 . S
C1267 C1268 1.390 . S
C1268 C1267 1.390 . S
C1268 C1269 1.394 . S
C1268 C1274 1.465 . S
C1269 C1264 1.399 . S
C1269 C1268 1.394 . S
C1269 C1270 1.516 . S
C1270 C1269 1.516 . S
C1270 C1271 1.502 . S
C1270 C1272 1.561 . S
C1270 C1273 1.526 . S
C1271 H1255 0.959 . S
C1271 H1256 0.959 . S
C1271 H1257 0.961 . S
C1271 C1270 1.502 . S
C1272 H1258 0.960 . S
C1272 H1259 0.961 . S
C1272 H1260 0.959 . S
C1272 C1270 1.561 . S
C1273 C1270 1.526 . S
C1273 C1274 1.396 . S
C1273 C1278 1.390 . S
C1274 C1268 1.465 . S
C1274 C1273 1.396 . S
C1274 C1275 1.399 . S
C1275 H1261 0.929 . S
C1275 C1274 1.399 . S
C1275 C1276 1.385 . S
C1276 H1262 0.931 . S
C1276 C1275 1.385 . S
C1276 C1277 1.389 . S
C1277 C1276 1.389 . S
C1277 C1278 1.387 . S
C1278 H1263 0.930 . S
C1278 C1273 1.390 . S
C1278 C1277 1.387 . S
H1279 C1291 0.930 . S
H1280 C1293 0.930 . S
H1281 C1294 0.930 . S
H1282 C1298 0.959 . S
H1283 C1298 0.959 . S
H1284 C1298 0.961 . S
H1285 C1299 0.960 . S
H1286 C1299 0.961 . S
H1287 C1299 0.959 . S
H1288 C1302 0.929 . S
H1289 C1303 0.931 . S
H1290 C1305 0.930 . S
C1291 H1279 0.930 . S
C1291 C1292 1.399 . S
C1291 C1296 1.399 . S
C1292 C1291 1.399 . S
C1292 C1293 1.376 . S
C1293 H1280 0.930 . S
C1293 C1292 1.376 . S
C1293 C1294 1.388 . S
C1294 H1281 0.930 . S
C1294 C1293 1.388 . S
C1294 C1295 1.390 . S
C1295 C1294 1.390 . S
C1295 C1296 1.394 . S
C1295 C1301 1.465 . S
C1296 C1291 1.399 . S
C1296 C1295 1.394 . S
C1296 C1297 1.516 . S
C1297 C1296 1.516 . S
C1297 C1298 1.502 . S
C1297 C1299 1.561 . S
C1297 C1300 1.526 . S
C1298 H1282 0.959 . S
C1298 H1283 0.959 . S
C1298 H1284 0.961 . S
C1298 C1297 1.502 . S
C1299 H1285 0.960 . S
C1299 H1286 0.961 . S
C1299 H1287 0.959 . S
C1299 C1297 1.561 . S
C1300 C1297 1.526 . S
C1300 C1301 1.396 . S
C1300 C1305 1.390 . S
C1301 C1295 1.465 . S
C1301 C1300 1.396 . S
C1301 C1302 1.399 . S
C1302 H1288 0.929 . S
C1302 C1301 1.399 . S
C1302 C1303 1.385 . S
C1303 H1289 0.931 . S
C1303 C1302 1.385 . S
C1303 C1304 1.389 . S
C1304 C1303 1.389 . S
C1304 C1305 1.387 . S
C1305 H1290 0.930 . S
C1305 C1300 1.390 . S
C1305 C1304 1.387 . S
H1306 C1318 0.930 . S
H1307 C1320 0.930 . S
H1308 C1321 0.930 . S
H1309 C1325 0.959 . S
H1310 C1325 0.959 . S
H1311 C1325 0.961 . S
H1312 C1326 0.960 . S
H1313 C1326 0.961 . S
H1314 C1326 0.959 . S
H1315 C1329 0.929 . S
H1316 C1330 0.931 . S
H1317 C1332 0.930 . S
C1318 H1306 0.930 . S
C1318 C1319 1.399 . S
C1318 C1323 1.399 . S
C1319 C1318 1.399 . S
C1319 C1320 1.376 . S
C1320 H1307 0.930 . S
C1320 C1319 1.376 . S
C1320 C1321 1.388 . S
C1321 H1308 0.930 . S
C1321 C1320 1.388 . S
C1321 C1322 1.390 . S
C1322 C1321 1.390 . S
C1322 C1323 1.394 . S
C1322 C1328 1.465 . S
C1323 C1318 1.399 . S
C1323 C1322 1.394 . S
C1323 C1324 1.516 . S
C1324 C1323 1.516 . S
C1324 C1325 1.502 . S
C1324 C1326 1.561 . S
C1324 C1327 1.526 . S
C1325 H1309 0.959 . S
C1325 H1310 0.959 . S
C1325 H1311 0.961 . S
C1325 C1324 1.502 . S
C1326 H1312 0.960 . S
C1326 H1313 0.961 . S
C1326 H1314 0.959 . S
C1326 C1324 1.561 . S
C1327 C1324 1.526 . S
C1327 C1328 1.396 . S
C1327 C1332 1.390 . S
C1328 C1322 1.465 . S
C1328 C1327 1.396 . S
C1328 C1329 1.399 . S
C1329 H1315 0.929 . S
C1329 C1328 1.399 . S
C1329 C1330 1.385 . S
C1330 H1316 0.931 . S
C1330 C1329 1.385 . S
C1330 C1331 1.389 . S
C1331 C1330 1.389 . S
C1331 C1332 1.387 . S
C1332 H1317 0.930 . S
C1332 C1327 1.390 . S
C1332 C1331 1.387 . S
H1333 C1345 0.930 . S
H1334 C1347 0.930 . S
H1335 C1348 0.930 . S
H1336 C1352 0.959 . S
H1337 C1352 0.959 . S
H1338 C1352 0.961 . S
H1339 C1353 0.960 . S
H1340 C1353 0.961 . S
H1341 C1353 0.959 . S
H1342 C1356 0.929 . S
H1343 C1357 0.931 . S
H1344 C1359 0.930 . S
C1345 H1333 0.930 . S
C1345 C1346 1.399 . S
C1345 C1350 1.399 . S
C1346 C1345 1.399 . S
C1346 C1347 1.376 . S
C1347 H1334 0.930 . S
C1347 C1346 1.376 . S
C1347 C1348 1.388 . S
C1348 H1335 0.930 . S
C1348 C1347 1.388 . S
C1348 C1349 1.390 . S
C1349 C1348 1.390 . S
C1349 C1350 1.394 . S
C1349 C1355 1.465 . S
C1350 C1345 1.399 . S
C1350 C1349 1.394 . S
C1350 C1351 1.516 . S
C1351 C1350 1.516 . S
C1351 C1352 1.502 . S
C1351 C1353 1.561 . S
C1351 C1354 1.526 . S
C1352 H1336 0.959 . S
C1352 H1337 0.959 . S
C1352 H1338 0.961 . S
C1352 C1351 1.502 . S
C1353 H1339 0.960 . S
C1353 H1340 0.961 . S
C1353 H1341 0.959 . S
C1353 C1351 1.561 . S
C1354 C1351 1.526 . S
C1354 C1355 1.396 . S
C1354 C1359 1.390 . S
C1355 C1349 1.465 . S
C1355 C1354 1.396 . S
C1355 C1356 1.399 . S
C1356 H1342 0.929 . S
C1356 C1355 1.399 . S
C1356 C1357 1.385 . S
C1357 H1343 0.931 . S
C1357 C1356 1.385 . S
C1357 C1358 1.389 . S
C1358 C1357 1.389 . S
C1358 C1359 1.387 . S
C1359 H1344 0.930 . S
C1359 C1354 1.390 . S
C1359 C1358 1.387 . S
C521 C417 1.515 . S
C509 C1 1.512 . S
C536 C68 1.510 . S
C548 C449 1.472 . S
C563 C93 1.514 . S
C575 C472 1.486 . S
C602 C376 1.496 . S
C590 C139 1.514 . S
C629 C459 1.303 . S
C617 C8 1.483 . S
C656 C488 1.388 . S
C644 C61 1.472 . S
C683 C392 1.304 . S
C671 C100 1.483 . S
C710 C427 1.396 . S
C698 C146 1.479 . S
C725 C15 1.479 . S
C737 C455 1.415 . S
C752 C192 1.489 . S
C764 C430 1.306 . S
C779 C107 1.485 . S
C791 C398 1.285 . S
C818 C487 1.336 . S
C806 C238 1.489 . S
C845 C431 1.487 . S
C833 C22 1.517 . S
C860 C185 1.516 . S
C872 C399 1.471 . S
C887 C114 1.516 . S
C899 C486 1.507 . S
C926 C454 1.494 . S
C914 C231 1.520 . S
C941 C277 1.515 . S
C953 C481 1.471 . S
C968 C206 1.514 . S
C980 C385 1.468 . S
C995 C330 1.513 . S
C1007 C408 1.495 . S
C1022 C252 1.512 . S
C1034 C440 1.521 . S
C1061 C395 1.294 . S
C1049 C284 1.488 . S
C1076 C199 1.468 . S
C1088 C424 1.410 . S
C1103 C323 1.478 . S
C1115 C456 1.411 . S
C1142 C491 1.379 . S
C1130 C245 1.475 . S
C1157 C291 1.486 . S
C1169 C391 1.293 . S
C1184 C54 1.467 . S
C1196 C494 1.377 . S
C1211 C344 1.483 . S
C1223 C462 1.374 . S
C1250 C423 1.391 . S
C1238 C153 1.478 . S
C1277 C495 1.488 . S
C1265 C298 1.511 . S
C1304 C463 1.496 . S
C1292 C47 1.515 . S
C1331 C422 1.515 . S
C1319 C337 1.513 . S
C1358 C390 1.518 . S
C1346 C160 1.513 . S
