# Generated by pormake.
# Topology eea, (3,6)-cn, num edge types: 1
# Building blocks:
#     Node 0, Type 0, BuildingBlock: BETDAH_clean_linker_0, # of connection points: 3
#     Node 1, Type 0, BuildingBlock: BETDAH_clean_linker_0, # of connection points: 3
#     Node 2, Type 0, BuildingBlock: BETDAH_clean_linker_0, # of connection points: 3
#     Node 3, Type 0, BuildingBlock: BETDAH_clean_linker_0, # of connection points: 3
#     Node 4, Type 0, BuildingBlock: BETDAH_clean_linker_0, # of connection points: 3
#     Node 5, Type 0, BuildingBlock: BETDAH_clean_linker_0, # of connection points: 3
#     Node 6, Type 0, BuildingBlock: BETDAH_clean_linker_0, # of connection points: 3
#     Node 7, Type 0, BuildingBlock: BETDAH_clean_linker_0, # of connection points: 3
#     Node 8, Type 0, BuildingBlock: BETDAH_clean_linker_0, # of connection points: 3
#     Node 9, Type 0, BuildingBlock: BETDAH_clean_linker_0, # of connection points: 3
#     Node 10, Type 0, BuildingBlock: BETDAH_clean_linker_0, # of connection points: 3
#     Node 11, Type 0, BuildingBlock: BETDAH_clean_linker_0, # of connection points: 3
#     Node 12, Type 0, BuildingBlock: BETDAH_clean_linker_0, # of connection points: 3
#     Node 13, Type 0, BuildingBlock: BETDAH_clean_linker_0, # of connection points: 3
#     Node 14, Type 0, BuildingBlock: BETDAH_clean_linker_0, # of connection points: 3
#     Node 15, Type 0, BuildingBlock: BETDAH_clean_linker_0, # of connection points: 3
#     Node 16, Type 0, BuildingBlock: BETDAH_clean_linker_0, # of connection points: 3
#     Node 17, Type 0, BuildingBlock: BETDAH_clean_linker_0, # of connection points: 3
#     Node 18, Type 1, BuildingBlock: KUMBOL_clean_sbu_0, # of connection points: 6
#     Node 19, Type 1, BuildingBlock: KUMBOL_clean_sbu_0, # of connection points: 6
#     Node 20, Type 1, BuildingBlock: KUMBOL_clean_sbu_0, # of connection points: 6
#     Node 21, Type 1, BuildingBlock: KUMBOL_clean_sbu_0, # of connection points: 6
#     Node 22, Type 1, BuildingBlock: KUMBOL_clean_sbu_0, # of connection points: 6
#     Node 23, Type 1, BuildingBlock: KUMBOL_clean_sbu_0, # of connection points: 6
#     Node 24, Type 1, BuildingBlock: KUMBOL_clean_sbu_0, # of connection points: 6
#     Node 25, Type 1, BuildingBlock: KUMBOL_clean_sbu_0, # of connection points: 6
#     Node 26, Type 1, BuildingBlock: KUMBOL_clean_sbu_0, # of connection points: 6
#     Edge 27, Type (0, 1), BuildingBlock: TEMPAE_clean_linker_10, # of connection points: 2
#     Edge 28, Type (0, 1), BuildingBlock: TEMPAE_clean_linker_10, # of connection points: 2
#     Edge 29, Type (0, 1), BuildingBlock: TEMPAE_clean_linker_10, # of connection points: 2
#     Edge 30, Type (0, 1), BuildingBlock: TEMPAE_clean_linker_10, # of connection points: 2
#     Edge 31, Type (0, 1), BuildingBlock: TEMPAE_clean_linker_10, # of connection points: 2
#     Edge 32, Type (0, 1), BuildingBlock: TEMPAE_clean_linker_10, # of connection points: 2
#     Edge 33, Type (0, 1), BuildingBlock: TEMPAE_clean_linker_10, # of connection points: 2
#     Edge 34, Type (0, 1), BuildingBlock: TEMPAE_clean_linker_10, # of connection points: 2
#     Edge 35, Type (0, 1), BuildingBlock: TEMPAE_clean_linker_10, # of connection points: 2
#     Edge 36, Type (0, 1), BuildingBlock: TEMPAE_clean_linker_10, # of connection points: 2
#     Edge 37, Type (0, 1), BuildingBlock: TEMPAE_clean_linker_10, # of connection points: 2
#     Edge 38, Type (0, 1), BuildingBlock: TEMPAE_clean_linker_10, # of connection points: 2
#     Edge 39, Type (0, 1), BuildingBlock: TEMPAE_clean_linker_10, # of connection points: 2
#     Edge 40, Type (0, 1), BuildingBlock: TEMPAE_clean_linker_10, # of connection points: 2
#     Edge 41, Type (0, 1), BuildingBlock: TEMPAE_clean_linker_10, # of connection points: 2
#     Edge 42, Type (0, 1), BuildingBlock: TEMPAE_clean_linker_10, # of connection points: 2
#     Edge 43, Type (0, 1), BuildingBlock: TEMPAE_clean_linker_10, # of connection points: 2
#     Edge 44, Type (0, 1), BuildingBlock: TEMPAE_clean_linker_10, # of connection points: 2
#     Edge 45, Type (0, 1), BuildingBlock: TEMPAE_clean_linker_10, # of connection points: 2
#     Edge 46, Type (0, 1), BuildingBlock: TEMPAE_clean_linker_10, # of connection points: 2
#     Edge 47, Type (0, 1), BuildingBlock: TEMPAE_clean_linker_10, # of connection points: 2
#     Edge 48, Type (0, 1), BuildingBlock: TEMPAE_clean_linker_10, # of connection points: 2
#     Edge 49, Type (0, 1), BuildingBlock: TEMPAE_clean_linker_10, # of connection points: 2
#     Edge 50, Type (0, 1), BuildingBlock: TEMPAE_clean_linker_10, # of connection points: 2
#     Edge 51, Type (0, 1), BuildingBlock: TEMPAE_clean_linker_10, # of connection points: 2
#     Edge 52, Type (0, 1), BuildingBlock: TEMPAE_clean_linker_10, # of connection points: 2
#     Edge 53, Type (0, 1), BuildingBlock: TEMPAE_clean_linker_10, # of connection points: 2
#     Edge 54, Type (0, 1), BuildingBlock: TEMPAE_clean_linker_10, # of connection points: 2
#     Edge 55, Type (0, 1), BuildingBlock: TEMPAE_clean_linker_10, # of connection points: 2
#     Edge 56, Type (0, 1), BuildingBlock: TEMPAE_clean_linker_10, # of connection points: 2
#     Edge 57, Type (0, 1), BuildingBlock: TEMPAE_clean_linker_10, # of connection points: 2
#     Edge 58, Type (0, 1), BuildingBlock: TEMPAE_clean_linker_10, # of connection points: 2
#     Edge 59, Type (0, 1), BuildingBlock: TEMPAE_clean_linker_10, # of connection points: 2
#     Edge 60, Type (0, 1), BuildingBlock: TEMPAE_clean_linker_10, # of connection points: 2
#     Edge 61, Type (0, 1), BuildingBlock: TEMPAE_clean_linker_10, # of connection points: 2
#     Edge 62, Type (0, 1), BuildingBlock: TEMPAE_clean_linker_10, # of connection points: 2
#     Edge 63, Type (0, 1), BuildingBlock: TEMPAE_clean_linker_10, # of connection points: 2
#     Edge 64, Type (0, 1), BuildingBlock: TEMPAE_clean_linker_10, # of connection points: 2
#     Edge 65, Type (0, 1), BuildingBlock: TEMPAE_clean_linker_10, # of connection points: 2
#     Edge 66, Type (0, 1), BuildingBlock: TEMPAE_clean_linker_10, # of connection points: 2
#     Edge 67, Type (0, 1), BuildingBlock: TEMPAE_clean_linker_10, # of connection points: 2
#     Edge 68, Type (0, 1), BuildingBlock: TEMPAE_clean_linker_10, # of connection points: 2
#     Edge 69, Type (0, 1), BuildingBlock: TEMPAE_clean_linker_10, # of connection points: 2
#     Edge 70, Type (0, 1), BuildingBlock: TEMPAE_clean_linker_10, # of connection points: 2
#     Edge 71, Type (0, 1), BuildingBlock: TEMPAE_clean_linker_10, # of connection points: 2
#     Edge 72, Type (0, 1), BuildingBlock: TEMPAE_clean_linker_10, # of connection points: 2
#     Edge 73, Type (0, 1), BuildingBlock: TEMPAE_clean_linker_10, # of connection points: 2
#     Edge 74, Type (0, 1), BuildingBlock: TEMPAE_clean_linker_10, # of connection points: 2
#     Edge 75, Type (0, 1), BuildingBlock: TEMPAE_clean_linker_10, # of connection points: 2
#     Edge 76, Type (0, 1), BuildingBlock: TEMPAE_clean_linker_10, # of connection points: 2
#     Edge 77, Type (0, 1), BuildingBlock: TEMPAE_clean_linker_10, # of connection points: 2
#     Edge 78, Type (0, 1), BuildingBlock: TEMPAE_clean_linker_10, # of connection points: 2
#     Edge 79, Type (0, 1), BuildingBlock: TEMPAE_clean_linker_10, # of connection points: 2
#     Edge 80, Type (0, 1), BuildingBlock: TEMPAE_clean_linker_10, # of connection points: 2
# Relax obj value: 0.023
# Max RMSD: 0.163
# Mean RMSD: 0.118
data_MOF--net-eea--node1-KUMBOL_clean_sbu_0--node2-BETDAH_clean_linker_0--edge1-TEMPAE_clean_linker_10
_symmetry_space_group_name_H-M    P1
_symmetry_Int_Tables_number       1
_symmetry_cell_setting            triclinic
loop_
_symmetry_equiv_pos_as_xyz
'x, y, z'
_cell_length_a     55.350589
_cell_length_b     56.583102
_cell_length_c     67.225331
_cell_angle_alpha  90.103788
_cell_angle_beta   90.077251
_cell_angle_gamma 119.98162
loop_
_atom_site_label
_atom_site_type_symbol
_atom_site_fract_x
_atom_site_fract_y
_atom_site_fract_z
_atom_type_partial_charge
H0 H 0.25194 0.07297 0.45133 0.0
H1 H 0.23488 0.13939 0.44671 0.0
H2 H 0.19476 0.07082 0.40709 0.0
C3 C 0.24126 0.08239 0.44425 0.0
C4 C 0.22298 0.06894 0.42832 0.0
C5 C 0.2455 0.10774 0.45124 0.0
C6 C 0.23199 0.12003 0.44147 0.0
C7 C 0.2136 0.10654 0.42555 0.0
C8 C 0.20898 0.08103 0.41937 0.0
N9 N 0.19832 0.11715 0.41578 0.0
C10 C 0.20543 0.14441 0.41506 0.0
H11 H 0.95708 0.17766 0.43924 0.0
H12 H 0.87517 0.11048 0.42721 0.0
H13 H 0.93236 0.14702 0.37928 0.0
C14 C 0.94212 0.16382 0.42851 0.0
C15 C 0.94938 0.16498 0.40821 0.0
C16 C 0.9152 0.14484 0.43539 0.0
C17 C 0.89591 0.12516 0.42213 0.0
C18 C 0.90273 0.12584 0.40196 0.0
C19 C 0.92876 0.14614 0.39513 0.0
N20 N 0.8835 0.1076 0.38768 0.0
C21 C 0.86065 0.08207 0.39165 0.0
H22 H 0.8332 0.77045 0.4366 0.0
H23 H 0.91712 0.78445 0.43075 0.0
H24 H 0.88457 0.81718 0.38763 0.0
C25 C 0.85275 0.77906 0.42861 0.0
C26 C 0.85576 0.79359 0.41093 0.0
C27 C 0.87468 0.77556 0.43608 0.0
C28 C 0.90008 0.78697 0.42539 0.0
C29 C 0.90354 0.80196 0.40787 0.0
C30 C 0.88147 0.80523 0.40095 0.0
N31 N 0.92907 0.81526 0.39706 0.0
C32 C 0.95086 0.80954 0.39737 0.0
H33 H 0.06027 0.22466 0.59113 0.0
H34 H 0.14245 0.23792 0.60279 0.0
H35 H 0.08579 0.21928 0.65098 0.0
C36 C 0.07536 0.22556 0.60177 0.0
C37 C 0.06832 0.21993 0.62213 0.0
C38 C 0.10223 0.23289 0.59472 0.0
C39 C 0.12167 0.23218 0.6079 0.0
C40 C 0.11513 0.22654 0.62812 0.0
C41 C 0.08916 0.22152 0.6351 0.0
N42 N 0.13505 0.22855 0.64237 0.0
C43 C 0.15523 0.22105 0.63948 0.0
H44 H 0.78245 0.8402 0.59134 0.0
H45 H 0.7615 0.90254 0.60397 0.0
H46 H 0.77905 0.86319 0.65178 0.0
C47 C 0.77973 0.8532 0.60188 0.0
C48 C 0.78243 0.84987 0.62229 0.0
C49 C 0.77204 0.87203 0.59503 0.0
C50 C 0.76751 0.88801 0.60898 0.0
C51 C 0.76989 0.88454 0.62946 0.0
C52 C 0.77708 0.86544 0.63594 0.0
N53 N 0.76416 0.89911 0.64407 0.0
C54 C 0.76884 0.92536 0.64143 0.0
H55 H 0.17305 0.93478 0.59114 0.0
H56 H 0.09253 0.86442 0.60315 0.0
H57 H 0.12979 0.93071 0.64506 0.0
C58 C 0.15486 0.92403 0.60056 0.0
C59 C 0.15412 0.93568 0.61879 0.0
C60 C 0.13281 0.89828 0.5947 0.0
C61 C 0.10975 0.88411 0.60753 0.0
C62 C 0.10871 0.89605 0.6257 0.0
C63 C 0.13086 0.92163 0.63111 0.0
N64 N 0.08563 0.8838 0.63886 0.0
C65 C 0.06414 0.85683 0.63863 0.0
H66 H 0.90638 0.39787 0.78113 0.0
H67 H 0.89118 0.46492 0.77289 0.0
H68 H 0.85347 0.39573 0.73353 0.0
C69 C 0.8965 0.40735 0.77304 0.0
C70 C 0.87951 0.39381 0.75662 0.0
C71 C 0.9006 0.43289 0.77919 0.0
C72 C 0.8882 0.44529 0.76824 0.0
C73 C 0.87102 0.43166 0.75179 0.0
C74 C 0.8666 0.40598 0.7463 0.0
N75 N 0.85722 0.44256 0.74053 0.0
C76 C 0.86341 0.46953 0.74086 0.0
H77 H 0.61549 0.51002 0.76878 0.0
H78 H 0.5326 0.44575 0.75532 0.0
H79 H 0.59074 0.48353 0.70803 0.0
C80 C 0.60039 0.49717 0.75774 0.0
C81 C 0.60776 0.49927 0.73741 0.0
C82 C 0.57317 0.47857 0.76423 0.0
C83 C 0.55359 0.46012 0.75051 0.0
C84 C 0.56051 0.46177 0.73029 0.0
C85 C 0.58694 0.48179 0.72388 0.0
N86 N 0.54097 0.44489 0.71563 0.0
C87 C 0.5184 0.41898 0.71899 0.0
H88 H 0.50181 0.11055 0.77308 0.0
H89 H 0.57869 0.1106 0.76227 0.0
H90 H 0.54311 0.13616 0.71646 0.0
C91 C 0.51888 0.11443 0.76327 0.0
C92 C 0.51973 0.12463 0.74397 0.0
C93 C 0.53971 0.10878 0.77001 0.0
C94 C 0.56227 0.1143 0.75727 0.0
C95 C 0.56355 0.1248 0.73809 0.0
C96 C 0.54214 0.12925 0.7316 0.0
N97 N 0.5857 0.13138 0.72448 0.0
C98 C 0.60924 0.12874 0.72688 0.0
H99 H 0.73109 0.56654 0.92796 0.0
H100 H 0.79879 0.54953 0.93214 0.0
H101 H 0.73414 0.51819 0.97611 0.0
C102 C 0.7412 0.55684 0.93542 0.0
C103 C 0.72952 0.54224 0.95311 0.0
C104 C 0.76615 0.5596 0.92754 0.0
C105 C 0.77988 0.54803 0.93804 0.0
C106 C 0.7683 0.5332 0.95563 0.0
C107 C 0.74316 0.53021 0.96282 0.0
N108 N 0.78011 0.51947 0.96599 0.0
C109 C 0.80812 0.52653 0.96631 0.0
H110 H 0.42857 0.16324 0.92514 0.0
H111 H 0.41578 0.23066 0.9389 0.0
H112 H 0.44269 0.19596 0.98452 0.0
C113 C 0.42906 0.17799 0.93569 0.0
C114 C 0.43689 0.17749 0.95549 0.0
C115 C 0.42119 0.19697 0.92956 0.0
C116 C 0.42216 0.2162 0.94337 0.0
C117 C 0.42974 0.21555 0.96326 0.0
C118 C 0.43677 0.19613 0.96916 0.0
N119 N 0.42943 0.23324 0.97805 0.0
C120 C 0.43236 0.25864 0.97435 0.0
H121 H 0.84017 0.26872 0.92496 0.0
H122 H 0.75557 0.20189 0.93089 0.0
H123 H 0.78587 0.2722 0.96886 0.0
C124 C 0.82013 0.25909 0.93237 0.0
C125 C 0.81578 0.27311 0.94793 0.0
C126 C 0.79844 0.23351 0.92573 0.0
C127 C 0.77242 0.22162 0.93558 0.0
C128 C 0.76797 0.23566 0.95118 0.0
C129 C 0.7895 0.26145 0.95692 0.0
N130 N 0.74186 0.22536 0.96091 0.0
C131 C 0.72226 0.19796 0.96368 0.0
H132 H 0.58189 0.73663 0.10861 0.0
H133 H 0.57394 0.80765 0.0981 0.0
H134 H 0.53674 0.73973 0.05763 0.0
C135 C 0.57412 0.74743 0.09976 0.0
C136 C 0.55848 0.73502 0.08257 0.0
C137 C 0.57964 0.77358 0.10564 0.0
C138 C 0.56986 0.78756 0.09371 0.0
C139 C 0.5543 0.77517 0.07637 0.0
C140 C 0.54861 0.74902 0.07108 0.0
N141 N 0.54375 0.78799 0.06376 0.0
C142 C 0.54808 0.8142 0.06606 0.0
H143 H 0.28361 0.84412 0.10617 0.0
H144 H 0.20334 0.77449 0.09344 0.0
H145 H 0.26085 0.81359 0.04614 0.0
C146 C 0.26917 0.8297 0.09551 0.0
C147 C 0.27697 0.83127 0.07528 0.0
C148 C 0.24227 0.81004 0.10215 0.0
C149 C 0.22371 0.79027 0.08855 0.0
C150 C 0.23099 0.79151 0.06845 0.0
C151 C 0.25688 0.81238 0.06194 0.0
N152 N 0.21248 0.77298 0.05396 0.0
C153 C 0.18949 0.74747 0.05775 0.0
H154 H 0.16661 0.43946 0.10496 0.0
H155 H 0.25069 0.45444 0.09823 0.0
H156 H 0.21644 0.48562 0.05517 0.0
C157 C 0.18611 0.44857 0.09685 0.0
C158 C 0.18848 0.46259 0.07903 0.0
C159 C 0.20839 0.44551 0.10405 0.0
C160 C 0.23328 0.45633 0.09284 0.0
C161 C 0.23608 0.47083 0.07516 0.0
C162 C 0.2138 0.47398 0.06859 0.0
N163 N 0.26126 0.48402 0.06401 0.0
C164 C 0.28259 0.47769 0.06364 0.0
H165 H 0.40349 0.90785 0.26385 0.0
H166 H 0.47103 0.89055 0.26758 0.0
H167 H 0.40633 0.85873 0.31155 0.0
C168 C 0.41379 0.8984 0.27138 0.0
C169 C 0.40206 0.88354 0.28898 0.0
C170 C 0.43861 0.901 0.26335 0.0
C171 C 0.45193 0.8887 0.27343 0.0
C172 C 0.44026 0.87357 0.29089 0.0
C173 C 0.41539 0.87094 0.29833 0.0
N174 N 0.45184 0.85941 0.30099 0.0
C175 C 0.47962 0.8657 0.30085 0.0
H176 H 0.10419 0.50273 0.25897 0.0
H177 H 0.12609 0.58725 0.26297 0.0
H178 H 0.16682 0.55628 0.3005 0.0
C179 C 0.11605 0.52274 0.26576 0.0
C180 C 0.13552 0.5269 0.28068 0.0
C181 C 0.11287 0.54455 0.25893 0.0
C182 C 0.12865 0.57042 0.2679 0.0
C183 C 0.14802 0.57459 0.283 0.0
C184 C 0.15171 0.55294 0.28897 0.0
N185 N 0.16456 0.60032 0.29232 0.0
C186 C 0.15839 0.6213 0.29238 0.0
H187 H 0.50849 0.60416 0.25474 0.0
H188 H 0.42496 0.53669 0.26334 0.0
H189 H 0.45728 0.60693 0.30155 0.0
C190 C 0.4891 0.59442 0.26298 0.0
C191 C 0.4858 0.60841 0.27907 0.0
C192 C 0.46727 0.5686 0.25695 0.0
C193 C 0.44193 0.55657 0.26766 0.0
C194 C 0.43841 0.57056 0.28374 0.0
C195 C 0.4602 0.59641 0.28909 0.0
N196 N 0.41305 0.56005 0.29451 0.0
C197 C 0.39317 0.53263 0.29676 0.0
Gd198 Gd 0.51551 0.02308 0.04207 0.0
Gd199 Gd 0.49692 0.98938 0.99243 0.0
C200 C 0.4151 0.90987 0.98198 0.0
C201 C 0.43108 0.87732 0.97715 0.0
C202 C 0.46449 0.92531 0.9827 0.0
C203 C 0.44299 0.93085 0.98452 0.0
C204 C 0.45887 0.89859 0.97862 0.0
C205 C 0.40921 0.88296 0.9788 0.0
C206 C 0.39409 0.91676 0.98197 0.0
C207 C 0.40125 0.94406 0.98384 0.0
N208 N 0.44948 0.95708 0.9875 0.0
C209 C 0.42923 0.96411 0.98643 0.0
H210 H 0.43441 0.98508 0.98802 0.0
C211 C 0.51306 0.9425 0.98023 0.0
N212 N 0.49103 0.94639 0.98404 0.0
C213 C 0.50858 0.91633 0.97626 0.0
C214 C 0.48137 0.8942 0.97568 0.0
H215 H 0.53414 0.95947 0.98087 0.0
H216 H 0.38789 0.86651 0.97707 0.0
H217 H 0.57723 0.02508 0.04475 0.0
H218 H 0.37242 0.9013 0.97991 0.0
H219 H 0.38522 0.94969 0.98346 0.0
H220 H 0.4263 0.85658 0.97422 0.0
H221 H 0.48039 0.05486 0.05401 0.0
H222 H 0.64101 0.10733 0.05579 0.0
H223 H 0.62669 0.05895 0.04987 0.0
H224 H 0.59023 0.15502 0.06268 0.0
H225 H 0.5261 0.91322 0.97374 0.0
H226 H 0.47795 0.87396 0.97259 0.0
H227 H 0.62737 0.14332 0.05964 0.0
H228 H 0.49017 0.10153 0.06193 0.0
N229 N 0.56337 0.05398 0.04705 0.0
C230 C 0.61922 0.09259 0.05327 0.0
C231 C 0.61119 0.06527 0.05008 0.0
C232 C 0.59894 0.10044 0.05377 0.0
C233 C 0.57079 0.08031 0.05083 0.0
C234 C 0.58301 0.04608 0.0472 0.0
N235 N 0.52316 0.06655 0.05092 0.0
C236 C 0.55 0.08685 0.05269 0.0
C237 C 0.5072 0.0977 0.05932 0.0
C238 C 0.53477 0.11909 0.06029 0.0
C239 C 0.50174 0.07131 0.0549 0.0
C240 C 0.55661 0.11374 0.05731 0.0
H241 H 0.53897 0.1395 0.0638 0.0
O242 O 0.49174 0.01333 0.06957 0.0
O243 O 0.48381 0.98934 0.02359 0.0
O244 O 0.48205 0.01991 0.99652 0.0
O245 O 0.51088 0.05115 0.02061 0.0
O246 O 0.46894 0.00694 0.0431 0.0
O247 O 0.52715 0.00716 0.0675 0.0
O248 O 0.52021 0.99951 0.96471 0.0
O249 O 0.52849 0.02346 0.0108 0.0
O250 O 0.52951 0.99172 0.03798 0.0
O251 O 0.49968 0.96075 0.01423 0.0
O252 O 0.54358 0.0061 0.99125 0.0
O253 O 0.48388 0.0042 0.96708 0.0
C254 C 0.46174 0.98792 0.03001 0.0
C255 C 0.58469 0.13417 0.05931 0.0
C256 C 0.60583 0.12751 0.05759 0.0
C257 C 0.50768 0.00617 0.07896 0.0
C258 C 0.5161 0.01687 0.09936 0.0
C259 C 0.53465 0.04471 0.10249 0.0
C260 C 0.50556 0.99919 0.11587 0.0
C261 C 0.51365 0.00929 0.13546 0.0
C262 C 0.5426 0.05489 0.12176 0.0
C263 C 0.53222 0.03742 0.1381 0.0
C264 C 0.49351 0.04416 0.0053 0.0
C265 C 0.55066 0.02531 1.00417 0.0
C266 C 0.50349 0.00581 0.95545 0.0
C267 C 0.49499 0.99483 0.93513 0.0
C268 C 0.47868 0.96663 0.93206 0.0
C269 C 0.50316 0.01261 0.91864 0.0
C270 C 0.49493 0.00224 0.89913 0.0
C271 C 0.47066 0.95621 0.91286 0.0
C272 C 0.4787 0.97376 0.89654 0.0
C273 C 0.51711 0.96729 0.02943 0.0
H274 H 0.54296 0.05858 0.09005 0.0
H275 H 0.49141 0.97761 0.11341 0.0
H276 H 0.55682 0.07645 0.12405 0.0
H277 H 0.53849 0.04608 0.15286 0.0
H278 H 0.47219 0.95269 0.94449 0.0
H279 H 0.51553 0.03444 0.92107 0.0
H280 H 0.45819 0.93438 0.91059 0.0
H281 H 0.47241 0.96495 0.88182 0.0
Gd282 Gd 0.98569 0.49591 0.04335 0.0
Gd283 Gd 0.02247 0.51091 0.9953 0.0
C284 C 0.10086 0.50475 0.98676 0.0
C285 C 0.13651 0.55225 0.98236 0.0
C286 C 0.08815 0.53995 0.98753 0.0
C287 C 0.08066 0.51277 0.98915 0.0
C288 C 0.11605 0.55995 0.98369 0.0
C289 C 0.12891 0.52469 0.98382 0.0
C290 C 0.09212 0.4769 0.98679 0.0
C291 C 0.06391 0.45783 0.98918 0.0
N292 N 0.05338 0.49401 0.992 0.0
C293 C 0.04467 0.46677 0.99158 0.0
H294 H 0.02293 0.45177 0.99334 0.0
C295 C 0.07349 0.57251 0.98423 0.0
N296 N 0.06779 0.54659 0.98846 0.0
C297 C 0.10091 0.59314 0.98063 0.0
C298 C 0.12236 0.58691 0.98062 0.0
H299 H 0.05694 0.57738 0.98432 0.0
H300 H 0.14477 0.51893 0.98222 0.0
H301 H 0.98439 0.55484 0.04303 0.0
H302 H 0.10687 0.46988 0.98448 0.0
H303 H 0.05694 0.43623 0.98906 0.0
H304 H 0.15811 0.56735 0.97961 0.0
H305 H 0.95319 0.43162 0.05898 0.0
H306 H 0.90138 0.53712 0.05504 0.0
H307 H 0.95066 0.57042 0.04784 0.0
H308 H 0.85152 0.4405 0.06506 0.0
H309 H 0.10549 0.61382 0.97789 0.0
H310 H 0.14356 0.6029 0.97772 0.0
H311 H 0.86398 0.48833 0.05985 0.0
H312 H 0.90582 0.39591 0.06887 0.0
N313 N 0.95443 0.51264 0.04638 0.0
C314 C 0.91593 0.52998 0.0523 0.0
C315 C 0.94381 0.54886 0.0485 0.0
C316 C 0.9074 0.50222 0.05335 0.0
C317 C 0.92749 0.49414 0.05057 0.0
C318 C 0.96293 0.53985 0.04579 0.0
N319 N 0.94111 0.46109 0.05278 0.0
C320 C 0.92054 0.46739 0.05367 0.0
C321 C 0.90962 0.41589 0.06452 0.0
C322 C 0.88781 0.42158 0.0644 0.0
C323 C 0.9364 0.43614 0.05894 0.0
C324 C 0.89324 0.44779 0.0594 0.0
H325 H 0.86712 0.40593 0.06887 0.0
O326 O 0.99451 0.48328 0.07169 0.0
O327 O 0.02144 0.49847 0.02662 0.0
O328 O 0.9887 0.46616 0.99737 0.0
O329 O 0.95739 0.46159 0.02255 0.0
O330 O 1.00165 0.46612 0.04573 0.0
O331 O 1.00069 0.52397 0.06838 0.0
O332 O 0.01545 0.52597 0.96749 0.0
O333 O 0.98599 0.50726 0.01172 0.0
O334 O 0.01831 0.54101 0.03978 0.0
O335 O 0.05097 0.5424 0.01739 0.0
O336 O 0.00597 0.54026 0.99309 0.0
O337 O 0.01095 0.48565 0.96873 0.0
C338 C 0.0222 0.47813 0.03354 0.0
C339 C 0.87268 0.45533 0.06088 0.0
C340 C 0.87978 0.48255 0.05794 0.0
C341 C 1.00084 0.50615 0.08055 0.0
C342 C 0.98821 0.50396 0.10017 0.0
C343 C 0.96001 0.49631 0.10195 0.0
C344 C 0.00468 0.50977 0.11735 0.0
C345 C 0.9931 0.50789 0.13635 0.0
C346 C 0.94833 0.49431 0.12068 0.0
C347 C 0.96469 0.50002 0.13779 0.0
C348 C 0.96417 0.45256 0.00644 0.0
C349 C 0.98485 0.52737 0.00472 0.0
C350 C 0.01072 0.5043 0.95748 0.0
C351 C 0.0246 0.50909 0.9381 0.0
C352 C 0.05365 0.52126 0.93673 0.0
C353 C 0.00843 0.50162 0.92067 0.0
C354 C 0.02114 0.50637 0.90184 0.0
C355 C 0.06645 0.52609 0.91815 0.0
C356 C 0.05038 0.51876 0.90079 0.0
C357 C 0.04368 0.55327 0.03194 0.0
H358 H 0.94706 0.49194 0.08892 0.0
H359 H 0.02659 0.5161 0.11588 0.0
H360 H 0.9265 0.48827 0.12195 0.0
H361 H 0.955 0.49796 0.15216 0.0
H362 H 0.06643 0.52709 0.94995 0.0
H363 H 0.98592 0.4918 0.92184 0.0
H364 H 0.08892 0.53562 0.91719 0.0
H365 H 0.06086 0.52303 0.88656 0.0
Gd366 Gd 0.49524 0.5118 0.98816 0.0
Gd367 Gd 0.51367 0.49512 0.03703 0.0
C368 C 0.59635 0.49739 0.04704 0.0
C369 C 0.58128 0.4494 0.0518 0.0
C370 C 0.54715 0.46378 0.04615 0.0
C371 C 0.56831 0.49057 0.04451 0.0
C372 C 0.55332 0.44293 0.05023 0.0
C373 C 0.60277 0.4766 0.05023 0.0
C374 C 0.61702 0.52494 0.04684 0.0
C375 C 0.60947 0.54488 0.04443 0.0
N376 N 0.56137 0.51014 0.04141 0.0
C377 C 0.58136 0.5371 0.04196 0.0
H378 H 0.57586 0.55276 0.0401 0.0
C379 C 0.49873 0.43274 0.0487 0.0
N380 N 0.5204 0.45831 0.04476 0.0
C381 C 0.50377 0.41132 0.05264 0.0
C382 C 0.53119 0.41636 0.05316 0.0
H383 H 0.4775 0.42874 0.04816 0.0
H384 H 0.62422 0.48141 0.05196 0.0
H385 H 0.43289 0.45378 0.98662 0.0
H386 H 0.63876 0.53104 0.04904 0.0
H387 H 0.62528 0.56627 0.04449 0.0
H388 H 0.58648 0.43364 0.05473 0.0
H389 H 0.53042 0.57643 0.97328 0.0
H390 H 0.36984 0.47415 0.97447 0.0
H391 H 0.38364 0.43963 0.98127 0.0
H392 H 0.42137 0.57103 0.96581 0.0
H393 H 0.48653 0.39094 0.05521 0.0
H394 H 0.53505 0.39975 0.05626 0.0
H395 H 0.38386 0.52344 0.97011 0.0
H396 H 0.5212 0.61343 0.96388 0.0
N397 N 0.44726 0.4963 0.98386 0.0
C398 C 0.39153 0.48062 0.97733 0.0
C399 C 0.39928 0.46106 0.98094 0.0
C400 C 0.41197 0.5082 0.97667 0.0
C401 C 0.44005 0.51543 0.97976 0.0
C402 C 0.42739 0.46925 0.98395 0.0
N403 N 0.48778 0.54761 0.97861 0.0
C404 C 0.46103 0.54205 0.97724 0.0
C405 C 0.50407 0.59349 0.96772 0.0
C406 C 0.47669 0.58853 0.96738 0.0
C407 C 0.50922 0.57251 0.97304 0.0
C408 C 0.45469 0.56238 0.97171 0.0
H409 H 0.47272 0.60474 0.96309 0.0
O410 O 0.51962 0.52406 0.96094 0.0
O411 O 0.52696 0.508 0.00592 0.0
O412 O 0.52743 0.54013 0.03468 0.0
O413 O 0.50217 0.54598 0.00898 0.0
O414 O 0.54177 0.54099 0.98719 0.0
O415 O 0.48173 0.48498 0.96231 0.0
O416 O 0.48959 0.48122 0.06429 0.0
O417 O 0.48218 0.49973 0.01952 0.0
O418 O 0.48049 0.46659 0.99174 0.0
O419 O 0.50992 0.46353 0.01506 0.0
O420 O 0.46706 0.46638 0.03798 0.0
O421 O 0.5276 0.52047 0.06361 0.0
C422 C 0.54904 0.52829 0.99957 0.0
C423 C 0.42669 0.55565 0.96983 0.0
C424 C 0.40535 0.52856 0.97225 0.0
C425 C 0.50219 0.50223 0.95116 0.0
C426 C 0.49488 0.5066 0.93098 0.0
C427 C 0.47863 0.51896 0.92819 0.0
C428 C 0.50482 0.49896 0.91431 0.0
C429 C 0.49892 0.504 0.89482 0.0
C430 C 0.47274 0.5241 0.90905 0.0
C431 C 0.4829 0.5169 0.89251 0.0
C432 C 0.51774 0.55431 0.02532 0.0
C433 C 0.45999 0.47965 0.02599 0.0
C434 C 0.50709 0.50263 0.07449 0.0
C435 C 0.51426 0.49745 0.09447 0.0
C436 C 0.52979 0.48426 0.09689 0.0
C437 C 0.50488 0.50524 0.11136 0.0
C438 C 0.51068 0.49958 0.13065 0.0
C439 C 0.5357 0.47868 0.11593 0.0
C440 C 0.52618 0.48619 0.1327 0.0
C441 C 0.49228 0.45356 0.99997 0.0
H442 H 0.47068 0.52481 0.94079 0.0
H443 H 0.51699 0.48901 0.91659 0.0
H444 H 0.46043 0.53394 0.90702 0.0
H445 H 0.47853 0.52187 0.87789 0.0
H446 H 0.53724 0.4782 0.08411 0.0
H447 H 0.49271 0.51528 0.10946 0.0
H448 H 0.54772 0.4685 0.1177 0.0
H449 H 0.53131 0.48186 0.1473 0.0
Gd450 Gd 0.18614 0.35552 0.3737 0.0
Gd451 Gd 0.16895 0.32261 0.3239 0.0
C452 C 0.08564 0.24471 0.31377 0.0
C453 C 0.09998 0.2108 0.30957 0.0
C454 C 0.13465 0.25851 0.31473 0.0
C455 C 0.11381 0.26505 0.31625 0.0
C456 C 0.12807 0.23143 0.31093 0.0
C457 C 0.07878 0.21744 0.31097 0.0
C458 C 0.06536 0.25257 0.31342 0.0
C459 C 0.07351 0.28018 0.31483 0.0
N460 N 0.12122 0.2916 0.31885 0.0
C461 C 0.10173 0.29957 0.31739 0.0
H462 H 0.10771 0.32081 0.31868 0.0
C463 C 0.18294 0.27416 0.31215 0.0
N464 N 0.16152 0.27897 0.31597 0.0
C465 C 0.17749 0.2476 0.30844 0.0
C466 C 0.14994 0.22606 0.30809 0.0
H467 H 0.20427 0.29073 0.31263 0.0
H468 H 0.05723 0.20147 0.30931 0.0
H469 H 0.24865 0.35917 0.37572 0.0
H470 H 0.0435 0.23761 0.31144 0.0
H471 H 0.05805 0.28654 0.31415 0.0
H472 H 0.09445 0.1898 0.30688 0.0
H473 H 0.14954 0.38457 0.38854 0.0
H474 H 0.3109 0.44159 0.3882 0.0
H475 H 0.29786 0.3938 0.38103 0.0
H476 H 0.25773 0.48623 0.39858 0.0
H477 H 0.19452 0.24373 0.30593 0.0
H478 H 0.14576 0.20552 0.30519 0.0
H479 H 0.29587 0.47629 0.39381 0.0
H480 H 0.15792 0.42994 0.39901 0.0
N481 N 0.23375 0.38715 0.37896 0.0
C482 C 0.28924 0.42655 0.38555 0.0
C483 C 0.28193 0.39955 0.38166 0.0
C484 C 0.2684 0.4336 0.3867 0.0
C485 C 0.24046 0.41308 0.38352 0.0
C486 C 0.25391 0.37993 0.37867 0.0
N487 N 0.19253 0.39791 0.38425 0.0
C488 C 0.21913 0.41868 0.38619 0.0
C489 C 0.17533 0.4271 0.39535 0.0
C490 C 0.20259 0.44907 0.39638 0.0
C491 C 0.17066 0.40142 0.38943 0.0
C492 C 0.22495 0.44493 0.39211 0.0
H493 H 0.20616 0.46893 0.40098 0.0
O494 O 0.16028 0.34173 0.40021 0.0
O495 O 0.15494 0.32214 0.35475 0.0
O496 O 0.15605 0.35496 0.32694 0.0
O497 O 0.18168 0.38447 0.35305 0.0
O498 O 0.13971 0.34001 0.37363 0.0
O499 O 0.19893 0.34108 0.39942 0.0
O500 O 0.19296 0.33183 0.29658 0.0
O501 O 0.19999 0.35656 0.34253 0.0
O502 O 0.20082 0.32472 0.36963 0.0
O503 O 0.17142 0.29374 0.34581 0.0
O504 O 0.21553 0.33904 0.32344 0.0
O505 O 0.15664 0.33674 0.29778 0.0
C506 C 0.13275 0.32095 0.3606 0.0
C507 C 0.2528 0.46584 0.39426 0.0
C508 C 0.27451 0.46018 0.39156 0.0
C509 C 0.17755 0.33688 0.41014 0.0
C510 C 0.18333 0.34698 0.4308 0.0
C511 C 0.1986 0.37505 0.43467 0.0
C512 C 0.17299 0.32846 0.44681 0.0
C513 C 0.1777 0.33796 0.4667 0.0
C514 C 0.20323 0.38464 0.4542 0.0
C515 C 0.19278 0.36637 0.47007 0.0
C516 C 0.16652 0.37865 0.33656 0.0
C517 C 0.22231 0.35843 0.33617 0.0
C518 C 0.17655 0.33797 0.28669 0.0
C519 C 0.16869 0.32662 0.26641 0.0
C520 C 0.15441 0.29834 0.26338 0.0
C521 C 0.17566 0.34421 0.2499 0.0
C522 C 0.16844 0.33359 0.23037 0.0
C523 C 0.14736 0.28767 0.24417 0.0
C524 C 0.15434 0.30505 0.22781 0.0
C525 C 0.18838 0.30017 0.3613 0.0
H526 H 0.20679 0.38955 0.42261 0.0
H527 H 0.16151 0.30676 0.44372 0.0
H528 H 0.21481 0.40638 0.45707 0.0
H529 H 0.19623 0.37462 0.48501 0.0
H530 H 0.14883 0.28452 0.27584 0.0
H531 H 0.18636 0.36608 0.25233 0.0
H532 H 0.1365 0.26579 0.24193 0.0
H533 H 0.14895 0.29606 0.21309 0.0
Gd534 Gd 0.65838 0.83086 0.37245 0.0
Gd535 Gd 0.69436 0.84834 0.32442 0.0
C536 C 0.77328 0.84287 0.31671 0.0
C537 C 0.8089 0.89057 0.31331 0.0
C538 C 0.76027 0.87785 0.31753 0.0
C539 C 0.75286 0.85066 0.31874 0.0
C540 C 0.78826 0.89807 0.3143 0.0
C541 C 0.80142 0.86301 0.3145 0.0
C542 C 0.7647 0.81505 0.31635 0.0
C543 C 0.73636 0.7958 0.31765 0.0
N544 N 0.72549 0.83172 0.3208 0.0
C545 C 0.71689 0.80454 0.3196 0.0
H546 H 0.69506 0.78943 0.32059 0.0
C547 C 0.74547 0.91034 0.31446 0.0
N548 N 0.73978 0.88433 0.31832 0.0
C549 C 0.77295 0.93116 0.31133 0.0
C550 C 0.79451 0.92507 0.31152 0.0
H551 H 0.72884 0.91511 0.31447 0.0
H552 H 0.81744 0.85743 0.31318 0.0
H553 H 0.66193 0.89398 0.37379 0.0
H554 H 0.77968 0.80821 0.31452 0.0
H555 H 0.72949 0.77424 0.31711 0.0
H556 H 0.83058 0.90584 0.31106 0.0
H557 H 0.62067 0.76553 0.38565 0.0
H558 H 0.58119 0.88061 0.38682 0.0
H559 H 0.63094 0.91174 0.37982 0.0
H560 H 0.52521 0.78401 0.39345 0.0
H561 H 0.77751 0.95188 0.30885 0.0
H562 H 0.81577 0.94121 0.30904 0.0
H563 H 0.54165 0.83299 0.39056 0.0
H564 H 0.57169 0.73182 0.3936 0.0
N565 N 0.6306 0.85181 0.37691 0.0
C566 C 0.5947 0.87229 0.38386 0.0
C567 C 0.62282 0.88992 0.38013 0.0
C568 C 0.58445 0.8442 0.38422 0.0
C569 C 0.60316 0.83441 0.38097 0.0
C570 C 0.64055 0.87942 0.37683 0.0
N571 N 0.61253 0.79808 0.38108 0.0
C572 C 0.59382 0.80676 0.3828 0.0
C573 C 0.57754 0.75275 0.39044 0.0
C574 C 0.55761 0.76094 0.39104 0.0
C575 C 0.60518 0.77183 0.38585 0.0
C576 C 0.56573 0.78833 0.3877 0.0
H577 H 0.53623 0.74619 0.39478 0.0
O578 O 0.69137 0.84942 0.39478 0.0
O579 O 0.69341 0.83311 0.35502 0.0
O580 O 0.66031 0.80385 0.32378 0.0
O581 O 0.63199 0.79553 0.35172 0.0
O582 O 0.67016 0.79798 0.3709 0.0
O583 O 0.64996 0.81967 0.40371 0.0
O584 O 0.68892 0.86541 0.29701 0.0
O585 O 0.65745 0.84332 0.34129 0.0
O586 O 0.69018 0.87617 0.37051 0.0
O587 O 0.72253 0.87898 0.34718 0.0
O588 O 0.67752 0.87749 0.32376 0.0
O589 O 0.68311 0.82454 0.29715 0.0
C590 C 0.69231 0.81119 0.36024 0.0
C591 C 0.54689 0.7979 0.38988 0.0
C592 C 0.55627 0.82579 0.38825 0.0
C593 C 0.67568 0.83481 0.40932 0.0
C594 C 0.68727 0.8221 0.4225 0.0
C595 C 0.68647 0.79774 0.41715 0.0
C596 C 0.69892 0.83434 0.44092 0.0
C597 C 0.70989 0.82242 0.45385 0.0
C598 C 0.69818 0.78639 0.42951 0.0
C599 C 0.70995 0.79866 0.44768 0.0
C600 C 0.63746 0.78843 0.33422 0.0
C601 C 0.65631 0.86379 0.33516 0.0
C602 C 0.68383 0.84407 0.28642 0.0
C603 C 0.69806 0.84929 0.26715 0.0
C604 C 0.72719 0.86209 0.266 0.0
C605 C 0.68212 0.8412 0.2496 0.0
C606 C 0.69512 0.84585 0.23089 0.0
C607 C 0.74026 0.86686 0.24752 0.0
C608 C 0.7244 0.85883 0.23006 0.0
C609 C 0.71534 0.88905 0.36234 0.0
H610 H 0.67658 0.78712 0.40363 0.0
H611 H 0.69867 0.85263 0.44538 0.0
H612 H 0.69785 0.76782 0.42509 0.0
H613 H 0.71888 0.78937 0.45701 0.0
H614 H 0.7398 0.86839 0.27931 0.0
H615 H 0.65956 0.8309 0.25058 0.0
H616 H 0.76278 0.87684 0.24673 0.0
H617 H 0.73507 0.863 0.21591 0.0
Gd618 Gd 0.16844 0.85125 0.32612 0.0
Gd619 Gd 0.18643 0.83435 0.37494 0.0
C620 C 0.27073 0.8398 0.38432 0.0
C621 C 0.25744 0.7921 0.38818 0.0
C622 C 0.22196 0.8049 0.38337 0.0
C623 C 0.24238 0.83205 0.38208 0.0
C624 C 0.22918 0.78465 0.38686 0.0
C625 C 0.27818 0.81964 0.38693 0.0
C626 C 0.29064 0.8676 0.38436 0.0
C627 C 0.28205 0.88686 0.38256 0.0
N628 N 0.23444 0.85098 0.3795 0.0
C629 C 0.25368 0.87816 0.38036 0.0
H630 H 0.24739 0.8933 0.37889 0.0
C631 C 0.17388 0.7724 0.3856 0.0
N632 N 0.19488 0.79844 0.38207 0.0
C633 C 0.17999 0.75155 0.38898 0.0
C634 C 0.20776 0.75764 0.38936 0.0
H635 H 0.15239 0.7676 0.38512 0.0
H636 H 0.29988 0.82517 0.38843 0.0
H637 H 0.10777 0.79159 0.32365 0.0
H638 H 0.3126 0.87441 0.38624 0.0
H639 H 0.29727 0.90843 0.38282 0.0
H640 H 0.26345 0.77681 0.39064 0.0
H641 H 0.20158 0.91639 0.31244 0.0
H642 H 0.04243 0.80829 0.31021 0.0
H643 H 0.05822 0.77535 0.31739 0.0
H644 H 0.09028 0.90532 0.30233 0.0
H645 H 0.16329 0.73081 0.39123 0.0
H646 H 0.21243 0.74146 0.392 0.0
H647 H 0.05428 0.85701 0.30594 0.0
H648 H 0.1904 0.95197 0.30265 0.0
N649 N 0.12026 0.83373 0.32105 0.0
C650 C 0.06422 0.81567 0.31346 0.0
C651 C 0.0731 0.797 0.3173 0.0
C652 C 0.0837 0.84357 0.31312 0.0
C653 C 0.11198 0.85202 0.31675 0.0
C654 C 0.10136 0.80639 0.32083 0.0
N655 N 0.15921 0.8859 0.31662 0.0
C656 C 0.13213 0.87907 0.31464 0.0
C657 C 0.17379 0.93158 0.30609 0.0
C658 C 0.14599 0.92527 0.30508 0.0
C659 C 0.18005 0.9114 0.31161 0.0
C660 C 0.12471 0.89858 0.30895 0.0
H661 H 0.14117 0.94087 0.30068 0.0
O662 O 0.19351 0.86555 0.29927 0.0
O663 O 0.2004 0.84831 0.34414 0.0
O664 O 0.19864 0.87905 0.37324 0.0
O665 O 0.17332 0.88451 0.34745 0.0
O666 O 0.21472 0.88179 0.32603 0.0
O667 O 0.15717 0.82522 0.29991 0.0
O668 O 0.16203 0.81869 0.40193 0.0
O669 O 0.15463 0.83819 0.35721 0.0
O670 O 0.15584 0.80621 0.3287 0.0
O671 O 0.18503 0.80419 0.35273 0.0
O672 O 0.14 0.80439 0.37511 0.0
O673 O 0.19909 0.85873 0.40197 0.0
C674 C 0.22232 0.86913 0.3382 0.0
C675 C 0.09643 0.89058 0.30648 0.0
C676 C 0.07595 0.86308 0.30851 0.0
C677 C 0.17746 0.8435 0.28916 0.0
C678 C 0.17037 0.84752 0.2688 0.0
C679 C 0.15277 0.85833 0.26559 0.0
C680 C 0.1819 0.84116 0.25239 0.0
C681 C 0.17631 0.84611 0.23284 0.0
C682 C 0.14701 0.8631 0.24628 0.0
C683 C 0.15877 0.85718 0.23 0.0
C684 C 0.1883 0.89284 0.3641 0.0
C685 C 0.13261 0.8175 0.36321 0.0
C686 C 0.17884 0.83999 0.41253 0.0
C687 C 0.18626 0.83452 0.43232 0.0
C688 C 0.20312 0.82268 0.43435 0.0
C689 C 0.17621 0.84113 0.4494 0.0
C690 C 0.18296 0.83599 0.46854 0.0
C691 C 0.20977 0.81736 0.45323 0.0
C692 C 0.19979 0.82393 0.47021 0.0
C693 C 0.16859 0.79414 0.33704 0.0
H694 H 0.14359 0.86318 0.27798 0.0
H695 H 0.19562 0.83291 0.25484 0.0
H696 H 0.13344 0.87149 0.24391 0.0
H697 H 0.15391 0.86099 0.21515 0.0
H698 H 0.21109 0.81752 0.4214 0.0
H699 H 0.16349 0.85065 0.44776 0.0
H700 H 0.2227 0.8081 0.4547 0.0
H701 H 0.20507 0.81934 0.48467 0.0
Gd702 Gd 0.84916 0.6859 0.7079 0.0
Gd703 Gd 0.83089 0.65352 0.65772 0.0
C704 C 0.74697 0.57686 0.64606 0.0
C705 C 0.76047 0.54242 0.64132 0.0
C706 C 0.7957 0.5897 0.64745 0.0
C707 C 0.77521 0.5967 0.64902 0.0
C708 C 0.78867 0.5626 0.64318 0.0
C709 C 0.73964 0.54955 0.64273 0.0
C710 C 0.72709 0.58524 0.64579 0.0
C711 C 0.73572 0.6129 0.64783 0.0
N712 N 0.78309 0.62327 0.65214 0.0
C713 C 0.764 0.63178 0.65083 0.0
H714 H 0.77031 0.65304 0.65256 0.0
C715 C 0.84384 0.60453 0.64541 0.0
N716 N 0.82269 0.60977 0.64912 0.0
C717 C 0.83794 0.57792 0.64129 0.0
C718 C 0.81023 0.55679 0.64041 0.0
H719 H 0.8653 0.62074 0.64627 0.0
H720 H 0.71801 0.53395 0.64069 0.0
H721 H 0.90948 0.68537 0.71142 0.0
H722 H 0.70521 0.57069 0.64341 0.0
H723 H 0.7206 0.61969 0.64725 0.0
H724 H 0.7546 0.52142 0.63826 0.0
H725 H 0.81549 0.71925 0.71946 0.0
H726 H 0.97451 0.76578 0.726 0.0
H727 H 0.95891 0.71747 0.71851 0.0
H728 H 0.9266 0.81629 0.73242 0.0
H729 H 0.85476 0.57371 0.63885 0.0
H730 H 0.80571 0.5362 0.63717 0.0
H731 H 0.96257 0.80293 0.73004 0.0
H732 H 0.82656 0.76598 0.72852 0.0
N733 N 0.89703 0.7153 0.71402 0.0
C734 C 0.95281 0.75189 0.72248 0.0
C735 C 0.94403 0.72458 0.71844 0.0
C736 C 0.93333 0.76076 0.72255 0.0
C737 C 0.90517 0.74163 0.71848 0.0
C738 C 0.91588 0.7064 0.71443 0.0
N739 N 0.85799 0.72956 0.71737 0.0
C740 C 0.885 0.74906 0.72005 0.0
C741 C 0.84321 0.76152 0.72613 0.0
C742 C 0.87102 0.78214 0.72808 0.0
C743 C 0.83701 0.73509 0.72105 0.0
C744 C 0.89232 0.77594 0.7254 0.0
H745 H 0.87578 0.80257 0.73212 0.0
O746 O 0.82456 0.67598 0.73502 0.0
O747 O 0.81727 0.65353 0.68868 0.0
O748 O 0.81845 0.68592 0.66182 0.0
O749 O 0.84724 0.71565 0.68667 0.0
O750 O 0.80289 0.67146 0.70825 0.0
O751 O 0.8591 0.66842 0.73324 0.0
O752 O 0.85528 0.66367 0.63053 0.0
O753 O 0.8628 0.68628 0.6768 0.0
O754 O 0.86155 0.65345 0.70366 0.0
O755 O 0.83176 0.62363 0.67935 0.0
O756 O 0.87715 0.6682 0.6572 0.0
O757 O 0.81946 0.66928 0.63204 0.0
C758 C 0.79544 0.65282 0.69482 0.0
C759 C 0.92051 0.79546 0.72847 0.0
C760 C 0.94098 0.78786 0.72712 0.0
C761 C 0.83969 0.66793 0.74451 0.0
C762 C 0.84794 0.67823 0.76502 0.0
C763 C 0.86788 0.70565 0.76838 0.0
C764 C 0.83569 0.66065 0.78139 0.0
C765 C 0.84315 0.67055 0.80107 0.0
C766 C 0.87551 0.71552 0.78774 0.0
C767 C 0.86328 0.6982 0.80396 0.0
C768 C 0.83067 0.70994 0.671 0.0
C769 C 0.88462 0.68713 0.67042 0.0
C770 C 0.83931 0.67055 0.62086 0.0
C771 C 0.83149 0.65983 0.60041 0.0
C772 C 0.81517 0.63166 0.59712 0.0
C773 C 0.84083 0.67774 0.58398 0.0
C774 C 0.83428 0.66747 0.56434 0.0
C775 C 0.80844 0.6214 0.57778 0.0
C776 C 0.81795 0.63907 0.56152 0.0
C777 C 0.84851 0.62919 0.69488 0.0
H778 H 0.87756 0.71942 0.75605 0.0
H779 H 0.82011 0.63949 0.77881 0.0
H780 H 0.891 0.73671 0.7902 0.0
H781 H 0.86984 0.70641 0.81881 0.0
H782 H 0.80774 0.61761 0.6095 0.0
H783 H 0.85356 0.69953 0.58649 0.0
H784 H 0.79581 0.59962 0.57537 0.0
H785 H 0.8122 0.63051 0.54669 0.0
Gd786 Gd 0.32429 0.166 0.70229 0.0
Gd787 Gd 0.35786 0.17828 0.65338 0.0
C788 C 0.3658 0.11466 0.61627 0.0
C789 C 0.41097 0.12173 0.62681 0.0
C790 C 0.39285 0.14946 0.64076 0.0
C791 C 0.36895 0.13544 0.62945 0.0
C792 C 0.41451 0.14328 0.63917 0.0
C793 C 0.38663 0.10741 0.61539 0.0
C794 C 0.34229 0.10247 0.6039 0.0
C795 C 0.32327 0.11185 0.60429 0.0
N796 N 0.34941 0.14317 0.63056 0.0
C797 C 0.32746 0.13271 0.61749 0.0
H798 H 0.3127 0.13989 0.61763 0.0
C799 C 0.42024 0.18679 0.66199 0.0
N800 N 0.39561 0.17021 0.65247 0.0
C801 C 0.4424 0.18162 0.66076 0.0
C802 C 0.43939 0.15952 0.64954 0.0
H803 H 0.42283 0.20388 0.67077 0.0
H804 H 0.38447 0.09132 0.60551 0.0
H805 H 0.316 0.22032 0.70724 0.0
H806 H 0.33906 0.08639 0.5936 0.0
H807 H 0.3054 0.10307 0.59441 0.0
H808 H 0.42723 0.11645 0.62558 0.0
H809 H 0.29632 0.09905 0.71251 0.0
H810 H 0.23121 0.19306 0.72212 0.0
H811 H 0.27913 0.2306 0.71585 0.0
H812 H 0.18884 0.09588 0.72235 0.0
H813 H 0.46176 0.19473 0.66847 0.0
H814 H 0.45658 0.15553 0.64863 0.0
H815 H 0.19701 0.1428 0.72246 0.0
H816 H 0.25022 0.05913 0.71916 0.0
N817 N 0.28911 0.17719 0.70746 0.0
C818 C 0.2471 0.18839 0.71751 0.0
C819 C 0.2742 0.20962 0.71427 0.0
C820 C 0.24101 0.16137 0.71552 0.0
C821 C 0.26287 0.15637 0.71079 0.0
C822 C 0.29506 0.20363 0.70932 0.0
N823 N 0.28089 0.12667 0.7094 0.0
C824 C 0.25849 0.13016 0.71143 0.0
C825 C 0.25221 0.07897 0.71694 0.0
C826 C 0.22876 0.08204 0.71802 0.0
C827 C 0.27835 0.10171 0.71317 0.0
C828 C 0.23185 0.10799 0.71588 0.0
H829 H 0.20861 0.06447 0.72128 0.0
O830 O 0.33821 0.15598 0.7297 0.0
O831 O 0.36155 0.17102 0.68545 0.0
O832 O 0.32827 0.13303 0.65765 0.0
O833 O 0.29643 0.13265 0.68063 0.0
O834 O 0.34171 0.13769 0.70383 0.0
O835 O 0.33493 0.19218 0.72839 0.0
O836 O 0.39348 0.21102 0.63804 0.0
O837 O 0.32889 0.18493 0.67271 0.0
O838 O 0.35236 0.21143 0.69713 0.0
O839 O 0.38454 0.21332 0.67426 0.0
O840 O 0.31632 0.17267 0.64357 0.0
O841 O 0.35185 0.19995 0.62891 0.0
C842 C 0.36243 0.15047 0.69198 0.0
C843 C 0.2095 0.11264 0.71905 0.0
C844 C 0.21414 0.13935 0.7191 0.0
C845 C 0.33966 0.17633 0.73965 0.0
C846 C 0.326 0.16975 0.75922 0.0
C847 C 0.29685 0.15495 0.76058 0.0
C848 C 0.34217 0.17802 0.77669 0.0
C849 C 0.32926 0.17138 0.79553 0.0
C850 C 0.28392 0.14827 0.77911 0.0
C851 C 0.29992 0.15628 0.79647 0.0
C852 C 0.30353 0.12102 0.66641 0.0
C853 C 0.30969 0.17929 0.66013 0.0
C854 C 0.37819 0.21376 0.62458 0.0
C855 C 0.38616 0.21368 0.60354 0.0
C856 C 0.41431 0.22962 0.5982 0.0
C857 C 0.36626 0.19839 0.58869 0.0
C858 C 0.3745 0.19907 0.56871 0.0
C859 C 0.42259 0.23031 0.57853 0.0
C860 C 0.40292 0.21526 0.5639 0.0
C861 C 0.37704 0.22462 0.68841 0.0
H862 H 0.2841 0.14845 0.74736 0.0
H863 H 0.3647 0.18974 0.77556 0.0
H864 H 0.26139 0.13666 0.78003 0.0
H865 H 0.28926 0.15023 0.81063 0.0
H866 H 0.42995 0.24165 0.60927 0.0
H867 H 0.34449 0.18585 0.59263 0.0
H868 H 0.44435 0.24276 0.57457 0.0
H869 H 0.40998 0.21673 0.54869 0.0
Gd870 Gd 0.83054 0.17793 0.6578 0.0
Gd871 Gd 0.84768 0.15983 0.70666 0.0
C872 C 0.93075 0.16274 0.71621 0.0
C873 C 0.91621 0.11467 0.71955 0.0
C874 C 0.8817 0.12876 0.71483 0.0
C875 C 0.90263 0.1557 0.71375 0.0
C876 C 0.88816 0.10795 0.71817 0.0
C877 C 0.93748 0.14203 0.71859 0.0
C878 C 0.95112 0.19038 0.71694 0.0
C879 C 0.94311 0.21015 0.71588 0.0
N880 N 0.89535 0.17515 0.71155 0.0
C881 C 0.91493 0.20212 0.71335 0.0
H882 H 0.90904 0.2176 0.71237 0.0
C883 C 0.83335 0.0972 0.71689 0.0
N884 N 0.85486 0.12306 0.71358 0.0
C885 C 0.83869 0.07581 0.72012 0.0
C886 C 0.86621 0.08114 0.72052 0.0
H887 H 0.81204 0.09294 0.7164 0.0
H888 H 0.959 0.14701 0.72024 0.0
H889 H 0.76889 0.11946 0.65453 0.0
H890 H 0.97294 0.19665 0.71894 0.0
H891 H 0.95864 0.23158 0.71683 0.0
H892 H 0.92164 0.09895 0.7219 0.0
H893 H 0.86569 0.24316 0.64437 0.0
H894 H 0.70567 0.13889 0.64038 0.0
H895 H 0.71982 0.10472 0.64763 0.0
H896 H 0.75629 0.23604 0.63344 0.0
H897 H 0.82159 0.05522 0.72221 0.0
H898 H 0.87029 0.06455 0.72304 0.0
H899 H 0.71911 0.18809 0.63654 0.0
H900 H 0.85625 0.27988 0.63463 0.0
N901 N 0.78271 0.16191 0.65225 0.0
C902 C 0.72723 0.14559 0.64396 0.0
C903 C 0.73519 0.12624 0.64781 0.0
C904 C 0.74734 0.1733 0.64399 0.0
C905 C 0.77533 0.18087 0.64796 0.0
C906 C 0.76319 0.13477 0.65171 0.0
N907 N 0.82291 0.21362 0.64828 0.0
C908 C 0.79613 0.20769 0.64609 0.0
C909 C 0.83912 0.2597 0.63793 0.0
C910 C 0.81164 0.25431 0.63672 0.0
C911 C 0.84439 0.23886 0.64344 0.0
C912 C 0.78969 0.22788 0.64038 0.0
H913 H 0.80758 0.27042 0.63231 0.0
O914 O 0.85636 0.19148 0.63127 0.0
O915 O 0.86192 0.17451 0.6761 0.0
O916 O 0.8603 0.20468 0.70511 0.0
O917 O 0.83504 0.2105 0.67938 0.0
O918 O 0.87695 0.20816 0.6582 0.0
O919 O 0.81895 0.15195 0.63153 0.0
O920 O 0.82306 0.14469 0.73362 0.0
O921 O 0.81624 0.16403 0.68875 0.0
O922 O 0.81651 0.1328 0.66062 0.0
O923 O 0.84603 0.12992 0.68394 0.0
O924 O 0.80131 0.13012 0.70666 0.0
O925 O 0.86045 0.18444 0.73362 0.0
C926 C 0.88407 0.19537 0.6706 0.0
C927 C 0.7617 0.22078 0.63763 0.0
C928 C 0.74054 0.19348 0.63937 0.0
C929 C 0.83985 0.16979 0.62098 0.0
C930 C 0.83349 0.17449 0.60058 0.0
C931 C 0.81741 0.18694 0.59734 0.0
C932 C 0.84406 0.16699 0.58419 0.0
C933 C 0.83886 0.17217 0.56454 0.0
C934 C 0.81225 0.19224 0.57804 0.0
C935 C 0.82297 0.18511 0.56178 0.0
C936 C 0.84994 0.21852 0.69605 0.0
C937 C 0.79415 0.1433 0.69466 0.0
C938 C 0.83991 0.16603 0.74416 0.0
C939 C 0.84686 0.16074 0.76419 0.0
C940 C 0.86179 0.14696 0.76669 0.0
C941 C 0.83797 0.16913 0.78103 0.0
C942 C 0.84362 0.16348 0.80036 0.0
C943 C 0.86759 0.14141 0.78577 0.0
C944 C 0.85854 0.1495 0.8025 0.0
C945 C 0.82878 0.12009 0.66861 0.0
H946 H 0.80901 0.19271 0.60971 0.0
H947 H 0.85613 0.157 0.5868 0.0
H948 H 0.80006 0.20213 0.57566 0.0
H949 H 0.81911 0.19016 0.54703 0.0
H950 H 0.86887 0.14043 0.75393 0.0
H951 H 0.82626 0.17964 0.77905 0.0
H952 H 0.87915 0.13077 0.78762 0.0
H953 H 0.86356 0.14515 0.81712 0.0
C954 C 0.32195 0.87713 0.07852 0.0
C955 C 0.30537 0.8528 0.06782 0.0
C956 C 0.34819 0.89727 0.07151 0.0
C957 C 0.35759 0.89422 0.05261 0.0
C958 C 0.34122 0.87003 0.04161 0.0
C959 C 0.316 0.84938 0.04962 0.0
C960 C 0.36575 0.92201 0.08436 0.0
C961 C 0.34935 0.86638 0.02086 0.0
C962 C 0.40996 0.96279 0.0306 0.0
C963 C 0.43495 0.96239 0.03228 0.0
C964 C 0.38437 0.93979 0.03557 0.0
C965 C 0.38407 0.91683 0.04423 0.0
C966 C 0.40941 0.91643 0.04604 0.0
C967 C 0.43447 0.93898 0.03953 0.0
C968 C 0.35775 0.94032 0.03188 0.0
C969 C 0.41033 0.89297 0.05595 0.0
H970 H 0.31459 0.88104 0.09232 0.0
H971 H 0.30469 0.83064 0.04124 0.0
H972 H 0.3877 0.92653 0.08477 0.0
H973 H 0.36573 0.94008 0.07802 0.0
H974 H 0.35783 0.91919 0.09985 0.0
H975 H 0.33823 0.84464 0.01615 0.0
H976 H 0.34372 0.87796 0.01034 0.0
H977 H 0.37209 0.87447 0.01951 0.0
H978 H 0.41046 0.98109 0.02524 0.0
H979 H 0.45396 0.93904 0.04143 0.0
H980 H 0.34924 0.94271 0.04618 0.0
H981 H 0.34179 0.92083 0.02503 0.0
H982 H 0.36115 0.9574 0.02195 0.0
H983 H 0.40286 0.89096 0.07151 0.0
H984 H 0.43168 0.89577 0.05613 0.0
H985 H 0.39621 0.87354 0.0482 0.0
C986 C 0.14808 0.47098 0.08393 0.0
C987 C 0.16463 0.46533 0.07116 0.0
C988 C 0.12575 0.47374 0.07658 0.0
C989 C 0.11959 0.47067 0.05592 0.0
C990 C 0.13621 0.46495 0.04299 0.0
C991 C 0.15847 0.46244 0.05071 0.0
C992 C 0.10863 0.47983 0.09096 0.0
C993 C 0.13072 0.4617 0.02091 0.0
C994 C 0.04504 0.45094 0.04173 0.0
C995 C 0.04775 0.47613 0.03651 0.0
C996 C 0.06833 0.44878 0.04742 0.0
C997 C 0.09513 0.47244 0.04808 0.0
C998 C 0.09812 0.49783 0.04217 0.0
C999 C 0.07437 0.49942 0.03671 0.0
C1000 C 0.06411 0.42123 0.05329 0.0
C1001 C 0.12625 0.52351 0.04224 0.0
H1002 H 0.1528 0.47362 0.0997 0.0
H1003 H 0.17087 0.45779 0.04069 0.0
H1004 H 0.10899 0.49889 0.08654 0.0
H1005 H 0.08656 0.46315 0.09049 0.0
H1006 H 0.11635 0.48213 0.1065 0.0
H1007 H 0.14298 0.45375 0.01324 0.0
H1008 H 0.10824 0.4477 0.01785 0.0
H1009 H 0.13648 0.48186 0.01446 0.0
H1010 H 0.02446 0.43293 0.04177 0.0
H1011 H 0.07661 0.51906 0.03317 0.0
H1012 H 0.06974 0.4216 0.06918 0.0
H1013 H 0.07803 0.41644 0.04443 0.0
H1014 H 0.04222 0.40463 0.05108 0.0
H1015 H 0.13419 0.52866 0.05772 0.0
H1016 H 0.12539 0.54114 0.03578 0.0
H1017 H 0.14146 0.5203 0.03364 0.0
C1018 C 0.57435 0.70191 0.07407 0.0
C1019 C 0.55259 0.70757 0.07625 0.0
C1020 C 0.56927 0.67675 0.06637 0.0
C1021 C 0.54173 0.65675 0.06103 0.0
C1022 C 0.51955 0.66208 0.06386 0.0
C1023 C 0.5253 0.68752 0.07131 0.0
C1024 C 0.59347 0.67188 0.06336 0.0
C1025 C 0.48985 0.6411 0.05866 0.0
C1026 C 0.53016 0.60311 0.02237 0.0
C1027 C 0.52422 0.58063 0.03428 0.0
C1028 C 0.5363 0.62815 0.03089 0.0
C1029 C 0.53614 0.63058 0.05186 0.0
C1030 C 0.53014 0.60789 0.06399 0.0
C1031 C 0.52447 0.58322 0.05504 0.0
C1032 C 0.543 0.65201 0.01745 0.0
C1033 C 0.52929 0.60952 0.08638 0.0
H1034 H 0.59549 0.71753 0.07773 0.0
H1035 H 0.50844 0.69186 0.07318 0.0
H1036 H 0.58953 0.65303 0.07116 0.0
H1037 H 0.59567 0.66881 0.04729 0.0
H1038 H 0.61347 0.68916 0.06885 0.0
H1039 H 0.47484 0.6479 0.06277 0.0
H1040 H 0.48806 0.63688 0.04244 0.0
H1041 H 0.48378 0.62159 0.06636 0.0
H1042 H 0.53066 0.60136 0.00641 0.0
H1043 H 0.51966 0.56576 0.0643 0.0
H1044 H 0.56389 0.66942 0.02121 0.0
H1045 H 0.52765 0.65891 0.01977 0.0
H1046 H 0.54278 0.64686 1.00147 0.0
H1047 H 0.54964 0.62594 0.09208 0.0
H1048 H 0.52445 0.59004 0.09367 0.0
H1049 H 0.51326 0.61481 0.09082 0.0
C1050 C 0.83454 0.32247 0.95609 0.0
C1051 C 0.83862 0.29997 0.95496 0.0
C1052 C 0.85543 0.34766 0.96365 0.0
C1053 C 0.88076 0.3502 0.97073 0.0
C1054 C 0.88503 0.32754 0.96948 0.0
C1055 C 0.86401 0.30278 0.96139 0.0
C1056 C 0.85029 0.37146 0.96426 0.0
C1057 C 0.91146 0.32922 0.97721 0.0
C1058 C 0.94447 0.42094 0.97718 0.0
C1059 C 0.94305 0.42616 0.99745 0.0
C1060 C 0.92426 0.39646 0.96824 0.0
C1061 C 0.90242 0.37634 0.97993 0.0
C1062 C 0.90108 0.38134 1.00044 0.0
C1063 C 0.92115 0.40629 0.00884 0.0
C1064 C 0.92605 0.39231 0.94621 0.0
C1065 C 0.87849 0.36028 0.01357 0.0
H1066 H 0.81495 0.32034 0.95099 0.0
H1067 H 0.86706 0.2853 0.96068 0.0
H1068 H 0.85001 0.37756 0.97991 0.0
H1069 H 0.86746 0.38932 0.95662 0.0
H1070 H 0.83021 0.3666 0.95711 0.0
H1071 H 0.91169 0.30988 0.97496 0.0
H1072 H 0.92987 0.34592 0.96966 0.0
H1073 H 0.91374 0.33409 0.99335 0.0
H1074 H 0.96106 0.43626 0.96812 0.0
H1075 H 0.91981 0.41002 0.0244 0.0
H1076 H 0.90663 0.38875 0.93871 0.0
H1077 H 0.92795 0.37394 0.94361 0.0
H1078 H 0.94408 0.4101 0.93914 0.0
H1079 H 0.85774 0.35611 0.00826 0.0
H1080 H 0.88097 0.36692 0.02937 0.0
H1081 H 0.87869 0.34079 0.01276 0.0
C1082 C 0.68067 0.53441 0.94898 0.0
C1083 C 0.7031 0.5394 0.96148 0.0
C1084 C 0.65573 0.53161 0.95672 0.0
C1085 C 0.65301 0.53395 0.97751 0.0
C1086 C 0.67551 0.53887 0.9902 0.0
C1087 C 0.70015 0.54146 0.98207 0.0
C1088 C 0.63231 0.52634 0.94261 0.0
C1089 C 0.67358 0.54133 0.01242 0.0
C1090 C 0.59989 0.55484 0.99243 0.0
C1091 C 0.57641 0.52973 0.99712 0.0
C1092 C 0.6252 0.55659 0.98683 0.0
C1093 C 0.62714 0.53258 0.98571 0.0
C1094 C 0.60379 0.50726 0.99125 0.0
C1095 C 0.57862 0.5061 0.99667 0.0
C1096 C 0.64959 0.58407 0.98141 0.0
C1097 C 0.60497 0.48121 0.99066 0.0
H1098 H 0.68247 0.53236 0.9331 0.0
H1099 H 0.71737 0.54554 0.99189 0.0
H1100 H 0.61302 0.5074 0.94693 0.0
H1101 H 0.62778 0.54333 0.94351 0.0
H1102 H 0.63733 0.52428 0.92693 0.0
H1103 H 0.69385 0.54816 0.02001 0.0
H1104 H 0.66632 0.55592 0.016 0.0
H1105 H 0.65807 0.52118 0.01852 0.0
H1106 H 0.59819 0.57312 0.99262 0.0
H1107 H 0.56044 0.48655 0.99987 0.0
H1108 H 0.6546 0.58422 0.96542 0.0
H1109 H 0.66834 0.58801 0.99004 0.0
H1110 H 0.64528 0.60097 0.98423 0.0
H1111 H 0.60689 0.47612 0.97501 0.0
H1112 H 0.58607 0.46377 0.99725 0.0
H1113 H 0.62358 0.48385 0.99882 0.0
C1114 C 0.46425 0.1535 0.95129 0.0
C1115 C 0.44496 0.15744 0.96217 0.0
C1116 C 0.47308 0.13558 0.95807 0.0
C1117 C 0.46214 0.12116 0.97606 0.0
C1118 C 0.44242 0.12484 0.98697 0.0
C1119 C 0.4341 0.14297 0.9799 0.0
C1120 C 0.49423 0.13221 0.9461 0.0
C1121 C 0.43005 0.10957 0.00609 0.0
C1122 C 0.46336 0.05558 0.98451 0.0
C1123 C 0.48579 0.06405 0.99779 0.0
C1124 C 0.45562 0.07403 0.97722 0.0
C1125 C 0.47074 0.10166 0.98327 0.0
C1126 C 0.49356 0.11044 0.99654 0.0
C1127 C 0.50084 0.09151 1.00363 0.0
C1128 C 0.43104 0.06386 0.96319 0.0
C1129 C 0.51023 0.13979 1.00328 0.0
H1130 H 0.47288 0.16489 0.93768 0.0
H1131 H 0.41893 0.14575 0.98822 0.0
H1132 H 0.5129 0.13762 0.95536 0.0
H1133 H 0.48534 0.11057 0.94154 0.0
H1134 H 0.5009 0.14512 0.93254 0.0
H1135 H 0.41512 0.11494 0.01286 0.0
H1136 H 0.41901 0.08727 1.00323 0.0
H1137 H 0.44688 0.1141 0.017 0.0
H1138 H 0.45158 0.03442 0.97988 0.0
H1139 H 0.51846 0.09831 0.01365 0.0
H1140 H 0.4376 0.07545 0.94905 0.0
H1141 H 0.41471 0.0673 0.96982 0.0
H1142 H 0.42171 0.04178 0.95974 0.0
H1143 H 0.51907 0.15336 0.99019 0.0
H1144 H 0.52757 0.14335 0.01346 0.0
H1145 H 0.49643 0.14577 0.01106 0.0
C1146 C 0.69832 0.16428 0.99005 0.0
C1147 C 0.69993 0.17164 0.97004 0.0
C1148 C 0.67515 0.14046 0.99731 0.0
C1149 C 0.65298 0.12376 0.98422 0.0
C1150 C 0.65491 0.13097 0.96383 0.0
C1151 C 0.67839 0.15494 0.95699 0.0
C1152 C 0.67397 0.13389 0.01914 0.0
C1153 C 0.63187 0.11368 0.94934 0.0
C1154 C 0.60141 0.04962 0.99663 0.0
C1155 C 0.57773 0.05093 1.00221 0.0
C1156 C 0.62635 0.07327 0.99143 0.0
C1157 C 0.62763 0.0989 0.99176 0.0
C1158 C 0.6041 0.10046 0.99823 0.0
C1159 C 0.57932 0.07642 1.0031 0.0
C1160 C 0.65101 0.0707 0.9849 0.0
C1161 C 0.60471 0.12739 0.99932 0.0
H1162 H 0.71488 0.17757 1.00017 0.0
H1163 H 0.6796 0.16096 0.94155 0.0
H1164 H 0.65912 0.13879 0.02658 0.0
H1165 H 0.66638 0.11186 0.02141 0.0
H1166 H 0.69463 0.14589 0.02648 0.0
H1167 H 0.63689 0.12164 0.9339 0.0
H1168 H 0.62792 0.09243 0.94943 0.0
H1169 H 0.61226 0.11294 0.95394 0.0
H1170 H 0.60015 0.02989 0.99576 0.0
H1171 H 0.56096 0.07755 0.00695 0.0
H1172 H 0.66973 0.08463 0.99378 0.0
H1173 H 0.65582 0.07685 0.96909 0.0
H1174 H 0.64716 0.04955 0.98649 0.0
H1175 H 0.62296 0.1423 0.00816 0.0
H1176 H 0.58549 0.12537 0.00615 0.0
H1177 H 0.60694 0.13588 0.98414 0.0
C1178 C 0.85005 0.52336 0.95771 0.0
C1179 C 0.83532 0.53021 0.97123 0.0
C1180 C 0.87472 0.52368 0.96355 0.0
C1181 C 0.88463 0.53074 0.9834 0.0
C1182 C 0.86991 0.53824 0.99687 0.0
C1183 C 0.84542 0.53777 0.99063 0.0
C1184 C 0.8899 0.51594 0.94859 0.0
C1185 C 0.87895 0.54537 0.01822 0.0
C1186 C 0.93246 0.50504 1.00267 0.0
C1187 C 0.95887 0.52845 1.00118 0.0
C1188 C 0.90809 0.50569 0.99757 0.0
C1189 C 0.91018 0.53007 0.99005 0.0
C1190 C 0.93683 0.55377 0.98862 0.0
C1191 C 0.96076 0.55268 0.99424 0.0
C1192 C 0.88012 0.48019 1.00003 0.0
C1193 C 0.9401 0.58025 0.98093 0.0
H1194 H 0.84197 0.51716 0.94275 0.0
H1195 H 0.83366 0.54258 1.00117 0.0
H1196 H 0.91197 0.53248 0.94743 0.0
H1197 H 0.88999 0.49733 0.95363 0.0
H1198 H 0.88019 0.51201 0.93358 0.0
H1199 H 0.86996 0.55709 0.02516 0.0
H1200 H 0.8714 0.52613 0.02666 0.0
H1201 H 0.90199 0.55742 0.0196 0.0
H1202 H 0.93081 0.48609 0.00757 0.0
H1203 H 0.98114 0.57079 0.99289 0.0
H1204 H 0.86981 0.47325 0.98532 0.0
H1205 H 0.8664 0.4846 0.00946 0.0
H1206 H 0.88194 0.46332 0.00696 0.0
H1207 H 0.9315 0.57728 0.96562 0.0
H1208 H 0.96224 0.59686 0.9807 0.0
H1209 H 0.92806 0.58679 0.99039 0.0
C1210 C 0.42703 0.29487 0.98966 0.0
C1211 C 0.43754 0.28617 0.97419 0.0
C1212 C 0.43525 0.32251 0.99185 0.0
C1213 C 0.45443 0.34172 0.97817 0.0
C1214 C 0.46412 0.33271 0.96195 0.0
C1215 C 0.45562 0.30487 0.96021 0.0
C1216 C 0.42452 0.33131 0.00936 0.0
C1217 C 0.48443 0.35258 0.94703 0.0
C1218 C 0.46106 0.41174 0.98005 0.0
C1219 C 0.48404 0.4258 0.99281 0.0
C1220 C 0.45182 0.38463 0.97445 0.0
C1221 C 0.46583 0.3713 0.98186 0.0
C1222 C 0.48971 0.38576 0.99407 0.0
C1223 C 0.49866 0.4129 0.99924 0.0
C1224 C 0.42646 0.36994 0.96122 0.0
C1225 C 0.50521 0.37228 1.00235 0.0
H1226 H 0.41321 0.28018 1.00052 0.0
H1227 H 0.46384 0.29789 0.94837 0.0
H1228 H 0.44207 0.34422 0.01953 0.0
H1229 H 0.41544 0.34384 1.00424 0.0
H1230 H 0.40843 0.31367 0.0179 0.0
H1231 H 0.48764 0.34204 0.93421 0.0
H1232 H 0.47694 0.36621 0.94139 0.0
H1233 H 0.50487 0.36568 0.95436 0.0
H1234 H 0.44981 0.42162 0.97481 0.0
H1235 H 0.5169 0.42384 0.00864 0.0
H1236 H 0.409 0.35363 0.9698 0.0
H1237 H 0.43087 0.35998 0.94862 0.0
H1238 H 0.41959 0.38391 0.95518 0.0
H1239 H 0.49151 0.35586 0.01281 0.0
H1240 H 0.52452 0.38692 0.01042 0.0
H1241 H 0.51087 0.36266 0.99021 0.0
C1242 C 0.16295 0.70101 0.07186 0.0
C1243 C 0.166 0.72001 0.05738 0.0
C1244 C 0.14207 0.67342 0.06996 0.0
C1245 C 0.12422 0.66486 0.05309 0.0
C1246 C 0.12689 0.68438 0.03879 0.0
C1247 C 0.14777 0.71175 0.04114 0.0
C1248 C 0.13981 0.65329 0.08557 0.0
C1249 C 0.10845 0.67616 0.02055 0.0
C1250 C 0.09265 0.59239 0.03345 0.0
C1251 C 0.06458 0.581 0.03897 0.0
C1252 C 0.11239 0.61938 0.03844 0.0
C1253 C 0.10403 0.63536 0.04954 0.0
C1254 C 0.07601 0.62359 0.056 0.0
C1255 C 0.05659 0.59657 0.0506 0.0
C1256 C 0.14198 0.63106 0.03115 0.0
C1257 C 0.06634 0.63985 0.06803 0.0
H1258 H 0.17733 0.70754 0.08433 0.0
H1259 H 0.15045 0.72659 0.02989 0.0
H1260 H 0.11794 0.64099 0.09075 0.0
H1261 H 0.14579 0.63892 0.07903 0.0
H1262 H 0.15347 0.66351 0.09861 0.0
H1263 H 0.11223 0.69401 0.01138 0.0
H1264 H 0.11226 0.66216 0.01121 0.0
H1265 H 0.08616 0.66495 0.02494 0.0
H1266 H 0.09923 0.58034 0.02492 0.0
H1267 H 0.03502 0.58791 0.0551 0.0
H1268 H 0.15689 0.6403 0.04368 0.0
H1269 H 0.14673 0.64749 0.02022 0.0
H1270 H 0.14555 0.6154 0.0239 0.0
H1271 H 0.08024 0.6494 0.08104 0.0
H1272 H 0.04458 0.62708 0.07339 0.0
H1273 H 0.06744 0.65659 0.05879 0.0
C1274 C 0.32801 0.48115 0.07203 0.0
C1275 C 0.30657 0.47506 0.05838 0.0
C1276 C 0.35271 0.48165 0.06605 0.0
C1277 C 0.35604 0.47619 0.0459 0.0
C1278 C 0.33405 0.46963 0.03223 0.0
C1279 C 0.30968 0.46925 0.03863 0.0
C1280 C 0.3754 0.48842 0.0812 0.0
C1281 C 0.33655 0.46417 0.0106 0.0
C1282 C 0.43069 0.50231 0.0277 0.0
C1283 C 0.43285 0.47868 0.02871 0.0
C1284 C 0.40558 0.50165 0.03259 0.0
C1285 C 0.38233 0.47697 0.03927 0.0
C1286 C 0.38438 0.45302 0.04001 0.0
C1287 C 0.40952 0.45417 0.03471 0.0
C1288 C 0.40413 0.52749 0.03092 0.0
C1289 C 0.36012 0.4262 0.04674 0.0
H1290 H 0.32571 0.48602 0.08727 0.0
H1291 H 0.29325 0.46507 0.02799 0.0
H1292 H 0.38032 0.47168 0.08189 0.0
H1293 H 0.39474 0.50717 0.07666 0.0
H1294 H 0.36944 0.49165 0.0963 0.0
H1295 H 0.31596 0.45387 1.00299 0.0
H1296 H 0.34989 0.48394 1.00309 0.0
H1297 H 0.34644 0.4514 0.00881 0.0
H1298 H 0.44877 0.52144 0.02348 0.0
H1299 H 0.41115 0.43589 0.03566 0.0
H1300 H 0.40062 0.53363 0.04584 0.0
H1301 H 0.38624 0.52389 0.02137 0.0
H1302 H 0.42349 0.5446 0.02455 0.0
H1303 H 0.35428 0.42821 0.06218 0.0
H1304 H 0.36492 0.40935 0.04628 0.0
H1305 H 0.34169 0.42061 0.03715 0.0
C1306 C 0.53224 0.84563 0.07696 0.0
C1307 C 0.54926 0.84012 0.06478 0.0
C1308 C 0.52891 0.86826 0.0732 0.0
C1309 C 0.54278 0.88536 0.05678 0.0
C1310 C 0.56119 0.88053 0.04512 0.0
C1311 C 0.56417 0.85783 0.04928 0.0
C1312 C 0.50924 0.87283 0.08602 0.0
C1313 C 0.57631 0.89825 0.02748 0.0
C1314 C 0.5075 0.91925 0.03048 0.0
C1315 C 0.52339 0.94637 0.03696 0.0
C1316 C 0.51352 0.89924 0.03694 0.0
C1317 C 0.53579 0.9064 0.05045 0.0
C1318 C 0.55154 0.93358 0.05744 0.0
C1319 C 0.54518 0.95329 0.05059 0.0
C1320 C 0.49623 0.87048 0.02906 0.0
C1321 C 0.57531 0.9419 0.07194 0.0
H1322 H 0.52053 0.83158 0.08882 0.0
H1323 H 0.57709 0.85318 0.03978 0.0
H1324 H 0.5191 0.89452 0.09066 0.0
H1325 H 0.49028 0.86806 0.07731 0.0
H1326 H 0.50276 0.85982 0.09953 0.0
H1327 H 0.59189 0.89341 0.02119 0.0
H1328 H 0.561 0.89525 0.01566 0.0
H1329 H 0.58709 0.92012 0.03176 0.0
H1330 H 0.49025 0.91355 0.02031 0.0
H1331 H 0.55749 0.97416 0.05578 0.0
H1332 H 0.48678 0.85598 0.04159 0.0
H1333 H 0.50975 0.8646 0.02079 0.0
H1334 H 0.47926 0.86819 0.01897 0.0
H1335 H 0.56789 0.92888 0.0854 0.0
H1336 H 0.58479 0.9636 0.07656 0.0
H1337 H 0.59174 0.93878 0.06508 0.0
C1338 C 0.99468 0.21052 0.41095 0.0
C1339 C 0.9777 0.18613 0.40043 0.0
C1340 C 0.02075 0.2305 0.40359 0.0
C1341 C 0.02956 0.22719 0.38454 0.0
C1342 C 0.01281 0.20292 0.37373 0.0
C1343 C 0.98776 0.18242 0.38206 0.0
C1344 C 0.0387 0.2554 0.41618 0.0
C1345 C 0.02047 0.19908 0.35288 0.0
C1346 C 0.08099 0.29545 0.36173 0.0
C1347 C 0.10613 0.29532 0.36318 0.0
C1348 C 0.05562 0.27243 0.36703 0.0
C1349 C 0.05573 0.2497 0.37574 0.0
C1350 C 0.0812 0.24953 0.37729 0.0
C1351 C 0.10602 0.27211 0.37051 0.0
C1352 C 0.02882 0.27277 0.36374 0.0
C1353 C 0.08261 0.22641 0.38735 0.0
H1354 H 0.98772 0.21461 0.42487 0.0
H1355 H 0.97609 0.16361 0.37381 0.0
H1356 H 0.06063 0.25982 0.41633 0.0
H1357 H 0.03862 0.27342 0.4098 0.0
H1358 H 0.03117 0.25285 0.43177 0.0
H1359 H 0.00784 0.17763 0.34768 0.0
H1360 H 0.01675 0.21227 0.34261 0.0
H1361 H 0.04286 0.20533 0.35177 0.0
H1362 H 0.08121 0.31361 0.35633 0.0
H1363 H 0.12563 0.27238 0.37227 0.0
H1364 H 0.02077 0.27541 0.37817 0.0
H1365 H 0.01268 0.25311 0.3572 0.0
H1366 H 0.03181 0.28961 0.35372 0.0
H1367 H 0.07675 0.22553 0.40323 0.0
H1368 H 0.10379 0.22883 0.38657 0.0
H1369 H 0.06753 0.20658 0.3805 0.0
C1370 C 0.82672 0.79428 0.38217 0.0
C1371 C 0.83218 0.79659 0.40273 0.0
C1372 C 0.80467 0.79692 0.37415 0.0
C1373 C 0.78753 0.80221 0.3869 0.0
C1374 C 0.79299 0.80474 0.40765 0.0
C1375 C 0.8151 0.80182 0.4153 0.0
C1376 C 0.79996 0.79433 0.35196 0.0
C1377 C 0.77522 0.81018 0.42186 0.0
C1378 C 0.74396 0.83194 0.36614 0.0
C1379 C 0.71729 0.80877 0.3649 0.0
C1380 C 0.76711 0.83004 0.3727 0.0
C1381 C 0.76351 0.80443 0.37864 0.0
C1382 C 0.73665 0.78093 0.37716 0.0
C1383 C 0.71395 0.7834 0.37034 0.0
C1384 C 0.7953 0.85561 0.37378 0.0
C1385 C 0.73177 0.75319 0.38314 0.0
H1386 H 0.8395 0.78997 0.37229 0.0
H1387 H 0.81922 0.80397 0.43115 0.0
H1388 H 0.77756 0.78069 0.34842 0.0
H1389 H 0.80625 0.81473 0.34572 0.0
H1390 H 0.81228 0.78633 0.34444 0.0
H1391 H 0.78373 0.81426 0.43725 0.0
H1392 H 0.77337 0.82785 0.41677 0.0
H1393 H 0.75391 0.79218 0.42218 0.0
H1394 H 0.74666 0.85173 0.36243 0.0
H1395 H 0.69334 0.76548 0.36963 0.0
H1396 H 0.81084 0.85277 0.3653 0.0
H1397 H 0.80248 0.8598 0.38947 0.0
H1398 H 0.79489 0.87368 0.36774 0.0
H1399 H 0.74604 0.74834 0.37478 0.0
H1400 H 0.70995 0.73678 0.38037 0.0
H1401 H 0.73648 0.75326 0.39919 0.0
C1402 C 0.24095 0.03949 0.41451 0.0
C1403 C 0.21838 0.04237 0.42065 0.0
C1404 C 0.23659 0.01529 0.40534 0.0
C1405 C 0.20902 0.99332 0.40261 0.0
C1406 C 0.18622 0.99588 0.40938 0.0
C1407 C 0.19117 0.02045 0.41815 0.0
C1408 C 0.26143 0.01349 0.3981 0.0
C1409 C 0.15656 0.97276 0.40718 0.0
C1410 C 0.19357 0.93966 0.36267 0.0
C1411 C 0.19356 0.91868 0.37369 0.0
C1412 C 0.19904 0.96424 0.3718 0.0
C1413 C 0.20395 0.96767 0.39258 0.0
C1414 C 0.20352 0.94638 0.40386 0.0
C1415 C 0.19862 0.92232 0.39426 0.0
C1416 C 0.19973 0.9866 0.35916 0.0
C1417 C 0.20791 0.94886 0.42612 0.0
H1418 H 0.26198 0.05653 0.41624 0.0
H1419 H 0.1737 0.02263 0.423 0.0
H1420 H 0.26168 0.99587 0.40509 0.0
H1421 H 0.25984 0.01001 0.38178 0.0
H1422 H 0.28151 0.03229 0.40146 0.0
H1423 H 0.14126 0.97762 0.41397 0.0
H1424 H 0.15133 0.96806 0.39119 0.0
H1425 H 0.15425 0.95404 0.41426 0.0
H1426 H 0.18979 0.93713 0.34687 0.0
H1427 H 0.19827 0.90611 0.40303 0.0
H1428 H 0.22019 0.00556 0.36088 0.0
H1429 H 0.18348 0.99124 0.36422 0.0
H1430 H 0.19624 0.98101 0.34314 0.0
H1431 H 0.22865 0.96659 0.42971 0.0
H1432 H 0.20656 0.93027 0.43277 0.0
H1433 H 0.19202 0.95255 0.43324 0.0
C1434 C 0.53608 0.63954 0.28804 0.0
C1435 C 0.50907 0.63544 0.28558 0.0
C1436 C 0.55789 0.66445 0.29529 0.0
C1437 C 0.55265 0.68588 0.30003 0.0
C1438 C 0.52558 0.68208 0.29711 0.0
C1439 C 0.50412 0.65689 0.29001 0.0
C1440 C 0.58638 0.66759 0.29836 0.0
C1441 C 0.51919 0.7045 0.30176 0.0
C1442 C 0.59901 0.73993 0.33773 0.0
C1443 C 0.61657 0.76185 0.32549 0.0
C1444 C 0.57838 0.71503 0.32964 0.0
C1445 C 0.57516 0.71193 0.30873 0.0
C1446 C 0.5931 0.73388 0.29624 0.0
C1447 C 0.61369 0.75851 0.30477 0.0
C1448 C 0.55993 0.69208 0.34352 0.0
C1449 C 0.59023 0.73151 0.27389 0.0
H1450 H 0.53997 0.62296 0.28481 0.0
H1451 H 0.48337 0.65396 0.2879 0.0
H1452 H 0.60234 0.68568 0.29017 0.0
H1453 H 0.59203 0.67105 0.31436 0.0
H1454 H 0.5873 0.64936 0.2933 0.0
H1455 H 0.4974 0.69872 0.29786 0.0
H1456 H 0.52247 0.70952 0.31786 0.0
H1457 H 0.53362 0.7233 0.29352 0.0
H1458 H 0.60159 0.74204 0.35366 0.0
H1459 H 0.62711 0.77541 0.29518 0.0
H1460 H 0.5615 0.67371 0.34009 0.0
H1461 H 0.53783 0.68649 0.34133 0.0
H1462 H 0.56551 0.69759 0.35941 0.0
H1463 H 0.59213 0.71393 0.26861 0.0
H1464 H 0.60619 0.75023 0.26625 0.0
H1465 H 0.56923 0.72762 0.26944 0.0
C1466 C 0.35335 0.87636 0.2854 0.0
C1467 C 0.37586 0.88093 0.29765 0.0
C1468 C 0.32858 0.87363 0.29345 0.0
C1469 C 0.32612 0.87559 0.31432 0.0
C1470 C 0.34871 0.88011 0.32677 0.0
C1471 C 0.37319 0.88268 0.31832 0.0
C1472 C 0.30503 0.86873 0.2796 0.0
C1473 C 0.34704 0.88222 0.34904 0.0
C1474 C 0.27311 0.89603 0.33064 0.0
C1475 C 0.24975 0.8708 0.33527 0.0
C1476 C 0.29835 0.89796 0.32458 0.0
C1477 C 0.30034 0.87402 0.32291 0.0
C1478 C 0.27712 0.84856 0.32835 0.0
C1479 C 0.25206 0.84723 0.33427 0.0
C1480 C 0.32258 0.92557 0.31923 0.0
C1481 C 0.27828 0.82252 0.32712 0.0
H1482 H 0.35492 0.87454 0.26946 0.0
H1483 H 0.39047 0.88647 0.32796 0.0
H1484 H 0.28578 0.84967 0.2838 0.0
H1485 H 0.30049 0.88568 0.28095 0.0
H1486 H 0.30989 0.86708 0.2638 0.0
H1487 H 0.36707 0.88775 0.35656 0.0
H1488 H 0.34106 0.89768 0.35291 0.0
H1489 H 0.33064 0.86235 0.355 0.0
H1490 H 0.27136 0.91427 0.33124 0.0
H1491 H 0.23401 0.82758 0.33738 0.0
H1492 H 0.32722 0.92606 0.30313 0.0
H1493 H 0.34155 0.92937 0.32751 0.0
H1494 H 0.31831 0.94239 0.32253 0.0
H1495 H 0.27978 0.81774 0.31131 0.0
H1496 H 0.25956 0.80493 0.33377 0.0
H1497 H 0.2971 0.82498 0.33487 0.0
C1498 C 0.11721 0.48175 0.29724 0.0
C1499 C 0.13914 0.50413 0.28769 0.0
C1500 C 0.12095 0.46083 0.30516 0.0
C1501 C 0.14703 0.46209 0.30296 0.0
C1502 C 0.16899 0.48436 0.29279 0.0
C1503 C 0.16488 0.50534 0.28552 0.0
C1504 C 0.09726 0.43778 0.31631 0.0
C1505 C 0.19685 0.4861 0.28968 0.0
C1506 C 0.16837 0.42383 0.33874 0.0
C1507 C 0.16103 0.39979 0.32814 0.0
C1508 C 0.16326 0.44392 0.33095 0.0
C1509 C 0.15158 0.44046 0.31169 0.0
C1510 C 0.14468 0.41655 0.30068 0.0
C1511 C 0.1491 0.39635 0.30914 0.0
C1512 C 0.17041 0.46885 0.34337 0.0
C1513 C 0.13304 0.4125 0.27983 0.0
H1514 H 0.09739 0.48104 0.29901 0.0
H1515 H 0.18176 0.52269 0.27803 0.0
H1516 H 0.09177 0.41795 0.30932 0.0
H1517 H 0.10385 0.43724 0.33183 0.0
H1518 H 0.07832 0.43982 0.3167 0.0
H1519 H 0.21116 0.50393 0.28046 0.0
H1520 H 0.20699 0.48771 0.30424 0.0
H1521 H 0.19385 0.46724 0.28232 0.0
H1522 H 0.17815 0.42707 0.35316 0.0
H1523 H 0.14365 0.37807 0.30063 0.0
H1524 H 0.15186 0.4714 0.34479 0.0
H1525 H 0.18696 0.48737 0.33595 0.0
H1526 H 0.17778 0.46765 0.35852 0.0
H1527 H 0.11304 0.41257 0.27994 0.0
H1528 H 0.12938 0.39305 0.27307 0.0
H1529 H 0.14767 0.42963 0.27022 0.0
C1530 C 0.36907 0.4983 0.32267 0.0
C1531 C 0.37077 0.50618 0.30278 0.0
C1532 C 0.34594 0.47424 0.32964 0.0
C1533 C 0.32389 0.45782 0.31638 0.0
C1534 C 0.32589 0.46558 0.29611 0.0
C1535 C 0.34934 0.48978 0.28955 0.0
C1536 C 0.34466 0.46715 0.35137 0.0
C1537 C 0.30296 0.4486 0.28146 0.0
C1538 C 0.27292 0.38331 0.32811 0.0
C1539 C 0.24914 0.38425 0.334 0.0
C1540 C 0.29765 0.40718 0.32294 0.0
C1541 C 0.29864 0.43267 0.32363 0.0
C1542 C 0.275 0.43385 0.33037 0.0
C1543 C 0.25043 0.40959 0.3352 0.0
C1544 C 0.32247 0.40504 0.31615 0.0
C1545 C 0.27532 0.46061 0.33185 0.0
H1546 H 0.38556 0.51136 0.33293 0.0
H1547 H 0.35063 0.4962 0.27421 0.0
H1548 H 0.33013 0.4723 0.35901 0.0
H1549 H 0.33668 0.44501 0.3534 0.0
H1550 H 0.36538 0.47871 0.35871 0.0
H1551 H 0.308 0.457 0.26614 0.0
H1552 H 0.29918 0.4274 0.28118 0.0
H1553 H 0.28326 0.44757 0.28618 0.0
H1554 H 0.27191 0.36371 0.32703 0.0
H1555 H 0.23201 0.41045 0.33935 0.0
H1556 H 0.34107 0.41872 0.32522 0.0
H1557 H 0.32738 0.4118 0.30046 0.0
H1558 H 0.31876 0.38389 0.31727 0.0
H1559 H 0.29339 0.47535 0.34092 0.0
H1560 H 0.25593 0.45823 0.33865 0.0
H1561 H 0.27771 0.46952 0.3168 0.0
C1562 C 0.51715 0.87535 0.32463 0.0
C1563 C 0.50663 0.86854 0.30527 0.0
C1564 C 0.54152 0.87517 0.33028 0.0
C1565 C 0.55572 0.86782 0.31624 0.0
C1566 C 0.54535 0.86143 0.29645 0.0
C1567 C 0.52079 0.86172 0.29122 0.0
C1568 C 0.5513 0.88176 0.35154 0.0
C1569 C 0.55996 0.85386 0.2809 0.0
C1570 C 0.63205 0.88936 0.32578 0.0
C1571 C 0.63028 0.86495 0.33216 0.0
C1572 C 0.60804 0.89061 0.32072 0.0
C1573 C 0.5814 0.8669 0.3222 0.0
C1574 C 0.57944 0.84231 0.32913 0.0
C1575 C 0.6039 0.84151 0.33366 0.0
C1576 C 0.61122 0.91726 0.31349 0.0
C1577 C 0.55152 0.81672 0.33151 0.0
H1578 H 0.50584 0.88016 0.33557 0.0
H1579 H 0.51238 0.85611 0.27628 0.0
H1580 H 0.54658 0.86259 0.35919 0.0
H1581 H 0.57416 0.89581 0.35227 0.0
H1582 H 0.54076 0.89114 0.35973 0.0
H1583 H 0.54983 0.85031 0.26607 0.0
H1584 H 0.58204 0.87032 0.27957 0.0
H1585 H 0.56005 0.83508 0.28548 0.0
H1586 H 0.65241 0.90749 0.32441 0.0
H1587 H 0.60238 0.82244 0.33815 0.0
H1588 H 0.59935 0.92364 0.32326 0.0
H1589 H 0.60241 0.91459 0.29828 0.0
H1590 H 0.63336 0.93386 0.3132 0.0
H1591 H 0.53778 0.82088 0.34113 0.0
H1592 H 0.55345 0.79977 0.33817 0.0
H1593 H 0.54115 0.81001 0.31681 0.0
C1594 C 0.16973 0.668 0.2839 0.0
C1595 C 0.15446 0.64441 0.29522 0.0
C1596 C 0.16964 0.69213 0.28873 0.0
C1597 C 0.15408 0.6925 0.30535 0.0
C1598 C 0.13749 0.66816 0.31614 0.0
C1599 C 0.13793 0.64434 0.31093 0.0
C1600 C 0.18754 0.71761 0.27683 0.0
C1601 C 0.12066 0.66769 0.33394 0.0
C1602 C 0.18251 0.75861 0.33438 0.0
C1603 C 0.16471 0.7683 0.32849 0.0
C1604 C 0.17928 0.73411 0.32688 0.0
C1605 C 0.15783 0.71888 0.31293 0.0
C1606 C 0.14003 0.7287 0.30661 0.0
C1607 C 0.14368 0.75335 0.31447 0.0
C1608 C 0.19878 0.72446 0.33405 0.0
C1609 C 0.11702 0.71306 0.29169 0.0
H1610 H 0.18263 0.66789 0.27182 0.0
H1611 H 0.12631 0.62597 0.31971 0.0
H1612 H 0.17556 0.72782 0.27277 0.0
H1613 H 0.20558 0.7322 0.286 0.0
H1614 H 0.19558 0.71319 0.26302 0.0
H1615 H 0.10661 0.64662 0.33937 0.0
H1616 H 0.13498 0.67978 0.34622 0.0
H1617 H 0.10792 0.67722 0.33024 0.0
H1618 H 0.19923 0.77027 0.34485 0.0
H1619 H 0.12992 0.76075 0.30976 0.0
H1620 H 0.20973 0.72169 0.32123 0.0
H1621 H 0.18667 0.70436 0.34145 0.0
H1622 H 0.21465 0.73897 0.34471 0.0
H1623 H 0.12583 0.7098 0.27783 0.0
H1624 H 0.10543 0.72379 0.28793 0.0
H1625 H 0.10209 0.69262 0.2977 0.0
C1626 C 0.81805 0.04693 0.37559 0.0
C1627 C 0.83721 0.0546 0.39122 0.0
C1628 C 0.79731 0.01958 0.37288 0.0
C1629 C 0.79575 0.99948 0.38619 0.0
C1630 C 0.8145 0.00741 0.40252 0.0
C1631 C 0.83522 0.03499 0.40478 0.0
C1632 C 0.77788 0.01204 0.35523 0.0
C1633 C 0.81341 0.98664 0.41708 0.0
C1634 C 0.72866 0.93083 0.38316 0.0
C1635 C 0.73634 0.91633 0.3701 0.0
C1636 C 0.74806 0.95755 0.38922 0.0
C1637 C 0.77578 0.97009 0.38204 0.0
C1638 C 0.78395 0.95509 0.36961 0.0
C1639 C 0.76423 0.92837 0.36397 0.0
C1640 C 0.73863 0.97269 0.40274 0.0
C1641 C 0.81324 0.9676 0.36154 0.0
H1642 H 0.81992 0.06223 0.36503 0.0
H1643 H 0.85034 0.04107 0.41675 0.0
H1644 H 0.78151 0.9988 0.34491 0.0
H1645 H 0.75586 0.00025 0.36018 0.0
H1646 H 0.78086 0.03026 0.34692 0.0
H1647 H 0.82752 0.99637 0.43 0.0
H1648 H 0.79182 0.97361 0.42261 0.0
H1649 H 0.81958 0.97304 0.40949 0.0
H1650 H 0.70733 0.9216 0.38832 0.0
H1651 H 0.77068 0.91706 0.35447 0.0
H1652 H 0.73894 0.98981 0.39449 0.0
H1653 H 0.75315 0.98164 0.41552 0.0
H1654 H 0.71721 0.9593 0.40851 0.0
H1655 H 0.81706 0.98422 0.35104 0.0
H1656 H 0.81691 0.95246 0.35357 0.0
H1657 H 0.82872 0.97677 0.37375 0.0
C1658 C 0.99661 0.81435 0.40684 0.0
C1659 C 0.97552 0.8077 0.39274 0.0
C1660 C 0.02192 0.81566 0.40146 0.0
C1661 C 0.02628 0.81045 0.38148 0.0
C1662 C 0.00465 0.80332 0.36736 0.0
C1663 C 0.97965 0.80214 0.37315 0.0
C1664 C 0.04417 0.82303 0.41709 0.0
C1665 C 0.00821 0.7981 0.34587 0.0
C1666 C 0.1019 0.83875 0.36453 0.0
C1667 C 0.10495 0.81563 0.36572 0.0
C1668 C 0.07626 0.83723 0.369 0.0
C1669 C 0.05328 0.81219 0.37546 0.0
C1670 C 0.05626 0.78875 0.37645 0.0
C1671 C 0.08195 0.79076 0.37156 0.0
C1672 C 0.0739 0.86256 0.36708 0.0
C1673 C 0.03237 0.76157 0.38298 0.0
H1674 H 0.99354 0.81904 0.42195 0.0
H1675 H 0.96351 0.79752 0.36215 0.0
H1676 H 0.04978 0.80678 0.41807 0.0
H1677 H 0.06332 0.84215 0.41284 0.0
H1678 H 0.03741 0.8259 0.43201 0.0
H1679 H 0.98794 0.78746 0.33784 0.0
H1680 H 0.02152 0.81798 0.33848 0.0
H1681 H 0.01861 0.78575 0.34449 0.0
H1682 H 0.11969 0.85817 0.36045 0.0
H1683 H 0.08422 0.77285 0.37267 0.0
H1684 H 0.06956 0.86837 0.38186 0.0
H1685 H 0.05618 0.85846 0.35716 0.0
H1686 H 0.09319 0.88007 0.36099 0.0
H1687 H 0.03793 0.74523 0.38285 0.0
H1688 H 0.01415 0.75539 0.37302 0.0
H1689 H 0.02582 0.76334 0.39824 0.0
C1690 C 0.19109 0.17874 0.41974 0.0
C1691 C 0.20845 0.17067 0.41052 0.0
C1692 C 0.18974 0.20147 0.41279 0.0
C1693 C 0.20601 0.2162 0.39617 0.0
C1694 C 0.22453 0.20873 0.38744 0.0
C1695 C 0.22545 0.18592 0.39472 0.0
C1696 C 0.16982 0.20882 0.42257 0.0
C1697 C 0.24224 0.22389 0.36974 0.0
C1698 C 0.17744 0.25164 0.36373 0.0
C1699 C 0.19354 0.27892 0.36985 0.0
C1700 C 0.18152 0.23116 0.37203 0.0
C1701 C 0.20204 0.23799 0.38699 0.0
C1702 C 0.21839 0.26547 0.39325 0.0
C1703 C 0.21396 0.2856 0.3846 0.0
C1704 C 0.16363 0.20212 0.36488 0.0
C1705 C 0.24041 0.27357 0.40917 0.0
H1706 H 0.17768 0.16657 0.43181 0.0
H1707 H 0.23856 0.17929 0.38747 0.0
H1708 H 0.18066 0.23088 0.42629 0.0
H1709 H 0.15269 0.20481 0.41208 0.0
H1710 H 0.16055 0.19693 0.43636 0.0
H1711 H 0.25731 0.21708 0.36581 0.0
H1712 H 0.22861 0.22056 0.35668 0.0
H1713 H 0.25397 0.24615 0.37276 0.0
H1714 H 0.1613 0.24614 0.35261 0.0
H1715 H 0.22649 0.30659 0.3895 0.0
H1716 H 0.1513 0.18894 0.37745 0.0
H1717 H 0.17703 0.19414 0.35927 0.0
H1718 H 0.14903 0.20031 0.35283 0.0
H1719 H 0.23069 0.26262 0.42318 0.0
H1720 H 0.25159 0.29586 0.41222 0.0
H1721 H 0.25587 0.26757 0.40464 0.0
C1722 C 0.65389 0.54367 0.7413 0.0
C1723 C 0.63649 0.52005 0.73013 0.0
C1724 C 0.68045 0.56327 0.73448 0.0
C1725 C 0.68941 0.56044 0.71536 0.0
C1726 C 0.67222 0.53693 0.7039 0.0
C1727 C 0.64657 0.51674 0.71166 0.0
C1728 C 0.6988 0.58725 0.74775 0.0
C1729 C 0.67999 0.53361 0.68296 0.0
C1730 C 0.74371 0.62922 0.69497 0.0
C1731 C 0.76814 0.62777 0.69651 0.0
C1732 C 0.71764 0.60651 0.69935 0.0
C1733 C 0.71629 0.58268 0.70725 0.0
C1734 C 0.74103 0.58116 0.70883 0.0
C1735 C 0.7666 0.60354 0.70295 0.0
C1736 C 0.69164 0.60828 0.69592 0.0
C1737 C 0.7408 0.55667 0.71791 0.0
H1738 H 0.64688 0.54745 0.75532 0.0
H1739 H 0.63446 0.49848 0.70291 0.0
H1740 H 0.72039 0.59071 0.74804 0.0
H1741 H 0.69981 0.60601 0.74187 0.0
H1742 H 0.69088 0.58419 0.76325 0.0
H1743 H 0.66824 0.51203 0.6779 0.0
H1744 H 0.67485 0.54591 0.67281 0.0
H1745 H 0.7026 0.54106 0.68149 0.0
H1746 H 0.74504 0.64813 0.69018 0.0
H1747 H 0.78565 0.60275 0.70473 0.0
H1748 H 0.68318 0.61027 0.71037 0.0
H1749 H 0.67533 0.5894 0.68859 0.0
H1750 H 0.69581 0.62606 0.68654 0.0
H1751 H 0.73352 0.55428 0.73355 0.0
H1752 H 0.76175 0.55851 0.71775 0.0
H1753 H 0.72602 0.53781 0.70982 0.0
C1754 C 0.50363 0.15057 0.72205 0.0
C1755 C 0.49736 0.13017 0.73639 0.0
C1756 C 0.48281 0.15479 0.71364 0.0
C1757 C 0.45493 0.13916 0.72027 0.0
C1758 C 0.4485 0.11937 0.73532 0.0
C1759 C 0.46955 0.11474 0.74288 0.0
C1760 C 0.49062 0.17545 0.69719 0.0
C1761 C 0.41928 0.10299 0.74345 0.0
C1762 C 0.40608 0.16759 0.7116 0.0
C1763 C 0.38831 0.15017 0.69675 0.0
C1764 C 0.42782 0.16428 0.71937 0.0
C1765 C 0.43254 0.14362 0.7116 0.0
C1766 C 0.41522 0.12667 0.69598 0.0
C1767 C 0.3927 0.12953 0.68925 0.0
C1768 C 0.44488 0.18207 0.73654 0.0
C1769 C 0.42028 0.10534 0.68651 0.0
H1770 H 0.52495 0.16342 0.71722 0.0
H1771 H 0.46396 0.09866 0.75367 0.0
H1772 H 0.48039 0.16467 0.68319 0.0
H1773 H 0.48312 0.18988 0.70055 0.0
H1774 H 0.51349 0.18733 0.69467 0.0
H1775 H 0.41812 0.09008 0.75626 0.0
H1776 H 0.41161 0.11684 0.7483 0.0
H1777 H 0.40497 0.08957 0.73164 0.0
H1778 H 0.40203 0.18296 0.71786 0.0
H1779 H 0.37848 0.11562 0.67812 0.0
H1780 H 0.46732 0.19327 0.73262 0.0
H1781 H 0.44251 0.16912 0.7496 0.0
H1782 H 0.43853 0.19713 0.7409 0.0
H1783 H 0.44247 0.11456 0.68205 0.0
H1784 H 0.40694 0.09596 0.67318 0.0
H1785 H 0.41593 0.089 0.69739 0.0
C1786 C 0.89852 0.36383 0.74635 0.0
C1787 C 0.87545 0.36715 0.7499 0.0
C1788 C 0.89504 0.33941 0.73831 0.0
C1789 C 0.86783 0.31777 0.73401 0.0
C1790 C 0.84442 0.32071 0.73824 0.0
C1791 C 0.84854 0.34547 0.74601 0.0
C1792 C 0.9205 0.3371 0.73378 0.0
C1793 C 0.81507 0.29793 0.73416 0.0
C1794 C 0.85773 0.26597 0.69424 0.0
C1795 C 0.855 0.24411 0.70563 0.0
C1796 C 0.86238 0.29024 0.70328 0.0
C1797 C 0.86383 0.29247 0.72428 0.0
C1798 C 0.86096 0.2704 0.73591 0.0
C1799 C 0.85683 0.24656 0.72642 0.0
C1800 C 0.86577 0.31349 0.69033 0.0
C1801 C 0.86183 0.2718 0.75836 0.0
H1802 H 0.91934 0.3807 0.7492 0.0
H1803 H 0.8307 0.34799 0.74895 0.0
H1804 H 0.91889 0.31885 0.74115 0.0
H1805 H 0.92177 0.33444 0.71753 0.0
H1806 H 0.94011 0.35538 0.73873 0.0
H1807 H 0.7991 0.3029 0.73944 0.0
H1808 H 0.81212 0.29374 0.71795 0.0
H1809 H 0.81143 0.2789 0.74152 0.0
H1810 H 0.85675 0.26435 0.67826 0.0
H1811 H 0.8544 0.22958 0.73534 0.0
H1812 H 0.88606 0.33206 0.69354 0.0
H1813 H 0.84915 0.31838 0.69372 0.0
H1814 H 0.86481 0.30869 0.67421 0.0
H1815 H 0.88193 0.28927 0.76344 0.0
H1816 H 0.85928 0.25284 0.76522 0.0
H1817 H 0.845 0.27531 0.76391 0.0
C1818 C 0.18782 0.9851 0.61235 0.0
C1819 C 0.17753 0.96258 0.62512 0.0
C1820 C 0.2089 0.01098 0.61866 0.0
C1821 C 0.22018 0.01424 0.63806 0.0
C1822 C 0.21035 0.99139 0.6508 0.0
C1823 C 0.18899 0.96587 0.64422 0.0
C1824 C 0.21859 0.03496 0.60476 0.0
C1825 C 0.22219 0.99395 0.67146 0.0
C1826 C 0.29036 0.07694 0.64925 0.0
C1827 C 0.28234 0.09357 0.65942 0.0
C1828 C 0.27037 0.05109 0.64215 0.0
C1829 C 0.24168 0.0417 0.64529 0.0
C1830 C 0.23349 0.05841 0.65559 0.0
C1831 C 0.25393 0.0841 0.66259 0.0
C1832 C 0.27996 0.03379 0.63142 0.0
C1833 C 0.20313 0.04926 0.65912 0.0
H1834 H 0.17881 0.9826 0.59763 0.0
H1835 H 0.18125 0.94838 0.65402 0.0
H1836 H 0.21408 0.05031 0.61139 0.0
H1837 H 0.24149 0.04505 0.60263 0.0
H1838 H 0.20828 0.02886 0.58996 0.0
H1839 H 0.21303 0.974 0.67921 0.0
H1840 H 0.24514 0.00281 0.67068 0.0
H1841 H 0.21821 0.00805 0.68053 0.0
H1842 H 0.31231 0.08404 0.64695 0.0
H1843 H 0.24757 0.09692 0.67032 0.0
H1844 H 0.27085 0.02877 0.61624 0.0
H1845 H 0.27252 0.01422 0.63941 0.0
H1846 H 0.30304 0.04415 0.63015 0.0
H1847 H 0.19187 0.04466 0.6447 0.0
H1848 H 0.20028 0.06491 0.6671 0.0
H1849 H 0.19329 0.03022 0.668 0.0
C1850 C 0.02296 0.22122 0.61957 0.0
C1851 C 0.04007 0.2136 0.63007 0.0
C1852 C 0.9969 0.21577 0.62701 0.0
C1853 C 0.98814 0.20398 0.64608 0.0
C1854 C 0.00507 0.19632 0.65689 0.0
C1855 C 0.03017 0.20036 0.64853 0.0
C1856 C 0.97886 0.22296 0.61444 0.0
C1857 C 0.9975 0.18511 0.67775 0.0
C1858 C 0.93594 0.22107 0.66917 0.0
C1859 C 0.91093 0.1962 0.66763 0.0
C1860 C 0.96148 0.22324 0.6637 0.0
C1861 C 0.96174 0.20061 0.65486 0.0
C1862 C 0.93641 0.17539 0.65324 0.0
C1863 C 0.91141 0.17333 0.66009 0.0
C1864 C 0.98808 0.24995 0.66705 0.0
C1865 C 0.93539 0.15105 0.64314 0.0
H1866 H 0.0298 0.23192 0.6056 0.0
H1867 H 0.04198 0.19319 0.65681 0.0
H1868 H 0.95703 0.20574 0.61412 0.0
H1869 H 0.97856 0.24082 0.62096 0.0
H1870 H 0.98652 0.22802 0.5989 0.0
H1871 H 0.01011 0.17598 0.68288 0.0
H1872 H 1.00137 0.20203 0.68801 0.0
H1873 H 0.97511 0.16954 0.67892 0.0
H1874 H 0.93549 0.23882 0.67478 0.0
H1875 H 0.89196 0.15429 0.6583 0.0
H1876 H 0.9962 0.2604 0.65263 0.0
H1877 H 0.00429 0.2463 0.67371 0.0
H1878 H 0.98484 0.26382 0.67699 0.0
H1879 H 0.94181 0.1561 0.62737 0.0
H1880 H 0.91421 0.13274 0.64356 0.0
H1881 H 0.95025 0.14593 0.65028 0.0
C1882 C 0.81145 0.82731 0.61989 0.0
C1883 C 0.79029 0.82979 0.62942 0.0
C1884 C 0.8191 0.80846 0.62652 0.0
C1885 C 0.8053 0.79178 0.64311 0.0
C1886 C 0.78405 0.79428 0.65287 0.0
C1887 C 0.77673 0.81318 0.64586 0.0
C1888 C 0.84181 0.80627 0.61572 0.0
C1889 C 0.76885 0.77678 0.67059 0.0
C1890 C 0.80414 0.72463 0.64904 0.0
C1891 C 0.82467 0.73111 0.66364 0.0
C1892 C 0.7979 0.7443 0.64206 0.0
C1893 C 0.81246 0.77108 0.64993 0.0
C1894 C 0.8334 0.77787 0.66452 0.0
C1895 C 0.8394 0.75785 0.6711 0.0
C1896 C 0.77553 0.73632 0.62639 0.0
C1897 C 0.8493 0.80622 0.67331 0.0
H1898 H 0.82224 0.84033 0.60734 0.0
H1899 H 0.76007 0.81468 0.6531 0.0
H1900 H 0.85886 0.81002 0.62621 0.0
H1901 H 0.8334 0.78532 0.60972 0.0
H1902 H 0.85073 0.82098 0.60323 0.0
H1903 H 0.75348 0.7819 0.6769 0.0
H1904 H 0.75769 0.75495 0.66619 0.0
H1905 H 0.78398 0.77932 0.6824 0.0
H1906 H 0.79271 0.70409 0.64308 0.0
H1907 H 0.8557 0.76322 0.68207 0.0
H1908 H 0.78419 0.74977 0.61323 0.0
H1909 H 0.75839 0.73908 0.63229 0.0
H1910 H 0.76663 0.7148 0.62147 0.0
H1911 H 0.86005 0.82138 0.66134 0.0
H1912 H 0.86507 0.8082 0.68445 0.0
H1913 H 0.83461 0.81145 0.6806 0.0
C1914 C 0.03702 0.82104 0.66276 0.0
C1915 C 0.0404 0.83058 0.64323 0.0
C1916 C 0.01262 0.79738 0.66861 0.0
C1917 C 0.99102 0.78303 0.65456 0.0
C1918 C 0.99476 0.79235 0.63459 0.0
C1919 C 0.01946 0.81619 0.62917 0.0
C1920 C 0.00956 0.78872 0.69009 0.0
C1921 C 0.97239 0.77749 0.6191 0.0
C1922 C 0.93547 0.70923 0.66384 0.0
C1923 C 0.9125 0.71185 0.66931 0.0
C1924 C 0.96135 0.73226 0.65951 0.0
C1925 C 0.96435 0.75858 0.66071 0.0
C1926 C 0.94149 0.76139 0.66704 0.0
C1927 C 0.91571 0.73795 0.67092 0.0
C1928 C 0.98528 0.7284 0.65311 0.0
C1929 C 0.94401 0.78908 0.66919 0.0
H1930 H 0.05318 0.8326 0.67367 0.0
H1931 H 0.02212 0.82391 0.6141 0.0
H1932 H 0.99678 0.79597 0.69783 0.0
H1933 H 0.99889 0.7662 0.6915 0.0
H1934 H 0.03007 0.7977 0.69776 0.0
H1935 H 0.97894 0.78671 0.6041 0.0
H1936 H 0.96695 0.75579 0.61828 0.0
H1937 H 0.95319 0.77781 0.62337 0.0
H1938 H 0.93294 0.68902 0.6624 0.0
H1939 H 0.89792 0.74012 0.67466 0.0
H1940 H 0.00358 0.74036 0.66294 0.0
H1941 H 0.99166 0.73618 0.63775 0.0
H1942 H 0.97981 0.70665 0.6535 0.0
H1943 H 0.96192 0.80228 0.67899 0.0
H1944 H 0.92486 0.78781 0.67551 0.0
H1945 H 0.9481 0.79912 0.65444 0.0
C1946 C 0.1947 0.21544 0.62751 0.0
C1947 C 0.17575 0.2126 0.64235 0.0
C1948 C 0.21555 0.20859 0.63133 0.0
C1949 C 0.21752 0.19899 0.65046 0.0
C1950 C 0.19774 0.19554 0.66518 0.0
C1951 C 0.17725 0.2025 0.66096 0.0
C1952 C 0.23567 0.21192 0.615 0.0
C1953 C 0.19882 0.18594 0.68583 0.0
C1954 C 0.25909 0.16204 0.65565 0.0
C1955 C 0.2853 0.18318 0.66169 0.0
C1956 C 0.23668 0.16668 0.65244 0.0
C1957 C 0.24061 0.19323 0.65514 0.0
C1958 C 0.26688 0.21446 0.66188 0.0
C1959 C 0.28907 0.2093 0.66464 0.0
C1960 C 0.20902 0.14335 0.64555 0.0
C1961 C 0.27174 0.24277 0.66574 0.0
H1962 H 0.19343 0.22329 0.61308 0.0
H1963 H 0.16263 0.20052 0.67248 0.0
H1964 H 0.25717 0.22747 0.61942 0.0
H1965 H 0.23553 0.19243 0.61263 0.0
H1966 H 0.23053 0.21824 0.60071 0.0
H1967 H 0.17812 0.1765 0.69319 0.0
H1968 H 0.2062 0.171 0.68581 0.0
H1969 H 0.21347 0.20399 0.69473 0.0
H1970 H 0.25643 0.14202 0.65274 0.0
H1971 H 0.30963 0.2259 0.66855 0.0
H1972 H 0.2037 0.14811 0.63072 0.0
H1973 H 0.19229 0.1406 0.65598 0.0
H1974 H 0.20919 0.12383 0.64452 0.0
H1975 H 0.2694 0.25169 0.65168 0.0
H1976 H 0.29281 0.25658 0.672 0.0
H1977 H 0.25588 0.2418 0.6763 0.0
C1978 C 0.76536 0.96206 0.65778 0.0
C1979 C 0.77519 0.95326 0.64194 0.0
C1980 C 0.77398 0.98976 0.66019 0.0
C1981 C 0.79284 0.00892 0.64634 0.0
C1982 C 0.80206 -0.00014 0.62988 0.0
C1983 C 0.79316 0.97196 0.62792 0.0
C1984 C 0.76376 0.99862 0.67796 0.0
C1985 C 0.82208 0.01971 0.61482 0.0
C1986 C 0.79825 0.07836 0.64844 0.0
C1987 C 0.82129 0.09269 0.66109 0.0
C1988 C 0.78945 0.05139 0.64273 0.0
C1989 C 0.80401 0.03849 0.6499 0.0
C1990 C 0.82806 0.05329 0.66189 0.0
C1991 C 0.83653 0.08028 0.6672 0.0
C1992 C 0.76388 0.03633 0.62974 0.0
C1993 C 0.84414 0.04027 0.66991 0.0
H1994 H 0.7516 0.94735 0.66865 0.0
H1995 H 0.80081 0.96488 0.61577 0.0
H1996 H 0.78163 0.0119 0.68777 0.0
H1997 H 0.75417 0.0108 0.67304 0.0
H1998 H 0.74818 0.98103 0.68681 0.0
H1999 H 0.8254 0.00918 0.60205 0.0
H2000 H 0.8142 0.033 0.60911 0.0
H2001 H 0.84251 0.03317 0.62204 0.0
H2002 H 0.78652 0.08788 0.64344 0.0
H2003 H 0.85482 0.09147 0.67651 0.0
H2004 H 0.74669 0.02001 0.63851 0.0
H2005 H 0.76819 0.02635 0.61711 0.0
H2006 H 0.75667 0.05005 0.62376 0.0
H2007 H 0.83109 0.02427 0.68084 0.0
H2008 H 0.86383 0.05531 0.6774 0.0
H2009 H 0.84924 0.03023 0.65775 0.0
C2010 C 0.49766 0.37044 0.7279 0.0
C2011 C 0.49544 0.39128 0.71848 0.0
C2012 C 0.47735 0.34293 0.72481 0.0
C2013 C 0.45459 0.33635 0.71185 0.0
C2014 C 0.45184 0.35758 0.70298 0.0
C2015 C 0.47239 0.38486 0.7064 0.0
C2016 C 0.48094 0.32093 0.73466 0.0
C2017 C 0.42798 0.35149 0.68905 0.0
C2018 C 0.42186 0.26867 0.68413 0.0
C2019 C 0.39692 0.25308 0.69462 0.0
C2020 C 0.44085 0.29566 0.68972 0.0
C2021 C 0.4349 0.30739 0.70629 0.0
C2022 C 0.40993 0.29171 0.71709 0.0
C2023 C 0.39119 0.26478 0.71109 0.0
C2024 C 0.46716 0.31173 0.67772 0.0
C2025 C 0.40295 0.30342 0.73492 0.0
H2026 H 0.51577 0.3756 0.73709 0.0
H2027 H 0.47099 0.40115 0.69899 0.0
H2028 H 0.46135 0.306 0.74216 0.0
H2029 H 0.48558 0.30962 0.7232 0.0
H2030 H 0.49813 0.32938 0.74577 0.0
H2031 H 0.42769 0.37025 0.6846 0.0
H2032 H 0.42973 0.34133 0.67544 0.0
H2033 H 0.40777 0.33725 0.69615 0.0
H2034 H 0.42653 0.25987 0.6714 0.0
H2035 H 0.37207 0.2529 0.71937 0.0
H2036 H 0.48572 0.31896 0.68748 0.0
H2037 H 0.46771 0.33005 0.67131 0.0
H2038 H 0.46885 0.29953 0.66539 0.0
H2039 H 0.41997 0.31067 0.74609 0.0
H2040 H 0.3831 0.2883 0.74208 0.0
H2041 H 0.40118 0.32133 0.73036 0.0
C2042 C 0.64003 0.1242 0.70308 0.0
C2043 C 0.63497 0.12882 0.72268 0.0
C2044 C 0.66564 0.12666 0.69756 0.0
C2045 C 0.68694 0.13411 0.71199 0.0
C2046 C 0.68171 0.1385 0.73198 0.0
C2047 C 0.65576 0.13593 0.73708 0.0
C2048 C 0.6701 0.1224 0.67604 0.0
C2049 C 0.70363 0.1461 0.7479 0.0
C2050 C 0.7435 0.11585 0.70221 0.0
C2051 C 0.76635 0.14103 0.69675 0.0
C2052 C 0.71762 0.11334 0.70703 0.0
C2053 C 0.7143 0.13657 0.70631 0.0
C2054 C 0.7371 0.16194 0.70018 0.0
C2055 C 0.76298 0.16397 0.69581 0.0
C2056 C 0.69387 0.08582 0.71313 0.0
C2057 C 0.73425 0.18701 0.69847 0.0
H2058 H 0.62405 0.11921 0.69187 0.0
H2059 H 0.6519 0.13985 0.7522 0.0
H2060 H 0.68222 0.14267 0.66891 0.0
H2061 H 0.68201 0.11152 0.67451 0.0
H2062 H 0.65005 0.11072 0.66787 0.0
H2063 H 0.6963 0.14856 0.76272 0.0
H2064 H 0.70967 0.13017 0.74894 0.0
H2065 H 0.72264 0.1655 0.74391 0.0
H2066 H 0.74606 0.09809 0.7031 0.0
H2067 H 0.78069 0.1836 0.69202 0.0
H2068 H 0.67596 0.07951 0.70284 0.0
H2069 H 0.68666 0.08713 0.72827 0.0
H2070 H 0.69985 0.06978 0.71308 0.0
H2071 H 0.71688 0.18293 0.68819 0.0
H2072 H 0.75362 0.20495 0.69289 0.0
H2073 H 0.72908 0.19215 0.71321 0.0
C2074 C 0.8835 0.51231 0.72222 0.0
C2075 C 0.86658 0.49607 0.7377 0.0
C2076 C 0.88287 0.53576 0.71631 0.0
C2077 C 0.86475 0.54285 0.72615 0.0
C2078 C 0.84867 0.52712 0.74251 0.0
C2079 C 0.8497 0.50373 0.74806 0.0
C2080 C 0.90034 0.55202 0.69883 0.0
C2081 C 0.82921 0.5341 0.75342 0.0
C2082 C 0.87344 0.61301 0.71733 0.0
C2083 C 0.85294 0.60726 0.70282 0.0
C2084 C 0.87754 0.59227 0.72512 0.0
C2085 C 0.86077 0.56517 0.71821 0.0
C2086 C 0.84004 0.55925 0.7036 0.0
C2087 C 0.83628 0.58032 0.69617 0.0
C2088 C 0.89977 0.59933 0.74073 0.0
C2089 C 0.82173 0.53061 0.69579 0.0
H2090 H 0.89629 0.50599 0.71414 0.0
H2091 H 0.83642 0.4908 0.75991 0.0
H2092 H 0.88652 0.54965 0.6861 0.0
H2093 H 0.91229 0.57405 0.70261 0.0
H2094 H 0.91519 0.54533 0.69403 0.0
H2095 H 0.82032 0.5215 0.76698 0.0
H2096 H 0.8403 0.55595 0.75777 0.0
H2097 H 0.81179 0.53073 0.74344 0.0
H2098 H 0.88638 0.63375 0.72262 0.0
H2099 H 0.82005 0.57555 0.68527 0.0
H2100 H 0.91524 0.59379 0.73534 0.0
H2101 H 0.89029 0.58735 0.75443 0.0
H2102 H 0.91091 0.62137 0.74462 0.0
H2103 H 0.83483 0.5229 0.68916 0.0
H2104 H 0.80669 0.52949 0.68434 0.0
H2105 H 0.80987 0.51677 0.7082 0.0
C2106 C 0.46021 0.90576 0.22944 0.0
C2107 C 0.45015 0.91615 0.24426 0.0
C2108 C 0.47033 0.91943 0.21121 0.0
C2109 C 0.47055 0.94422 0.20762 0.0
C2110 C 0.46054 0.95487 0.22254 0.0
C2111 C 0.45049 0.94076 0.2406 0.0
C2112 C 0.4807 0.90728 0.19573 0.0
C2113 C 0.46058 0.98131 0.21948 0.0
C2114 C 0.52054 0.99485 0.16946 0.0
C2115 C 0.50283 0.991 0.15327 0.0
C2116 C 0.51044 0.97945 0.187 0.0
C2117 C 0.48185 0.95945 0.1885 0.0
C2118 C 0.46399 0.95482 0.17201 0.0
C2119 C 0.47466 0.97061 0.15463 0.0
C2120 C 0.53032 0.98504 0.2041 0.0
C2121 C 0.43341 0.93367 0.17292 0.0
H2122 H 0.45971 0.88661 0.23196 0.0
H2123 H 0.44314 0.9492 0.252 0.0
H2124 H 0.46858 0.90348 0.18176 0.0
H2125 H 0.50284 0.92188 0.19218 0.0
H2126 H 0.47899 0.8878 0.20071 0.0
H2127 H 0.45174 0.98668 0.2324 0.0
H2128 H 0.48221 0.99817 0.21699 0.0
H2129 H 0.44828 0.97985 0.20602 0.0
H2130 H 0.54245 0.01013 0.16849 0.0
H2131 H 0.4607 0.96755 0.14233 0.0
H2132 H 0.52989 0.96597 0.20857 0.0
H2133 H 0.52367 0.99235 0.21718 0.0
H2134 H 0.55212 0.00058 0.20035 0.0
H2135 H 0.43078 0.91359 0.17719 0.0
H2136 H 0.42261 0.9314 0.1585 0.0
H2137 H 0.42305 0.93946 0.18451 0.0
C2138 C 0.06773 0.51701 0.24048 0.0
C2139 C 0.09415 0.54049 0.2418 0.0
C2140 C 0.0507 0.51204 0.22369 0.0
C2141 C 0.06034 0.53095 0.20781 0.0
C2142 C 0.08673 0.55497 0.20923 0.0
C2143 C 0.10329 0.55946 0.22621 0.0
C2144 C 0.02259 0.4863 0.22281 0.0
C2145 C 0.09779 0.57558 0.19258 0.0
C2146 C 0.02985 0.50498 0.15637 0.0
C2147 C 0.01052 0.51403 0.15461 0.0
C2148 C 0.04625 0.51043 0.17357 0.0
C2149 C 0.04319 0.52521 0.18945 0.0
C2150 C 0.02375 0.53443 0.18777 0.0
C2151 C 0.00771 0.52879 0.17037 0.0
C2152 C 0.06676 0.50026 0.17479 0.0
C2153 C 0.01992 0.55027 0.20437 0.0
H2154 H 0.06042 0.50244 0.25258 0.0
H2155 H 0.12383 0.57746 0.22701 0.0
H2156 H 0.00596 0.49144 0.22017 0.0
H2157 H 0.02203 0.47341 0.21017 0.0
H2158 H 0.01773 0.47417 0.2367 0.0
H2159 H 0.1182 0.59374 0.19635 0.0
H2160 H 0.10035 0.56598 0.17894 0.0
H2161 H 0.0827 0.58245 0.18903 0.0
H2162 H 0.03189 0.49324 0.1444 0.0
H2163 H 0.99312 0.5362 0.16902 0.0
H2164 H 0.06153 0.48616 0.18757 0.0
H2165 H 0.08811 0.51763 0.17739 0.0
H2166 H 0.06692 0.48941 0.16103 0.0
H2167 H 0.01381 0.53806 0.21824 0.0
H2168 H 0.00378 0.55582 0.20079 0.0
H2169 H 0.03991 0.56925 0.20742 0.0
C2170 C 0.44971 0.54246 0.22476 0.0
C2171 C 0.471 0.55509 0.23904 0.0
C2172 C 0.45403 0.53193 0.20697 0.0
C2173 C 0.48031 0.5342 0.20328 0.0
C2174 C 0.5016 0.54625 0.21785 0.0
C2175 C 0.49664 0.55637 0.23554 0.0
C2176 C 0.4307 0.519 0.1919 0.0
C2177 C 0.52989 0.54903 0.21459 0.0
C2178 C 0.48929 0.48978 0.16473 0.0
C2179 C 0.50096 0.50781 0.14867 0.0
C2180 C 0.48162 0.49778 0.18234 0.0
C2181 C 0.48593 0.52457 0.18404 0.0
C2182 C 0.49707 0.54265 0.16769 0.0
C2183 C 0.50433 0.53402 0.15019 0.0
C2184 C 0.46948 0.47774 0.19928 0.0
C2185 C 0.50219 0.57144 0.16892 0.0
H2186 H 0.42993 0.54159 0.22719 0.0
H2187 H 0.51306 0.56561 0.24661 0.0
H2188 H 0.43684 0.53135 0.1781 0.0
H2189 H 0.42672 0.49834 0.18785 0.0
H2190 H 0.41101 0.51729 0.1975 0.0
H2191 H 0.54407 0.55852 0.22751 0.0
H2192 H 0.52763 0.52869 0.21177 0.0
H2193 H 0.5398 0.56171 0.20123 0.0
H2194 H 0.48624 0.46936 0.16355 0.0
H2195 H 0.51354 0.54814 0.13792 0.0
H2196 H 0.44945 0.47586 0.20415 0.0
H2197 H 0.48389 0.48529 0.21221 0.0
H2198 H 0.46578 0.45717 0.19515 0.0
H2199 H 0.48277 0.57126 0.17325 0.0
H2200 H 0.50968 0.58253 0.15461 0.0
H2201 H 0.518 0.58291 0.1806 0.0
C2202 C 0.93856 0.47335 0.79729 0.0
C2203 C 0.91731 0.44595 0.79736 0.0
C2204 C 0.95567 0.4851 0.81408 0.0
C2205 C 0.95119 0.46909 0.83134 0.0
C2206 C 0.92916 0.44168 0.83167 0.0
C2207 C 0.91256 0.43045 0.81467 0.0
C2208 C 0.97905 0.51435 0.81315 0.0
C2209 C 0.92347 0.42399 0.84983 0.0
C2210 C 0.01029 0.4858 0.86761 0.0
C2211 C 0.00393 0.49806 0.88336 0.0
C2212 C 0.99377 0.47704 0.85036 0.0
C2213 C 0.97017 0.48044 0.84883 0.0
C2214 C 0.96388 0.49322 0.8645 0.0
C2215 C 0.98086 0.50192 0.88156 0.0
C2216 C 1.00116 0.46347 0.83397 0.0
C2217 C 0.93889 0.49718 0.86343 0.0
H2218 H 0.94235 0.48533 0.78389 0.0
H2219 H 0.89585 0.40937 0.81487 0.0
H2220 H 0.97761 0.52615 0.82584 0.0
H2221 H 0.99941 0.5151 0.81442 0.0
H2222 H 0.97879 0.52448 0.79908 0.0
H2223 H 0.90474 0.40348 0.84797 0.0
H2224 H 0.94169 0.42139 0.85296 0.0
H2225 H 0.92041 0.43399 0.86304 0.0
H2226 H 0.02785 0.48242 0.86895 0.0
H2227 H 0.97606 0.51177 0.89352 0.0
H2228 H 0.00291 0.47376 0.81957 0.0
H2229 H 0.98434 0.44192 0.83233 0.0
H2230 H 0.0211 0.46384 0.83693 0.0
H2231 H 0.93973 0.5084 0.84969 0.0
H2232 H 0.93759 0.50859 0.87646 0.0
H2233 H 0.91949 0.47704 0.86271 0.0
C2234 C 0.56972 0.50586 0.79218 0.0
C2235 C 0.56443 0.4805 0.78482 0.0
C2236 C 0.55966 0.50816 0.81081 0.0
C2237 C 0.5443 0.48457 0.82263 0.0
C2238 C 0.53972 0.45901 0.81559 0.0
C2239 C 0.54953 0.45721 0.79664 0.0
C2240 C 0.56456 0.53572 0.8175 0.0
C2241 C 0.52403 0.43351 0.82791 0.0
C2242 C 0.53633 0.49907 0.87691 0.0
C2243 C 0.50972 0.49651 0.87689 0.0
C2244 C 0.54735 0.49395 0.85963 0.0
C2245 C 0.53169 0.48664 0.84173 0.0
C2246 C 0.50455 0.48324 0.84174 0.0
C2247 C 0.49381 0.48784 0.85931 0.0
C2248 C 0.57614 0.49726 0.86036 0.0
C2249 C 0.48721 0.47575 0.82296 0.0
H2250 H 0.58089 0.52385 0.78297 0.0
H2251 H 0.5455 0.43759 0.79102 0.0
H2252 H 0.54426 0.53499 0.81922 0.0
H2253 H 0.57504 0.54108 0.83222 0.0
H2254 H 0.57754 0.55217 0.80681 0.0
H2255 H 0.52439 0.41576 0.82114 0.0
H2256 H 0.53313 0.43696 0.84309 0.0
H2257 H 0.502 0.42836 0.82954 0.0
H2258 H 0.54901 0.50593 0.89026 0.0
H2259 H 0.47295 0.48499 0.85916 0.0
H2260 H 0.59078 0.5154 0.8516 0.0
H2261 H 0.57593 0.47927 0.85358 0.0
H2262 H 0.58424 0.49985 0.87582 0.0
H2263 H 0.498 0.49199 0.81168 0.0
H2264 H 0.46616 0.47304 0.82558 0.0
H2265 H 0.48475 0.45659 0.81657 0.0
C2266 C 0.52799 0.10504 0.80659 0.0
C2267 C 0.53712 0.09629 0.79011 0.0
C2268 C 0.52291 0.09179 0.82511 0.0
C2269 C 0.52701 0.06914 0.82735 0.0
C2270 C 0.53719 0.06083 0.811 0.0
C2271 C 0.54214 0.07448 0.79264 0.0
C2272 C 0.51229 0.10153 0.84211 0.0
C2273 C 0.54185 0.0368 0.81266 0.0
C2274 C 0.53008 0.04302 0.87932 0.0
C2275 C 0.503 0.02062 0.88137 0.0
C2276 C 0.53816 0.0592 0.86198 0.0
C2277 C 0.51873 0.05293 0.84626 0.0
C2278 C 0.49122 0.03075 0.84846 0.0
C2279 C 0.48372 0.01499 0.86591 0.0
C2280 C 0.56765 0.08268 0.86031 0.0
C2281 C 0.4697 0.02337 0.83223 0.0
H2282 H 0.52449 0.12215 0.80494 0.0
H2283 H 0.54895 0.06736 0.78003 0.0
H2284 H 0.49074 0.08553 0.84594 0.0
H2285 H 0.52538 0.10519 0.85554 0.0
H2286 H 0.51213 0.12059 0.83846 0.0
H2287 H 0.55174 0.03412 0.79913 0.0
H2288 H 0.55525 0.03935 0.8257 0.0
H2289 H 0.52158 0.01787 0.81503 0.0
H2290 H 0.54522 0.04747 0.89104 0.0
H2291 H 0.4626 0.99811 0.86744 0.0
H2292 H 0.56754 0.10183 0.85699 0.0
H2293 H 0.57837 0.07895 0.84778 0.0
H2294 H 0.5799 0.08568 0.87413 0.0
H2295 H 0.46697 0.04109 0.82889 0.0
H2296 H 0.44911 0.00578 0.83633 0.0
H2297 H 0.47694 0.0182 0.81838 0.0
C2298 C 0.12613 0.23632 0.56196 0.0
C2299 C 0.11091 0.24422 0.57426 0.0
C2300 C 0.13606 0.24865 0.54328 0.0
C2301 C 0.13122 0.26983 0.53693 0.0
C2302 C 0.11545 0.27751 0.54917 0.0
C2303 C 0.10536 0.26452 0.56755 0.0
C2304 C 0.15226 0.23945 0.53053 0.0
C2305 C 0.11017 0.30027 0.54323 0.0
C2306 C 0.18209 0.32491 0.50179 0.0
C2307 C 0.16668 0.31875 0.484 0.0
C2308 C 0.17109 0.30878 0.51888 0.0
C2309 C 0.14415 0.28537 0.51823 0.0
C2310 C 0.12902 0.27815 0.50008 0.0
C2311 C 0.14033 0.29499 0.48326 0.0
C2312 C 0.18795 0.31743 0.5379 0.0
C2313 C 0.10045 0.25311 0.49861 0.0
H2314 H 0.13037 0.22056 0.56701 0.0
H2315 H 0.094 0.27105 0.57708 0.0
H2316 H 0.14353 0.23478 0.51523 0.0
H2317 H 0.17425 0.2561 0.52938 0.0
H2318 H 0.15198 0.2211 0.53667 0.0
H2319 H 0.09664 0.30309 0.55403 0.0
H2320 H 0.1303 0.31969 0.54215 0.0
H2321 H 0.10014 0.29607 0.52836 0.0
H2322 H 0.20277 0.3427 0.50249 0.0
H2323 H 0.12806 0.28998 0.46973 0.0
H2324 H 0.19053 0.30051 0.54375 0.0
H2325 H 0.17671 0.32232 0.54938 0.0
H2326 H 0.20894 0.3356 0.53579 0.0
H2327 H 0.10081 0.23511 0.50479 0.0
H2328 H 0.09275 0.24856 0.48302 0.0
H2329 H 0.08541 0.25617 0.50756 0.0
C2330 C 0.74247 0.87298 0.56707 0.0
C2331 C 0.76665 0.87304 0.57344 0.0
C2332 C 0.73456 0.86902 0.54693 0.0
C2333 C 0.75112 0.86483 0.5329 0.0
C2334 C 0.77657 0.86685 0.53903 0.0
C2335 C 0.78407 0.87105 0.55921 0.0
C2336 C 0.70744 0.86734 0.54096 0.0
C2337 C 0.79487 0.86256 0.52456 0.0
C2338 C 0.71366 0.81608 0.49028 0.0
C2339 C 0.72014 0.8338 0.47407 0.0
C2340 C 0.7235 0.82602 0.50944 0.0
C2341 C 0.74002 0.8545 0.51261 0.0
C2342 C 0.74623 0.87263 0.49643 0.0
C2343 C 0.73626 0.86205 0.47731 0.0
C2344 C 0.71639 0.80595 0.52627 0.0
C2345 C 0.76362 0.90311 0.4993 0.0
H2346 H 0.7288 0.87438 0.57795 0.0
H2347 H 0.80309 0.87165 0.56398 0.0
H2348 H 0.7101 0.87901 0.5271 0.0
H2349 H 0.69158 0.84575 0.53793 0.0
H2350 H 0.69932 0.87523 0.55279 0.0
H2351 H 0.81549 0.86813 0.53111 0.0
H2352 H 0.78436 0.84077 0.52005 0.0
H2353 H 0.79823 0.87476 0.51089 0.0
H2354 H 0.70068 0.79427 0.48802 0.0
H2355 H 0.74149 0.87588 0.46485 0.0
H2356 H 0.70508 0.81013 0.53812 0.0
H2357 H 0.7358 0.80832 0.53298 0.0
H2358 H 0.70325 0.78445 0.5213 0.0
H2359 H 0.75434 0.90991 0.51103 0.0
H2360 H 0.76545 0.91449 0.4854 0.0
H2361 H 0.78486 0.90857 0.50438 0.0
C2362 C 0.14423 0.90324 0.55836 0.0
C2363 C 0.1346 0.88655 0.57527 0.0
C2364 C 0.14958 0.89381 0.54051 0.0
C2365 C 0.14514 0.86693 0.53945 0.0
C2366 C 0.13406 0.84949 0.55615 0.0
C2367 C 0.12889 0.8595 0.57387 0.0
C2368 C 0.1612 0.91305 0.52307 0.0
C2369 C 0.12891 0.82067 0.55559 0.0
C2370 C 0.14544 0.83853 0.48801 0.0
C2371 C 0.17291 0.84349 0.48676 0.0
C2372 C 0.13589 0.8456 0.50517 0.0
C2373 C 0.15427 0.858 0.52146 0.0
C2374 C 0.18196 0.86294 0.5203 0.0
C2375 C 0.19092 0.85565 0.50301 0.0
C2376 C 0.10621 0.83994 0.50584 0.0
C2377 C 0.20232 0.87632 0.53725 0.0
H2378 H 0.14821 0.92402 0.55924 0.0
H2379 H 0.12157 0.84653 0.58689 0.0
H2380 H 0.18285 0.91773 0.52006 0.0
H2381 H 0.14872 0.90336 0.50948 0.0
H2382 H 0.16145 0.93255 0.52578 0.0
H2383 H 0.11767 0.80888 0.56901 0.0
H2384 H 0.1166 0.80981 0.5422 0.0
H2385 H 0.14914 0.8211 0.55463 0.0
H2386 H 0.13128 0.82885 0.47562 0.0
H2387 H 0.21228 0.85994 0.50208 0.0
H2388 H 0.10606 0.85936 0.50764 0.0
H2389 H 0.09528 0.82703 0.51889 0.0
H2390 H 0.09432 0.82951 0.49217 0.0
H2391 H 0.20562 0.89708 0.53994 0.0
H2392 H 0.22287 0.87801 0.53424 0.0
H2393 H 0.19371 0.86446 0.55112 0.0
C2394 C 0.61727 0.8131 0.12475 0.0
C2395 C 0.59547 0.78592 0.1243 0.0
C2396 C 0.63341 0.82429 0.14202 0.0
C2397 C 0.62751 0.80792 0.15925 0.0
C2398 C 0.60503 0.78072 0.15902 0.0
C2399 C 0.58932 0.77007 0.14157 0.0
C2400 C 0.65723 0.85337 0.14168 0.0
C2401 C 0.59792 0.76265 0.17711 0.0
C2402 C 0.68492 0.82425 0.19702 0.0
C2403 C 0.67818 0.83686 0.2123 0.0
C2404 C 0.66888 0.81518 0.17955 0.0
C2405 C 0.64547 0.81876 0.17728 0.0
C2406 C 0.63871 0.83174 0.19254 0.0
C2407 C 0.65513 0.84062 0.20987 0.0
C2408 C 0.67671 0.80132 0.16367 0.0
C2409 C 0.61395 0.83597 0.19065 0.0
H2410 H 0.62223 0.82538 0.1114 0.0
H2411 H 0.57219 0.74919 0.14141 0.0
H2412 H 0.65522 0.86513 0.15416 0.0
H2413 H 0.67727 0.85368 0.14374 0.0
H2414 H 0.65814 0.86384 0.1275 0.0
H2415 H 0.57912 0.74232 0.17474 0.0
H2416 H 0.61572 0.75967 0.18093 0.0
H2417 H 0.59422 0.77255 0.1901 0.0
H2418 H 0.70246 0.82094 0.19889 0.0
H2419 H 0.65002 0.85069 0.22149 0.0
H2420 H 0.67973 0.81191 0.14923 0.0
H2421 H 0.65955 0.78 0.16162 0.0
H2422 H 0.6961 0.801 0.1674 0.0
H2423 H 0.61579 0.84763 0.17694 0.0
H2424 H 0.61194 0.84708 0.2036 0.0
H2425 H 0.5945 0.81595 0.1893 0.0
C2426 C 0.25136 0.81983 0.13904 0.0
C2427 C 0.23286 0.8116 0.12279 0.0
C2428 C 0.24342 0.82426 0.15796 0.0
C2429 C 0.21617 0.81995 0.16087 0.0
C2430 C 0.19701 0.81045 0.14481 0.0
C2431 C 0.20562 0.80664 0.126 0.0
C2432 C 0.26455 0.83455 0.17465 0.0
C2433 C 0.16764 0.80528 0.14726 0.0
C2434 C 0.18633 0.81427 0.21297 0.0
C2435 C 0.18864 0.83996 0.21529 0.0
C2436 C 0.19575 0.80758 0.19554 0.0
C2437 C 0.20815 0.82721 0.18021 0.0
C2438 C 0.2115 0.85353 0.18287 0.0
C2439 C 0.20153 0.8595 0.20028 0.0
C2440 C 0.19144 0.7792 0.19321 0.0
C2441 C 0.22501 0.87524 0.1671 0.0
H2442 H 0.27226 0.82323 0.13694 0.0
H2443 H 0.19118 0.80074 0.11362 0.0
H2444 H 0.26944 0.8554 0.17901 0.0
H2445 H 0.25587 0.82138 0.18794 0.0
H2446 H 0.28427 0.83522 0.17037 0.0
H2447 H 0.15455 0.79556 0.13389 0.0
H2448 H 0.15755 0.79194 0.16029 0.0
H2449 H 0.16819 0.82486 0.15009 0.0
H2450 H 0.17621 0.79906 0.22449 0.0
H2451 H 0.20366 0.87949 0.20211 0.0
H2452 H 0.21133 0.78016 0.18915 0.0
H2453 H 0.17644 0.76848 0.18094 0.0
H2454 H 0.18328 0.76693 0.207 0.0
H2455 H 0.24571 0.87802 0.16308 0.0
H2456 H 0.22778 0.8952 0.17203 0.0
H2457 H 0.21199 0.86876 0.15344 0.0
C2458 C 0.21393 0.41177 0.12535 0.0
C2459 C 0.20539 0.43121 0.12338 0.0
C2460 C 0.20944 0.39699 0.14314 0.0
C2461 C 0.19628 0.40186 0.15947 0.0
C2462 C 0.18845 0.42208 0.15776 0.0
C2463 C 0.19302 0.43641 0.13979 0.0
C2464 C 0.21799 0.37554 0.14424 0.0
C2465 C 0.17464 0.4282 0.1748 0.0
C2466 C 0.15651 0.34443 0.19666 0.0
C2467 C 0.17543 0.35184 0.2126 0.0
C2468 C 0.1631 0.36043 0.17938 0.0
C2469 C 0.18922 0.38476 0.17789 0.0
C2470 C 0.20826 0.39269 0.19402 0.0
C2471 C 0.20118 0.37616 0.21113 0.0
C2472 C 0.14207 0.35119 0.16263 0.0
C2473 C 0.23623 0.41854 0.19313 0.0
H2474 H 0.22334 0.40748 0.11274 0.0
H2475 H 0.18678 0.45171 0.13856 0.0
H2476 H 0.23149 0.37915 0.15742 0.0
H2477 H 0.1992 0.35511 0.14604 0.0
H2478 H 0.22935 0.37523 0.13072 0.0
H2479 H 0.17131 0.4456 0.17153 0.0
H2480 H 0.15414 0.40997 0.17803 0.0
H2481 H 0.18755 0.43297 0.18846 0.0
H2482 H 0.13634 0.32604 0.19771 0.0
H2483 H 0.21611 0.38202 0.2232 0.0
H2484 H 0.1514 0.34858 0.14879 0.0
H2485 H 0.13621 0.36695 0.15965 0.0
H2486 H 0.12283 0.33162 0.16599 0.0
H2487 H 0.24854 0.41741 0.18052 0.0
H2488 H 0.24846 0.42222 0.20705 0.0
H2489 H 0.23333 0.4363 0.19041 0.0
C2490 C 0.80616 0.5916 0.90545 0.0
C2491 C 0.77739 0.57421 0.90822 0.0
C2492 C 0.81672 0.60607 0.88755 0.0
C2493 C 0.79815 0.60323 0.87197 0.0
C2494 C 0.76917 0.58533 0.87452 0.0
C2495 C 0.7592 0.57103 0.89251 0.0
C2496 C 0.84777 0.62489 0.88548 0.0
C2497 C 0.74859 0.58163 0.85835 0.0
C2498 C 0.82211 0.66204 0.83527 0.0
C2499 C 0.83023 0.65249 0.81872 0.0
C2500 C 0.81147 0.64615 0.85253 0.0
C2501 C 0.80887 0.61997 0.85342 0.0
C2502 C 0.81658 0.60998 0.83665 0.0
C2503 C 0.82706 0.62629 0.81949 0.0
C2504 C 0.80322 0.65754 0.8699 0.0
C2505 C 0.81424 0.58224 0.83697 0.0
H2506 H 0.82043 0.59445 0.91747 0.0
H2507 H 0.737 0.55725 0.89424 0.0
H2508 H 0.85544 0.61977 0.87182 0.0
H2509 H 0.85234 0.64625 0.88395 0.0
H2510 H 0.85957 0.62372 0.89846 0.0
H2511 H 0.72682 0.56628 0.86236 0.0
H2512 H 0.74952 0.60136 0.85539 0.0
H2513 H 0.7541 0.57514 0.84431 0.0
H2514 H 0.82406 0.68206 0.83472 0.0
H2515 H 0.83349 0.61883 0.80687 0.0
H2516 H 0.81584 0.65903 0.88317 0.0
H2517 H 0.78102 0.64359 0.87373 0.0
H2518 H 0.80612 0.67807 0.86675 0.0
H2519 H 0.82768 0.58155 0.84895 0.0
H2520 H 0.82047 0.57714 0.82261 0.0
H2521 H 0.79248 0.5663 0.84034 0.0
C2522 C 0.41948 0.21887 0.89749 0.0
C2523 C 0.41017 0.19538 0.90915 0.0
C2524 C 0.40866 0.21734 0.87828 0.0
C2525 C 0.38774 0.1918 0.87076 0.0
C2526 C 0.37833 0.16807 0.88251 0.0
C2527 C 0.38976 0.17014 0.90149 0.0
C2528 C 0.41949 0.24301 0.86608 0.0
C2529 C 0.35575 0.14051 0.8752 0.0
C2530 C 0.33683 0.1874 0.83105 0.0
C2531 C 0.34606 0.17942 0.81424 0.0
C2532 C 0.35074 0.19238 0.84937 0.0
C2533 C 0.37481 0.18977 0.85091 0.0
C2534 C 0.3851 0.1831 0.8338 0.0
C2535 C 0.37052 0.17783 0.8157 0.0
C2536 C 0.33899 0.19931 0.86727 0.0
C2537 C 0.4109 0.18045 0.83478 0.0
H2538 H 0.4354 0.23838 0.90334 0.0
H2539 H 0.38222 0.152 0.91058 0.0
H2540 H 0.42731 0.24029 0.85155 0.0
H2541 H 0.40232 0.24721 0.8629 0.0
H2542 H 0.43658 0.26105 0.87375 0.0
H2543 H 0.35101 0.12401 0.88608 0.0
H2544 H 0.33635 0.14114 0.87224 0.0
H2545 H 0.36214 0.1353 0.86097 0.0
H2546 H 0.31835 0.18933 0.82999 0.0
H2547 H 0.37776 0.1715 0.80289 0.0
H2548 H 0.35532 0.21828 0.87445 0.0
H2549 H 0.33194 0.18274 0.87842 0.0
H2550 H 0.32104 0.20207 0.86335 0.0
H2551 H 0.4282 0.19862 0.84213 0.0
H2552 H 0.4179 0.17808 0.8198 0.0
H2553 H 0.40658 0.1624 0.84386 0.0
C2554 C 0.82863 0.22145 0.90497 0.0
C2555 C 0.8029 0.22021 0.90795 0.0
C2556 C 0.83415 0.2114 0.88745 0.0
C2557 C 0.81335 0.19947 0.87251 0.0
C2558 C 0.78702 0.19733 0.87566 0.0
C2559 C 0.78215 0.20779 0.89327 0.0
C2560 C 0.86249 0.21407 0.88476 0.0
C2561 C 0.7642 0.18453 0.86021 0.0
C2562 C 0.83812 0.19863 0.81971 0.0
C2563 C 0.83429 0.17222 0.81835 0.0
C2564 C 0.83097 0.2076 0.8371 0.0
C2565 C 0.81945 0.18968 0.85351 0.0
C2566 C 0.81482 0.16275 0.852 0.0
C2567 C 0.82238 0.15441 0.83451 0.0
C2568 C 0.83646 0.23653 0.83811 0.0
C2569 C 0.80226 0.14287 0.86899 0.0
H2570 H 0.84465 0.23053 0.91632 0.0
H2571 H 0.76233 0.20698 0.89525 0.0
H2572 H 0.86022 0.19369 0.88217 0.0
H2573 H 0.87282 0.22667 0.87145 0.0
H2574 H 0.87628 0.22358 0.89786 0.0
H2575 H 0.74442 0.18305 0.86535 0.0
H2576 H 0.77091 0.1968 0.84638 0.0
H2577 H 0.76012 0.16377 0.85638 0.0
H2578 H 0.84752 0.21259 0.80737 0.0
H2579 H 0.81897 0.13384 0.83347 0.0
H2580 H 0.85193 0.24787 0.85001 0.0
H2581 H 0.81703 0.23661 0.842 0.0
H2582 H 0.84452 0.24758 0.82384 0.0
H2583 H 0.81629 0.15056 0.88212 0.0
H2584 H 0.7987 0.12227 0.86511 0.0
H2585 H 0.78207 0.14099 0.87344 0.0
C2586 C 0.26065 0.10517 0.48603 0.0
C2587 C 0.26334 0.1208 0.4691 0.0
C2588 C 0.27739 0.117 0.50297 0.0
C2589 C 0.29755 0.14515 0.50297 0.0
C2590 C 0.30023 0.16109 0.48598 0.0
C2591 C 0.28301 0.14876 0.46931 0.0
C2592 C 0.27361 0.09933 0.52082 0.0
C2593 C 0.32164 0.19109 0.48528 0.0
C2594 C 0.32796 0.1827 0.55195 0.0
C2595 C 0.35375 0.18356 0.5527 0.0
C2596 C 0.30926 0.1699 0.53606 0.0
C2597 C 0.3165 0.15773 0.52046 0.0
C2598 C 0.34217 0.15795 0.52138 0.0
C2599 C 0.36035 0.17069 0.53748 0.0
C2600 C 0.28199 0.1699 0.53574 0.0
C2601 C 0.3507 0.14514 0.50514 0.0
H2602 H 0.24518 0.08363 0.48611 0.0
H2603 H 0.28534 0.16092 0.45624 0.0
H2604 H 0.29315 0.09897 0.52377 0.0
H2605 H 0.26919 0.10797 0.53423 0.0
H2606 H 0.25637 0.07801 0.51872 0.0
H2607 H 0.32068 0.20078 0.47117 0.0
H2608 H 0.31846 0.20192 0.49789 0.0
H2609 H 0.34288 0.1939 0.48688 0.0
H2610 H 0.32272 0.19276 0.5635 0.0
H2611 H 0.37994 0.17074 0.53809 0.0
H2612 H 0.26431 0.14875 0.53409 0.0
H2613 H 0.28144 0.18166 0.52273 0.0
H2614 H 0.27881 0.17898 0.54946 0.0
H2615 H 0.33476 0.12327 0.50342 0.0
H2616 H 0.37119 0.14671 0.50819 0.0
H2617 H 0.35199 0.15524 0.49073 0.0
C2618 C 0.91145 0.17284 0.46276 0.0
C2619 C 0.90643 0.14734 0.45588 0.0
C2620 C 0.90125 0.17556 0.48124 0.0
C2621 C 0.88595 0.15229 0.49336 0.0
C2622 C 0.88165 0.12662 0.48682 0.0
C2623 C 0.89166 0.12439 0.46805 0.0
C2624 C 0.90592 0.20322 0.4874 0.0
C2625 C 0.86597 0.10143 0.49945 0.0
C2626 C 0.87687 0.16748 0.54731 0.0
C2627 C 0.85018 0.16469 0.54688 0.0
C2628 C 0.88835 0.16236 0.53026 0.0
C2629 C 0.87301 0.15471 0.51221 0.0
C2630 C 0.84579 0.15109 0.51183 0.0
C2631 C 0.83464 0.1558 0.52915 0.0
C2632 C 0.91724 0.16598 0.53141 0.0
C2633 C 0.82874 0.14318 0.4929 0.0
H2634 H 0.92249 0.19058 0.45331 0.0
H2635 H 0.88785 0.10468 0.46285 0.0
H2636 H 0.88554 0.20244 0.48869 0.0
H2637 H 0.91608 0.20894 0.50223 0.0
H2638 H 0.91908 0.21945 0.47663 0.0
H2639 H 0.86653 0.08357 0.49308 0.0
H2640 H 0.87491 0.10532 0.51469 0.0
H2641 H 0.84387 0.09619 0.50083 0.0
H2642 H 0.88925 0.1745 0.56079 0.0
H2643 H 0.81372 0.15281 0.5287 0.0
H2644 H 0.93185 0.1839 0.52243 0.0
H2645 H 0.91728 0.14788 0.52507 0.0
H2646 H 0.92521 0.16911 0.54693 0.0
H2647 H 0.83965 0.15921 0.48149 0.0
H2648 H 0.80761 0.1404 0.49521 0.0
H2649 H 0.82649 0.12394 0.48684 0.0
C2650 C 0.84507 0.73709 0.45959 0.0
C2651 C 0.87083 0.76027 0.45514 0.0
C2652 C 0.84053 0.72326 0.4778 0.0
C2653 C 0.86235 0.73247 0.49199 0.0
C2654 C 0.88857 0.75555 0.48752 0.0
C2655 C 0.89246 0.76919 0.46924 0.0
C2656 C 0.81224 0.69876 0.48185 0.0
C2657 C 0.91249 0.76593 0.50211 0.0
C2658 C 0.84086 0.70894 0.54566 0.0
C2659 C 0.84406 0.68588 0.54663 0.0
C2660 C 0.84739 0.72472 0.52818 0.0
C2661 C 0.8577 0.7175 0.51129 0.0
C2662 C 0.86203 0.6949 0.51251 0.0
C2663 C 0.85506 0.67935 0.53006 0.0
C2664 C 0.84225 0.74851 0.52754 0.0
C2665 C 0.87333 0.68663 0.49505 0.0
H2666 H 0.82832 0.72957 0.44875 0.0
H2667 H 0.91235 0.78721 0.46616 0.0
H2668 H 0.81429 0.68043 0.48412 0.0
H2669 H 0.80344 0.70203 0.49572 0.0
H2670 H 0.79724 0.69456 0.46951 0.0
H2671 H 0.93172 0.7838 0.49631 0.0
H2672 H 0.90662 0.77187 0.51624 0.0
H2673 H 0.91719 0.7495 0.50565 0.0
H2674 H 0.8322 0.71403 0.55832 0.0
H2675 H 0.85798 0.6618 0.53076 0.0
H2676 H 0.82561 0.7443 0.51653 0.0
H2677 H 0.86133 0.76722 0.52262 0.0
H2678 H 0.83582 0.75253 0.54222 0.0
H2679 H 0.85822 0.67987 0.48254 0.0
H2680 H 0.87736 0.66979 0.49881 0.0
H2681 H 0.89304 0.70433 0.48974 0.0
loop_
_geom_bond_atom_site_label_1
_geom_bond_atom_site_label_2
_geom_bond_distance
_geom_bond_site_symmetry_2
_ccdc_geom_bond_type
H0 C3 0.929 . S
H1 C6 0.929 . S
H2 C8 0.930 . S
C3 H0 0.929 . S
C3 C4 1.398 . S
C3 C5 1.396 . S
C4 C3 1.398 . S
C4 C8 1.407 . S
C5 C3 1.396 . S
C5 C6 1.394 . S
C6 H1 0.929 . S
C6 C5 1.394 . S
C6 C7 1.382 . S
C7 C6 1.382 . S
C7 C8 1.392 . S
C7 N9 1.420 . S
C8 H2 0.930 . S
C8 C4 1.407 . S
C8 C7 1.392 . S
N9 C7 1.420 . S
N9 C10 1.244 . S
C10 N9 1.244 . S
H11 C14 0.929 . S
H12 C17 0.929 . S
H13 C19 0.930 . S
C14 H11 0.929 . S
C14 C15 1.398 . S
C14 C16 1.396 . S
C15 C14 1.398 . S
C15 C19 1.407 . S
C16 C14 1.396 . S
C16 C17 1.394 . S
C17 H12 0.929 . S
C17 C16 1.394 . S
C17 C18 1.382 . S
C18 C17 1.382 . S
C18 C19 1.392 . S
C18 N20 1.420 . S
C19 H13 0.930 . S
C19 C15 1.407 . S
C19 C18 1.392 . S
N20 C18 1.420 . S
N20 C21 1.244 . S
C21 N20 1.244 . S
H22 C25 0.929 . S
H23 C28 0.929 . S
H24 C30 0.930 . S
C25 H22 0.929 . S
C25 C26 1.398 . S
C25 C27 1.396 . S
C26 C25 1.398 . S
C26 C30 1.407 . S
C27 C25 1.396 . S
C27 C28 1.394 . S
C28 H23 0.929 . S
C28 C27 1.394 . S
C28 C29 1.382 . S
C29 C28 1.382 . S
C29 C30 1.392 . S
C29 N31 1.420 . S
C30 H24 0.930 . S
C30 C26 1.407 . S
C30 C29 1.392 . S
N31 C29 1.420 . S
N31 C32 1.244 . S
C32 N31 1.244 . S
H33 C36 0.929 . S
H34 C39 0.929 . S
H35 C41 0.930 . S
C36 H33 0.929 . S
C36 C37 1.398 . S
C36 C38 1.396 . S
C37 C36 1.398 . S
C37 C41 1.407 . S
C38 C36 1.396 . S
C38 C39 1.394 . S
C39 H34 0.929 . S
C39 C38 1.394 . S
C39 C40 1.382 . S
C40 C39 1.382 . S
C40 C41 1.392 . S
C40 N42 1.420 . S
C41 H35 0.930 . S
C41 C37 1.407 . S
C41 C40 1.392 . S
N42 C40 1.420 . S
N42 C43 1.244 . S
C43 N42 1.244 . S
H44 C47 0.929 . S
H45 C50 0.929 . S
H46 C52 0.930 . S
C47 H44 0.929 . S
C47 C48 1.398 . S
C47 C49 1.396 . S
C48 C47 1.398 . S
C48 C52 1.407 . S
C49 C47 1.396 . S
C49 C50 1.394 . S
C50 H45 0.929 . S
C50 C49 1.394 . S
C50 C51 1.382 . S
C51 C50 1.382 . S
C51 C52 1.392 . S
C51 N53 1.420 . S
C52 H46 0.930 . S
C52 C48 1.407 . S
C52 C51 1.392 . S
N53 C51 1.420 . S
N53 C54 1.244 . S
C54 N53 1.244 . S
H55 C58 0.929 . S
H56 C61 0.929 . S
H57 C63 0.930 . S
C58 H55 0.929 . S
C58 C59 1.398 . S
C58 C60 1.396 . S
C59 C58 1.398 . S
C59 C63 1.407 . S
C60 C58 1.396 . S
C60 C61 1.394 . S
C61 H56 0.929 . S
C61 C60 1.394 . S
C61 C62 1.382 . S
C62 C61 1.382 . S
C62 C63 1.392 . S
C62 N64 1.420 . S
C63 H57 0.930 . S
C63 C59 1.407 . S
C63 C62 1.392 . S
N64 C62 1.420 . S
N64 C65 1.244 . S
C65 N64 1.244 . S
H66 C69 0.929 . S
H67 C72 0.929 . S
H68 C74 0.930 . S
C69 H66 0.929 . S
C69 C70 1.398 . S
C69 C71 1.396 . S
C70 C69 1.398 . S
C70 C74 1.407 . S
C71 C69 1.396 . S
C71 C72 1.394 . S
C72 H67 0.929 . S
C72 C71 1.394 . S
C72 C73 1.382 . S
C73 C72 1.382 . S
C73 C74 1.392 . S
C73 N75 1.420 . S
C74 H68 0.930 . S
C74 C70 1.407 . S
C74 C73 1.392 . S
N75 C73 1.420 . S
N75 C76 1.244 . S
C76 N75 1.244 . S
H77 C80 0.929 . S
H78 C83 0.929 . S
H79 C85 0.930 . S
C80 H77 0.929 . S
C80 C81 1.398 . S
C80 C82 1.396 . S
C81 C80 1.398 . S
C81 C85 1.407 . S
C82 C80 1.396 . S
C82 C83 1.394 . S
C83 H78 0.929 . S
C83 C82 1.394 . S
C83 C84 1.382 . S
C84 C83 1.382 . S
C84 C85 1.392 . S
C84 N86 1.420 . S
C85 H79 0.930 . S
C85 C81 1.407 . S
C85 C84 1.392 . S
N86 C84 1.420 . S
N86 C87 1.244 . S
C87 N86 1.244 . S
H88 C91 0.929 . S
H89 C94 0.929 . S
H90 C96 0.930 . S
C91 H88 0.929 . S
C91 C92 1.398 . S
C91 C93 1.396 . S
C92 C91 1.398 . S
C92 C96 1.407 . S
C93 C91 1.396 . S
C93 C94 1.394 . S
C94 H89 0.929 . S
C94 C93 1.394 . S
C94 C95 1.382 . S
C95 C94 1.382 . S
C95 C96 1.392 . S
C95 N97 1.420 . S
C96 H90 0.930 . S
C96 C92 1.407 . S
C96 C95 1.392 . S
N97 C95 1.420 . S
N97 C98 1.244 . S
C98 N97 1.244 . S
H99 C102 0.929 . S
H100 C105 0.929 . S
H101 C107 0.930 . S
C102 H99 0.929 . S
C102 C103 1.398 . S
C102 C104 1.396 . S
C103 C102 1.398 . S
C103 C107 1.407 . S
C104 C102 1.396 . S
C104 C105 1.394 . S
C105 H100 0.929 . S
C105 C104 1.394 . S
C105 C106 1.382 . S
C106 C105 1.382 . S
C106 C107 1.392 . S
C106 N108 1.420 . S
C107 H101 0.930 . S
C107 C103 1.407 . S
C107 C106 1.392 . S
N108 C106 1.420 . S
N108 C109 1.244 . S
C109 N108 1.244 . S
H110 C113 0.929 . S
H111 C116 0.929 . S
H112 C118 0.930 . S
C113 H110 0.929 . S
C113 C114 1.398 . S
C113 C115 1.396 . S
C114 C113 1.398 . S
C114 C118 1.407 . S
C115 C113 1.396 . S
C115 C116 1.394 . S
C116 H111 0.929 . S
C116 C115 1.394 . S
C116 C117 1.382 . S
C117 C116 1.382 . S
C117 C118 1.392 . S
C117 N119 1.420 . S
C118 H112 0.930 . S
C118 C114 1.407 . S
C118 C117 1.392 . S
N119 C117 1.420 . S
N119 C120 1.244 . S
C120 N119 1.244 . S
H121 C124 0.929 . S
H122 C127 0.929 . S
H123 C129 0.930 . S
C124 H121 0.929 . S
C124 C125 1.398 . S
C124 C126 1.396 . S
C125 C124 1.398 . S
C125 C129 1.407 . S
C126 C124 1.396 . S
C126 C127 1.394 . S
C127 H122 0.929 . S
C127 C126 1.394 . S
C127 C128 1.382 . S
C128 C127 1.382 . S
C128 C129 1.392 . S
C128 N130 1.420 . S
C129 H123 0.930 . S
C129 C125 1.407 . S
C129 C128 1.392 . S
N130 C128 1.420 . S
N130 C131 1.244 . S
C131 N130 1.244 . S
H132 C135 0.929 . S
H133 C138 0.929 . S
H134 C140 0.930 . S
C135 H132 0.929 . S
C135 C136 1.398 . S
C135 C137 1.396 . S
C136 C135 1.398 . S
C136 C140 1.407 . S
C137 C135 1.396 . S
C137 C138 1.394 . S
C138 H133 0.929 . S
C138 C137 1.394 . S
C138 C139 1.382 . S
C139 C138 1.382 . S
C139 C140 1.392 . S
C139 N141 1.420 . S
C140 H134 0.930 . S
C140 C136 1.407 . S
C140 C139 1.392 . S
N141 C139 1.420 . S
N141 C142 1.244 . S
C142 N141 1.244 . S
H143 C146 0.929 . S
H144 C149 0.929 . S
H145 C151 0.930 . S
C146 H143 0.929 . S
C146 C147 1.398 . S
C146 C148 1.396 . S
C147 C146 1.398 . S
C147 C151 1.407 . S
C148 C146 1.396 . S
C148 C149 1.394 . S
C149 H144 0.929 . S
C149 C148 1.394 . S
C149 C150 1.382 . S
C150 C149 1.382 . S
C150 C151 1.392 . S
C150 N152 1.420 . S
C151 H145 0.930 . S
C151 C147 1.407 . S
C151 C150 1.392 . S
N152 C150 1.420 . S
N152 C153 1.244 . S
C153 N152 1.244 . S
H154 C157 0.929 . S
H155 C160 0.929 . S
H156 C162 0.930 . S
C157 H154 0.929 . S
C157 C158 1.398 . S
C157 C159 1.396 . S
C158 C157 1.398 . S
C158 C162 1.407 . S
C159 C157 1.396 . S
C159 C160 1.394 . S
C160 H155 0.929 . S
C160 C159 1.394 . S
C160 C161 1.382 . S
C161 C160 1.382 . S
C161 C162 1.392 . S
C161 N163 1.420 . S
C162 H156 0.930 . S
C162 C158 1.407 . S
C162 C161 1.392 . S
N163 C161 1.420 . S
N163 C164 1.244 . S
C164 N163 1.244 . S
H165 C168 0.929 . S
H166 C171 0.929 . S
H167 C173 0.930 . S
C168 H165 0.929 . S
C168 C169 1.398 . S
C168 C170 1.396 . S
C169 C168 1.398 . S
C169 C173 1.407 . S
C170 C168 1.396 . S
C170 C171 1.394 . S
C171 H166 0.929 . S
C171 C170 1.394 . S
C171 C172 1.382 . S
C172 C171 1.382 . S
C172 C173 1.392 . S
C172 N174 1.420 . S
C173 H167 0.930 . S
C173 C169 1.407 . S
C173 C172 1.392 . S
N174 C172 1.420 . S
N174 C175 1.244 . S
C175 N174 1.244 . S
H176 C179 0.929 . S
H177 C182 0.929 . S
H178 C184 0.930 . S
C179 H176 0.929 . S
C179 C180 1.398 . S
C179 C181 1.396 . S
C180 C179 1.398 . S
C180 C184 1.407 . S
C181 C179 1.396 . S
C181 C182 1.394 . S
C182 H177 0.929 . S
C182 C181 1.394 . S
C182 C183 1.382 . S
C183 C182 1.382 . S
C183 C184 1.392 . S
C183 N185 1.420 . S
C184 H178 0.930 . S
C184 C180 1.407 . S
C184 C183 1.392 . S
N185 C183 1.420 . S
N185 C186 1.244 . S
C186 N185 1.244 . S
H187 C190 0.929 . S
H188 C193 0.929 . S
H189 C195 0.930 . S
C190 H187 0.929 . S
C190 C191 1.398 . S
C190 C192 1.396 . S
C191 C190 1.398 . S
C191 C195 1.407 . S
C192 C190 1.396 . S
C192 C193 1.394 . S
C193 H188 0.929 . S
C193 C192 1.394 . S
C193 C194 1.382 . S
C194 C193 1.382 . S
C194 C195 1.392 . S
C194 N196 1.420 . S
C195 H189 0.930 . S
C195 C191 1.407 . S
C195 C194 1.392 . S
N196 C194 1.420 . S
N196 C197 1.244 . S
C197 N196 1.244 . S
Gd198 N229 2.661 . S
Gd198 N235 2.601 . S
Gd198 O242 2.545 . S
Gd198 O243 2.606 1_545 S
Gd198 O245 2.429 . S
Gd198 O246 2.545 1_545 S
Gd198 O247 2.412 1_545 S
Gd198 O249 2.362 . S
Gd198 O250 2.324 1_545 S
Gd198 C257 2.828 . S
Gd199 N208 2.661 . S
Gd199 N212 2.601 . S
Gd199 O243 2.362 1_556 S
Gd199 O244 2.324 1_565 S
Gd199 O248 2.545 . S
Gd199 O249 2.606 1_566 S
Gd199 O251 2.426 . S
Gd199 O252 2.545 1_565 S
Gd199 O253 2.412 1_565 S
Gd199 C266 2.828 1_565 S
C200 C203 1.417 . S
C200 C205 1.431 . S
C200 C206 1.412 . S
C201 C204 1.437 . S
C201 C205 1.317 . S
C201 H220 0.929 . S
C202 C203 1.426 . S
C202 C204 1.413 . S
C202 N212 1.359 . S
C203 C200 1.417 . S
C203 C202 1.426 . S
C203 N208 1.350 . S
C204 C201 1.437 . S
C204 C202 1.413 . S
C204 C214 1.391 . S
C205 C200 1.431 . S
C205 C201 1.317 . S
C205 H216 0.930 . S
C206 C200 1.412 . S
C206 C207 1.355 . S
C206 H218 0.930 . S
C207 C206 1.355 . S
C207 C209 1.402 . S
C207 H219 0.930 . S
N208 Gd199 2.661 . S
N208 C203 1.350 . S
N208 C209 1.307 . S
C209 C207 1.402 . S
C209 N208 1.307 . S
C209 H210 0.930 . S
H210 C209 0.930 . S
C211 N212 1.334 . S
C211 C213 1.394 . S
C211 H215 0.930 . S
N212 Gd199 2.601 . S
N212 C202 1.359 . S
N212 C211 1.334 . S
C213 C211 1.394 . S
C213 C214 1.359 . S
C213 H225 0.930 . S
C214 C204 1.391 . S
C214 C213 1.359 . S
C214 H226 0.929 . S
H215 C211 0.930 . S
H216 C205 0.930 . S
H217 C234 0.930 . S
H218 C206 0.930 . S
H219 C207 0.930 . S
H220 C201 0.929 . S
H221 C239 0.930 . S
H222 C230 0.930 . S
H223 C231 0.930 . S
H224 C255 0.929 . S
H225 C213 0.930 . S
H226 C214 0.929 . S
H227 C256 0.930 . S
H228 C237 0.930 . S
N229 Gd198 2.661 . S
N229 C233 1.350 . S
N229 C234 1.307 . S
C230 H222 0.930 . S
C230 C231 1.355 . S
C230 C232 1.412 . S
C231 H223 0.930 . S
C231 C230 1.355 . S
C231 C234 1.402 . S
C232 C230 1.412 . S
C232 C233 1.417 . S
C232 C256 1.431 . S
C233 N229 1.350 . S
C233 C232 1.417 . S
C233 C236 1.426 . S
C234 H217 0.930 . S
C234 N229 1.307 . S
C234 C231 1.402 . S
N235 Gd198 2.601 . S
N235 C236 1.359 . S
N235 C239 1.334 . S
C236 C233 1.426 . S
C236 N235 1.359 . S
C236 C240 1.413 . S
C237 H228 0.930 . S
C237 C238 1.359 . S
C237 C239 1.394 . S
C238 C237 1.359 . S
C238 C240 1.391 . S
C238 H241 0.929 . S
C239 H221 0.930 . S
C239 N235 1.334 . S
C239 C237 1.394 . S
C240 C236 1.413 . S
C240 C238 1.391 . S
C240 C255 1.437 . S
H241 C238 0.929 . S
O242 Gd198 2.545 . S
O242 C257 1.258 . S
O243 Gd198 2.606 1_565 S
O243 Gd199 2.362 1_554 S
O243 C254 1.284 . S
O244 Gd199 2.324 1_545 S
O244 C264 1.254 1_556 S
O245 Gd198 2.429 . S
O245 C264 1.268 . S
O246 Gd198 2.545 1_565 S
O246 C254 1.250 . S
O247 Gd198 2.412 1_565 S
O247 C257 1.252 1_565 S
O248 Gd199 2.545 . S
O248 C266 1.249 1_565 S
O249 Gd198 2.362 . S
O249 Gd199 2.606 1_544 S
O249 C265 1.284 1_554 S
O250 Gd198 2.324 1_565 S
O250 C273 1.254 . S
O251 Gd199 2.426 . S
O251 C273 1.273 1_556 S
O252 Gd199 2.545 1_545 S
O252 C265 1.250 . S
O253 Gd199 2.412 1_545 S
O253 C266 1.260 . S
C254 O243 1.284 . S
C254 O246 1.250 . S
C255 H224 0.929 . S
C255 C240 1.437 . S
C255 C256 1.317 . S
C256 H227 0.930 . S
C256 C232 1.431 . S
C256 C255 1.317 . S
C257 Gd198 2.828 . S
C257 O242 1.258 . S
C257 O247 1.252 1_545 S
C257 C258 1.497 . S
C258 C257 1.497 . S
C258 C259 1.395 . S
C258 C260 1.380 1_545 S
C259 C258 1.395 . S
C259 C262 1.398 . S
C259 H274 0.930 . S
C260 C258 1.380 1_565 S
C260 C261 1.391 . S
C260 H275 0.930 . S
C261 C260 1.391 . S
C261 C263 1.387 . S
C262 C259 1.398 . S
C262 C263 1.380 1_545 S
C262 H276 0.930 . S
C263 C261 1.387 . S
C263 C262 1.380 1_565 S
C263 H277 0.930 . S
C264 O244 1.254 1_554 S
C264 O245 1.268 . S
C265 O249 1.284 1_556 S
C265 O252 1.250 . S
C266 Gd199 2.828 1_545 S
C266 O248 1.249 1_545 S
C266 O253 1.260 . S
C266 C267 1.499 . S
C267 C266 1.499 . S
C267 C268 1.395 1_545 S
C267 C269 1.380 . S
C268 C267 1.395 1_565 S
C268 C271 1.398 . S
C268 H278 0.930 . S
C269 C267 1.380 . S
C269 C270 1.391 . S
C269 H279 0.930 . S
C270 C269 1.391 . S
C270 C272 1.387 . S
C271 C268 1.398 . S
C271 C272 1.380 1_565 S
C271 H280 0.930 . S
C272 C270 1.387 . S
C272 C271 1.380 1_545 S
C272 H281 0.930 . S
C273 O250 1.254 . S
C273 O251 1.273 1_554 S
H274 C259 0.930 . S
H275 C260 0.930 . S
H276 C262 0.930 . S
H277 C263 0.930 . S
H278 C268 0.930 . S
H279 C269 0.930 . S
H280 C271 0.930 . S
H281 C272 0.930 . S
Gd282 N313 2.661 . S
Gd282 N319 2.601 . S
Gd282 O326 2.545 . S
Gd282 O327 2.606 1_655 S
Gd282 O329 2.429 . S
Gd282 O330 2.545 1_655 S
Gd282 O331 2.412 1_655 S
Gd282 O333 2.362 . S
Gd282 O334 2.324 1_655 S
Gd282 C341 2.828 . S
Gd283 N292 2.661 . S
Gd283 N296 2.601 . S
Gd283 O327 2.362 1_556 S
Gd283 O328 2.324 1_455 S
Gd283 O332 2.545 . S
Gd283 O333 2.606 1_456 S
Gd283 O335 2.402 1_556 S
Gd283 O336 2.545 1_455 S
Gd283 O337 2.413 . S
Gd283 C350 2.828 . S
C284 C287 1.417 . S
C284 C289 1.431 . S
C284 C290 1.412 . S
C285 C288 1.437 . S
C285 C289 1.317 . S
C285 H304 0.929 . S
C286 C287 1.426 . S
C286 C288 1.413 . S
C286 N296 1.359 . S
C287 C284 1.417 . S
C287 C286 1.426 . S
C287 N292 1.350 . S
C288 C285 1.437 . S
C288 C286 1.413 . S
C288 C298 1.391 . S
C289 C284 1.431 . S
C289 C285 1.317 . S
C289 H300 0.930 . S
C290 C284 1.412 . S
C290 C291 1.355 . S
C290 H302 0.930 . S
C291 C290 1.355 . S
C291 C293 1.402 . S
C291 H303 0.930 . S
N292 Gd283 2.661 . S
N292 C287 1.350 . S
N292 C293 1.307 . S
C293 C291 1.402 . S
C293 N292 1.307 . S
C293 H294 0.930 . S
H294 C293 0.930 . S
C295 N296 1.334 . S
C295 C297 1.394 . S
C295 H299 0.930 . S
N296 Gd283 2.601 . S
N296 C286 1.359 . S
N296 C295 1.334 . S
C297 C295 1.394 . S
C297 C298 1.359 . S
C297 H309 0.930 . S
C298 C288 1.391 . S
C298 C297 1.359 . S
C298 H310 0.929 . S
H299 C295 0.930 . S
H300 C289 0.930 . S
H301 C318 0.930 . S
H302 C290 0.930 . S
H303 C291 0.930 . S
H304 C285 0.929 . S
H305 C323 0.930 . S
H306 C314 0.930 . S
H307 C315 0.930 . S
H308 C339 0.929 . S
H309 C297 0.930 . S
H310 C298 0.929 . S
H311 C340 0.930 . S
H312 C321 0.930 . S
N313 Gd282 2.661 . S
N313 C317 1.350 . S
N313 C318 1.307 . S
C314 H306 0.930 . S
C314 C315 1.355 . S
C314 C316 1.412 . S
C315 H307 0.930 . S
C315 C314 1.355 . S
C315 C318 1.402 . S
C316 C314 1.412 . S
C316 C317 1.417 . S
C316 C340 1.431 . S
C317 N313 1.350 . S
C317 C316 1.417 . S
C317 C320 1.426 . S
C318 H301 0.930 . S
C318 N313 1.307 . S
C318 C315 1.402 . S
N319 Gd282 2.601 . S
N319 C320 1.359 . S
N319 C323 1.334 . S
C320 C317 1.426 . S
C320 N319 1.359 . S
C320 C324 1.413 . S
C321 H312 0.930 . S
C321 C322 1.359 . S
C321 C323 1.394 . S
C322 C321 1.359 . S
C322 C324 1.391 . S
C322 H325 0.929 . S
C323 H305 0.930 . S
C323 N319 1.334 . S
C323 C321 1.394 . S
C324 C320 1.413 . S
C324 C322 1.391 . S
C324 C339 1.437 . S
H325 C322 0.929 . S
O326 Gd282 2.545 . S
O326 C341 1.258 . S
O327 Gd282 2.606 1_455 S
O327 Gd283 2.362 1_554 S
O327 C338 1.284 . S
O328 Gd283 2.324 1_655 S
O328 C348 1.254 1_556 S
O329 Gd282 2.429 . S
O329 C348 1.268 . S
O330 Gd282 2.545 1_455 S
O330 C338 1.250 . S
O331 Gd282 2.412 1_455 S
O331 C341 1.252 1_455 S
O332 Gd283 2.545 . S
O332 C350 1.258 . S
O333 Gd282 2.362 . S
O333 Gd283 2.606 1_654 S
O333 C349 1.284 1_554 S
O334 Gd282 2.324 1_455 S
O334 C357 1.254 . S
O335 Gd283 2.402 1_554 S
O335 C357 1.322 . S
O336 Gd283 2.545 1_655 S
O336 C349 1.250 . S
O337 Gd283 2.413 . S
O337 C350 1.251 . S
C338 O327 1.284 . S
C338 O330 1.250 . S
C339 H308 0.929 . S
C339 C324 1.437 . S
C339 C340 1.317 . S
C340 H311 0.930 . S
C340 C316 1.431 . S
C340 C339 1.317 . S
C341 Gd282 2.828 . S
C341 O326 1.258 . S
C341 O331 1.252 1_655 S
C341 C342 1.497 1_655 S
C342 C341 1.497 1_455 S
C342 C343 1.395 1_455 S
C342 C344 1.380 . S
C343 C342 1.395 1_655 S
C343 C346 1.398 . S
C343 H358 0.930 . S
C344 C342 1.380 . S
C344 C345 1.391 . S
C344 H359 0.930 . S
C345 C344 1.391 . S
C345 C347 1.387 . S
C346 C343 1.398 . S
C346 C347 1.380 1_655 S
C346 H360 0.930 . S
C347 C345 1.387 . S
C347 C346 1.380 1_455 S
C347 H361 0.930 . S
C348 O328 1.254 1_554 S
C348 O329 1.268 . S
C349 O333 1.284 1_556 S
C349 O336 1.250 . S
C350 Gd283 2.828 . S
C350 O332 1.258 . S
C350 O337 1.251 . S
C350 C351 1.497 . S
C351 C350 1.497 . S
C351 C352 1.395 . S
C351 C353 1.380 1_455 S
C352 C351 1.395 . S
C352 C355 1.398 . S
C352 H362 0.930 . S
C353 C351 1.380 1_655 S
C353 C354 1.391 . S
C353 H363 0.930 . S
C354 C353 1.391 . S
C354 C356 1.387 . S
C355 C352 1.398 . S
C355 C356 1.380 1_455 S
C355 H364 0.930 . S
C356 C354 1.387 . S
C356 C355 1.380 1_655 S
C356 H365 0.930 . S
C357 O334 1.254 . S
C357 O335 1.322 . S
H358 C343 0.930 . S
H359 C344 0.930 . S
H360 C346 0.930 . S
H361 C347 0.930 . S
H362 C352 0.930 . S
H363 C353 0.930 . S
H364 C355 0.930 . S
H365 C356 0.930 . S
Gd366 N397 2.661 . S
Gd366 N403 2.601 . S
Gd366 O410 2.545 . S
Gd366 O411 2.606 1_556 S
Gd366 O413 2.429 1_556 S
Gd366 O414 2.545 . S
Gd366 O415 2.412 . S
Gd366 O417 2.362 1_556 S
Gd366 O418 2.324 . S
Gd366 C425 2.828 . S
Gd367 N376 2.661 . S
Gd367 N380 2.601 . S
Gd367 O411 2.362 . S
Gd367 O412 2.324 . S
Gd367 O416 2.545 . S
Gd367 O417 2.606 . S
Gd367 O419 2.429 . S
Gd367 O420 2.545 . S
Gd367 O421 2.412 . S
Gd367 C434 2.828 . S
C368 C371 1.417 . S
C368 C373 1.431 . S
C368 C374 1.412 . S
C369 C372 1.437 . S
C369 C373 1.317 . S
C369 H388 0.929 . S
C370 C371 1.426 . S
C370 C372 1.413 . S
C370 N380 1.359 . S
C371 C368 1.417 . S
C371 C370 1.426 . S
C371 N376 1.350 . S
C372 C369 1.437 . S
C372 C370 1.413 . S
C372 C382 1.391 . S
C373 C368 1.431 . S
C373 C369 1.317 . S
C373 H384 0.930 . S
C374 C368 1.412 . S
C374 C375 1.355 . S
C374 H386 0.930 . S
C375 C374 1.355 . S
C375 C377 1.402 . S
C375 H387 0.930 . S
N376 Gd367 2.661 . S
N376 C371 1.350 . S
N376 C377 1.307 . S
C377 C375 1.402 . S
C377 N376 1.307 . S
C377 H378 0.930 . S
H378 C377 0.930 . S
C379 N380 1.334 . S
C379 C381 1.394 . S
C379 H383 0.930 . S
N380 Gd367 2.601 . S
N380 C370 1.359 . S
N380 C379 1.334 . S
C381 C379 1.394 . S
C381 C382 1.359 . S
C381 H393 0.930 . S
C382 C372 1.391 . S
C382 C381 1.359 . S
C382 H394 0.929 . S
H383 C379 0.930 . S
H384 C373 0.930 . S
H385 C402 0.930 . S
H386 C374 0.930 . S
H387 C375 0.930 . S
H388 C369 0.929 . S
H389 C407 0.930 . S
H390 C398 0.930 . S
H391 C399 0.930 . S
H392 C423 0.929 . S
H393 C381 0.930 . S
H394 C382 0.929 . S
H395 C424 0.930 . S
H396 C405 0.930 . S
N397 Gd366 2.661 . S
N397 C401 1.350 . S
N397 C402 1.307 . S
C398 H390 0.930 . S
C398 C399 1.355 . S
C398 C400 1.412 . S
C399 H391 0.930 . S
C399 C398 1.355 . S
C399 C402 1.402 . S
C400 C398 1.412 . S
C400 C401 1.417 . S
C400 C424 1.431 . S
C401 N397 1.350 . S
C401 C400 1.417 . S
C401 C404 1.426 . S
C402 H385 0.930 . S
C402 N397 1.307 . S
C402 C399 1.402 . S
N403 Gd366 2.601 . S
N403 C404 1.359 . S
N403 C407 1.334 . S
C404 C401 1.426 . S
C404 N403 1.359 . S
C404 C408 1.413 . S
C405 H396 0.930 . S
C405 C406 1.359 . S
C405 C407 1.394 . S
C406 C405 1.359 . S
C406 C408 1.391 . S
C406 H409 0.929 . S
C407 H389 0.930 . S
C407 N403 1.334 . S
C407 C405 1.394 . S
C408 C404 1.413 . S
C408 C406 1.391 . S
C408 C423 1.437 . S
H409 C406 0.929 . S
O410 Gd366 2.545 . S
O410 C425 1.258 . S
O411 Gd366 2.606 1_554 S
O411 Gd367 2.362 . S
O411 C422 1.284 1_554 S
O412 Gd367 2.324 . S
O412 C432 1.254 . S
O413 Gd366 2.429 1_554 S
O413 C432 1.268 . S
O414 Gd366 2.545 . S
O414 C422 1.250 . S
O415 Gd366 2.412 . S
O415 C425 1.252 . S
O416 Gd367 2.545 . S
O416 C434 1.258 . S
O417 Gd366 2.362 1_554 S
O417 Gd367 2.606 . S
O417 C433 1.284 . S
O418 Gd366 2.324 . S
O418 C441 1.254 1_556 S
O419 Gd367 2.429 . S
O419 C441 1.268 . S
O420 Gd367 2.545 . S
O420 C433 1.250 . S
O421 Gd367 2.412 . S
O421 C434 1.252 . S
C422 O411 1.284 1_556 S
C422 O414 1.250 . S
C423 H392 0.929 . S
C423 C408 1.437 . S
C423 C424 1.317 . S
C424 H395 0.930 . S
C424 C400 1.431 . S
C424 C423 1.317 . S
C425 Gd366 2.828 . S
C425 O410 1.258 . S
C425 O415 1.252 . S
C425 C426 1.497 . S
C426 C425 1.497 . S
C426 C427 1.395 . S
C426 C428 1.380 . S
C427 C426 1.395 . S
C427 C430 1.398 . S
C427 H442 0.930 . S
C428 C426 1.380 . S
C428 C429 1.391 . S
C428 H443 0.930 . S
C429 C428 1.391 . S
C429 C431 1.387 . S
C430 C427 1.398 . S
C430 C431 1.380 . S
C430 H444 0.930 . S
C431 C429 1.387 . S
C431 C430 1.380 . S
C431 H445 0.930 . S
C432 O412 1.254 . S
C432 O413 1.268 . S
C433 O417 1.284 . S
C433 O420 1.250 . S
C434 Gd367 2.828 . S
C434 O416 1.258 . S
C434 O421 1.252 . S
C434 C435 1.497 . S
C435 C434 1.497 . S
C435 C436 1.395 . S
C435 C437 1.380 . S
C436 C435 1.395 . S
C436 C439 1.398 . S
C436 H446 0.930 . S
C437 C435 1.380 . S
C437 C438 1.391 . S
C437 H447 0.930 . S
C438 C437 1.391 . S
C438 C440 1.387 . S
C439 C436 1.398 . S
C439 C440 1.380 . S
C439 H448 0.930 . S
C440 C438 1.387 . S
C440 C439 1.380 . S
C440 H449 0.930 . S
C441 O418 1.254 1_554 S
C441 O419 1.268 . S
H442 C427 0.930 . S
H443 C428 0.930 . S
H444 C430 0.930 . S
H445 C431 0.930 . S
H446 C436 0.930 . S
H447 C437 0.930 . S
H448 C439 0.930 . S
H449 C440 0.930 . S
Gd450 N481 2.661 . S
Gd450 N487 2.601 . S
Gd450 O494 2.545 . S
Gd450 O495 2.606 . S
Gd450 O497 2.429 . S
Gd450 O498 2.545 . S
Gd450 O499 2.412 . S
Gd450 O501 2.362 . S
Gd450 O502 2.324 . S
Gd450 C509 2.828 . S
Gd451 N460 2.661 . S
Gd451 N464 2.601 . S
Gd451 O495 2.362 . S
Gd451 O496 2.324 . S
Gd451 O500 2.545 . S
Gd451 O501 2.606 . S
Gd451 O503 2.429 . S
Gd451 O504 2.545 . S
Gd451 O505 2.412 . S
Gd451 C518 2.828 . S
C452 C455 1.417 . S
C452 C457 1.431 . S
C452 C458 1.412 . S
C453 C456 1.437 . S
C453 C457 1.317 . S
C453 H472 0.929 . S
C454 C455 1.426 . S
C454 C456 1.413 . S
C454 N464 1.359 . S
C455 C452 1.417 . S
C455 C454 1.426 . S
C455 N460 1.350 . S
C456 C453 1.437 . S
C456 C454 1.413 . S
C456 C466 1.391 . S
C457 C452 1.431 . S
C457 C453 1.317 . S
C457 H468 0.930 . S
C458 C452 1.412 . S
C458 C459 1.355 . S
C458 H470 0.930 . S
C459 C458 1.355 . S
C459 C461 1.402 . S
C459 H471 0.930 . S
N460 Gd451 2.661 . S
N460 C455 1.350 . S
N460 C461 1.307 . S
C461 C459 1.402 . S
C461 N460 1.307 . S
C461 H462 0.930 . S
H462 C461 0.930 . S
C463 N464 1.334 . S
C463 C465 1.394 . S
C463 H467 0.930 . S
N464 Gd451 2.601 . S
N464 C454 1.359 . S
N464 C463 1.334 . S
C465 C463 1.394 . S
C465 C466 1.359 . S
C465 H477 0.930 . S
C466 C456 1.391 . S
C466 C465 1.359 . S
C466 H478 0.929 . S
H467 C463 0.930 . S
H468 C457 0.930 . S
H469 C486 0.930 . S
H470 C458 0.930 . S
H471 C459 0.930 . S
H472 C453 0.929 . S
H473 C491 0.930 . S
H474 C482 0.930 . S
H475 C483 0.930 . S
H476 C507 0.929 . S
H477 C465 0.930 . S
H478 C466 0.929 . S
H479 C508 0.930 . S
H480 C489 0.930 . S
N481 Gd450 2.661 . S
N481 C485 1.350 . S
N481 C486 1.307 . S
C482 H474 0.930 . S
C482 C483 1.355 . S
C482 C484 1.412 . S
C483 H475 0.930 . S
C483 C482 1.355 . S
C483 C486 1.402 . S
C484 C482 1.412 . S
C484 C485 1.417 . S
C484 C508 1.431 . S
C485 N481 1.350 . S
C485 C484 1.417 . S
C485 C488 1.426 . S
C486 H469 0.930 . S
C486 N481 1.307 . S
C486 C483 1.402 . S
N487 Gd450 2.601 . S
N487 C488 1.359 . S
N487 C491 1.334 . S
C488 C485 1.426 . S
C488 N487 1.359 . S
C488 C492 1.413 . S
C489 H480 0.930 . S
C489 C490 1.359 . S
C489 C491 1.394 . S
C490 C489 1.359 . S
C490 C492 1.391 . S
C490 H493 0.929 . S
C491 H473 0.930 . S
C491 N487 1.334 . S
C491 C489 1.394 . S
C492 C488 1.413 . S
C492 C490 1.391 . S
C492 C507 1.437 . S
H493 C490 0.929 . S
O494 Gd450 2.545 . S
O494 C509 1.258 . S
O495 Gd450 2.606 . S
O495 Gd451 2.362 . S
O495 C506 1.284 . S
O496 Gd451 2.324 . S
O496 C516 1.254 . S
O497 Gd450 2.429 . S
O497 C516 1.268 . S
O498 Gd450 2.545 . S
O498 C506 1.250 . S
O499 Gd450 2.412 . S
O499 C509 1.252 . S
O500 Gd451 2.545 . S
O500 C518 1.258 . S
O501 Gd450 2.362 . S
O501 Gd451 2.606 . S
O501 C517 1.284 . S
O502 Gd450 2.324 . S
O502 C525 1.254 . S
O503 Gd451 2.429 . S
O503 C525 1.268 . S
O504 Gd451 2.545 . S
O504 C517 1.250 . S
O505 Gd451 2.412 . S
O505 C518 1.252 . S
C506 O495 1.284 . S
C506 O498 1.250 . S
C507 H476 0.929 . S
C507 C492 1.437 . S
C507 C508 1.317 . S
C508 H479 0.930 . S
C508 C484 1.431 . S
C508 C507 1.317 . S
C509 Gd450 2.828 . S
C509 O494 1.258 . S
C509 O499 1.252 . S
C509 C510 1.497 . S
C510 C509 1.497 . S
C510 C511 1.395 . S
C510 C512 1.380 . S
C511 C510 1.395 . S
C511 C514 1.398 . S
C511 H526 0.930 . S
C512 C510 1.380 . S
C512 C513 1.391 . S
C512 H527 0.930 . S
C513 C512 1.391 . S
C513 C515 1.387 . S
C514 C511 1.398 . S
C514 C515 1.380 . S
C514 H528 0.930 . S
C515 C513 1.387 . S
C515 C514 1.380 . S
C515 H529 0.930 . S
C516 O496 1.254 . S
C516 O497 1.268 . S
C517 O501 1.284 . S
C517 O504 1.250 . S
C518 Gd451 2.828 . S
C518 O500 1.258 . S
C518 O505 1.252 . S
C518 C519 1.497 . S
C519 C518 1.497 . S
C519 C520 1.395 . S
C519 C521 1.380 . S
C520 C519 1.395 . S
C520 C523 1.398 . S
C520 H530 0.930 . S
C521 C519 1.380 . S
C521 C522 1.391 . S
C521 H531 0.930 . S
C522 C521 1.391 . S
C522 C524 1.387 . S
C523 C520 1.398 . S
C523 C524 1.380 . S
C523 H532 0.930 . S
C524 C522 1.387 . S
C524 C523 1.380 . S
C524 H533 0.930 . S
C525 O502 1.254 . S
C525 O503 1.268 . S
H526 C511 0.930 . S
H527 C512 0.930 . S
H528 C514 0.930 . S
H529 C515 0.930 . S
H530 C520 0.930 . S
H531 C521 0.930 . S
H532 C523 0.930 . S
H533 C524 0.930 . S
Gd534 N565 2.661 . S
Gd534 N571 2.601 . S
Gd534 O578 2.545 . S
Gd534 O579 2.606 . S
Gd534 O581 2.429 . S
Gd534 O582 2.545 . S
Gd534 O583 2.412 . S
Gd534 O585 2.362 . S
Gd534 O586 2.324 . S
Gd534 C593 2.828 . S
Gd535 N544 2.661 . S
Gd535 N548 2.601 . S
Gd535 O579 2.362 . S
Gd535 O580 2.324 . S
Gd535 O584 2.545 . S
Gd535 O585 2.606 . S
Gd535 O587 2.429 . S
Gd535 O588 2.545 . S
Gd535 O589 2.412 . S
Gd535 C602 2.828 . S
C536 C539 1.417 . S
C536 C541 1.431 . S
C536 C542 1.412 . S
C537 C540 1.437 . S
C537 C541 1.317 . S
C537 H556 0.929 . S
C538 C539 1.426 . S
C538 C540 1.413 . S
C538 N548 1.359 . S
C539 C536 1.417 . S
C539 C538 1.426 . S
C539 N544 1.350 . S
C540 C537 1.437 . S
C540 C538 1.413 . S
C540 C550 1.391 . S
C541 C536 1.431 . S
C541 C537 1.317 . S
C541 H552 0.930 . S
C542 C536 1.412 . S
C542 C543 1.355 . S
C542 H554 0.930 . S
C543 C542 1.355 . S
C543 C545 1.402 . S
C543 H555 0.930 . S
N544 Gd535 2.661 . S
N544 C539 1.350 . S
N544 C545 1.307 . S
C545 C543 1.402 . S
C545 N544 1.307 . S
C545 H546 0.930 . S
H546 C545 0.930 . S
C547 N548 1.334 . S
C547 C549 1.394 . S
C547 H551 0.930 . S
N548 Gd535 2.601 . S
N548 C538 1.359 . S
N548 C547 1.334 . S
C549 C547 1.394 . S
C549 C550 1.359 . S
C549 H561 0.930 . S
C550 C540 1.391 . S
C550 C549 1.359 . S
C550 H562 0.929 . S
H551 C547 0.930 . S
H552 C541 0.930 . S
H553 C570 0.930 . S
H554 C542 0.930 . S
H555 C543 0.930 . S
H556 C537 0.929 . S
H557 C575 0.930 . S
H558 C566 0.930 . S
H559 C567 0.930 . S
H560 C591 0.929 . S
H561 C549 0.930 . S
H562 C550 0.929 . S
H563 C592 0.930 . S
H564 C573 0.930 . S
N565 Gd534 2.661 . S
N565 C569 1.350 . S
N565 C570 1.307 . S
C566 H558 0.930 . S
C566 C567 1.355 . S
C566 C568 1.412 . S
C567 H559 0.930 . S
C567 C566 1.355 . S
C567 C570 1.402 . S
C568 C566 1.412 . S
C568 C569 1.417 . S
C568 C592 1.431 . S
C569 N565 1.350 . S
C569 C568 1.417 . S
C569 C572 1.426 . S
C570 H553 0.930 . S
C570 N565 1.307 . S
C570 C567 1.402 . S
N571 Gd534 2.601 . S
N571 C572 1.359 . S
N571 C575 1.334 . S
C572 C569 1.426 . S
C572 N571 1.359 . S
C572 C576 1.413 . S
C573 H564 0.930 . S
C573 C574 1.359 . S
C573 C575 1.394 . S
C574 C573 1.359 . S
C574 C576 1.391 . S
C574 H577 0.929 . S
C575 H557 0.930 . S
C575 N571 1.334 . S
C575 C573 1.394 . S
C576 C572 1.413 . S
C576 C574 1.391 . S
C576 C591 1.437 . S
H577 C574 0.929 . S
O578 Gd534 2.545 . S
O578 C593 1.258 . S
O579 Gd534 2.606 . S
O579 Gd535 2.362 . S
O579 C590 1.284 . S
O580 Gd535 2.324 . S
O580 C600 1.254 . S
O581 Gd534 2.429 . S
O581 C600 1.268 . S
O582 Gd534 2.545 . S
O582 C590 1.250 . S
O583 Gd534 2.412 . S
O583 C593 1.252 . S
O584 Gd535 2.545 . S
O584 C602 1.258 . S
O585 Gd534 2.362 . S
O585 Gd535 2.606 . S
O585 C601 1.284 . S
O586 Gd534 2.324 . S
O586 C609 1.254 . S
O587 Gd535 2.429 . S
O587 C609 1.268 . S
O588 Gd535 2.545 . S
O588 C601 1.250 . S
O589 Gd535 2.412 . S
O589 C602 1.252 . S
C590 O579 1.284 . S
C590 O582 1.250 . S
C591 H560 0.929 . S
C591 C576 1.437 . S
C591 C592 1.317 . S
C592 H563 0.930 . S
C592 C568 1.431 . S
C592 C591 1.317 . S
C593 Gd534 2.828 . S
C593 O578 1.258 . S
C593 O583 1.252 . S
C593 C594 1.497 . S
C594 C593 1.497 . S
C594 C595 1.395 . S
C594 C596 1.380 . S
C595 C594 1.395 . S
C595 C598 1.398 . S
C595 H610 0.930 . S
C596 C594 1.380 . S
C596 C597 1.391 . S
C596 H611 0.930 . S
C597 C596 1.391 . S
C597 C599 1.387 . S
C598 C595 1.398 . S
C598 C599 1.380 . S
C598 H612 0.930 . S
C599 C597 1.387 . S
C599 C598 1.380 . S
C599 H613 0.930 . S
C600 O580 1.254 . S
C600 O581 1.268 . S
C601 O585 1.284 . S
C601 O588 1.250 . S
C602 Gd535 2.828 . S
C602 O584 1.258 . S
C602 O589 1.252 . S
C602 C603 1.497 . S
C603 C602 1.497 . S
C603 C604 1.395 . S
C603 C605 1.380 . S
C604 C603 1.395 . S
C604 C607 1.398 . S
C604 H614 0.930 . S
C605 C603 1.380 . S
C605 C606 1.391 . S
C605 H615 0.930 . S
C606 C605 1.391 . S
C606 C608 1.387 . S
C607 C604 1.398 . S
C607 C608 1.380 . S
C607 H616 0.930 . S
C608 C606 1.387 . S
C608 C607 1.380 . S
C608 H617 0.930 . S
C609 O586 1.254 . S
C609 O587 1.268 . S
H610 C595 0.930 . S
H611 C596 0.930 . S
H612 C598 0.930 . S
H613 C599 0.930 . S
H614 C604 0.930 . S
H615 C605 0.930 . S
H616 C607 0.930 . S
H617 C608 0.930 . S
Gd618 N649 2.661 . S
Gd618 N655 2.601 . S
Gd618 O662 2.545 . S
Gd618 O663 2.606 . S
Gd618 O665 2.429 . S
Gd618 O666 2.545 . S
Gd618 O667 2.412 . S
Gd618 O669 2.362 . S
Gd618 O670 2.324 . S
Gd618 C677 2.828 . S
Gd619 N628 2.661 . S
Gd619 N632 2.601 . S
Gd619 O663 2.362 . S
Gd619 O664 2.324 . S
Gd619 O668 2.545 . S
Gd619 O669 2.606 . S
Gd619 O671 2.429 . S
Gd619 O672 2.545 . S
Gd619 O673 2.412 . S
Gd619 C686 2.828 . S
C620 C623 1.417 . S
C620 C625 1.431 . S
C620 C626 1.412 . S
C621 C624 1.437 . S
C621 C625 1.317 . S
C621 H640 0.929 . S
C622 C623 1.426 . S
C622 C624 1.413 . S
C622 N632 1.359 . S
C623 C620 1.417 . S
C623 C622 1.426 . S
C623 N628 1.350 . S
C624 C621 1.437 . S
C624 C622 1.413 . S
C624 C634 1.391 . S
C625 C620 1.431 . S
C625 C621 1.317 . S
C625 H636 0.930 . S
C626 C620 1.412 . S
C626 C627 1.355 . S
C626 H638 0.930 . S
C627 C626 1.355 . S
C627 C629 1.402 . S
C627 H639 0.930 . S
N628 Gd619 2.661 . S
N628 C623 1.350 . S
N628 C629 1.307 . S
C629 C627 1.402 . S
C629 N628 1.307 . S
C629 H630 0.930 . S
H630 C629 0.930 . S
C631 N632 1.334 . S
C631 C633 1.394 . S
C631 H635 0.930 . S
N632 Gd619 2.601 . S
N632 C622 1.359 . S
N632 C631 1.334 . S
C633 C631 1.394 . S
C633 C634 1.359 . S
C633 H645 0.930 . S
C634 C624 1.391 . S
C634 C633 1.359 . S
C634 H646 0.929 . S
H635 C631 0.930 . S
H636 C625 0.930 . S
H637 C654 0.930 . S
H638 C626 0.930 . S
H639 C627 0.930 . S
H640 C621 0.929 . S
H641 C659 0.930 . S
H642 C650 0.930 . S
H643 C651 0.930 . S
H644 C675 0.929 . S
H645 C633 0.930 . S
H646 C634 0.929 . S
H647 C676 0.930 . S
H648 C657 0.930 . S
N649 Gd618 2.661 . S
N649 C653 1.350 . S
N649 C654 1.307 . S
C650 H642 0.930 . S
C650 C651 1.355 . S
C650 C652 1.412 . S
C651 H643 0.930 . S
C651 C650 1.355 . S
C651 C654 1.402 . S
C652 C650 1.412 . S
C652 C653 1.417 . S
C652 C676 1.431 . S
C653 N649 1.350 . S
C653 C652 1.417 . S
C653 C656 1.426 . S
C654 H637 0.930 . S
C654 N649 1.307 . S
C654 C651 1.402 . S
N655 Gd618 2.601 . S
N655 C656 1.359 . S
N655 C659 1.334 . S
C656 C653 1.426 . S
C656 N655 1.359 . S
C656 C660 1.413 . S
C657 H648 0.930 . S
C657 C658 1.359 . S
C657 C659 1.394 . S
C658 C657 1.359 . S
C658 C660 1.391 . S
C658 H661 0.929 . S
C659 H641 0.930 . S
C659 N655 1.334 . S
C659 C657 1.394 . S
C660 C656 1.413 . S
C660 C658 1.391 . S
C660 C675 1.437 . S
H661 C658 0.929 . S
O662 Gd618 2.545 . S
O662 C677 1.258 . S
O663 Gd618 2.606 . S
O663 Gd619 2.362 . S
O663 C674 1.284 . S
O664 Gd619 2.324 . S
O664 C684 1.254 . S
O665 Gd618 2.429 . S
O665 C684 1.268 . S
O666 Gd618 2.545 . S
O666 C674 1.250 . S
O667 Gd618 2.412 . S
O667 C677 1.252 . S
O668 Gd619 2.545 . S
O668 C686 1.258 . S
O669 Gd618 2.362 . S
O669 Gd619 2.606 . S
O669 C685 1.284 . S
O670 Gd618 2.324 . S
O670 C693 1.254 . S
O671 Gd619 2.429 . S
O671 C693 1.268 . S
O672 Gd619 2.545 . S
O672 C685 1.250 . S
O673 Gd619 2.412 . S
O673 C686 1.252 . S
C674 O663 1.284 . S
C674 O666 1.250 . S
C675 H644 0.929 . S
C675 C660 1.437 . S
C675 C676 1.317 . S
C676 H647 0.930 . S
C676 C652 1.431 . S
C676 C675 1.317 . S
C677 Gd618 2.828 . S
C677 O662 1.258 . S
C677 O667 1.252 . S
C677 C678 1.497 . S
C678 C677 1.497 . S
C678 C679 1.395 . S
C678 C680 1.380 . S
C679 C678 1.395 . S
C679 C682 1.398 . S
C679 H694 0.930 . S
C680 C678 1.380 . S
C680 C681 1.391 . S
C680 H695 0.930 . S
C681 C680 1.391 . S
C681 C683 1.387 . S
C682 C679 1.398 . S
C682 C683 1.380 . S
C682 H696 0.930 . S
C683 C681 1.387 . S
C683 C682 1.380 . S
C683 H697 0.930 . S
C684 O664 1.254 . S
C684 O665 1.268 . S
C685 O669 1.284 . S
C685 O672 1.250 . S
C686 Gd619 2.828 . S
C686 O668 1.258 . S
C686 O673 1.252 . S
C686 C687 1.497 . S
C687 C686 1.497 . S
C687 C688 1.395 . S
C687 C689 1.380 . S
C688 C687 1.395 . S
C688 C691 1.398 . S
C688 H698 0.930 . S
C689 C687 1.380 . S
C689 C690 1.391 . S
C689 H699 0.930 . S
C690 C689 1.391 . S
C690 C692 1.387 . S
C691 C688 1.398 . S
C691 C692 1.380 . S
C691 H700 0.930 . S
C692 C690 1.387 . S
C692 C691 1.380 . S
C692 H701 0.930 . S
C693 O670 1.254 . S
C693 O671 1.268 . S
H694 C679 0.930 . S
H695 C680 0.930 . S
H696 C682 0.930 . S
H697 C683 0.930 . S
H698 C688 0.930 . S
H699 C689 0.930 . S
H700 C691 0.930 . S
H701 C692 0.930 . S
Gd702 N733 2.661 . S
Gd702 N739 2.601 . S
Gd702 O746 2.545 . S
Gd702 O747 2.606 . S
Gd702 O749 2.429 . S
Gd702 O750 2.545 . S
Gd702 O751 2.412 . S
Gd702 O753 2.362 . S
Gd702 O754 2.324 . S
Gd702 C761 2.828 . S
Gd703 N712 2.661 . S
Gd703 N716 2.601 . S
Gd703 O747 2.362 . S
Gd703 O748 2.324 . S
Gd703 O752 2.545 . S
Gd703 O753 2.606 . S
Gd703 O755 2.429 . S
Gd703 O756 2.545 . S
Gd703 O757 2.412 . S
Gd703 C770 2.828 . S
C704 C707 1.417 . S
C704 C709 1.431 . S
C704 C710 1.412 . S
C705 C708 1.437 . S
C705 C709 1.317 . S
C705 H724 0.929 . S
C706 C707 1.426 . S
C706 C708 1.413 . S
C706 N716 1.359 . S
C707 C704 1.417 . S
C707 C706 1.426 . S
C707 N712 1.350 . S
C708 C705 1.437 . S
C708 C706 1.413 . S
C708 C718 1.391 . S
C709 C704 1.431 . S
C709 C705 1.317 . S
C709 H720 0.930 . S
C710 C704 1.412 . S
C710 C711 1.355 . S
C710 H722 0.930 . S
C711 C710 1.355 . S
C711 C713 1.402 . S
C711 H723 0.930 . S
N712 Gd703 2.661 . S
N712 C707 1.350 . S
N712 C713 1.307 . S
C713 C711 1.402 . S
C713 N712 1.307 . S
C713 H714 0.930 . S
H714 C713 0.930 . S
C715 N716 1.334 . S
C715 C717 1.394 . S
C715 H719 0.930 . S
N716 Gd703 2.601 . S
N716 C706 1.359 . S
N716 C715 1.334 . S
C717 C715 1.394 . S
C717 C718 1.359 . S
C717 H729 0.930 . S
C718 C708 1.391 . S
C718 C717 1.359 . S
C718 H730 0.929 . S
H719 C715 0.930 . S
H720 C709 0.930 . S
H721 C738 0.930 . S
H722 C710 0.930 . S
H723 C711 0.930 . S
H724 C705 0.929 . S
H725 C743 0.930 . S
H726 C734 0.930 . S
H727 C735 0.930 . S
H728 C759 0.929 . S
H729 C717 0.930 . S
H730 C718 0.929 . S
H731 C760 0.930 . S
H732 C741 0.930 . S
N733 Gd702 2.661 . S
N733 C737 1.350 . S
N733 C738 1.307 . S
C734 H726 0.930 . S
C734 C735 1.355 . S
C734 C736 1.412 . S
C735 H727 0.930 . S
C735 C734 1.355 . S
C735 C738 1.402 . S
C736 C734 1.412 . S
C736 C737 1.417 . S
C736 C760 1.431 . S
C737 N733 1.350 . S
C737 C736 1.417 . S
C737 C740 1.426 . S
C738 H721 0.930 . S
C738 N733 1.307 . S
C738 C735 1.402 . S
N739 Gd702 2.601 . S
N739 C740 1.359 . S
N739 C743 1.334 . S
C740 C737 1.426 . S
C740 N739 1.359 . S
C740 C744 1.413 . S
C741 H732 0.930 . S
C741 C742 1.359 . S
C741 C743 1.394 . S
C742 C741 1.359 . S
C742 C744 1.391 . S
C742 H745 0.929 . S
C743 H725 0.930 . S
C743 N739 1.334 . S
C743 C741 1.394 . S
C744 C740 1.413 . S
C744 C742 1.391 . S
C744 C759 1.437 . S
H745 C742 0.929 . S
O746 Gd702 2.545 . S
O746 C761 1.258 . S
O747 Gd702 2.606 . S
O747 Gd703 2.362 . S
O747 C758 1.284 . S
O748 Gd703 2.324 . S
O748 C768 1.254 . S
O749 Gd702 2.429 . S
O749 C768 1.268 . S
O750 Gd702 2.545 . S
O750 C758 1.250 . S
O751 Gd702 2.412 . S
O751 C761 1.252 . S
O752 Gd703 2.545 . S
O752 C770 1.258 . S
O753 Gd702 2.362 . S
O753 Gd703 2.606 . S
O753 C769 1.284 . S
O754 Gd702 2.324 . S
O754 C777 1.254 . S
O755 Gd703 2.429 . S
O755 C777 1.268 . S
O756 Gd703 2.545 . S
O756 C769 1.250 . S
O757 Gd703 2.412 . S
O757 C770 1.252 . S
C758 O747 1.284 . S
C758 O750 1.250 . S
C759 H728 0.929 . S
C759 C744 1.437 . S
C759 C760 1.317 . S
C760 H731 0.930 . S
C760 C736 1.431 . S
C760 C759 1.317 . S
C761 Gd702 2.828 . S
C761 O746 1.258 . S
C761 O751 1.252 . S
C761 C762 1.497 . S
C762 C761 1.497 . S
C762 C763 1.395 . S
C762 C764 1.380 . S
C763 C762 1.395 . S
C763 C766 1.398 . S
C763 H778 0.930 . S
C764 C762 1.380 . S
C764 C765 1.391 . S
C764 H779 0.930 . S
C765 C764 1.391 . S
C765 C767 1.387 . S
C766 C763 1.398 . S
C766 C767 1.380 . S
C766 H780 0.930 . S
C767 C765 1.387 . S
C767 C766 1.380 . S
C767 H781 0.930 . S
C768 O748 1.254 . S
C768 O749 1.268 . S
C769 O753 1.284 . S
C769 O756 1.250 . S
C770 Gd703 2.828 . S
C770 O752 1.258 . S
C770 O757 1.252 . S
C770 C771 1.497 . S
C771 C770 1.497 . S
C771 C772 1.395 . S
C771 C773 1.380 . S
C772 C771 1.395 . S
C772 C775 1.398 . S
C772 H782 0.930 . S
C773 C771 1.380 . S
C773 C774 1.391 . S
C773 H783 0.930 . S
C774 C773 1.391 . S
C774 C776 1.387 . S
C775 C772 1.398 . S
C775 C776 1.380 . S
C775 H784 0.930 . S
C776 C774 1.387 . S
C776 C775 1.380 . S
C776 H785 0.930 . S
C777 O754 1.254 . S
C777 O755 1.268 . S
H778 C763 0.930 . S
H779 C764 0.930 . S
H780 C766 0.930 . S
H781 C767 0.930 . S
H782 C772 0.930 . S
H783 C773 0.930 . S
H784 C775 0.930 . S
H785 C776 0.930 . S
Gd786 N817 2.661 . S
Gd786 N823 2.601 . S
Gd786 O830 2.545 . S
Gd786 O831 2.606 . S
Gd786 O833 2.429 . S
Gd786 O834 2.545 . S
Gd786 O835 2.412 . S
Gd786 O837 2.362 . S
Gd786 O838 2.324 . S
Gd786 C845 2.828 . S
Gd787 N796 2.661 . S
Gd787 N800 2.601 . S
Gd787 O831 2.362 . S
Gd787 O832 2.324 . S
Gd787 O836 2.545 . S
Gd787 O837 2.606 . S
Gd787 O839 2.429 . S
Gd787 O840 2.545 . S
Gd787 O841 2.412 . S
Gd787 C854 2.828 . S
C788 C791 1.417 . S
C788 C793 1.431 . S
C788 C794 1.412 . S
C789 C792 1.437 . S
C789 C793 1.317 . S
C789 H808 0.929 . S
C790 C791 1.426 . S
C790 C792 1.413 . S
C790 N800 1.359 . S
C791 C788 1.417 . S
C791 C790 1.426 . S
C791 N796 1.350 . S
C792 C789 1.437 . S
C792 C790 1.413 . S
C792 C802 1.391 . S
C793 C788 1.431 . S
C793 C789 1.317 . S
C793 H804 0.930 . S
C794 C788 1.412 . S
C794 C795 1.355 . S
C794 H806 0.930 . S
C795 C794 1.355 . S
C795 C797 1.402 . S
C795 H807 0.930 . S
N796 Gd787 2.661 . S
N796 C791 1.350 . S
N796 C797 1.307 . S
C797 C795 1.402 . S
C797 N796 1.307 . S
C797 H798 0.930 . S
H798 C797 0.930 . S
C799 N800 1.334 . S
C799 C801 1.394 . S
C799 H803 0.930 . S
N800 Gd787 2.601 . S
N800 C790 1.359 . S
N800 C799 1.334 . S
C801 C799 1.394 . S
C801 C802 1.359 . S
C801 H813 0.930 . S
C802 C792 1.391 . S
C802 C801 1.359 . S
C802 H814 0.929 . S
H803 C799 0.930 . S
H804 C793 0.930 . S
H805 C822 0.930 . S
H806 C794 0.930 . S
H807 C795 0.930 . S
H808 C789 0.929 . S
H809 C827 0.930 . S
H810 C818 0.930 . S
H811 C819 0.930 . S
H812 C843 0.929 . S
H813 C801 0.930 . S
H814 C802 0.929 . S
H815 C844 0.930 . S
H816 C825 0.930 . S
N817 Gd786 2.661 . S
N817 C821 1.350 . S
N817 C822 1.307 . S
C818 H810 0.930 . S
C818 C819 1.355 . S
C818 C820 1.412 . S
C819 H811 0.930 . S
C819 C818 1.355 . S
C819 C822 1.402 . S
C820 C818 1.412 . S
C820 C821 1.417 . S
C820 C844 1.431 . S
C821 N817 1.350 . S
C821 C820 1.417 . S
C821 C824 1.426 . S
C822 H805 0.930 . S
C822 N817 1.307 . S
C822 C819 1.402 . S
N823 Gd786 2.601 . S
N823 C824 1.359 . S
N823 C827 1.334 . S
C824 C821 1.426 . S
C824 N823 1.359 . S
C824 C828 1.413 . S
C825 H816 0.930 . S
C825 C826 1.359 . S
C825 C827 1.394 . S
C826 C825 1.359 . S
C826 C828 1.391 . S
C826 H829 0.929 . S
C827 H809 0.930 . S
C827 N823 1.334 . S
C827 C825 1.394 . S
C828 C824 1.413 . S
C828 C826 1.391 . S
C828 C843 1.437 . S
H829 C826 0.929 . S
O830 Gd786 2.545 . S
O830 C845 1.258 . S
O831 Gd786 2.606 . S
O831 Gd787 2.362 . S
O831 C842 1.284 . S
O832 Gd787 2.324 . S
O832 C852 1.254 . S
O833 Gd786 2.429 . S
O833 C852 1.268 . S
O834 Gd786 2.545 . S
O834 C842 1.250 . S
O835 Gd786 2.412 . S
O835 C845 1.252 . S
O836 Gd787 2.545 . S
O836 C854 1.258 . S
O837 Gd786 2.362 . S
O837 Gd787 2.606 . S
O837 C853 1.284 . S
O838 Gd786 2.324 . S
O838 C861 1.254 . S
O839 Gd787 2.429 . S
O839 C861 1.268 . S
O840 Gd787 2.545 . S
O840 C853 1.250 . S
O841 Gd787 2.412 . S
O841 C854 1.252 . S
C842 O831 1.284 . S
C842 O834 1.250 . S
C843 H812 0.929 . S
C843 C828 1.437 . S
C843 C844 1.317 . S
C844 H815 0.930 . S
C844 C820 1.431 . S
C844 C843 1.317 . S
C845 Gd786 2.828 . S
C845 O830 1.258 . S
C845 O835 1.252 . S
C845 C846 1.497 . S
C846 C845 1.497 . S
C846 C847 1.395 . S
C846 C848 1.380 . S
C847 C846 1.395 . S
C847 C850 1.398 . S
C847 H862 0.930 . S
C848 C846 1.380 . S
C848 C849 1.391 . S
C848 H863 0.930 . S
C849 C848 1.391 . S
C849 C851 1.387 . S
C850 C847 1.398 . S
C850 C851 1.380 . S
C850 H864 0.930 . S
C851 C849 1.387 . S
C851 C850 1.380 . S
C851 H865 0.930 . S
C852 O832 1.254 . S
C852 O833 1.268 . S
C853 O837 1.284 . S
C853 O840 1.250 . S
C854 Gd787 2.828 . S
C854 O836 1.258 . S
C854 O841 1.252 . S
C854 C855 1.497 . S
C855 C854 1.497 . S
C855 C856 1.395 . S
C855 C857 1.380 . S
C856 C855 1.395 . S
C856 C859 1.398 . S
C856 H866 0.930 . S
C857 C855 1.380 . S
C857 C858 1.391 . S
C857 H867 0.930 . S
C858 C857 1.391 . S
C858 C860 1.387 . S
C859 C856 1.398 . S
C859 C860 1.380 . S
C859 H868 0.930 . S
C860 C858 1.387 . S
C860 C859 1.380 . S
C860 H869 0.930 . S
C861 O838 1.254 . S
C861 O839 1.268 . S
H862 C847 0.930 . S
H863 C848 0.930 . S
H864 C850 0.930 . S
H865 C851 0.930 . S
H866 C856 0.930 . S
H867 C857 0.930 . S
H868 C859 0.930 . S
H869 C860 0.930 . S
Gd870 N901 2.661 . S
Gd870 N907 2.601 . S
Gd870 O914 2.545 . S
Gd870 O915 2.606 . S
Gd870 O917 2.429 . S
Gd870 O918 2.545 . S
Gd870 O919 2.412 . S
Gd870 O921 2.362 . S
Gd870 O922 2.324 . S
Gd870 C929 2.828 . S
Gd871 N880 2.661 . S
Gd871 N884 2.601 . S
Gd871 O915 2.362 . S
Gd871 O916 2.324 . S
Gd871 O920 2.545 . S
Gd871 O921 2.606 . S
Gd871 O923 2.429 . S
Gd871 O924 2.545 . S
Gd871 O925 2.412 . S
Gd871 C938 2.828 . S
C872 C875 1.417 . S
C872 C877 1.431 . S
C872 C878 1.412 . S
C873 C876 1.437 . S
C873 C877 1.317 . S
C873 H892 0.929 . S
C874 C875 1.426 . S
C874 C876 1.413 . S
C874 N884 1.359 . S
C875 C872 1.417 . S
C875 C874 1.426 . S
C875 N880 1.350 . S
C876 C873 1.437 . S
C876 C874 1.413 . S
C876 C886 1.391 . S
C877 C872 1.431 . S
C877 C873 1.317 . S
C877 H888 0.930 1_655 S
C878 C872 1.412 . S
C878 C879 1.355 . S
C878 H890 0.930 1_655 S
C879 C878 1.355 . S
C879 C881 1.402 . S
C879 H891 0.930 . S
N880 Gd871 2.661 . S
N880 C875 1.350 . S
N880 C881 1.307 . S
C881 C879 1.402 . S
C881 N880 1.307 . S
C881 H882 0.930 . S
H882 C881 0.930 . S
C883 N884 1.334 . S
C883 C885 1.394 . S
C883 H887 0.930 . S
N884 Gd871 2.601 . S
N884 C874 1.359 . S
N884 C883 1.334 . S
C885 C883 1.394 . S
C885 C886 1.359 . S
C885 H897 0.930 . S
C886 C876 1.391 . S
C886 C885 1.359 . S
C886 H898 0.929 . S
H887 C883 0.930 . S
H888 C877 0.930 1_455 S
H889 C906 0.930 . S
H890 C878 0.930 1_455 S
H891 C879 0.930 . S
H892 C873 0.929 . S
H893 C911 0.930 . S
H894 C902 0.930 . S
H895 C903 0.930 . S
H896 C927 0.929 . S
H897 C885 0.930 . S
H898 C886 0.929 . S
H899 C928 0.930 . S
H900 C909 0.930 . S
N901 Gd870 2.661 . S
N901 C905 1.350 . S
N901 C906 1.307 . S
C902 H894 0.930 . S
C902 C903 1.355 . S
C902 C904 1.412 . S
C903 H895 0.930 . S
C903 C902 1.355 . S
C903 C906 1.402 . S
C904 C902 1.412 . S
C904 C905 1.417 . S
C904 C928 1.431 . S
C905 N901 1.350 . S
C905 C904 1.417 . S
C905 C908 1.426 . S
C906 H889 0.930 . S
C906 N901 1.307 . S
C906 C903 1.402 . S
N907 Gd870 2.601 . S
N907 C908 1.359 . S
N907 C911 1.334 . S
C908 C905 1.426 . S
C908 N907 1.359 . S
C908 C912 1.413 . S
C909 H900 0.930 . S
C909 C910 1.359 . S
C909 C911 1.394 . S
C910 C909 1.359 . S
C910 C912 1.391 . S
C910 H913 0.929 . S
C911 H893 0.930 . S
C911 N907 1.334 . S
C911 C909 1.394 . S
C912 C908 1.413 . S
C912 C910 1.391 . S
C912 C927 1.437 . S
H913 C910 0.929 . S
O914 Gd870 2.545 . S
O914 C929 1.258 . S
O915 Gd870 2.606 . S
O915 Gd871 2.362 . S
O915 C926 1.284 . S
O916 Gd871 2.324 . S
O916 C936 1.254 . S
O917 Gd870 2.429 . S
O917 C936 1.268 . S
O918 Gd870 2.545 . S
O918 C926 1.250 . S
O919 Gd870 2.412 . S
O919 C929 1.252 . S
O920 Gd871 2.545 . S
O920 C938 1.258 . S
O921 Gd870 2.362 . S
O921 Gd871 2.606 . S
O921 C937 1.284 . S
O922 Gd870 2.324 . S
O922 C945 1.254 . S
O923 Gd871 2.429 . S
O923 C945 1.268 . S
O924 Gd871 2.545 . S
O924 C937 1.250 . S
O925 Gd871 2.412 . S
O925 C938 1.252 . S
C926 O915 1.284 . S
C926 O918 1.250 . S
C927 H896 0.929 . S
C927 C912 1.437 . S
C927 C928 1.317 . S
C928 H899 0.930 . S
C928 C904 1.431 . S
C928 C927 1.317 . S
C929 Gd870 2.828 . S
C929 O914 1.258 . S
C929 O919 1.252 . S
C929 C930 1.497 . S
C930 C929 1.497 . S
C930 C931 1.395 . S
C930 C932 1.380 . S
C931 C930 1.395 . S
C931 C934 1.398 . S
C931 H946 0.930 . S
C932 C930 1.380 . S
C932 C933 1.391 . S
C932 H947 0.930 . S
C933 C932 1.391 . S
C933 C935 1.387 . S
C934 C931 1.398 . S
C934 C935 1.380 . S
C934 H948 0.930 . S
C935 C933 1.387 . S
C935 C934 1.380 . S
C935 H949 0.930 . S
C936 O916 1.254 . S
C936 O917 1.268 . S
C937 O921 1.284 . S
C937 O924 1.250 . S
C938 Gd871 2.828 . S
C938 O920 1.258 . S
C938 O925 1.252 . S
C938 C939 1.497 . S
C939 C938 1.497 . S
C939 C940 1.395 . S
C939 C941 1.380 . S
C940 C939 1.395 . S
C940 C943 1.398 . S
C940 H950 0.930 . S
C941 C939 1.380 . S
C941 C942 1.391 . S
C941 H951 0.930 . S
C942 C941 1.391 . S
C942 C944 1.387 . S
C943 C940 1.398 . S
C943 C944 1.380 . S
C943 H952 0.930 . S
C944 C942 1.387 . S
C944 C943 1.380 . S
C944 H953 0.930 . S
C945 O922 1.254 . S
C945 O923 1.268 . S
H946 C931 0.930 . S
H947 C932 0.930 . S
H948 C934 0.930 . S
H949 C935 0.930 . S
H950 C940 0.930 . S
H951 C941 0.930 . S
H952 C943 0.930 . S
H953 C944 0.930 . S
C954 C955 1.391 . S
C954 C956 1.394 . S
C954 H970 0.931 . S
C955 C954 1.391 . S
C955 C959 1.376 . S
C956 C954 1.394 . S
C956 C957 1.369 . S
C956 C960 1.531 . S
C957 C956 1.369 . S
C957 C958 1.410 . S
C957 C965 1.503 . S
C958 C957 1.410 . S
C958 C959 1.392 . S
C958 C961 1.511 . S
C959 C955 1.376 . S
C959 C958 1.392 . S
C959 H971 0.929 . S
C960 C956 1.531 . S
C960 H972 0.960 . S
C960 H973 0.962 . S
C960 H974 0.960 . S
C961 C958 1.511 . S
C961 H975 0.961 . S
C961 H976 0.961 . S
C961 H977 0.961 . S
C962 C963 1.370 . S
C962 C964 1.363 . S
C962 H978 0.931 . S
C963 C962 1.370 . S
C963 C967 1.408 . S
C964 C962 1.363 . S
C964 C965 1.370 . S
C964 C968 1.524 . S
C965 C957 1.503 . S
C965 C964 1.370 . S
C965 C966 1.403 . S
C966 C965 1.403 . S
C966 C967 1.404 . S
C966 C969 1.539 . S
C967 C963 1.408 . S
C967 C966 1.404 . S
C967 H979 0.930 . S
C968 C964 1.524 . S
C968 H980 0.956 . S
C968 H981 0.961 . S
C968 H982 0.948 1_554 S
C969 C966 1.539 . S
C969 H983 0.958 . S
C969 H984 0.961 . S
C969 H985 0.960 . S
H970 C954 0.931 . S
H971 C959 0.929 . S
H972 C960 0.960 . S
H973 C960 0.962 . S
H974 C960 0.960 . S
H975 C961 0.961 . S
H976 C961 0.961 . S
H977 C961 0.961 . S
H978 C962 0.931 . S
H979 C967 0.930 . S
H980 C968 0.956 . S
H981 C968 0.961 . S
H982 C968 0.948 1_556 S
H983 C969 0.958 . S
H984 C969 0.961 . S
H985 C969 0.960 . S
C986 C987 1.391 . S
C986 C988 1.394 . S
C986 H1002 0.931 . S
C987 C986 1.391 . S
C987 C991 1.376 . S
C988 C986 1.394 . S
C988 C989 1.369 . S
C988 C992 1.531 . S
C989 C988 1.369 . S
C989 C990 1.410 . S
C989 C997 1.503 . S
C990 C989 1.410 . S
C990 C991 1.392 . S
C990 C993 1.511 . S
C991 C987 1.376 . S
C991 C990 1.392 . S
C991 H1003 0.929 . S
C992 C988 1.531 . S
C992 H1004 0.960 . S
C992 H1005 0.962 . S
C992 H1006 0.960 . S
C993 C990 1.511 . S
C993 H1007 0.961 . S
C993 H1008 0.961 . S
C993 H1009 0.961 . S
C994 C995 1.370 . S
C994 C996 1.363 . S
C994 H1010 0.931 . S
C995 C994 1.370 . S
C995 C999 1.408 . S
C996 C994 1.363 . S
C996 C997 1.370 . S
C996 C1000 1.524 . S
C997 C989 1.503 . S
C997 C996 1.370 . S
C997 C998 1.403 . S
C998 C997 1.403 . S
C998 C999 1.404 . S
C998 C1001 1.539 . S
C999 C995 1.408 . S
C999 C998 1.404 . S
C999 H1011 0.930 . S
C1000 C996 1.524 . S
C1000 H1012 0.956 . S
C1000 H1013 0.961 . S
C1000 H1014 0.961 . S
C1001 C998 1.539 . S
C1001 H1015 0.958 . S
C1001 H1016 0.961 1_554 S
C1001 H1017 0.960 . S
H1002 C986 0.931 . S
H1003 C991 0.929 . S
H1004 C992 0.960 . S
H1005 C992 0.962 . S
H1006 C992 0.960 . S
H1007 C993 0.961 . S
H1008 C993 0.961 . S
H1009 C993 0.961 . S
H1010 C994 0.931 . S
H1011 C999 0.930 . S
H1012 C1000 0.956 . S
H1013 C1000 0.961 . S
H1014 C1000 0.961 . S
H1015 C1001 0.958 . S
H1016 C1001 0.961 1_556 S
H1017 C1001 0.960 . S
C1018 C1019 1.391 . S
C1018 C1020 1.394 . S
C1018 H1034 0.931 . S
C1019 C1018 1.391 . S
C1019 C1023 1.376 . S
C1020 C1018 1.394 . S
C1020 C1021 1.369 . S
C1020 C1024 1.531 . S
C1021 C1020 1.369 . S
C1021 C1022 1.410 . S
C1021 C1029 1.503 . S
C1022 C1021 1.410 . S
C1022 C1023 1.392 . S
C1022 C1025 1.511 . S
C1023 C1019 1.376 . S
C1023 C1022 1.392 . S
C1023 H1035 0.929 . S
C1024 C1020 1.531 . S
C1024 H1036 0.960 . S
C1024 H1037 0.962 . S
C1024 H1038 0.960 . S
C1025 C1022 1.511 . S
C1025 H1039 0.961 . S
C1025 H1040 0.961 . S
C1025 H1041 0.961 . S
C1026 C1027 1.370 . S
C1026 C1028 1.363 . S
C1026 H1042 0.931 . S
C1027 C1026 1.370 . S
C1027 C1031 1.408 . S
C1028 C1026 1.363 . S
C1028 C1029 1.370 . S
C1028 C1032 1.524 . S
C1029 C1021 1.503 . S
C1029 C1028 1.370 . S
C1029 C1030 1.403 . S
C1030 C1029 1.403 . S
C1030 C1031 1.404 . S
C1030 C1033 1.539 . S
C1031 C1027 1.408 . S
C1031 C1030 1.404 . S
C1031 H1043 0.930 . S
C1032 C1028 1.524 . S
C1032 H1044 0.956 . S
C1032 H1045 0.961 . S
C1032 H1046 0.961 . S
C1033 C1030 1.539 . S
C1033 H1047 0.958 . S
C1033 H1048 0.961 . S
C1033 H1049 0.960 . S
H1034 C1018 0.931 . S
H1035 C1023 0.929 . S
H1036 C1024 0.960 . S
H1037 C1024 0.962 . S
H1038 C1024 0.960 . S
H1039 C1025 0.961 . S
H1040 C1025 0.961 . S
H1041 C1025 0.961 . S
H1042 C1026 0.931 . S
H1043 C1031 0.930 . S
H1044 C1032 0.956 . S
H1045 C1032 0.961 . S
H1046 C1032 0.961 . S
H1047 C1033 0.958 . S
H1048 C1033 0.961 . S
H1049 C1033 0.960 . S
C1050 C1051 1.391 . S
C1050 C1052 1.394 . S
C1050 H1066 0.931 . S
C1051 C1050 1.391 . S
C1051 C1055 1.376 . S
C1052 C1050 1.394 . S
C1052 C1053 1.369 . S
C1052 C1056 1.531 1_556 S
C1053 C1052 1.369 . S
C1053 C1054 1.410 . S
C1053 C1061 1.503 . S
C1054 C1053 1.410 . S
C1054 C1055 1.392 . S
C1054 C1057 1.511 . S
C1055 C1051 1.376 . S
C1055 C1054 1.392 . S
C1055 H1067 0.929 . S
C1056 C1052 1.531 1_554 S
C1056 H1068 0.960 . S
C1056 H1069 0.962 1_554 S
C1056 H1070 0.960 . S
C1057 C1054 1.511 . S
C1057 H1071 0.961 . S
C1057 H1072 0.961 . S
C1057 H1073 0.961 . S
C1058 C1059 1.370 . S
C1058 C1060 1.363 . S
C1058 H1074 0.931 . S
C1059 C1058 1.370 . S
C1059 C1063 1.408 1_556 S
C1060 C1058 1.363 . S
C1060 C1061 1.370 . S
C1060 C1064 1.524 . S
C1061 C1053 1.503 . S
C1061 C1060 1.370 . S
C1061 C1062 1.392 1_556 S
C1062 C1061 1.392 1_554 S
C1062 C1063 1.407 . S
C1062 C1065 1.546 . S
C1063 C1059 1.408 1_554 S
C1063 C1062 1.407 . S
C1063 H1075 0.930 . S
C1064 C1060 1.524 . S
C1064 H1076 0.956 . S
C1064 H1077 0.961 . S
C1064 H1078 0.961 . S
C1065 C1062 1.546 . S
C1065 H1079 0.958 . S
C1065 H1080 0.961 . S
C1065 H1081 0.960 . S
H1066 C1050 0.931 . S
H1067 C1055 0.929 . S
H1068 C1056 0.960 . S
H1069 C1056 0.962 1_556 S
H1070 C1056 0.960 . S
H1071 C1057 0.961 . S
H1072 C1057 0.961 . S
H1073 C1057 0.961 . S
H1074 C1058 0.931 . S
H1075 C1063 0.930 . S
H1076 C1064 0.956 . S
H1077 C1064 0.961 . S
H1078 C1064 0.961 . S
H1079 C1065 0.958 . S
H1080 C1065 0.961 . S
H1081 C1065 0.960 . S
C1082 C1083 1.391 . S
C1082 C1084 1.394 . S
C1082 H1098 0.931 . S
C1083 C1082 1.391 . S
C1083 C1087 1.376 . S
C1084 C1082 1.394 . S
C1084 C1085 1.369 . S
C1084 C1088 1.531 . S
C1085 C1084 1.369 . S
C1085 C1086 1.410 . S
C1085 C1093 1.503 . S
C1086 C1085 1.410 . S
C1086 C1087 1.392 . S
C1086 C1089 1.511 1_556 S
C1087 C1083 1.376 . S
C1087 C1086 1.392 . S
C1087 H1099 0.929 . S
C1088 C1084 1.531 . S
C1088 H1100 0.960 . S
C1088 H1101 0.962 . S
C1088 H1102 0.960 . S
C1089 C1086 1.511 1_554 S
C1089 H1103 0.961 . S
C1089 H1104 0.961 . S
C1089 H1105 0.960 . S
C1090 C1091 1.370 . S
C1090 C1092 1.363 . S
C1090 H1106 0.931 1_556 S
C1091 C1090 1.370 . S
C1091 C1095 1.408 . S
C1092 C1090 1.363 . S
C1092 C1093 1.370 . S
C1092 C1096 1.524 . S
C1093 C1085 1.503 . S
C1093 C1092 1.370 . S
C1093 C1094 1.403 . S
C1094 C1093 1.403 . S
C1094 C1095 1.404 . S
C1094 C1097 1.539 . S
C1095 C1091 1.408 . S
C1095 C1094 1.404 . S
C1095 H1107 0.930 . S
C1096 C1092 1.524 . S
C1096 H1108 0.956 . S
C1096 H1109 0.961 1_556 S
C1096 H1110 0.961 1_556 S
C1097 C1094 1.539 . S
C1097 H1111 0.958 . S
C1097 H1112 0.961 . S
C1097 H1113 0.960 . S
H1098 C1082 0.931 . S
H1099 C1087 0.929 . S
H1100 C1088 0.960 . S
H1101 C1088 0.962 . S
H1102 C1088 0.960 . S
H1103 C1089 0.961 . S
H1104 C1089 0.961 . S
H1105 C1089 0.960 . S
H1106 C1090 0.931 1_554 S
H1107 C1095 0.930 . S
H1108 C1096 0.956 . S
H1109 C1096 0.961 1_554 S
H1110 C1096 0.961 1_554 S
H1111 C1097 0.958 . S
H1112 C1097 0.961 . S
H1113 C1097 0.960 . S
C1114 C1115 1.391 . S
C1114 C1116 1.394 . S
C1114 H1130 0.931 . S
C1115 C1114 1.391 . S
C1115 C1119 1.376 . S
C1116 C1114 1.394 . S
C1116 C1117 1.369 . S
C1116 C1120 1.531 . S
C1117 C1116 1.369 . S
C1117 C1118 1.410 . S
C1117 C1125 1.503 . S
C1118 C1117 1.410 . S
C1118 C1119 1.392 . S
C1118 C1121 1.511 . S
C1119 C1115 1.376 . S
C1119 C1118 1.392 . S
C1119 H1131 0.929 . S
C1120 C1116 1.531 . S
C1120 H1132 0.960 . S
C1120 H1133 0.962 . S
C1120 H1134 0.960 . S
C1121 C1118 1.511 . S
C1121 H1135 0.961 . S
C1121 H1136 0.961 . S
C1121 H1137 0.961 1_556 S
C1122 C1123 1.370 . S
C1122 C1124 1.363 . S
C1122 H1138 0.931 . S
C1123 C1122 1.370 . S
C1123 C1127 1.408 1_556 S
C1124 C1122 1.363 . S
C1124 C1125 1.370 . S
C1124 C1128 1.524 . S
C1125 C1117 1.503 . S
C1125 C1124 1.370 . S
C1125 C1126 1.403 1_556 S
C1126 C1125 1.403 1_554 S
C1126 C1127 1.404 . S
C1126 C1129 1.539 . S
C1127 C1123 1.408 1_554 S
C1127 C1126 1.404 . S
C1127 H1139 0.930 . S
C1128 C1124 1.524 . S
C1128 H1140 0.956 . S
C1128 H1141 0.961 . S
C1128 H1142 0.961 . S
C1129 C1126 1.539 . S
C1129 H1143 0.958 . S
C1129 H1144 0.961 . S
C1129 H1145 0.960 . S
H1130 C1114 0.931 . S
H1131 C1119 0.929 . S
H1132 C1120 0.960 . S
H1133 C1120 0.962 . S
H1134 C1120 0.960 . S
H1135 C1121 0.961 . S
H1136 C1121 0.961 . S
H1137 C1121 0.961 1_554 S
H1138 C1122 0.931 . S
H1139 C1127 0.930 . S
H1140 C1128 0.956 . S
H1141 C1128 0.961 . S
H1142 C1128 0.961 . S
H1143 C1129 0.958 . S
H1144 C1129 0.961 . S
H1145 C1129 0.960 . S
C1146 C1147 1.391 . S
C1146 C1148 1.394 . S
C1146 H1162 0.931 . S
C1147 C1146 1.391 . S
C1147 C1151 1.376 . S
C1148 C1146 1.394 . S
C1148 C1149 1.369 . S
C1148 C1152 1.531 . S
C1149 C1148 1.369 . S
C1149 C1150 1.410 . S
C1149 C1157 1.503 . S
C1150 C1149 1.410 . S
C1150 C1151 1.392 . S
C1150 C1153 1.511 . S
C1151 C1147 1.376 . S
C1151 C1150 1.392 . S
C1151 H1163 0.929 . S
C1152 C1148 1.531 . S
C1152 H1164 0.960 . S
C1152 H1165 0.962 . S
C1152 H1166 0.960 . S
C1153 C1150 1.511 . S
C1153 H1167 0.961 . S
C1153 H1168 0.961 . S
C1153 H1169 0.961 . S
C1154 C1155 1.370 . S
C1154 C1156 1.363 . S
C1154 H1170 0.931 . S
C1155 C1154 1.370 . S
C1155 C1159 1.408 1_556 S
C1156 C1154 1.363 . S
C1156 C1157 1.370 . S
C1156 C1160 1.524 . S
C1157 C1149 1.503 . S
C1157 C1156 1.370 . S
C1157 C1158 1.403 1_556 S
C1158 C1157 1.403 1_554 S
C1158 C1159 1.404 . S
C1158 C1161 1.539 . S
C1159 C1155 1.408 1_554 S
C1159 C1158 1.404 . S
C1159 H1171 0.930 . S
C1160 C1156 1.524 . S
C1160 H1172 0.956 . S
C1160 H1173 0.961 . S
C1160 H1174 0.961 . S
C1161 C1158 1.539 . S
C1161 H1175 0.958 . S
C1161 H1176 0.961 . S
C1161 H1177 0.960 . S
H1162 C1146 0.931 . S
H1163 C1151 0.929 . S
H1164 C1152 0.960 . S
H1165 C1152 0.962 . S
H1166 C1152 0.960 . S
H1167 C1153 0.961 . S
H1168 C1153 0.961 . S
H1169 C1153 0.961 . S
H1170 C1154 0.931 . S
H1171 C1159 0.930 . S
H1172 C1160 0.956 . S
H1173 C1160 0.961 . S
H1174 C1160 0.961 . S
H1175 C1161 0.958 . S
H1176 C1161 0.961 . S
H1177 C1161 0.960 . S
C1178 C1179 1.391 . S
C1178 C1180 1.394 . S
C1178 H1194 0.931 . S
C1179 C1178 1.391 . S
C1179 C1183 1.376 . S
C1180 C1178 1.394 . S
C1180 C1181 1.369 . S
C1180 C1184 1.531 . S
C1181 C1180 1.369 . S
C1181 C1182 1.410 . S
C1181 C1189 1.503 . S
C1182 C1181 1.410 . S
C1182 C1183 1.392 . S
C1182 C1185 1.511 1_556 S
C1183 C1179 1.376 . S
C1183 C1182 1.392 . S
C1183 H1195 0.929 . S
C1184 C1180 1.531 . S
C1184 H1196 0.960 . S
C1184 H1197 0.962 . S
C1184 H1198 0.960 . S
C1185 C1182 1.511 1_554 S
C1185 H1199 0.961 . S
C1185 H1200 0.961 . S
C1185 H1201 0.961 . S
C1186 C1187 1.370 . S
C1186 C1188 1.363 . S
C1186 H1202 0.931 . S
C1187 C1186 1.370 . S
C1187 C1191 1.408 1_556 S
C1188 C1186 1.363 . S
C1188 C1189 1.370 . S
C1188 C1192 1.524 . S
C1189 C1181 1.503 . S
C1189 C1188 1.370 . S
C1189 C1190 1.403 1_556 S
C1190 C1189 1.403 1_554 S
C1190 C1191 1.404 . S
C1190 C1193 1.539 . S
C1191 C1187 1.408 1_554 S
C1191 C1190 1.404 . S
C1191 H1203 0.930 . S
C1192 C1188 1.524 . S
C1192 H1204 0.956 . S
C1192 H1205 0.961 . S
C1192 H1206 0.961 . S
C1193 C1190 1.539 . S
C1193 H1207 0.958 . S
C1193 H1208 0.961 . S
C1193 H1209 0.960 . S
H1194 C1178 0.931 . S
H1195 C1183 0.929 . S
H1196 C1184 0.960 . S
H1197 C1184 0.962 . S
H1198 C1184 0.960 . S
H1199 C1185 0.961 . S
H1200 C1185 0.961 . S
H1201 C1185 0.961 . S
H1202 C1186 0.931 . S
H1203 C1191 0.930 . S
H1204 C1192 0.956 . S
H1205 C1192 0.961 . S
H1206 C1192 0.961 . S
H1207 C1193 0.958 . S
H1208 C1193 0.961 . S
H1209 C1193 0.960 . S
C1210 C1211 1.391 . S
C1210 C1212 1.394 . S
C1210 H1226 0.931 . S
C1211 C1210 1.391 . S
C1211 C1215 1.376 . S
C1212 C1210 1.394 . S
C1212 C1213 1.369 . S
C1212 C1216 1.531 . S
C1213 C1212 1.369 . S
C1213 C1214 1.410 . S
C1213 C1221 1.503 . S
C1214 C1213 1.410 . S
C1214 C1215 1.392 . S
C1214 C1217 1.530 . S
C1215 C1211 1.376 . S
C1215 C1214 1.392 . S
C1215 H1227 0.929 . S
C1216 C1212 1.531 . S
C1216 H1228 0.960 . S
C1216 H1229 0.962 . S
C1216 H1230 0.960 . S
C1217 C1214 1.530 . S
C1217 H1231 0.976 . S
C1217 H1232 0.973 . S
C1217 H1233 0.917 1_556 S
C1218 C1219 1.370 . S
C1218 C1220 1.363 . S
C1218 H1234 0.931 . S
C1219 C1218 1.370 . S
C1219 C1223 1.408 1_556 S
C1220 C1218 1.363 . S
C1220 C1221 1.370 . S
C1220 C1224 1.524 . S
C1221 C1213 1.503 . S
C1221 C1220 1.370 . S
C1221 C1222 1.403 1_556 S
C1222 C1221 1.403 1_554 S
C1222 C1223 1.404 . S
C1222 C1225 1.539 . S
C1223 C1219 1.408 1_554 S
C1223 C1222 1.404 . S
C1223 H1235 0.930 . S
C1224 C1220 1.524 . S
C1224 H1236 0.956 . S
C1224 H1237 0.961 . S
C1224 H1238 0.961 . S
C1225 C1222 1.539 . S
C1225 H1239 0.958 . S
C1225 H1240 0.961 . S
C1225 H1241 0.960 . S
H1226 C1210 0.931 . S
H1227 C1215 0.929 . S
H1228 C1216 0.960 . S
H1229 C1216 0.962 . S
H1230 C1216 0.960 . S
H1231 C1217 0.976 . S
H1232 C1217 0.973 . S
H1233 C1217 0.917 1_554 S
H1234 C1218 0.931 . S
H1235 C1223 0.930 . S
H1236 C1224 0.956 . S
H1237 C1224 0.961 . S
H1238 C1224 0.961 . S
H1239 C1225 0.958 . S
H1240 C1225 0.961 . S
H1241 C1225 0.960 . S
C1242 C1243 1.391 . S
C1242 C1244 1.394 . S
C1242 H1258 0.931 . S
C1243 C1242 1.391 . S
C1243 C1247 1.376 . S
C1244 C1242 1.394 . S
C1244 C1245 1.369 . S
C1244 C1248 1.531 . S
C1245 C1244 1.369 . S
C1245 C1246 1.410 . S
C1245 C1253 1.503 . S
C1246 C1245 1.410 . S
C1246 C1247 1.392 . S
C1246 C1249 1.511 . S
C1247 C1243 1.376 . S
C1247 C1246 1.392 . S
C1247 H1259 0.929 . S
C1248 C1244 1.531 . S
C1248 H1260 0.960 . S
C1248 H1261 0.962 . S
C1248 H1262 0.960 . S
C1249 C1246 1.511 . S
C1249 H1263 0.961 1_554 S
C1249 H1264 0.961 . S
C1249 H1265 0.961 . S
C1250 C1251 1.370 . S
C1250 C1252 1.363 . S
C1250 H1266 0.931 . S
C1251 C1250 1.370 . S
C1251 C1255 1.408 . S
C1252 C1250 1.363 . S
C1252 C1253 1.370 . S
C1252 C1256 1.524 . S
C1253 C1245 1.503 . S
C1253 C1252 1.370 . S
C1253 C1254 1.403 . S
C1254 C1253 1.403 . S
C1254 C1255 1.404 . S
C1254 C1257 1.539 . S
C1255 C1251 1.408 . S
C1255 C1254 1.404 . S
C1255 H1267 0.930 . S
C1256 C1252 1.524 . S
C1256 H1268 0.956 . S
C1256 H1269 0.961 . S
C1256 H1270 0.961 . S
C1257 C1254 1.539 . S
C1257 H1271 0.958 . S
C1257 H1272 0.961 . S
C1257 H1273 0.960 . S
H1258 C1242 0.931 . S
H1259 C1247 0.929 . S
H1260 C1248 0.960 . S
H1261 C1248 0.962 . S
H1262 C1248 0.960 . S
H1263 C1249 0.961 1_556 S
H1264 C1249 0.961 . S
H1265 C1249 0.961 . S
H1266 C1250 0.931 . S
H1267 C1255 0.930 . S
H1268 C1256 0.956 . S
H1269 C1256 0.961 . S
H1270 C1256 0.961 . S
H1271 C1257 0.958 . S
H1272 C1257 0.961 . S
H1273 C1257 0.960 . S
C1274 C1275 1.391 . S
C1274 C1276 1.394 . S
C1274 H1290 0.931 . S
C1275 C1274 1.391 . S
C1275 C1279 1.376 . S
C1276 C1274 1.394 . S
C1276 C1277 1.369 . S
C1276 C1280 1.531 . S
C1277 C1276 1.369 . S
C1277 C1278 1.410 . S
C1277 C1285 1.503 . S
C1278 C1277 1.410 . S
C1278 C1279 1.392 . S
C1278 C1281 1.511 . S
C1279 C1275 1.376 . S
C1279 C1278 1.392 . S
C1279 H1291 0.929 . S
C1280 C1276 1.531 . S
C1280 H1292 0.960 . S
C1280 H1293 0.962 . S
C1280 H1294 0.960 . S
C1281 C1278 1.511 . S
C1281 H1295 0.961 . S
C1281 H1296 0.961 . S
C1281 H1297 0.961 . S
C1282 C1283 1.370 . S
C1282 C1284 1.363 . S
C1282 H1298 0.931 . S
C1283 C1282 1.370 . S
C1283 C1287 1.408 . S
C1284 C1282 1.363 . S
C1284 C1285 1.370 . S
C1284 C1288 1.524 . S
C1285 C1277 1.503 . S
C1285 C1284 1.370 . S
C1285 C1286 1.403 . S
C1286 C1285 1.403 . S
C1286 C1287 1.404 . S
C1286 C1289 1.539 . S
C1287 C1283 1.408 . S
C1287 C1286 1.404 . S
C1287 H1299 0.930 . S
C1288 C1284 1.524 . S
C1288 H1300 0.956 . S
C1288 H1301 0.961 . S
C1288 H1302 0.961 . S
C1289 C1286 1.539 . S
C1289 H1303 0.958 . S
C1289 H1304 0.961 . S
C1289 H1305 0.960 . S
H1290 C1274 0.931 . S
H1291 C1279 0.929 . S
H1292 C1280 0.960 . S
H1293 C1280 0.962 . S
H1294 C1280 0.960 . S
H1295 C1281 0.961 . S
H1296 C1281 0.961 . S
H1297 C1281 0.961 . S
H1298 C1282 0.931 . S
H1299 C1287 0.930 . S
H1300 C1288 0.956 . S
H1301 C1288 0.961 . S
H1302 C1288 0.961 . S
H1303 C1289 0.958 . S
H1304 C1289 0.961 . S
H1305 C1289 0.960 . S
C1306 C1307 1.391 . S
C1306 C1308 1.394 . S
C1306 H1322 0.931 . S
C1307 C1306 1.391 . S
C1307 C1311 1.376 . S
C1308 C1306 1.394 . S
C1308 C1309 1.369 . S
C1308 C1312 1.531 . S
C1309 C1308 1.369 . S
C1309 C1310 1.410 . S
C1309 C1317 1.503 . S
C1310 C1309 1.410 . S
C1310 C1311 1.392 . S
C1310 C1313 1.511 . S
C1311 C1307 1.376 . S
C1311 C1310 1.392 . S
C1311 H1323 0.929 . S
C1312 C1308 1.531 . S
C1312 H1324 0.960 . S
C1312 H1325 0.962 . S
C1312 H1326 0.960 . S
C1313 C1310 1.511 . S
C1313 H1327 0.961 1_554 S
C1313 H1328 0.971 . S
C1313 H1329 0.962 . S
C1314 C1315 1.370 . S
C1314 C1316 1.363 . S
C1314 H1330 0.931 . S
C1315 C1314 1.370 . S
C1315 C1319 1.408 . S
C1316 C1314 1.363 . S
C1316 C1317 1.370 . S
C1316 C1320 1.524 . S
C1317 C1309 1.503 . S
C1317 C1316 1.370 . S
C1317 C1318 1.403 . S
C1318 C1317 1.403 . S
C1318 C1319 1.404 . S
C1318 C1321 1.539 . S
C1319 C1315 1.408 . S
C1319 C1318 1.404 . S
C1319 H1331 0.930 . S
C1320 C1316 1.524 . S
C1320 H1332 0.956 . S
C1320 H1333 0.961 . S
C1320 H1334 0.961 . S
C1321 C1318 1.539 . S
C1321 H1335 0.958 . S
C1321 H1336 0.961 . S
C1321 H1337 0.960 . S
H1322 C1306 0.931 . S
H1323 C1311 0.929 . S
H1324 C1312 0.960 . S
H1325 C1312 0.962 . S
H1326 C1312 0.960 . S
H1327 C1313 0.961 1_556 S
H1328 C1313 0.971 . S
H1329 C1313 0.962 . S
H1330 C1314 0.931 . S
H1331 C1319 0.930 . S
H1332 C1320 0.956 . S
H1333 C1320 0.961 . S
H1334 C1320 0.961 . S
H1335 C1321 0.958 . S
H1336 C1321 0.961 . S
H1337 C1321 0.960 . S
C1338 C1339 1.391 . S
C1338 C1340 1.394 . S
C1338 H1354 0.931 . S
C1339 C1338 1.391 . S
C1339 C1343 1.376 . S
C1340 C1338 1.394 . S
C1340 C1341 1.369 . S
C1340 C1344 1.531 . S
C1341 C1340 1.369 . S
C1341 C1342 1.410 . S
C1341 C1349 1.503 1_655 S
C1342 C1341 1.410 . S
C1342 C1343 1.392 . S
C1342 C1345 1.511 1_655 S
C1343 C1339 1.376 . S
C1343 C1342 1.392 . S
C1343 H1355 0.929 . S
C1344 C1340 1.531 . S
C1344 H1356 0.960 1_655 S
C1344 H1357 0.962 . S
C1344 H1358 0.960 . S
C1345 C1342 1.511 1_455 S
C1345 H1359 0.961 1_455 S
C1345 H1360 0.961 . S
C1345 H1361 0.961 . S
C1346 C1347 1.370 . S
C1346 C1348 1.363 . S
C1346 H1362 0.931 . S
C1347 C1346 1.370 . S
C1347 C1351 1.408 . S
C1348 C1346 1.363 . S
C1348 C1349 1.370 . S
C1348 C1352 1.524 1_455 S
C1349 C1341 1.503 1_455 S
C1349 C1348 1.370 . S
C1349 C1350 1.403 . S
C1350 C1349 1.403 . S
C1350 C1351 1.404 . S
C1350 C1353 1.539 . S
C1351 C1347 1.408 . S
C1351 C1350 1.404 . S
C1351 H1363 0.930 . S
C1352 C1348 1.524 1_655 S
C1352 H1364 0.956 . S
C1352 H1365 0.961 . S
C1352 H1366 0.961 . S
C1353 C1350 1.539 . S
C1353 H1367 0.958 . S
C1353 H1368 0.961 . S
C1353 H1369 0.960 . S
H1354 C1338 0.931 . S
H1355 C1343 0.929 . S
H1356 C1344 0.960 1_455 S
H1357 C1344 0.962 . S
H1358 C1344 0.960 . S
H1359 C1345 0.961 1_655 S
H1360 C1345 0.961 . S
H1361 C1345 0.961 . S
H1362 C1346 0.931 . S
H1363 C1351 0.930 . S
H1364 C1352 0.956 . S
H1365 C1352 0.961 . S
H1366 C1352 0.961 . S
H1367 C1353 0.958 . S
H1368 C1353 0.961 . S
H1369 C1353 0.960 . S
C1370 C1371 1.391 . S
C1370 C1372 1.394 . S
C1370 H1386 0.931 . S
C1371 C1370 1.391 . S
C1371 C1375 1.376 . S
C1372 C1370 1.394 . S
C1372 C1373 1.369 . S
C1372 C1376 1.531 . S
C1373 C1372 1.369 . S
C1373 C1374 1.410 . S
C1373 C1381 1.503 . S
C1374 C1373 1.410 . S
C1374 C1375 1.392 . S
C1374 C1377 1.511 . S
C1375 C1371 1.376 . S
C1375 C1374 1.392 . S
C1375 H1387 0.929 . S
C1376 C1372 1.531 . S
C1376 H1388 0.960 . S
C1376 H1389 0.962 . S
C1376 H1390 0.960 . S
C1377 C1374 1.511 . S
C1377 H1391 0.961 . S
C1377 H1392 0.961 . S
C1377 H1393 0.961 . S
C1378 C1379 1.370 . S
C1378 C1380 1.363 . S
C1378 H1394 0.931 . S
C1379 C1378 1.370 . S
C1379 C1383 1.408 . S
C1380 C1378 1.363 . S
C1380 C1381 1.370 . S
C1380 C1384 1.524 . S
C1381 C1373 1.503 . S
C1381 C1380 1.370 . S
C1381 C1382 1.403 . S
C1382 C1381 1.403 . S
C1382 C1383 1.404 . S
C1382 C1385 1.539 . S
C1383 C1379 1.408 . S
C1383 C1382 1.404 . S
C1383 H1395 0.930 . S
C1384 C1380 1.524 . S
C1384 H1396 0.956 . S
C1384 H1397 0.961 . S
C1384 H1398 0.961 . S
C1385 C1382 1.539 . S
C1385 H1399 0.958 . S
C1385 H1400 0.961 . S
C1385 H1401 0.960 . S
H1386 C1370 0.931 . S
H1387 C1375 0.929 . S
H1388 C1376 0.960 . S
H1389 C1376 0.962 . S
H1390 C1376 0.960 . S
H1391 C1377 0.961 . S
H1392 C1377 0.961 . S
H1393 C1377 0.961 . S
H1394 C1378 0.931 . S
H1395 C1383 0.930 . S
H1396 C1384 0.956 . S
H1397 C1384 0.961 . S
H1398 C1384 0.961 . S
H1399 C1385 0.958 . S
H1400 C1385 0.961 . S
H1401 C1385 0.960 . S
C1402 C1403 1.391 . S
C1402 C1404 1.394 . S
C1402 H1418 0.931 . S
C1403 C1402 1.391 . S
C1403 C1407 1.376 . S
C1404 C1402 1.394 . S
C1404 C1405 1.369 . S
C1404 C1408 1.531 . S
C1405 C1404 1.369 . S
C1405 C1406 1.410 . S
C1405 C1413 1.503 1_545 S
C1406 C1405 1.410 . S
C1406 C1407 1.392 . S
C1406 C1409 1.511 . S
C1407 C1403 1.376 . S
C1407 C1406 1.392 . S
C1407 H1419 0.929 . S
C1408 C1404 1.531 . S
C1408 H1420 0.960 1_545 S
C1408 H1421 0.962 . S
C1408 H1422 0.960 . S
C1409 C1406 1.511 . S
C1409 H1423 0.961 . S
C1409 H1424 0.961 . S
C1409 H1425 0.961 . S
C1410 C1411 1.370 . S
C1410 C1412 1.363 . S
C1410 H1426 0.931 . S
C1411 C1410 1.370 . S
C1411 C1415 1.408 . S
C1412 C1410 1.363 . S
C1412 C1413 1.370 . S
C1412 C1416 1.524 1_565 S
C1413 C1405 1.503 1_565 S
C1413 C1412 1.370 . S
C1413 C1414 1.403 . S
C1414 C1413 1.403 . S
C1414 C1415 1.404 . S
C1414 C1417 1.539 . S
C1415 C1411 1.408 . S
C1415 C1414 1.404 . S
C1415 H1427 0.930 . S
C1416 C1412 1.524 1_545 S
C1416 H1428 0.956 . S
C1416 H1429 0.961 . S
C1416 H1430 0.961 . S
C1417 C1414 1.539 . S
C1417 H1431 0.958 . S
C1417 H1432 0.961 . S
C1417 H1433 0.960 . S
H1418 C1402 0.931 . S
H1419 C1407 0.929 . S
H1420 C1408 0.960 1_565 S
H1421 C1408 0.962 . S
H1422 C1408 0.960 . S
H1423 C1409 0.961 . S
H1424 C1409 0.961 . S
H1425 C1409 0.961 . S
H1426 C1410 0.931 . S
H1427 C1415 0.930 . S
H1428 C1416 0.956 . S
H1429 C1416 0.961 . S
H1430 C1416 0.961 . S
H1431 C1417 0.958 . S
H1432 C1417 0.961 . S
H1433 C1417 0.960 . S
C1434 C1435 1.391 . S
C1434 C1436 1.394 . S
C1434 H1450 0.931 . S
C1435 C1434 1.391 . S
C1435 C1439 1.376 . S
C1436 C1434 1.394 . S
C1436 C1437 1.369 . S
C1436 C1440 1.531 . S
C1437 C1436 1.369 . S
C1437 C1438 1.410 . S
C1437 C1445 1.503 . S
C1438 C1437 1.410 . S
C1438 C1439 1.392 . S
C1438 C1441 1.511 . S
C1439 C1435 1.376 . S
C1439 C1438 1.392 . S
C1439 H1451 0.929 . S
C1440 C1436 1.531 . S
C1440 H1452 0.960 . S
C1440 H1453 0.962 . S
C1440 H1454 0.960 . S
C1441 C1438 1.511 . S
C1441 H1455 0.961 . S
C1441 H1456 0.961 . S
C1441 H1457 0.961 . S
C1442 C1443 1.370 . S
C1442 C1444 1.363 . S
C1442 H1458 0.931 . S
C1443 C1442 1.370 . S
C1443 C1447 1.408 . S
C1444 C1442 1.363 . S
C1444 C1445 1.370 . S
C1444 C1448 1.524 . S
C1445 C1437 1.503 . S
C1445 C1444 1.370 . S
C1445 C1446 1.403 . S
C1446 C1445 1.403 . S
C1446 C1447 1.404 . S
C1446 C1449 1.539 . S
C1447 C1443 1.408 . S
C1447 C1446 1.404 . S
C1447 H1459 0.930 . S
C1448 C1444 1.524 . S
C1448 H1460 0.956 . S
C1448 H1461 0.961 . S
C1448 H1462 0.961 . S
C1449 C1446 1.539 . S
C1449 H1463 0.958 . S
C1449 H1464 0.961 . S
C1449 H1465 0.960 . S
H1450 C1434 0.931 . S
H1451 C1439 0.929 . S
H1452 C1440 0.960 . S
H1453 C1440 0.962 . S
H1454 C1440 0.960 . S
H1455 C1441 0.961 . S
H1456 C1441 0.961 . S
H1457 C1441 0.961 . S
H1458 C1442 0.931 . S
H1459 C1447 0.930 . S
H1460 C1448 0.956 . S
H1461 C1448 0.961 . S
H1462 C1448 0.961 . S
H1463 C1449 0.958 . S
H1464 C1449 0.961 . S
H1465 C1449 0.960 . S
C1466 C1467 1.391 . S
C1466 C1468 1.394 . S
C1466 H1482 0.931 . S
C1467 C1466 1.391 . S
C1467 C1471 1.376 . S
C1468 C1466 1.394 . S
C1468 C1469 1.369 . S
C1468 C1472 1.531 . S
C1469 C1468 1.369 . S
C1469 C1470 1.410 . S
C1469 C1477 1.503 . S
C1470 C1469 1.410 . S
C1470 C1471 1.392 . S
C1470 C1473 1.511 . S
C1471 C1467 1.376 . S
C1471 C1470 1.392 . S
C1471 H1483 0.929 . S
C1472 C1468 1.531 . S
C1472 H1484 0.960 . S
C1472 H1485 0.962 . S
C1472 H1486 0.960 . S
C1473 C1470 1.511 . S
C1473 H1487 0.961 . S
C1473 H1488 0.961 . S
C1473 H1489 0.961 . S
C1474 C1475 1.370 . S
C1474 C1476 1.363 . S
C1474 H1490 0.931 . S
C1475 C1474 1.370 . S
C1475 C1479 1.408 . S
C1476 C1474 1.363 . S
C1476 C1477 1.370 . S
C1476 C1480 1.524 . S
C1477 C1469 1.503 . S
C1477 C1476 1.370 . S
C1477 C1478 1.403 . S
C1478 C1477 1.403 . S
C1478 C1479 1.404 . S
C1478 C1481 1.539 . S
C1479 C1475 1.408 . S
C1479 C1478 1.404 . S
C1479 H1491 0.930 . S
C1480 C1476 1.524 . S
C1480 H1492 0.956 . S
C1480 H1493 0.961 . S
C1480 H1494 0.961 . S
C1481 C1478 1.539 . S
C1481 H1495 0.958 . S
C1481 H1496 0.961 . S
C1481 H1497 0.960 . S
H1482 C1466 0.931 . S
H1483 C1471 0.929 . S
H1484 C1472 0.960 . S
H1485 C1472 0.962 . S
H1486 C1472 0.960 . S
H1487 C1473 0.961 . S
H1488 C1473 0.961 . S
H1489 C1473 0.961 . S
H1490 C1474 0.931 . S
H1491 C1479 0.930 . S
H1492 C1480 0.956 . S
H1493 C1480 0.961 . S
H1494 C1480 0.961 . S
H1495 C1481 0.958 . S
H1496 C1481 0.961 . S
H1497 C1481 0.960 . S
C1498 C1499 1.391 . S
C1498 C1500 1.394 . S
C1498 H1514 0.931 . S
C1499 C1498 1.391 . S
C1499 C1503 1.376 . S
C1500 C1498 1.394 . S
C1500 C1501 1.369 . S
C1500 C1504 1.531 . S
C1501 C1500 1.369 . S
C1501 C1502 1.410 . S
C1501 C1509 1.503 . S
C1502 C1501 1.410 . S
C1502 C1503 1.392 . S
C1502 C1505 1.511 . S
C1503 C1499 1.376 . S
C1503 C1502 1.392 . S
C1503 H1515 0.929 . S
C1504 C1500 1.531 . S
C1504 H1516 0.960 . S
C1504 H1517 0.962 . S
C1504 H1518 0.960 . S
C1505 C1502 1.511 . S
C1505 H1519 0.961 . S
C1505 H1520 0.961 . S
C1505 H1521 0.961 . S
C1506 C1507 1.370 . S
C1506 C1508 1.363 . S
C1506 H1522 0.931 . S
C1507 C1506 1.370 . S
C1507 C1511 1.408 . S
C1508 C1506 1.363 . S
C1508 C1509 1.370 . S
C1508 C1512 1.524 . S
C1509 C1501 1.503 . S
C1509 C1508 1.370 . S
C1509 C1510 1.403 . S
C1510 C1509 1.403 . S
C1510 C1511 1.404 . S
C1510 C1513 1.539 . S
C1511 C1507 1.408 . S
C1511 C1510 1.404 . S
C1511 H1523 0.930 . S
C1512 C1508 1.524 . S
C1512 H1524 0.956 . S
C1512 H1525 0.961 . S
C1512 H1526 0.961 . S
C1513 C1510 1.539 . S
C1513 H1527 0.958 . S
C1513 H1528 0.961 . S
C1513 H1529 0.960 . S
H1514 C1498 0.931 . S
H1515 C1503 0.929 . S
H1516 C1504 0.960 . S
H1517 C1504 0.962 . S
H1518 C1504 0.960 . S
H1519 C1505 0.961 . S
H1520 C1505 0.961 . S
H1521 C1505 0.961 . S
H1522 C1506 0.931 . S
H1523 C1511 0.930 . S
H1524 C1512 0.956 . S
H1525 C1512 0.961 . S
H1526 C1512 0.961 . S
H1527 C1513 0.958 . S
H1528 C1513 0.961 . S
H1529 C1513 0.960 . S
C1530 C1531 1.391 . S
C1530 C1532 1.394 . S
C1530 H1546 0.931 . S
C1531 C1530 1.391 . S
C1531 C1535 1.376 . S
C1532 C1530 1.394 . S
C1532 C1533 1.369 . S
C1532 C1536 1.531 . S
C1533 C1532 1.369 . S
C1533 C1534 1.410 . S
C1533 C1541 1.503 . S
C1534 C1533 1.410 . S
C1534 C1535 1.392 . S
C1534 C1537 1.511 . S
C1535 C1531 1.376 . S
C1535 C1534 1.392 . S
C1535 H1547 0.929 . S
C1536 C1532 1.531 . S
C1536 H1548 0.960 . S
C1536 H1549 0.962 . S
C1536 H1550 0.960 . S
C1537 C1534 1.511 . S
C1537 H1551 0.961 . S
C1537 H1552 0.961 . S
C1537 H1553 0.961 . S
C1538 C1539 1.370 . S
C1538 C1540 1.363 . S
C1538 H1554 0.931 . S
C1539 C1538 1.370 . S
C1539 C1543 1.408 . S
C1540 C1538 1.363 . S
C1540 C1541 1.370 . S
C1540 C1544 1.524 . S
C1541 C1533 1.503 . S
C1541 C1540 1.370 . S
C1541 C1542 1.403 . S
C1542 C1541 1.403 . S
C1542 C1543 1.404 . S
C1542 C1545 1.539 . S
C1543 C1539 1.408 . S
C1543 C1542 1.404 . S
C1543 H1555 0.930 . S
C1544 C1540 1.524 . S
C1544 H1556 0.956 . S
C1544 H1557 0.961 . S
C1544 H1558 0.961 . S
C1545 C1542 1.539 . S
C1545 H1559 0.958 . S
C1545 H1560 0.961 . S
C1545 H1561 0.960 . S
H1546 C1530 0.931 . S
H1547 C1535 0.929 . S
H1548 C1536 0.960 . S
H1549 C1536 0.962 . S
H1550 C1536 0.960 . S
H1551 C1537 0.961 . S
H1552 C1537 0.961 . S
H1553 C1537 0.961 . S
H1554 C1538 0.931 . S
H1555 C1543 0.930 . S
H1556 C1544 0.956 . S
H1557 C1544 0.961 . S
H1558 C1544 0.961 . S
H1559 C1545 0.958 . S
H1560 C1545 0.961 . S
H1561 C1545 0.960 . S
C1562 C1563 1.391 . S
C1562 C1564 1.394 . S
C1562 H1578 0.931 . S
C1563 C1562 1.391 . S
C1563 C1567 1.376 . S
C1564 C1562 1.394 . S
C1564 C1565 1.369 . S
C1564 C1568 1.531 . S
C1565 C1564 1.369 . S
C1565 C1566 1.410 . S
C1565 C1573 1.503 . S
C1566 C1565 1.410 . S
C1566 C1567 1.392 . S
C1566 C1569 1.511 . S
C1567 C1563 1.376 . S
C1567 C1566 1.392 . S
C1567 H1579 0.929 . S
C1568 C1564 1.531 . S
C1568 H1580 0.960 . S
C1568 H1581 0.962 . S
C1568 H1582 0.960 . S
C1569 C1566 1.511 . S
C1569 H1583 0.961 . S
C1569 H1584 0.961 . S
C1569 H1585 0.961 . S
C1570 C1571 1.370 . S
C1570 C1572 1.363 . S
C1570 H1586 0.931 . S
C1571 C1570 1.370 . S
C1571 C1575 1.408 . S
C1572 C1570 1.363 . S
C1572 C1573 1.370 . S
C1572 C1576 1.524 . S
C1573 C1565 1.503 . S
C1573 C1572 1.370 . S
C1573 C1574 1.403 . S
C1574 C1573 1.403 . S
C1574 C1575 1.404 . S
C1574 C1577 1.539 . S
C1575 C1571 1.408 . S
C1575 C1574 1.404 . S
C1575 H1587 0.930 . S
C1576 C1572 1.524 . S
C1576 H1588 0.956 . S
C1576 H1589 0.961 . S
C1576 H1590 0.961 . S
C1577 C1574 1.539 . S
C1577 H1591 0.958 . S
C1577 H1592 0.961 . S
C1577 H1593 0.960 . S
H1578 C1562 0.931 . S
H1579 C1567 0.929 . S
H1580 C1568 0.960 . S
H1581 C1568 0.962 . S
H1582 C1568 0.960 . S
H1583 C1569 0.961 . S
H1584 C1569 0.961 . S
H1585 C1569 0.961 . S
H1586 C1570 0.931 . S
H1587 C1575 0.930 . S
H1588 C1576 0.956 . S
H1589 C1576 0.961 . S
H1590 C1576 0.961 . S
H1591 C1577 0.958 . S
H1592 C1577 0.961 . S
H1593 C1577 0.960 . S
C1594 C1595 1.391 . S
C1594 C1596 1.394 . S
C1594 H1610 0.931 . S
C1595 C1594 1.391 . S
C1595 C1599 1.376 . S
C1596 C1594 1.394 . S
C1596 C1597 1.369 . S
C1596 C1600 1.531 . S
C1597 C1596 1.369 . S
C1597 C1598 1.410 . S
C1597 C1605 1.503 . S
C1598 C1597 1.410 . S
C1598 C1599 1.392 . S
C1598 C1601 1.511 . S
C1599 C1595 1.376 . S
C1599 C1598 1.392 . S
C1599 H1611 0.929 . S
C1600 C1596 1.531 . S
C1600 H1612 0.960 . S
C1600 H1613 0.962 . S
C1600 H1614 0.960 . S
C1601 C1598 1.511 . S
C1601 H1615 0.961 . S
C1601 H1616 0.961 . S
C1601 H1617 0.961 . S
C1602 C1603 1.370 . S
C1602 C1604 1.363 . S
C1602 H1618 0.931 . S
C1603 C1602 1.370 . S
C1603 C1607 1.408 . S
C1604 C1602 1.363 . S
C1604 C1605 1.370 . S
C1604 C1608 1.524 . S
C1605 C1597 1.503 . S
C1605 C1604 1.370 . S
C1605 C1606 1.403 . S
C1606 C1605 1.403 . S
C1606 C1607 1.404 . S
C1606 C1609 1.539 . S
C1607 C1603 1.408 . S
C1607 C1606 1.404 . S
C1607 H1619 0.930 . S
C1608 C1604 1.524 . S
C1608 H1620 0.956 . S
C1608 H1621 0.961 . S
C1608 H1622 0.961 . S
C1609 C1606 1.539 . S
C1609 H1623 0.958 . S
C1609 H1624 0.961 . S
C1609 H1625 0.960 . S
H1610 C1594 0.931 . S
H1611 C1599 0.929 . S
H1612 C1600 0.960 . S
H1613 C1600 0.962 . S
H1614 C1600 0.960 . S
H1615 C1601 0.961 . S
H1616 C1601 0.961 . S
H1617 C1601 0.961 . S
H1618 C1602 0.931 . S
H1619 C1607 0.930 . S
H1620 C1608 0.956 . S
H1621 C1608 0.961 . S
H1622 C1608 0.961 . S
H1623 C1609 0.958 . S
H1624 C1609 0.961 . S
H1625 C1609 0.960 . S
C1626 C1627 1.391 . S
C1626 C1628 1.394 1_545 S
C1626 H1642 0.931 . S
C1627 C1626 1.391 . S
C1627 C1631 1.376 . S
C1628 C1626 1.394 1_565 S
C1628 C1629 1.369 . S
C1628 C1632 1.531 . S
C1629 C1628 1.369 . S
C1629 C1630 1.410 . S
C1629 C1637 1.503 . S
C1630 C1629 1.410 . S
C1630 C1631 1.392 1_565 S
C1630 C1633 1.511 . S
C1631 C1627 1.376 . S
C1631 C1630 1.392 1_545 S
C1631 H1643 0.929 . S
C1632 C1628 1.531 . S
C1632 H1644 0.960 . S
C1632 H1645 0.962 . S
C1632 H1646 0.960 . S
C1633 C1630 1.511 . S
C1633 H1647 0.961 . S
C1633 H1648 0.961 . S
C1633 H1649 0.961 . S
C1634 C1635 1.370 . S
C1634 C1636 1.363 . S
C1634 H1650 0.931 . S
C1635 C1634 1.370 . S
C1635 C1639 1.408 . S
C1636 C1634 1.363 . S
C1636 C1637 1.370 . S
C1636 C1640 1.524 . S
C1637 C1629 1.503 . S
C1637 C1636 1.370 . S
C1637 C1638 1.403 . S
C1638 C1637 1.403 . S
C1638 C1639 1.404 . S
C1638 C1641 1.539 . S
C1639 C1635 1.408 . S
C1639 C1638 1.404 . S
C1639 H1651 0.930 . S
C1640 C1636 1.524 . S
C1640 H1652 0.956 . S
C1640 H1653 0.961 . S
C1640 H1654 0.961 . S
C1641 C1638 1.539 . S
C1641 H1655 0.958 . S
C1641 H1656 0.961 . S
C1641 H1657 0.960 . S
H1642 C1626 0.931 . S
H1643 C1631 0.929 . S
H1644 C1632 0.960 . S
H1645 C1632 0.962 . S
H1646 C1632 0.960 . S
H1647 C1633 0.961 . S
H1648 C1633 0.961 . S
H1649 C1633 0.961 . S
H1650 C1634 0.931 . S
H1651 C1639 0.930 . S
H1652 C1640 0.956 . S
H1653 C1640 0.961 . S
H1654 C1640 0.961 . S
H1655 C1641 0.958 . S
H1656 C1641 0.961 . S
H1657 C1641 0.960 . S
C1658 C1659 1.391 1_455 S
C1658 C1660 1.394 . S
C1658 H1674 0.931 1_455 S
C1659 C1658 1.391 1_655 S
C1659 C1663 1.376 1_655 S
C1660 C1658 1.394 . S
C1660 C1661 1.369 . S
C1660 C1664 1.531 . S
C1661 C1660 1.369 . S
C1661 C1662 1.410 . S
C1661 C1669 1.503 . S
C1662 C1661 1.410 . S
C1662 C1663 1.392 . S
C1662 C1665 1.511 . S
C1663 C1659 1.376 1_455 S
C1663 C1662 1.392 . S
C1663 H1675 0.929 . S
C1664 C1660 1.531 . S
C1664 H1676 0.960 . S
C1664 H1677 0.962 . S
C1664 H1678 0.960 . S
C1665 C1662 1.511 . S
C1665 H1679 0.961 . S
C1665 H1680 0.961 . S
C1665 H1681 0.961 . S
C1666 C1667 1.370 . S
C1666 C1668 1.363 . S
C1666 H1682 0.931 . S
C1667 C1666 1.370 . S
C1667 C1671 1.408 . S
C1668 C1666 1.363 . S
C1668 C1669 1.370 . S
C1668 C1672 1.524 . S
C1669 C1661 1.503 . S
C1669 C1668 1.370 . S
C1669 C1670 1.403 . S
C1670 C1669 1.403 . S
C1670 C1671 1.404 . S
C1670 C1673 1.539 . S
C1671 C1667 1.408 . S
C1671 C1670 1.404 . S
C1671 H1683 0.930 . S
C1672 C1668 1.524 . S
C1672 H1684 0.956 . S
C1672 H1685 0.961 . S
C1672 H1686 0.961 . S
C1673 C1670 1.539 . S
C1673 H1687 0.958 . S
C1673 H1688 0.961 . S
C1673 H1689 0.960 . S
H1674 C1658 0.931 1_655 S
H1675 C1663 0.929 . S
H1676 C1664 0.960 . S
H1677 C1664 0.962 . S
H1678 C1664 0.960 . S
H1679 C1665 0.961 . S
H1680 C1665 0.961 . S
H1681 C1665 0.961 . S
H1682 C1666 0.931 . S
H1683 C1671 0.930 . S
H1684 C1672 0.956 . S
H1685 C1672 0.961 . S
H1686 C1672 0.961 . S
H1687 C1673 0.958 . S
H1688 C1673 0.961 . S
H1689 C1673 0.960 . S
C1690 C1691 1.391 . S
C1690 C1692 1.394 . S
C1690 H1706 0.931 . S
C1691 C1690 1.391 . S
C1691 C1695 1.376 . S
C1692 C1690 1.394 . S
C1692 C1693 1.369 . S
C1692 C1696 1.531 . S
C1693 C1692 1.369 . S
C1693 C1694 1.410 . S
C1693 C1701 1.503 . S
C1694 C1693 1.410 . S
C1694 C1695 1.392 . S
C1694 C1697 1.511 . S
C1695 C1691 1.376 . S
C1695 C1694 1.392 . S
C1695 H1707 0.929 . S
C1696 C1692 1.531 . S
C1696 H1708 0.960 . S
C1696 H1709 0.962 . S
C1696 H1710 0.960 . S
C1697 C1694 1.511 . S
C1697 H1711 0.961 . S
C1697 H1712 0.961 . S
C1697 H1713 0.961 . S
C1698 C1699 1.370 . S
C1698 C1700 1.363 . S
C1698 H1714 0.931 . S
C1699 C1698 1.370 . S
C1699 C1703 1.408 . S
C1700 C1698 1.363 . S
C1700 C1701 1.370 . S
C1700 C1704 1.524 . S
C1701 C1693 1.503 . S
C1701 C1700 1.370 . S
C1701 C1702 1.403 . S
C1702 C1701 1.403 . S
C1702 C1703 1.404 . S
C1702 C1705 1.539 . S
C1703 C1699 1.408 . S
C1703 C1702 1.404 . S
C1703 H1715 0.930 . S
C1704 C1700 1.524 . S
C1704 H1716 0.956 . S
C1704 H1717 0.961 . S
C1704 H1718 0.961 . S
C1705 C1702 1.539 . S
C1705 H1719 0.958 . S
C1705 H1720 0.961 . S
C1705 H1721 0.960 . S
H1706 C1690 0.931 . S
H1707 C1695 0.929 . S
H1708 C1696 0.960 . S
H1709 C1696 0.962 . S
H1710 C1696 0.960 . S
H1711 C1697 0.961 . S
H1712 C1697 0.961 . S
H1713 C1697 0.961 . S
H1714 C1698 0.931 . S
H1715 C1703 0.930 . S
H1716 C1704 0.956 . S
H1717 C1704 0.961 . S
H1718 C1704 0.961 . S
H1719 C1705 0.958 . S
H1720 C1705 0.961 . S
H1721 C1705 0.960 . S
C1722 C1723 1.391 . S
C1722 C1724 1.394 . S
C1722 H1738 0.931 . S
C1723 C1722 1.391 . S
C1723 C1727 1.376 . S
C1724 C1722 1.394 . S
C1724 C1725 1.369 . S
C1724 C1728 1.531 . S
C1725 C1724 1.369 . S
C1725 C1726 1.410 . S
C1725 C1733 1.503 . S
C1726 C1725 1.410 . S
C1726 C1727 1.392 . S
C1726 C1729 1.511 . S
C1727 C1723 1.376 . S
C1727 C1726 1.392 . S
C1727 H1739 0.929 . S
C1728 C1724 1.531 . S
C1728 H1740 0.960 . S
C1728 H1741 0.962 . S
C1728 H1742 0.960 . S
C1729 C1726 1.511 . S
C1729 H1743 0.961 . S
C1729 H1744 0.961 . S
C1729 H1745 0.961 . S
C1730 C1731 1.370 . S
C1730 C1732 1.363 . S
C1730 H1746 0.931 . S
C1731 C1730 1.370 . S
C1731 C1735 1.408 . S
C1732 C1730 1.363 . S
C1732 C1733 1.370 . S
C1732 C1736 1.524 . S
C1733 C1725 1.503 . S
C1733 C1732 1.370 . S
C1733 C1734 1.403 . S
C1734 C1733 1.403 . S
C1734 C1735 1.404 . S
C1734 C1737 1.539 . S
C1735 C1731 1.408 . S
C1735 C1734 1.404 . S
C1735 H1747 0.930 . S
C1736 C1732 1.524 . S
C1736 H1748 0.956 . S
C1736 H1749 0.961 . S
C1736 H1750 0.961 . S
C1737 C1734 1.539 . S
C1737 H1751 0.958 . S
C1737 H1752 0.961 . S
C1737 H1753 0.960 . S
H1738 C1722 0.931 . S
H1739 C1727 0.929 . S
H1740 C1728 0.960 . S
H1741 C1728 0.962 . S
H1742 C1728 0.960 . S
H1743 C1729 0.961 . S
H1744 C1729 0.961 . S
H1745 C1729 0.961 . S
H1746 C1730 0.931 . S
H1747 C1735 0.930 . S
H1748 C1736 0.956 . S
H1749 C1736 0.961 . S
H1750 C1736 0.961 . S
H1751 C1737 0.958 . S
H1752 C1737 0.961 . S
H1753 C1737 0.960 . S
C1754 C1755 1.391 . S
C1754 C1756 1.394 . S
C1754 H1770 0.931 . S
C1755 C1754 1.391 . S
C1755 C1759 1.376 . S
C1756 C1754 1.394 . S
C1756 C1757 1.369 . S
C1756 C1760 1.531 . S
C1757 C1756 1.369 . S
C1757 C1758 1.410 . S
C1757 C1765 1.503 . S
C1758 C1757 1.410 . S
C1758 C1759 1.392 . S
C1758 C1761 1.511 . S
C1759 C1755 1.376 . S
C1759 C1758 1.392 . S
C1759 H1771 0.929 . S
C1760 C1756 1.531 . S
C1760 H1772 0.960 . S
C1760 H1773 0.962 . S
C1760 H1774 0.960 . S
C1761 C1758 1.511 . S
C1761 H1775 0.961 . S
C1761 H1776 0.961 . S
C1761 H1777 0.961 . S
C1762 C1763 1.370 . S
C1762 C1764 1.363 . S
C1762 H1778 0.931 . S
C1763 C1762 1.370 . S
C1763 C1767 1.408 . S
C1764 C1762 1.363 . S
C1764 C1765 1.370 . S
C1764 C1768 1.524 . S
C1765 C1757 1.503 . S
C1765 C1764 1.370 . S
C1765 C1766 1.403 . S
C1766 C1765 1.403 . S
C1766 C1767 1.404 . S
C1766 C1769 1.539 . S
C1767 C1763 1.408 . S
C1767 C1766 1.404 . S
C1767 H1779 0.930 . S
C1768 C1764 1.524 . S
C1768 H1780 0.956 . S
C1768 H1781 0.961 . S
C1768 H1782 0.961 . S
C1769 C1766 1.539 . S
C1769 H1783 0.958 . S
C1769 H1784 0.961 . S
C1769 H1785 0.960 . S
H1770 C1754 0.931 . S
H1771 C1759 0.929 . S
H1772 C1760 0.960 . S
H1773 C1760 0.962 . S
H1774 C1760 0.960 . S
H1775 C1761 0.961 . S
H1776 C1761 0.961 . S
H1777 C1761 0.961 . S
H1778 C1762 0.931 . S
H1779 C1767 0.930 . S
H1780 C1768 0.956 . S
H1781 C1768 0.961 . S
H1782 C1768 0.961 . S
H1783 C1769 0.958 . S
H1784 C1769 0.961 . S
H1785 C1769 0.960 . S
C1786 C1787 1.391 . S
C1786 C1788 1.394 . S
C1786 H1802 0.931 . S
C1787 C1786 1.391 . S
C1787 C1791 1.376 . S
C1788 C1786 1.394 . S
C1788 C1789 1.369 . S
C1788 C1792 1.531 . S
C1789 C1788 1.369 . S
C1789 C1790 1.410 . S
C1789 C1797 1.503 . S
C1790 C1789 1.410 . S
C1790 C1791 1.392 . S
C1790 C1793 1.511 . S
C1791 C1787 1.376 . S
C1791 C1790 1.392 . S
C1791 H1803 0.929 . S
C1792 C1788 1.531 . S
C1792 H1804 0.960 . S
C1792 H1805 0.962 . S
C1792 H1806 0.960 . S
C1793 C1790 1.511 . S
C1793 H1807 0.961 . S
C1793 H1808 0.961 . S
C1793 H1809 0.961 . S
C1794 C1795 1.370 . S
C1794 C1796 1.363 . S
C1794 H1810 0.931 . S
C1795 C1794 1.370 . S
C1795 C1799 1.408 . S
C1796 C1794 1.363 . S
C1796 C1797 1.370 . S
C1796 C1800 1.524 . S
C1797 C1789 1.503 . S
C1797 C1796 1.370 . S
C1797 C1798 1.403 . S
C1798 C1797 1.403 . S
C1798 C1799 1.404 . S
C1798 C1801 1.539 . S
C1799 C1795 1.408 . S
C1799 C1798 1.404 . S
C1799 H1811 0.930 . S
C1800 C1796 1.524 . S
C1800 H1812 0.956 . S
C1800 H1813 0.961 . S
C1800 H1814 0.961 . S
C1801 C1798 1.539 . S
C1801 H1815 0.958 . S
C1801 H1816 0.961 . S
C1801 H1817 0.960 . S
H1802 C1786 0.931 . S
H1803 C1791 0.929 . S
H1804 C1792 0.960 . S
H1805 C1792 0.962 . S
H1806 C1792 0.960 . S
H1807 C1793 0.961 . S
H1808 C1793 0.961 . S
H1809 C1793 0.961 . S
H1810 C1794 0.931 . S
H1811 C1799 0.930 . S
H1812 C1800 0.956 . S
H1813 C1800 0.961 . S
H1814 C1800 0.961 . S
H1815 C1801 0.958 . S
H1816 C1801 0.961 . S
H1817 C1801 0.960 . S
C1818 C1819 1.391 . S
C1818 C1820 1.394 . S
C1818 H1834 0.931 . S
C1819 C1818 1.391 . S
C1819 C1823 1.376 . S
C1820 C1818 1.394 . S
C1820 C1821 1.369 . S
C1820 C1824 1.531 1_565 S
C1821 C1820 1.369 . S
C1821 C1822 1.410 . S
C1821 C1829 1.503 1_565 S
C1822 C1821 1.410 . S
C1822 C1823 1.392 . S
C1822 C1825 1.511 . S
C1823 C1819 1.376 . S
C1823 C1822 1.392 . S
C1823 H1835 0.929 . S
C1824 C1820 1.531 1_545 S
C1824 H1836 0.960 . S
C1824 H1837 0.962 . S
C1824 H1838 0.960 . S
C1825 C1822 1.511 . S
C1825 H1839 0.961 . S
C1825 H1840 0.961 . S
C1825 H1841 0.961 . S
C1826 C1827 1.370 . S
C1826 C1828 1.363 . S
C1826 H1842 0.931 . S
C1827 C1826 1.370 . S
C1827 C1831 1.408 . S
C1828 C1826 1.363 . S
C1828 C1829 1.370 . S
C1828 C1832 1.524 . S
C1829 C1821 1.503 1_545 S
C1829 C1828 1.370 . S
C1829 C1830 1.403 . S
C1830 C1829 1.403 . S
C1830 C1831 1.404 . S
C1830 C1833 1.539 . S
C1831 C1827 1.408 . S
C1831 C1830 1.404 . S
C1831 H1843 0.930 . S
C1832 C1828 1.524 . S
C1832 H1844 0.956 . S
C1832 H1845 0.961 . S
C1832 H1846 0.961 . S
C1833 C1830 1.539 . S
C1833 H1847 0.958 . S
C1833 H1848 0.961 . S
C1833 H1849 0.960 1_545 S
H1834 C1818 0.931 . S
H1835 C1823 0.929 . S
H1836 C1824 0.960 . S
H1837 C1824 0.962 . S
H1838 C1824 0.960 . S
H1839 C1825 0.961 . S
H1840 C1825 0.961 . S
H1841 C1825 0.961 . S
H1842 C1826 0.931 . S
H1843 C1831 0.930 . S
H1844 C1832 0.956 . S
H1845 C1832 0.961 . S
H1846 C1832 0.961 . S
H1847 C1833 0.958 . S
H1848 C1833 0.961 . S
H1849 C1833 0.960 1_565 S
C1850 C1851 1.391 . S
C1850 C1852 1.394 . S
C1850 H1866 0.931 . S
C1851 C1850 1.391 . S
C1851 C1855 1.376 . S
C1852 C1850 1.394 . S
C1852 C1853 1.369 . S
C1852 C1856 1.531 . S
C1853 C1852 1.369 . S
C1853 C1854 1.410 . S
C1853 C1861 1.503 1_455 S
C1854 C1853 1.410 . S
C1854 C1855 1.392 . S
C1854 C1857 1.511 . S
C1855 C1851 1.376 . S
C1855 C1854 1.392 . S
C1855 H1867 0.929 . S
C1856 C1852 1.531 . S
C1856 H1868 0.960 1_455 S
C1856 H1869 0.962 . S
C1856 H1870 0.960 . S
C1857 C1854 1.511 . S
C1857 H1871 0.961 . S
C1857 H1872 0.961 . S
C1857 H1873 0.961 1_455 S
C1858 C1859 1.370 . S
C1858 C1860 1.363 . S
C1858 H1874 0.931 . S
C1859 C1858 1.370 . S
C1859 C1863 1.408 . S
C1860 C1858 1.363 . S
C1860 C1861 1.370 . S
C1860 C1864 1.524 1_655 S
C1861 C1853 1.503 1_655 S
C1861 C1860 1.370 . S
C1861 C1862 1.403 . S
C1862 C1861 1.403 . S
C1862 C1863 1.404 . S
C1862 C1865 1.539 . S
C1863 C1859 1.408 . S
C1863 C1862 1.404 . S
C1863 H1875 0.930 . S
C1864 C1860 1.524 1_455 S
C1864 H1876 0.956 . S
C1864 H1877 0.961 . S
C1864 H1878 0.961 . S
C1865 C1862 1.539 . S
C1865 H1879 0.958 . S
C1865 H1880 0.961 . S
C1865 H1881 0.960 . S
H1866 C1850 0.931 . S
H1867 C1855 0.929 . S
H1868 C1856 0.960 1_655 S
H1869 C1856 0.962 . S
H1870 C1856 0.960 . S
H1871 C1857 0.961 . S
H1872 C1857 0.961 . S
H1873 C1857 0.961 1_655 S
H1874 C1858 0.931 . S
H1875 C1863 0.930 . S
H1876 C1864 0.956 . S
H1877 C1864 0.961 . S
H1878 C1864 0.961 . S
H1879 C1865 0.958 . S
H1880 C1865 0.961 . S
H1881 C1865 0.960 . S
C1882 C1883 1.391 . S
C1882 C1884 1.394 . S
C1882 H1898 0.931 . S
C1883 C1882 1.391 . S
C1883 C1887 1.376 . S
C1884 C1882 1.394 . S
C1884 C1885 1.369 . S
C1884 C1888 1.531 . S
C1885 C1884 1.369 . S
C1885 C1886 1.410 . S
C1885 C1893 1.503 . S
C1886 C1885 1.410 . S
C1886 C1887 1.392 . S
C1886 C1889 1.511 . S
C1887 C1883 1.376 . S
C1887 C1886 1.392 . S
C1887 H1899 0.929 . S
C1888 C1884 1.531 . S
C1888 H1900 0.960 . S
C1888 H1901 0.962 . S
C1888 H1902 0.960 . S
C1889 C1886 1.511 . S
C1889 H1903 0.961 . S
C1889 H1904 0.961 . S
C1889 H1905 0.961 . S
C1890 C1891 1.370 . S
C1890 C1892 1.363 . S
C1890 H1906 0.931 . S
C1891 C1890 1.370 . S
C1891 C1895 1.408 . S
C1892 C1890 1.363 . S
C1892 C1893 1.370 . S
C1892 C1896 1.524 . S
C1893 C1885 1.503 . S
C1893 C1892 1.370 . S
C1893 C1894 1.403 . S
C1894 C1893 1.403 . S
C1894 C1895 1.404 . S
C1894 C1897 1.539 . S
C1895 C1891 1.408 . S
C1895 C1894 1.404 . S
C1895 H1907 0.930 . S
C1896 C1892 1.524 . S
C1896 H1908 0.956 . S
C1896 H1909 0.961 . S
C1896 H1910 0.961 . S
C1897 C1894 1.539 . S
C1897 H1911 0.958 . S
C1897 H1912 0.961 . S
C1897 H1913 0.960 . S
H1898 C1882 0.931 . S
H1899 C1887 0.929 . S
H1900 C1888 0.960 . S
H1901 C1888 0.962 . S
H1902 C1888 0.960 . S
H1903 C1889 0.961 . S
H1904 C1889 0.961 . S
H1905 C1889 0.961 . S
H1906 C1890 0.931 . S
H1907 C1895 0.930 . S
H1908 C1896 0.956 . S
H1909 C1896 0.961 . S
H1910 C1896 0.961 . S
H1911 C1897 0.958 . S
H1912 C1897 0.961 . S
H1913 C1897 0.960 . S
C1914 C1915 1.391 . S
C1914 C1916 1.394 1_455 S
C1914 H1930 0.931 . S
C1915 C1914 1.391 . S
C1915 C1919 1.376 1_455 S
C1916 C1914 1.394 1_655 S
C1916 C1917 1.369 . S
C1916 C1920 1.531 . S
C1917 C1916 1.369 . S
C1917 C1918 1.410 . S
C1917 C1925 1.503 . S
C1918 C1917 1.410 . S
C1918 C1919 1.392 . S
C1918 C1921 1.511 . S
C1919 C1915 1.376 1_655 S
C1919 C1918 1.392 . S
C1919 H1931 0.929 . S
C1920 C1916 1.531 . S
C1920 H1932 0.960 . S
C1920 H1933 0.962 . S
C1920 H1934 0.960 . S
C1921 C1918 1.511 . S
C1921 H1935 0.961 . S
C1921 H1936 0.961 . S
C1921 H1937 0.961 . S
C1922 C1923 1.370 . S
C1922 C1924 1.363 . S
C1922 H1938 0.931 . S
C1923 C1922 1.370 . S
C1923 C1927 1.408 . S
C1924 C1922 1.363 . S
C1924 C1925 1.370 . S
C1924 C1928 1.524 . S
C1925 C1917 1.503 . S
C1925 C1924 1.370 . S
C1925 C1926 1.403 . S
C1926 C1925 1.403 . S
C1926 C1927 1.404 . S
C1926 C1929 1.539 . S
C1927 C1923 1.408 . S
C1927 C1926 1.404 . S
C1927 H1939 0.930 . S
C1928 C1924 1.524 . S
C1928 H1940 0.956 . S
C1928 H1941 0.961 . S
C1928 H1942 0.961 . S
C1929 C1926 1.539 . S
C1929 H1943 0.958 . S
C1929 H1944 0.961 . S
C1929 H1945 0.960 . S
H1930 C1914 0.931 . S
H1931 C1919 0.929 . S
H1932 C1920 0.960 . S
H1933 C1920 0.962 . S
H1934 C1920 0.960 . S
H1935 C1921 0.961 . S
H1936 C1921 0.961 . S
H1937 C1921 0.961 . S
H1938 C1922 0.931 . S
H1939 C1927 0.930 . S
H1940 C1928 0.956 . S
H1941 C1928 0.961 . S
H1942 C1928 0.961 . S
H1943 C1929 0.958 . S
H1944 C1929 0.961 . S
H1945 C1929 0.960 . S
C1946 C1947 1.391 . S
C1946 C1948 1.394 . S
C1946 H1962 0.931 . S
C1947 C1946 1.391 . S
C1947 C1951 1.376 . S
C1948 C1946 1.394 . S
C1948 C1949 1.369 . S
C1948 C1952 1.531 . S
C1949 C1948 1.369 . S
C1949 C1950 1.410 . S
C1949 C1957 1.503 . S
C1950 C1949 1.410 . S
C1950 C1951 1.392 . S
C1950 C1953 1.511 . S
C1951 C1947 1.376 . S
C1951 C1950 1.392 . S
C1951 H1963 0.929 . S
C1952 C1948 1.531 . S
C1952 H1964 0.960 . S
C1952 H1965 0.962 . S
C1952 H1966 0.960 . S
C1953 C1950 1.511 . S
C1953 H1967 0.961 . S
C1953 H1968 0.961 . S
C1953 H1969 0.961 . S
C1954 C1955 1.370 . S
C1954 C1956 1.363 . S
C1954 H1970 0.931 . S
C1955 C1954 1.370 . S
C1955 C1959 1.408 . S
C1956 C1954 1.363 . S
C1956 C1957 1.370 . S
C1956 C1960 1.524 . S
C1957 C1949 1.503 . S
C1957 C1956 1.370 . S
C1957 C1958 1.403 . S
C1958 C1957 1.403 . S
C1958 C1959 1.404 . S
C1958 C1961 1.539 . S
C1959 C1955 1.408 . S
C1959 C1958 1.404 . S
C1959 H1971 0.930 . S
C1960 C1956 1.524 . S
C1960 H1972 0.956 . S
C1960 H1973 0.961 . S
C1960 H1974 0.961 . S
C1961 C1958 1.539 . S
C1961 H1975 0.958 . S
C1961 H1976 0.961 . S
C1961 H1977 0.960 . S
H1962 C1946 0.931 . S
H1963 C1951 0.929 . S
H1964 C1952 0.960 . S
H1965 C1952 0.962 . S
H1966 C1952 0.960 . S
H1967 C1953 0.961 . S
H1968 C1953 0.961 . S
H1969 C1953 0.961 . S
H1970 C1954 0.931 . S
H1971 C1959 0.930 . S
H1972 C1960 0.956 . S
H1973 C1960 0.961 . S
H1974 C1960 0.961 . S
H1975 C1961 0.958 . S
H1976 C1961 0.961 . S
H1977 C1961 0.960 . S
C1978 C1979 1.391 . S
C1978 C1980 1.394 1_565 S
C1978 H1994 0.931 . S
C1979 C1978 1.391 . S
C1979 C1983 1.372 1_565 S
C1980 C1978 1.394 1_545 S
C1980 C1981 1.369 . S
C1980 C1984 1.531 . S
C1981 C1980 1.369 . S
C1981 C1982 1.410 . S
C1981 C1989 1.503 . S
C1982 C1981 1.410 . S
C1982 C1983 1.423 . S
C1982 C1985 1.511 . S
C1983 C1979 1.372 1_545 S
C1983 C1982 1.423 . S
C1983 H1995 0.902 1_545 S
C1984 C1980 1.531 . S
C1984 H1996 0.960 . S
C1984 H1997 0.962 . S
C1984 H1998 0.960 . S
C1985 C1982 1.511 . S
C1985 H1999 0.961 . S
C1985 H2000 0.961 . S
C1985 H2001 0.961 . S
C1986 C1987 1.370 . S
C1986 C1988 1.363 . S
C1986 H2002 0.931 . S
C1987 C1986 1.370 . S
C1987 C1991 1.408 . S
C1988 C1986 1.363 . S
C1988 C1989 1.370 . S
C1988 C1992 1.524 . S
C1989 C1981 1.503 . S
C1989 C1988 1.370 . S
C1989 C1990 1.403 . S
C1990 C1989 1.403 . S
C1990 C1991 1.404 . S
C1990 C1993 1.539 . S
C1991 C1987 1.408 . S
C1991 C1990 1.404 . S
C1991 H2003 0.930 . S
C1992 C1988 1.524 . S
C1992 H2004 0.956 . S
C1992 H2005 0.961 . S
C1992 H2006 0.961 . S
C1993 C1990 1.539 . S
C1993 H2007 0.958 . S
C1993 H2008 0.961 . S
C1993 H2009 0.960 . S
H1994 C1978 0.931 . S
H1995 C1983 0.902 1_565 S
H1996 C1984 0.960 . S
H1997 C1984 0.962 . S
H1998 C1984 0.960 . S
H1999 C1985 0.961 . S
H2000 C1985 0.961 . S
H2001 C1985 0.961 . S
H2002 C1986 0.931 . S
H2003 C1991 0.930 . S
H2004 C1992 0.956 . S
H2005 C1992 0.961 . S
H2006 C1992 0.961 . S
H2007 C1993 0.958 . S
H2008 C1993 0.961 . S
H2009 C1993 0.960 . S
C2010 C2011 1.391 . S
C2010 C2012 1.394 . S
C2010 H2026 0.931 . S
C2011 C2010 1.391 . S
C2011 C2015 1.376 . S
C2012 C2010 1.394 . S
C2012 C2013 1.369 . S
C2012 C2016 1.531 . S
C2013 C2012 1.369 . S
C2013 C2014 1.410 . S
C2013 C2021 1.503 . S
C2014 C2013 1.410 . S
C2014 C2015 1.392 . S
C2014 C2017 1.511 . S
C2015 C2011 1.376 . S
C2015 C2014 1.392 . S
C2015 H2027 0.929 . S
C2016 C2012 1.531 . S
C2016 H2028 0.960 . S
C2016 H2029 0.962 . S
C2016 H2030 0.960 . S
C2017 C2014 1.511 . S
C2017 H2031 0.961 . S
C2017 H2032 0.961 . S
C2017 H2033 0.961 . S
C2018 C2019 1.370 . S
C2018 C2020 1.363 . S
C2018 H2034 0.931 . S
C2019 C2018 1.370 . S
C2019 C2023 1.408 . S
C2020 C2018 1.363 . S
C2020 C2021 1.370 . S
C2020 C2024 1.524 . S
C2021 C2013 1.503 . S
C2021 C2020 1.370 . S
C2021 C2022 1.403 . S
C2022 C2021 1.403 . S
C2022 C2023 1.404 . S
C2022 C2025 1.539 . S
C2023 C2019 1.408 . S
C2023 C2022 1.404 . S
C2023 H2035 0.930 . S
C2024 C2020 1.524 . S
C2024 H2036 0.956 . S
C2024 H2037 0.961 . S
C2024 H2038 0.961 . S
C2025 C2022 1.539 . S
C2025 H2039 0.958 . S
C2025 H2040 0.961 . S
C2025 H2041 0.960 . S
H2026 C2010 0.931 . S
H2027 C2015 0.929 . S
H2028 C2016 0.960 . S
H2029 C2016 0.962 . S
H2030 C2016 0.960 . S
H2031 C2017 0.961 . S
H2032 C2017 0.961 . S
H2033 C2017 0.961 . S
H2034 C2018 0.931 . S
H2035 C2023 0.930 . S
H2036 C2024 0.956 . S
H2037 C2024 0.961 . S
H2038 C2024 0.961 . S
H2039 C2025 0.958 . S
H2040 C2025 0.961 . S
H2041 C2025 0.960 . S
C2042 C2043 1.391 . S
C2042 C2044 1.394 . S
C2042 H2058 0.931 . S
C2043 C2042 1.391 . S
C2043 C2047 1.376 . S
C2044 C2042 1.394 . S
C2044 C2045 1.369 . S
C2044 C2048 1.531 . S
C2045 C2044 1.369 . S
C2045 C2046 1.410 . S
C2045 C2053 1.503 . S
C2046 C2045 1.410 . S
C2046 C2047 1.392 . S
C2046 C2049 1.511 . S
C2047 C2043 1.376 . S
C2047 C2046 1.392 . S
C2047 H2059 0.929 . S
C2048 C2044 1.531 . S
C2048 H2060 0.960 . S
C2048 H2061 0.962 . S
C2048 H2062 0.960 . S
C2049 C2046 1.511 . S
C2049 H2063 0.961 . S
C2049 H2064 0.961 . S
C2049 H2065 0.961 . S
C2050 C2051 1.370 . S
C2050 C2052 1.363 . S
C2050 H2066 0.931 . S
C2051 C2050 1.370 . S
C2051 C2055 1.408 . S
C2052 C2050 1.363 . S
C2052 C2053 1.370 . S
C2052 C2056 1.524 . S
C2053 C2045 1.503 . S
C2053 C2052 1.370 . S
C2053 C2054 1.403 . S
C2054 C2053 1.403 . S
C2054 C2055 1.404 . S
C2054 C2057 1.539 . S
C2055 C2051 1.408 . S
C2055 C2054 1.404 . S
C2055 H2067 0.930 . S
C2056 C2052 1.524 . S
C2056 H2068 0.956 . S
C2056 H2069 0.961 . S
C2056 H2070 0.961 . S
C2057 C2054 1.539 . S
C2057 H2071 0.958 . S
C2057 H2072 0.961 . S
C2057 H2073 0.960 . S
H2058 C2042 0.931 . S
H2059 C2047 0.929 . S
H2060 C2048 0.960 . S
H2061 C2048 0.962 . S
H2062 C2048 0.960 . S
H2063 C2049 0.961 . S
H2064 C2049 0.961 . S
H2065 C2049 0.961 . S
H2066 C2050 0.931 . S
H2067 C2055 0.930 . S
H2068 C2056 0.956 . S
H2069 C2056 0.961 . S
H2070 C2056 0.961 . S
H2071 C2057 0.958 . S
H2072 C2057 0.961 . S
H2073 C2057 0.960 . S
C2074 C2075 1.391 . S
C2074 C2076 1.394 . S
C2074 H2090 0.931 . S
C2075 C2074 1.391 . S
C2075 C2079 1.376 . S
C2076 C2074 1.394 . S
C2076 C2077 1.369 . S
C2076 C2080 1.531 . S
C2077 C2076 1.369 . S
C2077 C2078 1.410 . S
C2077 C2085 1.503 . S
C2078 C2077 1.410 . S
C2078 C2079 1.392 . S
C2078 C2081 1.511 . S
C2079 C2075 1.376 . S
C2079 C2078 1.392 . S
C2079 H2091 0.929 . S
C2080 C2076 1.531 . S
C2080 H2092 0.960 . S
C2080 H2093 0.962 . S
C2080 H2094 0.960 . S
C2081 C2078 1.511 . S
C2081 H2095 0.961 . S
C2081 H2096 0.961 . S
C2081 H2097 0.961 . S
C2082 C2083 1.370 . S
C2082 C2084 1.363 . S
C2082 H2098 0.931 . S
C2083 C2082 1.370 . S
C2083 C2087 1.408 . S
C2084 C2082 1.363 . S
C2084 C2085 1.370 . S
C2084 C2088 1.524 . S
C2085 C2077 1.503 . S
C2085 C2084 1.370 . S
C2085 C2086 1.403 . S
C2086 C2085 1.403 . S
C2086 C2087 1.404 . S
C2086 C2089 1.539 . S
C2087 C2083 1.408 . S
C2087 C2086 1.404 . S
C2087 H2099 0.930 . S
C2088 C2084 1.524 . S
C2088 H2100 0.956 . S
C2088 H2101 0.961 . S
C2088 H2102 0.961 . S
C2089 C2086 1.539 . S
C2089 H2103 0.958 . S
C2089 H2104 0.961 . S
C2089 H2105 0.960 . S
H2090 C2074 0.931 . S
H2091 C2079 0.929 . S
H2092 C2080 0.960 . S
H2093 C2080 0.962 . S
H2094 C2080 0.960 . S
H2095 C2081 0.961 . S
H2096 C2081 0.961 . S
H2097 C2081 0.961 . S
H2098 C2082 0.931 . S
H2099 C2087 0.930 . S
H2100 C2088 0.956 . S
H2101 C2088 0.961 . S
H2102 C2088 0.961 . S
H2103 C2089 0.958 . S
H2104 C2089 0.961 . S
H2105 C2089 0.960 . S
C2106 C2107 1.391 . S
C2106 C2108 1.394 . S
C2106 H2122 0.931 . S
C2107 C2106 1.391 . S
C2107 C2111 1.376 . S
C2108 C2106 1.394 . S
C2108 C2109 1.369 . S
C2108 C2112 1.531 . S
C2109 C2108 1.369 . S
C2109 C2110 1.410 . S
C2109 C2117 1.503 . S
C2110 C2109 1.410 . S
C2110 C2111 1.392 . S
C2110 C2113 1.511 . S
C2111 C2107 1.376 . S
C2111 C2110 1.392 . S
C2111 H2123 0.929 . S
C2112 C2108 1.531 . S
C2112 H2124 0.960 . S
C2112 H2125 0.962 . S
C2112 H2126 0.960 . S
C2113 C2110 1.511 . S
C2113 H2127 0.961 . S
C2113 H2128 0.961 . S
C2113 H2129 0.961 . S
C2114 C2115 1.370 . S
C2114 C2116 1.363 . S
C2114 H2130 0.931 . S
C2115 C2114 1.370 . S
C2115 C2119 1.408 . S
C2116 C2114 1.363 . S
C2116 C2117 1.370 . S
C2116 C2120 1.524 . S
C2117 C2109 1.503 . S
C2117 C2116 1.370 . S
C2117 C2118 1.403 . S
C2118 C2117 1.403 . S
C2118 C2119 1.404 . S
C2118 C2121 1.539 . S
C2119 C2115 1.408 . S
C2119 C2118 1.404 . S
C2119 H2131 0.930 . S
C2120 C2116 1.524 . S
C2120 H2132 0.956 . S
C2120 H2133 0.961 . S
C2120 H2134 0.961 . S
C2121 C2118 1.539 . S
C2121 H2135 0.958 . S
C2121 H2136 0.961 . S
C2121 H2137 0.960 . S
H2122 C2106 0.931 . S
H2123 C2111 0.929 . S
H2124 C2112 0.960 . S
H2125 C2112 0.962 . S
H2126 C2112 0.960 . S
H2127 C2113 0.961 . S
H2128 C2113 0.961 . S
H2129 C2113 0.961 . S
H2130 C2114 0.931 . S
H2131 C2119 0.930 . S
H2132 C2120 0.956 . S
H2133 C2120 0.961 . S
H2134 C2120 0.961 . S
H2135 C2121 0.958 . S
H2136 C2121 0.961 . S
H2137 C2121 0.960 . S
C2138 C2139 1.391 . S
C2138 C2140 1.394 . S
C2138 H2154 0.931 . S
C2139 C2138 1.391 . S
C2139 C2143 1.376 . S
C2140 C2138 1.394 . S
C2140 C2141 1.369 . S
C2140 C2144 1.531 . S
C2141 C2140 1.369 . S
C2141 C2142 1.410 . S
C2141 C2149 1.503 . S
C2142 C2141 1.410 . S
C2142 C2143 1.392 . S
C2142 C2145 1.511 . S
C2143 C2139 1.376 . S
C2143 C2142 1.392 . S
C2143 H2155 0.929 . S
C2144 C2140 1.531 . S
C2144 H2156 0.960 . S
C2144 H2157 0.962 . S
C2144 H2158 0.960 . S
C2145 C2142 1.511 . S
C2145 H2159 0.961 . S
C2145 H2160 0.961 . S
C2145 H2161 0.961 . S
C2146 C2147 1.370 . S
C2146 C2148 1.363 . S
C2146 H2162 0.931 . S
C2147 C2146 1.370 . S
C2147 C2151 1.408 . S
C2148 C2146 1.363 . S
C2148 C2149 1.370 . S
C2148 C2152 1.524 . S
C2149 C2141 1.503 . S
C2149 C2148 1.370 . S
C2149 C2150 1.403 . S
C2150 C2149 1.403 . S
C2150 C2151 1.404 . S
C2150 C2153 1.539 . S
C2151 C2147 1.408 . S
C2151 C2150 1.404 . S
C2151 H2163 0.930 . S
C2152 C2148 1.524 . S
C2152 H2164 0.956 . S
C2152 H2165 0.961 . S
C2152 H2166 0.961 . S
C2153 C2150 1.539 . S
C2153 H2167 0.958 . S
C2153 H2168 0.961 . S
C2153 H2169 0.960 . S
H2154 C2138 0.931 . S
H2155 C2143 0.929 . S
H2156 C2144 0.960 . S
H2157 C2144 0.962 . S
H2158 C2144 0.960 . S
H2159 C2145 0.961 . S
H2160 C2145 0.961 . S
H2161 C2145 0.961 . S
H2162 C2146 0.931 . S
H2163 C2151 0.930 . S
H2164 C2152 0.956 . S
H2165 C2152 0.961 . S
H2166 C2152 0.961 . S
H2167 C2153 0.958 . S
H2168 C2153 0.961 . S
H2169 C2153 0.960 . S
C2170 C2171 1.391 . S
C2170 C2172 1.394 . S
C2170 H2186 0.931 . S
C2171 C2170 1.391 . S
C2171 C2175 1.376 . S
C2172 C2170 1.394 . S
C2172 C2173 1.369 . S
C2172 C2176 1.531 . S
C2173 C2172 1.369 . S
C2173 C2174 1.410 . S
C2173 C2181 1.503 . S
C2174 C2173 1.410 . S
C2174 C2175 1.392 . S
C2174 C2177 1.511 . S
C2175 C2171 1.376 . S
C2175 C2174 1.392 . S
C2175 H2187 0.929 . S
C2176 C2172 1.531 . S
C2176 H2188 0.960 . S
C2176 H2189 0.962 . S
C2176 H2190 0.960 . S
C2177 C2174 1.511 . S
C2177 H2191 0.961 . S
C2177 H2192 0.961 . S
C2177 H2193 0.961 . S
C2178 C2179 1.370 . S
C2178 C2180 1.363 . S
C2178 H2194 0.931 . S
C2179 C2178 1.370 . S
C2179 C2183 1.408 . S
C2180 C2178 1.363 . S
C2180 C2181 1.370 . S
C2180 C2184 1.524 . S
C2181 C2173 1.503 . S
C2181 C2180 1.370 . S
C2181 C2182 1.403 . S
C2182 C2181 1.403 . S
C2182 C2183 1.404 . S
C2182 C2185 1.539 . S
C2183 C2179 1.408 . S
C2183 C2182 1.404 . S
C2183 H2195 0.930 . S
C2184 C2180 1.524 . S
C2184 H2196 0.956 . S
C2184 H2197 0.961 . S
C2184 H2198 0.961 . S
C2185 C2182 1.539 . S
C2185 H2199 0.958 . S
C2185 H2200 0.961 . S
C2185 H2201 0.960 . S
H2186 C2170 0.931 . S
H2187 C2175 0.929 . S
H2188 C2176 0.960 . S
H2189 C2176 0.962 . S
H2190 C2176 0.960 . S
H2191 C2177 0.961 . S
H2192 C2177 0.961 . S
H2193 C2177 0.961 . S
H2194 C2178 0.931 . S
H2195 C2183 0.930 . S
H2196 C2184 0.956 . S
H2197 C2184 0.961 . S
H2198 C2184 0.961 . S
H2199 C2185 0.958 . S
H2200 C2185 0.961 . S
H2201 C2185 0.960 . S
C2202 C2203 1.391 . S
C2202 C2204 1.394 . S
C2202 H2218 0.931 . S
C2203 C2202 1.391 . S
C2203 C2207 1.376 . S
C2204 C2202 1.394 . S
C2204 C2205 1.369 . S
C2204 C2208 1.531 . S
C2205 C2204 1.369 . S
C2205 C2206 1.410 . S
C2205 C2213 1.503 . S
C2206 C2205 1.410 . S
C2206 C2207 1.392 . S
C2206 C2209 1.511 . S
C2207 C2203 1.376 . S
C2207 C2206 1.392 . S
C2207 H2219 0.929 . S
C2208 C2204 1.531 . S
C2208 H2220 0.960 . S
C2208 H2221 0.962 . S
C2208 H2222 0.960 . S
C2209 C2206 1.511 . S
C2209 H2223 0.961 . S
C2209 H2224 0.961 . S
C2209 H2225 0.961 . S
C2210 C2211 1.370 . S
C2210 C2212 1.363 . S
C2210 H2226 0.931 . S
C2211 C2210 1.370 . S
C2211 C2215 1.408 . S
C2212 C2210 1.363 . S
C2212 C2213 1.370 . S
C2212 C2216 1.524 . S
C2213 C2205 1.503 . S
C2213 C2212 1.370 . S
C2213 C2214 1.403 . S
C2214 C2213 1.403 . S
C2214 C2215 1.404 . S
C2214 C2217 1.539 . S
C2215 C2211 1.408 . S
C2215 C2214 1.404 . S
C2215 H2227 0.930 . S
C2216 C2212 1.524 . S
C2216 H2228 0.956 . S
C2216 H2229 0.961 . S
C2216 H2230 0.961 . S
C2217 C2214 1.539 . S
C2217 H2231 0.958 . S
C2217 H2232 0.961 . S
C2217 H2233 0.960 . S
H2218 C2202 0.931 . S
H2219 C2207 0.929 . S
H2220 C2208 0.960 . S
H2221 C2208 0.962 . S
H2222 C2208 0.960 . S
H2223 C2209 0.961 . S
H2224 C2209 0.961 . S
H2225 C2209 0.961 . S
H2226 C2210 0.931 . S
H2227 C2215 0.930 . S
H2228 C2216 0.956 . S
H2229 C2216 0.961 . S
H2230 C2216 0.961 . S
H2231 C2217 0.958 . S
H2232 C2217 0.961 . S
H2233 C2217 0.960 . S
C2234 C2235 1.391 . S
C2234 C2236 1.394 . S
C2234 H2250 0.931 . S
C2235 C2234 1.391 . S
C2235 C2239 1.376 . S
C2236 C2234 1.394 . S
C2236 C2237 1.369 . S
C2236 C2240 1.531 . S
C2237 C2236 1.369 . S
C2237 C2238 1.410 . S
C2237 C2245 1.503 . S
C2238 C2237 1.410 . S
C2238 C2239 1.392 . S
C2238 C2241 1.511 . S
C2239 C2235 1.376 . S
C2239 C2238 1.392 . S
C2239 H2251 0.929 . S
C2240 C2236 1.531 . S
C2240 H2252 0.960 . S
C2240 H2253 0.962 . S
C2240 H2254 0.960 . S
C2241 C2238 1.511 . S
C2241 H2255 0.961 . S
C2241 H2256 0.961 . S
C2241 H2257 0.961 . S
C2242 C2243 1.370 . S
C2242 C2244 1.363 . S
C2242 H2258 0.931 . S
C2243 C2242 1.370 . S
C2243 C2247 1.408 . S
C2244 C2242 1.363 . S
C2244 C2245 1.370 . S
C2244 C2248 1.524 . S
C2245 C2237 1.503 . S
C2245 C2244 1.370 . S
C2245 C2246 1.403 . S
C2246 C2245 1.403 . S
C2246 C2247 1.404 . S
C2246 C2249 1.539 . S
C2247 C2243 1.408 . S
C2247 C2246 1.404 . S
C2247 H2259 0.930 . S
C2248 C2244 1.524 . S
C2248 H2260 0.956 . S
C2248 H2261 0.961 . S
C2248 H2262 0.961 . S
C2249 C2246 1.539 . S
C2249 H2263 0.958 . S
C2249 H2264 0.961 . S
C2249 H2265 0.960 . S
H2250 C2234 0.931 . S
H2251 C2239 0.929 . S
H2252 C2240 0.960 . S
H2253 C2240 0.962 . S
H2254 C2240 0.960 . S
H2255 C2241 0.961 . S
H2256 C2241 0.961 . S
H2257 C2241 0.961 . S
H2258 C2242 0.931 . S
H2259 C2247 0.930 . S
H2260 C2248 0.956 . S
H2261 C2248 0.961 . S
H2262 C2248 0.961 . S
H2263 C2249 0.958 . S
H2264 C2249 0.961 . S
H2265 C2249 0.960 . S
C2266 C2267 1.391 . S
C2266 C2268 1.394 . S
C2266 H2282 0.931 . S
C2267 C2266 1.391 . S
C2267 C2271 1.376 . S
C2268 C2266 1.394 . S
C2268 C2269 1.369 . S
C2268 C2272 1.531 . S
C2269 C2268 1.369 . S
C2269 C2270 1.410 . S
C2269 C2277 1.503 . S
C2270 C2269 1.410 . S
C2270 C2271 1.392 . S
C2270 C2273 1.511 . S
C2271 C2267 1.376 . S
C2271 C2270 1.392 . S
C2271 H2283 0.929 . S
C2272 C2268 1.531 . S
C2272 H2284 0.960 . S
C2272 H2285 0.962 . S
C2272 H2286 0.960 . S
C2273 C2270 1.511 . S
C2273 H2287 0.961 . S
C2273 H2288 0.961 . S
C2273 H2289 0.961 . S
C2274 C2275 1.370 . S
C2274 C2276 1.363 . S
C2274 H2290 0.931 . S
C2275 C2274 1.370 . S
C2275 C2279 1.408 . S
C2276 C2274 1.363 . S
C2276 C2277 1.370 . S
C2276 C2280 1.524 . S
C2277 C2269 1.503 . S
C2277 C2276 1.370 . S
C2277 C2278 1.403 . S
C2278 C2277 1.403 . S
C2278 C2279 1.404 . S
C2278 C2281 1.539 . S
C2279 C2275 1.408 . S
C2279 C2278 1.404 . S
C2279 H2291 0.930 . S
C2280 C2276 1.524 . S
C2280 H2292 0.956 . S
C2280 H2293 0.961 . S
C2280 H2294 0.961 . S
C2281 C2278 1.539 . S
C2281 H2295 0.958 . S
C2281 H2296 0.961 . S
C2281 H2297 0.960 . S
H2282 C2266 0.931 . S
H2283 C2271 0.929 . S
H2284 C2272 0.960 . S
H2285 C2272 0.962 . S
H2286 C2272 0.960 . S
H2287 C2273 0.961 . S
H2288 C2273 0.961 . S
H2289 C2273 0.961 . S
H2290 C2274 0.931 . S
H2291 C2279 0.930 . S
H2292 C2280 0.956 . S
H2293 C2280 0.961 . S
H2294 C2280 0.961 . S
H2295 C2281 0.958 . S
H2296 C2281 0.961 . S
H2297 C2281 0.960 . S
C2298 C2299 1.391 . S
C2298 C2300 1.394 . S
C2298 H2314 0.931 . S
C2299 C2298 1.391 . S
C2299 C2303 1.376 . S
C2300 C2298 1.394 . S
C2300 C2301 1.369 . S
C2300 C2304 1.531 . S
C2301 C2300 1.369 . S
C2301 C2302 1.410 . S
C2301 C2309 1.503 . S
C2302 C2301 1.410 . S
C2302 C2303 1.392 . S
C2302 C2305 1.511 . S
C2303 C2299 1.376 . S
C2303 C2302 1.392 . S
C2303 H2315 0.929 . S
C2304 C2300 1.531 . S
C2304 H2316 0.960 . S
C2304 H2317 0.962 . S
C2304 H2318 0.960 . S
C2305 C2302 1.511 . S
C2305 H2319 0.961 . S
C2305 H2320 0.961 . S
C2305 H2321 0.961 . S
C2306 C2307 1.370 . S
C2306 C2308 1.363 . S
C2306 H2322 0.931 . S
C2307 C2306 1.370 . S
C2307 C2311 1.408 . S
C2308 C2306 1.363 . S
C2308 C2309 1.370 . S
C2308 C2312 1.524 . S
C2309 C2301 1.503 . S
C2309 C2308 1.370 . S
C2309 C2310 1.403 . S
C2310 C2309 1.403 . S
C2310 C2311 1.404 . S
C2310 C2313 1.539 . S
C2311 C2307 1.408 . S
C2311 C2310 1.404 . S
C2311 H2323 0.930 . S
C2312 C2308 1.524 . S
C2312 H2324 0.956 . S
C2312 H2325 0.961 . S
C2312 H2326 0.961 . S
C2313 C2310 1.539 . S
C2313 H2327 0.958 . S
C2313 H2328 0.961 . S
C2313 H2329 0.960 . S
H2314 C2298 0.931 . S
H2315 C2303 0.929 . S
H2316 C2304 0.960 . S
H2317 C2304 0.962 . S
H2318 C2304 0.960 . S
H2319 C2305 0.961 . S
H2320 C2305 0.961 . S
H2321 C2305 0.961 . S
H2322 C2306 0.931 . S
H2323 C2311 0.930 . S
H2324 C2312 0.956 . S
H2325 C2312 0.961 . S
H2326 C2312 0.961 . S
H2327 C2313 0.958 . S
H2328 C2313 0.961 . S
H2329 C2313 0.960 . S
C2330 C2331 1.391 . S
C2330 C2332 1.394 . S
C2330 H2346 0.931 . S
C2331 C2330 1.391 . S
C2331 C2335 1.376 . S
C2332 C2330 1.394 . S
C2332 C2333 1.369 . S
C2332 C2336 1.531 . S
C2333 C2332 1.369 . S
C2333 C2334 1.410 . S
C2333 C2341 1.503 . S
C2334 C2333 1.410 . S
C2334 C2335 1.392 . S
C2334 C2337 1.511 . S
C2335 C2331 1.376 . S
C2335 C2334 1.392 . S
C2335 H2347 0.929 . S
C2336 C2332 1.531 . S
C2336 H2348 0.960 . S
C2336 H2349 0.962 . S
C2336 H2350 0.960 . S
C2337 C2334 1.511 . S
C2337 H2351 0.961 . S
C2337 H2352 0.961 . S
C2337 H2353 0.961 . S
C2338 C2339 1.370 . S
C2338 C2340 1.363 . S
C2338 H2354 0.931 . S
C2339 C2338 1.370 . S
C2339 C2343 1.408 . S
C2340 C2338 1.363 . S
C2340 C2341 1.370 . S
C2340 C2344 1.524 . S
C2341 C2333 1.503 . S
C2341 C2340 1.370 . S
C2341 C2342 1.403 . S
C2342 C2341 1.403 . S
C2342 C2343 1.404 . S
C2342 C2345 1.539 . S
C2343 C2339 1.408 . S
C2343 C2342 1.404 . S
C2343 H2355 0.930 . S
C2344 C2340 1.524 . S
C2344 H2356 0.956 . S
C2344 H2357 0.961 . S
C2344 H2358 0.961 . S
C2345 C2342 1.539 . S
C2345 H2359 0.958 . S
C2345 H2360 0.961 . S
C2345 H2361 0.960 . S
H2346 C2330 0.931 . S
H2347 C2335 0.929 . S
H2348 C2336 0.960 . S
H2349 C2336 0.962 . S
H2350 C2336 0.960 . S
H2351 C2337 0.961 . S
H2352 C2337 0.961 . S
H2353 C2337 0.961 . S
H2354 C2338 0.931 . S
H2355 C2343 0.930 . S
H2356 C2344 0.956 . S
H2357 C2344 0.961 . S
H2358 C2344 0.961 . S
H2359 C2345 0.958 . S
H2360 C2345 0.961 . S
H2361 C2345 0.960 . S
C2362 C2363 1.391 . S
C2362 C2364 1.394 . S
C2362 H2378 0.931 . S
C2363 C2362 1.391 . S
C2363 C2367 1.376 . S
C2364 C2362 1.394 . S
C2364 C2365 1.369 . S
C2364 C2368 1.531 . S
C2365 C2364 1.369 . S
C2365 C2366 1.410 . S
C2365 C2373 1.503 . S
C2366 C2365 1.410 . S
C2366 C2367 1.392 . S
C2366 C2369 1.511 . S
C2367 C2363 1.376 . S
C2367 C2366 1.392 . S
C2367 H2379 0.929 . S
C2368 C2364 1.531 . S
C2368 H2380 0.960 . S
C2368 H2381 0.962 . S
C2368 H2382 0.960 . S
C2369 C2366 1.511 . S
C2369 H2383 0.961 . S
C2369 H2384 0.961 . S
C2369 H2385 0.961 . S
C2370 C2371 1.370 . S
C2370 C2372 1.363 . S
C2370 H2386 0.931 . S
C2371 C2370 1.370 . S
C2371 C2375 1.408 . S
C2372 C2370 1.363 . S
C2372 C2373 1.370 . S
C2372 C2376 1.524 . S
C2373 C2365 1.503 . S
C2373 C2372 1.370 . S
C2373 C2374 1.403 . S
C2374 C2373 1.403 . S
C2374 C2375 1.404 . S
C2374 C2377 1.539 . S
C2375 C2371 1.408 . S
C2375 C2374 1.404 . S
C2375 H2387 0.930 . S
C2376 C2372 1.524 . S
C2376 H2388 0.956 . S
C2376 H2389 0.961 . S
C2376 H2390 0.961 . S
C2377 C2374 1.539 . S
C2377 H2391 0.958 . S
C2377 H2392 0.961 . S
C2377 H2393 0.960 . S
H2378 C2362 0.931 . S
H2379 C2367 0.929 . S
H2380 C2368 0.960 . S
H2381 C2368 0.962 . S
H2382 C2368 0.960 . S
H2383 C2369 0.961 . S
H2384 C2369 0.961 . S
H2385 C2369 0.961 . S
H2386 C2370 0.931 . S
H2387 C2375 0.930 . S
H2388 C2376 0.956 . S
H2389 C2376 0.961 . S
H2390 C2376 0.961 . S
H2391 C2377 0.958 . S
H2392 C2377 0.961 . S
H2393 C2377 0.960 . S
C2394 C2395 1.391 . S
C2394 C2396 1.394 . S
C2394 H2410 0.931 . S
C2395 C2394 1.391 . S
C2395 C2399 1.376 . S
C2396 C2394 1.394 . S
C2396 C2397 1.369 . S
C2396 C2400 1.531 . S
C2397 C2396 1.369 . S
C2397 C2398 1.410 . S
C2397 C2405 1.503 . S
C2398 C2397 1.410 . S
C2398 C2399 1.392 . S
C2398 C2401 1.511 . S
C2399 C2395 1.376 . S
C2399 C2398 1.392 . S
C2399 H2411 0.929 . S
C2400 C2396 1.531 . S
C2400 H2412 0.960 . S
C2400 H2413 0.962 . S
C2400 H2414 0.960 . S
C2401 C2398 1.511 . S
C2401 H2415 0.961 . S
C2401 H2416 0.961 . S
C2401 H2417 0.961 . S
C2402 C2403 1.370 . S
C2402 C2404 1.363 . S
C2402 H2418 0.931 . S
C2403 C2402 1.370 . S
C2403 C2407 1.408 . S
C2404 C2402 1.363 . S
C2404 C2405 1.370 . S
C2404 C2408 1.524 . S
C2405 C2397 1.503 . S
C2405 C2404 1.370 . S
C2405 C2406 1.403 . S
C2406 C2405 1.403 . S
C2406 C2407 1.404 . S
C2406 C2409 1.539 . S
C2407 C2403 1.408 . S
C2407 C2406 1.404 . S
C2407 H2419 0.930 . S
C2408 C2404 1.524 . S
C2408 H2420 0.956 . S
C2408 H2421 0.961 . S
C2408 H2422 0.961 . S
C2409 C2406 1.539 . S
C2409 H2423 0.958 . S
C2409 H2424 0.961 . S
C2409 H2425 0.960 . S
H2410 C2394 0.931 . S
H2411 C2399 0.929 . S
H2412 C2400 0.960 . S
H2413 C2400 0.962 . S
H2414 C2400 0.960 . S
H2415 C2401 0.961 . S
H2416 C2401 0.961 . S
H2417 C2401 0.961 . S
H2418 C2402 0.931 . S
H2419 C2407 0.930 . S
H2420 C2408 0.956 . S
H2421 C2408 0.961 . S
H2422 C2408 0.961 . S
H2423 C2409 0.958 . S
H2424 C2409 0.961 . S
H2425 C2409 0.960 . S
C2426 C2427 1.391 . S
C2426 C2428 1.394 . S
C2426 H2442 0.931 . S
C2427 C2426 1.391 . S
C2427 C2431 1.376 . S
C2428 C2426 1.394 . S
C2428 C2429 1.369 . S
C2428 C2432 1.531 . S
C2429 C2428 1.369 . S
C2429 C2430 1.410 . S
C2429 C2437 1.503 . S
C2430 C2429 1.410 . S
C2430 C2431 1.392 . S
C2430 C2433 1.511 . S
C2431 C2427 1.376 . S
C2431 C2430 1.392 . S
C2431 H2443 0.929 . S
C2432 C2428 1.531 . S
C2432 H2444 0.960 . S
C2432 H2445 0.962 . S
C2432 H2446 0.960 . S
C2433 C2430 1.511 . S
C2433 H2447 0.961 . S
C2433 H2448 0.961 . S
C2433 H2449 0.961 . S
C2434 C2435 1.370 . S
C2434 C2436 1.363 . S
C2434 H2450 0.931 . S
C2435 C2434 1.370 . S
C2435 C2439 1.408 . S
C2436 C2434 1.363 . S
C2436 C2437 1.370 . S
C2436 C2440 1.524 . S
C2437 C2429 1.503 . S
C2437 C2436 1.370 . S
C2437 C2438 1.403 . S
C2438 C2437 1.403 . S
C2438 C2439 1.404 . S
C2438 C2441 1.539 . S
C2439 C2435 1.408 . S
C2439 C2438 1.404 . S
C2439 H2451 0.930 . S
C2440 C2436 1.524 . S
C2440 H2452 0.956 . S
C2440 H2453 0.961 . S
C2440 H2454 0.961 . S
C2441 C2438 1.539 . S
C2441 H2455 0.958 . S
C2441 H2456 0.961 . S
C2441 H2457 0.960 . S
H2442 C2426 0.931 . S
H2443 C2431 0.929 . S
H2444 C2432 0.960 . S
H2445 C2432 0.962 . S
H2446 C2432 0.960 . S
H2447 C2433 0.961 . S
H2448 C2433 0.961 . S
H2449 C2433 0.961 . S
H2450 C2434 0.931 . S
H2451 C2439 0.930 . S
H2452 C2440 0.956 . S
H2453 C2440 0.961 . S
H2454 C2440 0.961 . S
H2455 C2441 0.958 . S
H2456 C2441 0.961 . S
H2457 C2441 0.960 . S
C2458 C2459 1.391 . S
C2458 C2460 1.394 . S
C2458 H2474 0.931 . S
C2459 C2458 1.391 . S
C2459 C2463 1.376 . S
C2460 C2458 1.394 . S
C2460 C2461 1.369 . S
C2460 C2464 1.531 . S
C2461 C2460 1.369 . S
C2461 C2462 1.410 . S
C2461 C2469 1.503 . S
C2462 C2461 1.410 . S
C2462 C2463 1.392 . S
C2462 C2465 1.511 . S
C2463 C2459 1.376 . S
C2463 C2462 1.392 . S
C2463 H2475 0.929 . S
C2464 C2460 1.531 . S
C2464 H2476 0.960 . S
C2464 H2477 0.962 . S
C2464 H2478 0.960 . S
C2465 C2462 1.511 . S
C2465 H2479 0.961 . S
C2465 H2480 0.961 . S
C2465 H2481 0.961 . S
C2466 C2467 1.370 . S
C2466 C2468 1.363 . S
C2466 H2482 0.931 . S
C2467 C2466 1.370 . S
C2467 C2471 1.408 . S
C2468 C2466 1.363 . S
C2468 C2469 1.370 . S
C2468 C2472 1.524 . S
C2469 C2461 1.503 . S
C2469 C2468 1.370 . S
C2469 C2470 1.403 . S
C2470 C2469 1.403 . S
C2470 C2471 1.404 . S
C2470 C2473 1.539 . S
C2471 C2467 1.408 . S
C2471 C2470 1.404 . S
C2471 H2483 0.930 . S
C2472 C2468 1.524 . S
C2472 H2484 0.956 . S
C2472 H2485 0.961 . S
C2472 H2486 0.961 . S
C2473 C2470 1.539 . S
C2473 H2487 0.958 . S
C2473 H2488 0.961 . S
C2473 H2489 0.960 . S
H2474 C2458 0.931 . S
H2475 C2463 0.929 . S
H2476 C2464 0.960 . S
H2477 C2464 0.962 . S
H2478 C2464 0.960 . S
H2479 C2465 0.961 . S
H2480 C2465 0.961 . S
H2481 C2465 0.961 . S
H2482 C2466 0.931 . S
H2483 C2471 0.930 . S
H2484 C2472 0.956 . S
H2485 C2472 0.961 . S
H2486 C2472 0.961 . S
H2487 C2473 0.958 . S
H2488 C2473 0.961 . S
H2489 C2473 0.960 . S
C2490 C2491 1.391 . S
C2490 C2492 1.394 . S
C2490 H2506 0.931 . S
C2491 C2490 1.391 . S
C2491 C2495 1.376 . S
C2492 C2490 1.394 . S
C2492 C2493 1.369 . S
C2492 C2496 1.531 . S
C2493 C2492 1.369 . S
C2493 C2494 1.410 . S
C2493 C2501 1.503 . S
C2494 C2493 1.410 . S
C2494 C2495 1.392 . S
C2494 C2497 1.511 . S
C2495 C2491 1.376 . S
C2495 C2494 1.392 . S
C2495 H2507 0.929 . S
C2496 C2492 1.531 . S
C2496 H2508 0.960 . S
C2496 H2509 0.962 . S
C2496 H2510 0.960 . S
C2497 C2494 1.511 . S
C2497 H2511 0.961 . S
C2497 H2512 0.961 . S
C2497 H2513 0.961 . S
C2498 C2499 1.370 . S
C2498 C2500 1.363 . S
C2498 H2514 0.931 . S
C2499 C2498 1.370 . S
C2499 C2503 1.408 . S
C2500 C2498 1.363 . S
C2500 C2501 1.370 . S
C2500 C2504 1.524 . S
C2501 C2493 1.503 . S
C2501 C2500 1.370 . S
C2501 C2502 1.403 . S
C2502 C2501 1.403 . S
C2502 C2503 1.404 . S
C2502 C2505 1.539 . S
C2503 C2499 1.408 . S
C2503 C2502 1.404 . S
C2503 H2515 0.930 . S
C2504 C2500 1.524 . S
C2504 H2516 0.956 . S
C2504 H2517 0.961 . S
C2504 H2518 0.961 . S
C2505 C2502 1.539 . S
C2505 H2519 0.958 . S
C2505 H2520 0.961 . S
C2505 H2521 0.960 . S
H2506 C2490 0.931 . S
H2507 C2495 0.929 . S
H2508 C2496 0.960 . S
H2509 C2496 0.962 . S
H2510 C2496 0.960 . S
H2511 C2497 0.961 . S
H2512 C2497 0.961 . S
H2513 C2497 0.961 . S
H2514 C2498 0.931 . S
H2515 C2503 0.930 . S
H2516 C2504 0.956 . S
H2517 C2504 0.961 . S
H2518 C2504 0.961 . S
H2519 C2505 0.958 . S
H2520 C2505 0.961 . S
H2521 C2505 0.960 . S
C2522 C2523 1.391 . S
C2522 C2524 1.394 . S
C2522 H2538 0.931 . S
C2523 C2522 1.391 . S
C2523 C2527 1.376 . S
C2524 C2522 1.394 . S
C2524 C2525 1.369 . S
C2524 C2528 1.531 . S
C2525 C2524 1.369 . S
C2525 C2526 1.410 . S
C2525 C2533 1.503 . S
C2526 C2525 1.410 . S
C2526 C2527 1.392 . S
C2526 C2529 1.511 . S
C2527 C2523 1.376 . S
C2527 C2526 1.392 . S
C2527 H2539 0.929 . S
C2528 C2524 1.531 . S
C2528 H2540 0.960 . S
C2528 H2541 0.962 . S
C2528 H2542 0.960 . S
C2529 C2526 1.511 . S
C2529 H2543 0.961 . S
C2529 H2544 0.961 . S
C2529 H2545 0.961 . S
C2530 C2531 1.370 . S
C2530 C2532 1.363 . S
C2530 H2546 0.931 . S
C2531 C2530 1.370 . S
C2531 C2535 1.408 . S
C2532 C2530 1.363 . S
C2532 C2533 1.370 . S
C2532 C2536 1.524 . S
C2533 C2525 1.503 . S
C2533 C2532 1.370 . S
C2533 C2534 1.403 . S
C2534 C2533 1.403 . S
C2534 C2535 1.404 . S
C2534 C2537 1.539 . S
C2535 C2531 1.408 . S
C2535 C2534 1.404 . S
C2535 H2547 0.930 . S
C2536 C2532 1.524 . S
C2536 H2548 0.956 . S
C2536 H2549 0.961 . S
C2536 H2550 0.961 . S
C2537 C2534 1.539 . S
C2537 H2551 0.958 . S
C2537 H2552 0.961 . S
C2537 H2553 0.960 . S
H2538 C2522 0.931 . S
H2539 C2527 0.929 . S
H2540 C2528 0.960 . S
H2541 C2528 0.962 . S
H2542 C2528 0.960 . S
H2543 C2529 0.961 . S
H2544 C2529 0.961 . S
H2545 C2529 0.961 . S
H2546 C2530 0.931 . S
H2547 C2535 0.930 . S
H2548 C2536 0.956 . S
H2549 C2536 0.961 . S
H2550 C2536 0.961 . S
H2551 C2537 0.958 . S
H2552 C2537 0.961 . S
H2553 C2537 0.960 . S
C2554 C2555 1.391 . S
C2554 C2556 1.394 . S
C2554 H2570 0.931 . S
C2555 C2554 1.391 . S
C2555 C2559 1.376 . S
C2556 C2554 1.394 . S
C2556 C2557 1.369 . S
C2556 C2560 1.531 . S
C2557 C2556 1.369 . S
C2557 C2558 1.410 . S
C2557 C2565 1.503 . S
C2558 C2557 1.410 . S
C2558 C2559 1.392 . S
C2558 C2561 1.511 . S
C2559 C2555 1.376 . S
C2559 C2558 1.392 . S
C2559 H2571 0.929 . S
C2560 C2556 1.531 . S
C2560 H2572 0.960 . S
C2560 H2573 0.962 . S
C2560 H2574 0.960 . S
C2561 C2558 1.511 . S
C2561 H2575 0.961 . S
C2561 H2576 0.961 . S
C2561 H2577 0.961 . S
C2562 C2563 1.370 . S
C2562 C2564 1.363 . S
C2562 H2578 0.931 . S
C2563 C2562 1.370 . S
C2563 C2567 1.408 . S
C2564 C2562 1.363 . S
C2564 C2565 1.370 . S
C2564 C2568 1.524 . S
C2565 C2557 1.503 . S
C2565 C2564 1.370 . S
C2565 C2566 1.403 . S
C2566 C2565 1.403 . S
C2566 C2567 1.404 . S
C2566 C2569 1.539 . S
C2567 C2563 1.408 . S
C2567 C2566 1.404 . S
C2567 H2579 0.930 . S
C2568 C2564 1.524 . S
C2568 H2580 0.956 . S
C2568 H2581 0.961 . S
C2568 H2582 0.961 . S
C2569 C2566 1.539 . S
C2569 H2583 0.958 . S
C2569 H2584 0.961 . S
C2569 H2585 0.960 . S
H2570 C2554 0.931 . S
H2571 C2559 0.929 . S
H2572 C2560 0.960 . S
H2573 C2560 0.962 . S
H2574 C2560 0.960 . S
H2575 C2561 0.961 . S
H2576 C2561 0.961 . S
H2577 C2561 0.961 . S
H2578 C2562 0.931 . S
H2579 C2567 0.930 . S
H2580 C2568 0.956 . S
H2581 C2568 0.961 . S
H2582 C2568 0.961 . S
H2583 C2569 0.958 . S
H2584 C2569 0.961 . S
H2585 C2569 0.960 . S
C2586 C2587 1.391 . S
C2586 C2588 1.394 . S
C2586 H2602 0.931 . S
C2587 C2586 1.391 . S
C2587 C2591 1.376 . S
C2588 C2586 1.394 . S
C2588 C2589 1.369 . S
C2588 C2592 1.531 . S
C2589 C2588 1.369 . S
C2589 C2590 1.410 . S
C2589 C2597 1.503 . S
C2590 C2589 1.410 . S
C2590 C2591 1.392 . S
C2590 C2593 1.511 . S
C2591 C2587 1.376 . S
C2591 C2590 1.392 . S
C2591 H2603 0.929 . S
C2592 C2588 1.531 . S
C2592 H2604 0.960 . S
C2592 H2605 0.962 . S
C2592 H2606 0.960 . S
C2593 C2590 1.511 . S
C2593 H2607 0.961 . S
C2593 H2608 0.961 . S
C2593 H2609 0.961 . S
C2594 C2595 1.370 . S
C2594 C2596 1.363 . S
C2594 H2610 0.931 . S
C2595 C2594 1.370 . S
C2595 C2599 1.408 . S
C2596 C2594 1.363 . S
C2596 C2597 1.370 . S
C2596 C2600 1.524 . S
C2597 C2589 1.503 . S
C2597 C2596 1.370 . S
C2597 C2598 1.403 . S
C2598 C2597 1.403 . S
C2598 C2599 1.404 . S
C2598 C2601 1.539 . S
C2599 C2595 1.408 . S
C2599 C2598 1.404 . S
C2599 H2611 0.930 . S
C2600 C2596 1.524 . S
C2600 H2612 0.956 . S
C2600 H2613 0.961 . S
C2600 H2614 0.961 . S
C2601 C2598 1.539 . S
C2601 H2615 0.958 . S
C2601 H2616 0.961 . S
C2601 H2617 0.960 . S
H2602 C2586 0.931 . S
H2603 C2591 0.929 . S
H2604 C2592 0.960 . S
H2605 C2592 0.962 . S
H2606 C2592 0.960 . S
H2607 C2593 0.961 . S
H2608 C2593 0.961 . S
H2609 C2593 0.961 . S
H2610 C2594 0.931 . S
H2611 C2599 0.930 . S
H2612 C2600 0.956 . S
H2613 C2600 0.961 . S
H2614 C2600 0.961 . S
H2615 C2601 0.958 . S
H2616 C2601 0.961 . S
H2617 C2601 0.960 . S
C2618 C2619 1.391 . S
C2618 C2620 1.394 . S
C2618 H2634 0.931 . S
C2619 C2618 1.391 . S
C2619 C2623 1.376 . S
C2620 C2618 1.394 . S
C2620 C2621 1.369 . S
C2620 C2624 1.531 . S
C2621 C2620 1.369 . S
C2621 C2622 1.410 . S
C2621 C2629 1.503 . S
C2622 C2621 1.410 . S
C2622 C2623 1.392 . S
C2622 C2625 1.511 . S
C2623 C2619 1.376 . S
C2623 C2622 1.392 . S
C2623 H2635 0.929 . S
C2624 C2620 1.531 . S
C2624 H2636 0.960 . S
C2624 H2637 0.962 . S
C2624 H2638 0.960 . S
C2625 C2622 1.511 . S
C2625 H2639 0.961 . S
C2625 H2640 0.961 . S
C2625 H2641 0.961 . S
C2626 C2627 1.370 . S
C2626 C2628 1.363 . S
C2626 H2642 0.931 . S
C2627 C2626 1.370 . S
C2627 C2631 1.408 . S
C2628 C2626 1.363 . S
C2628 C2629 1.370 . S
C2628 C2632 1.524 . S
C2629 C2621 1.503 . S
C2629 C2628 1.370 . S
C2629 C2630 1.403 . S
C2630 C2629 1.403 . S
C2630 C2631 1.404 . S
C2630 C2633 1.539 . S
C2631 C2627 1.408 . S
C2631 C2630 1.404 . S
C2631 H2643 0.930 . S
C2632 C2628 1.524 . S
C2632 H2644 0.956 . S
C2632 H2645 0.961 . S
C2632 H2646 0.961 . S
C2633 C2630 1.539 . S
C2633 H2647 0.958 . S
C2633 H2648 0.961 . S
C2633 H2649 0.960 . S
H2634 C2618 0.931 . S
H2635 C2623 0.929 . S
H2636 C2624 0.960 . S
H2637 C2624 0.962 . S
H2638 C2624 0.960 . S
H2639 C2625 0.961 . S
H2640 C2625 0.961 . S
H2641 C2625 0.961 . S
H2642 C2626 0.931 . S
H2643 C2631 0.930 . S
H2644 C2632 0.956 . S
H2645 C2632 0.961 . S
H2646 C2632 0.961 . S
H2647 C2633 0.958 . S
H2648 C2633 0.961 . S
H2649 C2633 0.960 . S
C2650 C2651 1.391 . S
C2650 C2652 1.394 . S
C2650 H2666 0.931 . S
C2651 C2650 1.391 . S
C2651 C2655 1.376 . S
C2652 C2650 1.394 . S
C2652 C2653 1.369 . S
C2652 C2656 1.531 . S
C2653 C2652 1.369 . S
C2653 C2654 1.410 . S
C2653 C2661 1.503 . S
C2654 C2653 1.410 . S
C2654 C2655 1.392 . S
C2654 C2657 1.511 . S
C2655 C2651 1.376 . S
C2655 C2654 1.392 . S
C2655 H2667 0.929 . S
C2656 C2652 1.531 . S
C2656 H2668 0.960 . S
C2656 H2669 0.962 . S
C2656 H2670 0.960 . S
C2657 C2654 1.511 . S
C2657 H2671 0.961 . S
C2657 H2672 0.961 . S
C2657 H2673 0.961 . S
C2658 C2659 1.370 . S
C2658 C2660 1.363 . S
C2658 H2674 0.931 . S
C2659 C2658 1.370 . S
C2659 C2663 1.408 . S
C2660 C2658 1.363 . S
C2660 C2661 1.370 . S
C2660 C2664 1.524 . S
C2661 C2653 1.503 . S
C2661 C2660 1.370 . S
C2661 C2662 1.403 . S
C2662 C2661 1.403 . S
C2662 C2663 1.404 . S
C2662 C2665 1.539 . S
C2663 C2659 1.408 . S
C2663 C2662 1.404 . S
C2663 H2675 0.930 . S
C2664 C2660 1.524 . S
C2664 H2676 0.956 . S
C2664 H2677 0.961 . S
C2664 H2678 0.961 . S
C2665 C2662 1.539 . S
C2665 H2679 0.958 . S
C2665 H2680 0.961 . S
C2665 H2681 0.960 . S
H2666 C2650 0.931 . S
H2667 C2655 0.929 . S
H2668 C2656 0.960 . S
H2669 C2656 0.962 . S
H2670 C2656 0.960 . S
H2671 C2657 0.961 . S
H2672 C2657 0.961 . S
H2673 C2657 0.961 . S
H2674 C2658 0.931 . S
H2675 C2663 0.930 . S
H2676 C2664 0.956 . S
H2677 C2664 0.961 . S
H2678 C2664 0.961 . S
H2679 C2665 0.958 . S
H2680 C2665 0.961 . S
H2681 C2665 0.960 . S
C955 C147 1.441 . S
C963 C254 1.383 . S
C987 C158 1.483 . S
C995 C338 1.434 . S
C1019 C136 1.442 . S
C1027 C432 1.447 . S
C1051 C125 1.428 . S
C1059 C348 1.418 1_556 S
C1091 C422 1.374 . S
C1083 C103 1.434 . S
C1115 C114 1.415 . S
C1123 C264 1.398 1_556 S
C1155 C265 1.455 . S
C1147 C131 1.514 . S
C1187 C349 1.473 . S
C1179 C109 1.533 . S
C1211 C120 1.531 . S
C1219 C441 1.473 1_556 S
C1243 C153 1.485 . S
C1251 C357 1.441 . S
C1275 C164 1.476 . S
C1283 C433 1.412 . S
C1315 C273 1.419 . S
C1307 C142 1.467 . S
C1347 C506 1.384 . S
C1339 C15 1.442 . S
C1371 C26 1.461 . S
C1379 C590 1.412 . S
C1403 C4 1.441 . S
C1411 C684 1.447 . S
C1435 C191 1.419 . S
C1443 C600 1.430 . S
C1467 C169 1.442 . S
C1475 C674 1.388 . S
C1499 C180 1.396 . S
C1507 C516 1.406 . S
C1531 C197 1.511 . S
C1539 C517 1.456 . S
C1563 C175 1.509 . S
C1571 C601 1.462 . S
C1603 C693 1.466 . S
C1595 C186 1.520 . S
C1627 C21 1.501 . S
C1635 C609 1.443 . S
C1667 C685 1.427 . S
C1659 C32 1.488 . S
C1691 C10 1.448 . S
C1699 C525 1.430 . S
C1731 C758 1.380 . S
C1723 C81 1.438 . S
C1755 C92 1.469 . S
C1763 C842 1.424 . S
C1795 C936 1.447 . S
C1787 C70 1.437 . S
C1827 C852 1.421 . S
C1819 C59 1.436 . S
C1859 C926 1.375 . S
C1851 C37 1.435 . S
C1883 C48 1.414 . S
C1891 C768 1.402 . S
C1915 C65 1.510 . S
C1923 C769 1.456 . S
C1947 C43 1.512 . S
C1955 C853 1.454 . S
C1987 C945 1.471 . S
C1979 C54 1.530 . S
C2011 C87 1.468 . S
C2019 C861 1.457 . S
C2043 C98 1.458 . S
C2051 C937 1.405 . S
C2075 C76 1.482 . S
C2083 C777 1.434 . S
C2107 C170 1.545 . S
C2115 C261 1.448 . S
C2147 C345 1.457 . S
C2139 C181 1.615 . S
C2171 C192 1.547 . S
C2179 C438 1.401 . S
C2203 C71 1.596 . S
C2211 C354 1.389 . S
C2235 C82 1.569 . S
C2243 C429 1.423 . S
C2275 C270 1.361 . S
C2267 C93 1.509 . S
C2299 C38 1.552 . S
C2307 C513 1.454 . S
C2331 C49 1.615 . S
C2339 C597 1.490 . S
C2363 C60 1.543 . S
C2371 C690 1.391 . S
C2395 C137 1.594 . S
C2403 C606 1.378 . S
C2435 C681 1.423 . S
C2427 C148 1.560 . S
C2459 C159 1.537 . S
C2467 C522 1.378 . S
C2491 C104 1.566 . S
C2499 C765 1.456 . S
C2523 C115 1.598 . S
C2531 C849 1.480 . S
C2563 C942 1.365 . S
C2555 C126 1.570 . S
C2587 C5 1.566 . S
C2595 C858 1.396 . S
C2619 C16 1.568 . S
C2627 C933 1.423 . S
C2651 C27 1.529 . S
C2659 C774 1.343 . S
