# Generated by pormake.
# Topology rtl, (3,6)-cn, num edge types: 1
# Building blocks:
#     Node 0, Type 0, BuildingBlock: BELTOD_clean_linker_0, # of connection points: 3
#     Node 1, Type 0, BuildingBlock: BELTOD_clean_linker_0, # of connection points: 3
#     Node 2, Type 0, BuildingBlock: BELTOD_clean_linker_0, # of connection points: 3
#     Node 3, Type 0, BuildingBlock: BELTOD_clean_linker_0, # of connection points: 3
#     Node 4, Type 1, BuildingBlock: VOLQOD_clean_sbu_1, # of connection points: 6
#     Node 5, Type 1, BuildingBlock: VOLQOD_clean_sbu_1, # of connection points: 6
#     Edge 6, Type (0, 1), BuildingBlock: XUDNAN_clean_linker_2, # of connection points: 2
#     Edge 7, Type (0, 1), BuildingBlock: XUDNAN_clean_linker_2, # of connection points: 2
#     Edge 8, Type (0, 1), BuildingBlock: XUDNAN_clean_linker_2, # of connection points: 2
#     Edge 9, Type (0, 1), BuildingBlock: XUDNAN_clean_linker_2, # of connection points: 2
#     Edge 10, Type (0, 1), BuildingBlock: XUDNAN_clean_linker_2, # of connection points: 2
#     Edge 11, Type (0, 1), BuildingBlock: XUDNAN_clean_linker_2, # of connection points: 2
#     Edge 12, Type (0, 1), BuildingBlock: XUDNAN_clean_linker_2, # of connection points: 2
#     Edge 13, Type (0, 1), BuildingBlock: XUDNAN_clean_linker_2, # of connection points: 2
#     Edge 14, Type (0, 1), BuildingBlock: XUDNAN_clean_linker_2, # of connection points: 2
#     Edge 15, Type (0, 1), BuildingBlock: XUDNAN_clean_linker_2, # of connection points: 2
#     Edge 16, Type (0, 1), BuildingBlock: XUDNAN_clean_linker_2, # of connection points: 2
#     Edge 17, Type (0, 1), BuildingBlock: XUDNAN_clean_linker_2, # of connection points: 2
# Relax obj value: 0.074
# Max RMSD: 0.154
# Mean RMSD: 0.083
data_MOF--net-rtl--node1-VOLQOD_clean_sbu_1--node2-BELTOD_clean_linker_0--edge1-XUDNAN_clean_linker_2
_symmetry_space_group_name_H-M    P1
_symmetry_Int_Tables_number       1
_symmetry_cell_setting            triclinic
loop_
_symmetry_equiv_pos_as_xyz
'x, y, z'
_cell_length_a     41.791338
_cell_length_b     36.511554
_cell_length_c     26.714634
_cell_angle_alpha  89.175612
_cell_angle_beta   90.429923
_cell_angle_gamma 90.089481
loop_
_atom_site_label
_atom_site_type_symbol
_atom_site_fract_x
_atom_site_fract_y
_atom_site_fract_z
_atom_type_partial_charge
P0 P 0.1725 0.79388 0.04401 0.0
H1 H 0.17873 0.82845 0.14152 0.0
H2 H 0.14033 0.83995 0.20747 0.0
H3 H 0.06914 0.77695 0.12792 0.0
H4 H 0.10794 0.76568 0.06151 0.0
H5 H 0.19351 0.7611 0.95133 0.0
H6 H 0.21802 0.70218 0.93415 0.0
H7 H 0.19942 0.66648 0.08615 0.0
H8 H 0.17529 0.72594 0.10326 0.0
H9 H 0.17906 0.86893 0.00785 0.0
H10 H 0.12395 0.77331 0.96934 0.0
O11 O 0.20702 0.8145 0.05813 0.0
H12 H 0.15125 0.90441 0.9431 0.0
H13 H 0.09522 0.80907 0.90486 0.0
C14 C 0.14608 0.79639 0.09655 0.0
C15 C 0.1551 0.81644 0.13866 0.0
C16 C 0.13313 0.8228 0.1766 0.0
C17 C 0.10165 0.80939 0.17289 0.0
C18 C 0.09314 0.78785 0.13161 0.0
C19 C 0.11527 0.78135 0.09374 0.0
C20 C 0.18207 0.74762 0.02826 0.0
C21 C 0.19367 0.74015 0.98045 0.0
C22 C 0.20765 0.70636 0.97066 0.0
C23 C 0.21069 0.67964 0.00884 0.0
C24 C 0.19758 0.68661 0.05608 0.0
C25 C 0.18355 0.72046 0.06578 0.0
C26 C 0.15389 0.81841 0.99282 0.0
C27 C 0.16116 0.85546 0.98507 0.0
C28 C 0.14498 0.87582 0.94834 0.0
C29 C 0.12083 0.85962 0.91909 0.0
C30 C 0.11389 0.82223 0.92647 0.0
C31 C 0.1302 0.80182 0.96334 0.0
P32 P 0.69021 0.69449 0.48778 0.0
H33 H 0.70587 0.67702 0.38455 0.0
H34 H 0.67292 0.66952 0.30976 0.0
H35 H 0.59009 0.70552 0.39216 0.0
H36 H 0.62401 0.71639 0.4646 0.0
H37 H 0.75556 0.7155 0.46393 0.0
H38 H 0.78583 0.77188 0.47456 0.0
H39 H 0.7021 0.82374 0.53589 0.0
H40 H 0.67152 0.76727 0.52292 0.0
H41 H 0.6349 0.64653 0.49941 0.0
H42 H 0.69167 0.71669 0.59377 0.0
O43 O 0.7166 0.66036 0.48445 0.0
H44 H 0.59903 0.63359 0.56906 0.0
H45 H 0.65601 0.70297 0.66423 0.0
C46 C 0.66706 0.69563 0.43067 0.0
C47 C 0.6807 0.6839 0.38602 0.0
C48 C 0.66163 0.67921 0.34339 0.0
C49 C 0.62835 0.68546 0.34495 0.0
C50 C 0.61544 0.7002 0.38891 0.0
C51 C 0.6348 0.70597 0.43095 0.0
C52 C 0.71162 0.73694 0.4941 0.0
C53 C 0.7437 0.73897 0.47973 0.0
C54 C 0.76105 0.77124 0.48615 0.0
C55 C 0.74665 0.80219 0.5072 0.0
C56 C 0.71399 0.80046 0.51966 0.0
C57 C 0.69654 0.76814 0.51268 0.0
C58 C 0.66488 0.68428 0.54052 0.0
C59 C 0.63937 0.65968 0.53486 0.0
C60 C 0.61895 0.65215 0.5747 0.0
C61 C 0.62439 0.66803 0.62152 0.0
C62 C 0.6511 0.69088 0.62818 0.0
C63 C 0.67128 0.69893 0.58787 0.0
P64 P 0.89168 0.33747 0.00291 0.0
H65 H 0.92365 0.36553 0.9132 0.0
H66 H 0.94146 0.33625 0.83646 0.0
H67 H 0.90704 0.23198 0.89282 0.0
H68 H 0.88893 0.26147 0.96885 0.0
H69 H 0.85186 0.39938 0.03203 0.0
H70 H 0.79399 0.40878 0.03178 0.0
H71 H 0.78091 0.30445 0.9598 0.0
H72 H 0.83835 0.29468 0.96213 0.0
H73 H 0.93702 0.27817 0.02888 0.0
H74 H 0.86082 0.33671 0.10049 0.0
O75 O 0.91153 0.3767 0.01059 0.0
H76 H 0.94156 0.23737 0.10149 0.0
H77 H 0.86665 0.29781 0.17458 0.0
C78 C 0.90561 0.31554 0.94717 0.0
C79 C 0.92012 0.33634 0.90913 0.0
C80 C 0.93029 0.31958 0.8653 0.0
C81 C 0.92573 0.28178 0.85863 0.0
C82 C 0.91061 0.2612 0.89655 0.0
C83 C 0.90055 0.27798 0.9403 0.0
C84 C 0.84955 0.34665 0.99624 0.0
C85 C 0.83654 0.37881 0.01553 0.0
C86 C 0.80341 0.38416 0.0153 0.0
C87 C 0.78275 0.35733 0.99583 0.0
C88 C 0.79604 0.32544 0.97577 0.0
C89 C 0.82907 0.32003 0.97643 0.0
C90 C 0.8975 0.30938 0.05821 0.0
C91 C 0.92118 0.28223 0.06016 0.0
C92 C 0.92409 0.25921 0.10222 0.0
C93 C 0.90404 0.26372 0.14381 0.0
C94 C 0.88173 0.29257 0.14271 0.0
C95 C 0.87848 0.31507 0.10033 0.0
P96 P 0.40538 0.16334 0.49469 0.0
H97 H 0.45044 0.17018 0.57963 0.0
H98 H 0.45709 0.21747 0.64319 0.0
H99 H 0.37273 0.27253 0.58569 0.0
H100 H 0.36693 0.22617 0.52178 0.0
H101 H 0.38025 0.10861 0.42707 0.0
H102 H 0.32695 0.08219 0.41592 0.0
H103 H 0.29482 0.13911 0.54721 0.0
H104 H 0.34829 0.16329 0.55967 0.0
H105 H 0.45889 0.19232 0.43581 0.0
H106 H 0.3558 0.19805 0.43265 0.0
O107 O 0.43586 0.13388 0.49617 0.0
H108 H 0.46126 0.23759 0.36709 0.0
H109 H 0.358 0.24262 0.36415 0.0
C110 C 0.4082 0.1947 0.54598 0.0
C111 C 0.43323 0.19225 0.58113 0.0
C112 C 0.43692 0.2192 0.61759 0.0
C113 C 0.41565 0.24899 0.61915 0.0
C114 C 0.38993 0.25039 0.58493 0.0
C115 C 0.38645 0.22373 0.54851 0.0
C116 C 0.36821 0.13828 0.49375 0.0
C117 C 0.36186 0.11458 0.45412 0.0
C118 C 0.33124 0.09989 0.44744 0.0
C119 C 0.30631 0.10897 0.48012 0.0
C120 C 0.31334 0.13122 0.5214 0.0
C121 C 0.34404 0.14552 0.52831 0.0
C122 C 0.4072 0.1913 0.43873 0.0
C123 C 0.4368 0.20258 0.41951 0.0
C124 C 0.43811 0.22841 0.3803 0.0
C125 C 0.4098 0.24372 0.36042 0.0
C126 C 0.38022 0.23155 0.379 0.0
C127 C 0.37894 0.20575 0.4179 0.0
O128 O 0.91672 0.01961 0.53344 0.0
Zn129 Zn 0.95248 0.05597 0.52147 0.0
O130 O 0.99321 0.03073 0.51427 0.0
Zn131 Zn 0.0236 0.05223 0.55939 0.0
Zn132 Zn 0.98934 0.97854 0.53012 0.0
Zn133 Zn 0.00892 0.03702 0.44667 0.0
O134 O 0.06621 0.05973 0.52695 0.0
O135 O 0.05591 0.05056 0.44652 0.0
O136 O 0.95485 0.09387 0.57641 0.0
O137 O 0.00752 0.09962 0.58578 0.0
O138 O 0.03019 0.01925 0.61859 0.0
O139 O 0.01185 0.96481 0.59562 0.0
O140 O 0.0047 0.94772 0.47239 0.0
O141 O 0.94198 0.08422 0.45807 0.0
O142 O 0.00489 0.98944 0.41063 0.0
O143 O 0.98376 0.07545 0.40868 0.0
C144 C 0.91667 0.98483 0.53864 0.0
C145 C 0.07542 0.05824 0.48173 0.0
C146 C 0.02554 0.98536 0.62753 0.0
C147 C 0.97918 0.11063 0.59403 0.0
C148 C 0.00616 0.9563 0.42601 0.0
C149 C 0.95696 0.09052 0.41747 0.0
O150 O 0.94259 0.96647 0.53816 0.0
O151 O 0.55786 0.47181 0.99299 0.0
Zn152 Zn 0.52286 0.50923 0.99242 0.0
O153 O 0.48081 0.48578 0.99224 0.0
Zn154 Zn 0.45791 0.50096 0.93223 0.0
Zn155 Zn 0.48557 0.43204 0.993 0.0
Zn156 Zn 0.45642 0.50218 0.04983 0.0
O157 O 0.41389 0.51917 0.94682 0.0
O158 O 0.4136 0.52339 0.02951 0.0
O159 O 0.52887 0.54241 0.93205 0.0
O160 O 0.48149 0.54008 0.89425 0.0
O161 O 0.45288 0.45901 0.88647 0.0
O162 O 0.46793 0.4092 0.92887 0.0
O163 O 0.46445 0.40994 0.05457 0.0
O164 O 0.52866 0.54011 0.05348 0.0
O165 O 0.44708 0.45898 0.09476 0.0
O166 O 0.48088 0.54004 0.08959 0.0
C167 C 0.55821 0.43698 0.99556 0.0
C168 C 0.39978 0.52731 0.98714 0.0
C169 C 0.4568 0.42452 0.88919 0.0
C170 C 0.50978 0.5528 0.8973 0.0
C171 C 0.45083 0.42444 0.092 0.0
C172 C 0.50981 0.55099 0.08738 0.0
O173 O 0.53236 0.41844 0.99677 0.0
H174 H 0.2596 0.08922 0.54772 0.0
H175 H 0.27649 0.10397 0.38843 0.0
H176 H 0.21988 0.08972 0.37107 0.0
H177 H 0.20074 0.01607 0.53891 0.0
H178 H 0.17689 0.03368 0.58906 0.0
H179 H 0.21945 0.04155 0.58851 0.0
H180 H 0.20971 0.11149 0.59387 0.0
H181 H 0.16715 0.10385 0.59417 0.0
H182 H 0.18459 0.13385 0.54762 0.0
H183 H 0.16054 0.07698 0.37127 0.0
H184 H 0.10327 0.06672 0.38939 0.0
H185 H 0.12512 0.06376 0.54861 0.0
C186 C 0.25152 0.08939 0.50913 0.0
C187 C 0.27275 0.09751 0.4695 0.0
C188 C 0.26103 0.09706 0.4195 0.0
C189 C 0.22879 0.08928 0.40921 0.0
C190 C 0.20847 0.08214 0.44926 0.0
C191 C 0.2194 0.08209 0.49821 0.0
C192 C 0.1924 0.07535 0.53464 0.0
C193 C 0.19769 0.03952 0.56453 0.0
C194 C 0.18823 0.10809 0.56962 0.0
C195 C 0.16451 0.07207 0.49855 0.0
C196 C 0.17426 0.07574 0.44945 0.0
C197 C 0.15262 0.07395 0.40959 0.0
C198 C 0.12015 0.06817 0.42026 0.0
C199 C 0.10963 0.06457 0.4704 0.0
C200 C 0.13227 0.06657 0.50986 0.0
H201 H 0.25581 0.65164 0.07295 0.0
H202 H 0.21326 0.63578 0.9262 0.0
H203 H 0.2544 0.58938 0.908 0.0
H204 H 0.3333 0.64945 0.03672 0.0
H205 H 0.34892 0.62522 0.09083 0.0
H206 H 0.3132 0.65218 0.09603 0.0
H207 H 0.28216 0.59567 0.12987 0.0
H208 H 0.318 0.56852 0.12555 0.0
H209 H 0.28179 0.55396 0.09456 0.0
H210 H 0.30446 0.55238 0.90115 0.0
H211 H 0.35819 0.52476 0.90766 0.0
H212 H 0.36727 0.56377 0.05988 0.0
C213 C 0.25428 0.63733 0.03779 0.0
C214 C 0.2312 0.64713 0.0011 0.0
C215 C 0.23079 0.62871 0.95479 0.0
C216 C 0.25394 0.60222 0.94424 0.0
C217 C 0.27709 0.59423 0.9806 0.0
C218 C 0.27715 0.61086 0.02675 0.0
C219 C 0.30627 0.60001 0.05755 0.0
C220 C 0.32661 0.63372 0.07103 0.0
C221 C 0.29646 0.57823 0.10467 0.0
C222 C 0.32328 0.57587 0.02074 0.0
C223 C 0.30591 0.57257 0.97678 0.0
C224 C 0.31797 0.55413 0.93575 0.0
C225 C 0.34861 0.53876 0.93971 0.0
C226 C 0.36686 0.54196 0.98438 0.0
C227 C 0.35372 0.56036 0.02554 0.0
H228 H 0.80879 0.80598 0.54021 0.0
H229 H 0.72847 0.87435 0.49478 0.0
H230 H 0.76188 0.92954 0.50663 0.0
H231 H 0.84355 0.86759 0.63238 0.0
H232 H 0.88397 0.8565 0.61514 0.0
H233 H 0.85267 0.82288 0.60856 0.0
H234 H 0.86656 0.81593 0.51473 0.0
H235 H 0.89793 0.84936 0.52108 0.0
H236 H 0.86699 0.85598 0.47446 0.0
H237 H 0.80563 0.97705 0.51756 0.0
H238 H 0.85606 0.01224 0.52324 0.0
H239 H 0.90757 0.9118 0.55838 0.0
C240 C 0.7981 0.83251 0.53274 0.0
C241 C 0.76594 0.83574 0.5165 0.0
C242 C 0.75289 0.87111 0.50791 0.0
C243 C 0.77171 0.90263 0.51441 0.0
C244 C 0.80349 0.89831 0.52965 0.0
C245 C 0.81653 0.86408 0.53867 0.0
C246 C 0.85178 0.86649 0.5514 0.0
C247 C 0.85837 0.85254 0.60507 0.0
C248 C 0.87199 0.84573 0.51313 0.0
C249 C 0.85681 0.90741 0.54697 0.0
C250 C 0.82864 0.92542 0.53513 0.0
C251 C 0.82777 0.96324 0.52726 0.0
C252 C 0.85655 0.983 0.53065 0.0
C253 C 0.88583 0.96483 0.54127 0.0
C254 C 0.88565 0.92661 0.55038 0.0
H255 H 0.74804 0.42041 0.97952 0.0
H256 H 0.73754 0.30488 0.01694 0.0
H257 H 0.67896 0.31235 0.01939 0.0
H258 H 0.68591 0.45179 0.06108 0.0
H259 H 0.67273 0.48751 0.01849 0.0
H260 H 0.71384 0.47279 0.01828 0.0
H261 H 0.70927 0.45926 0.92349 0.0
H262 H 0.66813 0.47386 0.92345 0.0
H263 H 0.67829 0.42892 0.90154 0.0
H264 H 0.62146 0.33234 0.01766 0.0
H265 H 0.56925 0.36391 0.014 0.0
H266 H 0.61774 0.46669 0.98091 0.0
C267 C 0.7335 0.39671 0.98862 0.0
C268 C 0.74746 0.36199 0.99764 0.0
C269 C 0.72743 0.33162 0.00887 0.0
C270 C 0.69412 0.33561 0.01071 0.0
C271 C 0.68119 0.37019 0.00152 0.0
C272 C 0.70024 0.40023 0.99092 0.0
C273 C 0.68037 0.43449 0.98317 0.0
C274 C 0.68871 0.46334 0.02262 0.0
C275 C 0.68425 0.45003 0.92973 0.0
C276 C 0.64717 0.41897 0.99109 0.0
C277 C 0.64813 0.38182 0.00143 0.0
C278 C 0.62039 0.36146 0.00969 0.0
C279 C 0.59086 0.37963 0.00746 0.0
C280 C 0.58936 0.4178 0.99729 0.0
C281 C 0.618 0.43755 0.989 0.0
H282 H 0.10745 0.81451 0.27507 0.0
H283 H 0.04139 0.8339 0.15151 0.0
H284 H 0.00469 0.86535 0.2083 0.0
H285 H 0.04446 0.80505 0.37648 0.0
H286 H 0.06961 0.82856 0.42077 0.0
H287 H 0.08735 0.80072 0.37318 0.0
H288 H 0.12142 0.85621 0.34372 0.0
H289 H 0.10365 0.88424 0.39069 0.0
H290 H 0.10169 0.89833 0.3258 0.0
H291 H 0.98165 0.90587 0.27196 0.0
H292 H 0.97142 0.94856 0.34095 0.0
H293 H 0.05048 0.90153 0.42549 0.0
C294 C 0.08479 0.82441 0.26039 0.0
C295 C 0.07718 0.82156 0.20895 0.0
C296 C 0.04746 0.83512 0.19093 0.0
C297 C 0.02649 0.85316 0.22291 0.0
C298 C 0.03533 0.85691 0.27296 0.0
C299 C 0.0635 0.84233 0.29193 0.0
C300 C 0.06895 0.85346 0.34577 0.0
C301 C 0.06749 0.81994 0.38114 0.0
C302 C 0.1008 0.8743 0.3518 0.0
C303 C 0.04047 0.87836 0.35311 0.0
C304 C 0.02119 0.87961 0.31077 0.0
C305 C 0.99587 0.90423 0.30593 0.0
C306 C 0.99034 0.92846 0.34507 0.0
C307 C 0.00978 0.92757 0.38858 0.0
C308 C 0.03468 0.90171 0.39316 0.0
H309 H 0.63899 0.64218 0.71564 0.0
H310 H 0.55964 0.6749 0.61969 0.0
H311 H 0.52153 0.65556 0.68522 0.0
H312 H 0.60442 0.56207 0.75985 0.0
H313 H 0.62001 0.56461 0.82281 0.0
H314 H 0.64121 0.58632 0.7721 0.0
H315 H 0.6393 0.64834 0.81795 0.0
H316 H 0.61816 0.62673 0.86903 0.0
H317 H 0.60131 0.6663 0.83757 0.0
H318 H 0.49229 0.62655 0.75585 0.0
H319 H 0.47341 0.58886 0.82693 0.0
H320 H 0.57161 0.57408 0.8776 0.0
C321 C 0.61361 0.64621 0.70922 0.0
C322 C 0.6021 0.66023 0.663 0.0
C323 C 0.56877 0.66422 0.65503 0.0
C324 C 0.54702 0.65351 0.69206 0.0
C325 C 0.55904 0.63892 0.73683 0.0
C326 C 0.59153 0.63534 0.74572 0.0
C327 C 0.59798 0.6155 0.79498 0.0
C328 C 0.61702 0.58003 0.78692 0.0
C329 C 0.6152 0.64073 0.83208 0.0
C330 C 0.56406 0.60742 0.81147 0.0
C331 C 0.542 0.62168 0.77773 0.0
C332 C 0.50928 0.61571 0.78297 0.0
C333 C 0.49881 0.59412 0.82339 0.0
C334 C 0.52101 0.57859 0.85796 0.0
C335 C 0.55401 0.58598 0.85227 0.0
H336 H 0.9575 0.23003 0.18487 0.0
H337 H 0.85441 0.23853 0.20183 0.0
H338 H 0.85705 0.19647 0.27452 0.0
H339 H 0.9614 0.13332 0.21311 0.0
H340 H 0.99926 0.13646 0.24554 0.0
H341 H 0.98957 0.16873 0.19612 0.0
H342 H -0.00042 0.22247 0.25664 0.0
H343 H 0.00924 0.19037 0.30628 0.0
H344 H 0.97819 0.22384 0.31494 0.0
H345 H 0.87075 0.15406 0.34599 0.0
H346 H 0.8944 0.11164 0.40879 0.0
H347 H 0.98779 0.12722 0.34152 0.0
C348 C 0.93537 0.22289 0.20344 0.0
C349 C 0.90578 0.23811 0.18766 0.0
C350 C 0.87753 0.22814 0.21372 0.0
C351 C 0.8787 0.20397 0.2549 0.0
C352 C 0.90822 0.18958 0.26932 0.0
C353 C 0.93601 0.1984 0.24418 0.0
C354 C 0.96452 0.1783 0.26651 0.0
C355 C 0.97956 0.15268 0.22802 0.0
C356 C 0.98934 0.20537 0.28733 0.0
C357 C 0.94838 0.15684 0.30817 0.0
C358 C 0.91595 0.16399 0.30939 0.0
C359 C 0.89609 0.14807 0.34528 0.0
C360 C 0.90975 0.12409 0.38084 0.0
C361 C 0.94288 0.11597 0.37987 0.0
C362 C 0.96234 0.13258 0.34291 0.0
H363 H 0.43442 0.24624 0.71889 0.0
H364 H 0.40985 0.32179 0.59751 0.0
H365 H 0.41708 0.37368 0.65404 0.0
H366 H 0.39599 0.29563 0.81719 0.0
H367 H 0.42675 0.28647 0.86333 0.0
H368 H 0.41968 0.25453 0.81366 0.0
H369 H 0.47917 0.25925 0.78779 0.0
H370 H 0.48645 0.2911 0.83751 0.0
H371 H 0.49622 0.30359 0.77391 0.0
H372 H 0.42578 0.41708 0.72196 0.0
H373 H 0.43761 0.45112 0.7982 0.0
H374 H 0.45848 0.34897 0.87757 0.0
C375 C 0.43078 0.27372 0.70421 0.0
C376 C 0.42109 0.27987 0.65386 0.0
C377 C 0.4165 0.31627 0.63614 0.0
C378 C 0.42076 0.34599 0.66787 0.0
C379 C 0.42986 0.33901 0.71724 0.0
C380 C 0.43504 0.30393 0.73549 0.0
C381 C 0.4449 0.30451 0.79035 0.0
C382 C 0.42036 0.28407 0.82306 0.0
C383 C 0.4787 0.28868 0.79781 0.0
C384 C 0.44433 0.34542 0.79984 0.0
C385 C 0.43548 0.36457 0.75698 0.0
C386 C 0.43283 0.40248 0.7558 0.0
C387 C 0.43958 0.42155 0.79955 0.0
C388 C 0.44903 0.40282 0.84417 0.0
C389 C 0.45137 0.36412 0.84419 0.0
H390 H 0.63722 0.62805 0.28055 0.0
H391 H 0.57039 0.71544 0.31381 0.0
H392 H 0.53253 0.69049 0.2519 0.0
H393 H 0.62111 0.62938 0.1452 0.0
H394 H 0.62638 0.58054 0.14083 0.0
H395 H 0.64815 0.60581 0.18748 0.0
H396 H 0.62527 0.5629 0.25661 0.0
H397 H 0.60305 0.53786 0.21037 0.0
H398 H 0.58253 0.55786 0.26239 0.0
H399 H 0.49975 0.6519 0.19177 0.0
H400 H 0.47808 0.60798 0.13011 0.0
H401 H 0.56911 0.55121 0.12998 0.0
C402 C 0.61514 0.64287 0.27417 0.0
C403 C 0.60697 0.67371 0.30297 0.0
C404 C 0.57717 0.69127 0.29352 0.0
C405 C 0.5555 0.67746 0.25803 0.0
C406 C 0.56419 0.64658 0.23133 0.0
C407 C 0.59363 0.63008 0.23816 0.0
C408 C 0.59744 0.59744 0.20448 0.0
C409 C 0.62489 0.60368 0.16729 0.0
C410 C 0.60235 0.56193 0.23532 0.0
C411 C 0.56529 0.59771 0.17821 0.0
C412 C 0.54623 0.62597 0.19457 0.0
C413 C 0.51468 0.63011 0.178 0.0
C414 C 0.50252 0.60499 0.1433 0.0
C415 C 0.52211 0.57664 0.12504 0.0
C416 C 0.55385 0.57309 0.14273 0.0
H417 H 0.89519 0.22922 0.80328 0.0
H418 H 0.98301 0.29256 0.81168 0.0
H419 H 0.00421 0.25915 0.73947 0.0
H420 H 0.93117 0.14511 0.77716 0.0
H421 H 0.90036 0.12987 0.73469 0.0
H422 H 0.8907 0.16135 0.78349 0.0
H423 H 0.86767 0.20704 0.71744 0.0
H424 H 0.87725 0.17563 0.66834 0.0
H425 H 0.8923 0.22191 0.66587 0.0
H426 H 0.018 0.21497 0.67268 0.0
H427 H 0.02306 0.16391 0.61392 0.0
H428 H 0.92606 0.12943 0.6479 0.0
C429 C 0.91878 0.23626 0.78965 0.0
C430 C 0.93743 0.26357 0.81301 0.0
C431 C 0.96812 0.27213 0.79392 0.0
C432 C 0.9804 0.25323 0.75304 0.0
C433 C 0.9616 0.22608 0.73144 0.0
C434 C 0.93136 0.21776 0.7488 0.0
C435 C 0.91674 0.1861 0.72053 0.0
C436 C 0.90932 0.1537 0.75609 0.0
C437 C 0.88671 0.19842 0.69131 0.0
C438 C 0.94387 0.17723 0.68552 0.0
C439 C 0.96942 0.20079 0.69225 0.0
C440 C 0.998 0.19668 0.66654 0.0
C441 C 0.00067 0.1675 0.6334 0.0
C442 C 0.97489 0.14283 0.62614 0.0
C443 C 0.94597 0.14819 0.65205 0.0
H444 H 0.44658 0.24908 0.27535 0.0
H445 H 0.37587 0.3073 0.36175 0.0
H446 H 0.37759 0.35869 0.30098 0.0
H447 H 0.4937 0.32765 0.24129 0.0
H448 H 0.50216 0.31206 0.17906 0.0
H449 H 0.49494 0.27929 0.22874 0.0
H450 H 0.44952 0.24996 0.17622 0.0
H451 H 0.45656 0.28271 0.1264 0.0
H452 H 0.4172 0.27824 0.15295 0.0
H453 H 0.3883 0.40458 0.23364 0.0
H454 H 0.40645 0.44209 0.16189 0.0
H455 H 0.46944 0.35412 0.11705 0.0
C456 C 0.4315 0.27267 0.28138 0.0
C457 C 0.41092 0.27412 0.32306 0.0
C458 C 0.39143 0.30537 0.32965 0.0
C459 C 0.39234 0.33477 0.29549 0.0
C460 C 0.41277 0.33246 0.25477 0.0
C461 C 0.43192 0.30223 0.24734 0.0
C462 C 0.45183 0.30698 0.20044 0.0
C463 C 0.48778 0.30647 0.21316 0.0
C464 C 0.44325 0.27773 0.16171 0.0
C465 C 0.44104 0.34473 0.18306 0.0
C466 C 0.41856 0.35888 0.21509 0.0
C467 C 0.40573 0.39375 0.20805 0.0
C468 C 0.41627 0.41487 0.16723 0.0
C469 C 0.43925 0.401 0.13373 0.0
C470 C 0.45157 0.3653 0.14166 0.0
H471 H 0.10212 0.84188 0.82309 0.0
H472 H 0.09784 0.92862 0.93238 0.0
H473 H 0.07041 0.96843 0.87063 0.0
H474 H 0.11793 0.89815 0.718 0.0
H475 H 0.0933 0.87291 0.6748 0.0
H476 H 0.11081 0.84992 0.72838 0.0
H477 H 0.05466 0.82802 0.75642 0.0
H478 H 0.03696 0.85085 0.70275 0.0
H479 H 0.02331 0.86118 0.76481 0.0
H480 H 0.04789 0.00046 0.79664 0.0
H481 H 0.02903 0.02273 0.71422 0.0
H482 H 0.04501 0.91508 0.65219 0.0
C483 C 0.09488 0.86901 0.83424 0.0
C484 C 0.10241 0.88227 0.88245 0.0
C485 C 0.09289 0.91811 0.89541 0.0
C486 C 0.07706 0.94084 0.86075 0.0
C487 C 0.07057 0.92724 0.81337 0.0
C488 C 0.07886 0.89212 0.80003 0.0
C489 C 0.06996 0.88498 0.74584 0.0
C490 C 0.09978 0.87597 0.71495 0.0
C491 C 0.04471 0.85444 0.74227 0.0
C492 C 0.05601 0.92187 0.73067 0.0
C493 C 0.05661 0.94571 0.77041 0.0
C494 C 0.04687 0.98198 0.76536 0.0
C495 C 0.03637 0.99439 0.71833 0.0
C496 C 0.03545 0.97058 0.67696 0.0
C497 C 0.04503 0.93369 0.68339 0.0
loop_
_geom_bond_atom_site_label_1
_geom_bond_atom_site_label_2
_geom_bond_distance
_geom_bond_site_symmetry_2
_ccdc_geom_bond_type
P0 O11 1.490 . S
P0 C14 1.812 . S
P0 C20 1.803 . S
P0 C26 1.819 1_554 S
H1 C15 0.941 . S
H2 C16 0.939 . S
H3 C18 0.940 . S
H4 C19 0.940 . S
H5 C21 0.939 . S
H6 C22 0.942 . S
H7 C24 0.940 . S
H8 C25 0.939 . S
H9 C27 0.941 . S
H10 C31 0.939 . S
O11 P0 1.490 . S
H12 C28 0.939 . S
H13 C30 0.940 . S
C14 P0 1.812 . S
C14 C15 1.389 . S
C14 C19 1.391 . S
C15 H1 0.941 . S
C15 C14 1.389 . S
C15 C16 1.397 . S
C16 H2 0.939 . S
C16 C15 1.397 . S
C16 C17 1.378 . S
C17 C16 1.378 . S
C17 C18 1.378 . S
C18 H3 0.940 . S
C18 C17 1.378 . S
C18 C19 1.396 . S
C19 H4 0.940 . S
C19 C14 1.391 . S
C19 C18 1.396 . S
C20 P0 1.803 . S
C20 C21 1.378 1_554 S
C20 C25 1.400 . S
C21 H5 0.939 . S
C21 C20 1.378 1_556 S
C21 C22 1.361 . S
C22 H6 0.942 . S
C22 C21 1.361 . S
C22 C23 1.369 1_556 S
C23 C22 1.369 1_554 S
C23 C24 1.404 . S
C24 H7 0.940 . S
C24 C23 1.404 . S
C24 C25 1.389 . S
C25 H8 0.939 . S
C25 C20 1.400 . S
C25 C24 1.389 . S
C26 P0 1.819 1_556 S
C26 C27 1.391 . S
C26 C31 1.391 . S
C27 H9 0.941 . S
C27 C26 1.391 . S
C27 C28 1.396 . S
C28 H12 0.939 . S
C28 C27 1.396 . S
C28 C29 1.397 . S
C29 C28 1.397 . S
C29 C30 1.385 . S
C30 H13 0.940 . S
C30 C29 1.385 . S
C30 C31 1.388 . S
C31 H10 0.939 . S
C31 C26 1.391 . S
C31 C30 1.388 . S
P32 O43 1.490 . S
P32 C46 1.812 . S
P32 C52 1.803 . S
P32 C58 1.819 . S
H33 C47 0.941 . S
H34 C48 0.939 . S
H35 C50 0.940 . S
H36 C51 0.940 . S
H37 C53 0.939 . S
H38 C54 0.942 . S
H39 C56 0.940 . S
H40 C57 0.939 . S
H41 C59 0.941 . S
H42 C63 0.939 . S
O43 P32 1.490 . S
H44 C60 0.939 . S
H45 C62 0.940 . S
C46 P32 1.812 . S
C46 C47 1.389 . S
C46 C51 1.391 . S
C47 H33 0.941 . S
C47 C46 1.389 . S
C47 C48 1.397 . S
C48 H34 0.939 . S
C48 C47 1.397 . S
C48 C49 1.378 . S
C49 C48 1.378 . S
C49 C50 1.378 . S
C50 H35 0.940 . S
C50 C49 1.378 . S
C50 C51 1.396 . S
C51 H36 0.940 . S
C51 C46 1.391 . S
C51 C50 1.396 . S
C52 P32 1.803 . S
C52 C53 1.378 . S
C52 C57 1.400 . S
C53 H37 0.939 . S
C53 C52 1.378 . S
C53 C54 1.361 . S
C54 H38 0.942 . S
C54 C53 1.361 . S
C54 C55 1.369 . S
C55 C54 1.369 . S
C55 C56 1.404 . S
C56 H39 0.940 . S
C56 C55 1.404 . S
C56 C57 1.389 . S
C57 H40 0.939 . S
C57 C52 1.400 . S
C57 C56 1.389 . S
C58 P32 1.819 . S
C58 C59 1.391 . S
C58 C63 1.391 . S
C59 H41 0.941 . S
C59 C58 1.391 . S
C59 C60 1.396 . S
C60 H44 0.939 . S
C60 C59 1.396 . S
C60 C61 1.397 . S
C61 C60 1.397 . S
C61 C62 1.385 . S
C62 H45 0.940 . S
C62 C61 1.385 . S
C62 C63 1.388 . S
C63 H42 0.939 . S
C63 C58 1.391 . S
C63 C62 1.388 . S
P64 O75 1.490 . S
P64 C78 1.812 . S
P64 C84 1.803 . S
P64 C90 1.819 1_556 S
H65 C79 0.941 . S
H66 C80 0.939 . S
H67 C82 0.940 . S
H68 C83 0.940 . S
H69 C85 0.939 . S
H70 C86 0.942 . S
H71 C88 0.940 . S
H72 C89 0.939 . S
H73 C91 0.941 . S
H74 C95 0.939 . S
O75 P64 1.490 . S
H76 C92 0.939 . S
H77 C94 0.940 . S
C78 P64 1.812 . S
C78 C79 1.389 . S
C78 C83 1.391 . S
C79 H65 0.941 . S
C79 C78 1.389 . S
C79 C80 1.397 . S
C80 H66 0.939 . S
C80 C79 1.397 . S
C80 C81 1.378 . S
C81 C80 1.378 . S
C81 C82 1.378 . S
C82 H67 0.940 . S
C82 C81 1.378 . S
C82 C83 1.396 . S
C83 H68 0.940 . S
C83 C78 1.391 . S
C83 C82 1.396 . S
C84 P64 1.803 . S
C84 C85 1.378 1_556 S
C84 C89 1.400 . S
C85 H69 0.939 . S
C85 C84 1.378 1_554 S
C85 C86 1.361 . S
C86 H70 0.942 . S
C86 C85 1.361 . S
C86 C87 1.373 . S
C87 C86 1.373 . S
C87 C88 1.399 1_554 S
C88 H71 0.940 . S
C88 C87 1.399 1_556 S
C88 C89 1.389 . S
C89 H72 0.939 . S
C89 C84 1.400 . S
C89 C88 1.389 . S
C90 P64 1.819 1_554 S
C90 C91 1.391 . S
C90 C95 1.391 . S
C91 H73 0.941 . S
C91 C90 1.391 . S
C91 C92 1.396 . S
C92 H76 0.939 . S
C92 C91 1.396 . S
C92 C93 1.397 . S
C93 C92 1.397 . S
C93 C94 1.385 . S
C94 H77 0.940 . S
C94 C93 1.385 . S
C94 C95 1.388 . S
C95 H74 0.939 . S
C95 C90 1.391 . S
C95 C94 1.388 . S
P96 O107 1.490 . S
P96 C110 1.812 . S
P96 C116 1.803 . S
P96 C122 1.819 . S
H97 C111 0.941 . S
H98 C112 0.939 . S
H99 C114 0.940 . S
H100 C115 0.940 . S
H101 C117 0.939 . S
H102 C118 0.942 . S
H103 C120 0.940 . S
H104 C121 0.939 . S
H105 C123 0.941 . S
H106 C127 0.939 . S
O107 P96 1.490 . S
H108 C124 0.939 . S
H109 C126 0.940 . S
C110 P96 1.812 . S
C110 C111 1.389 . S
C110 C115 1.391 . S
C111 H97 0.941 . S
C111 C110 1.389 . S
C111 C112 1.397 . S
C112 H98 0.939 . S
C112 C111 1.397 . S
C112 C113 1.378 . S
C113 C112 1.378 . S
C113 C114 1.378 . S
C114 H99 0.940 . S
C114 C113 1.378 . S
C114 C115 1.396 . S
C115 H100 0.940 . S
C115 C110 1.391 . S
C115 C114 1.396 . S
C116 P96 1.803 . S
C116 C117 1.378 . S
C116 C121 1.400 . S
C117 H101 0.939 . S
C117 C116 1.378 . S
C117 C118 1.361 . S
C118 H102 0.942 . S
C118 C117 1.361 . S
C118 C119 1.369 . S
C119 C118 1.369 . S
C119 C120 1.404 . S
C120 H103 0.940 . S
C120 C119 1.404 . S
C120 C121 1.389 . S
C121 H104 0.939 . S
C121 C116 1.400 . S
C121 C120 1.389 . S
C122 P96 1.819 . S
C122 C123 1.391 . S
C122 C127 1.391 . S
C123 H105 0.941 . S
C123 C122 1.391 . S
C123 C124 1.396 . S
C124 H108 0.939 . S
C124 C123 1.396 . S
C124 C125 1.397 . S
C125 C124 1.397 . S
C125 C126 1.385 . S
C126 H109 0.940 . S
C126 C125 1.385 . S
C126 C127 1.388 . S
C127 H106 0.939 . S
C127 C122 1.391 . S
C127 C126 1.388 . S
O128 Zn129 1.953 1_565 S
O128 C144 1.225 . S
Zn129 O128 1.953 1_545 S
Zn129 O130 1.949 1_655 S
Zn129 O136 1.919 . S
Zn129 O141 1.924 . S
O130 Zn129 1.949 1_455 S
O130 Zn131 1.923 . S
O130 Zn132 1.950 1_445 S
O130 Zn133 1.945 . S
Zn131 O130 1.923 . S
Zn131 O134 1.933 . S
Zn131 O137 1.941 . S
Zn131 O138 1.965 1_545 S
Zn132 O130 1.950 1_665 S
Zn132 O139 1.938 1_655 S
Zn132 O140 1.906 1_655 S
Zn132 O150 1.953 . S
Zn133 O130 1.945 . S
Zn133 O135 1.932 . S
Zn133 O142 1.977 1_545 S
Zn133 O143 1.910 1_455 S
O134 Zn131 1.933 . S
O134 C145 1.226 . S
O135 Zn133 1.932 . S
O135 C145 1.307 . S
O136 Zn129 1.919 . S
O136 C147 1.253 . S
O137 Zn131 1.941 . S
O137 C147 1.283 1_455 S
O138 Zn131 1.965 1_565 S
O138 C146 1.303 . S
O139 Zn132 1.938 1_455 S
O139 C146 1.247 . S
O140 Zn132 1.906 1_455 S
O140 C148 1.304 . S
O141 Zn129 1.924 . S
O141 C149 1.311 . S
O142 Zn133 1.977 1_565 S
O142 C148 1.272 . S
O143 Zn133 1.910 1_655 S
O143 C149 1.231 . S
C144 O128 1.225 . S
C144 O150 1.298 . S
C145 O134 1.226 . S
C145 O135 1.307 . S
C146 O138 1.303 . S
C146 O139 1.247 . S
C147 O136 1.253 . S
C147 O137 1.283 1_655 S
C148 O140 1.304 . S
C148 O142 1.272 . S
C149 O141 1.311 . S
C149 O143 1.231 . S
O150 Zn132 1.953 . S
O150 C144 1.298 . S
O151 Zn152 1.953 . S
O151 C167 1.225 1_556 S
Zn152 O151 1.953 . S
Zn152 O153 1.949 1_556 S
Zn152 O159 1.919 . S
Zn152 O164 1.924 1_556 S
O153 Zn152 1.949 1_554 S
O153 Zn154 1.923 1_554 S
O153 Zn155 1.950 . S
O153 Zn156 1.945 . S
Zn154 O153 1.923 1_556 S
Zn154 O157 1.933 . S
Zn154 O160 1.941 . S
Zn154 O161 1.965 . S
Zn155 O153 1.950 . S
Zn155 O162 1.938 1_554 S
Zn155 O163 1.906 . S
Zn155 O173 1.953 . S
Zn156 O153 1.945 . S
Zn156 O158 1.932 . S
Zn156 O165 1.977 . S
Zn156 O166 1.910 . S
O157 Zn154 1.933 . S
O157 C168 1.226 1_556 S
O158 Zn156 1.932 . S
O158 C168 1.307 . S
O159 Zn152 1.919 . S
O159 C170 1.253 . S
O160 Zn154 1.941 . S
O160 C170 1.283 . S
O161 Zn154 1.965 . S
O161 C169 1.303 . S
O162 Zn155 1.938 1_556 S
O162 C169 1.247 . S
O163 Zn155 1.906 . S
O163 C171 1.304 . S
O164 Zn152 1.924 1_554 S
O164 C172 1.311 . S
O165 Zn156 1.977 . S
O165 C171 1.272 . S
O166 Zn156 1.910 . S
O166 C172 1.231 . S
C167 O151 1.225 1_554 S
C167 O173 1.298 . S
C168 O157 1.226 1_554 S
C168 O158 1.307 . S
C169 O161 1.303 . S
C169 O162 1.247 . S
C170 O159 1.253 . S
C170 O160 1.283 . S
C171 O163 1.304 . S
C171 O165 1.272 . S
C172 O164 1.311 . S
C172 O166 1.231 . S
O173 Zn155 1.953 . S
O173 C167 1.298 . S
H174 C186 0.930 . S
H175 C188 0.930 . S
H176 C189 0.930 . S
H177 C193 0.959 . S
H178 C193 0.959 . S
H179 C193 0.961 . S
H180 C194 0.960 . S
H181 C194 0.961 . S
H182 C194 0.959 . S
H183 C197 0.929 . S
H184 C198 0.931 . S
H185 C200 0.930 . S
C186 H174 0.930 . S
C186 C187 1.399 . S
C186 C191 1.399 . S
C187 C186 1.399 . S
C187 C188 1.376 . S
C188 H175 0.930 . S
C188 C187 1.376 . S
C188 C189 1.388 . S
C189 H176 0.930 . S
C189 C188 1.388 . S
C189 C190 1.390 . S
C190 C189 1.390 . S
C190 C191 1.394 . S
C190 C196 1.465 . S
C191 C186 1.399 . S
C191 C190 1.394 . S
C191 C192 1.516 . S
C192 C191 1.516 . S
C192 C193 1.502 . S
C192 C194 1.561 . S
C192 C195 1.526 . S
C193 H177 0.959 . S
C193 H178 0.959 . S
C193 H179 0.961 . S
C193 C192 1.502 . S
C194 H180 0.960 . S
C194 H181 0.961 . S
C194 H182 0.959 . S
C194 C192 1.561 . S
C195 C192 1.526 . S
C195 C196 1.396 . S
C195 C200 1.390 . S
C196 C190 1.465 . S
C196 C195 1.396 . S
C196 C197 1.399 . S
C197 H183 0.929 . S
C197 C196 1.399 . S
C197 C198 1.385 . S
C198 H184 0.931 . S
C198 C197 1.385 . S
C198 C199 1.389 . S
C199 C198 1.389 . S
C199 C200 1.387 . S
C200 H185 0.930 . S
C200 C195 1.390 . S
C200 C199 1.387 . S
H201 C213 0.930 . S
H202 C215 0.930 . S
H203 C216 0.930 . S
H204 C220 0.959 . S
H205 C220 0.959 . S
H206 C220 0.961 . S
H207 C221 0.960 . S
H208 C221 0.961 . S
H209 C221 0.959 . S
H210 C224 0.929 . S
H211 C225 0.931 . S
H212 C227 0.930 . S
C213 H201 0.930 . S
C213 C214 1.399 1_554 S
C213 C218 1.399 . S
C214 C213 1.399 1_556 S
C214 C215 1.376 . S
C215 H202 0.930 . S
C215 C214 1.376 . S
C215 C216 1.388 . S
C216 H203 0.930 . S
C216 C215 1.388 . S
C216 C217 1.390 . S
C217 C216 1.390 . S
C217 C218 1.394 1_556 S
C217 C223 1.465 . S
C218 C213 1.399 . S
C218 C217 1.394 1_554 S
C218 C219 1.516 . S
C219 C218 1.516 . S
C219 C220 1.502 . S
C219 C221 1.561 . S
C219 C222 1.526 . S
C220 H204 0.959 . S
C220 H205 0.959 . S
C220 H206 0.961 . S
C220 C219 1.502 . S
C221 H207 0.960 . S
C221 H208 0.961 . S
C221 H209 0.959 . S
C221 C219 1.561 . S
C222 C219 1.526 . S
C222 C223 1.396 1_554 S
C222 C227 1.390 . S
C223 C217 1.465 . S
C223 C222 1.396 1_556 S
C223 C224 1.399 . S
C224 H210 0.929 . S
C224 C223 1.399 . S
C224 C225 1.385 . S
C225 H211 0.931 . S
C225 C224 1.385 . S
C225 C226 1.389 . S
C226 C225 1.389 . S
C226 C227 1.387 1_556 S
C227 H212 0.930 . S
C227 C222 1.390 . S
C227 C226 1.387 1_554 S
H228 C240 0.930 . S
H229 C242 0.930 . S
H230 C243 0.930 . S
H231 C247 0.959 . S
H232 C247 0.959 . S
H233 C247 0.961 . S
H234 C248 0.960 . S
H235 C248 0.961 . S
H236 C248 0.959 . S
H237 C251 0.929 . S
H238 C252 0.931 . S
H239 C254 0.930 . S
C240 H228 0.930 . S
C240 C241 1.399 . S
C240 C245 1.399 . S
C241 C240 1.399 . S
C241 C242 1.376 . S
C242 H229 0.930 . S
C242 C241 1.376 . S
C242 C243 1.388 . S
C243 H230 0.930 . S
C243 C242 1.388 . S
C243 C244 1.390 . S
C244 C243 1.390 . S
C244 C245 1.394 . S
C244 C250 1.465 . S
C245 C240 1.399 . S
C245 C244 1.394 . S
C245 C246 1.516 . S
C246 C245 1.516 . S
C246 C247 1.502 . S
C246 C248 1.561 . S
C246 C249 1.526 . S
C247 H231 0.959 . S
C247 H232 0.959 . S
C247 H233 0.961 . S
C247 C246 1.502 . S
C248 H234 0.960 . S
C248 H235 0.961 . S
C248 H236 0.959 . S
C248 C246 1.561 . S
C249 C246 1.526 . S
C249 C250 1.396 . S
C249 C254 1.390 . S
C250 C244 1.465 . S
C250 C249 1.396 . S
C250 C251 1.399 . S
C251 H237 0.929 . S
C251 C250 1.399 . S
C251 C252 1.385 . S
C252 H238 0.931 . S
C252 C251 1.385 . S
C252 C253 1.389 . S
C253 C252 1.389 . S
C253 C254 1.387 . S
C254 H239 0.930 . S
C254 C249 1.390 . S
C254 C253 1.387 . S
H255 C267 0.930 . S
H256 C269 0.930 . S
H257 C270 0.930 . S
H258 C274 0.959 . S
H259 C274 0.959 . S
H260 C274 0.961 . S
H261 C275 0.960 . S
H262 C275 0.961 . S
H263 C275 0.959 . S
H264 C278 0.929 . S
H265 C279 0.931 . S
H266 C281 0.930 . S
C267 H255 0.930 . S
C267 C268 1.399 1_556 S
C267 C272 1.399 . S
C268 C267 1.399 1_554 S
C268 C269 1.376 . S
C269 H256 0.930 . S
C269 C268 1.376 . S
C269 C270 1.388 . S
C270 H257 0.930 . S
C270 C269 1.388 . S
C270 C271 1.390 . S
C271 C270 1.390 . S
C271 C272 1.394 1_554 S
C271 C277 1.465 . S
C272 C267 1.399 . S
C272 C271 1.394 1_556 S
C272 C273 1.516 . S
C273 C272 1.516 . S
C273 C274 1.502 . S
C273 C275 1.561 . S
C273 C276 1.526 . S
C274 H258 0.959 . S
C274 H259 0.959 . S
C274 H260 0.961 . S
C274 C273 1.502 . S
C275 H261 0.960 . S
C275 H262 0.961 . S
C275 H263 0.959 . S
C275 C273 1.561 . S
C276 C273 1.526 . S
C276 C277 1.396 1_556 S
C276 C281 1.390 . S
C277 C271 1.465 . S
C277 C276 1.396 1_554 S
C277 C278 1.399 . S
C278 H264 0.929 . S
C278 C277 1.399 . S
C278 C279 1.385 . S
C279 H265 0.931 . S
C279 C278 1.385 . S
C279 C280 1.389 . S
C280 C279 1.389 . S
C280 C281 1.387 1_554 S
C281 H266 0.930 . S
C281 C276 1.390 . S
C281 C280 1.387 1_556 S
H282 C294 0.930 . S
H283 C296 0.930 . S
H284 C297 0.930 . S
H285 C301 0.959 . S
H286 C301 0.959 . S
H287 C301 0.961 . S
H288 C302 0.960 . S
H289 C302 0.961 . S
H290 C302 0.959 . S
H291 C305 0.929 . S
H292 C306 0.931 . S
H293 C308 0.930 . S
C294 H282 0.930 . S
C294 C295 1.399 . S
C294 C299 1.399 . S
C295 C294 1.399 . S
C295 C296 1.376 . S
C296 H283 0.930 . S
C296 C295 1.376 . S
C296 C297 1.388 . S
C297 H284 0.930 . S
C297 C296 1.388 . S
C297 C298 1.390 . S
C298 C297 1.390 . S
C298 C299 1.394 . S
C298 C304 1.465 . S
C299 C294 1.399 . S
C299 C298 1.394 . S
C299 C300 1.516 . S
C300 C299 1.516 . S
C300 C301 1.502 . S
C300 C302 1.561 . S
C300 C303 1.526 . S
C301 H285 0.959 . S
C301 H286 0.959 . S
C301 H287 0.961 . S
C301 C300 1.502 . S
C302 H288 0.960 . S
C302 H289 0.961 . S
C302 H290 0.959 . S
C302 C300 1.561 . S
C303 C300 1.526 . S
C303 C304 1.396 . S
C303 C308 1.390 . S
C304 C298 1.465 . S
C304 C303 1.396 . S
C304 C305 1.399 . S
C305 H291 0.929 . S
C305 C304 1.399 . S
C305 C306 1.385 . S
C306 H292 0.931 . S
C306 C305 1.385 . S
C306 C307 1.389 . S
C307 C306 1.389 . S
C307 C308 1.387 . S
C308 H293 0.930 . S
C308 C303 1.390 . S
C308 C307 1.387 . S
H309 C321 0.930 . S
H310 C323 0.930 . S
H311 C324 0.930 . S
H312 C328 0.959 . S
H313 C328 0.959 . S
H314 C328 0.961 . S
H315 C329 0.960 . S
H316 C329 0.961 . S
H317 C329 0.959 . S
H318 C332 0.929 . S
H319 C333 0.931 . S
H320 C335 0.930 . S
C321 H309 0.930 . S
C321 C322 1.399 . S
C321 C326 1.399 . S
C322 C321 1.399 . S
C322 C323 1.376 . S
C323 H310 0.930 . S
C323 C322 1.376 . S
C323 C324 1.388 . S
C324 H311 0.930 . S
C324 C323 1.388 . S
C324 C325 1.390 . S
C325 C324 1.390 . S
C325 C326 1.394 . S
C325 C331 1.465 . S
C326 C321 1.399 . S
C326 C325 1.394 . S
C326 C327 1.516 . S
C327 C326 1.516 . S
C327 C328 1.502 . S
C327 C329 1.561 . S
C327 C330 1.526 . S
C328 H312 0.959 . S
C328 H313 0.959 . S
C328 H314 0.961 . S
C328 C327 1.502 . S
C329 H315 0.960 . S
C329 H316 0.961 . S
C329 H317 0.959 . S
C329 C327 1.561 . S
C330 C327 1.526 . S
C330 C331 1.396 . S
C330 C335 1.390 . S
C331 C325 1.465 . S
C331 C330 1.396 . S
C331 C332 1.399 . S
C332 H318 0.929 . S
C332 C331 1.399 . S
C332 C333 1.385 . S
C333 H319 0.931 . S
C333 C332 1.385 . S
C333 C334 1.389 . S
C334 C333 1.389 . S
C334 C335 1.387 . S
C335 H320 0.930 . S
C335 C330 1.390 . S
C335 C334 1.387 . S
H336 C348 0.930 . S
H337 C350 0.930 . S
H338 C351 0.930 . S
H339 C355 0.959 1_455 S
H340 C355 0.959 . S
H341 C355 0.961 . S
H342 C356 0.960 . S
H343 C356 0.961 . S
H344 C356 0.959 . S
H345 C359 0.929 . S
H346 C360 0.931 . S
H347 C362 0.930 . S
C348 H336 0.930 . S
C348 C349 1.399 . S
C348 C353 1.399 . S
C349 C348 1.399 . S
C349 C350 1.376 . S
C350 H337 0.930 . S
C350 C349 1.376 . S
C350 C351 1.388 . S
C351 H338 0.930 . S
C351 C350 1.388 . S
C351 C352 1.390 . S
C352 C351 1.390 . S
C352 C353 1.394 . S
C352 C358 1.465 . S
C353 C348 1.399 . S
C353 C352 1.394 . S
C353 C354 1.516 . S
C354 C353 1.516 . S
C354 C355 1.502 . S
C354 C356 1.561 . S
C354 C357 1.526 . S
C355 H339 0.959 1_655 S
C355 H340 0.959 . S
C355 H341 0.961 . S
C355 C354 1.502 . S
C356 H342 0.960 . S
C356 H343 0.961 . S
C356 H344 0.959 . S
C356 C354 1.561 . S
C357 C354 1.526 . S
C357 C358 1.396 . S
C357 C362 1.390 . S
C358 C352 1.465 . S
C358 C357 1.396 . S
C358 C359 1.399 . S
C359 H345 0.929 . S
C359 C358 1.399 . S
C359 C360 1.385 . S
C360 H346 0.931 . S
C360 C359 1.385 . S
C360 C361 1.389 . S
C361 C360 1.389 . S
C361 C362 1.387 . S
C362 H347 0.930 . S
C362 C357 1.390 . S
C362 C361 1.387 . S
H363 C375 0.930 . S
H364 C377 0.930 . S
H365 C378 0.930 . S
H366 C382 0.959 . S
H367 C382 0.959 . S
H368 C382 0.961 . S
H369 C383 0.960 . S
H370 C383 0.961 . S
H371 C383 0.959 . S
H372 C386 0.929 . S
H373 C387 0.931 . S
H374 C389 0.930 . S
C375 H363 0.930 . S
C375 C376 1.399 . S
C375 C380 1.399 . S
C376 C375 1.399 . S
C376 C377 1.376 . S
C377 H364 0.930 . S
C377 C376 1.376 . S
C377 C378 1.388 . S
C378 H365 0.930 . S
C378 C377 1.388 . S
C378 C379 1.390 . S
C379 C378 1.390 . S
C379 C380 1.394 . S
C379 C385 1.465 . S
C380 C375 1.399 . S
C380 C379 1.394 . S
C380 C381 1.516 . S
C381 C380 1.516 . S
C381 C382 1.502 . S
C381 C383 1.561 . S
C381 C384 1.526 . S
C382 H366 0.959 . S
C382 H367 0.959 . S
C382 H368 0.961 . S
C382 C381 1.502 . S
C383 H369 0.960 . S
C383 H370 0.961 . S
C383 H371 0.959 . S
C383 C381 1.561 . S
C384 C381 1.526 . S
C384 C385 1.396 . S
C384 C389 1.390 . S
C385 C379 1.465 . S
C385 C384 1.396 . S
C385 C386 1.399 . S
C386 H372 0.929 . S
C386 C385 1.399 . S
C386 C387 1.385 . S
C387 H373 0.931 . S
C387 C386 1.385 . S
C387 C388 1.389 . S
C388 C387 1.389 . S
C388 C389 1.387 . S
C389 H374 0.930 . S
C389 C384 1.390 . S
C389 C388 1.387 . S
H390 C402 0.930 . S
H391 C404 0.930 . S
H392 C405 0.930 . S
H393 C409 0.959 . S
H394 C409 0.959 . S
H395 C409 0.961 . S
H396 C410 0.960 . S
H397 C410 0.961 . S
H398 C410 0.959 . S
H399 C413 0.929 . S
H400 C414 0.931 . S
H401 C416 0.930 . S
C402 H390 0.930 . S
C402 C403 1.399 . S
C402 C407 1.399 . S
C403 C402 1.399 . S
C403 C404 1.376 . S
C404 H391 0.930 . S
C404 C403 1.376 . S
C404 C405 1.388 . S
C405 H392 0.930 . S
C405 C404 1.388 . S
C405 C406 1.390 . S
C406 C405 1.390 . S
C406 C407 1.394 . S
C406 C412 1.465 . S
C407 C402 1.399 . S
C407 C406 1.394 . S
C407 C408 1.516 . S
C408 C407 1.516 . S
C408 C409 1.502 . S
C408 C410 1.561 . S
C408 C411 1.526 . S
C409 H393 0.959 . S
C409 H394 0.959 . S
C409 H395 0.961 . S
C409 C408 1.502 . S
C410 H396 0.960 . S
C410 H397 0.961 . S
C410 H398 0.959 . S
C410 C408 1.561 . S
C411 C408 1.526 . S
C411 C412 1.396 . S
C411 C416 1.390 . S
C412 C406 1.465 . S
C412 C411 1.396 . S
C412 C413 1.399 . S
C413 H399 0.929 . S
C413 C412 1.399 . S
C413 C414 1.385 . S
C414 H400 0.931 . S
C414 C413 1.385 . S
C414 C415 1.389 . S
C415 C414 1.389 . S
C415 C416 1.387 . S
C416 H401 0.930 . S
C416 C411 1.390 . S
C416 C415 1.387 . S
H417 C429 0.930 . S
H418 C431 0.930 . S
H419 C432 0.930 1_455 S
H420 C436 0.959 . S
H421 C436 0.959 . S
H422 C436 0.961 . S
H423 C437 0.960 . S
H424 C437 0.961 . S
H425 C437 0.959 . S
H426 C440 0.929 . S
H427 C441 0.931 . S
H428 C443 0.930 . S
C429 H417 0.930 . S
C429 C430 1.399 . S
C429 C434 1.399 . S
C430 C429 1.399 . S
C430 C431 1.376 . S
C431 H418 0.930 . S
C431 C430 1.376 . S
C431 C432 1.388 . S
C432 H419 0.930 1_655 S
C432 C431 1.388 . S
C432 C433 1.390 . S
C433 C432 1.390 . S
C433 C434 1.394 . S
C433 C439 1.465 . S
C434 C429 1.399 . S
C434 C433 1.394 . S
C434 C435 1.516 . S
C435 C434 1.516 . S
C435 C436 1.502 . S
C435 C437 1.561 . S
C435 C438 1.526 . S
C436 H420 0.959 . S
C436 H421 0.959 . S
C436 H422 0.961 . S
C436 C435 1.502 . S
C437 H423 0.960 . S
C437 H424 0.961 . S
C437 H425 0.959 . S
C437 C435 1.561 . S
C438 C435 1.526 . S
C438 C439 1.396 . S
C438 C443 1.390 . S
C439 C433 1.465 . S
C439 C438 1.396 . S
C439 C440 1.399 1_655 S
C440 H426 0.929 . S
C440 C439 1.399 1_455 S
C440 C441 1.385 . S
C441 H427 0.931 . S
C441 C440 1.385 . S
C441 C442 1.389 1_455 S
C442 C441 1.389 1_655 S
C442 C443 1.387 . S
C443 H428 0.930 . S
C443 C438 1.390 . S
C443 C442 1.387 . S
H444 C456 0.930 . S
H445 C458 0.930 . S
H446 C459 0.930 . S
H447 C463 0.959 . S
H448 C463 0.959 . S
H449 C463 0.961 . S
H450 C464 0.960 . S
H451 C464 0.961 . S
H452 C464 0.959 . S
H453 C467 0.929 . S
H454 C468 0.931 . S
H455 C470 0.930 . S
C456 H444 0.930 . S
C456 C457 1.399 . S
C456 C461 1.399 . S
C457 C456 1.399 . S
C457 C458 1.376 . S
C458 H445 0.930 . S
C458 C457 1.376 . S
C458 C459 1.388 . S
C459 H446 0.930 . S
C459 C458 1.388 . S
C459 C460 1.390 . S
C460 C459 1.390 . S
C460 C461 1.394 . S
C460 C466 1.465 . S
C461 C456 1.399 . S
C461 C460 1.394 . S
C461 C462 1.516 . S
C462 C461 1.516 . S
C462 C463 1.502 . S
C462 C464 1.561 . S
C462 C465 1.526 . S
C463 H447 0.959 . S
C463 H448 0.959 . S
C463 H449 0.961 . S
C463 C462 1.502 . S
C464 H450 0.960 . S
C464 H451 0.961 . S
C464 H452 0.959 . S
C464 C462 1.561 . S
C465 C462 1.526 . S
C465 C466 1.396 . S
C465 C470 1.390 . S
C466 C460 1.465 . S
C466 C465 1.396 . S
C466 C467 1.399 . S
C467 H453 0.929 . S
C467 C466 1.399 . S
C467 C468 1.385 . S
C468 H454 0.931 . S
C468 C467 1.385 . S
C468 C469 1.389 . S
C469 C468 1.389 . S
C469 C470 1.387 . S
C470 H455 0.930 . S
C470 C465 1.390 . S
C470 C469 1.387 . S
H471 C483 0.930 . S
H472 C485 0.930 . S
H473 C486 0.930 . S
H474 C490 0.959 . S
H475 C490 0.959 . S
H476 C490 0.961 . S
H477 C491 0.960 . S
H478 C491 0.961 . S
H479 C491 0.959 1_655 S
H480 C494 0.929 . S
H481 C495 0.931 . S
H482 C497 0.930 . S
C483 H471 0.930 . S
C483 C484 1.399 . S
C483 C488 1.399 . S
C484 C483 1.399 . S
C484 C485 1.376 . S
C485 H472 0.930 . S
C485 C484 1.376 . S
C485 C486 1.388 . S
C486 H473 0.930 . S
C486 C485 1.388 . S
C486 C487 1.390 . S
C487 C486 1.390 . S
C487 C488 1.394 . S
C487 C493 1.465 . S
C488 C483 1.399 . S
C488 C487 1.394 . S
C488 C489 1.516 . S
C489 C488 1.516 . S
C489 C490 1.502 . S
C489 C491 1.561 . S
C489 C492 1.526 . S
C490 H474 0.959 . S
C490 H475 0.959 . S
C490 H476 0.961 . S
C490 C489 1.502 . S
C491 H477 0.960 . S
C491 H478 0.961 . S
C491 H479 0.959 1_455 S
C491 C489 1.561 . S
C492 C489 1.526 . S
C492 C493 1.396 . S
C492 C497 1.390 . S
C493 C487 1.465 . S
C493 C492 1.396 . S
C493 C494 1.399 . S
C494 H480 0.929 . S
C494 C493 1.399 . S
C494 C495 1.385 . S
C495 H481 0.931 . S
C495 C494 1.385 . S
C495 C496 1.389 . S
C496 C495 1.389 . S
C496 C497 1.387 . S
C497 H482 0.930 . S
C497 C492 1.390 . S
C497 C496 1.387 . S
C199 C145 1.592 . S
C187 C119 1.604 . S
C214 C23 1.515 1_556 S
C226 C168 1.583 1_556 S
C241 C55 1.453 . S
C253 C144 1.615 . S
C268 C87 1.618 . S
C280 C167 1.614 . S
C307 C148 1.565 . S
C295 C17 1.453 . S
C334 C170 1.570 . S
C322 C61 1.526 . S
C349 C93 1.635 . S
C361 C149 1.596 . S
C376 C113 1.578 . S
C388 C169 1.570 . S
C415 C172 1.519 . S
C403 C49 1.566 . S
C442 C147 1.591 . S
C430 C81 1.598 . S
C469 C171 1.580 . S
C457 C125 1.623 . S
C484 C29 1.481 . S
C496 C146 1.562 . S
