# Generated by pormake.
# Topology tbo, (3,4)-cn, num edge types: 1
# Building blocks:
#     Node 0, Type 0, BuildingBlock: WUSLED_clean_sbu_0, # of connection points: 3
#     Node 1, Type 0, BuildingBlock: WUSLED_clean_sbu_0, # of connection points: 3
#     Node 2, Type 0, BuildingBlock: WUSLED_clean_sbu_0, # of connection points: 3
#     Node 3, Type 0, BuildingBlock: WUSLED_clean_sbu_0, # of connection points: 3
#     Node 4, Type 0, BuildingBlock: WUSLED_clean_sbu_0, # of connection points: 3
#     Node 5, Type 0, BuildingBlock: WUSLED_clean_sbu_0, # of connection points: 3
#     Node 6, Type 0, BuildingBlock: WUSLED_clean_sbu_0, # of connection points: 3
#     Node 7, Type 0, BuildingBlock: WUSLED_clean_sbu_0, # of connection points: 3
#     Node 8, Type 0, BuildingBlock: WUSLED_clean_sbu_0, # of connection points: 3
#     Node 9, Type 0, BuildingBlock: WUSLED_clean_sbu_0, # of connection points: 3
#     Node 10, Type 0, BuildingBlock: WUSLED_clean_sbu_0, # of connection points: 3
#     Node 11, Type 0, BuildingBlock: WUSLED_clean_sbu_0, # of connection points: 3
#     Node 12, Type 0, BuildingBlock: WUSLED_clean_sbu_0, # of connection points: 3
#     Node 13, Type 0, BuildingBlock: WUSLED_clean_sbu_0, # of connection points: 3
#     Node 14, Type 0, BuildingBlock: WUSLED_clean_sbu_0, # of connection points: 3
#     Node 15, Type 0, BuildingBlock: WUSLED_clean_sbu_0, # of connection points: 3
#     Node 16, Type 0, BuildingBlock: WUSLED_clean_sbu_0, # of connection points: 3
#     Node 17, Type 0, BuildingBlock: WUSLED_clean_sbu_0, # of connection points: 3
#     Node 18, Type 0, BuildingBlock: WUSLED_clean_sbu_0, # of connection points: 3
#     Node 19, Type 0, BuildingBlock: WUSLED_clean_sbu_0, # of connection points: 3
#     Node 20, Type 0, BuildingBlock: WUSLED_clean_sbu_0, # of connection points: 3
#     Node 21, Type 0, BuildingBlock: WUSLED_clean_sbu_0, # of connection points: 3
#     Node 22, Type 0, BuildingBlock: WUSLED_clean_sbu_0, # of connection points: 3
#     Node 23, Type 0, BuildingBlock: WUSLED_clean_sbu_0, # of connection points: 3
#     Node 24, Type 0, BuildingBlock: WUSLED_clean_sbu_0, # of connection points: 3
#     Node 25, Type 0, BuildingBlock: WUSLED_clean_sbu_0, # of connection points: 3
#     Node 26, Type 0, BuildingBlock: WUSLED_clean_sbu_0, # of connection points: 3
#     Node 27, Type 0, BuildingBlock: WUSLED_clean_sbu_0, # of connection points: 3
#     Node 28, Type 0, BuildingBlock: WUSLED_clean_sbu_0, # of connection points: 3
#     Node 29, Type 0, BuildingBlock: WUSLED_clean_sbu_0, # of connection points: 3
#     Node 30, Type 0, BuildingBlock: WUSLED_clean_sbu_0, # of connection points: 3
#     Node 31, Type 0, BuildingBlock: WUSLED_clean_sbu_0, # of connection points: 3
#     Node 32, Type 1, BuildingBlock: NAHDIM_clean_linker_0, # of connection points: 4
#     Node 33, Type 1, BuildingBlock: NAHDIM_clean_linker_0, # of connection points: 4
#     Node 34, Type 1, BuildingBlock: NAHDIM_clean_linker_0, # of connection points: 4
#     Node 35, Type 1, BuildingBlock: NAHDIM_clean_linker_0, # of connection points: 4
#     Node 36, Type 1, BuildingBlock: NAHDIM_clean_linker_0, # of connection points: 4
#     Node 37, Type 1, BuildingBlock: NAHDIM_clean_linker_0, # of connection points: 4
#     Node 38, Type 1, BuildingBlock: NAHDIM_clean_linker_0, # of connection points: 4
#     Node 39, Type 1, BuildingBlock: NAHDIM_clean_linker_0, # of connection points: 4
#     Node 40, Type 1, BuildingBlock: NAHDIM_clean_linker_0, # of connection points: 4
#     Node 41, Type 1, BuildingBlock: NAHDIM_clean_linker_0, # of connection points: 4
#     Node 42, Type 1, BuildingBlock: NAHDIM_clean_linker_0, # of connection points: 4
#     Node 43, Type 1, BuildingBlock: NAHDIM_clean_linker_0, # of connection points: 4
#     Node 44, Type 1, BuildingBlock: NAHDIM_clean_linker_0, # of connection points: 4
#     Node 45, Type 1, BuildingBlock: NAHDIM_clean_linker_0, # of connection points: 4
#     Node 46, Type 1, BuildingBlock: NAHDIM_clean_linker_0, # of connection points: 4
#     Node 47, Type 1, BuildingBlock: NAHDIM_clean_linker_0, # of connection points: 4
#     Node 48, Type 1, BuildingBlock: NAHDIM_clean_linker_0, # of connection points: 4
#     Node 49, Type 1, BuildingBlock: NAHDIM_clean_linker_0, # of connection points: 4
#     Node 50, Type 1, BuildingBlock: NAHDIM_clean_linker_0, # of connection points: 4
#     Node 51, Type 1, BuildingBlock: NAHDIM_clean_linker_0, # of connection points: 4
#     Node 52, Type 1, BuildingBlock: NAHDIM_clean_linker_0, # of connection points: 4
#     Node 53, Type 1, BuildingBlock: NAHDIM_clean_linker_0, # of connection points: 4
#     Node 54, Type 1, BuildingBlock: NAHDIM_clean_linker_0, # of connection points: 4
#     Node 55, Type 1, BuildingBlock: NAHDIM_clean_linker_0, # of connection points: 4
#     Edge 56, Type (0, 1), BuildingBlock: AJUNOK_clean_linker_0, # of connection points: 2
#     Edge 57, Type (0, 1), BuildingBlock: AJUNOK_clean_linker_0, # of connection points: 2
#     Edge 58, Type (0, 1), BuildingBlock: AJUNOK_clean_linker_0, # of connection points: 2
#     Edge 59, Type (0, 1), BuildingBlock: AJUNOK_clean_linker_0, # of connection points: 2
#     Edge 60, Type (0, 1), BuildingBlock: AJUNOK_clean_linker_0, # of connection points: 2
#     Edge 61, Type (0, 1), BuildingBlock: AJUNOK_clean_linker_0, # of connection points: 2
#     Edge 62, Type (0, 1), BuildingBlock: AJUNOK_clean_linker_0, # of connection points: 2
#     Edge 63, Type (0, 1), BuildingBlock: AJUNOK_clean_linker_0, # of connection points: 2
#     Edge 64, Type (0, 1), BuildingBlock: AJUNOK_clean_linker_0, # of connection points: 2
#     Edge 65, Type (0, 1), BuildingBlock: AJUNOK_clean_linker_0, # of connection points: 2
#     Edge 66, Type (0, 1), BuildingBlock: AJUNOK_clean_linker_0, # of connection points: 2
#     Edge 67, Type (0, 1), BuildingBlock: AJUNOK_clean_linker_0, # of connection points: 2
#     Edge 68, Type (0, 1), BuildingBlock: AJUNOK_clean_linker_0, # of connection points: 2
#     Edge 69, Type (0, 1), BuildingBlock: AJUNOK_clean_linker_0, # of connection points: 2
#     Edge 70, Type (0, 1), BuildingBlock: AJUNOK_clean_linker_0, # of connection points: 2
#     Edge 71, Type (0, 1), BuildingBlock: AJUNOK_clean_linker_0, # of connection points: 2
#     Edge 72, Type (0, 1), BuildingBlock: AJUNOK_clean_linker_0, # of connection points: 2
#     Edge 73, Type (0, 1), BuildingBlock: AJUNOK_clean_linker_0, # of connection points: 2
#     Edge 74, Type (0, 1), BuildingBlock: AJUNOK_clean_linker_0, # of connection points: 2
#     Edge 75, Type (0, 1), BuildingBlock: AJUNOK_clean_linker_0, # of connection points: 2
#     Edge 76, Type (0, 1), BuildingBlock: AJUNOK_clean_linker_0, # of connection points: 2
#     Edge 77, Type (0, 1), BuildingBlock: AJUNOK_clean_linker_0, # of connection points: 2
#     Edge 78, Type (0, 1), BuildingBlock: AJUNOK_clean_linker_0, # of connection points: 2
#     Edge 79, Type (0, 1), BuildingBlock: AJUNOK_clean_linker_0, # of connection points: 2
#     Edge 80, Type (0, 1), BuildingBlock: AJUNOK_clean_linker_0, # of connection points: 2
#     Edge 81, Type (0, 1), BuildingBlock: AJUNOK_clean_linker_0, # of connection points: 2
#     Edge 82, Type (0, 1), BuildingBlock: AJUNOK_clean_linker_0, # of connection points: 2
#     Edge 83, Type (0, 1), BuildingBlock: AJUNOK_clean_linker_0, # of connection points: 2
#     Edge 84, Type (0, 1), BuildingBlock: AJUNOK_clean_linker_0, # of connection points: 2
#     Edge 85, Type (0, 1), BuildingBlock: AJUNOK_clean_linker_0, # of connection points: 2
#     Edge 86, Type (0, 1), BuildingBlock: AJUNOK_clean_linker_0, # of connection points: 2
#     Edge 87, Type (0, 1), BuildingBlock: AJUNOK_clean_linker_0, # of connection points: 2
#     Edge 88, Type (0, 1), BuildingBlock: AJUNOK_clean_linker_0, # of connection points: 2
#     Edge 89, Type (0, 1), BuildingBlock: AJUNOK_clean_linker_0, # of connection points: 2
#     Edge 90, Type (0, 1), BuildingBlock: AJUNOK_clean_linker_0, # of connection points: 2
#     Edge 91, Type (0, 1), BuildingBlock: AJUNOK_clean_linker_0, # of connection points: 2
#     Edge 92, Type (0, 1), BuildingBlock: AJUNOK_clean_linker_0, # of connection points: 2
#     Edge 93, Type (0, 1), BuildingBlock: AJUNOK_clean_linker_0, # of connection points: 2
#     Edge 94, Type (0, 1), BuildingBlock: AJUNOK_clean_linker_0, # of connection points: 2
#     Edge 95, Type (0, 1), BuildingBlock: AJUNOK_clean_linker_0, # of connection points: 2
#     Edge 96, Type (0, 1), BuildingBlock: AJUNOK_clean_linker_0, # of connection points: 2
#     Edge 97, Type (0, 1), BuildingBlock: AJUNOK_clean_linker_0, # of connection points: 2
#     Edge 98, Type (0, 1), BuildingBlock: AJUNOK_clean_linker_0, # of connection points: 2
#     Edge 99, Type (0, 1), BuildingBlock: AJUNOK_clean_linker_0, # of connection points: 2
#     Edge 100, Type (0, 1), BuildingBlock: AJUNOK_clean_linker_0, # of connection points: 2
#     Edge 101, Type (0, 1), BuildingBlock: AJUNOK_clean_linker_0, # of connection points: 2
#     Edge 102, Type (0, 1), BuildingBlock: AJUNOK_clean_linker_0, # of connection points: 2
#     Edge 103, Type (0, 1), BuildingBlock: AJUNOK_clean_linker_0, # of connection points: 2
#     Edge 104, Type (0, 1), BuildingBlock: AJUNOK_clean_linker_0, # of connection points: 2
#     Edge 105, Type (0, 1), BuildingBlock: AJUNOK_clean_linker_0, # of connection points: 2
#     Edge 106, Type (0, 1), BuildingBlock: AJUNOK_clean_linker_0, # of connection points: 2
#     Edge 107, Type (0, 1), BuildingBlock: AJUNOK_clean_linker_0, # of connection points: 2
#     Edge 108, Type (0, 1), BuildingBlock: AJUNOK_clean_linker_0, # of connection points: 2
#     Edge 109, Type (0, 1), BuildingBlock: AJUNOK_clean_linker_0, # of connection points: 2
#     Edge 110, Type (0, 1), BuildingBlock: AJUNOK_clean_linker_0, # of connection points: 2
#     Edge 111, Type (0, 1), BuildingBlock: AJUNOK_clean_linker_0, # of connection points: 2
#     Edge 112, Type (0, 1), BuildingBlock: AJUNOK_clean_linker_0, # of connection points: 2
#     Edge 113, Type (0, 1), BuildingBlock: AJUNOK_clean_linker_0, # of connection points: 2
#     Edge 114, Type (0, 1), BuildingBlock: AJUNOK_clean_linker_0, # of connection points: 2
#     Edge 115, Type (0, 1), BuildingBlock: AJUNOK_clean_linker_0, # of connection points: 2
#     Edge 116, Type (0, 1), BuildingBlock: AJUNOK_clean_linker_0, # of connection points: 2
#     Edge 117, Type (0, 1), BuildingBlock: AJUNOK_clean_linker_0, # of connection points: 2
#     Edge 118, Type (0, 1), BuildingBlock: AJUNOK_clean_linker_0, # of connection points: 2
#     Edge 119, Type (0, 1), BuildingBlock: AJUNOK_clean_linker_0, # of connection points: 2
#     Edge 120, Type (0, 1), BuildingBlock: AJUNOK_clean_linker_0, # of connection points: 2
#     Edge 121, Type (0, 1), BuildingBlock: AJUNOK_clean_linker_0, # of connection points: 2
#     Edge 122, Type (0, 1), BuildingBlock: AJUNOK_clean_linker_0, # of connection points: 2
#     Edge 123, Type (0, 1), BuildingBlock: AJUNOK_clean_linker_0, # of connection points: 2
#     Edge 124, Type (0, 1), BuildingBlock: AJUNOK_clean_linker_0, # of connection points: 2
#     Edge 125, Type (0, 1), BuildingBlock: AJUNOK_clean_linker_0, # of connection points: 2
#     Edge 126, Type (0, 1), BuildingBlock: AJUNOK_clean_linker_0, # of connection points: 2
#     Edge 127, Type (0, 1), BuildingBlock: AJUNOK_clean_linker_0, # of connection points: 2
#     Edge 128, Type (0, 1), BuildingBlock: AJUNOK_clean_linker_0, # of connection points: 2
#     Edge 129, Type (0, 1), BuildingBlock: AJUNOK_clean_linker_0, # of connection points: 2
#     Edge 130, Type (0, 1), BuildingBlock: AJUNOK_clean_linker_0, # of connection points: 2
#     Edge 131, Type (0, 1), BuildingBlock: AJUNOK_clean_linker_0, # of connection points: 2
#     Edge 132, Type (0, 1), BuildingBlock: AJUNOK_clean_linker_0, # of connection points: 2
#     Edge 133, Type (0, 1), BuildingBlock: AJUNOK_clean_linker_0, # of connection points: 2
#     Edge 134, Type (0, 1), BuildingBlock: AJUNOK_clean_linker_0, # of connection points: 2
#     Edge 135, Type (0, 1), BuildingBlock: AJUNOK_clean_linker_0, # of connection points: 2
#     Edge 136, Type (0, 1), BuildingBlock: AJUNOK_clean_linker_0, # of connection points: 2
#     Edge 137, Type (0, 1), BuildingBlock: AJUNOK_clean_linker_0, # of connection points: 2
#     Edge 138, Type (0, 1), BuildingBlock: AJUNOK_clean_linker_0, # of connection points: 2
#     Edge 139, Type (0, 1), BuildingBlock: AJUNOK_clean_linker_0, # of connection points: 2
#     Edge 140, Type (0, 1), BuildingBlock: AJUNOK_clean_linker_0, # of connection points: 2
#     Edge 141, Type (0, 1), BuildingBlock: AJUNOK_clean_linker_0, # of connection points: 2
#     Edge 142, Type (0, 1), BuildingBlock: AJUNOK_clean_linker_0, # of connection points: 2
#     Edge 143, Type (0, 1), BuildingBlock: AJUNOK_clean_linker_0, # of connection points: 2
#     Edge 144, Type (0, 1), BuildingBlock: AJUNOK_clean_linker_0, # of connection points: 2
#     Edge 145, Type (0, 1), BuildingBlock: AJUNOK_clean_linker_0, # of connection points: 2
#     Edge 146, Type (0, 1), BuildingBlock: AJUNOK_clean_linker_0, # of connection points: 2
#     Edge 147, Type (0, 1), BuildingBlock: AJUNOK_clean_linker_0, # of connection points: 2
#     Edge 148, Type (0, 1), BuildingBlock: AJUNOK_clean_linker_0, # of connection points: 2
#     Edge 149, Type (0, 1), BuildingBlock: AJUNOK_clean_linker_0, # of connection points: 2
#     Edge 150, Type (0, 1), BuildingBlock: AJUNOK_clean_linker_0, # of connection points: 2
#     Edge 151, Type (0, 1), BuildingBlock: AJUNOK_clean_linker_0, # of connection points: 2
# Relax obj value: 0.002
# Max RMSD: 0.048
# Mean RMSD: 0.021
data_MOF--net-tbo--node1-WUSLED_clean_sbu_0--node2-NAHDIM_clean_linker_0--edge1-AJUNOK_clean_linker_0
_symmetry_space_group_name_H-M    P1
_symmetry_Int_Tables_number       1
_symmetry_cell_setting            triclinic
loop_
_symmetry_equiv_pos_as_xyz
'x, y, z'
_cell_length_a     103.56789
_cell_length_b     103.87874
_cell_length_c     103.67951
_cell_angle_alpha  89.576759
_cell_angle_beta   90.023153
_cell_angle_gamma 91.273313
loop_
_atom_site_label
_atom_site_type_symbol
_atom_site_fract_x
_atom_site_fract_y
_atom_site_fract_z
_atom_type_partial_charge
C0 C 0.18329 0.13371 0.16567 0.0
C1 C 0.19626 0.13065 0.1639 0.0
C2 C 0.1937 0.11205 0.17819 0.0
C3 C 0.20142 0.11995 0.17009 0.0
C4 C 0.18067 0.11516 0.18 0.0
C5 C 0.17551 0.12595 0.17381 0.0
U6 U 0.15936 0.16124 0.16205 0.0
O7 O 0.14169 0.15274 0.17062 0.0
O8 O 0.15475 0.16471 0.18244 0.0
C9 C 0.14355 0.15855 0.18172 0.0
C10 C 0.17822 0.14507 0.15895 0.0
C11 C 0.13247 0.1654 0.18704 0.0
C12 C 0.11985 0.1712 0.20576 0.0
C13 C 0.13033 0.16494 0.20037 0.0
C14 C 0.11348 0.17859 0.18453 0.0
C15 C 0.11127 0.17806 0.19792 0.0
C16 C 0.12403 0.17235 0.17913 0.0
C17 C 0.1632 0.18582 0.13433 0.0
C18 C 0.16716 0.20396 0.11988 0.0
C19 C 0.17775 0.18378 0.11606 0.0
C20 C 0.17163 0.17842 0.12697 0.0
C21 C 0.17558 0.19664 0.11241 0.0
C22 C 0.16104 0.1986 0.13072 0.0
C23 C 0.15664 0.18056 0.14587 0.0
O24 O 0.17963 0.15603 0.16508 0.0
O25 O 0.16684 0.1436 0.15345 0.0
O26 O 0.15062 0.16936 0.14453 0.0
O27 O 0.16318 0.1815 0.15668 0.0
H28 H 0.20243 0.13656 0.15771 0.0
H29 H 0.21152 0.11789 0.16861 0.0
H30 H 0.17443 0.10917 0.18603 0.0
H31 H 0.16546 0.12819 0.17533 0.0
H32 H 0.11848 0.17072 0.21612 0.0
H33 H 0.13677 0.15969 0.20664 0.0
H34 H 0.10694 0.18365 0.17822 0.0
H35 H 0.12555 0.17286 0.1688 0.0
H36 H 0.16539 0.21392 0.11741 0.0
H37 H 0.18404 0.17784 0.1104 0.0
H38 H 0.17343 0.16851 0.12964 0.0
H39 H 0.15463 0.20447 0.13632 0.0
C40 C 0.81864 0.17323 0.13333 0.0
C41 C 0.81909 0.18671 0.13454 0.0
C42 C 0.81011 0.18914 0.11301 0.0
C43 C 0.8148 0.19457 0.1245 0.0
C44 C 0.80991 0.17569 0.11167 0.0
C45 C 0.81407 0.16779 0.12179 0.0
U46 U 0.84279 0.1665 0.15976 0.0
O47 O 0.84019 0.16027 0.17994 0.0
O48 O 0.85148 0.14857 0.16666 0.0
C49 C 0.8464 0.14953 0.17823 0.0
C50 C 0.82313 0.16485 0.1439 0.0
C51 C 0.84015 0.13785 0.18367 0.0
C52 C 0.82672 0.11843 0.18179 0.0
C53 C 0.83231 0.12957 0.17622 0.0
C54 C 0.8366 0.12392 0.20227 0.0
C55 C 0.82885 0.11548 0.19489 0.0
C56 C 0.84219 0.13497 0.19671 0.0
C57 C 0.8706 0.19122 0.16369 0.0
C58 C 0.88921 0.18846 0.17769 0.0
C59 C 0.88547 0.20914 0.16754 0.0
C60 C 0.87437 0.20409 0.16165 0.0
C61 C 0.89303 0.2014 0.17561 0.0
C62 C 0.87804 0.18341 0.17179 0.0
C63 C 0.85892 0.1862 0.15724 0.0
O64 O 0.83408 0.15905 0.1418 0.0
O65 O 0.82232 0.16965 0.15557 0.0
O66 O 0.84822 0.18663 0.164 0.0
O67 O 0.86015 0.17536 0.15094 0.0
H68 H 0.82279 0.19119 0.14323 0.0
H69 H 0.81527 0.20493 0.12566 0.0
H70 H 0.80638 0.1713 0.10287 0.0
H71 H 0.81374 0.15743 0.12062 0.0
H72 H 0.82092 0.11203 0.17583 0.0
H73 H 0.8306 0.13166 0.16612 0.0
H74 H 0.83831 0.12199 0.21241 0.0
H75 H 0.84815 0.14128 0.20262 0.0
H76 H 0.89494 0.18222 0.1837 0.0
H77 H 0.88811 0.21916 0.16586 0.0
H78 H 0.86872 0.21026 0.15547 0.0
H79 H 0.87525 0.17343 0.17348 0.0
C80 C 0.82855 0.84272 0.13421 0.0
C81 C 0.82896 0.82928 0.13279 0.0
C82 C 0.81938 0.83101 0.11138 0.0
C83 C 0.8244 0.82347 0.12144 0.0
C84 C 0.81937 0.84447 0.11274 0.0
C85 C 0.8239 0.85024 0.12403 0.0
U86 U 0.84917 0.84763 0.16505 0.0
O87 O 0.85576 0.8658 0.17391 0.0
O88 O 0.84261 0.8527 0.18454 0.0
C89 C 0.84834 0.86412 0.1841 0.0
C90 C 0.83213 0.84918 0.14637 0.0
C91 C 0.84029 0.87506 0.18786 0.0
C92 C 0.83014 0.89551 0.18318 0.0
C93 C 0.83758 0.88516 0.17923 0.0
C94 C 0.82779 0.88575 0.20435 0.0
C95 C 0.82524 0.89598 0.19582 0.0
C96 C 0.8353 0.87546 0.20043 0.0
C97 C 0.87757 0.82594 0.17339 0.0
C98 C 0.89743 0.83075 0.18517 0.0
C99 C 0.88842 0.80905 0.18531 0.0
C100 C 0.8783 0.81305 0.17741 0.0
C101 C 0.89809 0.81785 0.18933 0.0
C102 C 0.88725 0.83477 0.17735 0.0
C103 C 0.86679 0.82984 0.16496 0.0
O104 O 0.83006 0.84263 0.1571 0.0
O105 O 0.84313 0.85574 0.14634 0.0
O106 O 0.86818 0.84095 0.15888 0.0
O107 O 0.85512 0.82789 0.16967 0.0
H108 H 0.83252 0.82327 0.14054 0.0
H109 H 0.82441 0.81307 0.12071 0.0
H110 H 0.81568 0.85053 0.10509 0.0
H111 H 0.82352 0.86062 0.12491 0.0
H112 H 0.82831 0.90322 0.17638 0.0
H113 H 0.84122 0.88509 0.16944 0.0
H114 H 0.82384 0.8856 0.21402 0.0
H115 H 0.83718 0.86776 0.20723 0.0
H116 H 0.90487 0.83772 0.18786 0.0
H117 H 0.88861 0.79907 0.1884 0.0
H118 H 0.87099 0.80605 0.17446 0.0
H119 H 0.88699 0.84478 0.17438 0.0
C120 C 0.13584 0.82073 0.16549 0.0
C121 C 0.13386 0.82476 0.17821 0.0
C122 C 0.11567 0.80963 0.18038 0.0
C123 C 0.12384 0.81926 0.18561 0.0
C124 C 0.11746 0.80595 0.16749 0.0
C125 C 0.12749 0.81142 0.16013 0.0
U126 U 0.16324 0.84528 0.16025 0.0
O127 O 0.18323 0.8426 0.1539 0.0
O128 O 0.17034 0.85462 0.14237 0.0
C129 C 0.18153 0.84892 0.14301 0.0
C130 C 0.14675 0.8259 0.15784 0.0
C131 C 0.18555 0.84231 0.13119 0.0
C132 C 0.18845 0.82276 0.11886 0.0
C133 C 0.18461 0.82884 0.13018 0.0
C134 C 0.19396 0.84352 0.10932 0.0
C135 C 0.1932 0.83002 0.10831 0.0
C136 C 0.19023 0.84958 0.12069 0.0
C137 C 0.16841 0.872 0.18514 0.0
C138 C 0.18796 0.88524 0.18697 0.0
C139 C 0.16915 0.89012 0.19978 0.0
C140 C 0.1624 0.87977 0.19422 0.0
C141 C 0.18208 0.8928 0.19642 0.0
C142 C 0.18117 0.8749 0.18137 0.0
C143 C 0.16135 0.8607 0.18006 0.0
O144 O 0.14502 0.83722 0.15244 0.0
O145 O 0.15816 0.82484 0.16324 0.0
O146 O 0.16759 0.84983 0.18045 0.0
O147 O 0.15511 0.86249 0.16917 0.0
H148 H 0.14019 0.832 0.18248 0.0
H149 H 0.12269 0.82228 0.19551 0.0
H150 H 0.11113 0.79877 0.16312 0.0
H151 H 0.12882 0.80829 0.15028 0.0
H152 H 0.18772 0.81236 0.11838 0.0
H153 H 0.18091 0.82302 0.13812 0.0
H154 H 0.19719 0.84942 0.10125 0.0
H155 H 0.1909 0.85999 0.12123 0.0
H156 H 0.19791 0.8871 0.18419 0.0
H157 H 0.16428 0.89597 0.2068 0.0
H158 H 0.15251 0.87773 0.19715 0.0
H159 H 0.18594 0.86903 0.1743 0.0
C160 C 0.13536 0.81877 0.83998 0.0
C161 C 0.1283 0.8248 0.83016 0.0
C162 C 0.1153 0.80517 0.82728 0.0
C163 C 0.11832 0.81801 0.82382 0.0
C164 C 0.12255 0.7992 0.83697 0.0
C165 C 0.13244 0.80595 0.84329 0.0
U166 U 0.16124 0.8458 0.84487 0.0
O167 O 0.16774 0.85444 0.86315 0.0
O168 O 0.18127 0.84362 0.85139 0.0
C169 C 0.17916 0.84922 0.86249 0.0
C170 C 0.14595 0.82538 0.84686 0.0
C171 C 0.18294 0.8417 0.87388 0.0
C172 C 0.18085 0.82235 0.88706 0.0
C173 C 0.17693 0.82973 0.8765 0.0
C174 C 0.19668 0.83893 0.89263 0.0
C175 C 0.19086 0.82681 0.89516 0.0
C176 C 0.19276 0.84631 0.88203 0.0
C177 C 0.1669 0.87377 0.82176 0.0
C178 C 0.18646 0.88707 0.82293 0.0
C179 C 0.1694 0.89272 0.80807 0.0
C180 C 0.16205 0.88204 0.81228 0.0
C181 C 0.18173 0.8953 0.81328 0.0
C182 C 0.17908 0.87644 0.82719 0.0
C183 C 0.15943 0.86218 0.82563 0.0
O184 O 0.15728 0.82527 0.84118 0.0
O185 O 0.14334 0.83651 0.85211 0.0
O186 O 0.15273 0.86315 0.83634 0.0
O187 O 0.16572 0.85136 0.82488 0.0
H188 H 0.1305 0.83469 0.82743 0.0
H189 H 0.11291 0.82283 0.81634 0.0
H190 H 0.12087 0.78919 0.83952 0.0
H191 H 0.13791 0.8011 0.85072 0.0
H192 H 0.17623 0.81303 0.88875 0.0
H193 H 0.16931 0.82604 0.87029 0.0
H194 H 0.20423 0.84272 0.89885 0.0
H195 H 0.19744 0.85556 0.88016 0.0
H196 H 0.19603 0.88861 0.82693 0.0
H197 H 0.1655 0.89891 0.80064 0.0
H198 H 0.15266 0.88013 0.80801 0.0
H199 H 0.18298 0.87013 0.83452 0.0
C200 C 0.13241 0.16863 0.82632 0.0
C201 C 0.13132 0.18112 0.83123 0.0
C202 C 0.11139 0.18397 0.81911 0.0
C203 C 0.1209 0.18872 0.82765 0.0
C204 C 0.11239 0.17134 0.81446 0.0
C205 C 0.12284 0.16376 0.818 0.0
U206 U 0.1618 0.16152 0.84722 0.0
O207 O 0.16901 0.14315 0.85464 0.0
O208 O 0.18109 0.15501 0.84161 0.0
C209 C 0.17976 0.14405 0.84793 0.0
C210 C 0.14353 0.16068 0.82964 0.0
C211 C 0.18331 0.13242 0.84087 0.0
C212 C 0.17833 0.11517 0.8258 0.0
C213 C 0.17496 0.12668 0.8318 0.0
C214 C 0.19851 0.11528 0.83763 0.0
C215 C 0.19004 0.10924 0.82885 0.0
C216 C 0.19516 0.12675 0.8436 0.0
C217 C 0.17065 0.18337 0.87543 0.0
C218 C 0.19097 0.18178 0.88701 0.0
C219 C 0.17397 0.19493 0.8955 0.0
C220 C 0.16613 0.19162 0.88498 0.0
C221 C 0.18646 0.19 0.89667 0.0
C222 C 0.18311 0.17843 0.87652 0.0
C223 C 0.16226 0.17993 0.86446 0.0
O224 O 0.15494 0.16616 0.82771 0.0
O225 O 0.1427 0.15442 0.84068 0.0
O226 O 0.15546 0.16918 0.86587 0.0
O227 O 0.16754 0.18116 0.85298 0.0
H228 H 0.13859 0.18502 0.83771 0.0
H229 H 0.12039 0.19841 0.83138 0.0
H230 H 0.10507 0.1673 0.80811 0.0
H231 H 0.12348 0.15411 0.81421 0.0
H232 H 0.17163 0.11072 0.81907 0.0
H233 H 0.16578 0.13097 0.82955 0.0
H234 H 0.20771 0.11107 0.83996 0.0
H235 H 0.20175 0.13109 0.85051 0.0
H236 H 0.20065 0.17806 0.88746 0.0
H237 H 0.17022 0.20126 0.90279 0.0
H238 H 0.15653 0.1955 0.88431 0.0
H239 H 0.18677 0.17204 0.86923 0.0
C240 C 0.82056 0.13228 0.84361 0.0
C241 C 0.82922 0.12271 0.84003 0.0
C242 C 0.81205 0.11118 0.82855 0.0
C243 C 0.82499 0.11224 0.83261 0.0
C244 C 0.80344 0.12082 0.8321 0.0
C245 C 0.80764 0.1312 0.83962 0.0
U246 U 0.84421 0.16025 0.84993 0.0
O247 O 0.84054 0.18044 0.85451 0.0
O248 O 0.85129 0.16851 0.8682 0.0
C249 C 0.84573 0.17957 0.86605 0.0
C250 C 0.8248 0.14363 0.85111 0.0
C251 C 0.83789 0.18448 0.87669 0.0
C252 C 0.81717 0.18714 0.88721 0.0
C253 C 0.82459 0.18169 0.87748 0.0
C254 C 0.83635 0.19784 0.89571 0.0
C255 C 0.82296 0.19535 0.89638 0.0
C256 C 0.84374 0.19245 0.88594 0.0
C257 C 0.87337 0.16544 0.82792 0.0
C258 C 0.88546 0.18573 0.82664 0.0
C259 C 0.89288 0.16715 0.815 0.0
C260 C 0.88243 0.15983 0.8198 0.0
C261 C 0.89443 0.18022 0.81824 0.0
C262 C 0.87505 0.17838 0.83149 0.0
C263 C 0.86189 0.15791 0.83203 0.0
O264 O 0.8354 0.14248 0.85798 0.0
O265 O 0.8242 0.15471 0.84495 0.0
O266 O 0.85082 0.16354 0.83005 0.0
O267 O 0.86263 0.15227 0.84339 0.0
H268 H 0.83928 0.12335 0.84288 0.0
H269 H 0.83185 0.10498 0.83 0.0
H270 H 0.79351 0.1205 0.82881 0.0
H271 H 0.80083 0.13854 0.84216 0.0
H272 H 0.80684 0.18524 0.88731 0.0
H273 H 0.8199 0.17554 0.87041 0.0
H274 H 0.84108 0.20408 0.90267 0.0
H275 H 0.854 0.19467 0.8855 0.0
H276 H 0.88623 0.19583 0.8291 0.0
H277 H 0.89966 0.16264 0.80859 0.0
H278 H 0.88128 0.14986 0.81696 0.0
H279 H 0.86811 0.18288 0.83774 0.0
C280 C 0.8413 0.87508 0.82367 0.0
C281 C 0.82802 0.87362 0.82108 0.0
C282 C 0.82647 0.89669 0.81708 0.0
C283 C 0.82069 0.88432 0.8178 0.0
C284 C 0.83971 0.89812 0.81984 0.0
C285 C 0.84706 0.88742 0.82301 0.0
U286 U 0.84917 0.84549 0.8444 0.0
O287 O 0.85654 0.82665 0.83886 0.0
O288 O 0.86798 0.83914 0.85172 0.0
C289 C 0.86766 0.82864 0.84473 0.0
C290 C 0.84937 0.86397 0.82699 0.0
C291 C 0.87935 0.82634 0.83703 0.0
C292 C 0.89062 0.82565 0.81647 0.0
C293 C 0.87942 0.82792 0.82356 0.0
C294 C 0.9019 0.82038 0.83622 0.0
C295 C 0.90203 0.82197 0.82273 0.0
C296 C 0.89066 0.82253 0.84328 0.0
C297 C 0.82684 0.83562 0.87256 0.0
C298 C 0.83146 0.8255 0.89327 0.0
C299 C 0.8104 0.82247 0.88346 0.0
C300 C 0.81433 0.83018 0.87301 0.0
C301 C 0.81886 0.82018 0.8938 0.0
C302 C 0.83542 0.83314 0.88276 0.0
C303 C 0.83055 0.84403 0.86155 0.0
O304 O 0.85568 0.86481 0.83797 0.0
O305 O 0.84433 0.85243 0.82494 0.0
O306 O 0.82964 0.83878 0.85008 0.0
O307 O 0.84099 0.85132 0.86297 0.0
H308 H 0.82328 0.86423 0.82156 0.0
H309 H 0.8105 0.88292 0.81575 0.0
H310 H 0.84439 0.90755 0.81975 0.0
H311 H 0.85726 0.88881 0.82503 0.0
H312 H 0.89032 0.82669 0.80608 0.0
H313 H 0.87081 0.83087 0.81849 0.0
H314 H 0.91054 0.81762 0.84133 0.0
H315 H 0.89082 0.82128 0.85367 0.0
H316 H 0.8382 0.82388 0.90107 0.0
H317 H 0.80076 0.81821 0.88338 0.0
H318 H 0.80757 0.8319 0.86524 0.0
H319 H 0.84517 0.83715 0.88267 0.0
C320 C 0.1676 0.6323 0.68813 0.0
C321 C 0.17586 0.62485 0.68062 0.0
C322 C 0.1792 0.61038 0.69889 0.0
C323 C 0.18166 0.61396 0.68599 0.0
C324 C 0.17114 0.61807 0.70638 0.0
C325 C 0.16537 0.62887 0.70103 0.0
U326 U 0.16362 0.6602 0.66372 0.0
O327 O 0.14575 0.66823 0.65583 0.0
O328 O 0.15866 0.68027 0.66772 0.0
C329 C 0.14738 0.67919 0.66198 0.0
C330 C 0.16115 0.64367 0.68289 0.0
C331 C 0.13627 0.68384 0.66944 0.0
C332 C 0.11519 0.68056 0.67949 0.0
C333 C 0.12554 0.67582 0.67241 0.0
C334 C 0.12617 0.70132 0.68088 0.0
C335 C 0.11536 0.69339 0.68376 0.0
C336 C 0.13645 0.69662 0.67372 0.0
C337 C 0.18667 0.66632 0.6355 0.0
C338 C 0.18254 0.6768 0.61487 0.0
C339 C 0.20368 0.67881 0.62471 0.0
C340 C 0.19943 0.67113 0.63507 0.0
C341 C 0.19531 0.68169 0.61446 0.0
C342 C 0.17825 0.66921 0.62529 0.0
C343 C 0.18233 0.6586 0.64681 0.0
O344 O 0.16763 0.65464 0.68382 0.0
O345 O 0.15523 0.64223 0.67175 0.0
O346 O 0.17124 0.65227 0.64572 0.0
O347 O 0.18378 0.66426 0.65803 0.0
H348 H 0.17777 0.62743 0.67065 0.0
H349 H 0.1879 0.60826 0.68004 0.0
H350 H 0.16937 0.61578 0.71644 0.0
H351 H 0.15913 0.63458 0.707 0.0
H352 H 0.10701 0.6742 0.68158 0.0
H353 H 0.12514 0.66589 0.66929 0.0
H354 H 0.1268 0.71112 0.68435 0.0
H355 H 0.14464 0.70297 0.67162 0.0
H356 H 0.17586 0.67886 0.60712 0.0
H357 H 0.21346 0.68273 0.6249 0.0
H358 H 0.20607 0.66911 0.64286 0.0
H359 H 0.16832 0.66571 0.62537 0.0
C360 C 0.82702 0.66952 0.63237 0.0
C361 C 0.83564 0.67416 0.62286 0.0
C362 C 0.81802 0.68458 0.61157 0.0
C363 C 0.83117 0.68159 0.61254 0.0
C364 C 0.80947 0.68004 0.62119 0.0
C365 C 0.81391 0.67252 0.63143 0.0
U366 U 0.85026 0.66332 0.66031 0.0
O367 O 0.84627 0.65661 0.68009 0.0
O368 O 0.85842 0.64519 0.66738 0.0
C369 C 0.85211 0.64564 0.67836 0.0
C370 C 0.83143 0.66173 0.64342 0.0
C371 C 0.84454 0.63391 0.68169 0.0
C372 C 0.82416 0.62186 0.68241 0.0
C373 C 0.83114 0.63321 0.67962 0.0
C374 C 0.84387 0.61173 0.68931 0.0
C375 C 0.83048 0.61092 0.6871 0.0
C376 C 0.85083 0.62313 0.68663 0.0
C377 C 0.87812 0.68746 0.66637 0.0
C378 C 0.88968 0.69023 0.6866 0.0
C379 C 0.89781 0.70055 0.66711 0.0
C380 C 0.88748 0.69521 0.66015 0.0
C381 C 0.89896 0.69824 0.68044 0.0
C382 C 0.87938 0.68483 0.67961 0.0
C383 C 0.86685 0.68275 0.65901 0.0
O384 O 0.84247 0.65588 0.64202 0.0
O385 O 0.83014 0.66706 0.65479 0.0
O386 O 0.85567 0.6833 0.66496 0.0
O387 O 0.86835 0.67197 0.65267 0.0
H388 H 0.84583 0.67209 0.6234 0.0
H389 H 0.838 0.68498 0.6053 0.0
H390 H 0.79936 0.68249 0.62095 0.0
H391 H 0.80712 0.66914 0.63871 0.0
H392 H 0.81382 0.62164 0.68088 0.0
H393 H 0.82608 0.6414 0.67577 0.0
H394 H 0.84901 0.60345 0.69287 0.0
H395 H 0.86117 0.62348 0.68824 0.0
H396 H 0.89015 0.68848 0.6969 0.0
H397 H 0.90484 0.70663 0.6621 0.0
H398 H 0.88667 0.69733 0.64994 0.0
H399 H 0.87224 0.67886 0.68459 0.0
C400 C 0.82557 0.34027 0.63491 0.0
C401 C 0.83206 0.32872 0.633 0.0
C402 C 0.81985 0.32487 0.61324 0.0
C403 C 0.82918 0.32106 0.62229 0.0
C404 C 0.81336 0.33644 0.61524 0.0
C405 C 0.81622 0.34408 0.62598 0.0
U406 U 0.84653 0.34806 0.66401 0.0
O407 O 0.85346 0.36675 0.67159 0.0
O408 O 0.84145 0.35383 0.68367 0.0
C409 C 0.84713 0.36522 0.6825 0.0
C410 C 0.82853 0.34836 0.64617 0.0
C411 C 0.83943 0.37618 0.68668 0.0
C412 C 0.81937 0.38791 0.687 0.0
C413 C 0.82684 0.37798 0.68208 0.0
C414 C 0.83717 0.39455 0.70078 0.0
C415 C 0.82437 0.39612 0.69661 0.0
C416 C 0.8446 0.38464 0.69588 0.0
C417 C 0.87535 0.32614 0.6707 0.0
C418 C 0.89364 0.33094 0.68473 0.0
C419 C 0.89054 0.30946 0.67615 0.0
C420 C 0.8794 0.3134 0.66977 0.0
C421 C 0.89786 0.3182 0.6836 0.0
C422 C 0.88245 0.33487 0.67835 0.0
C423 C 0.86399 0.33011 0.66325 0.0
O424 O 0.82696 0.34267 0.65745 0.0
O425 O 0.83932 0.35522 0.64537 0.0
O426 O 0.86514 0.34113 0.65699 0.0
O427 O 0.85277 0.3285 0.669 0.0
H428 H 0.83929 0.32561 0.63983 0.0
H429 H 0.83413 0.31206 0.6212 0.0
H430 H 0.80613 0.33961 0.60844 0.0
H431 H 0.81113 0.35298 0.6273 0.0
H432 H 0.80955 0.38891 0.6836 0.0
H433 H 0.82271 0.37156 0.67493 0.0
H434 H 0.84137 0.4009 0.70796 0.0
H435 H 0.85433 0.38344 0.69947 0.0
H436 H 0.8992 0.33796 0.6902 0.0
H437 H 0.89351 0.29958 0.67516 0.0
H438 H 0.87403 0.30652 0.66394 0.0
H439 H 0.87947 0.34476 0.67919 0.0
C440 C 0.13395 0.3213 0.67055 0.0
C441 C 0.1324 0.32485 0.68348 0.0
C442 C 0.11052 0.31574 0.6835 0.0
C443 C 0.12082 0.322 0.68993 0.0
C444 C 0.11223 0.312 0.67062 0.0
C445 C 0.12385 0.31477 0.6642 0.0
U446 U 0.16331 0.34338 0.66549 0.0
O447 O 0.18325 0.33927 0.65979 0.0
O448 O 0.17139 0.3517 0.64758 0.0
C449 C 0.1822 0.34539 0.64869 0.0
C450 C 0.14577 0.32489 0.66339 0.0
C451 C 0.18622 0.33845 0.63703 0.0
C452 C 0.19139 0.31875 0.62578 0.0
C453 C 0.18773 0.32504 0.63705 0.0
C454 C 0.19196 0.33914 0.6143 0.0
C455 C 0.19355 0.32573 0.61428 0.0
C456 C 0.18843 0.34543 0.62558 0.0
C457 C 0.16881 0.37205 0.68783 0.0
C458 C 0.18907 0.38387 0.69109 0.0
C459 C 0.16875 0.39435 0.69475 0.0
C460 C 0.16207 0.38301 0.69144 0.0
C461 C 0.18234 0.3949 0.69468 0.0
C462 C 0.18238 0.37256 0.68765 0.0
C463 C 0.16147 0.3604 0.68391 0.0
O464 O 0.14524 0.33582 0.65697 0.0
O465 O 0.15671 0.32351 0.66965 0.0
O466 O 0.16727 0.34935 0.68543 0.0
O467 O 0.15533 0.36135 0.67287 0.0
H468 H 0.14009 0.32994 0.68855 0.0
H469 H 0.11991 0.32475 0.69994 0.0
H470 H 0.10445 0.30722 0.6654 0.0
H471 H 0.12486 0.31201 0.6542 0.0
H472 H 0.19251 0.30841 0.62605 0.0
H473 H 0.18602 0.31938 0.64572 0.0
H474 H 0.19317 0.34476 0.60553 0.0
H475 H 0.18725 0.35577 0.62532 0.0
H476 H 0.19953 0.384 0.69091 0.0
H477 H 0.16326 0.40277 0.69707 0.0
H478 H 0.15161 0.38286 0.6915 0.0
H479 H 0.18781 0.36426 0.68477 0.0
C480 C 0.12861 0.32832 0.3419 0.0
C481 C 0.12728 0.33428 0.32981 0.0
C482 C 0.1078 0.32142 0.32566 0.0
C483 C 0.117 0.33082 0.32173 0.0
C484 C 0.10916 0.31551 0.33781 0.0
C485 C 0.11949 0.31895 0.34588 0.0
U486 U 0.15783 0.3496 0.3496 0.0
O487 O 0.16499 0.35701 0.36819 0.0
O488 O 0.17715 0.34462 0.35648 0.0
C489 C 0.17565 0.35041 0.36759 0.0
C490 C 0.13956 0.3317 0.35032 0.0
C491 C 0.1785 0.3425 0.379 0.0
C492 C 0.17517 0.32292 0.39162 0.0
C493 C 0.17199 0.33068 0.38106 0.0
C494 C 0.19125 0.33884 0.39828 0.0
C495 C 0.18485 0.32692 0.40033 0.0
C496 C 0.18808 0.34657 0.38769 0.0
C497 C 0.16705 0.37729 0.32647 0.0
C498 C 0.17795 0.39789 0.33044 0.0
C499 C 0.1804 0.38743 0.30982 0.0
C500 C 0.17233 0.37729 0.31402 0.0
C501 C 0.1832 0.39791 0.31793 0.0
C502 C 0.16996 0.38768 0.33469 0.0
C503 C 0.15855 0.3664 0.33058 0.0
O504 O 0.15102 0.32992 0.34528 0.0
O505 O 0.1387 0.34275 0.35632 0.0
O506 O 0.15173 0.36797 0.34114 0.0
O507 O 0.16364 0.35495 0.32982 0.0
H508 H 0.13429 0.34151 0.32657 0.0
H509 H 0.11638 0.33533 0.3123 0.0
H510 H 0.10222 0.30824 0.34108 0.0
H511 H 0.12038 0.31426 0.3552 0.0
H512 H 0.17029 0.31366 0.39277 0.0
H513 H 0.1646 0.32736 0.37439 0.0
H514 H 0.19873 0.34215 0.40484 0.0
H515 H 0.1932 0.35567 0.38621 0.0
H516 H 0.17996 0.40582 0.33692 0.0
H517 H 0.18459 0.38696 0.30027 0.0
H518 H 0.17028 0.36936 0.30754 0.0
H519 H 0.16608 0.38793 0.34438 0.0
C520 C 0.13528 0.66815 0.32766 0.0
C521 C 0.13329 0.68015 0.33337 0.0
C522 C 0.11423 0.68319 0.31999 0.0
C523 C 0.12284 0.6876 0.32958 0.0
C524 C 0.11609 0.67101 0.31456 0.0
C525 C 0.12655 0.66357 0.31834 0.0
U526 U 0.16471 0.66107 0.34873 0.0
O527 O 0.17256 0.64253 0.35502 0.0
O528 O 0.18426 0.65566 0.34287 0.0
C529 C 0.18315 0.64414 0.34814 0.0
C530 C 0.14659 0.66048 0.331 0.0
C531 C 0.18699 0.63332 0.33986 0.0
C532 C 0.18287 0.61239 0.33005 0.0
C533 C 0.1788 0.62256 0.33774 0.0
C534 C 0.20328 0.62361 0.32636 0.0
C535 C 0.19519 0.61276 0.32434 0.0
C536 C 0.19926 0.63372 0.3341 0.0
C537 C 0.17329 0.6825 0.37763 0.0
C538 C 0.18456 0.67739 0.39758 0.0
C539 C 0.18604 0.69899 0.3887 0.0
C540 C 0.17802 0.69523 0.37848 0.0
C541 C 0.18947 0.6901 0.39833 0.0
C542 C 0.17661 0.67361 0.3873 0.0
C543 C 0.1649 0.67882 0.36663 0.0
O544 O 0.15784 0.66637 0.3294 0.0
O545 O 0.14578 0.65386 0.34183 0.0
O546 O 0.15834 0.66787 0.36769 0.0
O547 O 0.16996 0.68068 0.35512 0.0
H548 H 0.13993 0.68381 0.34062 0.0
H549 H 0.12165 0.69696 0.33392 0.0
H550 H 0.10946 0.66723 0.30737 0.0
H551 H 0.1279 0.6543 0.31389 0.0
H552 H 0.17641 0.60417 0.32865 0.0
H553 H 0.16926 0.62197 0.34202 0.0
H554 H 0.21268 0.62439 0.3218 0.0
H555 H 0.20574 0.64191 0.33556 0.0
H556 H 0.18678 0.67039 0.40499 0.0
H557 H 0.18971 0.70883 0.38896 0.0
H558 H 0.17556 0.70228 0.37118 0.0
H559 H 0.17308 0.66372 0.38695 0.0
C560 C 0.82176 0.63376 0.33769 0.0
C561 C 0.83088 0.62589 0.33181 0.0
C562 C 0.81365 0.61361 0.32125 0.0
C563 C 0.82685 0.61584 0.32376 0.0
C564 C 0.80455 0.62146 0.32722 0.0
C565 C 0.80858 0.63144 0.33537 0.0
U566 U 0.84539 0.66106 0.34554 0.0
O567 O 0.84221 0.68063 0.35272 0.0
O568 O 0.8539 0.66722 0.36397 0.0
C569 C 0.84817 0.67839 0.3637 0.0
C570 C 0.82586 0.64456 0.34598 0.0
C571 C 0.84148 0.68204 0.37572 0.0
C572 C 0.82406 0.69264 0.38701 0.0
C573 C 0.8299 0.68889 0.37549 0.0
C574 C 0.84124 0.68281 0.39918 0.0
C575 C 0.82964 0.68955 0.39895 0.0
C576 C 0.84711 0.67914 0.3877 0.0
C577 C 0.87465 0.66664 0.32341 0.0
C578 C 0.8873 0.68638 0.31997 0.0
C579 C 0.89708 0.6657 0.31666 0.0
C580 C 0.88544 0.65949 0.31999 0.0
C581 C 0.89812 0.67923 0.3165 0.0
C582 C 0.87568 0.68015 0.32343 0.0
C583 C 0.86254 0.65977 0.327 0.0
O584 O 0.83655 0.64292 0.35258 0.0
O585 O 0.8252 0.65605 0.34066 0.0
O586 O 0.85184 0.66628 0.32595 0.0
O587 O 0.86306 0.65277 0.33759 0.0
H588 H 0.84112 0.62751 0.33342 0.0
H589 H 0.83408 0.60978 0.31955 0.0
H590 H 0.79432 0.62002 0.32543 0.0
H591 H 0.80141 0.63744 0.33978 0.0
H592 H 0.81515 0.69789 0.3866 0.0
H593 H 0.82537 0.69142 0.36643 0.0
H594 H 0.84589 0.68056 0.40825 0.0
H595 H 0.85615 0.67411 0.3882 0.0
H596 H 0.88781 0.69681 0.31997 0.0
H597 H 0.90533 0.6599 0.31443 0.0
H598 H 0.88488 0.64906 0.32002 0.0
H599 H 0.86753 0.68591 0.32612 0.0
C600 C 0.83817 0.37311 0.32266 0.0
C601 C 0.8246 0.37291 0.32265 0.0
C602 C 0.82455 0.39541 0.31578 0.0
C603 C 0.81786 0.38396 0.3192 0.0
C604 C 0.83814 0.39558 0.31595 0.0
C605 C 0.84486 0.38452 0.31928 0.0
U606 U 0.84427 0.34377 0.3443 0.0
O607 O 0.85069 0.32439 0.33938 0.0
O608 O 0.86263 0.33666 0.35202 0.0
C609 C 0.86179 0.32592 0.34542 0.0
C610 C 0.84558 0.36167 0.32631 0.0
C611 C 0.87346 0.32253 0.33815 0.0
C612 C 0.88513 0.32 0.318 0.0
C613 C 0.87397 0.32345 0.32463 0.0
C614 C 0.89548 0.31494 0.33831 0.0
C615 C 0.89599 0.31563 0.32477 0.0
C616 C 0.8843 0.31828 0.34492 0.0
C617 C 0.82203 0.33566 0.3727 0.0
C618 C 0.82774 0.32315 0.39171 0.0
C619 C 0.80531 0.32481 0.38545 0.0
C620 C 0.80897 0.33261 0.37496 0.0
C621 C 0.81466 0.31992 0.39391 0.0
C622 C 0.83141 0.33085 0.38115 0.0
C623 C 0.82567 0.34376 0.36147 0.0
O624 O 0.85188 0.36251 0.33729 0.0
O625 O 0.83983 0.35039 0.32462 0.0
O626 O 0.82446 0.33821 0.35017 0.0
O627 O 0.83639 0.35068 0.36259 0.0
H628 H 0.81919 0.36425 0.32533 0.0
H629 H 0.8074 0.38353 0.3192 0.0
H630 H 0.84359 0.40434 0.31377 0.0
H631 H 0.85532 0.38492 0.31934 0.0
H632 H 0.88525 0.32069 0.30757 0.0
H633 H 0.86576 0.32681 0.31919 0.0
H634 H 0.9038 0.31201 0.34384 0.0
H635 H 0.88414 0.31761 0.35535 0.0
H636 H 0.83516 0.31978 0.3982 0.0
H637 H 0.79516 0.32245 0.38685 0.0
H638 H 0.80159 0.3362 0.36855 0.0
H639 H 0.84157 0.33305 0.37962 0.0
C640 C 0.66752 0.13216 0.68757 0.0
C641 C 0.67282 0.12407 0.67825 0.0
C642 C 0.68329 0.11155 0.69508 0.0
C643 C 0.68053 0.1138 0.68197 0.0
C644 C 0.67782 0.11957 0.70438 0.0
C645 C 0.67001 0.12976 0.70066 0.0
U646 U 0.66115 0.16096 0.66566 0.0
O647 O 0.64315 0.16829 0.65749 0.0
O648 O 0.65486 0.18049 0.67041 0.0
C649 C 0.64409 0.17921 0.66379 0.0
C650 C 0.65968 0.1433 0.68386 0.0
C651 C 0.63227 0.18347 0.67021 0.0
C652 C 0.61264 0.17913 0.6825 0.0
C653 C 0.62433 0.17494 0.67738 0.0
C654 C 0.61697 0.20046 0.67371 0.0
C655 C 0.60872 0.19187 0.68046 0.0
C656 C 0.62861 0.19628 0.66861 0.0
C657 C 0.68409 0.16897 0.63787 0.0
C658 C 0.67879 0.18217 0.61921 0.0
C659 C 0.70112 0.17991 0.62561 0.0
C660 C 0.69722 0.17184 0.63581 0.0
C661 C 0.69194 0.18526 0.61725 0.0
C662 C 0.67488 0.17419 0.62948 0.0
C663 C 0.68018 0.16081 0.64896 0.0
O664 O 0.66529 0.15464 0.68554 0.0
O665 O 0.65341 0.14238 0.67285 0.0
O666 O 0.66945 0.15395 0.64758 0.0
O667 O 0.68114 0.16634 0.66029 0.0
H668 H 0.67107 0.12571 0.66807 0.0
H669 H 0.68435 0.10763 0.67459 0.0
H670 H 0.6798 0.11812 0.71454 0.0
H671 H 0.66604 0.1359 0.708 0.0
H672 H 0.60646 0.17231 0.68769 0.0
H673 H 0.62704 0.16501 0.67878 0.0
H674 H 0.61433 0.2104 0.67223 0.0
H675 H 0.63467 0.20302 0.66318 0.0
H676 H 0.6715 0.18589 0.61278 0.0
H677 H 0.71131 0.18215 0.6244 0.0
H678 H 0.70446 0.16794 0.64219 0.0
H679 H 0.66468 0.17215 0.63088 0.0
C680 C 0.31947 0.16949 0.63274 0.0
C681 C 0.32455 0.18188 0.63017 0.0
C682 C 0.30908 0.18457 0.61273 0.0
C683 C 0.3194 0.18937 0.62024 0.0
C684 C 0.30432 0.17199 0.61508 0.0
C685 C 0.30944 0.16453 0.62504 0.0
U686 U 0.34448 0.16386 0.65883 0.0
O687 O 0.34207 0.1583 0.67922 0.0
O688 O 0.35287 0.14597 0.66614 0.0
C689 C 0.34801 0.14737 0.67774 0.0
C690 C 0.32432 0.16183 0.6436 0.0
C691 C 0.3415 0.13596 0.68342 0.0
C692 C 0.32566 0.11833 0.68267 0.0
C693 C 0.33155 0.12924 0.67695 0.0
C694 C 0.33949 0.12097 0.70137 0.0
C695 C 0.32969 0.11401 0.69489 0.0
C696 C 0.34537 0.13179 0.69566 0.0
C697 C 0.37339 0.18683 0.66209 0.0
C698 C 0.38661 0.18828 0.68142 0.0
C699 C 0.39495 0.19649 0.66107 0.0
C700 C 0.38338 0.19283 0.65501 0.0
C701 C 0.39667 0.19432 0.67436 0.0
C702 C 0.3751 0.18452 0.67534 0.0
C703 C 0.36141 0.18275 0.65549 0.0
O704 O 0.33516 0.15584 0.64146 0.0
O705 O 0.32406 0.16757 0.65485 0.0
O706 O 0.35069 0.18393 0.66213 0.0
O707 O 0.36197 0.17177 0.64931 0.0
H708 H 0.33235 0.18584 0.636 0.0
H709 H 0.32325 0.19903 0.61865 0.0
H710 H 0.29658 0.16793 0.60925 0.0
H711 H 0.30549 0.15494 0.62683 0.0
H712 H 0.31807 0.1132 0.67751 0.0
H713 H 0.32839 0.13241 0.66751 0.0
H714 H 0.34254 0.11811 0.71095 0.0
H715 H 0.35293 0.13695 0.70084 0.0
H716 H 0.38766 0.18646 0.69167 0.0
H717 H 0.40263 0.20077 0.65528 0.0
H718 H 0.38229 0.19455 0.64475 0.0
H719 H 0.36756 0.17977 0.68097 0.0
C720 C 0.32615 0.84333 0.63565 0.0
C721 C 0.33423 0.83393 0.63059 0.0
C722 C 0.31988 0.83125 0.61211 0.0
C723 C 0.33109 0.82791 0.61891 0.0
C724 C 0.31166 0.84041 0.61743 0.0
C725 C 0.3148 0.84641 0.62907 0.0
U726 U 0.34672 0.8489 0.66609 0.0
O727 O 0.35349 0.86712 0.67469 0.0
O728 O 0.34037 0.85423 0.68559 0.0
C729 C 0.34614 0.86561 0.68496 0.0
C730 C 0.32944 0.85023 0.64759 0.0
C731 C 0.33807 0.87661 0.68843 0.0
C732 C 0.32605 0.89568 0.68261 0.0
C733 C 0.33376 0.88538 0.67906 0.0
C734 C 0.32677 0.88856 0.70488 0.0
C735 C 0.32235 0.89731 0.69554 0.0
C736 C 0.33456 0.87833 0.70135 0.0
C737 C 0.37509 0.82676 0.67409 0.0
C738 C 0.39622 0.83042 0.68392 0.0
C739 C 0.3852 0.80978 0.68655 0.0
C740 C 0.37489 0.81419 0.67916 0.0
C741 C 0.39607 0.81778 0.68889 0.0
C742 C 0.38584 0.83488 0.67659 0.0
C743 C 0.3642 0.83096 0.66591 0.0
O744 O 0.32748 0.84378 0.65839 0.0
O745 O 0.34043 0.8568 0.64745 0.0
O746 O 0.36563 0.84205 0.65981 0.0
O747 O 0.35258 0.82916 0.67081 0.0
H748 H 0.34302 0.8314 0.63559 0.0
H749 H 0.33759 0.82089 0.61503 0.0
H750 H 0.30283 0.84298 0.61255 0.0
H751 H 0.30841 0.85357 0.63289 0.0
H752 H 0.32305 0.9024 0.67522 0.0
H753 H 0.33633 0.88428 0.66901 0.0
H754 H 0.32403 0.88951 0.71491 0.0
H755 H 0.33777 0.87168 0.70872 0.0
H756 H 0.40444 0.83683 0.68558 0.0
H757 H 0.38461 0.80012 0.69053 0.0
H758 H 0.36672 0.80774 0.67738 0.0
H759 H 0.38631 0.84463 0.67283 0.0
C760 C 0.63443 0.82116 0.66377 0.0
C761 C 0.63308 0.82502 0.67664 0.0
C762 C 0.61359 0.81163 0.67883 0.0
C763 C 0.6228 0.82024 0.68413 0.0
C764 C 0.61488 0.80798 0.66586 0.0
C765 C 0.62521 0.81272 0.6584 0.0
U766 U 0.66258 0.84456 0.65855 0.0
O767 O 0.68268 0.84119 0.65291 0.0
O768 O 0.67054 0.85352 0.64089 0.0
C769 C 0.68168 0.84781 0.64213 0.0
C770 C 0.64558 0.82565 0.65604 0.0
C771 C 0.68664 0.84153 0.63054 0.0
C772 C 0.68461 0.82606 0.61311 0.0
C773 C 0.67948 0.83193 0.62406 0.0
C774 C 0.70407 0.83927 0.61518 0.0
C775 C 0.69693 0.82977 0.60849 0.0
C776 C 0.69895 0.84512 0.62605 0.0
C777 C 0.66766 0.87128 0.68358 0.0
C778 C 0.68326 0.88904 0.6816 0.0
C779 C 0.67192 0.88529 0.70177 0.0
C780 C 0.66537 0.87476 0.69638 0.0
C781 C 0.68084 0.89264 0.69442 0.0
C782 C 0.67669 0.87843 0.6762 0.0
C783 C 0.66058 0.86011 0.67826 0.0
O784 O 0.64436 0.83691 0.65036 0.0
O785 O 0.65689 0.82427 0.66157 0.0
O786 O 0.6666 0.84913 0.67887 0.0
O787 O 0.65469 0.86198 0.66719 0.0
H788 H 0.64013 0.83155 0.68096 0.0
H789 H 0.62227 0.82301 0.69416 0.0
H790 H 0.60792 0.8014 0.66151 0.0
H791 H 0.62609 0.80967 0.64847 0.0
H792 H 0.67894 0.81871 0.6082 0.0
H793 H 0.66998 0.82897 0.62748 0.0
H794 H 0.71373 0.84206 0.6121 0.0
H795 H 0.70466 0.8524 0.63102 0.0
H796 H 0.69014 0.89449 0.67574 0.0
H797 H 0.67013 0.88759 0.71177 0.0
H798 H 0.65853 0.86926 0.70224 0.0
H799 H 0.67865 0.87581 0.66631 0.0
C800 C 0.63393 0.82414 0.33799 0.0
C801 C 0.62861 0.83318 0.32951 0.0
C802 C 0.61065 0.81837 0.32495 0.0
C803 C 0.61703 0.83033 0.32307 0.0
C804 C 0.61614 0.80929 0.33333 0.0
C805 C 0.62769 0.81216 0.33979 0.0
U806 U 0.66324 0.84587 0.34472 0.0
O807 O 0.67161 0.85226 0.36312 0.0
O808 O 0.68318 0.84088 0.34983 0.0
C809 C 0.68228 0.84586 0.3614 0.0
C810 C 0.64575 0.82721 0.34527 0.0
C811 C 0.68628 0.83746 0.37216 0.0
C812 C 0.68145 0.82496 0.39157 0.0
C813 C 0.67737 0.83279 0.38139 0.0
C814 C 0.70332 0.82611 0.38329 0.0
C815 C 0.69449 0.8216 0.39268 0.0
C816 C 0.69926 0.83403 0.37318 0.0
C817 C 0.66907 0.87632 0.32462 0.0
C818 C 0.68499 0.89275 0.33057 0.0
C819 C 0.67349 0.89445 0.31028 0.0
C820 C 0.66678 0.88294 0.31306 0.0
C821 C 0.68263 0.89952 0.31903 0.0
C822 C 0.6783 0.88121 0.33332 0.0
C823 C 0.66156 0.86451 0.32762 0.0
O824 O 0.65659 0.82654 0.33875 0.0
O825 O 0.64522 0.83748 0.35257 0.0
O826 O 0.65545 0.86448 0.33873 0.0
O827 O 0.6674 0.85366 0.32531 0.0
H828 H 0.6333 0.84251 0.32805 0.0
H829 H 0.6129 0.83762 0.3169 0.0
H830 H 0.61145 0.79999 0.33494 0.0
H831 H 0.63168 0.80507 0.3463 0.0
H832 H 0.67442 0.82161 0.39864 0.0
H833 H 0.66727 0.83519 0.38077 0.0
H834 H 0.71334 0.82338 0.38364 0.0
H835 H 0.70626 0.83743 0.36611 0.0
H836 H 0.69176 0.89655 0.33762 0.0
H837 H 0.67151 0.89943 0.30131 0.0
H838 H 0.6597 0.87928 0.30624 0.0
H839 H 0.68016 0.87621 0.34232 0.0
C840 C 0.63069 0.16431 0.32721 0.0
C841 C 0.62945 0.17777 0.32718 0.0
C842 C 0.60783 0.17555 0.31801 0.0
C843 C 0.6181 0.18335 0.32259 0.0
C844 C 0.60902 0.1621 0.31842 0.0
C845 C 0.62032 0.15656 0.32296 0.0
U846 U 0.66111 0.16043 0.34837 0.0
O847 O 0.66982 0.1427 0.35564 0.0
O848 O 0.68078 0.1554 0.34241 0.0
C849 C 0.68032 0.14434 0.34864 0.0
C850 C 0.64279 0.15806 0.33098 0.0
C851 C 0.68455 0.13304 0.34138 0.0
C852 C 0.67996 0.11357 0.32914 0.0
C853 C 0.67569 0.12473 0.33517 0.0
C854 C 0.70199 0.11913 0.33511 0.0
C855 C 0.69315 0.11058 0.32916 0.0
C856 C 0.69772 0.13024 0.34115 0.0
C857 C 0.66869 0.18291 0.37669 0.0
C858 C 0.6789 0.17893 0.39748 0.0
C859 C 0.68139 0.19983 0.3872 0.0
C860 C 0.67378 0.19555 0.37687 0.0
C861 C 0.68393 0.19162 0.39769 0.0
C862 C 0.67137 0.17461 0.3871 0.0
C863 C 0.66052 0.1787 0.36571 0.0
O864 O 0.65359 0.16469 0.32901 0.0
O865 O 0.64258 0.15176 0.34202 0.0
O866 O 0.65431 0.16759 0.36702 0.0
O867 O 0.66557 0.18042 0.35417 0.0
H868 H 0.63732 0.18397 0.33044 0.0
H869 H 0.61751 0.19374 0.32227 0.0
H870 H 0.60122 0.15585 0.31508 0.0
H871 H 0.62106 0.14617 0.32293 0.0
H872 H 0.67289 0.10706 0.32485 0.0
H873 H 0.66547 0.12673 0.33524 0.0
H874 H 0.71221 0.11713 0.33523 0.0
H875 H 0.70471 0.13654 0.34586 0.0
H876 H 0.68071 0.17237 0.40541 0.0
H877 H 0.68541 0.20954 0.38687 0.0
H878 H 0.6719 0.20212 0.36896 0.0
H879 H 0.66764 0.16479 0.38727 0.0
C880 C 0.31888 0.1322 0.34397 0.0
C881 C 0.32313 0.1304 0.33127 0.0
C882 C 0.31302 0.10901 0.33104 0.0
C883 C 0.32014 0.11894 0.32483 0.0
C884 C 0.30865 0.11094 0.3437 0.0
C885 C 0.31157 0.12244 0.35011 0.0
U886 U 0.34098 0.16141 0.34881 0.0
O887 O 0.33673 0.1815 0.35326 0.0
O888 O 0.34846 0.17021 0.36668 0.0
C889 C 0.34252 0.18107 0.36453 0.0
C890 C 0.32235 0.14401 0.35102 0.0
C891 C 0.33518 0.18617 0.37541 0.0
C892 C 0.3151 0.18856 0.38718 0.0
C893 C 0.32212 0.18279 0.37733 0.0
C894 C 0.33425 0.20076 0.39354 0.0
C895 C 0.32104 0.19781 0.39521 0.0
C896 C 0.34124 0.19503 0.38369 0.0
C897 C 0.36972 0.16744 0.32666 0.0
C898 C 0.388 0.18154 0.33189 0.0
C899 C 0.38269 0.17725 0.30955 0.0
C900 C 0.37238 0.16924 0.31351 0.0
C901 C 0.39053 0.1836 0.31869 0.0
C902 C 0.37762 0.17363 0.33584 0.0
C903 C 0.3584 0.15951 0.33062 0.0
O904 O 0.33317 0.14353 0.35761 0.0
O905 O 0.32113 0.15485 0.34453 0.0
O906 O 0.34717 0.16487 0.32874 0.0
O907 O 0.35926 0.15363 0.34185 0.0
H908 H 0.32881 0.13782 0.32637 0.0
H909 H 0.3234 0.11785 0.31498 0.0
H910 H 0.30319 0.10344 0.34875 0.0
H911 H 0.30825 0.12366 0.35993 0.0
H912 H 0.30494 0.18609 0.38828 0.0
H913 H 0.31731 0.17591 0.37106 0.0
H914 H 0.33914 0.20763 0.39978 0.0
H915 H 0.35134 0.19767 0.3824 0.0
H916 H 0.39404 0.18605 0.33917 0.0
H917 H 0.38436 0.17868 0.29932 0.0
H918 H 0.36636 0.16459 0.30629 0.0
H919 H 0.37573 0.17244 0.34606 0.0
C920 C 0.33916 0.8782 0.32506 0.0
C921 C 0.33159 0.87891 0.31384 0.0
C922 C 0.32486 0.90045 0.31954 0.0
C923 C 0.3245 0.88993 0.3111 0.0
C924 C 0.33256 0.8998 0.33068 0.0
C925 C 0.33959 0.88878 0.33344 0.0
U926 U 0.34737 0.84846 0.3454 0.0
O927 O 0.35312 0.8291 0.33951 0.0
O928 O 0.36631 0.84111 0.35114 0.0
C929 C 0.3648 0.83053 0.34438 0.0
C930 C 0.34682 0.86657 0.32763 0.0
C931 C 0.37576 0.8274 0.33592 0.0
C932 C 0.38501 0.82362 0.31474 0.0
C933 C 0.37438 0.82648 0.32247 0.0
C934 C 0.39852 0.82259 0.33377 0.0
C935 C 0.39723 0.82177 0.3203 0.0
C936 C 0.38789 0.82535 0.34149 0.0
C937 C 0.32817 0.84087 0.37625 0.0
C938 C 0.32566 0.82018 0.38722 0.0
C939 C 0.32295 0.83992 0.3991 0.0
C940 C 0.32545 0.84707 0.38787 0.0
C941 C 0.32308 0.82638 0.39893 0.0
C942 C 0.32827 0.82735 0.376 0.0
C943 C 0.33084 0.84871 0.36458 0.0
O944 O 0.35456 0.867 0.33768 0.0
O945 O 0.34066 0.85543 0.32646 0.0
O946 O 0.32831 0.84324 0.35344 0.0
O947 O 0.34181 0.85532 0.36463 0.0
H948 H 0.33117 0.87094 0.30715 0.0
H949 H 0.31867 0.89018 0.30243 0.0
H950 H 0.33329 0.90788 0.3372 0.0
H951 H 0.34542 0.88864 0.34211 0.0
H952 H 0.38363 0.82277 0.30443 0.0
H953 H 0.36513 0.82799 0.3179 0.0
H954 H 0.40782 0.8213 0.33834 0.0
H955 H 0.38918 0.82599 0.35184 0.0
H956 H 0.32556 0.80977 0.3867 0.0
H957 H 0.32108 0.84498 0.40798 0.0
H958 H 0.32533 0.85749 0.38828 0.0
H959 H 0.33034 0.82232 0.36715 0.0
C960 C 0.66806 0.63222 0.1863 0.0
C961 C 0.67325 0.62408 0.17696 0.0
C962 C 0.68357 0.61142 0.19379 0.0
C963 C 0.68085 0.61372 0.18068 0.0
C964 C 0.67823 0.61952 0.2031 0.0
C965 C 0.67055 0.6298 0.19938 0.0
U966 U 0.66113 0.66111 0.16449 0.0
O967 O 0.64273 0.66875 0.15752 0.0
O968 O 0.65544 0.68069 0.16972 0.0
C969 C 0.64407 0.67943 0.16417 0.0
C970 C 0.66028 0.6434 0.18267 0.0
C971 C 0.63298 0.68314 0.17215 0.0
C972 C 0.61332 0.67787 0.18411 0.0
C973 C 0.62367 0.67404 0.17645 0.0
C974 C 0.6215 0.69989 0.18335 0.0
C975 C 0.6122 0.69082 0.18776 0.0
C976 C 0.63176 0.69608 0.17561 0.0
C977 C 0.68342 0.66917 0.13597 0.0
C978 C 0.67835 0.68189 0.1169 0.0
C979 C 0.70053 0.68042 0.12408 0.0
C980 C 0.69653 0.67241 0.13428 0.0
C981 C 0.69148 0.68534 0.11532 0.0
C982 C 0.67434 0.67396 0.12718 0.0
C983 C 0.67948 0.66098 0.14704 0.0
O984 O 0.66606 0.65469 0.18413 0.0
O985 O 0.65369 0.64248 0.17185 0.0
O986 O 0.66854 0.65441 0.14588 0.0
O987 O 0.68096 0.66629 0.15843 0.0
H988 H 0.67148 0.62575 0.16679 0.0
H989 H 0.68457 0.60749 0.17329 0.0
H990 H 0.6802 0.61805 0.21326 0.0
H991 H 0.66665 0.63597 0.20674 0.0
H992 H 0.60617 0.6707 0.18711 0.0
H993 H 0.62437 0.66399 0.17392 0.0
H994 H 0.62095 0.70991 0.18605 0.0
H995 H 0.63883 0.70325 0.1724 0.0
H996 H 0.67118 0.68528 0.11015 0.0
H997 H 0.71069 0.68295 0.12318 0.0
H998 H 0.70369 0.66883 0.14096 0.0
H999 H 0.66416 0.67162 0.12826 0.0
C1000 C 0.32264 0.6703 0.13052 0.0
C1001 C 0.32798 0.68264 0.1282 0.0
C1002 C 0.31255 0.68601 0.11085 0.0
C1003 C 0.32299 0.69043 0.11842 0.0
C1004 C 0.30749 0.6735 0.11298 0.0
C1005 C 0.31248 0.66573 0.12277 0.0
U1006 U 0.34631 0.6644 0.15789 0.0
O1007 O 0.34299 0.65723 0.17761 0.0
O1008 O 0.35528 0.64644 0.16445 0.0
C1009 C 0.34919 0.64652 0.17558 0.0
C1010 C 0.32735 0.66228 0.14118 0.0
C1011 C 0.34224 0.63444 0.17913 0.0
C1012 C 0.32232 0.62231 0.18338 0.0
C1013 C 0.32869 0.63381 0.17986 0.0
C1014 C 0.34289 0.61181 0.18519 0.0
C1015 C 0.32934 0.61119 0.18615 0.0
C1016 C 0.34927 0.62335 0.1818 0.0
C1017 C 0.37303 0.6899 0.16396 0.0
C1018 C 0.39152 0.68737 0.17815 0.0
C1019 C 0.3864 0.70845 0.16966 0.0
C1020 C 0.37582 0.70312 0.16311 0.0
C1021 C 0.39448 0.70062 0.17711 0.0
C1022 C 0.38086 0.68203 0.1716 0.0
C1023 C 0.36186 0.68466 0.15681 0.0
O1024 O 0.33871 0.6572 0.13939 0.0
O1025 O 0.32597 0.66718 0.15273 0.0
O1026 O 0.35083 0.68449 0.16308 0.0
O1027 O 0.36378 0.67411 0.15022 0.0
H1028 H 0.33587 0.6863 0.13409 0.0
H1029 H 0.32706 0.70003 0.11699 0.0
H1030 H 0.29964 0.66975 0.10711 0.0
H1031 H 0.30831 0.6562 0.12438 0.0
H1032 H 0.31187 0.62213 0.18401 0.0
H1033 H 0.323 0.64219 0.17774 0.0
H1034 H 0.34857 0.60334 0.18688 0.0
H1035 H 0.35972 0.6236 0.18118 0.0
H1036 H 0.39753 0.68114 0.18389 0.0
H1037 H 0.3882 0.71874 0.16898 0.0
H1038 H 0.3698 0.70936 0.15737 0.0
H1039 H 0.37876 0.6718 0.17245 0.0
C1040 C 0.32353 0.34066 0.13496 0.0
C1041 C 0.3315 0.33127 0.12973 0.0
C1042 C 0.31688 0.32873 0.11144 0.0
C1043 C 0.32818 0.32533 0.11806 0.0
C1044 C 0.30874 0.33784 0.11696 0.0
C1045 C 0.31206 0.34377 0.1286 0.0
U1046 U 0.34454 0.34557 0.16509 0.0
O1047 O 0.35284 0.36342 0.17314 0.0
O1048 O 0.33892 0.35186 0.18451 0.0
C1049 C 0.34579 0.36262 0.18367 0.0
C1050 C 0.32716 0.34763 0.14677 0.0
C1051 C 0.33916 0.37444 0.18727 0.0
C1052 C 0.32544 0.39243 0.18199 0.0
C1053 C 0.33094 0.38072 0.17862 0.0
C1054 C 0.33599 0.39144 0.20283 0.0
C1055 C 0.32812 0.39803 0.19405 0.0
C1056 C 0.34149 0.37977 0.19945 0.0
C1057 C 0.37178 0.32242 0.17322 0.0
C1058 C 0.39262 0.32628 0.18357 0.0
C1059 C 0.38184 0.30547 0.18577 0.0
C1060 C 0.37163 0.30981 0.17817 0.0
C1061 C 0.39253 0.31361 0.18844 0.0
C1062 C 0.38236 0.33066 0.17605 0.0
C1063 C 0.36094 0.32666 0.16503 0.0
O1064 O 0.32494 0.34147 0.15769 0.0
O1065 O 0.33846 0.35364 0.14646 0.0
O1066 O 0.36276 0.33743 0.15846 0.0
O1067 O 0.34938 0.32562 0.17023 0.0
H1068 H 0.34038 0.32872 0.13455 0.0
H1069 H 0.33463 0.31834 0.11403 0.0
H1070 H 0.29985 0.34046 0.11222 0.0
H1071 H 0.30575 0.35094 0.13254 0.0
H1072 H 0.3194 0.3973 0.17505 0.0
H1073 H 0.32901 0.3767 0.16918 0.0
H1074 H 0.33801 0.39539 0.21227 0.0
H1075 H 0.34774 0.37501 0.20628 0.0
H1076 H 0.4007 0.33279 0.18548 0.0
H1077 H 0.38128 0.29578 0.18968 0.0
H1078 H 0.36357 0.3033 0.17618 0.0
H1079 H 0.38275 0.34046 0.17243 0.0
C1080 C 0.62998 0.32161 0.16629 0.0
C1081 C 0.62883 0.32494 0.17933 0.0
C1082 C 0.6093 0.31157 0.18123 0.0
C1083 C 0.61862 0.31991 0.18675 0.0
C1084 C 0.61034 0.30853 0.16807 0.0
C1085 C 0.6206 0.31351 0.16067 0.0
U1086 U 0.65869 0.34453 0.16127 0.0
O1087 O 0.67865 0.3405 0.15563 0.0
O1088 O 0.66694 0.35324 0.14362 0.0
C1089 C 0.67768 0.34678 0.14464 0.0
C1090 C 0.64118 0.32608 0.15864 0.0
C1091 C 0.68162 0.33951 0.1332 0.0
C1092 C 0.67639 0.3264 0.1145 0.0
C1093 C 0.67244 0.33397 0.12481 0.0
C1094 C 0.69872 0.32983 0.12079 0.0
C1095 C 0.68957 0.32404 0.11252 0.0
C1096 C 0.69478 0.33749 0.13103 0.0
C1097 C 0.6646 0.37079 0.18683 0.0
C1098 C 0.67676 0.39104 0.18506 0.0
C1099 C 0.67181 0.38193 0.20611 0.0
C1100 C 0.66545 0.37151 0.20029 0.0
C1101 C 0.67743 0.39186 0.19858 0.0
C1102 C 0.67042 0.38055 0.17921 0.0
C1103 C 0.65728 0.35992 0.18114 0.0
O1104 O 0.64018 0.33747 0.15317 0.0
O1105 O 0.65246 0.32438 0.16413 0.0
O1106 O 0.66291 0.34872 0.18164 0.0
O1107 O 0.65143 0.36212 0.17011 0.0
H1108 H 0.63601 0.33118 0.18383 0.0
H1109 H 0.61827 0.32221 0.19692 0.0
H1110 H 0.60328 0.30217 0.16354 0.0
H1111 H 0.62133 0.31086 0.15061 0.0
H1112 H 0.66912 0.32232 0.10812 0.0
H1113 H 0.66222 0.33535 0.12633 0.0
H1114 H 0.70893 0.32815 0.11956 0.0
H1115 H 0.702 0.34163 0.13743 0.0
H1116 H 0.68087 0.39864 0.17903 0.0
H1117 H 0.67229 0.38224 0.21654 0.0
H1118 H 0.66107 0.36406 0.20632 0.0
H1119 H 0.6699 0.38017 0.16879 0.0
C1120 C 0.63231 0.32591 0.83982 0.0
C1121 C 0.62207 0.33417 0.83704 0.0
C1122 C 0.61155 0.31755 0.82404 0.0
C1123 C 0.6118 0.33001 0.82924 0.0
C1124 C 0.62183 0.30934 0.82678 0.0
C1125 C 0.63204 0.31345 0.83467 0.0
U1126 U 0.66108 0.34847 0.84698 0.0
O1127 O 0.66815 0.35662 0.86523 0.0
O1128 O 0.68052 0.34397 0.85404 0.0
C1129 C 0.67896 0.35023 0.86487 0.0
C1130 C 0.64336 0.33004 0.84795 0.0
C1131 C 0.68214 0.34308 0.87669 0.0
C1132 C 0.67642 0.32766 0.89359 0.0
C1133 C 0.67334 0.33413 0.88214 0.0
C1134 C 0.69719 0.33886 0.89409 0.0
C1135 C 0.68837 0.32998 0.8997 0.0
C1136 C 0.69409 0.34534 0.88268 0.0
C1137 C 0.66924 0.3762 0.82379 0.0
C1138 C 0.68318 0.39458 0.82894 0.0
C1139 C 0.67905 0.3891 0.80662 0.0
C1140 C 0.67111 0.37877 0.81063 0.0
C1141 C 0.68526 0.39706 0.81573 0.0
C1142 C 0.67532 0.38418 0.83294 0.0
C1143 C 0.66113 0.36504 0.82775 0.0
O1144 O 0.65484 0.32853 0.84284 0.0
O1145 O 0.64231 0.34104 0.85404 0.0
O1146 O 0.65424 0.36644 0.83828 0.0
O1147 O 0.66674 0.35383 0.82715 0.0
H1148 H 0.622 0.34385 0.84084 0.0
H1149 H 0.60402 0.33655 0.82729 0.0
H1150 H 0.62211 0.29981 0.82264 0.0
H1151 H 0.63982 0.30692 0.83663 0.0
H1152 H 0.66932 0.32109 0.89782 0.0
H1153 H 0.66405 0.33228 0.87763 0.0
H1154 H 0.70648 0.34081 0.89856 0.0
H1155 H 0.701 0.3522 0.87857 0.0
H1156 H 0.6876 0.4007 0.83619 0.0
H1157 H 0.68051 0.39072 0.79639 0.0
H1158 H 0.66652 0.3727 0.80343 0.0
H1159 H 0.67403 0.38236 0.84316 0.0
C1160 C 0.63337 0.66842 0.82565 0.0
C1161 C 0.62857 0.67817 0.8335 0.0
C1162 C 0.61 0.68034 0.81924 0.0
C1163 C 0.61697 0.68412 0.83028 0.0
C1164 C 0.61505 0.67078 0.81128 0.0
C1165 C 0.62661 0.66486 0.81448 0.0
U1166 U 0.66337 0.66254 0.84672 0.0
O1167 O 0.67175 0.64417 0.85271 0.0
O1168 O 0.68301 0.65767 0.84056 0.0
C1169 C 0.68222 0.64608 0.84572 0.0
C1170 C 0.64525 0.66164 0.82897 0.0
C1171 C 0.68611 0.63541 0.83729 0.0
C1172 C 0.68171 0.61501 0.82653 0.0
C1173 C 0.67761 0.62512 0.83428 0.0
C1174 C 0.70277 0.62541 0.82448 0.0
C1175 C 0.69437 0.61499 0.82162 0.0
C1176 C 0.6987 0.63545 0.8323 0.0
C1177 C 0.67133 0.68312 0.87633 0.0
C1178 C 0.683 0.67735 0.89587 0.0
C1179 C 0.6835 0.69944 0.88825 0.0
C1180 C 0.67554 0.69595 0.87789 0.0
C1181 C 0.68741 0.69017 0.89731 0.0
C1182 C 0.67511 0.67383 0.88544 0.0
C1183 C 0.66304 0.6797 0.86518 0.0
O1184 O 0.6561 0.66831 0.82763 0.0
O1185 O 0.64481 0.6547 0.83962 0.0
O1186 O 0.6567 0.66859 0.86584 0.0
O1187 O 0.6681 0.68205 0.85376 0.0
H1188 H 0.63371 0.68106 0.84215 0.0
H1189 H 0.61329 0.69147 0.83658 0.0
H1190 H 0.61003 0.66785 0.80258 0.0
H1191 H 0.63023 0.6574 0.80828 0.0
H1192 H 0.67501 0.60714 0.82446 0.0
H1193 H 0.66781 0.62484 0.83793 0.0
H1194 H 0.71245 0.6259 0.82054 0.0
H1195 H 0.70541 0.6433 0.83443 0.0
H1196 H 0.68558 0.67003 0.90283 0.0
H1197 H 0.68678 0.70938 0.88905 0.0
H1198 H 0.67272 0.70328 0.87102 0.0
H1199 H 0.672 0.66386 0.88454 0.0
C1200 C 0.32183 0.63408 0.84034 0.0
C1201 C 0.32658 0.63184 0.8279 0.0
C1202 C 0.31176 0.61347 0.82562 0.0
C1203 C 0.32159 0.62161 0.82059 0.0
C1204 C 0.30735 0.61551 0.83826 0.0
C1205 C 0.31231 0.62577 0.84553 0.0
U1206 U 0.3462 0.66141 0.84644 0.0
O1207 O 0.34306 0.6816 0.85164 0.0
O1208 O 0.354 0.66908 0.86462 0.0
C1209 C 0.34893 0.68044 0.86282 0.0
C1210 C 0.32643 0.64522 0.84786 0.0
C1211 C 0.34232 0.68598 0.87395 0.0
C1212 C 0.32659 0.68487 0.89138 0.0
C1213 C 0.33242 0.67929 0.88061 0.0
C1214 C 0.3404 0.70384 0.88869 0.0
C1215 C 0.33068 0.69714 0.89562 0.0
C1216 C 0.34618 0.69829 0.878 0.0
C1217 C 0.37563 0.66653 0.82511 0.0
C1218 C 0.38781 0.68679 0.82399 0.0
C1219 C 0.39803 0.66693 0.81809 0.0
C1220 C 0.38652 0.66009 0.82071 0.0
C1221 C 0.39885 0.68034 0.81984 0.0
C1222 C 0.37636 0.67994 0.82672 0.0
C1223 C 0.36377 0.65912 0.82844 0.0
O1224 O 0.3372 0.64361 0.85432 0.0
O1225 O 0.32602 0.65639 0.84184 0.0
O1226 O 0.35284 0.66507 0.82659 0.0
O1227 O 0.36415 0.65284 0.83948 0.0
H1228 H 0.33399 0.63814 0.82376 0.0
H1229 H 0.32517 0.62026 0.81089 0.0
H1230 H 0.3 0.60922 0.84249 0.0
H1231 H 0.30861 0.6273 0.85516 0.0
H1232 H 0.31906 0.67954 0.89649 0.0
H1233 H 0.32926 0.66979 0.87754 0.0
H1234 H 0.34349 0.71345 0.89149 0.0
H1235 H 0.35373 0.70363 0.8729 0.0
H1236 H 0.38803 0.69714 0.82514 0.0
H1237 H 0.40637 0.66168 0.81496 0.0
H1238 H 0.38617 0.64974 0.81947 0.0
H1239 H 0.36809 0.68513 0.83016 0.0
C1240 C 0.34242 0.3747 0.82178 0.0
C1241 C 0.32971 0.37657 0.82593 0.0
C1242 C 0.32781 0.39471 0.81106 0.0
C1243 C 0.32245 0.38653 0.82062 0.0
C1244 C 0.34071 0.39307 0.80731 0.0
C1245 C 0.34793 0.38312 0.8126 0.0
U1246 U 0.34883 0.3471 0.84563 0.0
O1247 O 0.3545 0.32728 0.84176 0.0
O1248 O 0.36742 0.34003 0.85287 0.0
C1249 C 0.3659 0.32884 0.84716 0.0
C1250 C 0.34994 0.36376 0.82646 0.0
C1251 C 0.37687 0.32449 0.83944 0.0
C1252 C 0.38813 0.32298 0.81895 0.0
C1253 C 0.37834 0.32821 0.82646 0.0
C1254 C 0.39538 0.31071 0.83744 0.0
C1255 C 0.39656 0.31394 0.8243 0.0
C1256 C 0.38558 0.31591 0.84493 0.0
C1257 C 0.32649 0.34029 0.87443 0.0
C1258 C 0.33117 0.33003 0.89506 0.0
C1259 C 0.30975 0.32801 0.88586 0.0
C1260 C 0.31374 0.33552 0.87528 0.0
C1261 C 0.31838 0.32526 0.89593 0.0
C1262 C 0.33521 0.33745 0.88441 0.0
C1263 C 0.33045 0.34802 0.863 0.0
O1264 O 0.35613 0.36548 0.8374 0.0
O1265 O 0.34415 0.3524 0.82565 0.0
O1266 O 0.32897 0.34225 0.85184 0.0
O1267 O 0.34135 0.3547 0.86386 0.0
H1268 H 0.32532 0.37019 0.83307 0.0
H1269 H 0.31254 0.38759 0.8237 0.0
H1270 H 0.34518 0.3994 0.80018 0.0
H1271 H 0.35776 0.38187 0.80935 0.0
H1272 H 0.38883 0.32566 0.80885 0.0
H1273 H 0.37172 0.33488 0.82207 0.0
H1274 H 0.40191 0.30399 0.84189 0.0
H1275 H 0.38463 0.31299 0.85495 0.0
H1276 H 0.33806 0.32805 0.90265 0.0
H1277 H 0.29994 0.32417 0.88602 0.0
H1278 H 0.30687 0.33749 0.86767 0.0
H1279 H 0.34514 0.34092 0.884 0.0
C1280 C 0.31984 0.30473 0.05421 0.0
C1281 C 0.30662 0.30653 0.06048 0.0
C1282 C 0.29333 0.28951 0.05114 0.0
C1283 C 0.28362 0.29629 0.04478 0.0
C1284 C 0.27726 0.29104 0.03401 0.0
C1285 C 0.28076 0.27878 0.02945 0.0
C1286 C 0.29028 0.27175 0.03613 0.0
C1287 C 0.2963 0.27715 0.04704 0.0
C1288 C 0.26696 0.2987 0.02736 0.0
C1289 C 0.29433 0.2587 0.03154 0.0
C1290 C 0.29294 0.27979 0.93067 0.0
C1291 C 0.30152 0.28995 0.93737 0.0
C1292 C 0.29065 0.29033 0.95855 0.0
C1293 C 0.29535 0.27864 0.96338 0.0
C1294 C 0.29054 0.27329 0.97496 0.0
C1295 C 0.28075 0.27966 0.98178 0.0
C1296 C 0.27615 0.29151 0.97703 0.0
C1297 C 0.28126 0.29674 0.96554 0.0
C1298 C 0.29586 0.26076 0.97988 0.0
C1299 C 0.26574 0.29862 0.98403 0.0
C1300 C 0.22093 0.21989 0.9575 0.0
C1301 C 0.23126 0.21426 0.96417 0.0
C1302 C 0.23578 0.21941 0.97587 0.0
C1303 C 0.22987 0.23037 0.98107 0.0
C1304 C 0.21935 0.23592 0.97452 0.0
C1305 C 0.21503 0.23059 0.96283 0.0
C1306 C 0.24698 0.21321 0.98265 0.0
C1307 C 0.21279 0.24756 0.97983 0.0
C1308 C 0.20569 0.23759 0.07701 0.0
C1309 C 0.19985 0.22581 0.07008 0.0
C1310 C 0.2147 0.22388 0.05166 0.0
C1311 C 0.2251 0.21708 0.04676 0.0
C1312 C 0.23142 0.22105 0.03536 0.0
C1313 C 0.22721 0.23211 0.02868 0.0
C1314 C 0.21657 0.23893 0.03343 0.0
C1315 C 0.21042 0.23476 0.04483 0.0
C1316 C 0.24269 0.21351 0.0305 0.0
C1317 C 0.21175 0.25071 0.02648 0.0
C1318 C 0.27499 0.27364 0.01733 0.0
C1319 C 0.28007 0.27825 0.00562 0.0
C1320 C 0.27521 0.27391 0.99381 0.0
C1321 C 0.26512 0.2645 0.99358 0.0
C1322 C 0.26012 0.25976 0.98188 0.0
C1323 C 0.25028 0.25042 0.98174 0.0
C1324 C 0.24489 0.24559 0.9933 0.0
C1325 C 0.23486 0.23612 0.99324 0.0
C1326 C 0.22947 0.2318 0.00491 0.0
C1327 C 0.23389 0.23662 0.01672 0.0
C1328 C 0.24414 0.24587 0.01698 0.0
C1329 C 0.24898 0.25077 0.02868 0.0
C1330 C 0.25906 0.25987 0.02883 0.0
C1331 C 0.26469 0.26445 0.01728 0.0
C1332 C 0.25984 0.25977 0.00536 0.0
C1333 C 0.24963 0.25039 0.00521 0.0
C1334 C 0.23384 0.21031 0.93172 0.0
C1335 C 0.22143 0.20564 0.93855 0.0
O1336 O 0.30003 0.29476 0.06115 0.0
O1337 O 0.20923 0.21969 0.06295 0.0
O1338 O 0.21644 0.21545 0.94594 0.0
O1339 O 0.29479 0.29577 0.94724 0.0
H1340 H 0.30116 0.31334 0.05434 0.0
H1341 H 0.31858 0.30102 0.04426 0.0
H1342 H 0.3256 0.29775 0.05985 0.0
H1343 H 0.32525 0.31407 0.05363 0.0
H1344 H 0.28102 0.3057 0.04824 0.0
H1345 H 0.30372 0.27194 0.05212 0.0
H1346 H 0.27071 0.30228 0.01794 0.0
H1347 H 0.26401 0.3071 0.03314 0.0
H1348 H 0.25831 0.2925 0.02542 0.0
H1349 H 0.30239 0.25481 0.03735 0.0
H1350 H 0.29739 0.25932 0.02128 0.0
H1351 H 0.28601 0.25181 0.0321 0.0
H1352 H 0.31018 0.28525 0.94144 0.0
H1353 H 0.29825 0.27536 0.92259 0.0
H1354 H 0.28404 0.28421 0.92682 0.0
H1355 H 0.29006 0.27199 0.93753 0.0
H1356 H 0.30275 0.27362 0.95821 0.0
H1357 H 0.27775 0.30579 0.96181 0.0
H1358 H 0.299 0.26182 0.99007 0.0
H1359 H 0.30416 0.25752 0.97405 0.0
H1360 H 0.28815 0.25317 0.97964 0.0
H1361 H 0.26255 0.30724 0.97859 0.0
H1362 H 0.26944 0.30176 0.99358 0.0
H1363 H 0.25726 0.29211 0.98575 0.0
H1364 H 0.22364 0.19733 0.94492 0.0
H1365 H 0.23593 0.20592 0.96034 0.0
H1366 H 0.20705 0.23486 0.95769 0.0
H1367 H 0.25515 0.22026 0.9834 0.0
H1368 H 0.25036 0.20455 0.97753 0.0
H1369 H 0.24411 0.21038 0.99261 0.0
H1370 H 0.20469 0.25073 0.97361 0.0
H1371 H 0.21991 0.25565 0.98075 0.0
H1372 H 0.20898 0.24535 0.98963 0.0
H1373 H 0.19208 0.22904 0.06349 0.0
H1374 H 0.1982 0.24229 0.08289 0.0
H1375 H 0.2095 0.24479 0.06995 0.0
H1376 H 0.21376 0.23475 0.08342 0.0
H1377 H 0.22834 0.20867 0.05199 0.0
H1378 H 0.20234 0.24014 0.04831 0.0
H1379 H 0.25143 0.21988 0.02994 0.0
H1380 H 0.24061 0.21001 0.02061 0.0
H1381 H 0.24482 0.20512 0.0368 0.0
H1382 H 0.20324 0.25488 0.0313 0.0
H1383 H 0.20907 0.2482 0.01643 0.0
H1384 H 0.21958 0.25818 0.02599 0.0
H1385 H 0.28787 0.28539 0.00572 0.0
H1386 H 0.26382 0.26317 0.97267 0.0
H1387 H 0.2469 0.24709 0.97244 0.0
H1388 H 0.22167 0.22466 0.00479 0.0
H1389 H 0.24505 0.24759 0.03787 0.0
H1390 H 0.26239 0.26329 0.03812 0.0
H1391 H 0.23773 0.2025 0.92568 0.0
H1392 H 0.24137 0.21312 0.93884 0.0
H1393 H 0.23192 0.2188 0.92548 0.0
C1394 C 0.68578 0.30531 0.9572 0.0
C1395 C 0.6988 0.30693 0.95031 0.0
C1396 C 0.71194 0.29024 0.95964 0.0
C1397 C 0.72235 0.2972 0.96501 0.0
C1398 C 0.72925 0.2922 0.9755 0.0
C1399 C 0.72557 0.28006 0.98077 0.0
C1400 C 0.71527 0.27288 0.97513 0.0
C1401 C 0.70872 0.27801 0.96447 0.0
C1402 C 0.74036 0.29999 0.98106 0.0
C1403 C 0.71099 0.25996 0.98055 0.0
C1404 C 0.71829 0.28025 0.08029 0.0
C1405 C 0.7087 0.28888 0.07324 0.0
C1406 C 0.71896 0.29048 0.05181 0.0
C1407 C 0.71522 0.27812 0.04751 0.0
C1408 C 0.71981 0.27337 0.03577 0.0
C1409 C 0.72852 0.28099 0.02828 0.0
C1410 C 0.73222 0.29345 0.03252 0.0
C1411 C 0.72728 0.29806 0.04417 0.0
C1412 C 0.71536 0.26016 0.0314 0.0
C1413 C 0.74145 0.30187 0.02478 0.0
C1414 C 0.7914 0.22439 0.04895 0.0
C1415 C 0.77897 0.22008 0.04565 0.0
C1416 C 0.77293 0.22466 0.03443 0.0
C1417 C 0.77943 0.23397 0.02658 0.0
C1418 C 0.79205 0.23829 0.02995 0.0
C1419 C 0.79796 0.23328 0.04103 0.0
C1420 C 0.75966 0.2195 0.03095 0.0
C1421 C 0.79928 0.24821 0.02187 0.0
C1422 C 0.77796 0.22567 0.92642 0.0
C1423 C 0.79099 0.22331 0.93292 0.0
C1424 C 0.78514 0.22221 0.95576 0.0
C1425 C 0.77618 0.21537 0.96336 0.0
C1426 C 0.77155 0.22051 0.97491 0.0
C1427 C 0.77628 0.23267 0.97908 0.0
C1428 C 0.78572 0.23943 0.97166 0.0
C1429 C 0.79002 0.23416 0.96004 0.0
C1430 C 0.76153 0.213 0.9826 0.0
C1431 C 0.79132 0.2522 0.97607 0.0
C1432 C 0.73208 0.27519 0.99257 0.0
C1433 C 0.728 0.27989 0.00447 0.0
C1434 C 0.7337 0.27591 0.016 0.0
C1435 C 0.74383 0.267 0.01574 0.0
C1436 C 0.75003 0.26303 0.02712 0.0
C1437 C 0.75972 0.25397 0.02681 0.0
C1438 C 0.76358 0.2485 0.0151 0.0
C1439 C 0.77316 0.239 0.01472 0.0
C1440 C 0.77699 0.23403 0.00286 0.0
C1441 C 0.7715 0.23823 0.99129 0.0
C1442 C 0.76174 0.24755 0.9915 0.0
C1443 C 0.75589 0.25188 0.98006 0.0
C1444 C 0.74629 0.26104 0.98036 0.0
C1445 C 0.74203 0.26609 0.99213 0.0
C1446 C 0.74787 0.26193 0.00377 0.0
C1447 C 0.75775 0.25266 0.00345 0.0
C1448 C 0.80295 0.23692 0.07407 0.0
C1449 C 0.79482 0.22462 0.07191 0.0
O1450 O 0.70486 0.29517 0.94984 0.0
O1451 O 0.78907 0.21685 0.94455 0.0
O1452 O 0.79721 0.21986 0.05971 0.0
O1453 O 0.71487 0.29544 0.0632 0.0
H1454 H 0.70477 0.31394 0.95594 0.0
H1455 H 0.68731 0.30193 0.96726 0.0
H1456 H 0.67948 0.29815 0.95217 0.0
H1457 H 0.68079 0.31467 0.95755 0.0
H1458 H 0.7251 0.3065 0.96096 0.0
H1459 H 0.70074 0.27268 0.96013 0.0
H1460 H 0.73767 0.30344 0.99078 0.0
H1461 H 0.74299 0.30848 0.97495 0.0
H1462 H 0.74897 0.29389 0.9822 0.0
H1463 H 0.70231 0.25598 0.97555 0.0
H1464 H 0.7088 0.26083 0.99099 0.0
H1465 H 0.71892 0.25302 0.97959 0.0
H1466 H 0.70061 0.2829 0.06932 0.0
H1467 H 0.71345 0.27502 0.0884 0.0
H1468 H 0.7265 0.28612 0.08417 0.0
H1469 H 0.72219 0.27298 0.07364 0.0
H1470 H 0.70872 0.2721 0.05319 0.0
H1471 H 0.73006 0.30759 0.0475 0.0
H1472 H 0.7121 0.26054 0.0212 0.0
H1473 H 0.70734 0.25616 0.03743 0.0
H1474 H 0.72355 0.25347 0.03194 0.0
H1475 H 0.74446 0.31071 0.03006 0.0
H1476 H 0.73673 0.30478 0.01563 0.0
H1477 H 0.75019 0.29643 0.02225 0.0
H1478 H 0.78441 0.22701 0.07269 0.0
H1479 H 0.77408 0.21307 0.05182 0.0
H1480 H 0.80765 0.23642 0.04367 0.0
H1481 H 0.7525 0.22719 0.03215 0.0
H1482 H 0.75666 0.21116 0.0371 0.0
H1483 H 0.75941 0.21651 0.02069 0.0
H1484 H 0.80834 0.25164 0.0266 0.0
H1485 H 0.79309 0.25661 0.01996 0.0
H1486 H 0.80178 0.24397 0.01243 0.0
H1487 H 0.79576 0.23283 0.93457 0.0
H1488 H 0.77942 0.23069 0.91701 0.0
H1489 H 0.77199 0.23185 0.93264 0.0
H1490 H 0.77261 0.21643 0.92479 0.0
H1491 H 0.77263 0.20607 0.96007 0.0
H1492 H 0.79739 0.23928 0.95454 0.0
H1493 H 0.75308 0.21911 0.9845 0.0
H1494 H 0.76566 0.21023 0.99208 0.0
H1495 H 0.75816 0.20413 0.97759 0.0
H1496 H 0.79931 0.25576 0.96975 0.0
H1497 H 0.79501 0.25132 0.98609 0.0
H1498 H 0.78364 0.25948 0.9761 0.0
H1499 H 0.72022 0.28671 0.00475 0.0
H1500 H 0.74742 0.26686 0.03642 0.0
H1501 H 0.76411 0.25127 0.03588 0.0
H1502 H 0.78439 0.2268 0.00262 0.0
H1503 H 0.75865 0.24822 0.97074 0.0
H1504 H 0.74216 0.26404 0.97126 0.0
H1505 H 0.81339 0.23498 0.07283 0.0
H1506 H 0.80016 0.24448 0.06704 0.0
H1507 H 0.80135 0.24072 0.08392 0.0
C1508 C 0.80329 0.82096 0.0528 0.0
C1509 C 0.79663 0.81243 0.06308 0.0
C1510 C 0.7923 0.79296 0.05026 0.0
C1511 C 0.78157 0.79766 0.04348 0.0
C1512 C 0.77629 0.79094 0.03297 0.0
C1513 C 0.78188 0.77933 0.02898 0.0
C1514 C 0.79247 0.77439 0.03592 0.0
C1515 C 0.79745 0.78122 0.04656 0.0
C1516 C 0.76483 0.79639 0.02595 0.0
C1517 C 0.79866 0.76203 0.03194 0.0
C1518 C 0.7937 0.77545 0.93002 0.0
C1519 C 0.80229 0.78594 0.9362 0.0
C1520 C 0.79177 0.78727 0.95749 0.0
C1521 C 0.79649 0.77575 0.9627 0.0
C1522 C 0.79194 0.77093 0.97459 0.0
C1523 C 0.78237 0.77767 0.98135 0.0
C1524 C 0.77777 0.78938 0.97625 0.0
C1525 C 0.78263 0.79407 0.96444 0.0
C1526 C 0.79725 0.75855 0.97988 0.0
C1527 C 0.76764 0.7969 0.9832 0.0
C1528 C 0.72174 0.71816 0.95931 0.0
C1529 C 0.73335 0.71354 0.96447 0.0
C1530 C 0.73836 0.71837 0.97611 0.0
C1531 C 0.73176 0.72816 0.98266 0.0
C1532 C 0.71998 0.73267 0.97762 0.0
C1533 C 0.71509 0.72752 0.96607 0.0
C1534 C 0.75079 0.7131 0.98135 0.0
C1535 C 0.71266 0.74307 0.98435 0.0
C1536 C 0.7195 0.73045 0.08174 0.0
C1537 C 0.71054 0.72074 0.07487 0.0
C1538 C 0.72169 0.7193 0.05392 0.0
C1539 C 0.73073 0.71227 0.04709 0.0
C1540 C 0.73602 0.71694 0.03544 0.0
C1541 C 0.73194 0.72887 0.03038 0.0
C1542 C 0.72249 0.73588 0.03704 0.0
C1543 C 0.71755 0.7311 0.04879 0.0
C1544 C 0.74605 0.70919 0.02861 0.0
C1545 C 0.71765 0.74846 0.03176 0.0
C1546 C 0.77702 0.77281 0.01714 0.0
C1547 C 0.78181 0.77723 0.00524 0.0
C1548 C 0.77697 0.77235 0.99363 0.0
C1549 C 0.76703 0.76278 0.9938 0.0
C1550 C 0.76166 0.75795 0.98231 0.0
C1551 C 0.75191 0.74852 0.98256 0.0
C1552 C 0.74715 0.74351 0.99431 0.0
C1553 C 0.73732 0.73382 0.99464 0.0
C1554 C 0.73265 0.72926 0.00652 0.0
C1555 C 0.73757 0.73404 0.01815 0.0
C1556 C 0.74752 0.74361 0.018 0.0
C1557 C 0.75278 0.74858 0.0295 0.0
C1558 C 0.7624 0.75817 0.02926 0.0
C1559 C 0.76729 0.76301 0.0175 0.0
C1560 C 0.76226 0.75802 0.00578 0.0
C1561 C 0.75232 0.74836 0.00603 0.0
C1562 C 0.73318 0.71532 0.93165 0.0
C1563 C 0.72284 0.70692 0.93846 0.0
O1564 O 0.79804 0.79949 0.06019 0.0
O1565 O 0.71731 0.71437 0.06538 0.0
O1566 O 0.71669 0.714 0.94788 0.0
O1567 O 0.79563 0.79216 0.94586 0.0
H1568 H 0.78619 0.81465 0.06332 0.0
H1569 H 0.79876 0.8194 0.04322 0.0
H1570 H 0.8137 0.81871 0.05207 0.0
H1571 H 0.80236 0.83129 0.05525 0.0
H1572 H 0.77726 0.80661 0.04621 0.0
H1573 H 0.80564 0.77757 0.05184 0.0
H1574 H 0.76781 0.79946 0.01611 0.0
H1575 H 0.76079 0.80481 0.03098 0.0
H1576 H 0.7571 0.78888 0.02495 0.0
H1577 H 0.80685 0.75946 0.03831 0.0
H1578 H 0.80224 0.76296 0.02187 0.0
H1579 H 0.79136 0.75404 0.03215 0.0
H1580 H 0.81101 0.78147 0.94038 0.0
H1581 H 0.79095 0.76793 0.93722 0.0
H1582 H 0.79896 0.77071 0.92208 0.0
H1583 H 0.78473 0.77964 0.92608 0.0
H1584 H 0.80371 0.77043 0.95757 0.0
H1585 H 0.77912 0.803 0.96042 0.0
H1586 H 0.80042 0.75989 0.99002 0.0
H1587 H 0.80554 0.75513 0.97413 0.0
H1588 H 0.78954 0.75095 0.97986 0.0
H1589 H 0.76414 0.80511 0.97734 0.0
H1590 H 0.77178 0.80073 0.99231 0.0
H1591 H 0.75928 0.79051 0.98577 0.0
H1592 H 0.72742 0.69847 0.94304 0.0
H1593 H 0.7386 0.70619 0.95951 0.0
H1594 H 0.70612 0.731 0.9621 0.0
H1595 H 0.75849 0.72069 0.98085 0.0
H1596 H 0.75403 0.7046 0.97588 0.0
H1597 H 0.74956 0.7103 0.99165 0.0
H1598 H 0.704 0.74602 0.97884 0.0
H1599 H 0.71907 0.75165 0.98581 0.0
H1600 H 0.70953 0.73957 0.99403 0.0
H1601 H 0.70234 0.72585 0.07039 0.0
H1602 H 0.71418 0.73553 0.08941 0.0
H1603 H 0.72329 0.73781 0.07482 0.0
H1604 H 0.72782 0.72547 0.08616 0.0
H1605 H 0.73383 0.70316 0.05105 0.0
H1606 H 0.71048 0.73666 0.05383 0.0
H1607 H 0.7548 0.71528 0.02668 0.0
H1608 H 0.74219 0.70594 0.01915 0.0
H1609 H 0.74889 0.70059 0.03428 0.0
H1610 H 0.70926 0.75199 0.03728 0.0
H1611 H 0.71478 0.74736 0.02149 0.0
H1612 H 0.72551 0.75588 0.03216 0.0
H1613 H 0.78926 0.78474 0.00503 0.0
H1614 H 0.76491 0.76142 0.97296 0.0
H1615 H 0.74814 0.7452 0.97339 0.0
H1616 H 0.72507 0.72188 0.0067 0.0
H1617 H 0.74947 0.74515 0.03885 0.0
H1618 H 0.766 0.76169 0.03841 0.0
H1619 H 0.73806 0.70975 0.92404 0.0
H1620 H 0.74066 0.71865 0.93861 0.0
H1621 H 0.72875 0.72391 0.92717 0.0
C1622 C 0.20941 0.77906 0.93005 0.0
C1623 C 0.20675 0.79194 0.9366 0.0
C1624 C 0.22211 0.7918 0.9548 0.0
C1625 C 0.23371 0.7971 0.95943 0.0
C1626 C 0.23918 0.79276 0.97102 0.0
C1627 C 0.23289 0.78278 0.97811 0.0
C1628 C 0.22107 0.77744 0.97358 0.0
C1629 C 0.21574 0.78206 0.96203 0.0
C1630 C 0.25174 0.79876 0.97564 0.0
C1631 C 0.2141 0.76678 0.98092 0.0
C1632 C 0.19938 0.8139 0.0486 0.0
C1633 C 0.20477 0.80512 0.05918 0.0
C1634 C 0.22297 0.79643 0.0471 0.0
C1635 C 0.21626 0.78637 0.04083 0.0
C1636 C 0.22171 0.78012 0.03025 0.0
C1637 C 0.23402 0.78416 0.02566 0.0
C1638 C 0.24092 0.79413 0.0321 0.0
C1639 C 0.23538 0.79997 0.04289 0.0
C1640 C 0.21416 0.76936 0.02381 0.0
C1641 C 0.254 0.79882 0.0274 0.0
C1642 C 0.29218 0.72515 0.0498 0.0
C1643 C 0.28033 0.72023 0.04524 0.0
C1644 C 0.27522 0.72452 0.03347 0.0
C1645 C 0.28207 0.73403 0.02619 0.0
C1646 C 0.29422 0.73871 0.03061 0.0
C1647 C 0.2992 0.73405 0.0423 0.0
C1648 C 0.26247 0.71897 0.02883 0.0
C1649 C 0.30186 0.74875 0.02307 0.0
C1650 C 0.30145 0.7389 0.92836 0.0
C1651 C 0.30743 0.72782 0.93605 0.0
C1652 C 0.29332 0.72602 0.95512 0.0
C1653 C 0.28341 0.71879 0.96106 0.0
C1654 C 0.2778 0.7228 0.97267 0.0
C1655 C 0.28228 0.73433 0.9785 0.0
C1656 C 0.29244 0.7416 0.97269 0.0
C1657 C 0.29781 0.73743 0.96107 0.0
C1658 C 0.26697 0.71484 0.97861 0.0
C1659 C 0.29757 0.75388 0.97872 0.0
C1660 C 0.2387 0.77782 0.99023 0.0
C1661 C 0.23455 0.78294 0.0019 0.0
C1662 C 0.23929 0.77846 0.0137 0.0
C1663 C 0.24851 0.7686 0.01391 0.0
C1664 C 0.25342 0.76377 0.02558 0.0
C1665 C 0.26261 0.75418 0.02567 0.0
C1666 C 0.26712 0.74892 0.01408 0.0
C1667 C 0.27647 0.73918 0.01406 0.0
C1668 C 0.28092 0.73438 0.00234 0.0
C1669 C 0.27626 0.73899 0.99056 0.0
C1670 C 0.26669 0.7485 0.99041 0.0
C1671 C 0.26157 0.75313 0.97874 0.0
C1672 C 0.25235 0.76266 0.97866 0.0
C1673 C 0.24796 0.76802 0.99023 0.0
C1674 C 0.25289 0.76341 0.00212 0.0
C1675 C 0.26221 0.75357 0.00221 0.0
C1676 C 0.29129 0.73482 0.07879 0.0
C1677 C 0.29043 0.72136 0.0729 0.0
O1678 O 0.21754 0.79631 0.94334 0.0
O1679 O 0.29814 0.72171 0.94372 0.0
O1680 O 0.29713 0.72136 0.06131 0.0
O1681 O 0.2178 0.80305 0.05707 0.0
H1682 H 0.1985 0.79061 0.94339 0.0
H1683 H 0.21152 0.77151 0.93732 0.0
H1684 H 0.21781 0.77998 0.92343 0.0
H1685 H 0.20081 0.77578 0.92445 0.0
H1686 H 0.23854 0.80465 0.95385 0.0
H1687 H 0.20667 0.77791 0.95875 0.0
H1688 H 0.25061 0.8023 0.98565 0.0
H1689 H 0.25507 0.80691 0.96938 0.0
H1690 H 0.25932 0.79138 0.97581 0.0
H1691 H 0.20542 0.76307 0.97571 0.0
H1692 H 0.21104 0.77041 0.99045 0.0
H1693 H 0.2207 0.75867 0.98267 0.0
H1694 H 0.19936 0.79576 0.05906 0.0
H1695 H 0.18901 0.81576 0.05042 0.0
H1696 H 0.20483 0.82323 0.04828 0.0
H1697 H 0.20014 0.80924 0.03904 0.0
H1698 H 0.20678 0.78328 0.0441 0.0
H1699 H 0.24053 0.80767 0.04783 0.0
H1700 H 0.22048 0.7611 0.02187 0.0
H1701 H 0.21041 0.77286 0.01443 0.0
H1702 H 0.20583 0.76592 0.02976 0.0
H1703 H 0.25772 0.80723 0.03295 0.0
H1704 H 0.25343 0.80157 0.01705 0.0
H1705 H 0.26102 0.79095 0.02826 0.0
H1706 H 0.28006 0.71896 0.07121 0.0
H1707 H 0.27513 0.71292 0.05079 0.0
H1708 H 0.30845 0.73762 0.04583 0.0
H1709 H 0.25507 0.72653 0.02907 0.0
H1710 H 0.25904 0.7107 0.03486 0.0
H1711 H 0.26334 0.71575 0.01868 0.0
H1712 H 0.31063 0.75215 0.02833 0.0
H1713 H 0.29574 0.75715 0.02093 0.0
H1714 H 0.30489 0.74465 0.01372 0.0
H1715 H 0.31516 0.73197 0.94226 0.0
H1716 H 0.30877 0.74342 0.92182 0.0
H1717 H 0.29797 0.74644 0.93495 0.0
H1718 H 0.29311 0.73538 0.92253 0.0
H1719 H 0.27998 0.71001 0.95649 0.0
H1720 H 0.30543 0.74325 0.95675 0.0
H1721 H 0.2583 0.72084 0.97975 0.0
H1722 H 0.26986 0.71154 0.98838 0.0
H1723 H 0.26433 0.70629 0.97272 0.0
H1724 H 0.30619 0.75789 0.97358 0.0
H1725 H 0.30018 0.75211 0.98895 0.0
H1726 H 0.28994 0.76121 0.97857 0.0
H1727 H 0.22743 0.79045 0.0018 0.0
H1728 H 0.25026 0.7674 0.03479 0.0
H1729 H 0.26613 0.75095 0.03495 0.0
H1730 H 0.28829 0.72711 0.00239 0.0
H1731 H 0.26462 0.74941 0.96953 0.0
H1732 H 0.24876 0.76584 0.96938 0.0
H1733 H 0.30153 0.73777 0.08047 0.0
H1734 H 0.28599 0.735 0.0881 0.0
H1735 H 0.28688 0.74192 0.07215 0.0
C1736 C 0.07576 0.30184 0.27631 0.0
C1737 C 0.0682 0.30488 0.2886 0.0
C1738 C 0.05004 0.28912 0.28798 0.0
C1739 C 0.04487 0.27787 0.2936 0.0
C1740 C 0.03338 0.27213 0.28896 0.0
C1741 C 0.02697 0.27777 0.27836 0.0
C1742 C 0.03208 0.28919 0.27265 0.0
C1743 C 0.04351 0.29479 0.27755 0.0
C1744 C 0.02814 0.25999 0.29531 0.0
C1745 C 0.02549 0.29545 0.26131 0.0
C1746 C 0.95533 0.3115 0.30747 0.0
C1747 C 0.94492 0.30556 0.29865 0.0
C1748 C 0.9575 0.28771 0.29009 0.0
C1749 C 0.96471 0.29485 0.28092 0.0
C1750 C 0.97549 0.28957 0.27488 0.0
C1751 C 0.9793 0.27697 0.27821 0.0
C1752 C 0.97192 0.26967 0.28728 0.0
C1753 C 0.96099 0.27508 0.29293 0.0
C1754 C 0.98296 0.29761 0.26513 0.0
C1755 C 0.97576 0.25628 0.29126 0.0
C1756 C 0.9561 0.22453 0.21304 0.0
C1757 C 0.96367 0.23511 0.20866 0.0
C1758 C 0.97534 0.2385 0.21475 0.0
C1759 C 0.97958 0.23119 0.22544 0.0
C1760 C 0.9722 0.22036 0.22968 0.0
C1761 C 0.96056 0.21716 0.22339 0.0
C1762 C 0.98307 0.25004 0.2099 0.0
C1763 C 0.9765 0.21233 0.24101 0.0
C1764 C 0.07651 0.21041 0.23643 0.0
C1765 C 0.06947 0.20271 0.22586 0.0
C1766 C 0.05018 0.2158 0.22253 0.0
C1767 C 0.04477 0.22535 0.21479 0.0
C1768 C 0.03329 0.23136 0.21837 0.0
C1769 C 0.02696 0.22755 0.22992 0.0
C1770 C 0.03216 0.21765 0.23764 0.0
C1771 C 0.04375 0.21196 0.23394 0.0
C1772 C 0.02801 0.24186 0.20989 0.0
C1773 C 0.02553 0.21311 0.24988 0.0
C1774 C 0.01489 0.2718 0.27319 0.0
C1775 C 0.00312 0.27617 0.27786 0.0
C1776 C 0.99136 0.27173 0.27274 0.0
C1777 C 0.9913 0.26269 0.26259 0.0
C1778 C 0.97972 0.25844 0.25677 0.0
C1779 C 0.97977 0.24947 0.24686 0.0
C1780 C 0.9914 0.24436 0.24241 0.0
C1781 C 0.99155 0.2352 0.23238 0.0
C1782 C 0.00325 0.23 0.22846 0.0
C1783 C 0.01495 0.23397 0.23406 0.0
C1784 C 0.01504 0.24354 0.24372 0.0
C1785 C 0.02667 0.24823 0.24912 0.0
C1786 C 0.02666 0.25753 0.25871 0.0
C1787 C 0.01501 0.2624 0.26339 0.0
C1788 C 0.00317 0.25786 0.25805 0.0
C1789 C 0.0032 0.24856 0.24806 0.0
C1790 C 0.93169 0.24006 0.2049 0.0
C1791 C 0.93755 0.22815 0.19869 0.0
O1792 O 0.06132 0.29405 0.29286 0.0
O1793 O 0.06157 0.21069 0.2187 0.0
O1794 O 0.94446 0.22119 0.20773 0.0
O1795 O 0.9473 0.29264 0.29654 0.0
H1796 H 0.06137 0.31273 0.28652 0.0
H1797 H 0.06912 0.29893 0.2684 0.0
H1798 H 0.08252 0.29386 0.27809 0.0
H1799 H 0.08138 0.31049 0.27302 0.0
H1800 H 0.04991 0.27356 0.30164 0.0
H1801 H 0.04724 0.30353 0.27307 0.0
H1802 H 0.01809 0.26148 0.29863 0.0
H1803 H 0.03408 0.25698 0.30369 0.0
H1804 H 0.02782 0.25206 0.28818 0.0
H1805 H 0.03092 0.30407 0.25766 0.0
H1806 H 0.01567 0.29838 0.26417 0.0
H1807 H 0.02439 0.28844 0.25333 0.0
H1808 H 0.94497 0.3108 0.28927 0.0
H1809 H 0.95325 0.32175 0.3094 0.0
H1810 H 0.96497 0.31116 0.30282 0.0
H1811 H 0.95573 0.30617 0.31679 0.0
H1812 H 0.96205 0.30456 0.27843 0.0
H1813 H 0.95534 0.26961 0.29994 0.0
H1814 H 0.99208 0.30117 0.2696 0.0
H1815 H 0.97746 0.30607 0.26179 0.0
H1816 H 0.9855 0.29175 0.25662 0.0
H1817 H 0.9698 0.25243 0.29938 0.0
H1818 H 0.98608 0.25629 0.29417 0.0
H1819 H 0.97461 0.24968 0.28295 0.0
H1820 H 0.94412 0.23133 0.19075 0.0
H1821 H 0.96055 0.24088 0.20058 0.0
H1822 H 0.95474 0.20898 0.22668 0.0
H1823 H 0.98366 0.25745 0.21755 0.0
H1824 H 0.97876 0.25442 0.20114 0.0
H1825 H 0.99308 0.24719 0.20764 0.0
H1826 H 0.96975 0.2041 0.24304 0.0
H1827 H 0.97721 0.21844 0.24974 0.0
H1828 H 0.98626 0.20856 0.23911 0.0
H1829 H 0.06347 0.19496 0.23047 0.0
H1830 H 0.08299 0.20405 0.242 0.0
H1831 H 0.06949 0.21451 0.24326 0.0
H1832 H 0.08234 0.21847 0.23215 0.0
H1833 H 0.04971 0.22825 0.20599 0.0
H1834 H 0.04764 0.20455 0.24009 0.0
H1835 H 0.02637 0.25063 0.21568 0.0
H1836 H 0.01854 0.23867 0.20588 0.0
H1837 H 0.03459 0.24441 0.20176 0.0
H1838 H 0.02989 0.20428 0.25393 0.0
H1839 H 0.01512 0.21113 0.24805 0.0
H1840 H 0.02626 0.2208 0.25723 0.0
H1841 H 0.00313 0.28329 0.28547 0.0
H1842 H 0.97048 0.26203 0.25981 0.0
H1843 H 0.97055 0.24655 0.24279 0.0
H1844 H 0.00324 0.2228 0.22094 0.0
H1845 H 0.03593 0.2448 0.24595 0.0
H1846 H 0.0359 0.26079 0.26248 0.0
H1847 H 0.93938 0.24669 0.20853 0.0
H1848 H 0.92591 0.24542 0.19768 0.0
H1849 H 0.92535 0.23724 0.21314 0.0
C1850 C 0.69882 0.05086 0.31303 0.0
C1851 C 0.71013 0.06039 0.31083 0.0
C1852 C 0.72049 0.05046 0.29241 0.0
C1853 C 0.73109 0.04472 0.29842 0.0
C1854 C 0.73717 0.0342 0.29278 0.0
C1855 C 0.73253 0.02928 0.28092 0.0
C1856 C 0.72215 0.03535 0.27461 0.0
C1857 C 0.71639 0.04601 0.28037 0.0
C1858 C 0.74843 0.02819 0.29963 0.0
C1859 C 0.71687 0.03032 0.26201 0.0
C1860 C 0.70846 0.95665 0.32378 0.0
C1861 C 0.70644 0.95057 0.3105 0.0
C1862 C 0.72294 0.96044 0.29687 0.0
C1863 C 0.7158 0.96603 0.2869 0.0
C1864 C 0.72078 0.97669 0.27996 0.0
C1865 C 0.73311 0.98189 0.28317 0.0
C1866 C 0.74044 0.97605 0.29307 0.0
C1867 C 0.73532 0.96523 0.29964 0.0
C1868 C 0.7128 0.98249 0.26931 0.0
C1869 C 0.75353 0.98143 0.29692 0.0
C1870 C 0.79141 0.95789 0.22301 0.0
C1871 C 0.77972 0.96252 0.21807 0.0
C1872 C 0.77465 0.97414 0.22247 0.0
C1873 C 0.78131 0.98122 0.23211 0.0
C1874 C 0.79314 0.97667 0.23699 0.0
C1875 C 0.79808 0.96513 0.23228 0.0
C1876 C 0.76215 0.97883 0.21685 0.0
C1877 C 0.80054 0.98395 0.24726 0.0
C1878 C 0.801 0.07869 0.23615 0.0
C1879 C 0.80739 0.07206 0.22467 0.0
C1880 C 0.7938 0.05239 0.22287 0.0
C1881 C 0.7836 0.04655 0.2161 0.0
C1882 C 0.77788 0.03488 0.22036 0.0
C1883 C 0.78258 0.02887 0.23166 0.0
C1884 C 0.79311 0.03452 0.23839 0.0
C1885 C 0.79861 0.0462 0.23395 0.0
C1886 C 0.76669 0.02907 0.21294 0.0
C1887 C 0.79845 0.02829 0.25041 0.0
C1888 C 0.73792 0.01724 0.27564 0.0
C1889 C 0.73342 0.00556 0.28091 0.0
C1890 C 0.73805 0.99379 0.27664 0.0
C1891 C 0.74733 0.99358 0.26665 0.0
C1892 C 0.75201 0.98192 0.26193 0.0
C1893 C 0.76136 0.98181 0.25228 0.0
C1894 C 0.76631 0.99337 0.24689 0.0
C1895 C 0.77589 0.99336 0.23714 0.0
C1896 C 0.78074 0.00506 0.23218 0.0
C1897 C 0.77632 0.01683 0.23668 0.0
C1898 C 0.76661 0.01702 0.24628 0.0
C1899 C 0.76186 0.02869 0.25096 0.0
C1900 C 0.75246 0.02879 0.26055 0.0
C1901 C 0.74743 0.01724 0.26584 0.0
C1902 C 0.75209 0.00536 0.26128 0.0
C1903 C 0.76163 0.00525 0.25143 0.0
C1904 C 0.78032 0.92981 0.22069 0.0
C1905 C 0.7906 0.93671 0.21234 0.0
O1906 O 0.71398 0.06019 0.298 0.0
O1907 O 0.79857 0.06396 0.21847 0.0
O1908 O 0.79661 0.94659 0.21921 0.0
O1909 O 0.71809 0.95041 0.30393 0.0
H1910 H 0.71821 0.05739 0.31715 0.0
H1911 H 0.70189 0.04091 0.31095 0.0
H1912 H 0.69058 0.05316 0.30662 0.0
H1913 H 0.69556 0.05116 0.32323 0.0
H1914 H 0.7347 0.04845 0.30747 0.0
H1915 H 0.70831 0.0506 0.27572 0.0
H1916 H 0.74547 0.0185 0.30329 0.0
H1917 H 0.75189 0.03406 0.30791 0.0
H1918 H 0.75656 0.02695 0.29281 0.0
H1919 H 0.70848 0.03586 0.25854 0.0
H1920 H 0.71385 0.02005 0.26314 0.0
H1921 H 0.72454 0.03082 0.25454 0.0
H1922 H 0.69941 0.95656 0.30516 0.0
H1923 H 0.6992 0.95674 0.32917 0.0
H1924 H 0.71565 0.95124 0.32949 0.0
H1925 H 0.71205 0.96675 0.32263 0.0
H1926 H 0.70636 0.96203 0.2845 0.0
H1927 H 0.74079 0.96072 0.30729 0.0
H1928 H 0.7096 0.99216 0.27227 0.0
H1929 H 0.70413 0.97646 0.267 0.0
H1930 H 0.71873 0.98376 0.26045 0.0
H1931 H 0.75749 0.97643 0.30552 0.0
H1932 H 0.75289 0.99186 0.29905 0.0
H1933 H 0.7604 0.98041 0.28881 0.0
H1934 H 0.78592 0.9408 0.20361 0.0
H1935 H 0.77447 0.95716 0.21078 0.0
H1936 H 0.80712 0.96156 0.236 0.0
H1937 H 0.75457 0.9786 0.22442 0.0
H1938 H 0.75874 0.97286 0.20863 0.0
H1939 H 0.76336 0.98897 0.21352 0.0
H1940 H 0.80902 0.97861 0.2508 0.0
H1941 H 0.79411 0.98592 0.25555 0.0
H1942 H 0.80397 0.99337 0.24328 0.0
H1943 H 0.81558 0.06631 0.22828 0.0
H1944 H 0.80802 0.08537 0.2409 0.0
H1945 H 0.79768 0.07149 0.24345 0.0
H1946 H 0.79251 0.08422 0.23293 0.0
H1947 H 0.77997 0.05131 0.20754 0.0
H1948 H 0.80657 0.0504 0.23931 0.0
H1949 H 0.7581 0.02816 0.21932 0.0
H1950 H 0.76912 0.01924 0.20975 0.0
H1951 H 0.76414 0.03494 0.20434 0.0
H1952 H 0.8071 0.03354 0.25418 0.0
H1953 H 0.80108 0.01821 0.24835 0.0
H1954 H 0.79093 0.02798 0.25804 0.0
H1955 H 0.72627 0.00563 0.28856 0.0
H1956 H 0.74854 0.97273 0.26569 0.0
H1957 H 0.76467 0.97254 0.24913 0.0
H1958 H 0.78822 0.005 0.22485 0.0
H1959 H 0.76537 0.03789 0.24725 0.0
H1960 H 0.7492 0.03806 0.26381 0.0
H1961 H 0.7757 0.92177 0.21526 0.0
H1962 H 0.77265 0.93654 0.22347 0.0
H1963 H 0.78472 0.9259 0.22964 0.0
C1964 C 0.08007 0.73074 0.30052 0.0
C1965 C 0.07323 0.71784 0.3037 0.0
C1966 C 0.05479 0.71802 0.28858 0.0
C1967 C 0.04989 0.71282 0.27714 0.0
C1968 C 0.03835 0.71719 0.27169 0.0
C1969 C 0.03157 0.72711 0.27783 0.0
C1970 C 0.03641 0.73238 0.28946 0.0
C1971 C 0.0479 0.72774 0.29477 0.0
C1972 C 0.03341 0.71128 0.25934 0.0
C1973 C 0.02943 0.74297 0.29628 0.0
C1974 C 0.95839 0.69583 0.31362 0.0
C1975 C 0.9485 0.70429 0.30679 0.0
C1976 C 0.96199 0.71233 0.28879 0.0
C1977 C 0.96884 0.72193 0.29562 0.0
C1978 C 0.97966 0.72825 0.29016 0.0
C1979 C 0.98389 0.72476 0.27771 0.0
C1980 C 0.97697 0.71516 0.27077 0.0
C1981 C 0.96597 0.70924 0.27634 0.0
C1982 C 0.98669 0.73854 0.29781 0.0
C1983 C 0.9813 0.711 0.25758 0.0
C1984 C 0.95913 0.7872 0.22163 0.0
C1985 C 0.96471 0.7914 0.23329 0.0
C1986 C 0.97642 0.78639 0.2377 0.0
C1987 C 0.98263 0.77687 0.23041 0.0
C1988 C 0.97713 0.77272 0.21862 0.0
C1989 C 0.9655 0.77801 0.21435 0.0
C1990 C 0.98215 0.79124 0.25019 0.0
C1991 C 0.98348 0.76259 0.21059 0.0
C1992 C 0.08306 0.78365 0.22736 0.0
C1993 C 0.07683 0.78484 0.21402 0.0
C1994 C 0.05408 0.78726 0.21906 0.0
C1995 C 0.04738 0.79406 0.22841 0.0
C1996 C 0.03567 0.78921 0.2335 0.0
C1997 C 0.03041 0.77744 0.22884 0.0
C1998 C 0.03682 0.77088 0.21888 0.0
C1999 C 0.04862 0.77584 0.21412 0.0
C2000 C 0.02905 0.79652 0.24404 0.0
C2001 C 0.03127 0.75855 0.21335 0.0
C2002 C 0.01935 0.73191 0.2722 0.0
C2003 C 0.00771 0.72645 0.27664 0.0
C2004 C 0.99582 0.73084 0.27219 0.0
C2005 C 0.99548 0.74095 0.26298 0.0
C2006 C 0.98371 0.74578 0.25847 0.0
C2007 C 0.98348 0.75565 0.24932 0.0
C2008 C 0.995 0.76117 0.24441 0.0
C2009 C 0.99487 0.77126 0.23515 0.0
C2010 C 0.00653 0.77636 0.23031 0.0
C2011 C 0.0184 0.7718 0.23461 0.0
C2012 C 0.01872 0.76193 0.24409 0.0
C2013 C 0.03049 0.75739 0.24891 0.0
C2014 C 0.03072 0.74759 0.25814 0.0
C2015 C 0.01921 0.74192 0.26287 0.0
C2016 C 0.00722 0.74643 0.25823 0.0
C2017 C 0.00698 0.75651 0.24889 0.0
C2018 C 0.93175 0.79071 0.23385 0.0
C2019 C 0.93879 0.79898 0.22361 0.0
O2020 O 0.06616 0.71345 0.29318 0.0
O2021 O 0.0657 0.79199 0.21493 0.0
O2022 O 0.94768 0.79163 0.21707 0.0
O2023 O 0.95162 0.70575 0.29384 0.0
H2024 H 0.06662 0.71916 0.31202 0.0
H2025 H 0.07296 0.73826 0.29828 0.0
H2026 H 0.08653 0.7298 0.29205 0.0
H2027 H 0.08591 0.73406 0.30891 0.0
H2028 H 0.0552 0.7053 0.27244 0.0
H2029 H 0.0514 0.73181 0.30371 0.0
H2030 H 0.02341 0.70745 0.26077 0.0
H2031 H 0.03957 0.70335 0.25598 0.0
H2032 H 0.03307 0.71878 0.25168 0.0
H2033 H 0.03482 0.7466 0.30482 0.0
H2034 H 0.0198 0.73931 0.29949 0.0
H2035 H 0.02785 0.75113 0.28953 0.0
H2036 H 0.94846 0.71389 0.31144 0.0
H2037 H 0.95575 0.69446 0.32394 0.0
H2038 H 0.96815 0.70045 0.31323 0.0
H2039 H 0.95882 0.68625 0.30895 0.0
H2040 H 0.96586 0.72458 0.3052 0.0
H2041 H 0.96061 0.70186 0.27111 0.0
H2042 H 0.99597 0.7347 0.30133 0.0
H2043 H 0.98101 0.74164 0.30629 0.0
H2044 H 0.98892 0.74708 0.29164 0.0
H2045 H 0.97564 0.70253 0.25402 0.0
H2046 H 0.99168 0.70855 0.2578 0.0
H2047 H 0.98019 0.71905 0.2506 0.0
H2048 H 0.94392 0.80719 0.22832 0.0
H2049 H 0.96004 0.79857 0.23906 0.0
H2050 H 0.9612 0.77485 0.20535 0.0
H2051 H 0.98209 0.78332 0.25743 0.0
H2052 H 0.97674 0.79942 0.25419 0.0
H2053 H 0.99236 0.79438 0.24868 0.0
H2054 H 0.97762 0.75987 0.20202 0.0
H2055 H 0.98508 0.75383 0.21655 0.0
H2056 H 0.99308 0.76624 0.20727 0.0
H2057 H 0.07439 0.77498 0.21059 0.0
H2058 H 0.09201 0.77798 0.22679 0.0
H2059 H 0.07629 0.77861 0.23411 0.0
H2060 H 0.08548 0.79333 0.2313 0.0
H2061 H 0.05159 0.80298 0.23201 0.0
H2062 H 0.05349 0.77084 0.20647 0.0
H2063 H 0.0275 0.79016 0.25259 0.0
H2064 H 0.01941 0.79955 0.24064 0.0
H2065 H 0.0347 0.8052 0.24705 0.0
H2066 H 0.03666 0.75538 0.20472 0.0
H2067 H 0.02099 0.75981 0.21066 0.0
H2068 H 0.0316 0.7508 0.22076 0.0
H2069 H 0.0079 0.71877 0.28379 0.0
H2070 H 0.97454 0.74196 0.26195 0.0
H2071 H 0.97413 0.75891 0.24615 0.0
H2072 H 0.00636 0.784 0.22313 0.0
H2073 H 0.03967 0.76137 0.24563 0.0
H2074 H 0.04007 0.7445 0.26148 0.0
H2075 H 0.92458 0.79652 0.23907 0.0
H2076 H 0.93869 0.78698 0.24105 0.0
H2077 H 0.92668 0.78238 0.22927 0.0
C2078 C 0.30731 0.9592 0.31238 0.0
C2079 C 0.29788 0.94832 0.30847 0.0
C2080 C 0.2875 0.95921 0.29033 0.0
C2081 C 0.27719 0.96473 0.29696 0.0
C2082 C 0.27054 0.97513 0.29162 0.0
C2083 C 0.27437 0.98023 0.27949 0.0
C2084 C 0.28451 0.97445 0.27262 0.0
C2085 C 0.29078 0.96384 0.27805 0.0
C2086 C 0.25957 0.98084 0.29909 0.0
C2087 C 0.28902 0.97973 0.25975 0.0
C2088 C 0.30494 0.04887 0.31614 0.0
C2089 C 0.302 0.05941 0.30619 0.0
C2090 C 0.28404 0.04861 0.29503 0.0
C2091 C 0.29088 0.04291 0.28493 0.0
C2092 C 0.28552 0.03248 0.27809 0.0
C2093 C 0.27314 0.02754 0.28151 0.0
C2094 C 0.26608 0.03348 0.29144 0.0
C2095 C 0.27156 0.0441 0.29791 0.0
C2096 C 0.29319 0.02659 0.26735 0.0
C2097 C 0.25294 0.02836 0.29549 0.0
C2098 C 0.21916 0.05114 0.21678 0.0
C2099 C 0.23033 0.04486 0.21265 0.0
C2100 C 0.23418 0.03334 0.2185 0.0
C2101 C 0.22676 0.02793 0.22871 0.0
C2102 C 0.21544 0.03408 0.2328 0.0
C2103 C 0.21178 0.0456 0.22675 0.0
C2104 C 0.24627 0.02698 0.21382 0.0
C2105 C 0.20731 0.02854 0.24364 0.0
C2106 C 0.22633 0.92828 0.2237 0.0
C2107 C 0.21264 0.93334 0.22203 0.0
C2108 C 0.21658 0.95638 0.2195 0.0
C2109 C 0.22577 0.96382 0.21278 0.0
C2110 C 0.23029 0.97567 0.21764 0.0
C2111 C 0.22519 0.98029 0.22936 0.0
C2112 C 0.21535 0.97311 0.23583 0.0
C2113 C 0.21119 0.96119 0.23086 0.0
C2114 C 0.24071 0.9831 0.21042 0.0
C2115 C 0.20935 0.97796 0.24808 0.0
C2116 C 0.26845 0.99219 0.27449 0.0
C2117 C 0.27277 0.00388 0.2797 0.0
C2118 C 0.26801 0.01562 0.27533 0.0
C2119 C 0.25874 0.01578 0.26531 0.0
C2120 C 0.25409 0.02742 0.26032 0.0
C2121 C 0.24497 0.02747 0.25045 0.0
C2122 C 0.24012 0.01588 0.24521 0.0
C2123 C 0.23095 0.01584 0.23507 0.0
C2124 C 0.22616 0.00413 0.23026 0.0
C2125 C 0.23049 0.99238 0.23509 0.0
C2126 C 0.23989 0.99223 0.245 0.0
C2127 C 0.24472 0.9806 0.24985 0.0
C2128 C 0.254 0.98055 0.25956 0.0
C2129 C 0.25887 0.99213 0.26475 0.0
C2130 C 0.25407 0.00398 0.26009 0.0
C2131 C 0.24464 0.00403 0.25013 0.0
C2132 C 0.23327 0.07728 0.20904 0.0
C2133 C 0.22185 0.07016 0.20261 0.0
O2134 O 0.29462 0.94959 0.29553 0.0
O2135 O 0.21308 0.94464 0.2148 0.0
O2136 O 0.21523 0.06251 0.21155 0.0
O2137 O 0.28921 0.05831 0.30226 0.0
H2138 H 0.28905 0.94883 0.31447 0.0
H2139 H 0.3027 0.96868 0.31118 0.0
H2140 H 0.31614 0.95909 0.30628 0.0
H2141 H 0.31014 0.95814 0.32266 0.0
H2142 H 0.27422 0.96099 0.30627 0.0
H2143 H 0.29867 0.95945 0.27295 0.0
H2144 H 0.26264 0.99044 0.30278 0.0
H2145 H 0.25656 0.97469 0.30742 0.0
H2146 H 0.25111 0.98223 0.29268 0.0
H2147 H 0.29763 0.97471 0.25609 0.0
H2148 H 0.29143 0.99016 0.26057 0.0
H2149 H 0.28114 0.97867 0.25256 0.0
H2150 H 0.30848 0.05835 0.29776 0.0
H2151 H 0.31511 0.04975 0.31947 0.0
H2152 H 0.30354 0.03921 0.31176 0.0
H2153 H 0.29841 0.04957 0.32459 0.0
H2154 H 0.30037 0.04657 0.28227 0.0
H2155 H 0.26631 0.04864 0.30563 0.0
H2156 H 0.29649 0.01695 0.27045 0.0
H2157 H 0.30181 0.03259 0.26468 0.0
H2158 H 0.28704 0.02524 0.25867 0.0
H2159 H 0.24906 0.03357 0.30392 0.0
H2160 H 0.25347 0.01797 0.29799 0.0
H2161 H 0.24605 0.02927 0.28735 0.0
H2162 H 0.22561 0.06398 0.19481 0.0
H2163 H 0.23619 0.04886 0.20492 0.0
H2164 H 0.20317 0.05043 0.22988 0.0
H2165 H 0.25344 0.02664 0.22177 0.0
H2166 H 0.25073 0.03214 0.20547 0.0
H2167 H 0.24398 0.0169 0.21098 0.0
H2168 H 0.19887 0.03457 0.24583 0.0
H2169 H 0.21329 0.02764 0.25248 0.0
H2170 H 0.20378 0.01872 0.24106 0.0
H2171 H 0.20866 0.93523 0.23176 0.0
H2172 H 0.22611 0.91918 0.22941 0.0
H2173 H 0.23243 0.93545 0.22894 0.0
H2174 H 0.2308 0.92648 0.21416 0.0
H2175 H 0.22971 0.9601 0.2039 0.0
H2176 H 0.20365 0.95571 0.23579 0.0
H2177 H 0.24897 0.98528 0.21694 0.0
H2178 H 0.23686 0.99242 0.20703 0.0
H2179 H 0.24428 0.97777 0.20193 0.0
H2180 H 0.20078 0.97206 0.25107 0.0
H2181 H 0.20644 0.98812 0.2468 0.0
H2182 H 0.21659 0.97772 0.25598 0.0
H2183 H 0.28002 0.00385 0.28726 0.0
H2184 H 0.2575 0.03663 0.26396 0.0
H2185 H 0.24175 0.03672 0.24699 0.0
H2186 H 0.21914 0.00416 0.22249 0.0
H2187 H 0.24142 0.97138 0.24617 0.0
H2188 H 0.25734 0.97131 0.26294 0.0
H2189 H 0.2384 0.08357 0.2019 0.0
H2190 H 0.24031 0.07036 0.21293 0.0
H2191 H 0.22991 0.0833 0.21713 0.0
C2192 C 0.96106 0.82108 0.80286 0.0
C2193 C 0.95063 0.81368 0.79522 0.0
C2194 C 0.96355 0.79538 0.78822 0.0
C2195 C 0.97033 0.80184 0.77826 0.0
C2196 C 0.98095 0.79621 0.77227 0.0
C2197 C 0.98498 0.78392 0.77639 0.0
C2198 C 0.97803 0.77727 0.78623 0.0
C2199 C 0.96729 0.78303 0.79188 0.0
C2200 C 0.98803 0.8035 0.7617 0.0
C2201 C 0.98213 0.76421 0.79098 0.0
C2202 C 0.0821 0.79658 0.81448 0.0
C2203 C 0.07045 0.78977 0.80916 0.0
C2204 C 0.05444 0.79108 0.79196 0.0
C2205 C 0.04863 0.779 0.79478 0.0
C2206 C 0.03767 0.77461 0.78803 0.0
C2207 C 0.03248 0.78235 0.7781 0.0
C2208 C 0.03846 0.79436 0.77501 0.0
C2209 C 0.04936 0.79857 0.78201 0.0
C2210 C 0.0315 0.76178 0.79165 0.0
C2211 C 0.03323 0.80279 0.76441 0.0
C2212 C 0.05486 0.72492 0.71663 0.0
C2213 C 0.04965 0.72047 0.72842 0.0
C2214 C 0.0382 0.72553 0.73331 0.0
C2215 C 0.03193 0.7354 0.72641 0.0
C2216 C 0.03708 0.73982 0.7145 0.0
C2217 C 0.04842 0.73443 0.70972 0.0
C2218 C 0.0328 0.72034 0.74589 0.0
C2219 C 0.03064 0.75031 0.70686 0.0
C2220 C 0.93188 0.72917 0.72398 0.0
C2221 C 0.93795 0.72631 0.71087 0.0
C2222 C 0.96071 0.72489 0.71672 0.0
C2223 C 0.9678 0.71813 0.72589 0.0
C2224 C 0.97942 0.72325 0.73084 0.0
C2225 C 0.98422 0.73528 0.72618 0.0
C2226 C 0.97737 0.7419 0.71646 0.0
C2227 C 0.96563 0.73668 0.71189 0.0
C2228 C 0.9865 0.71587 0.74114 0.0
C2229 C 0.98246 0.75449 0.71091 0.0
C2230 C 0.99692 0.77843 0.77095 0.0
C2231 C 0.00874 0.78266 0.77608 0.0
C2232 C 0.02043 0.77809 0.77143 0.0
C2233 C 0.02041 0.76912 0.76123 0.0
C2234 C 0.032 0.76457 0.75608 0.0
C2235 C 0.03187 0.75549 0.74627 0.0
C2236 C 0.02016 0.75053 0.7413 0.0
C2237 C 0.01993 0.74101 0.7316 0.0
C2238 C 0.0081 0.73636 0.72683 0.0
C2239 C 0.9964 0.74091 0.7315 0.0
C2240 C 0.99643 0.75041 0.74122 0.0
C2241 C 0.98485 0.75519 0.74618 0.0
C2242 C 0.98498 0.76451 0.75576 0.0
C2243 C 0.99669 0.76921 0.76096 0.0
C2244 C 0.00849 0.76455 0.75609 0.0
C2245 C 0.00836 0.75519 0.74616 0.0
C2246 C 0.08261 0.72141 0.72772 0.0
C2247 C 0.07528 0.71317 0.71779 0.0
O2248 O 0.95356 0.80071 0.79467 0.0
O2249 O 0.94931 0.71967 0.7126 0.0
O2250 O 0.06601 0.72041 0.71157 0.0
O2251 O 0.0648 0.79582 0.79867 0.0
H2252 H 0.95006 0.81766 0.78527 0.0
H2253 H 0.97059 0.82045 0.79804 0.0
H2254 H 0.96189 0.81704 0.81278 0.0
H2255 H 0.95868 0.83143 0.8035 0.0
H2256 H 0.9675 0.81131 0.77513 0.0
H2257 H 0.96198 0.77807 0.7995 0.0
H2258 H 0.99776 0.8065 0.76519 0.0
H2259 H 0.98284 0.81224 0.75856 0.0
H2260 H 0.98936 0.7972 0.75322 0.0
H2261 H 0.9761 0.7606 0.79915 0.0
H2262 H 0.99238 0.7647 0.79412 0.0
H2263 H 0.9814 0.75717 0.783 0.0
H2264 H 0.06323 0.78666 0.81661 0.0
H2265 H 0.07931 0.79951 0.82451 0.0
H2266 H 0.08205 0.80667 0.8104 0.0
H2267 H 0.0969 0.7838 0.81089 0.0
H2268 H 0.0525 0.77295 0.80232 0.0
H2269 H 0.05391 0.80783 0.77982 0.0
H2270 H 0.02114 0.76302 0.794 0.0
H2271 H 0.0363 0.75722 0.80006 0.0
H2272 H 0.03198 0.75513 0.78335 0.0
H2273 H 0.03965 0.81127 0.76237 0.0
H2274 H 0.02358 0.80626 0.76726 0.0
H2275 H 0.03196 0.79714 0.75543 0.0
H2276 H 0.07049 0.70484 0.72277 0.0
H2277 H 0.05439 0.71302 0.73386 0.0
H2278 H 0.05244 0.73777 0.70062 0.0
H2279 H 0.03349 0.72793 0.75335 0.0
H2280 H 0.03806 0.71179 0.74941 0.0
H2281 H 0.02243 0.71765 0.74474 0.0
H2282 H 0.03637 0.75334 0.69826 0.0
H2283 H 0.02919 0.75883 0.71306 0.0
H2284 H 0.02097 0.74683 0.7036 0.0
H2285 H 0.93999 0.73564 0.7059 0.0
H2286 H 0.92267 0.73431 0.72266 0.0
H2287 H 0.93853 0.73541 0.72972 0.0
H2288 H 0.92994 0.72012 0.72949 0.0
H2289 H 0.96401 0.70895 0.7294 0.0
H2290 H 0.96049 0.74171 0.70438 0.0
H2291 H 0.98843 0.72215 0.74957 0.0
H2292 H 0.99597 0.71285 0.73733 0.0
H2293 H 0.98099 0.70716 0.74443 0.0
H2294 H 0.97668 0.75778 0.70253 0.0
H2295 H 0.99266 0.75351 0.70783 0.0
H2296 H 0.98227 0.76202 0.71844 0.0
H2297 H 0.00884 0.78953 0.78392 0.0
H2298 H 0.0413 0.76797 0.75961 0.0
H2299 H 0.04109 0.75234 0.74269 0.0
H2300 H 0.00799 0.72901 0.71945 0.0
H2301 H 0.97554 0.7518 0.74269 0.0
H2302 H 0.97578 0.76789 0.75915 0.0
H2303 H 0.09017 0.71565 0.73253 0.0
H2304 H 0.07595 0.72481 0.73528 0.0
H2305 H 0.08726 0.72995 0.72299 0.0
C2306 C 0.18824 0.05191 0.80487 0.0
C2307 C 0.20127 0.05891 0.80666 0.0
C2308 C 0.21463 0.05034 0.78975 0.0
C2309 C 0.22492 0.04496 0.79655 0.0
C2310 C 0.23162 0.03452 0.79151 0.0
C2311 C 0.22787 0.02931 0.77946 0.0
C2312 C 0.21777 0.03504 0.77238 0.0
C2313 C 0.2114 0.04563 0.77755 0.0
C2314 C 0.24255 0.0289 0.79918 0.0
C2315 C 0.21345 0.02972 0.75954 0.0
C2316 C 0.22987 0.92992 0.792 0.0
C2317 C 0.21619 0.9352 0.79125 0.0
C2318 C 0.2199 0.95836 0.79217 0.0
C2319 C 0.21559 0.96248 0.78003 0.0
C2320 C 0.2201 0.9742 0.77467 0.0
C2321 C 0.22923 0.98183 0.78155 0.0
C2322 C 0.23333 0.97782 0.79395 0.0
C2323 C 0.22844 0.9662 0.79918 0.0
C2324 C 0.21513 0.97839 0.76165 0.0
C2325 C 0.24296 0.98573 0.80162 0.0
C2326 C 0.28914 0.95893 0.7232 0.0
C2327 C 0.27728 0.96362 0.71872 0.0
C2328 C 0.27247 0.97527 0.72328 0.0
C2329 C 0.2795 0.98232 0.73268 0.0
C2330 C 0.29151 0.97774 0.73708 0.0
C2331 C 0.29621 0.96617 0.73218 0.0
C2332 C 0.25978 0.98 0.71811 0.0
C2333 C 0.2993 0.98499 0.74708 0.0
C2334 C 0.2988 0.08059 0.73689 0.0
C2335 C 0.3054 0.07315 0.72607 0.0
C2336 C 0.2916 0.05363 0.72425 0.0
C2337 C 0.28205 0.0474 0.71691 0.0
C2338 C 0.27633 0.03567 0.72103 0.0
C2339 C 0.28035 0.03 0.73277 0.0
C2340 C 0.29019 0.03609 0.74013 0.0
C2341 C 0.29566 0.04783 0.73586 0.0
C2342 C 0.26587 0.02941 0.71294 0.0
C2343 C 0.29485 0.03022 0.75262 0.0
C2344 C 0.23394 0.01739 0.77468 0.0
C2345 C 0.22934 0.0056 0.77966 0.0
C2346 C 0.23455 0.99396 0.77575 0.0
C2347 C 0.24461 0.994 0.76651 0.0
C2348 C 0.25016 0.98248 0.76243 0.0
C2349 C 0.25985 0.98258 0.75313 0.0
C2350 C 0.26446 0.99421 0.74762 0.0
C2351 C 0.27419 0.99438 0.73801 0.0
C2352 C 0.27893 0.00617 0.73317 0.0
C2353 C 0.27415 0.01784 0.73756 0.0
C2354 C 0.2641 0.01783 0.74681 0.0
C2355 C 0.25882 0.02938 0.75118 0.0
C2356 C 0.24899 0.02927 0.76034 0.0
C2357 C 0.24401 0.01762 0.76546 0.0
C2358 C 0.24928 0.00586 0.76128 0.0
C2359 C 0.25927 0.00596 0.75188 0.0
C2360 C 0.27778 0.93088 0.72144 0.0
C2361 C 0.28761 0.93777 0.71257 0.0
O2362 O 0.20758 0.05992 0.79487 0.0
O2363 O 0.29651 0.06516 0.71985 0.0
O2364 O 0.29405 0.94753 0.71924 0.0
O2365 O 0.21582 0.94698 0.79744 0.0
H2366 H 0.20709 0.05311 0.81348 0.0
H2367 H 0.18975 0.04204 0.80117 0.0
H2368 H 0.18213 0.05717 0.79786 0.0
H2369 H 0.18305 0.05106 0.81423 0.0
H2370 H 0.22767 0.0489 0.80582 0.0
H2371 H 0.20352 0.04997 0.77233 0.0
H2372 H 0.23949 0.0193 0.80298 0.0
H2373 H 0.24543 0.03508 0.80745 0.0
H2374 H 0.25109 0.02756 0.7929 0.0
H2375 H 0.2051 0.03494 0.7555 0.0
H2376 H 0.21071 0.01937 0.76061 0.0
H2377 H 0.22155 0.03043 0.75255 0.0
H2378 H 0.21372 0.93639 0.78088 0.0
H2379 H 0.23024 0.92042 0.78718 0.0
H2380 H 0.23298 0.92882 0.8022 0.0
H2381 H 0.23676 0.93662 0.78703 0.0
H2382 H 0.20857 0.95666 0.77482 0.0
H2383 H 0.23154 0.963 0.80864 0.0
H2384 H 0.2119 0.9885 0.76206 0.0
H2385 H 0.20698 0.97217 0.75826 0.0
H2386 H 0.22305 0.97801 0.75446 0.0
H2387 H 0.24617 0.98064 0.81047 0.0
H2388 H 0.23851 0.99489 0.80448 0.0
H2389 H 0.25156 0.98819 0.79561 0.0
H2390 H 0.28254 0.94199 0.70415 0.0
H2391 H 0.27168 0.95828 0.71168 0.0
H2392 H 0.30537 0.96257 0.73554 0.0
H2393 H 0.25234 0.97929 0.7258 0.0
H2394 H 0.25631 0.97433 0.7097 0.0
H2395 H 0.26075 0.99029 0.71518 0.0
H2396 H 0.30793 0.97965 0.75024 0.0
H2397 H 0.2932 0.98689 0.75564 0.0
H2398 H 0.30254 0.99445 0.74304 0.0
H2399 H 0.31303 0.06725 0.73052 0.0
H2400 H 0.30578 0.08747 0.74141 0.0
H2401 H 0.29519 0.07389 0.74452 0.0
H2402 H 0.29045 0.08599 0.73312 0.0
H2403 H 0.27896 0.05185 0.70797 0.0
H2404 H 0.30303 0.05237 0.74175 0.0
H2405 H 0.25696 0.02802 0.71879 0.0
H2406 H 0.26898 0.01974 0.70986 0.0
H2407 H 0.26357 0.0352 0.70422 0.0
H2408 H 0.3033 0.03558 0.75669 0.0
H2409 H 0.29756 0.02007 0.75107 0.0
H2410 H 0.28693 0.03019 0.75982 0.0
H2411 H 0.22159 0.00549 0.78671 0.0
H2412 H 0.24703 0.97323 0.76632 0.0
H2413 H 0.26371 0.97341 0.75034 0.0
H2414 H 0.28654 0.00627 0.72598 0.0
H2415 H 0.26221 0.03864 0.74754 0.0
H2416 H 0.24531 0.03845 0.76335 0.0
H2417 H 0.27265 0.92301 0.71619 0.0
H2418 H 0.27044 0.93768 0.72486 0.0
H2419 H 0.28271 0.92673 0.72999 0.0
C2420 C 0.95677 0.31553 0.70434 0.0
C2421 C 0.94811 0.30337 0.70444 0.0
C2422 C 0.95734 0.29118 0.72212 0.0
C2423 C 0.96269 0.2807 0.71573 0.0
C2424 C 0.9732 0.27419 0.72105 0.0
C2425 C 0.97851 0.2783 0.73295 0.0
C2426 C 0.97282 0.2886 0.73961 0.0
C2427 C 0.96215 0.29477 0.73418 0.0
C2428 C 0.97881 0.26307 0.71381 0.0
C2429 C 0.97829 0.29335 0.75225 0.0
C2430 C 0.04977 0.31103 0.69805 0.0
C2431 C 0.05994 0.30653 0.70774 0.0
C2432 C 0.04766 0.28854 0.71759 0.0
C2433 C 0.04155 0.29534 0.72746 0.0
C2434 C 0.03086 0.28996 0.73403 0.0
C2435 C 0.02602 0.27763 0.73054 0.0
C2436 C 0.03225 0.27069 0.72072 0.0
C2437 C 0.04315 0.27616 0.71455 0.0
C2438 C 0.02464 0.29754 0.74464 0.0
C2439 C 0.02723 0.25762 0.71653 0.0
C2440 C 0.05055 0.21912 0.79072 0.0
C2441 C 0.04464 0.2295 0.79686 0.0
C2442 C 0.03299 0.23443 0.79218 0.0
C2443 C 0.02706 0.22883 0.78122 0.0
C2444 C 0.03284 0.21824 0.77517 0.0
C2445 C 0.04452 0.21354 0.78001 0.0
C2446 C 0.02706 0.24571 0.79888 0.0
C2447 C 0.02672 0.21196 0.76353 0.0
C2448 C 0.92705 0.22661 0.79069 0.0
C2449 C 0.93305 0.21334 0.79226 0.0
C2450 C 0.95603 0.21874 0.79346 0.0
C2451 C 0.96349 0.22786 0.80011 0.0
C2452 C 0.97502 0.23293 0.79483 0.0
C2453 C 0.97932 0.22846 0.78274 0.0
C2454 C 0.97209 0.21877 0.77624 0.0
C2455 C 0.96047 0.21405 0.78164 0.0
C2456 C 0.98252 0.24317 0.80209 0.0
C2457 C 0.97663 0.21341 0.76357 0.0
C2458 C 0.9906 0.27253 0.73788 0.0
C2459 C 0.00226 0.27699 0.73253 0.0
C2460 C 0.0141 0.2723 0.73674 0.0
C2461 C 0.01439 0.26289 0.74667 0.0
C2462 C 0.02613 0.25821 0.7514 0.0
C2463 C 0.02631 0.2488 0.76103 0.0
C2464 C 0.01476 0.24374 0.76633 0.0
C2465 C 0.01485 0.2341 0.77605 0.0
C2466 C 0.00317 0.22932 0.78113 0.0
C2467 C 0.99133 0.23397 0.77686 0.0
C2468 C 0.99105 0.24365 0.76718 0.0
C2469 C 0.97932 0.24862 0.76271 0.0
C2470 C 0.97913 0.25803 0.75308 0.0
C2471 C 0.99067 0.26293 0.74763 0.0
C2472 C 0.00262 0.2581 0.75204 0.0
C2473 C 0.00281 0.24848 0.76185 0.0
C2474 C 0.07728 0.2314 0.79935 0.0
C2475 C 0.07029 0.21907 0.80411 0.0
O2476 O 0.94768 0.29807 0.71677 0.0
O2477 O 0.94471 0.2145 0.79878 0.0
O2478 O 0.06204 0.21426 0.79466 0.0
O2479 O 0.0578 0.2936 0.71073 0.0
H2480 H 0.95237 0.29642 0.69763 0.0
H2481 H 0.9668 0.31304 0.70703 0.0
H2482 H 0.95322 0.3227 0.71132 0.0
H2483 H 0.95701 0.31993 0.69454 0.0
H2484 H 0.95866 0.27759 0.70661 0.0
H2485 H 0.95785 0.30279 0.73909 0.0
H2486 H 0.98849 0.26593 0.71005 0.0
H2487 H 0.97264 0.26001 0.70557 0.0
H2488 H 0.98006 0.25471 0.72041 0.0
H2489 H 0.97309 0.30181 0.75594 0.0
H2490 H 0.98865 0.29605 0.75105 0.0
H2491 H 0.97766 0.28553 0.75958 0.0
H2492 H 0.05933 0.31236 0.71663 0.0
H2493 H 0.05146 0.32133 0.69547 0.0
H2494 H 0.03996 0.31003 0.70231 0.0
H2495 H 0.05009 0.30518 0.68913 0.0
H2496 H 0.04509 0.30479 0.7302 0.0
H2497 H 0.04797 0.27095 0.70699 0.0
H2498 H 0.02313 0.29137 0.75333 0.0
H2499 H 0.01502 0.30076 0.74137 0.0
H2500 H 0.03052 0.30617 0.74737 0.0
H2501 H 0.03243 0.25404 0.70794 0.0
H2502 H 0.01677 0.25806 0.71423 0.0
H2503 H 0.02835 0.25058 0.72453 0.0
H2504 H 0.06459 0.2213 0.81288 0.0
H2505 H 0.04902 0.23388 0.80526 0.0
H2506 H 0.04907 0.20551 0.77535 0.0
H2507 H 0.02591 0.25378 0.79193 0.0
H2508 H 0.03297 0.24917 0.80715 0.0
H2509 H 0.01729 0.2429 0.80246 0.0
H2510 H 0.03223 0.20358 0.76014 0.0
H2511 H 0.02614 0.2191 0.75554 0.0
H2512 H 0.0167 0.2087 0.76587 0.0
H2513 H 0.93461 0.20942 0.78246 0.0
H2514 H 0.91762 0.22574 0.78563 0.0
H2515 H 0.93354 0.23301 0.78485 0.0
H2516 H 0.92556 0.23114 0.80024 0.0
H2517 H 0.96006 0.23126 0.80933 0.0
H2518 H 0.95503 0.20656 0.77671 0.0
H2519 H 0.98442 0.25166 0.79574 0.0
H2520 H 0.992 0.23936 0.80507 0.0
H2521 H 0.97734 0.24637 0.81085 0.0
H2522 H 0.97067 0.20498 0.76043 0.0
H2523 H 0.98686 0.21049 0.76437 0.0
H2524 H 0.97616 0.22099 0.75599 0.0
H2525 H 0.00213 0.28428 0.72498 0.0
H2526 H 0.03532 0.26174 0.74769 0.0
H2527 H 0.03563 0.24552 0.76424 0.0
H2528 H 0.00331 0.22191 0.78856 0.0
H2529 H 0.97013 0.24528 0.76659 0.0
H2530 H 0.96982 0.26143 0.74995 0.0
H2531 H 0.08407 0.23504 0.80685 0.0
H2532 H 0.08278 0.22956 0.79038 0.0
H2533 H 0.07028 0.23908 0.79727 0.0
C2534 C 0.80207 0.95303 0.81715 0.0
C2535 C 0.79614 0.9429 0.80807 0.0
C2536 C 0.78954 0.95733 0.7904 0.0
C2537 C 0.7787 0.96243 0.79654 0.0
C2538 C 0.77239 0.9731 0.79132 0.0
C2539 C 0.77703 0.97885 0.77976 0.0
C2540 C 0.78773 0.97354 0.77337 0.0
C2541 C 0.79375 0.96276 0.77873 0.0
C2542 C 0.76088 0.97837 0.79827 0.0
C2543 C 0.79296 0.97943 0.76104 0.0
C2544 C 0.78546 0.07805 0.78308 0.0
C2545 C 0.79451 0.07122 0.79251 0.0
C2546 C 0.78434 0.04953 0.79271 0.0
C2547 C 0.7889 0.04557 0.78062 0.0
C2548 C 0.78449 0.03396 0.77514 0.0
C2549 C 0.77517 0.02624 0.78176 0.0
C2550 C 0.77069 0.03011 0.794 0.0
C2551 C 0.77545 0.04165 0.79935 0.0
C2552 C 0.78974 0.02997 0.76222 0.0
C2553 C 0.76081 0.02211 0.80137 0.0
C2554 C 0.71656 0.04952 0.72233 0.0
C2555 C 0.72869 0.04528 0.71821 0.0
C2556 C 0.73355 0.03352 0.72262 0.0
C2557 C 0.72629 0.02595 0.73153 0.0
C2558 C 0.714 0.03007 0.73553 0.0
C2559 C 0.70925 0.04174 0.73076 0.0
C2560 C 0.74654 0.02928 0.71783 0.0
C2561 C 0.70597 0.02224 0.74501 0.0
C2562 C 0.72079 0.92593 0.73005 0.0
C2563 C 0.70934 0.93228 0.7233 0.0
C2564 C 0.71755 0.95452 0.72094 0.0
C2565 C 0.72687 0.96169 0.71407 0.0
C2566 C 0.73177 0.97347 0.71878 0.0
C2567 C 0.72699 0.97832 0.73052 0.0
C2568 C 0.71715 0.97141 0.73723 0.0
C2569 C 0.71257 0.95957 0.73242 0.0
C2570 C 0.74222 0.98064 0.71135 0.0
C2571 C 0.71152 0.9765 0.74957 0.0
C2572 C 0.7711 0.99078 0.77473 0.0
C2573 C 0.77534 0.00252 0.77991 0.0
C2574 C 0.77009 0.01415 0.77587 0.0
C2575 C 0.76031 0.01414 0.76633 0.0
C2576 C 0.75464 0.02564 0.76219 0.0
C2577 C 0.74522 0.02557 0.75262 0.0
C2578 C 0.74108 0.014 0.74681 0.0
C2579 C 0.7317 0.01387 0.73686 0.0
C2580 C 0.72748 0.00213 0.73163 0.0
C2581 C 0.73243 0.99046 0.73599 0.0
C2582 C 0.74208 0.99044 0.74567 0.0
C2583 C 0.74748 0.9789 0.75008 0.0
C2584 C 0.75694 0.97897 0.75963 0.0
C2585 C 0.76141 0.99058 0.7651 0.0
C2586 C 0.75605 0.00233 0.76084 0.0
C2587 C 0.7464 0.00226 0.75109 0.0
C2588 C 0.7273 0.07782 0.7225 0.0
C2589 C 0.7182 0.07128 0.71273 0.0
O2590 O 0.7963 0.94737 0.79541 0.0
O2591 O 0.71363 0.94288 0.71615 0.0
O2592 O 0.7116 0.061 0.71854 0.0
O2593 O 0.78817 0.0608 0.79832 0.0
H2594 H 0.78599 0.94075 0.81102 0.0
H2595 H 0.7963 0.96189 0.81709 0.0
H2596 H 0.8121 0.95564 0.81414 0.0
H2597 H 0.80225 0.94926 0.82721 0.0
H2598 H 0.77513 0.95822 0.80546 0.0
H2599 H 0.80205 0.95872 0.77399 0.0
H2600 H 0.7634 0.98806 0.80208 0.0
H2601 H 0.75767 0.9721 0.80644 0.0
H2602 H 0.75269 0.97948 0.79146 0.0
H2603 H 0.80153 0.97435 0.75741 0.0
H2604 H 0.79567 0.9897 0.76264 0.0
H2605 H 0.78535 0.97915 0.75349 0.0
H2606 H 0.80307 0.0678 0.78718 0.0
H2607 H 0.79048 0.08654 0.77863 0.0
H2608 H 0.77668 0.0813 0.78815 0.0
H2609 H 0.78243 0.07147 0.7752 0.0
H2610 H 0.79591 0.05144 0.77538 0.0
H2611 H 0.77205 0.04471 0.8087 0.0
H2612 H 0.79299 0.01987 0.7627 0.0
H2613 H 0.79795 0.03626 0.75899 0.0
H2614 H 0.78197 0.03044 0.75486 0.0
H2615 H 0.75742 0.02704 0.81018 0.0
H2616 H 0.76511 0.01284 0.80429 0.0
H2617 H 0.75235 0.01986 0.79513 0.0
H2618 H 0.72389 0.06772 0.70446 0.0
H2619 H 0.73447 0.05104 0.71158 0.0
H2620 H 0.69988 0.04501 0.73384 0.0
H2621 H 0.75369 0.03 0.72578 0.0
H2622 H 0.75012 0.03527 0.70961 0.0
H2623 H 0.74597 0.01905 0.71477 0.0
H2624 H 0.69705 0.02723 0.7479 0.0
H2625 H 0.71173 0.02017 0.75379 0.0
H2626 H 0.70317 0.01287 0.74063 0.0
H2627 H 0.70275 0.93522 0.7311 0.0
H2628 H 0.71766 0.91671 0.73469 0.0
H2629 H 0.72469 0.9324 0.73767 0.0
H2630 H 0.72872 0.92412 0.72314 0.0
H2631 H 0.73056 0.95783 0.70515 0.0
H2632 H 0.705 0.9545 0.73766 0.0
H2633 H 0.75081 0.98219 0.71762 0.0
H2634 H 0.73874 0.99026 0.70842 0.0
H2635 H 0.7452 0.97539 0.70258 0.0
H2636 H 0.70316 0.97057 0.75305 0.0
H2637 H 0.70837 0.98656 0.7481 0.0
H2638 H 0.71905 0.97664 0.7572 0.0
H2639 H 0.78284 0.0026 0.78723 0.0
H2640 H 0.75745 0.03484 0.76628 0.0
H2641 H 0.74124 0.03472 0.74981 0.0
H2642 H 0.72019 0.00208 0.72412 0.0
H2643 H 0.74449 0.96967 0.74617 0.0
H2644 H 0.76073 0.9698 0.76265 0.0
H2645 H 0.72174 0.0813 0.73091 0.0
H2646 H 0.73255 0.08611 0.71795 0.0
H2647 H 0.73459 0.07096 0.72604 0.0
C2648 C 0.32242 0.80648 0.55508 0.0
C2649 C 0.3093 0.80824 0.56155 0.0
C2650 C 0.2961 0.79095 0.55263 0.0
C2651 C 0.28604 0.79741 0.5465 0.0
C2652 C 0.27965 0.79198 0.53582 0.0
C2653 C 0.28351 0.77989 0.53112 0.0
C2654 C 0.29344 0.7732 0.53754 0.0
C2655 C 0.29946 0.77875 0.54838 0.0
C2656 C 0.26895 0.79928 0.5294 0.0
C2657 C 0.29797 0.7604 0.53272 0.0
C2658 C 0.32266 0.8058 0.45773 0.0
C2659 C 0.3141 0.79877 0.44782 0.0
C2660 C 0.29568 0.79267 0.46182 0.0
C2661 C 0.3016 0.7824 0.46827 0.0
C2662 C 0.29573 0.77644 0.47904 0.0
C2663 C 0.28374 0.78089 0.48354 0.0
C2664 C 0.27766 0.79109 0.47697 0.0
C2665 C 0.28365 0.79673 0.4661 0.0
C2666 C 0.30242 0.76548 0.48572 0.0
C2667 C 0.26495 0.79619 0.48158 0.0
C2668 C 0.22416 0.72017 0.45907 0.0
C2669 C 0.2357 0.71562 0.46446 0.0
C2670 C 0.24054 0.72061 0.4761 0.0
C2671 C 0.23383 0.73045 0.48244 0.0
C2672 C 0.22217 0.73496 0.47713 0.0
C2673 C 0.21746 0.72969 0.46556 0.0
C2674 C 0.25288 0.7154 0.48161 0.0
C2675 C 0.21474 0.74542 0.48365 0.0
C2676 C 0.22101 0.72828 0.58131 0.0
C2677 C 0.2127 0.71814 0.57426 0.0
C2678 C 0.22377 0.71831 0.55319 0.0
C2679 C 0.2333 0.71219 0.54612 0.0
C2680 C 0.23831 0.71766 0.53471 0.0
C2681 C 0.23347 0.72948 0.53012 0.0
C2682 C 0.22353 0.73556 0.53701 0.0
C2683 C 0.21885 0.72997 0.54852 0.0
C2684 C 0.24887 0.71088 0.52761 0.0
C2685 C 0.21792 0.748 0.53223 0.0
C2686 C 0.2778 0.77471 0.51899 0.0
C2687 C 0.28257 0.77969 0.50732 0.0
C2688 C 0.2779 0.77524 0.49547 0.0
C2689 C 0.26814 0.7655 0.49517 0.0
C2690 C 0.26329 0.76071 0.48344 0.0
C2691 C 0.25368 0.75113 0.48324 0.0
C2692 C 0.24864 0.74585 0.49476 0.0
C2693 C 0.239 0.73598 0.49465 0.0
C2694 C 0.23422 0.73097 0.5063 0.0
C2695 C 0.23883 0.73548 0.51815 0.0
C2696 C 0.24849 0.74534 0.51846 0.0
C2697 C 0.2534 0.75009 0.5302 0.0
C2698 C 0.26289 0.7598 0.5304 0.0
C2699 C 0.26799 0.765 0.51888 0.0
C2700 C 0.26317 0.76037 0.50692 0.0
C2701 C 0.25341 0.75053 0.50671 0.0
C2702 C 0.23576 0.71574 0.43156 0.0
C2703 C 0.22517 0.70801 0.43875 0.0
O2704 O 0.30283 0.79642 0.5625 0.0
O2705 O 0.2197 0.71263 0.5644 0.0
O2706 O 0.21919 0.71576 0.4477 0.0
O2707 O 0.30124 0.79903 0.45162 0.0
H2708 H 0.30364 0.8149 0.55543 0.0
H2709 H 0.32103 0.80261 0.5452 0.0
H2710 H 0.32835 0.79964 0.56071 0.0
H2711 H 0.32773 0.81587 0.55428 0.0
H2712 H 0.2832 0.80671 0.55006 0.0
H2713 H 0.30719 0.77381 0.55327 0.0
H2714 H 0.27224 0.80276 0.51977 0.0
H2715 H 0.266 0.80771 0.53514 0.0
H2716 H 0.26039 0.79283 0.5279 0.0
H2717 H 0.30636 0.75684 0.53829 0.0
H2718 H 0.30074 0.76123 0.5224 0.0
H2719 H 0.28998 0.75314 0.53345 0.0
H2720 H 0.3171 0.78861 0.447 0.0
H2721 H 0.33294 0.80576 0.45468 0.0
H2722 H 0.32197 0.80097 0.4673 0.0
H2723 H 0.31963 0.81593 0.45879 0.0
H2724 H 0.31083 0.77898 0.46506 0.0
H2725 H 0.27911 0.80461 0.46106 0.0
H2726 H 0.30559 0.76859 0.49546 0.0
H2727 H 0.311 0.76227 0.48029 0.0
H2728 H 0.29561 0.75716 0.48698 0.0
H2729 H 0.2618 0.80461 0.4758 0.0
H2730 H 0.26577 0.79908 0.49185 0.0
H2731 H 0.25738 0.7885 0.481 0.0
H2732 H 0.2295 0.69968 0.44381 0.0
H2733 H 0.24101 0.70819 0.45969 0.0
H2734 H 0.20855 0.73312 0.46141 0.0
H2735 H 0.26046 0.72312 0.48163 0.0
H2736 H 0.25648 0.70713 0.47602 0.0
H2737 H 0.25132 0.71227 0.49177 0.0
H2738 H 0.20617 0.74832 0.47797 0.0
H2739 H 0.22113 0.75401 0.48511 0.0
H2740 H 0.21147 0.74201 0.4933 0.0
H2741 H 0.20405 0.7228 0.57014 0.0
H2742 H 0.21547 0.7325 0.58936 0.0
H2743 H 0.22392 0.73623 0.57465 0.0
H2744 H 0.22988 0.7239 0.58527 0.0
H2745 H 0.23698 0.70317 0.54973 0.0
H2746 H 0.21135 0.73479 0.55375 0.0
H2747 H 0.25725 0.71757 0.52605 0.0
H2748 H 0.24529 0.70786 0.51797 0.0
H2749 H 0.2522 0.70223 0.5329 0.0
H2750 H 0.20945 0.7509 0.53801 0.0
H2751 H 0.21493 0.74703 0.52198 0.0
H2752 H 0.22539 0.7558 0.5327 0.0
H2753 H 0.29011 0.78711 0.50746 0.0
H2754 H 0.26687 0.76433 0.47426 0.0
H2755 H 0.25028 0.74787 0.47391 0.0
H2756 H 0.22686 0.72337 0.50614 0.0
H2757 H 0.24995 0.74637 0.53938 0.0
H2758 H 0.26624 0.76313 0.53972 0.0
H2759 H 0.24054 0.7096 0.42433 0.0
H2760 H 0.24327 0.71928 0.43838 0.0
H2761 H 0.23158 0.72417 0.42654 0.0
C2762 C 0.82233 0.70973 0.4566 0.0
C2763 C 0.81011 0.70687 0.44868 0.0
C2764 C 0.79545 0.7223 0.45751 0.0
C2765 C 0.78572 0.71456 0.46316 0.0
C2766 C 0.7787 0.71893 0.47378 0.0
C2767 C 0.78161 0.73125 0.47893 0.0
C2768 C 0.79122 0.73921 0.473 0.0
C2769 C 0.79786 0.73469 0.46219 0.0
C2770 C 0.76835 0.71028 0.47964 0.0
C2771 C 0.79473 0.75232 0.47829 0.0
C2772 C 0.78948 0.72815 0.57812 0.0
C2773 C 0.79918 0.71949 0.5714 0.0
C2774 C 0.78935 0.71856 0.54976 0.0
C2775 C 0.79344 0.73087 0.54549 0.0
C2776 C 0.78881 0.73603 0.53386 0.0
C2777 C 0.77973 0.72885 0.52647 0.0
C2778 C 0.77574 0.71639 0.53066 0.0
C2779 C 0.78073 0.71137 0.54219 0.0
C2780 C 0.79356 0.7492 0.5295 0.0
C2781 C 0.76612 0.70843 0.52302 0.0
C2782 C 0.72336 0.78982 0.54964 0.0
C2783 C 0.73466 0.79381 0.54303 0.0
C2784 C 0.73837 0.78785 0.53156 0.0
C2785 C 0.73071 0.77762 0.52655 0.0
C2786 C 0.71932 0.77359 0.53308 0.0
C2787 C 0.71578 0.77977 0.54453 0.0
C2788 C 0.75057 0.79247 0.52482 0.0
C2789 C 0.71096 0.76269 0.52799 0.0
C2790 C 0.72104 0.77732 0.42723 0.0
C2791 C 0.71132 0.78631 0.43347 0.0
C2792 C 0.72052 0.78731 0.45538 0.0
C2793 C 0.72922 0.79435 0.463 0.0
C2794 C 0.7339 0.78932 0.47465 0.0
C2795 C 0.72948 0.77702 0.47893 0.0
C2796 C 0.72027 0.77004 0.47151 0.0
C2797 C 0.71598 0.77519 0.45975 0.0
C2798 C 0.74368 0.79709 0.48229 0.0
C2799 C 0.71505 0.75707 0.47596 0.0
C2800 C 0.77515 0.73548 0.49093 0.0
C2801 C 0.77973 0.73068 0.50267 0.0
C2802 C 0.77435 0.73438 0.5144 0.0
C2803 C 0.76417 0.74324 0.5145 0.0
C2804 C 0.75863 0.7473 0.52613 0.0
C2805 C 0.74897 0.7564 0.52616 0.0
C2806 C 0.74429 0.7616 0.51455 0.0
C2807 C 0.73479 0.77118 0.51451 0.0
C2808 C 0.72997 0.77576 0.50278 0.0
C2809 C 0.7347 0.77137 0.49101 0.0
C2810 C 0.74461 0.7622 0.49087 0.0
C2811 C 0.75 0.75797 0.47923 0.0
C2812 C 0.75988 0.7491 0.47921 0.0
C2813 C 0.76486 0.74421 0.49083 0.0
C2814 C 0.75945 0.7482 0.50267 0.0
C2815 C 0.74937 0.75726 0.50269 0.0
C2816 C 0.73732 0.79935 0.57527 0.0
C2817 C 0.72595 0.80492 0.56771 0.0
O2818 O 0.80282 0.71789 0.44775 0.0
O2819 O 0.71687 0.79259 0.44393 0.0
O2820 O 0.7195 0.79527 0.56092 0.0
O2821 O 0.7934 0.71323 0.56105 0.0
H2822 H 0.80442 0.69913 0.45368 0.0
H2823 H 0.81967 0.71268 0.46651 0.0
H2824 H 0.82816 0.71764 0.45204 0.0
H2825 H 0.82831 0.70101 0.45738 0.0
H2826 H 0.78363 0.70509 0.45926 0.0
H2827 H 0.80535 0.74061 0.45766 0.0
H2828 H 0.77178 0.70658 0.48908 0.0
H2829 H 0.76591 0.70193 0.4734 0.0
H2830 H 0.75945 0.71578 0.48142 0.0
H2831 H 0.80316 0.75683 0.47324 0.0
H2832 H 0.79699 0.75156 0.48874 0.0
H2833 H 0.78639 0.75877 0.47724 0.0
H2834 H 0.80751 0.72547 0.56789 0.0
H2835 H 0.78091 0.72241 0.58144 0.0
H2836 H 0.78616 0.73578 0.57142 0.0
H2837 H 0.79405 0.73293 0.58657 0.0
H2838 H 0.80024 0.73652 0.55112 0.0
H2839 H 0.7777 0.70185 0.54549 0.0
H2840 H 0.79672 0.74891 0.51928 0.0
H2841 H 0.80173 0.75288 0.53548 0.0
H2842 H 0.78556 0.7561 0.53012 0.0
H2843 H 0.7631 0.69945 0.52819 0.0
H2844 H 0.77049 0.70578 0.51367 0.0
H2845 H 0.75742 0.71412 0.52089 0.0
H2846 H 0.72983 0.81227 0.56083 0.0
H2847 H 0.74075 0.80153 0.5467 0.0
H2848 H 0.70709 0.77672 0.54962 0.0
H2849 H 0.75774 0.78468 0.52494 0.0
H2850 H 0.75499 0.80111 0.52945 0.0
H2851 H 0.74848 0.79481 0.51458 0.0
H2852 H 0.70258 0.76045 0.53437 0.0
H2853 H 0.71681 0.75392 0.52701 0.0
H2854 H 0.70734 0.76524 0.51824 0.0
H2855 H 0.70273 0.78058 0.43676 0.0
H2856 H 0.71666 0.77255 0.41867 0.0
H2857 H 0.72389 0.76969 0.43414 0.0
H2858 H 0.72987 0.7828 0.42417 0.0
H2859 H 0.73259 0.80373 0.45961 0.0
H2860 H 0.70908 0.76969 0.45408 0.0
H2861 H 0.7521 0.7911 0.48476 0.0
H2862 H 0.73924 0.80017 0.49147 0.0
H2863 H 0.74717 0.8058 0.47696 0.0
H2864 H 0.70673 0.75367 0.47004 0.0
H2865 H 0.71197 0.75751 0.4862 0.0
H2866 H 0.72278 0.74987 0.47531 0.0
H2867 H 0.78764 0.724 0.50269 0.0
H2868 H 0.76182 0.74362 0.53536 0.0
H2869 H 0.74519 0.75929 0.5354 0.0
H2870 H 0.72269 0.78312 0.50282 0.0
H2871 H 0.7467 0.76152 0.46999 0.0
H2872 H 0.76365 0.74619 0.46996 0.0
H2873 H 0.74223 0.80703 0.58099 0.0
H2874 H 0.74454 0.79531 0.56861 0.0
H2875 H 0.73396 0.79152 0.58189 0.0
C2876 C 0.80375 0.27667 0.57788 0.0
C2877 C 0.80633 0.28966 0.57111 0.0
C2878 C 0.79084 0.28872 0.553 0.0
C2879 C 0.77919 0.29345 0.54834 0.0
C2880 C 0.77367 0.28881 0.53685 0.0
C2881 C 0.77991 0.27906 0.5299 0.0
C2882 C 0.7918 0.27433 0.53445 0.0
C2883 C 0.79719 0.27925 0.54588 0.0
C2884 C 0.7611 0.29426 0.53218 0.0
C2885 C 0.79874 0.26396 0.52726 0.0
C2886 C 0.78786 0.27639 0.43055 0.0
C2887 C 0.79751 0.2861 0.43646 0.0
C2888 C 0.78784 0.28836 0.45803 0.0
C2889 C 0.79211 0.27664 0.46321 0.0
C2890 C 0.78765 0.27212 0.47524 0.0
C2891 C 0.77856 0.27933 0.48216 0.0
C2892 C 0.77445 0.29125 0.47713 0.0
C2893 C 0.77926 0.29566 0.46518 0.0
C2894 C 0.79255 0.25953 0.48047 0.0
C2895 C 0.76479 0.29921 0.48425 0.0
C2896 C 0.71788 0.22003 0.46011 0.0
C2897 C 0.7296 0.21542 0.46498 0.0
C2898 C 0.73477 0.22009 0.47662 0.0
C2899 C 0.72817 0.22967 0.48349 0.0
C2900 C 0.71625 0.23414 0.47875 0.0
C2901 C 0.71123 0.22918 0.46717 0.0
C2902 C 0.74736 0.21489 0.48153 0.0
C2903 C 0.70894 0.24432 0.48582 0.0
C2904 C 0.71974 0.23019 0.58308 0.0
C2905 C 0.71017 0.22082 0.57656 0.0
C2906 C 0.72013 0.21943 0.55503 0.0
C2907 C 0.72875 0.21238 0.54767 0.0
C2908 C 0.7336 0.21718 0.53589 0.0
C2909 C 0.7295 0.22926 0.53123 0.0
C2910 C 0.72043 0.23627 0.5384 0.0
C2911 C 0.71594 0.23136 0.55028 0.0
C2912 C 0.74324 0.20944 0.52851 0.0
C2913 C 0.71553 0.24901 0.53356 0.0
C2914 C 0.77397 0.27375 0.51794 0.0
C2915 C 0.77828 0.27867 0.50607 0.0
C2916 C 0.77307 0.27416 0.49445 0.0
C2917 C 0.76311 0.2646 0.49464 0.0
C2918 C 0.75739 0.2601 0.48317 0.0
C2919 C 0.74778 0.25052 0.48342 0.0
C2920 C 0.74351 0.24504 0.49515 0.0
C2921 C 0.73388 0.23516 0.49548 0.0
C2922 C 0.7296 0.23019 0.50734 0.0
C2923 C 0.73481 0.23469 0.51896 0.0
C2924 C 0.7447 0.24433 0.5188 0.0
C2925 C 0.75044 0.24882 0.53027 0.0
C2926 C 0.76001 0.25843 0.53002 0.0
C2927 C 0.76428 0.26391 0.51829 0.0
C2928 C 0.75879 0.25939 0.50659 0.0
C2929 C 0.74899 0.24958 0.50685 0.0
C2930 C 0.72898 0.21784 0.43227 0.0
C2931 C 0.7187 0.20929 0.43898 0.0
O2932 O 0.79545 0.29347 0.56439 0.0
O2933 O 0.71623 0.21441 0.56662 0.0
O2934 O 0.71267 0.21604 0.4487 0.0
O2935 O 0.79161 0.29292 0.44622 0.0
H2936 H 0.81449 0.28873 0.56425 0.0
H2937 H 0.80149 0.26902 0.57077 0.0
H2938 H 0.79544 0.27729 0.58461 0.0
H2939 H 0.81241 0.27375 0.58341 0.0
H2940 H 0.77438 0.30079 0.5538 0.0
H2941 H 0.80629 0.27554 0.54919 0.0
H2942 H 0.76208 0.29752 0.522 0.0
H2943 H 0.75797 0.30248 0.53813 0.0
H2944 H 0.75343 0.28662 0.5325 0.0
H2945 H 0.80754 0.26078 0.5324 0.0
H2946 H 0.80159 0.26762 0.51756 0.0
H2947 H 0.79217 0.2555 0.52585 0.0
H2948 H 0.80588 0.28093 0.4405 0.0
H2949 H 0.79249 0.27098 0.42265 0.0
H2950 H 0.77935 0.28143 0.42662 0.0
H2951 H 0.78446 0.26931 0.43792 0.0
H2952 H 0.79888 0.27089 0.45795 0.0
H2953 H 0.77607 0.30473 0.46119 0.0
H2954 H 0.79561 0.26064 0.49068 0.0
H2955 H 0.80081 0.25594 0.4748 0.0
H2956 H 0.78464 0.25214 0.48023 0.0
H2957 H 0.76207 0.30794 0.47873 0.0
H2958 H 0.76893 0.30224 0.49366 0.0
H2959 H 0.75594 0.29332 0.48629 0.0
H2960 H 0.72339 0.20071 0.44322 0.0
H2961 H 0.73483 0.20821 0.45979 0.0
H2962 H 0.70216 0.23263 0.46342 0.0
H2963 H 0.75493 0.22262 0.48118 0.0
H2964 H 0.75068 0.20663 0.47576 0.0
H2965 H 0.74631 0.21176 0.49175 0.0
H2966 H 0.70009 0.2472 0.48058 0.0
H2967 H 0.71525 0.25297 0.48724 0.0
H2968 H 0.70611 0.24063 0.49552 0.0
H2969 H 0.7019 0.22621 0.5726 0.0
H2970 H 0.71499 0.23529 0.5911 0.0
H2971 H 0.72335 0.23755 0.57607 0.0
H2972 H 0.72814 0.22492 0.58697 0.0
H2973 H 0.73188 0.20317 0.55134 0.0
H2974 H 0.70919 0.23694 0.55572 0.0
H2975 H 0.75199 0.21546 0.52636 0.0
H2976 H 0.73897 0.20643 0.51915 0.0
H2977 H 0.74619 0.20069 0.53389 0.0
H2978 H 0.70726 0.25241 0.53935 0.0
H2979 H 0.71246 0.24821 0.52333 0.0
H2980 H 0.72343 0.25639 0.53404 0.0
H2981 H 0.78586 0.28605 0.50585 0.0
H2982 H 0.76026 0.26395 0.47384 0.0
H2983 H 0.74376 0.24745 0.47427 0.0
H2984 H 0.72211 0.22273 0.50753 0.0
H2985 H 0.74758 0.24494 0.53959 0.0
H2986 H 0.76405 0.2615 0.53916 0.0
H2987 H 0.7336 0.21248 0.42432 0.0
H2988 H 0.73666 0.2208 0.43916 0.0
H2989 H 0.72458 0.22666 0.42822 0.0
C2990 C 0.20327 0.27825 0.43359 0.0
C2991 C 0.20087 0.29089 0.44068 0.0
C2992 C 0.21715 0.29064 0.45807 0.0
C2993 C 0.22876 0.29622 0.46238 0.0
C2994 C 0.23471 0.29194 0.47375 0.0
C2995 C 0.22891 0.28174 0.48094 0.0
C2996 C 0.21713 0.27607 0.4767 0.0
C2997 C 0.21132 0.28062 0.46536 0.0
C2998 C 0.24722 0.29825 0.47806 0.0
C2999 C 0.21069 0.26516 0.48413 0.0
C3000 C 0.19447 0.30755 0.55524 0.0
C3001 C 0.20271 0.30022 0.56502 0.0
C3002 C 0.22047 0.29415 0.55068 0.0
C3003 C 0.21396 0.28391 0.54447 0.0
C3004 C 0.21921 0.27822 0.53348 0.0
C3005 C 0.23111 0.28295 0.52847 0.0
C3006 C 0.2378 0.29311 0.5348 0.0
C3007 C 0.23245 0.29846 0.54594 0.0
C3008 C 0.21189 0.26727 0.5271 0.0
C3009 C 0.25047 0.29846 0.52968 0.0
C3010 C 0.2886 0.22341 0.55143 0.0
C3011 C 0.2768 0.21864 0.54658 0.0
C3012 C 0.2719 0.22322 0.53483 0.0
C3013 C 0.27894 0.2328 0.52784 0.0
C3014 C 0.29106 0.23728 0.5325 0.0
C3015 C 0.29582 0.23238 0.54419 0.0
C3016 C 0.25916 0.21789 0.52991 0.0
C3017 C 0.29887 0.2474 0.52524 0.0
C3018 C 0.27637 0.22617 0.42748 0.0
C3019 C 0.28979 0.22445 0.43335 0.0
C3020 C 0.28538 0.2223 0.45636 0.0
C3021 C 0.27621 0.21558 0.46382 0.0
C3022 C 0.27198 0.22049 0.47563 0.0
C3023 C 0.27732 0.23227 0.48019 0.0
C3024 C 0.28708 0.23879 0.47296 0.0
C3025 C 0.29098 0.23375 0.4611 0.0
C3026 C 0.26163 0.21324 0.48313 0.0
C3027 C 0.2933 0.25114 0.47775 0.0
C3028 C 0.23515 0.27693 0.49289 0.0
C3029 C 0.23123 0.28199 0.50467 0.0
C3030 C 0.23629 0.27753 0.51634 0.0
C3031 C 0.24565 0.26782 0.51631 0.0
C3032 C 0.25089 0.26305 0.52787 0.0
C3033 C 0.26008 0.25347 0.52773 0.0
C3034 C 0.26427 0.24818 0.51604 0.0
C3035 C 0.27347 0.23831 0.51582 0.0
C3036 C 0.27752 0.23336 0.50402 0.0
C3037 C 0.27253 0.2379 0.49236 0.0
C3038 C 0.26317 0.24762 0.4924 0.0
C3039 C 0.25773 0.25222 0.48086 0.0
C3040 C 0.24858 0.26182 0.48099 0.0
C3041 C 0.24449 0.2672 0.49266 0.0
C3042 C 0.24978 0.26266 0.50442 0.0
C3043 C 0.2591 0.25283 0.50429 0.0
C3044 C 0.28645 0.23248 0.5804 0.0
C3045 C 0.28632 0.21906 0.57439 0.0
O3046 O 0.21206 0.29516 0.44683 0.0
O3047 O 0.28872 0.21741 0.44475 0.0
O3048 O 0.2933 0.21943 0.56297 0.0
O3049 O 0.21553 0.30023 0.56111 0.0
H3050 H 0.19312 0.28928 0.44796 0.0
H3051 H 0.20607 0.27056 0.44045 0.0
H3052 H 0.21115 0.27957 0.4264 0.0
H3053 H 0.19435 0.27494 0.42854 0.0
H3054 H 0.23319 0.30396 0.45674 0.0
H3055 H 0.2023 0.27621 0.4623 0.0
H3056 H 0.2462 0.30186 0.48805 0.0
H3057 H 0.25025 0.3064 0.47166 0.0
H3058 H 0.25497 0.29103 0.47816 0.0
H3059 H 0.20194 0.26127 0.47917 0.0
H3060 H 0.20785 0.26859 0.49381 0.0
H3061 H 0.21757 0.25722 0.48556 0.0
H3062 H 0.199 0.29012 0.56584 0.0
H3063 H 0.18427 0.30778 0.55853 0.0
H3064 H 0.19461 0.30277 0.54571 0.0
H3065 H 0.19821 0.3176 0.55401 0.0
H3066 H 0.20478 0.28031 0.54808 0.0
H3067 H 0.23745 0.3063 0.55082 0.0
H3068 H 0.21846 0.25924 0.52501 0.0
H3069 H 0.2079 0.27069 0.51778 0.0
H3070 H 0.20376 0.26353 0.53314 0.0
H3071 H 0.2541 0.30684 0.53531 0.0
H3072 H 0.24933 0.30146 0.51944 0.0
H3073 H 0.25783 0.29086 0.52998 0.0
H3074 H 0.2761 0.21622 0.57245 0.0
H3075 H 0.27146 0.21126 0.55189 0.0
H3076 H 0.30502 0.23583 0.54793 0.0
H3077 H 0.25187 0.22556 0.53008 0.0
H3078 H 0.2555 0.20962 0.53582 0.0
H3079 H 0.26017 0.21474 0.51976 0.0
H3080 H 0.30785 0.25027 0.53044 0.0
H3081 H 0.29297 0.25608 0.52368 0.0
H3082 H 0.30151 0.24368 0.51561 0.0
H3083 H 0.294 0.23416 0.43529 0.0
H3084 H 0.27709 0.23174 0.4183 0.0
H3085 H 0.27021 0.23156 0.43424 0.0
H3086 H 0.27165 0.21666 0.42556 0.0
H3087 H 0.27211 0.20664 0.46017 0.0
H3088 H 0.29854 0.23869 0.45566 0.0
H3089 H 0.25339 0.21962 0.485 0.0
H3090 H 0.26554 0.21021 0.49262 0.0
H3091 H 0.25801 0.20454 0.47796 0.0
H3092 H 0.30158 0.25437 0.47164 0.0
H3093 H 0.29672 0.24985 0.48782 0.0
H3094 H 0.28605 0.25885 0.47779 0.0
H3095 H 0.22398 0.28937 0.50477 0.0
H3096 H 0.24797 0.26668 0.53715 0.0
H3097 H 0.26382 0.25025 0.53692 0.0
H3098 H 0.28463 0.22584 0.50392 0.0
H3099 H 0.26047 0.24843 0.47158 0.0
H3100 H 0.24474 0.26496 0.47181 0.0
H3101 H 0.28092 0.23235 0.58958 0.0
H3102 H 0.28189 0.23944 0.57371 0.0
H3103 H 0.29652 0.23585 0.58235 0.0
C3104 C 0.81076 0.55131 0.69 0.0
C3105 C 0.80291 0.56179 0.69653 0.0
C3106 C 0.79463 0.54926 0.7151 0.0
C3107 C 0.78421 0.54309 0.70879 0.0
C3108 C 0.7775 0.5327 0.71459 0.0
C3109 C 0.78141 0.52819 0.72687 0.0
C3110 C 0.79175 0.53449 0.73335 0.0
C3111 C 0.79808 0.54509 0.72745 0.0
C3112 C 0.76634 0.5264 0.70749 0.0
C3113 C 0.79629 0.52987 0.74638 0.0
C3114 C 0.77689 0.42801 0.7201 0.0
C3115 C 0.79053 0.434 0.72007 0.0
C3116 C 0.78672 0.457 0.71805 0.0
C3117 C 0.79105 0.46156 0.73005 0.0
C3118 C 0.78682 0.47335 0.73486 0.0
C3119 C 0.778 0.48068 0.72758 0.0
C3120 C 0.77386 0.47621 0.71535 0.0
C3121 C 0.77844 0.4645 0.71067 0.0
C3122 C 0.79182 0.47801 0.74773 0.0
C3123 C 0.76457 0.48378 0.70723 0.0
C3124 C 0.71834 0.45992 0.78703 0.0
C3125 C 0.73052 0.46473 0.79094 0.0
C3126 C 0.73551 0.47643 0.78602 0.0
C3127 C 0.72833 0.48336 0.77677 0.0
C3128 C 0.71594 0.47873 0.77306 0.0
C3129 C 0.71105 0.46714 0.77837 0.0
C3130 C 0.74858 0.48129 0.79058 0.0
C3131 C 0.70798 0.48589 0.76328 0.0
C3132 C 0.71974 0.5825 0.77576 0.0
C3133 C 0.71149 0.57527 0.78586 0.0
C3134 C 0.72227 0.5543 0.7862 0.0
C3135 C 0.73146 0.5471 0.79277 0.0
C3136 C 0.73601 0.53555 0.78771 0.0
C3137 C 0.73108 0.53097 0.77583 0.0
C3138 C 0.72159 0.53806 0.76922 0.0
C3139 C 0.71734 0.54969 0.77441 0.0
C3140 C 0.74614 0.52825 0.79504 0.0
C3141 C 0.71591 0.53332 0.75666 0.0
C3142 C 0.77506 0.5165 0.73256 0.0
C3143 C 0.77901 0.50451 0.72817 0.0
C3144 C 0.77322 0.49306 0.73269 0.0
C3145 C 0.76318 0.49353 0.74192 0.0
C3146 C 0.75694 0.48224 0.74649 0.0
C3147 C 0.74731 0.48277 0.75581 0.0
C3148 C 0.74351 0.49461 0.76091 0.0
C3149 C 0.73402 0.4952 0.7707 0.0
C3150 C 0.73018 0.50715 0.77527 0.0
C3151 C 0.73567 0.51864 0.77044 0.0
C3152 C 0.74541 0.51823 0.76087 0.0
C3153 C 0.75133 0.52955 0.75596 0.0
C3154 C 0.76095 0.52903 0.7466 0.0
C3155 C 0.76514 0.51715 0.7419 0.0
C3156 C 0.75923 0.50562 0.74664 0.0
C3157 C 0.74935 0.50616 0.75612 0.0
C3158 C 0.72863 0.43211 0.78651 0.0
C3159 C 0.72006 0.43831 0.7967 0.0
O3160 O 0.80167 0.5591 0.70962 0.0
O3161 O 0.71852 0.56554 0.7916 0.0
O3162 O 0.71333 0.4484 0.79124 0.0
O3163 O 0.79055 0.44555 0.71325 0.0
H3164 H 0.79318 0.56217 0.69206 0.0
H3165 H 0.80575 0.5418 0.69099 0.0
H3166 H 0.82047 0.55069 0.69449 0.0
H3167 H 0.81192 0.55342 0.67954 0.0
H3168 H 0.78122 0.54627 0.69933 0.0
H3169 H 0.80607 0.54994 0.7323 0.0
H3170 H 0.76923 0.51676 0.70415 0.0
H3171 H 0.76332 0.53213 0.69897 0.0
H3172 H 0.75792 0.52502 0.71403 0.0
H3173 H 0.80498 0.53532 0.74979 0.0
H3174 H 0.79857 0.51949 0.74595 0.0
H3175 H 0.78846 0.53093 0.75358 0.0
H3176 H 0.79337 0.43574 0.73025 0.0
H3177 H 0.77673 0.41872 0.72549 0.0
H3178 H 0.77348 0.4263 0.71008 0.0
H3179 H 0.7701 0.43459 0.7249 0.0
H3180 H 0.79791 0.45607 0.73556 0.0
H3181 H 0.77532 0.461 0.70133 0.0
H3182 H 0.79554 0.48808 0.74685 0.0
H3183 H 0.79964 0.4719 0.75156 0.0
H3184 H 0.7838 0.47792 0.75482 0.0
H3185 H 0.76103 0.47825 0.69875 0.0
H3186 H 0.7695 0.49272 0.7037 0.0
H3187 H 0.75615 0.48663 0.7131 0.0
H3188 H 0.72615 0.442 0.80474 0.0
H3189 H 0.73625 0.45944 0.79779 0.0
H3190 H 0.70162 0.46344 0.77549 0.0
H3191 H 0.75577 0.48014 0.78276 0.0
H3192 H 0.75196 0.47595 0.79922 0.0
H3193 H 0.74825 0.4917 0.79291 0.0
H3194 H 0.69888 0.4806 0.7608 0.0
H3195 H 0.71367 0.48755 0.75432 0.0
H3196 H 0.70551 0.49546 0.76715 0.0
H3197 H 0.70279 0.57099 0.7811 0.0
H3198 H 0.71417 0.59041 0.77131 0.0
H3199 H 0.72264 0.57592 0.76795 0.0
H3200 H 0.72863 0.58666 0.78025 0.0
H3201 H 0.73518 0.55067 0.80187 0.0
H3202 H 0.71014 0.55503 0.76921 0.0
H3203 H 0.75444 0.52628 0.78862 0.0
H3204 H 0.74201 0.51883 0.7983 0.0
H3205 H 0.74972 0.5336 0.80361 0.0
H3206 H 0.70794 0.53944 0.75318 0.0
H3207 H 0.71217 0.52328 0.75784 0.0
H3208 H 0.72356 0.53326 0.74917 0.0
H3209 H 0.78668 0.50408 0.72106 0.0
H3210 H 0.75948 0.47285 0.74297 0.0
H3211 H 0.7429 0.47375 0.75898 0.0
H3212 H 0.7229 0.50752 0.78277 0.0
H3213 H 0.74861 0.53895 0.75932 0.0
H3214 H 0.76513 0.53805 0.74315 0.0
H3215 H 0.72266 0.42853 0.77831 0.0
H3216 H 0.73394 0.42393 0.79076 0.0
H3217 H 0.73587 0.43921 0.78273 0.0
C3218 C 0.20044 0.45446 0.69631 0.0
C3219 C 0.20884 0.44455 0.7032 0.0
C3220 C 0.21713 0.45819 0.72082 0.0
C3221 C 0.22659 0.46504 0.71367 0.0
C3222 C 0.23294 0.47591 0.71883 0.0
C3223 C 0.22967 0.48014 0.73133 0.0
C3224 C 0.22023 0.4732 0.7386 0.0
C3225 C 0.21424 0.46219 0.73331 0.0
C3226 C 0.24306 0.48298 0.71086 0.0
C3227 C 0.21629 0.47754 0.75186 0.0
C3228 C 0.21099 0.57712 0.73874 0.0
C3229 C 0.20404 0.56946 0.72809 0.0
C3230 C 0.21804 0.55082 0.72534 0.0
C3231 C 0.21466 0.54465 0.73706 0.0
C3232 C 0.22043 0.53313 0.74085 0.0
C3233 C 0.22987 0.52764 0.73287 0.0
C3234 C 0.23325 0.53372 0.72105 0.0
C3235 C 0.22726 0.54521 0.71744 0.0
C3236 C 0.21646 0.52683 0.75346 0.0
C3237 C 0.24325 0.52809 0.71229 0.0
C3238 C 0.29207 0.55088 0.78812 0.0
C3239 C 0.28069 0.54535 0.79325 0.0
C3240 C 0.2759 0.53345 0.78878 0.0
C3241 C 0.28258 0.52703 0.7789 0.0
C3242 C 0.29434 0.53236 0.77408 0.0
C3243 C 0.29902 0.54417 0.7789 0.0
C3244 C 0.26359 0.52783 0.79448 0.0
C3245 C 0.30178 0.52572 0.76364 0.0
C3246 C 0.28143 0.42692 0.78536 0.0
C3247 C 0.29502 0.43298 0.7862 0.0
C3248 C 0.29073 0.45582 0.78833 0.0
C3249 C 0.28185 0.46286 0.79535 0.0
C3250 C 0.27712 0.47451 0.79053 0.0
C3251 C 0.28168 0.47938 0.77854 0.0
C3252 C 0.29114 0.47257 0.77167 0.0
C3253 C 0.29553 0.46082 0.77662 0.0
C3254 C 0.26711 0.48154 0.79816 0.0
C3255 C 0.29657 0.4777 0.7591 0.0
C3256 C 0.23579 0.49208 0.73657 0.0
C3257 C 0.23092 0.50388 0.73248 0.0
C3258 C 0.23615 0.51553 0.73695 0.0
C3259 C 0.24663 0.51548 0.74571 0.0
C3260 C 0.25227 0.52703 0.75024 0.0
C3261 C 0.26233 0.52689 0.75914 0.0
C3262 C 0.26709 0.51521 0.76393 0.0
C3263 C 0.27703 0.51499 0.7733 0.0
C3264 C 0.28161 0.50321 0.77775 0.0
C3265 C 0.27651 0.49153 0.77316 0.0
C3266 C 0.2665 0.49156 0.76384 0.0
C3267 C 0.26108 0.48002 0.75904 0.0
C3268 C 0.25118 0.48016 0.74995 0.0
C3269 C 0.24613 0.49183 0.74549 0.0
C3270 C 0.25152 0.50359 0.75012 0.0
C3271 C 0.26175 0.50345 0.75927 0.0
C3272 C 0.28865 0.57953 0.77858 0.0
C3273 C 0.28921 0.57364 0.79215 0.0
O3274 O 0.21048 0.4478 0.71607 0.0
O3275 O 0.29461 0.44433 0.79315 0.0
O3276 O 0.29656 0.56263 0.79193 0.0
O3277 O 0.21278 0.56212 0.72136 0.0
H3278 H 0.21843 0.4443 0.69841 0.0
H3279 H 0.20522 0.46412 0.69639 0.0
H3280 H 0.1909 0.45511 0.70114 0.0
H3281 H 0.1989 0.4517 0.68608 0.0
H3282 H 0.22909 0.46201 0.70406 0.0
H3283 H 0.20698 0.45683 0.73878 0.0
H3284 H 0.23941 0.49255 0.70799 0.0
H3285 H 0.24558 0.47766 0.70199 0.0
H3286 H 0.25197 0.48461 0.71665 0.0
H3287 H 0.20796 0.47181 0.75574 0.0
H3288 H 0.2137 0.48786 0.75159 0.0
H3289 H 0.22454 0.47659 0.75861 0.0
H3290 H 0.19666 0.563 0.73264 0.0
H3291 H 0.20403 0.58324 0.74391 0.0
H3292 H 0.21882 0.58337 0.73462 0.0
H3293 H 0.21536 0.57054 0.74591 0.0
H3294 H 0.20757 0.54872 0.74339 0.0
H3295 H 0.22983 0.54995 0.70842 0.0
H3296 H 0.2248 0.52692 0.76019 0.0
H3297 H 0.21356 0.51662 0.75184 0.0
H3298 H 0.20833 0.5318 0.75814 0.0
H3299 H 0.24528 0.53429 0.70372 0.0
H3300 H 0.23983 0.51847 0.70894 0.0
H3301 H 0.25239 0.52671 0.71768 0.0
H3302 H 0.27917 0.57115 0.79518 0.0
H3303 H 0.27559 0.55028 0.80079 0.0
H3304 H 0.30791 0.54845 0.77516 0.0
H3305 H 0.25578 0.52814 0.78716 0.0
H3306 H 0.26043 0.53318 0.80312 0.0
H3307 H 0.26492 0.51759 0.79721 0.0
H3308 H 0.31049 0.53137 0.76057 0.0
H3309 H 0.29546 0.52411 0.75511 0.0
H3310 H 0.30483 0.51614 0.76717 0.0
H3311 H 0.29841 0.43503 0.77622 0.0
H3312 H 0.28162 0.41778 0.77987 0.0
H3313 H 0.27487 0.43359 0.78029 0.0
H3314 H 0.27751 0.42491 0.79517 0.0
H3315 H 0.27836 0.459 0.80447 0.0
H3316 H 0.30284 0.45568 0.77141 0.0
H3317 H 0.25854 0.48337 0.79203 0.0
H3318 H 0.27115 0.49103 0.80121 0.0
H3319 H 0.26394 0.47607 0.80689 0.0
H3320 H 0.3047 0.47189 0.75554 0.0
H3321 H 0.3 0.48783 0.76027 0.0
H3322 H 0.28886 0.47764 0.75166 0.0
H3323 H 0.22284 0.50399 0.72582 0.0
H3324 H 0.24895 0.53631 0.74698 0.0
H3325 H 0.26626 0.53609 0.76228 0.0
H3326 H 0.2892 0.50312 0.78498 0.0
H3327 H 0.26442 0.47073 0.76226 0.0
H3328 H 0.24743 0.47097 0.74657 0.0
H3329 H 0.28281 0.58838 0.77861 0.0
H3330 H 0.28405 0.57255 0.77183 0.0
H3331 H 0.29853 0.58199 0.77503 0.0
C3332 C 0.30983 0.55173 0.1902 0.0
C3333 C 0.30242 0.5621 0.19739 0.0
C3334 C 0.29492 0.54912 0.21603 0.0
C3335 C 0.28462 0.54263 0.20984 0.0
C3336 C 0.27826 0.53209 0.21579 0.0
C3337 C 0.28237 0.52783 0.22808 0.0
C3338 C 0.29262 0.53444 0.23441 0.0
C3339 C 0.29862 0.54514 0.22836 0.0
C3340 C 0.26724 0.52539 0.20883 0.0
C3341 C 0.29744 0.53004 0.24741 0.0
C3342 C 0.30808 0.45651 0.19214 0.0
C3343 C 0.30844 0.44932 0.20508 0.0
C3344 C 0.29089 0.45877 0.21694 0.0
C3345 C 0.29733 0.46474 0.22727 0.0
C3346 C 0.29212 0.47549 0.23334 0.0
C3347 C 0.28023 0.48038 0.22895 0.0
C3348 C 0.2735 0.47407 0.21882 0.0
C3349 C 0.27884 0.4632 0.21308 0.0
C3350 C 0.29942 0.48177 0.24429 0.0
C3351 C 0.26086 0.47906 0.21382 0.0
C3352 C 0.21993 0.45897 0.289 0.0
C3353 C 0.23172 0.46385 0.29388 0.0
C3354 C 0.23725 0.47535 0.28899 0.0
C3355 C 0.23096 0.48202 0.27893 0.0
C3356 C 0.219 0.47726 0.27415 0.0
C3357 C 0.2136 0.46584 0.27934 0.0
C3358 C 0.24988 0.48033 0.29451 0.0
C3359 C 0.21201 0.48415 0.26346 0.0
C3360 C 0.21947 0.5805 0.27783 0.0
C3361 C 0.21208 0.5731 0.28847 0.0
C3362 C 0.22384 0.55267 0.28862 0.0
C3363 C 0.2336 0.54598 0.29491 0.0
C3364 C 0.23841 0.53454 0.28984 0.0
C3365 C 0.23318 0.52957 0.27825 0.0
C3366 C 0.22315 0.53615 0.27192 0.0
C3367 C 0.21862 0.54766 0.27712 0.0
C3368 C 0.2491 0.52778 0.29687 0.0
C3369 C 0.2172 0.53099 0.25965 0.0
C3370 C 0.27641 0.51602 0.23395 0.0
C3371 C 0.28052 0.50413 0.22948 0.0
C3372 C 0.27532 0.49256 0.23436 0.0
C3373 C 0.26575 0.49279 0.24409 0.0
C3374 C 0.26036 0.48136 0.24929 0.0
C3375 C 0.25087 0.48169 0.25878 0.0
C3376 C 0.24653 0.49347 0.26356 0.0
C3377 C 0.23696 0.4939 0.27328 0.0
C3378 C 0.23287 0.50577 0.27781 0.0
C3379 C 0.23804 0.51735 0.27289 0.0
C3380 C 0.2476 0.51712 0.26314 0.0
C3381 C 0.253 0.52856 0.25793 0.0
C3382 C 0.26234 0.52824 0.24829 0.0
C3383 C 0.2668 0.51646 0.24363 0.0
C3384 C 0.26149 0.50479 0.24873 0.0
C3385 C 0.25187 0.50513 0.25849 0.0
C3386 C 0.2301 0.43113 0.29252 0.0
C3387 C 0.21995 0.43809 0.30049 0.0
O3388 O 0.30164 0.55912 0.21045 0.0
O3389 O 0.21985 0.56384 0.29399 0.0
O3390 O 0.21433 0.44773 0.29321 0.0
O3391 O 0.29617 0.44885 0.21047 0.0
H3392 H 0.29251 0.56268 0.19333 0.0
H3393 H 0.30466 0.54228 0.19095 0.0
H3394 H 0.31967 0.55073 0.19432 0.0
H3395 H 0.31068 0.55427 0.1798 0.0
H3396 H 0.28149 0.54567 0.20038 0.0
H3397 H 0.30652 0.55023 0.23309 0.0
H3398 H 0.2703 0.5157 0.20576 0.0
H3399 H 0.26413 0.53082 0.20014 0.0
H3400 H 0.25884 0.52403 0.21539 0.0
H3401 H 0.30614 0.53562 0.25059 0.0
H3402 H 0.29982 0.51967 0.24709 0.0
H3403 H 0.28974 0.53114 0.25473 0.0
H3404 H 0.31518 0.45469 0.21153 0.0
H3405 H 0.31784 0.45689 0.18768 0.0
H3406 H 0.30495 0.46655 0.19363 0.0
H3407 H 0.3012 0.45167 0.18541 0.0
H3408 H 0.30644 0.461 0.23059 0.0
H3409 H 0.27388 0.45842 0.20518 0.0
H3410 H 0.30306 0.49143 0.24116 0.0
H3411 H 0.30776 0.47601 0.2475 0.0
H3412 H 0.29288 0.48315 0.25263 0.0
H3413 H 0.25706 0.47334 0.20557 0.0
H3414 H 0.26213 0.48925 0.21069 0.0
H3415 H 0.25356 0.47878 0.22166 0.0
H3416 H 0.22464 0.44241 0.30914 0.0
H3417 H 0.23668 0.45879 0.30149 0.0
H3418 H 0.20448 0.46206 0.27569 0.0
H3419 H 0.25751 0.47995 0.28701 0.0
H3420 H 0.25301 0.47463 0.30302 0.0
H3421 H 0.24899 0.49055 0.29738 0.0
H3422 H 0.2031 0.47886 0.26039 0.0
H3423 H 0.21848 0.48543 0.25499 0.0
H3424 H 0.20933 0.49388 0.26674 0.0
H3425 H 0.20336 0.56833 0.28425 0.0
H3426 H 0.2133 0.58805 0.27357 0.0
H3427 H 0.22226 0.57392 0.26998 0.0
H3428 H 0.22838 0.58514 0.28178 0.0
H3429 H 0.23755 0.54986 0.30378 0.0
H3430 H 0.21099 0.55261 0.27214 0.0
H3431 H 0.2573 0.52623 0.2902 0.0
H3432 H 0.24554 0.51816 0.30023 0.0
H3433 H 0.25267 0.53329 0.30534 0.0
H3434 H 0.209 0.53684 0.25626 0.0
H3435 H 0.21371 0.52091 0.2612 0.0
H3436 H 0.22462 0.53088 0.25194 0.0
H3437 H 0.28787 0.50388 0.22203 0.0
H3438 H 0.26339 0.47201 0.24604 0.0
H3439 H 0.24702 0.47257 0.26235 0.0
H3440 H 0.22554 0.50601 0.28528 0.0
H3441 H 0.25002 0.53791 0.26122 0.0
H3442 H 0.26608 0.53735 0.24458 0.0
H3443 H 0.23436 0.42323 0.29829 0.0
H3444 H 0.23806 0.43788 0.28964 0.0
H3445 H 0.2257 0.42702 0.28364 0.0
C3446 C 0.80604 0.45401 0.31401 0.0
C3447 C 0.79784 0.44387 0.30684 0.0
C3448 C 0.78989 0.4576 0.28922 0.0
C3449 C 0.78022 0.46376 0.29624 0.0
C3450 C 0.77399 0.47453 0.29113 0.0
C3451 C 0.77761 0.47939 0.27884 0.0
C3452 C 0.78721 0.47311 0.27167 0.0
C3453 C 0.79308 0.46218 0.27689 0.0
C3454 C 0.76364 0.48083 0.29898 0.0
C3455 C 0.79144 0.47808 0.25859 0.0
C3456 C 0.7854 0.57893 0.27736 0.0
C3457 C 0.79541 0.57288 0.28633 0.0
C3458 C 0.78603 0.55095 0.28842 0.0
C3459 C 0.78997 0.54642 0.27632 0.0
C3460 C 0.78549 0.53445 0.27172 0.0
C3461 C 0.7767 0.52696 0.27924 0.0
C3462 C 0.77291 0.53137 0.29152 0.0
C3463 C 0.77776 0.54325 0.296 0.0
C3464 C 0.79003 0.5299 0.25872 0.0
C3465 C 0.76361 0.52363 0.29984 0.0
C3466 C 0.71586 0.54928 0.2219 0.0
C3467 C 0.72771 0.54456 0.21756 0.0
C3468 C 0.73241 0.53285 0.22226 0.0
C3469 C 0.72528 0.52583 0.23171 0.0
C3470 C 0.71325 0.53043 0.23594 0.0
C3471 C 0.70864 0.54203 0.23085 0.0
C3472 C 0.74508 0.52806 0.21719 0.0
C3473 C 0.70537 0.52321 0.246 0.0
C3474 C 0.71063 0.42696 0.23757 0.0
C3475 C 0.70173 0.43374 0.22796 0.0
C3476 C 0.7134 0.45445 0.22495 0.0
C3477 C 0.72223 0.46115 0.21706 0.0
C3478 C 0.72788 0.47291 0.22096 0.0
C3479 C 0.72443 0.47819 0.23299 0.0
C3480 C 0.71519 0.47168 0.24085 0.0
C3481 C 0.70987 0.45984 0.23682 0.0
C3482 C 0.73768 0.47961 0.21233 0.0
C3483 C 0.71101 0.47718 0.25359 0.0
C3484 C 0.77165 0.49128 0.27372 0.0
C3485 C 0.77643 0.50313 0.27821 0.0
C3486 C 0.77115 0.51472 0.27407 0.0
C3487 C 0.76082 0.51457 0.26513 0.0
C3488 C 0.75514 0.52603 0.26091 0.0
C3489 C 0.7452 0.52582 0.25188 0.0
C3490 C 0.74049 0.51413 0.24676 0.0
C3491 C 0.73058 0.51384 0.23735 0.0
C3492 C 0.72572 0.50201 0.23292 0.0
C3493 C 0.73059 0.49039 0.23751 0.0
C3494 C 0.74084 0.49051 0.24655 0.0
C3495 C 0.74624 0.47901 0.25108 0.0
C3496 C 0.75626 0.47923 0.26004 0.0
C3497 C 0.76136 0.49095 0.26473 0.0
C3498 C 0.756 0.50265 0.26035 0.0
C3499 C 0.74577 0.50242 0.25121 0.0
C3500 C 0.72721 0.57727 0.22124 0.0
C3501 C 0.71784 0.57075 0.21172 0.0
O3502 O 0.79644 0.44737 0.29397 0.0
O3503 O 0.70867 0.44285 0.22078 0.0
O3504 O 0.71108 0.56074 0.21783 0.0
O3505 O 0.78984 0.56263 0.29314 0.0
H3506 H 0.78816 0.44303 0.31143 0.0
H3507 H 0.80122 0.46344 0.31392 0.0
H3508 H 0.81568 0.45525 0.30939 0.0
H3509 H 0.80738 0.45106 0.32424 0.0
H3510 H 0.77746 0.46027 0.30571 0.0
H3511 H 0.80049 0.45734 0.2715 0.0
H3512 H 0.76731 0.49032 0.3024 0.0
H3513 H 0.76071 0.47493 0.30751 0.0
H3514 H 0.75498 0.48254 0.29293 0.0
H3515 H 0.79971 0.4727 0.25469 0.0
H3516 H 0.79423 0.48844 0.25918 0.0
H3517 H 0.78327 0.47721 0.25169 0.0
H3518 H 0.80364 0.5694 0.28055 0.0
H3519 H 0.78976 0.58723 0.27198 0.0
H3520 H 0.77703 0.58231 0.28302 0.0
H3521 H 0.78183 0.57181 0.2702 0.0
H3522 H 0.79649 0.55213 0.27035 0.0
H3523 H 0.77485 0.54675 0.30536 0.0
H3524 H 0.79313 0.51975 0.25938 0.0
H3525 H 0.79817 0.53592 0.25489 0.0
H3526 H 0.78192 0.53026 0.25173 0.0
H3527 H 0.76069 0.52895 0.30859 0.0
H3528 H 0.76821 0.51457 0.30292 0.0
H3529 H 0.75481 0.52099 0.29424 0.0
H3530 H 0.72332 0.56689 0.20345 0.0
H3531 H 0.7334 0.5499 0.21052 0.0
H3532 H 0.69948 0.54567 0.23409 0.0
H3533 H 0.7526 0.52912 0.22475 0.0
H3534 H 0.74839 0.53349 0.20848 0.0
H3535 H 0.74421 0.51768 0.21476 0.0
H3536 H 0.69677 0.52862 0.24905 0.0
H3537 H 0.71141 0.52123 0.25461 0.0
H3538 H 0.70206 0.5138 0.24205 0.0
H3539 H 0.69397 0.43855 0.23338 0.0
H3540 H 0.70509 0.41951 0.24314 0.0
H3541 H 0.71479 0.43397 0.24453 0.0
H3542 H 0.71869 0.42231 0.23246 0.0
H3543 H 0.72487 0.457 0.2079 0.0
H3544 H 0.703 0.45493 0.24308 0.0
H3545 H 0.74677 0.48147 0.21775 0.0
H3546 H 0.73396 0.48908 0.20919 0.0
H3547 H 0.73989 0.47389 0.20362 0.0
H3548 H 0.70264 0.47177 0.25782 0.0
H3549 H 0.70838 0.48742 0.25235 0.0
H3550 H 0.71916 0.47685 0.26053 0.0
H3551 H 0.78436 0.50334 0.28506 0.0
H3552 H 0.75835 0.53533 0.26448 0.0
H3553 H 0.74125 0.53495 0.24897 0.0
H3554 H 0.718 0.50184 0.22584 0.0
H3555 H 0.74279 0.46971 0.24774 0.0
H3556 H 0.75999 0.47008 0.26321 0.0
H3557 H 0.72186 0.58104 0.22965 0.0
H3558 H 0.73258 0.58536 0.21647 0.0
H3559 H 0.73439 0.57031 0.22482 0.0
C3560 C 0.54867 0.19536 0.69713 0.0
C3561 C 0.55752 0.20735 0.69784 0.0
C3562 C 0.54817 0.21899 0.71564 0.0
C3563 C 0.5433 0.22989 0.70939 0.0
C3564 C 0.53284 0.23649 0.71458 0.0
C3565 C 0.52713 0.23207 0.72624 0.0
C3566 C 0.53236 0.22139 0.73282 0.0
C3567 C 0.54297 0.2151 0.72751 0.0
C3568 C 0.52772 0.24803 0.70747 0.0
C3569 C 0.52649 0.21636 0.74524 0.0
C3570 C 0.45707 0.20236 0.68899 0.0
C3571 C 0.44665 0.20579 0.69882 0.0
C3572 C 0.45827 0.22334 0.70978 0.0
C3573 C 0.46406 0.21628 0.71975 0.0
C3574 C 0.47467 0.22141 0.72658 0.0
C3575 C 0.47972 0.23376 0.72325 0.0
C3576 C 0.47376 0.24098 0.71335 0.0
C3577 C 0.46294 0.23575 0.70692 0.0
C3578 C 0.48058 0.21354 0.73727 0.0
C3579 C 0.47901 0.25407 0.70933 0.0
C3580 C 0.45582 0.29072 0.78441 0.0
C3581 C 0.46052 0.27899 0.78905 0.0
C3582 C 0.47213 0.27409 0.78434 0.0
C3583 C 0.47914 0.28104 0.77476 0.0
C3584 C 0.47459 0.29304 0.77032 0.0
C3585 C 0.46305 0.29779 0.77533 0.0
C3586 C 0.47692 0.26148 0.78963 0.0
C3587 C 0.48187 0.30076 0.76019 0.0
C3588 C 0.57845 0.29306 0.77717 0.0
C3589 C 0.57151 0.30099 0.78737 0.0
C3590 C 0.55017 0.28997 0.78738 0.0
C3591 C 0.54278 0.28041 0.79364 0.0
C3592 C 0.53121 0.27563 0.78827 0.0
C3593 C 0.52682 0.28073 0.77641 0.0
C3594 C 0.53403 0.2907 0.77019 0.0
C3595 C 0.54567 0.29517 0.77568 0.0
C3596 C 0.52376 0.26501 0.79518 0.0
C3597 C 0.52948 0.29656 0.75767 0.0
C3598 C 0.51512 0.23801 0.73103 0.0
C3599 C 0.50344 0.23391 0.72551 0.0
C3600 C 0.49166 0.23876 0.72961 0.0
C3601 C 0.49145 0.24797 0.73959 0.0
C3602 C 0.47978 0.25285 0.74418 0.0
C3603 C 0.47969 0.26201 0.75391 0.0
C3604 C 0.49127 0.26656 0.75953 0.0
C3605 C 0.49128 0.27582 0.76948 0.0
C3606 C 0.50299 0.28021 0.77474 0.0
C3607 C 0.51477 0.27554 0.77042 0.0
C3608 C 0.51496 0.26615 0.7606 0.0
C3609 C 0.52663 0.26109 0.75617 0.0
C3610 C 0.52672 0.25192 0.74645 0.0
C3611 C 0.51514 0.24739 0.74084 0.0
C3612 C 0.50325 0.25236 0.74516 0.0
C3613 C 0.50316 0.2617 0.7551 0.0
C3614 C 0.42631 0.28748 0.77687 0.0
C3615 C 0.433 0.2886 0.79 0.0
O3616 O 0.55772 0.21199 0.71036 0.0
O3617 O 0.56151 0.2938 0.79295 0.0
O3618 O 0.44451 0.29557 0.78865 0.0
O3619 O 0.44827 0.21849 0.70267 0.0
H3620 H 0.55357 0.21473 0.69121 0.0
H3621 H 0.53865 0.19786 0.69978 0.0
H3622 H 0.55202 0.18777 0.70387 0.0
H3623 H 0.54852 0.19149 0.68716 0.0
H3624 H 0.54766 0.23325 0.70046 0.0
H3625 H 0.54691 0.20677 0.73233 0.0
H3626 H 0.51798 0.24563 0.70357 0.0
H3627 H 0.53408 0.25113 0.69935 0.0
H3628 H 0.52669 0.25621 0.7142 0.0
H3629 H 0.53146 0.20772 0.74897 0.0
H3630 H 0.51613 0.21384 0.74371 0.0
H3631 H 0.52701 0.22397 0.75269 0.0
H3632 H 0.44749 0.19927 0.70731 0.0
H3633 H 0.45564 0.19227 0.6857 0.0
H3634 H 0.46679 0.20323 0.69346 0.0
H3635 H 0.45674 0.20893 0.68049 0.0
H3636 H 0.46031 0.20682 0.72235 0.0
H3637 H 0.45835 0.24116 0.69928 0.0
H3638 H 0.48208 0.21954 0.74599 0.0
H3639 H 0.49017 0.21018 0.73413 0.0
H3640 H 0.47448 0.20498 0.7399 0.0
H3641 H 0.474 0.25792 0.7007 0.0
H3642 H 0.4895 0.25355 0.70718 0.0
H3643 H 0.47787 0.26096 0.71736 0.0
H3644 H 0.43492 0.27871 0.7935 0.0
H3645 H 0.45531 0.27374 0.79653 0.0
H3646 H 0.45944 0.30693 0.77195 0.0
H3647 H 0.47691 0.25421 0.78184 0.0
H3648 H 0.47086 0.25771 0.79771 0.0
H3649 H 0.48702 0.26272 0.79307 0.0
H3650 H 0.47667 0.30954 0.7572 0.0
H3651 H 0.48347 0.29473 0.75155 0.0
H3652 H 0.4915 0.30371 0.764 0.0
H3653 H 0.56754 0.30975 0.78274 0.0
H3654 H 0.58661 0.29876 0.77292 0.0
H3655 H 0.57174 0.29036 0.76924 0.0
H3656 H 0.58224 0.28409 0.78152 0.0
H3657 H 0.54626 0.27651 0.80269 0.0
H3658 H 0.55115 0.30269 0.77075 0.0
H3659 H 0.52214 0.25674 0.7886 0.0
H3660 H 0.51413 0.26852 0.79803 0.0
H3661 H 0.52883 0.26158 0.80396 0.0
H3662 H 0.53553 0.30502 0.75466 0.0
H3663 H 0.51931 0.29959 0.75861 0.0
H3664 H 0.52978 0.28925 0.74993 0.0
H3665 H 0.50351 0.22677 0.71792 0.0
H3666 H 0.47057 0.24966 0.74027 0.0
H3667 H 0.47041 0.26548 0.75699 0.0
H3668 H 0.50293 0.28735 0.78233 0.0
H3669 H 0.53584 0.26417 0.76016 0.0
H3670 H 0.53598 0.24841 0.74339 0.0
H3671 H 0.41704 0.28197 0.77781 0.0
H3672 H 0.43257 0.28231 0.77003 0.0
H3673 H 0.42438 0.29718 0.77281 0.0
C3674 C 0.5536 0.70608 0.82075 0.0
C3675 C 0.56004 0.70342 0.80777 0.0
C3676 C 0.55164 0.71992 0.79371 0.0
C3677 C 0.54568 0.71298 0.78373 0.0
C3678 C 0.5351 0.718 0.77703 0.0
C3679 C 0.53032 0.73016 0.78051 0.0
C3680 C 0.5366 0.73734 0.79035 0.0
C3681 C 0.54735 0.7322 0.79667 0.0
C3682 C 0.52885 0.71017 0.76643 0.0
C3683 C 0.53168 0.75023 0.79451 0.0
C3684 C 0.45873 0.69967 0.81781 0.0
C3685 C 0.4484 0.70745 0.81078 0.0
C3686 C 0.46134 0.71516 0.79224 0.0
C3687 C 0.4679 0.72532 0.79855 0.0
C3688 C 0.47847 0.73174 0.79272 0.0
C3689 C 0.48273 0.72783 0.78042 0.0
C3690 C 0.47605 0.71773 0.77397 0.0
C3691 C 0.46531 0.71169 0.77989 0.0
C3692 C 0.48523 0.74259 0.79982 0.0
C3693 C 0.48045 0.71311 0.76096 0.0
C3694 C 0.45791 0.78772 0.72133 0.0
C3695 C 0.46328 0.79236 0.73291 0.0
C3696 C 0.47496 0.78758 0.73767 0.0
C3697 C 0.48132 0.77783 0.73083 0.0
C3698 C 0.47602 0.77324 0.71911 0.0
C3699 C 0.46443 0.77833 0.71448 0.0
C3700 C 0.48049 0.79292 0.75005 0.0
C3701 C 0.48254 0.76288 0.71154 0.0
C3702 C 0.58137 0.78551 0.72593 0.0
C3703 C 0.57491 0.78696 0.71272 0.0
C3704 C 0.55226 0.78866 0.71867 0.0
C3705 C 0.54555 0.79562 0.72787 0.0
C3706 C 0.53409 0.79065 0.7334 0.0
C3707 C 0.52907 0.77857 0.72932 0.0
C3708 C 0.53553 0.77175 0.71956 0.0
C3709 C 0.5471 0.77683 0.71438 0.0
C3710 C 0.52744 0.79823 0.74373 0.0
C3711 C 0.5302 0.75908 0.7146 0.0
C3712 C 0.51816 0.73485 0.77463 0.0
C3713 C 0.50651 0.72967 0.77937 0.0
C3714 C 0.49462 0.73379 0.7747 0.0
C3715 C 0.49426 0.74346 0.76503 0.0
C3716 C 0.48248 0.74807 0.76031 0.0
C3717 C 0.48223 0.75752 0.75073 0.0
C3718 C 0.49374 0.76283 0.74557 0.0
C3719 C 0.49357 0.77251 0.73589 0.0
C3720 C 0.50522 0.77742 0.73085 0.0
C3721 C 0.51711 0.77303 0.73528 0.0
C3722 C 0.51747 0.7635 0.7451 0.0
C3723 C 0.52925 0.75901 0.74995 0.0
C3724 C 0.52951 0.74958 0.75955 0.0
C3725 C 0.518 0.74434 0.76476 0.0
C3726 C 0.506 0.74869 0.75999 0.0
C3727 C 0.50573 0.75834 0.75021 0.0
C3728 C 0.43035 0.79096 0.733 0.0
C3729 C 0.43729 0.79914 0.72262 0.0
O3730 O 0.56134 0.71482 0.80077 0.0
O3731 O 0.56355 0.79368 0.71396 0.0
O3732 O 0.44653 0.79194 0.71641 0.0
O3733 O 0.45132 0.70838 0.79773 0.0
H3734 H 0.55371 0.69651 0.80242 0.0
H3735 H 0.54383 0.71 0.81915 0.0
H3736 H 0.55943 0.7132 0.82635 0.0
H3737 H 0.55252 0.69703 0.82648 0.0
H3738 H 0.54927 0.7036 0.78123 0.0
H3739 H 0.55211 0.7375 0.80435 0.0
H3740 H 0.51925 0.7065 0.76974 0.0
H3741 H 0.53475 0.70183 0.76367 0.0
H3742 H 0.52729 0.7163 0.75777 0.0
H3743 H 0.53711 0.75419 0.80288 0.0
H3744 H 0.5213 0.74933 0.79712 0.0
H3745 H 0.53253 0.75721 0.78638 0.0
H3746 H 0.44804 0.71725 0.81494 0.0
H3747 H 0.45641 0.69876 0.82825 0.0
H3748 H 0.46833 0.70455 0.81694 0.0
H3749 H 0.45933 0.68988 0.81363 0.0
H3750 H 0.46491 0.7283 0.80803 0.0
H3751 H 0.46017 0.7039 0.77506 0.0
H3752 H 0.49489 0.73943 0.80303 0.0
H3753 H 0.47973 0.74565 0.80843 0.0
H3754 H 0.48671 0.75104 0.79331 0.0
H3755 H 0.47484 0.70449 0.75769 0.0
H3756 H 0.49084 0.71072 0.76133 0.0
H3757 H 0.47935 0.7209 0.75368 0.0
H3758 H 0.44206 0.80762 0.72723 0.0
H3759 H 0.45849 0.79972 0.73831 0.0
H3760 H 0.46029 0.77484 0.70553 0.0
H3761 H 0.48032 0.78528 0.7576 0.0
H3762 H 0.475 0.80124 0.75363 0.0
H3763 H 0.49072 0.79602 0.74858 0.0
H3764 H 0.47674 0.75972 0.70307 0.0
H3765 H 0.48425 0.7544 0.71785 0.0
H3766 H 0.49209 0.76653 0.70809 0.0
H3767 H 0.57279 0.77714 0.70898 0.0
H3768 H 0.59056 0.78027 0.725 0.0
H3769 H 0.57491 0.77991 0.73255 0.0
H3770 H 0.58343 0.79509 0.73026 0.0
H3771 H 0.54952 0.80483 0.73097 0.0
H3772 H 0.55196 0.77166 0.70685 0.0
H3773 H 0.52591 0.79212 0.75245 0.0
H3774 H 0.5178 0.80114 0.74022 0.0
H3775 H 0.53306 0.80702 0.74647 0.0
H3776 H 0.5356 0.75566 0.70608 0.0
H3777 H 0.51987 0.76001 0.71193 0.0
H3778 H 0.53074 0.75166 0.72233 0.0
H3779 H 0.5067 0.72236 0.7869 0.0
H3780 H 0.47332 0.7444 0.76397 0.0
H3781 H 0.47287 0.76063 0.74743 0.0
H3782 H 0.50502 0.78478 0.72337 0.0
H3783 H 0.53842 0.76275 0.74638 0.0
H3784 H 0.53885 0.74645 0.76287 0.0
H3785 H 0.42281 0.79667 0.7378 0.0
H3786 H 0.43726 0.78781 0.7405 0.0
H3787 H 0.42573 0.78226 0.72866 0.0
C3788 C 0.45449 0.82184 0.29656 0.0
C3789 C 0.44434 0.81264 0.29065 0.0
C3790 C 0.45838 0.79448 0.28565 0.0
C3791 C 0.46457 0.80011 0.27485 0.0
C3792 C 0.47537 0.79439 0.26927 0.0
C3793 C 0.4801 0.78284 0.27459 0.0
C3794 C 0.4737 0.77697 0.28524 0.0
C3795 C 0.46285 0.78282 0.29054 0.0
C3796 C 0.48186 0.80081 0.25781 0.0
C3797 C 0.47851 0.76467 0.29119 0.0
C3798 C 0.55294 0.82229 0.30137 0.0
C3799 C 0.55935 0.80919 0.30258 0.0
C3800 C 0.54937 0.79651 0.28555 0.0
C3801 C 0.54305 0.78658 0.29247 0.0
C3802 C 0.53226 0.78007 0.28724 0.0
C3803 C 0.52771 0.78362 0.27487 0.0
C3804 C 0.53431 0.7934 0.26774 0.0
C3805 C 0.54522 0.79958 0.27311 0.0
C3806 C 0.52563 0.7695 0.29499 0.0
C3807 C 0.52967 0.79753 0.25457 0.0
C3808 C 0.55109 0.72081 0.21985 0.0
C3809 C 0.54563 0.71666 0.23164 0.0
C3810 C 0.53398 0.72171 0.23606 0.0
C3811 C 0.52773 0.73122 0.22866 0.0
C3812 C 0.53311 0.7353 0.21672 0.0
C3813 C 0.54466 0.72995 0.21244 0.0
C3814 C 0.52837 0.71692 0.2487 0.0
C3815 C 0.52671 0.74542 0.20856 0.0
C3816 C 0.42832 0.73524 0.21656 0.0
C3817 C 0.43514 0.72799 0.20577 0.0
C3818 C 0.45629 0.72421 0.21556 0.0
C3819 C 0.4618 0.71724 0.22567 0.0
C3820 C 0.47356 0.72125 0.23126 0.0
C3821 C 0.48008 0.73238 0.22643 0.0
C3822 C 0.47487 0.73914 0.21582 0.0
C3823 C 0.46305 0.73502 0.21051 0.0
C3824 C 0.47891 0.71377 0.24251 0.0
C3825 C 0.48177 0.75084 0.21016 0.0
C3826 C 0.49214 0.77728 0.26945 0.0
C3827 C 0.50391 0.78232 0.27396 0.0
C3828 C 0.51567 0.77757 0.26969 0.0
C3829 C 0.51577 0.76738 0.26072 0.0
C3830 C 0.52741 0.76222 0.25637 0.0
C3831 C 0.5274 0.75229 0.24742 0.0
C3832 C 0.51575 0.74707 0.24255 0.0
C3833 C 0.51564 0.73697 0.23344 0.0
C3834 C 0.50388 0.73222 0.2286 0.0
C3835 C 0.49214 0.73723 0.23263 0.0
C3836 C 0.49205 0.74714 0.24192 0.0
C3837 C 0.4804 0.75226 0.24634 0.0
C3838 C 0.4804 0.76212 0.25535 0.0
C3839 C 0.49204 0.76724 0.2603 0.0
C3840 C 0.5039 0.76224 0.25597 0.0
C3841 C 0.5039 0.75212 0.24683 0.0
C3842 C 0.57859 0.71782 0.23186 0.0
C3843 C 0.57156 0.70928 0.22196 0.0
O3844 O 0.44828 0.79999 0.29176 0.0
O3845 O 0.44456 0.72019 0.21097 0.0
O3846 O 0.56249 0.71638 0.21529 0.0
O3847 O 0.5595 0.80324 0.29065 0.0
H3848 H 0.44297 0.81506 0.28028 0.0
H3849 H 0.46382 0.82128 0.29136 0.0
H3850 H 0.45615 0.81935 0.30686 0.0
H3851 H 0.45126 0.83195 0.29589 0.0
H3852 H 0.46114 0.80901 0.27078 0.0
H3853 H 0.45797 0.77848 0.29879 0.0
H3854 H 0.49166 0.8043 0.26061 0.0
H3855 H 0.47635 0.8091 0.25407 0.0
H3856 H 0.483 0.79374 0.24993 0.0
H3857 H 0.47266 0.7615 0.29965 0.0
H3858 H 0.48872 0.76605 0.29428 0.0
H3859 H 0.47825 0.7569 0.2839 0.0
H3860 H 0.55356 0.80328 0.30956 0.0
H3861 H 0.5529 0.82719 0.31086 0.0
H3862 H 0.55811 0.82854 0.29424 0.0
H3863 H 0.54277 0.82094 0.29814 0.0
H3864 H 0.54658 0.78386 0.30191 0.0
H3865 H 0.5503 0.80717 0.26781 0.0
H3866 H 0.5159 0.77265 0.29791 0.0
H3867 H 0.53114 0.76696 0.30381 0.0
H3868 H 0.52432 0.76074 0.289 0.0
H3869 H 0.53546 0.80577 0.2506 0.0
H3870 H 0.51939 0.80031 0.2551 0.0
H3871 H 0.53025 0.78935 0.24779 0.0
H3872 H 0.56663 0.70105 0.22696 0.0
H3873 H 0.55036 0.70951 0.23749 0.0
H3874 H 0.54887 0.73306 0.20334 0.0
H3875 H 0.52875 0.72481 0.25585 0.0
H3876 H 0.53368 0.70861 0.25269 0.0
H3877 H 0.51807 0.71401 0.2474 0.0
H3878 H 0.5326 0.74824 0.2 0.0
H3879 H 0.52498 0.75413 0.2144 0.0
H3880 H 0.51718 0.74168 0.20519 0.0
H3881 H 0.43953 0.73542 0.19935 0.0
H3882 H 0.42022 0.74086 0.21256 0.0
H3883 H 0.43524 0.74206 0.22124 0.0
H3884 H 0.42452 0.72848 0.22407 0.0
H3885 H 0.45665 0.70881 0.22941 0.0
H3886 H 0.45932 0.74025 0.20234 0.0
H3887 H 0.48002 0.72019 0.25098 0.0
H3888 H 0.48864 0.71026 0.24005 0.0
H3889 H 0.47261 0.7054 0.24525 0.0
H3890 H 0.47696 0.75448 0.20132 0.0
H3891 H 0.4919 0.7485 0.20777 0.0
H3892 H 0.48209 0.75866 0.2174 0.0
H3893 H 0.50391 0.79009 0.28091 0.0
H3894 H 0.53666 0.76582 0.25981 0.0
H3895 H 0.53666 0.74877 0.24436 0.0
H3896 H 0.50386 0.72462 0.22148 0.0
H3897 H 0.47114 0.74869 0.24289 0.0
H3898 H 0.47115 0.7657 0.25838 0.0
H3899 H 0.58594 0.71222 0.23716 0.0
H3900 H 0.57168 0.72152 0.23904 0.0
H3901 H 0.58345 0.72616 0.22699 0.0
C3902 C 0.54902 0.18517 0.30265 0.0
C3903 C 0.5594 0.19329 0.29557 0.0
C3904 C 0.54686 0.21261 0.29089 0.0
C3905 C 0.54 0.2076 0.28026 0.0
C3906 C 0.52942 0.21407 0.27504 0.0
C3907 C 0.52546 0.22571 0.28062 0.0
C3908 C 0.53252 0.23098 0.29109 0.0
C3909 C 0.54322 0.22442 0.29599 0.0
C3910 C 0.52231 0.20829 0.26368 0.0
C3911 C 0.52856 0.24339 0.29727 0.0
C3912 C 0.42603 0.22727 0.29008 0.0
C3913 C 0.43199 0.21858 0.30041 0.0
C3914 C 0.45384 0.21671 0.29133 0.0
C3915 C 0.45873 0.22878 0.29531 0.0
C3916 C 0.47069 0.23356 0.29078 0.0
C3917 C 0.47777 0.22629 0.28182 0.0
C3918 C 0.47299 0.21403 0.278 0.0
C3919 C 0.46117 0.20934 0.28296 0.0
C3920 C 0.47567 0.24648 0.29545 0.0
C3921 C 0.48028 0.20592 0.26857 0.0
C3922 C 0.45444 0.28482 0.22176 0.0
C3923 C 0.45954 0.2895 0.23345 0.0
C3924 C 0.47123 0.28491 0.23837 0.0
C3925 C 0.47788 0.27532 0.23157 0.0
C3926 C 0.47287 0.27073 0.21973 0.0
C3927 C 0.46127 0.27563 0.21494 0.0
C3928 C 0.47644 0.29024 0.25088 0.0
C3929 C 0.4797 0.26052 0.21221 0.0
C3930 C 0.57812 0.28315 0.22774 0.0
C3931 C 0.57145 0.28513 0.21471 0.0
C3932 C 0.54884 0.28648 0.22102 0.0
C3933 C 0.54201 0.29325 0.23028 0.0
C3934 C 0.53054 0.28813 0.23564 0.0
C3935 C 0.52564 0.27608 0.23134 0.0
C3936 C 0.53224 0.26942 0.22156 0.0
C3937 C 0.54382 0.27466 0.21655 0.0
C3938 C 0.52372 0.29554 0.24597 0.0
C3939 C 0.52703 0.2568 0.21639 0.0
C3940 C 0.51348 0.23187 0.27592 0.0
C3941 C 0.50169 0.22722 0.28086 0.0
C3942 C 0.48994 0.2317 0.27617 0.0
C3943 C 0.48989 0.24111 0.26622 0.0
C3944 C 0.47826 0.24548 0.26092 0.0
C3945 C 0.47827 0.25489 0.2513 0.0
C3946 C 0.48992 0.26029 0.24657 0.0
C3947 C 0.49001 0.27001 0.23693 0.0
C3948 C 0.50178 0.27495 0.23224 0.0
C3949 C 0.51354 0.2705 0.23695 0.0
C3950 C 0.51364 0.26091 0.24672 0.0
C3951 C 0.52528 0.25627 0.25177 0.0
C3952 C 0.52527 0.24671 0.26127 0.0
C3953 C 0.51362 0.24158 0.26626 0.0
C3954 C 0.50176 0.24619 0.26139 0.0
C3955 C 0.50177 0.25581 0.25156 0.0
C3956 C 0.42666 0.28726 0.23312 0.0
C3957 C 0.43351 0.29568 0.22288 0.0
O3958 O 0.55683 0.20632 0.2966 0.0
O3959 O 0.56008 0.29171 0.21642 0.0
O3960 O 0.44302 0.2888 0.21673 0.0
O3961 O 0.44214 0.21183 0.2952 0.0
H3962 H 0.55941 0.19056 0.28523 0.0
H3963 H 0.5394 0.18659 0.29821 0.0
H3964 H 0.54851 0.18793 0.31297 0.0
H3965 H 0.55122 0.17477 0.30204 0.0
H3966 H 0.5427 0.19861 0.27597 0.0
H3967 H 0.54859 0.22831 0.30411 0.0
H3968 H 0.5125 0.20507 0.26675 0.0
H3969 H 0.52735 0.19991 0.2596 0.0
H3970 H 0.52118 0.21565 0.25596 0.0
H3971 H 0.53502 0.24622 0.30537 0.0
H3972 H 0.51852 0.24235 0.30095 0.0
H3973 H 0.52869 0.25125 0.28995 0.0
H3974 H 0.43561 0.22454 0.30855 0.0
H3975 H 0.42253 0.22143 0.28179 0.0
H3976 H 0.43328 0.23446 0.28649 0.0
H3977 H 0.4178 0.23259 0.29413 0.0
H3978 H 0.45333 0.23456 0.30194 0.0
H3979 H 0.4574 0.19999 0.28003 0.0
H3980 H 0.48605 0.24598 0.29807 0.0
H3981 H 0.4702 0.24988 0.30393 0.0
H3982 H 0.47479 0.25372 0.28759 0.0
H3983 H 0.47448 0.19743 0.26529 0.0
H3984 H 0.48919 0.20243 0.27327 0.0
H3985 H 0.48323 0.21175 0.26001 0.0
H3986 H 0.43799 0.30426 0.22761 0.0
H3987 H 0.45452 0.29673 0.23881 0.0
H3988 H 0.45732 0.27212 0.20591 0.0
H3989 H 0.47609 0.28259 0.25841 0.0
H3990 H 0.47084 0.29854 0.25434 0.0
H3991 H 0.4867 0.29336 0.24968 0.0
H3992 H 0.47415 0.25741 0.20357 0.0
H3993 H 0.48133 0.25199 0.21848 0.0
H3994 H 0.4893 0.26431 0.20905 0.0
H3995 H 0.56935 0.27547 0.21056 0.0
H3996 H 0.58732 0.27802 0.22644 0.0
H3997 H 0.57179 0.27722 0.23421 0.0
H3998 H 0.58018 0.29254 0.23247 0.0
H3999 H 0.54588 0.30246 0.23351 0.0
H4000 H 0.54875 0.26963 0.20897 0.0
H4001 H 0.52204 0.2893 0.25458 0.0
H4002 H 0.51413 0.29851 0.24235 0.0
H4003 H 0.52928 0.30429 0.24894 0.0
H4004 H 0.53265 0.25342 0.20798 0.0
H4005 H 0.51678 0.25777 0.21346 0.0
H4006 H 0.52735 0.24933 0.22408 0.0
H4007 H 0.50165 0.21985 0.28833 0.0
H4008 H 0.46898 0.24168 0.26414 0.0
H4009 H 0.46901 0.25788 0.24762 0.0
H4010 H 0.50179 0.28235 0.22481 0.0
H4011 H 0.53455 0.25995 0.24839 0.0
H4012 H 0.53452 0.24346 0.26473 0.0
H4013 H 0.41889 0.29272 0.23786 0.0
H4014 H 0.43356 0.28426 0.2407 0.0
H4015 H 0.42234 0.27846 0.22868 0.0
C4016 C 0.17455 0.20987 0.09218 0.0
C4017 C 0.18192 0.20259 0.10087 0.0
C4018 C 0.18036 0.21677 0.082 0.0
C4019 C 0.19379 0.21662 0.07996 0.0
H4020 H 0.16419 0.21047 0.09344 0.0
H4021 H 0.17429 0.2226 0.07588 0.0
S4022 S 0.21744 0.19881 0.09975 0.0
N4023 N 0.20337 0.19545 0.10664 0.0
N4024 N 0.21429 0.20829 0.08734 0.0
C4025 C 0.20125 0.20904 0.08833 0.0
C4026 C 0.19532 0.20203 0.09877 0.0
C4027 C 0.81123 0.19704 0.09014 0.0
C4028 C 0.80555 0.19757 0.10243 0.0
C4029 C 0.80763 0.20556 0.08026 0.0
C4030 C 0.79797 0.2147 0.08223 0.0
H4031 H 0.81878 0.19025 0.08828 0.0
H4032 H 0.8126 0.20508 0.0711 0.0
S4033 S 0.77994 0.21968 0.11264 0.0
N4034 N 0.78974 0.20779 0.11602 0.0
N4035 N 0.7828 0.22365 0.09744 0.0
C4036 C 0.79211 0.21515 0.09446 0.0
C4037 C 0.7959 0.20661 0.10454 0.0
C4038 C 0.80125 0.82899 0.09558 0.0
C4039 C 0.81349 0.82505 0.0997 0.0
C4040 C 0.79576 0.8244 0.08412 0.0
C4041 C 0.80221 0.8156 0.07628 0.0
H4042 H 0.79592 0.83585 0.10119 0.0
H4043 H 0.78648 0.82806 0.08119 0.0
S4044 S 0.83454 0.80223 0.08275 0.0
N4045 N 0.83193 0.81176 0.09512 0.0
N4046 N 0.82158 0.80309 0.07351 0.0
C4047 C 0.81439 0.81138 0.0804 0.0
C4048 C 0.81999 0.81606 0.09214 0.0
C4049 C 0.18851 0.81398 0.09092 0.0
C4050 C 0.19679 0.82352 0.09611 0.0
C4051 C 0.19137 0.80798 0.07924 0.0
C4052 C 0.20268 0.81118 0.07229 0.0
H4053 H 0.17957 0.81132 0.09576 0.0
H4054 H 0.18454 0.80089 0.0755 0.0
S4055 S 0.2277 0.83544 0.08181 0.0
N4056 N 0.21699 0.83569 0.09358 0.0
N4057 N 0.22216 0.82469 0.07142 0.0
C4058 C 0.21106 0.82073 0.07736 0.0
C4059 C 0.20818 0.8268 0.08932 0.0
C4060 C 0.18615 0.81286 0.91448 0.0
C4061 C 0.19526 0.81867 0.90609 0.0
C4062 C 0.18998 0.80458 0.92444 0.0
C4063 C 0.20308 0.80184 0.92646 0.0
H4064 H 0.17595 0.81466 0.91328 0.0
H4065 H 0.18259 0.80014 0.9305 0.0
S4066 S 0.2307 0.81425 0.90686 0.0
N4067 N 0.21793 0.82086 0.90023 0.0
N4068 N 0.22515 0.80543 0.91904 0.0
C4069 C 0.2123 0.80764 0.91816 0.0
C4070 C 0.20839 0.81606 0.908 0.0
C4071 C 0.1963 0.20666 0.91133 0.0
C4072 C 0.19483 0.19365 0.90779 0.0
C4073 C 0.20458 0.21042 0.92141 0.0
C4074 C 0.2116 0.20129 0.92849 0.0
H4075 H 0.19128 0.21406 0.90603 0.0
H4076 H 0.20568 0.22058 0.92354 0.0
S4077 S 0.21074 0.16594 0.92343 0.0
N4078 N 0.2007 0.17158 0.9125 0.0
N4079 N 0.21639 0.17863 0.93129 0.0
C4080 C 0.21008 0.18823 0.92514 0.0
C4081 C 0.20166 0.18442 0.91487 0.0
C4082 C 0.81663 0.21534 0.90785 0.0
C4083 C 0.81502 0.20198 0.90613 0.0
C4084 C 0.80901 0.222 0.9166 0.0
C4085 C 0.79952 0.21558 0.92411 0.0
H4086 H 0.82367 0.22077 0.90216 0.0
H4087 H 0.81046 0.23233 0.9174 0.0
S4088 S 0.79161 0.18055 0.92347 0.0
N4089 N 0.80341 0.18247 0.91287 0.0
N4090 N 0.78891 0.19504 0.92921 0.0
C4091 C 0.79782 0.20219 0.92252 0.0
C4092 C 0.8056 0.19539 0.91359 0.0
C4093 C 0.82259 0.80222 0.90958 0.0
C4094 C 0.81464 0.81207 0.90498 0.0
C4095 C 0.81864 0.79411 0.91977 0.0
C4096 C 0.80663 0.79558 0.92588 0.0
H4097 H 0.83183 0.80057 0.90505 0.0
H4098 H 0.82496 0.78648 0.92277 0.0
S4099 S 0.78236 0.82015 0.91775 0.0
N4100 N 0.79437 0.82313 0.90762 0.0
N4101 N 0.78678 0.80767 0.92652 0.0
C4102 C 0.7986 0.80544 0.92142 0.0
C4103 C 0.80266 0.81373 0.91107 0.0
C4104 C 0.09235 0.17748 0.21292 0.0
C4105 C 0.09996 0.18435 0.20386 0.0
C4106 C 0.08229 0.18336 0.21951 0.0
C4107 C 0.07931 0.19634 0.21726 0.0
H4108 H 0.09431 0.1675 0.2151 0.0
H4109 H 0.07698 0.17775 0.22668 0.0
S4110 S 0.09629 0.2186 0.19444 0.0
N4111 N 0.10383 0.20485 0.19291 0.0
N4112 N 0.08479 0.21589 0.20522 0.0
C4113 C 0.08668 0.20327 0.20801 0.0
C4114 C 0.09698 0.19727 0.2013 0.0
C4115 C 0.83118 0.09591 0.20878 0.0
C4116 C 0.82328 0.10362 0.20102 0.0
C4117 C 0.82604 0.08547 0.21585 0.0
C4118 C 0.81279 0.0822 0.21539 0.0
H4119 H 0.84141 0.09813 0.20963 0.0
H4120 H 0.83247 0.08012 0.22204 0.0
S4121 S 0.78796 0.09915 0.19629 0.0
N4122 N 0.80154 0.10717 0.19309 0.0
N4123 N 0.79188 0.08739 0.20626 0.0
C4124 C 0.80482 0.0896 0.20735 0.0
C4125 C 0.81006 0.1003 0.20016 0.0
C4126 C 0.91518 0.80203 0.19517 0.0
C4127 C 0.90878 0.81353 0.19784 0.0
C4128 C 0.92499 0.79751 0.20326 0.0
C4129 C 0.92894 0.80443 0.21428 0.0
H4130 H 0.91256 0.79642 0.18675 0.0
H4131 H 0.9294 0.78847 0.20094 0.0
S4132 S 0.9147 0.83463 0.22606 0.0
N4133 N 0.90665 0.83136 0.21269 0.0
N4134 N 0.92525 0.82305 0.22772 0.0
C4135 C 0.92256 0.8159 0.21709 0.0
C4136 C 0.91251 0.82044 0.2089 0.0
C4137 C 0.19682 0.91233 0.19581 0.0
C4138 C 0.18954 0.90322 0.20301 0.0
C4139 C 0.20404 0.92212 0.20192 0.0
C4140 C 0.20416 0.92324 0.21546 0.0
H4141 H 0.19692 0.91189 0.18538 0.0
H4142 H 0.20965 0.92881 0.196 0.0
S4143 S 0.18765 0.90109 0.23871 0.0
N4144 N 0.18357 0.89543 0.22441 0.0
N4145 N 0.19699 0.91389 0.23586 0.0
C4146 C 0.1971 0.91403 0.22275 0.0
C4147 C 0.18979 0.90406 0.21654 0.0
C4148 C 0.1025 0.80016 0.80341 0.0
C4149 C 0.10492 0.79781 0.82066 0.0
C4150 C 0.09047 0.79055 0.79479 0.0
C4151 C 0.07946 0.78059 0.80542 0.0
H4152 H 0.10839 0.80716 0.79818 0.0
H4153 H 0.0883 0.79239 0.78474 0.0
S4154 S 0.08487 0.77178 0.84426 0.0
N4155 N 0.09667 0.78307 0.8423 0.0
N4156 N 0.07723 0.76824 0.83033 0.0
C4157 C 0.08407 0.7756 0.82198 0.0
C4158 C 0.09604 0.78544 0.82956 0.0
C4159 C 0.19247 0.09451 0.80989 0.0
C4160 C 0.19324 0.09655 0.82328 0.0
C4161 C 0.19538 0.08253 0.80454 0.0
C4162 C 0.19921 0.07214 0.81238 0.0
H4163 H 0.18963 0.10225 0.80351 0.0
H4164 H 0.19448 0.08133 0.79421 0.0
S4165 S 0.20166 0.07223 0.8481 0.0
N4166 N 0.19739 0.087 0.8443 0.0
N4167 N 0.20288 0.06455 0.83429 0.0
C4168 C 0.1998 0.07404 0.8258 0.0
C4169 C 0.19686 0.08621 0.83122 0.0
C4170 C 0.9067 0.18772 0.79871 0.0
C4171 C 0.90484 0.18825 0.81214 0.0
C4172 C 0.91595 0.19561 0.79252 0.0
C4173 C 0.92383 0.2043 0.7995 0.0
H4174 H 0.90071 0.18137 0.79287 0.0
H4175 H 0.91681 0.19505 0.78213 0.0
S4176 S 0.92307 0.20919 0.83492 0.0
N4177 N 0.91189 0.19793 0.8323 0.0
N4178 N 0.92917 0.21294 0.82063 0.0
C4179 C 0.92215 0.20488 0.81296 0.0
C4180 C 0.9127 0.19681 0.81928 0.0
C4181 C 0.80671 0.90985 0.82014 0.0
C4182 C 0.81861 0.90811 0.81391 0.0
C4183 C 0.79944 0.92086 0.81789 0.0
C4184 C 0.80369 0.93056 0.80922 0.0
H4185 H 0.80316 0.90281 0.82711 0.0
H4186 H 0.79052 0.92193 0.82318 0.0
S4187 S 0.83396 0.93043 0.79004 0.0
N4188 N 0.83407 0.91677 0.79828 0.0
N4189 N 0.82059 0.93764 0.79431 0.0
C4190 C 0.81552 0.92888 0.80281 0.0
C4191 C 0.8229 0.91763 0.80506 0.0
C4192 C 0.20716 0.09237 0.17726 0.0
C4193 C 0.19942 0.10059 0.18452 0.0
C4194 C 0.21381 0.08229 0.18309 0.0
C4195 C 0.21294 0.07989 0.19645 0.0
H4196 H 0.20831 0.09391 0.16697 0.0
H4197 H 0.22001 0.07655 0.17713 0.0
S4198 S 0.19366 0.09836 0.2198 0.0
N4199 N 0.19104 0.10551 0.20579 0.0
N4200 N 0.2034 0.08638 0.21675 0.0
C4201 C 0.20488 0.08776 0.20379 0.0
C4202 C 0.19813 0.09811 0.19783 0.0
C4203 C 0.19138 0.90756 0.79464 0.0
C4204 C 0.18993 0.90607 0.80806 0.0
C4205 C 0.19959 0.91713 0.78939 0.0
C4206 C 0.20662 0.92569 0.79734 0.0
H4207 H 0.18639 0.90104 0.78811 0.0
H4208 H 0.20062 0.91769 0.77901 0.0
S4209 S 0.20595 0.92612 0.83313 0.0
N4210 N 0.19589 0.91422 0.82922 0.0
N4211 N 0.21154 0.93207 0.81936 0.0
C4212 C 0.20518 0.92438 0.8108 0.0
C4213 C 0.19678 0.91463 0.81615 0.0
C4214 C 0.09367 0.19918 0.82434 0.0
C4215 C 0.10052 0.19224 0.81507 0.0
C4216 C 0.08375 0.20745 0.82074 0.0
C4217 C 0.08021 0.20908 0.80772 0.0
H4218 H 0.09604 0.19825 0.83448 0.0
H4219 H 0.07893 0.21277 0.82821 0.0
S4220 S 0.09549 0.19353 0.77964 0.0
N4221 N 0.10332 0.18783 0.79225 0.0
N4222 N 0.0846 0.20326 0.7855 0.0
C4223 C 0.08697 0.20217 0.79835 0.0
C4224 C 0.09709 0.19376 0.80201 0.0
C4225 C 0.81515 0.09711 0.80931 0.0
C4226 C 0.80771 0.10039 0.82011 0.0
C4227 C 0.81095 0.08752 0.80075 0.0
C4228 C 0.79919 0.08071 0.80267 0.0
H4229 H 0.82413 0.10226 0.80724 0.0
H4230 H 0.81686 0.08557 0.7924 0.0
S4231 S 0.7763 0.08532 0.82972 0.0
N4232 N 0.78824 0.09572 0.83254 0.0
N4233 N 0.78015 0.07796 0.81625 0.0
C4234 C 0.79169 0.08383 0.81349 0.0
C4235 C 0.79601 0.09356 0.82226 0.0
C4236 C 0.9215 0.80887 0.81787 0.0
C4237 C 0.91407 0.81978 0.81529 0.0
C4238 C 0.93308 0.80678 0.81127 0.0
C4239 C 0.9376 0.81542 0.80165 0.0
H4240 H 0.91837 0.80188 0.82508 0.0
H4241 H 0.93859 0.79839 0.81381 0.0
S4242 S 0.92225 0.84594 0.79192 0.0
N4243 N 0.91247 0.83971 0.80301 0.0
N4244 N 0.93403 0.83561 0.79037 0.0
C4245 C 0.9303 0.82641 0.79907 0.0
C4246 C 0.91857 0.8286 0.80588 0.0
C4247 C 0.80704 0.91112 0.19202 0.0
C4248 C 0.81714 0.9069 0.19997 0.0
C4249 C 0.79884 0.92092 0.19597 0.0
C4250 C 0.80047 0.92701 0.20796 0.0
H4251 H 0.8052 0.90656 0.18282 0.0
H4252 H 0.79099 0.92359 0.18965 0.0
S4253 S 0.82579 0.91986 0.23219 0.0
N4254 N 0.82865 0.90994 0.22021 0.0
N4255 N 0.81305 0.9281 0.22776 0.0
C4256 C 0.81062 0.92297 0.21597 0.0
C4257 C 0.81901 0.91302 0.21192 0.0
C4258 C 0.09717 0.81059 0.19599 0.0
C4259 C 0.10555 0.80322 0.1885 0.0
C4260 C 0.08778 0.80468 0.20396 0.0
C4261 C 0.08634 0.79117 0.20466 0.0
H4262 H 0.09789 0.82101 0.19571 0.0
H4263 H 0.0817 0.81074 0.20973 0.0
S4264 S 0.10657 0.76755 0.18777 0.0
N4265 N 0.11229 0.78171 0.18286 0.0
N4266 N 0.09459 0.77063 0.1977 0.0
C4267 C 0.09479 0.78372 0.19734 0.0
C4268 C 0.10435 0.78973 0.18926 0.0
C4269 C 0.91364 0.21432 0.17406 0.0
C4270 C 0.90492 0.20695 0.18163 0.0
C4271 C 0.92434 0.22065 0.17958 0.0
C4272 C 0.92684 0.2198 0.1929 0.0
H4273 H 0.91206 0.21539 0.16378 0.0
H4274 H 0.93054 0.22652 0.17339 0.0
S4275 S 0.90699 0.20165 0.21699 0.0
N4276 N 0.8995 0.1991 0.20314 0.0
N4277 N 0.91973 0.21088 0.21353 0.0
C4278 C 0.91835 0.21222 0.20056 0.0
C4279 C 0.90741 0.20579 0.19492 0.0
C4280 C 0.19191 0.70045 0.59958 0.0
C4281 C 0.19969 0.69025 0.60366 0.0
C4282 C 0.19607 0.7091 0.58992 0.0
C4283 C 0.20813 0.70787 0.58384 0.0
H4284 H 0.18267 0.702 0.60414 0.0
H4285 H 0.18988 0.71699 0.58734 0.0
S4286 S 0.232 0.68255 0.5907 0.0
N4287 N 0.21984 0.67911 0.60052 0.0
N4288 N 0.22783 0.69558 0.58265 0.0
C4289 C 0.21598 0.69765 0.58777 0.0
C4290 C 0.2117 0.68879 0.59756 0.0
C4291 C 0.82015 0.70427 0.59755 0.0
C4292 C 0.81335 0.69284 0.60082 0.0
C4293 C 0.81565 0.71256 0.5879 0.0
C4294 C 0.80422 0.70971 0.58104 0.0
H4295 H 0.82886 0.70703 0.60271 0.0
H4296 H 0.82106 0.72139 0.58592 0.0
S4297 S 0.78299 0.68076 0.58567 0.0
N4298 N 0.79483 0.67884 0.59612 0.0
N4299 N 0.78614 0.69461 0.57828 0.0
C4300 C 0.79734 0.69826 0.58418 0.0
C4301 C 0.80197 0.68978 0.59396 0.0
C4302 C 0.80366 0.31347 0.59909 0.0
C4303 C 0.81663 0.31661 0.60196 0.0
C4304 C 0.8004 0.30513 0.58895 0.0
C4305 C 0.80998 0.2997 0.58117 0.0
H4306 H 0.79596 0.3172 0.60497 0.0
H4307 H 0.79031 0.30268 0.58736 0.0
S4308 S 0.84536 0.30539 0.58426 0.0
N4309 N 0.83908 0.31411 0.59583 0.0
N4310 N 0.833 0.29829 0.57693 0.0
C4311 C 0.82298 0.30294 0.58382 0.0
C4312 C 0.82629 0.31143 0.59414 0.0
C4313 C 0.18969 0.30788 0.59854 0.0
C4314 C 0.19682 0.31897 0.60215 0.0
C4315 C 0.19196 0.30177 0.58679 0.0
C4316 C 0.20152 0.30642 0.57818 0.0
H4317 H 0.18201 0.30411 0.60468 0.0
H4318 H 0.18599 0.29347 0.58428 0.0
S4319 S 0.22318 0.3349 0.58327 0.0
N4320 N 0.21421 0.33406 0.59642 0.0
N4321 N 0.2182 0.32282 0.57413 0.0
C4322 C 0.20881 0.31744 0.58172 0.0
C4323 C 0.20655 0.32363 0.59374 0.0
C4324 C 0.20181 0.31581 0.41322 0.0
C4325 C 0.18869 0.31841 0.41119 0.0
C4326 C 0.20567 0.30722 0.4229 0.0
C4327 C 0.19657 0.30099 0.43104 0.0
H4328 H 0.20915 0.32016 0.40704 0.0
H4329 H 0.21585 0.30524 0.42387 0.0
S4330 S 0.16105 0.30495 0.43006 0.0
N4331 N 0.16662 0.31448 0.41842 0.0
N4332 N 0.17384 0.29819 0.4365 0.0
C4333 C 0.18342 0.30366 0.42921 0.0
C4334 C 0.1795 0.3124 0.41935 0.0
C4335 C 0.19631 0.70584 0.41546 0.0
C4336 C 0.19824 0.69414 0.40904 0.0
C4337 C 0.20476 0.71013 0.42519 0.0
C4338 C 0.21539 0.70279 0.42904 0.0
H4339 H 0.18823 0.71179 0.41289 0.0
H4340 H 0.20303 0.71935 0.42961 0.0
S4341 S 0.22522 0.67186 0.41474 0.0
N4342 N 0.21198 0.67561 0.40681 0.0
N4343 N 0.22766 0.68351 0.42527 0.0
C4344 C 0.21745 0.6911 0.42266 0.0
C4345 C 0.20891 0.68678 0.41269 0.0
C4346 C 0.82093 0.70666 0.41323 0.0
C4347 C 0.82363 0.69363 0.4112 0.0
C4348 C 0.81627 0.71088 0.42515 0.0
C4349 C 0.81386 0.70215 0.43539 0.0
H4350 H 0.82285 0.71372 0.40569 0.0
H4351 H 0.8148 0.72108 0.42643 0.0
S4352 S 0.81894 0.6669 0.43475 0.0
N4353 N 0.82327 0.67198 0.42022 0.0
N4354 N 0.81445 0.67984 0.44259 0.0
C4355 C 0.81631 0.68905 0.43335 0.0
C4356 C 0.82117 0.6848 0.42127 0.0
C4357 C 0.80024 0.31473 0.41281 0.0
C4358 C 0.81073 0.31144 0.40493 0.0
C4359 C 0.79616 0.30673 0.42306 0.0
C4360 C 0.80252 0.29522 0.42597 0.0
H4361 H 0.79513 0.32355 0.41103 0.0
H4362 H 0.78788 0.30956 0.42866 0.0
S4363 S 0.82984 0.28175 0.40769 0.0
N4364 N 0.82686 0.29548 0.40027 0.0
N4365 N 0.8194 0.28064 0.4197 0.0
C4366 C 0.81293 0.29178 0.41808 0.0
C4367 C 0.81701 0.29985 0.40758 0.0
C4368 C 0.09972 0.69101 0.70212 0.0
C4369 C 0.10455 0.69833 0.69164 0.0
C4370 C 0.09009 0.69575 0.71019 0.0
C4371 C 0.0848 0.70795 0.70807 0.0
H4372 H 0.10367 0.68168 0.70435 0.0
H4373 H 0.08693 0.6899 0.71834 0.0
S4374 S 0.09376 0.73074 0.68163 0.0
N4375 N 0.10293 0.71818 0.67923 0.0
N4376 N 0.08512 0.72726 0.69462 0.0
C4377 C 0.08946 0.71533 0.69754 0.0
C4378 C 0.09922 0.71047 0.68927 0.0
C4379 C 0.82514 0.59159 0.70096 0.0
C4380 C 0.82318 0.59864 0.6895 0.0
C4381 C 0.81852 0.57987 0.70332 0.0
C4382 C 0.80953 0.57483 0.69437 0.0
H4383 H 0.83183 0.59517 0.70819 0.0
H4384 H 0.82053 0.57471 0.71218 0.0
S4385 S 0.80174 0.58895 0.6624 0.0
N4386 N 0.81228 0.59924 0.66873 0.0
N4387 N 0.7996 0.57744 0.6733 0.0
C4388 C 0.80764 0.58171 0.6828 0.0
C4389 C 0.81445 0.59356 0.68036 0.0
C4390 C 0.91925 0.30761 0.68188 0.0
C4391 C 0.91028 0.31416 0.68945 0.0
C4392 C 0.93119 0.30396 0.6869 0.0
C4393 C 0.93464 0.30658 0.69976 0.0
H4394 H 0.91715 0.30553 0.67186 0.0
H4395 H 0.93787 0.29921 0.68057 0.0
S4396 S 0.91448 0.32324 0.72377 0.0
N4397 N 0.90553 0.32288 0.71058 0.0
N4398 N 0.92806 0.31612 0.72001 0.0
C4399 C 0.92573 0.31306 0.70749 0.0
C4400 C 0.91354 0.31681 0.70235 0.0
C4401 C 0.19946 0.41155 0.68951 0.0
C4402 C 0.18945 0.40712 0.69769 0.0
C4403 C 0.20581 0.4234 0.69163 0.0
C4404 C 0.20251 0.43127 0.70206 0.0
H4405 H 0.20216 0.40601 0.68117 0.0
H4406 H 0.21323 0.42655 0.68487 0.0
S4407 S 0.17723 0.42387 0.72657 0.0
N4408 N 0.17685 0.41128 0.71695 0.0
N4409 N 0.1885 0.43374 0.72069 0.0
C4410 C 0.19256 0.42691 0.71038 0.0
C4411 C 0.18614 0.41479 0.70827 0.0
C4412 C 0.09463 0.30431 0.3145 0.0
C4413 C 0.09709 0.31746 0.3169 0.0
C4414 C 0.08511 0.30034 0.30567 0.0
C4415 C 0.07757 0.30934 0.29901 0.0
H4416 H 0.10037 0.29705 0.31918 0.0
H4417 H 0.08382 0.29013 0.30385 0.0
S4418 S 0.07976 0.34487 0.30237 0.0
N4419 N 0.09083 0.33945 0.31237 0.0
N4420 N 0.07308 0.332 0.29564 0.0
C4421 C 0.0798 0.32251 0.3015 0.0
C4422 C 0.08949 0.32655 0.31048 0.0
C4423 C 0.1912 0.59719 0.30631 0.0
C4424 C 0.19946 0.60206 0.31598 0.0
C4425 C 0.19525 0.58766 0.2978 0.0
C4426 C 0.20769 0.58251 0.29866 0.0
H4427 H 0.18164 0.60104 0.30507 0.0
H4428 H 0.18867 0.58447 0.2903 0.0
S4429 S 0.23287 0.59161 0.32263 0.0
N4430 N 0.22048 0.60062 0.32629 0.0
N4431 N 0.22823 0.58298 0.31008 0.0
C4432 C 0.21601 0.5872 0.30838 0.0
C4433 C 0.21185 0.59687 0.3171 0.0
C4434 C 0.91537 0.69581 0.32122 0.0
C4435 C 0.9106 0.68586 0.31328 0.0
C4436 C 0.92738 0.70182 0.31881 0.0
C4437 C 0.93509 0.69823 0.30831 0.0
H4438 H 0.90994 0.69875 0.32958 0.0
H4439 H 0.93077 0.70922 0.32538 0.0
S4440 S 0.92686 0.67289 0.2844 0.0
N4441 N 0.91432 0.67295 0.29422 0.0
N4442 N 0.93708 0.68397 0.28993 0.0
C4443 C 0.93042 0.68831 0.30025 0.0
C4444 C 0.91813 0.68223 0.30266 0.0
C4445 C 0.80717 0.41108 0.3206 0.0
C4446 C 0.81739 0.40731 0.31263 0.0
C4447 C 0.80076 0.42262 0.31837 0.0
C4448 C 0.8042 0.43086 0.30802 0.0
H4449 H 0.80435 0.40526 0.32888 0.0
H4450 H 0.79319 0.42528 0.32499 0.0
S4451 S 0.83002 0.42519 0.28401 0.0
N4452 N 0.83032 0.41247 0.29363 0.0
N4453 N 0.81855 0.43437 0.28968 0.0
C4454 C 0.81434 0.42715 0.29989 0.0
C4455 C 0.82083 0.41533 0.30212 0.0
C4456 C 0.19856 0.59709 0.70403 0.0
C4457 C 0.18515 0.59883 0.70478 0.0
C4458 C 0.20452 0.5872 0.71101 0.0
C4459 C 0.19728 0.57869 0.71898 0.0
H4460 H 0.20457 0.60376 0.69848 0.0
H4461 H 0.21493 0.58652 0.71057 0.0
S4462 S 0.16161 0.57814 0.7228 0.0
N4463 N 0.16464 0.59038 0.71293 0.0
N4464 N 0.17579 0.57204 0.72625 0.0
C4465 C 0.18377 0.57994 0.71923 0.0
C4466 C 0.17773 0.58993 0.71208 0.0
C4467 C 0.20205 0.41303 0.32148 0.0
C4468 C 0.1919 0.40864 0.3135 0.0
C4469 C 0.21078 0.42268 0.3173 0.0
C4470 C 0.20967 0.42842 0.30502 0.0
H4471 H 0.20346 0.40873 0.33091 0.0
H4472 H 0.21862 0.42553 0.32366 0.0
S4473 S 0.18452 0.42065 0.28057 0.0
N4474 N 0.18093 0.4111 0.29292 0.0
N4475 N 0.19756 0.42896 0.28491 0.0
C4476 C 0.1995 0.42417 0.29697 0.0
C4477 C 0.19057 0.41439 0.30126 0.0
C4478 C 0.09548 0.69734 0.32462 0.0
C4479 C 0.10347 0.6914 0.31556 0.0
C4480 C 0.08559 0.7055 0.32069 0.0
C4481 C 0.08323 0.70801 0.30754 0.0
H4482 H 0.09693 0.69571 0.33485 0.0
H4483 H 0.07984 0.71004 0.32803 0.0
S4484 S 0.1018 0.69528 0.27999 0.0
N4485 N 0.10863 0.6889 0.29286 0.0
N4486 N 0.08997 0.70412 0.28547 0.0
C4487 C 0.09116 0.70211 0.29838 0.0
C4488 C 0.10124 0.69381 0.30238 0.0
C4489 C 0.79902 0.59481 0.31588 0.0
C4490 C 0.80934 0.60316 0.31238 0.0
C4491 C 0.79467 0.585 0.30761 0.0
C4492 C 0.80061 0.58303 0.29558 0.0
H4493 H 0.79426 0.59584 0.32511 0.0
H4494 H 0.78655 0.57898 0.31066 0.0
S4495 S 0.82726 0.60294 0.28139 0.0
N4496 N 0.82479 0.60936 0.29568 0.0
N4497 N 0.81685 0.59073 0.2803 0.0
C4498 C 0.81081 0.59144 0.2919 0.0
C4499 C 0.81516 0.60149 0.30027 0.0
C4500 C 0.91294 0.32063 0.3081 0.0
C4501 C 0.90799 0.3123 0.31774 0.0
C4502 C 0.92458 0.31813 0.30181 0.0
C4503 C 0.93174 0.30714 0.30482 0.0
H4504 H 0.90796 0.32938 0.30563 0.0
H4505 H 0.92817 0.32502 0.29471 0.0
S4506 S 0.92277 0.28201 0.32906 0.0
N4507 N 0.91088 0.29231 0.32965 0.0
N4508 N 0.93298 0.28781 0.31813 0.0
C4509 C 0.92685 0.29865 0.31438 0.0
C4510 C 0.91493 0.30117 0.32073 0.0
C4511 C 0.80902 0.4145 0.69498 0.0
C4512 C 0.81613 0.40594 0.70266 0.0
C4513 C 0.80105 0.42369 0.70059 0.0
C4514 C 0.79992 0.42471 0.7141 0.0
H4515 H 0.80965 0.41409 0.68456 0.0
H4516 H 0.79562 0.42995 0.69431 0.0
S4517 S 0.81565 0.40383 0.73839 0.0
N4518 N 0.82092 0.39858 0.7244 0.0
N4519 N 0.80604 0.41584 0.73492 0.0
C4520 C 0.80682 0.41605 0.72184 0.0
C4521 C 0.81492 0.40673 0.71614 0.0
C4522 C 0.09153 0.30133 0.68918 0.0
C4523 C 0.0979 0.31341 0.69006 0.0
C4524 C 0.07945 0.29905 0.69499 0.0
C4525 C 0.07336 0.30871 0.70209 0.0
H4526 H 0.09591 0.29358 0.68393 0.0
H4527 H 0.07484 0.28967 0.69384 0.0
S4528 S 0.08546 0.3423 0.70636 0.0
N4529 N 0.0968 0.33539 0.69783 0.0
N4530 N 0.07429 0.33101 0.70902 0.0
C4531 C 0.07957 0.32087 0.70288 0.0
C4532 C 0.0918 0.32322 0.69688 0.0
C4533 C 0.91157 0.71819 0.68623 0.0
C4534 C 0.90933 0.70488 0.68796 0.0
C4535 C 0.92092 0.72487 0.69347 0.0
C4536 C 0.92852 0.71851 0.70268 0.0
H4537 H 0.90583 0.72357 0.67941 0.0
H4538 H 0.9221 0.73516 0.69196 0.0
S4539 S 0.92663 0.68365 0.71078 0.0
N4540 N 0.91566 0.68549 0.69939 0.0
N4541 N 0.9331 0.6981 0.7132 0.0
C4542 C 0.9264 0.70518 0.70451 0.0
C4543 C 0.91687 0.69836 0.6971 0.0
C4544 C 0.70667 0.19111 0.59877 0.0
C4545 C 0.69612 0.19417 0.60666 0.0
C4546 C 0.71103 0.19954 0.58897 0.0
C4547 C 0.70488 0.21127 0.58654 0.0
H4548 H 0.71163 0.18214 0.60019 0.0
H4549 H 0.71935 0.19686 0.58335 0.0
S4550 S 0.67748 0.22425 0.60507 0.0
N4551 N 0.68015 0.21013 0.61186 0.0
N4552 N 0.68811 0.22577 0.59327 0.0
C4553 C 0.6944 0.21448 0.59444 0.0
C4554 C 0.69004 0.20596 0.60448 0.0
C4555 C 0.31093 0.19975 0.59383 0.0
C4556 C 0.30312 0.19284 0.6027 0.0
C4557 C 0.3055 0.20795 0.58459 0.0
C4558 C 0.29203 0.20946 0.58378 0.0
H4559 H 0.32132 0.19885 0.59406 0.0
H4560 H 0.31191 0.21325 0.57811 0.0
S4561 S 0.26746 0.19428 0.60541 0.0
N4562 N 0.28131 0.1886 0.61056 0.0
N4563 N 0.27111 0.20385 0.59311 0.0
C4564 C 0.28415 0.2027 0.5927 0.0
C4565 C 0.28968 0.1944 0.60213 0.0
C4566 C 0.3171 0.81207 0.59762 0.0
C4567 C 0.31689 0.82549 0.59932 0.0
C4568 C 0.31435 0.80652 0.58557 0.0
C4569 C 0.31122 0.81419 0.57479 0.0
H4570 H 0.31937 0.8058 0.60566 0.0
H4571 H 0.31482 0.79616 0.58466 0.0
S4572 S 0.31051 0.84989 0.57393 0.0
N4573 N 0.3141 0.84634 0.58904 0.0
N4574 N 0.30887 0.83596 0.56649 0.0
C4575 C 0.31122 0.82764 0.57635 0.0
C4576 C 0.31402 0.83327 0.58858 0.0
C4577 C 0.70299 0.81007 0.59616 0.0
C4578 C 0.70264 0.82357 0.59701 0.0
C4579 C 0.70992 0.8041 0.5863 0.0
C4580 C 0.71677 0.81141 0.57694 0.0
H4581 H 0.69839 0.80408 0.60351 0.0
H4582 H 0.71036 0.79369 0.5863 0.0
S4583 S 0.7172 0.84706 0.57382 0.0
N4584 N 0.70836 0.84403 0.58678 0.0
N4585 N 0.72162 0.83289 0.56848 0.0
C4586 C 0.71582 0.82491 0.57728 0.0
C4587 C 0.70871 0.83096 0.58724 0.0
C4588 C 0.6916 0.80186 0.40653 0.0
C4589 C 0.69877 0.81313 0.40343 0.0
C4590 C 0.69561 0.79349 0.41633 0.0
C4591 C 0.70689 0.79609 0.42352 0.0
H4592 H 0.68296 0.79933 0.40114 0.0
H4593 H 0.68992 0.78481 0.4182 0.0
S4594 S 0.72899 0.82447 0.41937 0.0
N4595 N 0.7175 0.82666 0.40858 0.0
N4596 N 0.72528 0.81073 0.42672 0.0
C4597 C 0.71417 0.80733 0.42051 0.0
C4598 C 0.71003 0.8159 0.41057 0.0
C4599 C 0.70217 0.18839 0.41324 0.0
C4600 C 0.69213 0.19611 0.40866 0.0
C4601 C 0.71039 0.1926 0.42318 0.0
C4602 C 0.70885 0.20465 0.42906 0.0
H4603 H 0.70391 0.17915 0.40889 0.0
H4604 H 0.71817 0.18645 0.42615 0.0
S4605 S 0.68377 0.22837 0.42089 0.0
N4606 N 0.68081 0.21622 0.41108 0.0
N4607 N 0.69645 0.22426 0.42953 0.0
C4608 C 0.69878 0.21244 0.42463 0.0
C4609 C 0.69038 0.20813 0.41453 0.0
C4610 C 0.3053 0.19774 0.41362 0.0
C4611 C 0.3134 0.20466 0.40502 0.0
C4612 C 0.2979 0.2041 0.42284 0.0
C4613 C 0.2984 0.21762 0.42387 0.0
H4614 H 0.30471 0.18732 0.41323 0.0
H4615 H 0.29168 0.19839 0.42915 0.0
S4616 S 0.31718 0.24022 0.40284 0.0
N4617 N 0.32083 0.22579 0.39756 0.0
N4618 N 0.30705 0.23772 0.41494 0.0
C4619 C 0.30627 0.22464 0.41515 0.0
C4620 C 0.31378 0.21818 0.40576 0.0
C4621 C 0.3103 0.82207 0.41915 0.0
C4622 C 0.32059 0.81885 0.41099 0.0
C4623 C 0.30804 0.81546 0.43081 0.0
C4624 C 0.31587 0.8052 0.4347 0.0
H4625 H 0.30396 0.82982 0.41654 0.0
H4626 H 0.3002 0.81852 0.43689 0.0
S4627 S 0.34457 0.79353 0.41725 0.0
N4628 N 0.33908 0.80517 0.40797 0.0
N4629 N 0.33465 0.79254 0.4297 0.0
C4630 C 0.32621 0.80194 0.42664 0.0
C4631 C 0.32858 0.80874 0.41483 0.0
C4632 C 0.5918 0.19391 0.69766 0.0
C4633 C 0.59584 0.19608 0.68486 0.0
C4634 C 0.57961 0.19781 0.70189 0.0
C4635 C 0.57104 0.20406 0.69347 0.0
H4636 H 0.59812 0.18921 0.70446 0.0
H4637 H 0.57682 0.1958 0.71178 0.0
S4638 S 0.57663 0.21095 0.65871 0.0
N4639 N 0.59004 0.20416 0.66363 0.0
N4640 N 0.56722 0.2115 0.67154 0.0
C4641 C 0.57492 0.20605 0.68059 0.0
C4642 C 0.5873 0.20211 0.67631 0.0
C4643 C 0.31005 0.10135 0.70224 0.0
C4644 C 0.32357 0.1025 0.70118 0.0
C4645 C 0.30421 0.09148 0.70968 0.0
C4646 C 0.31169 0.08248 0.71645 0.0
H4647 H 0.30396 0.10845 0.69775 0.0
H4648 H 0.29379 0.0912 0.71057 0.0
S4649 S 0.34739 0.08003 0.7149 0.0
N4650 N 0.34416 0.09279 0.70598 0.0
N4651 N 0.3333 0.07449 0.72023 0.0
C4652 C 0.32518 0.08305 0.71473 0.0
C4653 C 0.33109 0.09301 0.70707 0.0
C4654 C 0.41218 0.8207 0.70678 0.0
C4655 C 0.40706 0.81307 0.69676 0.0
C4656 C 0.42209 0.81625 0.71476 0.0
C4657 C 0.42742 0.80403 0.71299 0.0
H4658 H 0.40824 0.83007 0.70871 0.0
H4659 H 0.42547 0.82234 0.72255 0.0
S4660 S 0.41778 0.78046 0.68781 0.0
N4661 N 0.40843 0.79288 0.68517 0.0
N4662 N 0.42682 0.78437 0.70037 0.0
C4663 C 0.42247 0.79633 0.70292 0.0
C4664 C 0.4124 0.8009 0.69476 0.0
C4665 C 0.70137 0.90492 0.69951 0.0
C4666 C 0.68784 0.90375 0.70039 0.0
C4667 C 0.70825 0.91443 0.70641 0.0
C4668 C 0.70186 0.92295 0.71467 0.0
H4669 H 0.70673 0.89815 0.69383 0.0
H4670 H 0.71866 0.91479 0.70556 0.0
S4671 S 0.66633 0.92558 0.71808 0.0
N4672 N 0.66818 0.91321 0.70841 0.0
N4673 N 0.68106 0.93086 0.72158 0.0
C4674 C 0.68826 0.9225 0.71477 0.0
C4675 C 0.68128 0.91291 0.70767 0.0
C4676 C 0.58759 0.81082 0.32633 0.0
C4677 C 0.59795 0.81558 0.31879 0.0
C4678 C 0.57535 0.80858 0.32096 0.0
C4679 C 0.57298 0.81087 0.30778 0.0
H4680 H 0.58888 0.80909 0.33657 0.0
H4681 H 0.56761 0.80517 0.32723 0.0
S4682 S 0.59695 0.823 0.28375 0.0
N4683 N 0.60515 0.8222 0.29738 0.0
N4684 N 0.58207 0.81812 0.28728 0.0
C4685 C 0.58328 0.81554 0.30009 0.0
C4686 C 0.59577 0.81785 0.30558 0.0
C4687 C 0.70586 0.09048 0.33134 0.0
C4688 C 0.69768 0.09818 0.32386 0.0
C4689 C 0.71 0.07855 0.32691 0.0
C4690 C 0.70627 0.07385 0.31474 0.0
H4691 H 0.70885 0.09355 0.34087 0.0
H4692 H 0.71604 0.07286 0.33318 0.0
S4693 S 0.68517 0.09042 0.29123 0.0
N4694 N 0.6862 0.1004 0.30354 0.0
N4695 N 0.6939 0.07789 0.29523 0.0
C4696 C 0.69815 0.08149 0.30709 0.0
C4697 C 0.69389 0.09366 0.31164 0.0
C4698 C 0.40967 0.18876 0.30456 0.0
C4699 C 0.40122 0.19245 0.31443 0.0
C4700 C 0.41963 0.19705 0.30018 0.0
C4701 C 0.42169 0.2093 0.30567 0.0
H4702 H 0.40857 0.17937 0.30016 0.0
H4703 H 0.42571 0.19384 0.2924 0.0
S4704 S 0.40162 0.224 0.33103 0.0
N4705 N 0.39505 0.20954 0.32895 0.0
N4706 N 0.41399 0.22496 0.321 0.0
C4707 C 0.4132 0.21316 0.31543 0.0
C4708 C 0.40298 0.20477 0.31979 0.0
C4709 C 0.3183 0.91814 0.30443 0.0
C4710 C 0.31739 0.91219 0.31665 0.0
C4711 C 0.31186 0.9296 0.30172 0.0
C4712 C 0.30403 0.9354 0.31105 0.0
H4713 H 0.32433 0.9141 0.29702 0.0
H4714 H 0.31316 0.93404 0.29231 0.0
S4715 S 0.29826 0.92348 0.34443 0.0
N4716 N 0.30789 0.9128 0.33805 0.0
N4717 N 0.29584 0.93432 0.33301 0.0
C4718 C 0.30299 0.92946 0.32326 0.0
C4719 C 0.3096 0.91786 0.32603 0.0
C4720 C 0.68862 0.09281 0.70947 0.0
C4721 C 0.692 0.10102 0.69907 0.0
C4722 C 0.69688 0.08311 0.71368 0.0
C4723 C 0.7088 0.0811 0.70754 0.0
H4724 H 0.67951 0.09392 0.71442 0.0
H4725 H 0.69396 0.07724 0.72189 0.0
S4726 S 0.72263 0.10055 0.68052 0.0
N4727 N 0.70845 0.10695 0.68325 0.0
N4728 N 0.72381 0.08855 0.69095 0.0
C4729 C 0.71233 0.08931 0.69721 0.0
C4730 C 0.70397 0.09925 0.69299 0.0
C4731 C 0.68172 0.92272 0.31253 0.0
C4732 C 0.68912 0.91217 0.31639 0.0
C4733 C 0.68743 0.9349 0.31043 0.0
C4734 C 0.70081 0.93702 0.31197 0.0
H4735 H 0.67135 0.92163 0.31142 0.0
H4736 H 0.68128 0.94278 0.30774 0.0
S4737 S 0.72456 0.91249 0.32162 0.0
N4738 N 0.71059 0.90453 0.32135 0.0
N4739 N 0.72133 0.92749 0.31758 0.0
C4740 C 0.70836 0.92652 0.31575 0.0
C4741 C 0.70252 0.9141 0.3179 0.0
C4742 C 0.59162 0.17667 0.30021 0.0
C4743 C 0.5961 0.18123 0.31218 0.0
C4744 C 0.58014 0.18105 0.29479 0.0
C4745 C 0.57263 0.19026 0.30103 0.0
H4746 H 0.59697 0.16949 0.29505 0.0
H4747 H 0.57693 0.17692 0.28574 0.0
S4748 S 0.58007 0.20529 0.33262 0.0
N4749 N 0.59219 0.19553 0.33014 0.0
N4750 N 0.57053 0.20381 0.31992 0.0
C4751 C 0.5771 0.19509 0.31293 0.0
C4752 C 0.58886 0.19062 0.31847 0.0
C4753 C 0.2978 0.09099 0.32468 0.0
C4754 C 0.31031 0.09658 0.32442 0.0
C4755 C 0.29509 0.07916 0.31869 0.0
C4756 C 0.30475 0.07256 0.31204 0.0
H4757 H 0.29004 0.0958 0.32956 0.0
H4758 H 0.28537 0.07515 0.31935 0.0
S4759 S 0.3393 0.08251 0.30952 0.0
N4760 N 0.33262 0.09416 0.31775 0.0
N4761 N 0.32747 0.07212 0.30625 0.0
C4762 C 0.31733 0.07796 0.3119 0.0
C4763 C 0.32011 0.08994 0.31807 0.0
C4764 C 0.41724 0.80934 0.31582 0.0
C4765 C 0.4087 0.81908 0.31216 0.0
C4766 C 0.42848 0.80707 0.30873 0.0
C4767 C 0.43154 0.8143 0.29755 0.0
H4768 H 0.41527 0.80349 0.32432 0.0
H4769 H 0.4349 0.7997 0.31216 0.0
S4770 S 0.41279 0.84138 0.28426 0.0
N4771 N 0.40441 0.8364 0.29695 0.0
N4772 N 0.42535 0.8319 0.28346 0.0
C4773 C 0.42308 0.82406 0.2938 0.0
C4774 C 0.41169 0.82645 0.30108 0.0
C4775 C 0.31664 0.91542 0.71032 0.0
C4776 C 0.31377 0.90798 0.69934 0.0
C4777 C 0.30843 0.92518 0.71438 0.0
C4778 C 0.29709 0.92802 0.70752 0.0
H4779 H 0.32529 0.91365 0.71588 0.0
H4780 H 0.31092 0.93041 0.72307 0.0
S4781 S 0.28471 0.91084 0.67863 0.0
N4782 N 0.2984 0.90372 0.68207 0.0
N4783 N 0.28316 0.92221 0.68952 0.0
C4784 C 0.29409 0.92061 0.69656 0.0
C4785 C 0.30239 0.91062 0.69248 0.0
C4786 C 0.60084 0.79244 0.68685 0.0
C4787 C 0.60313 0.80584 0.687 0.0
C4788 C 0.59156 0.78658 0.69493 0.0
C4789 C 0.58408 0.79386 0.7034 0.0
H4790 H 0.60652 0.78637 0.6807 0.0
H4791 H 0.59038 0.77619 0.69468 0.0
S4792 S 0.58603 0.82935 0.70723 0.0
N4793 N 0.59687 0.82631 0.69605 0.0
N4794 N 0.57959 0.81525 0.71142 0.0
C4795 C 0.58619 0.8073 0.70358 0.0
C4796 C 0.59565 0.81329 0.69533 0.0
C4797 C 0.41502 0.18885 0.689 0.0
C4798 C 0.4091 0.19781 0.68079 0.0
C4799 C 0.42691 0.19166 0.69489 0.0
C4800 C 0.43336 0.20358 0.69293 0.0
H4801 H 0.41057 0.17945 0.69067 0.0
H4802 H 0.4312 0.18434 0.70093 0.0
S4803 S 0.42191 0.23047 0.67241 0.0
N4804 N 0.41044 0.21924 0.67121 0.0
N4805 N 0.43299 0.22438 0.682 0.0
C4806 C 0.42757 0.21264 0.68471 0.0
C4807 C 0.4154 0.2098 0.67875 0.0
C4808 C 0.70676 0.69125 0.09731 0.0
C4809 C 0.6958 0.69414 0.10469 0.0
C4810 C 0.71134 0.69964 0.08759 0.0
C4811 C 0.70501 0.71118 0.0847 0.0
H4812 H 0.7119 0.68244 0.0991 0.0
H4813 H 0.71998 0.69711 0.0824 0.0
S4814 S 0.67643 0.72365 0.10175 0.0
N4815 N 0.67916 0.70972 0.10889 0.0
N4816 N 0.68755 0.7253 0.09042 0.0
C4817 C 0.69408 0.7142 0.09206 0.0
C4818 C 0.68949 0.70572 0.10203 0.0
C4819 C 0.31466 0.7013 0.09205 0.0
C4820 C 0.30675 0.69458 0.10098 0.0
C4821 C 0.30937 0.70968 0.08288 0.0
C4822 C 0.29596 0.71158 0.08222 0.0
H4823 H 0.32502 0.70008 0.09217 0.0
H4824 H 0.31586 0.7148 0.07634 0.0
S4825 S 0.27121 0.69706 0.1041 0.0
N4826 N 0.28494 0.69095 0.10907 0.0
N4827 N 0.275 0.70657 0.09178 0.0
C4828 C 0.28799 0.70504 0.09122 0.0
C4829 C 0.29337 0.69654 0.10056 0.0
C4830 C 0.31411 0.30978 0.09665 0.0
C4831 C 0.31382 0.32317 0.09859 0.0
C4832 C 0.31145 0.30443 0.0845 0.0
C4833 C 0.30836 0.31227 0.07383 0.0
H4834 H 0.3164 0.30339 0.1046 0.0
H4835 H 0.31199 0.29409 0.08341 0.0
S4836 S 0.30738 0.34796 0.0736 0.0
N4837 N 0.31091 0.34417 0.08866 0.0
N4838 N 0.30588 0.33416 0.06591 0.0
C4839 C 0.30823 0.32568 0.07564 0.0
C4840 C 0.31092 0.33111 0.08798 0.0
C4841 C 0.7044 0.31883 0.09422 0.0
C4842 C 0.69382 0.3153 0.10211 0.0
C4843 C 0.70901 0.31048 0.08479 0.0
C4844 C 0.70308 0.29832 0.08273 0.0
H4845 H 0.70923 0.3281 0.09541 0.0
H4846 H 0.71737 0.31352 0.0792 0.0
S4847 S 0.6756 0.28414 0.10133 0.0
N4848 N 0.67798 0.29853 0.10766 0.0
N4849 N 0.68641 0.283 0.08972 0.0
C4850 C 0.69252 0.29468 0.09058 0.0
C4851 C 0.68791 0.30313 0.10026 0.0
C4852 C 0.69615 0.33116 0.92252 0.0
C4853 C 0.69145 0.32367 0.91222 0.0
C4854 C 0.69873 0.32562 0.93458 0.0
C4855 C 0.69684 0.31233 0.93682 0.0
H4856 H 0.69758 0.34147 0.92135 0.0
H4857 H 0.70206 0.33184 0.94229 0.0
S4858 S 0.685 0.28839 0.91292 0.0
N4859 N 0.68533 0.3022 0.90491 0.0
N4860 N 0.68999 0.29179 0.92766 0.0
C4861 C 0.69221 0.3047 0.92657 0.0
C4862 C 0.68958 0.31035 0.91426 0.0
C4863 C 0.69385 0.70512 0.91528 0.0
C4864 C 0.69615 0.69391 0.90815 0.0
C4865 C 0.70223 0.70913 0.9252 0.0
C4866 C 0.71316 0.70197 0.92852 0.0
H4867 H 0.68553 0.7109 0.91314 0.0
H4868 H 0.70019 0.71798 0.93018 0.0
S4869 S 0.72401 0.67239 0.91227 0.0
N4870 N 0.71057 0.67611 0.90468 0.0
N4871 N 0.72611 0.68345 0.92348 0.0
C4872 C 0.71559 0.69079 0.92142 0.0
C4873 C 0.70712 0.68677 0.91126 0.0
C4874 C 0.31129 0.70422 0.90805 0.0
C4875 C 0.32478 0.70322 0.90706 0.0
C4876 C 0.30571 0.71157 0.91783 0.0
C4877 C 0.31342 0.71824 0.92691 0.0
H4878 H 0.30505 0.6998 0.90088 0.0
H4879 H 0.29531 0.71246 0.91796 0.0
S4880 S 0.34912 0.71683 0.92973 0.0
N4881 N 0.34558 0.70801 0.91697 0.0
N4882 N 0.33519 0.72204 0.93511 0.0
C4883 C 0.32687 0.71657 0.92649 0.0
C4884 C 0.33252 0.70903 0.91663 0.0
C4885 C 0.32194 0.30681 0.91119 0.0
C4886 C 0.3142 0.31701 0.90706 0.0
C4887 C 0.31791 0.29844 0.92115 0.0
C4888 C 0.30602 0.29998 0.92749 0.0
H4889 H 0.33104 0.30503 0.90644 0.0
H4890 H 0.32405 0.29053 0.92376 0.0
S4891 S 0.28236 0.32549 0.92063 0.0
N4892 N 0.2943 0.32852 0.91044 0.0
N4893 N 0.28655 0.31258 0.92887 0.0
C4894 C 0.29823 0.31022 0.92352 0.0
C4895 C 0.30237 0.3188 0.91342 0.0
C4896 C 0.59466 0.70617 0.1932 0.0
C4897 C 0.60145 0.69495 0.19621 0.0
C4898 C 0.5849 0.71061 0.2013 0.0
C4899 C 0.58138 0.70388 0.21266 0.0
H4900 H 0.59696 0.71164 0.18453 0.0
H4901 H 0.58019 0.71947 0.19871 0.0
S4902 S 0.5967 0.67441 0.22534 0.0
N4903 N 0.6044 0.67756 0.2117 0.0
N4904 N 0.58585 0.68571 0.22675 0.0
C4905 C 0.58813 0.69266 0.21579 0.0
C4906 C 0.59815 0.68821 0.2076 0.0
C4907 C 0.3117 0.59475 0.18235 0.0
C4908 C 0.32247 0.5989 0.1896 0.0
C4909 C 0.30522 0.58308 0.18514 0.0
C4910 C 0.30916 0.5751 0.19537 0.0
H4911 H 0.3084 0.60044 0.17424 0.0
H4912 H 0.29714 0.58018 0.17911 0.0
S4913 S 0.33674 0.58163 0.21746 0.0
N4914 N 0.33662 0.59425 0.2077 0.0
N4915 N 0.3247 0.57212 0.2127 0.0
C4916 C 0.31996 0.57911 0.20271 0.0
C4917 C 0.32651 0.59106 0.1999 0.0
C4918 C 0.40817 0.31673 0.2067 0.0
C4919 C 0.40339 0.30903 0.19658 0.0
C4920 C 0.41803 0.31246 0.21485 0.0
C4921 C 0.42363 0.30036 0.21315 0.0
H4922 H 0.40403 0.32602 0.20856 0.0
H4923 H 0.42116 0.31861 0.2227 0.0
S4924 S 0.41486 0.27664 0.18782 0.0
N4925 N 0.40532 0.28888 0.18502 0.0
N4926 N 0.42361 0.28071 0.20053 0.0
C4927 C 0.41899 0.29258 0.20301 0.0
C4928 C 0.40897 0.29696 0.19468 0.0
C4929 C 0.67699 0.40921 0.21512 0.0
C4930 C 0.68356 0.40318 0.20503 0.0
C4931 C 0.68278 0.41928 0.22207 0.0
C4932 C 0.69535 0.42384 0.21918 0.0
H4933 H 0.66733 0.406 0.21778 0.0
H4934 H 0.67745 0.42336 0.22998 0.0
S4935 S 0.71673 0.41128 0.19367 0.0
N4936 N 0.70333 0.40245 0.19246 0.0
N4937 N 0.71422 0.4215 0.2055 0.0
C4938 C 0.70198 0.41803 0.20896 0.0
C4939 C 0.69606 0.40773 0.20187 0.0
C4940 C 0.59686 0.32143 0.80527 0.0
C4941 C 0.60085 0.31331 0.81536 0.0
C4942 C 0.58724 0.31747 0.79655 0.0
C4943 C 0.58113 0.30527 0.79763 0.0
H4944 H 0.60145 0.33081 0.80387 0.0
H4945 H 0.58471 0.32394 0.78876 0.0
S4946 S 0.58779 0.28049 0.82262 0.0
N4947 N 0.59763 0.29266 0.82623 0.0
N4948 N 0.57981 0.28506 0.80964 0.0
C4949 C 0.58498 0.29707 0.80774 0.0
C4950 C 0.59474 0.30114 0.81666 0.0
C4951 C 0.6908 0.60005 0.80297 0.0
C4952 C 0.69868 0.60433 0.81321 0.0
C4953 C 0.69489 0.5905 0.7945 0.0
C4954 C 0.70698 0.58472 0.79597 0.0
H4955 H 0.68152 0.60437 0.80126 0.0
H4956 H 0.68862 0.58777 0.78657 0.0
S4957 S 0.73109 0.59214 0.82153 0.0
N4958 N 0.71895 0.60167 0.82467 0.0
N4959 N 0.72679 0.58399 0.80855 0.0
C4960 C 0.71492 0.58883 0.80625 0.0
C4961 C 0.71072 0.59853 0.81491 0.0
C4962 C 0.41853 0.68523 0.80634 0.0
C4963 C 0.41124 0.68753 0.81751 0.0
C4964 C 0.43035 0.69174 0.80407 0.0
C4965 C 0.43524 0.70097 0.8128 0.0
H4966 H 0.41508 0.67834 0.79927 0.0
H4967 H 0.4357 0.68946 0.79544 0.0
S4968 S 0.42045 0.70971 0.84405 0.0
N4969 N 0.41024 0.69902 0.83783 0.0
N4970 N 0.43221 0.71149 0.8334 0.0
C4971 C 0.42811 0.70321 0.82409 0.0
C4972 C 0.41617 0.6965 0.82646 0.0
C4973 C 0.31249 0.41313 0.81203 0.0
C4974 C 0.31983 0.40463 0.80466 0.0
C4975 C 0.30476 0.4224 0.8061 0.0
C4976 C 0.30412 0.42357 0.79255 0.0
H4977 H 0.31275 0.41261 0.82247 0.0
H4978 H 0.29913 0.42861 0.81215 0.0
S4979 S 0.32059 0.40288 0.76893 0.0
N4980 N 0.32534 0.39746 0.78313 0.0
N4981 N 0.31092 0.4149 0.772 0.0
C4982 C 0.31125 0.41497 0.78511 0.0
C4983 C 0.3191 0.40555 0.79114 0.0
C4984 C 0.68858 0.59266 0.20824 0.0
C4985 C 0.6921 0.60076 0.19781 0.0
C4986 C 0.6967 0.58289 0.21255 0.0
C4987 C 0.70859 0.58067 0.20645 0.0
H4988 H 0.67948 0.59393 0.21317 0.0
H4989 H 0.69367 0.57712 0.2208 0.0
S4990 S 0.72273 0.59972 0.17931 0.0
N4991 N 0.70865 0.60634 0.18197 0.0
N4992 N 0.72372 0.58777 0.18983 0.0
C4993 C 0.71225 0.58875 0.19606 0.0
C4994 C 0.70404 0.59877 0.19176 0.0
C4995 C 0.6902 0.4161 0.80135 0.0
C4996 C 0.694 0.40781 0.8114 0.0
C4997 C 0.69845 0.42602 0.79679 0.0
C4998 C 0.71076 0.42818 0.80225 0.0
H4999 H 0.68078 0.41488 0.79693 0.0
H5000 H 0.69517 0.43195 0.78885 0.0
S5001 S 0.7257 0.40862 0.82811 0.0
N5002 N 0.71122 0.40197 0.82613 0.0
N5003 N 0.72656 0.4208 0.81781 0.0
C5004 C 0.7147 0.41989 0.81223 0.0
C5005 C 0.70636 0.40973 0.81678 0.0
C5006 C 0.596 0.69955 0.81582 0.0
C5007 C 0.59733 0.68609 0.81613 0.0
C5008 C 0.5841 0.7051 0.81285 0.0
C5009 C 0.5731 0.6974 0.81 0.0
H5010 H 0.60423 0.70583 0.81784 0.0
H5011 H 0.58348 0.71549 0.81289 0.0
S5012 S 0.57125 0.66167 0.8107 0.0
N5013 N 0.58647 0.66523 0.81415 0.0
N5014 N 0.56419 0.67561 0.80851 0.0
C5015 C 0.57429 0.68393 0.81054 0.0
C5016 C 0.58637 0.6783 0.81357 0.0
C5017 C 0.31379 0.59468 0.81069 0.0
C5018 C 0.3059 0.6031 0.81756 0.0
C5019 C 0.30841 0.58506 0.80276 0.0
C5020 C 0.29493 0.58341 0.80149 0.0
H5021 H 0.3242 0.59555 0.81143 0.0
H5022 H 0.31487 0.57896 0.79748 0.0
S5023 S 0.27009 0.60362 0.81662 0.0
N5024 N 0.28395 0.60963 0.82198 0.0
N5025 N 0.27387 0.59149 0.80724 0.0
C5026 C 0.28696 0.59189 0.80819 0.0
C5027 C 0.29243 0.60169 0.81622 0.0
C5028 C 0.41432 0.31467 0.80777 0.0
C5029 C 0.40614 0.30744 0.81604 0.0
C5030 C 0.42315 0.30862 0.79964 0.0
C5031 C 0.42416 0.29511 0.79953 0.0
H5032 H 0.41389 0.32508 0.80756 0.0
H5033 H 0.42911 0.31455 0.79329 0.0
S5034 S 0.40417 0.27181 0.81863 0.0
N5035 N 0.39911 0.28606 0.8231 0.0
N5036 N 0.4157 0.27471 0.80795 0.0
C5037 C 0.41589 0.2878 0.80765 0.0
C5038 C 0.40693 0.29395 0.8159 0.0
C5039 C 0.31 0.41366 0.19564 0.0
C5040 C 0.32315 0.41093 0.19728 0.0
C5041 C 0.30523 0.42588 0.19847 0.0
C5042 C 0.31344 0.43582 0.20309 0.0
H5043 H 0.30334 0.40629 0.19214 0.0
H5044 H 0.29508 0.42762 0.19687 0.0
S5045 S 0.34885 0.43389 0.20803 0.0
N5046 N 0.34441 0.41937 0.20313 0.0
N5047 N 0.33549 0.44225 0.20849 0.0
C5048 C 0.32664 0.43324 0.20458 0.0
C5049 C 0.33147 0.42082 0.20172 0.0
C5050 C 0.59682 0.29197 0.18859 0.0
C5051 C 0.59903 0.30536 0.18932 0.0
C5052 C 0.58775 0.28567 0.19658 0.0
C5053 C 0.58042 0.2925 0.20557 0.0
H5054 H 0.6024 0.28624 0.18203 0.0
H5055 H 0.58662 0.27531 0.19586 0.0
S5056 S 0.58226 0.32777 0.21104 0.0
N5057 N 0.59287 0.32533 0.19948 0.0
N5058 N 0.57598 0.31345 0.21469 0.0
C5059 C 0.58246 0.30592 0.20634 0.0
C5060 C 0.5917 0.31235 0.19816 0.0
C5061 C 0.40773 0.70403 0.19714 0.0
C5062 C 0.40577 0.70646 0.18392 0.0
C5063 C 0.41751 0.71059 0.20402 0.0
C5064 C 0.42557 0.71992 0.19796 0.0
H5065 H 0.40139 0.69737 0.20231 0.0
H5066 H 0.41851 0.7086 0.21423 0.0
S5067 S 0.42577 0.72808 0.16301 0.0
N5068 N 0.41377 0.71747 0.16468 0.0
N5069 N 0.43191 0.73 0.17758 0.0
C5070 C 0.4242 0.7218 0.18456 0.0
C5071 C 0.41433 0.71506 0.17757 0.0
loop_
_geom_bond_atom_site_label_1
_geom_bond_atom_site_label_2
_geom_bond_distance
_geom_bond_site_symmetry_2
_ccdc_geom_bond_type
C0 C1 1.264 . S
C0 C5 1.479 . S
C0 C10 1.465 . S
C1 C0 1.264 . S
C1 C3 1.339 . S
C1 H28 0.931 . S
C2 C3 1.395 . S
C2 C4 1.320 . S
C3 C1 1.339 . S
C3 C2 1.395 . S
C3 H29 0.929 . S
C4 C2 1.320 . S
C4 C5 1.405 . S
C4 H30 0.930 . S
C5 C0 1.479 . S
C5 C4 1.405 . S
C5 H31 0.931 . S
U6 O7 2.454 . S
U6 O8 2.458 . S
U6 C9 2.984 . S
U6 C10 2.847 . S
U6 C23 2.882 . S
U6 O24 2.441 . S
U6 O25 2.420 . S
U6 O26 2.455 . S
U6 O27 2.449 . S
O7 U6 2.454 . S
O7 C9 1.353 . S
O8 U6 2.458 . S
O8 C9 1.286 . S
C9 U6 2.984 . S
C9 O7 1.353 . S
C9 O8 1.286 . S
C9 C11 1.363 . S
C10 C0 1.465 . S
C10 U6 2.847 . S
C10 O24 1.249 . S
C10 O25 1.202 . S
C11 C9 1.363 . S
C11 C13 1.408 . S
C11 C16 1.342 . S
C12 C13 1.310 . S
C12 C15 1.461 . S
C12 H32 0.932 . S
C13 C11 1.408 . S
C13 C12 1.310 . S
C13 H33 0.930 . S
C14 C15 1.474 . S
C14 C16 1.285 . S
C14 H34 0.929 . S
C15 C12 1.461 . S
C15 C14 1.474 . S
C16 C11 1.342 . S
C16 C14 1.285 . S
C16 H35 0.930 . S
C17 C20 1.424 . S
C17 C22 1.245 . S
C17 C23 1.428 . S
C18 C21 1.260 . S
C18 C22 1.477 . S
C18 H36 0.932 . S
C19 C20 1.384 . S
C19 C21 1.479 . S
C19 H37 0.929 . S
C20 C17 1.424 . S
C20 C19 1.384 . S
C20 H38 0.928 . S
C21 C18 1.260 . S
C21 C19 1.479 . S
C22 C17 1.245 . S
C22 C18 1.477 . S
C22 H39 0.932 . S
C23 U6 2.882 . S
C23 C17 1.428 . S
C23 O26 1.301 . S
C23 O27 1.282 . S
O24 U6 2.441 . S
O24 C10 1.249 . S
O25 U6 2.420 . S
O25 C10 1.202 . S
O26 U6 2.455 . S
O26 C23 1.301 . S
O27 U6 2.449 . S
O27 C23 1.282 . S
H28 C1 0.931 . S
H29 C3 0.929 . S
H30 C4 0.930 . S
H31 C5 0.931 . S
H32 C12 0.932 . S
H33 C13 0.930 . S
H34 C14 0.929 . S
H35 C16 0.930 . S
H36 C18 0.932 . S
H37 C19 0.929 . S
H38 C20 0.928 . S
H39 C22 0.932 . S
C40 C41 1.264 . S
C40 C45 1.479 . S
C40 C50 1.465 . S
C41 C40 1.264 . S
C41 C43 1.339 . S
C41 H68 0.931 . S
C42 C43 1.395 . S
C42 C44 1.320 . S
C43 C41 1.339 . S
C43 C42 1.395 . S
C43 H69 0.929 . S
C44 C42 1.320 . S
C44 C45 1.405 . S
C44 H70 0.930 . S
C45 C40 1.479 . S
C45 C44 1.405 . S
C45 H71 0.931 . S
U46 O47 2.454 . S
U46 O48 2.458 . S
U46 C49 2.984 . S
U46 C50 2.847 . S
U46 C63 2.882 . S
U46 O64 2.441 . S
U46 O65 2.420 . S
U46 O66 2.455 . S
U46 O67 2.449 . S
O47 U46 2.454 . S
O47 C49 1.353 . S
O48 U46 2.458 . S
O48 C49 1.286 . S
C49 U46 2.984 . S
C49 O47 1.353 . S
C49 O48 1.286 . S
C49 C51 1.363 . S
C50 C40 1.465 . S
C50 U46 2.847 . S
C50 O64 1.249 . S
C50 O65 1.202 . S
C51 C49 1.363 . S
C51 C53 1.408 . S
C51 C56 1.342 . S
C52 C53 1.310 . S
C52 C55 1.461 . S
C52 H72 0.932 . S
C53 C51 1.408 . S
C53 C52 1.310 . S
C53 H73 0.930 . S
C54 C55 1.474 . S
C54 C56 1.285 . S
C54 H74 0.929 . S
C55 C52 1.461 . S
C55 C54 1.474 . S
C56 C51 1.342 . S
C56 C54 1.285 . S
C56 H75 0.930 . S
C57 C60 1.424 . S
C57 C62 1.245 . S
C57 C63 1.428 . S
C58 C61 1.260 . S
C58 C62 1.477 . S
C58 H76 0.932 . S
C59 C60 1.384 . S
C59 C61 1.479 . S
C59 H77 0.929 . S
C60 C57 1.424 . S
C60 C59 1.384 . S
C60 H78 0.928 . S
C61 C58 1.260 . S
C61 C59 1.479 . S
C62 C57 1.245 . S
C62 C58 1.477 . S
C62 H79 0.932 . S
C63 U46 2.882 . S
C63 C57 1.428 . S
C63 O66 1.301 . S
C63 O67 1.282 . S
O64 U46 2.441 . S
O64 C50 1.249 . S
O65 U46 2.420 . S
O65 C50 1.202 . S
O66 U46 2.455 . S
O66 C63 1.301 . S
O67 U46 2.449 . S
O67 C63 1.282 . S
H68 C41 0.931 . S
H69 C43 0.929 . S
H70 C44 0.930 . S
H71 C45 0.931 . S
H72 C52 0.932 . S
H73 C53 0.930 . S
H74 C54 0.929 . S
H75 C56 0.930 . S
H76 C58 0.932 . S
H77 C59 0.929 . S
H78 C60 0.928 . S
H79 C62 0.932 . S
C80 C81 1.264 . S
C80 C85 1.479 . S
C80 C90 1.465 . S
C81 C80 1.264 . S
C81 C83 1.339 . S
C81 H108 0.931 . S
C82 C83 1.395 . S
C82 C84 1.320 . S
C83 C81 1.339 . S
C83 C82 1.395 . S
C83 H109 0.929 . S
C84 C82 1.320 . S
C84 C85 1.405 . S
C84 H110 0.930 . S
C85 C80 1.479 . S
C85 C84 1.405 . S
C85 H111 0.931 . S
U86 O87 2.454 . S
U86 O88 2.458 . S
U86 C89 2.984 . S
U86 C90 2.847 . S
U86 C103 2.882 . S
U86 O104 2.441 . S
U86 O105 2.420 . S
U86 O106 2.455 . S
U86 O107 2.449 . S
O87 U86 2.454 . S
O87 C89 1.353 . S
O88 U86 2.458 . S
O88 C89 1.286 . S
C89 U86 2.984 . S
C89 O87 1.353 . S
C89 O88 1.286 . S
C89 C91 1.363 . S
C90 C80 1.465 . S
C90 U86 2.847 . S
C90 O104 1.249 . S
C90 O105 1.202 . S
C91 C89 1.363 . S
C91 C93 1.408 . S
C91 C96 1.342 . S
C92 C93 1.310 . S
C92 C95 1.461 . S
C92 H112 0.932 . S
C93 C91 1.408 . S
C93 C92 1.310 . S
C93 H113 0.930 . S
C94 C95 1.474 . S
C94 C96 1.285 . S
C94 H114 0.929 . S
C95 C92 1.461 . S
C95 C94 1.474 . S
C96 C91 1.342 . S
C96 C94 1.285 . S
C96 H115 0.930 . S
C97 C100 1.424 . S
C97 C102 1.245 . S
C97 C103 1.428 . S
C98 C101 1.260 . S
C98 C102 1.477 . S
C98 H116 0.932 . S
C99 C100 1.384 . S
C99 C101 1.479 . S
C99 H117 0.929 . S
C100 C97 1.424 . S
C100 C99 1.384 . S
C100 H118 0.928 . S
C101 C98 1.260 . S
C101 C99 1.479 . S
C102 C97 1.245 . S
C102 C98 1.477 . S
C102 H119 0.932 . S
C103 U86 2.882 . S
C103 C97 1.428 . S
C103 O106 1.301 . S
C103 O107 1.282 . S
O104 U86 2.441 . S
O104 C90 1.249 . S
O105 U86 2.420 . S
O105 C90 1.202 . S
O106 U86 2.455 . S
O106 C103 1.301 . S
O107 U86 2.449 . S
O107 C103 1.282 . S
H108 C81 0.931 . S
H109 C83 0.929 . S
H110 C84 0.930 . S
H111 C85 0.931 . S
H112 C92 0.932 . S
H113 C93 0.930 . S
H114 C94 0.929 . S
H115 C96 0.930 . S
H116 C98 0.932 . S
H117 C99 0.929 . S
H118 C100 0.928 . S
H119 C102 0.932 . S
C120 C121 1.264 . S
C120 C125 1.479 . S
C120 C130 1.465 . S
C121 C120 1.264 . S
C121 C123 1.339 . S
C121 H148 0.931 . S
C122 C123 1.395 . S
C122 C124 1.320 . S
C123 C121 1.339 . S
C123 C122 1.395 . S
C123 H149 0.929 . S
C124 C122 1.320 . S
C124 C125 1.405 . S
C124 H150 0.930 . S
C125 C120 1.479 . S
C125 C124 1.405 . S
C125 H151 0.931 . S
U126 O127 2.454 . S
U126 O128 2.458 . S
U126 C129 2.984 . S
U126 C130 2.847 . S
U126 C143 2.882 . S
U126 O144 2.441 . S
U126 O145 2.420 . S
U126 O146 2.455 . S
U126 O147 2.449 . S
O127 U126 2.454 . S
O127 C129 1.353 . S
O128 U126 2.458 . S
O128 C129 1.286 . S
C129 U126 2.984 . S
C129 O127 1.353 . S
C129 O128 1.286 . S
C129 C131 1.363 . S
C130 C120 1.465 . S
C130 U126 2.847 . S
C130 O144 1.249 . S
C130 O145 1.202 . S
C131 C129 1.363 . S
C131 C133 1.408 . S
C131 C136 1.342 . S
C132 C133 1.310 . S
C132 C135 1.461 . S
C132 H152 0.932 . S
C133 C131 1.408 . S
C133 C132 1.310 . S
C133 H153 0.930 . S
C134 C135 1.474 . S
C134 C136 1.285 . S
C134 H154 0.929 . S
C135 C132 1.461 . S
C135 C134 1.474 . S
C136 C131 1.342 . S
C136 C134 1.285 . S
C136 H155 0.930 . S
C137 C140 1.424 . S
C137 C142 1.245 . S
C137 C143 1.428 . S
C138 C141 1.260 . S
C138 C142 1.477 . S
C138 H156 0.932 . S
C139 C140 1.384 . S
C139 C141 1.479 . S
C139 H157 0.929 . S
C140 C137 1.424 . S
C140 C139 1.384 . S
C140 H158 0.928 . S
C141 C138 1.260 . S
C141 C139 1.479 . S
C142 C137 1.245 . S
C142 C138 1.477 . S
C142 H159 0.932 . S
C143 U126 2.882 . S
C143 C137 1.428 . S
C143 O146 1.301 . S
C143 O147 1.282 . S
O144 U126 2.441 . S
O144 C130 1.249 . S
O145 U126 2.420 . S
O145 C130 1.202 . S
O146 U126 2.455 . S
O146 C143 1.301 . S
O147 U126 2.449 . S
O147 C143 1.282 . S
H148 C121 0.931 . S
H149 C123 0.929 . S
H150 C124 0.930 . S
H151 C125 0.931 . S
H152 C132 0.932 . S
H153 C133 0.930 . S
H154 C134 0.929 . S
H155 C136 0.930 . S
H156 C138 0.932 . S
H157 C139 0.929 . S
H158 C140 0.928 . S
H159 C142 0.932 . S
C160 C161 1.264 . S
C160 C165 1.479 . S
C160 C170 1.465 . S
C161 C160 1.264 . S
C161 C163 1.339 . S
C161 H188 0.931 . S
C162 C163 1.395 . S
C162 C164 1.320 . S
C163 C161 1.339 . S
C163 C162 1.395 . S
C163 H189 0.929 . S
C164 C162 1.320 . S
C164 C165 1.405 . S
C164 H190 0.930 . S
C165 C160 1.479 . S
C165 C164 1.405 . S
C165 H191 0.931 . S
U166 O167 2.454 . S
U166 O168 2.458 . S
U166 C169 2.984 . S
U166 C170 2.847 . S
U166 C183 2.882 . S
U166 O184 2.441 . S
U166 O185 2.420 . S
U166 O186 2.455 . S
U166 O187 2.449 . S
O167 U166 2.454 . S
O167 C169 1.353 . S
O168 U166 2.458 . S
O168 C169 1.286 . S
C169 U166 2.984 . S
C169 O167 1.353 . S
C169 O168 1.286 . S
C169 C171 1.363 . S
C170 C160 1.465 . S
C170 U166 2.847 . S
C170 O184 1.249 . S
C170 O185 1.202 . S
C171 C169 1.363 . S
C171 C173 1.408 . S
C171 C176 1.342 . S
C172 C173 1.310 . S
C172 C175 1.461 . S
C172 H192 0.932 . S
C173 C171 1.408 . S
C173 C172 1.310 . S
C173 H193 0.930 . S
C174 C175 1.474 . S
C174 C176 1.285 . S
C174 H194 0.929 . S
C175 C172 1.461 . S
C175 C174 1.474 . S
C176 C171 1.342 . S
C176 C174 1.285 . S
C176 H195 0.930 . S
C177 C180 1.424 . S
C177 C182 1.245 . S
C177 C183 1.428 . S
C178 C181 1.260 . S
C178 C182 1.477 . S
C178 H196 0.932 . S
C179 C180 1.384 . S
C179 C181 1.479 . S
C179 H197 0.929 . S
C180 C177 1.424 . S
C180 C179 1.384 . S
C180 H198 0.928 . S
C181 C178 1.260 . S
C181 C179 1.479 . S
C182 C177 1.245 . S
C182 C178 1.477 . S
C182 H199 0.932 . S
C183 U166 2.882 . S
C183 C177 1.428 . S
C183 O186 1.301 . S
C183 O187 1.282 . S
O184 U166 2.441 . S
O184 C170 1.249 . S
O185 U166 2.420 . S
O185 C170 1.202 . S
O186 U166 2.455 . S
O186 C183 1.301 . S
O187 U166 2.449 . S
O187 C183 1.282 . S
H188 C161 0.931 . S
H189 C163 0.929 . S
H190 C164 0.930 . S
H191 C165 0.931 . S
H192 C172 0.932 . S
H193 C173 0.930 . S
H194 C174 0.929 . S
H195 C176 0.930 . S
H196 C178 0.932 . S
H197 C179 0.929 . S
H198 C180 0.928 . S
H199 C182 0.932 . S
C200 C201 1.264 . S
C200 C205 1.479 . S
C200 C210 1.465 . S
C201 C200 1.264 . S
C201 C203 1.339 . S
C201 H228 0.931 . S
C202 C203 1.395 . S
C202 C204 1.320 . S
C203 C201 1.339 . S
C203 C202 1.395 . S
C203 H229 0.929 . S
C204 C202 1.320 . S
C204 C205 1.405 . S
C204 H230 0.930 . S
C205 C200 1.479 . S
C205 C204 1.405 . S
C205 H231 0.931 . S
U206 O207 2.454 . S
U206 O208 2.458 . S
U206 C209 2.984 . S
U206 C210 2.847 . S
U206 C223 2.882 . S
U206 O224 2.441 . S
U206 O225 2.420 . S
U206 O226 2.455 . S
U206 O227 2.449 . S
O207 U206 2.454 . S
O207 C209 1.353 . S
O208 U206 2.458 . S
O208 C209 1.286 . S
C209 U206 2.984 . S
C209 O207 1.353 . S
C209 O208 1.286 . S
C209 C211 1.363 . S
C210 C200 1.465 . S
C210 U206 2.847 . S
C210 O224 1.249 . S
C210 O225 1.202 . S
C211 C209 1.363 . S
C211 C213 1.408 . S
C211 C216 1.342 . S
C212 C213 1.310 . S
C212 C215 1.461 . S
C212 H232 0.932 . S
C213 C211 1.408 . S
C213 C212 1.310 . S
C213 H233 0.930 . S
C214 C215 1.474 . S
C214 C216 1.285 . S
C214 H234 0.929 . S
C215 C212 1.461 . S
C215 C214 1.474 . S
C216 C211 1.342 . S
C216 C214 1.285 . S
C216 H235 0.930 . S
C217 C220 1.424 . S
C217 C222 1.245 . S
C217 C223 1.428 . S
C218 C221 1.260 . S
C218 C222 1.477 . S
C218 H236 0.932 . S
C219 C220 1.384 . S
C219 C221 1.479 . S
C219 H237 0.929 . S
C220 C217 1.424 . S
C220 C219 1.384 . S
C220 H238 0.928 . S
C221 C218 1.260 . S
C221 C219 1.479 . S
C222 C217 1.245 . S
C222 C218 1.477 . S
C222 H239 0.932 . S
C223 U206 2.882 . S
C223 C217 1.428 . S
C223 O226 1.301 . S
C223 O227 1.282 . S
O224 U206 2.441 . S
O224 C210 1.249 . S
O225 U206 2.420 . S
O225 C210 1.202 . S
O226 U206 2.455 . S
O226 C223 1.301 . S
O227 U206 2.449 . S
O227 C223 1.282 . S
H228 C201 0.931 . S
H229 C203 0.929 . S
H230 C204 0.930 . S
H231 C205 0.931 . S
H232 C212 0.932 . S
H233 C213 0.930 . S
H234 C214 0.929 . S
H235 C216 0.930 . S
H236 C218 0.932 . S
H237 C219 0.929 . S
H238 C220 0.928 . S
H239 C222 0.932 . S
C240 C241 1.264 . S
C240 C245 1.479 . S
C240 C250 1.465 . S
C241 C240 1.264 . S
C241 C243 1.339 . S
C241 H268 0.931 . S
C242 C243 1.395 . S
C242 C244 1.320 . S
C243 C241 1.339 . S
C243 C242 1.395 . S
C243 H269 0.929 . S
C244 C242 1.320 . S
C244 C245 1.405 . S
C244 H270 0.930 . S
C245 C240 1.479 . S
C245 C244 1.405 . S
C245 H271 0.931 . S
U246 O247 2.454 . S
U246 O248 2.458 . S
U246 C249 2.984 . S
U246 C250 2.847 . S
U246 C263 2.882 . S
U246 O264 2.441 . S
U246 O265 2.420 . S
U246 O266 2.455 . S
U246 O267 2.449 . S
O247 U246 2.454 . S
O247 C249 1.353 . S
O248 U246 2.458 . S
O248 C249 1.286 . S
C249 U246 2.984 . S
C249 O247 1.353 . S
C249 O248 1.286 . S
C249 C251 1.363 . S
C250 C240 1.465 . S
C250 U246 2.847 . S
C250 O264 1.249 . S
C250 O265 1.202 . S
C251 C249 1.363 . S
C251 C253 1.408 . S
C251 C256 1.342 . S
C252 C253 1.310 . S
C252 C255 1.461 . S
C252 H272 0.932 . S
C253 C251 1.408 . S
C253 C252 1.310 . S
C253 H273 0.930 . S
C254 C255 1.474 . S
C254 C256 1.285 . S
C254 H274 0.929 . S
C255 C252 1.461 . S
C255 C254 1.474 . S
C256 C251 1.342 . S
C256 C254 1.285 . S
C256 H275 0.930 . S
C257 C260 1.424 . S
C257 C262 1.245 . S
C257 C263 1.428 . S
C258 C261 1.260 . S
C258 C262 1.477 . S
C258 H276 0.932 . S
C259 C260 1.384 . S
C259 C261 1.479 . S
C259 H277 0.929 . S
C260 C257 1.424 . S
C260 C259 1.384 . S
C260 H278 0.928 . S
C261 C258 1.260 . S
C261 C259 1.479 . S
C262 C257 1.245 . S
C262 C258 1.477 . S
C262 H279 0.932 . S
C263 U246 2.882 . S
C263 C257 1.428 . S
C263 O266 1.301 . S
C263 O267 1.282 . S
O264 U246 2.441 . S
O264 C250 1.249 . S
O265 U246 2.420 . S
O265 C250 1.202 . S
O266 U246 2.455 . S
O266 C263 1.301 . S
O267 U246 2.449 . S
O267 C263 1.282 . S
H268 C241 0.931 . S
H269 C243 0.929 . S
H270 C244 0.930 . S
H271 C245 0.931 . S
H272 C252 0.932 . S
H273 C253 0.930 . S
H274 C254 0.929 . S
H275 C256 0.930 . S
H276 C258 0.932 . S
H277 C259 0.929 . S
H278 C260 0.928 . S
H279 C262 0.932 . S
C280 C281 1.264 . S
C280 C285 1.479 . S
C280 C290 1.465 . S
C281 C280 1.264 . S
C281 C283 1.339 . S
C281 H308 0.931 . S
C282 C283 1.395 . S
C282 C284 1.320 . S
C283 C281 1.339 . S
C283 C282 1.395 . S
C283 H309 0.929 . S
C284 C282 1.320 . S
C284 C285 1.405 . S
C284 H310 0.930 . S
C285 C280 1.479 . S
C285 C284 1.405 . S
C285 H311 0.931 . S
U286 O287 2.454 . S
U286 O288 2.458 . S
U286 C289 2.984 . S
U286 C290 2.847 . S
U286 C303 2.882 . S
U286 O304 2.441 . S
U286 O305 2.420 . S
U286 O306 2.455 . S
U286 O307 2.449 . S
O287 U286 2.454 . S
O287 C289 1.353 . S
O288 U286 2.458 . S
O288 C289 1.286 . S
C289 U286 2.984 . S
C289 O287 1.353 . S
C289 O288 1.286 . S
C289 C291 1.363 . S
C290 C280 1.465 . S
C290 U286 2.847 . S
C290 O304 1.249 . S
C290 O305 1.202 . S
C291 C289 1.363 . S
C291 C293 1.408 . S
C291 C296 1.342 . S
C292 C293 1.310 . S
C292 C295 1.461 . S
C292 H312 0.932 . S
C293 C291 1.408 . S
C293 C292 1.310 . S
C293 H313 0.930 . S
C294 C295 1.474 . S
C294 C296 1.285 . S
C294 H314 0.929 . S
C295 C292 1.461 . S
C295 C294 1.474 . S
C296 C291 1.342 . S
C296 C294 1.285 . S
C296 H315 0.930 . S
C297 C300 1.424 . S
C297 C302 1.245 . S
C297 C303 1.428 . S
C298 C301 1.260 . S
C298 C302 1.477 . S
C298 H316 0.932 . S
C299 C300 1.384 . S
C299 C301 1.479 . S
C299 H317 0.929 . S
C300 C297 1.424 . S
C300 C299 1.384 . S
C300 H318 0.928 . S
C301 C298 1.260 . S
C301 C299 1.479 . S
C302 C297 1.245 . S
C302 C298 1.477 . S
C302 H319 0.932 . S
C303 U286 2.882 . S
C303 C297 1.428 . S
C303 O306 1.301 . S
C303 O307 1.282 . S
O304 U286 2.441 . S
O304 C290 1.249 . S
O305 U286 2.420 . S
O305 C290 1.202 . S
O306 U286 2.455 . S
O306 C303 1.301 . S
O307 U286 2.449 . S
O307 C303 1.282 . S
H308 C281 0.931 . S
H309 C283 0.929 . S
H310 C284 0.930 . S
H311 C285 0.931 . S
H312 C292 0.932 . S
H313 C293 0.930 . S
H314 C294 0.929 . S
H315 C296 0.930 . S
H316 C298 0.932 . S
H317 C299 0.929 . S
H318 C300 0.928 . S
H319 C302 0.932 . S
C320 C321 1.264 . S
C320 C325 1.479 . S
C320 C330 1.465 . S
C321 C320 1.264 . S
C321 C323 1.339 . S
C321 H348 0.931 . S
C322 C323 1.395 . S
C322 C324 1.320 . S
C323 C321 1.339 . S
C323 C322 1.395 . S
C323 H349 0.929 . S
C324 C322 1.320 . S
C324 C325 1.405 . S
C324 H350 0.930 . S
C325 C320 1.479 . S
C325 C324 1.405 . S
C325 H351 0.931 . S
U326 O327 2.454 . S
U326 O328 2.458 . S
U326 C329 2.984 . S
U326 C330 2.847 . S
U326 C343 2.882 . S
U326 O344 2.441 . S
U326 O345 2.420 . S
U326 O346 2.455 . S
U326 O347 2.449 . S
O327 U326 2.454 . S
O327 C329 1.353 . S
O328 U326 2.458 . S
O328 C329 1.286 . S
C329 U326 2.984 . S
C329 O327 1.353 . S
C329 O328 1.286 . S
C329 C331 1.363 . S
C330 C320 1.465 . S
C330 U326 2.847 . S
C330 O344 1.249 . S
C330 O345 1.202 . S
C331 C329 1.363 . S
C331 C333 1.408 . S
C331 C336 1.342 . S
C332 C333 1.310 . S
C332 C335 1.461 . S
C332 H352 0.932 . S
C333 C331 1.408 . S
C333 C332 1.310 . S
C333 H353 0.930 . S
C334 C335 1.474 . S
C334 C336 1.285 . S
C334 H354 0.929 . S
C335 C332 1.461 . S
C335 C334 1.474 . S
C336 C331 1.342 . S
C336 C334 1.285 . S
C336 H355 0.930 . S
C337 C340 1.424 . S
C337 C342 1.245 . S
C337 C343 1.428 . S
C338 C341 1.260 . S
C338 C342 1.477 . S
C338 H356 0.932 . S
C339 C340 1.384 . S
C339 C341 1.479 . S
C339 H357 0.929 . S
C340 C337 1.424 . S
C340 C339 1.384 . S
C340 H358 0.928 . S
C341 C338 1.260 . S
C341 C339 1.479 . S
C342 C337 1.245 . S
C342 C338 1.477 . S
C342 H359 0.932 . S
C343 U326 2.882 . S
C343 C337 1.428 . S
C343 O346 1.301 . S
C343 O347 1.282 . S
O344 U326 2.441 . S
O344 C330 1.249 . S
O345 U326 2.420 . S
O345 C330 1.202 . S
O346 U326 2.455 . S
O346 C343 1.301 . S
O347 U326 2.449 . S
O347 C343 1.282 . S
H348 C321 0.931 . S
H349 C323 0.929 . S
H350 C324 0.930 . S
H351 C325 0.931 . S
H352 C332 0.932 . S
H353 C333 0.930 . S
H354 C334 0.929 . S
H355 C336 0.930 . S
H356 C338 0.932 . S
H357 C339 0.929 . S
H358 C340 0.928 . S
H359 C342 0.932 . S
C360 C361 1.264 . S
C360 C365 1.479 . S
C360 C370 1.465 . S
C361 C360 1.264 . S
C361 C363 1.339 . S
C361 H388 0.931 . S
C362 C363 1.395 . S
C362 C364 1.320 . S
C363 C361 1.339 . S
C363 C362 1.395 . S
C363 H389 0.929 . S
C364 C362 1.320 . S
C364 C365 1.405 . S
C364 H390 0.930 . S
C365 C360 1.479 . S
C365 C364 1.405 . S
C365 H391 0.931 . S
U366 O367 2.454 . S
U366 O368 2.458 . S
U366 C369 2.984 . S
U366 C370 2.847 . S
U366 C383 2.882 . S
U366 O384 2.441 . S
U366 O385 2.420 . S
U366 O386 2.455 . S
U366 O387 2.449 . S
O367 U366 2.454 . S
O367 C369 1.353 . S
O368 U366 2.458 . S
O368 C369 1.286 . S
C369 U366 2.984 . S
C369 O367 1.353 . S
C369 O368 1.286 . S
C369 C371 1.363 . S
C370 C360 1.465 . S
C370 U366 2.847 . S
C370 O384 1.249 . S
C370 O385 1.202 . S
C371 C369 1.363 . S
C371 C373 1.408 . S
C371 C376 1.342 . S
C372 C373 1.310 . S
C372 C375 1.461 . S
C372 H392 0.932 . S
C373 C371 1.408 . S
C373 C372 1.310 . S
C373 H393 0.930 . S
C374 C375 1.474 . S
C374 C376 1.285 . S
C374 H394 0.929 . S
C375 C372 1.461 . S
C375 C374 1.474 . S
C376 C371 1.342 . S
C376 C374 1.285 . S
C376 H395 0.930 . S
C377 C380 1.424 . S
C377 C382 1.245 . S
C377 C383 1.428 . S
C378 C381 1.260 . S
C378 C382 1.477 . S
C378 H396 0.932 . S
C379 C380 1.384 . S
C379 C381 1.479 . S
C379 H397 0.929 . S
C380 C377 1.424 . S
C380 C379 1.384 . S
C380 H398 0.928 . S
C381 C378 1.260 . S
C381 C379 1.479 . S
C382 C377 1.245 . S
C382 C378 1.477 . S
C382 H399 0.932 . S
C383 U366 2.882 . S
C383 C377 1.428 . S
C383 O386 1.301 . S
C383 O387 1.282 . S
O384 U366 2.441 . S
O384 C370 1.249 . S
O385 U366 2.420 . S
O385 C370 1.202 . S
O386 U366 2.455 . S
O386 C383 1.301 . S
O387 U366 2.449 . S
O387 C383 1.282 . S
H388 C361 0.931 . S
H389 C363 0.929 . S
H390 C364 0.930 . S
H391 C365 0.931 . S
H392 C372 0.932 . S
H393 C373 0.930 . S
H394 C374 0.929 . S
H395 C376 0.930 . S
H396 C378 0.932 . S
H397 C379 0.929 . S
H398 C380 0.928 . S
H399 C382 0.932 . S
C400 C401 1.264 . S
C400 C405 1.479 . S
C400 C410 1.465 . S
C401 C400 1.264 . S
C401 C403 1.339 . S
C401 H428 0.931 . S
C402 C403 1.395 . S
C402 C404 1.320 . S
C403 C401 1.339 . S
C403 C402 1.395 . S
C403 H429 0.929 . S
C404 C402 1.320 . S
C404 C405 1.405 . S
C404 H430 0.930 . S
C405 C400 1.479 . S
C405 C404 1.405 . S
C405 H431 0.931 . S
U406 O407 2.454 . S
U406 O408 2.458 . S
U406 C409 2.984 . S
U406 C410 2.847 . S
U406 C423 2.882 . S
U406 O424 2.441 . S
U406 O425 2.420 . S
U406 O426 2.455 . S
U406 O427 2.449 . S
O407 U406 2.454 . S
O407 C409 1.353 . S
O408 U406 2.458 . S
O408 C409 1.286 . S
C409 U406 2.984 . S
C409 O407 1.353 . S
C409 O408 1.286 . S
C409 C411 1.363 . S
C410 C400 1.465 . S
C410 U406 2.847 . S
C410 O424 1.249 . S
C410 O425 1.202 . S
C411 C409 1.363 . S
C411 C413 1.408 . S
C411 C416 1.342 . S
C412 C413 1.310 . S
C412 C415 1.461 . S
C412 H432 0.932 . S
C413 C411 1.408 . S
C413 C412 1.310 . S
C413 H433 0.930 . S
C414 C415 1.474 . S
C414 C416 1.285 . S
C414 H434 0.929 . S
C415 C412 1.461 . S
C415 C414 1.474 . S
C416 C411 1.342 . S
C416 C414 1.285 . S
C416 H435 0.930 . S
C417 C420 1.424 . S
C417 C422 1.245 . S
C417 C423 1.428 . S
C418 C421 1.260 . S
C418 C422 1.477 . S
C418 H436 0.932 . S
C419 C420 1.384 . S
C419 C421 1.479 . S
C419 H437 0.929 . S
C420 C417 1.424 . S
C420 C419 1.384 . S
C420 H438 0.928 . S
C421 C418 1.260 . S
C421 C419 1.479 . S
C422 C417 1.245 . S
C422 C418 1.477 . S
C422 H439 0.932 . S
C423 U406 2.882 . S
C423 C417 1.428 . S
C423 O426 1.301 . S
C423 O427 1.282 . S
O424 U406 2.441 . S
O424 C410 1.249 . S
O425 U406 2.420 . S
O425 C410 1.202 . S
O426 U406 2.455 . S
O426 C423 1.301 . S
O427 U406 2.449 . S
O427 C423 1.282 . S
H428 C401 0.931 . S
H429 C403 0.929 . S
H430 C404 0.930 . S
H431 C405 0.931 . S
H432 C412 0.932 . S
H433 C413 0.930 . S
H434 C414 0.929 . S
H435 C416 0.930 . S
H436 C418 0.932 . S
H437 C419 0.929 . S
H438 C420 0.928 . S
H439 C422 0.932 . S
C440 C441 1.264 . S
C440 C445 1.479 . S
C440 C450 1.465 . S
C441 C440 1.264 . S
C441 C443 1.339 . S
C441 H468 0.931 . S
C442 C443 1.395 . S
C442 C444 1.320 . S
C443 C441 1.339 . S
C443 C442 1.395 . S
C443 H469 0.929 . S
C444 C442 1.320 . S
C444 C445 1.405 . S
C444 H470 0.930 . S
C445 C440 1.479 . S
C445 C444 1.405 . S
C445 H471 0.931 . S
U446 O447 2.454 . S
U446 O448 2.458 . S
U446 C449 2.984 . S
U446 C450 2.847 . S
U446 C463 2.882 . S
U446 O464 2.441 . S
U446 O465 2.420 . S
U446 O466 2.455 . S
U446 O467 2.449 . S
O447 U446 2.454 . S
O447 C449 1.353 . S
O448 U446 2.458 . S
O448 C449 1.286 . S
C449 U446 2.984 . S
C449 O447 1.353 . S
C449 O448 1.286 . S
C449 C451 1.363 . S
C450 C440 1.465 . S
C450 U446 2.847 . S
C450 O464 1.249 . S
C450 O465 1.202 . S
C451 C449 1.363 . S
C451 C453 1.408 . S
C451 C456 1.342 . S
C452 C453 1.310 . S
C452 C455 1.461 . S
C452 H472 0.932 . S
C453 C451 1.408 . S
C453 C452 1.310 . S
C453 H473 0.930 . S
C454 C455 1.474 . S
C454 C456 1.285 . S
C454 H474 0.929 . S
C455 C452 1.461 . S
C455 C454 1.474 . S
C456 C451 1.342 . S
C456 C454 1.285 . S
C456 H475 0.930 . S
C457 C460 1.424 . S
C457 C462 1.245 . S
C457 C463 1.428 . S
C458 C461 1.260 . S
C458 C462 1.477 . S
C458 H476 0.932 . S
C459 C460 1.384 . S
C459 C461 1.479 . S
C459 H477 0.929 . S
C460 C457 1.424 . S
C460 C459 1.384 . S
C460 H478 0.928 . S
C461 C458 1.260 . S
C461 C459 1.479 . S
C462 C457 1.245 . S
C462 C458 1.477 . S
C462 H479 0.932 . S
C463 U446 2.882 . S
C463 C457 1.428 . S
C463 O466 1.301 . S
C463 O467 1.282 . S
O464 U446 2.441 . S
O464 C450 1.249 . S
O465 U446 2.420 . S
O465 C450 1.202 . S
O466 U446 2.455 . S
O466 C463 1.301 . S
O467 U446 2.449 . S
O467 C463 1.282 . S
H468 C441 0.931 . S
H469 C443 0.929 . S
H470 C444 0.930 . S
H471 C445 0.931 . S
H472 C452 0.932 . S
H473 C453 0.930 . S
H474 C454 0.929 . S
H475 C456 0.930 . S
H476 C458 0.932 . S
H477 C459 0.929 . S
H478 C460 0.928 . S
H479 C462 0.932 . S
C480 C481 1.264 . S
C480 C485 1.479 . S
C480 C490 1.465 . S
C481 C480 1.264 . S
C481 C483 1.339 . S
C481 H508 0.931 . S
C482 C483 1.395 . S
C482 C484 1.320 . S
C483 C481 1.339 . S
C483 C482 1.395 . S
C483 H509 0.929 . S
C484 C482 1.320 . S
C484 C485 1.405 . S
C484 H510 0.930 . S
C485 C480 1.479 . S
C485 C484 1.405 . S
C485 H511 0.931 . S
U486 O487 2.454 . S
U486 O488 2.458 . S
U486 C489 2.984 . S
U486 C490 2.847 . S
U486 C503 2.882 . S
U486 O504 2.441 . S
U486 O505 2.420 . S
U486 O506 2.455 . S
U486 O507 2.449 . S
O487 U486 2.454 . S
O487 C489 1.353 . S
O488 U486 2.458 . S
O488 C489 1.286 . S
C489 U486 2.984 . S
C489 O487 1.353 . S
C489 O488 1.286 . S
C489 C491 1.363 . S
C490 C480 1.465 . S
C490 U486 2.847 . S
C490 O504 1.249 . S
C490 O505 1.202 . S
C491 C489 1.363 . S
C491 C493 1.408 . S
C491 C496 1.342 . S
C492 C493 1.310 . S
C492 C495 1.461 . S
C492 H512 0.932 . S
C493 C491 1.408 . S
C493 C492 1.310 . S
C493 H513 0.930 . S
C494 C495 1.474 . S
C494 C496 1.285 . S
C494 H514 0.929 . S
C495 C492 1.461 . S
C495 C494 1.474 . S
C496 C491 1.342 . S
C496 C494 1.285 . S
C496 H515 0.930 . S
C497 C500 1.424 . S
C497 C502 1.245 . S
C497 C503 1.428 . S
C498 C501 1.260 . S
C498 C502 1.477 . S
C498 H516 0.932 . S
C499 C500 1.384 . S
C499 C501 1.479 . S
C499 H517 0.929 . S
C500 C497 1.424 . S
C500 C499 1.384 . S
C500 H518 0.928 . S
C501 C498 1.260 . S
C501 C499 1.479 . S
C502 C497 1.245 . S
C502 C498 1.477 . S
C502 H519 0.932 . S
C503 U486 2.882 . S
C503 C497 1.428 . S
C503 O506 1.301 . S
C503 O507 1.282 . S
O504 U486 2.441 . S
O504 C490 1.249 . S
O505 U486 2.420 . S
O505 C490 1.202 . S
O506 U486 2.455 . S
O506 C503 1.301 . S
O507 U486 2.449 . S
O507 C503 1.282 . S
H508 C481 0.931 . S
H509 C483 0.929 . S
H510 C484 0.930 . S
H511 C485 0.931 . S
H512 C492 0.932 . S
H513 C493 0.930 . S
H514 C494 0.929 . S
H515 C496 0.930 . S
H516 C498 0.932 . S
H517 C499 0.929 . S
H518 C500 0.928 . S
H519 C502 0.932 . S
C520 C521 1.264 . S
C520 C525 1.479 . S
C520 C530 1.465 . S
C521 C520 1.264 . S
C521 C523 1.339 . S
C521 H548 0.931 . S
C522 C523 1.395 . S
C522 C524 1.320 . S
C523 C521 1.339 . S
C523 C522 1.395 . S
C523 H549 0.929 . S
C524 C522 1.320 . S
C524 C525 1.405 . S
C524 H550 0.930 . S
C525 C520 1.479 . S
C525 C524 1.405 . S
C525 H551 0.931 . S
U526 O527 2.454 . S
U526 O528 2.458 . S
U526 C529 2.984 . S
U526 C530 2.847 . S
U526 C543 2.882 . S
U526 O544 2.441 . S
U526 O545 2.420 . S
U526 O546 2.455 . S
U526 O547 2.449 . S
O527 U526 2.454 . S
O527 C529 1.353 . S
O528 U526 2.458 . S
O528 C529 1.286 . S
C529 U526 2.984 . S
C529 O527 1.353 . S
C529 O528 1.286 . S
C529 C531 1.363 . S
C530 C520 1.465 . S
C530 U526 2.847 . S
C530 O544 1.249 . S
C530 O545 1.202 . S
C531 C529 1.363 . S
C531 C533 1.408 . S
C531 C536 1.342 . S
C532 C533 1.310 . S
C532 C535 1.461 . S
C532 H552 0.932 . S
C533 C531 1.408 . S
C533 C532 1.310 . S
C533 H553 0.930 . S
C534 C535 1.474 . S
C534 C536 1.285 . S
C534 H554 0.929 . S
C535 C532 1.461 . S
C535 C534 1.474 . S
C536 C531 1.342 . S
C536 C534 1.285 . S
C536 H555 0.930 . S
C537 C540 1.424 . S
C537 C542 1.245 . S
C537 C543 1.428 . S
C538 C541 1.260 . S
C538 C542 1.477 . S
C538 H556 0.932 . S
C539 C540 1.384 . S
C539 C541 1.479 . S
C539 H557 0.929 . S
C540 C537 1.424 . S
C540 C539 1.384 . S
C540 H558 0.928 . S
C541 C538 1.260 . S
C541 C539 1.479 . S
C542 C537 1.245 . S
C542 C538 1.477 . S
C542 H559 0.932 . S
C543 U526 2.882 . S
C543 C537 1.428 . S
C543 O546 1.301 . S
C543 O547 1.282 . S
O544 U526 2.441 . S
O544 C530 1.249 . S
O545 U526 2.420 . S
O545 C530 1.202 . S
O546 U526 2.455 . S
O546 C543 1.301 . S
O547 U526 2.449 . S
O547 C543 1.282 . S
H548 C521 0.931 . S
H549 C523 0.929 . S
H550 C524 0.930 . S
H551 C525 0.931 . S
H552 C532 0.932 . S
H553 C533 0.930 . S
H554 C534 0.929 . S
H555 C536 0.930 . S
H556 C538 0.932 . S
H557 C539 0.929 . S
H558 C540 0.928 . S
H559 C542 0.932 . S
C560 C561 1.264 . S
C560 C565 1.479 . S
C560 C570 1.465 . S
C561 C560 1.264 . S
C561 C563 1.339 . S
C561 H588 0.931 . S
C562 C563 1.395 . S
C562 C564 1.320 . S
C563 C561 1.339 . S
C563 C562 1.395 . S
C563 H589 0.929 . S
C564 C562 1.320 . S
C564 C565 1.405 . S
C564 H590 0.930 . S
C565 C560 1.479 . S
C565 C564 1.405 . S
C565 H591 0.931 . S
U566 O567 2.454 . S
U566 O568 2.458 . S
U566 C569 2.984 . S
U566 C570 2.847 . S
U566 C583 2.882 . S
U566 O584 2.441 . S
U566 O585 2.420 . S
U566 O586 2.455 . S
U566 O587 2.449 . S
O567 U566 2.454 . S
O567 C569 1.353 . S
O568 U566 2.458 . S
O568 C569 1.286 . S
C569 U566 2.984 . S
C569 O567 1.353 . S
C569 O568 1.286 . S
C569 C571 1.363 . S
C570 C560 1.465 . S
C570 U566 2.847 . S
C570 O584 1.249 . S
C570 O585 1.202 . S
C571 C569 1.363 . S
C571 C573 1.408 . S
C571 C576 1.342 . S
C572 C573 1.310 . S
C572 C575 1.461 . S
C572 H592 0.932 . S
C573 C571 1.408 . S
C573 C572 1.310 . S
C573 H593 0.930 . S
C574 C575 1.474 . S
C574 C576 1.285 . S
C574 H594 0.929 . S
C575 C572 1.461 . S
C575 C574 1.474 . S
C576 C571 1.342 . S
C576 C574 1.285 . S
C576 H595 0.930 . S
C577 C580 1.424 . S
C577 C582 1.245 . S
C577 C583 1.428 . S
C578 C581 1.260 . S
C578 C582 1.477 . S
C578 H596 0.932 . S
C579 C580 1.384 . S
C579 C581 1.479 . S
C579 H597 0.929 . S
C580 C577 1.424 . S
C580 C579 1.384 . S
C580 H598 0.928 . S
C581 C578 1.260 . S
C581 C579 1.479 . S
C582 C577 1.245 . S
C582 C578 1.477 . S
C582 H599 0.932 . S
C583 U566 2.882 . S
C583 C577 1.428 . S
C583 O586 1.301 . S
C583 O587 1.282 . S
O584 U566 2.441 . S
O584 C570 1.249 . S
O585 U566 2.420 . S
O585 C570 1.202 . S
O586 U566 2.455 . S
O586 C583 1.301 . S
O587 U566 2.449 . S
O587 C583 1.282 . S
H588 C561 0.931 . S
H589 C563 0.929 . S
H590 C564 0.930 . S
H591 C565 0.931 . S
H592 C572 0.932 . S
H593 C573 0.930 . S
H594 C574 0.929 . S
H595 C576 0.930 . S
H596 C578 0.932 . S
H597 C579 0.929 . S
H598 C580 0.928 . S
H599 C582 0.932 . S
C600 C601 1.264 . S
C600 C605 1.479 . S
C600 C610 1.465 . S
C601 C600 1.264 . S
C601 C603 1.339 . S
C601 H628 0.931 . S
C602 C603 1.395 . S
C602 C604 1.320 . S
C603 C601 1.339 . S
C603 C602 1.395 . S
C603 H629 0.929 . S
C604 C602 1.320 . S
C604 C605 1.405 . S
C604 H630 0.930 . S
C605 C600 1.479 . S
C605 C604 1.405 . S
C605 H631 0.931 . S
U606 O607 2.454 . S
U606 O608 2.458 . S
U606 C609 2.984 . S
U606 C610 2.847 . S
U606 C623 2.882 . S
U606 O624 2.441 . S
U606 O625 2.420 . S
U606 O626 2.455 . S
U606 O627 2.449 . S
O607 U606 2.454 . S
O607 C609 1.353 . S
O608 U606 2.458 . S
O608 C609 1.286 . S
C609 U606 2.984 . S
C609 O607 1.353 . S
C609 O608 1.286 . S
C609 C611 1.363 . S
C610 C600 1.465 . S
C610 U606 2.847 . S
C610 O624 1.249 . S
C610 O625 1.202 . S
C611 C609 1.363 . S
C611 C613 1.408 . S
C611 C616 1.342 . S
C612 C613 1.310 . S
C612 C615 1.461 . S
C612 H632 0.932 . S
C613 C611 1.408 . S
C613 C612 1.310 . S
C613 H633 0.930 . S
C614 C615 1.474 . S
C614 C616 1.285 . S
C614 H634 0.929 . S
C615 C612 1.461 . S
C615 C614 1.474 . S
C616 C611 1.342 . S
C616 C614 1.285 . S
C616 H635 0.930 . S
C617 C620 1.424 . S
C617 C622 1.245 . S
C617 C623 1.428 . S
C618 C621 1.260 . S
C618 C622 1.477 . S
C618 H636 0.932 . S
C619 C620 1.384 . S
C619 C621 1.479 . S
C619 H637 0.929 . S
C620 C617 1.424 . S
C620 C619 1.384 . S
C620 H638 0.928 . S
C621 C618 1.260 . S
C621 C619 1.479 . S
C622 C617 1.245 . S
C622 C618 1.477 . S
C622 H639 0.932 . S
C623 U606 2.882 . S
C623 C617 1.428 . S
C623 O626 1.301 . S
C623 O627 1.282 . S
O624 U606 2.441 . S
O624 C610 1.249 . S
O625 U606 2.420 . S
O625 C610 1.202 . S
O626 U606 2.455 . S
O626 C623 1.301 . S
O627 U606 2.449 . S
O627 C623 1.282 . S
H628 C601 0.931 . S
H629 C603 0.929 . S
H630 C604 0.930 . S
H631 C605 0.931 . S
H632 C612 0.932 . S
H633 C613 0.930 . S
H634 C614 0.929 . S
H635 C616 0.930 . S
H636 C618 0.932 . S
H637 C619 0.929 . S
H638 C620 0.928 . S
H639 C622 0.932 . S
C640 C641 1.264 . S
C640 C645 1.479 . S
C640 C650 1.465 . S
C641 C640 1.264 . S
C641 C643 1.339 . S
C641 H668 0.931 . S
C642 C643 1.395 . S
C642 C644 1.320 . S
C643 C641 1.339 . S
C643 C642 1.395 . S
C643 H669 0.929 . S
C644 C642 1.320 . S
C644 C645 1.405 . S
C644 H670 0.930 . S
C645 C640 1.479 . S
C645 C644 1.405 . S
C645 H671 0.931 . S
U646 O647 2.454 . S
U646 O648 2.458 . S
U646 C649 2.984 . S
U646 C650 2.847 . S
U646 C663 2.882 . S
U646 O664 2.441 . S
U646 O665 2.420 . S
U646 O666 2.455 . S
U646 O667 2.449 . S
O647 U646 2.454 . S
O647 C649 1.353 . S
O648 U646 2.458 . S
O648 C649 1.286 . S
C649 U646 2.984 . S
C649 O647 1.353 . S
C649 O648 1.286 . S
C649 C651 1.363 . S
C650 C640 1.465 . S
C650 U646 2.847 . S
C650 O664 1.249 . S
C650 O665 1.202 . S
C651 C649 1.363 . S
C651 C653 1.408 . S
C651 C656 1.342 . S
C652 C653 1.310 . S
C652 C655 1.461 . S
C652 H672 0.932 . S
C653 C651 1.408 . S
C653 C652 1.310 . S
C653 H673 0.930 . S
C654 C655 1.474 . S
C654 C656 1.285 . S
C654 H674 0.929 . S
C655 C652 1.461 . S
C655 C654 1.474 . S
C656 C651 1.342 . S
C656 C654 1.285 . S
C656 H675 0.930 . S
C657 C660 1.424 . S
C657 C662 1.245 . S
C657 C663 1.428 . S
C658 C661 1.260 . S
C658 C662 1.477 . S
C658 H676 0.932 . S
C659 C660 1.384 . S
C659 C661 1.479 . S
C659 H677 0.929 . S
C660 C657 1.424 . S
C660 C659 1.384 . S
C660 H678 0.928 . S
C661 C658 1.260 . S
C661 C659 1.479 . S
C662 C657 1.245 . S
C662 C658 1.477 . S
C662 H679 0.932 . S
C663 U646 2.882 . S
C663 C657 1.428 . S
C663 O666 1.301 . S
C663 O667 1.282 . S
O664 U646 2.441 . S
O664 C650 1.249 . S
O665 U646 2.420 . S
O665 C650 1.202 . S
O666 U646 2.455 . S
O666 C663 1.301 . S
O667 U646 2.449 . S
O667 C663 1.282 . S
H668 C641 0.931 . S
H669 C643 0.929 . S
H670 C644 0.930 . S
H671 C645 0.931 . S
H672 C652 0.932 . S
H673 C653 0.930 . S
H674 C654 0.929 . S
H675 C656 0.930 . S
H676 C658 0.932 . S
H677 C659 0.929 . S
H678 C660 0.928 . S
H679 C662 0.932 . S
C680 C681 1.264 . S
C680 C685 1.479 . S
C680 C690 1.465 . S
C681 C680 1.264 . S
C681 C683 1.339 . S
C681 H708 0.931 . S
C682 C683 1.395 . S
C682 C684 1.320 . S
C683 C681 1.339 . S
C683 C682 1.395 . S
C683 H709 0.929 . S
C684 C682 1.320 . S
C684 C685 1.405 . S
C684 H710 0.930 . S
C685 C680 1.479 . S
C685 C684 1.405 . S
C685 H711 0.931 . S
U686 O687 2.454 . S
U686 O688 2.458 . S
U686 C689 2.984 . S
U686 C690 2.847 . S
U686 C703 2.882 . S
U686 O704 2.441 . S
U686 O705 2.420 . S
U686 O706 2.455 . S
U686 O707 2.449 . S
O687 U686 2.454 . S
O687 C689 1.353 . S
O688 U686 2.458 . S
O688 C689 1.286 . S
C689 U686 2.984 . S
C689 O687 1.353 . S
C689 O688 1.286 . S
C689 C691 1.363 . S
C690 C680 1.465 . S
C690 U686 2.847 . S
C690 O704 1.249 . S
C690 O705 1.202 . S
C691 C689 1.363 . S
C691 C693 1.408 . S
C691 C696 1.342 . S
C692 C693 1.310 . S
C692 C695 1.461 . S
C692 H712 0.932 . S
C693 C691 1.408 . S
C693 C692 1.310 . S
C693 H713 0.930 . S
C694 C695 1.474 . S
C694 C696 1.285 . S
C694 H714 0.929 . S
C695 C692 1.461 . S
C695 C694 1.474 . S
C696 C691 1.342 . S
C696 C694 1.285 . S
C696 H715 0.930 . S
C697 C700 1.424 . S
C697 C702 1.245 . S
C697 C703 1.428 . S
C698 C701 1.260 . S
C698 C702 1.477 . S
C698 H716 0.932 . S
C699 C700 1.384 . S
C699 C701 1.479 . S
C699 H717 0.929 . S
C700 C697 1.424 . S
C700 C699 1.384 . S
C700 H718 0.928 . S
C701 C698 1.260 . S
C701 C699 1.479 . S
C702 C697 1.245 . S
C702 C698 1.477 . S
C702 H719 0.932 . S
C703 U686 2.882 . S
C703 C697 1.428 . S
C703 O706 1.301 . S
C703 O707 1.282 . S
O704 U686 2.441 . S
O704 C690 1.249 . S
O705 U686 2.420 . S
O705 C690 1.202 . S
O706 U686 2.455 . S
O706 C703 1.301 . S
O707 U686 2.449 . S
O707 C703 1.282 . S
H708 C681 0.931 . S
H709 C683 0.929 . S
H710 C684 0.930 . S
H711 C685 0.931 . S
H712 C692 0.932 . S
H713 C693 0.930 . S
H714 C694 0.929 . S
H715 C696 0.930 . S
H716 C698 0.932 . S
H717 C699 0.929 . S
H718 C700 0.928 . S
H719 C702 0.932 . S
C720 C721 1.264 . S
C720 C725 1.479 . S
C720 C730 1.465 . S
C721 C720 1.264 . S
C721 C723 1.339 . S
C721 H748 0.931 . S
C722 C723 1.395 . S
C722 C724 1.320 . S
C723 C721 1.339 . S
C723 C722 1.395 . S
C723 H749 0.929 . S
C724 C722 1.320 . S
C724 C725 1.405 . S
C724 H750 0.930 . S
C725 C720 1.479 . S
C725 C724 1.405 . S
C725 H751 0.931 . S
U726 O727 2.454 . S
U726 O728 2.458 . S
U726 C729 2.984 . S
U726 C730 2.847 . S
U726 C743 2.882 . S
U726 O744 2.441 . S
U726 O745 2.420 . S
U726 O746 2.455 . S
U726 O747 2.449 . S
O727 U726 2.454 . S
O727 C729 1.353 . S
O728 U726 2.458 . S
O728 C729 1.286 . S
C729 U726 2.984 . S
C729 O727 1.353 . S
C729 O728 1.286 . S
C729 C731 1.363 . S
C730 C720 1.465 . S
C730 U726 2.847 . S
C730 O744 1.249 . S
C730 O745 1.202 . S
C731 C729 1.363 . S
C731 C733 1.408 . S
C731 C736 1.342 . S
C732 C733 1.310 . S
C732 C735 1.461 . S
C732 H752 0.932 . S
C733 C731 1.408 . S
C733 C732 1.310 . S
C733 H753 0.930 . S
C734 C735 1.474 . S
C734 C736 1.285 . S
C734 H754 0.929 . S
C735 C732 1.461 . S
C735 C734 1.474 . S
C736 C731 1.342 . S
C736 C734 1.285 . S
C736 H755 0.930 . S
C737 C740 1.424 . S
C737 C742 1.245 . S
C737 C743 1.428 . S
C738 C741 1.260 . S
C738 C742 1.477 . S
C738 H756 0.932 . S
C739 C740 1.384 . S
C739 C741 1.479 . S
C739 H757 0.929 . S
C740 C737 1.424 . S
C740 C739 1.384 . S
C740 H758 0.928 . S
C741 C738 1.260 . S
C741 C739 1.479 . S
C742 C737 1.245 . S
C742 C738 1.477 . S
C742 H759 0.932 . S
C743 U726 2.882 . S
C743 C737 1.428 . S
C743 O746 1.301 . S
C743 O747 1.282 . S
O744 U726 2.441 . S
O744 C730 1.249 . S
O745 U726 2.420 . S
O745 C730 1.202 . S
O746 U726 2.455 . S
O746 C743 1.301 . S
O747 U726 2.449 . S
O747 C743 1.282 . S
H748 C721 0.931 . S
H749 C723 0.929 . S
H750 C724 0.930 . S
H751 C725 0.931 . S
H752 C732 0.932 . S
H753 C733 0.930 . S
H754 C734 0.929 . S
H755 C736 0.930 . S
H756 C738 0.932 . S
H757 C739 0.929 . S
H758 C740 0.928 . S
H759 C742 0.932 . S
C760 C761 1.264 . S
C760 C765 1.479 . S
C760 C770 1.465 . S
C761 C760 1.264 . S
C761 C763 1.339 . S
C761 H788 0.931 . S
C762 C763 1.395 . S
C762 C764 1.320 . S
C763 C761 1.339 . S
C763 C762 1.395 . S
C763 H789 0.929 . S
C764 C762 1.320 . S
C764 C765 1.405 . S
C764 H790 0.930 . S
C765 C760 1.479 . S
C765 C764 1.405 . S
C765 H791 0.931 . S
U766 O767 2.454 . S
U766 O768 2.458 . S
U766 C769 2.984 . S
U766 C770 2.847 . S
U766 C783 2.882 . S
U766 O784 2.441 . S
U766 O785 2.420 . S
U766 O786 2.455 . S
U766 O787 2.449 . S
O767 U766 2.454 . S
O767 C769 1.353 . S
O768 U766 2.458 . S
O768 C769 1.286 . S
C769 U766 2.984 . S
C769 O767 1.353 . S
C769 O768 1.286 . S
C769 C771 1.363 . S
C770 C760 1.465 . S
C770 U766 2.847 . S
C770 O784 1.249 . S
C770 O785 1.202 . S
C771 C769 1.363 . S
C771 C773 1.408 . S
C771 C776 1.342 . S
C772 C773 1.310 . S
C772 C775 1.461 . S
C772 H792 0.932 . S
C773 C771 1.408 . S
C773 C772 1.310 . S
C773 H793 0.930 . S
C774 C775 1.474 . S
C774 C776 1.285 . S
C774 H794 0.929 . S
C775 C772 1.461 . S
C775 C774 1.474 . S
C776 C771 1.342 . S
C776 C774 1.285 . S
C776 H795 0.930 . S
C777 C780 1.424 . S
C777 C782 1.245 . S
C777 C783 1.428 . S
C778 C781 1.260 . S
C778 C782 1.477 . S
C778 H796 0.932 . S
C779 C780 1.384 . S
C779 C781 1.479 . S
C779 H797 0.929 . S
C780 C777 1.424 . S
C780 C779 1.384 . S
C780 H798 0.928 . S
C781 C778 1.260 . S
C781 C779 1.479 . S
C782 C777 1.245 . S
C782 C778 1.477 . S
C782 H799 0.932 . S
C783 U766 2.882 . S
C783 C777 1.428 . S
C783 O786 1.301 . S
C783 O787 1.282 . S
O784 U766 2.441 . S
O784 C770 1.249 . S
O785 U766 2.420 . S
O785 C770 1.202 . S
O786 U766 2.455 . S
O786 C783 1.301 . S
O787 U766 2.449 . S
O787 C783 1.282 . S
H788 C761 0.931 . S
H789 C763 0.929 . S
H790 C764 0.930 . S
H791 C765 0.931 . S
H792 C772 0.932 . S
H793 C773 0.930 . S
H794 C774 0.929 . S
H795 C776 0.930 . S
H796 C778 0.932 . S
H797 C779 0.929 . S
H798 C780 0.928 . S
H799 C782 0.932 . S
C800 C801 1.264 . S
C800 C805 1.479 . S
C800 C810 1.465 . S
C801 C800 1.264 . S
C801 C803 1.339 . S
C801 H828 0.931 . S
C802 C803 1.395 . S
C802 C804 1.320 . S
C803 C801 1.339 . S
C803 C802 1.395 . S
C803 H829 0.929 . S
C804 C802 1.320 . S
C804 C805 1.405 . S
C804 H830 0.930 . S
C805 C800 1.479 . S
C805 C804 1.405 . S
C805 H831 0.931 . S
U806 O807 2.454 . S
U806 O808 2.458 . S
U806 C809 2.984 . S
U806 C810 2.847 . S
U806 C823 2.882 . S
U806 O824 2.441 . S
U806 O825 2.420 . S
U806 O826 2.455 . S
U806 O827 2.449 . S
O807 U806 2.454 . S
O807 C809 1.353 . S
O808 U806 2.458 . S
O808 C809 1.286 . S
C809 U806 2.984 . S
C809 O807 1.353 . S
C809 O808 1.286 . S
C809 C811 1.363 . S
C810 C800 1.465 . S
C810 U806 2.847 . S
C810 O824 1.249 . S
C810 O825 1.202 . S
C811 C809 1.363 . S
C811 C813 1.408 . S
C811 C816 1.342 . S
C812 C813 1.310 . S
C812 C815 1.461 . S
C812 H832 0.932 . S
C813 C811 1.408 . S
C813 C812 1.310 . S
C813 H833 0.930 . S
C814 C815 1.474 . S
C814 C816 1.285 . S
C814 H834 0.929 . S
C815 C812 1.461 . S
C815 C814 1.474 . S
C816 C811 1.342 . S
C816 C814 1.285 . S
C816 H835 0.930 . S
C817 C820 1.424 . S
C817 C822 1.245 . S
C817 C823 1.428 . S
C818 C821 1.260 . S
C818 C822 1.477 . S
C818 H836 0.932 . S
C819 C820 1.384 . S
C819 C821 1.479 . S
C819 H837 0.929 . S
C820 C817 1.424 . S
C820 C819 1.384 . S
C820 H838 0.928 . S
C821 C818 1.260 . S
C821 C819 1.479 . S
C822 C817 1.245 . S
C822 C818 1.477 . S
C822 H839 0.932 . S
C823 U806 2.882 . S
C823 C817 1.428 . S
C823 O826 1.301 . S
C823 O827 1.282 . S
O824 U806 2.441 . S
O824 C810 1.249 . S
O825 U806 2.420 . S
O825 C810 1.202 . S
O826 U806 2.455 . S
O826 C823 1.301 . S
O827 U806 2.449 . S
O827 C823 1.282 . S
H828 C801 0.931 . S
H829 C803 0.929 . S
H830 C804 0.930 . S
H831 C805 0.931 . S
H832 C812 0.932 . S
H833 C813 0.930 . S
H834 C814 0.929 . S
H835 C816 0.930 . S
H836 C818 0.932 . S
H837 C819 0.929 . S
H838 C820 0.928 . S
H839 C822 0.932 . S
C840 C841 1.264 . S
C840 C845 1.479 . S
C840 C850 1.465 . S
C841 C840 1.264 . S
C841 C843 1.339 . S
C841 H868 0.931 . S
C842 C843 1.395 . S
C842 C844 1.320 . S
C843 C841 1.339 . S
C843 C842 1.395 . S
C843 H869 0.929 . S
C844 C842 1.320 . S
C844 C845 1.405 . S
C844 H870 0.930 . S
C845 C840 1.479 . S
C845 C844 1.405 . S
C845 H871 0.931 . S
U846 O847 2.454 . S
U846 O848 2.458 . S
U846 C849 2.984 . S
U846 C850 2.847 . S
U846 C863 2.882 . S
U846 O864 2.441 . S
U846 O865 2.420 . S
U846 O866 2.455 . S
U846 O867 2.449 . S
O847 U846 2.454 . S
O847 C849 1.353 . S
O848 U846 2.458 . S
O848 C849 1.286 . S
C849 U846 2.984 . S
C849 O847 1.353 . S
C849 O848 1.286 . S
C849 C851 1.363 . S
C850 C840 1.465 . S
C850 U846 2.847 . S
C850 O864 1.249 . S
C850 O865 1.202 . S
C851 C849 1.363 . S
C851 C853 1.408 . S
C851 C856 1.342 . S
C852 C853 1.310 . S
C852 C855 1.461 . S
C852 H872 0.932 . S
C853 C851 1.408 . S
C853 C852 1.310 . S
C853 H873 0.930 . S
C854 C855 1.474 . S
C854 C856 1.285 . S
C854 H874 0.929 . S
C855 C852 1.461 . S
C855 C854 1.474 . S
C856 C851 1.342 . S
C856 C854 1.285 . S
C856 H875 0.930 . S
C857 C860 1.424 . S
C857 C862 1.245 . S
C857 C863 1.428 . S
C858 C861 1.260 . S
C858 C862 1.477 . S
C858 H876 0.932 . S
C859 C860 1.384 . S
C859 C861 1.479 . S
C859 H877 0.929 . S
C860 C857 1.424 . S
C860 C859 1.384 . S
C860 H878 0.928 . S
C861 C858 1.260 . S
C861 C859 1.479 . S
C862 C857 1.245 . S
C862 C858 1.477 . S
C862 H879 0.932 . S
C863 U846 2.882 . S
C863 C857 1.428 . S
C863 O866 1.301 . S
C863 O867 1.282 . S
O864 U846 2.441 . S
O864 C850 1.249 . S
O865 U846 2.420 . S
O865 C850 1.202 . S
O866 U846 2.455 . S
O866 C863 1.301 . S
O867 U846 2.449 . S
O867 C863 1.282 . S
H868 C841 0.931 . S
H869 C843 0.929 . S
H870 C844 0.930 . S
H871 C845 0.931 . S
H872 C852 0.932 . S
H873 C853 0.930 . S
H874 C854 0.929 . S
H875 C856 0.930 . S
H876 C858 0.932 . S
H877 C859 0.929 . S
H878 C860 0.928 . S
H879 C862 0.932 . S
C880 C881 1.264 . S
C880 C885 1.479 . S
C880 C890 1.465 . S
C881 C880 1.264 . S
C881 C883 1.339 . S
C881 H908 0.931 . S
C882 C883 1.395 . S
C882 C884 1.320 . S
C883 C881 1.339 . S
C883 C882 1.395 . S
C883 H909 0.929 . S
C884 C882 1.320 . S
C884 C885 1.405 . S
C884 H910 0.930 . S
C885 C880 1.479 . S
C885 C884 1.405 . S
C885 H911 0.931 . S
U886 O887 2.454 . S
U886 O888 2.458 . S
U886 C889 2.984 . S
U886 C890 2.847 . S
U886 C903 2.882 . S
U886 O904 2.441 . S
U886 O905 2.420 . S
U886 O906 2.455 . S
U886 O907 2.449 . S
O887 U886 2.454 . S
O887 C889 1.353 . S
O888 U886 2.458 . S
O888 C889 1.286 . S
C889 U886 2.984 . S
C889 O887 1.353 . S
C889 O888 1.286 . S
C889 C891 1.363 . S
C890 C880 1.465 . S
C890 U886 2.847 . S
C890 O904 1.249 . S
C890 O905 1.202 . S
C891 C889 1.363 . S
C891 C893 1.408 . S
C891 C896 1.342 . S
C892 C893 1.310 . S
C892 C895 1.461 . S
C892 H912 0.932 . S
C893 C891 1.408 . S
C893 C892 1.310 . S
C893 H913 0.930 . S
C894 C895 1.474 . S
C894 C896 1.285 . S
C894 H914 0.929 . S
C895 C892 1.461 . S
C895 C894 1.474 . S
C896 C891 1.342 . S
C896 C894 1.285 . S
C896 H915 0.930 . S
C897 C900 1.424 . S
C897 C902 1.245 . S
C897 C903 1.428 . S
C898 C901 1.260 . S
C898 C902 1.477 . S
C898 H916 0.932 . S
C899 C900 1.384 . S
C899 C901 1.479 . S
C899 H917 0.929 . S
C900 C897 1.424 . S
C900 C899 1.384 . S
C900 H918 0.928 . S
C901 C898 1.260 . S
C901 C899 1.479 . S
C902 C897 1.245 . S
C902 C898 1.477 . S
C902 H919 0.932 . S
C903 U886 2.882 . S
C903 C897 1.428 . S
C903 O906 1.301 . S
C903 O907 1.282 . S
O904 U886 2.441 . S
O904 C890 1.249 . S
O905 U886 2.420 . S
O905 C890 1.202 . S
O906 U886 2.455 . S
O906 C903 1.301 . S
O907 U886 2.449 . S
O907 C903 1.282 . S
H908 C881 0.931 . S
H909 C883 0.929 . S
H910 C884 0.930 . S
H911 C885 0.931 . S
H912 C892 0.932 . S
H913 C893 0.930 . S
H914 C894 0.929 . S
H915 C896 0.930 . S
H916 C898 0.932 . S
H917 C899 0.929 . S
H918 C900 0.928 . S
H919 C902 0.932 . S
C920 C921 1.264 . S
C920 C925 1.479 . S
C920 C930 1.465 . S
C921 C920 1.264 . S
C921 C923 1.339 . S
C921 H948 0.931 . S
C922 C923 1.395 . S
C922 C924 1.320 . S
C923 C921 1.339 . S
C923 C922 1.395 . S
C923 H949 0.929 . S
C924 C922 1.320 . S
C924 C925 1.405 . S
C924 H950 0.930 . S
C925 C920 1.479 . S
C925 C924 1.405 . S
C925 H951 0.931 . S
U926 O927 2.454 . S
U926 O928 2.458 . S
U926 C929 2.984 . S
U926 C930 2.847 . S
U926 C943 2.882 . S
U926 O944 2.441 . S
U926 O945 2.420 . S
U926 O946 2.455 . S
U926 O947 2.449 . S
O927 U926 2.454 . S
O927 C929 1.353 . S
O928 U926 2.458 . S
O928 C929 1.286 . S
C929 U926 2.984 . S
C929 O927 1.353 . S
C929 O928 1.286 . S
C929 C931 1.363 . S
C930 C920 1.465 . S
C930 U926 2.847 . S
C930 O944 1.249 . S
C930 O945 1.202 . S
C931 C929 1.363 . S
C931 C933 1.408 . S
C931 C936 1.342 . S
C932 C933 1.310 . S
C932 C935 1.461 . S
C932 H952 0.932 . S
C933 C931 1.408 . S
C933 C932 1.310 . S
C933 H953 0.930 . S
C934 C935 1.474 . S
C934 C936 1.285 . S
C934 H954 0.929 . S
C935 C932 1.461 . S
C935 C934 1.474 . S
C936 C931 1.342 . S
C936 C934 1.285 . S
C936 H955 0.930 . S
C937 C940 1.424 . S
C937 C942 1.245 . S
C937 C943 1.428 . S
C938 C941 1.260 . S
C938 C942 1.477 . S
C938 H956 0.932 . S
C939 C940 1.384 . S
C939 C941 1.479 . S
C939 H957 0.929 . S
C940 C937 1.424 . S
C940 C939 1.384 . S
C940 H958 0.928 . S
C941 C938 1.260 . S
C941 C939 1.479 . S
C942 C937 1.245 . S
C942 C938 1.477 . S
C942 H959 0.932 . S
C943 U926 2.882 . S
C943 C937 1.428 . S
C943 O946 1.301 . S
C943 O947 1.282 . S
O944 U926 2.441 . S
O944 C930 1.249 . S
O945 U926 2.420 . S
O945 C930 1.202 . S
O946 U926 2.455 . S
O946 C943 1.301 . S
O947 U926 2.449 . S
O947 C943 1.282 . S
H948 C921 0.931 . S
H949 C923 0.929 . S
H950 C924 0.930 . S
H951 C925 0.931 . S
H952 C932 0.932 . S
H953 C933 0.930 . S
H954 C934 0.929 . S
H955 C936 0.930 . S
H956 C938 0.932 . S
H957 C939 0.929 . S
H958 C940 0.928 . S
H959 C942 0.932 . S
C960 C961 1.264 . S
C960 C965 1.479 . S
C960 C970 1.465 . S
C961 C960 1.264 . S
C961 C963 1.339 . S
C961 H988 0.931 . S
C962 C963 1.395 . S
C962 C964 1.320 . S
C963 C961 1.339 . S
C963 C962 1.395 . S
C963 H989 0.929 . S
C964 C962 1.320 . S
C964 C965 1.405 . S
C964 H990 0.930 . S
C965 C960 1.479 . S
C965 C964 1.405 . S
C965 H991 0.931 . S
U966 O967 2.454 . S
U966 O968 2.458 . S
U966 C969 2.984 . S
U966 C970 2.847 . S
U966 C983 2.882 . S
U966 O984 2.441 . S
U966 O985 2.420 . S
U966 O986 2.455 . S
U966 O987 2.449 . S
O967 U966 2.454 . S
O967 C969 1.353 . S
O968 U966 2.458 . S
O968 C969 1.286 . S
C969 U966 2.984 . S
C969 O967 1.353 . S
C969 O968 1.286 . S
C969 C971 1.363 . S
C970 C960 1.465 . S
C970 U966 2.847 . S
C970 O984 1.249 . S
C970 O985 1.202 . S
C971 C969 1.363 . S
C971 C973 1.408 . S
C971 C976 1.342 . S
C972 C973 1.310 . S
C972 C975 1.461 . S
C972 H992 0.932 . S
C973 C971 1.408 . S
C973 C972 1.310 . S
C973 H993 0.930 . S
C974 C975 1.474 . S
C974 C976 1.285 . S
C974 H994 0.929 . S
C975 C972 1.461 . S
C975 C974 1.474 . S
C976 C971 1.342 . S
C976 C974 1.285 . S
C976 H995 0.930 . S
C977 C980 1.424 . S
C977 C982 1.245 . S
C977 C983 1.428 . S
C978 C981 1.260 . S
C978 C982 1.477 . S
C978 H996 0.932 . S
C979 C980 1.384 . S
C979 C981 1.479 . S
C979 H997 0.929 . S
C980 C977 1.424 . S
C980 C979 1.384 . S
C980 H998 0.928 . S
C981 C978 1.260 . S
C981 C979 1.479 . S
C982 C977 1.245 . S
C982 C978 1.477 . S
C982 H999 0.932 . S
C983 U966 2.882 . S
C983 C977 1.428 . S
C983 O986 1.301 . S
C983 O987 1.282 . S
O984 U966 2.441 . S
O984 C970 1.249 . S
O985 U966 2.420 . S
O985 C970 1.202 . S
O986 U966 2.455 . S
O986 C983 1.301 . S
O987 U966 2.449 . S
O987 C983 1.282 . S
H988 C961 0.931 . S
H989 C963 0.929 . S
H990 C964 0.930 . S
H991 C965 0.931 . S
H992 C972 0.932 . S
H993 C973 0.930 . S
H994 C974 0.929 . S
H995 C976 0.930 . S
H996 C978 0.932 . S
H997 C979 0.929 . S
H998 C980 0.928 . S
H999 C982 0.932 . S
C1000 C1001 1.264 . S
C1000 C1005 1.479 . S
C1000 C1010 1.465 . S
C1001 C1000 1.264 . S
C1001 C1003 1.339 . S
C1001 H1028 0.931 . S
C1002 C1003 1.395 . S
C1002 C1004 1.320 . S
C1003 C1001 1.339 . S
C1003 C1002 1.395 . S
C1003 H1029 0.929 . S
C1004 C1002 1.320 . S
C1004 C1005 1.405 . S
C1004 H1030 0.930 . S
C1005 C1000 1.479 . S
C1005 C1004 1.405 . S
C1005 H1031 0.931 . S
U1006 O1007 2.454 . S
U1006 O1008 2.458 . S
U1006 C1009 2.984 . S
U1006 C1010 2.847 . S
U1006 C1023 2.882 . S
U1006 O1024 2.441 . S
U1006 O1025 2.420 . S
U1006 O1026 2.455 . S
U1006 O1027 2.449 . S
O1007 U1006 2.454 . S
O1007 C1009 1.353 . S
O1008 U1006 2.458 . S
O1008 C1009 1.286 . S
C1009 U1006 2.984 . S
C1009 O1007 1.353 . S
C1009 O1008 1.286 . S
C1009 C1011 1.363 . S
C1010 C1000 1.465 . S
C1010 U1006 2.847 . S
C1010 O1024 1.249 . S
C1010 O1025 1.202 . S
C1011 C1009 1.363 . S
C1011 C1013 1.408 . S
C1011 C1016 1.342 . S
C1012 C1013 1.310 . S
C1012 C1015 1.461 . S
C1012 H1032 0.932 . S
C1013 C1011 1.408 . S
C1013 C1012 1.310 . S
C1013 H1033 0.930 . S
C1014 C1015 1.474 . S
C1014 C1016 1.285 . S
C1014 H1034 0.929 . S
C1015 C1012 1.461 . S
C1015 C1014 1.474 . S
C1016 C1011 1.342 . S
C1016 C1014 1.285 . S
C1016 H1035 0.930 . S
C1017 C1020 1.424 . S
C1017 C1022 1.245 . S
C1017 C1023 1.428 . S
C1018 C1021 1.260 . S
C1018 C1022 1.477 . S
C1018 H1036 0.932 . S
C1019 C1020 1.384 . S
C1019 C1021 1.479 . S
C1019 H1037 0.929 . S
C1020 C1017 1.424 . S
C1020 C1019 1.384 . S
C1020 H1038 0.928 . S
C1021 C1018 1.260 . S
C1021 C1019 1.479 . S
C1022 C1017 1.245 . S
C1022 C1018 1.477 . S
C1022 H1039 0.932 . S
C1023 U1006 2.882 . S
C1023 C1017 1.428 . S
C1023 O1026 1.301 . S
C1023 O1027 1.282 . S
O1024 U1006 2.441 . S
O1024 C1010 1.249 . S
O1025 U1006 2.420 . S
O1025 C1010 1.202 . S
O1026 U1006 2.455 . S
O1026 C1023 1.301 . S
O1027 U1006 2.449 . S
O1027 C1023 1.282 . S
H1028 C1001 0.931 . S
H1029 C1003 0.929 . S
H1030 C1004 0.930 . S
H1031 C1005 0.931 . S
H1032 C1012 0.932 . S
H1033 C1013 0.930 . S
H1034 C1014 0.929 . S
H1035 C1016 0.930 . S
H1036 C1018 0.932 . S
H1037 C1019 0.929 . S
H1038 C1020 0.928 . S
H1039 C1022 0.932 . S
C1040 C1041 1.264 . S
C1040 C1045 1.479 . S
C1040 C1050 1.465 . S
C1041 C1040 1.264 . S
C1041 C1043 1.339 . S
C1041 H1068 0.931 . S
C1042 C1043 1.395 . S
C1042 C1044 1.320 . S
C1043 C1041 1.339 . S
C1043 C1042 1.395 . S
C1043 H1069 0.929 . S
C1044 C1042 1.320 . S
C1044 C1045 1.405 . S
C1044 H1070 0.930 . S
C1045 C1040 1.479 . S
C1045 C1044 1.405 . S
C1045 H1071 0.931 . S
U1046 O1047 2.454 . S
U1046 O1048 2.458 . S
U1046 C1049 2.984 . S
U1046 C1050 2.847 . S
U1046 C1063 2.882 . S
U1046 O1064 2.441 . S
U1046 O1065 2.420 . S
U1046 O1066 2.455 . S
U1046 O1067 2.449 . S
O1047 U1046 2.454 . S
O1047 C1049 1.353 . S
O1048 U1046 2.458 . S
O1048 C1049 1.286 . S
C1049 U1046 2.984 . S
C1049 O1047 1.353 . S
C1049 O1048 1.286 . S
C1049 C1051 1.363 . S
C1050 C1040 1.465 . S
C1050 U1046 2.847 . S
C1050 O1064 1.249 . S
C1050 O1065 1.202 . S
C1051 C1049 1.363 . S
C1051 C1053 1.408 . S
C1051 C1056 1.342 . S
C1052 C1053 1.310 . S
C1052 C1055 1.461 . S
C1052 H1072 0.932 . S
C1053 C1051 1.408 . S
C1053 C1052 1.310 . S
C1053 H1073 0.930 . S
C1054 C1055 1.474 . S
C1054 C1056 1.285 . S
C1054 H1074 0.929 . S
C1055 C1052 1.461 . S
C1055 C1054 1.474 . S
C1056 C1051 1.342 . S
C1056 C1054 1.285 . S
C1056 H1075 0.930 . S
C1057 C1060 1.424 . S
C1057 C1062 1.245 . S
C1057 C1063 1.428 . S
C1058 C1061 1.260 . S
C1058 C1062 1.477 . S
C1058 H1076 0.932 . S
C1059 C1060 1.384 . S
C1059 C1061 1.479 . S
C1059 H1077 0.929 . S
C1060 C1057 1.424 . S
C1060 C1059 1.384 . S
C1060 H1078 0.928 . S
C1061 C1058 1.260 . S
C1061 C1059 1.479 . S
C1062 C1057 1.245 . S
C1062 C1058 1.477 . S
C1062 H1079 0.932 . S
C1063 U1046 2.882 . S
C1063 C1057 1.428 . S
C1063 O1066 1.301 . S
C1063 O1067 1.282 . S
O1064 U1046 2.441 . S
O1064 C1050 1.249 . S
O1065 U1046 2.420 . S
O1065 C1050 1.202 . S
O1066 U1046 2.455 . S
O1066 C1063 1.301 . S
O1067 U1046 2.449 . S
O1067 C1063 1.282 . S
H1068 C1041 0.931 . S
H1069 C1043 0.929 . S
H1070 C1044 0.930 . S
H1071 C1045 0.931 . S
H1072 C1052 0.932 . S
H1073 C1053 0.930 . S
H1074 C1054 0.929 . S
H1075 C1056 0.930 . S
H1076 C1058 0.932 . S
H1077 C1059 0.929 . S
H1078 C1060 0.928 . S
H1079 C1062 0.932 . S
C1080 C1081 1.264 . S
C1080 C1085 1.479 . S
C1080 C1090 1.465 . S
C1081 C1080 1.264 . S
C1081 C1083 1.339 . S
C1081 H1108 0.931 . S
C1082 C1083 1.395 . S
C1082 C1084 1.320 . S
C1083 C1081 1.339 . S
C1083 C1082 1.395 . S
C1083 H1109 0.929 . S
C1084 C1082 1.320 . S
C1084 C1085 1.405 . S
C1084 H1110 0.930 . S
C1085 C1080 1.479 . S
C1085 C1084 1.405 . S
C1085 H1111 0.931 . S
U1086 O1087 2.454 . S
U1086 O1088 2.458 . S
U1086 C1089 2.984 . S
U1086 C1090 2.847 . S
U1086 C1103 2.882 . S
U1086 O1104 2.441 . S
U1086 O1105 2.420 . S
U1086 O1106 2.455 . S
U1086 O1107 2.449 . S
O1087 U1086 2.454 . S
O1087 C1089 1.353 . S
O1088 U1086 2.458 . S
O1088 C1089 1.286 . S
C1089 U1086 2.984 . S
C1089 O1087 1.353 . S
C1089 O1088 1.286 . S
C1089 C1091 1.363 . S
C1090 C1080 1.465 . S
C1090 U1086 2.847 . S
C1090 O1104 1.249 . S
C1090 O1105 1.202 . S
C1091 C1089 1.363 . S
C1091 C1093 1.408 . S
C1091 C1096 1.342 . S
C1092 C1093 1.310 . S
C1092 C1095 1.461 . S
C1092 H1112 0.932 . S
C1093 C1091 1.408 . S
C1093 C1092 1.310 . S
C1093 H1113 0.930 . S
C1094 C1095 1.474 . S
C1094 C1096 1.285 . S
C1094 H1114 0.929 . S
C1095 C1092 1.461 . S
C1095 C1094 1.474 . S
C1096 C1091 1.342 . S
C1096 C1094 1.285 . S
C1096 H1115 0.930 . S
C1097 C1100 1.424 . S
C1097 C1102 1.245 . S
C1097 C1103 1.428 . S
C1098 C1101 1.260 . S
C1098 C1102 1.477 . S
C1098 H1116 0.932 . S
C1099 C1100 1.384 . S
C1099 C1101 1.479 . S
C1099 H1117 0.929 . S
C1100 C1097 1.424 . S
C1100 C1099 1.384 . S
C1100 H1118 0.928 . S
C1101 C1098 1.260 . S
C1101 C1099 1.479 . S
C1102 C1097 1.245 . S
C1102 C1098 1.477 . S
C1102 H1119 0.932 . S
C1103 U1086 2.882 . S
C1103 C1097 1.428 . S
C1103 O1106 1.301 . S
C1103 O1107 1.282 . S
O1104 U1086 2.441 . S
O1104 C1090 1.249 . S
O1105 U1086 2.420 . S
O1105 C1090 1.202 . S
O1106 U1086 2.455 . S
O1106 C1103 1.301 . S
O1107 U1086 2.449 . S
O1107 C1103 1.282 . S
H1108 C1081 0.931 . S
H1109 C1083 0.929 . S
H1110 C1084 0.930 . S
H1111 C1085 0.931 . S
H1112 C1092 0.932 . S
H1113 C1093 0.930 . S
H1114 C1094 0.929 . S
H1115 C1096 0.930 . S
H1116 C1098 0.932 . S
H1117 C1099 0.929 . S
H1118 C1100 0.928 . S
H1119 C1102 0.932 . S
C1120 C1121 1.264 . S
C1120 C1125 1.479 . S
C1120 C1130 1.465 . S
C1121 C1120 1.264 . S
C1121 C1123 1.339 . S
C1121 H1148 0.931 . S
C1122 C1123 1.395 . S
C1122 C1124 1.320 . S
C1123 C1121 1.339 . S
C1123 C1122 1.395 . S
C1123 H1149 0.929 . S
C1124 C1122 1.320 . S
C1124 C1125 1.405 . S
C1124 H1150 0.930 . S
C1125 C1120 1.479 . S
C1125 C1124 1.405 . S
C1125 H1151 0.931 . S
U1126 O1127 2.454 . S
U1126 O1128 2.458 . S
U1126 C1129 2.984 . S
U1126 C1130 2.847 . S
U1126 C1143 2.882 . S
U1126 O1144 2.441 . S
U1126 O1145 2.420 . S
U1126 O1146 2.455 . S
U1126 O1147 2.449 . S
O1127 U1126 2.454 . S
O1127 C1129 1.353 . S
O1128 U1126 2.458 . S
O1128 C1129 1.286 . S
C1129 U1126 2.984 . S
C1129 O1127 1.353 . S
C1129 O1128 1.286 . S
C1129 C1131 1.363 . S
C1130 C1120 1.465 . S
C1130 U1126 2.847 . S
C1130 O1144 1.249 . S
C1130 O1145 1.202 . S
C1131 C1129 1.363 . S
C1131 C1133 1.408 . S
C1131 C1136 1.342 . S
C1132 C1133 1.310 . S
C1132 C1135 1.461 . S
C1132 H1152 0.932 . S
C1133 C1131 1.408 . S
C1133 C1132 1.310 . S
C1133 H1153 0.930 . S
C1134 C1135 1.474 . S
C1134 C1136 1.285 . S
C1134 H1154 0.929 . S
C1135 C1132 1.461 . S
C1135 C1134 1.474 . S
C1136 C1131 1.342 . S
C1136 C1134 1.285 . S
C1136 H1155 0.930 . S
C1137 C1140 1.424 . S
C1137 C1142 1.245 . S
C1137 C1143 1.428 . S
C1138 C1141 1.260 . S
C1138 C1142 1.477 . S
C1138 H1156 0.932 . S
C1139 C1140 1.384 . S
C1139 C1141 1.479 . S
C1139 H1157 0.929 . S
C1140 C1137 1.424 . S
C1140 C1139 1.384 . S
C1140 H1158 0.928 . S
C1141 C1138 1.260 . S
C1141 C1139 1.479 . S
C1142 C1137 1.245 . S
C1142 C1138 1.477 . S
C1142 H1159 0.932 . S
C1143 U1126 2.882 . S
C1143 C1137 1.428 . S
C1143 O1146 1.301 . S
C1143 O1147 1.282 . S
O1144 U1126 2.441 . S
O1144 C1130 1.249 . S
O1145 U1126 2.420 . S
O1145 C1130 1.202 . S
O1146 U1126 2.455 . S
O1146 C1143 1.301 . S
O1147 U1126 2.449 . S
O1147 C1143 1.282 . S
H1148 C1121 0.931 . S
H1149 C1123 0.929 . S
H1150 C1124 0.930 . S
H1151 C1125 0.931 . S
H1152 C1132 0.932 . S
H1153 C1133 0.930 . S
H1154 C1134 0.929 . S
H1155 C1136 0.930 . S
H1156 C1138 0.932 . S
H1157 C1139 0.929 . S
H1158 C1140 0.928 . S
H1159 C1142 0.932 . S
C1160 C1161 1.264 . S
C1160 C1165 1.479 . S
C1160 C1170 1.465 . S
C1161 C1160 1.264 . S
C1161 C1163 1.339 . S
C1161 H1188 0.931 . S
C1162 C1163 1.395 . S
C1162 C1164 1.320 . S
C1163 C1161 1.339 . S
C1163 C1162 1.395 . S
C1163 H1189 0.929 . S
C1164 C1162 1.320 . S
C1164 C1165 1.405 . S
C1164 H1190 0.930 . S
C1165 C1160 1.479 . S
C1165 C1164 1.405 . S
C1165 H1191 0.931 . S
U1166 O1167 2.454 . S
U1166 O1168 2.458 . S
U1166 C1169 2.984 . S
U1166 C1170 2.847 . S
U1166 C1183 2.882 . S
U1166 O1184 2.441 . S
U1166 O1185 2.420 . S
U1166 O1186 2.455 . S
U1166 O1187 2.449 . S
O1167 U1166 2.454 . S
O1167 C1169 1.353 . S
O1168 U1166 2.458 . S
O1168 C1169 1.286 . S
C1169 U1166 2.984 . S
C1169 O1167 1.353 . S
C1169 O1168 1.286 . S
C1169 C1171 1.363 . S
C1170 C1160 1.465 . S
C1170 U1166 2.847 . S
C1170 O1184 1.249 . S
C1170 O1185 1.202 . S
C1171 C1169 1.363 . S
C1171 C1173 1.408 . S
C1171 C1176 1.342 . S
C1172 C1173 1.310 . S
C1172 C1175 1.461 . S
C1172 H1192 0.932 . S
C1173 C1171 1.408 . S
C1173 C1172 1.310 . S
C1173 H1193 0.930 . S
C1174 C1175 1.474 . S
C1174 C1176 1.285 . S
C1174 H1194 0.929 . S
C1175 C1172 1.461 . S
C1175 C1174 1.474 . S
C1176 C1171 1.342 . S
C1176 C1174 1.285 . S
C1176 H1195 0.930 . S
C1177 C1180 1.424 . S
C1177 C1182 1.245 . S
C1177 C1183 1.428 . S
C1178 C1181 1.260 . S
C1178 C1182 1.477 . S
C1178 H1196 0.932 . S
C1179 C1180 1.384 . S
C1179 C1181 1.479 . S
C1179 H1197 0.929 . S
C1180 C1177 1.424 . S
C1180 C1179 1.384 . S
C1180 H1198 0.928 . S
C1181 C1178 1.260 . S
C1181 C1179 1.479 . S
C1182 C1177 1.245 . S
C1182 C1178 1.477 . S
C1182 H1199 0.932 . S
C1183 U1166 2.882 . S
C1183 C1177 1.428 . S
C1183 O1186 1.301 . S
C1183 O1187 1.282 . S
O1184 U1166 2.441 . S
O1184 C1170 1.249 . S
O1185 U1166 2.420 . S
O1185 C1170 1.202 . S
O1186 U1166 2.455 . S
O1186 C1183 1.301 . S
O1187 U1166 2.449 . S
O1187 C1183 1.282 . S
H1188 C1161 0.931 . S
H1189 C1163 0.929 . S
H1190 C1164 0.930 . S
H1191 C1165 0.931 . S
H1192 C1172 0.932 . S
H1193 C1173 0.930 . S
H1194 C1174 0.929 . S
H1195 C1176 0.930 . S
H1196 C1178 0.932 . S
H1197 C1179 0.929 . S
H1198 C1180 0.928 . S
H1199 C1182 0.932 . S
C1200 C1201 1.264 . S
C1200 C1205 1.479 . S
C1200 C1210 1.465 . S
C1201 C1200 1.264 . S
C1201 C1203 1.339 . S
C1201 H1228 0.931 . S
C1202 C1203 1.395 . S
C1202 C1204 1.320 . S
C1203 C1201 1.339 . S
C1203 C1202 1.395 . S
C1203 H1229 0.929 . S
C1204 C1202 1.320 . S
C1204 C1205 1.405 . S
C1204 H1230 0.930 . S
C1205 C1200 1.479 . S
C1205 C1204 1.405 . S
C1205 H1231 0.931 . S
U1206 O1207 2.454 . S
U1206 O1208 2.458 . S
U1206 C1209 2.984 . S
U1206 C1210 2.847 . S
U1206 C1223 2.882 . S
U1206 O1224 2.441 . S
U1206 O1225 2.420 . S
U1206 O1226 2.455 . S
U1206 O1227 2.449 . S
O1207 U1206 2.454 . S
O1207 C1209 1.353 . S
O1208 U1206 2.458 . S
O1208 C1209 1.286 . S
C1209 U1206 2.984 . S
C1209 O1207 1.353 . S
C1209 O1208 1.286 . S
C1209 C1211 1.363 . S
C1210 C1200 1.465 . S
C1210 U1206 2.847 . S
C1210 O1224 1.249 . S
C1210 O1225 1.202 . S
C1211 C1209 1.363 . S
C1211 C1213 1.408 . S
C1211 C1216 1.342 . S
C1212 C1213 1.310 . S
C1212 C1215 1.461 . S
C1212 H1232 0.932 . S
C1213 C1211 1.408 . S
C1213 C1212 1.310 . S
C1213 H1233 0.930 . S
C1214 C1215 1.474 . S
C1214 C1216 1.285 . S
C1214 H1234 0.929 . S
C1215 C1212 1.461 . S
C1215 C1214 1.474 . S
C1216 C1211 1.342 . S
C1216 C1214 1.285 . S
C1216 H1235 0.930 . S
C1217 C1220 1.424 . S
C1217 C1222 1.245 . S
C1217 C1223 1.428 . S
C1218 C1221 1.260 . S
C1218 C1222 1.477 . S
C1218 H1236 0.932 . S
C1219 C1220 1.384 . S
C1219 C1221 1.479 . S
C1219 H1237 0.929 . S
C1220 C1217 1.424 . S
C1220 C1219 1.384 . S
C1220 H1238 0.928 . S
C1221 C1218 1.260 . S
C1221 C1219 1.479 . S
C1222 C1217 1.245 . S
C1222 C1218 1.477 . S
C1222 H1239 0.932 . S
C1223 U1206 2.882 . S
C1223 C1217 1.428 . S
C1223 O1226 1.301 . S
C1223 O1227 1.282 . S
O1224 U1206 2.441 . S
O1224 C1210 1.249 . S
O1225 U1206 2.420 . S
O1225 C1210 1.202 . S
O1226 U1206 2.455 . S
O1226 C1223 1.301 . S
O1227 U1206 2.449 . S
O1227 C1223 1.282 . S
H1228 C1201 0.931 . S
H1229 C1203 0.929 . S
H1230 C1204 0.930 . S
H1231 C1205 0.931 . S
H1232 C1212 0.932 . S
H1233 C1213 0.930 . S
H1234 C1214 0.929 . S
H1235 C1216 0.930 . S
H1236 C1218 0.932 . S
H1237 C1219 0.929 . S
H1238 C1220 0.928 . S
H1239 C1222 0.932 . S
C1240 C1241 1.264 . S
C1240 C1245 1.479 . S
C1240 C1250 1.465 . S
C1241 C1240 1.264 . S
C1241 C1243 1.339 . S
C1241 H1268 0.931 . S
C1242 C1243 1.395 . S
C1242 C1244 1.320 . S
C1243 C1241 1.339 . S
C1243 C1242 1.395 . S
C1243 H1269 0.929 . S
C1244 C1242 1.320 . S
C1244 C1245 1.405 . S
C1244 H1270 0.930 . S
C1245 C1240 1.479 . S
C1245 C1244 1.405 . S
C1245 H1271 0.931 . S
U1246 O1247 2.454 . S
U1246 O1248 2.458 . S
U1246 C1249 2.984 . S
U1246 C1250 2.847 . S
U1246 C1263 2.882 . S
U1246 O1264 2.441 . S
U1246 O1265 2.420 . S
U1246 O1266 2.455 . S
U1246 O1267 2.449 . S
O1247 U1246 2.454 . S
O1247 C1249 1.353 . S
O1248 U1246 2.458 . S
O1248 C1249 1.286 . S
C1249 U1246 2.984 . S
C1249 O1247 1.353 . S
C1249 O1248 1.286 . S
C1249 C1251 1.363 . S
C1250 C1240 1.465 . S
C1250 U1246 2.847 . S
C1250 O1264 1.249 . S
C1250 O1265 1.202 . S
C1251 C1249 1.363 . S
C1251 C1253 1.408 . S
C1251 C1256 1.342 . S
C1252 C1253 1.310 . S
C1252 C1255 1.461 . S
C1252 H1272 0.932 . S
C1253 C1251 1.408 . S
C1253 C1252 1.310 . S
C1253 H1273 0.930 . S
C1254 C1255 1.474 . S
C1254 C1256 1.285 . S
C1254 H1274 0.929 . S
C1255 C1252 1.461 . S
C1255 C1254 1.474 . S
C1256 C1251 1.342 . S
C1256 C1254 1.285 . S
C1256 H1275 0.930 . S
C1257 C1260 1.424 . S
C1257 C1262 1.245 . S
C1257 C1263 1.428 . S
C1258 C1261 1.260 . S
C1258 C1262 1.477 . S
C1258 H1276 0.932 . S
C1259 C1260 1.384 . S
C1259 C1261 1.479 . S
C1259 H1277 0.929 . S
C1260 C1257 1.424 . S
C1260 C1259 1.384 . S
C1260 H1278 0.928 . S
C1261 C1258 1.260 . S
C1261 C1259 1.479 . S
C1262 C1257 1.245 . S
C1262 C1258 1.477 . S
C1262 H1279 0.932 . S
C1263 U1246 2.882 . S
C1263 C1257 1.428 . S
C1263 O1266 1.301 . S
C1263 O1267 1.282 . S
O1264 U1246 2.441 . S
O1264 C1250 1.249 . S
O1265 U1246 2.420 . S
O1265 C1250 1.202 . S
O1266 U1246 2.455 . S
O1266 C1263 1.301 . S
O1267 U1246 2.449 . S
O1267 C1263 1.282 . S
H1268 C1241 0.931 . S
H1269 C1243 0.929 . S
H1270 C1244 0.930 . S
H1271 C1245 0.931 . S
H1272 C1252 0.932 . S
H1273 C1253 0.930 . S
H1274 C1254 0.929 . S
H1275 C1256 0.930 . S
H1276 C1258 0.932 . S
H1277 C1259 0.929 . S
H1278 C1260 0.928 . S
H1279 C1262 0.932 . S
C1280 C1281 1.560 . S
C1280 H1341 0.959 . S
C1280 H1342 0.959 . S
C1280 H1343 0.960 . S
C1281 C1280 1.560 . S
C1281 O1336 1.426 . S
C1281 H1340 0.980 . S
C1282 C1283 1.407 . S
C1282 C1287 1.418 . S
C1282 O1336 1.334 . S
C1283 C1282 1.407 . S
C1283 C1284 1.360 . S
C1283 H1344 0.929 . S
C1284 C1283 1.360 . S
C1284 C1285 1.401 . S
C1284 C1288 1.527 . S
C1285 C1284 1.401 . S
C1285 C1286 1.405 . S
C1285 C1318 1.587 . S
C1286 C1285 1.405 . S
C1286 C1287 1.332 . S
C1286 C1289 1.496 . S
C1287 C1282 1.418 . S
C1287 C1286 1.332 . S
C1287 H1345 0.929 . S
C1288 C1284 1.527 . S
C1288 H1346 0.959 . S
C1288 H1347 0.961 . S
C1288 H1348 0.961 . S
C1289 C1286 1.496 . S
C1289 H1349 0.960 . S
C1289 H1350 0.960 . S
C1289 H1351 0.961 . S
C1290 C1291 1.517 . S
C1290 H1353 0.961 . S
C1290 H1354 0.960 . S
C1290 H1355 0.959 . S
C1291 C1290 1.517 . S
C1291 O1339 1.468 . S
C1291 H1352 0.980 . S
C1292 C1293 1.349 . S
C1292 C1297 1.367 . S
C1292 O1339 1.408 . S
C1293 C1292 1.349 . S
C1293 C1294 1.407 . S
C1293 H1356 0.930 . S
C1294 C1293 1.407 . S
C1294 C1295 1.449 . S
C1294 C1298 1.535 . S
C1295 C1294 1.449 . S
C1295 C1296 1.384 . S
C1295 C1320 1.553 . S
C1296 C1295 1.384 . S
C1296 C1297 1.364 . S
C1296 C1299 1.450 . S
C1297 C1292 1.367 . S
C1297 C1296 1.364 . S
C1297 H1357 0.931 . S
C1298 C1294 1.535 . S
C1298 H1358 0.959 . S
C1298 H1359 0.961 . S
C1298 H1360 0.959 . S
C1299 C1296 1.450 . S
C1299 H1361 0.960 . S
C1299 H1362 0.960 . S
C1299 H1363 0.960 . S
C1300 C1301 1.309 . S
C1300 C1305 1.304 . S
C1300 O1338 1.435 . S
C1301 C1300 1.309 . S
C1301 C1302 1.476 . S
C1301 H1365 0.930 . S
C1302 C1301 1.476 . S
C1302 C1303 1.400 . S
C1302 C1306 1.567 . S
C1303 C1302 1.400 . S
C1303 C1304 1.373 . S
C1303 C1325 1.432 . S
C1304 C1303 1.373 . S
C1304 C1305 1.339 . S
C1304 C1307 1.530 . S
C1305 C1300 1.304 . S
C1305 C1304 1.339 . S
C1305 H1366 0.930 . S
C1306 C1302 1.567 . S
C1306 H1367 0.961 . S
C1306 H1368 0.960 . S
C1306 H1369 0.958 . S
C1307 C1304 1.530 . S
C1307 H1370 0.961 . S
C1307 H1371 0.960 . S
C1307 H1372 0.960 . S
C1308 C1309 1.530 . S
C1308 H1374 0.961 . S
C1308 H1375 0.961 . S
C1308 H1376 0.959 . S
C1309 C1308 1.530 . S
C1309 O1337 1.412 . S
C1309 H1373 0.980 . S
C1310 C1311 1.288 . S
C1310 C1315 1.377 . S
C1310 O1337 1.393 . S
C1311 C1310 1.288 . S
C1311 C1312 1.369 . S
C1311 H1377 0.932 . S
C1312 C1311 1.369 . S
C1312 C1313 1.398 . S
C1312 C1316 1.527 . S
C1313 C1312 1.398 . S
C1313 C1314 1.380 . S
C1313 C1327 1.497 . S
C1314 C1313 1.380 . S
C1314 C1315 1.383 . S
C1314 C1317 1.603 . S
C1315 C1310 1.377 . S
C1315 C1314 1.383 . S
C1315 H1378 0.929 . S
C1316 C1312 1.527 . S
C1316 H1379 0.961 . S
C1316 H1380 0.959 . S
C1316 H1381 0.959 . S
C1317 C1314 1.603 . S
C1317 H1382 0.960 . S
C1317 H1383 0.962 . S
C1317 H1384 0.961 . S
C1318 C1285 1.587 . S
C1318 C1319 1.360 . S
C1318 C1331 1.412 . S
C1319 C1318 1.360 . S
C1319 C1320 1.365 1_554 S
C1319 H1385 0.929 . S
C1320 C1295 1.553 . S
C1320 C1319 1.365 1_556 S
C1320 C1321 1.404 . S
C1321 C1320 1.404 . S
C1321 C1322 1.395 . S
C1321 C1332 1.451 1_556 S
C1322 C1321 1.395 . S
C1322 C1323 1.322 . S
C1322 H1386 0.930 . S
C1323 C1322 1.322 . S
C1323 C1324 1.459 . S
C1323 H1387 0.929 . S
C1324 C1323 1.459 . S
C1324 C1325 1.445 . S
C1324 C1333 1.395 1_556 S
C1325 C1303 1.432 . S
C1325 C1324 1.445 . S
C1325 C1326 1.370 1_556 S
C1326 C1325 1.370 1_554 S
C1326 C1327 1.438 . S
C1326 H1388 0.930 . S
C1327 C1313 1.497 . S
C1327 C1326 1.438 . S
C1327 C1328 1.360 . S
C1328 C1327 1.360 . S
C1328 C1329 1.401 . S
C1328 C1333 1.446 . S
C1329 C1328 1.401 . S
C1329 C1330 1.347 . S
C1329 H1389 0.929 . S
C1330 C1329 1.347 . S
C1330 C1331 1.455 . S
C1330 H1390 0.930 . S
C1331 C1318 1.412 . S
C1331 C1330 1.455 . S
C1331 C1332 1.331 . S
C1332 C1321 1.451 1_554 S
C1332 C1331 1.331 . S
C1332 C1333 1.497 . S
C1333 C1324 1.395 1_554 S
C1333 C1328 1.446 . S
C1333 C1332 1.497 . S
C1334 C1335 1.582 . S
C1334 H1391 0.962 . S
C1334 H1392 0.959 . S
C1334 H1393 0.958 . S
C1335 C1334 1.582 . S
C1335 O1338 1.458 . S
C1335 H1364 0.980 . S
O1336 C1281 1.426 . S
O1336 C1282 1.334 . S
O1337 C1309 1.412 . S
O1337 C1310 1.393 . S
O1338 C1300 1.435 . S
O1338 C1335 1.458 . S
O1339 C1291 1.468 . S
O1339 C1292 1.408 . S
H1340 C1281 0.980 . S
H1341 C1280 0.959 . S
H1342 C1280 0.959 . S
H1343 C1280 0.960 . S
H1344 C1283 0.929 . S
H1345 C1287 0.929 . S
H1346 C1288 0.959 . S
H1347 C1288 0.961 . S
H1348 C1288 0.961 . S
H1349 C1289 0.960 . S
H1350 C1289 0.960 . S
H1351 C1289 0.961 . S
H1352 C1291 0.980 . S
H1353 C1290 0.961 . S
H1354 C1290 0.960 . S
H1355 C1290 0.959 . S
H1356 C1293 0.930 . S
H1357 C1297 0.931 . S
H1358 C1298 0.959 . S
H1359 C1298 0.961 . S
H1360 C1298 0.959 . S
H1361 C1299 0.960 . S
H1362 C1299 0.960 . S
H1363 C1299 0.960 . S
H1364 C1335 0.980 . S
H1365 C1301 0.930 . S
H1366 C1305 0.930 . S
H1367 C1306 0.961 . S
H1368 C1306 0.960 . S
H1369 C1306 0.958 . S
H1370 C1307 0.961 . S
H1371 C1307 0.960 . S
H1372 C1307 0.960 . S
H1373 C1309 0.980 . S
H1374 C1308 0.961 . S
H1375 C1308 0.961 . S
H1376 C1308 0.959 . S
H1377 C1311 0.932 . S
H1378 C1315 0.929 . S
H1379 C1316 0.961 . S
H1380 C1316 0.959 . S
H1381 C1316 0.959 . S
H1382 C1317 0.960 . S
H1383 C1317 0.962 . S
H1384 C1317 0.961 . S
H1385 C1319 0.929 . S
H1386 C1322 0.930 . S
H1387 C1323 0.929 . S
H1388 C1326 0.930 . S
H1389 C1329 0.929 . S
H1390 C1330 0.930 . S
H1391 C1334 0.962 . S
H1392 C1334 0.959 . S
H1393 C1334 0.958 . S
C1394 C1395 1.560 . S
C1394 H1455 0.959 . S
C1394 H1456 0.959 . S
C1394 H1457 0.960 . S
C1395 C1394 1.560 . S
C1395 O1450 1.426 . S
C1395 H1454 0.980 . S
C1396 C1397 1.407 . S
C1396 C1401 1.418 . S
C1396 O1450 1.334 . S
C1397 C1396 1.407 . S
C1397 C1398 1.360 . S
C1397 H1458 0.929 . S
C1398 C1397 1.360 . S
C1398 C1399 1.401 . S
C1398 C1402 1.527 . S
C1399 C1398 1.401 . S
C1399 C1400 1.405 . S
C1399 C1432 1.587 . S
C1400 C1399 1.405 . S
C1400 C1401 1.332 . S
C1400 C1403 1.496 . S
C1401 C1396 1.418 . S
C1401 C1400 1.332 . S
C1401 H1459 0.929 . S
C1402 C1398 1.527 . S
C1402 H1460 0.959 . S
C1402 H1461 0.961 . S
C1402 H1462 0.961 . S
C1403 C1400 1.496 . S
C1403 H1463 0.960 . S
C1403 H1464 0.960 . S
C1403 H1465 0.961 . S
C1404 C1405 1.517 . S
C1404 H1467 0.961 . S
C1404 H1468 0.960 . S
C1404 H1469 0.959 . S
C1405 C1404 1.517 . S
C1405 O1453 1.468 . S
C1405 H1466 0.980 . S
C1406 C1407 1.349 . S
C1406 C1411 1.367 . S
C1406 O1453 1.408 . S
C1407 C1406 1.349 . S
C1407 C1408 1.407 . S
C1407 H1470 0.930 . S
C1408 C1407 1.407 . S
C1408 C1409 1.449 . S
C1408 C1412 1.535 . S
C1409 C1408 1.449 . S
C1409 C1410 1.384 . S
C1409 C1434 1.553 . S
C1410 C1409 1.384 . S
C1410 C1411 1.364 . S
C1410 C1413 1.450 . S
C1411 C1406 1.367 . S
C1411 C1410 1.364 . S
C1411 H1471 0.931 . S
C1412 C1408 1.535 . S
C1412 H1472 0.959 . S
C1412 H1473 0.961 . S
C1412 H1474 0.959 . S
C1413 C1410 1.450 . S
C1413 H1475 0.960 . S
C1413 H1476 0.960 . S
C1413 H1477 0.960 . S
C1414 C1415 1.309 . S
C1414 C1419 1.304 . S
C1414 O1452 1.435 . S
C1415 C1414 1.309 . S
C1415 C1416 1.476 . S
C1415 H1479 0.930 . S
C1416 C1415 1.476 . S
C1416 C1417 1.400 . S
C1416 C1420 1.567 . S
C1417 C1416 1.400 . S
C1417 C1418 1.373 . S
C1417 C1439 1.432 . S
C1418 C1417 1.373 . S
C1418 C1419 1.339 . S
C1418 C1421 1.530 . S
C1419 C1414 1.304 . S
C1419 C1418 1.339 . S
C1419 H1480 0.930 . S
C1420 C1416 1.567 . S
C1420 H1481 0.961 . S
C1420 H1482 0.960 . S
C1420 H1483 0.958 . S
C1421 C1418 1.530 . S
C1421 H1484 0.961 . S
C1421 H1485 0.960 . S
C1421 H1486 0.960 . S
C1422 C1423 1.530 . S
C1422 H1488 0.961 . S
C1422 H1489 0.961 . S
C1422 H1490 0.959 . S
C1423 C1422 1.530 . S
C1423 O1451 1.412 . S
C1423 H1487 0.980 . S
C1424 C1425 1.288 . S
C1424 C1429 1.377 . S
C1424 O1451 1.393 . S
C1425 C1424 1.288 . S
C1425 C1426 1.369 . S
C1425 H1491 0.932 . S
C1426 C1425 1.369 . S
C1426 C1427 1.398 . S
C1426 C1430 1.527 . S
C1427 C1426 1.398 . S
C1427 C1428 1.380 . S
C1427 C1441 1.497 . S
C1428 C1427 1.380 . S
C1428 C1429 1.383 . S
C1428 C1431 1.603 . S
C1429 C1424 1.377 . S
C1429 C1428 1.383 . S
C1429 H1492 0.929 . S
C1430 C1426 1.527 . S
C1430 H1493 0.961 . S
C1430 H1494 0.959 . S
C1430 H1495 0.959 . S
C1431 C1428 1.603 . S
C1431 H1496 0.960 . S
C1431 H1497 0.962 . S
C1431 H1498 0.961 . S
C1432 C1399 1.587 . S
C1432 C1433 1.360 1_556 S
C1432 C1445 1.412 . S
C1433 C1432 1.360 1_554 S
C1433 C1434 1.365 . S
C1433 H1499 0.929 . S
C1434 C1409 1.553 . S
C1434 C1433 1.365 . S
C1434 C1435 1.404 . S
C1435 C1434 1.404 . S
C1435 C1436 1.395 . S
C1435 C1446 1.451 . S
C1436 C1435 1.395 . S
C1436 C1437 1.322 . S
C1436 H1500 0.930 . S
C1437 C1436 1.322 . S
C1437 C1438 1.459 . S
C1437 H1501 0.929 . S
C1438 C1437 1.459 . S
C1438 C1439 1.445 . S
C1438 C1447 1.395 . S
C1439 C1417 1.432 . S
C1439 C1438 1.445 . S
C1439 C1440 1.370 . S
C1440 C1439 1.370 . S
C1440 C1441 1.438 1_554 S
C1440 H1502 0.930 . S
C1441 C1427 1.497 . S
C1441 C1440 1.438 1_556 S
C1441 C1442 1.360 . S
C1442 C1441 1.360 . S
C1442 C1443 1.401 . S
C1442 C1447 1.446 1_556 S
C1443 C1442 1.401 . S
C1443 C1444 1.347 . S
C1443 H1503 0.929 . S
C1444 C1443 1.347 . S
C1444 C1445 1.455 . S
C1444 H1504 0.930 . S
C1445 C1432 1.412 . S
C1445 C1444 1.455 . S
C1445 C1446 1.331 1_556 S
C1446 C1435 1.451 . S
C1446 C1445 1.331 1_554 S
C1446 C1447 1.497 . S
C1447 C1438 1.395 . S
C1447 C1442 1.446 1_554 S
C1447 C1446 1.497 . S
C1448 C1449 1.582 . S
C1448 H1505 0.962 . S
C1448 H1506 0.959 . S
C1448 H1507 0.958 . S
C1449 C1448 1.582 . S
C1449 O1452 1.458 . S
C1449 H1478 0.980 . S
O1450 C1395 1.426 . S
O1450 C1396 1.334 . S
O1451 C1423 1.412 . S
O1451 C1424 1.393 . S
O1452 C1414 1.435 . S
O1452 C1449 1.458 . S
O1453 C1405 1.468 . S
O1453 C1406 1.408 . S
H1454 C1395 0.980 . S
H1455 C1394 0.959 . S
H1456 C1394 0.959 . S
H1457 C1394 0.960 . S
H1458 C1397 0.929 . S
H1459 C1401 0.929 . S
H1460 C1402 0.959 . S
H1461 C1402 0.961 . S
H1462 C1402 0.961 . S
H1463 C1403 0.960 . S
H1464 C1403 0.960 . S
H1465 C1403 0.961 . S
H1466 C1405 0.980 . S
H1467 C1404 0.961 . S
H1468 C1404 0.960 . S
H1469 C1404 0.959 . S
H1470 C1407 0.930 . S
H1471 C1411 0.931 . S
H1472 C1412 0.959 . S
H1473 C1412 0.961 . S
H1474 C1412 0.959 . S
H1475 C1413 0.960 . S
H1476 C1413 0.960 . S
H1477 C1413 0.960 . S
H1478 C1449 0.980 . S
H1479 C1415 0.930 . S
H1480 C1419 0.930 . S
H1481 C1420 0.961 . S
H1482 C1420 0.960 . S
H1483 C1420 0.958 . S
H1484 C1421 0.961 . S
H1485 C1421 0.960 . S
H1486 C1421 0.960 . S
H1487 C1423 0.980 . S
H1488 C1422 0.961 . S
H1489 C1422 0.961 . S
H1490 C1422 0.959 . S
H1491 C1425 0.932 . S
H1492 C1429 0.929 . S
H1493 C1430 0.961 . S
H1494 C1430 0.959 . S
H1495 C1430 0.959 . S
H1496 C1431 0.960 . S
H1497 C1431 0.962 . S
H1498 C1431 0.961 . S
H1499 C1433 0.929 . S
H1500 C1436 0.930 . S
H1501 C1437 0.929 . S
H1502 C1440 0.930 . S
H1503 C1443 0.929 . S
H1504 C1444 0.930 . S
H1505 C1448 0.962 . S
H1506 C1448 0.959 . S
H1507 C1448 0.958 . S
C1508 C1509 1.560 . S
C1508 H1569 0.959 . S
C1508 H1570 0.959 . S
C1508 H1571 0.960 . S
C1509 C1508 1.560 . S
C1509 O1564 1.426 . S
C1509 H1568 0.980 . S
C1510 C1511 1.407 . S
C1510 C1515 1.418 . S
C1510 O1564 1.334 . S
C1511 C1510 1.407 . S
C1511 C1512 1.360 . S
C1511 H1572 0.929 . S
C1512 C1511 1.360 . S
C1512 C1513 1.401 . S
C1512 C1516 1.527 . S
C1513 C1512 1.401 . S
C1513 C1514 1.405 . S
C1513 C1546 1.587 . S
C1514 C1513 1.405 . S
C1514 C1515 1.332 . S
C1514 C1517 1.496 . S
C1515 C1510 1.418 . S
C1515 C1514 1.332 . S
C1515 H1573 0.929 . S
C1516 C1512 1.527 . S
C1516 H1574 0.959 . S
C1516 H1575 0.961 . S
C1516 H1576 0.961 . S
C1517 C1514 1.496 . S
C1517 H1577 0.960 . S
C1517 H1578 0.960 . S
C1517 H1579 0.961 . S
C1518 C1519 1.517 . S
C1518 H1581 0.961 . S
C1518 H1582 0.960 . S
C1518 H1583 0.959 . S
C1519 C1518 1.517 . S
C1519 O1567 1.468 . S
C1519 H1580 0.980 . S
C1520 C1521 1.349 . S
C1520 C1525 1.367 . S
C1520 O1567 1.408 . S
C1521 C1520 1.349 . S
C1521 C1522 1.407 . S
C1521 H1584 0.930 . S
C1522 C1521 1.407 . S
C1522 C1523 1.449 . S
C1522 C1526 1.535 . S
C1523 C1522 1.449 . S
C1523 C1524 1.384 . S
C1523 C1548 1.553 . S
C1524 C1523 1.384 . S
C1524 C1525 1.364 . S
C1524 C1527 1.450 . S
C1525 C1520 1.367 . S
C1525 C1524 1.364 . S
C1525 H1585 0.931 . S
C1526 C1522 1.535 . S
C1526 H1586 0.959 . S
C1526 H1587 0.961 . S
C1526 H1588 0.959 . S
C1527 C1524 1.450 . S
C1527 H1589 0.960 . S
C1527 H1590 0.960 . S
C1527 H1591 0.960 . S
C1528 C1529 1.309 . S
C1528 C1533 1.304 . S
C1528 O1566 1.435 . S
C1529 C1528 1.309 . S
C1529 C1530 1.476 . S
C1529 H1593 0.930 . S
C1530 C1529 1.476 . S
C1530 C1531 1.400 . S
C1530 C1534 1.567 . S
C1531 C1530 1.400 . S
C1531 C1532 1.373 . S
C1531 C1553 1.432 . S
C1532 C1531 1.373 . S
C1532 C1533 1.339 . S
C1532 C1535 1.530 . S
C1533 C1528 1.304 . S
C1533 C1532 1.339 . S
C1533 H1594 0.930 . S
C1534 C1530 1.567 . S
C1534 H1595 0.961 . S
C1534 H1596 0.960 . S
C1534 H1597 0.958 . S
C1535 C1532 1.530 . S
C1535 H1598 0.961 . S
C1535 H1599 0.960 . S
C1535 H1600 0.960 . S
C1536 C1537 1.530 . S
C1536 H1602 0.961 . S
C1536 H1603 0.961 . S
C1536 H1604 0.959 . S
C1537 C1536 1.530 . S
C1537 O1565 1.412 . S
C1537 H1601 0.980 . S
C1538 C1539 1.288 . S
C1538 C1543 1.377 . S
C1538 O1565 1.393 . S
C1539 C1538 1.288 . S
C1539 C1540 1.369 . S
C1539 H1605 0.932 . S
C1540 C1539 1.369 . S
C1540 C1541 1.398 . S
C1540 C1544 1.527 . S
C1541 C1540 1.398 . S
C1541 C1542 1.380 . S
C1541 C1555 1.497 . S
C1542 C1541 1.380 . S
C1542 C1543 1.383 . S
C1542 C1545 1.603 . S
C1543 C1538 1.377 . S
C1543 C1542 1.383 . S
C1543 H1606 0.929 . S
C1544 C1540 1.527 . S
C1544 H1607 0.961 . S
C1544 H1608 0.959 . S
C1544 H1609 0.959 . S
C1545 C1542 1.603 . S
C1545 H1610 0.960 . S
C1545 H1611 0.962 . S
C1545 H1612 0.961 . S
C1546 C1513 1.587 . S
C1546 C1547 1.360 . S
C1546 C1559 1.412 . S
C1547 C1546 1.360 . S
C1547 C1548 1.365 1_554 S
C1547 H1613 0.929 . S
C1548 C1523 1.553 . S
C1548 C1547 1.365 1_556 S
C1548 C1549 1.404 . S
C1549 C1548 1.404 . S
C1549 C1550 1.395 . S
C1549 C1560 1.451 1_556 S
C1550 C1549 1.395 . S
C1550 C1551 1.322 . S
C1550 H1614 0.930 . S
C1551 C1550 1.322 . S
C1551 C1552 1.459 . S
C1551 H1615 0.929 . S
C1552 C1551 1.459 . S
C1552 C1553 1.445 . S
C1552 C1561 1.395 1_556 S
C1553 C1531 1.432 . S
C1553 C1552 1.445 . S
C1553 C1554 1.370 1_556 S
C1554 C1553 1.370 1_554 S
C1554 C1555 1.438 . S
C1554 H1616 0.930 . S
C1555 C1541 1.497 . S
C1555 C1554 1.438 . S
C1555 C1556 1.360 . S
C1556 C1555 1.360 . S
C1556 C1557 1.401 . S
C1556 C1561 1.446 . S
C1557 C1556 1.401 . S
C1557 C1558 1.347 . S
C1557 H1617 0.929 . S
C1558 C1557 1.347 . S
C1558 C1559 1.455 . S
C1558 H1618 0.930 . S
C1559 C1546 1.412 . S
C1559 C1558 1.455 . S
C1559 C1560 1.331 . S
C1560 C1549 1.451 1_554 S
C1560 C1559 1.331 . S
C1560 C1561 1.497 . S
C1561 C1552 1.395 1_554 S
C1561 C1556 1.446 . S
C1561 C1560 1.497 . S
C1562 C1563 1.582 . S
C1562 H1619 0.962 . S
C1562 H1620 0.959 . S
C1562 H1621 0.958 . S
C1563 C1562 1.582 . S
C1563 O1566 1.458 . S
C1563 H1592 0.980 . S
O1564 C1509 1.426 . S
O1564 C1510 1.334 . S
O1565 C1537 1.412 . S
O1565 C1538 1.393 . S
O1566 C1528 1.435 . S
O1566 C1563 1.458 . S
O1567 C1519 1.468 . S
O1567 C1520 1.408 . S
H1568 C1509 0.980 . S
H1569 C1508 0.959 . S
H1570 C1508 0.959 . S
H1571 C1508 0.960 . S
H1572 C1511 0.929 . S
H1573 C1515 0.929 . S
H1574 C1516 0.959 . S
H1575 C1516 0.961 . S
H1576 C1516 0.961 . S
H1577 C1517 0.960 . S
H1578 C1517 0.960 . S
H1579 C1517 0.961 . S
H1580 C1519 0.980 . S
H1581 C1518 0.961 . S
H1582 C1518 0.960 . S
H1583 C1518 0.959 . S
H1584 C1521 0.930 . S
H1585 C1525 0.931 . S
H1586 C1526 0.959 . S
H1587 C1526 0.961 . S
H1588 C1526 0.959 . S
H1589 C1527 0.960 . S
H1590 C1527 0.960 . S
H1591 C1527 0.960 . S
H1592 C1563 0.980 . S
H1593 C1529 0.930 . S
H1594 C1533 0.930 . S
H1595 C1534 0.961 . S
H1596 C1534 0.960 . S
H1597 C1534 0.958 . S
H1598 C1535 0.961 . S
H1599 C1535 0.960 . S
H1600 C1535 0.960 . S
H1601 C1537 0.980 . S
H1602 C1536 0.961 . S
H1603 C1536 0.961 . S
H1604 C1536 0.959 . S
H1605 C1539 0.932 . S
H1606 C1543 0.929 . S
H1607 C1544 0.961 . S
H1608 C1544 0.959 . S
H1609 C1544 0.959 . S
H1610 C1545 0.960 . S
H1611 C1545 0.962 . S
H1612 C1545 0.961 . S
H1613 C1547 0.929 . S
H1614 C1550 0.930 . S
H1615 C1551 0.929 . S
H1616 C1554 0.930 . S
H1617 C1557 0.929 . S
H1618 C1558 0.930 . S
H1619 C1562 0.962 . S
H1620 C1562 0.959 . S
H1621 C1562 0.958 . S
C1622 C1623 1.560 . S
C1622 H1683 0.959 . S
C1622 H1684 0.959 . S
C1622 H1685 0.960 . S
C1623 C1622 1.560 . S
C1623 O1678 1.426 . S
C1623 H1682 0.980 . S
C1624 C1625 1.407 . S
C1624 C1629 1.418 . S
C1624 O1678 1.334 . S
C1625 C1624 1.407 . S
C1625 C1626 1.360 . S
C1625 H1686 0.929 . S
C1626 C1625 1.360 . S
C1626 C1627 1.401 . S
C1626 C1630 1.527 . S
C1627 C1626 1.401 . S
C1627 C1628 1.405 . S
C1627 C1660 1.587 . S
C1628 C1627 1.405 . S
C1628 C1629 1.332 . S
C1628 C1631 1.496 . S
C1629 C1624 1.418 . S
C1629 C1628 1.332 . S
C1629 H1687 0.929 . S
C1630 C1626 1.527 . S
C1630 H1688 0.959 . S
C1630 H1689 0.961 . S
C1630 H1690 0.961 . S
C1631 C1628 1.496 . S
C1631 H1691 0.960 . S
C1631 H1692 0.960 . S
C1631 H1693 0.961 . S
C1632 C1633 1.517 . S
C1632 H1695 0.961 . S
C1632 H1696 0.960 . S
C1632 H1697 0.959 . S
C1633 C1632 1.517 . S
C1633 O1681 1.468 . S
C1633 H1694 0.980 . S
C1634 C1635 1.349 . S
C1634 C1639 1.367 . S
C1634 O1681 1.408 . S
C1635 C1634 1.349 . S
C1635 C1636 1.407 . S
C1635 H1698 0.930 . S
C1636 C1635 1.407 . S
C1636 C1637 1.449 . S
C1636 C1640 1.535 . S
C1637 C1636 1.449 . S
C1637 C1638 1.384 . S
C1637 C1662 1.553 . S
C1638 C1637 1.384 . S
C1638 C1639 1.364 . S
C1638 C1641 1.450 . S
C1639 C1634 1.367 . S
C1639 C1638 1.364 . S
C1639 H1699 0.931 . S
C1640 C1636 1.535 . S
C1640 H1700 0.959 . S
C1640 H1701 0.961 . S
C1640 H1702 0.959 . S
C1641 C1638 1.450 . S
C1641 H1703 0.960 . S
C1641 H1704 0.960 . S
C1641 H1705 0.960 . S
C1642 C1643 1.309 . S
C1642 C1647 1.304 . S
C1642 O1680 1.435 . S
C1643 C1642 1.309 . S
C1643 C1644 1.476 . S
C1643 H1707 0.930 . S
C1644 C1643 1.476 . S
C1644 C1645 1.400 . S
C1644 C1648 1.567 . S
C1645 C1644 1.400 . S
C1645 C1646 1.373 . S
C1645 C1667 1.432 . S
C1646 C1645 1.373 . S
C1646 C1647 1.339 . S
C1646 C1649 1.530 . S
C1647 C1642 1.304 . S
C1647 C1646 1.339 . S
C1647 H1708 0.930 . S
C1648 C1644 1.567 . S
C1648 H1709 0.961 . S
C1648 H1710 0.960 . S
C1648 H1711 0.958 . S
C1649 C1646 1.530 . S
C1649 H1712 0.961 . S
C1649 H1713 0.960 . S
C1649 H1714 0.960 . S
C1650 C1651 1.530 . S
C1650 H1716 0.961 . S
C1650 H1717 0.961 . S
C1650 H1718 0.959 . S
C1651 C1650 1.530 . S
C1651 O1679 1.412 . S
C1651 H1715 0.980 . S
C1652 C1653 1.288 . S
C1652 C1657 1.377 . S
C1652 O1679 1.393 . S
C1653 C1652 1.288 . S
C1653 C1654 1.369 . S
C1653 H1719 0.932 . S
C1654 C1653 1.369 . S
C1654 C1655 1.398 . S
C1654 C1658 1.527 . S
C1655 C1654 1.398 . S
C1655 C1656 1.380 . S
C1655 C1669 1.497 . S
C1656 C1655 1.380 . S
C1656 C1657 1.383 . S
C1656 C1659 1.603 . S
C1657 C1652 1.377 . S
C1657 C1656 1.383 . S
C1657 H1720 0.929 . S
C1658 C1654 1.527 . S
C1658 H1721 0.961 . S
C1658 H1722 0.959 . S
C1658 H1723 0.959 . S
C1659 C1656 1.603 . S
C1659 H1724 0.960 . S
C1659 H1725 0.962 . S
C1659 H1726 0.961 . S
C1660 C1627 1.587 . S
C1660 C1661 1.372 . S
C1660 C1673 1.412 . S
C1661 C1660 1.372 . S
C1661 C1662 1.353 1_556 S
C1661 H1727 0.929 . S
C1662 C1637 1.553 . S
C1662 C1661 1.353 1_554 S
C1662 C1663 1.404 . S
C1663 C1662 1.404 . S
C1663 C1664 1.395 . S
C1663 C1674 1.468 . S
C1664 C1663 1.395 . S
C1664 C1665 1.322 . S
C1664 H1728 0.930 . S
C1665 C1664 1.322 . S
C1665 C1666 1.459 . S
C1665 H1729 0.929 . S
C1666 C1665 1.459 . S
C1666 C1667 1.445 . S
C1666 C1675 1.395 . S
C1667 C1645 1.432 . S
C1667 C1666 1.445 . S
C1667 C1668 1.370 . S
C1668 C1667 1.370 . S
C1668 C1669 1.438 1_554 S
C1668 H1730 0.930 . S
C1669 C1655 1.497 . S
C1669 C1668 1.438 1_556 S
C1669 C1670 1.360 . S
C1670 C1669 1.360 . S
C1670 C1671 1.401 . S
C1670 C1675 1.446 1_556 S
C1671 C1670 1.401 . S
C1671 C1672 1.347 . S
C1671 H1731 0.929 . S
C1672 C1671 1.347 . S
C1672 C1673 1.455 . S
C1672 H1732 0.930 . S
C1673 C1660 1.412 . S
C1673 C1672 1.455 . S
C1673 C1674 1.314 1_556 S
C1674 C1663 1.468 . S
C1674 C1673 1.314 1_554 S
C1674 C1675 1.498 . S
C1675 C1666 1.395 . S
C1675 C1670 1.446 1_554 S
C1675 C1674 1.498 . S
C1676 C1677 1.582 . S
C1676 H1733 0.962 . S
C1676 H1734 0.959 . S
C1676 H1735 0.958 . S
C1677 C1676 1.582 . S
C1677 O1680 1.458 . S
C1677 H1706 0.980 . S
O1678 C1623 1.426 . S
O1678 C1624 1.334 . S
O1679 C1651 1.412 . S
O1679 C1652 1.393 . S
O1680 C1642 1.435 . S
O1680 C1677 1.458 . S
O1681 C1633 1.468 . S
O1681 C1634 1.408 . S
H1682 C1623 0.980 . S
H1683 C1622 0.959 . S
H1684 C1622 0.959 . S
H1685 C1622 0.960 . S
H1686 C1625 0.929 . S
H1687 C1629 0.929 . S
H1688 C1630 0.959 . S
H1689 C1630 0.961 . S
H1690 C1630 0.961 . S
H1691 C1631 0.960 . S
H1692 C1631 0.960 . S
H1693 C1631 0.961 . S
H1694 C1633 0.980 . S
H1695 C1632 0.961 . S
H1696 C1632 0.960 . S
H1697 C1632 0.959 . S
H1698 C1635 0.930 . S
H1699 C1639 0.931 . S
H1700 C1640 0.959 . S
H1701 C1640 0.961 . S
H1702 C1640 0.959 . S
H1703 C1641 0.960 . S
H1704 C1641 0.960 . S
H1705 C1641 0.960 . S
H1706 C1677 0.980 . S
H1707 C1643 0.930 . S
H1708 C1647 0.930 . S
H1709 C1648 0.961 . S
H1710 C1648 0.960 . S
H1711 C1648 0.958 . S
H1712 C1649 0.961 . S
H1713 C1649 0.960 . S
H1714 C1649 0.960 . S
H1715 C1651 0.980 . S
H1716 C1650 0.961 . S
H1717 C1650 0.961 . S
H1718 C1650 0.959 . S
H1719 C1653 0.932 . S
H1720 C1657 0.929 . S
H1721 C1658 0.961 . S
H1722 C1658 0.959 . S
H1723 C1658 0.959 . S
H1724 C1659 0.960 . S
H1725 C1659 0.962 . S
H1726 C1659 0.961 . S
H1727 C1661 0.929 . S
H1728 C1664 0.930 . S
H1729 C1665 0.929 . S
H1730 C1668 0.930 . S
H1731 C1671 0.929 . S
H1732 C1672 0.930 . S
H1733 C1676 0.962 . S
H1734 C1676 0.959 . S
H1735 C1676 0.958 . S
C1736 C1737 1.560 . S
C1736 H1797 0.959 . S
C1736 H1798 0.959 . S
C1736 H1799 0.960 . S
C1737 C1736 1.560 . S
C1737 O1792 1.426 . S
C1737 H1796 0.980 . S
C1738 C1739 1.407 . S
C1738 C1743 1.418 . S
C1738 O1792 1.334 . S
C1739 C1738 1.407 . S
C1739 C1740 1.360 . S
C1739 H1800 0.929 . S
C1740 C1739 1.360 . S
C1740 C1741 1.401 . S
C1740 C1744 1.527 . S
C1741 C1740 1.401 . S
C1741 C1742 1.405 . S
C1741 C1774 1.587 . S
C1742 C1741 1.405 . S
C1742 C1743 1.332 . S
C1742 C1745 1.496 . S
C1743 C1738 1.418 . S
C1743 C1742 1.332 . S
C1743 H1801 0.929 . S
C1744 C1740 1.527 . S
C1744 H1802 0.959 . S
C1744 H1803 0.961 . S
C1744 H1804 0.961 . S
C1745 C1742 1.496 . S
C1745 H1805 0.960 . S
C1745 H1806 0.960 . S
C1745 H1807 0.961 . S
C1746 C1747 1.517 . S
C1746 H1809 0.961 . S
C1746 H1810 0.960 . S
C1746 H1811 0.959 . S
C1747 C1746 1.517 . S
C1747 O1795 1.468 . S
C1747 H1808 0.980 . S
C1748 C1749 1.349 . S
C1748 C1753 1.367 . S
C1748 O1795 1.408 . S
C1749 C1748 1.349 . S
C1749 C1750 1.407 . S
C1749 H1812 0.930 . S
C1750 C1749 1.407 . S
C1750 C1751 1.449 . S
C1750 C1754 1.535 . S
C1751 C1750 1.449 . S
C1751 C1752 1.384 . S
C1751 C1776 1.553 . S
C1752 C1751 1.384 . S
C1752 C1753 1.364 . S
C1752 C1755 1.450 . S
C1753 C1748 1.367 . S
C1753 C1752 1.364 . S
C1753 H1813 0.931 . S
C1754 C1750 1.535 . S
C1754 H1814 0.959 . S
C1754 H1815 0.961 . S
C1754 H1816 0.959 . S
C1755 C1752 1.450 . S
C1755 H1817 0.960 . S
C1755 H1818 0.960 . S
C1755 H1819 0.960 . S
C1756 C1757 1.309 . S
C1756 C1761 1.304 . S
C1756 O1794 1.435 . S
C1757 C1756 1.309 . S
C1757 C1758 1.476 . S
C1757 H1821 0.930 . S
C1758 C1757 1.476 . S
C1758 C1759 1.400 . S
C1758 C1762 1.567 . S
C1759 C1758 1.400 . S
C1759 C1760 1.373 . S
C1759 C1781 1.432 . S
C1760 C1759 1.373 . S
C1760 C1761 1.339 . S
C1760 C1763 1.530 . S
C1761 C1756 1.304 . S
C1761 C1760 1.339 . S
C1761 H1822 0.930 . S
C1762 C1758 1.567 . S
C1762 H1823 0.961 . S
C1762 H1824 0.960 . S
C1762 H1825 0.958 . S
C1763 C1760 1.530 . S
C1763 H1826 0.961 . S
C1763 H1827 0.960 . S
C1763 H1828 0.960 . S
C1764 C1765 1.530 . S
C1764 H1830 0.961 . S
C1764 H1831 0.961 . S
C1764 H1832 0.959 . S
C1765 C1764 1.530 . S
C1765 O1793 1.412 . S
C1765 H1829 0.980 . S
C1766 C1767 1.288 . S
C1766 C1771 1.377 . S
C1766 O1793 1.393 . S
C1767 C1766 1.288 . S
C1767 C1768 1.369 . S
C1767 H1833 0.932 . S
C1768 C1767 1.369 . S
C1768 C1769 1.398 . S
C1768 C1772 1.527 . S
C1769 C1768 1.398 . S
C1769 C1770 1.380 . S
C1769 C1783 1.497 . S
C1770 C1769 1.380 . S
C1770 C1771 1.383 . S
C1770 C1773 1.603 . S
C1771 C1766 1.377 . S
C1771 C1770 1.383 . S
C1771 H1834 0.929 . S
C1772 C1768 1.527 . S
C1772 H1835 0.961 . S
C1772 H1836 0.959 . S
C1772 H1837 0.959 . S
C1773 C1770 1.603 . S
C1773 H1838 0.960 . S
C1773 H1839 0.962 . S
C1773 H1840 0.961 . S
C1774 C1741 1.587 . S
C1774 C1775 1.360 . S
C1774 C1787 1.412 . S
C1775 C1774 1.360 . S
C1775 C1776 1.365 1_455 S
C1775 H1841 0.929 . S
C1776 C1751 1.553 . S
C1776 C1775 1.365 1_655 S
C1776 C1777 1.404 . S
C1777 C1776 1.404 . S
C1777 C1778 1.395 . S
C1777 C1788 1.451 1_655 S
C1778 C1777 1.395 . S
C1778 C1779 1.322 . S
C1778 H1842 0.930 . S
C1779 C1778 1.322 . S
C1779 C1780 1.459 . S
C1779 H1843 0.929 . S
C1780 C1779 1.459 . S
C1780 C1781 1.445 . S
C1780 C1789 1.395 1_655 S
C1781 C1759 1.432 . S
C1781 C1780 1.445 . S
C1781 C1782 1.370 1_655 S
C1782 C1781 1.370 1_455 S
C1782 C1783 1.438 . S
C1782 H1844 0.930 . S
C1783 C1769 1.497 . S
C1783 C1782 1.438 . S
C1783 C1784 1.360 . S
C1784 C1783 1.360 . S
C1784 C1785 1.401 . S
C1784 C1789 1.446 . S
C1785 C1784 1.401 . S
C1785 C1786 1.347 . S
C1785 H1845 0.929 . S
C1786 C1785 1.347 . S
C1786 C1787 1.455 . S
C1786 H1846 0.930 . S
C1787 C1774 1.412 . S
C1787 C1786 1.455 . S
C1787 C1788 1.331 . S
C1788 C1777 1.451 1_455 S
C1788 C1787 1.331 . S
C1788 C1789 1.497 . S
C1789 C1780 1.395 1_455 S
C1789 C1784 1.446 . S
C1789 C1788 1.497 . S
C1790 C1791 1.582 . S
C1790 H1847 0.962 . S
C1790 H1848 0.959 . S
C1790 H1849 0.958 . S
C1791 C1790 1.582 . S
C1791 O1794 1.458 . S
C1791 H1820 0.980 . S
O1792 C1737 1.426 . S
O1792 C1738 1.334 . S
O1793 C1765 1.412 . S
O1793 C1766 1.393 . S
O1794 C1756 1.435 . S
O1794 C1791 1.458 . S
O1795 C1747 1.468 . S
O1795 C1748 1.408 . S
H1796 C1737 0.980 . S
H1797 C1736 0.959 . S
H1798 C1736 0.959 . S
H1799 C1736 0.960 . S
H1800 C1739 0.929 . S
H1801 C1743 0.929 . S
H1802 C1744 0.959 . S
H1803 C1744 0.961 . S
H1804 C1744 0.961 . S
H1805 C1745 0.960 . S
H1806 C1745 0.960 . S
H1807 C1745 0.961 . S
H1808 C1747 0.980 . S
H1809 C1746 0.961 . S
H1810 C1746 0.960 . S
H1811 C1746 0.959 . S
H1812 C1749 0.930 . S
H1813 C1753 0.931 . S
H1814 C1754 0.959 . S
H1815 C1754 0.961 . S
H1816 C1754 0.959 . S
H1817 C1755 0.960 . S
H1818 C1755 0.960 . S
H1819 C1755 0.960 . S
H1820 C1791 0.980 . S
H1821 C1757 0.930 . S
H1822 C1761 0.930 . S
H1823 C1762 0.961 . S
H1824 C1762 0.960 . S
H1825 C1762 0.958 . S
H1826 C1763 0.961 . S
H1827 C1763 0.960 . S
H1828 C1763 0.960 . S
H1829 C1765 0.980 . S
H1830 C1764 0.961 . S
H1831 C1764 0.961 . S
H1832 C1764 0.959 . S
H1833 C1767 0.932 . S
H1834 C1771 0.929 . S
H1835 C1772 0.961 . S
H1836 C1772 0.959 . S
H1837 C1772 0.959 . S
H1838 C1773 0.960 . S
H1839 C1773 0.962 . S
H1840 C1773 0.961 . S
H1841 C1775 0.929 . S
H1842 C1778 0.930 . S
H1843 C1779 0.929 . S
H1844 C1782 0.930 . S
H1845 C1785 0.929 . S
H1846 C1786 0.930 . S
H1847 C1790 0.962 . S
H1848 C1790 0.959 . S
H1849 C1790 0.958 . S
C1850 C1851 1.560 . S
C1850 H1911 0.959 . S
C1850 H1912 0.959 . S
C1850 H1913 0.960 . S
C1851 C1850 1.560 . S
C1851 O1906 1.426 . S
C1851 H1910 0.980 . S
C1852 C1853 1.407 . S
C1852 C1857 1.418 . S
C1852 O1906 1.334 . S
C1853 C1852 1.407 . S
C1853 C1854 1.360 . S
C1853 H1914 0.929 . S
C1854 C1853 1.360 . S
C1854 C1855 1.401 . S
C1854 C1858 1.527 . S
C1855 C1854 1.401 . S
C1855 C1856 1.405 . S
C1855 C1888 1.587 . S
C1856 C1855 1.405 . S
C1856 C1857 1.332 . S
C1856 C1859 1.496 . S
C1857 C1852 1.418 . S
C1857 C1856 1.332 . S
C1857 H1915 0.929 . S
C1858 C1854 1.527 . S
C1858 H1916 0.959 . S
C1858 H1917 0.961 . S
C1858 H1918 0.961 . S
C1859 C1856 1.496 . S
C1859 H1919 0.960 . S
C1859 H1920 0.960 . S
C1859 H1921 0.961 . S
C1860 C1861 1.517 . S
C1860 H1923 0.961 . S
C1860 H1924 0.960 . S
C1860 H1925 0.959 . S
C1861 C1860 1.517 . S
C1861 O1909 1.468 . S
C1861 H1922 0.980 . S
C1862 C1863 1.349 . S
C1862 C1867 1.367 . S
C1862 O1909 1.408 . S
C1863 C1862 1.349 . S
C1863 C1864 1.407 . S
C1863 H1926 0.930 . S
C1864 C1863 1.407 . S
C1864 C1865 1.449 . S
C1864 C1868 1.535 . S
C1865 C1864 1.449 . S
C1865 C1866 1.384 . S
C1865 C1890 1.553 . S
C1866 C1865 1.384 . S
C1866 C1867 1.364 . S
C1866 C1869 1.450 . S
C1867 C1862 1.367 . S
C1867 C1866 1.364 . S
C1867 H1927 0.931 . S
C1868 C1864 1.535 . S
C1868 H1928 0.959 . S
C1868 H1929 0.961 . S
C1868 H1930 0.959 . S
C1869 C1866 1.450 . S
C1869 H1931 0.960 . S
C1869 H1932 0.960 . S
C1869 H1933 0.960 . S
C1870 C1871 1.309 . S
C1870 C1875 1.304 . S
C1870 O1908 1.435 . S
C1871 C1870 1.309 . S
C1871 C1872 1.476 . S
C1871 H1935 0.930 . S
C1872 C1871 1.476 . S
C1872 C1873 1.400 . S
C1872 C1876 1.567 . S
C1873 C1872 1.400 . S
C1873 C1874 1.373 . S
C1873 C1895 1.432 . S
C1874 C1873 1.373 . S
C1874 C1875 1.339 . S
C1874 C1877 1.530 . S
C1875 C1870 1.304 . S
C1875 C1874 1.339 . S
C1875 H1936 0.930 . S
C1876 C1872 1.567 . S
C1876 H1937 0.961 . S
C1876 H1938 0.960 . S
C1876 H1939 0.958 . S
C1877 C1874 1.530 . S
C1877 H1940 0.961 . S
C1877 H1941 0.960 . S
C1877 H1942 0.960 . S
C1878 C1879 1.530 . S
C1878 H1944 0.961 . S
C1878 H1945 0.961 . S
C1878 H1946 0.959 . S
C1879 C1878 1.530 . S
C1879 O1907 1.412 . S
C1879 H1943 0.980 . S
C1880 C1881 1.288 . S
C1880 C1885 1.377 . S
C1880 O1907 1.393 . S
C1881 C1880 1.288 . S
C1881 C1882 1.369 . S
C1881 H1947 0.932 . S
C1882 C1881 1.369 . S
C1882 C1883 1.398 . S
C1882 C1886 1.527 . S
C1883 C1882 1.398 . S
C1883 C1884 1.380 . S
C1883 C1897 1.497 . S
C1884 C1883 1.380 . S
C1884 C1885 1.383 . S
C1884 C1887 1.603 . S
C1885 C1880 1.377 . S
C1885 C1884 1.383 . S
C1885 H1948 0.929 . S
C1886 C1882 1.527 . S
C1886 H1949 0.961 . S
C1886 H1950 0.959 . S
C1886 H1951 0.959 . S
C1887 C1884 1.603 . S
C1887 H1952 0.960 . S
C1887 H1953 0.962 . S
C1887 H1954 0.961 . S
C1888 C1855 1.587 . S
C1888 C1889 1.360 . S
C1888 C1901 1.412 . S
C1889 C1888 1.360 . S
C1889 C1890 1.365 1_545 S
C1889 H1955 0.929 . S
C1890 C1865 1.553 . S
C1890 C1889 1.365 1_565 S
C1890 C1891 1.404 . S
C1891 C1890 1.404 . S
C1891 C1892 1.395 . S
C1891 C1902 1.451 1_565 S
C1892 C1891 1.395 . S
C1892 C1893 1.322 . S
C1892 H1956 0.930 . S
C1893 C1892 1.322 . S
C1893 C1894 1.459 . S
C1893 H1957 0.929 . S
C1894 C1893 1.459 . S
C1894 C1895 1.445 . S
C1894 C1903 1.395 1_565 S
C1895 C1873 1.432 . S
C1895 C1894 1.445 . S
C1895 C1896 1.370 1_565 S
C1896 C1895 1.370 1_545 S
C1896 C1897 1.438 . S
C1896 H1958 0.930 . S
C1897 C1883 1.497 . S
C1897 C1896 1.438 . S
C1897 C1898 1.360 . S
C1898 C1897 1.360 . S
C1898 C1899 1.401 . S
C1898 C1903 1.446 . S
C1899 C1898 1.401 . S
C1899 C1900 1.347 . S
C1899 H1959 0.929 . S
C1900 C1899 1.347 . S
C1900 C1901 1.455 . S
C1900 H1960 0.930 . S
C1901 C1888 1.412 . S
C1901 C1900 1.455 . S
C1901 C1902 1.331 . S
C1902 C1891 1.451 1_545 S
C1902 C1901 1.331 . S
C1902 C1903 1.497 . S
C1903 C1894 1.395 1_545 S
C1903 C1898 1.446 . S
C1903 C1902 1.497 . S
C1904 C1905 1.582 . S
C1904 H1961 0.962 . S
C1904 H1962 0.959 . S
C1904 H1963 0.958 . S
C1905 C1904 1.582 . S
C1905 O1908 1.458 . S
C1905 H1934 0.980 . S
O1906 C1851 1.426 . S
O1906 C1852 1.334 . S
O1907 C1879 1.412 . S
O1907 C1880 1.393 . S
O1908 C1870 1.435 . S
O1908 C1905 1.458 . S
O1909 C1861 1.468 . S
O1909 C1862 1.408 . S
H1910 C1851 0.980 . S
H1911 C1850 0.959 . S
H1912 C1850 0.959 . S
H1913 C1850 0.960 . S
H1914 C1853 0.929 . S
H1915 C1857 0.929 . S
H1916 C1858 0.959 . S
H1917 C1858 0.961 . S
H1918 C1858 0.961 . S
H1919 C1859 0.960 . S
H1920 C1859 0.960 . S
H1921 C1859 0.961 . S
H1922 C1861 0.980 . S
H1923 C1860 0.961 . S
H1924 C1860 0.960 . S
H1925 C1860 0.959 . S
H1926 C1863 0.930 . S
H1927 C1867 0.931 . S
H1928 C1868 0.959 . S
H1929 C1868 0.961 . S
H1930 C1868 0.959 . S
H1931 C1869 0.960 . S
H1932 C1869 0.960 . S
H1933 C1869 0.960 . S
H1934 C1905 0.980 . S
H1935 C1871 0.930 . S
H1936 C1875 0.930 . S
H1937 C1876 0.961 . S
H1938 C1876 0.960 . S
H1939 C1876 0.958 . S
H1940 C1877 0.961 . S
H1941 C1877 0.960 . S
H1942 C1877 0.960 . S
H1943 C1879 0.980 . S
H1944 C1878 0.961 . S
H1945 C1878 0.961 . S
H1946 C1878 0.959 . S
H1947 C1881 0.932 . S
H1948 C1885 0.929 . S
H1949 C1886 0.961 . S
H1950 C1886 0.959 . S
H1951 C1886 0.959 . S
H1952 C1887 0.960 . S
H1953 C1887 0.962 . S
H1954 C1887 0.961 . S
H1955 C1889 0.929 . S
H1956 C1892 0.930 . S
H1957 C1893 0.929 . S
H1958 C1896 0.930 . S
H1959 C1899 0.929 . S
H1960 C1900 0.930 . S
H1961 C1904 0.962 . S
H1962 C1904 0.959 . S
H1963 C1904 0.958 . S
C1964 C1965 1.560 . S
C1964 H2025 0.959 . S
C1964 H2026 0.959 . S
C1964 H2027 0.960 . S
C1965 C1964 1.560 . S
C1965 O2020 1.426 . S
C1965 H2024 0.980 . S
C1966 C1967 1.407 . S
C1966 C1971 1.418 . S
C1966 O2020 1.334 . S
C1967 C1966 1.407 . S
C1967 C1968 1.360 . S
C1967 H2028 0.929 . S
C1968 C1967 1.360 . S
C1968 C1969 1.401 . S
C1968 C1972 1.527 . S
C1969 C1968 1.401 . S
C1969 C1970 1.405 . S
C1969 C2002 1.587 . S
C1970 C1969 1.405 . S
C1970 C1971 1.332 . S
C1970 C1973 1.496 . S
C1971 C1966 1.418 . S
C1971 C1970 1.332 . S
C1971 H2029 0.929 . S
C1972 C1968 1.527 . S
C1972 H2030 0.959 . S
C1972 H2031 0.961 . S
C1972 H2032 0.961 . S
C1973 C1970 1.496 . S
C1973 H2033 0.960 . S
C1973 H2034 0.960 . S
C1973 H2035 0.961 . S
C1974 C1975 1.517 . S
C1974 H2037 0.961 . S
C1974 H2038 0.960 . S
C1974 H2039 0.959 . S
C1975 C1974 1.517 . S
C1975 O2023 1.468 . S
C1975 H2036 0.980 . S
C1976 C1977 1.349 . S
C1976 C1981 1.367 . S
C1976 O2023 1.408 . S
C1977 C1976 1.349 . S
C1977 C1978 1.407 . S
C1977 H2040 0.930 . S
C1978 C1977 1.407 . S
C1978 C1979 1.449 . S
C1978 C1982 1.535 . S
C1979 C1978 1.449 . S
C1979 C1980 1.384 . S
C1979 C2004 1.553 . S
C1980 C1979 1.384 . S
C1980 C1981 1.364 . S
C1980 C1983 1.450 . S
C1981 C1976 1.367 . S
C1981 C1980 1.364 . S
C1981 H2041 0.931 . S
C1982 C1978 1.535 . S
C1982 H2042 0.959 . S
C1982 H2043 0.961 . S
C1982 H2044 0.959 . S
C1983 C1980 1.450 . S
C1983 H2045 0.960 . S
C1983 H2046 0.960 . S
C1983 H2047 0.960 . S
C1984 C1985 1.309 . S
C1984 C1989 1.304 . S
C1984 O2022 1.435 . S
C1985 C1984 1.309 . S
C1985 C1986 1.476 . S
C1985 H2049 0.930 . S
C1986 C1985 1.476 . S
C1986 C1987 1.400 . S
C1986 C1990 1.567 . S
C1987 C1986 1.400 . S
C1987 C1988 1.373 . S
C1987 C2009 1.432 . S
C1988 C1987 1.373 . S
C1988 C1989 1.339 . S
C1988 C1991 1.530 . S
C1989 C1984 1.304 . S
C1989 C1988 1.339 . S
C1989 H2050 0.930 . S
C1990 C1986 1.567 . S
C1990 H2051 0.961 . S
C1990 H2052 0.960 . S
C1990 H2053 0.958 . S
C1991 C1988 1.530 . S
C1991 H2054 0.961 . S
C1991 H2055 0.960 . S
C1991 H2056 0.960 . S
C1992 C1993 1.530 . S
C1992 H2058 0.961 . S
C1992 H2059 0.961 . S
C1992 H2060 0.959 . S
C1993 C1992 1.530 . S
C1993 O2021 1.412 . S
C1993 H2057 0.980 . S
C1994 C1995 1.288 . S
C1994 C1999 1.377 . S
C1994 O2021 1.393 . S
C1995 C1994 1.288 . S
C1995 C1996 1.369 . S
C1995 H2061 0.932 . S
C1996 C1995 1.369 . S
C1996 C1997 1.398 . S
C1996 C2000 1.527 . S
C1997 C1996 1.398 . S
C1997 C1998 1.380 . S
C1997 C2011 1.497 . S
C1998 C1997 1.380 . S
C1998 C1999 1.383 . S
C1998 C2001 1.603 . S
C1999 C1994 1.377 . S
C1999 C1998 1.383 . S
C1999 H2062 0.929 . S
C2000 C1996 1.527 . S
C2000 H2063 0.961 . S
C2000 H2064 0.959 . S
C2000 H2065 0.959 . S
C2001 C1998 1.603 . S
C2001 H2066 0.960 . S
C2001 H2067 0.962 . S
C2001 H2068 0.961 . S
C2002 C1969 1.587 . S
C2002 C2003 1.360 . S
C2002 C2015 1.412 . S
C2003 C2002 1.360 . S
C2003 C2004 1.365 1_455 S
C2003 H2069 0.929 . S
C2004 C1979 1.553 . S
C2004 C2003 1.365 1_655 S
C2004 C2005 1.404 . S
C2005 C2004 1.404 . S
C2005 C2006 1.395 . S
C2005 C2016 1.451 1_655 S
C2006 C2005 1.395 . S
C2006 C2007 1.322 . S
C2006 H2070 0.930 . S
C2007 C2006 1.322 . S
C2007 C2008 1.459 . S
C2007 H2071 0.929 . S
C2008 C2007 1.459 . S
C2008 C2009 1.445 . S
C2008 C2017 1.395 1_655 S
C2009 C1987 1.432 . S
C2009 C2008 1.445 . S
C2009 C2010 1.370 1_655 S
C2010 C2009 1.370 1_455 S
C2010 C2011 1.438 . S
C2010 H2072 0.930 . S
C2011 C1997 1.497 . S
C2011 C2010 1.438 . S
C2011 C2012 1.360 . S
C2012 C2011 1.360 . S
C2012 C2013 1.401 . S
C2012 C2017 1.446 . S
C2013 C2012 1.401 . S
C2013 C2014 1.347 . S
C2013 H2073 0.929 . S
C2014 C2013 1.347 . S
C2014 C2015 1.455 . S
C2014 H2074 0.930 . S
C2015 C2002 1.412 . S
C2015 C2014 1.455 . S
C2015 C2016 1.331 . S
C2016 C2005 1.451 1_455 S
C2016 C2015 1.331 . S
C2016 C2017 1.497 . S
C2017 C2008 1.395 1_455 S
C2017 C2012 1.446 . S
C2017 C2016 1.497 . S
C2018 C2019 1.582 . S
C2018 H2075 0.962 . S
C2018 H2076 0.959 . S
C2018 H2077 0.958 . S
C2019 C2018 1.582 . S
C2019 O2022 1.458 . S
C2019 H2048 0.980 . S
O2020 C1965 1.426 . S
O2020 C1966 1.334 . S
O2021 C1993 1.412 . S
O2021 C1994 1.393 . S
O2022 C1984 1.435 . S
O2022 C2019 1.458 . S
O2023 C1975 1.468 . S
O2023 C1976 1.408 . S
H2024 C1965 0.980 . S
H2025 C1964 0.959 . S
H2026 C1964 0.959 . S
H2027 C1964 0.960 . S
H2028 C1967 0.929 . S
H2029 C1971 0.929 . S
H2030 C1972 0.959 . S
H2031 C1972 0.961 . S
H2032 C1972 0.961 . S
H2033 C1973 0.960 . S
H2034 C1973 0.960 . S
H2035 C1973 0.961 . S
H2036 C1975 0.980 . S
H2037 C1974 0.961 . S
H2038 C1974 0.960 . S
H2039 C1974 0.959 . S
H2040 C1977 0.930 . S
H2041 C1981 0.931 . S
H2042 C1982 0.959 . S
H2043 C1982 0.961 . S
H2044 C1982 0.959 . S
H2045 C1983 0.960 . S
H2046 C1983 0.960 . S
H2047 C1983 0.960 . S
H2048 C2019 0.980 . S
H2049 C1985 0.930 . S
H2050 C1989 0.930 . S
H2051 C1990 0.961 . S
H2052 C1990 0.960 . S
H2053 C1990 0.958 . S
H2054 C1991 0.961 . S
H2055 C1991 0.960 . S
H2056 C1991 0.960 . S
H2057 C1993 0.980 . S
H2058 C1992 0.961 . S
H2059 C1992 0.961 . S
H2060 C1992 0.959 . S
H2061 C1995 0.932 . S
H2062 C1999 0.929 . S
H2063 C2000 0.961 . S
H2064 C2000 0.959 . S
H2065 C2000 0.959 . S
H2066 C2001 0.960 . S
H2067 C2001 0.962 . S
H2068 C2001 0.961 . S
H2069 C2003 0.929 . S
H2070 C2006 0.930 . S
H2071 C2007 0.929 . S
H2072 C2010 0.930 . S
H2073 C2013 0.929 . S
H2074 C2014 0.930 . S
H2075 C2018 0.962 . S
H2076 C2018 0.959 . S
H2077 C2018 0.958 . S
C2078 C2079 1.560 . S
C2078 H2139 0.959 . S
C2078 H2140 0.959 . S
C2078 H2141 0.960 . S
C2079 C2078 1.560 . S
C2079 O2134 1.426 . S
C2079 H2138 0.980 . S
C2080 C2081 1.407 . S
C2080 C2085 1.418 . S
C2080 O2134 1.334 . S
C2081 C2080 1.407 . S
C2081 C2082 1.360 . S
C2081 H2142 0.929 . S
C2082 C2081 1.360 . S
C2082 C2083 1.401 . S
C2082 C2086 1.527 . S
C2083 C2082 1.401 . S
C2083 C2084 1.405 . S
C2083 C2116 1.587 . S
C2084 C2083 1.405 . S
C2084 C2085 1.332 . S
C2084 C2087 1.496 . S
C2085 C2080 1.418 . S
C2085 C2084 1.332 . S
C2085 H2143 0.929 . S
C2086 C2082 1.527 . S
C2086 H2144 0.959 . S
C2086 H2145 0.961 . S
C2086 H2146 0.961 . S
C2087 C2084 1.496 . S
C2087 H2147 0.960 . S
C2087 H2148 0.960 . S
C2087 H2149 0.961 . S
C2088 C2089 1.517 . S
C2088 H2151 0.961 . S
C2088 H2152 0.960 . S
C2088 H2153 0.959 . S
C2089 C2088 1.517 . S
C2089 O2137 1.468 . S
C2089 H2150 0.980 . S
C2090 C2091 1.349 . S
C2090 C2095 1.367 . S
C2090 O2137 1.408 . S
C2091 C2090 1.349 . S
C2091 C2092 1.407 . S
C2091 H2154 0.930 . S
C2092 C2091 1.407 . S
C2092 C2093 1.449 . S
C2092 C2096 1.535 . S
C2093 C2092 1.449 . S
C2093 C2094 1.384 . S
C2093 C2118 1.553 . S
C2094 C2093 1.384 . S
C2094 C2095 1.364 . S
C2094 C2097 1.450 . S
C2095 C2090 1.367 . S
C2095 C2094 1.364 . S
C2095 H2155 0.931 . S
C2096 C2092 1.535 . S
C2096 H2156 0.959 . S
C2096 H2157 0.961 . S
C2096 H2158 0.959 . S
C2097 C2094 1.450 . S
C2097 H2159 0.960 . S
C2097 H2160 0.960 . S
C2097 H2161 0.960 . S
C2098 C2099 1.309 . S
C2098 C2103 1.304 . S
C2098 O2136 1.435 . S
C2099 C2098 1.309 . S
C2099 C2100 1.476 . S
C2099 H2163 0.930 . S
C2100 C2099 1.476 . S
C2100 C2101 1.400 . S
C2100 C2104 1.567 . S
C2101 C2100 1.400 . S
C2101 C2102 1.373 . S
C2101 C2123 1.432 . S
C2102 C2101 1.373 . S
C2102 C2103 1.339 . S
C2102 C2105 1.530 . S
C2103 C2098 1.304 . S
C2103 C2102 1.339 . S
C2103 H2164 0.930 . S
C2104 C2100 1.567 . S
C2104 H2165 0.961 . S
C2104 H2166 0.960 . S
C2104 H2167 0.958 . S
C2105 C2102 1.530 . S
C2105 H2168 0.961 . S
C2105 H2169 0.960 . S
C2105 H2170 0.960 . S
C2106 C2107 1.530 . S
C2106 H2172 0.961 . S
C2106 H2173 0.961 . S
C2106 H2174 0.959 . S
C2107 C2106 1.530 . S
C2107 O2135 1.412 . S
C2107 H2171 0.980 . S
C2108 C2109 1.288 . S
C2108 C2113 1.377 . S
C2108 O2135 1.393 . S
C2109 C2108 1.288 . S
C2109 C2110 1.369 . S
C2109 H2175 0.932 . S
C2110 C2109 1.369 . S
C2110 C2111 1.398 . S
C2110 C2114 1.527 . S
C2111 C2110 1.398 . S
C2111 C2112 1.380 . S
C2111 C2125 1.497 . S
C2112 C2111 1.380 . S
C2112 C2113 1.383 . S
C2112 C2115 1.603 . S
C2113 C2108 1.377 . S
C2113 C2112 1.383 . S
C2113 H2176 0.929 . S
C2114 C2110 1.527 . S
C2114 H2177 0.961 . S
C2114 H2178 0.959 . S
C2114 H2179 0.959 . S
C2115 C2112 1.603 . S
C2115 H2180 0.960 . S
C2115 H2181 0.962 . S
C2115 H2182 0.961 . S
C2116 C2083 1.587 . S
C2116 C2117 1.360 1_565 S
C2116 C2129 1.412 . S
C2117 C2116 1.360 1_545 S
C2117 C2118 1.365 . S
C2117 H2183 0.929 . S
C2118 C2093 1.553 . S
C2118 C2117 1.365 . S
C2118 C2119 1.404 . S
C2119 C2118 1.404 . S
C2119 C2120 1.395 . S
C2119 C2130 1.451 . S
C2120 C2119 1.395 . S
C2120 C2121 1.322 . S
C2120 H2184 0.930 . S
C2121 C2120 1.322 . S
C2121 C2122 1.459 . S
C2121 H2185 0.929 . S
C2122 C2121 1.459 . S
C2122 C2123 1.445 . S
C2122 C2131 1.395 . S
C2123 C2101 1.432 . S
C2123 C2122 1.445 . S
C2123 C2124 1.370 . S
C2124 C2123 1.370 . S
C2124 C2125 1.438 1_545 S
C2124 H2186 0.930 . S
C2125 C2111 1.497 . S
C2125 C2124 1.438 1_565 S
C2125 C2126 1.360 . S
C2126 C2125 1.360 . S
C2126 C2127 1.401 . S
C2126 C2131 1.446 1_565 S
C2127 C2126 1.401 . S
C2127 C2128 1.347 . S
C2127 H2187 0.929 . S
C2128 C2127 1.347 . S
C2128 C2129 1.455 . S
C2128 H2188 0.930 . S
C2129 C2116 1.412 . S
C2129 C2128 1.455 . S
C2129 C2130 1.331 1_565 S
C2130 C2119 1.451 . S
C2130 C2129 1.331 1_545 S
C2130 C2131 1.497 . S
C2131 C2122 1.395 . S
C2131 C2126 1.446 1_545 S
C2131 C2130 1.497 . S
C2132 C2133 1.582 . S
C2132 H2189 0.962 . S
C2132 H2190 0.959 . S
C2132 H2191 0.958 . S
C2133 C2132 1.582 . S
C2133 O2136 1.458 . S
C2133 H2162 0.980 . S
O2134 C2079 1.426 . S
O2134 C2080 1.334 . S
O2135 C2107 1.412 . S
O2135 C2108 1.393 . S
O2136 C2098 1.435 . S
O2136 C2133 1.458 . S
O2137 C2089 1.468 . S
O2137 C2090 1.408 . S
H2138 C2079 0.980 . S
H2139 C2078 0.959 . S
H2140 C2078 0.959 . S
H2141 C2078 0.960 . S
H2142 C2081 0.929 . S
H2143 C2085 0.929 . S
H2144 C2086 0.959 . S
H2145 C2086 0.961 . S
H2146 C2086 0.961 . S
H2147 C2087 0.960 . S
H2148 C2087 0.960 . S
H2149 C2087 0.961 . S
H2150 C2089 0.980 . S
H2151 C2088 0.961 . S
H2152 C2088 0.960 . S
H2153 C2088 0.959 . S
H2154 C2091 0.930 . S
H2155 C2095 0.931 . S
H2156 C2096 0.959 . S
H2157 C2096 0.961 . S
H2158 C2096 0.959 . S
H2159 C2097 0.960 . S
H2160 C2097 0.960 . S
H2161 C2097 0.960 . S
H2162 C2133 0.980 . S
H2163 C2099 0.930 . S
H2164 C2103 0.930 . S
H2165 C2104 0.961 . S
H2166 C2104 0.960 . S
H2167 C2104 0.958 . S
H2168 C2105 0.961 . S
H2169 C2105 0.960 . S
H2170 C2105 0.960 . S
H2171 C2107 0.980 . S
H2172 C2106 0.961 . S
H2173 C2106 0.961 . S
H2174 C2106 0.959 . S
H2175 C2109 0.932 . S
H2176 C2113 0.929 . S
H2177 C2114 0.961 . S
H2178 C2114 0.959 . S
H2179 C2114 0.959 . S
H2180 C2115 0.960 . S
H2181 C2115 0.962 . S
H2182 C2115 0.961 . S
H2183 C2117 0.929 . S
H2184 C2120 0.930 . S
H2185 C2121 0.929 . S
H2186 C2124 0.930 . S
H2187 C2127 0.929 . S
H2188 C2128 0.930 . S
H2189 C2132 0.962 . S
H2190 C2132 0.959 . S
H2191 C2132 0.958 . S
C2192 C2193 1.560 . S
C2192 H2253 0.959 . S
C2192 H2254 0.959 . S
C2192 H2255 0.960 . S
C2193 C2192 1.560 . S
C2193 O2248 1.426 . S
C2193 H2252 0.980 . S
C2194 C2195 1.407 . S
C2194 C2199 1.418 . S
C2194 O2248 1.334 . S
C2195 C2194 1.407 . S
C2195 C2196 1.360 . S
C2195 H2256 0.929 . S
C2196 C2195 1.360 . S
C2196 C2197 1.401 . S
C2196 C2200 1.527 . S
C2197 C2196 1.401 . S
C2197 C2198 1.405 . S
C2197 C2230 1.587 . S
C2198 C2197 1.405 . S
C2198 C2199 1.332 . S
C2198 C2201 1.496 . S
C2199 C2194 1.418 . S
C2199 C2198 1.332 . S
C2199 H2257 0.929 . S
C2200 C2196 1.527 . S
C2200 H2258 0.959 . S
C2200 H2259 0.961 . S
C2200 H2260 0.961 . S
C2201 C2198 1.496 . S
C2201 H2261 0.960 . S
C2201 H2262 0.960 . S
C2201 H2263 0.961 . S
C2202 C2203 1.517 . S
C2202 H2265 0.961 . S
C2202 H2266 0.960 . S
C2202 H2267 0.959 . S
C2203 C2202 1.517 . S
C2203 O2251 1.468 . S
C2203 H2264 0.980 . S
C2204 C2205 1.349 . S
C2204 C2209 1.367 . S
C2204 O2251 1.408 . S
C2205 C2204 1.349 . S
C2205 C2206 1.407 . S
C2205 H2268 0.930 . S
C2206 C2205 1.407 . S
C2206 C2207 1.449 . S
C2206 C2210 1.535 . S
C2207 C2206 1.449 . S
C2207 C2208 1.384 . S
C2207 C2232 1.553 . S
C2208 C2207 1.384 . S
C2208 C2209 1.364 . S
C2208 C2211 1.450 . S
C2209 C2204 1.367 . S
C2209 C2208 1.364 . S
C2209 H2269 0.931 . S
C2210 C2206 1.535 . S
C2210 H2270 0.959 . S
C2210 H2271 0.961 . S
C2210 H2272 0.959 . S
C2211 C2208 1.450 . S
C2211 H2273 0.960 . S
C2211 H2274 0.960 . S
C2211 H2275 0.960 . S
C2212 C2213 1.309 . S
C2212 C2217 1.304 . S
C2212 O2250 1.435 . S
C2213 C2212 1.309 . S
C2213 C2214 1.476 . S
C2213 H2277 0.930 . S
C2214 C2213 1.476 . S
C2214 C2215 1.400 . S
C2214 C2218 1.567 . S
C2215 C2214 1.400 . S
C2215 C2216 1.373 . S
C2215 C2237 1.432 . S
C2216 C2215 1.373 . S
C2216 C2217 1.339 . S
C2216 C2219 1.530 . S
C2217 C2212 1.304 . S
C2217 C2216 1.339 . S
C2217 H2278 0.930 . S
C2218 C2214 1.567 . S
C2218 H2279 0.961 . S
C2218 H2280 0.960 . S
C2218 H2281 0.958 . S
C2219 C2216 1.530 . S
C2219 H2282 0.961 . S
C2219 H2283 0.960 . S
C2219 H2284 0.960 . S
C2220 C2221 1.530 . S
C2220 H2286 0.961 . S
C2220 H2287 0.961 . S
C2220 H2288 0.959 . S
C2221 C2220 1.530 . S
C2221 O2249 1.412 . S
C2221 H2285 0.980 . S
C2222 C2223 1.288 . S
C2222 C2227 1.377 . S
C2222 O2249 1.393 . S
C2223 C2222 1.288 . S
C2223 C2224 1.369 . S
C2223 H2289 0.932 . S
C2224 C2223 1.369 . S
C2224 C2225 1.398 . S
C2224 C2228 1.527 . S
C2225 C2224 1.398 . S
C2225 C2226 1.380 . S
C2225 C2239 1.497 . S
C2226 C2225 1.380 . S
C2226 C2227 1.383 . S
C2226 C2229 1.603 . S
C2227 C2222 1.377 . S
C2227 C2226 1.383 . S
C2227 H2290 0.929 . S
C2228 C2224 1.527 . S
C2228 H2291 0.961 . S
C2228 H2292 0.959 . S
C2228 H2293 0.959 . S
C2229 C2226 1.603 . S
C2229 H2294 0.960 . S
C2229 H2295 0.962 . S
C2229 H2296 0.961 . S
C2230 C2197 1.587 . S
C2230 C2231 1.360 1_655 S
C2230 C2243 1.412 . S
C2231 C2230 1.360 1_455 S
C2231 C2232 1.365 . S
C2231 H2297 0.929 . S
C2232 C2207 1.553 . S
C2232 C2231 1.365 . S
C2232 C2233 1.404 . S
C2233 C2232 1.404 . S
C2233 C2234 1.395 . S
C2233 C2244 1.451 . S
C2234 C2233 1.395 . S
C2234 C2235 1.322 . S
C2234 H2298 0.930 . S
C2235 C2234 1.322 . S
C2235 C2236 1.459 . S
C2235 H2299 0.929 . S
C2236 C2235 1.459 . S
C2236 C2237 1.445 . S
C2236 C2245 1.395 . S
C2237 C2215 1.432 . S
C2237 C2236 1.445 . S
C2237 C2238 1.370 . S
C2238 C2237 1.370 . S
C2238 C2239 1.438 1_455 S
C2238 H2300 0.930 . S
C2239 C2225 1.497 . S
C2239 C2238 1.438 1_655 S
C2239 C2240 1.360 . S
C2240 C2239 1.360 . S
C2240 C2241 1.401 . S
C2240 C2245 1.446 1_655 S
C2241 C2240 1.401 . S
C2241 C2242 1.347 . S
C2241 H2301 0.929 . S
C2242 C2241 1.347 . S
C2242 C2243 1.455 . S
C2242 H2302 0.930 . S
C2243 C2230 1.412 . S
C2243 C2242 1.455 . S
C2243 C2244 1.331 1_655 S
C2244 C2233 1.451 . S
C2244 C2243 1.331 1_455 S
C2244 C2245 1.497 . S
C2245 C2236 1.395 . S
C2245 C2240 1.446 1_455 S
C2245 C2244 1.497 . S
C2246 C2247 1.582 . S
C2246 H2303 0.962 . S
C2246 H2304 0.959 . S
C2246 H2305 0.958 . S
C2247 C2246 1.582 . S
C2247 O2250 1.458 . S
C2247 H2276 0.980 . S
O2248 C2193 1.426 . S
O2248 C2194 1.334 . S
O2249 C2221 1.412 . S
O2249 C2222 1.393 . S
O2250 C2212 1.435 . S
O2250 C2247 1.458 . S
O2251 C2203 1.468 . S
O2251 C2204 1.408 . S
H2252 C2193 0.980 . S
H2253 C2192 0.959 . S
H2254 C2192 0.959 . S
H2255 C2192 0.960 . S
H2256 C2195 0.929 . S
H2257 C2199 0.929 . S
H2258 C2200 0.959 . S
H2259 C2200 0.961 . S
H2260 C2200 0.961 . S
H2261 C2201 0.960 . S
H2262 C2201 0.960 . S
H2263 C2201 0.961 . S
H2264 C2203 0.980 . S
H2265 C2202 0.961 . S
H2266 C2202 0.960 . S
H2267 C2202 0.959 . S
H2268 C2205 0.930 . S
H2269 C2209 0.931 . S
H2270 C2210 0.959 . S
H2271 C2210 0.961 . S
H2272 C2210 0.959 . S
H2273 C2211 0.960 . S
H2274 C2211 0.960 . S
H2275 C2211 0.960 . S
H2276 C2247 0.980 . S
H2277 C2213 0.930 . S
H2278 C2217 0.930 . S
H2279 C2218 0.961 . S
H2280 C2218 0.960 . S
H2281 C2218 0.958 . S
H2282 C2219 0.961 . S
H2283 C2219 0.960 . S
H2284 C2219 0.960 . S
H2285 C2221 0.980 . S
H2286 C2220 0.961 . S
H2287 C2220 0.961 . S
H2288 C2220 0.959 . S
H2289 C2223 0.932 . S
H2290 C2227 0.929 . S
H2291 C2228 0.961 . S
H2292 C2228 0.959 . S
H2293 C2228 0.959 . S
H2294 C2229 0.960 . S
H2295 C2229 0.962 . S
H2296 C2229 0.961 . S
H2297 C2231 0.929 . S
H2298 C2234 0.930 . S
H2299 C2235 0.929 . S
H2300 C2238 0.930 . S
H2301 C2241 0.929 . S
H2302 C2242 0.930 . S
H2303 C2246 0.962 . S
H2304 C2246 0.959 . S
H2305 C2246 0.958 . S
C2306 C2307 1.560 . S
C2306 H2367 0.959 . S
C2306 H2368 0.959 . S
C2306 H2369 0.960 . S
C2307 C2306 1.560 . S
C2307 O2362 1.426 . S
C2307 H2366 0.980 . S
C2308 C2309 1.407 . S
C2308 C2313 1.418 . S
C2308 O2362 1.334 . S
C2309 C2308 1.407 . S
C2309 C2310 1.360 . S
C2309 H2370 0.929 . S
C2310 C2309 1.360 . S
C2310 C2311 1.401 . S
C2310 C2314 1.527 . S
C2311 C2310 1.401 . S
C2311 C2312 1.405 . S
C2311 C2344 1.587 . S
C2312 C2311 1.405 . S
C2312 C2313 1.332 . S
C2312 C2315 1.496 . S
C2313 C2308 1.418 . S
C2313 C2312 1.332 . S
C2313 H2371 0.929 . S
C2314 C2310 1.527 . S
C2314 H2372 0.959 . S
C2314 H2373 0.961 . S
C2314 H2374 0.961 . S
C2315 C2312 1.496 . S
C2315 H2375 0.960 . S
C2315 H2376 0.960 . S
C2315 H2377 0.961 . S
C2316 C2317 1.517 . S
C2316 H2379 0.961 . S
C2316 H2380 0.960 . S
C2316 H2381 0.959 . S
C2317 C2316 1.517 . S
C2317 O2365 1.468 . S
C2317 H2378 0.980 . S
C2318 C2319 1.349 . S
C2318 C2323 1.367 . S
C2318 O2365 1.408 . S
C2319 C2318 1.349 . S
C2319 C2320 1.407 . S
C2319 H2382 0.930 . S
C2320 C2319 1.407 . S
C2320 C2321 1.449 . S
C2320 C2324 1.535 . S
C2321 C2320 1.449 . S
C2321 C2322 1.384 . S
C2321 C2346 1.553 . S
C2322 C2321 1.384 . S
C2322 C2323 1.364 . S
C2322 C2325 1.450 . S
C2323 C2318 1.367 . S
C2323 C2322 1.364 . S
C2323 H2383 0.931 . S
C2324 C2320 1.535 . S
C2324 H2384 0.959 . S
C2324 H2385 0.961 . S
C2324 H2386 0.959 . S
C2325 C2322 1.450 . S
C2325 H2387 0.960 . S
C2325 H2388 0.960 . S
C2325 H2389 0.960 . S
C2326 C2327 1.309 . S
C2326 C2331 1.304 . S
C2326 O2364 1.435 . S
C2327 C2326 1.309 . S
C2327 C2328 1.476 . S
C2327 H2391 0.930 . S
C2328 C2327 1.476 . S
C2328 C2329 1.400 . S
C2328 C2332 1.567 . S
C2329 C2328 1.400 . S
C2329 C2330 1.373 . S
C2329 C2351 1.432 . S
C2330 C2329 1.373 . S
C2330 C2331 1.339 . S
C2330 C2333 1.530 . S
C2331 C2326 1.304 . S
C2331 C2330 1.339 . S
C2331 H2392 0.930 . S
C2332 C2328 1.567 . S
C2332 H2393 0.961 . S
C2332 H2394 0.960 . S
C2332 H2395 0.958 . S
C2333 C2330 1.530 . S
C2333 H2396 0.961 . S
C2333 H2397 0.960 . S
C2333 H2398 0.960 . S
C2334 C2335 1.530 . S
C2334 H2400 0.961 . S
C2334 H2401 0.961 . S
C2334 H2402 0.959 . S
C2335 C2334 1.530 . S
C2335 O2363 1.412 . S
C2335 H2399 0.980 . S
C2336 C2337 1.288 . S
C2336 C2341 1.377 . S
C2336 O2363 1.393 . S
C2337 C2336 1.288 . S
C2337 C2338 1.369 . S
C2337 H2403 0.932 . S
C2338 C2337 1.369 . S
C2338 C2339 1.398 . S
C2338 C2342 1.527 . S
C2339 C2338 1.398 . S
C2339 C2340 1.380 . S
C2339 C2353 1.497 . S
C2340 C2339 1.380 . S
C2340 C2341 1.383 . S
C2340 C2343 1.603 . S
C2341 C2336 1.377 . S
C2341 C2340 1.383 . S
C2341 H2404 0.929 . S
C2342 C2338 1.527 . S
C2342 H2405 0.961 . S
C2342 H2406 0.959 . S
C2342 H2407 0.959 . S
C2343 C2340 1.603 . S
C2343 H2408 0.960 . S
C2343 H2409 0.962 . S
C2343 H2410 0.961 . S
C2344 C2311 1.587 . S
C2344 C2345 1.360 . S
C2344 C2357 1.412 . S
C2345 C2344 1.360 . S
C2345 C2346 1.365 1_545 S
C2345 H2411 0.929 . S
C2346 C2321 1.553 . S
C2346 C2345 1.365 1_565 S
C2346 C2347 1.404 . S
C2347 C2346 1.404 . S
C2347 C2348 1.395 . S
C2347 C2358 1.451 1_565 S
C2348 C2347 1.395 . S
C2348 C2349 1.322 . S
C2348 H2412 0.930 . S
C2349 C2348 1.322 . S
C2349 C2350 1.459 . S
C2349 H2413 0.929 . S
C2350 C2349 1.459 . S
C2350 C2351 1.445 . S
C2350 C2359 1.395 1_565 S
C2351 C2329 1.432 . S
C2351 C2350 1.445 . S
C2351 C2352 1.370 1_565 S
C2352 C2351 1.370 1_545 S
C2352 C2353 1.438 . S
C2352 H2414 0.930 . S
C2353 C2339 1.497 . S
C2353 C2352 1.438 . S
C2353 C2354 1.360 . S
C2354 C2353 1.360 . S
C2354 C2355 1.401 . S
C2354 C2359 1.446 . S
C2355 C2354 1.401 . S
C2355 C2356 1.347 . S
C2355 H2415 0.929 . S
C2356 C2355 1.347 . S
C2356 C2357 1.455 . S
C2356 H2416 0.930 . S
C2357 C2344 1.412 . S
C2357 C2356 1.455 . S
C2357 C2358 1.331 . S
C2358 C2347 1.451 1_545 S
C2358 C2357 1.331 . S
C2358 C2359 1.497 . S
C2359 C2350 1.395 1_545 S
C2359 C2354 1.446 . S
C2359 C2358 1.497 . S
C2360 C2361 1.582 . S
C2360 H2417 0.962 . S
C2360 H2418 0.959 . S
C2360 H2419 0.958 . S
C2361 C2360 1.582 . S
C2361 O2364 1.458 . S
C2361 H2390 0.980 . S
O2362 C2307 1.426 . S
O2362 C2308 1.334 . S
O2363 C2335 1.412 . S
O2363 C2336 1.393 . S
O2364 C2326 1.435 . S
O2364 C2361 1.458 . S
O2365 C2317 1.468 . S
O2365 C2318 1.408 . S
H2366 C2307 0.980 . S
H2367 C2306 0.959 . S
H2368 C2306 0.959 . S
H2369 C2306 0.960 . S
H2370 C2309 0.929 . S
H2371 C2313 0.929 . S
H2372 C2314 0.959 . S
H2373 C2314 0.961 . S
H2374 C2314 0.961 . S
H2375 C2315 0.960 . S
H2376 C2315 0.960 . S
H2377 C2315 0.961 . S
H2378 C2317 0.980 . S
H2379 C2316 0.961 . S
H2380 C2316 0.960 . S
H2381 C2316 0.959 . S
H2382 C2319 0.930 . S
H2383 C2323 0.931 . S
H2384 C2324 0.959 . S
H2385 C2324 0.961 . S
H2386 C2324 0.959 . S
H2387 C2325 0.960 . S
H2388 C2325 0.960 . S
H2389 C2325 0.960 . S
H2390 C2361 0.980 . S
H2391 C2327 0.930 . S
H2392 C2331 0.930 . S
H2393 C2332 0.961 . S
H2394 C2332 0.960 . S
H2395 C2332 0.958 . S
H2396 C2333 0.961 . S
H2397 C2333 0.960 . S
H2398 C2333 0.960 . S
H2399 C2335 0.980 . S
H2400 C2334 0.961 . S
H2401 C2334 0.961 . S
H2402 C2334 0.959 . S
H2403 C2337 0.932 . S
H2404 C2341 0.929 . S
H2405 C2342 0.961 . S
H2406 C2342 0.959 . S
H2407 C2342 0.959 . S
H2408 C2343 0.960 . S
H2409 C2343 0.962 . S
H2410 C2343 0.961 . S
H2411 C2345 0.929 . S
H2412 C2348 0.930 . S
H2413 C2349 0.929 . S
H2414 C2352 0.930 . S
H2415 C2355 0.929 . S
H2416 C2356 0.930 . S
H2417 C2360 0.962 . S
H2418 C2360 0.959 . S
H2419 C2360 0.958 . S
C2420 C2421 1.560 . S
C2420 H2481 0.959 . S
C2420 H2482 0.959 . S
C2420 H2483 0.960 . S
C2421 C2420 1.560 . S
C2421 O2476 1.426 . S
C2421 H2480 0.980 . S
C2422 C2423 1.407 . S
C2422 C2427 1.418 . S
C2422 O2476 1.334 . S
C2423 C2422 1.407 . S
C2423 C2424 1.360 . S
C2423 H2484 0.929 . S
C2424 C2423 1.360 . S
C2424 C2425 1.401 . S
C2424 C2428 1.527 . S
C2425 C2424 1.401 . S
C2425 C2426 1.405 . S
C2425 C2458 1.587 . S
C2426 C2425 1.405 . S
C2426 C2427 1.332 . S
C2426 C2429 1.496 . S
C2427 C2422 1.418 . S
C2427 C2426 1.332 . S
C2427 H2485 0.929 . S
C2428 C2424 1.527 . S
C2428 H2486 0.959 . S
C2428 H2487 0.961 . S
C2428 H2488 0.961 . S
C2429 C2426 1.496 . S
C2429 H2489 0.960 . S
C2429 H2490 0.960 . S
C2429 H2491 0.961 . S
C2430 C2431 1.517 . S
C2430 H2493 0.961 . S
C2430 H2494 0.960 . S
C2430 H2495 0.959 . S
C2431 C2430 1.517 . S
C2431 O2479 1.468 . S
C2431 H2492 0.980 . S
C2432 C2433 1.349 . S
C2432 C2437 1.367 . S
C2432 O2479 1.408 . S
C2433 C2432 1.349 . S
C2433 C2434 1.407 . S
C2433 H2496 0.930 . S
C2434 C2433 1.407 . S
C2434 C2435 1.449 . S
C2434 C2438 1.535 . S
C2435 C2434 1.449 . S
C2435 C2436 1.384 . S
C2435 C2460 1.553 . S
C2436 C2435 1.384 . S
C2436 C2437 1.364 . S
C2436 C2439 1.450 . S
C2437 C2432 1.367 . S
C2437 C2436 1.364 . S
C2437 H2497 0.931 . S
C2438 C2434 1.535 . S
C2438 H2498 0.959 . S
C2438 H2499 0.961 . S
C2438 H2500 0.959 . S
C2439 C2436 1.450 . S
C2439 H2501 0.960 . S
C2439 H2502 0.960 . S
C2439 H2503 0.960 . S
C2440 C2441 1.309 . S
C2440 C2445 1.304 . S
C2440 O2478 1.435 . S
C2441 C2440 1.309 . S
C2441 C2442 1.476 . S
C2441 H2505 0.930 . S
C2442 C2441 1.476 . S
C2442 C2443 1.400 . S
C2442 C2446 1.567 . S
C2443 C2442 1.400 . S
C2443 C2444 1.373 . S
C2443 C2465 1.432 . S
C2444 C2443 1.373 . S
C2444 C2445 1.339 . S
C2444 C2447 1.530 . S
C2445 C2440 1.304 . S
C2445 C2444 1.339 . S
C2445 H2506 0.930 . S
C2446 C2442 1.567 . S
C2446 H2507 0.961 . S
C2446 H2508 0.960 . S
C2446 H2509 0.958 . S
C2447 C2444 1.530 . S
C2447 H2510 0.961 . S
C2447 H2511 0.960 . S
C2447 H2512 0.960 . S
C2448 C2449 1.530 . S
C2448 H2514 0.961 . S
C2448 H2515 0.961 . S
C2448 H2516 0.959 . S
C2449 C2448 1.530 . S
C2449 O2477 1.412 . S
C2449 H2513 0.980 . S
C2450 C2451 1.288 . S
C2450 C2455 1.377 . S
C2450 O2477 1.393 . S
C2451 C2450 1.288 . S
C2451 C2452 1.369 . S
C2451 H2517 0.932 . S
C2452 C2451 1.369 . S
C2452 C2453 1.398 . S
C2452 C2456 1.527 . S
C2453 C2452 1.398 . S
C2453 C2454 1.380 . S
C2453 C2467 1.497 . S
C2454 C2453 1.380 . S
C2454 C2455 1.383 . S
C2454 C2457 1.603 . S
C2455 C2450 1.377 . S
C2455 C2454 1.383 . S
C2455 H2518 0.929 . S
C2456 C2452 1.527 . S
C2456 H2519 0.961 . S
C2456 H2520 0.959 . S
C2456 H2521 0.959 . S
C2457 C2454 1.603 . S
C2457 H2522 0.960 . S
C2457 H2523 0.962 . S
C2457 H2524 0.961 . S
C2458 C2425 1.587 . S
C2458 C2459 1.339 1_655 S
C2458 C2471 1.412 . S
C2459 C2458 1.339 1_455 S
C2459 C2460 1.387 . S
C2459 H2525 0.929 . S
C2460 C2435 1.553 . S
C2460 C2459 1.387 . S
C2460 C2461 1.404 . S
C2461 C2460 1.404 . S
C2461 C2462 1.395 . S
C2461 C2472 1.461 . S
C2462 C2461 1.395 . S
C2462 C2463 1.322 . S
C2462 H2526 0.930 . S
C2463 C2462 1.322 . S
C2463 C2464 1.459 . S
C2463 H2527 0.929 . S
C2464 C2463 1.459 . S
C2464 C2465 1.445 . S
C2464 C2473 1.453 . S
C2465 C2443 1.432 . S
C2465 C2464 1.445 . S
C2465 C2466 1.370 . S
C2466 C2465 1.370 . S
C2466 C2467 1.438 1_455 S
C2466 H2528 0.930 . S
C2467 C2453 1.497 . S
C2467 C2466 1.438 1_655 S
C2467 C2468 1.360 . S
C2468 C2467 1.360 . S
C2468 C2469 1.401 . S
C2468 C2473 1.391 1_655 S
C2469 C2468 1.401 . S
C2469 C2470 1.347 . S
C2469 H2529 0.929 . S
C2470 C2469 1.347 . S
C2470 C2471 1.455 . S
C2470 H2530 0.930 . S
C2471 C2458 1.412 . S
C2471 C2470 1.455 . S
C2471 C2472 1.320 1_655 S
C2472 C2461 1.461 . S
C2472 C2471 1.320 1_455 S
C2472 C2473 1.495 . S
C2473 C2464 1.453 . S
C2473 C2468 1.391 1_455 S
C2473 C2472 1.495 . S
C2474 C2475 1.582 . S
C2474 H2531 0.962 . S
C2474 H2532 0.959 . S
C2474 H2533 0.958 . S
C2475 C2474 1.582 . S
C2475 O2478 1.458 . S
C2475 H2504 0.980 . S
O2476 C2421 1.426 . S
O2476 C2422 1.334 . S
O2477 C2449 1.412 . S
O2477 C2450 1.393 . S
O2478 C2440 1.435 . S
O2478 C2475 1.458 . S
O2479 C2431 1.468 . S
O2479 C2432 1.408 . S
H2480 C2421 0.980 . S
H2481 C2420 0.959 . S
H2482 C2420 0.959 . S
H2483 C2420 0.960 . S
H2484 C2423 0.929 . S
H2485 C2427 0.929 . S
H2486 C2428 0.959 . S
H2487 C2428 0.961 . S
H2488 C2428 0.961 . S
H2489 C2429 0.960 . S
H2490 C2429 0.960 . S
H2491 C2429 0.961 . S
H2492 C2431 0.980 . S
H2493 C2430 0.961 . S
H2494 C2430 0.960 . S
H2495 C2430 0.959 . S
H2496 C2433 0.930 . S
H2497 C2437 0.931 . S
H2498 C2438 0.959 . S
H2499 C2438 0.961 . S
H2500 C2438 0.959 . S
H2501 C2439 0.960 . S
H2502 C2439 0.960 . S
H2503 C2439 0.960 . S
H2504 C2475 0.980 . S
H2505 C2441 0.930 . S
H2506 C2445 0.930 . S
H2507 C2446 0.961 . S
H2508 C2446 0.960 . S
H2509 C2446 0.958 . S
H2510 C2447 0.961 . S
H2511 C2447 0.960 . S
H2512 C2447 0.960 . S
H2513 C2449 0.980 . S
H2514 C2448 0.961 . S
H2515 C2448 0.961 . S
H2516 C2448 0.959 . S
H2517 C2451 0.932 . S
H2518 C2455 0.929 . S
H2519 C2456 0.961 . S
H2520 C2456 0.959 . S
H2521 C2456 0.959 . S
H2522 C2457 0.960 . S
H2523 C2457 0.962 . S
H2524 C2457 0.961 . S
H2525 C2459 0.929 . S
H2526 C2462 0.930 . S
H2527 C2463 0.929 . S
H2528 C2466 0.930 . S
H2529 C2469 0.929 . S
H2530 C2470 0.930 . S
H2531 C2474 0.962 . S
H2532 C2474 0.959 . S
H2533 C2474 0.958 . S
C2534 C2535 1.560 . S
C2534 H2595 0.959 . S
C2534 H2596 0.959 . S
C2534 H2597 0.960 . S
C2535 C2534 1.560 . S
C2535 O2590 1.426 . S
C2535 H2594 0.980 . S
C2536 C2537 1.407 . S
C2536 C2541 1.418 . S
C2536 O2590 1.334 . S
C2537 C2536 1.407 . S
C2537 C2538 1.360 . S
C2537 H2598 0.929 . S
C2538 C2537 1.360 . S
C2538 C2539 1.401 . S
C2538 C2542 1.527 . S
C2539 C2538 1.401 . S
C2539 C2540 1.405 . S
C2539 C2572 1.587 . S
C2540 C2539 1.405 . S
C2540 C2541 1.332 . S
C2540 C2543 1.496 . S
C2541 C2536 1.418 . S
C2541 C2540 1.332 . S
C2541 H2599 0.929 . S
C2542 C2538 1.527 . S
C2542 H2600 0.959 . S
C2542 H2601 0.961 . S
C2542 H2602 0.961 . S
C2543 C2540 1.496 . S
C2543 H2603 0.960 . S
C2543 H2604 0.960 . S
C2543 H2605 0.961 . S
C2544 C2545 1.517 . S
C2544 H2607 0.961 . S
C2544 H2608 0.960 . S
C2544 H2609 0.959 . S
C2545 C2544 1.517 . S
C2545 O2593 1.468 . S
C2545 H2606 0.980 . S
C2546 C2547 1.349 . S
C2546 C2551 1.367 . S
C2546 O2593 1.408 . S
C2547 C2546 1.349 . S
C2547 C2548 1.407 . S
C2547 H2610 0.930 . S
C2548 C2547 1.407 . S
C2548 C2549 1.449 . S
C2548 C2552 1.535 . S
C2549 C2548 1.449 . S
C2549 C2550 1.384 . S
C2549 C2574 1.553 . S
C2550 C2549 1.384 . S
C2550 C2551 1.364 . S
C2550 C2553 1.450 . S
C2551 C2546 1.367 . S
C2551 C2550 1.364 . S
C2551 H2611 0.931 . S
C2552 C2548 1.535 . S
C2552 H2612 0.959 . S
C2552 H2613 0.961 . S
C2552 H2614 0.959 . S
C2553 C2550 1.450 . S
C2553 H2615 0.960 . S
C2553 H2616 0.960 . S
C2553 H2617 0.960 . S
C2554 C2555 1.309 . S
C2554 C2559 1.304 . S
C2554 O2592 1.435 . S
C2555 C2554 1.309 . S
C2555 C2556 1.476 . S
C2555 H2619 0.930 . S
C2556 C2555 1.476 . S
C2556 C2557 1.400 . S
C2556 C2560 1.567 . S
C2557 C2556 1.400 . S
C2557 C2558 1.373 . S
C2557 C2579 1.432 . S
C2558 C2557 1.373 . S
C2558 C2559 1.339 . S
C2558 C2561 1.530 . S
C2559 C2554 1.304 . S
C2559 C2558 1.339 . S
C2559 H2620 0.930 . S
C2560 C2556 1.567 . S
C2560 H2621 0.961 . S
C2560 H2622 0.960 . S
C2560 H2623 0.958 . S
C2561 C2558 1.530 . S
C2561 H2624 0.961 . S
C2561 H2625 0.960 . S
C2561 H2626 0.960 . S
C2562 C2563 1.530 . S
C2562 H2628 0.961 . S
C2562 H2629 0.961 . S
C2562 H2630 0.959 . S
C2563 C2562 1.530 . S
C2563 O2591 1.412 . S
C2563 H2627 0.980 . S
C2564 C2565 1.288 . S
C2564 C2569 1.377 . S
C2564 O2591 1.393 . S
C2565 C2564 1.288 . S
C2565 C2566 1.369 . S
C2565 H2631 0.932 . S
C2566 C2565 1.369 . S
C2566 C2567 1.398 . S
C2566 C2570 1.527 . S
C2567 C2566 1.398 . S
C2567 C2568 1.380 . S
C2567 C2581 1.497 . S
C2568 C2567 1.380 . S
C2568 C2569 1.383 . S
C2568 C2571 1.603 . S
C2569 C2564 1.377 . S
C2569 C2568 1.383 . S
C2569 H2632 0.929 . S
C2570 C2566 1.527 . S
C2570 H2633 0.961 . S
C2570 H2634 0.959 . S
C2570 H2635 0.959 . S
C2571 C2568 1.603 . S
C2571 H2636 0.960 . S
C2571 H2637 0.962 . S
C2571 H2638 0.961 . S
C2572 C2539 1.587 . S
C2572 C2573 1.349 1_565 S
C2572 C2585 1.412 . S
C2573 C2572 1.349 1_545 S
C2573 C2574 1.377 . S
C2573 H2639 0.929 . S
C2574 C2549 1.553 . S
C2574 C2573 1.377 . S
C2574 C2575 1.404 . S
C2575 C2574 1.404 . S
C2575 C2576 1.395 . S
C2575 C2586 1.486 . S
C2576 C2575 1.395 . S
C2576 C2577 1.322 . S
C2576 H2640 0.930 . S
C2577 C2576 1.322 . S
C2577 C2578 1.459 . S
C2577 H2641 0.929 . S
C2578 C2577 1.459 . S
C2578 C2579 1.445 . S
C2578 C2587 1.395 . S
C2579 C2557 1.432 . S
C2579 C2578 1.445 . S
C2579 C2580 1.370 . S
C2580 C2579 1.370 . S
C2580 C2581 1.438 1_545 S
C2580 H2642 0.930 . S
C2581 C2567 1.497 . S
C2581 C2580 1.438 1_565 S
C2581 C2582 1.360 . S
C2582 C2581 1.360 . S
C2582 C2583 1.401 . S
C2582 C2587 1.446 1_565 S
C2583 C2582 1.401 . S
C2583 C2584 1.347 . S
C2583 H2643 0.929 . S
C2584 C2583 1.347 . S
C2584 C2585 1.455 . S
C2584 H2644 0.930 . S
C2585 C2572 1.412 . S
C2585 C2584 1.455 . S
C2585 C2586 1.296 1_565 S
C2586 C2575 1.486 . S
C2586 C2585 1.296 1_545 S
C2586 C2587 1.500 . S
C2587 C2578 1.395 . S
C2587 C2582 1.446 1_545 S
C2587 C2586 1.500 . S
C2588 C2589 1.582 . S
C2588 H2645 0.962 . S
C2588 H2646 0.959 . S
C2588 H2647 0.958 . S
C2589 C2588 1.582 . S
C2589 O2592 1.458 . S
C2589 H2618 0.980 . S
O2590 C2535 1.426 . S
O2590 C2536 1.334 . S
O2591 C2563 1.412 . S
O2591 C2564 1.393 . S
O2592 C2554 1.435 . S
O2592 C2589 1.458 . S
O2593 C2545 1.468 . S
O2593 C2546 1.408 . S
H2594 C2535 0.980 . S
H2595 C2534 0.959 . S
H2596 C2534 0.959 . S
H2597 C2534 0.960 . S
H2598 C2537 0.929 . S
H2599 C2541 0.929 . S
H2600 C2542 0.959 . S
H2601 C2542 0.961 . S
H2602 C2542 0.961 . S
H2603 C2543 0.960 . S
H2604 C2543 0.960 . S
H2605 C2543 0.961 . S
H2606 C2545 0.980 . S
H2607 C2544 0.961 . S
H2608 C2544 0.960 . S
H2609 C2544 0.959 . S
H2610 C2547 0.930 . S
H2611 C2551 0.931 . S
H2612 C2552 0.959 . S
H2613 C2552 0.961 . S
H2614 C2552 0.959 . S
H2615 C2553 0.960 . S
H2616 C2553 0.960 . S
H2617 C2553 0.960 . S
H2618 C2589 0.980 . S
H2619 C2555 0.930 . S
H2620 C2559 0.930 . S
H2621 C2560 0.961 . S
H2622 C2560 0.960 . S
H2623 C2560 0.958 . S
H2624 C2561 0.961 . S
H2625 C2561 0.960 . S
H2626 C2561 0.960 . S
H2627 C2563 0.980 . S
H2628 C2562 0.961 . S
H2629 C2562 0.961 . S
H2630 C2562 0.959 . S
H2631 C2565 0.932 . S
H2632 C2569 0.929 . S
H2633 C2570 0.961 . S
H2634 C2570 0.959 . S
H2635 C2570 0.959 . S
H2636 C2571 0.960 . S
H2637 C2571 0.962 . S
H2638 C2571 0.961 . S
H2639 C2573 0.929 . S
H2640 C2576 0.930 . S
H2641 C2577 0.929 . S
H2642 C2580 0.930 . S
H2643 C2583 0.929 . S
H2644 C2584 0.930 . S
H2645 C2588 0.962 . S
H2646 C2588 0.959 . S
H2647 C2588 0.958 . S
C2648 C2649 1.560 . S
C2648 H2709 0.959 . S
C2648 H2710 0.959 . S
C2648 H2711 0.960 . S
C2649 C2648 1.560 . S
C2649 O2704 1.426 . S
C2649 H2708 0.980 . S
C2650 C2651 1.407 . S
C2650 C2655 1.418 . S
C2650 O2704 1.334 . S
C2651 C2650 1.407 . S
C2651 C2652 1.360 . S
C2651 H2712 0.929 . S
C2652 C2651 1.360 . S
C2652 C2653 1.401 . S
C2652 C2656 1.527 . S
C2653 C2652 1.401 . S
C2653 C2654 1.405 . S
C2653 C2686 1.587 . S
C2654 C2653 1.405 . S
C2654 C2655 1.332 . S
C2654 C2657 1.496 . S
C2655 C2650 1.418 . S
C2655 C2654 1.332 . S
C2655 H2713 0.929 . S
C2656 C2652 1.527 . S
C2656 H2714 0.959 . S
C2656 H2715 0.961 . S
C2656 H2716 0.961 . S
C2657 C2654 1.496 . S
C2657 H2717 0.960 . S
C2657 H2718 0.960 . S
C2657 H2719 0.961 . S
C2658 C2659 1.517 . S
C2658 H2721 0.961 . S
C2658 H2722 0.960 . S
C2658 H2723 0.959 . S
C2659 C2658 1.517 . S
C2659 O2707 1.468 . S
C2659 H2720 0.980 . S
C2660 C2661 1.349 . S
C2660 C2665 1.367 . S
C2660 O2707 1.408 . S
C2661 C2660 1.349 . S
C2661 C2662 1.407 . S
C2661 H2724 0.930 . S
C2662 C2661 1.407 . S
C2662 C2663 1.449 . S
C2662 C2666 1.535 . S
C2663 C2662 1.449 . S
C2663 C2664 1.384 . S
C2663 C2688 1.553 . S
C2664 C2663 1.384 . S
C2664 C2665 1.364 . S
C2664 C2667 1.450 . S
C2665 C2660 1.367 . S
C2665 C2664 1.364 . S
C2665 H2725 0.931 . S
C2666 C2662 1.535 . S
C2666 H2726 0.959 . S
C2666 H2727 0.961 . S
C2666 H2728 0.959 . S
C2667 C2664 1.450 . S
C2667 H2729 0.960 . S
C2667 H2730 0.960 . S
C2667 H2731 0.960 . S
C2668 C2669 1.309 . S
C2668 C2673 1.304 . S
C2668 O2706 1.435 . S
C2669 C2668 1.309 . S
C2669 C2670 1.476 . S
C2669 H2733 0.930 . S
C2670 C2669 1.476 . S
C2670 C2671 1.400 . S
C2670 C2674 1.567 . S
C2671 C2670 1.400 . S
C2671 C2672 1.373 . S
C2671 C2693 1.432 . S
C2672 C2671 1.373 . S
C2672 C2673 1.339 . S
C2672 C2675 1.530 . S
C2673 C2668 1.304 . S
C2673 C2672 1.339 . S
C2673 H2734 0.930 . S
C2674 C2670 1.567 . S
C2674 H2735 0.961 . S
C2674 H2736 0.960 . S
C2674 H2737 0.958 . S
C2675 C2672 1.530 . S
C2675 H2738 0.961 . S
C2675 H2739 0.960 . S
C2675 H2740 0.960 . S
C2676 C2677 1.530 . S
C2676 H2742 0.961 . S
C2676 H2743 0.961 . S
C2676 H2744 0.959 . S
C2677 C2676 1.530 . S
C2677 O2705 1.412 . S
C2677 H2741 0.980 . S
C2678 C2679 1.288 . S
C2678 C2683 1.377 . S
C2678 O2705 1.393 . S
C2679 C2678 1.288 . S
C2679 C2680 1.369 . S
C2679 H2745 0.932 . S
C2680 C2679 1.369 . S
C2680 C2681 1.398 . S
C2680 C2684 1.527 . S
C2681 C2680 1.398 . S
C2681 C2682 1.380 . S
C2681 C2695 1.497 . S
C2682 C2681 1.380 . S
C2682 C2683 1.383 . S
C2682 C2685 1.603 . S
C2683 C2678 1.377 . S
C2683 C2682 1.383 . S
C2683 H2746 0.929 . S
C2684 C2680 1.527 . S
C2684 H2747 0.961 . S
C2684 H2748 0.959 . S
C2684 H2749 0.959 . S
C2685 C2682 1.603 . S
C2685 H2750 0.960 . S
C2685 H2751 0.962 . S
C2685 H2752 0.961 . S
C2686 C2653 1.587 . S
C2686 C2687 1.360 . S
C2686 C2699 1.412 . S
C2687 C2686 1.360 . S
C2687 C2688 1.365 . S
C2687 H2753 0.929 . S
C2688 C2663 1.553 . S
C2688 C2687 1.365 . S
C2688 C2689 1.404 . S
C2689 C2688 1.404 . S
C2689 C2690 1.395 . S
C2689 C2700 1.451 . S
C2690 C2689 1.395 . S
C2690 C2691 1.322 . S
C2690 H2754 0.930 . S
C2691 C2690 1.322 . S
C2691 C2692 1.459 . S
C2691 H2755 0.929 . S
C2692 C2691 1.459 . S
C2692 C2693 1.445 . S
C2692 C2701 1.395 . S
C2693 C2671 1.432 . S
C2693 C2692 1.445 . S
C2693 C2694 1.370 . S
C2694 C2693 1.370 . S
C2694 C2695 1.438 . S
C2694 H2756 0.930 . S
C2695 C2681 1.497 . S
C2695 C2694 1.438 . S
C2695 C2696 1.360 . S
C2696 C2695 1.360 . S
C2696 C2697 1.401 . S
C2696 C2701 1.446 . S
C2697 C2696 1.401 . S
C2697 C2698 1.347 . S
C2697 H2757 0.929 . S
C2698 C2697 1.347 . S
C2698 C2699 1.455 . S
C2698 H2758 0.930 . S
C2699 C2686 1.412 . S
C2699 C2698 1.455 . S
C2699 C2700 1.331 . S
C2700 C2689 1.451 . S
C2700 C2699 1.331 . S
C2700 C2701 1.497 . S
C2701 C2692 1.395 . S
C2701 C2696 1.446 . S
C2701 C2700 1.497 . S
C2702 C2703 1.582 . S
C2702 H2759 0.962 . S
C2702 H2760 0.959 . S
C2702 H2761 0.958 . S
C2703 C2702 1.582 . S
C2703 O2706 1.458 . S
C2703 H2732 0.980 . S
O2704 C2649 1.426 . S
O2704 C2650 1.334 . S
O2705 C2677 1.412 . S
O2705 C2678 1.393 . S
O2706 C2668 1.435 . S
O2706 C2703 1.458 . S
O2707 C2659 1.468 . S
O2707 C2660 1.408 . S
H2708 C2649 0.980 . S
H2709 C2648 0.959 . S
H2710 C2648 0.959 . S
H2711 C2648 0.960 . S
H2712 C2651 0.929 . S
H2713 C2655 0.929 . S
H2714 C2656 0.959 . S
H2715 C2656 0.961 . S
H2716 C2656 0.961 . S
H2717 C2657 0.960 . S
H2718 C2657 0.960 . S
H2719 C2657 0.961 . S
H2720 C2659 0.980 . S
H2721 C2658 0.961 . S
H2722 C2658 0.960 . S
H2723 C2658 0.959 . S
H2724 C2661 0.930 . S
H2725 C2665 0.931 . S
H2726 C2666 0.959 . S
H2727 C2666 0.961 . S
H2728 C2666 0.959 . S
H2729 C2667 0.960 . S
H2730 C2667 0.960 . S
H2731 C2667 0.960 . S
H2732 C2703 0.980 . S
H2733 C2669 0.930 . S
H2734 C2673 0.930 . S
H2735 C2674 0.961 . S
H2736 C2674 0.960 . S
H2737 C2674 0.958 . S
H2738 C2675 0.961 . S
H2739 C2675 0.960 . S
H2740 C2675 0.960 . S
H2741 C2677 0.980 . S
H2742 C2676 0.961 . S
H2743 C2676 0.961 . S
H2744 C2676 0.959 . S
H2745 C2679 0.932 . S
H2746 C2683 0.929 . S
H2747 C2684 0.961 . S
H2748 C2684 0.959 . S
H2749 C2684 0.959 . S
H2750 C2685 0.960 . S
H2751 C2685 0.962 . S
H2752 C2685 0.961 . S
H2753 C2687 0.929 . S
H2754 C2690 0.930 . S
H2755 C2691 0.929 . S
H2756 C2694 0.930 . S
H2757 C2697 0.929 . S
H2758 C2698 0.930 . S
H2759 C2702 0.962 . S
H2760 C2702 0.959 . S
H2761 C2702 0.958 . S
C2762 C2763 1.560 . S
C2762 H2823 0.959 . S
C2762 H2824 0.959 . S
C2762 H2825 0.960 . S
C2763 C2762 1.560 . S
C2763 O2818 1.426 . S
C2763 H2822 0.980 . S
C2764 C2765 1.407 . S
C2764 C2769 1.418 . S
C2764 O2818 1.334 . S
C2765 C2764 1.407 . S
C2765 C2766 1.360 . S
C2765 H2826 0.929 . S
C2766 C2765 1.360 . S
C2766 C2767 1.401 . S
C2766 C2770 1.527 . S
C2767 C2766 1.401 . S
C2767 C2768 1.405 . S
C2767 C2800 1.587 . S
C2768 C2767 1.405 . S
C2768 C2769 1.332 . S
C2768 C2771 1.496 . S
C2769 C2764 1.418 . S
C2769 C2768 1.332 . S
C2769 H2827 0.929 . S
C2770 C2766 1.527 . S
C2770 H2828 0.959 . S
C2770 H2829 0.961 . S
C2770 H2830 0.961 . S
C2771 C2768 1.496 . S
C2771 H2831 0.960 . S
C2771 H2832 0.960 . S
C2771 H2833 0.961 . S
C2772 C2773 1.517 . S
C2772 H2835 0.961 . S
C2772 H2836 0.960 . S
C2772 H2837 0.959 . S
C2773 C2772 1.517 . S
C2773 O2821 1.468 . S
C2773 H2834 0.980 . S
C2774 C2775 1.349 . S
C2774 C2779 1.367 . S
C2774 O2821 1.408 . S
C2775 C2774 1.349 . S
C2775 C2776 1.407 . S
C2775 H2838 0.930 . S
C2776 C2775 1.407 . S
C2776 C2777 1.449 . S
C2776 C2780 1.535 . S
C2777 C2776 1.449 . S
C2777 C2778 1.384 . S
C2777 C2802 1.553 . S
C2778 C2777 1.384 . S
C2778 C2779 1.364 . S
C2778 C2781 1.450 . S
C2779 C2774 1.367 . S
C2779 C2778 1.364 . S
C2779 H2839 0.931 . S
C2780 C2776 1.535 . S
C2780 H2840 0.959 . S
C2780 H2841 0.961 . S
C2780 H2842 0.959 . S
C2781 C2778 1.450 . S
C2781 H2843 0.960 . S
C2781 H2844 0.960 . S
C2781 H2845 0.960 . S
C2782 C2783 1.309 . S
C2782 C2787 1.304 . S
C2782 O2820 1.435 . S
C2783 C2782 1.309 . S
C2783 C2784 1.476 . S
C2783 H2847 0.930 . S
C2784 C2783 1.476 . S
C2784 C2785 1.400 . S
C2784 C2788 1.567 . S
C2785 C2784 1.400 . S
C2785 C2786 1.373 . S
C2785 C2807 1.432 . S
C2786 C2785 1.373 . S
C2786 C2787 1.339 . S
C2786 C2789 1.530 . S
C2787 C2782 1.304 . S
C2787 C2786 1.339 . S
C2787 H2848 0.930 . S
C2788 C2784 1.567 . S
C2788 H2849 0.961 . S
C2788 H2850 0.960 . S
C2788 H2851 0.958 . S
C2789 C2786 1.530 . S
C2789 H2852 0.961 . S
C2789 H2853 0.960 . S
C2789 H2854 0.960 . S
C2790 C2791 1.530 . S
C2790 H2856 0.961 . S
C2790 H2857 0.961 . S
C2790 H2858 0.959 . S
C2791 C2790 1.530 . S
C2791 O2819 1.412 . S
C2791 H2855 0.980 . S
C2792 C2793 1.288 . S
C2792 C2797 1.377 . S
C2792 O2819 1.393 . S
C2793 C2792 1.288 . S
C2793 C2794 1.369 . S
C2793 H2859 0.932 . S
C2794 C2793 1.369 . S
C2794 C2795 1.398 . S
C2794 C2798 1.527 . S
C2795 C2794 1.398 . S
C2795 C2796 1.380 . S
C2795 C2809 1.497 . S
C2796 C2795 1.380 . S
C2796 C2797 1.383 . S
C2796 C2799 1.603 . S
C2797 C2792 1.377 . S
C2797 C2796 1.383 . S
C2797 H2860 0.929 . S
C2798 C2794 1.527 . S
C2798 H2861 0.961 . S
C2798 H2862 0.959 . S
C2798 H2863 0.959 . S
C2799 C2796 1.603 . S
C2799 H2864 0.960 . S
C2799 H2865 0.962 . S
C2799 H2866 0.961 . S
C2800 C2767 1.587 . S
C2800 C2801 1.360 . S
C2800 C2813 1.412 . S
C2801 C2800 1.360 . S
C2801 C2802 1.365 . S
C2801 H2867 0.929 . S
C2802 C2777 1.553 . S
C2802 C2801 1.365 . S
C2802 C2803 1.404 . S
C2803 C2802 1.404 . S
C2803 C2804 1.395 . S
C2803 C2814 1.451 . S
C2804 C2803 1.395 . S
C2804 C2805 1.322 . S
C2804 H2868 0.930 . S
C2805 C2804 1.322 . S
C2805 C2806 1.459 . S
C2805 H2869 0.929 . S
C2806 C2805 1.459 . S
C2806 C2807 1.445 . S
C2806 C2815 1.395 . S
C2807 C2785 1.432 . S
C2807 C2806 1.445 . S
C2807 C2808 1.370 . S
C2808 C2807 1.370 . S
C2808 C2809 1.438 . S
C2808 H2870 0.930 . S
C2809 C2795 1.497 . S
C2809 C2808 1.438 . S
C2809 C2810 1.360 . S
C2810 C2809 1.360 . S
C2810 C2811 1.401 . S
C2810 C2815 1.446 . S
C2811 C2810 1.401 . S
C2811 C2812 1.347 . S
C2811 H2871 0.929 . S
C2812 C2811 1.347 . S
C2812 C2813 1.455 . S
C2812 H2872 0.930 . S
C2813 C2800 1.412 . S
C2813 C2812 1.455 . S
C2813 C2814 1.331 . S
C2814 C2803 1.451 . S
C2814 C2813 1.331 . S
C2814 C2815 1.497 . S
C2815 C2806 1.395 . S
C2815 C2810 1.446 . S
C2815 C2814 1.497 . S
C2816 C2817 1.582 . S
C2816 H2873 0.962 . S
C2816 H2874 0.959 . S
C2816 H2875 0.958 . S
C2817 C2816 1.582 . S
C2817 O2820 1.458 . S
C2817 H2846 0.980 . S
O2818 C2763 1.426 . S
O2818 C2764 1.334 . S
O2819 C2791 1.412 . S
O2819 C2792 1.393 . S
O2820 C2782 1.435 . S
O2820 C2817 1.458 . S
O2821 C2773 1.468 . S
O2821 C2774 1.408 . S
H2822 C2763 0.980 . S
H2823 C2762 0.959 . S
H2824 C2762 0.959 . S
H2825 C2762 0.960 . S
H2826 C2765 0.929 . S
H2827 C2769 0.929 . S
H2828 C2770 0.959 . S
H2829 C2770 0.961 . S
H2830 C2770 0.961 . S
H2831 C2771 0.960 . S
H2832 C2771 0.960 . S
H2833 C2771 0.961 . S
H2834 C2773 0.980 . S
H2835 C2772 0.961 . S
H2836 C2772 0.960 . S
H2837 C2772 0.959 . S
H2838 C2775 0.930 . S
H2839 C2779 0.931 . S
H2840 C2780 0.959 . S
H2841 C2780 0.961 . S
H2842 C2780 0.959 . S
H2843 C2781 0.960 . S
H2844 C2781 0.960 . S
H2845 C2781 0.960 . S
H2846 C2817 0.980 . S
H2847 C2783 0.930 . S
H2848 C2787 0.930 . S
H2849 C2788 0.961 . S
H2850 C2788 0.960 . S
H2851 C2788 0.958 . S
H2852 C2789 0.961 . S
H2853 C2789 0.960 . S
H2854 C2789 0.960 . S
H2855 C2791 0.980 . S
H2856 C2790 0.961 . S
H2857 C2790 0.961 . S
H2858 C2790 0.959 . S
H2859 C2793 0.932 . S
H2860 C2797 0.929 . S
H2861 C2798 0.961 . S
H2862 C2798 0.959 . S
H2863 C2798 0.959 . S
H2864 C2799 0.960 . S
H2865 C2799 0.962 . S
H2866 C2799 0.961 . S
H2867 C2801 0.929 . S
H2868 C2804 0.930 . S
H2869 C2805 0.929 . S
H2870 C2808 0.930 . S
H2871 C2811 0.929 . S
H2872 C2812 0.930 . S
H2873 C2816 0.962 . S
H2874 C2816 0.959 . S
H2875 C2816 0.958 . S
C2876 C2877 1.560 . S
C2876 H2937 0.959 . S
C2876 H2938 0.959 . S
C2876 H2939 0.960 . S
C2877 C2876 1.560 . S
C2877 O2932 1.426 . S
C2877 H2936 0.980 . S
C2878 C2879 1.407 . S
C2878 C2883 1.418 . S
C2878 O2932 1.334 . S
C2879 C2878 1.407 . S
C2879 C2880 1.360 . S
C2879 H2940 0.929 . S
C2880 C2879 1.360 . S
C2880 C2881 1.401 . S
C2880 C2884 1.527 . S
C2881 C2880 1.401 . S
C2881 C2882 1.405 . S
C2881 C2914 1.587 . S
C2882 C2881 1.405 . S
C2882 C2883 1.332 . S
C2882 C2885 1.496 . S
C2883 C2878 1.418 . S
C2883 C2882 1.332 . S
C2883 H2941 0.929 . S
C2884 C2880 1.527 . S
C2884 H2942 0.959 . S
C2884 H2943 0.961 . S
C2884 H2944 0.961 . S
C2885 C2882 1.496 . S
C2885 H2945 0.960 . S
C2885 H2946 0.960 . S
C2885 H2947 0.961 . S
C2886 C2887 1.517 . S
C2886 H2949 0.961 . S
C2886 H2950 0.960 . S
C2886 H2951 0.959 . S
C2887 C2886 1.517 . S
C2887 O2935 1.468 . S
C2887 H2948 0.980 . S
C2888 C2889 1.349 . S
C2888 C2893 1.367 . S
C2888 O2935 1.408 . S
C2889 C2888 1.349 . S
C2889 C2890 1.407 . S
C2889 H2952 0.930 . S
C2890 C2889 1.407 . S
C2890 C2891 1.449 . S
C2890 C2894 1.535 . S
C2891 C2890 1.449 . S
C2891 C2892 1.384 . S
C2891 C2916 1.553 . S
C2892 C2891 1.384 . S
C2892 C2893 1.364 . S
C2892 C2895 1.450 . S
C2893 C2888 1.367 . S
C2893 C2892 1.364 . S
C2893 H2953 0.931 . S
C2894 C2890 1.535 . S
C2894 H2954 0.959 . S
C2894 H2955 0.961 . S
C2894 H2956 0.959 . S
C2895 C2892 1.450 . S
C2895 H2957 0.960 . S
C2895 H2958 0.960 . S
C2895 H2959 0.960 . S
C2896 C2897 1.309 . S
C2896 C2901 1.304 . S
C2896 O2934 1.435 . S
C2897 C2896 1.309 . S
C2897 C2898 1.476 . S
C2897 H2961 0.930 . S
C2898 C2897 1.476 . S
C2898 C2899 1.400 . S
C2898 C2902 1.567 . S
C2899 C2898 1.400 . S
C2899 C2900 1.373 . S
C2899 C2921 1.432 . S
C2900 C2899 1.373 . S
C2900 C2901 1.339 . S
C2900 C2903 1.530 . S
C2901 C2896 1.304 . S
C2901 C2900 1.339 . S
C2901 H2962 0.930 . S
C2902 C2898 1.567 . S
C2902 H2963 0.961 . S
C2902 H2964 0.960 . S
C2902 H2965 0.958 . S
C2903 C2900 1.530 . S
C2903 H2966 0.961 . S
C2903 H2967 0.960 . S
C2903 H2968 0.960 . S
C2904 C2905 1.530 . S
C2904 H2970 0.961 . S
C2904 H2971 0.961 . S
C2904 H2972 0.959 . S
C2905 C2904 1.530 . S
C2905 O2933 1.412 . S
C2905 H2969 0.980 . S
C2906 C2907 1.288 . S
C2906 C2911 1.377 . S
C2906 O2933 1.393 . S
C2907 C2906 1.288 . S
C2907 C2908 1.369 . S
C2907 H2973 0.932 . S
C2908 C2907 1.369 . S
C2908 C2909 1.398 . S
C2908 C2912 1.527 . S
C2909 C2908 1.398 . S
C2909 C2910 1.380 . S
C2909 C2923 1.497 . S
C2910 C2909 1.380 . S
C2910 C2911 1.383 . S
C2910 C2913 1.603 . S
C2911 C2906 1.377 . S
C2911 C2910 1.383 . S
C2911 H2974 0.929 . S
C2912 C2908 1.527 . S
C2912 H2975 0.961 . S
C2912 H2976 0.959 . S
C2912 H2977 0.959 . S
C2913 C2910 1.603 . S
C2913 H2978 0.960 . S
C2913 H2979 0.962 . S
C2913 H2980 0.961 . S
C2914 C2881 1.587 . S
C2914 C2915 1.360 . S
C2914 C2927 1.412 . S
C2915 C2914 1.360 . S
C2915 C2916 1.365 . S
C2915 H2981 0.929 . S
C2916 C2891 1.553 . S
C2916 C2915 1.365 . S
C2916 C2917 1.404 . S
C2917 C2916 1.404 . S
C2917 C2918 1.395 . S
C2917 C2928 1.451 . S
C2918 C2917 1.395 . S
C2918 C2919 1.322 . S
C2918 H2982 0.930 . S
C2919 C2918 1.322 . S
C2919 C2920 1.459 . S
C2919 H2983 0.929 . S
C2920 C2919 1.459 . S
C2920 C2921 1.445 . S
C2920 C2929 1.395 . S
C2921 C2899 1.432 . S
C2921 C2920 1.445 . S
C2921 C2922 1.370 . S
C2922 C2921 1.370 . S
C2922 C2923 1.438 . S
C2922 H2984 0.930 . S
C2923 C2909 1.497 . S
C2923 C2922 1.438 . S
C2923 C2924 1.360 . S
C2924 C2923 1.360 . S
C2924 C2925 1.401 . S
C2924 C2929 1.446 . S
C2925 C2924 1.401 . S
C2925 C2926 1.347 . S
C2925 H2985 0.929 . S
C2926 C2925 1.347 . S
C2926 C2927 1.455 . S
C2926 H2986 0.930 . S
C2927 C2914 1.412 . S
C2927 C2926 1.455 . S
C2927 C2928 1.331 . S
C2928 C2917 1.451 . S
C2928 C2927 1.331 . S
C2928 C2929 1.497 . S
C2929 C2920 1.395 . S
C2929 C2924 1.446 . S
C2929 C2928 1.497 . S
C2930 C2931 1.582 . S
C2930 H2987 0.962 . S
C2930 H2988 0.959 . S
C2930 H2989 0.958 . S
C2931 C2930 1.582 . S
C2931 O2934 1.458 . S
C2931 H2960 0.980 . S
O2932 C2877 1.426 . S
O2932 C2878 1.334 . S
O2933 C2905 1.412 . S
O2933 C2906 1.393 . S
O2934 C2896 1.435 . S
O2934 C2931 1.458 . S
O2935 C2887 1.468 . S
O2935 C2888 1.408 . S
H2936 C2877 0.980 . S
H2937 C2876 0.959 . S
H2938 C2876 0.959 . S
H2939 C2876 0.960 . S
H2940 C2879 0.929 . S
H2941 C2883 0.929 . S
H2942 C2884 0.959 . S
H2943 C2884 0.961 . S
H2944 C2884 0.961 . S
H2945 C2885 0.960 . S
H2946 C2885 0.960 . S
H2947 C2885 0.961 . S
H2948 C2887 0.980 . S
H2949 C2886 0.961 . S
H2950 C2886 0.960 . S
H2951 C2886 0.959 . S
H2952 C2889 0.930 . S
H2953 C2893 0.931 . S
H2954 C2894 0.959 . S
H2955 C2894 0.961 . S
H2956 C2894 0.959 . S
H2957 C2895 0.960 . S
H2958 C2895 0.960 . S
H2959 C2895 0.960 . S
H2960 C2931 0.980 . S
H2961 C2897 0.930 . S
H2962 C2901 0.930 . S
H2963 C2902 0.961 . S
H2964 C2902 0.960 . S
H2965 C2902 0.958 . S
H2966 C2903 0.961 . S
H2967 C2903 0.960 . S
H2968 C2903 0.960 . S
H2969 C2905 0.980 . S
H2970 C2904 0.961 . S
H2971 C2904 0.961 . S
H2972 C2904 0.959 . S
H2973 C2907 0.932 . S
H2974 C2911 0.929 . S
H2975 C2912 0.961 . S
H2976 C2912 0.959 . S
H2977 C2912 0.959 . S
H2978 C2913 0.960 . S
H2979 C2913 0.962 . S
H2980 C2913 0.961 . S
H2981 C2915 0.929 . S
H2982 C2918 0.930 . S
H2983 C2919 0.929 . S
H2984 C2922 0.930 . S
H2985 C2925 0.929 . S
H2986 C2926 0.930 . S
H2987 C2930 0.962 . S
H2988 C2930 0.959 . S
H2989 C2930 0.958 . S
C2990 C2991 1.560 . S
C2990 H3051 0.959 . S
C2990 H3052 0.959 . S
C2990 H3053 0.960 . S
C2991 C2990 1.560 . S
C2991 O3046 1.426 . S
C2991 H3050 0.980 . S
C2992 C2993 1.407 . S
C2992 C2997 1.418 . S
C2992 O3046 1.334 . S
C2993 C2992 1.407 . S
C2993 C2994 1.360 . S
C2993 H3054 0.929 . S
C2994 C2993 1.360 . S
C2994 C2995 1.401 . S
C2994 C2998 1.527 . S
C2995 C2994 1.401 . S
C2995 C2996 1.405 . S
C2995 C3028 1.587 . S
C2996 C2995 1.405 . S
C2996 C2997 1.332 . S
C2996 C2999 1.496 . S
C2997 C2992 1.418 . S
C2997 C2996 1.332 . S
C2997 H3055 0.929 . S
C2998 C2994 1.527 . S
C2998 H3056 0.959 . S
C2998 H3057 0.961 . S
C2998 H3058 0.961 . S
C2999 C2996 1.496 . S
C2999 H3059 0.960 . S
C2999 H3060 0.960 . S
C2999 H3061 0.961 . S
C3000 C3001 1.517 . S
C3000 H3063 0.961 . S
C3000 H3064 0.960 . S
C3000 H3065 0.959 . S
C3001 C3000 1.517 . S
C3001 O3049 1.468 . S
C3001 H3062 0.980 . S
C3002 C3003 1.349 . S
C3002 C3007 1.367 . S
C3002 O3049 1.408 . S
C3003 C3002 1.349 . S
C3003 C3004 1.407 . S
C3003 H3066 0.930 . S
C3004 C3003 1.407 . S
C3004 C3005 1.449 . S
C3004 C3008 1.535 . S
C3005 C3004 1.449 . S
C3005 C3006 1.384 . S
C3005 C3030 1.553 . S
C3006 C3005 1.384 . S
C3006 C3007 1.364 . S
C3006 C3009 1.450 . S
C3007 C3002 1.367 . S
C3007 C3006 1.364 . S
C3007 H3067 0.931 . S
C3008 C3004 1.535 . S
C3008 H3068 0.959 . S
C3008 H3069 0.961 . S
C3008 H3070 0.959 . S
C3009 C3006 1.450 . S
C3009 H3071 0.960 . S
C3009 H3072 0.960 . S
C3009 H3073 0.960 . S
C3010 C3011 1.309 . S
C3010 C3015 1.304 . S
C3010 O3048 1.435 . S
C3011 C3010 1.309 . S
C3011 C3012 1.476 . S
C3011 H3075 0.930 . S
C3012 C3011 1.476 . S
C3012 C3013 1.400 . S
C3012 C3016 1.567 . S
C3013 C3012 1.400 . S
C3013 C3014 1.373 . S
C3013 C3035 1.432 . S
C3014 C3013 1.373 . S
C3014 C3015 1.339 . S
C3014 C3017 1.530 . S
C3015 C3010 1.304 . S
C3015 C3014 1.339 . S
C3015 H3076 0.930 . S
C3016 C3012 1.567 . S
C3016 H3077 0.961 . S
C3016 H3078 0.960 . S
C3016 H3079 0.958 . S
C3017 C3014 1.530 . S
C3017 H3080 0.961 . S
C3017 H3081 0.960 . S
C3017 H3082 0.960 . S
C3018 C3019 1.530 . S
C3018 H3084 0.961 . S
C3018 H3085 0.961 . S
C3018 H3086 0.959 . S
C3019 C3018 1.530 . S
C3019 O3047 1.412 . S
C3019 H3083 0.980 . S
C3020 C3021 1.288 . S
C3020 C3025 1.377 . S
C3020 O3047 1.393 . S
C3021 C3020 1.288 . S
C3021 C3022 1.369 . S
C3021 H3087 0.932 . S
C3022 C3021 1.369 . S
C3022 C3023 1.398 . S
C3022 C3026 1.527 . S
C3023 C3022 1.398 . S
C3023 C3024 1.380 . S
C3023 C3037 1.497 . S
C3024 C3023 1.380 . S
C3024 C3025 1.383 . S
C3024 C3027 1.603 . S
C3025 C3020 1.377 . S
C3025 C3024 1.383 . S
C3025 H3088 0.929 . S
C3026 C3022 1.527 . S
C3026 H3089 0.961 . S
C3026 H3090 0.959 . S
C3026 H3091 0.959 . S
C3027 C3024 1.603 . S
C3027 H3092 0.960 . S
C3027 H3093 0.962 . S
C3027 H3094 0.961 . S
C3028 C2995 1.587 . S
C3028 C3029 1.360 . S
C3028 C3041 1.412 . S
C3029 C3028 1.360 . S
C3029 C3030 1.365 . S
C3029 H3095 0.929 . S
C3030 C3005 1.553 . S
C3030 C3029 1.365 . S
C3030 C3031 1.404 . S
C3031 C3030 1.404 . S
C3031 C3032 1.395 . S
C3031 C3042 1.451 . S
C3032 C3031 1.395 . S
C3032 C3033 1.322 . S
C3032 H3096 0.930 . S
C3033 C3032 1.322 . S
C3033 C3034 1.459 . S
C3033 H3097 0.929 . S
C3034 C3033 1.459 . S
C3034 C3035 1.445 . S
C3034 C3043 1.395 . S
C3035 C3013 1.432 . S
C3035 C3034 1.445 . S
C3035 C3036 1.370 . S
C3036 C3035 1.370 . S
C3036 C3037 1.438 . S
C3036 H3098 0.930 . S
C3037 C3023 1.497 . S
C3037 C3036 1.438 . S
C3037 C3038 1.360 . S
C3038 C3037 1.360 . S
C3038 C3039 1.401 . S
C3038 C3043 1.446 . S
C3039 C3038 1.401 . S
C3039 C3040 1.347 . S
C3039 H3099 0.929 . S
C3040 C3039 1.347 . S
C3040 C3041 1.455 . S
C3040 H3100 0.930 . S
C3041 C3028 1.412 . S
C3041 C3040 1.455 . S
C3041 C3042 1.331 . S
C3042 C3031 1.451 . S
C3042 C3041 1.331 . S
C3042 C3043 1.497 . S
C3043 C3034 1.395 . S
C3043 C3038 1.446 . S
C3043 C3042 1.497 . S
C3044 C3045 1.582 . S
C3044 H3101 0.962 . S
C3044 H3102 0.959 . S
C3044 H3103 0.958 . S
C3045 C3044 1.582 . S
C3045 O3048 1.458 . S
C3045 H3074 0.980 . S
O3046 C2991 1.426 . S
O3046 C2992 1.334 . S
O3047 C3019 1.412 . S
O3047 C3020 1.393 . S
O3048 C3010 1.435 . S
O3048 C3045 1.458 . S
O3049 C3001 1.468 . S
O3049 C3002 1.408 . S
H3050 C2991 0.980 . S
H3051 C2990 0.959 . S
H3052 C2990 0.959 . S
H3053 C2990 0.960 . S
H3054 C2993 0.929 . S
H3055 C2997 0.929 . S
H3056 C2998 0.959 . S
H3057 C2998 0.961 . S
H3058 C2998 0.961 . S
H3059 C2999 0.960 . S
H3060 C2999 0.960 . S
H3061 C2999 0.961 . S
H3062 C3001 0.980 . S
H3063 C3000 0.961 . S
H3064 C3000 0.960 . S
H3065 C3000 0.959 . S
H3066 C3003 0.930 . S
H3067 C3007 0.931 . S
H3068 C3008 0.959 . S
H3069 C3008 0.961 . S
H3070 C3008 0.959 . S
H3071 C3009 0.960 . S
H3072 C3009 0.960 . S
H3073 C3009 0.960 . S
H3074 C3045 0.980 . S
H3075 C3011 0.930 . S
H3076 C3015 0.930 . S
H3077 C3016 0.961 . S
H3078 C3016 0.960 . S
H3079 C3016 0.958 . S
H3080 C3017 0.961 . S
H3081 C3017 0.960 . S
H3082 C3017 0.960 . S
H3083 C3019 0.980 . S
H3084 C3018 0.961 . S
H3085 C3018 0.961 . S
H3086 C3018 0.959 . S
H3087 C3021 0.932 . S
H3088 C3025 0.929 . S
H3089 C3026 0.961 . S
H3090 C3026 0.959 . S
H3091 C3026 0.959 . S
H3092 C3027 0.960 . S
H3093 C3027 0.962 . S
H3094 C3027 0.961 . S
H3095 C3029 0.929 . S
H3096 C3032 0.930 . S
H3097 C3033 0.929 . S
H3098 C3036 0.930 . S
H3099 C3039 0.929 . S
H3100 C3040 0.930 . S
H3101 C3044 0.962 . S
H3102 C3044 0.959 . S
H3103 C3044 0.958 . S
C3104 C3105 1.560 . S
C3104 H3165 0.959 . S
C3104 H3166 0.959 . S
C3104 H3167 0.960 . S
C3105 C3104 1.560 . S
C3105 O3160 1.426 . S
C3105 H3164 0.980 . S
C3106 C3107 1.407 . S
C3106 C3111 1.418 . S
C3106 O3160 1.334 . S
C3107 C3106 1.407 . S
C3107 C3108 1.360 . S
C3107 H3168 0.929 . S
C3108 C3107 1.360 . S
C3108 C3109 1.401 . S
C3108 C3112 1.527 . S
C3109 C3108 1.401 . S
C3109 C3110 1.405 . S
C3109 C3142 1.587 . S
C3110 C3109 1.405 . S
C3110 C3111 1.332 . S
C3110 C3113 1.496 . S
C3111 C3106 1.418 . S
C3111 C3110 1.332 . S
C3111 H3169 0.929 . S
C3112 C3108 1.527 . S
C3112 H3170 0.959 . S
C3112 H3171 0.961 . S
C3112 H3172 0.961 . S
C3113 C3110 1.496 . S
C3113 H3173 0.960 . S
C3113 H3174 0.960 . S
C3113 H3175 0.961 . S
C3114 C3115 1.517 . S
C3114 H3177 0.961 . S
C3114 H3178 0.960 . S
C3114 H3179 0.959 . S
C3115 C3114 1.517 . S
C3115 O3163 1.468 . S
C3115 H3176 0.980 . S
C3116 C3117 1.349 . S
C3116 C3121 1.367 . S
C3116 O3163 1.408 . S
C3117 C3116 1.349 . S
C3117 C3118 1.407 . S
C3117 H3180 0.930 . S
C3118 C3117 1.407 . S
C3118 C3119 1.449 . S
C3118 C3122 1.535 . S
C3119 C3118 1.449 . S
C3119 C3120 1.384 . S
C3119 C3144 1.553 . S
C3120 C3119 1.384 . S
C3120 C3121 1.364 . S
C3120 C3123 1.450 . S
C3121 C3116 1.367 . S
C3121 C3120 1.364 . S
C3121 H3181 0.931 . S
C3122 C3118 1.535 . S
C3122 H3182 0.959 . S
C3122 H3183 0.961 . S
C3122 H3184 0.959 . S
C3123 C3120 1.450 . S
C3123 H3185 0.960 . S
C3123 H3186 0.960 . S
C3123 H3187 0.960 . S
C3124 C3125 1.309 . S
C3124 C3129 1.304 . S
C3124 O3162 1.435 . S
C3125 C3124 1.309 . S
C3125 C3126 1.476 . S
C3125 H3189 0.930 . S
C3126 C3125 1.476 . S
C3126 C3127 1.400 . S
C3126 C3130 1.567 . S
C3127 C3126 1.400 . S
C3127 C3128 1.373 . S
C3127 C3149 1.432 . S
C3128 C3127 1.373 . S
C3128 C3129 1.339 . S
C3128 C3131 1.530 . S
C3129 C3124 1.304 . S
C3129 C3128 1.339 . S
C3129 H3190 0.930 . S
C3130 C3126 1.567 . S
C3130 H3191 0.961 . S
C3130 H3192 0.960 . S
C3130 H3193 0.958 . S
C3131 C3128 1.530 . S
C3131 H3194 0.961 . S
C3131 H3195 0.960 . S
C3131 H3196 0.960 . S
C3132 C3133 1.530 . S
C3132 H3198 0.961 . S
C3132 H3199 0.961 . S
C3132 H3200 0.959 . S
C3133 C3132 1.530 . S
C3133 O3161 1.412 . S
C3133 H3197 0.980 . S
C3134 C3135 1.288 . S
C3134 C3139 1.377 . S
C3134 O3161 1.393 . S
C3135 C3134 1.288 . S
C3135 C3136 1.369 . S
C3135 H3201 0.932 . S
C3136 C3135 1.369 . S
C3136 C3137 1.398 . S
C3136 C3140 1.527 . S
C3137 C3136 1.398 . S
C3137 C3138 1.380 . S
C3137 C3151 1.497 . S
C3138 C3137 1.380 . S
C3138 C3139 1.383 . S
C3138 C3141 1.603 . S
C3139 C3134 1.377 . S
C3139 C3138 1.383 . S
C3139 H3202 0.929 . S
C3140 C3136 1.527 . S
C3140 H3203 0.961 . S
C3140 H3204 0.959 . S
C3140 H3205 0.959 . S
C3141 C3138 1.603 . S
C3141 H3206 0.960 . S
C3141 H3207 0.962 . S
C3141 H3208 0.961 . S
C3142 C3109 1.587 . S
C3142 C3143 1.360 . S
C3142 C3155 1.412 . S
C3143 C3142 1.360 . S
C3143 C3144 1.365 . S
C3143 H3209 0.929 . S
C3144 C3119 1.553 . S
C3144 C3143 1.365 . S
C3144 C3145 1.404 . S
C3145 C3144 1.404 . S
C3145 C3146 1.395 . S
C3145 C3156 1.451 . S
C3146 C3145 1.395 . S
C3146 C3147 1.322 . S
C3146 H3210 0.930 . S
C3147 C3146 1.322 . S
C3147 C3148 1.459 . S
C3147 H3211 0.929 . S
C3148 C3147 1.459 . S
C3148 C3149 1.445 . S
C3148 C3157 1.395 . S
C3149 C3127 1.432 . S
C3149 C3148 1.445 . S
C3149 C3150 1.370 . S
C3150 C3149 1.370 . S
C3150 C3151 1.438 . S
C3150 H3212 0.930 . S
C3151 C3137 1.497 . S
C3151 C3150 1.438 . S
C3151 C3152 1.360 . S
C3152 C3151 1.360 . S
C3152 C3153 1.401 . S
C3152 C3157 1.446 . S
C3153 C3152 1.401 . S
C3153 C3154 1.347 . S
C3153 H3213 0.929 . S
C3154 C3153 1.347 . S
C3154 C3155 1.455 . S
C3154 H3214 0.930 . S
C3155 C3142 1.412 . S
C3155 C3154 1.455 . S
C3155 C3156 1.331 . S
C3156 C3145 1.451 . S
C3156 C3155 1.331 . S
C3156 C3157 1.497 . S
C3157 C3148 1.395 . S
C3157 C3152 1.446 . S
C3157 C3156 1.497 . S
C3158 C3159 1.582 . S
C3158 H3215 0.962 . S
C3158 H3216 0.959 . S
C3158 H3217 0.958 . S
C3159 C3158 1.582 . S
C3159 O3162 1.458 . S
C3159 H3188 0.980 . S
O3160 C3105 1.426 . S
O3160 C3106 1.334 . S
O3161 C3133 1.412 . S
O3161 C3134 1.393 . S
O3162 C3124 1.435 . S
O3162 C3159 1.458 . S
O3163 C3115 1.468 . S
O3163 C3116 1.408 . S
H3164 C3105 0.980 . S
H3165 C3104 0.959 . S
H3166 C3104 0.959 . S
H3167 C3104 0.960 . S
H3168 C3107 0.929 . S
H3169 C3111 0.929 . S
H3170 C3112 0.959 . S
H3171 C3112 0.961 . S
H3172 C3112 0.961 . S
H3173 C3113 0.960 . S
H3174 C3113 0.960 . S
H3175 C3113 0.961 . S
H3176 C3115 0.980 . S
H3177 C3114 0.961 . S
H3178 C3114 0.960 . S
H3179 C3114 0.959 . S
H3180 C3117 0.930 . S
H3181 C3121 0.931 . S
H3182 C3122 0.959 . S
H3183 C3122 0.961 . S
H3184 C3122 0.959 . S
H3185 C3123 0.960 . S
H3186 C3123 0.960 . S
H3187 C3123 0.960 . S
H3188 C3159 0.980 . S
H3189 C3125 0.930 . S
H3190 C3129 0.930 . S
H3191 C3130 0.961 . S
H3192 C3130 0.960 . S
H3193 C3130 0.958 . S
H3194 C3131 0.961 . S
H3195 C3131 0.960 . S
H3196 C3131 0.960 . S
H3197 C3133 0.980 . S
H3198 C3132 0.961 . S
H3199 C3132 0.961 . S
H3200 C3132 0.959 . S
H3201 C3135 0.932 . S
H3202 C3139 0.929 . S
H3203 C3140 0.961 . S
H3204 C3140 0.959 . S
H3205 C3140 0.959 . S
H3206 C3141 0.960 . S
H3207 C3141 0.962 . S
H3208 C3141 0.961 . S
H3209 C3143 0.929 . S
H3210 C3146 0.930 . S
H3211 C3147 0.929 . S
H3212 C3150 0.930 . S
H3213 C3153 0.929 . S
H3214 C3154 0.930 . S
H3215 C3158 0.962 . S
H3216 C3158 0.959 . S
H3217 C3158 0.958 . S
C3218 C3219 1.560 . S
C3218 H3279 0.959 . S
C3218 H3280 0.959 . S
C3218 H3281 0.960 . S
C3219 C3218 1.560 . S
C3219 O3274 1.426 . S
C3219 H3278 0.980 . S
C3220 C3221 1.407 . S
C3220 C3225 1.418 . S
C3220 O3274 1.334 . S
C3221 C3220 1.407 . S
C3221 C3222 1.360 . S
C3221 H3282 0.929 . S
C3222 C3221 1.360 . S
C3222 C3223 1.401 . S
C3222 C3226 1.527 . S
C3223 C3222 1.401 . S
C3223 C3224 1.405 . S
C3223 C3256 1.587 . S
C3224 C3223 1.405 . S
C3224 C3225 1.332 . S
C3224 C3227 1.496 . S
C3225 C3220 1.418 . S
C3225 C3224 1.332 . S
C3225 H3283 0.929 . S
C3226 C3222 1.527 . S
C3226 H3284 0.959 . S
C3226 H3285 0.961 . S
C3226 H3286 0.961 . S
C3227 C3224 1.496 . S
C3227 H3287 0.960 . S
C3227 H3288 0.960 . S
C3227 H3289 0.961 . S
C3228 C3229 1.517 . S
C3228 H3291 0.961 . S
C3228 H3292 0.960 . S
C3228 H3293 0.959 . S
C3229 C3228 1.517 . S
C3229 O3277 1.468 . S
C3229 H3290 0.980 . S
C3230 C3231 1.349 . S
C3230 C3235 1.367 . S
C3230 O3277 1.408 . S
C3231 C3230 1.349 . S
C3231 C3232 1.407 . S
C3231 H3294 0.930 . S
C3232 C3231 1.407 . S
C3232 C3233 1.449 . S
C3232 C3236 1.535 . S
C3233 C3232 1.449 . S
C3233 C3234 1.384 . S
C3233 C3258 1.553 . S
C3234 C3233 1.384 . S
C3234 C3235 1.364 . S
C3234 C3237 1.450 . S
C3235 C3230 1.367 . S
C3235 C3234 1.364 . S
C3235 H3295 0.931 . S
C3236 C3232 1.535 . S
C3236 H3296 0.959 . S
C3236 H3297 0.961 . S
C3236 H3298 0.959 . S
C3237 C3234 1.450 . S
C3237 H3299 0.960 . S
C3237 H3300 0.960 . S
C3237 H3301 0.960 . S
C3238 C3239 1.309 . S
C3238 C3243 1.304 . S
C3238 O3276 1.435 . S
C3239 C3238 1.309 . S
C3239 C3240 1.476 . S
C3239 H3303 0.930 . S
C3240 C3239 1.476 . S
C3240 C3241 1.400 . S
C3240 C3244 1.567 . S
C3241 C3240 1.400 . S
C3241 C3242 1.373 . S
C3241 C3263 1.432 . S
C3242 C3241 1.373 . S
C3242 C3243 1.339 . S
C3242 C3245 1.530 . S
C3243 C3238 1.304 . S
C3243 C3242 1.339 . S
C3243 H3304 0.930 . S
C3244 C3240 1.567 . S
C3244 H3305 0.961 . S
C3244 H3306 0.960 . S
C3244 H3307 0.958 . S
C3245 C3242 1.530 . S
C3245 H3308 0.961 . S
C3245 H3309 0.960 . S
C3245 H3310 0.960 . S
C3246 C3247 1.530 . S
C3246 H3312 0.961 . S
C3246 H3313 0.961 . S
C3246 H3314 0.959 . S
C3247 C3246 1.530 . S
C3247 O3275 1.412 . S
C3247 H3311 0.980 . S
C3248 C3249 1.288 . S
C3248 C3253 1.377 . S
C3248 O3275 1.393 . S
C3249 C3248 1.288 . S
C3249 C3250 1.369 . S
C3249 H3315 0.932 . S
C3250 C3249 1.369 . S
C3250 C3251 1.398 . S
C3250 C3254 1.527 . S
C3251 C3250 1.398 . S
C3251 C3252 1.380 . S
C3251 C3265 1.497 . S
C3252 C3251 1.380 . S
C3252 C3253 1.383 . S
C3252 C3255 1.603 . S
C3253 C3248 1.377 . S
C3253 C3252 1.383 . S
C3253 H3316 0.929 . S
C3254 C3250 1.527 . S
C3254 H3317 0.961 . S
C3254 H3318 0.959 . S
C3254 H3319 0.959 . S
C3255 C3252 1.603 . S
C3255 H3320 0.960 . S
C3255 H3321 0.962 . S
C3255 H3322 0.961 . S
C3256 C3223 1.587 . S
C3256 C3257 1.360 . S
C3256 C3269 1.412 . S
C3257 C3256 1.360 . S
C3257 C3258 1.365 . S
C3257 H3323 0.929 . S
C3258 C3233 1.553 . S
C3258 C3257 1.365 . S
C3258 C3259 1.404 . S
C3259 C3258 1.404 . S
C3259 C3260 1.395 . S
C3259 C3270 1.451 . S
C3260 C3259 1.395 . S
C3260 C3261 1.322 . S
C3260 H3324 0.930 . S
C3261 C3260 1.322 . S
C3261 C3262 1.459 . S
C3261 H3325 0.929 . S
C3262 C3261 1.459 . S
C3262 C3263 1.445 . S
C3262 C3271 1.395 . S
C3263 C3241 1.432 . S
C3263 C3262 1.445 . S
C3263 C3264 1.370 . S
C3264 C3263 1.370 . S
C3264 C3265 1.438 . S
C3264 H3326 0.930 . S
C3265 C3251 1.497 . S
C3265 C3264 1.438 . S
C3265 C3266 1.360 . S
C3266 C3265 1.360 . S
C3266 C3267 1.401 . S
C3266 C3271 1.446 . S
C3267 C3266 1.401 . S
C3267 C3268 1.347 . S
C3267 H3327 0.929 . S
C3268 C3267 1.347 . S
C3268 C3269 1.455 . S
C3268 H3328 0.930 . S
C3269 C3256 1.412 . S
C3269 C3268 1.455 . S
C3269 C3270 1.331 . S
C3270 C3259 1.451 . S
C3270 C3269 1.331 . S
C3270 C3271 1.497 . S
C3271 C3262 1.395 . S
C3271 C3266 1.446 . S
C3271 C3270 1.497 . S
C3272 C3273 1.582 . S
C3272 H3329 0.962 . S
C3272 H3330 0.959 . S
C3272 H3331 0.958 . S
C3273 C3272 1.582 . S
C3273 O3276 1.458 . S
C3273 H3302 0.980 . S
O3274 C3219 1.426 . S
O3274 C3220 1.334 . S
O3275 C3247 1.412 . S
O3275 C3248 1.393 . S
O3276 C3238 1.435 . S
O3276 C3273 1.458 . S
O3277 C3229 1.468 . S
O3277 C3230 1.408 . S
H3278 C3219 0.980 . S
H3279 C3218 0.959 . S
H3280 C3218 0.959 . S
H3281 C3218 0.960 . S
H3282 C3221 0.929 . S
H3283 C3225 0.929 . S
H3284 C3226 0.959 . S
H3285 C3226 0.961 . S
H3286 C3226 0.961 . S
H3287 C3227 0.960 . S
H3288 C3227 0.960 . S
H3289 C3227 0.961 . S
H3290 C3229 0.980 . S
H3291 C3228 0.961 . S
H3292 C3228 0.960 . S
H3293 C3228 0.959 . S
H3294 C3231 0.930 . S
H3295 C3235 0.931 . S
H3296 C3236 0.959 . S
H3297 C3236 0.961 . S
H3298 C3236 0.959 . S
H3299 C3237 0.960 . S
H3300 C3237 0.960 . S
H3301 C3237 0.960 . S
H3302 C3273 0.980 . S
H3303 C3239 0.930 . S
H3304 C3243 0.930 . S
H3305 C3244 0.961 . S
H3306 C3244 0.960 . S
H3307 C3244 0.958 . S
H3308 C3245 0.961 . S
H3309 C3245 0.960 . S
H3310 C3245 0.960 . S
H3311 C3247 0.980 . S
H3312 C3246 0.961 . S
H3313 C3246 0.961 . S
H3314 C3246 0.959 . S
H3315 C3249 0.932 . S
H3316 C3253 0.929 . S
H3317 C3254 0.961 . S
H3318 C3254 0.959 . S
H3319 C3254 0.959 . S
H3320 C3255 0.960 . S
H3321 C3255 0.962 . S
H3322 C3255 0.961 . S
H3323 C3257 0.929 . S
H3324 C3260 0.930 . S
H3325 C3261 0.929 . S
H3326 C3264 0.930 . S
H3327 C3267 0.929 . S
H3328 C3268 0.930 . S
H3329 C3272 0.962 . S
H3330 C3272 0.959 . S
H3331 C3272 0.958 . S
C3332 C3333 1.560 . S
C3332 H3393 0.959 . S
C3332 H3394 0.959 . S
C3332 H3395 0.960 . S
C3333 C3332 1.560 . S
C3333 O3388 1.426 . S
C3333 H3392 0.980 . S
C3334 C3335 1.407 . S
C3334 C3339 1.418 . S
C3334 O3388 1.334 . S
C3335 C3334 1.407 . S
C3335 C3336 1.360 . S
C3335 H3396 0.929 . S
C3336 C3335 1.360 . S
C3336 C3337 1.401 . S
C3336 C3340 1.527 . S
C3337 C3336 1.401 . S
C3337 C3338 1.405 . S
C3337 C3370 1.587 . S
C3338 C3337 1.405 . S
C3338 C3339 1.332 . S
C3338 C3341 1.496 . S
C3339 C3334 1.418 . S
C3339 C3338 1.332 . S
C3339 H3397 0.929 . S
C3340 C3336 1.527 . S
C3340 H3398 0.959 . S
C3340 H3399 0.961 . S
C3340 H3400 0.961 . S
C3341 C3338 1.496 . S
C3341 H3401 0.960 . S
C3341 H3402 0.960 . S
C3341 H3403 0.961 . S
C3342 C3343 1.517 . S
C3342 H3405 0.961 . S
C3342 H3406 0.960 . S
C3342 H3407 0.959 . S
C3343 C3342 1.517 . S
C3343 O3391 1.468 . S
C3343 H3404 0.980 . S
C3344 C3345 1.349 . S
C3344 C3349 1.367 . S
C3344 O3391 1.408 . S
C3345 C3344 1.349 . S
C3345 C3346 1.407 . S
C3345 H3408 0.930 . S
C3346 C3345 1.407 . S
C3346 C3347 1.449 . S
C3346 C3350 1.535 . S
C3347 C3346 1.449 . S
C3347 C3348 1.384 . S
C3347 C3372 1.553 . S
C3348 C3347 1.384 . S
C3348 C3349 1.364 . S
C3348 C3351 1.450 . S
C3349 C3344 1.367 . S
C3349 C3348 1.364 . S
C3349 H3409 0.931 . S
C3350 C3346 1.535 . S
C3350 H3410 0.959 . S
C3350 H3411 0.961 . S
C3350 H3412 0.959 . S
C3351 C3348 1.450 . S
C3351 H3413 0.960 . S
C3351 H3414 0.960 . S
C3351 H3415 0.960 . S
C3352 C3353 1.309 . S
C3352 C3357 1.304 . S
C3352 O3390 1.435 . S
C3353 C3352 1.309 . S
C3353 C3354 1.476 . S
C3353 H3417 0.930 . S
C3354 C3353 1.476 . S
C3354 C3355 1.400 . S
C3354 C3358 1.567 . S
C3355 C3354 1.400 . S
C3355 C3356 1.373 . S
C3355 C3377 1.432 . S
C3356 C3355 1.373 . S
C3356 C3357 1.339 . S
C3356 C3359 1.530 . S
C3357 C3352 1.304 . S
C3357 C3356 1.339 . S
C3357 H3418 0.930 . S
C3358 C3354 1.567 . S
C3358 H3419 0.961 . S
C3358 H3420 0.960 . S
C3358 H3421 0.958 . S
C3359 C3356 1.530 . S
C3359 H3422 0.961 . S
C3359 H3423 0.960 . S
C3359 H3424 0.960 . S
C3360 C3361 1.530 . S
C3360 H3426 0.961 . S
C3360 H3427 0.961 . S
C3360 H3428 0.959 . S
C3361 C3360 1.530 . S
C3361 O3389 1.412 . S
C3361 H3425 0.980 . S
C3362 C3363 1.288 . S
C3362 C3367 1.377 . S
C3362 O3389 1.393 . S
C3363 C3362 1.288 . S
C3363 C3364 1.369 . S
C3363 H3429 0.932 . S
C3364 C3363 1.369 . S
C3364 C3365 1.398 . S
C3364 C3368 1.527 . S
C3365 C3364 1.398 . S
C3365 C3366 1.380 . S
C3365 C3379 1.497 . S
C3366 C3365 1.380 . S
C3366 C3367 1.383 . S
C3366 C3369 1.603 . S
C3367 C3362 1.377 . S
C3367 C3366 1.383 . S
C3367 H3430 0.929 . S
C3368 C3364 1.527 . S
C3368 H3431 0.961 . S
C3368 H3432 0.959 . S
C3368 H3433 0.959 . S
C3369 C3366 1.603 . S
C3369 H3434 0.960 . S
C3369 H3435 0.962 . S
C3369 H3436 0.961 . S
C3370 C3337 1.587 . S
C3370 C3371 1.360 . S
C3370 C3383 1.412 . S
C3371 C3370 1.360 . S
C3371 C3372 1.365 . S
C3371 H3437 0.929 . S
C3372 C3347 1.553 . S
C3372 C3371 1.365 . S
C3372 C3373 1.404 . S
C3373 C3372 1.404 . S
C3373 C3374 1.395 . S
C3373 C3384 1.451 . S
C3374 C3373 1.395 . S
C3374 C3375 1.322 . S
C3374 H3438 0.930 . S
C3375 C3374 1.322 . S
C3375 C3376 1.459 . S
C3375 H3439 0.929 . S
C3376 C3375 1.459 . S
C3376 C3377 1.445 . S
C3376 C3385 1.395 . S
C3377 C3355 1.432 . S
C3377 C3376 1.445 . S
C3377 C3378 1.370 . S
C3378 C3377 1.370 . S
C3378 C3379 1.438 . S
C3378 H3440 0.930 . S
C3379 C3365 1.497 . S
C3379 C3378 1.438 . S
C3379 C3380 1.360 . S
C3380 C3379 1.360 . S
C3380 C3381 1.401 . S
C3380 C3385 1.446 . S
C3381 C3380 1.401 . S
C3381 C3382 1.347 . S
C3381 H3441 0.929 . S
C3382 C3381 1.347 . S
C3382 C3383 1.455 . S
C3382 H3442 0.930 . S
C3383 C3370 1.412 . S
C3383 C3382 1.455 . S
C3383 C3384 1.331 . S
C3384 C3373 1.451 . S
C3384 C3383 1.331 . S
C3384 C3385 1.497 . S
C3385 C3376 1.395 . S
C3385 C3380 1.446 . S
C3385 C3384 1.497 . S
C3386 C3387 1.582 . S
C3386 H3443 0.962 . S
C3386 H3444 0.959 . S
C3386 H3445 0.958 . S
C3387 C3386 1.582 . S
C3387 O3390 1.458 . S
C3387 H3416 0.980 . S
O3388 C3333 1.426 . S
O3388 C3334 1.334 . S
O3389 C3361 1.412 . S
O3389 C3362 1.393 . S
O3390 C3352 1.435 . S
O3390 C3387 1.458 . S
O3391 C3343 1.468 . S
O3391 C3344 1.408 . S
H3392 C3333 0.980 . S
H3393 C3332 0.959 . S
H3394 C3332 0.959 . S
H3395 C3332 0.960 . S
H3396 C3335 0.929 . S
H3397 C3339 0.929 . S
H3398 C3340 0.959 . S
H3399 C3340 0.961 . S
H3400 C3340 0.961 . S
H3401 C3341 0.960 . S
H3402 C3341 0.960 . S
H3403 C3341 0.961 . S
H3404 C3343 0.980 . S
H3405 C3342 0.961 . S
H3406 C3342 0.960 . S
H3407 C3342 0.959 . S
H3408 C3345 0.930 . S
H3409 C3349 0.931 . S
H3410 C3350 0.959 . S
H3411 C3350 0.961 . S
H3412 C3350 0.959 . S
H3413 C3351 0.960 . S
H3414 C3351 0.960 . S
H3415 C3351 0.960 . S
H3416 C3387 0.980 . S
H3417 C3353 0.930 . S
H3418 C3357 0.930 . S
H3419 C3358 0.961 . S
H3420 C3358 0.960 . S
H3421 C3358 0.958 . S
H3422 C3359 0.961 . S
H3423 C3359 0.960 . S
H3424 C3359 0.960 . S
H3425 C3361 0.980 . S
H3426 C3360 0.961 . S
H3427 C3360 0.961 . S
H3428 C3360 0.959 . S
H3429 C3363 0.932 . S
H3430 C3367 0.929 . S
H3431 C3368 0.961 . S
H3432 C3368 0.959 . S
H3433 C3368 0.959 . S
H3434 C3369 0.960 . S
H3435 C3369 0.962 . S
H3436 C3369 0.961 . S
H3437 C3371 0.929 . S
H3438 C3374 0.930 . S
H3439 C3375 0.929 . S
H3440 C3378 0.930 . S
H3441 C3381 0.929 . S
H3442 C3382 0.930 . S
H3443 C3386 0.962 . S
H3444 C3386 0.959 . S
H3445 C3386 0.958 . S
C3446 C3447 1.560 . S
C3446 H3507 0.959 . S
C3446 H3508 0.959 . S
C3446 H3509 0.960 . S
C3447 C3446 1.560 . S
C3447 O3502 1.426 . S
C3447 H3506 0.980 . S
C3448 C3449 1.407 . S
C3448 C3453 1.418 . S
C3448 O3502 1.334 . S
C3449 C3448 1.407 . S
C3449 C3450 1.360 . S
C3449 H3510 0.929 . S
C3450 C3449 1.360 . S
C3450 C3451 1.401 . S
C3450 C3454 1.527 . S
C3451 C3450 1.401 . S
C3451 C3452 1.405 . S
C3451 C3484 1.587 . S
C3452 C3451 1.405 . S
C3452 C3453 1.332 . S
C3452 C3455 1.496 . S
C3453 C3448 1.418 . S
C3453 C3452 1.332 . S
C3453 H3511 0.929 . S
C3454 C3450 1.527 . S
C3454 H3512 0.959 . S
C3454 H3513 0.961 . S
C3454 H3514 0.961 . S
C3455 C3452 1.496 . S
C3455 H3515 0.960 . S
C3455 H3516 0.960 . S
C3455 H3517 0.961 . S
C3456 C3457 1.517 . S
C3456 H3519 0.961 . S
C3456 H3520 0.960 . S
C3456 H3521 0.959 . S
C3457 C3456 1.517 . S
C3457 O3505 1.468 . S
C3457 H3518 0.980 . S
C3458 C3459 1.349 . S
C3458 C3463 1.367 . S
C3458 O3505 1.408 . S
C3459 C3458 1.349 . S
C3459 C3460 1.407 . S
C3459 H3522 0.930 . S
C3460 C3459 1.407 . S
C3460 C3461 1.449 . S
C3460 C3464 1.535 . S
C3461 C3460 1.449 . S
C3461 C3462 1.384 . S
C3461 C3486 1.553 . S
C3462 C3461 1.384 . S
C3462 C3463 1.364 . S
C3462 C3465 1.450 . S
C3463 C3458 1.367 . S
C3463 C3462 1.364 . S
C3463 H3523 0.931 . S
C3464 C3460 1.535 . S
C3464 H3524 0.959 . S
C3464 H3525 0.961 . S
C3464 H3526 0.959 . S
C3465 C3462 1.450 . S
C3465 H3527 0.960 . S
C3465 H3528 0.960 . S
C3465 H3529 0.960 . S
C3466 C3467 1.309 . S
C3466 C3471 1.304 . S
C3466 O3504 1.435 . S
C3467 C3466 1.309 . S
C3467 C3468 1.476 . S
C3467 H3531 0.930 . S
C3468 C3467 1.476 . S
C3468 C3469 1.400 . S
C3468 C3472 1.567 . S
C3469 C3468 1.400 . S
C3469 C3470 1.373 . S
C3469 C3491 1.432 . S
C3470 C3469 1.373 . S
C3470 C3471 1.339 . S
C3470 C3473 1.530 . S
C3471 C3466 1.304 . S
C3471 C3470 1.339 . S
C3471 H3532 0.930 . S
C3472 C3468 1.567 . S
C3472 H3533 0.961 . S
C3472 H3534 0.960 . S
C3472 H3535 0.958 . S
C3473 C3470 1.530 . S
C3473 H3536 0.961 . S
C3473 H3537 0.960 . S
C3473 H3538 0.960 . S
C3474 C3475 1.530 . S
C3474 H3540 0.961 . S
C3474 H3541 0.961 . S
C3474 H3542 0.959 . S
C3475 C3474 1.530 . S
C3475 O3503 1.412 . S
C3475 H3539 0.980 . S
C3476 C3477 1.288 . S
C3476 C3481 1.377 . S
C3476 O3503 1.393 . S
C3477 C3476 1.288 . S
C3477 C3478 1.369 . S
C3477 H3543 0.932 . S
C3478 C3477 1.369 . S
C3478 C3479 1.398 . S
C3478 C3482 1.527 . S
C3479 C3478 1.398 . S
C3479 C3480 1.380 . S
C3479 C3493 1.497 . S
C3480 C3479 1.380 . S
C3480 C3481 1.383 . S
C3480 C3483 1.603 . S
C3481 C3476 1.377 . S
C3481 C3480 1.383 . S
C3481 H3544 0.929 . S
C3482 C3478 1.527 . S
C3482 H3545 0.961 . S
C3482 H3546 0.959 . S
C3482 H3547 0.959 . S
C3483 C3480 1.603 . S
C3483 H3548 0.960 . S
C3483 H3549 0.962 . S
C3483 H3550 0.961 . S
C3484 C3451 1.587 . S
C3484 C3485 1.360 . S
C3484 C3497 1.412 . S
C3485 C3484 1.360 . S
C3485 C3486 1.365 . S
C3485 H3551 0.929 . S
C3486 C3461 1.553 . S
C3486 C3485 1.365 . S
C3486 C3487 1.404 . S
C3487 C3486 1.404 . S
C3487 C3488 1.395 . S
C3487 C3498 1.451 . S
C3488 C3487 1.395 . S
C3488 C3489 1.322 . S
C3488 H3552 0.930 . S
C3489 C3488 1.322 . S
C3489 C3490 1.459 . S
C3489 H3553 0.929 . S
C3490 C3489 1.459 . S
C3490 C3491 1.445 . S
C3490 C3499 1.395 . S
C3491 C3469 1.432 . S
C3491 C3490 1.445 . S
C3491 C3492 1.370 . S
C3492 C3491 1.370 . S
C3492 C3493 1.438 . S
C3492 H3554 0.930 . S
C3493 C3479 1.497 . S
C3493 C3492 1.438 . S
C3493 C3494 1.360 . S
C3494 C3493 1.360 . S
C3494 C3495 1.401 . S
C3494 C3499 1.446 . S
C3495 C3494 1.401 . S
C3495 C3496 1.347 . S
C3495 H3555 0.929 . S
C3496 C3495 1.347 . S
C3496 C3497 1.455 . S
C3496 H3556 0.930 . S
C3497 C3484 1.412 . S
C3497 C3496 1.455 . S
C3497 C3498 1.331 . S
C3498 C3487 1.451 . S
C3498 C3497 1.331 . S
C3498 C3499 1.497 . S
C3499 C3490 1.395 . S
C3499 C3494 1.446 . S
C3499 C3498 1.497 . S
C3500 C3501 1.582 . S
C3500 H3557 0.962 . S
C3500 H3558 0.959 . S
C3500 H3559 0.958 . S
C3501 C3500 1.582 . S
C3501 O3504 1.458 . S
C3501 H3530 0.980 . S
O3502 C3447 1.426 . S
O3502 C3448 1.334 . S
O3503 C3475 1.412 . S
O3503 C3476 1.393 . S
O3504 C3466 1.435 . S
O3504 C3501 1.458 . S
O3505 C3457 1.468 . S
O3505 C3458 1.408 . S
H3506 C3447 0.980 . S
H3507 C3446 0.959 . S
H3508 C3446 0.959 . S
H3509 C3446 0.960 . S
H3510 C3449 0.929 . S
H3511 C3453 0.929 . S
H3512 C3454 0.959 . S
H3513 C3454 0.961 . S
H3514 C3454 0.961 . S
H3515 C3455 0.960 . S
H3516 C3455 0.960 . S
H3517 C3455 0.961 . S
H3518 C3457 0.980 . S
H3519 C3456 0.961 . S
H3520 C3456 0.960 . S
H3521 C3456 0.959 . S
H3522 C3459 0.930 . S
H3523 C3463 0.931 . S
H3524 C3464 0.959 . S
H3525 C3464 0.961 . S
H3526 C3464 0.959 . S
H3527 C3465 0.960 . S
H3528 C3465 0.960 . S
H3529 C3465 0.960 . S
H3530 C3501 0.980 . S
H3531 C3467 0.930 . S
H3532 C3471 0.930 . S
H3533 C3472 0.961 . S
H3534 C3472 0.960 . S
H3535 C3472 0.958 . S
H3536 C3473 0.961 . S
H3537 C3473 0.960 . S
H3538 C3473 0.960 . S
H3539 C3475 0.980 . S
H3540 C3474 0.961 . S
H3541 C3474 0.961 . S
H3542 C3474 0.959 . S
H3543 C3477 0.932 . S
H3544 C3481 0.929 . S
H3545 C3482 0.961 . S
H3546 C3482 0.959 . S
H3547 C3482 0.959 . S
H3548 C3483 0.960 . S
H3549 C3483 0.962 . S
H3550 C3483 0.961 . S
H3551 C3485 0.929 . S
H3552 C3488 0.930 . S
H3553 C3489 0.929 . S
H3554 C3492 0.930 . S
H3555 C3495 0.929 . S
H3556 C3496 0.930 . S
H3557 C3500 0.962 . S
H3558 C3500 0.959 . S
H3559 C3500 0.958 . S
C3560 C3561 1.560 . S
C3560 H3621 0.959 . S
C3560 H3622 0.959 . S
C3560 H3623 0.960 . S
C3561 C3560 1.560 . S
C3561 O3616 1.426 . S
C3561 H3620 0.980 . S
C3562 C3563 1.407 . S
C3562 C3567 1.418 . S
C3562 O3616 1.334 . S
C3563 C3562 1.407 . S
C3563 C3564 1.360 . S
C3563 H3624 0.929 . S
C3564 C3563 1.360 . S
C3564 C3565 1.401 . S
C3564 C3568 1.527 . S
C3565 C3564 1.401 . S
C3565 C3566 1.405 . S
C3565 C3598 1.587 . S
C3566 C3565 1.405 . S
C3566 C3567 1.332 . S
C3566 C3569 1.496 . S
C3567 C3562 1.418 . S
C3567 C3566 1.332 . S
C3567 H3625 0.929 . S
C3568 C3564 1.527 . S
C3568 H3626 0.959 . S
C3568 H3627 0.961 . S
C3568 H3628 0.961 . S
C3569 C3566 1.496 . S
C3569 H3629 0.960 . S
C3569 H3630 0.960 . S
C3569 H3631 0.961 . S
C3570 C3571 1.517 . S
C3570 H3633 0.961 . S
C3570 H3634 0.960 . S
C3570 H3635 0.959 . S
C3571 C3570 1.517 . S
C3571 O3619 1.468 . S
C3571 H3632 0.980 . S
C3572 C3573 1.349 . S
C3572 C3577 1.367 . S
C3572 O3619 1.408 . S
C3573 C3572 1.349 . S
C3573 C3574 1.407 . S
C3573 H3636 0.930 . S
C3574 C3573 1.407 . S
C3574 C3575 1.449 . S
C3574 C3578 1.535 . S
C3575 C3574 1.449 . S
C3575 C3576 1.384 . S
C3575 C3600 1.553 . S
C3576 C3575 1.384 . S
C3576 C3577 1.364 . S
C3576 C3579 1.450 . S
C3577 C3572 1.367 . S
C3577 C3576 1.364 . S
C3577 H3637 0.931 . S
C3578 C3574 1.535 . S
C3578 H3638 0.959 . S
C3578 H3639 0.961 . S
C3578 H3640 0.959 . S
C3579 C3576 1.450 . S
C3579 H3641 0.960 . S
C3579 H3642 0.960 . S
C3579 H3643 0.960 . S
C3580 C3581 1.309 . S
C3580 C3585 1.304 . S
C3580 O3618 1.435 . S
C3581 C3580 1.309 . S
C3581 C3582 1.476 . S
C3581 H3645 0.930 . S
C3582 C3581 1.476 . S
C3582 C3583 1.400 . S
C3582 C3586 1.567 . S
C3583 C3582 1.400 . S
C3583 C3584 1.373 . S
C3583 C3605 1.432 . S
C3584 C3583 1.373 . S
C3584 C3585 1.339 . S
C3584 C3587 1.530 . S
C3585 C3580 1.304 . S
C3585 C3584 1.339 . S
C3585 H3646 0.930 . S
C3586 C3582 1.567 . S
C3586 H3647 0.961 . S
C3586 H3648 0.960 . S
C3586 H3649 0.958 . S
C3587 C3584 1.530 . S
C3587 H3650 0.961 . S
C3587 H3651 0.960 . S
C3587 H3652 0.960 . S
C3588 C3589 1.530 . S
C3588 H3654 0.961 . S
C3588 H3655 0.961 . S
C3588 H3656 0.959 . S
C3589 C3588 1.530 . S
C3589 O3617 1.412 . S
C3589 H3653 0.980 . S
C3590 C3591 1.288 . S
C3590 C3595 1.377 . S
C3590 O3617 1.393 . S
C3591 C3590 1.288 . S
C3591 C3592 1.369 . S
C3591 H3657 0.932 . S
C3592 C3591 1.369 . S
C3592 C3593 1.398 . S
C3592 C3596 1.527 . S
C3593 C3592 1.398 . S
C3593 C3594 1.380 . S
C3593 C3607 1.497 . S
C3594 C3593 1.380 . S
C3594 C3595 1.383 . S
C3594 C3597 1.603 . S
C3595 C3590 1.377 . S
C3595 C3594 1.383 . S
C3595 H3658 0.929 . S
C3596 C3592 1.527 . S
C3596 H3659 0.961 . S
C3596 H3660 0.959 . S
C3596 H3661 0.959 . S
C3597 C3594 1.603 . S
C3597 H3662 0.960 . S
C3597 H3663 0.962 . S
C3597 H3664 0.961 . S
C3598 C3565 1.587 . S
C3598 C3599 1.360 . S
C3598 C3611 1.412 . S
C3599 C3598 1.360 . S
C3599 C3600 1.365 . S
C3599 H3665 0.929 . S
C3600 C3575 1.553 . S
C3600 C3599 1.365 . S
C3600 C3601 1.404 . S
C3601 C3600 1.404 . S
C3601 C3602 1.395 . S
C3601 C3612 1.451 . S
C3602 C3601 1.395 . S
C3602 C3603 1.322 . S
C3602 H3666 0.930 . S
C3603 C3602 1.322 . S
C3603 C3604 1.459 . S
C3603 H3667 0.929 . S
C3604 C3603 1.459 . S
C3604 C3605 1.445 . S
C3604 C3613 1.395 . S
C3605 C3583 1.432 . S
C3605 C3604 1.445 . S
C3605 C3606 1.370 . S
C3606 C3605 1.370 . S
C3606 C3607 1.438 . S
C3606 H3668 0.930 . S
C3607 C3593 1.497 . S
C3607 C3606 1.438 . S
C3607 C3608 1.360 . S
C3608 C3607 1.360 . S
C3608 C3609 1.401 . S
C3608 C3613 1.446 . S
C3609 C3608 1.401 . S
C3609 C3610 1.347 . S
C3609 H3669 0.929 . S
C3610 C3609 1.347 . S
C3610 C3611 1.455 . S
C3610 H3670 0.930 . S
C3611 C3598 1.412 . S
C3611 C3610 1.455 . S
C3611 C3612 1.331 . S
C3612 C3601 1.451 . S
C3612 C3611 1.331 . S
C3612 C3613 1.497 . S
C3613 C3604 1.395 . S
C3613 C3608 1.446 . S
C3613 C3612 1.497 . S
C3614 C3615 1.582 . S
C3614 H3671 0.962 . S
C3614 H3672 0.959 . S
C3614 H3673 0.958 . S
C3615 C3614 1.582 . S
C3615 O3618 1.458 . S
C3615 H3644 0.980 . S
O3616 C3561 1.426 . S
O3616 C3562 1.334 . S
O3617 C3589 1.412 . S
O3617 C3590 1.393 . S
O3618 C3580 1.435 . S
O3618 C3615 1.458 . S
O3619 C3571 1.468 . S
O3619 C3572 1.408 . S
H3620 C3561 0.980 . S
H3621 C3560 0.959 . S
H3622 C3560 0.959 . S
H3623 C3560 0.960 . S
H3624 C3563 0.929 . S
H3625 C3567 0.929 . S
H3626 C3568 0.959 . S
H3627 C3568 0.961 . S
H3628 C3568 0.961 . S
H3629 C3569 0.960 . S
H3630 C3569 0.960 . S
H3631 C3569 0.961 . S
H3632 C3571 0.980 . S
H3633 C3570 0.961 . S
H3634 C3570 0.960 . S
H3635 C3570 0.959 . S
H3636 C3573 0.930 . S
H3637 C3577 0.931 . S
H3638 C3578 0.959 . S
H3639 C3578 0.961 . S
H3640 C3578 0.959 . S
H3641 C3579 0.960 . S
H3642 C3579 0.960 . S
H3643 C3579 0.960 . S
H3644 C3615 0.980 . S
H3645 C3581 0.930 . S
H3646 C3585 0.930 . S
H3647 C3586 0.961 . S
H3648 C3586 0.960 . S
H3649 C3586 0.958 . S
H3650 C3587 0.961 . S
H3651 C3587 0.960 . S
H3652 C3587 0.960 . S
H3653 C3589 0.980 . S
H3654 C3588 0.961 . S
H3655 C3588 0.961 . S
H3656 C3588 0.959 . S
H3657 C3591 0.932 . S
H3658 C3595 0.929 . S
H3659 C3596 0.961 . S
H3660 C3596 0.959 . S
H3661 C3596 0.959 . S
H3662 C3597 0.960 . S
H3663 C3597 0.962 . S
H3664 C3597 0.961 . S
H3665 C3599 0.929 . S
H3666 C3602 0.930 . S
H3667 C3603 0.929 . S
H3668 C3606 0.930 . S
H3669 C3609 0.929 . S
H3670 C3610 0.930 . S
H3671 C3614 0.962 . S
H3672 C3614 0.959 . S
H3673 C3614 0.958 . S
C3674 C3675 1.560 . S
C3674 H3735 0.959 . S
C3674 H3736 0.959 . S
C3674 H3737 0.960 . S
C3675 C3674 1.560 . S
C3675 O3730 1.426 . S
C3675 H3734 0.980 . S
C3676 C3677 1.407 . S
C3676 C3681 1.418 . S
C3676 O3730 1.334 . S
C3677 C3676 1.407 . S
C3677 C3678 1.360 . S
C3677 H3738 0.929 . S
C3678 C3677 1.360 . S
C3678 C3679 1.401 . S
C3678 C3682 1.527 . S
C3679 C3678 1.401 . S
C3679 C3680 1.405 . S
C3679 C3712 1.587 . S
C3680 C3679 1.405 . S
C3680 C3681 1.332 . S
C3680 C3683 1.496 . S
C3681 C3676 1.418 . S
C3681 C3680 1.332 . S
C3681 H3739 0.929 . S
C3682 C3678 1.527 . S
C3682 H3740 0.959 . S
C3682 H3741 0.961 . S
C3682 H3742 0.961 . S
C3683 C3680 1.496 . S
C3683 H3743 0.960 . S
C3683 H3744 0.960 . S
C3683 H3745 0.961 . S
C3684 C3685 1.517 . S
C3684 H3747 0.961 . S
C3684 H3748 0.960 . S
C3684 H3749 0.959 . S
C3685 C3684 1.517 . S
C3685 O3733 1.468 . S
C3685 H3746 0.980 . S
C3686 C3687 1.349 . S
C3686 C3691 1.367 . S
C3686 O3733 1.408 . S
C3687 C3686 1.349 . S
C3687 C3688 1.407 . S
C3687 H3750 0.930 . S
C3688 C3687 1.407 . S
C3688 C3689 1.449 . S
C3688 C3692 1.535 . S
C3689 C3688 1.449 . S
C3689 C3690 1.384 . S
C3689 C3714 1.553 . S
C3690 C3689 1.384 . S
C3690 C3691 1.364 . S
C3690 C3693 1.450 . S
C3691 C3686 1.367 . S
C3691 C3690 1.364 . S
C3691 H3751 0.931 . S
C3692 C3688 1.535 . S
C3692 H3752 0.959 . S
C3692 H3753 0.961 . S
C3692 H3754 0.959 . S
C3693 C3690 1.450 . S
C3693 H3755 0.960 . S
C3693 H3756 0.960 . S
C3693 H3757 0.960 . S
C3694 C3695 1.309 . S
C3694 C3699 1.304 . S
C3694 O3732 1.435 . S
C3695 C3694 1.309 . S
C3695 C3696 1.476 . S
C3695 H3759 0.930 . S
C3696 C3695 1.476 . S
C3696 C3697 1.400 . S
C3696 C3700 1.567 . S
C3697 C3696 1.400 . S
C3697 C3698 1.373 . S
C3697 C3719 1.432 . S
C3698 C3697 1.373 . S
C3698 C3699 1.339 . S
C3698 C3701 1.530 . S
C3699 C3694 1.304 . S
C3699 C3698 1.339 . S
C3699 H3760 0.930 . S
C3700 C3696 1.567 . S
C3700 H3761 0.961 . S
C3700 H3762 0.960 . S
C3700 H3763 0.958 . S
C3701 C3698 1.530 . S
C3701 H3764 0.961 . S
C3701 H3765 0.960 . S
C3701 H3766 0.960 . S
C3702 C3703 1.530 . S
C3702 H3768 0.961 . S
C3702 H3769 0.961 . S
C3702 H3770 0.959 . S
C3703 C3702 1.530 . S
C3703 O3731 1.412 . S
C3703 H3767 0.980 . S
C3704 C3705 1.288 . S
C3704 C3709 1.377 . S
C3704 O3731 1.393 . S
C3705 C3704 1.288 . S
C3705 C3706 1.369 . S
C3705 H3771 0.932 . S
C3706 C3705 1.369 . S
C3706 C3707 1.398 . S
C3706 C3710 1.527 . S
C3707 C3706 1.398 . S
C3707 C3708 1.380 . S
C3707 C3721 1.497 . S
C3708 C3707 1.380 . S
C3708 C3709 1.383 . S
C3708 C3711 1.603 . S
C3709 C3704 1.377 . S
C3709 C3708 1.383 . S
C3709 H3772 0.929 . S
C3710 C3706 1.527 . S
C3710 H3773 0.961 . S
C3710 H3774 0.959 . S
C3710 H3775 0.959 . S
C3711 C3708 1.603 . S
C3711 H3776 0.960 . S
C3711 H3777 0.962 . S
C3711 H3778 0.961 . S
C3712 C3679 1.587 . S
C3712 C3713 1.360 . S
C3712 C3725 1.412 . S
C3713 C3712 1.360 . S
C3713 C3714 1.365 . S
C3713 H3779 0.929 . S
C3714 C3689 1.553 . S
C3714 C3713 1.365 . S
C3714 C3715 1.404 . S
C3715 C3714 1.404 . S
C3715 C3716 1.395 . S
C3715 C3726 1.451 . S
C3716 C3715 1.395 . S
C3716 C3717 1.322 . S
C3716 H3780 0.930 . S
C3717 C3716 1.322 . S
C3717 C3718 1.459 . S
C3717 H3781 0.929 . S
C3718 C3717 1.459 . S
C3718 C3719 1.445 . S
C3718 C3727 1.395 . S
C3719 C3697 1.432 . S
C3719 C3718 1.445 . S
C3719 C3720 1.370 . S
C3720 C3719 1.370 . S
C3720 C3721 1.438 . S
C3720 H3782 0.930 . S
C3721 C3707 1.497 . S
C3721 C3720 1.438 . S
C3721 C3722 1.360 . S
C3722 C3721 1.360 . S
C3722 C3723 1.401 . S
C3722 C3727 1.446 . S
C3723 C3722 1.401 . S
C3723 C3724 1.347 . S
C3723 H3783 0.929 . S
C3724 C3723 1.347 . S
C3724 C3725 1.455 . S
C3724 H3784 0.930 . S
C3725 C3712 1.412 . S
C3725 C3724 1.455 . S
C3725 C3726 1.331 . S
C3726 C3715 1.451 . S
C3726 C3725 1.331 . S
C3726 C3727 1.497 . S
C3727 C3718 1.395 . S
C3727 C3722 1.446 . S
C3727 C3726 1.497 . S
C3728 C3729 1.582 . S
C3728 H3785 0.962 . S
C3728 H3786 0.959 . S
C3728 H3787 0.958 . S
C3729 C3728 1.582 . S
C3729 O3732 1.458 . S
C3729 H3758 0.980 . S
O3730 C3675 1.426 . S
O3730 C3676 1.334 . S
O3731 C3703 1.412 . S
O3731 C3704 1.393 . S
O3732 C3694 1.435 . S
O3732 C3729 1.458 . S
O3733 C3685 1.468 . S
O3733 C3686 1.408 . S
H3734 C3675 0.980 . S
H3735 C3674 0.959 . S
H3736 C3674 0.959 . S
H3737 C3674 0.960 . S
H3738 C3677 0.929 . S
H3739 C3681 0.929 . S
H3740 C3682 0.959 . S
H3741 C3682 0.961 . S
H3742 C3682 0.961 . S
H3743 C3683 0.960 . S
H3744 C3683 0.960 . S
H3745 C3683 0.961 . S
H3746 C3685 0.980 . S
H3747 C3684 0.961 . S
H3748 C3684 0.960 . S
H3749 C3684 0.959 . S
H3750 C3687 0.930 . S
H3751 C3691 0.931 . S
H3752 C3692 0.959 . S
H3753 C3692 0.961 . S
H3754 C3692 0.959 . S
H3755 C3693 0.960 . S
H3756 C3693 0.960 . S
H3757 C3693 0.960 . S
H3758 C3729 0.980 . S
H3759 C3695 0.930 . S
H3760 C3699 0.930 . S
H3761 C3700 0.961 . S
H3762 C3700 0.960 . S
H3763 C3700 0.958 . S
H3764 C3701 0.961 . S
H3765 C3701 0.960 . S
H3766 C3701 0.960 . S
H3767 C3703 0.980 . S
H3768 C3702 0.961 . S
H3769 C3702 0.961 . S
H3770 C3702 0.959 . S
H3771 C3705 0.932 . S
H3772 C3709 0.929 . S
H3773 C3710 0.961 . S
H3774 C3710 0.959 . S
H3775 C3710 0.959 . S
H3776 C3711 0.960 . S
H3777 C3711 0.962 . S
H3778 C3711 0.961 . S
H3779 C3713 0.929 . S
H3780 C3716 0.930 . S
H3781 C3717 0.929 . S
H3782 C3720 0.930 . S
H3783 C3723 0.929 . S
H3784 C3724 0.930 . S
H3785 C3728 0.962 . S
H3786 C3728 0.959 . S
H3787 C3728 0.958 . S
C3788 C3789 1.560 . S
C3788 H3849 0.959 . S
C3788 H3850 0.959 . S
C3788 H3851 0.960 . S
C3789 C3788 1.560 . S
C3789 O3844 1.426 . S
C3789 H3848 0.980 . S
C3790 C3791 1.407 . S
C3790 C3795 1.418 . S
C3790 O3844 1.334 . S
C3791 C3790 1.407 . S
C3791 C3792 1.360 . S
C3791 H3852 0.929 . S
C3792 C3791 1.360 . S
C3792 C3793 1.401 . S
C3792 C3796 1.527 . S
C3793 C3792 1.401 . S
C3793 C3794 1.405 . S
C3793 C3826 1.587 . S
C3794 C3793 1.405 . S
C3794 C3795 1.332 . S
C3794 C3797 1.496 . S
C3795 C3790 1.418 . S
C3795 C3794 1.332 . S
C3795 H3853 0.929 . S
C3796 C3792 1.527 . S
C3796 H3854 0.959 . S
C3796 H3855 0.961 . S
C3796 H3856 0.961 . S
C3797 C3794 1.496 . S
C3797 H3857 0.960 . S
C3797 H3858 0.960 . S
C3797 H3859 0.961 . S
C3798 C3799 1.517 . S
C3798 H3861 0.961 . S
C3798 H3862 0.960 . S
C3798 H3863 0.959 . S
C3799 C3798 1.517 . S
C3799 O3847 1.468 . S
C3799 H3860 0.980 . S
C3800 C3801 1.349 . S
C3800 C3805 1.367 . S
C3800 O3847 1.408 . S
C3801 C3800 1.349 . S
C3801 C3802 1.407 . S
C3801 H3864 0.930 . S
C3802 C3801 1.407 . S
C3802 C3803 1.449 . S
C3802 C3806 1.535 . S
C3803 C3802 1.449 . S
C3803 C3804 1.384 . S
C3803 C3828 1.553 . S
C3804 C3803 1.384 . S
C3804 C3805 1.364 . S
C3804 C3807 1.450 . S
C3805 C3800 1.367 . S
C3805 C3804 1.364 . S
C3805 H3865 0.931 . S
C3806 C3802 1.535 . S
C3806 H3866 0.959 . S
C3806 H3867 0.961 . S
C3806 H3868 0.959 . S
C3807 C3804 1.450 . S
C3807 H3869 0.960 . S
C3807 H3870 0.960 . S
C3807 H3871 0.960 . S
C3808 C3809 1.309 . S
C3808 C3813 1.304 . S
C3808 O3846 1.435 . S
C3809 C3808 1.309 . S
C3809 C3810 1.476 . S
C3809 H3873 0.930 . S
C3810 C3809 1.476 . S
C3810 C3811 1.400 . S
C3810 C3814 1.567 . S
C3811 C3810 1.400 . S
C3811 C3812 1.373 . S
C3811 C3833 1.432 . S
C3812 C3811 1.373 . S
C3812 C3813 1.339 . S
C3812 C3815 1.530 . S
C3813 C3808 1.304 . S
C3813 C3812 1.339 . S
C3813 H3874 0.930 . S
C3814 C3810 1.567 . S
C3814 H3875 0.961 . S
C3814 H3876 0.960 . S
C3814 H3877 0.958 . S
C3815 C3812 1.530 . S
C3815 H3878 0.961 . S
C3815 H3879 0.960 . S
C3815 H3880 0.960 . S
C3816 C3817 1.530 . S
C3816 H3882 0.961 . S
C3816 H3883 0.961 . S
C3816 H3884 0.959 . S
C3817 C3816 1.530 . S
C3817 O3845 1.412 . S
C3817 H3881 0.980 . S
C3818 C3819 1.288 . S
C3818 C3823 1.377 . S
C3818 O3845 1.393 . S
C3819 C3818 1.288 . S
C3819 C3820 1.369 . S
C3819 H3885 0.932 . S
C3820 C3819 1.369 . S
C3820 C3821 1.398 . S
C3820 C3824 1.527 . S
C3821 C3820 1.398 . S
C3821 C3822 1.380 . S
C3821 C3835 1.497 . S
C3822 C3821 1.380 . S
C3822 C3823 1.383 . S
C3822 C3825 1.603 . S
C3823 C3818 1.377 . S
C3823 C3822 1.383 . S
C3823 H3886 0.929 . S
C3824 C3820 1.527 . S
C3824 H3887 0.961 . S
C3824 H3888 0.959 . S
C3824 H3889 0.959 . S
C3825 C3822 1.603 . S
C3825 H3890 0.960 . S
C3825 H3891 0.962 . S
C3825 H3892 0.961 . S
C3826 C3793 1.587 . S
C3826 C3827 1.360 . S
C3826 C3839 1.412 . S
C3827 C3826 1.360 . S
C3827 C3828 1.365 . S
C3827 H3893 0.929 . S
C3828 C3803 1.553 . S
C3828 C3827 1.365 . S
C3828 C3829 1.404 . S
C3829 C3828 1.404 . S
C3829 C3830 1.395 . S
C3829 C3840 1.451 . S
C3830 C3829 1.395 . S
C3830 C3831 1.322 . S
C3830 H3894 0.930 . S
C3831 C3830 1.322 . S
C3831 C3832 1.459 . S
C3831 H3895 0.929 . S
C3832 C3831 1.459 . S
C3832 C3833 1.445 . S
C3832 C3841 1.395 . S
C3833 C3811 1.432 . S
C3833 C3832 1.445 . S
C3833 C3834 1.370 . S
C3834 C3833 1.370 . S
C3834 C3835 1.438 . S
C3834 H3896 0.930 . S
C3835 C3821 1.497 . S
C3835 C3834 1.438 . S
C3835 C3836 1.360 . S
C3836 C3835 1.360 . S
C3836 C3837 1.401 . S
C3836 C3841 1.446 . S
C3837 C3836 1.401 . S
C3837 C3838 1.347 . S
C3837 H3897 0.929 . S
C3838 C3837 1.347 . S
C3838 C3839 1.455 . S
C3838 H3898 0.930 . S
C3839 C3826 1.412 . S
C3839 C3838 1.455 . S
C3839 C3840 1.331 . S
C3840 C3829 1.451 . S
C3840 C3839 1.331 . S
C3840 C3841 1.497 . S
C3841 C3832 1.395 . S
C3841 C3836 1.446 . S
C3841 C3840 1.497 . S
C3842 C3843 1.582 . S
C3842 H3899 0.962 . S
C3842 H3900 0.959 . S
C3842 H3901 0.958 . S
C3843 C3842 1.582 . S
C3843 O3846 1.458 . S
C3843 H3872 0.980 . S
O3844 C3789 1.426 . S
O3844 C3790 1.334 . S
O3845 C3817 1.412 . S
O3845 C3818 1.393 . S
O3846 C3808 1.435 . S
O3846 C3843 1.458 . S
O3847 C3799 1.468 . S
O3847 C3800 1.408 . S
H3848 C3789 0.980 . S
H3849 C3788 0.959 . S
H3850 C3788 0.959 . S
H3851 C3788 0.960 . S
H3852 C3791 0.929 . S
H3853 C3795 0.929 . S
H3854 C3796 0.959 . S
H3855 C3796 0.961 . S
H3856 C3796 0.961 . S
H3857 C3797 0.960 . S
H3858 C3797 0.960 . S
H3859 C3797 0.961 . S
H3860 C3799 0.980 . S
H3861 C3798 0.961 . S
H3862 C3798 0.960 . S
H3863 C3798 0.959 . S
H3864 C3801 0.930 . S
H3865 C3805 0.931 . S
H3866 C3806 0.959 . S
H3867 C3806 0.961 . S
H3868 C3806 0.959 . S
H3869 C3807 0.960 . S
H3870 C3807 0.960 . S
H3871 C3807 0.960 . S
H3872 C3843 0.980 . S
H3873 C3809 0.930 . S
H3874 C3813 0.930 . S
H3875 C3814 0.961 . S
H3876 C3814 0.960 . S
H3877 C3814 0.958 . S
H3878 C3815 0.961 . S
H3879 C3815 0.960 . S
H3880 C3815 0.960 . S
H3881 C3817 0.980 . S
H3882 C3816 0.961 . S
H3883 C3816 0.961 . S
H3884 C3816 0.959 . S
H3885 C3819 0.932 . S
H3886 C3823 0.929 . S
H3887 C3824 0.961 . S
H3888 C3824 0.959 . S
H3889 C3824 0.959 . S
H3890 C3825 0.960 . S
H3891 C3825 0.962 . S
H3892 C3825 0.961 . S
H3893 C3827 0.929 . S
H3894 C3830 0.930 . S
H3895 C3831 0.929 . S
H3896 C3834 0.930 . S
H3897 C3837 0.929 . S
H3898 C3838 0.930 . S
H3899 C3842 0.962 . S
H3900 C3842 0.959 . S
H3901 C3842 0.958 . S
C3902 C3903 1.560 . S
C3902 H3963 0.959 . S
C3902 H3964 0.959 . S
C3902 H3965 0.960 . S
C3903 C3902 1.560 . S
C3903 O3958 1.426 . S
C3903 H3962 0.980 . S
C3904 C3905 1.407 . S
C3904 C3909 1.418 . S
C3904 O3958 1.334 . S
C3905 C3904 1.407 . S
C3905 C3906 1.360 . S
C3905 H3966 0.929 . S
C3906 C3905 1.360 . S
C3906 C3907 1.401 . S
C3906 C3910 1.527 . S
C3907 C3906 1.401 . S
C3907 C3908 1.405 . S
C3907 C3940 1.587 . S
C3908 C3907 1.405 . S
C3908 C3909 1.332 . S
C3908 C3911 1.496 . S
C3909 C3904 1.418 . S
C3909 C3908 1.332 . S
C3909 H3967 0.929 . S
C3910 C3906 1.527 . S
C3910 H3968 0.959 . S
C3910 H3969 0.961 . S
C3910 H3970 0.961 . S
C3911 C3908 1.496 . S
C3911 H3971 0.960 . S
C3911 H3972 0.960 . S
C3911 H3973 0.961 . S
C3912 C3913 1.517 . S
C3912 H3975 0.961 . S
C3912 H3976 0.960 . S
C3912 H3977 0.959 . S
C3913 C3912 1.517 . S
C3913 O3961 1.468 . S
C3913 H3974 0.980 . S
C3914 C3915 1.349 . S
C3914 C3919 1.367 . S
C3914 O3961 1.408 . S
C3915 C3914 1.349 . S
C3915 C3916 1.407 . S
C3915 H3978 0.930 . S
C3916 C3915 1.407 . S
C3916 C3917 1.449 . S
C3916 C3920 1.535 . S
C3917 C3916 1.449 . S
C3917 C3918 1.384 . S
C3917 C3942 1.553 . S
C3918 C3917 1.384 . S
C3918 C3919 1.364 . S
C3918 C3921 1.450 . S
C3919 C3914 1.367 . S
C3919 C3918 1.364 . S
C3919 H3979 0.931 . S
C3920 C3916 1.535 . S
C3920 H3980 0.959 . S
C3920 H3981 0.961 . S
C3920 H3982 0.959 . S
C3921 C3918 1.450 . S
C3921 H3983 0.960 . S
C3921 H3984 0.960 . S
C3921 H3985 0.960 . S
C3922 C3923 1.309 . S
C3922 C3927 1.304 . S
C3922 O3960 1.435 . S
C3923 C3922 1.309 . S
C3923 C3924 1.476 . S
C3923 H3987 0.930 . S
C3924 C3923 1.476 . S
C3924 C3925 1.400 . S
C3924 C3928 1.567 . S
C3925 C3924 1.400 . S
C3925 C3926 1.373 . S
C3925 C3947 1.432 . S
C3926 C3925 1.373 . S
C3926 C3927 1.339 . S
C3926 C3929 1.530 . S
C3927 C3922 1.304 . S
C3927 C3926 1.339 . S
C3927 H3988 0.930 . S
C3928 C3924 1.567 . S
C3928 H3989 0.961 . S
C3928 H3990 0.960 . S
C3928 H3991 0.958 . S
C3929 C3926 1.530 . S
C3929 H3992 0.961 . S
C3929 H3993 0.960 . S
C3929 H3994 0.960 . S
C3930 C3931 1.530 . S
C3930 H3996 0.961 . S
C3930 H3997 0.961 . S
C3930 H3998 0.959 . S
C3931 C3930 1.530 . S
C3931 O3959 1.412 . S
C3931 H3995 0.980 . S
C3932 C3933 1.288 . S
C3932 C3937 1.377 . S
C3932 O3959 1.393 . S
C3933 C3932 1.288 . S
C3933 C3934 1.369 . S
C3933 H3999 0.932 . S
C3934 C3933 1.369 . S
C3934 C3935 1.398 . S
C3934 C3938 1.527 . S
C3935 C3934 1.398 . S
C3935 C3936 1.380 . S
C3935 C3949 1.497 . S
C3936 C3935 1.380 . S
C3936 C3937 1.383 . S
C3936 C3939 1.603 . S
C3937 C3932 1.377 . S
C3937 C3936 1.383 . S
C3937 H4000 0.929 . S
C3938 C3934 1.527 . S
C3938 H4001 0.961 . S
C3938 H4002 0.959 . S
C3938 H4003 0.959 . S
C3939 C3936 1.603 . S
C3939 H4004 0.960 . S
C3939 H4005 0.962 . S
C3939 H4006 0.961 . S
C3940 C3907 1.587 . S
C3940 C3941 1.360 . S
C3940 C3953 1.412 . S
C3941 C3940 1.360 . S
C3941 C3942 1.365 . S
C3941 H4007 0.929 . S
C3942 C3917 1.553 . S
C3942 C3941 1.365 . S
C3942 C3943 1.404 . S
C3943 C3942 1.404 . S
C3943 C3944 1.395 . S
C3943 C3954 1.451 . S
C3944 C3943 1.395 . S
C3944 C3945 1.322 . S
C3944 H4008 0.930 . S
C3945 C3944 1.322 . S
C3945 C3946 1.459 . S
C3945 H4009 0.929 . S
C3946 C3945 1.459 . S
C3946 C3947 1.445 . S
C3946 C3955 1.395 . S
C3947 C3925 1.432 . S
C3947 C3946 1.445 . S
C3947 C3948 1.370 . S
C3948 C3947 1.370 . S
C3948 C3949 1.438 . S
C3948 H4010 0.930 . S
C3949 C3935 1.497 . S
C3949 C3948 1.438 . S
C3949 C3950 1.360 . S
C3950 C3949 1.360 . S
C3950 C3951 1.401 . S
C3950 C3955 1.446 . S
C3951 C3950 1.401 . S
C3951 C3952 1.347 . S
C3951 H4011 0.929 . S
C3952 C3951 1.347 . S
C3952 C3953 1.455 . S
C3952 H4012 0.930 . S
C3953 C3940 1.412 . S
C3953 C3952 1.455 . S
C3953 C3954 1.331 . S
C3954 C3943 1.451 . S
C3954 C3953 1.331 . S
C3954 C3955 1.497 . S
C3955 C3946 1.395 . S
C3955 C3950 1.446 . S
C3955 C3954 1.497 . S
C3956 C3957 1.582 . S
C3956 H4013 0.962 . S
C3956 H4014 0.959 . S
C3956 H4015 0.958 . S
C3957 C3956 1.582 . S
C3957 O3960 1.458 . S
C3957 H3986 0.980 . S
O3958 C3903 1.426 . S
O3958 C3904 1.334 . S
O3959 C3931 1.412 . S
O3959 C3932 1.393 . S
O3960 C3922 1.435 . S
O3960 C3957 1.458 . S
O3961 C3913 1.468 . S
O3961 C3914 1.408 . S
H3962 C3903 0.980 . S
H3963 C3902 0.959 . S
H3964 C3902 0.959 . S
H3965 C3902 0.960 . S
H3966 C3905 0.929 . S
H3967 C3909 0.929 . S
H3968 C3910 0.959 . S
H3969 C3910 0.961 . S
H3970 C3910 0.961 . S
H3971 C3911 0.960 . S
H3972 C3911 0.960 . S
H3973 C3911 0.961 . S
H3974 C3913 0.980 . S
H3975 C3912 0.961 . S
H3976 C3912 0.960 . S
H3977 C3912 0.959 . S
H3978 C3915 0.930 . S
H3979 C3919 0.931 . S
H3980 C3920 0.959 . S
H3981 C3920 0.961 . S
H3982 C3920 0.959 . S
H3983 C3921 0.960 . S
H3984 C3921 0.960 . S
H3985 C3921 0.960 . S
H3986 C3957 0.980 . S
H3987 C3923 0.930 . S
H3988 C3927 0.930 . S
H3989 C3928 0.961 . S
H3990 C3928 0.960 . S
H3991 C3928 0.958 . S
H3992 C3929 0.961 . S
H3993 C3929 0.960 . S
H3994 C3929 0.960 . S
H3995 C3931 0.980 . S
H3996 C3930 0.961 . S
H3997 C3930 0.961 . S
H3998 C3930 0.959 . S
H3999 C3933 0.932 . S
H4000 C3937 0.929 . S
H4001 C3938 0.961 . S
H4002 C3938 0.959 . S
H4003 C3938 0.959 . S
H4004 C3939 0.960 . S
H4005 C3939 0.962 . S
H4006 C3939 0.961 . S
H4007 C3941 0.929 . S
H4008 C3944 0.930 . S
H4009 C3945 0.929 . S
H4010 C3948 0.930 . S
H4011 C3951 0.929 . S
H4012 C3952 0.930 . S
H4013 C3956 0.962 . S
H4014 C3956 0.959 . S
H4015 C3956 0.958 . S
C4016 C4017 1.369 . S
C4016 C4018 1.419 . S
C4016 H4020 0.930 . S
C4017 C4016 1.369 . S
C4017 C4026 1.429 . S
C4018 C4016 1.419 . S
C4018 C4019 1.363 . S
C4018 H4021 0.929 . S
C4019 C4018 1.363 . S
C4019 C4025 1.428 . S
H4020 C4016 0.930 . S
H4021 C4018 0.929 . S
S4022 N4023 1.613 . S
S4022 N4024 1.610 . S
N4023 S4022 1.613 . S
N4023 C4026 1.350 . S
N4024 S4022 1.610 . S
N4024 C4025 1.351 . S
C4025 C4019 1.428 . S
C4025 N4024 1.351 . S
C4025 C4026 1.434 . S
C4026 C4017 1.429 . S
C4026 N4023 1.350 . S
C4026 C4025 1.434 . S
C4027 C4028 1.369 . S
C4027 C4029 1.419 . S
C4027 H4031 0.930 . S
C4028 C4027 1.369 . S
C4028 C4037 1.429 . S
C4029 C4027 1.419 . S
C4029 C4030 1.363 . S
C4029 H4032 0.929 . S
C4030 C4029 1.363 . S
C4030 C4036 1.428 . S
H4031 C4027 0.930 . S
H4032 C4029 0.929 . S
S4033 N4034 1.613 . S
S4033 N4035 1.610 . S
N4034 S4033 1.613 . S
N4034 C4037 1.350 . S
N4035 S4033 1.610 . S
N4035 C4036 1.351 . S
C4036 C4030 1.428 . S
C4036 N4035 1.351 . S
C4036 C4037 1.434 . S
C4037 C4028 1.429 . S
C4037 N4034 1.350 . S
C4037 C4036 1.434 . S
C4038 C4039 1.369 . S
C4038 C4040 1.419 . S
C4038 H4042 0.930 . S
C4039 C4038 1.369 . S
C4039 C4048 1.429 . S
C4040 C4038 1.419 . S
C4040 C4041 1.363 . S
C4040 H4043 0.929 . S
C4041 C4040 1.363 . S
C4041 C4047 1.428 . S
H4042 C4038 0.930 . S
H4043 C4040 0.929 . S
S4044 N4045 1.613 . S
S4044 N4046 1.610 . S
N4045 S4044 1.613 . S
N4045 C4048 1.350 . S
N4046 S4044 1.610 . S
N4046 C4047 1.351 . S
C4047 C4041 1.428 . S
C4047 N4046 1.351 . S
C4047 C4048 1.434 . S
C4048 C4039 1.429 . S
C4048 N4045 1.350 . S
C4048 C4047 1.434 . S
C4049 C4050 1.369 . S
C4049 C4051 1.419 . S
C4049 H4053 0.930 . S
C4050 C4049 1.369 . S
C4050 C4059 1.429 . S
C4051 C4049 1.419 . S
C4051 C4052 1.363 . S
C4051 H4054 0.929 . S
C4052 C4051 1.363 . S
C4052 C4058 1.428 . S
H4053 C4049 0.930 . S
H4054 C4051 0.929 . S
S4055 N4056 1.613 . S
S4055 N4057 1.610 . S
N4056 S4055 1.613 . S
N4056 C4059 1.350 . S
N4057 S4055 1.610 . S
N4057 C4058 1.351 . S
C4058 C4052 1.428 . S
C4058 N4057 1.351 . S
C4058 C4059 1.434 . S
C4059 C4050 1.429 . S
C4059 N4056 1.350 . S
C4059 C4058 1.434 . S
C4060 C4061 1.369 . S
C4060 C4062 1.419 . S
C4060 H4064 0.930 . S
C4061 C4060 1.369 . S
C4061 C4070 1.429 . S
C4062 C4060 1.419 . S
C4062 C4063 1.363 . S
C4062 H4065 0.929 . S
C4063 C4062 1.363 . S
C4063 C4069 1.428 . S
H4064 C4060 0.930 . S
H4065 C4062 0.929 . S
S4066 N4067 1.613 . S
S4066 N4068 1.610 . S
N4067 S4066 1.613 . S
N4067 C4070 1.350 . S
N4068 S4066 1.610 . S
N4068 C4069 1.351 . S
C4069 C4063 1.428 . S
C4069 N4068 1.351 . S
C4069 C4070 1.434 . S
C4070 C4061 1.429 . S
C4070 N4067 1.350 . S
C4070 C4069 1.434 . S
C4071 C4072 1.369 . S
C4071 C4073 1.419 . S
C4071 H4075 0.930 . S
C4072 C4071 1.369 . S
C4072 C4081 1.429 . S
C4073 C4071 1.419 . S
C4073 C4074 1.363 . S
C4073 H4076 0.929 . S
C4074 C4073 1.363 . S
C4074 C4080 1.428 . S
H4075 C4071 0.930 . S
H4076 C4073 0.929 . S
S4077 N4078 1.613 . S
S4077 N4079 1.610 . S
N4078 S4077 1.613 . S
N4078 C4081 1.350 . S
N4079 S4077 1.610 . S
N4079 C4080 1.351 . S
C4080 C4074 1.428 . S
C4080 N4079 1.351 . S
C4080 C4081 1.434 . S
C4081 C4072 1.429 . S
C4081 N4078 1.350 . S
C4081 C4080 1.434 . S
C4082 C4083 1.369 . S
C4082 C4084 1.419 . S
C4082 H4086 0.930 . S
C4083 C4082 1.369 . S
C4083 C4092 1.429 . S
C4084 C4082 1.419 . S
C4084 C4085 1.363 . S
C4084 H4087 0.929 . S
C4085 C4084 1.363 . S
C4085 C4091 1.428 . S
H4086 C4082 0.930 . S
H4087 C4084 0.929 . S
S4088 N4089 1.613 . S
S4088 N4090 1.610 . S
N4089 S4088 1.613 . S
N4089 C4092 1.350 . S
N4090 S4088 1.610 . S
N4090 C4091 1.351 . S
C4091 C4085 1.428 . S
C4091 N4090 1.351 . S
C4091 C4092 1.434 . S
C4092 C4083 1.429 . S
C4092 N4089 1.350 . S
C4092 C4091 1.434 . S
C4093 C4094 1.369 . S
C4093 C4095 1.419 . S
C4093 H4097 0.930 . S
C4094 C4093 1.369 . S
C4094 C4103 1.429 . S
C4095 C4093 1.419 . S
C4095 C4096 1.363 . S
C4095 H4098 0.929 . S
C4096 C4095 1.363 . S
C4096 C4102 1.428 . S
H4097 C4093 0.930 . S
H4098 C4095 0.929 . S
S4099 N4100 1.613 . S
S4099 N4101 1.610 . S
N4100 S4099 1.613 . S
N4100 C4103 1.350 . S
N4101 S4099 1.610 . S
N4101 C4102 1.351 . S
C4102 C4096 1.428 . S
C4102 N4101 1.351 . S
C4102 C4103 1.434 . S
C4103 C4094 1.429 . S
C4103 N4100 1.350 . S
C4103 C4102 1.434 . S
C4104 C4105 1.369 . S
C4104 C4106 1.419 . S
C4104 H4108 0.930 . S
C4105 C4104 1.369 . S
C4105 C4114 1.429 . S
C4106 C4104 1.419 . S
C4106 C4107 1.363 . S
C4106 H4109 0.929 . S
C4107 C4106 1.363 . S
C4107 C4113 1.428 . S
H4108 C4104 0.930 . S
H4109 C4106 0.929 . S
S4110 N4111 1.613 . S
S4110 N4112 1.610 . S
N4111 S4110 1.613 . S
N4111 C4114 1.350 . S
N4112 S4110 1.610 . S
N4112 C4113 1.351 . S
C4113 C4107 1.428 . S
C4113 N4112 1.351 . S
C4113 C4114 1.434 . S
C4114 C4105 1.429 . S
C4114 N4111 1.350 . S
C4114 C4113 1.434 . S
C4115 C4116 1.369 . S
C4115 C4117 1.419 . S
C4115 H4119 0.930 . S
C4116 C4115 1.369 . S
C4116 C4125 1.429 . S
C4117 C4115 1.419 . S
C4117 C4118 1.363 . S
C4117 H4120 0.929 . S
C4118 C4117 1.363 . S
C4118 C4124 1.428 . S
H4119 C4115 0.930 . S
H4120 C4117 0.929 . S
S4121 N4122 1.613 . S
S4121 N4123 1.610 . S
N4122 S4121 1.613 . S
N4122 C4125 1.350 . S
N4123 S4121 1.610 . S
N4123 C4124 1.351 . S
C4124 C4118 1.428 . S
C4124 N4123 1.351 . S
C4124 C4125 1.434 . S
C4125 C4116 1.429 . S
C4125 N4122 1.350 . S
C4125 C4124 1.434 . S
C4126 C4127 1.369 . S
C4126 C4128 1.419 . S
C4126 H4130 0.930 . S
C4127 C4126 1.369 . S
C4127 C4136 1.429 . S
C4128 C4126 1.419 . S
C4128 C4129 1.363 . S
C4128 H4131 0.929 . S
C4129 C4128 1.363 . S
C4129 C4135 1.428 . S
H4130 C4126 0.930 . S
H4131 C4128 0.929 . S
S4132 N4133 1.613 . S
S4132 N4134 1.610 . S
N4133 S4132 1.613 . S
N4133 C4136 1.350 . S
N4134 S4132 1.610 . S
N4134 C4135 1.351 . S
C4135 C4129 1.428 . S
C4135 N4134 1.351 . S
C4135 C4136 1.434 . S
C4136 C4127 1.429 . S
C4136 N4133 1.350 . S
C4136 C4135 1.434 . S
C4137 C4138 1.369 . S
C4137 C4139 1.419 . S
C4137 H4141 0.930 . S
C4138 C4137 1.369 . S
C4138 C4147 1.429 . S
C4139 C4137 1.419 . S
C4139 C4140 1.363 . S
C4139 H4142 0.929 . S
C4140 C4139 1.363 . S
C4140 C4146 1.428 . S
H4141 C4137 0.930 . S
H4142 C4139 0.929 . S
S4143 N4144 1.613 . S
S4143 N4145 1.610 . S
N4144 S4143 1.613 . S
N4144 C4147 1.350 . S
N4145 S4143 1.610 . S
N4145 C4146 1.351 . S
C4146 C4140 1.428 . S
C4146 N4145 1.351 . S
C4146 C4147 1.434 . S
C4147 C4138 1.429 . S
C4147 N4144 1.350 . S
C4147 C4146 1.434 . S
C4148 C4149 1.369 . S
C4148 C4150 1.419 . S
C4148 H4152 0.930 . S
C4149 C4148 1.369 . S
C4149 C4158 1.429 . S
C4150 C4148 1.419 . S
C4150 C4151 1.363 . S
C4150 H4153 0.929 . S
C4151 C4150 1.363 . S
C4151 C4157 1.428 . S
H4152 C4148 0.930 . S
H4153 C4150 0.929 . S
S4154 N4155 1.613 . S
S4154 N4156 1.610 . S
N4155 S4154 1.613 . S
N4155 C4158 1.350 . S
N4156 S4154 1.610 . S
N4156 C4157 1.351 . S
C4157 C4151 1.428 . S
C4157 N4156 1.351 . S
C4157 C4158 1.434 . S
C4158 C4149 1.429 . S
C4158 N4155 1.350 . S
C4158 C4157 1.434 . S
C4159 C4160 1.369 . S
C4159 C4161 1.419 . S
C4159 H4163 0.930 . S
C4160 C4159 1.369 . S
C4160 C4169 1.429 . S
C4161 C4159 1.419 . S
C4161 C4162 1.363 . S
C4161 H4164 0.929 . S
C4162 C4161 1.363 . S
C4162 C4168 1.428 . S
H4163 C4159 0.930 . S
H4164 C4161 0.929 . S
S4165 N4166 1.613 . S
S4165 N4167 1.610 . S
N4166 S4165 1.613 . S
N4166 C4169 1.350 . S
N4167 S4165 1.610 . S
N4167 C4168 1.351 . S
C4168 C4162 1.428 . S
C4168 N4167 1.351 . S
C4168 C4169 1.434 . S
C4169 C4160 1.429 . S
C4169 N4166 1.350 . S
C4169 C4168 1.434 . S
C4170 C4171 1.369 . S
C4170 C4172 1.419 . S
C4170 H4174 0.930 . S
C4171 C4170 1.369 . S
C4171 C4180 1.429 . S
C4172 C4170 1.419 . S
C4172 C4173 1.363 . S
C4172 H4175 0.929 . S
C4173 C4172 1.363 . S
C4173 C4179 1.428 . S
H4174 C4170 0.930 . S
H4175 C4172 0.929 . S
S4176 N4177 1.613 . S
S4176 N4178 1.610 . S
N4177 S4176 1.613 . S
N4177 C4180 1.350 . S
N4178 S4176 1.610 . S
N4178 C4179 1.351 . S
C4179 C4173 1.428 . S
C4179 N4178 1.351 . S
C4179 C4180 1.434 . S
C4180 C4171 1.429 . S
C4180 N4177 1.350 . S
C4180 C4179 1.434 . S
C4181 C4182 1.369 . S
C4181 C4183 1.419 . S
C4181 H4185 0.930 . S
C4182 C4181 1.369 . S
C4182 C4191 1.429 . S
C4183 C4181 1.419 . S
C4183 C4184 1.363 . S
C4183 H4186 0.929 . S
C4184 C4183 1.363 . S
C4184 C4190 1.428 . S
H4185 C4181 0.930 . S
H4186 C4183 0.929 . S
S4187 N4188 1.613 . S
S4187 N4189 1.610 . S
N4188 S4187 1.613 . S
N4188 C4191 1.350 . S
N4189 S4187 1.610 . S
N4189 C4190 1.351 . S
C4190 C4184 1.428 . S
C4190 N4189 1.351 . S
C4190 C4191 1.434 . S
C4191 C4182 1.429 . S
C4191 N4188 1.350 . S
C4191 C4190 1.434 . S
C4192 C4193 1.369 . S
C4192 C4194 1.419 . S
C4192 H4196 0.930 . S
C4193 C4192 1.369 . S
C4193 C4202 1.429 . S
C4194 C4192 1.419 . S
C4194 C4195 1.363 . S
C4194 H4197 0.929 . S
C4195 C4194 1.363 . S
C4195 C4201 1.428 . S
H4196 C4192 0.930 . S
H4197 C4194 0.929 . S
S4198 N4199 1.613 . S
S4198 N4200 1.610 . S
N4199 S4198 1.613 . S
N4199 C4202 1.350 . S
N4200 S4198 1.610 . S
N4200 C4201 1.351 . S
C4201 C4195 1.428 . S
C4201 N4200 1.351 . S
C4201 C4202 1.434 . S
C4202 C4193 1.429 . S
C4202 N4199 1.350 . S
C4202 C4201 1.434 . S
C4203 C4204 1.369 . S
C4203 C4205 1.419 . S
C4203 H4207 0.930 . S
C4204 C4203 1.369 . S
C4204 C4213 1.429 . S
C4205 C4203 1.419 . S
C4205 C4206 1.363 . S
C4205 H4208 0.929 . S
C4206 C4205 1.363 . S
C4206 C4212 1.428 . S
H4207 C4203 0.930 . S
H4208 C4205 0.929 . S
S4209 N4210 1.613 . S
S4209 N4211 1.610 . S
N4210 S4209 1.613 . S
N4210 C4213 1.350 . S
N4211 S4209 1.610 . S
N4211 C4212 1.351 . S
C4212 C4206 1.428 . S
C4212 N4211 1.351 . S
C4212 C4213 1.434 . S
C4213 C4204 1.429 . S
C4213 N4210 1.350 . S
C4213 C4212 1.434 . S
C4214 C4215 1.369 . S
C4214 C4216 1.419 . S
C4214 H4218 0.930 . S
C4215 C4214 1.369 . S
C4215 C4224 1.429 . S
C4216 C4214 1.419 . S
C4216 C4217 1.363 . S
C4216 H4219 0.929 . S
C4217 C4216 1.363 . S
C4217 C4223 1.428 . S
H4218 C4214 0.930 . S
H4219 C4216 0.929 . S
S4220 N4221 1.613 . S
S4220 N4222 1.610 . S
N4221 S4220 1.613 . S
N4221 C4224 1.350 . S
N4222 S4220 1.610 . S
N4222 C4223 1.351 . S
C4223 C4217 1.428 . S
C4223 N4222 1.351 . S
C4223 C4224 1.434 . S
C4224 C4215 1.429 . S
C4224 N4221 1.350 . S
C4224 C4223 1.434 . S
C4225 C4226 1.369 . S
C4225 C4227 1.419 . S
C4225 H4229 0.930 . S
C4226 C4225 1.369 . S
C4226 C4235 1.429 . S
C4227 C4225 1.419 . S
C4227 C4228 1.363 . S
C4227 H4230 0.929 . S
C4228 C4227 1.363 . S
C4228 C4234 1.428 . S
H4229 C4225 0.930 . S
H4230 C4227 0.929 . S
S4231 N4232 1.613 . S
S4231 N4233 1.610 . S
N4232 S4231 1.613 . S
N4232 C4235 1.350 . S
N4233 S4231 1.610 . S
N4233 C4234 1.351 . S
C4234 C4228 1.428 . S
C4234 N4233 1.351 . S
C4234 C4235 1.434 . S
C4235 C4226 1.429 . S
C4235 N4232 1.350 . S
C4235 C4234 1.434 . S
C4236 C4237 1.369 . S
C4236 C4238 1.419 . S
C4236 H4240 0.930 . S
C4237 C4236 1.369 . S
C4237 C4246 1.429 . S
C4238 C4236 1.419 . S
C4238 C4239 1.363 . S
C4238 H4241 0.929 . S
C4239 C4238 1.363 . S
C4239 C4245 1.428 . S
H4240 C4236 0.930 . S
H4241 C4238 0.929 . S
S4242 N4243 1.613 . S
S4242 N4244 1.610 . S
N4243 S4242 1.613 . S
N4243 C4246 1.350 . S
N4244 S4242 1.610 . S
N4244 C4245 1.351 . S
C4245 C4239 1.428 . S
C4245 N4244 1.351 . S
C4245 C4246 1.434 . S
C4246 C4237 1.429 . S
C4246 N4243 1.350 . S
C4246 C4245 1.434 . S
C4247 C4248 1.369 . S
C4247 C4249 1.419 . S
C4247 H4251 0.930 . S
C4248 C4247 1.369 . S
C4248 C4257 1.429 . S
C4249 C4247 1.419 . S
C4249 C4250 1.363 . S
C4249 H4252 0.929 . S
C4250 C4249 1.363 . S
C4250 C4256 1.428 . S
H4251 C4247 0.930 . S
H4252 C4249 0.929 . S
S4253 N4254 1.613 . S
S4253 N4255 1.610 . S
N4254 S4253 1.613 . S
N4254 C4257 1.350 . S
N4255 S4253 1.610 . S
N4255 C4256 1.351 . S
C4256 C4250 1.428 . S
C4256 N4255 1.351 . S
C4256 C4257 1.434 . S
C4257 C4248 1.429 . S
C4257 N4254 1.350 . S
C4257 C4256 1.434 . S
C4258 C4259 1.369 . S
C4258 C4260 1.419 . S
C4258 H4262 0.930 . S
C4259 C4258 1.369 . S
C4259 C4268 1.429 . S
C4260 C4258 1.419 . S
C4260 C4261 1.363 . S
C4260 H4263 0.929 . S
C4261 C4260 1.363 . S
C4261 C4267 1.428 . S
H4262 C4258 0.930 . S
H4263 C4260 0.929 . S
S4264 N4265 1.613 . S
S4264 N4266 1.610 . S
N4265 S4264 1.613 . S
N4265 C4268 1.350 . S
N4266 S4264 1.610 . S
N4266 C4267 1.351 . S
C4267 C4261 1.428 . S
C4267 N4266 1.351 . S
C4267 C4268 1.434 . S
C4268 C4259 1.429 . S
C4268 N4265 1.350 . S
C4268 C4267 1.434 . S
C4269 C4270 1.369 . S
C4269 C4271 1.419 . S
C4269 H4273 0.930 . S
C4270 C4269 1.369 . S
C4270 C4279 1.429 . S
C4271 C4269 1.419 . S
C4271 C4272 1.363 . S
C4271 H4274 0.929 . S
C4272 C4271 1.363 . S
C4272 C4278 1.428 . S
H4273 C4269 0.930 . S
H4274 C4271 0.929 . S
S4275 N4276 1.613 . S
S4275 N4277 1.610 . S
N4276 S4275 1.613 . S
N4276 C4279 1.350 . S
N4277 S4275 1.610 . S
N4277 C4278 1.351 . S
C4278 C4272 1.428 . S
C4278 N4277 1.351 . S
C4278 C4279 1.434 . S
C4279 C4270 1.429 . S
C4279 N4276 1.350 . S
C4279 C4278 1.434 . S
C4280 C4281 1.369 . S
C4280 C4282 1.419 . S
C4280 H4284 0.930 . S
C4281 C4280 1.369 . S
C4281 C4290 1.429 . S
C4282 C4280 1.419 . S
C4282 C4283 1.363 . S
C4282 H4285 0.929 . S
C4283 C4282 1.363 . S
C4283 C4289 1.428 . S
H4284 C4280 0.930 . S
H4285 C4282 0.929 . S
S4286 N4287 1.613 . S
S4286 N4288 1.610 . S
N4287 S4286 1.613 . S
N4287 C4290 1.350 . S
N4288 S4286 1.610 . S
N4288 C4289 1.351 . S
C4289 C4283 1.428 . S
C4289 N4288 1.351 . S
C4289 C4290 1.434 . S
C4290 C4281 1.429 . S
C4290 N4287 1.350 . S
C4290 C4289 1.434 . S
C4291 C4292 1.369 . S
C4291 C4293 1.419 . S
C4291 H4295 0.930 . S
C4292 C4291 1.369 . S
C4292 C4301 1.429 . S
C4293 C4291 1.419 . S
C4293 C4294 1.363 . S
C4293 H4296 0.929 . S
C4294 C4293 1.363 . S
C4294 C4300 1.428 . S
H4295 C4291 0.930 . S
H4296 C4293 0.929 . S
S4297 N4298 1.613 . S
S4297 N4299 1.610 . S
N4298 S4297 1.613 . S
N4298 C4301 1.350 . S
N4299 S4297 1.610 . S
N4299 C4300 1.351 . S
C4300 C4294 1.428 . S
C4300 N4299 1.351 . S
C4300 C4301 1.434 . S
C4301 C4292 1.429 . S
C4301 N4298 1.350 . S
C4301 C4300 1.434 . S
C4302 C4303 1.369 . S
C4302 C4304 1.419 . S
C4302 H4306 0.930 . S
C4303 C4302 1.369 . S
C4303 C4312 1.429 . S
C4304 C4302 1.419 . S
C4304 C4305 1.363 . S
C4304 H4307 0.929 . S
C4305 C4304 1.363 . S
C4305 C4311 1.428 . S
H4306 C4302 0.930 . S
H4307 C4304 0.929 . S
S4308 N4309 1.613 . S
S4308 N4310 1.610 . S
N4309 S4308 1.613 . S
N4309 C4312 1.350 . S
N4310 S4308 1.610 . S
N4310 C4311 1.351 . S
C4311 C4305 1.428 . S
C4311 N4310 1.351 . S
C4311 C4312 1.434 . S
C4312 C4303 1.429 . S
C4312 N4309 1.350 . S
C4312 C4311 1.434 . S
C4313 C4314 1.369 . S
C4313 C4315 1.419 . S
C4313 H4317 0.930 . S
C4314 C4313 1.369 . S
C4314 C4323 1.429 . S
C4315 C4313 1.419 . S
C4315 C4316 1.363 . S
C4315 H4318 0.929 . S
C4316 C4315 1.363 . S
C4316 C4322 1.428 . S
H4317 C4313 0.930 . S
H4318 C4315 0.929 . S
S4319 N4320 1.613 . S
S4319 N4321 1.610 . S
N4320 S4319 1.613 . S
N4320 C4323 1.350 . S
N4321 S4319 1.610 . S
N4321 C4322 1.351 . S
C4322 C4316 1.428 . S
C4322 N4321 1.351 . S
C4322 C4323 1.434 . S
C4323 C4314 1.429 . S
C4323 N4320 1.350 . S
C4323 C4322 1.434 . S
C4324 C4325 1.369 . S
C4324 C4326 1.419 . S
C4324 H4328 0.930 . S
C4325 C4324 1.369 . S
C4325 C4334 1.429 . S
C4326 C4324 1.419 . S
C4326 C4327 1.363 . S
C4326 H4329 0.929 . S
C4327 C4326 1.363 . S
C4327 C4333 1.428 . S
H4328 C4324 0.930 . S
H4329 C4326 0.929 . S
S4330 N4331 1.613 . S
S4330 N4332 1.610 . S
N4331 S4330 1.613 . S
N4331 C4334 1.350 . S
N4332 S4330 1.610 . S
N4332 C4333 1.351 . S
C4333 C4327 1.428 . S
C4333 N4332 1.351 . S
C4333 C4334 1.434 . S
C4334 C4325 1.429 . S
C4334 N4331 1.350 . S
C4334 C4333 1.434 . S
C4335 C4336 1.369 . S
C4335 C4337 1.419 . S
C4335 H4339 0.930 . S
C4336 C4335 1.369 . S
C4336 C4345 1.429 . S
C4337 C4335 1.419 . S
C4337 C4338 1.363 . S
C4337 H4340 0.929 . S
C4338 C4337 1.363 . S
C4338 C4344 1.428 . S
H4339 C4335 0.930 . S
H4340 C4337 0.929 . S
S4341 N4342 1.613 . S
S4341 N4343 1.610 . S
N4342 S4341 1.613 . S
N4342 C4345 1.350 . S
N4343 S4341 1.610 . S
N4343 C4344 1.351 . S
C4344 C4338 1.428 . S
C4344 N4343 1.351 . S
C4344 C4345 1.434 . S
C4345 C4336 1.429 . S
C4345 N4342 1.350 . S
C4345 C4344 1.434 . S
C4346 C4347 1.369 . S
C4346 C4348 1.419 . S
C4346 H4350 0.930 . S
C4347 C4346 1.369 . S
C4347 C4356 1.429 . S
C4348 C4346 1.419 . S
C4348 C4349 1.363 . S
C4348 H4351 0.929 . S
C4349 C4348 1.363 . S
C4349 C4355 1.428 . S
H4350 C4346 0.930 . S
H4351 C4348 0.929 . S
S4352 N4353 1.613 . S
S4352 N4354 1.610 . S
N4353 S4352 1.613 . S
N4353 C4356 1.350 . S
N4354 S4352 1.610 . S
N4354 C4355 1.351 . S
C4355 C4349 1.428 . S
C4355 N4354 1.351 . S
C4355 C4356 1.434 . S
C4356 C4347 1.429 . S
C4356 N4353 1.350 . S
C4356 C4355 1.434 . S
C4357 C4358 1.369 . S
C4357 C4359 1.419 . S
C4357 H4361 0.930 . S
C4358 C4357 1.369 . S
C4358 C4367 1.429 . S
C4359 C4357 1.419 . S
C4359 C4360 1.363 . S
C4359 H4362 0.929 . S
C4360 C4359 1.363 . S
C4360 C4366 1.428 . S
H4361 C4357 0.930 . S
H4362 C4359 0.929 . S
S4363 N4364 1.613 . S
S4363 N4365 1.610 . S
N4364 S4363 1.613 . S
N4364 C4367 1.350 . S
N4365 S4363 1.610 . S
N4365 C4366 1.351 . S
C4366 C4360 1.428 . S
C4366 N4365 1.351 . S
C4366 C4367 1.434 . S
C4367 C4358 1.429 . S
C4367 N4364 1.350 . S
C4367 C4366 1.434 . S
C4368 C4369 1.369 . S
C4368 C4370 1.419 . S
C4368 H4372 0.930 . S
C4369 C4368 1.369 . S
C4369 C4378 1.429 . S
C4370 C4368 1.419 . S
C4370 C4371 1.363 . S
C4370 H4373 0.929 . S
C4371 C4370 1.363 . S
C4371 C4377 1.428 . S
H4372 C4368 0.930 . S
H4373 C4370 0.929 . S
S4374 N4375 1.613 . S
S4374 N4376 1.610 . S
N4375 S4374 1.613 . S
N4375 C4378 1.350 . S
N4376 S4374 1.610 . S
N4376 C4377 1.351 . S
C4377 C4371 1.428 . S
C4377 N4376 1.351 . S
C4377 C4378 1.434 . S
C4378 C4369 1.429 . S
C4378 N4375 1.350 . S
C4378 C4377 1.434 . S
C4379 C4380 1.369 . S
C4379 C4381 1.419 . S
C4379 H4383 0.930 . S
C4380 C4379 1.369 . S
C4380 C4389 1.429 . S
C4381 C4379 1.419 . S
C4381 C4382 1.363 . S
C4381 H4384 0.929 . S
C4382 C4381 1.363 . S
C4382 C4388 1.428 . S
H4383 C4379 0.930 . S
H4384 C4381 0.929 . S
S4385 N4386 1.613 . S
S4385 N4387 1.610 . S
N4386 S4385 1.613 . S
N4386 C4389 1.350 . S
N4387 S4385 1.610 . S
N4387 C4388 1.351 . S
C4388 C4382 1.428 . S
C4388 N4387 1.351 . S
C4388 C4389 1.434 . S
C4389 C4380 1.429 . S
C4389 N4386 1.350 . S
C4389 C4388 1.434 . S
C4390 C4391 1.369 . S
C4390 C4392 1.419 . S
C4390 H4394 0.930 . S
C4391 C4390 1.369 . S
C4391 C4400 1.429 . S
C4392 C4390 1.419 . S
C4392 C4393 1.363 . S
C4392 H4395 0.929 . S
C4393 C4392 1.363 . S
C4393 C4399 1.428 . S
H4394 C4390 0.930 . S
H4395 C4392 0.929 . S
S4396 N4397 1.613 . S
S4396 N4398 1.610 . S
N4397 S4396 1.613 . S
N4397 C4400 1.350 . S
N4398 S4396 1.610 . S
N4398 C4399 1.351 . S
C4399 C4393 1.428 . S
C4399 N4398 1.351 . S
C4399 C4400 1.434 . S
C4400 C4391 1.429 . S
C4400 N4397 1.350 . S
C4400 C4399 1.434 . S
C4401 C4402 1.369 . S
C4401 C4403 1.419 . S
C4401 H4405 0.930 . S
C4402 C4401 1.369 . S
C4402 C4411 1.429 . S
C4403 C4401 1.419 . S
C4403 C4404 1.363 . S
C4403 H4406 0.929 . S
C4404 C4403 1.363 . S
C4404 C4410 1.428 . S
H4405 C4401 0.930 . S
H4406 C4403 0.929 . S
S4407 N4408 1.613 . S
S4407 N4409 1.610 . S
N4408 S4407 1.613 . S
N4408 C4411 1.350 . S
N4409 S4407 1.610 . S
N4409 C4410 1.351 . S
C4410 C4404 1.428 . S
C4410 N4409 1.351 . S
C4410 C4411 1.434 . S
C4411 C4402 1.429 . S
C4411 N4408 1.350 . S
C4411 C4410 1.434 . S
C4412 C4413 1.369 . S
C4412 C4414 1.419 . S
C4412 H4416 0.930 . S
C4413 C4412 1.369 . S
C4413 C4422 1.429 . S
C4414 C4412 1.419 . S
C4414 C4415 1.363 . S
C4414 H4417 0.929 . S
C4415 C4414 1.363 . S
C4415 C4421 1.428 . S
H4416 C4412 0.930 . S
H4417 C4414 0.929 . S
S4418 N4419 1.613 . S
S4418 N4420 1.610 . S
N4419 S4418 1.613 . S
N4419 C4422 1.350 . S
N4420 S4418 1.610 . S
N4420 C4421 1.351 . S
C4421 C4415 1.428 . S
C4421 N4420 1.351 . S
C4421 C4422 1.434 . S
C4422 C4413 1.429 . S
C4422 N4419 1.350 . S
C4422 C4421 1.434 . S
C4423 C4424 1.369 . S
C4423 C4425 1.419 . S
C4423 H4427 0.930 . S
C4424 C4423 1.369 . S
C4424 C4433 1.429 . S
C4425 C4423 1.419 . S
C4425 C4426 1.363 . S
C4425 H4428 0.929 . S
C4426 C4425 1.363 . S
C4426 C4432 1.428 . S
H4427 C4423 0.930 . S
H4428 C4425 0.929 . S
S4429 N4430 1.613 . S
S4429 N4431 1.610 . S
N4430 S4429 1.613 . S
N4430 C4433 1.350 . S
N4431 S4429 1.610 . S
N4431 C4432 1.351 . S
C4432 C4426 1.428 . S
C4432 N4431 1.351 . S
C4432 C4433 1.434 . S
C4433 C4424 1.429 . S
C4433 N4430 1.350 . S
C4433 C4432 1.434 . S
C4434 C4435 1.369 . S
C4434 C4436 1.419 . S
C4434 H4438 0.930 . S
C4435 C4434 1.369 . S
C4435 C4444 1.429 . S
C4436 C4434 1.419 . S
C4436 C4437 1.363 . S
C4436 H4439 0.929 . S
C4437 C4436 1.363 . S
C4437 C4443 1.428 . S
H4438 C4434 0.930 . S
H4439 C4436 0.929 . S
S4440 N4441 1.613 . S
S4440 N4442 1.610 . S
N4441 S4440 1.613 . S
N4441 C4444 1.350 . S
N4442 S4440 1.610 . S
N4442 C4443 1.351 . S
C4443 C4437 1.428 . S
C4443 N4442 1.351 . S
C4443 C4444 1.434 . S
C4444 C4435 1.429 . S
C4444 N4441 1.350 . S
C4444 C4443 1.434 . S
C4445 C4446 1.369 . S
C4445 C4447 1.419 . S
C4445 H4449 0.930 . S
C4446 C4445 1.369 . S
C4446 C4455 1.429 . S
C4447 C4445 1.419 . S
C4447 C4448 1.363 . S
C4447 H4450 0.929 . S
C4448 C4447 1.363 . S
C4448 C4454 1.428 . S
H4449 C4445 0.930 . S
H4450 C4447 0.929 . S
S4451 N4452 1.613 . S
S4451 N4453 1.610 . S
N4452 S4451 1.613 . S
N4452 C4455 1.350 . S
N4453 S4451 1.610 . S
N4453 C4454 1.351 . S
C4454 C4448 1.428 . S
C4454 N4453 1.351 . S
C4454 C4455 1.434 . S
C4455 C4446 1.429 . S
C4455 N4452 1.350 . S
C4455 C4454 1.434 . S
C4456 C4457 1.369 . S
C4456 C4458 1.419 . S
C4456 H4460 0.930 . S
C4457 C4456 1.369 . S
C4457 C4466 1.429 . S
C4458 C4456 1.419 . S
C4458 C4459 1.363 . S
C4458 H4461 0.929 . S
C4459 C4458 1.363 . S
C4459 C4465 1.428 . S
H4460 C4456 0.930 . S
H4461 C4458 0.929 . S
S4462 N4463 1.613 . S
S4462 N4464 1.610 . S
N4463 S4462 1.613 . S
N4463 C4466 1.350 . S
N4464 S4462 1.610 . S
N4464 C4465 1.351 . S
C4465 C4459 1.428 . S
C4465 N4464 1.351 . S
C4465 C4466 1.434 . S
C4466 C4457 1.429 . S
C4466 N4463 1.350 . S
C4466 C4465 1.434 . S
C4467 C4468 1.369 . S
C4467 C4469 1.419 . S
C4467 H4471 0.930 . S
C4468 C4467 1.369 . S
C4468 C4477 1.429 . S
C4469 C4467 1.419 . S
C4469 C4470 1.363 . S
C4469 H4472 0.929 . S
C4470 C4469 1.363 . S
C4470 C4476 1.428 . S
H4471 C4467 0.930 . S
H4472 C4469 0.929 . S
S4473 N4474 1.613 . S
S4473 N4475 1.610 . S
N4474 S4473 1.613 . S
N4474 C4477 1.350 . S
N4475 S4473 1.610 . S
N4475 C4476 1.351 . S
C4476 C4470 1.428 . S
C4476 N4475 1.351 . S
C4476 C4477 1.434 . S
C4477 C4468 1.429 . S
C4477 N4474 1.350 . S
C4477 C4476 1.434 . S
C4478 C4479 1.369 . S
C4478 C4480 1.419 . S
C4478 H4482 0.930 . S
C4479 C4478 1.369 . S
C4479 C4488 1.429 . S
C4480 C4478 1.419 . S
C4480 C4481 1.363 . S
C4480 H4483 0.929 . S
C4481 C4480 1.363 . S
C4481 C4487 1.428 . S
H4482 C4478 0.930 . S
H4483 C4480 0.929 . S
S4484 N4485 1.613 . S
S4484 N4486 1.610 . S
N4485 S4484 1.613 . S
N4485 C4488 1.350 . S
N4486 S4484 1.610 . S
N4486 C4487 1.351 . S
C4487 C4481 1.428 . S
C4487 N4486 1.351 . S
C4487 C4488 1.434 . S
C4488 C4479 1.429 . S
C4488 N4485 1.350 . S
C4488 C4487 1.434 . S
C4489 C4490 1.369 . S
C4489 C4491 1.419 . S
C4489 H4493 0.930 . S
C4490 C4489 1.369 . S
C4490 C4499 1.429 . S
C4491 C4489 1.419 . S
C4491 C4492 1.363 . S
C4491 H4494 0.929 . S
C4492 C4491 1.363 . S
C4492 C4498 1.428 . S
H4493 C4489 0.930 . S
H4494 C4491 0.929 . S
S4495 N4496 1.613 . S
S4495 N4497 1.610 . S
N4496 S4495 1.613 . S
N4496 C4499 1.350 . S
N4497 S4495 1.610 . S
N4497 C4498 1.351 . S
C4498 C4492 1.428 . S
C4498 N4497 1.351 . S
C4498 C4499 1.434 . S
C4499 C4490 1.429 . S
C4499 N4496 1.350 . S
C4499 C4498 1.434 . S
C4500 C4501 1.369 . S
C4500 C4502 1.419 . S
C4500 H4504 0.930 . S
C4501 C4500 1.369 . S
C4501 C4510 1.429 . S
C4502 C4500 1.419 . S
C4502 C4503 1.363 . S
C4502 H4505 0.929 . S
C4503 C4502 1.363 . S
C4503 C4509 1.428 . S
H4504 C4500 0.930 . S
H4505 C4502 0.929 . S
S4506 N4507 1.613 . S
S4506 N4508 1.610 . S
N4507 S4506 1.613 . S
N4507 C4510 1.350 . S
N4508 S4506 1.610 . S
N4508 C4509 1.351 . S
C4509 C4503 1.428 . S
C4509 N4508 1.351 . S
C4509 C4510 1.434 . S
C4510 C4501 1.429 . S
C4510 N4507 1.350 . S
C4510 C4509 1.434 . S
C4511 C4512 1.369 . S
C4511 C4513 1.419 . S
C4511 H4515 0.930 . S
C4512 C4511 1.369 . S
C4512 C4521 1.429 . S
C4513 C4511 1.419 . S
C4513 C4514 1.363 . S
C4513 H4516 0.929 . S
C4514 C4513 1.363 . S
C4514 C4520 1.428 . S
H4515 C4511 0.930 . S
H4516 C4513 0.929 . S
S4517 N4518 1.613 . S
S4517 N4519 1.610 . S
N4518 S4517 1.613 . S
N4518 C4521 1.350 . S
N4519 S4517 1.610 . S
N4519 C4520 1.351 . S
C4520 C4514 1.428 . S
C4520 N4519 1.351 . S
C4520 C4521 1.434 . S
C4521 C4512 1.429 . S
C4521 N4518 1.350 . S
C4521 C4520 1.434 . S
C4522 C4523 1.369 . S
C4522 C4524 1.419 . S
C4522 H4526 0.930 . S
C4523 C4522 1.369 . S
C4523 C4532 1.429 . S
C4524 C4522 1.419 . S
C4524 C4525 1.363 . S
C4524 H4527 0.929 . S
C4525 C4524 1.363 . S
C4525 C4531 1.428 . S
H4526 C4522 0.930 . S
H4527 C4524 0.929 . S
S4528 N4529 1.613 . S
S4528 N4530 1.610 . S
N4529 S4528 1.613 . S
N4529 C4532 1.350 . S
N4530 S4528 1.610 . S
N4530 C4531 1.351 . S
C4531 C4525 1.428 . S
C4531 N4530 1.351 . S
C4531 C4532 1.434 . S
C4532 C4523 1.429 . S
C4532 N4529 1.350 . S
C4532 C4531 1.434 . S
C4533 C4534 1.369 . S
C4533 C4535 1.419 . S
C4533 H4537 0.930 . S
C4534 C4533 1.369 . S
C4534 C4543 1.429 . S
C4535 C4533 1.419 . S
C4535 C4536 1.363 . S
C4535 H4538 0.929 . S
C4536 C4535 1.363 . S
C4536 C4542 1.428 . S
H4537 C4533 0.930 . S
H4538 C4535 0.929 . S
S4539 N4540 1.613 . S
S4539 N4541 1.610 . S
N4540 S4539 1.613 . S
N4540 C4543 1.350 . S
N4541 S4539 1.610 . S
N4541 C4542 1.351 . S
C4542 C4536 1.428 . S
C4542 N4541 1.351 . S
C4542 C4543 1.434 . S
C4543 C4534 1.429 . S
C4543 N4540 1.350 . S
C4543 C4542 1.434 . S
C4544 C4545 1.369 . S
C4544 C4546 1.419 . S
C4544 H4548 0.930 . S
C4545 C4544 1.369 . S
C4545 C4554 1.429 . S
C4546 C4544 1.419 . S
C4546 C4547 1.363 . S
C4546 H4549 0.929 . S
C4547 C4546 1.363 . S
C4547 C4553 1.428 . S
H4548 C4544 0.930 . S
H4549 C4546 0.929 . S
S4550 N4551 1.613 . S
S4550 N4552 1.610 . S
N4551 S4550 1.613 . S
N4551 C4554 1.350 . S
N4552 S4550 1.610 . S
N4552 C4553 1.351 . S
C4553 C4547 1.428 . S
C4553 N4552 1.351 . S
C4553 C4554 1.434 . S
C4554 C4545 1.429 . S
C4554 N4551 1.350 . S
C4554 C4553 1.434 . S
C4555 C4556 1.369 . S
C4555 C4557 1.419 . S
C4555 H4559 0.930 . S
C4556 C4555 1.369 . S
C4556 C4565 1.429 . S
C4557 C4555 1.419 . S
C4557 C4558 1.363 . S
C4557 H4560 0.929 . S
C4558 C4557 1.363 . S
C4558 C4564 1.428 . S
H4559 C4555 0.930 . S
H4560 C4557 0.929 . S
S4561 N4562 1.613 . S
S4561 N4563 1.610 . S
N4562 S4561 1.613 . S
N4562 C4565 1.350 . S
N4563 S4561 1.610 . S
N4563 C4564 1.351 . S
C4564 C4558 1.428 . S
C4564 N4563 1.351 . S
C4564 C4565 1.434 . S
C4565 C4556 1.429 . S
C4565 N4562 1.350 . S
C4565 C4564 1.434 . S
C4566 C4567 1.369 . S
C4566 C4568 1.419 . S
C4566 H4570 0.930 . S
C4567 C4566 1.369 . S
C4567 C4576 1.429 . S
C4568 C4566 1.419 . S
C4568 C4569 1.363 . S
C4568 H4571 0.929 . S
C4569 C4568 1.363 . S
C4569 C4575 1.428 . S
H4570 C4566 0.930 . S
H4571 C4568 0.929 . S
S4572 N4573 1.613 . S
S4572 N4574 1.610 . S
N4573 S4572 1.613 . S
N4573 C4576 1.350 . S
N4574 S4572 1.610 . S
N4574 C4575 1.351 . S
C4575 C4569 1.428 . S
C4575 N4574 1.351 . S
C4575 C4576 1.434 . S
C4576 C4567 1.429 . S
C4576 N4573 1.350 . S
C4576 C4575 1.434 . S
C4577 C4578 1.369 . S
C4577 C4579 1.419 . S
C4577 H4581 0.930 . S
C4578 C4577 1.369 . S
C4578 C4587 1.429 . S
C4579 C4577 1.419 . S
C4579 C4580 1.363 . S
C4579 H4582 0.929 . S
C4580 C4579 1.363 . S
C4580 C4586 1.428 . S
H4581 C4577 0.930 . S
H4582 C4579 0.929 . S
S4583 N4584 1.613 . S
S4583 N4585 1.610 . S
N4584 S4583 1.613 . S
N4584 C4587 1.350 . S
N4585 S4583 1.610 . S
N4585 C4586 1.351 . S
C4586 C4580 1.428 . S
C4586 N4585 1.351 . S
C4586 C4587 1.434 . S
C4587 C4578 1.429 . S
C4587 N4584 1.350 . S
C4587 C4586 1.434 . S
C4588 C4589 1.369 . S
C4588 C4590 1.419 . S
C4588 H4592 0.930 . S
C4589 C4588 1.369 . S
C4589 C4598 1.429 . S
C4590 C4588 1.419 . S
C4590 C4591 1.363 . S
C4590 H4593 0.929 . S
C4591 C4590 1.363 . S
C4591 C4597 1.428 . S
H4592 C4588 0.930 . S
H4593 C4590 0.929 . S
S4594 N4595 1.613 . S
S4594 N4596 1.610 . S
N4595 S4594 1.613 . S
N4595 C4598 1.350 . S
N4596 S4594 1.610 . S
N4596 C4597 1.351 . S
C4597 C4591 1.428 . S
C4597 N4596 1.351 . S
C4597 C4598 1.434 . S
C4598 C4589 1.429 . S
C4598 N4595 1.350 . S
C4598 C4597 1.434 . S
C4599 C4600 1.369 . S
C4599 C4601 1.419 . S
C4599 H4603 0.930 . S
C4600 C4599 1.369 . S
C4600 C4609 1.429 . S
C4601 C4599 1.419 . S
C4601 C4602 1.363 . S
C4601 H4604 0.929 . S
C4602 C4601 1.363 . S
C4602 C4608 1.428 . S
H4603 C4599 0.930 . S
H4604 C4601 0.929 . S
S4605 N4606 1.613 . S
S4605 N4607 1.610 . S
N4606 S4605 1.613 . S
N4606 C4609 1.350 . S
N4607 S4605 1.610 . S
N4607 C4608 1.351 . S
C4608 C4602 1.428 . S
C4608 N4607 1.351 . S
C4608 C4609 1.434 . S
C4609 C4600 1.429 . S
C4609 N4606 1.350 . S
C4609 C4608 1.434 . S
C4610 C4611 1.369 . S
C4610 C4612 1.419 . S
C4610 H4614 0.930 . S
C4611 C4610 1.369 . S
C4611 C4620 1.429 . S
C4612 C4610 1.419 . S
C4612 C4613 1.363 . S
C4612 H4615 0.929 . S
C4613 C4612 1.363 . S
C4613 C4619 1.428 . S
H4614 C4610 0.930 . S
H4615 C4612 0.929 . S
S4616 N4617 1.613 . S
S4616 N4618 1.610 . S
N4617 S4616 1.613 . S
N4617 C4620 1.350 . S
N4618 S4616 1.610 . S
N4618 C4619 1.351 . S
C4619 C4613 1.428 . S
C4619 N4618 1.351 . S
C4619 C4620 1.434 . S
C4620 C4611 1.429 . S
C4620 N4617 1.350 . S
C4620 C4619 1.434 . S
C4621 C4622 1.369 . S
C4621 C4623 1.419 . S
C4621 H4625 0.930 . S
C4622 C4621 1.369 . S
C4622 C4631 1.429 . S
C4623 C4621 1.419 . S
C4623 C4624 1.363 . S
C4623 H4626 0.929 . S
C4624 C4623 1.363 . S
C4624 C4630 1.428 . S
H4625 C4621 0.930 . S
H4626 C4623 0.929 . S
S4627 N4628 1.613 . S
S4627 N4629 1.610 . S
N4628 S4627 1.613 . S
N4628 C4631 1.350 . S
N4629 S4627 1.610 . S
N4629 C4630 1.351 . S
C4630 C4624 1.428 . S
C4630 N4629 1.351 . S
C4630 C4631 1.434 . S
C4631 C4622 1.429 . S
C4631 N4628 1.350 . S
C4631 C4630 1.434 . S
C4632 C4633 1.369 . S
C4632 C4634 1.419 . S
C4632 H4636 0.930 . S
C4633 C4632 1.369 . S
C4633 C4642 1.429 . S
C4634 C4632 1.419 . S
C4634 C4635 1.363 . S
C4634 H4637 0.929 . S
C4635 C4634 1.363 . S
C4635 C4641 1.428 . S
H4636 C4632 0.930 . S
H4637 C4634 0.929 . S
S4638 N4639 1.613 . S
S4638 N4640 1.610 . S
N4639 S4638 1.613 . S
N4639 C4642 1.350 . S
N4640 S4638 1.610 . S
N4640 C4641 1.351 . S
C4641 C4635 1.428 . S
C4641 N4640 1.351 . S
C4641 C4642 1.434 . S
C4642 C4633 1.429 . S
C4642 N4639 1.350 . S
C4642 C4641 1.434 . S
C4643 C4644 1.369 . S
C4643 C4645 1.419 . S
C4643 H4647 0.930 . S
C4644 C4643 1.369 . S
C4644 C4653 1.429 . S
C4645 C4643 1.419 . S
C4645 C4646 1.363 . S
C4645 H4648 0.929 . S
C4646 C4645 1.363 . S
C4646 C4652 1.428 . S
H4647 C4643 0.930 . S
H4648 C4645 0.929 . S
S4649 N4650 1.613 . S
S4649 N4651 1.610 . S
N4650 S4649 1.613 . S
N4650 C4653 1.350 . S
N4651 S4649 1.610 . S
N4651 C4652 1.351 . S
C4652 C4646 1.428 . S
C4652 N4651 1.351 . S
C4652 C4653 1.434 . S
C4653 C4644 1.429 . S
C4653 N4650 1.350 . S
C4653 C4652 1.434 . S
C4654 C4655 1.369 . S
C4654 C4656 1.419 . S
C4654 H4658 0.930 . S
C4655 C4654 1.369 . S
C4655 C4664 1.429 . S
C4656 C4654 1.419 . S
C4656 C4657 1.363 . S
C4656 H4659 0.929 . S
C4657 C4656 1.363 . S
C4657 C4663 1.428 . S
H4658 C4654 0.930 . S
H4659 C4656 0.929 . S
S4660 N4661 1.613 . S
S4660 N4662 1.610 . S
N4661 S4660 1.613 . S
N4661 C4664 1.350 . S
N4662 S4660 1.610 . S
N4662 C4663 1.351 . S
C4663 C4657 1.428 . S
C4663 N4662 1.351 . S
C4663 C4664 1.434 . S
C4664 C4655 1.429 . S
C4664 N4661 1.350 . S
C4664 C4663 1.434 . S
C4665 C4666 1.369 . S
C4665 C4667 1.419 . S
C4665 H4669 0.930 . S
C4666 C4665 1.369 . S
C4666 C4675 1.429 . S
C4667 C4665 1.419 . S
C4667 C4668 1.363 . S
C4667 H4670 0.929 . S
C4668 C4667 1.363 . S
C4668 C4674 1.428 . S
H4669 C4665 0.930 . S
H4670 C4667 0.929 . S
S4671 N4672 1.613 . S
S4671 N4673 1.610 . S
N4672 S4671 1.613 . S
N4672 C4675 1.350 . S
N4673 S4671 1.610 . S
N4673 C4674 1.351 . S
C4674 C4668 1.428 . S
C4674 N4673 1.351 . S
C4674 C4675 1.434 . S
C4675 C4666 1.429 . S
C4675 N4672 1.350 . S
C4675 C4674 1.434 . S
C4676 C4677 1.369 . S
C4676 C4678 1.419 . S
C4676 H4680 0.930 . S
C4677 C4676 1.369 . S
C4677 C4686 1.429 . S
C4678 C4676 1.419 . S
C4678 C4679 1.363 . S
C4678 H4681 0.929 . S
C4679 C4678 1.363 . S
C4679 C4685 1.428 . S
H4680 C4676 0.930 . S
H4681 C4678 0.929 . S
S4682 N4683 1.613 . S
S4682 N4684 1.610 . S
N4683 S4682 1.613 . S
N4683 C4686 1.350 . S
N4684 S4682 1.610 . S
N4684 C4685 1.351 . S
C4685 C4679 1.428 . S
C4685 N4684 1.351 . S
C4685 C4686 1.434 . S
C4686 C4677 1.429 . S
C4686 N4683 1.350 . S
C4686 C4685 1.434 . S
C4687 C4688 1.369 . S
C4687 C4689 1.419 . S
C4687 H4691 0.930 . S
C4688 C4687 1.369 . S
C4688 C4697 1.429 . S
C4689 C4687 1.419 . S
C4689 C4690 1.363 . S
C4689 H4692 0.929 . S
C4690 C4689 1.363 . S
C4690 C4696 1.428 . S
H4691 C4687 0.930 . S
H4692 C4689 0.929 . S
S4693 N4694 1.613 . S
S4693 N4695 1.610 . S
N4694 S4693 1.613 . S
N4694 C4697 1.350 . S
N4695 S4693 1.610 . S
N4695 C4696 1.351 . S
C4696 C4690 1.428 . S
C4696 N4695 1.351 . S
C4696 C4697 1.434 . S
C4697 C4688 1.429 . S
C4697 N4694 1.350 . S
C4697 C4696 1.434 . S
C4698 C4699 1.369 . S
C4698 C4700 1.419 . S
C4698 H4702 0.930 . S
C4699 C4698 1.369 . S
C4699 C4708 1.429 . S
C4700 C4698 1.419 . S
C4700 C4701 1.363 . S
C4700 H4703 0.929 . S
C4701 C4700 1.363 . S
C4701 C4707 1.428 . S
H4702 C4698 0.930 . S
H4703 C4700 0.929 . S
S4704 N4705 1.613 . S
S4704 N4706 1.610 . S
N4705 S4704 1.613 . S
N4705 C4708 1.350 . S
N4706 S4704 1.610 . S
N4706 C4707 1.351 . S
C4707 C4701 1.428 . S
C4707 N4706 1.351 . S
C4707 C4708 1.434 . S
C4708 C4699 1.429 . S
C4708 N4705 1.350 . S
C4708 C4707 1.434 . S
C4709 C4710 1.369 . S
C4709 C4711 1.419 . S
C4709 H4713 0.930 . S
C4710 C4709 1.369 . S
C4710 C4719 1.429 . S
C4711 C4709 1.419 . S
C4711 C4712 1.363 . S
C4711 H4714 0.929 . S
C4712 C4711 1.363 . S
C4712 C4718 1.428 . S
H4713 C4709 0.930 . S
H4714 C4711 0.929 . S
S4715 N4716 1.613 . S
S4715 N4717 1.610 . S
N4716 S4715 1.613 . S
N4716 C4719 1.350 . S
N4717 S4715 1.610 . S
N4717 C4718 1.351 . S
C4718 C4712 1.428 . S
C4718 N4717 1.351 . S
C4718 C4719 1.434 . S
C4719 C4710 1.429 . S
C4719 N4716 1.350 . S
C4719 C4718 1.434 . S
C4720 C4721 1.369 . S
C4720 C4722 1.419 . S
C4720 H4724 0.930 . S
C4721 C4720 1.369 . S
C4721 C4730 1.429 . S
C4722 C4720 1.419 . S
C4722 C4723 1.363 . S
C4722 H4725 0.929 . S
C4723 C4722 1.363 . S
C4723 C4729 1.428 . S
H4724 C4720 0.930 . S
H4725 C4722 0.929 . S
S4726 N4727 1.613 . S
S4726 N4728 1.610 . S
N4727 S4726 1.613 . S
N4727 C4730 1.350 . S
N4728 S4726 1.610 . S
N4728 C4729 1.351 . S
C4729 C4723 1.428 . S
C4729 N4728 1.351 . S
C4729 C4730 1.434 . S
C4730 C4721 1.429 . S
C4730 N4727 1.350 . S
C4730 C4729 1.434 . S
C4731 C4732 1.369 . S
C4731 C4733 1.419 . S
C4731 H4735 0.930 . S
C4732 C4731 1.369 . S
C4732 C4741 1.429 . S
C4733 C4731 1.419 . S
C4733 C4734 1.363 . S
C4733 H4736 0.929 . S
C4734 C4733 1.363 . S
C4734 C4740 1.428 . S
H4735 C4731 0.930 . S
H4736 C4733 0.929 . S
S4737 N4738 1.613 . S
S4737 N4739 1.610 . S
N4738 S4737 1.613 . S
N4738 C4741 1.350 . S
N4739 S4737 1.610 . S
N4739 C4740 1.351 . S
C4740 C4734 1.428 . S
C4740 N4739 1.351 . S
C4740 C4741 1.434 . S
C4741 C4732 1.429 . S
C4741 N4738 1.350 . S
C4741 C4740 1.434 . S
C4742 C4743 1.369 . S
C4742 C4744 1.419 . S
C4742 H4746 0.930 . S
C4743 C4742 1.369 . S
C4743 C4752 1.429 . S
C4744 C4742 1.419 . S
C4744 C4745 1.363 . S
C4744 H4747 0.929 . S
C4745 C4744 1.363 . S
C4745 C4751 1.428 . S
H4746 C4742 0.930 . S
H4747 C4744 0.929 . S
S4748 N4749 1.613 . S
S4748 N4750 1.610 . S
N4749 S4748 1.613 . S
N4749 C4752 1.350 . S
N4750 S4748 1.610 . S
N4750 C4751 1.351 . S
C4751 C4745 1.428 . S
C4751 N4750 1.351 . S
C4751 C4752 1.434 . S
C4752 C4743 1.429 . S
C4752 N4749 1.350 . S
C4752 C4751 1.434 . S
C4753 C4754 1.369 . S
C4753 C4755 1.419 . S
C4753 H4757 0.930 . S
C4754 C4753 1.369 . S
C4754 C4763 1.429 . S
C4755 C4753 1.419 . S
C4755 C4756 1.363 . S
C4755 H4758 0.929 . S
C4756 C4755 1.363 . S
C4756 C4762 1.428 . S
H4757 C4753 0.930 . S
H4758 C4755 0.929 . S
S4759 N4760 1.613 . S
S4759 N4761 1.610 . S
N4760 S4759 1.613 . S
N4760 C4763 1.350 . S
N4761 S4759 1.610 . S
N4761 C4762 1.351 . S
C4762 C4756 1.428 . S
C4762 N4761 1.351 . S
C4762 C4763 1.434 . S
C4763 C4754 1.429 . S
C4763 N4760 1.350 . S
C4763 C4762 1.434 . S
C4764 C4765 1.369 . S
C4764 C4766 1.419 . S
C4764 H4768 0.930 . S
C4765 C4764 1.369 . S
C4765 C4774 1.429 . S
C4766 C4764 1.419 . S
C4766 C4767 1.363 . S
C4766 H4769 0.929 . S
C4767 C4766 1.363 . S
C4767 C4773 1.428 . S
H4768 C4764 0.930 . S
H4769 C4766 0.929 . S
S4770 N4771 1.613 . S
S4770 N4772 1.610 . S
N4771 S4770 1.613 . S
N4771 C4774 1.350 . S
N4772 S4770 1.610 . S
N4772 C4773 1.351 . S
C4773 C4767 1.428 . S
C4773 N4772 1.351 . S
C4773 C4774 1.434 . S
C4774 C4765 1.429 . S
C4774 N4771 1.350 . S
C4774 C4773 1.434 . S
C4775 C4776 1.369 . S
C4775 C4777 1.419 . S
C4775 H4779 0.930 . S
C4776 C4775 1.369 . S
C4776 C4785 1.429 . S
C4777 C4775 1.419 . S
C4777 C4778 1.363 . S
C4777 H4780 0.929 . S
C4778 C4777 1.363 . S
C4778 C4784 1.428 . S
H4779 C4775 0.930 . S
H4780 C4777 0.929 . S
S4781 N4782 1.613 . S
S4781 N4783 1.610 . S
N4782 S4781 1.613 . S
N4782 C4785 1.350 . S
N4783 S4781 1.610 . S
N4783 C4784 1.351 . S
C4784 C4778 1.428 . S
C4784 N4783 1.351 . S
C4784 C4785 1.434 . S
C4785 C4776 1.429 . S
C4785 N4782 1.350 . S
C4785 C4784 1.434 . S
C4786 C4787 1.369 . S
C4786 C4788 1.419 . S
C4786 H4790 0.930 . S
C4787 C4786 1.369 . S
C4787 C4796 1.429 . S
C4788 C4786 1.419 . S
C4788 C4789 1.363 . S
C4788 H4791 0.929 . S
C4789 C4788 1.363 . S
C4789 C4795 1.428 . S
H4790 C4786 0.930 . S
H4791 C4788 0.929 . S
S4792 N4793 1.613 . S
S4792 N4794 1.610 . S
N4793 S4792 1.613 . S
N4793 C4796 1.350 . S
N4794 S4792 1.610 . S
N4794 C4795 1.351 . S
C4795 C4789 1.428 . S
C4795 N4794 1.351 . S
C4795 C4796 1.434 . S
C4796 C4787 1.429 . S
C4796 N4793 1.350 . S
C4796 C4795 1.434 . S
C4797 C4798 1.369 . S
C4797 C4799 1.419 . S
C4797 H4801 0.930 . S
C4798 C4797 1.369 . S
C4798 C4807 1.429 . S
C4799 C4797 1.419 . S
C4799 C4800 1.363 . S
C4799 H4802 0.929 . S
C4800 C4799 1.363 . S
C4800 C4806 1.428 . S
H4801 C4797 0.930 . S
H4802 C4799 0.929 . S
S4803 N4804 1.613 . S
S4803 N4805 1.610 . S
N4804 S4803 1.613 . S
N4804 C4807 1.350 . S
N4805 S4803 1.610 . S
N4805 C4806 1.351 . S
C4806 C4800 1.428 . S
C4806 N4805 1.351 . S
C4806 C4807 1.434 . S
C4807 C4798 1.429 . S
C4807 N4804 1.350 . S
C4807 C4806 1.434 . S
C4808 C4809 1.369 . S
C4808 C4810 1.419 . S
C4808 H4812 0.930 . S
C4809 C4808 1.369 . S
C4809 C4818 1.429 . S
C4810 C4808 1.419 . S
C4810 C4811 1.363 . S
C4810 H4813 0.929 . S
C4811 C4810 1.363 . S
C4811 C4817 1.428 . S
H4812 C4808 0.930 . S
H4813 C4810 0.929 . S
S4814 N4815 1.613 . S
S4814 N4816 1.610 . S
N4815 S4814 1.613 . S
N4815 C4818 1.350 . S
N4816 S4814 1.610 . S
N4816 C4817 1.351 . S
C4817 C4811 1.428 . S
C4817 N4816 1.351 . S
C4817 C4818 1.434 . S
C4818 C4809 1.429 . S
C4818 N4815 1.350 . S
C4818 C4817 1.434 . S
C4819 C4820 1.369 . S
C4819 C4821 1.419 . S
C4819 H4823 0.930 . S
C4820 C4819 1.369 . S
C4820 C4829 1.429 . S
C4821 C4819 1.419 . S
C4821 C4822 1.363 . S
C4821 H4824 0.929 . S
C4822 C4821 1.363 . S
C4822 C4828 1.428 . S
H4823 C4819 0.930 . S
H4824 C4821 0.929 . S
S4825 N4826 1.613 . S
S4825 N4827 1.610 . S
N4826 S4825 1.613 . S
N4826 C4829 1.350 . S
N4827 S4825 1.610 . S
N4827 C4828 1.351 . S
C4828 C4822 1.428 . S
C4828 N4827 1.351 . S
C4828 C4829 1.434 . S
C4829 C4820 1.429 . S
C4829 N4826 1.350 . S
C4829 C4828 1.434 . S
C4830 C4831 1.369 . S
C4830 C4832 1.419 . S
C4830 H4834 0.930 . S
C4831 C4830 1.369 . S
C4831 C4840 1.429 . S
C4832 C4830 1.419 . S
C4832 C4833 1.363 . S
C4832 H4835 0.929 . S
C4833 C4832 1.363 . S
C4833 C4839 1.428 . S
H4834 C4830 0.930 . S
H4835 C4832 0.929 . S
S4836 N4837 1.613 . S
S4836 N4838 1.610 . S
N4837 S4836 1.613 . S
N4837 C4840 1.350 . S
N4838 S4836 1.610 . S
N4838 C4839 1.351 . S
C4839 C4833 1.428 . S
C4839 N4838 1.351 . S
C4839 C4840 1.434 . S
C4840 C4831 1.429 . S
C4840 N4837 1.350 . S
C4840 C4839 1.434 . S
C4841 C4842 1.369 . S
C4841 C4843 1.419 . S
C4841 H4845 0.930 . S
C4842 C4841 1.369 . S
C4842 C4851 1.429 . S
C4843 C4841 1.419 . S
C4843 C4844 1.363 . S
C4843 H4846 0.929 . S
C4844 C4843 1.363 . S
C4844 C4850 1.428 . S
H4845 C4841 0.930 . S
H4846 C4843 0.929 . S
S4847 N4848 1.613 . S
S4847 N4849 1.610 . S
N4848 S4847 1.613 . S
N4848 C4851 1.350 . S
N4849 S4847 1.610 . S
N4849 C4850 1.351 . S
C4850 C4844 1.428 . S
C4850 N4849 1.351 . S
C4850 C4851 1.434 . S
C4851 C4842 1.429 . S
C4851 N4848 1.350 . S
C4851 C4850 1.434 . S
C4852 C4853 1.369 . S
C4852 C4854 1.419 . S
C4852 H4856 0.930 . S
C4853 C4852 1.369 . S
C4853 C4862 1.429 . S
C4854 C4852 1.419 . S
C4854 C4855 1.363 . S
C4854 H4857 0.929 . S
C4855 C4854 1.363 . S
C4855 C4861 1.428 . S
H4856 C4852 0.930 . S
H4857 C4854 0.929 . S
S4858 N4859 1.613 . S
S4858 N4860 1.610 . S
N4859 S4858 1.613 . S
N4859 C4862 1.350 . S
N4860 S4858 1.610 . S
N4860 C4861 1.351 . S
C4861 C4855 1.428 . S
C4861 N4860 1.351 . S
C4861 C4862 1.434 . S
C4862 C4853 1.429 . S
C4862 N4859 1.350 . S
C4862 C4861 1.434 . S
C4863 C4864 1.369 . S
C4863 C4865 1.419 . S
C4863 H4867 0.930 . S
C4864 C4863 1.369 . S
C4864 C4873 1.429 . S
C4865 C4863 1.419 . S
C4865 C4866 1.363 . S
C4865 H4868 0.929 . S
C4866 C4865 1.363 . S
C4866 C4872 1.428 . S
H4867 C4863 0.930 . S
H4868 C4865 0.929 . S
S4869 N4870 1.613 . S
S4869 N4871 1.610 . S
N4870 S4869 1.613 . S
N4870 C4873 1.350 . S
N4871 S4869 1.610 . S
N4871 C4872 1.351 . S
C4872 C4866 1.428 . S
C4872 N4871 1.351 . S
C4872 C4873 1.434 . S
C4873 C4864 1.429 . S
C4873 N4870 1.350 . S
C4873 C4872 1.434 . S
C4874 C4875 1.369 . S
C4874 C4876 1.419 . S
C4874 H4878 0.930 . S
C4875 C4874 1.369 . S
C4875 C4884 1.429 . S
C4876 C4874 1.419 . S
C4876 C4877 1.363 . S
C4876 H4879 0.929 . S
C4877 C4876 1.363 . S
C4877 C4883 1.428 . S
H4878 C4874 0.930 . S
H4879 C4876 0.929 . S
S4880 N4881 1.613 . S
S4880 N4882 1.610 . S
N4881 S4880 1.613 . S
N4881 C4884 1.350 . S
N4882 S4880 1.610 . S
N4882 C4883 1.351 . S
C4883 C4877 1.428 . S
C4883 N4882 1.351 . S
C4883 C4884 1.434 . S
C4884 C4875 1.429 . S
C4884 N4881 1.350 . S
C4884 C4883 1.434 . S
C4885 C4886 1.369 . S
C4885 C4887 1.419 . S
C4885 H4889 0.930 . S
C4886 C4885 1.369 . S
C4886 C4895 1.429 . S
C4887 C4885 1.419 . S
C4887 C4888 1.363 . S
C4887 H4890 0.929 . S
C4888 C4887 1.363 . S
C4888 C4894 1.428 . S
H4889 C4885 0.930 . S
H4890 C4887 0.929 . S
S4891 N4892 1.613 . S
S4891 N4893 1.610 . S
N4892 S4891 1.613 . S
N4892 C4895 1.350 . S
N4893 S4891 1.610 . S
N4893 C4894 1.351 . S
C4894 C4888 1.428 . S
C4894 N4893 1.351 . S
C4894 C4895 1.434 . S
C4895 C4886 1.429 . S
C4895 N4892 1.350 . S
C4895 C4894 1.434 . S
C4896 C4897 1.369 . S
C4896 C4898 1.419 . S
C4896 H4900 0.930 . S
C4897 C4896 1.369 . S
C4897 C4906 1.429 . S
C4898 C4896 1.419 . S
C4898 C4899 1.363 . S
C4898 H4901 0.929 . S
C4899 C4898 1.363 . S
C4899 C4905 1.428 . S
H4900 C4896 0.930 . S
H4901 C4898 0.929 . S
S4902 N4903 1.613 . S
S4902 N4904 1.610 . S
N4903 S4902 1.613 . S
N4903 C4906 1.350 . S
N4904 S4902 1.610 . S
N4904 C4905 1.351 . S
C4905 C4899 1.428 . S
C4905 N4904 1.351 . S
C4905 C4906 1.434 . S
C4906 C4897 1.429 . S
C4906 N4903 1.350 . S
C4906 C4905 1.434 . S
C4907 C4908 1.369 . S
C4907 C4909 1.419 . S
C4907 H4911 0.930 . S
C4908 C4907 1.369 . S
C4908 C4917 1.429 . S
C4909 C4907 1.419 . S
C4909 C4910 1.363 . S
C4909 H4912 0.929 . S
C4910 C4909 1.363 . S
C4910 C4916 1.428 . S
H4911 C4907 0.930 . S
H4912 C4909 0.929 . S
S4913 N4914 1.613 . S
S4913 N4915 1.610 . S
N4914 S4913 1.613 . S
N4914 C4917 1.350 . S
N4915 S4913 1.610 . S
N4915 C4916 1.351 . S
C4916 C4910 1.428 . S
C4916 N4915 1.351 . S
C4916 C4917 1.434 . S
C4917 C4908 1.429 . S
C4917 N4914 1.350 . S
C4917 C4916 1.434 . S
C4918 C4919 1.369 . S
C4918 C4920 1.419 . S
C4918 H4922 0.930 . S
C4919 C4918 1.369 . S
C4919 C4928 1.429 . S
C4920 C4918 1.419 . S
C4920 C4921 1.363 . S
C4920 H4923 0.929 . S
C4921 C4920 1.363 . S
C4921 C4927 1.428 . S
H4922 C4918 0.930 . S
H4923 C4920 0.929 . S
S4924 N4925 1.613 . S
S4924 N4926 1.610 . S
N4925 S4924 1.613 . S
N4925 C4928 1.350 . S
N4926 S4924 1.610 . S
N4926 C4927 1.351 . S
C4927 C4921 1.428 . S
C4927 N4926 1.351 . S
C4927 C4928 1.434 . S
C4928 C4919 1.429 . S
C4928 N4925 1.350 . S
C4928 C4927 1.434 . S
C4929 C4930 1.369 . S
C4929 C4931 1.419 . S
C4929 H4933 0.930 . S
C4930 C4929 1.369 . S
C4930 C4939 1.429 . S
C4931 C4929 1.419 . S
C4931 C4932 1.363 . S
C4931 H4934 0.929 . S
C4932 C4931 1.363 . S
C4932 C4938 1.428 . S
H4933 C4929 0.930 . S
H4934 C4931 0.929 . S
S4935 N4936 1.613 . S
S4935 N4937 1.610 . S
N4936 S4935 1.613 . S
N4936 C4939 1.350 . S
N4937 S4935 1.610 . S
N4937 C4938 1.351 . S
C4938 C4932 1.428 . S
C4938 N4937 1.351 . S
C4938 C4939 1.434 . S
C4939 C4930 1.429 . S
C4939 N4936 1.350 . S
C4939 C4938 1.434 . S
C4940 C4941 1.369 . S
C4940 C4942 1.419 . S
C4940 H4944 0.930 . S
C4941 C4940 1.369 . S
C4941 C4950 1.429 . S
C4942 C4940 1.419 . S
C4942 C4943 1.363 . S
C4942 H4945 0.929 . S
C4943 C4942 1.363 . S
C4943 C4949 1.428 . S
H4944 C4940 0.930 . S
H4945 C4942 0.929 . S
S4946 N4947 1.613 . S
S4946 N4948 1.610 . S
N4947 S4946 1.613 . S
N4947 C4950 1.350 . S
N4948 S4946 1.610 . S
N4948 C4949 1.351 . S
C4949 C4943 1.428 . S
C4949 N4948 1.351 . S
C4949 C4950 1.434 . S
C4950 C4941 1.429 . S
C4950 N4947 1.350 . S
C4950 C4949 1.434 . S
C4951 C4952 1.369 . S
C4951 C4953 1.419 . S
C4951 H4955 0.930 . S
C4952 C4951 1.369 . S
C4952 C4961 1.429 . S
C4953 C4951 1.419 . S
C4953 C4954 1.363 . S
C4953 H4956 0.929 . S
C4954 C4953 1.363 . S
C4954 C4960 1.428 . S
H4955 C4951 0.930 . S
H4956 C4953 0.929 . S
S4957 N4958 1.613 . S
S4957 N4959 1.610 . S
N4958 S4957 1.613 . S
N4958 C4961 1.350 . S
N4959 S4957 1.610 . S
N4959 C4960 1.351 . S
C4960 C4954 1.428 . S
C4960 N4959 1.351 . S
C4960 C4961 1.434 . S
C4961 C4952 1.429 . S
C4961 N4958 1.350 . S
C4961 C4960 1.434 . S
C4962 C4963 1.369 . S
C4962 C4964 1.419 . S
C4962 H4966 0.930 . S
C4963 C4962 1.369 . S
C4963 C4972 1.429 . S
C4964 C4962 1.419 . S
C4964 C4965 1.363 . S
C4964 H4967 0.929 . S
C4965 C4964 1.363 . S
C4965 C4971 1.428 . S
H4966 C4962 0.930 . S
H4967 C4964 0.929 . S
S4968 N4969 1.613 . S
S4968 N4970 1.610 . S
N4969 S4968 1.613 . S
N4969 C4972 1.350 . S
N4970 S4968 1.610 . S
N4970 C4971 1.351 . S
C4971 C4965 1.428 . S
C4971 N4970 1.351 . S
C4971 C4972 1.434 . S
C4972 C4963 1.429 . S
C4972 N4969 1.350 . S
C4972 C4971 1.434 . S
C4973 C4974 1.369 . S
C4973 C4975 1.419 . S
C4973 H4977 0.930 . S
C4974 C4973 1.369 . S
C4974 C4983 1.429 . S
C4975 C4973 1.419 . S
C4975 C4976 1.363 . S
C4975 H4978 0.929 . S
C4976 C4975 1.363 . S
C4976 C4982 1.428 . S
H4977 C4973 0.930 . S
H4978 C4975 0.929 . S
S4979 N4980 1.613 . S
S4979 N4981 1.610 . S
N4980 S4979 1.613 . S
N4980 C4983 1.350 . S
N4981 S4979 1.610 . S
N4981 C4982 1.351 . S
C4982 C4976 1.428 . S
C4982 N4981 1.351 . S
C4982 C4983 1.434 . S
C4983 C4974 1.429 . S
C4983 N4980 1.350 . S
C4983 C4982 1.434 . S
C4984 C4985 1.369 . S
C4984 C4986 1.419 . S
C4984 H4988 0.930 . S
C4985 C4984 1.369 . S
C4985 C4994 1.429 . S
C4986 C4984 1.419 . S
C4986 C4987 1.363 . S
C4986 H4989 0.929 . S
C4987 C4986 1.363 . S
C4987 C4993 1.428 . S
H4988 C4984 0.930 . S
H4989 C4986 0.929 . S
S4990 N4991 1.613 . S
S4990 N4992 1.610 . S
N4991 S4990 1.613 . S
N4991 C4994 1.350 . S
N4992 S4990 1.610 . S
N4992 C4993 1.351 . S
C4993 C4987 1.428 . S
C4993 N4992 1.351 . S
C4993 C4994 1.434 . S
C4994 C4985 1.429 . S
C4994 N4991 1.350 . S
C4994 C4993 1.434 . S
C4995 C4996 1.369 . S
C4995 C4997 1.419 . S
C4995 H4999 0.930 . S
C4996 C4995 1.369 . S
C4996 C5005 1.429 . S
C4997 C4995 1.419 . S
C4997 C4998 1.363 . S
C4997 H5000 0.929 . S
C4998 C4997 1.363 . S
C4998 C5004 1.428 . S
H4999 C4995 0.930 . S
H5000 C4997 0.929 . S
S5001 N5002 1.613 . S
S5001 N5003 1.610 . S
N5002 S5001 1.613 . S
N5002 C5005 1.350 . S
N5003 S5001 1.610 . S
N5003 C5004 1.351 . S
C5004 C4998 1.428 . S
C5004 N5003 1.351 . S
C5004 C5005 1.434 . S
C5005 C4996 1.429 . S
C5005 N5002 1.350 . S
C5005 C5004 1.434 . S
C5006 C5007 1.369 . S
C5006 C5008 1.419 . S
C5006 H5010 0.930 . S
C5007 C5006 1.369 . S
C5007 C5016 1.429 . S
C5008 C5006 1.419 . S
C5008 C5009 1.363 . S
C5008 H5011 0.929 . S
C5009 C5008 1.363 . S
C5009 C5015 1.428 . S
H5010 C5006 0.930 . S
H5011 C5008 0.929 . S
S5012 N5013 1.613 . S
S5012 N5014 1.610 . S
N5013 S5012 1.613 . S
N5013 C5016 1.350 . S
N5014 S5012 1.610 . S
N5014 C5015 1.351 . S
C5015 C5009 1.428 . S
C5015 N5014 1.351 . S
C5015 C5016 1.434 . S
C5016 C5007 1.429 . S
C5016 N5013 1.350 . S
C5016 C5015 1.434 . S
C5017 C5018 1.369 . S
C5017 C5019 1.419 . S
C5017 H5021 0.930 . S
C5018 C5017 1.369 . S
C5018 C5027 1.429 . S
C5019 C5017 1.419 . S
C5019 C5020 1.363 . S
C5019 H5022 0.929 . S
C5020 C5019 1.363 . S
C5020 C5026 1.428 . S
H5021 C5017 0.930 . S
H5022 C5019 0.929 . S
S5023 N5024 1.613 . S
S5023 N5025 1.610 . S
N5024 S5023 1.613 . S
N5024 C5027 1.350 . S
N5025 S5023 1.610 . S
N5025 C5026 1.351 . S
C5026 C5020 1.428 . S
C5026 N5025 1.351 . S
C5026 C5027 1.434 . S
C5027 C5018 1.429 . S
C5027 N5024 1.350 . S
C5027 C5026 1.434 . S
C5028 C5029 1.369 . S
C5028 C5030 1.419 . S
C5028 H5032 0.930 . S
C5029 C5028 1.369 . S
C5029 C5038 1.429 . S
C5030 C5028 1.419 . S
C5030 C5031 1.363 . S
C5030 H5033 0.929 . S
C5031 C5030 1.363 . S
C5031 C5037 1.428 . S
H5032 C5028 0.930 . S
H5033 C5030 0.929 . S
S5034 N5035 1.613 . S
S5034 N5036 1.610 . S
N5035 S5034 1.613 . S
N5035 C5038 1.350 . S
N5036 S5034 1.610 . S
N5036 C5037 1.351 . S
C5037 C5031 1.428 . S
C5037 N5036 1.351 . S
C5037 C5038 1.434 . S
C5038 C5029 1.429 . S
C5038 N5035 1.350 . S
C5038 C5037 1.434 . S
C5039 C5040 1.369 . S
C5039 C5041 1.419 . S
C5039 H5043 0.930 . S
C5040 C5039 1.369 . S
C5040 C5049 1.429 . S
C5041 C5039 1.419 . S
C5041 C5042 1.363 . S
C5041 H5044 0.929 . S
C5042 C5041 1.363 . S
C5042 C5048 1.428 . S
H5043 C5039 0.930 . S
H5044 C5041 0.929 . S
S5045 N5046 1.613 . S
S5045 N5047 1.610 . S
N5046 S5045 1.613 . S
N5046 C5049 1.350 . S
N5047 S5045 1.610 . S
N5047 C5048 1.351 . S
C5048 C5042 1.428 . S
C5048 N5047 1.351 . S
C5048 C5049 1.434 . S
C5049 C5040 1.429 . S
C5049 N5046 1.350 . S
C5049 C5048 1.434 . S
C5050 C5051 1.369 . S
C5050 C5052 1.419 . S
C5050 H5054 0.930 . S
C5051 C5050 1.369 . S
C5051 C5060 1.429 . S
C5052 C5050 1.419 . S
C5052 C5053 1.363 . S
C5052 H5055 0.929 . S
C5053 C5052 1.363 . S
C5053 C5059 1.428 . S
H5054 C5050 0.930 . S
H5055 C5052 0.929 . S
S5056 N5057 1.613 . S
S5056 N5058 1.610 . S
N5057 S5056 1.613 . S
N5057 C5060 1.350 . S
N5058 S5056 1.610 . S
N5058 C5059 1.351 . S
C5059 C5053 1.428 . S
C5059 N5058 1.351 . S
C5059 C5060 1.434 . S
C5060 C5051 1.429 . S
C5060 N5057 1.350 . S
C5060 C5059 1.434 . S
C5061 C5062 1.369 . S
C5061 C5063 1.419 . S
C5061 H5065 0.930 . S
C5062 C5061 1.369 . S
C5062 C5071 1.429 . S
C5063 C5061 1.419 . S
C5063 C5064 1.363 . S
C5063 H5066 0.929 . S
C5064 C5063 1.363 . S
C5064 C5070 1.428 . S
H5065 C5061 0.930 . S
H5066 C5063 0.929 . S
S5067 N5068 1.613 . S
S5067 N5069 1.610 . S
N5068 S5067 1.613 . S
N5068 C5071 1.350 . S
N5069 S5067 1.610 . S
N5069 C5070 1.351 . S
C5070 C5064 1.428 . S
C5070 N5069 1.351 . S
C5070 C5071 1.434 . S
C5071 C5062 1.429 . S
C5071 N5068 1.350 . S
C5071 C5070 1.434 . S
C4019 C1309 1.369 . S
C4017 C21 1.629 . S
C4030 C1449 1.264 . S
C4028 C42 1.568 . S
C4039 C82 1.550 . S
C4041 C1509 1.148 . S
C4052 C1633 0.976 . S
C4050 C135 1.689 . S
C4061 C175 1.386 . S
C4063 C1623 1.056 . S
C4072 C221 1.696 . S
C4074 C1335 1.297 . S
C4083 C255 1.553 . S
C4085 C1423 1.293 . S
C4096 C1519 0.888 . S
C4094 C301 1.590 . S
C4107 C1765 1.417 . S
C4105 C15 1.615 . S
C4116 C55 1.500 . S
C4118 C1879 1.217 . S
C4127 C101 1.687 . S
C4129 C2019 1.343 . S
C4140 C2107 1.301 . S
C4138 C141 1.521 . S
C4149 C162 1.557 . S
C4151 C2203 0.863 . S
C4162 C2307 1.142 . S
C4160 C215 1.526 . S
C4171 C261 1.527 . S
C4173 C2449 1.344 . S
C4184 C2535 1.119 . S
C4182 C282 1.458 . S
C4193 C2 1.746 . S
C4195 C2133 1.387 . S
C4204 C181 1.528 . S
C4206 C2317 0.905 . S
C4217 C2475 1.272 . S
C4215 C202 1.655 . S
C4226 C242 1.635 . S
C4228 C2545 0.950 . S
C4239 C2193 1.055 . S
C4237 C295 1.473 . S
C4250 C1905 1.261 . S
C4248 C95 1.658 . S
C4259 C122 1.506 . S
C4261 C1993 1.337 . S
C4272 C1791 1.185 . S
C4270 C61 1.518 . S
C4283 C2677 1.324 . S
C4281 C341 1.583 . S
C4292 C362 1.554 . S
C4294 C2773 0.876 . S
C4303 C402 1.534 . S
C4305 C2877 1.162 . S
C4316 C3001 0.939 . S
C4314 C455 1.591 . S
C4325 C495 1.422 . S
C4327 C2991 1.047 . S
C4336 C541 1.711 . S
C4338 C2703 1.316 . S
C4347 C575 1.464 . S
C4349 C2763 1.132 . S
C4358 C621 1.600 . S
C4360 C2887 0.967 . S
C4371 C2247 1.337 . S
C4369 C335 1.645 . S
C4380 C375 1.451 . S
C4382 C3105 1.090 . S
C4393 C2421 1.121 . S
C4391 C421 1.551 . S
C4402 C461 1.428 . S
C4404 C3219 1.132 . S
C4413 C482 1.527 . S
C4415 C1737 1.083 . S
C4426 C3361 1.321 . S
C4424 C535 1.557 . S
C4435 C581 1.549 . S
C4437 C1975 0.868 . S
C4448 C3447 1.166 . S
C4446 C602 1.464 . S
C4457 C322 1.710 . S
C4459 C3229 0.957 . S
C4470 C3387 1.207 . S
C4468 C501 1.601 . S
C4479 C522 1.587 . S
C4481 C1965 1.154 . S
C4492 C3457 0.985 . S
C4490 C562 1.582 . S
C4501 C615 1.569 . S
C4503 C1747 0.849 . S
C4512 C415 1.633 . S
C4514 C3115 0.931 . S
C4523 C442 1.525 . S
C4525 C2431 0.852 . S
C4534 C381 1.445 . S
C4536 C2221 1.249 . S
C4545 C661 1.562 . S
C4547 C2905 1.306 . S
C4558 C3045 1.212 . S
C4556 C682 1.520 . S
C4567 C722 1.540 . S
C4569 C2649 1.151 . S
C4578 C775 1.723 . S
C4580 C2817 1.359 . S
C4589 C815 1.420 . S
C4591 C2791 1.185 . S
C4600 C861 1.678 . S
C4602 C2931 1.270 . S
C4613 C3019 1.232 . S
C4611 C895 1.519 . S
C4622 C941 1.625 . S
C4624 C2659 0.918 . S
C4635 C3561 1.103 . S
C4633 C655 1.520 . S
C4644 C695 1.473 . S
C4646 C2335 1.227 . S
C4657 C3729 1.331 . S
C4655 C741 1.696 . S
C4666 C781 1.548 . S
C4668 C2563 1.344 . S
C4677 C802 1.584 . S
C4679 C3799 0.892 . S
C4688 C855 1.516 . S
C4690 C1851 1.103 . S
C4701 C3913 0.897 . S
C4699 C901 1.545 . S
C4710 C922 1.501 . S
C4712 C2079 1.152 . S
C4723 C2589 1.327 . S
C4721 C642 1.677 . S
C4734 C1861 0.909 . S
C4732 C821 1.557 . S
C4743 C842 1.593 . S
C4745 C3903 1.144 . S
C4754 C882 1.608 . S
C4756 C2089 0.964 . S
C4767 C3789 1.102 . S
C4765 C935 1.510 . S
C4778 C2361 1.251 . S
C4776 C735 1.645 . S
C4789 C3703 1.372 . S
C4787 C762 1.543 . S
C4800 C3571 0.901 . S
C4798 C701 1.552 . S
C4809 C981 1.566 . S
C4811 C1537 1.319 . S
C4820 C1002 1.563 . S
C4822 C1677 1.304 . S
C4833 C1281 1.175 . S
C4831 C1042 1.532 . S
C4844 C1405 0.962 . S
C4842 C1095 1.682 . S
C4855 C1395 1.083 . S
C4853 C1135 1.457 . S
C4866 C1563 1.307 . S
C4864 C1181 1.699 . S
C4877 C1651 1.237 . S
C4875 C1215 1.512 . S
C4886 C1261 1.687 . S
C4888 C1291 0.987 . S
C4897 C975 1.643 . S
C4899 C3843 1.342 . S
C4910 C3333 1.127 . S
C4908 C1015 1.481 . S
C4921 C3957 1.236 . S
C4919 C1061 1.626 . S
C4932 C3475 1.291 . S
C4930 C1101 1.509 . S
C4941 C1122 1.503 . S
C4943 C3589 1.256 . S
C4954 C3133 1.306 . S
C4952 C1175 1.558 . S
C4965 C3685 0.887 . S
C4963 C1221 1.587 . S
C4974 C1242 1.538 . S
C4976 C3247 1.309 . S
C4987 C3501 1.284 . S
C4985 C962 1.663 . S
C4998 C3159 1.212 . S
C4996 C1141 1.610 . S
C5009 C3675 1.145 . S
C5007 C1162 1.585 . S
C5018 C1202 1.605 . S
C5020 C3273 1.275 . S
C5029 C1255 1.687 . S
C5031 C3615 1.394 . S
C5040 C1055 1.611 . S
C5042 C3343 0.940 . S
C5051 C1082 1.533 . S
C5053 C3931 1.360 . S
C5064 C3817 1.281 . S
C5062 C1021 1.459 . S
