# Generated by pormake.
# Topology anh, (6,3)-cn, num edge types: 1
# Building blocks:
#     Node 0, Type 0, BuildingBlock: MIFKUJ_clean_sbu_0, # of connection points: 6
#     Node 1, Type 0, BuildingBlock: MIFKUJ_clean_sbu_0, # of connection points: 6
#     Node 2, Type 0, BuildingBlock: MIFKUJ_clean_sbu_0, # of connection points: 6
#     Node 3, Type 1, BuildingBlock: MIDCAF_clean_linker_0, # of connection points: 3
#     Node 4, Type 1, BuildingBlock: MIDCAF_clean_linker_0, # of connection points: 3
#     Node 5, Type 1, BuildingBlock: MIDCAF_clean_linker_0, # of connection points: 3
#     Node 6, Type 1, BuildingBlock: MIDCAF_clean_linker_0, # of connection points: 3
#     Node 7, Type 1, BuildingBlock: MIDCAF_clean_linker_0, # of connection points: 3
#     Node 8, Type 1, BuildingBlock: MIDCAF_clean_linker_0, # of connection points: 3
#     Edge 9, Type (0, 1), BuildingBlock: UVAHIK_clean_linker_0, # of connection points: 2
#     Edge 10, Type (0, 1), BuildingBlock: UVAHIK_clean_linker_0, # of connection points: 2
#     Edge 11, Type (0, 1), BuildingBlock: UVAHIK_clean_linker_0, # of connection points: 2
#     Edge 12, Type (0, 1), BuildingBlock: UVAHIK_clean_linker_0, # of connection points: 2
#     Edge 13, Type (0, 1), BuildingBlock: UVAHIK_clean_linker_0, # of connection points: 2
#     Edge 14, Type (0, 1), BuildingBlock: UVAHIK_clean_linker_0, # of connection points: 2
#     Edge 15, Type (0, 1), BuildingBlock: UVAHIK_clean_linker_0, # of connection points: 2
#     Edge 16, Type (0, 1), BuildingBlock: UVAHIK_clean_linker_0, # of connection points: 2
#     Edge 17, Type (0, 1), BuildingBlock: UVAHIK_clean_linker_0, # of connection points: 2
#     Edge 18, Type (0, 1), BuildingBlock: UVAHIK_clean_linker_0, # of connection points: 2
#     Edge 19, Type (0, 1), BuildingBlock: UVAHIK_clean_linker_0, # of connection points: 2
#     Edge 20, Type (0, 1), BuildingBlock: UVAHIK_clean_linker_0, # of connection points: 2
#     Edge 21, Type (0, 1), BuildingBlock: UVAHIK_clean_linker_0, # of connection points: 2
#     Edge 22, Type (0, 1), BuildingBlock: UVAHIK_clean_linker_0, # of connection points: 2
#     Edge 23, Type (0, 1), BuildingBlock: UVAHIK_clean_linker_0, # of connection points: 2
#     Edge 24, Type (0, 1), BuildingBlock: UVAHIK_clean_linker_0, # of connection points: 2
#     Edge 25, Type (0, 1), BuildingBlock: UVAHIK_clean_linker_0, # of connection points: 2
#     Edge 26, Type (0, 1), BuildingBlock: UVAHIK_clean_linker_0, # of connection points: 2
# Relax obj value: 0.136
# Max RMSD: 0.183
# Mean RMSD: 0.141
data_MOF--net-anh--node1-MIFKUJ_clean_sbu_0--node2-MIDCAF_clean_linker_0--edge1-UVAHIK_clean_linker_0
_symmetry_space_group_name_H-M    P1
_symmetry_Int_Tables_number       1
_symmetry_cell_setting            triclinic
loop_
_symmetry_equiv_pos_as_xyz
'x, y, z'
_cell_length_a     45.269359
_cell_length_b     45.233027
_cell_length_c     79.141322
_cell_angle_alpha  93.759474
_cell_angle_beta   90.779357
_cell_angle_gamma 119.9012
loop_
_atom_site_label
_atom_site_type_symbol
_atom_site_fract_x
_atom_site_fract_y
_atom_site_fract_z
_atom_type_partial_charge
Zn0 Zn 0.04061 0.55766 0.16446 0.0
Zn1 Zn 0.97346 0.48655 0.16474 0.0
C2 C 0.09494 0.54632 0.17467 0.0
O3 O 0.09554 0.56573 0.18793 0.0
C4 C 0.92547 0.50509 0.15388 0.0
O5 O 0.922 0.48242 0.14159 0.0
O6 O 0.07186 0.60765 0.16258 0.0
O7 O 0.00962 0.54313 0.14331 0.0
O8 O 0.99344 0.48855 0.14213 0.0
C9 C 0.08684 0.61497 0.14872 0.0
O10 O 0.08116 0.59002 0.13732 0.0
O11 O 0.07208 0.53757 0.16283 0.0
C12 C 0.91791 0.43548 0.17907 0.0
O13 O 0.92772 0.46197 0.19019 0.0
O14 O 0.93535 0.43878 0.16617 0.0
O15 O 0.0035 0.49695 0.18573 0.0
O16 O 0.02126 0.55198 0.18771 0.0
O17 O 0.94848 0.51371 0.16563 0.0
C18 C 1.0012 0.51522 0.13463 0.0
C19 C 0.01356 0.52481 0.19478 0.0
Zn20 Zn 0.53068 0.04613 0.49965 0.0
Zn21 Zn 0.53911 0.98111 0.50179 0.0
C22 C 0.59976 0.0991 0.50835 0.0
O23 O 0.58473 0.10341 0.5216 0.0
C24 C 0.47377 0.92452 0.49094 0.0
O25 O 0.49263 0.92242 0.47896 0.0
O26 O 0.51581 0.08063 0.49696 0.0
O27 O 0.50819 0.01114 0.47975 0.0
O28 O 0.55059 0.00086 0.47915 0.0
C29 C 0.52049 0.09318 0.48266 0.0
O30 O 0.5325 0.08147 0.47057 0.0
O31 O 0.5821 0.07425 0.4973 0.0
C32 C 0.55171 0.93246 0.5155 0.0
O33 O 0.53395 0.93682 0.52741 0.0
O34 O 0.55832 0.9498 0.50268 0.0
O35 O 0.55712 0.0122 0.52337 0.0
O36 O 0.52018 0.03035 0.52317 0.0
O37 O 0.48772 0.94926 0.50241 0.0
C38 C 0.52735 0.00334 0.47136 0.0
C39 C 0.53961 0.02288 0.53132 0.0
Zn40 Zn 0.5598 0.52963 0.8334 0.0
Zn41 Zn 0.48699 0.51494 0.82944 0.0
C42 C 0.55076 0.46545 0.84294 0.0
O43 O 0.56856 0.48546 0.8564 0.0
C44 C 0.49966 0.57924 0.81919 0.0
O45 O 0.47939 0.55797 0.80662 0.0
O46 O 0.61063 0.55135 0.83393 0.0
O47 O 0.54898 0.54431 0.81189 0.0
O48 O 0.49893 0.4982 0.80777 0.0
C49 C 0.62223 0.5444 0.82065 0.0
O50 O 0.60066 0.52389 0.80826 0.0
O51 O 0.54235 0.47823 0.8312 0.0
C52 C 0.42804 0.51421 0.83862 0.0
O53 O 0.45 0.5333 0.85119 0.0
O54 O 0.43725 0.49986 0.82722 0.0
O55 O 0.49452 0.49931 0.85162 0.0
O56 O 0.54665 0.54302 0.85563 0.0
O57 O 0.50912 0.56726 0.83092 0.0
C58 C 0.52604 0.52094 0.8018 0.0
C59 C 0.51928 0.52068 0.86163 0.0
C60 C 0.38893 0.91045 0.19187 0.0
C61 C 0.38252 0.91949 0.17616 0.0
C62 C 0.40283 0.95322 0.17184 0.0
C63 C 0.42926 0.97746 0.18304 0.0
H64 H 0.52446 0.06744 0.18422 0.0
H65 H 0.57097 0.12076 0.17513 0.0
H66 H 0.60813 0.15511 0.22731 0.0
H67 H 0.56182 0.10255 0.23643 0.0
H68 H 0.54354 0.04434 0.26163 0.0
H69 H 0.54598 0.03359 0.29119 0.0
H70 H 0.44261 0.94879 0.28515 0.0
H71 H 0.43993 0.95947 0.25545 0.0
H72 H 0.4191 0.92677 0.21514 0.0
H73 H 0.37328 0.88473 0.19564 0.0
H74 H 0.39837 0.96078 0.15979 0.0
H75 H 0.44452 0.00331 0.17938 0.0
N76 N 0.48719 0.0244 0.20569 0.0
N77 N 0.51379 0.04044 0.23296 0.0
N78 N 0.46443 0.9871 0.22725 0.0
C79 C 0.51267 0.04777 0.21669 0.0
C80 C 0.4898 0.01024 0.23836 0.0
C81 C 0.46298 0.99399 0.21089 0.0
C82 C 0.53949 0.08061 0.21105 0.0
C83 C 0.54236 0.08653 0.19376 0.0
C84 C 0.56903 0.11696 0.18853 0.0
C85 C 0.59307 0.14209 0.20051 0.0
C86 C 0.58969 0.13646 0.21779 0.0
C87 C 0.56325 0.10611 0.223 0.0
C88 C 0.49148 0.00284 0.25617 0.0
C89 C 0.5213 0.02331 0.26653 0.0
C90 C 0.52284 0.01702 0.28345 0.0
C91 C 0.49451 0.99033 0.29043 0.0
C92 C 0.46475 0.96966 0.28009 0.0
C93 C 0.4633 0.97571 0.26308 0.0
C94 C 0.43547 0.96845 0.19884 0.0
C95 C 0.41502 0.93466 0.20311 0.0
C96 C 0.60725 0.43216 0.52782 0.0
C97 C 0.59224 0.42745 0.5115 0.0
C98 C 0.58541 0.45246 0.50601 0.0
C99 C 0.59312 0.48149 0.51677 0.0
H100 H 0.60207 0.5802 0.51951 0.0
H101 H 0.59897 0.63015 0.51173 0.0
H102 H 0.64128 0.68051 0.56152 0.0
H103 H 0.64396 0.63097 0.56937 0.0
H104 H 0.63399 0.58703 0.59938 0.0
H105 H 0.62569 0.57967 0.62936 0.0
H106 H 0.59158 0.472 0.61986 0.0
H107 H 0.59937 0.47915 0.58962 0.0
H108 H 0.62548 0.46326 0.55124 0.0
H109 H 0.61239 0.41309 0.53248 0.0
H110 H 0.57389 0.4494 0.49346 0.0
H111 H 0.58713 0.50014 0.51233 0.0
N112 N 0.61584 0.54367 0.53966 0.0
N113 N 0.62197 0.56664 0.56776 0.0
N114 N 0.61406 0.51171 0.56228 0.0
C115 C 0.62075 0.56998 0.5509 0.0
C116 C 0.61853 0.53765 0.57359 0.0
C117 C 0.61289 0.51458 0.54532 0.0
C118 C 0.62271 0.60136 0.54516 0.0
C119 C 0.61111 0.60213 0.5287 0.0
C120 C 0.60939 0.63072 0.52423 0.0
C121 C 0.6193 0.65893 0.53613 0.0
C122 C 0.63266 0.6588 0.55222 0.0
C123 C 0.63428 0.63038 0.55669 0.0
C124 C 0.61708 0.53363 0.59203 0.0
C125 C 0.62501 0.56179 0.60363 0.0
C126 C 0.62049 0.55764 0.62088 0.0
C127 C 0.60789 0.52523 0.62697 0.0
C128 C 0.60099 0.49722 0.61549 0.0
C129 C 0.60568 0.5014 0.59819 0.0
C130 C 0.60717 0.48559 0.5333 0.0
C131 C 0.61448 0.46079 0.53862 0.0
C132 C 0.93934 0.57983 0.86819 0.0
C133 C 0.94362 0.58836 0.8513 0.0
C134 C 0.97049 0.58833 0.84264 0.0
C135 C 0.99273 0.58008 0.85078 0.0
H136 H 0.06739 0.55086 0.84238 0.0
H137 H 0.11422 0.54896 0.82815 0.0
H138 H 0.16395 0.55909 0.87685 0.0
H139 H 0.11766 0.561 0.89105 0.0
H140 H 0.0798 0.55847 0.92474 0.0
H141 H 0.07404 0.54941 0.95487 0.0
H142 H 0.96721 0.51823 0.94955 0.0
H143 H 0.97288 0.52773 0.91939 0.0
H144 H 0.95722 0.56509 0.88931 0.0
H145 H 0.91842 0.57885 0.8751 0.0
H146 H 0.97446 0.59491 0.82963 0.0
H147 H 0.01328 0.58045 0.84378 0.0
N148 N 0.03808 0.5629 0.86834 0.0
N149 N 0.0566 0.55036 0.89329 0.0
N150 N 0.0084 0.55677 0.89314 0.0
C151 C 0.06041 0.5564 0.87666 0.0
C152 C 0.03056 0.5503 0.90158 0.0
C153 C 0.01208 0.5633 0.87655 0.0
C154 C 0.0888 0.55605 0.86784 0.0
C155 C 0.08844 0.55287 0.85002 0.0
C156 C 0.11508 0.55162 0.84187 0.0
C157 C 0.1427 0.5541 0.85142 0.0
C158 C 0.14316 0.55759 0.86919 0.0
C159 C 0.11648 0.55842 0.87731 0.0
C160 C 0.02681 0.54391 0.9197 0.0
C161 C 0.05504 0.54955 0.92995 0.0
C162 C 0.05183 0.54452 0.94719 0.0
C163 C 0.02021 0.53316 0.95444 0.0
C164 C 0.9918 0.52684 0.94418 0.0
C165 C 0.99513 0.53247 0.92698 0.0
C166 C 0.98844 0.57161 0.86771 0.0
C167 C 0.96147 0.5716 0.8763 0.0
C168 C 0.11772 0.6337 0.46783 0.0
C169 C 0.13527 0.63221 0.48223 0.0
C170 C 0.12191 0.60089 0.48973 0.0
C171 C 0.09251 0.5715 0.48252 0.0
H172 H 0.96965 0.4786 0.48496 0.0
H173 H 0.92079 0.42671 0.49404 0.0
H174 H 0.93229 0.3671 0.45237 0.0
H175 H 0.97956 0.41889 0.44298 0.0
H176 H 0.97857 0.46314 0.40737 0.0
H177 H 0.97628 0.465 0.37669 0.0
H178 H 0.06515 0.56625 0.38134 0.0
H179 H 0.06707 0.56485 0.41193 0.0
H180 H 0.07676 0.60657 0.44915 0.0
H181 H 0.12731 0.65708 0.46153 0.0
H182 H 0.13461 0.5989 0.50093 0.0
H183 H 0.0836 0.54747 0.48813 0.0
N184 N 0.02705 0.51282 0.4654 0.0
N185 N 0.00248 0.48483 0.43848 0.0
N186 N 0.04745 0.54126 0.44068 0.0
C187 C 0.0035 0.48434 0.45564 0.0
C188 C 0.02429 0.51321 0.4309 0.0
C189 C 0.04924 0.54147 0.45783 0.0
C190 C 0.97817 0.45285 0.46316 0.0
C191 C 0.96195 0.45426 0.47795 0.0
C192 C 0.93393 0.42444 0.48314 0.0
C193 C 0.92191 0.39257 0.47375 0.0
C194 C 0.93985 0.39116 0.45962 0.0
C195 C 0.96727 0.42087 0.45431 0.0
C196 C 0.02295 0.51386 0.41219 0.0
C197 C 0.99763 0.48582 0.40187 0.0
C198 C 0.9964 0.48681 0.38425 0.0
C199 C 0.02048 0.51582 0.37655 0.0
C200 C 0.04586 0.54374 0.38686 0.0
C201 C 0.04706 0.5428 0.40444 0.0
C202 C 0.07626 0.57286 0.46757 0.0
C203 C 0.08874 0.60451 0.46062 0.0
C204 C 0.49413 0.10687 0.80261 0.0
C205 C 0.51804 0.13077 0.81508 0.0
C206 C 0.5417 0.12321 0.82259 0.0
C207 C 0.54285 0.0937 0.81689 0.0
H208 H 0.51452 0.97171 0.82366 0.0
H209 H 0.51573 0.92253 0.83433 0.0
H210 H 0.57008 0.91732 0.79085 0.0
H211 H 0.5693 0.96609 0.78044 0.0
H212 H 0.54086 0.97875 0.74518 0.0
H213 H 0.54233 0.97946 0.71445 0.0
H214 H 0.5311 0.06904 0.71753 0.0
H215 H 0.52878 0.06795 0.74815 0.0
H216 H 0.47804 0.06106 0.78648 0.0
H217 H 0.47484 0.1111 0.79688 0.0
H218 H 0.56058 0.14099 0.8322 0.0
H219 H 0.5626 0.08956 0.82212 0.0
N220 N 0.53165 0.02254 0.80241 0.0
N221 N 0.53839 1.00002 0.77601 0.0
N222 N 0.52741 0.0453 0.77718 0.0
C223 C 0.53745 0.99947 0.79316 0.0
C224 C 0.53345 0.02281 0.76791 0.0
C225 C 0.52659 0.04555 0.79431 0.0
C226 C 0.54161 0.97277 0.80114 0.0
C227 C 0.52726 0.9604 0.81659 0.0
C228 C 0.52771 0.93205 0.82262 0.0
C229 C 0.54294 0.91582 0.81344 0.0
C230 C 0.5585 0.92927 0.7984 0.0
C231 C 0.55778 0.95721 0.79234 0.0
C232 C 0.53462 0.02324 0.7492 0.0
C233 C 0.53867 0.99861 0.73933 0.0
C234 C 0.53971 0.99911 0.72169 0.0
C235 C 0.53681 0.0243 0.71351 0.0
C236 C 0.53288 0.04897 0.72338 0.0
C237 C 0.53175 0.04843 0.74099 0.0
C238 C 0.52058 0.07148 0.80349 0.0
C239 C 0.49564 0.07788 0.79678 0.0
C240 C 0.62981 0.55646 0.12916 0.0
C241 C 0.63133 0.54392 0.14472 0.0
C242 C 0.60142 0.52806 0.15379 0.0
C243 C 0.57058 0.52427 0.14719 0.0
H244 H 0.47843 0.55145 0.15347 0.0
H245 H 0.42836 0.55075 0.1656 0.0
H246 H 0.36366 0.47667 0.12508 0.0
H247 H 0.41316 0.47752 0.11304 0.0
H248 H 0.46537 0.53301 0.07643 0.0
H249 H 0.46388 0.53111 0.0454 0.0
H250 H 0.53625 0.49542 0.04456 0.0
H251 H 0.53856 0.49812 0.07558 0.0
H252 H 0.59903 0.56169 0.11029 0.0
H253 H 0.6521 0.56838 0.12169 0.0
H254 H 0.60179 0.51826 0.16586 0.0
H255 H 0.54778 0.51124 0.1542 0.0
N256 N 0.50926 0.52492 0.13175 0.0
N257 N 0.47769 0.51514 0.10605 0.0
N258 N 0.53342 0.52495 0.10561 0.0
C259 C 0.47974 0.51817 0.12328 0.0
C260 C 0.50435 0.51844 0.09714 0.0
C261 C 0.53628 0.52833 0.12283 0.0
C262 C 0.44975 0.51466 0.13227 0.0
C263 C 0.45339 0.53459 0.14739 0.0
C264 C 0.4248 0.53438 0.15423 0.0
C265 C 0.39204 0.5137 0.14627 0.0
C266 C 0.3884 0.49264 0.13162 0.0
C267 C 0.41686 0.49329 0.12467 0.0
C268 C 0.50215 0.51578 0.07841 0.0
C269 C 0.48083 0.5246 0.06962 0.0
C270 C 0.48006 0.52367 0.05192 0.0
C271 C 0.49993 0.5131 0.04271 0.0
C272 C 0.52061 0.50351 0.05144 0.0
C273 C 0.52201 0.50521 0.06915 0.0
C274 C 0.56904 0.53572 0.13128 0.0
C275 C 0.59918 0.55234 0.12253 0.0
C276 C 0.14484 0.54375 0.18697 0.0
C277 C 0.12262 0.5379 0.17296 0.0
C278 C 0.17282 0.5388 0.1852 0.0
C279 C 0.2102 0.49931 0.15604 0.0
H280 H 0.2943 0.56419 0.18145 0.0
C281 C 0.33011 0.48528 0.15297 0.0
C282 C 0.36184 0.51534 0.15236 0.0
C283 C 0.30083 0.4869 0.15679 0.0
C284 C 0.27115 0.54597 0.17415 0.0
H285 H 0.11209 0.5216 0.14613 0.0
H286 H 0.16127 0.51366 0.14292 0.0
H287 H 0.24347 0.56885 0.18489 0.0
H288 H 0.38773 0.57069 0.1556 0.0
H289 H 0.3367 0.57367 0.16202 0.0
H290 H 0.23828 0.47736 0.14474 0.0
C291 C 0.15679 0.52148 0.15539 0.0
C292 C 0.24172 0.54833 0.17631 0.0
C293 C 0.12858 0.52614 0.15721 0.0
C294 C 0.36377 0.54705 0.15619 0.0
C295 C 0.33441 0.54871 0.15987 0.0
C296 C 0.23969 0.4971 0.15379 0.0
C297 C 0.1796 0.52818 0.16933 0.0
C298 C 0.2108 0.52508 0.16726 0.0
C299 C 0.30238 0.51866 0.15997 0.0
C300 C 0.27066 0.52045 0.16278 0.0
H301 H 0.14086 0.55256 0.19933 0.0
H302 H 0.18922 0.54346 0.19632 0.0
H303 H 0.18687 0.48067 0.14899 0.0
H304 H 0.32785 0.46042 0.15028 0.0
H305 H 0.27689 0.46318 0.15714 0.0
C306 C 0.64845 0.12796 0.48922 0.0
C307 C 0.63543 0.12545 0.50542 0.0
C308 C 0.68057 0.15538 0.48609 0.0
C309 C 0.76254 0.22382 0.50667 0.0
H310 H 0.7668 0.27134 0.46697 0.0
C311 C 0.88074 0.35486 0.4948 0.0
C312 C 0.88987 0.36123 0.47793 0.0
C313 C 0.85037 0.32559 0.49843 0.0
C314 C 0.7664 0.25816 0.47797 0.0
H315 H 0.64666 0.14905 0.5312 0.0
H316 H 0.70278 0.19648 0.52578 0.0
H317 H 0.7139 0.22022 0.47251 0.0
H318 H 0.87327 0.34158 0.45168 0.0
H319 H 0.8218 0.29036 0.45799 0.0
H320 H 0.81517 0.26148 0.51205 0.0
C321 C 0.68813 0.17736 0.51548 0.0
C322 C 0.73592 0.22879 0.48116 0.0
C323 C 0.65588 0.1502 0.51856 0.0
C324 C 0.86771 0.33745 0.46485 0.0
C325 C 0.83765 0.30816 0.46848 0.0
C326 C 0.79321 0.25305 0.50339 0.0
C327 C 0.70059 0.18068 0.49913 0.0
C328 C 0.73356 0.21126 0.49554 0.0
C329 C 0.82832 0.30181 0.48531 0.0
C330 C 0.79561 0.2707 0.48899 0.0
H331 H 0.63336 0.10941 0.4788 0.0
H332 H 0.6896 0.15699 0.47339 0.0
H333 H 0.76163 0.21077 0.51781 0.0
H334 H 0.89715 0.37234 0.50524 0.0
H335 H 0.84398 0.3219 0.51155 0.0
C336 C 0.49733 0.62767 0.80691 0.0
C337 C 0.50811 0.61562 0.82025 0.0
C338 C 0.50234 0.66083 0.80817 0.0
C339 C 0.55215 0.74671 0.83113 0.0
H340 H 0.47822 0.7577 0.81338 0.0
C341 C 0.56862 0.87806 0.81666 0.0
C342 C 0.54094 0.88375 0.81869 0.0
C343 C 0.56532 0.84628 0.81935 0.0
C344 C 0.499 0.75517 0.81862 0.0
H345 H 0.53349 0.62956 0.8453 0.0
H346 H 0.5423 0.68776 0.84753 0.0
H347 H 0.47137 0.70083 0.81312 0.0
H348 H 0.48848 0.86061 0.8259 0.0
H349 H 0.48292 0.80544 0.83093 0.0
H350 H 0.57972 0.8012 0.83668 0.0
C351 C 0.53003 0.6714 0.83602 0.0
C352 C 0.49524 0.7225 0.81825 0.0
C353 C 0.52495 0.63803 0.83476 0.0
C354 C 0.51039 0.85728 0.82429 0.0
C355 C 0.50707 0.82545 0.82697 0.0
C356 C 0.55596 0.7795 0.83147 0.0
C357 C 0.51826 0.68302 0.82283 0.0
C358 C 0.52191 0.71782 0.82426 0.0
C359 C 0.53424 0.81924 0.82414 0.0
C360 C 0.52955 0.78422 0.82505 0.0
H361 H 0.48448 0.61129 0.79548 0.0
H362 H 0.49362 0.66907 0.7976 0.0
H363 H 0.57325 0.74411 0.83583 0.0
H364 H 0.59269 0.89799 0.81258 0.0
H365 H 0.58676 0.84252 0.81695 0.0
C366 C 0.87986 0.51267 0.14022 0.0
C367 C 0.9003 0.517 0.15474 0.0
C368 C 0.85358 0.52036 0.14112 0.0
C369 C 0.79437 0.52586 0.17059 0.0
H370 H 0.77674 0.56971 0.13441 0.0
C371 C 0.66355 0.51717 0.1567 0.0
C372 C 0.66372 0.5458 0.15064 0.0
C373 C 0.69421 0.51725 0.15966 0.0
C374 C 0.78143 0.55779 0.14474 0.0
H375 H 0.90945 0.53333 0.18159 0.0
H376 H 0.86317 0.54663 0.18319 0.0
H377 H 0.82782 0.56463 0.13457 0.0
H378 H 0.69646 0.59791 0.14424 0.0
H379 H 0.74973 0.59805 0.14941 0.0
H380 H 0.74756 0.51857 0.1806 0.0
C381 C 0.86762 0.53725 0.17111 0.0
C382 C 0.8106 0.55459 0.14474 0.0
C383 C 0.8943 0.52994 0.17016 0.0
C384 C 0.69535 0.57518 0.14858 0.0
C385 C 0.72591 0.57524 0.15151 0.0
C386 C 0.76495 0.52882 0.17052 0.0
C387 C 0.84677 0.53226 0.15661 0.0
C388 C 0.81725 0.53823 0.15753 0.0
C389 C 0.72573 0.54596 0.15662 0.0
C390 C 0.75797 0.54456 0.1575 0.0
H391 H 0.88375 0.50271 0.12816 0.0
H392 H 0.83784 0.51588 0.12975 0.0
H393 H 0.79861 0.51288 0.18056 0.0
H394 H 0.63966 0.49404 0.15829 0.0
H395 H 0.69309 0.49418 0.1635 0.0
C396 C 0.41905 0.89398 0.50609 0.0
C397 C 0.43775 0.89676 0.49164 0.0
C398 C 0.38605 0.86599 0.50707 0.0
C399 C 0.32975 0.77701 0.48794 0.0
H400 H 0.25733 0.78647 0.50844 0.0
C401 C 0.19675 0.65888 0.4928 0.0
C402 C 0.16873 0.66266 0.48829 0.0
C403 C 0.22941 0.68758 0.49582 0.0
C404 C 0.27722 0.78336 0.50262 0.0
H405 H 0.43581 0.87293 0.46664 0.0
H406 H 0.37843 0.82489 0.46819 0.0
H407 H 0.31403 0.83666 0.50765 0.0
H408 H 0.15286 0.69994 0.48468 0.0
H409 H 0.20967 0.7497 0.48949 0.0
H410 H 0.29287 0.72415 0.48229 0.0
C411 C 0.38941 0.8437 0.47899 0.0
C412 C 0.30989 0.81214 0.50232 0.0
C413 C 0.42232 0.87149 0.47804 0.0
C414 C 0.17392 0.69598 0.48785 0.0
C415 C 0.20655 0.72464 0.4908 0.0
C416 C 0.29716 0.74834 0.48819 0.0
C417 C 0.37099 0.84019 0.49361 0.0
C418 C 0.3365 0.80944 0.49476 0.0
C419 C 0.23495 0.72083 0.49438 0.0
C420 C 0.27029 0.7511 0.49537 0.0
H421 H 0.43022 0.91294 0.51682 0.0
H422 H 0.37275 0.86409 0.51858 0.0
H423 H 0.34968 0.77372 0.48229 0.0
H424 H 0.19384 0.63368 0.49318 0.0
H425 H 0.2505 0.68361 0.49888 0.0
C426 C 0.55024 0.41502 0.85469 0.0
C427 C 0.54314 0.42935 0.84106 0.0
C428 C 0.5454 0.38188 0.85276 0.0
C429 C 0.50301 0.30073 0.82457 0.0
H430 H 0.57056 0.28456 0.84611 0.0
C431 C 0.51343 0.18082 0.8062 0.0
C432 C 0.51956 0.16431 0.81916 0.0
C433 C 0.51485 0.21221 0.80969 0.0
C434 C 0.55122 0.28849 0.84019 0.0
H435 H 0.5248 0.4197 0.81472 0.0
H436 H 0.51686 0.36213 0.81123 0.0
H437 H 0.57538 0.34069 0.85044 0.0
H438 H 0.5323 0.16853 0.84606 0.0
H439 H 0.5352 0.22373 0.85212 0.0
H440 H 0.47927 0.24866 0.81407 0.0
C441 C 0.5257 0.37629 0.82354 0.0
C442 C 0.55393 0.32073 0.84268 0.0
C443 C 0.53038 0.40942 0.82551 0.0
C444 C 0.52764 0.18049 0.83573 0.0
C445 C 0.52927 0.21214 0.83921 0.0
C446 C 0.50041 0.26857 0.82202 0.0
C447 C 0.53349 0.36216 0.8371 0.0
C448 C 0.52997 0.32741 0.83483 0.0
C449 C 0.52274 0.22831 0.82622 0.0
C450 C 0.52461 0.26208 0.82969 0.0
H451 H 0.55987 0.42952 0.8669 0.0
H452 H 0.55104 0.37175 0.86359 0.0
H453 H 0.48369 0.30459 0.81857 0.0
H454 H 0.50811 0.16982 0.79319 0.0
H455 H 0.51043 0.22422 0.79931 0.0
C456 C 0.57817 0.89914 0.50323 0.0
C457 C 0.56255 0.90679 0.51674 0.0
C458 C 0.58733 0.87399 0.5043 0.0
C459 C 0.60551 0.82706 0.53527 0.0
H460 H 0.58108 0.75766 0.49791 0.0
C461 C 0.60046 0.70075 0.54464 0.0
C462 C 0.61405 0.6877 0.53237 0.0
C463 C 0.59647 0.72858 0.54169 0.0
C464 C 0.58852 0.77715 0.50834 0.0
H465 H 0.5445 0.89423 0.54197 0.0
H466 H 0.56039 0.85045 0.5438 0.0
H467 H 0.57061 0.80517 0.49478 0.0
H468 H 0.63326 0.693 0.50716 0.0
H469 H 0.62625 0.74207 0.50194 0.0
H470 H 0.623 0.799 0.54893 0.0
C471 C 0.56586 0.86407 0.53245 0.0
C472 C 0.58253 0.80431 0.50655 0.0
C473 C 0.55658 0.88904 0.53136 0.0
C474 C 0.62269 0.70253 0.51683 0.0
C475 C 0.61868 0.73056 0.51386 0.0
C476 C 0.61153 0.80003 0.53704 0.0
C477 C 0.58125 0.85622 0.51893 0.0
C478 C 0.59034 0.82914 0.52014 0.0
C479 C 0.60595 0.74412 0.52638 0.0
C480 C 0.60243 0.77438 0.52373 0.0
H481 H 0.58307 0.91236 0.49177 0.0
H482 H 0.59937 0.86861 0.49373 0.0
H483 H 0.61245 0.8462 0.54583 0.0
H484 H 0.59272 0.6893 0.55657 0.0
H485 H 0.58572 0.73783 0.5514 0.0
C486 C 0.67139 0.54856 0.80486 0.0
C487 C 0.65918 0.55789 0.8193 0.0
C488 C 0.706 0.55921 0.80403 0.0
C489 C 0.79183 0.61929 0.82389 0.0
H490 H 0.80862 0.54422 0.8133 0.0
C491 C 0.90659 0.61491 0.85156 0.0
C492 C 0.91897 0.59573 0.84273 0.0
C493 C 0.87944 0.61727 0.84464 0.0
C494 C 0.8047 0.5658 0.81585 0.0
H495 H 0.67388 0.58704 0.84384 0.0
H496 H 0.73432 0.60536 0.84244 0.0
H497 H 0.75158 0.53531 0.8087 0.0
H498 H 0.91443 0.56623 0.81911 0.0
H499 H 0.86749 0.57109 0.80679 0.0
H500 H 0.84487 0.64947 0.83157 0.0
C501 C 0.71715 0.59004 0.83171 0.0
C502 C 0.77189 0.56062 0.81326 0.0
C503 C 0.68249 0.57929 0.83258 0.0
C504 C 0.90541 0.58116 0.82625 0.0
C505 C 0.87831 0.58368 0.81926 0.0
C506 C 0.82478 0.62456 0.82638 0.0
C507 C 0.72912 0.57953 0.81758 0.0
C508 C 0.7649 0.58698 0.81776 0.0
C509 C 0.86421 0.60068 0.82865 0.0
C510 C 0.83132 0.59751 0.82293 0.0
H511 H 0.65412 0.53235 0.79434 0.0
H512 H 0.7146 0.55101 0.79291 0.0
H513 H 0.78721 0.6402 0.82721 0.0
H514 H 0.91701 0.62701 0.86416 0.0
H515 H 0.86915 0.63039 0.85229 0.0
C516 C 0.12253 0.6768 0.15893 0.0
C517 C 0.11178 0.65067 0.14577 0.0
C518 C 0.14849 0.7099 0.15656 0.0
C519 C 0.2235 0.75302 0.13158 0.0
H520 H 0.2314 0.83343 0.15663 0.0
C521 C 0.32962 0.90124 0.15797 0.0
C522 C 0.35371 0.89374 0.16479 0.0
C523 C 0.29941 0.87519 0.1497 0.0
C524 C 0.22947 0.81152 0.14918 0.0
H525 H 0.11817 0.63912 0.11948 0.0
H526 H 0.16328 0.69705 0.11531 0.0
H527 H 0.17635 0.7809 0.15343 0.0
H528 H 0.36676 0.8541 0.16705 0.0
H529 H 0.31408 0.80864 0.15296 0.0
H530 H 0.2768 0.7834 0.1277 0.0
C531 C 0.15211 0.69181 0.12755 0.0
C532 C 0.19799 0.78127 0.14756 0.0
C533 C 0.12626 0.65865 0.12994 0.0
C534 C 0.34834 0.86042 0.1621 0.0
C535 C 0.31831 0.83448 0.15383 0.0
C536 C 0.25492 0.78332 0.13313 0.0
C537 C 0.16409 0.71761 0.14096 0.0
C538 C 0.19505 0.75129 0.13943 0.0
C539 C 0.29297 0.84131 0.14806 0.0
C540 C 0.25858 0.8124 0.14264 0.0
H541 H 0.11181 0.67145 0.17126 0.0
H542 H 0.15743 0.729 0.16726 0.0
H543 H 0.2222 0.73041 0.12525 0.0
H544 H 0.33319 0.92678 0.15988 0.0
H545 H 0.28049 0.88126 0.14523 0.0
C546 C 0.52478 0.1388 0.46492 0.0
C547 C 0.517 0.12347 0.48036 0.0
C548 C 0.52613 0.17005 0.46343 0.0
C549 C 0.50517 0.23251 0.48481 0.0
H550 H 0.58944 0.29992 0.46664 0.0
C551 C 0.60434 0.38231 0.49958 0.0
C552 C 0.58201 0.39535 0.50087 0.0
C553 C 0.59298 0.34941 0.49208 0.0
C554 C 0.56565 0.28135 0.47162 0.0
H555 H 0.50249 0.12784 0.50601 0.0
H556 H 0.50523 0.18246 0.50348 0.0
H557 H 0.57313 0.23969 0.46347 0.0
H558 H 0.5309 0.38513 0.49443 0.0
H559 H 0.51097 0.32744 0.48119 0.0
H560 H 0.49884 0.27446 0.49391 0.0
C561 C 0.51 0.17026 0.49246 0.0
C562 C 0.55611 0.24678 0.46966 0.0
C563 C 0.50865 0.13902 0.49396 0.0
C564 C 0.54868 0.37571 0.49355 0.0
C565 C 0.5372 0.34263 0.48611 0.0
C566 C 0.51472 0.2671 0.48676 0.0
C567 C 0.51966 0.18657 0.47733 0.0
C568 C 0.52636 0.22211 0.47675 0.0
C569 C 0.55897 0.3288 0.48575 0.0
C570 C 0.54566 0.29199 0.4807 0.0
H571 H 0.53104 0.12731 0.45414 0.0
H572 H 0.53317 0.18175 0.45153 0.0
H573 H 0.48186 0.21404 0.49019 0.0
H574 H 0.63026 0.39707 0.505 0.0
H575 H 0.61033 0.33945 0.49217 0.0
C576 C 0.39098 0.53865 0.84615 0.0
C577 C 0.39582 0.51455 0.83634 0.0
C578 C 0.36248 0.54193 0.84298 0.0
C579 C 0.27496 0.49765 0.82735 0.0
H580 H 0.29037 0.58956 0.82447 0.0
C581 C 0.16421 0.52573 0.83075 0.0
C582 C 0.1709 0.55234 0.84313 0.0
C583 C 0.19089 0.52135 0.82485 0.0
C584 C 0.28561 0.56372 0.82517 0.0
H585 H 0.37401 0.47413 0.81588 0.0
H586 H 0.32321 0.47928 0.81069 0.0
H587 H 0.33874 0.5798 0.82449 0.0
H588 H 0.21059 0.59657 0.85815 0.0
H589 H 0.25694 0.58885 0.84809 0.0
H590 H 0.22209 0.48183 0.82916 0.0
C591 C 0.34197 0.49589 0.82063 0.0
C592 C 0.31325 0.55817 0.82515 0.0
C593 C 0.37091 0.49294 0.82363 0.0
C594 C 0.20476 0.57565 0.84873 0.0
C595 C 0.23133 0.5714 0.84281 0.0
C596 C 0.24725 0.50325 0.82753 0.0
C597 C 0.33796 0.5209 0.83008 0.0
C598 C 0.30826 0.52533 0.82688 0.0
C599 C 0.22464 0.5437 0.83114 0.0
C600 C 0.2525 0.53658 0.82713 0.0
H601 H 0.40968 0.55574 0.85601 0.0
H602 H 0.35959 0.561 0.85063 0.0
H603 H 0.27058 0.47211 0.82871 0.0
H604 H 0.13825 0.50737 0.82628 0.0
H605 H 0.18502 0.49994 0.81576 0.0
C606 C 0.87403 0.37534 0.16885 0.0
C607 C 0.88537 0.40373 0.18079 0.0
C608 C 0.84212 0.34622 0.17003 0.0
C609 C 0.7748 0.30312 0.20019 0.0
H610 H 0.71607 0.25807 0.15958 0.0
C611 C 0.63419 0.20496 0.2045 0.0
C612 C 0.62288 0.17334 0.19519 0.0
C613 C 0.66519 0.23335 0.20129 0.0
C614 C 0.73234 0.27035 0.17098 0.0
H615 H 0.87234 0.42381 0.20335 0.0
H616 H 0.81674 0.37349 0.20523 0.0
H617 H 0.77362 0.30644 0.15724 0.0
H618 H 0.63411 0.14713 0.17453 0.0
H619 H 0.68835 0.19711 0.16879 0.0
H620 H 0.73348 0.26747 0.21394 0.0
C621 C 0.8326 0.37334 0.19514 0.0
C622 C 0.76527 0.29786 0.16966 0.0
C623 C 0.86446 0.40229 0.19401 0.0
C624 C 0.6421 0.17124 0.18184 0.0
C625 C 0.67314 0.19977 0.17858 0.0
C626 C 0.7419 0.2759 0.20151 0.0
C627 C 0.82099 0.34503 0.18313 0.0
C628 C 0.78672 0.31471 0.18429 0.0
C629 C 0.68542 0.23073 0.18865 0.0
C630 C 0.72027 0.25947 0.18695 0.0
H631 H 0.88962 0.37572 0.15852 0.0
H632 H 0.83403 0.32463 0.16071 0.0
H633 H 0.79093 0.31505 0.21166 0.0
H634 H 0.61953 0.20747 0.21463 0.0
H635 H 0.67381 0.25718 0.209 0.0
C636 C 0.01587 0.54487 0.10792 0.0
C637 C 1.00075 0.51419 0.11593 0.0
C638 C 0.01713 0.54432 0.09033 0.0
C639 C 0.97535 0.49596 0.05101 0.0
H640 H 0.06421 0.54691 0.03234 0.0
C641 C 0.99195 0.4981 0.97864 0.0
C642 C 0.01719 0.52882 0.97278 0.0
C643 C 0.98956 0.49406 0.99602 0.0
C644 C 0.03912 0.53296 0.0373 0.0
H645 H 0.97387 0.4588 0.1117 0.0
H646 H 0.97521 0.45795 0.0807 0.0
H647 H 0.05995 0.54425 0.0629 0.0
H648 H 0.05905 0.57971 0.98027 0.0
H649 H 0.05414 0.57341 0.01056 0.0
H650 H 0.9542 0.48593 0.02557 0.0
C651 C 0.98656 0.48232 0.08821 0.0
C652 C 0.03679 0.53125 0.0548 0.0
C653 C 0.98591 0.48286 0.1059 0.0
C654 C 0.03968 0.5556 0.98452 0.0
C655 C 0.03694 0.55183 0.00187 0.0
C656 C 0.97759 0.49818 0.03349 0.0
C657 C 0.00263 0.51308 0.08035 0.0
C658 C 0.0049 0.51299 0.06178 0.0
C659 C 0.01203 0.52091 0.00788 0.0
C660 C 0.00952 0.51702 0.02642 0.0
H661 H 0.02722 0.56944 0.11524 0.0
H662 H 0.02934 0.56834 0.08448 0.0
H663 H 0.95047 0.48191 0.05619 0.0
H664 H 0.97448 0.47701 0.96976 0.0
H665 H 0.97039 0.46973 0.00012 0.0
C666 C 0.5466 0.99331 0.44314 0.0
C667 C 0.52282 0.99755 0.45269 0.0
C668 C 0.54279 0.98883 0.42546 0.0
C669 C 0.47994 0.96274 0.38965 0.0
H670 H 0.55867 0.01929 0.36435 0.0
C671 C 0.46922 0.98108 0.31885 0.0
C672 C 0.49585 0.98505 0.30862 0.0
C673 C 0.47178 0.97903 0.33629 0.0
C674 C 0.53656 0.00282 0.37117 0.0
H675 H 0.47606 0.99977 0.4512 0.0
H676 H 0.46942 0.99183 0.42033 0.0
H677 H 0.56459 0.02218 0.39512 0.0
H678 H 0.54525 0.98832 0.30839 0.0
H679 H 0.54949 0.98404 0.33879 0.0
H680 H 0.45186 0.94335 0.36572 0.0
C681 C 0.4909 0.99185 0.42654 0.0
C682 C 0.53996 0.00458 0.38881 0.0
C683 C 0.49485 0.99662 0.44421 0.0
C684 C 0.52456 0.98575 0.31604 0.0
C685 C 0.52701 0.98342 0.33345 0.0
C686 C 0.47657 0.96077 0.37198 0.0
C687 C 0.51498 0.98819 0.41699 0.0
C688 C 0.51163 0.98483 0.39823 0.0
C689 C 0.50092 0.98065 0.34384 0.0
C690 C 0.50477 0.98106 0.36254 0.0
H691 H 0.56839 0.99383 0.4493 0.0
H692 H 0.56157 0.98578 0.4184 0.0
H693 H 0.45777 0.94692 0.39661 0.0
H694 H 0.44697 0.98085 0.31347 0.0
H695 H 0.45143 0.9774 0.34392 0.0
C696 C 0.50813 0.49313 0.77207 0.0
C697 C 0.53193 0.51993 0.7835 0.0
C698 C 0.5148 0.49197 0.7549 0.0
C699 C 0.56807 0.54693 0.72239 0.0
H700 H 0.55116 0.4618 0.69855 0.0
C701 C 0.62264 0.54521 0.65779 0.0
C702 C 0.60025 0.52068 0.64509 0.0
C703 C 0.61372 0.54313 0.67465 0.0
C704 C 0.55573 0.48568 0.70501 0.0
H705 H 0.58132 0.56656 0.78584 0.0
H706 H 0.59293 0.56435 0.7561 0.0
H707 H 0.53522 0.46226 0.72794 0.0
H708 H 0.55141 0.47407 0.64021 0.0
H709 H 0.53589 0.47035 0.66974 0.0
H710 H 0.58874 0.57045 0.6996 0.0
C711 C 0.56894 0.54447 0.7603 0.0
C712 C 0.54652 0.48593 0.7218 0.0
C713 C 0.56232 0.54562 0.77739 0.0
C714 C 0.56936 0.49318 0.64973 0.0
C715 C 0.56043 0.49108 0.66663 0.0
C716 C 0.5773 0.54669 0.70567 0.0
C717 C 0.54531 0.51766 0.74885 0.0
C718 C 0.55297 0.51667 0.73072 0.0
C719 C 0.5822 0.51647 0.6792 0.0
C720 C 0.5716 0.51617 0.69686 0.0
H721 H 0.4845 0.47294 0.77641 0.0
H722 H 0.49599 0.47113 0.74633 0.0
H723 H 0.57275 0.5709 0.7288 0.0
H724 H 0.64689 0.56636 0.65464 0.0
H725 H 0.63136 0.56266 0.68411 0.0
C726 C 0.56297 0.0176 0.55913 0.0
C727 C 0.54124 0.02559 0.5501 0.0
C728 C 0.56355 0.0187 0.57681 0.0
C729 C 0.53995 0.05332 0.61469 0.0
H730 H 0.54406 0.98076 0.63622 0.0
C731 C 0.51604 0.03253 0.68556 0.0
C732 C 0.53785 0.02487 0.69476 0.0
C733 C 0.51714 0.03332 0.66796 0.0
C734 C 0.54328 0.0014 0.63042 0.0
H735 H 0.50337 0.04142 0.55265 0.0
H736 H 0.50407 0.0429 0.5835 0.0
H737 H 0.54489 0.98123 0.60546 0.0
H738 H 0.57824 0.01246 0.6926 0.0
H739 H 0.57994 0.01357 0.66185 0.0
H740 H 0.538 0.07326 0.63969 0.0
C741 C 0.52099 0.03621 0.5769 0.0
C742 C 0.5438 0.00171 0.61278 0.0
C743 C 0.52046 0.03518 0.5592 0.0
C744 C 0.56072 0.01792 0.6859 0.0
C745 C 0.56174 0.01861 0.66828 0.0
C746 C 0.53932 0.05294 0.63233 0.0
C747 C 0.54236 0.02772 0.58591 0.0
C748 C 0.54213 0.02767 0.6047 0.0
C749 C 0.53998 0.02636 0.65912 0.0
C750 C 0.54095 0.02696 0.64039 0.0
H751 H 0.57942 0.01023 0.55254 0.0
H752 H 0.58073 0.01257 0.58336 0.0
H753 H 0.53915 0.07396 0.6089 0.0
H754 H 0.49772 0.03745 0.69195 0.0
H755 H 0.49968 0.03885 0.66123 0.0
C756 C 0.53588 0.54889 0.89113 0.0
C757 C 0.51638 0.51931 0.88014 0.0
C758 C 0.53277 0.5477 0.90865 0.0
C759 C 0.5148 0.49319 0.94253 0.0
H760 H 0.4876 0.55162 0.96749 0.0
C761 C 0.49161 0.48293 0.01394 0.0
C762 C 0.49983 0.51293 0.02405 0.0
C763 C 0.49212 0.48298 0.99629 0.0
C764 C 0.49582 0.53553 0.96083 0.0
H765 H 0.47885 0.46522 0.87882 0.0
H766 H 0.47436 0.46296 0.9096 0.0
H767 H 0.49267 0.5538 0.93691 0.0
H768 H 0.5155 0.56656 0.02388 0.0
H769 H 0.51818 0.56735 0.99317 0.0
H770 H 0.51967 0.47595 0.96632 0.0
C771 C 0.49156 0.48708 0.90455 0.0
C772 C 0.49844 0.53666 0.94329 0.0
C773 C 0.49405 0.48843 0.887 0.0
C774 C 0.50871 0.54303 0.01627 0.0
C775 C 0.50998 0.54332 -0.00135 0.0
C776 C 0.51295 0.49258 0.96013 0.0
C777 C 0.51073 0.51675 0.91548 0.0
C778 C 0.50786 0.51545 0.93402 0.0
C779 C 0.50165 0.51328 0.98837 0.0
C780 C 0.50335 0.5137 0.96956 0.0
H781 H 0.55319 0.57306 0.88616 0.0
H782 H 0.54788 0.57085 0.91689 0.0
H783 H 0.5224 0.47681 0.9356 0.0
H784 H 0.48444 0.45936 0.01971 0.0
H785 H 0.48479 0.45914 0.98888 0.0
C786 C 0.00788 0.49507 0.22113 0.0
C787 C 0.01573 0.52518 0.21349 0.0
C788 C 0.00924 0.49496 0.23876 0.0
C789 C 0.00542 0.54081 0.27801 0.0
H790 H 0.04466 0.49233 0.29913 0.0
C791 C 0.02603 0.54733 0.3507 0.0
C792 C 0.01934 0.51704 0.35783 0.0
C793 C 0.02582 0.5488 0.33313 0.0
C794 C 0.03323 0.50563 0.29342 0.0
H795 H 0.03133 0.57886 0.21843 0.0
H796 H 0.03376 0.57864 0.24929 0.0
H797 H 0.04455 0.4945 0.26844 0.0
H798 H 0.0071 0.4645 0.35198 0.0
H799 H 0.00588 0.4668 0.32132 0.0
H800 H 0.9938 0.55168 0.30298 0.0
C801 C 0.02631 0.55508 0.24158 0.0
C802 C 0.03325 0.50694 0.27584 0.0
C803 C 0.02509 0.55523 0.22391 0.0
C804 C 0.01206 0.48814 0.34693 0.0
C805 C 0.0118 0.48959 0.32934 0.0
C806 C 0.0053 0.53941 0.29561 0.0
C807 C 0.01837 0.52492 0.24918 0.0
C808 C 0.01923 0.52443 0.26793 0.0
C809 C 0.01883 0.51999 0.32223 0.0
C810 C 0.01911 0.5217 0.30352 0.0
H811 H 1.00045 0.47141 0.21351 0.0
H812 H 0.00254 0.47121 0.24422 0.0
H813 H 0.99401 0.55409 0.27227 0.0
H814 H 0.03131 0.56994 0.35872 0.0
H815 H 0.03165 0.5727 0.32809 0.0
loop_
_geom_bond_atom_site_label_1
_geom_bond_atom_site_label_2
_geom_bond_distance
_geom_bond_site_symmetry_2
_ccdc_geom_bond_type
Zn0 O6 1.969 . S
Zn0 O7 1.965 . S
Zn0 O11 2.024 . S
Zn0 O16 1.969 . S
Zn1 O8 1.969 . S
Zn1 O14 1.969 . S
Zn1 O15 1.965 . S
Zn1 O17 2.024 . S
C2 O3 1.229 . S
C2 O11 1.058 . S
O3 C2 1.229 . S
C4 O5 1.229 . S
C4 O17 1.058 . S
O5 C4 1.229 . S
O6 Zn0 1.969 . S
O6 C9 1.267 . S
O7 Zn0 1.965 . S
O7 C18 1.249 1_455 S
O8 Zn1 1.969 . S
O8 C18 1.281 . S
C9 O6 1.267 . S
C9 O10 1.228 . S
O10 C9 1.228 . S
O11 Zn0 2.024 . S
O11 C2 1.058 . S
C12 O13 1.228 . S
C12 O14 1.267 . S
O13 C12 1.228 . S
O14 Zn1 1.969 . S
O14 C12 1.267 . S
O15 Zn1 1.965 . S
O15 C19 1.260 1_655 S
O16 Zn0 1.969 . S
O16 C19 1.258 . S
O17 Zn1 2.024 . S
O17 C4 1.058 . S
C18 O7 1.249 1_655 S
C18 O8 1.281 . S
C19 O15 1.260 1_455 S
C19 O16 1.258 . S
Zn20 O26 1.969 . S
Zn20 O27 1.965 . S
Zn20 O31 2.024 . S
Zn20 O36 1.969 . S
Zn21 O28 1.969 . S
Zn21 O34 1.969 . S
Zn21 O35 1.965 . S
Zn21 O37 2.024 . S
C22 O23 1.229 . S
C22 O31 1.058 . S
O23 C22 1.229 . S
C24 O25 1.229 . S
C24 O37 1.058 . S
O25 C24 1.229 . S
O26 Zn20 1.969 . S
O26 C29 1.267 . S
O27 Zn20 1.965 . S
O27 C38 1.260 . S
O28 Zn21 1.969 . S
O28 C38 1.258 1_565 S
C29 O26 1.267 . S
C29 O30 1.228 . S
O30 C29 1.228 . S
O31 Zn20 2.024 . S
O31 C22 1.058 . S
C32 O33 1.228 . S
C32 O34 1.267 . S
O33 C32 1.228 . S
O34 Zn21 1.969 . S
O34 C32 1.267 . S
O35 Zn21 1.965 . S
O35 C39 1.260 1_565 S
O36 Zn20 1.969 . S
O36 C39 1.258 . S
O37 Zn21 2.024 . S
O37 C24 1.058 . S
C38 O27 1.260 . S
C38 O28 1.258 1_545 S
C39 O35 1.260 1_545 S
C39 O36 1.258 . S
Zn40 O46 1.969 . S
Zn40 O47 1.965 . S
Zn40 O51 2.024 . S
Zn40 O56 1.969 . S
Zn41 O48 1.969 . S
Zn41 O54 1.969 . S
Zn41 O55 1.965 . S
Zn41 O57 2.024 . S
C42 O43 1.229 . S
C42 O51 1.058 . S
O43 C42 1.229 . S
C44 O45 1.229 . S
C44 O57 1.058 . S
O45 C44 1.229 . S
O46 Zn40 1.969 . S
O46 C49 1.267 . S
O47 Zn40 1.965 . S
O47 C58 1.260 . S
O48 Zn41 1.969 . S
O48 C58 1.258 . S
C49 O46 1.267 . S
C49 O50 1.228 . S
O50 C49 1.228 . S
O51 Zn40 2.024 . S
O51 C42 1.058 . S
C52 O53 1.228 . S
C52 O54 1.267 . S
O53 C52 1.228 . S
O54 Zn41 1.969 . S
O54 C52 1.267 . S
O55 Zn41 1.965 . S
O55 C59 1.260 . S
O56 Zn40 1.969 . S
O56 C59 1.258 . S
O57 Zn41 2.024 . S
O57 C44 1.058 . S
C58 O47 1.260 . S
C58 O48 1.258 . S
C59 O55 1.260 . S
C59 O56 1.258 . S
C60 C61 1.384 . S
C60 H73 0.947 . S
C60 C95 1.382 . S
C61 C60 1.384 . S
C61 C62 1.378 . S
C62 C61 1.378 . S
C62 C63 1.378 . S
C62 H74 0.952 . S
C63 C62 1.378 . S
C63 H75 0.950 . S
C63 C94 1.383 . S
H64 C83 0.947 . S
H65 C84 0.946 . S
H66 C86 0.953 . S
H67 C87 0.945 . S
H68 C89 0.952 . S
H69 C90 0.949 . S
H70 C92 0.950 1_565 S
H71 C93 0.938 1_565 S
H72 C95 0.951 . S
H73 C60 0.947 . S
H74 C62 0.952 . S
H75 C63 0.950 . S
N76 C79 1.382 . S
N76 C81 1.363 . S
N77 C79 1.371 . S
N77 C80 1.372 . S
N78 C80 1.361 . S
N78 C81 1.377 . S
C79 N76 1.382 . S
C79 N77 1.371 . S
C79 C82 1.480 . S
C80 N77 1.372 . S
C80 N78 1.361 . S
C80 C88 1.457 . S
C81 N76 1.363 . S
C81 N78 1.377 . S
C81 C94 1.479 1_545 S
C82 C79 1.480 . S
C82 C83 1.383 . S
C82 C87 1.385 . S
C83 H64 0.947 . S
C83 C82 1.383 . S
C83 C84 1.388 . S
C84 H65 0.946 . S
C84 C83 1.388 . S
C84 C85 1.384 . S
C85 C84 1.384 . S
C85 C86 1.377 . S
C86 H66 0.953 . S
C86 C85 1.377 . S
C86 C87 1.369 . S
C87 H67 0.945 . S
C87 C82 1.385 . S
C87 C86 1.369 . S
C88 C80 1.457 . S
C88 C89 1.372 . S
C88 C93 1.375 . S
C89 H68 0.952 . S
C89 C88 1.372 . S
C89 C90 1.389 . S
C90 H69 0.949 . S
C90 C89 1.389 . S
C90 C91 1.387 . S
C91 C90 1.387 . S
C91 C92 1.372 . S
C92 H70 0.950 1_545 S
C92 C91 1.372 . S
C92 C93 1.378 . S
C93 H71 0.938 1_545 S
C93 C88 1.375 . S
C93 C92 1.378 . S
C94 C63 1.383 . S
C94 C81 1.479 1_565 S
C94 C95 1.398 . S
C95 C60 1.382 . S
C95 H72 0.951 . S
C95 C94 1.398 . S
C96 C97 1.384 . S
C96 H109 0.947 . S
C96 C131 1.382 . S
C97 C96 1.384 . S
C97 C98 1.378 . S
C98 C97 1.378 . S
C98 C99 1.378 . S
C98 H110 0.952 . S
C99 C98 1.378 . S
C99 H111 0.950 . S
C99 C130 1.383 . S
H100 C119 0.947 . S
H101 C120 0.946 . S
H102 C122 0.953 . S
H103 C123 0.945 . S
H104 C125 0.952 . S
H105 C126 0.949 . S
H106 C128 0.950 . S
H107 C129 0.948 . S
H108 C131 0.951 . S
H109 C96 0.947 . S
H110 C98 0.952 . S
H111 C99 0.950 . S
N112 C115 1.382 . S
N112 C117 1.363 . S
N113 C115 1.371 . S
N113 C116 1.372 . S
N114 C116 1.361 . S
N114 C117 1.377 . S
C115 N112 1.382 . S
C115 N113 1.371 . S
C115 C118 1.480 . S
C116 N113 1.372 . S
C116 N114 1.361 . S
C116 C124 1.457 . S
C117 N112 1.363 . S
C117 N114 1.377 . S
C117 C130 1.479 . S
C118 C115 1.480 . S
C118 C119 1.383 . S
C118 C123 1.385 . S
C119 H100 0.947 . S
C119 C118 1.383 . S
C119 C120 1.388 . S
C120 H101 0.946 . S
C120 C119 1.388 . S
C120 C121 1.384 . S
C121 C120 1.384 . S
C121 C122 1.377 . S
C122 H102 0.953 . S
C122 C121 1.377 . S
C122 C123 1.369 . S
C123 H103 0.945 . S
C123 C118 1.385 . S
C123 C122 1.369 . S
C124 C116 1.457 . S
C124 C125 1.372 . S
C124 C129 1.364 . S
C125 H104 0.952 . S
C125 C124 1.372 . S
C125 C126 1.389 . S
C126 H105 0.949 . S
C126 C125 1.389 . S
C126 C127 1.387 . S
C127 C126 1.387 . S
C127 C128 1.372 . S
C128 H106 0.950 . S
C128 C127 1.372 . S
C128 C129 1.379 . S
C129 H107 0.948 . S
C129 C124 1.364 . S
C129 C128 1.379 . S
C130 C99 1.383 . S
C130 C117 1.479 . S
C130 C131 1.398 . S
C131 C96 1.382 . S
C131 H108 0.951 . S
C131 C130 1.398 . S
C132 C133 1.384 . S
C132 H145 0.947 . S
C132 C167 1.382 . S
C133 C132 1.384 . S
C133 C134 1.378 . S
C134 C133 1.378 . S
C134 C135 1.378 . S
C134 H146 0.952 . S
C135 C134 1.378 . S
C135 H147 0.950 . S
C135 C166 1.383 . S
H136 C155 0.947 . S
H137 C156 0.946 . S
H138 C158 0.953 . S
H139 C159 0.945 . S
H140 C161 0.952 . S
H141 C162 0.949 . S
H142 C164 0.950 1_655 S
H143 C165 0.948 1_655 S
H144 C167 0.951 . S
H145 C132 0.947 . S
H146 C134 0.952 . S
H147 C135 0.950 . S
N148 C151 1.382 . S
N148 C153 1.363 . S
N149 C151 1.371 . S
N149 C152 1.372 . S
N150 C152 1.361 . S
N150 C153 1.377 . S
C151 N148 1.382 . S
C151 N149 1.371 . S
C151 C154 1.480 . S
C152 N149 1.372 . S
C152 N150 1.361 . S
C152 C160 1.457 . S
C153 N148 1.363 . S
C153 N150 1.377 . S
C153 C166 1.479 1_455 S
C154 C151 1.480 . S
C154 C155 1.383 . S
C154 C159 1.385 . S
C155 H136 0.947 . S
C155 C154 1.383 . S
C155 C156 1.388 . S
C156 H137 0.946 . S
C156 C155 1.388 . S
C156 C157 1.384 . S
C157 C156 1.384 . S
C157 C158 1.377 . S
C158 H138 0.953 . S
C158 C157 1.377 . S
C158 C159 1.369 . S
C159 H139 0.945 . S
C159 C154 1.385 . S
C159 C158 1.369 . S
C160 C152 1.457 . S
C160 C161 1.372 . S
C160 C165 1.364 . S
C161 H140 0.952 . S
C161 C160 1.372 . S
C161 C162 1.389 . S
C162 H141 0.949 . S
C162 C161 1.389 . S
C162 C163 1.387 . S
C163 C162 1.387 . S
C163 C164 1.372 . S
C164 H142 0.950 1_455 S
C164 C163 1.372 . S
C164 C165 1.379 . S
C165 H143 0.948 1_455 S
C165 C160 1.364 . S
C165 C164 1.379 . S
C166 C135 1.383 . S
C166 C153 1.479 1_655 S
C166 C167 1.398 . S
C167 C132 1.382 . S
C167 H144 0.951 . S
C167 C166 1.398 . S
C168 C169 1.384 . S
C168 H181 0.947 . S
C168 C203 1.382 . S
C169 C168 1.384 . S
C169 C170 1.378 . S
C170 C169 1.378 . S
C170 C171 1.378 . S
C170 H182 0.952 . S
C171 C170 1.378 . S
C171 H183 0.950 . S
C171 C202 1.383 . S
H172 C191 0.947 . S
H173 C192 0.946 . S
H174 C194 0.953 . S
H175 C195 0.945 . S
H176 C197 0.952 . S
H177 C198 0.949 . S
H178 C200 0.950 . S
H179 C201 0.948 . S
H180 C203 0.951 . S
H181 C168 0.947 . S
H182 C170 0.952 . S
H183 C171 0.950 . S
N184 C187 1.382 . S
N184 C189 1.363 . S
N185 C187 1.371 1_655 S
N185 C188 1.372 1_655 S
N186 C188 1.361 . S
N186 C189 1.377 . S
C187 N184 1.382 . S
C187 N185 1.371 1_455 S
C187 C190 1.480 1_455 S
C188 N185 1.372 1_455 S
C188 N186 1.361 . S
C188 C196 1.457 . S
C189 N184 1.363 . S
C189 N186 1.377 . S
C189 C202 1.479 . S
C190 C187 1.480 1_655 S
C190 C191 1.383 . S
C190 C195 1.385 . S
C191 H172 0.947 . S
C191 C190 1.383 . S
C191 C192 1.388 . S
C192 H173 0.946 . S
C192 C191 1.388 . S
C192 C193 1.384 . S
C193 C192 1.384 . S
C193 C194 1.377 . S
C194 H174 0.953 . S
C194 C193 1.377 . S
C194 C195 1.369 . S
C195 H175 0.945 . S
C195 C190 1.385 . S
C195 C194 1.369 . S
C196 C188 1.457 . S
C196 C197 1.372 1_455 S
C196 C201 1.364 . S
C197 H176 0.952 . S
C197 C196 1.372 1_655 S
C197 C198 1.389 . S
C198 H177 0.949 . S
C198 C197 1.389 . S
C198 C199 1.387 1_655 S
C199 C198 1.387 1_455 S
C199 C200 1.372 . S
C200 H178 0.950 . S
C200 C199 1.372 . S
C200 C201 1.379 . S
C201 H179 0.948 . S
C201 C196 1.364 . S
C201 C200 1.379 . S
C202 C171 1.383 . S
C202 C189 1.479 . S
C202 C203 1.398 . S
C203 C168 1.382 . S
C203 H180 0.951 . S
C203 C202 1.398 . S
C204 C205 1.384 . S
C204 H217 0.947 . S
C204 C239 1.382 . S
C205 C204 1.384 . S
C205 C206 1.378 . S
C206 C205 1.378 . S
C206 C207 1.378 . S
C206 H218 0.952 . S
C207 C206 1.378 . S
C207 H219 0.950 . S
C207 C238 1.383 . S
H208 C227 0.947 . S
H209 C228 0.946 . S
H210 C230 0.953 . S
H211 C231 0.945 . S
H212 C233 0.952 . S
H213 C234 0.949 . S
H214 C236 0.950 . S
H215 C237 0.948 . S
H216 C239 0.951 . S
H217 C204 0.947 . S
H218 C206 0.952 . S
H219 C207 0.950 . S
N220 C223 1.410 . S
N220 C225 1.363 . S
N221 C223 1.370 1_565 S
N221 C224 1.372 1_565 S
N222 C224 1.361 . S
N222 C225 1.377 . S
C223 N220 1.410 . S
C223 N221 1.370 1_545 S
C223 C226 1.451 1_545 S
C224 N221 1.372 1_545 S
C224 N222 1.361 . S
C224 C232 1.457 . S
C225 N220 1.363 . S
C225 N222 1.377 . S
C225 C238 1.479 . S
C226 C223 1.451 1_565 S
C226 C227 1.383 . S
C226 C231 1.385 . S
C227 H208 0.947 . S
C227 C226 1.383 . S
C227 C228 1.388 . S
C228 H209 0.946 . S
C228 C227 1.388 . S
C228 C229 1.384 . S
C229 C228 1.384 . S
C229 C230 1.377 . S
C230 H210 0.953 . S
C230 C229 1.377 . S
C230 C231 1.369 . S
C231 H211 0.945 . S
C231 C226 1.385 . S
C231 C230 1.369 . S
C232 C224 1.457 . S
C232 C233 1.372 1_545 S
C232 C237 1.364 . S
C233 H212 0.952 . S
C233 C232 1.372 1_565 S
C233 C234 1.389 . S
C234 H213 0.949 . S
C234 C233 1.389 . S
C234 C235 1.387 1_565 S
C235 C234 1.387 1_545 S
C235 C236 1.372 . S
C236 H214 0.950 . S
C236 C235 1.372 . S
C236 C237 1.379 . S
C237 H215 0.948 . S
C237 C232 1.364 . S
C237 C236 1.379 . S
C238 C207 1.383 . S
C238 C225 1.479 . S
C238 C239 1.398 . S
C239 C204 1.382 . S
C239 H216 0.951 . S
C239 C238 1.398 . S
C240 C241 1.384 . S
C240 H253 0.947 . S
C240 C275 1.382 . S
C241 C240 1.384 . S
C241 C242 1.378 . S
C242 C241 1.378 . S
C242 C243 1.378 . S
C242 H254 0.952 . S
C243 C242 1.378 . S
C243 H255 0.950 . S
C243 C274 1.383 . S
H244 C263 0.947 . S
H245 C264 0.946 . S
H246 C266 0.953 . S
H247 C267 0.945 . S
H248 C269 0.952 . S
H249 C270 0.949 . S
H250 C272 0.950 . S
H251 C273 0.948 . S
H252 C275 0.951 . S
H253 C240 0.947 . S
H254 C242 0.952 . S
H255 C243 0.950 . S
N256 C259 1.382 . S
N256 C261 1.363 . S
N257 C259 1.371 . S
N257 C260 1.372 . S
N258 C260 1.361 . S
N258 C261 1.377 . S
C259 N256 1.382 . S
C259 N257 1.371 . S
C259 C262 1.480 . S
C260 N257 1.372 . S
C260 N258 1.361 . S
C260 C268 1.457 . S
C261 N256 1.363 . S
C261 N258 1.377 . S
C261 C274 1.479 . S
C262 C259 1.480 . S
C262 C263 1.383 . S
C262 C267 1.385 . S
C263 H244 0.947 . S
C263 C262 1.383 . S
C263 C264 1.388 . S
C264 H245 0.946 . S
C264 C263 1.388 . S
C264 C265 1.384 . S
C265 C264 1.384 . S
C265 C266 1.377 . S
C266 H246 0.953 . S
C266 C265 1.377 . S
C266 C267 1.369 . S
C267 H247 0.945 . S
C267 C262 1.385 . S
C267 C266 1.369 . S
C268 C260 1.457 . S
C268 C269 1.372 . S
C268 C273 1.364 . S
C269 H248 0.952 . S
C269 C268 1.372 . S
C269 C270 1.389 . S
C270 H249 0.949 . S
C270 C269 1.389 . S
C270 C271 1.387 . S
C271 C270 1.387 . S
C271 C272 1.372 . S
C272 H250 0.950 . S
C272 C271 1.372 . S
C272 C273 1.379 . S
C273 H251 0.948 . S
C273 C268 1.364 . S
C273 C272 1.379 . S
C274 C243 1.383 . S
C274 C261 1.479 . S
C274 C275 1.398 . S
C275 C240 1.382 . S
C275 H252 0.951 . S
C275 C274 1.398 . S
C276 C277 1.349 . S
C276 C278 1.327 . S
C276 H301 0.950 . S
C277 C276 1.349 . S
C277 C293 1.349 . S
C278 C276 1.327 . S
C278 C297 1.429 . S
C278 H302 0.950 . S
C279 C296 1.574 . S
C279 C298 1.368 . S
C279 H303 0.949 . S
H280 C284 0.949 . S
C281 C282 1.349 . S
C281 C283 1.327 . S
C281 H304 0.950 . S
C282 C281 1.349 . S
C282 C294 1.349 . S
C283 C281 1.327 . S
C283 C299 1.429 . S
C283 H305 0.950 . S
C284 H280 0.949 . S
C284 C292 1.574 . S
C284 C300 1.368 . S
H285 C293 0.950 . S
H286 C291 0.950 . S
H287 C292 0.949 . S
H288 C294 0.950 . S
H289 C295 0.950 . S
H290 C296 0.949 . S
C291 H286 0.950 . S
C291 C293 1.327 . S
C291 C297 1.429 . S
C292 C284 1.574 . S
C292 H287 0.949 . S
C292 C298 1.368 . S
C293 C277 1.349 . S
C293 H285 0.950 . S
C293 C291 1.327 . S
C294 C282 1.349 . S
C294 H288 0.950 . S
C294 C295 1.327 . S
C295 H289 0.950 . S
C295 C294 1.327 . S
C295 C299 1.429 . S
C296 C279 1.574 . S
C296 H290 0.949 . S
C296 C300 1.368 . S
C297 C278 1.429 . S
C297 C291 1.429 . S
C297 C298 1.523 . S
C298 C279 1.368 . S
C298 C292 1.368 . S
C298 C297 1.523 . S
C299 C283 1.429 . S
C299 C295 1.429 . S
C299 C300 1.523 . S
C300 C284 1.368 . S
C300 C296 1.368 . S
C300 C299 1.523 . S
H301 C276 0.950 . S
H302 C278 0.950 . S
H303 C279 0.949 . S
H304 C281 0.950 . S
H305 C283 0.950 . S
C306 C307 1.349 . S
C306 C308 1.327 . S
C306 H331 0.950 . S
C307 C306 1.349 . S
C307 C323 1.349 . S
C308 C306 1.327 . S
C308 C327 1.429 . S
C308 H332 0.950 . S
C309 C326 1.574 . S
C309 C328 1.368 . S
C309 H333 0.949 . S
H310 C314 0.949 . S
C311 C312 1.349 . S
C311 C313 1.327 . S
C311 H334 0.950 . S
C312 C311 1.349 . S
C312 C324 1.349 . S
C313 C311 1.327 . S
C313 C329 1.429 . S
C313 H335 0.950 . S
C314 H310 0.949 . S
C314 C322 1.574 . S
C314 C330 1.368 . S
H315 C323 0.950 . S
H316 C321 0.950 . S
H317 C322 0.949 . S
H318 C324 0.950 . S
H319 C325 0.950 . S
H320 C326 0.949 . S
C321 H316 0.950 . S
C321 C323 1.327 . S
C321 C327 1.429 . S
C322 C314 1.574 . S
C322 H317 0.949 . S
C322 C328 1.368 . S
C323 C307 1.349 . S
C323 H315 0.950 . S
C323 C321 1.327 . S
C324 C312 1.349 . S
C324 H318 0.950 . S
C324 C325 1.327 . S
C325 H319 0.950 . S
C325 C324 1.327 . S
C325 C329 1.429 . S
C326 C309 1.574 . S
C326 H320 0.949 . S
C326 C330 1.368 . S
C327 C308 1.429 . S
C327 C321 1.429 . S
C327 C328 1.523 . S
C328 C309 1.368 . S
C328 C322 1.368 . S
C328 C327 1.523 . S
C329 C313 1.429 . S
C329 C325 1.429 . S
C329 C330 1.523 . S
C330 C314 1.368 . S
C330 C326 1.368 . S
C330 C329 1.523 . S
H331 C306 0.950 . S
H332 C308 0.950 . S
H333 C309 0.949 . S
H334 C311 0.950 . S
H335 C313 0.950 . S
C336 C337 1.349 . S
C336 C338 1.327 . S
C336 H361 0.950 . S
C337 C336 1.349 . S
C337 C353 1.349 . S
C338 C336 1.327 . S
C338 C357 1.429 . S
C338 H362 0.950 . S
C339 C356 1.574 . S
C339 C358 1.368 . S
C339 H363 0.949 . S
H340 C344 0.949 . S
C341 C342 1.349 . S
C341 C343 1.327 . S
C341 H364 0.950 . S
C342 C341 1.349 . S
C342 C354 1.349 . S
C343 C341 1.327 . S
C343 C359 1.429 . S
C343 H365 0.950 . S
C344 H340 0.949 . S
C344 C352 1.574 . S
C344 C360 1.368 . S
H345 C353 0.950 . S
H346 C351 0.950 . S
H347 C352 0.949 . S
H348 C354 0.950 . S
H349 C355 0.950 . S
H350 C356 0.949 . S
C351 H346 0.950 . S
C351 C353 1.327 . S
C351 C357 1.429 . S
C352 C344 1.574 . S
C352 H347 0.949 . S
C352 C358 1.368 . S
C353 C337 1.349 . S
C353 H345 0.950 . S
C353 C351 1.327 . S
C354 C342 1.349 . S
C354 H348 0.950 . S
C354 C355 1.327 . S
C355 H349 0.950 . S
C355 C354 1.327 . S
C355 C359 1.429 . S
C356 C339 1.574 . S
C356 H350 0.949 . S
C356 C360 1.368 . S
C357 C338 1.429 . S
C357 C351 1.429 . S
C357 C358 1.523 . S
C358 C339 1.368 . S
C358 C352 1.368 . S
C358 C357 1.523 . S
C359 C343 1.429 . S
C359 C355 1.429 . S
C359 C360 1.523 . S
C360 C344 1.368 . S
C360 C356 1.368 . S
C360 C359 1.523 . S
H361 C336 0.950 . S
H362 C338 0.950 . S
H363 C339 0.949 . S
H364 C341 0.950 . S
H365 C343 0.950 . S
C366 C367 1.349 . S
C366 C368 1.327 . S
C366 H391 0.950 . S
C367 C366 1.349 . S
C367 C383 1.349 . S
C368 C366 1.327 . S
C368 C387 1.429 . S
C368 H392 0.950 . S
C369 C386 1.574 . S
C369 C388 1.368 . S
C369 H393 0.949 . S
H370 C374 0.949 . S
C371 C372 1.349 . S
C371 C373 1.327 . S
C371 H394 0.950 . S
C372 C371 1.349 . S
C372 C384 1.349 . S
C373 C371 1.327 . S
C373 C389 1.429 . S
C373 H395 0.950 . S
C374 H370 0.949 . S
C374 C382 1.574 . S
C374 C390 1.368 . S
H375 C383 0.950 . S
H376 C381 0.950 . S
H377 C382 0.949 . S
H378 C384 0.950 . S
H379 C385 0.950 . S
H380 C386 0.949 . S
C381 H376 0.950 . S
C381 C383 1.327 . S
C381 C387 1.429 . S
C382 C374 1.574 . S
C382 H377 0.949 . S
C382 C388 1.368 . S
C383 C367 1.349 . S
C383 H375 0.950 . S
C383 C381 1.327 . S
C384 C372 1.349 . S
C384 H378 0.950 . S
C384 C385 1.327 . S
C385 H379 0.950 . S
C385 C384 1.327 . S
C385 C389 1.429 . S
C386 C369 1.574 . S
C386 H380 0.949 . S
C386 C390 1.368 . S
C387 C368 1.429 . S
C387 C381 1.429 . S
C387 C388 1.523 . S
C388 C369 1.368 . S
C388 C382 1.368 . S
C388 C387 1.523 . S
C389 C373 1.429 . S
C389 C385 1.429 . S
C389 C390 1.523 . S
C390 C374 1.368 . S
C390 C386 1.368 . S
C390 C389 1.523 . S
H391 C366 0.950 . S
H392 C368 0.950 . S
H393 C369 0.949 . S
H394 C371 0.950 . S
H395 C373 0.950 . S
C396 C397 1.349 . S
C396 C398 1.327 . S
C396 H421 0.950 . S
C397 C396 1.349 . S
C397 C413 1.349 . S
C398 C396 1.327 . S
C398 C417 1.429 . S
C398 H422 0.950 . S
C399 C416 1.574 . S
C399 C418 1.368 . S
C399 H423 0.949 . S
H400 C404 0.949 . S
C401 C402 1.349 . S
C401 C403 1.327 . S
C401 H424 0.950 . S
C402 C401 1.349 . S
C402 C414 1.349 . S
C403 C401 1.327 . S
C403 C419 1.429 . S
C403 H425 0.950 . S
C404 H400 0.949 . S
C404 C412 1.574 . S
C404 C420 1.368 . S
H405 C413 0.950 . S
H406 C411 0.950 . S
H407 C412 0.949 . S
H408 C414 0.950 . S
H409 C415 0.950 . S
H410 C416 0.949 . S
C411 H406 0.950 . S
C411 C413 1.327 . S
C411 C417 1.429 . S
C412 C404 1.574 . S
C412 H407 0.949 . S
C412 C418 1.368 . S
C413 C397 1.349 . S
C413 H405 0.950 . S
C413 C411 1.327 . S
C414 C402 1.349 . S
C414 H408 0.950 . S
C414 C415 1.327 . S
C415 H409 0.950 . S
C415 C414 1.327 . S
C415 C419 1.429 . S
C416 C399 1.574 . S
C416 H410 0.949 . S
C416 C420 1.368 . S
C417 C398 1.429 . S
C417 C411 1.429 . S
C417 C418 1.523 . S
C418 C399 1.368 . S
C418 C412 1.368 . S
C418 C417 1.523 . S
C419 C403 1.429 . S
C419 C415 1.429 . S
C419 C420 1.523 . S
C420 C404 1.368 . S
C420 C416 1.368 . S
C420 C419 1.523 . S
H421 C396 0.950 . S
H422 C398 0.950 . S
H423 C399 0.949 . S
H424 C401 0.950 . S
H425 C403 0.950 . S
C426 C427 1.349 . S
C426 C428 1.327 . S
C426 H451 0.950 . S
C427 C426 1.349 . S
C427 C443 1.349 . S
C428 C426 1.327 . S
C428 C447 1.429 . S
C428 H452 0.950 . S
C429 C446 1.574 . S
C429 C448 1.368 . S
C429 H453 0.949 . S
H430 C434 0.949 . S
C431 C432 1.349 . S
C431 C433 1.327 . S
C431 H454 0.950 . S
C432 C431 1.349 . S
C432 C444 1.349 . S
C433 C431 1.327 . S
C433 C449 1.429 . S
C433 H455 0.950 . S
C434 H430 0.949 . S
C434 C442 1.574 . S
C434 C450 1.368 . S
H435 C443 0.950 . S
H436 C441 0.950 . S
H437 C442 0.949 . S
H438 C444 0.950 . S
H439 C445 0.950 . S
H440 C446 0.949 . S
C441 H436 0.950 . S
C441 C443 1.327 . S
C441 C447 1.429 . S
C442 C434 1.574 . S
C442 H437 0.949 . S
C442 C448 1.368 . S
C443 C427 1.349 . S
C443 H435 0.950 . S
C443 C441 1.327 . S
C444 C432 1.349 . S
C444 H438 0.950 . S
C444 C445 1.327 . S
C445 H439 0.950 . S
C445 C444 1.327 . S
C445 C449 1.429 . S
C446 C429 1.574 . S
C446 H440 0.949 . S
C446 C450 1.368 . S
C447 C428 1.429 . S
C447 C441 1.429 . S
C447 C448 1.523 . S
C448 C429 1.368 . S
C448 C442 1.368 . S
C448 C447 1.523 . S
C449 C433 1.429 . S
C449 C445 1.429 . S
C449 C450 1.523 . S
C450 C434 1.368 . S
C450 C446 1.368 . S
C450 C449 1.523 . S
H451 C426 0.950 . S
H452 C428 0.950 . S
H453 C429 0.949 . S
H454 C431 0.950 . S
H455 C433 0.950 . S
C456 C457 1.349 . S
C456 C458 1.327 . S
C456 H481 0.950 . S
C457 C456 1.349 . S
C457 C473 1.349 . S
C458 C456 1.327 . S
C458 C477 1.429 . S
C458 H482 0.950 . S
C459 C476 1.574 . S
C459 C478 1.368 . S
C459 H483 0.949 . S
H460 C464 0.949 . S
C461 C462 1.349 . S
C461 C463 1.327 . S
C461 H484 0.950 . S
C462 C461 1.349 . S
C462 C474 1.349 . S
C463 C461 1.327 . S
C463 C479 1.429 . S
C463 H485 0.950 . S
C464 H460 0.949 . S
C464 C472 1.574 . S
C464 C480 1.368 . S
H465 C473 0.950 . S
H466 C471 0.950 . S
H467 C472 0.949 . S
H468 C474 0.950 . S
H469 C475 0.950 . S
H470 C476 0.949 . S
C471 H466 0.950 . S
C471 C473 1.327 . S
C471 C477 1.429 . S
C472 C464 1.574 . S
C472 H467 0.949 . S
C472 C478 1.368 . S
C473 C457 1.349 . S
C473 H465 0.950 . S
C473 C471 1.327 . S
C474 C462 1.349 . S
C474 H468 0.950 . S
C474 C475 1.327 . S
C475 H469 0.950 . S
C475 C474 1.327 . S
C475 C479 1.429 . S
C476 C459 1.574 . S
C476 H470 0.949 . S
C476 C480 1.368 . S
C477 C458 1.429 . S
C477 C471 1.429 . S
C477 C478 1.523 . S
C478 C459 1.368 . S
C478 C472 1.368 . S
C478 C477 1.523 . S
C479 C463 1.429 . S
C479 C475 1.429 . S
C479 C480 1.523 . S
C480 C464 1.368 . S
C480 C476 1.368 . S
C480 C479 1.523 . S
H481 C456 0.950 . S
H482 C458 0.950 . S
H483 C459 0.949 . S
H484 C461 0.950 . S
H485 C463 0.950 . S
C486 C487 1.349 . S
C486 C488 1.327 . S
C486 H511 0.950 . S
C487 C486 1.349 . S
C487 C503 1.349 . S
C488 C486 1.327 . S
C488 C507 1.429 . S
C488 H512 0.950 . S
C489 C506 1.574 . S
C489 C508 1.368 . S
C489 H513 0.949 . S
H490 C494 0.949 . S
C491 C492 1.349 . S
C491 C493 1.327 . S
C491 H514 0.950 . S
C492 C491 1.349 . S
C492 C504 1.349 . S
C493 C491 1.327 . S
C493 C509 1.429 . S
C493 H515 0.950 . S
C494 H490 0.949 . S
C494 C502 1.574 . S
C494 C510 1.368 . S
H495 C503 0.950 . S
H496 C501 0.950 . S
H497 C502 0.949 . S
H498 C504 0.950 . S
H499 C505 0.950 . S
H500 C506 0.949 . S
C501 H496 0.950 . S
C501 C503 1.327 . S
C501 C507 1.429 . S
C502 C494 1.574 . S
C502 H497 0.949 . S
C502 C508 1.368 . S
C503 C487 1.349 . S
C503 H495 0.950 . S
C503 C501 1.327 . S
C504 C492 1.349 . S
C504 H498 0.950 . S
C504 C505 1.327 . S
C505 H499 0.950 . S
C505 C504 1.327 . S
C505 C509 1.429 . S
C506 C489 1.574 . S
C506 H500 0.949 . S
C506 C510 1.368 . S
C507 C488 1.429 . S
C507 C501 1.429 . S
C507 C508 1.523 . S
C508 C489 1.368 . S
C508 C502 1.368 . S
C508 C507 1.523 . S
C509 C493 1.429 . S
C509 C505 1.429 . S
C509 C510 1.523 . S
C510 C494 1.368 . S
C510 C506 1.368 . S
C510 C509 1.523 . S
H511 C486 0.950 . S
H512 C488 0.950 . S
H513 C489 0.949 . S
H514 C491 0.950 . S
H515 C493 0.950 . S
C516 C517 1.349 . S
C516 C518 1.327 . S
C516 H541 0.950 . S
C517 C516 1.349 . S
C517 C533 1.349 . S
C518 C516 1.327 . S
C518 C537 1.429 . S
C518 H542 0.950 . S
C519 C536 1.574 . S
C519 C538 1.368 . S
C519 H543 0.949 . S
H520 C524 0.949 . S
C521 C522 1.349 . S
C521 C523 1.327 . S
C521 H544 0.950 . S
C522 C521 1.349 . S
C522 C534 1.349 . S
C523 C521 1.327 . S
C523 C539 1.429 . S
C523 H545 0.950 . S
C524 H520 0.949 . S
C524 C532 1.574 . S
C524 C540 1.368 . S
H525 C533 0.950 . S
H526 C531 0.950 . S
H527 C532 0.949 . S
H528 C534 0.950 . S
H529 C535 0.950 . S
H530 C536 0.949 . S
C531 H526 0.950 . S
C531 C533 1.327 . S
C531 C537 1.429 . S
C532 C524 1.574 . S
C532 H527 0.949 . S
C532 C538 1.368 . S
C533 C517 1.349 . S
C533 H525 0.950 . S
C533 C531 1.327 . S
C534 C522 1.349 . S
C534 H528 0.950 . S
C534 C535 1.327 . S
C535 H529 0.950 . S
C535 C534 1.327 . S
C535 C539 1.429 . S
C536 C519 1.574 . S
C536 H530 0.949 . S
C536 C540 1.368 . S
C537 C518 1.429 . S
C537 C531 1.429 . S
C537 C538 1.523 . S
C538 C519 1.368 . S
C538 C532 1.368 . S
C538 C537 1.523 . S
C539 C523 1.429 . S
C539 C535 1.429 . S
C539 C540 1.523 . S
C540 C524 1.368 . S
C540 C536 1.368 . S
C540 C539 1.523 . S
H541 C516 0.950 . S
H542 C518 0.950 . S
H543 C519 0.949 . S
H544 C521 0.950 . S
H545 C523 0.950 . S
C546 C547 1.349 . S
C546 C548 1.327 . S
C546 H571 0.950 . S
C547 C546 1.349 . S
C547 C563 1.349 . S
C548 C546 1.327 . S
C548 C567 1.429 . S
C548 H572 0.950 . S
C549 C566 1.574 . S
C549 C568 1.368 . S
C549 H573 0.949 . S
H550 C554 0.949 . S
C551 C552 1.349 . S
C551 C553 1.327 . S
C551 H574 0.950 . S
C552 C551 1.349 . S
C552 C564 1.349 . S
C553 C551 1.327 . S
C553 C569 1.429 . S
C553 H575 0.950 . S
C554 H550 0.949 . S
C554 C562 1.574 . S
C554 C570 1.368 . S
H555 C563 0.950 . S
H556 C561 0.950 . S
H557 C562 0.949 . S
H558 C564 0.950 . S
H559 C565 0.950 . S
H560 C566 0.949 . S
C561 H556 0.950 . S
C561 C563 1.327 . S
C561 C567 1.429 . S
C562 C554 1.574 . S
C562 H557 0.949 . S
C562 C568 1.368 . S
C563 C547 1.349 . S
C563 H555 0.950 . S
C563 C561 1.327 . S
C564 C552 1.349 . S
C564 H558 0.950 . S
C564 C565 1.327 . S
C565 H559 0.950 . S
C565 C564 1.327 . S
C565 C569 1.429 . S
C566 C549 1.574 . S
C566 H560 0.949 . S
C566 C570 1.368 . S
C567 C548 1.429 . S
C567 C561 1.429 . S
C567 C568 1.523 . S
C568 C549 1.368 . S
C568 C562 1.368 . S
C568 C567 1.523 . S
C569 C553 1.429 . S
C569 C565 1.429 . S
C569 C570 1.523 . S
C570 C554 1.368 . S
C570 C566 1.368 . S
C570 C569 1.523 . S
H571 C546 0.950 . S
H572 C548 0.950 . S
H573 C549 0.949 . S
H574 C551 0.950 . S
H575 C553 0.950 . S
C576 C577 1.349 . S
C576 C578 1.327 . S
C576 H601 0.950 . S
C577 C576 1.349 . S
C577 C593 1.349 . S
C578 C576 1.327 . S
C578 C597 1.429 . S
C578 H602 0.950 . S
C579 C596 1.574 . S
C579 C598 1.368 . S
C579 H603 0.949 . S
H580 C584 0.949 . S
C581 C582 1.349 . S
C581 C583 1.327 . S
C581 H604 0.950 . S
C582 C581 1.349 . S
C582 C594 1.349 . S
C583 C581 1.327 . S
C583 C599 1.429 . S
C583 H605 0.950 . S
C584 H580 0.949 . S
C584 C592 1.574 . S
C584 C600 1.368 . S
H585 C593 0.950 . S
H586 C591 0.950 . S
H587 C592 0.949 . S
H588 C594 0.950 . S
H589 C595 0.950 . S
H590 C596 0.949 . S
C591 H586 0.950 . S
C591 C593 1.327 . S
C591 C597 1.429 . S
C592 C584 1.574 . S
C592 H587 0.949 . S
C592 C598 1.368 . S
C593 C577 1.349 . S
C593 H585 0.950 . S
C593 C591 1.327 . S
C594 C582 1.349 . S
C594 H588 0.950 . S
C594 C595 1.327 . S
C595 H589 0.950 . S
C595 C594 1.327 . S
C595 C599 1.429 . S
C596 C579 1.574 . S
C596 H590 0.949 . S
C596 C600 1.368 . S
C597 C578 1.429 . S
C597 C591 1.429 . S
C597 C598 1.523 . S
C598 C579 1.368 . S
C598 C592 1.368 . S
C598 C597 1.523 . S
C599 C583 1.429 . S
C599 C595 1.429 . S
C599 C600 1.523 . S
C600 C584 1.368 . S
C600 C596 1.368 . S
C600 C599 1.523 . S
H601 C576 0.950 . S
H602 C578 0.950 . S
H603 C579 0.949 . S
H604 C581 0.950 . S
H605 C583 0.950 . S
C606 C607 1.349 . S
C606 C608 1.327 . S
C606 H631 0.950 . S
C607 C606 1.349 . S
C607 C623 1.349 . S
C608 C606 1.327 . S
C608 C627 1.429 . S
C608 H632 0.950 . S
C609 C626 1.574 . S
C609 C628 1.368 . S
C609 H633 0.949 . S
H610 C614 0.949 . S
C611 C612 1.349 . S
C611 C613 1.327 . S
C611 H634 0.950 . S
C612 C611 1.349 . S
C612 C624 1.349 . S
C613 C611 1.327 . S
C613 C629 1.429 . S
C613 H635 0.950 . S
C614 H610 0.949 . S
C614 C622 1.574 . S
C614 C630 1.368 . S
H615 C623 0.950 . S
H616 C621 0.950 . S
H617 C622 0.949 . S
H618 C624 0.950 . S
H619 C625 0.950 . S
H620 C626 0.949 . S
C621 H616 0.950 . S
C621 C623 1.327 . S
C621 C627 1.429 . S
C622 C614 1.574 . S
C622 H617 0.949 . S
C622 C628 1.368 . S
C623 C607 1.349 . S
C623 H615 0.950 . S
C623 C621 1.327 . S
C624 C612 1.349 . S
C624 H618 0.950 . S
C624 C625 1.327 . S
C625 H619 0.950 . S
C625 C624 1.327 . S
C625 C629 1.429 . S
C626 C609 1.574 . S
C626 H620 0.949 . S
C626 C630 1.368 . S
C627 C608 1.429 . S
C627 C621 1.429 . S
C627 C628 1.523 . S
C628 C609 1.368 . S
C628 C622 1.368 . S
C628 C627 1.523 . S
C629 C613 1.429 . S
C629 C625 1.429 . S
C629 C630 1.523 . S
C630 C614 1.368 . S
C630 C626 1.368 . S
C630 C629 1.523 . S
H631 C606 0.950 . S
H632 C608 0.950 . S
H633 C609 0.949 . S
H634 C611 0.950 . S
H635 C613 0.950 . S
C636 C637 1.349 . S
C636 C638 1.327 . S
C636 H661 0.950 . S
C637 C636 1.349 . S
C637 C653 1.349 1_455 S
C638 C636 1.327 . S
C638 C657 1.429 . S
C638 H662 0.950 . S
C639 C656 1.574 . S
C639 C658 1.368 1_655 S
C639 H663 0.949 . S
H640 C644 0.949 . S
C641 C642 1.349 . S
C641 C643 1.329 1_556 S
C641 H664 0.950 1_455 S
C642 C641 1.349 . S
C642 C654 1.349 . S
C643 C641 1.329 1_554 S
C643 C659 1.436 . S
C643 H665 0.941 1_455 S
C644 H640 0.949 . S
C644 C652 1.574 . S
C644 C660 1.368 . S
H645 C653 0.950 . S
H646 C651 0.950 . S
H647 C652 0.949 . S
H648 C654 0.950 . S
H649 C655 0.950 . S
H650 C656 0.949 . S
C651 H646 0.950 . S
C651 C653 1.327 . S
C651 C657 1.429 1_655 S
C652 C644 1.574 . S
C652 H647 0.949 . S
C652 C658 1.368 . S
C653 C637 1.349 1_655 S
C653 H645 0.950 . S
C653 C651 1.327 . S
C654 C642 1.349 . S
C654 H648 0.950 . S
C654 C655 1.327 1_556 S
C655 H649 0.950 . S
C655 C654 1.327 1_554 S
C655 C659 1.429 . S
C656 C639 1.574 . S
C656 H650 0.949 . S
C656 C660 1.368 1_655 S
C657 C638 1.429 . S
C657 C651 1.429 1_455 S
C657 C658 1.523 . S
C658 C639 1.368 1_455 S
C658 C652 1.368 . S
C658 C657 1.523 . S
C659 C643 1.436 . S
C659 C655 1.429 . S
C659 C660 1.523 . S
C660 C644 1.368 . S
C660 C656 1.368 1_455 S
C660 C659 1.523 . S
H661 C636 0.950 . S
H662 C638 0.950 . S
H663 C639 0.949 . S
H664 C641 0.950 1_655 S
H665 C643 0.941 1_655 S
C666 C667 1.349 . S
C666 C668 1.327 . S
C666 H691 0.950 . S
C667 C666 1.349 . S
C667 C683 1.349 1_545 S
C668 C666 1.327 . S
C668 C687 1.429 . S
C668 H692 0.950 . S
C669 C686 1.571 1_565 S
C669 C688 1.368 1_565 S
C669 H693 0.949 . S
H670 C674 0.949 . S
C671 C672 1.349 . S
C671 C673 1.327 . S
C671 H694 0.950 1_545 S
C672 C671 1.349 . S
C672 C684 1.349 . S
C673 C671 1.327 . S
C673 C689 1.429 . S
C673 H695 0.950 1_545 S
C674 H670 0.949 . S
C674 C682 1.574 . S
C674 C690 1.368 . S
H675 C683 0.950 . S
H676 C681 0.950 . S
H677 C682 0.949 . S
H678 C684 0.950 . S
H679 C685 0.950 . S
H680 C686 0.946 1_565 S
C681 H676 0.950 . S
C681 C683 1.327 . S
C681 C687 1.429 1_565 S
C682 C674 1.574 . S
C682 H677 0.949 . S
C682 C688 1.368 . S
C683 C667 1.349 1_565 S
C683 H675 0.950 . S
C683 C681 1.327 . S
C684 C672 1.349 . S
C684 H678 0.950 . S
C684 C685 1.327 . S
C685 H679 0.950 . S
C685 C684 1.327 . S
C685 C689 1.429 . S
C686 C669 1.571 1_545 S
C686 H680 0.946 1_545 S
C686 C690 1.375 . S
C687 C668 1.429 . S
C687 C681 1.429 1_545 S
C687 C688 1.523 . S
C688 C669 1.368 1_545 S
C688 C682 1.368 . S
C688 C687 1.523 . S
C689 C673 1.429 . S
C689 C685 1.429 . S
C689 C690 1.523 . S
C690 C674 1.368 . S
C690 C686 1.375 . S
C690 C689 1.523 . S
H691 C666 0.950 . S
H692 C668 0.950 . S
H693 C669 0.949 . S
H694 C671 0.950 1_565 S
H695 C673 0.950 1_565 S
C696 C697 1.349 . S
C696 C698 1.327 . S
C696 H721 0.950 . S
C697 C696 1.349 . S
C697 C713 1.349 . S
C698 C696 1.327 . S
C698 C717 1.429 . S
C698 H722 0.950 . S
C699 C716 1.574 . S
C699 C718 1.368 . S
C699 H723 0.949 . S
H700 C704 0.949 . S
C701 C702 1.349 . S
C701 C703 1.327 . S
C701 H724 0.950 . S
C702 C701 1.349 . S
C702 C714 1.349 . S
C703 C701 1.327 . S
C703 C719 1.429 . S
C703 H725 0.950 . S
C704 H700 0.949 . S
C704 C712 1.574 . S
C704 C720 1.368 . S
H705 C713 0.950 . S
H706 C711 0.950 . S
H707 C712 0.949 . S
H708 C714 0.950 . S
H709 C715 0.950 . S
H710 C716 0.949 . S
C711 H706 0.950 . S
C711 C713 1.327 . S
C711 C717 1.429 . S
C712 C704 1.574 . S
C712 H707 0.949 . S
C712 C718 1.368 . S
C713 C697 1.349 . S
C713 H705 0.950 . S
C713 C711 1.327 . S
C714 C702 1.349 . S
C714 H708 0.950 . S
C714 C715 1.327 . S
C715 H709 0.950 . S
C715 C714 1.327 . S
C715 C719 1.429 . S
C716 C699 1.574 . S
C716 H710 0.949 . S
C716 C720 1.368 . S
C717 C698 1.429 . S
C717 C711 1.429 . S
C717 C718 1.523 . S
C718 C699 1.368 . S
C718 C712 1.368 . S
C718 C717 1.523 . S
C719 C703 1.429 . S
C719 C715 1.429 . S
C719 C720 1.523 . S
C720 C704 1.368 . S
C720 C716 1.368 . S
C720 C719 1.523 . S
H721 C696 0.950 . S
H722 C698 0.950 . S
H723 C699 0.949 . S
H724 C701 0.950 . S
H725 C703 0.950 . S
C726 C727 1.349 1_565 S
C726 C728 1.327 . S
C726 H751 0.950 . S
C727 C726 1.349 1_545 S
C727 C743 1.349 . S
C728 C726 1.327 . S
C728 C747 1.429 1_565 S
C728 H752 0.950 . S
C729 C746 1.574 . S
C729 C748 1.368 . S
C729 H753 0.949 . S
H730 C734 0.949 . S
C731 C732 1.349 . S
C731 C733 1.327 . S
C731 H754 0.950 . S
C732 C731 1.349 . S
C732 C744 1.349 1_545 S
C733 C731 1.327 . S
C733 C749 1.429 . S
C733 H755 0.950 . S
C734 H730 0.949 . S
C734 C742 1.574 . S
C734 C750 1.368 1_565 S
H735 C743 0.950 . S
H736 C741 0.950 . S
H737 C742 0.949 . S
H738 C744 0.950 . S
H739 C745 0.950 . S
H740 C746 0.949 . S
C741 H736 0.950 . S
C741 C743 1.327 . S
C741 C747 1.429 . S
C742 C734 1.574 . S
C742 H737 0.949 . S
C742 C748 1.368 1_565 S
C743 C727 1.349 . S
C743 H735 0.950 . S
C743 C741 1.327 . S
C744 C732 1.349 1_565 S
C744 H738 0.950 . S
C744 C745 1.327 . S
C745 H739 0.950 . S
C745 C744 1.327 . S
C745 C749 1.429 1_565 S
C746 C729 1.574 . S
C746 H740 0.949 . S
C746 C750 1.368 . S
C747 C728 1.429 1_545 S
C747 C741 1.429 . S
C747 C748 1.523 . S
C748 C729 1.368 . S
C748 C742 1.368 1_545 S
C748 C747 1.523 . S
C749 C733 1.429 . S
C749 C745 1.429 1_545 S
C749 C750 1.523 . S
C750 C734 1.368 1_545 S
C750 C746 1.368 . S
C750 C749 1.523 . S
H751 C726 0.950 . S
H752 C728 0.950 . S
H753 C729 0.949 . S
H754 C731 0.950 . S
H755 C733 0.950 . S
C756 C757 1.349 . S
C756 C758 1.327 . S
C756 H781 0.950 . S
C757 C756 1.349 . S
C757 C773 1.349 . S
C758 C756 1.327 . S
C758 C777 1.429 . S
C758 H782 0.950 . S
C759 C776 1.574 . S
C759 C778 1.368 . S
C759 H783 0.949 . S
H760 C764 0.949 . S
C761 C762 1.349 . S
C761 C763 1.327 1_554 S
C761 H784 0.950 . S
C762 C761 1.349 . S
C762 C774 1.349 . S
C763 C761 1.327 1_556 S
C763 C779 1.429 . S
C763 H785 0.950 . S
C764 H760 0.949 . S
C764 C772 1.574 . S
C764 C780 1.368 . S
H765 C773 0.950 . S
H766 C771 0.950 . S
H767 C772 0.949 . S
H768 C774 0.950 . S
H769 C775 0.950 . S
H770 C776 0.949 . S
C771 H766 0.950 . S
C771 C773 1.327 . S
C771 C777 1.429 . S
C772 C764 1.574 . S
C772 H767 0.949 . S
C772 C778 1.368 . S
C773 C757 1.349 . S
C773 H765 0.950 . S
C773 C771 1.327 . S
C774 C762 1.349 . S
C774 H768 0.950 . S
C774 C775 1.327 1_554 S
C775 H769 0.950 . S
C775 C774 1.327 1_556 S
C775 C779 1.429 . S
C776 C759 1.574 . S
C776 H770 0.949 . S
C776 C780 1.368 . S
C777 C758 1.429 . S
C777 C771 1.429 . S
C777 C778 1.523 . S
C778 C759 1.368 . S
C778 C772 1.368 . S
C778 C777 1.523 . S
C779 C763 1.429 . S
C779 C775 1.429 . S
C779 C780 1.523 . S
C780 C764 1.368 . S
C780 C776 1.368 . S
C780 C779 1.523 . S
H781 C756 0.950 . S
H782 C758 0.950 . S
H783 C759 0.949 . S
H784 C761 0.950 . S
H785 C763 0.950 . S
C786 C787 1.366 . S
C786 C788 1.327 . S
C786 H811 0.950 . S
C787 C786 1.366 . S
C787 C803 1.316 1_455 S
C788 C786 1.327 . S
C788 C807 1.429 . S
C788 H812 0.950 . S
C789 C806 1.574 . S
C789 C808 1.368 . S
C789 H813 0.952 . S
H790 C794 0.949 . S
C791 C792 1.349 . S
C791 C793 1.327 . S
C791 H814 0.950 . S
C792 C791 1.349 . S
C792 C804 1.349 . S
C793 C791 1.327 . S
C793 C809 1.429 . S
C793 H815 0.950 . S
C794 H790 0.949 . S
C794 C802 1.574 . S
C794 C810 1.368 . S
H795 C803 0.971 . S
H796 C801 0.951 1_655 S
H797 C802 0.949 . S
H798 C804 0.950 . S
H799 C805 0.950 . S
H800 C806 0.949 . S
C801 H796 0.951 1_455 S
C801 C803 1.327 1_455 S
C801 C807 1.427 . S
C802 C794 1.574 . S
C802 H797 0.949 . S
C802 C808 1.368 . S
C803 C787 1.316 1_655 S
C803 H795 0.971 . S
C803 C801 1.327 1_655 S
C804 C792 1.349 . S
C804 H798 0.950 . S
C804 C805 1.327 . S
C805 H799 0.950 . S
C805 C804 1.327 . S
C805 C809 1.429 . S
C806 C789 1.574 . S
C806 H800 0.949 . S
C806 C810 1.368 . S
C807 C788 1.429 . S
C807 C801 1.427 . S
C807 C808 1.523 . S
C808 C789 1.368 . S
C808 C802 1.368 . S
C808 C807 1.523 . S
C809 C793 1.429 . S
C809 C805 1.429 . S
C809 C810 1.523 . S
C810 C794 1.368 . S
C810 C806 1.368 . S
C810 C809 1.523 . S
H811 C786 0.950 . S
H812 C788 0.950 . S
H813 C789 0.952 . S
H814 C791 0.950 . S
H815 C793 0.950 . S
C277 C2 1.280 . S
C282 C265 1.332 . S
C307 C22 1.253 . S
C312 C193 1.314 . S
C337 C44 1.317 . S
C342 C229 1.375 . S
C367 C4 1.495 . S
C372 C241 1.581 . S
C402 C169 1.611 . S
C397 C24 1.540 . S
C432 C205 1.533 . S
C427 C42 1.452 . S
C457 C32 1.270 . S
C462 C121 1.272 . S
C487 C49 1.207 . S
C492 C133 1.215 . S
C517 C9 1.192 . S
C522 C61 1.204 . S
C552 C97 1.196 . S
C547 C29 1.162 . S
C582 C157 1.232 . S
C577 C52 1.210 . S
C607 C12 1.204 . S
C612 C85 1.222 . S
C642 C163 1.430 . S
C637 C18 1.419 1_455 S
C667 C38 1.421 . S
C672 C91 1.432 . S
C697 C58 1.418 . S
C702 C127 1.439 . S
C732 C235 1.495 . S
C727 C39 1.482 . S
C762 C271 1.484 . S
C757 C59 1.463 . S
C787 C19 1.470 . S
C792 C199 1.486 . S
