# Generated by pormake.
# Topology apo, (3,6)-cn, num edge types: 1
# Building blocks:
#     Node 0, Type 0, BuildingBlock: KAKCAD_clean_linker_0, # of connection points: 3
#     Node 1, Type 0, BuildingBlock: KAKCAD_clean_linker_0, # of connection points: 3
#     Node 2, Type 0, BuildingBlock: KAKCAD_clean_linker_0, # of connection points: 3
#     Node 3, Type 0, BuildingBlock: KAKCAD_clean_linker_0, # of connection points: 3
#     Node 4, Type 0, BuildingBlock: KAKCAD_clean_linker_0, # of connection points: 3
#     Node 5, Type 0, BuildingBlock: KAKCAD_clean_linker_0, # of connection points: 3
#     Node 6, Type 0, BuildingBlock: KAKCAD_clean_linker_0, # of connection points: 3
#     Node 7, Type 0, BuildingBlock: KAKCAD_clean_linker_0, # of connection points: 3
#     Node 8, Type 1, BuildingBlock: KUMBOL_clean_sbu_1, # of connection points: 6
#     Node 9, Type 1, BuildingBlock: KUMBOL_clean_sbu_1, # of connection points: 6
#     Node 10, Type 1, BuildingBlock: KUMBOL_clean_sbu_1, # of connection points: 6
#     Node 11, Type 1, BuildingBlock: KUMBOL_clean_sbu_1, # of connection points: 6
#     Edge 12, Type (0, 1), BuildingBlock: EZIPEK_clean_linker_0, # of connection points: 2
#     Edge 13, Type (0, 1), BuildingBlock: EZIPEK_clean_linker_0, # of connection points: 2
#     Edge 14, Type (0, 1), BuildingBlock: EZIPEK_clean_linker_0, # of connection points: 2
#     Edge 15, Type (0, 1), BuildingBlock: EZIPEK_clean_linker_0, # of connection points: 2
#     Edge 16, Type (0, 1), BuildingBlock: EZIPEK_clean_linker_0, # of connection points: 2
#     Edge 17, Type (0, 1), BuildingBlock: EZIPEK_clean_linker_0, # of connection points: 2
#     Edge 18, Type (0, 1), BuildingBlock: EZIPEK_clean_linker_0, # of connection points: 2
#     Edge 19, Type (0, 1), BuildingBlock: EZIPEK_clean_linker_0, # of connection points: 2
#     Edge 20, Type (0, 1), BuildingBlock: EZIPEK_clean_linker_0, # of connection points: 2
#     Edge 21, Type (0, 1), BuildingBlock: EZIPEK_clean_linker_0, # of connection points: 2
#     Edge 22, Type (0, 1), BuildingBlock: EZIPEK_clean_linker_0, # of connection points: 2
#     Edge 23, Type (0, 1), BuildingBlock: EZIPEK_clean_linker_0, # of connection points: 2
#     Edge 24, Type (0, 1), BuildingBlock: EZIPEK_clean_linker_0, # of connection points: 2
#     Edge 25, Type (0, 1), BuildingBlock: EZIPEK_clean_linker_0, # of connection points: 2
#     Edge 26, Type (0, 1), BuildingBlock: EZIPEK_clean_linker_0, # of connection points: 2
#     Edge 27, Type (0, 1), BuildingBlock: EZIPEK_clean_linker_0, # of connection points: 2
#     Edge 28, Type (0, 1), BuildingBlock: EZIPEK_clean_linker_0, # of connection points: 2
#     Edge 29, Type (0, 1), BuildingBlock: EZIPEK_clean_linker_0, # of connection points: 2
#     Edge 30, Type (0, 1), BuildingBlock: EZIPEK_clean_linker_0, # of connection points: 2
#     Edge 31, Type (0, 1), BuildingBlock: EZIPEK_clean_linker_0, # of connection points: 2
#     Edge 32, Type (0, 1), BuildingBlock: EZIPEK_clean_linker_0, # of connection points: 2
#     Edge 33, Type (0, 1), BuildingBlock: EZIPEK_clean_linker_0, # of connection points: 2
#     Edge 34, Type (0, 1), BuildingBlock: EZIPEK_clean_linker_0, # of connection points: 2
#     Edge 35, Type (0, 1), BuildingBlock: EZIPEK_clean_linker_0, # of connection points: 2
# Relax obj value: 0.008
# Max RMSD: 0.113
# Mean RMSD: 0.086
data_MOF--net-apo--node1-KUMBOL_clean_sbu_1--node2-KAKCAD_clean_linker_0--edge1-EZIPEK_clean_linker_0
_symmetry_space_group_name_H-M    P1
_symmetry_Int_Tables_number       1
_symmetry_cell_setting            triclinic
loop_
_symmetry_equiv_pos_as_xyz
'x, y, z'
_cell_length_a     23.274269
_cell_length_b     40.577567
_cell_length_c     51.623579
_cell_angle_alpha  90.065036
_cell_angle_beta   90.005354
_cell_angle_gamma 90.475701
loop_
_atom_site_label
_atom_site_type_symbol
_atom_site_fract_x
_atom_site_fract_y
_atom_site_fract_z
_atom_type_partial_charge
C0 C 0.31252 0.4617 0.33795 0.0
C1 C 0.35957 0.48091 0.34603 0.0
C2 C 0.29313 0.43529 0.35307 0.0
C3 C 0.32159 0.42679 0.37622 0.0
C4 C 0.3687 0.44632 0.38422 0.0
C5 C 0.3869 0.47331 0.36949 0.0
C6 C 0.30321 0.39731 0.3916 0.0
C7 C 0.27975 0.36938 0.37915 0.0
C8 C 0.2618 0.34168 0.39338 0.0
C9 C 0.26966 0.34142 0.42032 0.0
C10 C 0.29336 0.36882 0.43326 0.0
C11 C 0.30917 0.3968 0.41877 0.0
C12 C 0.30155 0.36806 0.46189 0.0
C13 C 0.26056 0.35259 0.47795 0.0
C14 C 0.35096 0.38208 0.47336 0.0
C15 C 0.35942 0.38029 0.50016 0.0
C16 C 0.31891 0.36419 0.51588 0.0
C17 C 0.2325 0.3136 0.38022 0.0
C18 C 0.25213 0.30178 0.35617 0.0
C19 C 0.18282 0.2994 0.39119 0.0
C20 C 0.15269 0.27454 0.37815 0.0
C21 C 0.17171 0.26342 0.35395 0.0
C22 C 0.22193 0.27686 0.34314 0.0
C23 C 0.26933 0.35054 0.50466 0.0
H24 H 0.29079 0.46717 0.31992 0.0
H25 H 0.25579 0.42162 0.34648 0.0
H26 H 0.39262 0.44042 0.40156 0.0
H27 H 0.42348 0.48777 0.37601 0.0
H28 H 0.27479 0.36917 0.35831 0.0
H29 H 0.32501 0.41847 0.42882 0.0
H30 H 0.258 0.31952 0.43117 0.0
H31 H 0.2215 0.34211 0.46991 0.0
H32 H 0.38373 0.39383 0.46159 0.0
H33 H 0.39791 0.39097 0.5086 0.0
H34 H 0.29061 0.31194 0.34737 0.0
H35 H 0.16615 0.30821 0.4095 0.0
H36 H 0.23744 0.33828 0.51661 0.0
H37 H 0.23708 0.26845 0.32445 0.0
H38 H 0.1138 0.26445 0.38666 0.0
C39 C 0.20488 0.02124 0.85784 0.0
C40 C 0.14626 0.01523 0.8533 0.0
C41 C 0.22225 0.04841 0.87268 0.0
C42 C 0.18116 0.06928 0.88377 0.0
C43 C 0.12254 0.06249 0.88008 0.0
C44 C 0.1052 0.0358 0.86473 0.0
C45 C 0.1993 0.09963 0.89738 0.0
C46 C 0.22692 0.12474 0.88345 0.0
C47 C 0.24243 0.15454 0.89551 0.0
C48 C 0.23108 0.15852 0.92211 0.0
C49 C 0.20481 0.13313 0.93664 0.0
C50 C 0.18822 0.10385 0.92388 0.0
C51 C 0.19607 0.13698 0.96514 0.0
C52 C 0.23761 0.15338 0.98039 0.0
C53 C 0.14694 0.12385 0.97746 0.0
C54 C 0.13992 0.12679 1.00431 0.0
C55 C 0.18153 0.14321 0.01927 0.0
C56 C 0.271 0.1812 0.88029 0.0
C57 C 0.25432 0.1875 0.85453 0.0
C58 C 0.31632 0.19988 0.89106 0.0
C59 C 0.34487 0.22379 0.87629 0.0
C60 C 0.32888 0.22929 0.85049 0.0
C61 C 0.28323 0.2112 0.83973 0.0
C62 C 0.23024 0.15659 1.00713 0.0
H63 H 0.23706 0.00549 0.84924 0.0
H64 H 0.26769 0.05339 0.87528 0.0
H65 H 0.09029 0.0785 0.88833 0.0
H66 H 0.05979 0.03138 0.86151 0.0
H67 H 0.23612 0.12093 0.86309 0.0
H68 H 0.16817 0.08388 0.93457 0.0
H69 H 0.24185 0.18168 0.93143 0.0
H70 H 0.27651 0.16324 0.97176 0.0
H71 H 0.11366 0.11148 0.96638 0.0
H72 H 0.10203 0.11633 0.01342 0.0
H73 H 0.21896 0.17405 0.84575 0.0
H74 H 0.3308 0.19544 0.91067 0.0
H75 H 0.26298 0.16912 0.01846 0.0
H76 H 0.27034 0.21529 0.81983 0.0
H77 H 0.3803 0.23751 0.88479 0.0
C78 C 0.81338 0.0282 0.67146 0.0
C79 C 0.86903 0.0163 0.66761 0.0
C80 C 0.79207 0.05332 0.6558 0.0
C81 C 0.82608 0.06718 0.636 0.0
C82 C 0.8811 0.05426 0.63147 0.0
C83 C 0.90248 0.02899 0.64722 0.0
C84 C 0.80552 0.09678 0.62184 0.0
C85 C 0.7806 0.12254 0.63596 0.0
C86 C 0.75994 0.1508 0.62361 0.0
C87 C 0.76396 0.1531 0.59651 0.0
C88 C 0.78908 0.12769 0.58178 0.0
C89 C 0.81032 0.09966 0.59473 0.0
C90 C 0.79292 0.13077 0.55298 0.0
C91 C 0.74711 0.14426 0.53877 0.0
C92 C 0.84276 0.12126 0.5395 0.0
C93 C 0.84714 0.12594 0.51264 0.0
C94 C 0.80177 0.14016 0.49876 0.0
C95 C 0.73426 0.17768 0.63933 0.0
C96 C 0.68253 0.1926 0.63179 0.0
C97 C 0.76034 0.18766 0.6627 0.0
C98 C 0.73485 0.21149 0.67838 0.0
C99 C 0.68277 0.22585 0.67104 0.0
C100 C 0.65692 0.21645 0.64756 0.0
C101 C 0.75154 0.14891 0.51199 0.0
H102 H 0.78681 0.01846 0.68694 0.0
H103 H 0.7492 0.06238 0.65952 0.0
H104 H 0.90836 0.06454 0.61647 0.0
H105 H 0.9455 0.0199 0.64394 0.0
H106 H 0.7772 0.12056 0.65684 0.0
H107 H 0.82895 0.07968 0.5837 0.0
H108 H 0.74892 0.17518 0.58696 0.0
H109 H 0.70772 0.15133 0.54837 0.0
H110 H 0.87901 0.11105 0.5498 0.0
H111 H 0.88628 0.11903 0.50275 0.0
H112 H 0.66118 0.18526 0.61403 0.0
H113 H 0.80059 0.177 0.66888 0.0
H114 H 0.71596 0.15977 0.5016 0.0
H115 H 0.61675 0.22739 0.6416 0.0
H116 H 0.75564 0.21867 0.69632 0.0
C117 C 0.69866 0.48119 0.17287 0.0
C118 C 0.64247 0.4922 0.16894 0.0
C119 C 0.72011 0.4552 0.15813 0.0
C120 C 0.68577 0.43984 0.13911 0.0
C121 C 0.63015 0.45178 0.13455 0.0
C122 C 0.60852 0.4777 0.14948 0.0
C123 C 0.70706 0.41021 0.12536 0.0
C124 C 0.73308 0.38499 0.13962 0.0
C125 C 0.7554 0.35705 0.1273 0.0
C126 C 0.75057 0.35432 0.10023 0.0
C127 C 0.72438 0.37925 0.08548 0.0
C128 C 0.70228 0.40707 0.09832 0.0
C129 C 0.72175 0.37651 0.05668 0.0
C130 C 0.76886 0.36416 0.04268 0.0
C131 C 0.67234 0.38606 0.04294 0.0
C132 C 0.67004 0.3831 0.01591 0.0
C133 C 0.71706 0.37056 1.00217 0.0
C134 C 0.78528 0.33129 0.14266 0.0
C135 C 0.82098 0.34001 0.16349 0.0
C136 C 0.77744 0.29776 0.13708 0.0
C137 C 0.80759 0.27378 0.15084 0.0
C138 C 0.84941 0.28245 0.16969 0.0
C139 C 0.85078 0.316 0.17729 0.0
C140 C 0.76645 0.36116 0.01572 0.0
H141 H 0.72535 0.4922 0.1878 0.0
H142 H 0.76336 0.44675 0.16184 0.0
H143 H 0.60272 0.44028 0.12013 0.0
H144 H 0.56496 0.48597 0.14629 0.0
H145 H 0.73518 0.38698 0.16054 0.0
H146 H 0.68318 0.42683 0.08724 0.0
H147 H 0.76784 0.33286 0.09057 0.0
H148 H 0.80796 0.35711 0.05252 0.0
H149 H 0.63513 0.39537 0.0531 0.0
H150 H 0.63152 0.39042 1.00572 0.0
H151 H 0.82642 0.36555 0.16917 0.0
H152 H 0.74713 0.28994 0.12234 0.0
H153 H 0.80322 0.35157 1.00538 0.0
H154 H 0.87387 0.32445 0.19415 0.0
H155 H 0.7964 0.24848 0.14669 0.0
C156 C 0.63297 0.55193 0.68281 0.0
C157 C 0.63102 0.51959 0.67327 0.0
C158 C 0.65232 0.57774 0.66716 0.0
C159 C 0.67258 0.57175 0.64185 0.0
C160 C 0.66941 0.53933 0.63214 0.0
C161 C 0.64825 0.5136 0.6476 0.0
C162 C 0.69947 0.59908 0.62649 0.0
C163 C 0.7308 0.62385 0.63939 0.0
C164 C 0.7551 0.65056 0.62602 0.0
C165 C 0.75055 0.65161 0.59887 0.0
C166 C 0.72098 0.62654 0.58518 0.0
C167 C 0.69501 0.60059 0.59928 0.0
C168 C 0.71758 0.62733 0.55622 0.0
C169 C 0.76521 0.63761 0.54134 0.0
C170 C 0.66717 0.61733 0.54315 0.0
C171 C 0.66475 0.61726 0.51602 0.0
C172 C 0.71251 0.62734 0.50138 0.0
C173 C 0.78474 0.67713 0.64099 0.0
C174 C 0.76113 0.68826 0.66453 0.0
C175 C 0.8377 0.69039 0.63276 0.0
C176 C 0.86691 0.71365 0.64806 0.0
C177 C 0.84357 0.72399 0.67178 0.0
C178 C 0.79034 0.71136 0.67979 0.0
C179 C 0.76263 0.63766 0.51422 0.0
H180 H 0.61984 0.55719 0.70251 0.0
H181 H 0.65207 0.6024 0.67517 0.0
H182 H 0.68499 0.53352 0.61293 0.0
H183 H 0.64713 0.48877 0.63986 0.0
H184 H 0.73741 0.62214 0.66011 0.0
H185 H 0.67164 0.58144 0.58904 0.0
H186 H 0.76889 0.67234 0.58846 0.0
H187 H 0.805 0.64503 0.55061 0.0
H188 H 0.62933 0.60975 0.55387 0.0
H189 H 0.62562 0.6093 0.50642 0.0
H190 H 0.71997 0.679 0.67124 0.0
H191 H 0.85721 0.68218 0.61486 0.0
H192 H 0.8 0.6454 0.50322 0.0
H193 H 0.77147 0.71938 0.6979 0.0
H194 H 0.90792 0.72337 0.64156 0.0
C195 C 0.72292 0.8665 0.01383 0.0
C196 C 0.77391 0.8774 1.00205 0.0
C197 C 0.71688 0.8676 0.0408 0.0
C198 C 0.76186 0.87953 0.0566 0.0
C199 C 0.81327 0.89002 0.04462 0.0
C200 C 0.81915 0.88903 0.01761 0.0
C201 C 0.75449 0.88176 0.08533 0.0
C202 C 0.72423 0.85703 0.099 0.0
C203 C 0.71481 0.85995 0.12577 0.0
C204 C 0.73645 0.88743 0.13909 0.0
C205 C 0.7682 0.91185 0.12612 0.0
C206 C 0.77681 0.90896 0.09922 0.0
C207 C 0.79388 0.9396 0.14108 0.0
C208 C 0.7618 0.95582 0.16031 0.0
C209 C 0.85168 0.94873 0.13732 0.0
C210 C 0.87723 0.97297 0.15289 0.0
C211 C 0.84534 0.98863 0.17233 0.0
C212 C 0.68399 0.83398 0.14041 0.0
C213 C 0.70677 0.80215 0.14211 0.0
C214 C 0.63399 0.84159 0.15436 0.0
C215 C 0.60717 0.81773 0.16982 0.0
C216 C 0.63089 0.78616 0.17214 0.0
C217 C 0.68074 0.77852 0.15805 0.0
C218 C 0.78726 0.98025 0.17573 0.0
H219 H 0.68746 0.85759 1.00209 0.0
H220 H 0.67639 0.85978 0.04921 0.0
H221 H 0.84914 0.89889 0.0561 0.0
H222 H 0.85889 0.89747 1.00882 0.0
H223 H 0.70791 0.83547 0.0889 0.0
H224 H 0.79979 0.92836 0.08908 0.0
H225 H 0.73033 0.8891 0.15988 0.0
H226 H 0.71704 0.94951 0.16348 0.0
H227 H 0.87759 0.93645 0.12286 0.0
H228 H 0.92204 0.97935 0.14994 0.0
H229 H 0.74563 0.79591 0.13172 0.0
H230 H 0.61589 0.86607 0.15334 0.0
H231 H 0.76196 0.99237 0.19049 0.0
H232 H 0.69955 0.75425 0.15949 0.0
H233 H 0.56845 0.824 0.1803 0.0
C234 C 0.11387 0.94874 0.34745 0.0
C235 C 0.13126 0.98138 0.35232 0.0
C236 C 0.13546 0.923 0.36242 0.0
C237 C 0.17377 0.92958 0.38283 0.0
C238 C 0.19044 0.96225 0.38799 0.0
C239 C 0.16984 0.98794 0.37265 0.0
C240 C 0.19789 0.90226 0.39814 0.0
C241 C 0.22736 0.8769 0.38554 0.0
C242 C 0.25121 0.85089 0.39968 0.0
C243 C 0.24493 0.85049 0.42677 0.0
C244 C 0.21373 0.87514 0.43976 0.0
C245 C 0.19096 0.90126 0.42514 0.0
C246 C 0.20369 0.8729 0.46833 0.0
C247 C 0.19774 0.84191 0.48039 0.0
C248 C 0.19942 0.90143 0.48383 0.0
C249 C 0.18965 0.89895 0.51053 0.0
C250 C 0.18552 0.86792 0.52242 0.0
C251 C 0.28082 0.82354 0.38605 0.0
C252 C 0.31733 0.82988 0.36483 0.0
C253 C 0.2712 0.79068 0.39368 0.0
C254 C 0.29693 0.76481 0.38029 0.0
C255 C 0.33261 0.77127 0.359 0.0
C256 C 0.34297 0.80391 0.35139 0.0
C257 C 0.18947 0.83949 0.5071 0.0
H258 H 0.08392 0.94323 0.33194 0.0
H259 H 0.12201 0.89794 0.35818 0.0
H260 H 0.2203 0.96779 0.40353 0.0
H261 H 0.18376 0.01297 0.37667 0.0
H262 H 0.23129 0.87741 0.36462 0.0
H263 H 0.16609 0.92034 0.43448 0.0
H264 H 0.26494 0.83096 0.43773 0.0
H265 H 0.19889 0.81934 0.46923 0.0
H266 H 0.20439 0.92573 0.47547 0.0
H267 H 0.18644 0.92121 0.52203 0.0
H268 H 0.32615 0.85491 0.35865 0.0
H269 H 0.24268 0.78488 0.40965 0.0
H270 H 0.18583 0.8153 0.51584 0.0
H271 H 0.37057 0.80922 0.33499 0.0
H272 H 0.28842 0.73966 0.3863 0.0
C273 C 0.29863 0.6576 1.00487 0.0
C274 C 0.34899 0.64354 0.01472 0.0
C275 C 0.28327 0.6532 0.97889 0.0
C276 C 0.31862 0.63522 0.96189 0.0
C277 C 0.36861 0.62064 0.97206 0.0
C278 C 0.38313 0.62437 0.99823 0.0
C279 C 0.30431 0.6324 0.93365 0.0
C280 C 0.27672 0.65837 0.92054 0.0
C281 C 0.26429 0.65636 0.89384 0.0
C282 C 0.28051 0.62789 0.88024 0.0
C283 C 0.30731 0.60158 0.89287 0.0
C284 C 0.31887 0.60394 0.91952 0.0
C285 C 0.32386 0.57182 0.87795 0.0
C286 C 0.28517 0.55731 0.86027 0.0
C287 C 0.37894 0.55831 0.88071 0.0
C288 C 0.39534 0.53122 0.86575 0.0
C289 C 0.35679 0.51703 0.84795 0.0
C290 C 0.23442 0.68381 0.88009 0.0
C291 C 0.24324 0.71691 0.88749 0.0
C292 C 0.19644 0.67711 0.85939 0.0
C293 C 0.16838 0.70265 0.84652 0.0
C294 C 0.17631 0.73542 0.85447 0.0
C295 C 0.21398 0.74236 0.87502 0.0
C296 C 0.3014 0.53002 0.84551 0.0
H297 H 0.27133 0.67224 0.01731 0.0
H298 H 0.24361 0.66403 0.97221 0.0
H299 H 0.39757 0.60702 0.95973 0.0
H300 H 0.42208 0.61319 1.00545 0.0
H301 H 0.26503 0.68031 0.93114 0.0
H302 H 0.33831 0.58321 0.92927 0.0
H303 H 0.27364 0.62638 0.85952 0.0
H304 H 0.24226 0.56701 0.85795 0.0
H305 H 0.40976 0.56914 0.89401 0.0
H306 H 0.43823 0.52142 0.86791 0.0
H307 H 0.273 0.72335 0.90282 0.0
H308 H 0.18735 0.65205 0.85336 0.0
H309 H 0.27098 0.51919 0.83202 0.0
H310 H 0.2208 0.76755 0.88137 0.0
H311 H 0.13923 0.69681 0.83077 0.0
C312 C 0.81199 0.09111 0.26209 0.0
C313 C 0.81416 0.03656 0.28105 0.0
C314 C 0.83691 0.06878 0.27886 0.0
C315 C 0.76821 0.02674 0.26508 0.0
C316 C 0.76431 0.08185 0.24682 0.0
C317 C 0.74337 0.04932 0.24797 0.0
N318 N 0.83386 0.1222 0.26107 0.0
C319 C 0.80688 0.1461 0.24721 0.0
C320 C 0.73855 0.10576 0.23122 0.0
C321 C 0.75935 0.13816 0.23176 0.0
Gd322 Gd 0.06219 0.13843 0.23913 0.0
Gd323 Gd 0.91683 0.13278 0.28549 0.0
N324 N 0.8818 0.07898 0.29378 0.0
C325 C 0.83757 0.0154 0.29955 0.0
C326 C 0.90214 0.05908 0.31304 0.0
C327 C 0.88107 0.02692 0.31591 0.0
H328 H 0.93423 0.06793 0.3265 0.0
H329 H 0.89819 0.01111 0.33087 0.0
H330 H 0.0459 0.2148 0.2176 0.0
H331 H 0.82257 0.1712 0.24771 0.0
H332 H 0.08998 0.27005 0.22406 0.0
H333 H 0.82134 0.99046 0.30183 0.0
H334 H 0.75081 1.00193 0.26619 0.0
H335 H 0.16141 0.0829 0.25839 0.0
H336 H 0.7018 0.09965 0.2192 0.0
H337 H 0.73888 0.15701 0.22026 0.0
H338 H 0.25513 0.24872 0.27711 0.0
H339 H 0.70724 0.04159 0.23614 0.0
H340 H 0.30081 0.1357 0.29359 0.0
H341 H 0.25405 0.08293 0.28143 0.0
N342 N 0.15316 0.13517 0.25915 0.0
C343 C 0.17973 0.16437 0.2644 0.0
C344 C 0.18028 0.10614 0.26428 0.0
C345 C 0.25964 0.13586 0.28379 0.0
C346 C 0.23332 0.10603 0.27702 0.0
C347 C 0.23337 0.16556 0.27711 0.0
H348 H 0.30022 0.19764 0.29239 0.0
N349 N 0.10438 0.19087 0.24259 0.0
C350 C 0.15448 0.19313 0.2559 0.0
C351 C 0.15716 0.25196 0.24889 0.0
C352 C 0.18184 0.22385 0.25981 0.0
C353 C 0.08282 0.21759 0.23004 0.0
C354 C 0.10808 0.2487 0.23346 0.0
O355 O 0.91864 0.11276 0.2445 0.0
O356 O 0.00874 0.09173 0.23787 0.0
O357 O 0.05427 0.14568 0.19751 0.0
O358 O 0.12645 0.11915 0.2128 0.0
O359 O 0.99155 0.10203 0.29903 0.0
O360 O 0.06224 0.09553 0.26726 0.0
O361 O 0.03913 0.17662 0.26904 0.0
O362 O 0.00021 0.14976 0.30364 0.0
O363 O 0.87227 0.12881 0.32234 0.0
O364 O 0.87406 0.17602 0.30192 0.0
O365 O 0.97904 0.1601 0.22472 0.0
O366 O 0.92742 0.1786 0.26034 0.0
C367 C 0.95255 0.08937 0.23611 0.0
C368 C 0.03784 0.0877 0.2896 0.0
C369 C 0.14154 0.14969 0.17453 0.0
C370 C 0.17487 0.16042 0.13056 0.0
C371 C 0.22071 0.18785 0.167 0.0
C372 C 0.18354 0.1716 0.18406 0.0
C373 C 0.21664 0.18222 0.14037 0.0
C374 C 0.137 0.14438 0.14771 0.0
C375 C 0.103 0.13178 0.19229 0.0
C376 C 0.23373 0.22532 0.27365 0.0
C377 C 0.25946 0.19622 0.28229 0.0
H378 H 0.17683 0.27604 0.25144 0.0
C379 C 0.03797 0.17039 0.29388 0.0
C380 C 0.94364 0.18095 0.23584 0.0
C381 C 0.82546 0.17425 0.3441 0.0
C382 C 0.80069 0.17625 0.39014 0.0
C383 C 0.76214 0.2168 0.3604 0.0
C384 C 0.79153 0.20216 0.33986 0.0
C385 C 0.76677 0.20402 0.38541 0.0
C386 C 0.82974 0.16123 0.36937 0.0
C387 C 0.85813 0.15968 0.32245 0.0
H388 H 0.25306 0.20467 0.17447 0.0
H389 H 0.18799 0.17591 0.20463 0.0
H390 H 0.24609 0.19478 0.12739 0.0
H391 H 0.10479 0.12744 0.14018 0.0
H392 H 0.73603 0.2383 0.35695 0.0
H393 H 0.78777 0.21267 0.32066 0.0
H394 H 0.74421 0.21593 0.40117 0.0
H395 H 0.85649 0.13999 0.37304 0.0
C396 C 0.69527 0.40119 0.77251 0.0
C397 C 0.69146 0.45948 0.78271 0.0
C398 C 0.66592 0.4278 0.78288 0.0
C399 C 0.74582 0.46411 0.77142 0.0
C400 C 0.75047 0.40563 0.7617 0.0
C401 C 0.77528 0.43725 0.76098 0.0
N402 N 0.66957 0.371 0.77271 0.0
C403 C 0.69816 0.34392 0.76403 0.0
C404 C 0.77909 0.37812 0.75185 0.0
C405 C 0.75302 0.34708 0.75327 0.0
Gd406 Gd 0.44475 0.35825 0.7355 0.0
Gd407 Gd 0.5761 0.36827 0.78959 0.0
N408 N 0.61296 0.42264 0.79345 0.0
C409 C 0.66202 0.48556 0.79423 0.0
C410 C 0.58596 0.44774 0.80621 0.0
C411 C 0.6095 0.47953 0.80636 0.0
H412 H 0.54674 0.44369 0.81685 0.0
H413 H 0.58732 0.49934 0.81612 0.0
H414 H 0.48563 0.28635 0.70993 0.0
H415 H 0.67929 0.31969 0.76572 0.0
H416 H 0.45558 0.22785 0.71111 0.0
H417 H 0.68018 0.51024 0.79447 0.0
H418 H 0.76579 0.48832 0.77096 0.0
H419 H 0.32817 0.40187 0.75543 0.0
H420 H 0.82154 0.38052 0.74341 0.0
H421 H 0.77524 0.32555 0.74618 0.0
H422 H 0.27919 0.22851 0.75947 0.0
H423 H 0.81741 0.44117 0.75254 0.0
H424 H 0.20255 0.33337 0.78356 0.0
H425 H 0.23505 0.39078 0.77625 0.0
N426 N 0.35109 0.35117 0.75266 0.0
C427 C 0.33196 0.31952 0.75478 0.0
C428 C 0.31565 0.37664 0.75912 0.0
C429 C 0.24396 0.33805 0.77465 0.0
C430 C 0.26224 0.37048 0.77063 0.0
C431 C 0.27834 0.31207 0.7662 0.0
H432 H 0.21968 0.27285 0.77746 0.0
N433 N 0.41583 0.30265 0.73306 0.0
C434 C 0.36504 0.29452 0.74445 0.0
C435 C 0.37973 0.23721 0.73384 0.0
C436 C 0.34611 0.26148 0.74557 0.0
C437 C 0.44708 0.27943 0.72024 0.0
C438 C 0.42998 0.24632 0.72076 0.0
O439 O 0.58819 0.38994 0.74994 0.0
O440 O 0.49772 0.40562 0.73747 0.0
O441 O 0.45487 0.35411 0.69362 0.0
O442 O 0.3829 0.38029 0.70951 0.0
O443 O 0.49932 0.40004 0.79737 0.0
O444 O 0.4278 0.39726 0.76579 0.0
O445 O 0.46501 0.31882 0.76434 0.0
O446 O 0.4905 0.3458 0.80134 0.0
O447 O 0.59581 0.37714 0.83003 0.0
O448 O 0.61852 0.33055 0.81256 0.0
O449 O 0.53275 0.3403 0.72449 0.0
O450 O 0.57439 0.32376 0.76282 0.0
C451 C 0.55412 0.40963 0.73722 0.0
C452 C 0.44987 0.4092 0.78741 0.0
C453 C 0.36748 0.35184 0.67041 0.0
C454 C 0.33236 0.34404 0.62637 0.0
C455 C 0.28653 0.31516 0.66204 0.0
C456 C 0.32487 0.32995 0.67938 0.0
C457 C 0.29003 0.32225 0.63564 0.0
C458 C 0.37143 0.35862 0.6438 0.0
C459 C 0.40648 0.36858 0.68869 0.0
C460 C 0.29412 0.25381 0.75808 0.0
C461 C 0.26028 0.27906 0.76835 0.0
H462 H 0.36669 0.21153 0.73428 0.0
C463 C 0.46082 0.32284 0.78933 0.0
C464 C 0.57108 0.32289 0.73725 0.0
C465 C 0.6745 0.34984 0.84837 0.0
C466 C 0.72127 0.3554 0.89047 0.0
C467 C 0.77861 0.35045 0.85139 0.0
C468 C 0.72861 0.34844 0.83644 0.0
C469 C 0.77507 0.35397 0.87829 0.0
C470 C 0.6711 0.35327 0.87543 0.0
C471 C 0.62084 0.34895 0.83327 0.0
H472 H 0.25372 0.29839 0.66911 0.0
H473 H 0.3207 0.32463 0.69978 0.0
H474 H 0.25972 0.31079 0.6224 0.0
H475 H 0.40403 0.37558 0.63669 0.0
H476 H 0.82023 0.3494 0.84209 0.0
H477 H 0.73234 0.34596 0.81568 0.0
H478 H 0.81418 0.35562 0.88962 0.0
H479 H 0.62948 0.35459 0.8848 0.0
C480 C 0.79663 0.85283 0.7653 0.0
C481 C 0.78064 0.79449 0.77356 0.0
C482 C 0.8159 0.82284 0.77502 0.0
C483 C 0.72608 0.79655 0.76209 0.0
C484 C 0.74156 0.855 0.75407 0.0
C485 C 0.70662 0.82669 0.75237 0.0
N486 N 0.83144 0.87988 0.76708 0.0
C487 C 0.81263 0.91007 0.75932 0.0
C488 C 0.72298 0.88567 0.7451 0.0
C489 C 0.7585 0.91334 0.74793 0.0
Gd490 Gd 0.05924 0.86331 0.73589 0.0
Gd491 Gd 0.9209 0.87119 0.78663 0.0
N492 N 0.86952 0.82133 0.78551 0.0
C493 C 0.8012 0.76489 0.78377 0.0
C494 C 0.8891 0.79284 0.79615 0.0
C495 C 0.85543 0.76416 0.79531 0.0
H496 H 0.93084 0.79195 0.80507 0.0
H497 H 0.87145 0.74146 0.80348 0.0
H498 H 0.03427 0.93154 0.70096 0.0
H499 H 0.839 0.9318 0.76207 0.0
H500 H 0.08621 0.98193 0.68782 0.0
H501 H 0.77538 0.74257 0.78303 0.0
H502 H 0.69847 0.77498 0.76073 0.0
H503 H 0.15928 0.80888 0.75353 0.0
H504 H 0.68098 0.88833 0.73633 0.0
H505 H 0.74405 0.93726 0.74149 0.0
H506 H 0.27975 0.96357 0.71615 0.0
H507 H 0.66426 0.8279 0.74374 0.0
H508 H 0.32329 0.8574 0.75128 0.0
H509 H 0.26448 0.80752 0.75978 0.0
N510 N 0.15861 0.85926 0.74223 0.0
C511 C 0.19035 0.88638 0.73619 0.0
C512 C 0.18455 0.83089 0.74997 0.0
C513 C 0.27715 0.85819 0.7486 0.0
C514 C 0.24411 0.82998 0.75343 0.0
C515 C 0.25049 0.88673 0.7395 0.0
H516 H 0.32841 0.91591 0.73545 0.0
N517 N 0.10554 0.91112 0.72082 0.0
C518 C 0.16298 0.91316 0.7252 0.0
C519 C 0.16651 0.96652 0.70449 0.0
C520 C 0.19499 0.94109 0.71738 0.0
C521 C 0.0785 0.93464 0.70655 0.0
C522 C 0.10819 0.963 0.69865 0.0
O523 O 0.91146 0.84358 0.74833 0.0
O524 O 0.00028 0.8225 0.74765 0.0
O525 O 0.05554 0.86236 0.69364 0.0
O526 O 0.08321 0.81941 0.71487 0.0
O527 O 0.99443 0.83997 0.80117 0.0
O528 O 0.07505 0.83765 0.77414 0.0
O529 O 0.07772 0.90163 0.76642 0.0
O530 O 0.99833 0.90413 0.79451 0.0
O531 O 0.90808 0.86122 0.82754 0.0
O532 O 0.86854 0.90374 0.8103 0.0
O533 O 0.97666 0.89077 0.72686 0.0
O534 O 0.94067 0.91622 0.76303 0.0
C535 C 0.9478 0.82209 0.73914 0.0
C536 C 0.04808 0.83158 0.79627 0.0
C537 C 0.12778 0.82916 0.67423 0.0
C538 C 0.17 0.83644 0.63124 0.0
C539 C 0.22023 0.80479 0.66392 0.0
C540 C 0.1757 0.81026 0.68142 0.0
C541 C 0.21731 0.81756 0.63893 0.0
C542 C 0.1256 0.84258 0.6491 0.0
C543 C 0.07887 0.83332 0.69226 0.0
C544 C 0.25451 0.94221 0.72183 0.0
C545 C 0.28222 0.91507 0.73282 0.0
H546 H 0.18954 0.98838 0.69817 0.0
C547 C 0.05061 0.91302 0.787 0.0
C548 C 0.95445 0.91674 0.73838 0.0
C549 C 0.82253 0.87979 0.84696 0.0
C550 C 0.77818 0.87479 0.88967 0.0
C551 C 0.72058 0.86758 0.85082 0.0
C552 C 0.76899 0.87334 0.83542 0.0
C553 C 0.72502 0.86837 0.87781 0.0
C554 C 0.82697 0.88037 0.87416 0.0
C555 C 0.87422 0.88608 0.83116 0.0
H556 H 0.25678 0.79017 0.66965 0.0
H557 H 0.17865 0.79925 0.70044 0.0
H558 H 0.25189 0.81258 0.62546 0.0
H559 H 0.08887 0.857 0.64317 0.0
H560 H 0.67941 0.86264 0.8418 0.0
H561 H 0.76445 0.87292 0.8146 0.0
H562 H 0.68701 0.86404 0.88948 0.0
H563 H 0.86811 0.88539 0.88326 0.0
C564 C 0.69162 0.66438 0.26845 0.0
C565 C 0.6994 0.72162 0.28193 0.0
C566 C 0.66795 0.69178 0.28059 0.0
C567 C 0.75379 0.72385 0.27027 0.0
C568 C 0.74685 0.66638 0.25729 0.0
C569 C 0.77742 0.69633 0.25798 0.0
N570 N 0.66095 0.63568 0.26787 0.0
C571 C 0.6846 0.60762 0.25809 0.0
C572 C 0.7701 0.63805 0.24606 0.0
C573 C 0.73908 0.60848 0.24672 0.0
Gd574 Gd 0.43179 0.63896 0.2361 0.0
Gd575 Gd 0.56988 0.63721 0.28722 0.0
N576 N 0.61477 0.68909 0.29145 0.0
C577 C 0.67577 0.74818 0.2954 0.0
C578 C 0.59297 0.71442 0.30574 0.0
C579 C 0.62278 0.74438 0.30771 0.0
H580 H 0.55263 0.71193 0.31572 0.0
H581 H 0.60478 0.76453 0.3187 0.0
H582 H 0.44532 0.56385 0.21092 0.0
H583 H 0.66197 0.58436 0.2592 0.0
H584 H 0.38463 0.51459 0.2025 0.0
H585 H 0.69863 0.77148 0.29689 0.0
H586 H 0.77832 0.74665 0.27097 0.0
H587 H 0.3426 0.70106 0.24798 0.0
H588 H 0.8124 0.63859 0.23729 0.0
H589 H 0.75727 0.58626 0.23864 0.0
H590 H 0.19445 0.54936 0.22569 0.0
H591 H 0.81977 0.69835 0.24938 0.0
H592 H 0.17023 0.66299 0.24879 0.0
H593 H 0.23803 0.71008 0.25267 0.0
N594 N 0.3336 0.6495 0.24169 0.0
C595 C 0.29696 0.6238 0.23799 0.0
C596 C 0.31313 0.68045 0.24605 0.0
C597 C 0.21594 0.65896 0.24659 0.0
C598 C 0.25405 0.68562 0.24873 0.0
C599 C 0.23715 0.62762 0.24081 0.0
H600 H 0.15447 0.60269 0.23923 0.0
N601 N 0.37664 0.59208 0.22596 0.0
C602 C 0.31928 0.59402 0.23005 0.0
C603 C 0.30684 0.53776 0.21565 0.0
C604 C 0.2827 0.56688 0.22514 0.0
C605 C 0.40002 0.56447 0.21531 0.0
C606 C 0.36572 0.53669 0.21043 0.0
O607 O 0.58014 0.66421 0.24894 0.0
O608 O 0.4887 0.68079 0.24791 0.0
O609 O 0.43252 0.63484 0.19338 0.0
O610 O 0.41706 0.68195 0.21277 0.0
O611 O 0.49391 0.66853 0.29935 0.0
O612 O 0.40931 0.6605 0.27551 0.0
O613 O 0.43874 0.59314 0.26096 0.0
O614 O 0.48769 0.60989 0.29813 0.0
O615 O 0.58641 0.64446 0.32821 0.0
O616 O 0.6202 0.60158 0.30899 0.0
O617 O 0.51545 0.61461 0.22466 0.0
O618 O 0.55899 0.59289 0.26111 0.0
C619 C 0.54054 0.68258 0.23856 0.0
C620 C 0.4375 0.67091 0.29636 0.0
C621 C 0.417 0.68396 0.16609 0.0
C622 C 0.40189 0.68511 0.11923 0.0
C623 C 0.41383 0.73626 0.14318 0.0
C624 C 0.41994 0.71861 0.16612 0.0
C625 C 0.4044 0.7197 0.11991 0.0
C626 C 0.40896 0.66718 0.14241 0.0
C627 C 0.42194 0.66619 0.19097 0.0
C628 C 0.22328 0.57 0.22917 0.0
C629 C 0.20052 0.60036 0.23691 0.0
H630 H 0.28023 0.51631 0.21167 0.0
C631 C 0.45307 0.58959 0.28554 0.0
C632 C 0.54672 0.59214 0.23624 0.0
C633 C 0.6703 0.62192 0.34612 0.0
C634 C 0.71544 0.62584 0.38878 0.0
C635 C 0.77359 0.62936 0.34978 0.0
C636 C 0.72443 0.62565 0.33445 0.0
C637 C 0.76924 0.6294 0.3768 0.0
C638 C 0.66602 0.62215 0.37334 0.0
C639 C 0.61755 0.61826 0.33053 0.0
H640 H 0.41614 0.76291 0.14346 0.0
H641 H 0.42704 0.73219 0.18393 0.0
H642 H 0.39927 0.73389 0.10231 0.0
H643 H 0.40717 0.64049 0.142 0.0
H644 H 0.81523 0.6322 0.34068 0.0
H645 H 0.72877 0.62566 0.31359 0.0
H646 H 0.80777 0.63226 0.38839 0.0
H647 H 0.62435 0.61941 0.38252 0.0
C648 C 0.07547 0.03381 0.34784 0.0
C649 C 0.10859 0.00875 0.33625 0.0
C650 C 0.09011 0.03282 0.29365 0.0
C651 C 0.06405 0.06078 0.30557 0.0
N652 N 0.04941 0.09081 0.34594 0.0
N653 N 0.15962 0.98932 0.29861 0.0
C654 C 0.06169 0.06218 0.33323 0.0
C655 C 0.11983 0.00981 0.30931 0.0
N656 N 0.05577 0.03035 0.37263 0.0
N657 N 0.08391 0.02661 0.26778 0.0
H658 H 0.18323 0.97256 0.30951 0.0
H659 H 0.17333 0.99151 0.27945 0.0
H660 H 0.059 0.04069 0.25542 0.0
H661 H 0.09781 0.00484 0.25917 0.0
H662 H 0.02657 0.04662 0.38092 0.0
H663 H 0.06358 0.00951 0.38386 0.0
H664 H 0.05248 0.09317 0.366 0.0
H665 H 0.04366 0.11323 0.33672 0.0
C666 C 0.38254 0.49189 0.80494 0.0
C667 C 0.37461 0.48835 0.83197 0.0
C668 C 0.41112 0.43199 0.82972 0.0
C669 C 0.41717 0.43485 0.80221 0.0
N670 N 0.39021 0.46537 0.76341 0.0
N671 N 0.36625 0.45252 0.86888 0.0
C672 C 0.39672 0.46391 0.78969 0.0
C673 C 0.38438 0.45763 0.84399 0.0
N674 N 0.37967 0.52243 0.79384 0.0
N675 N 0.43108 0.40498 0.84258 0.0
H676 H 0.34599 0.47065 0.87985 0.0
H677 H 0.36601 0.42949 0.87777 0.0
H678 H 0.44504 0.38371 0.83348 0.0
H679 H 0.43603 0.40421 0.86262 0.0
H680 H 0.39224 0.5271 0.77481 0.0
H681 H 0.37009 0.54371 0.80427 0.0
H682 H 0.36843 0.48444 0.75426 0.0
H683 H 0.40216 0.44702 0.75056 0.0
C684 C 0.55949 0.49211 0.70318 0.0
C685 C 0.61363 0.49191 0.69067 0.0
C686 C 0.63337 0.43781 0.70982 0.0
C687 C 0.57963 0.43884 0.72331 0.0
N688 N 0.50993 0.47548 0.74193 0.0
N689 N 0.70962 0.46988 0.68991 0.0
C690 C 0.5479 0.4685 0.72266 0.0
C691 C 0.6529 0.46635 0.6963 0.0
N692 N 0.51846 0.5143 0.6963 0.0
N693 N 0.66578 0.40995 0.70901 0.0
H694 H 0.72618 0.49088 0.68087 0.0
H695 H 0.74121 0.4537 0.69623 0.0
H696 H 0.6574 0.38876 0.71952 0.0
H697 H 0.70039 0.40722 0.6964 0.0
H698 H 0.47685 0.51338 0.7038 0.0
H699 H 0.52416 0.53125 0.68133 0.0
H700 H 0.48924 0.49812 0.74334 0.0
H701 H 0.50621 0.46065 0.75834 0.0
C702 C 0.89048 0.00635 0.21451 0.0
C703 C 0.87297 0.0142 0.18888 0.0
C704 C 0.91341 0.0698 0.19342 0.0
C705 C 0.92775 0.06288 0.21954 0.0
N706 N 0.93998 0.02348 0.25384 0.0
N707 N 0.85851 0.05457 0.15535 0.0
C708 C 0.91891 0.0308 0.22983 0.0
C709 C 0.88199 0.04624 0.17872 0.0
N710 N 0.87842 0.97575 0.22431 0.0
N711 N 0.93335 0.09802 0.18206 0.0
H712 H 0.83546 0.03795 0.14385 0.0
H713 H 0.85748 0.07863 0.14837 0.0
H714 H 0.95849 0.11516 0.19195 0.0
H715 H 0.93003 0.10292 0.16233 0.0
H716 H 0.88372 0.96921 0.24363 0.0
H717 H 0.86027 0.95683 0.21325 0.0
H718 H 0.94079 0.99997 0.26179 0.0
H719 H 0.95972 0.04102 0.26566 0.0
C720 C 0.92488 1.00089 0.70749 0.0
C721 C 0.89198 0.99099 0.68562 0.0
C722 C 0.89194 0.93386 0.7009 0.0
C723 C 0.92856 0.94303 0.7218 0.0
N724 N 0.96659 0.98649 0.749 0.0
N725 N 0.85071 0.94791 0.6593 0.0
C726 C 0.94137 0.97694 0.72626 0.0
C727 C 0.8773 0.95743 0.68174 0.0
N728 N 0.94174 0.03315 0.70985 0.0
N729 N 0.8667 0.90337 0.70069 0.0
H730 H 0.83855 0.96454 0.64494 0.0
H731 H 0.84516 0.92336 0.65386 0.0
H732 H 0.87245 0.88642 0.71556 0.0
H733 H 0.83473 0.89627 0.68768 0.0
H734 H 0.97156 0.04163 0.72335 0.0
H735 H 0.92876 0.0515 0.69704 0.0
H736 H 0.97214 0.01088 0.75473 0.0
H737 H 0.97787 0.97008 0.76354 0.0
C738 C 0.58593 0.50803 0.2083 0.0
C739 C 0.61831 0.51776 0.18629 0.0
C740 C 0.61138 0.57557 0.19955 0.0
C741 C 0.57338 0.56625 0.21986 0.0
N742 N 0.51829 0.52377 0.24152 0.0
N743 N 0.65626 0.56069 0.15885 0.0
C744 C 0.55926 0.53248 0.22381 0.0
C745 C 0.62938 0.55153 0.18129 0.0
N746 N 0.58157 0.47539 0.21467 0.0
N747 N 0.63265 0.60702 0.19848 0.0
H748 H 0.67107 0.54369 0.14527 0.0
H749 H 0.65976 0.58506 0.15271 0.0
H750 H 0.62248 0.6249 0.21218 0.0
H751 H 0.66492 0.61448 0.18576 0.0
H752 H 0.56446 0.46702 0.23212 0.0
H753 H 0.59921 0.45665 0.20342 0.0
H754 H 0.50124 0.50007 0.24317 0.0
H755 H 0.49739 0.54087 0.25306 0.0
C756 C 0.43923 0.50672 0.3201 0.0
C757 C 0.38211 0.50814 0.32948 0.0
C758 C 0.36881 0.56024 0.30629 0.0
C759 C 0.42835 0.56117 0.30019 0.0
N760 N 0.52254 0.53731 0.30604 0.0
N761 N 0.29535 0.53949 0.33535 0.0
C762 C 0.46431 0.53509 0.30859 0.0
C763 C 0.34744 0.53573 0.32354 0.0
N764 N 0.46897 0.47783 0.32118 0.0
N765 N 0.33256 0.58279 0.29576 0.0
H766 H 0.27895 0.5227 0.34878 0.0
H767 H 0.271 0.56082 0.33378 0.0
H768 H 0.34696 0.60165 0.28377 0.0
H769 H 0.28797 0.58109 0.29717 0.0
H770 H 0.5086 0.47459 0.31218 0.0
H771 H 0.45137 0.45606 0.32855 0.0
H772 H 0.55067 0.52062 0.3145 0.0
H773 H 0.54311 0.55723 0.29745 0.0
C774 C 0.1042 0.95856 0.84719 0.0
C775 C 0.12738 0.98773 0.83616 0.0
C776 C 0.10295 0.96773 0.79261 0.0
C777 C 0.08087 0.938 0.80353 0.0
N778 N 0.07374 0.90206 0.84071 0.0
N779 N 0.15856 0.01801 0.79845 0.0
C780 C 0.08522 0.93258 0.83071 0.0
C781 C 0.13025 0.99149 0.80887 0.0
N782 N 0.09965 0.95583 0.87352 0.0
N783 N 0.09445 0.97444 0.767 0.0
H784 H 0.1756 0.03719 0.80957 0.0
H785 H 0.16888 0.01994 0.77888 0.0
H786 H 0.07295 0.95843 0.75462 0.0
H787 H 0.10342 0.99711 0.75844 0.0
H788 H 0.0761 0.93729 0.88269 0.0
H789 H 0.11663 0.97326 0.88633 0.0
H790 H 0.08232 0.89546 0.85979 0.0
H791 H 0.06087 0.88218 0.82937 0.0
C792 C 0.14231 0.17178 0.05864 0.0
C793 C 0.17521 0.14584 0.04787 0.0
C794 C 0.20029 0.12656 0.09151 0.0
C795 C 0.17173 0.15422 0.10218 0.0
N796 N 0.11731 0.20397 0.0967 0.0
N797 N 0.2375 0.09919 0.05321 0.0
C798 C 0.14287 0.17696 0.08595 0.0
C799 C 0.20445 0.12326 0.06411 0.0
N800 N 0.11016 0.19124 0.0427 0.0
N801 N 0.22296 0.10333 0.10766 0.0
H802 H 0.23921 0.09493 0.03329 0.0
H803 H 0.26556 0.08439 0.0636 0.0
H804 H 0.22277 0.10556 0.12778 0.0
H805 H 0.23877 0.08077 0.10141 0.0
H806 H 0.08044 0.20833 0.04926 0.0
H807 H 0.11039 0.18892 0.02258 0.0
H808 H 0.10138 0.22362 0.08604 0.0
H809 H 0.11434 0.20764 0.11666 0.0
C810 C 0.36113 0.33484 0.55407 0.0
C811 C 0.32809 0.36129 0.54425 0.0
C812 C 0.30697 0.3798 0.58851 0.0
C813 C 0.33508 0.35148 0.59824 0.0
N814 N 0.38773 0.30141 0.59113 0.0
N815 N 0.26806 0.40856 0.55124 0.0
C816 C 0.36228 0.32894 0.58124 0.0
C817 C 0.30097 0.38386 0.56126 0.0
N818 N 0.39166 0.31554 0.53734 0.0
N819 N 0.28637 0.40287 0.6054 0.0
H820 H 0.26501 0.41323 0.53142 0.0
H821 H 0.24147 0.42352 0.56228 0.0
H822 H 0.28815 0.40013 0.62547 0.0
H823 H 0.27084 0.42574 0.59979 0.0
H824 H 0.42141 0.29806 0.54318 0.0
H825 H 0.39018 0.31838 0.51727 0.0
H826 H 0.40226 0.28188 0.5799 0.0
H827 H 0.39206 0.2972 0.61097 0.0
C828 C 0.70313 0.33578 0.96233 0.0
C829 C 0.71492 0.3671 0.97349 0.0
C830 C 0.72367 0.39139 0.93011 0.0
C831 C 0.71753 0.35951 0.91906 0.0
N832 N 0.70751 0.30072 0.92425 0.0
N833 N 0.74268 0.42412 0.9686 0.0
C834 C 0.70873 0.33151 0.93507 0.0
C835 C 0.72671 0.39481 0.95753 0.0
N836 N 0.68528 0.31033 0.97778 0.0
N837 N 0.72527 0.41846 0.91436 0.0
H838 H 0.74431 0.42774 0.98859 0.0
H839 H 0.75825 0.44418 0.9581 0.0
H840 H 0.72396 0.41686 0.8942 0.0
H841 H 0.72335 0.44257 0.92118 0.0
H842 H 0.67005 0.2879 0.97066 0.0
H843 H 0.68129 0.3125 0.99784 0.0
H844 H 0.70784 0.27906 0.93502 0.0
H845 H 0.71034 0.29668 0.90433 0.0
C846 C 0.83945 0.17461 0.46174 0.0
C847 C 0.80697 0.14696 0.47043 0.0
C848 C 0.77299 0.13693 0.42599 0.0
C849 C 0.80683 0.16397 0.41723 0.0
N850 N 0.8816 0.20403 0.4254 0.0
N851 N 0.7523 0.09791 0.46049 0.0
C852 C 0.84308 0.18136 0.43473 0.0
C853 C 0.77667 0.12689 0.4524 0.0
N854 N 0.86467 0.19532 0.47939 0.0
N855 N 0.73566 0.12169 0.40931 0.0
H856 H 0.75414 0.08993 0.47967 0.0
H857 H 0.73461 0.08049 0.44794 0.0
H858 H 0.7328 0.12785 0.38974 0.0
H859 H 0.70492 0.10445 0.41512 0.0
H860 H 0.88312 0.21793 0.4745 0.0
H861 H 0.86346 0.19115 0.49931 0.0
H862 H 0.91337 0.2151 0.43672 0.0
H863 H 0.88521 0.20963 0.40574 0.0
C864 C 0.79724 0.84844 0.96024 0.0
C865 C 0.77912 0.87737 0.97327 0.0
C866 C 0.76954 0.90597 0.93157 0.0
C867 C 0.78204 0.8761 0.91848 0.0
N868 N 0.80365 0.81817 0.91971 0.0
N869 N 0.74324 0.93289 0.97185 0.0
C870 C 0.79507 0.84714 0.93265 0.0
C871 C 0.76423 0.90601 0.95906 0.0
N872 N 0.81747 0.82245 0.97429 0.0
N873 N 0.76373 0.93443 0.91767 0.0
H874 H 0.74026 0.9342 0.99198 0.0
H875 H 0.72523 0.95308 0.96257 0.0
H876 H 0.7663 0.93518 0.89751 0.0
H877 H 0.76079 0.95768 0.92607 0.0
H878 H 0.83705 0.80198 0.96607 0.0
H879 H 0.81857 0.82236 0.99449 0.0
H880 H 0.80669 0.79537 0.9288 0.0
H881 H 0.80429 0.81653 0.89954 0.0
C882 C 0.69538 0.65541 0.45859 0.0
C883 C 0.71053 0.62659 0.47249 0.0
C884 C 0.72127 0.59629 0.43152 0.0
C885 C 0.71128 0.62586 0.41762 0.0
N886 N 0.69415 0.68433 0.4174 0.0
N887 N 0.74347 0.57044 0.4727 0.0
C888 C 0.69955 0.65564 0.43102 0.0
C889 C 0.72484 0.5972 0.45908 0.0
N890 N 0.67592 0.68236 0.47177 0.0
N891 N 0.7261 0.56719 0.41834 0.0
H892 H 0.74516 0.56987 0.49289 0.0
H893 H 0.76093 0.54959 0.4641 0.0
H894 H 0.7246 0.56569 0.39817 0.0
H895 H 0.72715 0.54423 0.42728 0.0
H896 H 0.65823 0.70288 0.46282 0.0
H897 H 0.67353 0.68329 0.49194 0.0
H898 H 0.69219 0.7075 0.426 0.0
H899 H 0.69538 0.68529 0.39721 0.0
C900 C 0.33024 0.63949 0.06274 0.0
C901 C 0.36648 0.64992 0.04213 0.0
C902 C 0.43367 0.67354 0.07382 0.0
C903 C 0.39255 0.66856 0.09374 0.0
N904 N 0.29797 0.64981 0.10657 0.0
N905 N 0.4492 0.6816 0.02799 0.0
C906 C 0.33997 0.65202 0.08815 0.0
C907 C 0.41766 0.66795 0.04763 0.0
N908 N 0.28708 0.61723 0.05811 0.0
N909 N 0.48816 0.68357 0.08001 0.0
H910 H 0.43802 0.6794 1.00852 0.0
H911 H 0.48338 0.69786 0.03117 0.0
H912 H 0.50142 0.68736 0.09911 0.0
H913 H 0.52146 0.68472 0.06654 0.0
H914 H 0.26278 0.60638 0.0728 0.0
H915 H 0.27949 0.6071 0.03983 0.0
H916 H 0.2565 0.64136 0.10261 0.0
H917 H 0.30293 0.65887 0.12534 0.0
C918 C 0.12717 0.84827 0.5604 0.0
C919 C 0.17703 0.86463 0.55093 0.0
C920 C 0.21176 0.87088 0.59549 0.0
C921 C 0.16778 0.84916 0.60419 0.0
N922 N 0.08713 0.81349 0.59396 0.0
N923 N 0.27127 0.88777 0.55943 0.0
C924 C 0.12594 0.83708 0.58646 0.0
C925 C 0.22039 0.87529 0.56848 0.0
N926 N 0.08074 0.84375 0.54455 0.0
N927 N 0.24501 0.88747 0.61309 0.0
H928 H 0.2804 0.89052 0.53979 0.0
H929 H 0.30649 0.89255 0.57136 0.0
H930 H 0.239 0.88522 0.63305 0.0
H931 H 0.27422 0.9059 0.60789 0.0
H932 H 0.04132 0.83472 0.55112 0.0
H933 H 0.07983 0.85227 0.52549 0.0
H934 H 0.05996 0.80132 0.58099 0.0
H935 H 0.08543 0.80386 0.61264 0.0
C936 C 0.08665 0.24923 0.32643 0.0
C937 C 0.13702 0.23884 0.33938 0.0
C938 C 0.12057 0.1822 0.32422 0.0
C939 C 0.06951 0.19272 0.31176 0.0
N940 N 0.99448 0.23295 0.30891 0.0
N941 N 0.19802 0.19515 0.35434 0.0
C942 C 0.04979 0.22532 0.31512 0.0
C943 C 0.15279 0.20513 0.33945 0.0
N944 N 0.07469 0.28205 0.32433 0.0
N945 N 0.13861 0.15051 0.32108 0.0
H946 H 0.22298 0.21148 0.36528 0.0
H947 H 0.20889 0.17064 0.35731 0.0
H948 H 0.11595 0.13332 0.31004 0.0
H949 H 0.17743 0.14154 0.32797 0.0
H950 H 0.04195 0.29107 0.3126 0.0
H951 H 0.10049 0.30048 0.33247 0.0
H952 H 0.97585 0.25556 0.31322 0.0
H953 H 0.9654 0.21536 0.30202 0.0
C954 C 0.34222 0.28596 0.83188 0.0
C955 C 0.36166 0.25311 0.83433 0.0
C956 C 0.44245 0.265 0.80521 0.0
C957 C 0.42629 0.29872 0.80465 0.0
N958 N 0.361 0.3417 0.81724 0.0
N959 N 0.4318 0.2113 0.82533 0.0
C960 C 0.37631 0.30931 0.81804 0.0
C961 C 0.41208 0.24259 0.82146 0.0
N962 N 0.29022 0.29449 0.84215 0.0
N963 N 0.48629 0.25418 0.78989 0.0
H964 H 0.40949 0.19365 0.83613 0.0
H965 H 0.472 0.20327 0.81931 0.0
H966 H 0.51191 0.26988 0.77891 0.0
H967 H 0.49506 0.22941 0.78661 0.0
H968 H 0.26991 0.31676 0.83855 0.0
H969 H 0.26506 0.2783 0.8531 0.0
H970 H 0.32989 0.35216 0.82908 0.0
H971 H 0.38092 0.35868 0.80507 0.0
C972 C 0.65649 0.2845 0.68084 0.0
C973 C 0.65576 0.25096 0.68807 0.0
C974 C 0.61671 0.26607 0.73044 0.0
C975 C 0.60697 0.29906 0.72166 0.0
N976 N 0.61578 0.33826 0.68589 0.0
N977 N 0.62401 0.20883 0.71767 0.0
C978 C 0.62621 0.30784 0.6961 0.0
C979 C 0.63234 0.24148 0.7122 0.0
N980 N 0.68783 0.29442 0.65979 0.0
N981 N 0.61411 0.25776 0.75606 0.0
H982 H 0.6349 0.19005 0.7048 0.0
H983 H 0.60089 0.2007 0.73377 0.0
H984 H 0.60999 0.27439 0.77115 0.0
H985 H 0.62523 0.2345 0.76286 0.0
H986 H 0.69593 0.3191 0.65543 0.0
H987 H 0.71044 0.27811 0.64803 0.0
H988 H 0.62081 0.34356 0.66626 0.0
H989 H 0.59967 0.35802 0.69622 0.0
C990 C 0.92403 0.26455 0.20377 0.0
C991 C 0.88593 0.25647 0.18322 0.0
C992 C 0.8923 0.1984 0.19544 0.0
C993 C 0.91985 0.20735 0.219 0.0
N994 N 0.96193 0.25021 0.24567 0.0
N995 N 0.88069 0.21386 0.15082 0.0
C996 C 0.93507 0.24088 0.22336 0.0
C997 C 0.88268 0.22271 0.1763 0.0
N998 N 0.9586 0.29174 0.20176 0.0
N999 N 0.87383 0.16684 0.19139 0.0
H1000 H 0.88495 0.23132 0.13608 0.0
H1001 H 0.88369 0.18948 0.14458 0.0
H1002 H 0.87835 0.14842 0.20522 0.0
H1003 H 0.84905 0.16003 0.17539 0.0
H1004 H 0.9911 0.29739 0.21497 0.0
H1005 H 0.96043 0.30557 0.18472 0.0
H1006 H 0.96833 0.27484 0.25077 0.0
H1007 H 0.97538 0.23335 0.25947 0.0
C1008 C 0.87082 0.78243 0.68201 0.0
C1009 C 0.87424 0.74857 0.68819 0.0
C1010 C 0.93007 0.76207 0.7273 0.0
C1011 C 0.92783 0.79607 0.72061 0.0
N1012 N 0.91517 0.83587 0.68658 0.0
N1013 N 0.91579 0.70519 0.71367 0.0
C1014 C 0.90341 0.80552 0.69658 0.0
C1015 C 0.90658 0.73808 0.70995 0.0
N1016 N 0.83561 0.79275 0.66249 0.0
N1017 N 0.95312 0.75265 0.75045 0.0
H1018 H 0.89853 0.68704 0.70155 0.0
H1019 H 0.94404 0.69591 0.72743 0.0
H1020 H 0.97351 0.76892 0.76312 0.0
H1021 H 0.94921 0.72893 0.75793 0.0
H1022 H 0.82659 0.81751 0.65919 0.0
H1023 H 0.81165 0.77656 0.65098 0.0
H1024 H 0.90307 0.84312 0.66802 0.0
H1025 H 0.94367 0.85203 0.69551 0.0
C1026 C 0.59834 0.76562 0.21607 0.0
C1027 C 0.60314 0.76073 0.18892 0.0
C1028 C 0.56597 0.70452 0.19395 0.0
C1029 C 0.55758 0.71009 0.22089 0.0
N1030 N 0.54798 0.7501 0.25518 0.0
N1031 N 0.57501 0.72901 0.1514 0.0
C1032 C 0.56813 0.74196 0.23123 0.0
C1033 C 0.58199 0.73119 0.17765 0.0
N1034 N 0.62469 0.79197 0.22767 0.0
N1035 N 0.55927 0.67379 0.18374 0.0
H1036 H 0.58454 0.74845 0.13887 0.0
H1037 H 0.55397 0.70933 0.1424 0.0
H1038 H 0.54424 0.6541 0.19454 0.0
H1039 H 0.57174 0.66758 0.16498 0.0
H1040 H 0.62726 0.79464 0.24772 0.0
H1041 H 0.64883 0.80936 0.21743 0.0
H1042 H 0.55024 0.77397 0.2626 0.0
H1043 H 0.52339 0.73394 0.26636 0.0
C1044 C 0.324 0.72618 0.326 0.0
C1045 C 0.35791 0.74342 0.34445 0.0
C1046 C 0.43464 0.70323 0.33869 0.0
C1047 C 0.40537 0.69016 0.31678 0.0
N1048 N 0.30968 0.67444 0.30405 0.0
N1049 N 0.44637 0.74886 0.36853 0.0
C1050 C 0.3462 0.6974 0.31421 0.0
C1051 C 0.41349 0.73204 0.35093 0.0
N1052 N 0.27106 0.73763 0.31921 0.0
N1053 N 0.47759 0.68558 0.34994 0.0
H1054 H 0.43163 0.76946 0.37856 0.0
H1055 H 0.48961 0.74375 0.37169 0.0
H1056 H 0.48598 0.66137 0.3444 0.0
H1057 H 0.49801 0.69256 0.36706 0.0
H1058 H 0.24747 0.72785 0.30381 0.0
H1059 H 0.25282 0.75849 0.32759 0.0
H1060 H 0.26512 0.67675 0.30445 0.0
H1061 H 0.32351 0.65102 0.29902 0.0
C1062 C 0.17301 0.78647 0.82675 0.0
C1063 C 0.14367 0.76251 0.84192 0.0
C1064 C 0.0533 0.79221 0.83532 0.0
C1065 C 0.08093 0.81249 0.81651 0.0
N1066 N 0.1698 0.84102 0.80798 0.0
N1067 N 0.05548 0.74243 0.86113 0.0
C1068 C 0.14184 0.81319 0.81612 0.0
C1069 C 0.08365 0.76531 0.84629 0.0
N1070 N 0.23011 0.7829 0.82138 0.0
N1071 N 0.00172 0.80121 0.84556 0.0
H1072 H 0.07648 0.72423 0.87165 0.0
H1073 H 0.01086 0.74037 0.86182 0.0
H1074 H 0.98539 0.82471 0.84316 0.0
H1075 H 0.98077 0.78837 0.86028 0.0
H1076 H 0.25213 0.79782 0.80824 0.0
H1077 H 0.25443 0.76334 0.82833 0.0
H1078 H 0.214 0.84453 0.8098 0.0
H1079 H 0.14784 0.8622 0.80246 0.0
loop_
_geom_bond_atom_site_label_1
_geom_bond_atom_site_label_2
_geom_bond_distance
_geom_bond_site_symmetry_2
_ccdc_geom_bond_type
C0 C1 1.386 . S
C0 C2 1.397 . S
C0 H24 0.931 . S
C1 C0 1.386 . S
C1 C5 1.397 . S
C2 C0 1.397 . S
C2 C3 1.384 . S
C2 H25 0.930 . S
C3 C2 1.384 . S
C3 C4 1.377 . S
C3 C6 1.481 . S
C4 C3 1.377 . S
C4 C5 1.389 . S
C4 H26 0.929 . S
C5 C1 1.397 . S
C5 C4 1.389 . S
C5 H27 0.931 . S
C6 C3 1.481 . S
C6 C7 1.387 . S
C6 C11 1.390 . S
C7 C6 1.387 . S
C7 C8 1.401 . S
C7 H28 0.930 . S
C8 C7 1.401 . S
C8 C9 1.376 . S
C8 C17 1.511 . S
C9 C8 1.376 . S
C9 C10 1.392 . S
C9 H30 0.931 . S
C10 C9 1.392 . S
C10 C11 1.361 . S
C10 C12 1.500 . S
C11 C6 1.390 . S
C11 C10 1.361 . S
C11 H29 0.931 . S
C12 C10 1.500 . S
C12 C13 1.371 . S
C12 C14 1.365 . S
C13 C12 1.371 . S
C13 C23 1.386 . S
C13 H31 0.931 . S
C14 C12 1.365 . S
C14 C15 1.409 . S
C14 H32 0.929 . S
C15 C14 1.409 . S
C15 C16 1.380 . S
C15 H33 0.930 . S
C16 C15 1.380 . S
C16 C23 1.357 . S
C17 C8 1.511 . S
C17 C18 1.341 . S
C17 C19 1.371 . S
C18 C17 1.341 . S
C18 C22 1.394 . S
C18 H34 0.930 . S
C19 C17 1.371 . S
C19 C20 1.392 . S
C19 H35 0.931 . S
C20 C19 1.392 . S
C20 C21 1.331 . S
C20 H38 0.932 . S
C21 C20 1.331 . S
C21 C22 1.336 . S
C22 C18 1.394 . S
C22 C21 1.336 . S
C22 H37 0.929 . S
C23 C13 1.386 . S
C23 C16 1.357 . S
C23 H36 0.928 . S
H24 C0 0.931 . S
H25 C2 0.930 . S
H26 C4 0.929 . S
H27 C5 0.931 . S
H28 C7 0.930 . S
H29 C11 0.931 . S
H30 C9 0.931 . S
H31 C13 0.931 . S
H32 C14 0.929 . S
H33 C15 0.930 . S
H34 C18 0.930 . S
H35 C19 0.931 . S
H36 C23 0.928 . S
H37 C22 0.929 . S
H38 C20 0.932 . S
C39 C40 1.386 . S
C39 C41 1.397 . S
C39 H63 0.931 . S
C40 C39 1.386 . S
C40 C44 1.397 . S
C41 C39 1.397 . S
C41 C42 1.384 . S
C41 H64 0.930 . S
C42 C41 1.384 . S
C42 C43 1.377 . S
C42 C45 1.481 . S
C43 C42 1.377 . S
C43 C44 1.389 . S
C43 H65 0.929 . S
C44 C40 1.397 . S
C44 C43 1.389 . S
C44 H66 0.931 . S
C45 C42 1.481 . S
C45 C46 1.387 . S
C45 C50 1.390 . S
C46 C45 1.387 . S
C46 C47 1.401 . S
C46 H67 0.930 . S
C47 C46 1.401 . S
C47 C48 1.376 . S
C47 C56 1.511 . S
C48 C47 1.376 . S
C48 C49 1.392 . S
C48 H69 0.931 . S
C49 C48 1.392 . S
C49 C50 1.361 . S
C49 C51 1.500 . S
C50 C45 1.390 . S
C50 C49 1.361 . S
C50 H68 0.931 . S
C51 C49 1.500 . S
C51 C52 1.371 . S
C51 C53 1.365 . S
C52 C51 1.371 . S
C52 C62 1.386 . S
C52 H70 0.931 . S
C53 C51 1.365 . S
C53 C54 1.409 . S
C53 H71 0.929 . S
C54 C53 1.409 . S
C54 C55 1.380 1_556 S
C54 H72 0.930 . S
C55 C54 1.380 1_554 S
C55 C62 1.357 1_554 S
C56 C47 1.511 . S
C56 C57 1.341 . S
C56 C58 1.371 . S
C57 C56 1.341 . S
C57 C61 1.394 . S
C57 H73 0.930 . S
C58 C56 1.371 . S
C58 C59 1.392 . S
C58 H74 0.931 . S
C59 C58 1.392 . S
C59 C60 1.331 . S
C59 H77 0.932 . S
C60 C59 1.331 . S
C60 C61 1.336 . S
C61 C57 1.394 . S
C61 C60 1.336 . S
C61 H76 0.929 . S
C62 C52 1.386 . S
C62 C55 1.357 1_556 S
C62 H75 0.928 1_556 S
H63 C39 0.931 . S
H64 C41 0.930 . S
H65 C43 0.929 . S
H66 C44 0.931 . S
H67 C46 0.930 . S
H68 C50 0.931 . S
H69 C48 0.931 . S
H70 C52 0.931 . S
H71 C53 0.929 . S
H72 C54 0.930 . S
H73 C57 0.930 . S
H74 C58 0.931 . S
H75 C62 0.928 1_554 S
H76 C61 0.929 . S
H77 C59 0.932 . S
C78 C79 1.386 . S
C78 C80 1.397 . S
C78 H102 0.931 . S
C79 C78 1.386 . S
C79 C83 1.397 . S
C80 C78 1.397 . S
C80 C81 1.384 . S
C80 H103 0.930 . S
C81 C80 1.384 . S
C81 C82 1.377 . S
C81 C84 1.481 . S
C82 C81 1.377 . S
C82 C83 1.389 . S
C82 H104 0.929 . S
C83 C79 1.397 . S
C83 C82 1.389 . S
C83 H105 0.931 . S
C84 C81 1.481 . S
C84 C85 1.387 . S
C84 C89 1.390 . S
C85 C84 1.387 . S
C85 C86 1.401 . S
C85 H106 0.930 . S
C86 C85 1.401 . S
C86 C87 1.376 . S
C86 C95 1.511 . S
C87 C86 1.376 . S
C87 C88 1.392 . S
C87 H108 0.931 . S
C88 C87 1.392 . S
C88 C89 1.361 . S
C88 C90 1.500 . S
C89 C84 1.390 . S
C89 C88 1.361 . S
C89 H107 0.931 . S
C90 C88 1.500 . S
C90 C91 1.371 . S
C90 C92 1.365 . S
C91 C90 1.371 . S
C91 C101 1.386 . S
C91 H109 0.931 . S
C92 C90 1.365 . S
C92 C93 1.409 . S
C92 H110 0.929 . S
C93 C92 1.409 . S
C93 C94 1.380 . S
C93 H111 0.930 . S
C94 C93 1.380 . S
C94 C101 1.357 . S
C95 C86 1.511 . S
C95 C96 1.341 . S
C95 C97 1.371 . S
C96 C95 1.341 . S
C96 C100 1.394 . S
C96 H112 0.930 . S
C97 C95 1.371 . S
C97 C98 1.392 . S
C97 H113 0.931 . S
C98 C97 1.392 . S
C98 C99 1.331 . S
C98 H116 0.932 . S
C99 C98 1.331 . S
C99 C100 1.336 . S
C100 C96 1.394 . S
C100 C99 1.336 . S
C100 H115 0.929 . S
C101 C91 1.386 . S
C101 C94 1.357 . S
C101 H114 0.928 . S
H102 C78 0.931 . S
H103 C80 0.930 . S
H104 C82 0.929 . S
H105 C83 0.931 . S
H106 C85 0.930 . S
H107 C89 0.931 . S
H108 C87 0.931 . S
H109 C91 0.931 . S
H110 C92 0.929 . S
H111 C93 0.930 . S
H112 C96 0.930 . S
H113 C97 0.931 . S
H114 C101 0.928 . S
H115 C100 0.929 . S
H116 C98 0.932 . S
C117 C118 1.386 . S
C117 C119 1.397 . S
C117 H141 0.931 . S
C118 C117 1.386 . S
C118 C122 1.397 . S
C119 C117 1.397 . S
C119 C120 1.384 . S
C119 H142 0.930 . S
C120 C119 1.384 . S
C120 C121 1.377 . S
C120 C123 1.481 . S
C121 C120 1.377 . S
C121 C122 1.389 . S
C121 H143 0.929 . S
C122 C118 1.397 . S
C122 C121 1.389 . S
C122 H144 0.931 . S
C123 C120 1.481 . S
C123 C124 1.387 . S
C123 C128 1.390 . S
C124 C123 1.387 . S
C124 C125 1.401 . S
C124 H145 0.930 . S
C125 C124 1.401 . S
C125 C126 1.376 . S
C125 C134 1.511 . S
C126 C125 1.376 . S
C126 C127 1.392 . S
C126 H147 0.931 . S
C127 C126 1.392 . S
C127 C128 1.361 . S
C127 C129 1.500 . S
C128 C123 1.390 . S
C128 C127 1.361 . S
C128 H146 0.931 . S
C129 C127 1.500 . S
C129 C130 1.371 . S
C129 C131 1.365 . S
C130 C129 1.371 . S
C130 C140 1.386 . S
C130 H148 0.931 . S
C131 C129 1.365 . S
C131 C132 1.409 . S
C131 H149 0.929 . S
C132 C131 1.409 . S
C132 C133 1.380 1_554 S
C132 H150 0.930 . S
C133 C132 1.380 1_556 S
C133 C140 1.357 1_556 S
C134 C125 1.511 . S
C134 C135 1.341 . S
C134 C136 1.371 . S
C135 C134 1.341 . S
C135 C139 1.394 . S
C135 H151 0.930 . S
C136 C134 1.371 . S
C136 C137 1.392 . S
C136 H152 0.931 . S
C137 C136 1.392 . S
C137 C138 1.331 . S
C137 H155 0.932 . S
C138 C137 1.331 . S
C138 C139 1.336 . S
C139 C135 1.394 . S
C139 C138 1.336 . S
C139 H154 0.929 . S
C140 C130 1.386 . S
C140 C133 1.357 1_554 S
C140 H153 0.928 1_554 S
H141 C117 0.931 . S
H142 C119 0.930 . S
H143 C121 0.929 . S
H144 C122 0.931 . S
H145 C124 0.930 . S
H146 C128 0.931 . S
H147 C126 0.931 . S
H148 C130 0.931 . S
H149 C131 0.929 . S
H150 C132 0.930 . S
H151 C135 0.930 . S
H152 C136 0.931 . S
H153 C140 0.928 1_556 S
H154 C139 0.929 . S
H155 C137 0.932 . S
C156 C157 1.386 . S
C156 C158 1.397 . S
C156 H180 0.931 . S
C157 C156 1.386 . S
C157 C161 1.397 . S
C158 C156 1.397 . S
C158 C159 1.384 . S
C158 H181 0.930 . S
C159 C158 1.384 . S
C159 C160 1.377 . S
C159 C162 1.481 . S
C160 C159 1.377 . S
C160 C161 1.389 . S
C160 H182 0.929 . S
C161 C157 1.397 . S
C161 C160 1.389 . S
C161 H183 0.931 . S
C162 C159 1.481 . S
C162 C163 1.387 . S
C162 C167 1.390 . S
C163 C162 1.387 . S
C163 C164 1.401 . S
C163 H184 0.930 . S
C164 C163 1.401 . S
C164 C165 1.376 . S
C164 C173 1.511 . S
C165 C164 1.376 . S
C165 C166 1.392 . S
C165 H186 0.931 . S
C166 C165 1.392 . S
C166 C167 1.361 . S
C166 C168 1.500 . S
C167 C162 1.390 . S
C167 C166 1.361 . S
C167 H185 0.931 . S
C168 C166 1.500 . S
C168 C169 1.371 . S
C168 C170 1.365 . S
C169 C168 1.371 . S
C169 C179 1.386 . S
C169 H187 0.931 . S
C170 C168 1.365 . S
C170 C171 1.409 . S
C170 H188 0.929 . S
C171 C170 1.409 . S
C171 C172 1.380 . S
C171 H189 0.930 . S
C172 C171 1.380 . S
C172 C179 1.357 . S
C173 C164 1.511 . S
C173 C174 1.341 . S
C173 C175 1.371 . S
C174 C173 1.341 . S
C174 C178 1.394 . S
C174 H190 0.930 . S
C175 C173 1.371 . S
C175 C176 1.392 . S
C175 H191 0.931 . S
C176 C175 1.392 . S
C176 C177 1.331 . S
C176 H194 0.932 . S
C177 C176 1.331 . S
C177 C178 1.336 . S
C178 C174 1.394 . S
C178 C177 1.336 . S
C178 H193 0.929 . S
C179 C169 1.386 . S
C179 C172 1.357 . S
C179 H192 0.928 . S
H180 C156 0.931 . S
H181 C158 0.930 . S
H182 C160 0.929 . S
H183 C161 0.931 . S
H184 C163 0.930 . S
H185 C167 0.931 . S
H186 C165 0.931 . S
H187 C169 0.931 . S
H188 C170 0.929 . S
H189 C171 0.930 . S
H190 C174 0.930 . S
H191 C175 0.931 . S
H192 C179 0.928 . S
H193 C178 0.929 . S
H194 C176 0.932 . S
C195 C196 1.386 1_554 S
C195 C197 1.397 . S
C195 H219 0.931 1_554 S
C196 C195 1.386 1_556 S
C196 C200 1.397 1_556 S
C197 C195 1.397 . S
C197 C198 1.384 . S
C197 H220 0.930 . S
C198 C197 1.384 . S
C198 C199 1.377 . S
C198 C201 1.481 . S
C199 C198 1.377 . S
C199 C200 1.389 . S
C199 H221 0.929 . S
C200 C196 1.397 1_554 S
C200 C199 1.389 . S
C200 H222 0.931 . S
C201 C198 1.481 . S
C201 C202 1.387 . S
C201 C206 1.390 . S
C202 C201 1.387 . S
C202 C203 1.401 . S
C202 H223 0.930 . S
C203 C202 1.401 . S
C203 C204 1.376 . S
C203 C212 1.511 . S
C204 C203 1.376 . S
C204 C205 1.392 . S
C204 H225 0.931 . S
C205 C204 1.392 . S
C205 C206 1.361 . S
C205 C207 1.500 . S
C206 C201 1.390 . S
C206 C205 1.361 . S
C206 H224 0.931 . S
C207 C205 1.500 . S
C207 C208 1.371 . S
C207 C209 1.365 . S
C208 C207 1.371 . S
C208 C218 1.386 . S
C208 H226 0.931 . S
C209 C207 1.365 . S
C209 C210 1.409 . S
C209 H227 0.929 . S
C210 C209 1.409 . S
C210 C211 1.380 . S
C210 H228 0.930 . S
C211 C210 1.380 . S
C211 C218 1.357 . S
C212 C203 1.511 . S
C212 C213 1.341 . S
C212 C214 1.371 . S
C213 C212 1.341 . S
C213 C217 1.394 . S
C213 H229 0.930 . S
C214 C212 1.371 . S
C214 C215 1.392 . S
C214 H230 0.931 . S
C215 C214 1.392 . S
C215 C216 1.331 . S
C215 H233 0.932 . S
C216 C215 1.331 . S
C216 C217 1.336 . S
C217 C213 1.394 . S
C217 C216 1.336 . S
C217 H232 0.929 . S
C218 C208 1.386 . S
C218 C211 1.357 . S
C218 H231 0.928 . S
H219 C195 0.931 1_556 S
H220 C197 0.930 . S
H221 C199 0.929 . S
H222 C200 0.931 . S
H223 C202 0.930 . S
H224 C206 0.931 . S
H225 C204 0.931 . S
H226 C208 0.931 . S
H227 C209 0.929 . S
H228 C210 0.930 . S
H229 C213 0.930 . S
H230 C214 0.931 . S
H231 C218 0.928 . S
H232 C217 0.929 . S
H233 C215 0.932 . S
C234 C235 1.386 . S
C234 C236 1.397 . S
C234 H258 0.931 . S
C235 C234 1.386 . S
C235 C239 1.397 . S
C236 C234 1.397 . S
C236 C237 1.384 . S
C236 H259 0.930 . S
C237 C236 1.384 . S
C237 C238 1.377 . S
C237 C240 1.481 . S
C238 C237 1.377 . S
C238 C239 1.389 . S
C238 H260 0.929 . S
C239 C235 1.397 . S
C239 C238 1.389 . S
C239 H261 0.931 1_565 S
C240 C237 1.481 . S
C240 C241 1.387 . S
C240 C245 1.390 . S
C241 C240 1.387 . S
C241 C242 1.401 . S
C241 H262 0.930 . S
C242 C241 1.401 . S
C242 C243 1.376 . S
C242 C251 1.511 . S
C243 C242 1.376 . S
C243 C244 1.392 . S
C243 H264 0.931 . S
C244 C243 1.392 . S
C244 C245 1.361 . S
C244 C246 1.500 . S
C245 C240 1.390 . S
C245 C244 1.361 . S
C245 H263 0.931 . S
C246 C244 1.500 . S
C246 C247 1.371 . S
C246 C248 1.365 . S
C247 C246 1.371 . S
C247 C257 1.386 . S
C247 H265 0.931 . S
C248 C246 1.365 . S
C248 C249 1.409 . S
C248 H266 0.929 . S
C249 C248 1.409 . S
C249 C250 1.380 . S
C249 H267 0.930 . S
C250 C249 1.380 . S
C250 C257 1.357 . S
C251 C242 1.511 . S
C251 C252 1.341 . S
C251 C253 1.371 . S
C252 C251 1.341 . S
C252 C256 1.394 . S
C252 H268 0.930 . S
C253 C251 1.371 . S
C253 C254 1.392 . S
C253 H269 0.931 . S
C254 C253 1.392 . S
C254 C255 1.331 . S
C254 H272 0.932 . S
C255 C254 1.331 . S
C255 C256 1.336 . S
C256 C252 1.394 . S
C256 C255 1.336 . S
C256 H271 0.929 . S
C257 C247 1.386 . S
C257 C250 1.357 . S
C257 H270 0.928 . S
H258 C234 0.931 . S
H259 C236 0.930 . S
H260 C238 0.929 . S
H261 C239 0.931 1_545 S
H262 C241 0.930 . S
H263 C245 0.931 . S
H264 C243 0.931 . S
H265 C247 0.931 . S
H266 C248 0.929 . S
H267 C249 0.930 . S
H268 C252 0.930 . S
H269 C253 0.931 . S
H270 C257 0.928 . S
H271 C256 0.929 . S
H272 C254 0.932 . S
C273 C274 1.386 1_556 S
C273 C275 1.397 . S
C273 H297 0.931 1_556 S
C274 C273 1.386 1_554 S
C274 C278 1.397 1_554 S
C275 C273 1.397 . S
C275 C276 1.384 . S
C275 H298 0.930 . S
C276 C275 1.384 . S
C276 C277 1.377 . S
C276 C279 1.481 . S
C277 C276 1.377 . S
C277 C278 1.389 . S
C277 H299 0.929 . S
C278 C274 1.397 1_556 S
C278 C277 1.389 . S
C278 H300 0.931 . S
C279 C276 1.481 . S
C279 C280 1.387 . S
C279 C284 1.390 . S
C280 C279 1.387 . S
C280 C281 1.401 . S
C280 H301 0.930 . S
C281 C280 1.401 . S
C281 C282 1.376 . S
C281 C290 1.511 . S
C282 C281 1.376 . S
C282 C283 1.392 . S
C282 H303 0.931 . S
C283 C282 1.392 . S
C283 C284 1.361 . S
C283 C285 1.500 . S
C284 C279 1.390 . S
C284 C283 1.361 . S
C284 H302 0.931 . S
C285 C283 1.500 . S
C285 C286 1.371 . S
C285 C287 1.365 . S
C286 C285 1.371 . S
C286 C296 1.386 . S
C286 H304 0.931 . S
C287 C285 1.365 . S
C287 C288 1.409 . S
C287 H305 0.929 . S
C288 C287 1.409 . S
C288 C289 1.380 . S
C288 H306 0.930 . S
C289 C288 1.380 . S
C289 C296 1.357 . S
C290 C281 1.511 . S
C290 C291 1.341 . S
C290 C292 1.371 . S
C291 C290 1.341 . S
C291 C295 1.394 . S
C291 H307 0.930 . S
C292 C290 1.371 . S
C292 C293 1.392 . S
C292 H308 0.931 . S
C293 C292 1.392 . S
C293 C294 1.331 . S
C293 H311 0.932 . S
C294 C293 1.331 . S
C294 C295 1.336 . S
C295 C291 1.394 . S
C295 C294 1.336 . S
C295 H310 0.929 . S
C296 C286 1.386 . S
C296 C289 1.357 . S
C296 H309 0.928 . S
H297 C273 0.931 1_554 S
H298 C275 0.930 . S
H299 C277 0.929 . S
H300 C278 0.931 . S
H301 C280 0.930 . S
H302 C284 0.931 . S
H303 C282 0.931 . S
H304 C286 0.931 . S
H305 C287 0.929 . S
H306 C288 0.930 . S
H307 C291 0.930 . S
H308 C292 0.931 . S
H309 C296 0.928 . S
H310 C295 0.929 . S
H311 C293 0.932 . S
C312 C314 1.422 . S
C312 C316 1.415 . S
C312 N318 1.369 . S
C313 C314 1.421 . S
C313 C315 1.417 . S
C313 C325 1.422 . S
C314 C312 1.422 . S
C314 C313 1.421 . S
C314 N324 1.359 . S
C315 C313 1.417 . S
C315 C317 1.329 . S
C315 H334 0.930 . S
C316 C312 1.415 . S
C316 C317 1.437 . S
C316 C320 1.413 . S
C317 C315 1.329 . S
C317 C316 1.437 . S
C317 H339 0.929 . S
N318 C312 1.369 . S
N318 C319 1.338 . S
N318 Gd323 2.622 . S
C319 N318 1.338 . S
C319 C321 1.378 . S
C319 H331 0.929 . S
C320 C316 1.413 . S
C320 C321 1.348 . S
C320 H336 0.931 . S
C321 C319 1.378 . S
C321 C320 1.348 . S
C321 H337 0.930 . S
Gd322 N342 2.622 . S
Gd322 N349 2.570 . S
Gd322 O356 2.353 . S
Gd322 O357 2.468 . S
Gd322 O358 2.427 . S
Gd322 O360 2.388 . S
Gd322 O361 2.386 . S
Gd322 O365 2.316 . S
Gd322 C375 2.805 . S
Gd323 N318 2.622 . S
Gd323 N324 2.570 . S
Gd323 O355 2.386 . S
Gd323 O359 2.307 1_655 S
Gd323 O362 2.353 1_655 S
Gd323 O363 2.468 . S
Gd323 O364 2.427 . S
Gd323 O366 2.388 . S
Gd323 C387 2.805 . S
N324 C314 1.359 . S
N324 Gd323 2.570 . S
N324 C326 1.343 . S
C325 C313 1.422 . S
C325 C327 1.321 . S
C325 H333 0.931 . S
C326 N324 1.343 . S
C326 C327 1.390 . S
C326 H328 0.931 . S
C327 C325 1.321 . S
C327 C326 1.390 . S
C327 H329 0.930 . S
H328 C326 0.931 . S
H329 C327 0.930 . S
H330 C353 0.931 . S
H331 C319 0.929 . S
H332 C354 0.930 . S
H333 C325 0.931 . S
H334 C315 0.930 . S
H335 C344 0.929 . S
H336 C320 0.931 . S
H337 C321 0.930 . S
H338 C376 0.930 . S
H339 C317 0.929 . S
H340 C345 0.931 . S
H341 C346 0.930 . S
N342 Gd322 2.622 . S
N342 C343 1.369 . S
N342 C344 1.338 . S
C343 N342 1.369 . S
C343 C347 1.415 . S
C343 C350 1.422 . S
C344 H335 0.929 . S
C344 N342 1.338 . S
C344 C346 1.378 . S
C345 H340 0.931 . S
C345 C346 1.348 . S
C345 C347 1.413 . S
C346 H341 0.930 . S
C346 C344 1.378 . S
C346 C345 1.348 . S
C347 C343 1.415 . S
C347 C345 1.413 . S
C347 C377 1.437 . S
H348 C377 0.929 . S
N349 Gd322 2.570 . S
N349 C350 1.359 . S
N349 C353 1.343 . S
C350 C343 1.422 . S
C350 N349 1.359 . S
C350 C352 1.421 . S
C351 C352 1.422 . S
C351 C354 1.321 . S
C351 H378 0.931 . S
C352 C350 1.421 . S
C352 C351 1.422 . S
C352 C376 1.417 . S
C353 H330 0.931 . S
C353 N349 1.343 . S
C353 C354 1.390 . S
C354 H332 0.930 . S
C354 C351 1.321 . S
C354 C353 1.390 . S
O355 Gd323 2.386 . S
O355 C367 1.265 . S
O356 Gd322 2.353 . S
O356 C367 1.242 1_455 S
O357 Gd322 2.468 . S
O357 C375 1.263 . S
O358 Gd322 2.427 . S
O358 C375 1.252 . S
O359 Gd323 2.307 1_455 S
O359 C368 1.261 . S
O360 Gd322 2.388 . S
O360 C368 1.252 . S
O361 Gd322 2.386 . S
O361 C379 1.265 . S
O362 Gd323 2.353 1_455 S
O362 C379 1.242 . S
O363 Gd323 2.468 . S
O363 C387 1.263 . S
O364 Gd323 2.427 . S
O364 C387 1.252 . S
O365 Gd322 2.316 . S
O365 C380 1.250 1_455 S
O366 Gd323 2.388 . S
O366 C380 1.252 . S
C367 O355 1.265 . S
C367 O356 1.242 1_655 S
C368 O359 1.261 . S
C368 O360 1.252 . S
C369 C372 1.394 . S
C369 C374 1.370 . S
C369 C375 1.500 . S
C370 C373 1.383 . S
C370 C374 1.395 . S
C371 C372 1.396 . S
C371 C373 1.365 . S
C371 H388 0.929 . S
C372 C369 1.394 . S
C372 C371 1.396 . S
C372 H389 0.930 . S
C373 C370 1.383 . S
C373 C371 1.365 . S
C373 H390 0.931 . S
C374 C369 1.370 . S
C374 C370 1.395 . S
C374 H391 0.930 . S
C375 Gd322 2.805 . S
C375 O357 1.263 . S
C375 O358 1.252 . S
C375 C369 1.500 . S
C376 H338 0.930 . S
C376 C352 1.417 . S
C376 C377 1.329 . S
C377 C347 1.437 . S
C377 H348 0.929 . S
C377 C376 1.329 . S
H378 C351 0.931 . S
C379 O361 1.265 . S
C379 O362 1.242 . S
C380 O365 1.250 1_655 S
C380 O366 1.252 . S
C381 C384 1.394 . S
C381 C386 1.370 . S
C381 C387 1.500 . S
C382 C385 1.383 . S
C382 C386 1.395 . S
C383 C384 1.396 . S
C383 C385 1.365 . S
C383 H392 0.929 . S
C384 C381 1.394 . S
C384 C383 1.396 . S
C384 H393 0.930 . S
C385 C382 1.383 . S
C385 C383 1.365 . S
C385 H394 0.931 . S
C386 C381 1.370 . S
C386 C382 1.395 . S
C386 H395 0.930 . S
C387 Gd323 2.805 . S
C387 O363 1.263 . S
C387 O364 1.252 . S
C387 C381 1.500 . S
H388 C371 0.929 . S
H389 C372 0.930 . S
H390 C373 0.931 . S
H391 C374 0.930 . S
H392 C383 0.929 . S
H393 C384 0.930 . S
H394 C385 0.931 . S
H395 C386 0.930 . S
C396 C398 1.422 . S
C396 C400 1.415 . S
C396 N402 1.369 . S
C397 C398 1.421 . S
C397 C399 1.417 . S
C397 C409 1.422 . S
C398 C396 1.422 . S
C398 C397 1.421 . S
C398 N408 1.359 . S
C399 C397 1.417 . S
C399 C401 1.329 . S
C399 H418 0.930 . S
C400 C396 1.415 . S
C400 C401 1.437 . S
C400 C404 1.413 . S
C401 C399 1.329 . S
C401 C400 1.437 . S
C401 H423 0.929 . S
N402 C396 1.369 . S
N402 C403 1.338 . S
N402 Gd407 2.622 . S
C403 N402 1.338 . S
C403 C405 1.378 . S
C403 H415 0.929 . S
C404 C400 1.413 . S
C404 C405 1.348 . S
C404 H420 0.931 . S
C405 C403 1.378 . S
C405 C404 1.348 . S
C405 H421 0.930 . S
Gd406 N426 2.622 . S
Gd406 N433 2.570 . S
Gd406 O440 2.353 . S
Gd406 O441 2.468 . S
Gd406 O442 2.427 . S
Gd406 O444 2.388 . S
Gd406 O445 2.386 . S
Gd406 O449 2.307 . S
Gd406 C459 2.805 . S
Gd407 N402 2.622 . S
Gd407 N408 2.570 . S
Gd407 O439 2.386 . S
Gd407 O443 2.307 . S
Gd407 O446 2.353 . S
Gd407 O447 2.468 . S
Gd407 O448 2.427 . S
Gd407 O450 2.388 . S
Gd407 C471 2.805 . S
N408 C398 1.359 . S
N408 Gd407 2.570 . S
N408 C410 1.343 . S
C409 C397 1.422 . S
C409 C411 1.321 . S
C409 H417 0.931 . S
C410 N408 1.343 . S
C410 C411 1.390 . S
C410 H412 0.931 . S
C411 C409 1.321 . S
C411 C410 1.390 . S
C411 H413 0.930 . S
H412 C410 0.931 . S
H413 C411 0.930 . S
H414 C437 0.931 . S
H415 C403 0.929 . S
H416 C438 0.930 . S
H417 C409 0.931 . S
H418 C399 0.930 . S
H419 C428 0.929 . S
H420 C404 0.931 . S
H421 C405 0.930 . S
H422 C460 0.930 . S
H423 C401 0.929 . S
H424 C429 0.931 . S
H425 C430 0.930 . S
N426 Gd406 2.622 . S
N426 C427 1.369 . S
N426 C428 1.338 . S
C427 N426 1.369 . S
C427 C431 1.415 . S
C427 C434 1.422 . S
C428 H419 0.929 . S
C428 N426 1.338 . S
C428 C430 1.378 . S
C429 H424 0.931 . S
C429 C430 1.348 . S
C429 C431 1.413 . S
C430 H425 0.930 . S
C430 C428 1.378 . S
C430 C429 1.348 . S
C431 C427 1.415 . S
C431 C429 1.413 . S
C431 C461 1.437 . S
H432 C461 0.929 . S
N433 Gd406 2.570 . S
N433 C434 1.359 . S
N433 C437 1.343 . S
C434 C427 1.422 . S
C434 N433 1.359 . S
C434 C436 1.421 . S
C435 C436 1.422 . S
C435 C438 1.321 . S
C435 H462 0.931 . S
C436 C434 1.421 . S
C436 C435 1.422 . S
C436 C460 1.417 . S
C437 H414 0.931 . S
C437 N433 1.343 . S
C437 C438 1.390 . S
C438 H416 0.930 . S
C438 C435 1.321 . S
C438 C437 1.390 . S
O439 Gd407 2.386 . S
O439 C451 1.265 . S
O440 Gd406 2.353 . S
O440 C451 1.242 . S
O441 Gd406 2.468 . S
O441 C459 1.263 . S
O442 Gd406 2.427 . S
O442 C459 1.252 . S
O443 Gd407 2.307 . S
O443 C452 1.261 . S
O444 Gd406 2.388 . S
O444 C452 1.252 . S
O445 Gd406 2.386 . S
O445 C463 1.265 . S
O446 Gd407 2.353 . S
O446 C463 1.242 . S
O447 Gd407 2.468 . S
O447 C471 1.263 . S
O448 Gd407 2.427 . S
O448 C471 1.252 . S
O449 Gd406 2.307 . S
O449 C464 1.261 . S
O450 Gd407 2.388 . S
O450 C464 1.252 . S
C451 O439 1.265 . S
C451 O440 1.242 . S
C452 O443 1.261 . S
C452 O444 1.252 . S
C453 C456 1.394 . S
C453 C458 1.370 . S
C453 C459 1.500 . S
C454 C457 1.383 . S
C454 C458 1.395 . S
C455 C456 1.396 . S
C455 C457 1.365 . S
C455 H472 0.929 . S
C456 C453 1.394 . S
C456 C455 1.396 . S
C456 H473 0.930 . S
C457 C454 1.383 . S
C457 C455 1.365 . S
C457 H474 0.931 . S
C458 C453 1.370 . S
C458 C454 1.395 . S
C458 H475 0.930 . S
C459 Gd406 2.805 . S
C459 O441 1.263 . S
C459 O442 1.252 . S
C459 C453 1.500 . S
C460 H422 0.930 . S
C460 C436 1.417 . S
C460 C461 1.329 . S
C461 C431 1.437 . S
C461 H432 0.929 . S
C461 C460 1.329 . S
H462 C435 0.931 . S
C463 O445 1.265 . S
C463 O446 1.242 . S
C464 O449 1.261 . S
C464 O450 1.252 . S
C465 C468 1.394 . S
C465 C470 1.370 . S
C465 C471 1.500 . S
C466 C469 1.383 . S
C466 C470 1.395 . S
C467 C468 1.396 . S
C467 C469 1.365 . S
C467 H476 0.929 . S
C468 C465 1.394 . S
C468 C467 1.396 . S
C468 H477 0.930 . S
C469 C466 1.383 . S
C469 C467 1.365 . S
C469 H478 0.931 . S
C470 C465 1.370 . S
C470 C466 1.395 . S
C470 H479 0.930 . S
C471 Gd407 2.805 . S
C471 O447 1.263 . S
C471 O448 1.252 . S
C471 C465 1.500 . S
H472 C455 0.929 . S
H473 C456 0.930 . S
H474 C457 0.931 . S
H475 C458 0.930 . S
H476 C467 0.929 . S
H477 C468 0.930 . S
H478 C469 0.931 . S
H479 C470 0.930 . S
C480 C482 1.422 . S
C480 C484 1.415 . S
C480 N486 1.369 . S
C481 C482 1.421 . S
C481 C483 1.417 . S
C481 C493 1.422 . S
C482 C480 1.422 . S
C482 C481 1.421 . S
C482 N492 1.359 . S
C483 C481 1.417 . S
C483 C485 1.329 . S
C483 H502 0.930 . S
C484 C480 1.415 . S
C484 C485 1.437 . S
C484 C488 1.413 . S
C485 C483 1.329 . S
C485 C484 1.437 . S
C485 H507 0.929 . S
N486 C480 1.369 . S
N486 C487 1.338 . S
N486 Gd491 2.622 . S
C487 N486 1.338 . S
C487 C489 1.378 . S
C487 H499 0.929 . S
C488 C484 1.413 . S
C488 C489 1.348 . S
C488 H504 0.931 . S
C489 C487 1.378 . S
C489 C488 1.348 . S
C489 H505 0.930 . S
Gd490 N510 2.622 . S
Gd490 N517 2.570 . S
Gd490 O524 2.353 . S
Gd490 O525 2.468 . S
Gd490 O526 2.427 . S
Gd490 O528 2.388 . S
Gd490 O529 2.386 . S
Gd490 O533 2.307 . S
Gd490 C543 2.805 . S
Gd491 N486 2.622 . S
Gd491 N492 2.570 . S
Gd491 O523 2.386 . S
Gd491 O527 2.307 1_655 S
Gd491 O530 2.353 1_655 S
Gd491 O531 2.468 . S
Gd491 O532 2.427 . S
Gd491 O534 2.388 . S
Gd491 C555 2.805 . S
N492 C482 1.359 . S
N492 Gd491 2.570 . S
N492 C494 1.343 . S
C493 C481 1.422 . S
C493 C495 1.321 . S
C493 H501 0.931 . S
C494 N492 1.343 . S
C494 C495 1.390 . S
C494 H496 0.931 . S
C495 C493 1.321 . S
C495 C494 1.390 . S
C495 H497 0.930 . S
H496 C494 0.931 . S
H497 C495 0.930 . S
H498 C521 0.931 . S
H499 C487 0.929 . S
H500 C522 0.930 . S
H501 C493 0.931 . S
H502 C483 0.930 . S
H503 C512 0.929 . S
H504 C488 0.931 . S
H505 C489 0.930 . S
H506 C544 0.930 . S
H507 C485 0.929 . S
H508 C513 0.931 . S
H509 C514 0.930 . S
N510 Gd490 2.622 . S
N510 C511 1.369 . S
N510 C512 1.338 . S
C511 N510 1.369 . S
C511 C515 1.415 . S
C511 C518 1.422 . S
C512 H503 0.929 . S
C512 N510 1.338 . S
C512 C514 1.378 . S
C513 H508 0.931 . S
C513 C514 1.348 . S
C513 C515 1.413 . S
C514 H509 0.930 . S
C514 C512 1.378 . S
C514 C513 1.348 . S
C515 C511 1.415 . S
C515 C513 1.413 . S
C515 C545 1.437 . S
H516 C545 0.929 . S
N517 Gd490 2.570 . S
N517 C518 1.359 . S
N517 C521 1.343 . S
C518 C511 1.422 . S
C518 N517 1.359 . S
C518 C520 1.421 . S
C519 C520 1.422 . S
C519 C522 1.321 . S
C519 H546 0.931 . S
C520 C518 1.421 . S
C520 C519 1.422 . S
C520 C544 1.417 . S
C521 H498 0.931 . S
C521 N517 1.343 . S
C521 C522 1.390 . S
C522 H500 0.930 . S
C522 C519 1.321 . S
C522 C521 1.390 . S
O523 Gd491 2.386 . S
O523 C535 1.265 . S
O524 Gd490 2.353 . S
O524 C535 1.242 1_455 S
O525 Gd490 2.468 . S
O525 C543 1.263 . S
O526 Gd490 2.427 . S
O526 C543 1.252 . S
O527 Gd491 2.307 1_455 S
O527 C536 1.261 . S
O528 Gd490 2.388 . S
O528 C536 1.252 . S
O529 Gd490 2.386 . S
O529 C547 1.265 . S
O530 Gd491 2.353 1_455 S
O530 C547 1.242 . S
O531 Gd491 2.468 . S
O531 C555 1.263 . S
O532 Gd491 2.427 . S
O532 C555 1.252 . S
O533 Gd490 2.307 . S
O533 C548 1.261 1_455 S
O534 Gd491 2.388 . S
O534 C548 1.252 . S
C535 O523 1.265 . S
C535 O524 1.242 1_655 S
C536 O527 1.261 . S
C536 O528 1.252 . S
C537 C540 1.394 . S
C537 C542 1.370 . S
C537 C543 1.500 . S
C538 C541 1.383 . S
C538 C542 1.395 . S
C539 C540 1.396 . S
C539 C541 1.365 . S
C539 H556 0.929 . S
C540 C537 1.394 . S
C540 C539 1.396 . S
C540 H557 0.930 . S
C541 C538 1.383 . S
C541 C539 1.365 . S
C541 H558 0.931 . S
C542 C537 1.370 . S
C542 C538 1.395 . S
C542 H559 0.930 . S
C543 Gd490 2.805 . S
C543 O525 1.263 . S
C543 O526 1.252 . S
C543 C537 1.500 . S
C544 H506 0.930 . S
C544 C520 1.417 . S
C544 C545 1.329 . S
C545 C515 1.437 . S
C545 H516 0.929 . S
C545 C544 1.329 . S
H546 C519 0.931 . S
C547 O529 1.265 . S
C547 O530 1.242 . S
C548 O533 1.261 1_655 S
C548 O534 1.252 . S
C549 C552 1.394 . S
C549 C554 1.370 . S
C549 C555 1.500 . S
C550 C553 1.383 . S
C550 C554 1.395 . S
C551 C552 1.396 . S
C551 C553 1.365 . S
C551 H560 0.929 . S
C552 C549 1.394 . S
C552 C551 1.396 . S
C552 H561 0.930 . S
C553 C550 1.383 . S
C553 C551 1.365 . S
C553 H562 0.931 . S
C554 C549 1.370 . S
C554 C550 1.395 . S
C554 H563 0.930 . S
C555 Gd491 2.805 . S
C555 O531 1.263 . S
C555 O532 1.252 . S
C555 C549 1.500 . S
H556 C539 0.929 . S
H557 C540 0.930 . S
H558 C541 0.931 . S
H559 C542 0.930 . S
H560 C551 0.929 . S
H561 C552 0.930 . S
H562 C553 0.931 . S
H563 C554 0.930 . S
C564 C566 1.422 . S
C564 C568 1.415 . S
C564 N570 1.369 . S
C565 C566 1.421 . S
C565 C567 1.417 . S
C565 C577 1.422 . S
C566 C564 1.422 . S
C566 C565 1.421 . S
C566 N576 1.359 . S
C567 C565 1.417 . S
C567 C569 1.329 . S
C567 H586 0.930 . S
C568 C564 1.415 . S
C568 C569 1.437 . S
C568 C572 1.413 . S
C569 C567 1.329 . S
C569 C568 1.437 . S
C569 H591 0.929 . S
N570 C564 1.369 . S
N570 C571 1.338 . S
N570 Gd575 2.622 . S
C571 N570 1.338 . S
C571 C573 1.378 . S
C571 H583 0.929 . S
C572 C568 1.413 . S
C572 C573 1.348 . S
C572 H588 0.931 . S
C573 C571 1.378 . S
C573 C572 1.348 . S
C573 H589 0.930 . S
Gd574 N594 2.622 . S
Gd574 N601 2.570 . S
Gd574 O608 2.353 . S
Gd574 O609 2.468 . S
Gd574 O610 2.427 . S
Gd574 O612 2.388 . S
Gd574 O613 2.386 . S
Gd574 O617 2.307 . S
Gd574 C627 2.805 . S
Gd575 N570 2.622 . S
Gd575 N576 2.570 . S
Gd575 O607 2.386 . S
Gd575 O611 2.307 . S
Gd575 O614 2.353 . S
Gd575 O615 2.468 . S
Gd575 O616 2.427 . S
Gd575 O618 2.388 . S
Gd575 C639 2.805 . S
N576 C566 1.359 . S
N576 Gd575 2.570 . S
N576 C578 1.343 . S
C577 C565 1.422 . S
C577 C579 1.321 . S
C577 H585 0.931 . S
C578 N576 1.343 . S
C578 C579 1.390 . S
C578 H580 0.931 . S
C579 C577 1.321 . S
C579 C578 1.390 . S
C579 H581 0.930 . S
H580 C578 0.931 . S
H581 C579 0.930 . S
H582 C605 0.931 . S
H583 C571 0.929 . S
H584 C606 0.930 . S
H585 C577 0.931 . S
H586 C567 0.930 . S
H587 C596 0.929 . S
H588 C572 0.931 . S
H589 C573 0.930 . S
H590 C628 0.930 . S
H591 C569 0.929 . S
H592 C597 0.931 . S
H593 C598 0.930 . S
N594 Gd574 2.622 . S
N594 C595 1.369 . S
N594 C596 1.338 . S
C595 N594 1.369 . S
C595 C599 1.415 . S
C595 C602 1.422 . S
C596 H587 0.929 . S
C596 N594 1.338 . S
C596 C598 1.378 . S
C597 H592 0.931 . S
C597 C598 1.348 . S
C597 C599 1.413 . S
C598 H593 0.930 . S
C598 C596 1.378 . S
C598 C597 1.348 . S
C599 C595 1.415 . S
C599 C597 1.413 . S
C599 C629 1.437 . S
H600 C629 0.929 . S
N601 Gd574 2.570 . S
N601 C602 1.359 . S
N601 C605 1.343 . S
C602 C595 1.422 . S
C602 N601 1.359 . S
C602 C604 1.421 . S
C603 C604 1.422 . S
C603 C606 1.321 . S
C603 H630 0.931 . S
C604 C602 1.421 . S
C604 C603 1.422 . S
C604 C628 1.417 . S
C605 H582 0.931 . S
C605 N601 1.343 . S
C605 C606 1.390 . S
C606 H584 0.930 . S
C606 C603 1.321 . S
C606 C605 1.390 . S
O607 Gd575 2.386 . S
O607 C619 1.265 . S
O608 Gd574 2.353 . S
O608 C619 1.242 . S
O609 Gd574 2.468 . S
O609 C627 1.263 . S
O610 Gd574 2.427 . S
O610 C627 1.252 . S
O611 Gd575 2.307 . S
O611 C620 1.261 . S
O612 Gd574 2.388 . S
O612 C620 1.252 . S
O613 Gd574 2.386 . S
O613 C631 1.265 . S
O614 Gd575 2.353 . S
O614 C631 1.242 . S
O615 Gd575 2.468 . S
O615 C639 1.263 . S
O616 Gd575 2.427 . S
O616 C639 1.252 . S
O617 Gd574 2.307 . S
O617 C632 1.261 . S
O618 Gd575 2.388 . S
O618 C632 1.252 . S
C619 O607 1.265 . S
C619 O608 1.242 . S
C620 O611 1.261 . S
C620 O612 1.252 . S
C621 C624 1.394 . S
C621 C626 1.370 . S
C621 C627 1.500 . S
C622 C625 1.383 . S
C622 C626 1.395 . S
C623 C624 1.396 . S
C623 C625 1.365 . S
C623 H640 0.929 . S
C624 C621 1.394 . S
C624 C623 1.396 . S
C624 H641 0.930 . S
C625 C622 1.383 . S
C625 C623 1.365 . S
C625 H642 0.931 . S
C626 C621 1.370 . S
C626 C622 1.395 . S
C626 H643 0.930 . S
C627 Gd574 2.805 . S
C627 O609 1.263 . S
C627 O610 1.252 . S
C627 C621 1.500 . S
C628 H590 0.930 . S
C628 C604 1.417 . S
C628 C629 1.329 . S
C629 C599 1.437 . S
C629 H600 0.929 . S
C629 C628 1.329 . S
H630 C603 0.931 . S
C631 O613 1.265 . S
C631 O614 1.242 . S
C632 O617 1.261 . S
C632 O618 1.252 . S
C633 C636 1.394 . S
C633 C638 1.370 . S
C633 C639 1.500 . S
C634 C637 1.383 . S
C634 C638 1.395 . S
C635 C636 1.396 . S
C635 C637 1.365 . S
C635 H644 0.929 . S
C636 C633 1.394 . S
C636 C635 1.396 . S
C636 H645 0.930 . S
C637 C634 1.383 . S
C637 C635 1.365 . S
C637 H646 0.931 . S
C638 C633 1.370 . S
C638 C634 1.395 . S
C638 H647 0.930 . S
C639 Gd575 2.805 . S
C639 O615 1.263 . S
C639 O616 1.252 . S
C639 C633 1.500 . S
H640 C623 0.929 . S
H641 C624 0.930 . S
H642 C625 0.931 . S
H643 C626 0.930 . S
H644 C635 0.929 . S
H645 C636 0.930 . S
H646 C637 0.931 . S
H647 C638 0.930 . S
C648 C649 1.363 . S
C648 C654 1.379 . S
C648 N656 1.356 . S
C649 C648 1.363 . S
C649 C655 1.363 . S
C650 C651 1.363 . S
C650 C655 1.379 . S
C650 N657 1.356 . S
C651 C650 1.363 . S
C651 C654 1.363 . S
N652 C654 1.356 . S
N652 H664 0.984 . S
N652 H665 0.985 . S
N653 C655 1.356 1_565 S
N653 H658 0.984 . S
N653 H659 0.985 . S
C654 C648 1.379 . S
C654 C651 1.363 . S
C654 N652 1.356 . S
C655 C649 1.363 . S
C655 C650 1.379 . S
C655 N653 1.356 1_545 S
N656 C648 1.356 . S
N656 H662 0.984 . S
N656 H663 0.984 . S
N657 C650 1.356 . S
N657 H660 0.984 . S
N657 H661 0.985 . S
H658 N653 0.984 . S
H659 N653 0.985 . S
H660 N657 0.984 . S
H661 N657 0.985 . S
H662 N656 0.984 . S
H663 N656 0.984 . S
H664 N652 0.984 . S
H665 N652 0.985 . S
C666 C667 1.363 . S
C666 C672 1.379 . S
C666 N674 1.356 . S
C667 C666 1.363 . S
C667 C673 1.363 . S
C668 C669 1.363 . S
C668 C673 1.379 . S
C668 N675 1.356 . S
C669 C668 1.363 . S
C669 C672 1.363 . S
N670 C672 1.356 . S
N670 H682 0.984 . S
N670 H683 0.985 . S
N671 C673 1.356 . S
N671 H676 0.984 . S
N671 H677 0.985 . S
C672 C666 1.379 . S
C672 C669 1.363 . S
C672 N670 1.356 . S
C673 C667 1.363 . S
C673 C668 1.379 . S
C673 N671 1.356 . S
N674 C666 1.356 . S
N674 H680 0.984 . S
N674 H681 0.984 . S
N675 C668 1.356 . S
N675 H678 0.984 . S
N675 H679 0.985 . S
H676 N671 0.984 . S
H677 N671 0.985 . S
H678 N675 0.984 . S
H679 N675 0.985 . S
H680 N674 0.984 . S
H681 N674 0.984 . S
H682 N670 0.984 . S
H683 N670 0.985 . S
C684 C685 1.363 . S
C684 C690 1.379 . S
C684 N692 1.356 . S
C685 C684 1.363 . S
C685 C691 1.363 . S
C686 C687 1.363 . S
C686 C691 1.379 . S
C686 N693 1.356 . S
C687 C686 1.363 . S
C687 C690 1.363 . S
N688 C690 1.356 . S
N688 H700 0.984 . S
N688 H701 0.985 . S
N689 C691 1.356 . S
N689 H694 0.984 . S
N689 H695 0.985 . S
C690 C684 1.379 . S
C690 C687 1.363 . S
C690 N688 1.356 . S
C691 C685 1.363 . S
C691 C686 1.379 . S
C691 N689 1.356 . S
N692 C684 1.356 . S
N692 H698 0.984 . S
N692 H699 0.984 . S
N693 C686 1.356 . S
N693 H696 0.984 . S
N693 H697 0.985 . S
H694 N689 0.984 . S
H695 N689 0.985 . S
H696 N693 0.984 . S
H697 N693 0.985 . S
H698 N692 0.984 . S
H699 N692 0.984 . S
H700 N688 0.984 . S
H701 N688 0.985 . S
C702 C703 1.363 . S
C702 C708 1.379 . S
C702 N710 1.356 . S
C703 C702 1.363 . S
C703 C709 1.363 . S
C704 C705 1.363 . S
C704 C709 1.379 . S
C704 N711 1.356 . S
C705 C704 1.363 . S
C705 C708 1.363 . S
N706 C708 1.356 . S
N706 H718 0.984 . S
N706 H719 0.985 . S
N707 C709 1.356 . S
N707 H712 0.984 . S
N707 H713 0.985 . S
C708 C702 1.379 . S
C708 C705 1.363 . S
C708 N706 1.356 . S
C709 C703 1.363 . S
C709 C704 1.379 . S
C709 N707 1.356 . S
N710 C702 1.356 . S
N710 H716 0.984 . S
N710 H717 0.984 1_545 S
N711 C704 1.356 . S
N711 H714 0.984 1_655 S
N711 H715 0.985 1_655 S
H712 N707 0.984 . S
H713 N707 0.985 . S
H714 N711 0.984 1_455 S
H715 N711 0.985 1_455 S
H716 N710 0.984 . S
H717 N710 0.984 1_565 S
H718 N706 0.984 . S
H719 N706 0.985 . S
C720 C721 1.363 . S
C720 C726 1.379 . S
C720 N728 1.356 1_565 S
C721 C720 1.363 . S
C721 C727 1.363 . S
C722 C723 1.363 . S
C722 C727 1.379 . S
C722 N729 1.356 . S
C723 C722 1.363 . S
C723 C726 1.363 . S
N724 C726 1.356 . S
N724 H736 0.984 1_655 S
N724 H737 0.985 1_655 S
N725 C727 1.356 . S
N725 H730 0.984 . S
N725 H731 0.985 . S
C726 C720 1.379 . S
C726 C723 1.363 . S
C726 N724 1.356 . S
C727 C721 1.363 . S
C727 C722 1.379 . S
C727 N725 1.356 . S
N728 C720 1.356 1_545 S
N728 H734 0.984 . S
N728 H735 0.984 . S
N729 C722 1.356 . S
N729 H732 0.984 . S
N729 H733 0.985 . S
H730 N725 0.984 . S
H731 N725 0.985 . S
H732 N729 0.984 . S
H733 N729 0.985 . S
H734 N728 0.984 . S
H735 N728 0.984 . S
H736 N724 0.984 1_455 S
H737 N724 0.985 1_455 S
C738 C739 1.363 . S
C738 C744 1.379 . S
C738 N746 1.356 . S
C739 C738 1.363 . S
C739 C745 1.363 . S
C740 C741 1.363 . S
C740 C745 1.379 . S
C740 N747 1.356 . S
C741 C740 1.363 . S
C741 C744 1.363 . S
N742 C744 1.356 . S
N742 H754 0.984 . S
N742 H755 0.985 . S
N743 C745 1.356 . S
N743 H748 0.984 . S
N743 H749 0.985 . S
C744 C738 1.379 . S
C744 C741 1.363 . S
C744 N742 1.356 . S
C745 C739 1.363 . S
C745 C740 1.379 . S
C745 N743 1.356 . S
N746 C738 1.356 . S
N746 H752 0.984 . S
N746 H753 0.984 . S
N747 C740 1.356 . S
N747 H750 0.984 . S
N747 H751 0.985 . S
H748 N743 0.984 . S
H749 N743 0.985 . S
H750 N747 0.984 . S
H751 N747 0.985 . S
H752 N746 0.984 . S
H753 N746 0.984 . S
H754 N742 0.984 . S
H755 N742 0.985 . S
C756 C757 1.363 . S
C756 C762 1.379 . S
C756 N764 1.356 . S
C757 C756 1.363 . S
C757 C763 1.363 . S
C758 C759 1.363 . S
C758 C763 1.379 . S
C758 N765 1.356 . S
C759 C758 1.363 . S
C759 C762 1.363 . S
N760 C762 1.356 . S
N760 H772 0.984 . S
N760 H773 0.985 . S
N761 C763 1.356 . S
N761 H766 0.984 . S
N761 H767 0.985 . S
C762 C756 1.379 . S
C762 C759 1.363 . S
C762 N760 1.356 . S
C763 C757 1.363 . S
C763 C758 1.379 . S
C763 N761 1.356 . S
N764 C756 1.356 . S
N764 H770 0.984 . S
N764 H771 0.984 . S
N765 C758 1.356 . S
N765 H768 0.984 . S
N765 H769 0.985 . S
H766 N761 0.984 . S
H767 N761 0.985 . S
H768 N765 0.984 . S
H769 N765 0.985 . S
H770 N764 0.984 . S
H771 N764 0.984 . S
H772 N760 0.984 . S
H773 N760 0.985 . S
C774 C775 1.363 . S
C774 C780 1.379 . S
C774 N782 1.356 . S
C775 C774 1.363 . S
C775 C781 1.363 . S
C776 C777 1.363 . S
C776 C781 1.379 . S
C776 N783 1.356 . S
C777 C776 1.363 . S
C777 C780 1.363 . S
N778 C780 1.356 . S
N778 H790 0.984 1_455 S
N778 H791 0.985 . S
N779 C781 1.356 . S
N779 H784 0.984 1_565 S
N779 H785 0.985 . S
C780 C774 1.379 . S
C780 C777 1.363 . S
C780 N778 1.356 . S
C781 C775 1.363 . S
C781 C776 1.379 . S
C781 N779 1.356 . S
N782 C774 1.356 . S
N782 H788 0.984 . S
N782 H789 0.984 . S
N783 C776 1.356 . S
N783 H786 0.984 . S
N783 H787 0.985 . S
H784 N779 0.984 1_545 S
H785 N779 0.985 . S
H786 N783 0.984 . S
H787 N783 0.985 . S
H788 N782 0.984 . S
H789 N782 0.984 . S
H790 N778 0.984 1_655 S
H791 N778 0.985 . S
C792 C793 1.363 . S
C792 C798 1.379 . S
C792 N800 1.356 . S
C793 C792 1.363 . S
C793 C799 1.363 . S
C794 C795 1.363 . S
C794 C799 1.379 . S
C794 N801 1.356 . S
C795 C794 1.363 . S
C795 C798 1.363 . S
N796 C798 1.356 . S
N796 H808 0.984 . S
N796 H809 0.985 . S
N797 C799 1.356 . S
N797 H802 0.984 . S
N797 H803 0.985 . S
C798 C792 1.379 . S
C798 C795 1.363 . S
C798 N796 1.356 . S
C799 C793 1.363 . S
C799 C794 1.379 . S
C799 N797 1.356 . S
N800 C792 1.356 . S
N800 H806 0.984 . S
N800 H807 0.984 . S
N801 C794 1.356 . S
N801 H804 0.984 . S
N801 H805 0.985 . S
H802 N797 0.984 . S
H803 N797 0.985 . S
H804 N801 0.984 . S
H805 N801 0.985 . S
H806 N800 0.984 . S
H807 N800 0.984 . S
H808 N796 0.984 . S
H809 N796 0.985 . S
C810 C811 1.363 . S
C810 C816 1.379 . S
C810 N818 1.356 . S
C811 C810 1.363 . S
C811 C817 1.363 . S
C812 C813 1.363 . S
C812 C817 1.379 . S
C812 N819 1.356 . S
C813 C812 1.363 . S
C813 C816 1.363 . S
N814 C816 1.356 . S
N814 H826 0.984 . S
N814 H827 0.985 . S
N815 C817 1.356 . S
N815 H820 0.984 . S
N815 H821 0.985 . S
C816 C810 1.379 . S
C816 C813 1.363 . S
C816 N814 1.356 . S
C817 C811 1.363 . S
C817 C812 1.379 . S
C817 N815 1.356 . S
N818 C810 1.356 . S
N818 H824 0.984 . S
N818 H825 0.984 . S
N819 C812 1.356 . S
N819 H822 0.984 . S
N819 H823 0.985 . S
H820 N815 0.984 . S
H821 N815 0.985 . S
H822 N819 0.984 . S
H823 N819 0.985 . S
H824 N818 0.984 . S
H825 N818 0.984 . S
H826 N814 0.984 . S
H827 N814 0.985 . S
C828 C829 1.363 . S
C828 C834 1.379 . S
C828 N836 1.356 . S
C829 C828 1.363 . S
C829 C835 1.363 . S
C830 C831 1.363 . S
C830 C835 1.379 . S
C830 N837 1.356 . S
C831 C830 1.363 . S
C831 C834 1.363 . S
N832 C834 1.356 . S
N832 H844 0.984 . S
N832 H845 0.985 . S
N833 C835 1.356 . S
N833 H838 0.984 . S
N833 H839 0.985 . S
C834 C828 1.379 . S
C834 C831 1.363 . S
C834 N832 1.356 . S
C835 C829 1.363 . S
C835 C830 1.379 . S
C835 N833 1.356 . S
N836 C828 1.356 . S
N836 H842 0.984 . S
N836 H843 0.984 . S
N837 C830 1.356 . S
N837 H840 0.984 . S
N837 H841 0.985 . S
H838 N833 0.984 . S
H839 N833 0.985 . S
H840 N837 0.984 . S
H841 N837 0.985 . S
H842 N836 0.984 . S
H843 N836 0.984 . S
H844 N832 0.984 . S
H845 N832 0.985 . S
C846 C847 1.363 . S
C846 C852 1.379 . S
C846 N854 1.356 . S
C847 C846 1.363 . S
C847 C853 1.363 . S
C848 C849 1.363 . S
C848 C853 1.379 . S
C848 N855 1.356 . S
C849 C848 1.363 . S
C849 C852 1.363 . S
N850 C852 1.356 . S
N850 H862 0.984 1_655 S
N850 H863 0.985 . S
N851 C853 1.356 . S
N851 H856 0.984 . S
N851 H857 0.985 . S
C852 C846 1.379 . S
C852 C849 1.363 . S
C852 N850 1.356 . S
C853 C847 1.363 . S
C853 C848 1.379 . S
C853 N851 1.356 . S
N854 C846 1.356 . S
N854 H860 0.984 . S
N854 H861 0.984 . S
N855 C848 1.356 . S
N855 H858 0.984 . S
N855 H859 0.985 . S
H856 N851 0.984 . S
H857 N851 0.985 . S
H858 N855 0.984 . S
H859 N855 0.985 . S
H860 N854 0.984 . S
H861 N854 0.984 . S
H862 N850 0.984 1_455 S
H863 N850 0.985 . S
C864 C865 1.363 . S
C864 C870 1.379 . S
C864 N872 1.356 . S
C865 C864 1.363 . S
C865 C871 1.363 . S
C866 C867 1.363 . S
C866 C871 1.379 . S
C866 N873 1.356 . S
C867 C866 1.363 . S
C867 C870 1.363 . S
N868 C870 1.356 . S
N868 H880 0.984 . S
N868 H881 0.985 . S
N869 C871 1.356 . S
N869 H874 0.984 . S
N869 H875 0.985 . S
C870 C864 1.379 . S
C870 C867 1.363 . S
C870 N868 1.356 . S
C871 C865 1.363 . S
C871 C866 1.379 . S
C871 N869 1.356 . S
N872 C864 1.356 . S
N872 H878 0.984 . S
N872 H879 1.015 . S
N873 C866 1.356 . S
N873 H876 0.984 . S
N873 H877 0.985 . S
H874 N869 0.984 . S
H875 N869 0.985 . S
H876 N873 0.984 . S
H877 N873 0.985 . S
H878 N872 0.984 . S
H879 N872 1.015 . S
H880 N868 0.984 . S
H881 N868 0.985 . S
C882 C883 1.363 . S
C882 C888 1.379 . S
C882 N890 1.356 . S
C883 C882 1.363 . S
C883 C889 1.363 . S
C884 C885 1.363 . S
C884 C889 1.379 . S
C884 N891 1.356 . S
C885 C884 1.363 . S
C885 C888 1.363 . S
N886 C888 1.356 . S
N886 H898 0.984 . S
N886 H899 0.985 . S
N887 C889 1.356 . S
N887 H892 0.984 . S
N887 H893 0.985 . S
C888 C882 1.379 . S
C888 C885 1.363 . S
C888 N886 1.356 . S
C889 C883 1.363 . S
C889 C884 1.379 . S
C889 N887 1.356 . S
N890 C882 1.356 . S
N890 H896 0.984 . S
N890 H897 0.984 . S
N891 C884 1.356 . S
N891 H894 0.984 . S
N891 H895 0.985 . S
H892 N887 0.984 . S
H893 N887 0.985 . S
H894 N891 0.984 . S
H895 N891 0.985 . S
H896 N890 0.984 . S
H897 N890 0.984 . S
H898 N886 0.984 . S
H899 N886 0.985 . S
C900 C901 1.363 . S
C900 C906 1.379 . S
C900 N908 1.356 . S
C901 C900 1.363 . S
C901 C907 1.363 . S
C902 C903 1.363 . S
C902 C907 1.379 . S
C902 N909 1.356 . S
C903 C902 1.363 . S
C903 C906 1.363 . S
N904 C906 1.356 . S
N904 H916 0.984 . S
N904 H917 0.985 . S
N905 C907 1.356 . S
N905 H910 0.984 1_554 S
N905 H911 0.985 . S
C906 C900 1.379 . S
C906 C903 1.363 . S
C906 N904 1.356 . S
C907 C901 1.363 . S
C907 C902 1.379 . S
C907 N905 1.356 . S
N908 C900 1.356 . S
N908 H914 0.984 . S
N908 H915 0.984 . S
N909 C902 1.356 . S
N909 H912 0.984 . S
N909 H913 0.985 . S
H910 N905 0.984 1_556 S
H911 N905 0.985 . S
H912 N909 0.984 . S
H913 N909 0.985 . S
H914 N908 0.984 . S
H915 N908 0.984 . S
H916 N904 0.984 . S
H917 N904 0.985 . S
C918 C919 1.363 . S
C918 C924 1.379 . S
C918 N926 1.356 . S
C919 C918 1.363 . S
C919 C925 1.363 . S
C920 C921 1.363 . S
C920 C925 1.379 . S
C920 N927 1.356 . S
C921 C920 1.363 . S
C921 C924 1.363 . S
N922 C924 1.356 . S
N922 H934 0.984 . S
N922 H935 0.985 . S
N923 C925 1.356 . S
N923 H928 0.984 . S
N923 H929 0.985 . S
C924 C918 1.379 . S
C924 C921 1.363 . S
C924 N922 1.356 . S
C925 C919 1.363 . S
C925 C920 1.379 . S
C925 N923 1.356 . S
N926 C918 1.356 . S
N926 H932 0.984 . S
N926 H933 0.984 . S
N927 C920 1.356 . S
N927 H930 0.984 . S
N927 H931 0.985 . S
H928 N923 0.984 . S
H929 N923 0.985 . S
H930 N927 0.984 . S
H931 N927 0.985 . S
H932 N926 0.984 . S
H933 N926 0.984 . S
H934 N922 0.984 . S
H935 N922 0.985 . S
C936 C937 1.363 . S
C936 C942 1.379 . S
C936 N944 1.356 . S
C937 C936 1.363 . S
C937 C943 1.363 . S
C938 C939 1.363 . S
C938 C943 1.379 . S
C938 N945 1.356 . S
C939 C938 1.363 . S
C939 C942 1.363 . S
N940 C942 1.356 . S
N940 H952 0.984 . S
N940 H953 0.985 . S
N941 C943 1.356 . S
N941 H946 0.984 . S
N941 H947 0.985 . S
C942 C936 1.379 . S
C942 C939 1.363 . S
C942 N940 1.356 . S
C943 C937 1.363 . S
C943 C938 1.379 . S
C943 N941 1.356 . S
N944 C936 1.356 . S
N944 H950 0.984 . S
N944 H951 0.984 . S
N945 C938 1.356 . S
N945 H948 0.984 . S
N945 H949 0.985 . S
H946 N941 0.984 . S
H947 N941 0.985 . S
H948 N945 0.984 . S
H949 N945 0.985 . S
H950 N944 0.984 . S
H951 N944 0.984 . S
H952 N940 0.984 . S
H953 N940 0.985 . S
C954 C955 1.363 . S
C954 C960 1.379 . S
C954 N962 1.356 . S
C955 C954 1.363 . S
C955 C961 1.363 . S
C956 C957 1.363 . S
C956 C961 1.379 . S
C956 N963 1.356 . S
C957 C956 1.363 . S
C957 C960 1.363 . S
N958 C960 1.356 . S
N958 H970 0.984 . S
N958 H971 0.985 . S
N959 C961 1.356 . S
N959 H964 0.984 . S
N959 H965 0.985 . S
C960 C954 1.379 . S
C960 C957 1.363 . S
C960 N958 1.356 . S
C961 C955 1.363 . S
C961 C956 1.379 . S
C961 N959 1.356 . S
N962 C954 1.356 . S
N962 H968 0.984 . S
N962 H969 0.984 . S
N963 C956 1.356 . S
N963 H966 0.984 . S
N963 H967 0.985 . S
H964 N959 0.984 . S
H965 N959 0.985 . S
H966 N963 0.984 . S
H967 N963 0.985 . S
H968 N962 0.984 . S
H969 N962 0.984 . S
H970 N958 0.984 . S
H971 N958 0.985 . S
C972 C973 1.363 . S
C972 C978 1.379 . S
C972 N980 1.356 . S
C973 C972 1.363 . S
C973 C979 1.363 . S
C974 C975 1.363 . S
C974 C979 1.379 . S
C974 N981 1.356 . S
C975 C974 1.363 . S
C975 C978 1.363 . S
N976 C978 1.356 . S
N976 H988 0.984 . S
N976 H989 0.985 . S
N977 C979 1.356 . S
N977 H982 0.984 . S
N977 H983 0.985 . S
C978 C972 1.379 . S
C978 C975 1.363 . S
C978 N976 1.356 . S
C979 C973 1.363 . S
C979 C974 1.379 . S
C979 N977 1.356 . S
N980 C972 1.356 . S
N980 H986 0.984 . S
N980 H987 0.984 . S
N981 C974 1.356 . S
N981 H984 0.984 . S
N981 H985 0.985 . S
H982 N977 0.984 . S
H983 N977 0.985 . S
H984 N981 0.984 . S
H985 N981 0.985 . S
H986 N980 0.984 . S
H987 N980 0.984 . S
H988 N976 0.984 . S
H989 N976 0.985 . S
C990 C991 1.363 . S
C990 C996 1.379 . S
C990 N998 1.356 . S
C991 C990 1.363 . S
C991 C997 1.363 . S
C992 C993 1.363 . S
C992 C997 1.379 . S
C992 N999 1.356 . S
C993 C992 1.363 . S
C993 C996 1.363 . S
N994 C996 1.356 . S
N994 H1006 0.984 . S
N994 H1007 0.985 . S
N995 C997 1.356 . S
N995 H1000 0.984 . S
N995 H1001 0.985 . S
C996 C990 1.379 . S
C996 C993 1.363 . S
C996 N994 1.356 . S
C997 C991 1.363 . S
C997 C992 1.379 . S
C997 N995 1.356 . S
N998 C990 1.356 . S
N998 H1004 0.984 . S
N998 H1005 0.984 . S
N999 C992 1.356 . S
N999 H1002 0.984 . S
N999 H1003 0.985 . S
H1000 N995 0.984 . S
H1001 N995 0.985 . S
H1002 N999 0.984 . S
H1003 N999 0.985 . S
H1004 N998 0.984 . S
H1005 N998 0.984 . S
H1006 N994 0.984 . S
H1007 N994 0.985 . S
C1008 C1009 1.363 . S
C1008 C1014 1.379 . S
C1008 N1016 1.356 . S
C1009 C1008 1.363 . S
C1009 C1015 1.363 . S
C1010 C1011 1.363 . S
C1010 C1015 1.379 . S
C1010 N1017 1.356 . S
C1011 C1010 1.363 . S
C1011 C1014 1.363 . S
N1012 C1014 1.356 . S
N1012 H1024 0.984 . S
N1012 H1025 0.985 . S
N1013 C1015 1.356 . S
N1013 H1018 0.984 . S
N1013 H1019 0.985 . S
C1014 C1008 1.379 . S
C1014 C1011 1.363 . S
C1014 N1012 1.356 . S
C1015 C1009 1.363 . S
C1015 C1010 1.379 . S
C1015 N1013 1.356 . S
N1016 C1008 1.356 . S
N1016 H1022 0.984 . S
N1016 H1023 0.984 . S
N1017 C1010 1.356 . S
N1017 H1020 0.984 . S
N1017 H1021 0.985 . S
H1018 N1013 0.984 . S
H1019 N1013 0.985 . S
H1020 N1017 0.984 . S
H1021 N1017 0.985 . S
H1022 N1016 0.984 . S
H1023 N1016 0.984 . S
H1024 N1012 0.984 . S
H1025 N1012 0.985 . S
C1026 C1027 1.363 . S
C1026 C1032 1.379 . S
C1026 N1034 1.356 . S
C1027 C1026 1.363 . S
C1027 C1033 1.363 . S
C1028 C1029 1.363 . S
C1028 C1033 1.379 . S
C1028 N1035 1.356 . S
C1029 C1028 1.363 . S
C1029 C1032 1.363 . S
N1030 C1032 1.356 . S
N1030 H1042 0.984 . S
N1030 H1043 0.985 . S
N1031 C1033 1.356 . S
N1031 H1036 0.984 . S
N1031 H1037 0.985 . S
C1032 C1026 1.379 . S
C1032 C1029 1.363 . S
C1032 N1030 1.356 . S
C1033 C1027 1.363 . S
C1033 C1028 1.379 . S
C1033 N1031 1.356 . S
N1034 C1026 1.356 . S
N1034 H1040 0.984 . S
N1034 H1041 0.984 . S
N1035 C1028 1.356 . S
N1035 H1038 0.984 . S
N1035 H1039 0.985 . S
H1036 N1031 0.984 . S
H1037 N1031 0.985 . S
H1038 N1035 0.984 . S
H1039 N1035 0.985 . S
H1040 N1034 0.984 . S
H1041 N1034 0.984 . S
H1042 N1030 0.984 . S
H1043 N1030 0.985 . S
C1044 C1045 1.363 . S
C1044 C1050 1.379 . S
C1044 N1052 1.356 . S
C1045 C1044 1.363 . S
C1045 C1051 1.363 . S
C1046 C1047 1.363 . S
C1046 C1051 1.379 . S
C1046 N1053 1.356 . S
C1047 C1046 1.363 . S
C1047 C1050 1.363 . S
N1048 C1050 1.356 . S
N1048 H1060 0.984 . S
N1048 H1061 0.985 . S
N1049 C1051 1.356 . S
N1049 H1054 0.984 . S
N1049 H1055 0.985 . S
C1050 C1044 1.379 . S
C1050 C1047 1.363 . S
C1050 N1048 1.356 . S
C1051 C1045 1.363 . S
C1051 C1046 1.379 . S
C1051 N1049 1.356 . S
N1052 C1044 1.356 . S
N1052 H1058 0.984 . S
N1052 H1059 0.984 . S
N1053 C1046 1.356 . S
N1053 H1056 0.984 . S
N1053 H1057 0.985 . S
H1054 N1049 0.984 . S
H1055 N1049 0.985 . S
H1056 N1053 0.984 . S
H1057 N1053 0.985 . S
H1058 N1052 0.984 . S
H1059 N1052 0.984 . S
H1060 N1048 0.984 . S
H1061 N1048 0.985 . S
C1062 C1063 1.363 . S
C1062 C1068 1.379 . S
C1062 N1070 1.356 . S
C1063 C1062 1.363 . S
C1063 C1069 1.363 . S
C1064 C1065 1.363 . S
C1064 C1069 1.379 . S
C1064 N1071 1.370 . S
C1065 C1064 1.363 . S
C1065 C1068 1.363 . S
N1066 C1068 1.356 . S
N1066 H1078 0.984 . S
N1066 H1079 0.985 . S
N1067 C1069 1.356 . S
N1067 H1072 0.984 . S
N1067 H1073 0.985 . S
C1068 C1062 1.379 . S
C1068 C1065 1.363 . S
C1068 N1066 1.356 . S
C1069 C1063 1.363 . S
C1069 C1064 1.379 . S
C1069 N1067 1.356 . S
N1070 C1062 1.356 . S
N1070 H1076 0.984 . S
N1070 H1077 0.984 . S
N1071 C1064 1.370 . S
N1071 H1074 0.984 1_455 S
N1071 H1075 0.972 1_455 S
H1072 N1067 0.984 . S
H1073 N1067 0.985 . S
H1074 N1071 0.984 1_655 S
H1075 N1071 0.972 1_655 S
H1076 N1070 0.984 . S
H1077 N1070 0.984 . S
H1078 N1066 0.984 . S
H1079 N1066 0.985 . S
C649 C235 1.486 1_545 S
C651 C368 1.475 . S
C669 C452 1.474 . S
C667 C289 1.484 . S
C687 C451 1.483 . S
C685 C157 1.481 . S
C703 C211 1.481 1_545 S
C705 C367 1.482 . S
C723 C548 1.474 . S
C721 C79 1.487 1_565 S
C741 C632 1.478 . S
C739 C118 1.491 . S
C757 C1 1.483 . S
C759 C631 1.482 . S
C775 C40 1.487 1_565 S
C777 C547 1.486 . S
C795 C370 1.315 . S
C793 C55 1.519 . S
C813 C454 1.316 . S
C811 C16 1.518 . S
C831 C466 1.398 . S
C829 C133 1.535 . S
C849 C382 1.398 . S
C847 C94 1.535 . S
C867 C550 1.319 . S
C865 C196 1.526 . S
C883 C172 1.523 . S
C885 C634 1.318 . S
C903 C622 1.401 . S
C901 C274 1.542 . S
C919 C250 1.540 . S
C921 C538 1.401 . S
C939 C379 1.578 . S
C937 C21 1.573 . S
C957 C463 1.582 . S
C955 C60 1.577 . S
C973 C99 1.559 . S
C975 C464 1.560 . S
C993 C380 1.564 . S
C991 C138 1.563 . S
C1011 C535 1.585 . S
C1009 C177 1.572 . S
C1027 C216 1.574 . S
C1029 C619 1.585 . S
C1045 C255 1.560 . S
C1047 C620 1.567 . S
C1063 C294 1.560 . S
C1065 C536 1.567 . S
