# Generated by pormake.
# Topology zzz, (3,6)-cn, num edge types: 1
# Building blocks:
#     Node 0, Type 0, BuildingBlock: MIDCAF_clean_linker_0, # of connection points: 3
#     Node 1, Type 0, BuildingBlock: MIDCAF_clean_linker_0, # of connection points: 3
#     Node 2, Type 0, BuildingBlock: MIDCAF_clean_linker_0, # of connection points: 3
#     Node 3, Type 0, BuildingBlock: MIDCAF_clean_linker_0, # of connection points: 3
#     Node 4, Type 0, BuildingBlock: MIDCAF_clean_linker_0, # of connection points: 3
#     Node 5, Type 0, BuildingBlock: MIDCAF_clean_linker_0, # of connection points: 3
#     Node 6, Type 0, BuildingBlock: MIDCAF_clean_linker_0, # of connection points: 3
#     Node 7, Type 0, BuildingBlock: MIDCAF_clean_linker_0, # of connection points: 3
#     Node 8, Type 1, BuildingBlock: BETGAK_clean_sbu_0, # of connection points: 6
#     Node 9, Type 1, BuildingBlock: BETGAK_clean_sbu_0, # of connection points: 6
#     Node 10, Type 1, BuildingBlock: BETGAK_clean_sbu_0, # of connection points: 6
#     Node 11, Type 1, BuildingBlock: BETGAK_clean_sbu_0, # of connection points: 6
#     Edge 12, Type (0, 1), BuildingBlock: XUDNAN_clean_linker_2, # of connection points: 2
#     Edge 13, Type (0, 1), BuildingBlock: XUDNAN_clean_linker_2, # of connection points: 2
#     Edge 14, Type (0, 1), BuildingBlock: XUDNAN_clean_linker_2, # of connection points: 2
#     Edge 15, Type (0, 1), BuildingBlock: XUDNAN_clean_linker_2, # of connection points: 2
#     Edge 16, Type (0, 1), BuildingBlock: XUDNAN_clean_linker_2, # of connection points: 2
#     Edge 17, Type (0, 1), BuildingBlock: XUDNAN_clean_linker_2, # of connection points: 2
#     Edge 18, Type (0, 1), BuildingBlock: XUDNAN_clean_linker_2, # of connection points: 2
#     Edge 19, Type (0, 1), BuildingBlock: XUDNAN_clean_linker_2, # of connection points: 2
#     Edge 20, Type (0, 1), BuildingBlock: XUDNAN_clean_linker_2, # of connection points: 2
#     Edge 21, Type (0, 1), BuildingBlock: XUDNAN_clean_linker_2, # of connection points: 2
#     Edge 22, Type (0, 1), BuildingBlock: XUDNAN_clean_linker_2, # of connection points: 2
#     Edge 23, Type (0, 1), BuildingBlock: XUDNAN_clean_linker_2, # of connection points: 2
#     Edge 24, Type (0, 1), BuildingBlock: XUDNAN_clean_linker_2, # of connection points: 2
#     Edge 25, Type (0, 1), BuildingBlock: XUDNAN_clean_linker_2, # of connection points: 2
#     Edge 26, Type (0, 1), BuildingBlock: XUDNAN_clean_linker_2, # of connection points: 2
#     Edge 27, Type (0, 1), BuildingBlock: XUDNAN_clean_linker_2, # of connection points: 2
#     Edge 28, Type (0, 1), BuildingBlock: XUDNAN_clean_linker_2, # of connection points: 2
#     Edge 29, Type (0, 1), BuildingBlock: XUDNAN_clean_linker_2, # of connection points: 2
#     Edge 30, Type (0, 1), BuildingBlock: XUDNAN_clean_linker_2, # of connection points: 2
#     Edge 31, Type (0, 1), BuildingBlock: XUDNAN_clean_linker_2, # of connection points: 2
#     Edge 32, Type (0, 1), BuildingBlock: XUDNAN_clean_linker_2, # of connection points: 2
#     Edge 33, Type (0, 1), BuildingBlock: XUDNAN_clean_linker_2, # of connection points: 2
#     Edge 34, Type (0, 1), BuildingBlock: XUDNAN_clean_linker_2, # of connection points: 2
#     Edge 35, Type (0, 1), BuildingBlock: XUDNAN_clean_linker_2, # of connection points: 2
# Relax obj value: 0.456
# Max RMSD: 0.270
# Mean RMSD: 0.254
data_MOF--net-zzz--node1-BETGAK_clean_sbu_0--node2-MIDCAF_clean_linker_0--edge1-XUDNAN_clean_linker_2
_symmetry_space_group_name_H-M    P1
_symmetry_Int_Tables_number       1
_symmetry_cell_setting            triclinic
loop_
_symmetry_equiv_pos_as_xyz
'x, y, z'
_cell_length_a     59.535398
_cell_length_b     59.630855
_cell_length_c     18.457052
_cell_angle_alpha  89.841059
_cell_angle_beta   90.147313
_cell_angle_gamma 90.06454
loop_
_atom_site_label
_atom_site_type_symbol
_atom_site_fract_x
_atom_site_fract_y
_atom_site_fract_z
_atom_type_partial_charge
C0 C 0.79767 0.5245 0.37336 0.0
C1 C 0.79967 0.51413 0.44185 0.0
C2 C 0.78242 0.4994 0.4638 0.0
C3 C 0.7644 0.49437 0.41761 0.0
H4 H 0.70302 0.53372 0.18456 0.0
H5 H 0.66878 0.54509 0.12036 0.0
H6 H 0.64375 0.47713 0.13532 0.0
H7 H 0.67824 0.46585 0.19554 0.0
H8 H 0.73088 0.44369 0.08618 0.0
H9 H 0.75269 0.41688 0.01564 0.0
H10 H 0.7987 0.40904 0.19525 0.0
H11 H 0.77696 0.43549 0.26564 0.0
H12 H 0.7792 0.52657 0.27305 0.0
H13 H 0.81043 0.53607 0.35459 0.0
H14 H 0.78341 0.49067 0.51522 0.0
H15 H 0.75229 0.48182 0.43436 0.0
N16 N 0.72828 0.5021 0.27091 0.0
N17 N 0.72314 0.47087 0.1945 0.0
N18 N 0.75542 0.47345 0.26608 0.0
C19 C 0.71547 0.4906 0.22154 0.0
C20 C 0.74307 0.46222 0.21631 0.0
C21 C 0.74833 0.49324 0.29361 0.0
C22 C 0.69338 0.49889 0.19484 0.0
C23 C 0.68998 0.52139 0.17503 0.0
C24 C 0.67028 0.52784 0.13808 0.0
C25 C 0.6534 0.51199 0.12105 0.0
C26 C 0.65648 0.48976 0.14488 0.0
C27 C 0.67622 0.4833 0.18043 0.0
C28 C 0.75256 0.44216 0.1808 0.0
C29 C 0.74522 0.43567 0.11146 0.0
C30 C 0.75769 0.42031 0.07099 0.0
C31 C 0.77755 0.41106 0.09948 0.0
C32 C 0.78341 0.41571 0.17172 0.0
C33 C 0.77108 0.43114 0.21187 0.0
C34 C 0.76291 0.50405 0.34842 0.0
C35 C 0.77953 0.51945 0.3271 0.0
C36 C 0.98495 0.82219 0.37788 0.0
C37 C 0.99595 0.82335 0.44558 0.0
C38 C 0.01001 0.80534 0.46567 0.0
C39 C 0.01368 0.7873 0.41868 0.0
H40 H 0.97445 0.72823 0.14914 0.0
H41 H 0.96515 0.69217 0.09144 0.0
H42 H 0.02363 0.66234 0.19141 0.0
H43 H 0.03269 0.69808 0.24806 0.0
H44 H 0.05958 0.75033 0.08389 0.0
H45 H 0.08847 0.76926 0.01244 0.0
H46 H 0.10026 0.81513 0.18931 0.0
H47 H 0.07176 0.79626 0.26047 0.0
H48 H 0.98105 0.80426 0.27742 0.0
H49 H 0.97387 0.83554 0.36049 0.0
H50 H 0.01921 0.80566 0.51632 0.0
H51 H 0.0257 0.7745 0.43408 0.0
N52 N 1.00269 0.75152 0.27537 0.0
N53 N 0.03268 0.74459 0.1952 0.0
N54 N 0.03235 0.77743 0.26389 0.0
C55 C 0.01295 0.73803 0.22539 0.0
C56 C 0.04245 0.76424 0.21402 0.0
C57 C 0.0126 0.77138 0.29462 0.0
C58 C 1.004 0.71577 0.20437 0.0
C59 C 0.9848 0.7137 0.16042 0.0
C60 C 0.97971 0.69316 0.12657 0.0
C61 C 0.99363 0.67426 0.13665 0.0
C62 C 0.0123 0.67632 0.18307 0.0
C63 C 0.0175 0.6968 0.21587 0.0
C64 C 0.063 0.77219 0.17711 0.0
C65 C 0.06884 0.76402 0.10828 0.0
C66 C 0.0854 0.77482 0.06736 0.0
C67 C 0.09651 0.7938 0.09489 0.0
C68 C 0.09221 0.80045 0.16654 0.0
C69 C 0.07559 0.78981 0.20709 0.0
C70 C 1.0033 0.78655 0.35043 0.0
C71 C 0.98867 0.80403 0.33077 0.0
C72 C 0.68307 1.00655 0.33749 0.0
C73 C 0.68802 1.00578 0.41195 0.0
C74 C 0.71084 1.00527 0.43315 0.0
C75 C 0.72814 1.00657 0.38128 0.0
H76 H 0.79266 0.97578 0.1485 0.0
H77 H 0.83083 0.96943 0.10375 0.0
H78 H 0.85223 0.03154 0.20199 0.0
H79 H 0.81403 0.03778 0.24607 0.0
H80 H 0.769 0.06822 0.07254 0.0
H81 H 0.75292 0.09196 0.97591 0.0
H82 H 0.69319 0.0508 0.97548 0.0
H83 H 0.70877 0.02779 0.07217 0.0
H84 H 0.69549 0.00921 0.2296 0.0
H85 H 0.66588 1.00728 0.31846 0.0
H86 H 0.71536 1.00436 0.48994 0.0
H87 H 0.74545 1.00712 0.39938 0.0
N88 N 0.76225 1.00804 0.257 0.0
N89 N 0.7699 0.02735 0.14785 0.0
N90 N 0.73344 0.02671 0.19388 0.0
C91 C 0.77708 0.01458 0.20432 0.0
C92 C 0.7481 0.03337 0.14232 0.0
C93 C 0.74018 0.01432 0.25171 0.0
C94 C 0.8006 1.00696 0.20235 0.0
C95 C 0.80582 0.98748 0.16336 0.0
C96 C 0.82757 0.98407 0.13669 0.0
C97 C 0.84455 1.00008 0.14863 0.0
C98 C 0.83965 0.01875 0.19235 0.0
C99 C 0.81782 0.02226 0.21826 0.0
C100 C 0.73997 0.04636 0.07979 0.0
C101 C 0.75259 0.06418 0.05069 0.0
C102 C 0.74348 0.07767 0.99569 0.0
C103 C 0.72203 0.07295 0.96785 0.0
C104 C 0.70996 0.05454 0.99512 0.0
C105 C 0.71874 0.04152 0.0509 0.0
C106 C 0.72294 1.00857 0.30722 0.0
C107 C 0.7002 1.00787 0.28619 0.0
C108 C 0.5362 0.73092 0.9839 0.0
C109 C 0.52589 0.74235 0.92579 0.0
C110 C 0.52184 0.76548 0.93275 0.0
C111 C 0.5252 0.77615 0.99935 0.0
H112 H 0.48 0.82061 0.17052 0.0
H113 H 0.4757 0.85942 0.12911 0.0
H114 H 0.54122 0.87538 0.2143 0.0
H115 H 0.5457 0.83629 0.25472 0.0
H116 H 0.50821 0.7213 0.22804 0.0
H117 H 0.50318 0.6905 0.31119 0.0
H118 H 0.51559 0.73479 0.4917 0.0
H119 H 0.52028 0.76641 0.40672 0.0
H120 H 0.54584 0.73171 0.09519 0.0
H121 H 0.53957 0.71311 0.98143 0.0
H122 H 0.51436 0.77489 0.88861 0.0
H123 H 0.52003 0.79347 1.00486 0.0
N124 N 0.52526 0.79434 0.14588 0.0
N125 N 0.51581 0.78666 0.26769 0.0
N126 N 0.5265 0.75765 0.18906 0.0
C127 C 0.51889 0.80169 0.21223 0.0
C128 C 0.51976 0.76433 0.25575 0.0
C129 C 0.52933 0.77238 0.13404 0.0
C130 C 0.51292 0.82561 0.21758 0.0
C131 C 0.49293 0.83271 0.1841 0.0
C132 C 0.49057 0.85482 0.15969 0.0
C133 C 0.5081 0.87031 0.16883 0.0
C134 C 0.52736 0.86378 0.20763 0.0
C135 C 0.52982 0.84152 0.23144 0.0
C136 C 0.51501 0.74644 0.31039 0.0
C137 C 0.50997 0.72469 0.28541 0.0
C138 C 0.5072 0.70682 0.33335 0.0
C139 C 0.5095 0.70987 0.40837 0.0
C140 C 0.51375 0.73177 0.43418 0.0
C141 C 0.51643 0.74991 0.38561 0.0
C142 C 0.53267 0.76381 0.05982 0.0
C143 C 0.53959 0.74156 0.05003 0.0
C144 C 0.21058 0.51854 0.97608 0.0
C145 C 0.19379 0.50255 0.95964 0.0
C146 C 0.19782 0.48008 0.97874 0.0
C147 C 0.21708 0.47407 0.01802 0.0
H148 H 0.3223 0.47627 0.09237 0.0
H149 H 0.36024 0.47969 0.14312 0.0
H150 H 0.33443 0.5221 0.31297 0.0
H151 H 0.29691 0.5189 0.2612 0.0
H152 H 0.27316 0.46175 0.34748 0.0
H153 H 0.25257 0.45874 0.46081 0.0
H154 H 0.19088 0.44976 0.34002 0.0
H155 H 0.21137 0.45192 0.22803 0.0
H156 H 0.24185 0.52538 0.03088 0.0
H157 H 0.20825 0.53598 0.96142 0.0
H158 H 0.18537 0.46727 0.96778 0.0
H159 H 0.2188 0.45683 0.03589 0.0
N160 N 0.27066 0.49335 0.10171 0.0
N161 N 0.27519 0.47629 0.21621 0.0
N162 N 0.24149 0.47197 0.15342 0.0
C163 C 0.28373 0.48874 0.16126 0.0
C164 C 0.25419 0.46776 0.21286 0.0
C165 C 0.24936 0.48459 0.09765 0.0
C166 C 0.30672 0.49766 0.17198 0.0
C167 C 0.32503 0.48726 0.13821 0.0
C168 C 0.3467 0.48889 0.16835 0.0
C169 C 0.35048 0.50086 0.23319 0.0
C170 C 0.3324 0.51288 0.26291 0.0
C171 C 0.31081 0.51118 0.23291 0.0
C172 C 0.24372 0.45813 0.27864 0.0
C173 C 0.25531 0.45828 0.3452 0.0
C174 C 0.24351 0.45659 0.41033 0.0
C175 C 0.21996 0.45487 0.40982 0.0
C176 C 0.20898 0.45123 0.34319 0.0
C177 C 0.22076 0.45275 0.27829 0.0
C178 C 0.23307 0.49026 0.03887 0.0
C179 C 0.23005 0.51245 0.01499 0.0
C180 C 0.99444 0.22544 0.03233 0.0
C181 C 1.00752 0.21392 0.98055 0.0
C182 C 0.02728 0.22433 0.95584 0.0
C183 C 0.03503 0.24416 0.98792 0.0
H184 H 1.0 0.31966 0.17668 0.0
H185 H 0.98884 0.35318 0.24479 0.0
H186 H 0.05311 0.35317 0.35371 0.0
H187 H 0.06394 0.32004 0.28813 0.0
H188 H 0.07146 0.25693 0.3185 0.0
H189 H 0.08508 0.22126 0.36131 0.0
H190 H 0.11722 0.20988 0.15445 0.0
H191 H 0.10163 0.24511 0.11008 0.0
H192 H 0.99295 0.25244 0.10931 0.0
H193 H 0.97884 0.21826 0.05164 0.0
H194 H 0.0379 0.21614 0.91643 0.0
H195 H 0.05144 0.25044 0.97255 0.0
N196 N 0.02806 0.2864 0.13294 0.0
N197 N 0.05961 0.28596 0.21056 0.0
N198 N 0.05597 0.25881 0.12077 0.0
C199 C 0.04026 0.29603 0.18807 0.0
C200 C 0.06764 0.26754 0.1767 0.0
C201 C 0.03628 0.26779 0.09843 0.0
C202 C 0.03282 0.31681 0.22686 0.0
C203 C 0.01169 0.32682 0.21525 0.0
C204 C 1.00534 0.34612 0.25424 0.0
C205 C 0.01994 0.35588 0.30579 0.0
C206 C 0.0411 0.34597 0.31621 0.0
C207 C 0.04739 0.32685 0.27773 0.0
C208 C 0.08496 0.25339 0.21049 0.0
C209 C 0.08233 0.24731 0.28333 0.0
C210 C 0.09025 0.22661 0.30786 0.0
C211 C 0.10142 0.21191 0.26018 0.0
C212 C 0.10772 0.22017 0.1916 0.0
C213 C 0.09913 0.24056 0.16638 0.0
C214 C 0.02328 0.25422 0.04546 0.0
C215 C 1.00225 0.24536 0.06451 0.0
C216 C 0.31459 0.01878 0.09888 0.0
C217 C 0.30941 0.0236 0.02619 0.0
C218 C 0.28658 0.02619 0.00684 0.0
C219 C 0.26942 0.02308 0.0584 0.0
H220 H 0.18252 0.98926 0.20952 0.0
H221 H 0.14601 0.9983 0.26055 0.0
H222 H 0.17318 0.05985 0.34758 0.0
H223 H 0.21001 0.05043 0.29613 0.0
H224 H 0.22772 0.96976 0.40212 0.0
H225 H 0.2437 0.94583 0.49676 0.0
H226 H 0.30261 0.93561 0.36432 0.0
H227 H 0.28656 0.95864 0.2702 0.0
H228 H 0.30236 0.01095 0.20456 0.0
H229 H 0.33183 0.01637 0.11606 0.0
H230 H 0.28195 0.03013 0.95149 0.0
H231 H 0.25204 0.02423 0.04136 0.0
N232 N 0.23647 0.01834 0.1871 0.0
N233 N 0.2279 0.99307 0.28183 0.0
N234 N 0.26324 0.99219 0.22783 0.0
C235 C 0.22165 0.01013 0.23731 0.0
C236 C 0.24864 0.98397 0.27731 0.0
C237 C 0.2575 0.00918 0.18246 0.0
C238 C 0.1989 0.0194 0.24738 0.0
C239 C 0.18041 1.00518 0.23685 0.0
C240 C 0.15948 0.01037 0.26655 0.0
C241 C 0.15655 0.02981 0.30864 0.0
C242 C 0.17485 0.04467 0.31597 0.0
C243 C 0.19583 0.03952 0.28548 0.0
C244 C 0.25609 0.96651 0.3292 0.0
C245 C 0.24382 0.96188 0.3926 0.0
C246 C 0.25298 0.9482 0.44691 0.0
C247 C 0.27449 0.93885 0.43861 0.0
C248 C 0.28586 0.94214 0.37265 0.0
C249 C 0.27676 0.95573 0.3187 0.0
C250 C 0.27479 0.01703 0.13002 0.0
C251 C 0.29758 0.01551 0.14978 0.0
C252 C 0.53629 0.30796 0.39386 0.0
C253 C 0.55345 0.29637 0.43051 0.0
C254 C 0.55877 0.27442 0.40963 0.0
C255 C 0.54711 0.26426 0.35247 0.0
H256 H 0.5348 0.20089 0.18018 0.0
H257 H 0.52953 0.1629 0.227 0.0
H258 H 0.45933 0.17696 0.26322 0.0
H259 H 0.46476 0.21504 0.21546 0.0
H260 H 0.51539 0.2693 0.99415 0.0
H261 H 0.51403 0.30008 0.90639 0.0
H262 H 0.47472 0.33912 0.05712 0.0
H263 H 0.47748 0.30888 0.14544 0.0
H264 H 0.51223 0.30759 0.30779 0.0
H265 H 0.53215 0.32507 0.40821 0.0
H266 H 0.5721 0.26531 0.43679 0.0
H267 H 0.55163 0.24739 0.33652 0.0
N268 N 0.51564 0.24404 0.24694 0.0
N269 N 0.49832 0.24835 0.13269 0.0
N270 N 0.51231 0.27973 0.19554 0.0
C271 C 0.50501 0.23491 0.18901 0.0
C272 C 0.50216 0.27097 0.13609 0.0
C273 C 0.51923 0.26639 0.25071 0.0
C274 C 0.50007 0.21067 0.19244 0.0
C275 C 0.51804 0.19546 0.19488 0.0
C276 C 0.51501 0.17374 0.2223 0.0
C277 C 0.49403 0.1669 0.24949 0.0
C278 C 0.47574 0.18175 0.2432 0.0
C279 C 0.47873 0.20341 0.2147 0.0
C280 C 0.49637 0.28662 0.0763 0.0
C281 C 0.50598 0.28427 0.00739 0.0
C282 C 0.50523 0.30207 0.95719 0.0
C283 C 0.49459 0.32255 0.97445 0.0
C284 C 0.48373 0.3241 0.04203 0.0
C285 C 0.4849 0.30655 0.09244 0.0
C286 C 0.53048 0.27622 0.31428 0.0
C287 C 0.52506 0.29806 0.33595 0.0
La288 La 0.019 1.00748 0.80025 0.0
La289 La 0.98963 0.02324 0.68011 0.0
C290 C 0.03848 0.98798 0.90372 0.0
C291 C 0.05509 0.9699 0.90553 0.0
C292 C 0.06579 0.96428 0.97065 0.0
C293 C 0.08115 0.9466 0.97285 0.0
C294 C 0.08596 0.93426 0.90987 0.0
C295 C 0.0757 0.94046 0.84416 0.0
C296 C 0.06044 0.95822 0.84197 0.0
C297 C 0.04068 0.0219 0.68283 0.0
C298 C 0.99858 0.97149 0.68865 0.0
C299 C 0.97951 0.04442 0.56649 0.0
C300 C 0.99439 0.05981 0.52685 0.0
C301 C 0.98956 0.06665 0.45588 0.0
C302 C 1.0054 0.07913 0.4166 0.0
C303 C 0.02638 0.08463 0.44761 0.0
C304 C 0.03098 0.07764 0.51874 0.0
C305 C 0.01511 0.0656 0.55789 0.0
C306 C 0.96682 1.00827 0.7931 0.0
C307 C 1.00625 0.05723 0.80225 0.0
O308 O 0.04556 1.00675 0.87501 0.0
O309 O 0.01848 0.98238 0.88014 0.0
O310 O 0.04813 0.024 0.74816 0.0
O311 O 0.02287 0.01078 0.68567 0.0
O312 O 1.0088 0.97547 0.75121 0.0
O313 O 0.99086 0.988 0.64751 0.0
O314 O 0.97345 0.05085 0.63126 0.0
O315 O 0.98647 0.0237 0.56685 0.0
O316 O 0.95922 1.00828 0.72693 0.0
O317 O 0.98507 0.01897 0.79418 0.0
O318 O 1.00297 0.05442 0.73171 0.0
O319 O 1.00885 0.03951 0.84431 0.0
H320 H 0.06193 0.97327 0.02001 0.0
H321 H 0.08848 0.94196 0.02452 0.0
H322 H 0.07914 0.93129 0.79485 0.0
H323 H 0.05253 0.9626 0.79094 0.0
H324 H 0.97377 0.06209 0.4306 0.0
H325 H 1.00117 0.08453 0.3622 0.0
H326 H 0.04708 0.08103 0.54393 0.0
H327 H 0.01948 0.06007 0.61173 0.0
La328 La 0.5025 0.0379 0.75941 0.0
La329 La 0.49316 1.00161 0.66493 0.0
C330 C 0.52002 0.06539 0.84626 0.0
C331 C 0.53994 0.07958 0.83732 0.0
C332 C 0.54985 0.08177 0.76871 0.0
C333 C 0.57048 0.09262 0.76112 0.0
C334 C 0.58147 0.10153 0.82201 0.0
C335 C 0.57082 0.10046 0.88996 0.0
C336 C 0.55021 0.08946 0.89757 0.0
C337 C 0.48897 0.05126 0.62864 0.0
C338 C 0.54209 0.01757 0.66217 0.0
C339 C 0.47504 0.9744 0.57898 0.0
C340 C 0.45519 0.96034 0.59129 0.0
C341 C 0.44797 0.95604 0.66241 0.0
C342 C 0.42756 0.94521 0.67489 0.0
C343 C 0.41395 0.9386 0.61644 0.0
C344 C 0.42172 0.94218 0.54523 0.0
C345 C 0.44219 0.95299 0.53282 0.0
C346 C 0.50709 0.98795 0.79467 0.0
C347 C 0.45367 0.02141 0.76334 0.0
O348 O 0.50315 0.07026 0.80382 0.0
O349 O 0.52402 0.04384 0.84774 0.0
O350 O 0.4831 0.0603 0.6891 0.0
O351 O 0.50234 0.03548 0.64256 0.0
O352 O 0.53647 0.028 0.72271 0.0
O353 O 0.52636 1.0084 0.62144 0.0
O354 O 0.4925 0.96949 0.61889 0.0
O355 O 0.47112 0.99597 0.57769 0.0
O356 O 0.51263 0.97912 0.73358 0.0
O357 O 0.4936 1.0038 0.78213 0.0
O358 O 0.45924 0.01118 0.70248 0.0
O359 O 0.46941 0.03077 0.80355 0.0
H360 H 0.54207 0.07427 0.72146 0.0
H361 H 0.5783 0.09319 0.70822 0.0
H362 H 0.57909 0.10685 0.93803 0.0
H363 H 0.54278 0.08785 0.95087 0.0
H364 H 0.45775 0.96178 0.70839 0.0
H365 H 0.4221 0.94264 0.73023 0.0
H366 H 0.41145 0.93775 0.49891 0.0
H367 H 0.44742 0.9564 0.47769 0.0
La368 La 0.48154 0.5192 0.73361 0.0
La369 La 0.51761 0.51221 0.63544 0.0
C370 C 0.45558 0.53651 0.82516 0.0
C371 C 0.45092 0.56053 0.83775 0.0
C372 C 0.43879 0.57325 0.78648 0.0
C373 C 0.44033 0.59664 0.78629 0.0
C374 C 0.45418 0.6075 0.83678 0.0
C375 C 0.46401 0.595 0.89307 0.0
C376 C 0.46225 0.5717 0.89388 0.0
C377 C 0.46828 0.50335 0.60666 0.0
C378 C 0.49957 0.55985 0.63629 0.0
C379 C 0.54601 0.49646 0.54876 0.0
C380 C 0.56116 0.47747 0.56093 0.0
C381 C 0.56371 0.46882 0.63136 0.0
C382 C 0.57465 0.44845 0.64256 0.0
C383 C 0.58338 0.43656 0.58355 0.0
C384 C 0.58232 0.4461 0.51381 0.0
C385 C 0.57113 0.46642 0.5025 0.0
C386 C 0.53093 0.52719 0.76443 0.0
C387 C 0.49939 0.47103 0.73269 0.0
O388 O 0.44873 0.52827 0.76342 0.0
O389 O 0.47611 0.53017 0.84007 0.0
O390 O 0.46052 0.49692 0.66877 0.0
O391 O 0.48275 0.51855 0.61652 0.0
O392 O 0.49123 0.55354 0.69962 0.0
O393 O 0.50796 0.54468 0.59231 0.0
O394 O 0.5498 0.51387 0.58964 0.0
O395 O 0.52467 0.49125 0.54702 0.0
O396 O 0.53893 0.53356 0.70294 0.0
O397 O 0.51638 0.51234 0.75213 0.0
O398 O 0.51004 0.47762 0.67329 0.0
O399 O 0.48844 0.48561 0.77269 0.0
H400 H 0.42963 0.56519 0.74298 0.0
H401 H 0.43251 0.60598 0.74258 0.0
H402 H 0.47439 0.60313 0.93354 0.0
H403 H 0.47141 0.56236 0.9348 0.0
H404 H 0.55617 0.47721 0.67727 0.0
H405 H 0.57514 0.44134 0.69664 0.0
H406 H 0.58861 0.43702 0.46732 0.0
H407 H 0.56923 0.47286 0.44788 0.0
La408 La 0.98839 0.49961 0.78151 0.0
La409 La 1.00047 0.52958 0.66428 0.0
C410 C 0.97104 0.47908 0.88691 0.0
C411 C 0.95303 0.46243 0.89224 0.0
C412 C 0.94899 0.45159 0.95824 0.0
C413 C 0.93154 0.43601 0.96405 0.0
C414 C 0.91787 0.43109 0.90382 0.0
C415 C 0.92242 0.4416 0.83715 0.0
C416 C 0.93992 0.45711 0.83136 0.0
C417 C 1.0007 0.47839 0.66123 0.0
C418 C 0.94985 0.51846 0.67415 0.0
C419 C 0.02193 0.54654 0.56114 0.0
C420 C 0.04649 0.54604 0.55203 0.0
C421 C 0.0607 0.55152 0.61053 0.0
C422 C 0.08309 0.54462 0.61085 0.0
C423 C 0.09158 0.53216 0.55279 0.0
C424 C 0.07794 0.52839 0.49173 0.0
C425 C 0.05556 0.53532 0.49131 0.0
C426 C 0.98716 0.5508 0.78277 0.0
C427 C 0.03799 0.51282 0.7749 0.0
O428 O 0.98903 0.47228 0.85319 0.0
O429 O 0.96493 0.49918 0.86622 0.0
O430 O 1.00529 0.47181 0.72622 0.0
O431 O 0.98877 0.49573 0.66556 0.0
O432 O 0.95514 0.50927 0.73758 0.0
O433 O 0.96561 0.52604 0.63009 0.0
O434 O 0.01432 0.55832 0.61545 0.0
O435 O 0.01234 0.52682 0.55769 0.0
O436 O 0.98284 0.55733 0.71711 0.0
O437 O 0.99941 0.53357 0.78008 0.0
O438 O 0.03332 0.51741 0.7064 0.0
O439 O 0.02143 0.50952 0.82085 0.0
H440 H 0.95907 0.45545 1.00555 0.0
H441 H 0.92821 0.42851 0.01644 0.0
H442 H 0.91221 0.43808 0.78984 0.0
H443 H 0.94306 0.46516 0.77967 0.0
H444 H 0.05418 0.55959 0.65857 0.0
H445 H 0.09325 0.54767 0.65862 0.0
H446 H 0.08429 0.51912 0.44573 0.0
H447 H 0.04492 0.53082 0.44589 0.0
H448 H 0.15115 0.04459 0.44929 0.0
H449 H 0.11344 0.02177 0.26187 0.0
H450 H 0.07894 0.02074 0.33538 0.0
H451 H 0.12615 0.01145 0.57646 0.0
H452 H 0.12499 0.03182 0.64834 0.0
H453 H 0.14614 0.03418 0.57936 0.0
H454 H 0.13287 0.07454 0.54901 0.0
H455 H 0.11184 0.07243 0.61884 0.0
H456 H 0.10374 0.07949 0.52743 0.0
H457 H 0.05011 0.01632 0.43257 0.0
H458 H 0.02821 0.01171 0.54476 0.0
H459 H 0.08335 0.03956 0.66935 0.0
C460 C 0.13551 0.04015 0.42295 0.0
C461 C 0.13514 0.03315 0.34957 0.0
C462 C 0.11431 0.02693 0.31801 0.0
C463 C 0.09455 0.02643 0.35928 0.0
C464 C 0.09568 0.03255 0.43202 0.0
C465 C 0.11552 0.03973 0.46336 0.0
C466 C 0.11237 0.04406 0.54383 0.0
C467 C 0.12836 0.02951 0.58966 0.0
C468 C 0.11538 0.06912 0.56076 0.0
C469 C 0.08808 0.03692 0.55356 0.0
C470 C 0.0787 0.03064 0.48807 0.0
C471 C 0.0571 0.02172 0.48382 0.0
C472 C 0.04477 0.01913 0.54797 0.0
C473 C 0.05387 0.02565 0.61569 0.0
C474 C 0.07579 0.03481 0.61823 0.0
H475 H 0.47298 0.15966 0.37985 0.0
H476 H 0.51135 0.12563 0.21383 0.0
H477 H 0.51158 0.09113 0.28866 0.0
H478 H 0.50169 0.1368 0.52789 0.0
H479 H 0.47742 0.13435 0.58558 0.0
H480 H 0.47816 0.15546 0.51581 0.0
H481 H 0.44101 0.14005 0.46198 0.0
H482 H 0.44011 0.11891 0.5319 0.0
H483 H 0.43904 0.11083 0.43791 0.0
H484 H 0.51016 0.06114 0.38663 0.0
H485 H 0.50752 0.03863 0.4993 0.0
H486 H 0.47003 0.09229 0.60088 0.0
C487 C 0.48089 0.14477 0.35824 0.0
C488 C 0.49196 0.14533 0.29046 0.0
C489 C 0.50274 0.12564 0.26545 0.0
C490 C 0.50288 0.10593 0.30752 0.0
C491 C 0.49217 0.10609 0.37467 0.0
C492 C 0.48129 0.12501 0.39973 0.0
C493 C 0.47237 0.12134 0.47578 0.0
C494 C 0.48306 0.13797 0.5294 0.0
C495 C 0.4466 0.12287 0.47693 0.0
C496 C 0.48024 0.09755 0.49016 0.0
C497 C 0.49148 0.08895 0.431 0.0
C498 C 0.50118 0.06765 0.43291 0.0
C499 C 0.49959 0.05496 0.49711 0.0
C500 C 0.48849 0.06363 0.55872 0.0
C501 C 0.47843 0.08509 0.55447 0.0
H502 H 0.37352 0.53285 0.31425 0.0
H503 H 0.37583 0.46287 0.25035 0.0
H504 H 0.40846 0.45699 0.33024 0.0
H505 H 0.43517 0.54074 0.33256 0.0
H506 H 0.43238 0.55861 0.41063 0.0
H507 H 0.41058 0.55807 0.34266 0.0
H508 H 0.38127 0.54821 0.44117 0.0
H509 H 0.40295 0.54868 0.50929 0.0
H510 H 0.38574 0.52403 0.49823 0.0
H511 H 0.43762 0.45721 0.42894 0.0
H512 H 0.46277 0.46445 0.53352 0.0
H513 H 0.44328 0.53438 0.53147 0.0
C514 C 0.38108 0.51636 0.31613 0.0
C515 C 0.37205 0.4984 0.27489 0.0
C516 C 0.38256 0.4771 0.2796 0.0
C517 C 0.40109 0.47351 0.32547 0.0
C518 C 0.40924 0.49141 0.36625 0.0
C519 C 0.39977 0.51251 0.36143 0.0
C520 C 0.41119 0.52861 0.41371 0.0
C521 C 0.42303 0.54763 0.37241 0.0
C522 C 0.39428 0.53792 0.46886 0.0
C523 C 0.42811 0.51311 0.44995 0.0
C524 C 0.42669 0.49171 0.42165 0.0
C525 C 0.43926 0.47401 0.45029 0.0
C526 C 0.45351 0.47824 0.50956 0.0
C527 C 0.45538 0.50002 0.53891 0.0
C528 C 0.44268 0.51772 0.50825 0.0
H529 H 0.0297 0.36536 0.44891 0.0
H530 H 0.996 0.39307 0.26012 0.0
H531 H 0.98759 0.42755 0.32925 0.0
H532 H 0.99257 0.38812 0.58333 0.0
H533 H 0.0148 0.39354 0.64741 0.0
H534 H 0.01751 0.37099 0.58333 0.0
H535 H 0.05506 0.38793 0.53806 0.0
H536 H 0.05241 0.41059 0.60177 0.0
H537 H 0.05576 0.41657 0.50664 0.0
H538 H 0.98376 0.4599 0.42019 0.0
H539 H 0.9835 0.48585 0.52496 0.0
H540 H 0.02044 0.43698 0.6522 0.0
C541 C 0.02065 0.37867 0.42161 0.0
C542 C 0.01362 0.37634 0.3485 0.0
C543 C 1.0014 0.39418 0.31605 0.0
C544 C 0.99669 0.41396 0.35484 0.0
C545 C 1.00424 0.41577 0.42631 0.0
C546 C 0.01588 0.3985 0.45938 0.0
C547 C 0.02222 0.4045 0.53663 0.0
C548 C 0.01111 0.38833 0.59086 0.0
C549 C 0.04789 0.40492 0.54631 0.0
C550 C 0.01237 0.42786 0.54215 0.0
C551 C 1.00208 0.43415 0.47799 0.0
C552 C 0.99176 0.45507 0.47056 0.0
C553 C 0.99175 0.46975 0.5303 0.0
C554 C 1.00195 0.46348 0.59677 0.0
C555 C 0.01252 0.4423 0.60215 0.0
H556 H 0.8516 0.98985 1.00555 0.0
H557 H 0.88692 1.00813 0.20255 0.0
H558 H 0.92267 0.00944 0.13448 0.0
H559 H 0.89657 0.95516 0.92618 0.0
H560 H 0.8907 0.96485 0.8355 0.0
H561 H 0.86841 0.96322 0.90122 0.0
H562 H 0.85927 1.00515 0.87923 0.0
H563 H 0.88155 1.00695 0.8138 0.0
H564 H 0.88114 0.02582 0.8899 0.0
H565 H 0.95421 0.01123 0.04274 0.0
H566 H 0.97867 0.01401 0.93499 0.0
H567 H 0.92268 0.99483 0.79766 0.0
C568 C 0.86693 0.99353 0.03486 0.0
C569 C 0.86646 0.99865 0.10972 0.0
C570 C 0.88685 1.00413 0.14535 0.0
C571 C 0.90725 1.00483 0.10715 0.0
C572 C 0.90704 1.00004 0.03317 0.0
C573 C 0.8874 0.99445 0.99744 0.0
C574 C 0.89144 0.99147 0.91689 0.0
C575 C 0.88649 0.96723 0.89359 0.0
C576 C 0.87753 1.00836 0.87236 0.0
C577 C 0.91634 0.99665 0.91255 0.0
C578 C 0.92508 1.00134 0.98032 0.0
C579 C 0.94755 1.00741 0.98957 0.0
C580 C 0.96132 0.00896 0.92803 0.0
C581 C 0.9526 1.00462 0.85798 0.0
C582 C 0.92987 0.9981 0.85054 0.0
H583 H 0.51546 0.87513 0.02521 0.0
H584 H 0.50023 0.91311 0.21838 0.0
H585 H 0.49888 0.94818 0.1449 0.0
H586 H 0.5518 0.9165 0.94292 0.0
H587 H 0.54236 0.91037 0.85222 0.0
H588 H 0.54194 0.88876 0.92056 0.0
H589 H 0.49949 0.88228 0.89669 0.0
H590 H 0.49979 0.90385 0.82827 0.0
H591 H 0.48035 0.9056 0.90271 0.0
H592 H 0.49728 0.97896 0.04555 0.0
H593 H 0.49788 1.00219 0.93338 0.0
H594 H 0.51663 0.94352 0.80938 0.0
C595 C 0.51191 0.89089 0.0519 0.0
C596 C 0.50785 0.89158 0.12709 0.0
C597 C 0.50335 0.91238 0.16066 0.0
C598 C 0.50254 0.9323 0.11931 0.0
C599 C 0.50654 0.93106 0.04478 0.0
C600 C 0.51134 0.91083 0.01175 0.0
C601 C 0.51521 0.91377 0.9313 0.0
C602 C 0.53926 0.90695 0.91056 0.0
C603 C 0.49767 0.90059 0.88717 0.0
C604 C 0.51178 0.9388 0.92368 0.0
C605 C 0.50657 0.94857 0.98934 0.0
C606 C 0.50162 0.97145 0.99416 0.0
C607 C 0.502 0.98453 0.93033 0.0
C608 C 0.50758 0.97475 0.86293 0.0
C609 C 0.51266 0.95162 0.86021 0.0
H610 H 0.63019 0.48597 0.02144 0.0
H611 H 0.63019 0.55222 0.11894 0.0
H612 H 0.59754 0.56259 0.04339 0.0
H613 H 0.61514 0.50234 0.84408 0.0
H614 H 0.59727 0.47847 0.82743 0.0
H615 H 0.62036 0.47615 0.89012 0.0
H616 H 0.59298 0.46287 0.99037 0.0
H617 H 0.56978 0.46522 0.92792 0.0
H618 H 0.56907 0.47997 0.01299 0.0
H619 H 0.56608 0.56654 0.95071 0.0
H620 H 0.53827 0.56322 0.85092 0.0
H621 H 0.55683 0.49368 0.82145 0.0
C622 C 0.62317 0.50255 0.02843 0.0
C623 C 0.63305 0.51822 0.07687 0.0
C624 C 0.62338 0.53991 0.08188 0.0
C625 C 0.60462 0.54593 0.03952 0.0
C626 C 0.5954 0.53005 0.99266 0.0
C627 C 0.60428 0.50874 0.9873 0.0
C628 C 0.5915 0.49486 0.93191 0.0
C629 C 0.60699 0.48754 0.86972 0.0
C630 C 0.58016 0.47453 0.96797 0.0
C631 C 0.57422 0.51178 0.90611 0.0
C632 C 0.57676 0.53202 0.94173 0.0
C633 C 0.56369 0.55065 0.92357 0.0
C634 C 0.5479 0.54863 0.86711 0.0
C635 C 0.54504 0.52807 0.8303 0.0
C636 C 0.55821 0.50937 0.85058 0.0
H637 H 0.98165 0.6682 0.99283 0.0
H638 H 0.99723 0.63138 0.18969 0.0
H639 H 0.99511 0.59581 0.12205 0.0
H640 H 0.94219 0.62632 0.91668 0.0
H641 H 0.9516 0.63099 0.82512 0.0
H642 H 0.95267 0.65349 0.89006 0.0
H643 H 0.99514 0.6586 0.86475 0.0
H644 H 0.99422 0.63607 0.80011 0.0
H645 H 0.01375 0.63497 0.87481 0.0
H646 H 0.99462 0.56433 0.03104 0.0
H647 H 0.99425 0.53935 0.92417 0.0
H648 H 0.97765 0.59603 0.78649 0.0
C649 C 0.98407 0.65263 0.02212 0.0
C650 C 0.98964 0.65271 0.09689 0.0
C651 C 0.99316 0.63188 0.13249 0.0
C652 C 0.9919 0.61153 0.09452 0.0
C653 C 0.98692 0.61209 0.02071 0.0
C654 C 0.98285 0.63208 0.98491 0.0
C655 C 0.97878 0.62802 0.90465 0.0
C656 C 0.95489 0.63513 0.88286 0.0
C657 C 0.99653 0.64013 0.85838 0.0
C658 C 0.98155 0.60272 0.90079 0.0
C659 C 0.98622 0.59386 0.96843 0.0
C660 C 0.99066 0.57106 0.97802 0.0
C661 C 0.99044 0.55698 0.91701 0.0
C662 C 0.9857 0.56565 0.84717 0.0
C663 C 0.98097 0.58882 0.83935 0.0
H664 H 0.104 0.18999 0.39241 0.0
H665 H 0.09658 0.17769 0.1616 0.0
H666 H 0.08399 0.13959 0.18712 0.0
H667 H 0.11493 0.12866 0.451 0.0
H668 H 0.09771 0.13259 0.5301 0.0
H669 H 0.11421 0.15558 0.49518 0.0
H670 H 0.07821 0.1799 0.48737 0.0
H671 H 0.06162 0.15702 0.52087 0.0
H672 H 0.05456 0.16992 0.43536 0.0
H673 H 0.06275 0.10717 0.23493 0.0
H674 H 0.03683 0.08253 0.30252 0.0
H675 H 0.05401 0.11739 0.50126 0.0
C676 C 0.10046 0.1791 0.34703 0.0
C677 C 0.10128 0.18724 0.27501 0.0
C678 C 0.09667 0.17213 0.21743 0.0
C679 C 0.08927 0.15026 0.23135 0.0
C680 C 0.08659 0.14356 0.30303 0.0
C681 C 0.09242 0.1574 0.36013 0.0
C682 C 0.08412 0.14794 0.4315 0.0
C683 C 0.10393 0.14077 0.47979 0.0
C684 C 0.06871 0.16468 0.47099 0.0
C685 C 0.07117 0.12773 0.40477 0.0
C686 C 0.07343 0.12502 0.33089 0.0
C687 C 0.06126 0.10881 0.29309 0.0
C688 C 0.0463 0.09511 0.33175 0.0
C689 C 0.04333 0.098 0.40725 0.0
C690 C 0.05627 0.11433 0.44396 0.0
H691 H 0.30399 0.90371 0.43856 0.0
H692 H 0.27436 0.95364 0.57882 0.0
H693 H 0.3047 0.94804 0.66668 0.0
H694 H 0.33735 0.87044 0.59167 0.0
H695 H 0.36047 0.8674 0.52965 0.0
H696 H 0.33196 0.86645 0.49643 0.0
H697 H 0.3414 0.89811 0.40527 0.0
H698 H 0.36956 0.89949 0.43864 0.0
H699 H 0.35236 0.92437 0.43862 0.0
H700 H 0.34285 0.94885 0.71285 0.0
H701 H 0.38361 0.9549 0.7139 0.0
H702 H 0.39132 0.90561 0.54371 0.0
C703 C 0.3034 0.91262 0.48953 0.0
C704 C 0.28696 0.92925 0.50131 0.0
C705 C 0.28656 0.94059 0.56856 0.0
C706 C 0.30389 0.93754 0.61903 0.0
C707 C 0.32141 0.92299 0.60181 0.0
C708 C 0.32103 0.91023 0.53918 0.0
C709 C 0.34388 0.90007 0.52415 0.0
C710 C 0.34338 0.87458 0.53624 0.0
C711 C 0.35227 0.9059 0.44723 0.0
C712 C 0.35774 0.91151 0.58215 0.0
C713 C 0.3443 0.92372 0.62871 0.0
C714 C 0.35348 0.93867 0.67871 0.0
C715 C 0.37676 0.94202 0.67892 0.0
C716 C 0.39063 0.93066 0.62882 0.0
C717 C 0.38106 0.9144 0.58271 0.0
H718 H 0.53812 0.31823 0.54857 0.0
H719 H 0.59855 0.30346 0.42866 0.0
H720 H 0.61803 0.33468 0.48957 0.0
H721 H 0.53804 0.36942 0.51669 0.0
H722 H 0.52812 0.38118 0.60022 0.0
H723 H 0.52127 0.35282 0.57809 0.0
H724 H 0.53904 0.33743 0.69508 0.0
H725 H 0.54487 0.36584 0.72267 0.0
H726 H 0.56721 0.34547 0.71997 0.0
H727 H 0.62548 0.37373 0.52334 0.0
H728 H 0.62132 0.41475 0.53733 0.0
H729 H 0.55704 0.40464 0.64106 0.0
C730 C 0.55588 0.32079 0.53906 0.0
C731 C 0.56696 0.30855 0.48472 0.0
C732 C 0.58996 0.3125 0.4712 0.0
C733 C 0.60112 0.33026 0.50558 0.0
C734 C 0.58911 0.34352 0.5542 0.0
C735 C 0.56712 0.33852 0.57284 0.0
C736 C 0.5563 0.3577 0.61333 0.0
C737 C 0.53469 0.36573 0.57476 0.0
C738 C 0.55159 0.35121 0.69248 0.0
C739 C 0.57482 0.375 0.60865 0.0
C740 C 0.59384 0.36641 0.57589 0.0
C741 C 0.61119 0.38042 0.55216 0.0
C742 C 0.60869 0.40368 0.55991 0.0
C743 C 0.58911 0.41262 0.59174 0.0
C744 C 0.57256 0.39804 0.61928 0.0
H745 H 0.17887 0.43931 0.45508 0.0
H746 H 0.23006 0.48891 0.50346 0.0
H747 H 0.20266 0.51082 0.57159 0.0
H748 H 0.1417 0.47455 0.40177 0.0
H749 H 0.11658 0.46166 0.43697 0.0
H750 H 0.14081 0.44478 0.41908 0.0
H751 H 0.14117 0.43039 0.55096 0.0
H752 H 0.11658 0.44693 0.57049 0.0
H753 H 0.14157 0.45003 0.62491 0.0
H754 H 0.1688 0.53304 0.59835 0.0
H755 H 0.13145 0.55121 0.59497 0.0
H756 H 0.10159 0.48872 0.52345 0.0
C757 C 0.18452 0.45423 0.48302 0.0
C758 C 0.20657 0.4624 0.47312 0.0
C759 C 0.2134 0.48199 0.51066 0.0
C760 C 0.19782 0.49475 0.54936 0.0
C761 C 0.17558 0.48758 0.5508 0.0
C762 C 0.169 0.4674 0.52036 0.0
C763 C 0.14365 0.46549 0.51709 0.0
C764 C 0.13522 0.4614 0.43912 0.0
C765 C 0.13525 0.44713 0.56898 0.0
C766 C 0.13715 0.48852 0.54369 0.0
C767 C 0.15571 0.50079 0.56503 0.0
C768 C 0.15406 0.52338 0.58395 0.0
C769 C 0.13287 0.53361 0.58139 0.0
C770 C 0.1138 0.52134 0.55855 0.0
C771 C 0.11599 0.49847 0.54073 0.0
H772 H 0.08276 0.80751 0.96239 0.0
H773 H 0.13569 0.81698 0.12056 0.0
H774 H 0.14625 0.85249 0.06115 0.0
H775 H 0.11178 0.84158 0.80355 0.0
H776 H 0.08453 0.85212 0.77773 0.0
H777 H 0.08735 0.82389 0.81196 0.0
H778 H 0.05749 0.83255 0.90952 0.0
H779 H 0.05488 0.86067 0.87708 0.0
H780 H 0.06201 0.85567 0.97075 0.0
H781 H 0.14228 0.89097 0.01542 0.0
H782 H 0.12567 0.92753 0.98284 0.0
H783 H 0.07532 0.89374 0.85324 0.0
C784 C 0.09756 0.81628 0.9814 0.0
C785 C 0.10842 0.80953 0.04587 0.0
C786 C 0.12716 0.82188 0.07109 0.0
C787 C 0.13333 0.84205 0.03737 0.0
C788 C 0.12083 0.84942 0.97785 0.0
C789 C 0.10367 0.83655 0.94868 0.0
C790 C 0.08982 0.84993 0.89487 0.0
C791 C 0.09361 0.84137 0.81743 0.0
C792 C 0.0646 0.8497 0.91437 0.0
C793 C 0.10012 0.87291 0.90484 0.0
C794 C 0.11856 0.87215 0.95062 0.0
C795 C 0.12843 0.8917 0.97743 0.0
C796 C 0.11877 0.9124 0.95924 0.0
C797 C 0.09933 0.91338 0.9151 0.0
C798 C 0.0906 0.89346 0.88516 0.0
H799 H 0.70273 0.06204 0.84029 0.0
H800 H 0.7136 0.11732 0.987 0.0
H801 H 0.68169 0.13751 0.93234 0.0
H802 H 0.67373 0.09686 0.68254 0.0
H803 H 0.65432 0.0741 0.66826 0.0
H804 H 0.68309 0.06828 0.6929 0.0
H805 H 0.66976 0.04464 0.8011 0.0
H806 H 0.64102 0.0501 0.78007 0.0
H807 H 0.65175 0.05709 0.8684 0.0
H808 H 0.64242 0.14434 0.89889 0.0
H809 H 0.60165 0.13859 0.88211 0.0
H810 H 0.61503 0.07887 0.75672 0.0
C811 C 0.6992 0.07907 0.85703 0.0
C812 C 0.71049 0.08827 0.91711 0.0
C813 C 0.70532 0.11022 0.94001 0.0
C814 C 0.68712 0.12176 0.90928 0.0
C815 C 0.6746 0.11119 0.85511 0.0
C816 C 0.68087 0.09053 0.82742 0.0
C817 C 0.66224 0.08034 0.78215 0.0
C818 C 0.66875 0.07987 0.70169 0.0
C819 C 0.65583 0.0567 0.80965 0.0
C820 C 0.64374 0.09717 0.79534 0.0
C821 C 0.65134 0.11527 0.8353 0.0
C822 C 0.63645 0.13078 0.86507 0.0
C823 C 0.61331 0.12732 0.85582 0.0
C824 C 0.60531 0.10846 0.81728 0.0
C825 C 0.62077 0.09385 0.78416 0.0
H826 H 0.54176 0.70445 0.85962 0.0
H827 H 0.48449 0.74924 0.86456 0.0
H828 H 0.46093 0.72001 0.81084 0.0
H829 H 0.52085 0.66608 0.70031 0.0
H830 H 0.53124 0.6418 0.74786 0.0
H831 H 0.54615 0.6681 0.75361 0.0
H832 H 0.54398 0.66625 0.89326 0.0
H833 H 0.52879 0.64036 0.88908 0.0
H834 H 0.51693 0.66393 0.93645 0.0
H835 H 0.44108 0.6838 0.79517 0.0
H836 H 0.42791 0.64464 0.81154 0.0
H837 H 0.49694 0.62258 0.83188 0.0
C838 C 0.52451 0.70841 0.84608 0.0
C839 C 0.51501 0.72905 0.86728 0.0
C840 C 0.49239 0.73371 0.84832 0.0
C841 C 0.47873 0.71705 0.81796 0.0
C842 C 0.48792 0.6959 0.80644 0.0
C843 C 0.51053 0.69165 0.81834 0.0
C844 C 0.51532 0.66671 0.81779 0.0
C845 C 0.52921 0.6603 0.7509 0.0
C846 C 0.52691 0.65888 0.88834 0.0
C847 C 0.49169 0.65769 0.81196 0.0
C848 C 0.47619 0.67464 0.80181 0.0
C849 C 0.45312 0.67034 0.8012 0.0
C850 C 0.44575 0.64817 0.81131 0.0
C851 C 0.46144 0.63084 0.82416 0.0
C852 C 0.48462 0.63569 0.82338 0.0
H853 H 0.79057 0.42681 0.96871 0.0
H854 H 0.80432 0.37426 0.12489 0.0
H855 H 0.84054 0.36679 0.06515 0.0
H856 H 0.82548 0.40129 0.80863 0.0
H857 H 0.8342 0.42921 0.78359 0.0
H858 H 0.80643 0.42451 0.81954 0.0
H859 H 0.81415 0.45429 0.91831 0.0
H860 H 0.84187 0.45877 0.88405 0.0
H861 H 0.83806 0.45089 0.97761 0.0
H862 H 0.8785 0.37307 0.01592 0.0
H863 H 0.91384 0.39134 0.97831 0.0
H864 H 0.87585 0.44012 0.85435 0.0
C865 C 0.80052 0.41273 0.98733 0.0
C866 C 0.79461 0.40102 0.05103 0.0
C867 C 0.80852 0.38336 0.07588 0.0
C868 C 0.82909 0.37896 0.04201 0.0
C869 C 0.83535 0.39215 0.98282 0.0
C870 C 0.82118 0.40838 0.95452 0.0
C871 C 0.8333 0.42324 0.90055 0.0
C872 C 0.82432 0.41932 0.8235 0.0
C873 C 0.83176 0.44824 0.92151 0.0
C874 C 0.85695 0.41435 0.90849 0.0
C875 C 0.8577 0.3959 0.95409 0.0
C876 C 0.87806 0.387 0.97825 0.0
C877 C 0.89805 0.39761 0.95721 0.0
C878 C 0.89752 0.41704 0.91306 0.0
C879 C 0.87675 0.42488 0.88626 0.0
H880 H 0.01338 0.19189 0.84815 0.0
H881 H 0.9917 0.18092 0.07008 0.0
H882 H 0.98773 0.14068 0.04556 0.0
H883 H 0.9765 0.14887 0.7655 0.0
H884 H 0.99732 0.14031 0.70049 0.0
H885 H 0.99694 0.1688 0.73296 0.0
H886 H 0.03845 0.16499 0.77298 0.0
H887 H 0.03891 0.13647 0.7411 0.0
H888 H 0.04639 0.1426 0.83366 0.0
H889 H 0.98944 0.10142 1.00269 0.0
H890 H 0.99375 0.0653 0.94068 0.0
H891 H 0.01336 0.09999 0.7435 0.0
C892 C 1.00751 0.18108 0.89136 0.0
C893 C 1.00259 0.18993 0.9611 0.0
C894 C 0.99504 0.17498 0.01581 0.0
C895 C 0.99293 0.15192 1.00261 0.0
C896 C 0.99828 0.14379 0.93413 0.0
C897 C 1.00515 0.15785 0.87894 0.0
C898 C 0.01028 0.1444 0.81076 0.0
C899 C 0.9943 0.15099 0.74875 0.0
C900 C 0.03498 0.14729 0.78833 0.0
C901 C 1.00565 0.12059 0.83697 0.0
C902 C 0.99882 0.12079 0.9085 0.0
C903 C 0.99453 0.10106 0.94646 0.0
C904 C 0.99718 0.08056 0.91066 0.0
C905 C 1.00388 0.07967 0.83704 0.0
C906 C 1.00802 0.10007 0.79954 0.0
H907 H 0.35209 0.04149 0.03954 0.0
H908 H 0.30885 1.00616 0.88833 0.0
H909 H 0.3405 1.00308 0.8026 0.0
H910 H 0.3851 0.07216 0.90467 0.0
H911 H 0.41085 0.06937 0.95547 0.0
H912 H 0.38433 0.07029 1.00214 0.0
H913 H 0.39359 0.03251 0.065 0.0
H914 H 0.42006 0.0314 0.01822 0.0
H915 H 0.40047 1.00846 0.01042 0.0
H916 H 0.37794 1.00125 0.73706 0.0
H917 H 0.41726 1.0026 0.69488 0.0
H918 H 0.43614 0.03894 0.88929 0.0
C919 C 0.34916 0.03325 0.98818 0.0
C920 C 0.3278 0.02413 0.9709 0.0
C921 C 0.32483 0.01364 0.90265 0.0
C922 C 0.3428 0.01165 0.85372 0.0
C923 C 0.36371 0.02034 0.87335 0.0
C924 C 0.36691 0.03113 0.93874 0.0
C925 C 0.39119 0.03841 0.94792 0.0
C926 C 0.39296 0.06408 0.95282 0.0
C927 C 0.40196 0.02701 0.01432 0.0
C928 C 0.40126 0.02979 0.87793 0.0
C929 C 0.38514 0.01943 0.83557 0.0
C930 C 0.39061 0.00956 0.7695 0.0
C931 C 0.41305 0.0104 0.746 0.0
C932 C 0.42988 0.02103 0.78835 0.0
C933 C 0.42374 0.03084 0.8552 0.0
H934 H 0.49588 0.36773 0.01004 0.0
H935 H 0.49582 0.32314 0.82414 0.0
H936 H 0.49848 0.35594 0.74289 0.0
H937 H 0.46044 0.40986 0.92948 0.0
H938 H 0.47501 0.43284 0.97213 0.0
H939 H 0.47423 0.40577 0.01558 0.0
H940 H 0.51772 0.40544 0.02153 0.0
H941 H 0.51865 0.43244 0.97764 0.0
H942 H 0.53366 0.40909 0.93942 0.0
H943 H 0.50115 0.39417 0.6813 0.0
H944 H 0.50246 0.4342 0.6449 0.0
H945 H 0.49731 0.4536 0.87046 0.0
C946 C 0.49606 0.36466 0.95231 0.0
C947 C 0.49562 0.3425 0.92425 0.0
C948 C 0.49649 0.3397 0.84787 0.0
C949 C 0.49787 0.35832 0.80097 0.0
C950 C 0.49819 0.3798 0.83075 0.0
C951 C 0.49713 0.38303 0.9047 0.0
C952 C 0.49717 0.40784 0.92312 0.0
C953 C 0.47542 0.41446 0.96238 0.0
C954 C 0.51804 0.41406 0.96809 0.0
C955 C 0.49824 0.41811 0.84794 0.0
C956 C 0.49913 0.40167 0.79538 0.0
C957 C 0.50067 0.40715 0.722 0.0
C958 C 0.50134 0.42993 0.70186 0.0
C959 C 0.49982 0.44703 0.75473 0.0
C960 C 0.49827 0.44092 0.8287 0.0
H961 H 0.16667 0.4807 0.85875 0.0
H962 H 0.16912 0.5396 0.99629 0.0
H963 H 0.13051 0.54927 0.95941 0.0
H964 H 0.13285 0.50642 0.71372 0.0
H965 H 0.11721 0.48112 0.69606 0.0
H966 H 0.14566 0.47948 0.72948 0.0
H967 H 0.13199 0.45524 0.83749 0.0
H968 H 0.10356 0.45694 0.80438 0.0
H969 H 0.11007 0.46577 0.89538 0.0
H970 H 0.09027 0.55072 0.91742 0.0
H971 H 0.0523 0.54538 0.86522 0.0
H972 H 0.07563 0.48678 0.74953 0.0
C973 C 0.15918 0.49575 0.88066 0.0
C974 C 0.17122 0.50944 0.93033 0.0
C975 C 0.16063 0.52902 0.95725 0.0
C976 C 0.13854 0.53457 0.93704 0.0
C977 C 0.12709 0.52055 0.88918 0.0
C978 C 0.13711 0.50167 0.86057 0.0
C979 C 0.12086 0.4893 0.81085 0.0
C980 C 0.12969 0.48904 0.73283 0.0
C981 C 0.11636 0.4654 0.83872 0.0
C982 C 0.10005 0.50394 0.81702 0.0
C983 C 0.10404 0.52182 0.86286 0.0
C984 C 0.0871 0.53698 0.88059 0.0
C985 C 0.06558 0.53381 0.85086 0.0
C986 C 0.06116 0.51586 0.80296 0.0
C987 C 0.07869 0.50084 0.78525 0.0
H988 H 0.99248 0.86849 0.40741 0.0
H989 H 0.99457 0.82419 0.59455 0.0
H990 H 0.99463 0.85699 0.67518 0.0
H991 H 0.02811 0.91095 0.47728 0.0
H992 H 0.01248 0.93413 0.43974 0.0
H993 H 0.01182 0.90722 0.3957 0.0
H994 H 0.96841 0.90676 0.40326 0.0
H995 H 0.96893 0.93375 0.447 0.0
H996 H 0.95497 0.9104 0.48986 0.0
H997 H 0.99716 0.89444 0.73615 0.0
H998 H 0.99941 0.93403 0.77358 0.0
H999 H 0.99334 0.95492 0.54893 0.0
C1000 C 0.9925 0.8656 0.46533 0.0
C1001 C 0.99375 0.84349 0.49409 0.0
C1002 C 0.99409 0.84077 0.57053 0.0
C1003 C 0.99397 0.85936 0.61706 0.0
C1004 C 0.99321 0.8808 0.58693 0.0
C1005 C 0.9922 0.88407 0.51288 0.0
C1006 C 0.99174 0.90901 0.49489 0.0
C1007 C 0.01226 0.91572 0.4492 0.0
C1008 C 0.9697 0.91535 0.45648 0.0
C1009 C 0.99295 0.9192 0.57033 0.0
C1010 C 0.99388 0.90255 0.62248 0.0
C1011 C 0.99615 0.90761 0.69582 0.0
C1012 C 0.99749 0.93021 0.71656 0.0
C1013 C 0.99635 0.9477 0.66448 0.0
C1014 C 0.9939 0.94201 0.59027 0.0
H1015 H 0.64556 0.98686 0.40432 0.0
H1016 H 0.68757 0.02857 0.54174 0.0
H1017 H 0.65543 0.03455 0.62362 0.0
H1018 H 0.597 0.02061 0.41495 0.0
H1019 H 0.57748 0.99748 0.41571 0.0
H1020 H 0.6043 0.99451 0.37194 0.0
H1021 H 0.61312 0.95972 0.45137 0.0
H1022 H 0.58624 0.96249 0.49511 0.0
H1023 H 0.61161 0.96194 0.54863 0.0
H1024 H 0.61751 0.03911 0.68418 0.0
H1025 H 0.578 0.03915 0.72451 0.0
H1026 H 0.56041 0.99542 0.54539 0.0
C1027 C 0.64813 0.99723 0.45168 0.0
C1028 C 0.66931 1.00723 0.4661 0.0
C1029 C 0.67177 0.02039 0.52959 0.0
C1030 C 0.65349 0.02411 0.57619 0.0
C1031 C 0.63274 0.01461 0.55885 0.0
C1032 C 0.63003 1.00125 0.49845 0.0
C1033 C 0.60583 0.99357 0.49062 0.0
C1034 C 0.59555 1.00206 0.41906 0.0
C1035 C 0.6041 0.96791 0.49682 0.0
C1036 C 0.59522 1.00499 0.55539 0.0
C1037 C 0.61104 0.01699 0.5942 0.0
C1038 C 0.60509 0.02945 0.655 0.0
C1039 C 0.58253 0.02943 0.67728 0.0
C1040 C 0.566 0.0172 0.63847 0.0
C1041 C 0.57258 1.00487 0.5766 0.0
H1042 H 0.52521 0.66697 0.38653 0.0
H1043 H 0.48899 0.70748 0.54241 0.0
H1044 H 0.48325 0.67379 0.61886 0.0
H1045 H 0.48981 0.61891 0.39796 0.0
H1046 H 0.51241 0.59905 0.38841 0.0
H1047 H 0.51476 0.62653 0.34846 0.0
H1048 H 0.55198 0.6332 0.41828 0.0
H1049 H 0.54977 0.6057 0.4583 0.0
H1050 H 0.5525 0.63003 0.51545 0.0
H1051 H 0.47949 0.63492 0.67381 0.0
H1052 H 0.48077 0.5949 0.7097 0.0
H1053 H 0.51815 0.57968 0.51478 0.0
C1054 C 0.516 0.66885 0.43663 0.0
C1055 C 0.50743 0.69002 0.45797 0.0
C1056 C 0.4959 0.69162 0.52489 0.0
C1057 C 0.4924 0.67249 0.56844 0.0
C1058 C 0.50063 0.65185 0.54465 0.0
C1059 C 0.51233 0.64999 0.4805 0.0
C1060 C 0.51917 0.62587 0.4664 0.0
C1061 C 0.50839 0.61708 0.39614 0.0
C1062 C 0.54488 0.62357 0.46452 0.0
C1063 C 0.50937 0.61433 0.53246 0.0
C1064 C 0.49876 0.62962 0.57691 0.0
C1065 C 0.48813 0.62287 0.64043 0.0
C1066 C 0.48872 0.60006 0.65985 0.0
C1067 C 0.4994 0.58402 0.61511 0.0
C1068 C 0.50982 0.59141 0.5504 0.0
H1069 H 0.84436 0.51891 0.40068 0.0
H1070 H 0.80148 0.51677 0.59062 0.0
H1071 H 0.83493 0.51841 0.6692 0.0
H1072 H 0.88833 0.48521 0.47035 0.0
H1073 H 0.91079 0.50121 0.43005 0.0
H1074 H 0.88349 0.50073 0.38781 0.0
H1075 H 0.88184 0.54409 0.39203 0.0
H1076 H 0.90922 0.54472 0.43387 0.0
H1077 H 0.88581 0.55827 0.47726 0.0
H1078 H 0.8731 0.51745 0.7279 0.0
H1079 H 0.91316 0.51676 0.76247 0.0
H1080 H 0.93184 0.52189 0.5359 0.0
C1081 C 0.8419 0.51926 0.45875 0.0
C1082 C 0.82004 0.5175 0.489 0.0
C1083 C 0.81788 0.51765 0.56559 0.0
C1084 C 0.83684 0.51872 0.61091 0.0
C1085 C 0.85805 0.51993 0.57934 0.0
C1086 C 0.86072 0.52051 0.50504 0.0
C1087 C 0.8855 0.52158 0.48526 0.0
C1088 C 0.89243 0.50096 0.44074 0.0
C1089 C 0.89091 0.54347 0.44471 0.0
C1090 C 0.89632 0.52125 0.56001 0.0
C1091 C 0.88013 0.52018 0.61343 0.0
C1092 C 0.8859 0.51858 0.68653 0.0
C1093 C 0.90875 0.51813 0.70565 0.0
C1094 C 0.92574 0.5195 0.65214 0.0
C1095 C 0.91931 0.52119 0.57827 0.0
loop_
_geom_bond_atom_site_label_1
_geom_bond_atom_site_label_2
_geom_bond_distance
_geom_bond_site_symmetry_2
_ccdc_geom_bond_type
C0 C1 1.384 . S
C0 H13 0.947 . S
C0 C35 1.382 . S
C1 C0 1.384 . S
C1 C2 1.378 . S
C2 C1 1.378 . S
C2 C3 1.378 . S
C2 H14 0.952 . S
C3 C2 1.378 . S
C3 H15 0.950 . S
C3 C34 1.383 . S
H4 C23 0.947 . S
H5 C24 0.946 . S
H6 C26 0.953 . S
H7 C27 0.945 . S
H8 C29 0.952 . S
H9 C30 0.949 . S
H10 C32 0.950 . S
H11 C33 0.948 . S
H12 C35 0.951 . S
H13 C0 0.947 . S
H14 C2 0.952 . S
H15 C3 0.950 . S
N16 C19 1.382 . S
N16 C21 1.363 . S
N17 C19 1.371 . S
N17 C20 1.372 . S
N18 C20 1.361 . S
N18 C21 1.377 . S
C19 N16 1.382 . S
C19 N17 1.371 . S
C19 C22 1.480 . S
C20 N17 1.372 . S
C20 N18 1.361 . S
C20 C28 1.457 . S
C21 N16 1.363 . S
C21 N18 1.377 . S
C21 C34 1.479 . S
C22 C19 1.480 . S
C22 C23 1.383 . S
C22 C27 1.385 . S
C23 H4 0.947 . S
C23 C22 1.383 . S
C23 C24 1.388 . S
C24 H5 0.946 . S
C24 C23 1.388 . S
C24 C25 1.384 . S
C25 C24 1.384 . S
C25 C26 1.377 . S
C26 H6 0.953 . S
C26 C25 1.377 . S
C26 C27 1.369 . S
C27 H7 0.945 . S
C27 C22 1.385 . S
C27 C26 1.369 . S
C28 C20 1.457 . S
C28 C29 1.372 . S
C28 C33 1.364 . S
C29 H8 0.952 . S
C29 C28 1.372 . S
C29 C30 1.389 . S
C30 H9 0.949 . S
C30 C29 1.389 . S
C30 C31 1.387 . S
C31 C30 1.387 . S
C31 C32 1.372 . S
C32 H10 0.950 . S
C32 C31 1.372 . S
C32 C33 1.379 . S
C33 H11 0.948 . S
C33 C28 1.364 . S
C33 C32 1.379 . S
C34 C3 1.383 . S
C34 C21 1.479 . S
C34 C35 1.398 . S
C35 C0 1.382 . S
C35 H12 0.951 . S
C35 C34 1.398 . S
C36 C37 1.384 1_655 S
C36 H49 0.948 . S
C36 C71 1.382 1_655 S
C37 C36 1.384 1_455 S
C37 C38 1.378 . S
C38 C37 1.378 . S
C38 C39 1.378 . S
C38 H50 0.952 . S
C39 C38 1.378 . S
C39 H51 0.950 . S
C39 C70 1.383 . S
H40 C59 0.947 . S
H41 C60 0.952 . S
H42 C62 0.953 . S
H43 C63 0.945 . S
H44 C65 0.949 1_655 S
H45 C66 0.956 . S
H46 C68 0.950 . S
H47 C69 0.948 . S
H48 C71 0.951 1_655 S
H49 C36 0.948 . S
H50 C38 0.952 . S
H51 C39 0.950 . S
N52 C55 1.382 . S
N52 C57 1.363 . S
N53 C55 1.371 . S
N53 C56 1.372 . S
N54 C56 1.361 . S
N54 C57 1.377 . S
C55 N52 1.382 . S
C55 N53 1.371 . S
C55 C58 1.480 . S
C56 N53 1.372 . S
C56 N54 1.361 . S
C56 C64 1.457 . S
C57 N52 1.363 . S
C57 N54 1.377 . S
C57 C70 1.479 . S
C58 C55 1.480 . S
C58 C59 1.383 . S
C58 C63 1.385 . S
C59 H40 0.947 . S
C59 C58 1.383 . S
C59 C60 1.386 1_455 S
C60 H41 0.952 . S
C60 C59 1.386 1_655 S
C60 C61 1.381 1_655 S
C61 C60 1.381 1_455 S
C61 C62 1.377 . S
C62 H42 0.953 . S
C62 C61 1.377 . S
C62 C63 1.369 . S
C63 H43 0.945 . S
C63 C58 1.385 . S
C63 C62 1.369 . S
C64 C56 1.457 . S
C64 C65 1.376 . S
C64 C69 1.364 . S
C65 H44 0.949 1_455 S
C65 C64 1.376 . S
C65 C66 1.387 1_455 S
C66 H45 0.956 . S
C66 C65 1.387 1_655 S
C66 C67 1.383 1_655 S
C67 C66 1.383 1_455 S
C67 C68 1.372 . S
C68 H46 0.950 . S
C68 C67 1.372 . S
C68 C69 1.379 . S
C69 H47 0.948 . S
C69 C64 1.364 . S
C69 C68 1.379 . S
C70 C39 1.383 . S
C70 C57 1.479 . S
C70 C71 1.398 . S
C71 C36 1.382 1_455 S
C71 H48 0.951 1_455 S
C71 C70 1.398 . S
C72 C73 1.384 1_565 S
C72 H85 0.948 . S
C72 C107 1.382 1_565 S
C73 C72 1.384 1_545 S
C73 C74 1.378 . S
C74 C73 1.378 . S
C74 C75 1.378 . S
C74 H86 0.952 . S
C75 C74 1.378 . S
C75 H87 0.950 . S
C75 C106 1.383 . S
H76 C95 0.947 . S
H77 C96 0.952 . S
H78 C98 0.953 . S
H79 C99 0.945 . S
H80 C101 0.949 1_565 S
H81 C102 0.957 . S
H82 C104 0.950 . S
H83 C105 0.948 . S
H84 C107 0.951 1_565 S
H85 C72 0.948 . S
H86 C74 0.952 . S
H87 C75 0.950 . S
N88 C91 1.382 . S
N88 C93 1.363 . S
N89 C91 1.371 . S
N89 C92 1.372 . S
N90 C92 1.361 . S
N90 C93 1.377 . S
C91 N88 1.382 . S
C91 N89 1.371 . S
C91 C94 1.480 . S
C92 N89 1.372 . S
C92 N90 1.361 . S
C92 C100 1.457 . S
C93 N88 1.363 . S
C93 N90 1.377 . S
C93 C106 1.479 . S
C94 C91 1.480 . S
C94 C95 1.383 . S
C94 C99 1.385 . S
C95 H76 0.947 . S
C95 C94 1.383 . S
C95 C96 1.386 1_545 S
C96 H77 0.952 . S
C96 C95 1.386 1_565 S
C96 C97 1.382 1_565 S
C97 C96 1.382 1_545 S
C97 C98 1.377 . S
C98 H78 0.953 . S
C98 C97 1.377 . S
C98 C99 1.369 . S
C99 H79 0.945 . S
C99 C94 1.385 . S
C99 C98 1.369 . S
C100 C92 1.457 . S
C100 C101 1.376 . S
C100 C105 1.364 . S
C101 H80 0.949 1_545 S
C101 C100 1.376 . S
C101 C102 1.386 1_545 S
C102 H81 0.957 . S
C102 C101 1.386 1_565 S
C102 C103 1.383 1_565 S
C103 C102 1.383 1_545 S
C103 C104 1.372 . S
C104 H82 0.950 . S
C104 C103 1.372 . S
C104 C105 1.379 . S
C105 H83 0.948 . S
C105 C100 1.364 . S
C105 C104 1.379 . S
C106 C75 1.383 . S
C106 C93 1.479 . S
C106 C107 1.398 . S
C107 C72 1.382 1_545 S
C107 H84 0.951 1_545 S
C107 C106 1.398 . S
C108 C109 1.384 . S
C108 H121 0.947 . S
C108 C143 1.382 . S
C109 C108 1.384 . S
C109 C110 1.378 . S
C110 C109 1.378 . S
C110 C111 1.378 . S
C110 H122 0.952 . S
C111 C110 1.378 . S
C111 H123 0.950 . S
C111 C142 1.383 . S
H112 C131 0.947 . S
H113 C132 0.946 . S
H114 C134 0.953 . S
H115 C135 0.945 . S
H116 C137 0.952 . S
H117 C138 0.949 . S
H118 C140 0.950 . S
H119 C141 0.948 . S
H120 C143 0.951 . S
H121 C108 0.947 . S
H122 C110 0.952 . S
H123 C111 0.950 . S
N124 C127 1.382 . S
N124 C129 1.363 . S
N125 C127 1.371 . S
N125 C128 1.372 . S
N126 C128 1.361 . S
N126 C129 1.377 . S
C127 N124 1.382 . S
C127 N125 1.371 . S
C127 C130 1.480 . S
C128 N125 1.372 . S
C128 N126 1.361 . S
C128 C136 1.457 . S
C129 N124 1.363 . S
C129 N126 1.377 . S
C129 C142 1.479 . S
C130 C127 1.480 . S
C130 C131 1.383 . S
C130 C135 1.385 . S
C131 H112 0.947 . S
C131 C130 1.383 . S
C131 C132 1.388 . S
C132 H113 0.946 . S
C132 C131 1.388 . S
C132 C133 1.384 . S
C133 C132 1.384 . S
C133 C134 1.377 . S
C134 H114 0.953 . S
C134 C133 1.377 . S
C134 C135 1.369 . S
C135 H115 0.945 . S
C135 C130 1.385 . S
C135 C134 1.369 . S
C136 C128 1.457 . S
C136 C137 1.372 . S
C136 C141 1.364 . S
C137 H116 0.952 . S
C137 C136 1.372 . S
C137 C138 1.389 . S
C138 H117 0.949 . S
C138 C137 1.389 . S
C138 C139 1.387 . S
C139 C138 1.387 . S
C139 C140 1.372 . S
C140 H118 0.950 . S
C140 C139 1.372 . S
C140 C141 1.379 . S
C141 H119 0.948 . S
C141 C136 1.364 . S
C141 C140 1.379 . S
C142 C111 1.383 . S
C142 C129 1.479 . S
C142 C143 1.398 . S
C143 C108 1.382 . S
C143 H120 0.951 . S
C143 C142 1.398 . S
C144 C145 1.384 . S
C144 H157 0.947 . S
C144 C179 1.382 . S
C145 C144 1.384 . S
C145 C146 1.378 . S
C146 C145 1.378 . S
C146 C147 1.378 . S
C146 H158 0.952 . S
C147 C146 1.378 . S
C147 H159 0.950 . S
C147 C178 1.383 . S
H148 C167 0.947 1_556 S
H149 C168 0.946 . S
H150 C170 0.953 . S
H151 C171 0.945 . S
H152 C173 0.952 . S
H153 C174 0.949 . S
H154 C176 0.950 . S
H155 C177 0.948 . S
H156 C179 0.951 . S
H157 C144 0.947 . S
H158 C146 0.952 . S
H159 C147 0.950 . S
N160 C163 1.382 1_556 S
N160 C165 1.363 . S
N161 C163 1.371 . S
N161 C164 1.372 . S
N162 C164 1.361 . S
N162 C165 1.377 1_554 S
C163 N160 1.382 1_554 S
C163 N161 1.371 . S
C163 C166 1.480 . S
C164 N161 1.372 . S
C164 N162 1.361 . S
C164 C172 1.457 . S
C165 N160 1.363 . S
C165 N162 1.377 1_556 S
C165 C178 1.479 . S
C166 C163 1.480 . S
C166 C167 1.383 . S
C166 C171 1.385 . S
C167 H148 0.947 1_554 S
C167 C166 1.383 . S
C167 C168 1.388 . S
C168 H149 0.946 . S
C168 C167 1.388 . S
C168 C169 1.384 . S
C169 C168 1.384 . S
C169 C170 1.377 . S
C170 H150 0.953 . S
C170 C169 1.377 . S
C170 C171 1.369 . S
C171 H151 0.945 . S
C171 C166 1.385 . S
C171 C170 1.369 . S
C172 C164 1.457 . S
C172 C173 1.372 . S
C172 C177 1.364 . S
C173 H152 0.952 . S
C173 C172 1.372 . S
C173 C174 1.389 . S
C174 H153 0.949 . S
C174 C173 1.389 . S
C174 C175 1.387 . S
C175 C174 1.387 . S
C175 C176 1.372 . S
C176 H154 0.950 . S
C176 C175 1.372 . S
C176 C177 1.379 . S
C177 H155 0.948 . S
C177 C172 1.364 . S
C177 C176 1.379 . S
C178 C147 1.383 . S
C178 C165 1.479 . S
C178 C179 1.398 . S
C179 C144 1.382 . S
C179 H156 0.951 . S
C179 C178 1.398 . S
C180 C181 1.384 . S
C180 H193 0.948 1_455 S
C180 C215 1.382 . S
C181 C180 1.384 . S
C181 C182 1.378 . S
C182 C181 1.378 . S
C182 C183 1.378 . S
C182 H194 0.952 . S
C183 C182 1.378 . S
C183 H195 0.950 . S
C183 C214 1.383 . S
H184 C203 0.947 1_556 S
H185 C204 0.949 . S
H186 C206 0.953 . S
H187 C207 0.945 . S
H188 C209 0.947 1_655 S
H189 C210 0.954 . S
H190 C212 0.950 . S
H191 C213 0.948 . S
H192 C215 0.950 1_655 S
H193 C180 0.948 1_655 S
H194 C182 0.952 . S
H195 C183 0.950 . S
N196 C199 1.382 1_556 S
N196 C201 1.363 . S
N197 C199 1.371 . S
N197 C200 1.372 . S
N198 C200 1.361 . S
N198 C201 1.377 1_554 S
C199 N196 1.382 1_554 S
C199 N197 1.371 . S
C199 C202 1.480 . S
C200 N197 1.372 . S
C200 N198 1.361 . S
C200 C208 1.457 . S
C201 N196 1.363 . S
C201 N198 1.377 1_556 S
C201 C214 1.479 . S
C202 C199 1.480 . S
C202 C203 1.383 . S
C202 C207 1.385 . S
C203 H184 0.947 1_554 S
C203 C202 1.383 . S
C203 C204 1.387 1_455 S
C204 H185 0.949 . S
C204 C203 1.387 1_655 S
C204 C205 1.382 1_655 S
C205 C204 1.382 1_455 S
C205 C206 1.377 . S
C206 H186 0.953 . S
C206 C205 1.377 . S
C206 C207 1.369 . S
C207 H187 0.945 . S
C207 C202 1.385 . S
C207 C206 1.369 . S
C208 C200 1.457 . S
C208 C209 1.379 . S
C208 C213 1.364 . S
C209 H188 0.947 1_455 S
C209 C208 1.379 . S
C209 C210 1.387 1_455 S
C210 H189 0.954 . S
C210 C209 1.387 1_655 S
C210 C211 1.384 1_655 S
C211 C210 1.384 1_455 S
C211 C212 1.372 . S
C212 H190 0.950 . S
C212 C211 1.372 . S
C212 C213 1.379 . S
C213 H191 0.948 . S
C213 C208 1.364 . S
C213 C212 1.379 . S
C214 C183 1.383 . S
C214 C201 1.479 . S
C214 C215 1.399 . S
C215 C180 1.382 . S
C215 H192 0.950 1_455 S
C215 C214 1.399 . S
C216 C217 1.384 . S
C216 H229 0.948 1_545 S
C216 C251 1.382 . S
C217 C216 1.384 . S
C217 C218 1.378 . S
C218 C217 1.378 . S
C218 C219 1.378 . S
C218 H230 0.952 . S
C219 C218 1.378 . S
C219 H231 0.950 . S
C219 C250 1.383 . S
H220 C239 0.947 1_556 S
H221 C240 0.949 . S
H222 C242 0.953 . S
H223 C243 0.945 . S
H224 C245 0.947 1_565 S
H225 C246 0.954 . S
H226 C248 0.950 . S
H227 C249 0.948 . S
H228 C251 0.950 1_565 S
H229 C216 0.948 1_565 S
H230 C218 0.952 . S
H231 C219 0.950 . S
N232 C235 1.382 1_556 S
N232 C237 1.363 . S
N233 C235 1.371 . S
N233 C236 1.372 . S
N234 C236 1.361 . S
N234 C237 1.377 1_554 S
C235 N232 1.382 1_554 S
C235 N233 1.371 . S
C235 C238 1.480 . S
C236 N233 1.372 . S
C236 N234 1.361 . S
C236 C244 1.457 . S
C237 N232 1.363 . S
C237 N234 1.377 1_556 S
C237 C250 1.479 . S
C238 C235 1.480 . S
C238 C239 1.383 . S
C238 C243 1.385 . S
C239 H220 0.947 1_554 S
C239 C238 1.383 . S
C239 C240 1.387 1_545 S
C240 H221 0.949 . S
C240 C239 1.387 1_565 S
C240 C241 1.382 1_565 S
C241 C240 1.382 1_545 S
C241 C242 1.377 . S
C242 H222 0.953 . S
C242 C241 1.377 . S
C242 C243 1.369 . S
C243 H223 0.945 . S
C243 C238 1.385 . S
C243 C242 1.369 . S
C244 C236 1.457 . S
C244 C245 1.379 . S
C244 C249 1.364 . S
C245 H224 0.947 1_545 S
C245 C244 1.379 . S
C245 C246 1.387 1_545 S
C246 H225 0.954 . S
C246 C245 1.387 1_565 S
C246 C247 1.384 1_565 S
C247 C246 1.384 1_545 S
C247 C248 1.372 . S
C248 H226 0.950 . S
C248 C247 1.372 . S
C248 C249 1.379 . S
C249 H227 0.948 . S
C249 C244 1.364 . S
C249 C248 1.379 . S
C250 C219 1.383 . S
C250 C237 1.479 . S
C250 C251 1.399 . S
C251 C216 1.382 . S
C251 H228 0.950 1_545 S
C251 C250 1.399 . S
C252 C253 1.384 . S
C252 H265 0.947 . S
C252 C287 1.382 . S
C253 C252 1.384 . S
C253 C254 1.378 . S
C254 C253 1.378 . S
C254 C255 1.378 . S
C254 H266 0.952 . S
C255 C254 1.378 . S
C255 H267 0.950 . S
C255 C286 1.383 . S
H256 C275 0.947 . S
H257 C276 0.946 . S
H258 C278 0.953 1_556 S
H259 C279 0.945 1_556 S
H260 C281 0.952 . S
H261 C282 0.949 . S
H262 C284 0.950 . S
H263 C285 0.948 . S
H264 C287 0.951 . S
H265 C252 0.947 . S
H266 C254 0.952 . S
H267 C255 0.950 . S
N268 C271 1.382 . S
N268 C273 1.363 . S
N269 C271 1.371 1_556 S
N269 C272 1.372 . S
N270 C272 1.361 1_554 S
N270 C273 1.377 . S
C271 N268 1.382 . S
C271 N269 1.371 1_554 S
C271 C274 1.480 . S
C272 N269 1.372 . S
C272 N270 1.361 1_556 S
C272 C280 1.457 . S
C273 N268 1.363 . S
C273 N270 1.377 . S
C273 C286 1.479 . S
C274 C271 1.480 . S
C274 C275 1.383 . S
C274 C279 1.385 . S
C275 H256 0.947 . S
C275 C274 1.383 . S
C275 C276 1.388 . S
C276 H257 0.946 . S
C276 C275 1.388 . S
C276 C277 1.384 . S
C277 C276 1.384 . S
C277 C278 1.377 . S
C278 H258 0.953 1_554 S
C278 C277 1.377 . S
C278 C279 1.369 . S
C279 H259 0.945 1_554 S
C279 C274 1.385 . S
C279 C278 1.369 . S
C280 C272 1.457 . S
C280 C281 1.372 . S
C280 C285 1.364 . S
C281 H260 0.952 . S
C281 C280 1.372 . S
C281 C282 1.389 . S
C282 H261 0.949 . S
C282 C281 1.389 . S
C282 C283 1.387 . S
C283 C282 1.387 . S
C283 C284 1.372 . S
C284 H262 0.950 . S
C284 C283 1.372 . S
C284 C285 1.379 . S
C285 H263 0.948 . S
C285 C280 1.364 . S
C285 C284 1.379 . S
C286 C255 1.383 . S
C286 C273 1.479 . S
C286 C287 1.398 . S
C287 C252 1.382 . S
C287 H264 0.951 . S
C287 C286 1.398 . S
La288 C290 2.928 . S
La288 O308 2.521 . S
La288 O309 2.628 . S
La288 O310 2.554 . S
La288 O311 2.757 1_565 S
La288 O312 2.470 . S
La288 O317 2.482 1_455 S
La288 O319 2.503 1_565 S
La289 C299 2.928 . S
La289 O311 2.482 1_655 S
La289 O313 2.503 1_545 S
La289 O314 2.521 . S
La289 O315 2.628 . S
La289 O316 2.554 . S
La289 O317 2.757 1_545 S
La289 O318 2.470 . S
C290 La288 2.928 . S
C290 C291 1.503 . S
C290 O308 1.261 . S
C290 O309 1.243 . S
C291 C290 1.503 . S
C291 C292 1.394 . S
C291 C296 1.373 . S
C292 C291 1.394 . S
C292 C293 1.380 . S
C292 H320 0.930 . S
C293 C292 1.380 . S
C293 C294 1.376 . S
C293 H321 0.930 . S
C294 C293 1.376 . S
C294 C295 1.370 . S
C295 C294 1.370 . S
C295 C296 1.396 . S
C295 H322 0.933 . S
C296 C291 1.373 . S
C296 C295 1.396 . S
C296 H323 0.929 1_455 S
C297 O310 1.269 . S
C297 O311 1.272 1_565 S
C298 O312 1.258 1_655 S
C298 O313 1.256 . S
C299 La289 2.928 . S
C299 C300 1.503 . S
C299 O314 1.261 . S
C299 O315 1.243 . S
C300 C299 1.503 . S
C300 C301 1.394 . S
C300 C305 1.373 . S
C301 C300 1.394 . S
C301 C302 1.380 . S
C301 H324 0.930 . S
C302 C301 1.380 . S
C302 C303 1.376 . S
C302 H325 0.930 . S
C303 C302 1.376 . S
C303 C304 1.370 . S
C304 C303 1.370 . S
C304 C305 1.396 . S
C304 H326 0.933 1_655 S
C305 C300 1.373 . S
C305 C304 1.396 . S
C305 H327 0.929 1_655 S
C306 O316 1.240 . S
C306 O317 1.289 1_545 S
C307 O318 1.258 1_455 S
C307 O319 1.256 . S
O308 La288 2.521 . S
O308 C290 1.261 . S
O309 La288 2.628 . S
O309 C290 1.243 . S
O310 La288 2.554 . S
O310 C297 1.269 . S
O311 La288 2.757 1_545 S
O311 La289 2.482 1_455 S
O311 C297 1.272 1_545 S
O312 La288 2.470 . S
O312 C298 1.258 1_455 S
O313 La289 2.503 1_565 S
O313 C298 1.256 . S
O314 La289 2.521 . S
O314 C299 1.261 . S
O315 La289 2.628 . S
O315 C299 1.243 . S
O316 La289 2.554 . S
O316 C306 1.240 . S
O317 La288 2.482 1_655 S
O317 La289 2.757 1_565 S
O317 C306 1.289 1_565 S
O318 La289 2.470 . S
O318 C307 1.258 1_655 S
O319 La288 2.503 1_545 S
O319 C307 1.256 . S
H320 C292 0.930 . S
H321 C293 0.930 . S
H322 C295 0.933 . S
H323 C296 0.929 1_655 S
H324 C301 0.930 . S
H325 C302 0.930 . S
H326 C304 0.933 1_455 S
H327 C305 0.929 1_455 S
La328 C330 2.928 . S
La328 O348 2.521 . S
La328 O349 2.628 . S
La328 O350 2.554 . S
La328 O351 2.757 . S
La328 O352 2.470 . S
La328 O357 2.482 1_545 S
La328 O359 2.503 . S
La329 C339 2.928 . S
La329 O351 2.482 1_565 S
La329 O353 2.503 . S
La329 O354 2.521 . S
La329 O355 2.628 . S
La329 O356 2.554 . S
La329 O357 2.757 . S
La329 O358 2.470 . S
C330 La328 2.928 . S
C330 C331 1.503 . S
C330 O348 1.261 . S
C330 O349 1.243 . S
C331 C330 1.503 . S
C331 C332 1.394 . S
C331 C336 1.373 . S
C332 C331 1.394 . S
C332 C333 1.380 . S
C332 H360 0.930 . S
C333 C332 1.380 . S
C333 C334 1.376 . S
C333 H361 0.930 . S
C334 C333 1.376 . S
C334 C335 1.370 . S
C335 C334 1.370 . S
C335 C336 1.396 . S
C335 H362 0.920 1_545 S
C336 C331 1.373 . S
C336 C335 1.396 . S
C336 H363 0.929 1_545 S
C337 O350 1.240 . S
C337 O351 1.289 . S
C338 O352 1.258 1_565 S
C338 O353 1.256 . S
C339 La329 2.928 . S
C339 C340 1.503 . S
C339 O354 1.261 . S
C339 O355 1.243 . S
C340 C339 1.503 . S
C340 C341 1.394 . S
C340 C345 1.373 . S
C341 C340 1.394 . S
C341 C342 1.380 . S
C341 H364 0.930 . S
C342 C341 1.380 . S
C342 C343 1.376 . S
C342 H365 0.930 . S
C343 C342 1.376 . S
C343 C344 1.370 . S
C344 C343 1.370 . S
C344 C345 1.396 . S
C344 H366 0.910 1_565 S
C345 C340 1.373 . S
C345 C344 1.396 . S
C345 H367 0.929 1_565 S
C346 O356 1.240 . S
C346 O357 1.289 . S
C347 O358 1.258 1_545 S
C347 O359 1.256 . S
O348 La328 2.521 . S
O348 C330 1.261 . S
O349 La328 2.628 . S
O349 C330 1.243 . S
O350 La328 2.554 . S
O350 C337 1.240 . S
O351 La328 2.757 . S
O351 La329 2.482 1_545 S
O351 C337 1.289 . S
O352 La328 2.470 . S
O352 C338 1.258 1_545 S
O353 La329 2.503 . S
O353 C338 1.256 . S
O354 La329 2.521 . S
O354 C339 1.261 . S
O355 La329 2.628 . S
O355 C339 1.243 . S
O356 La329 2.554 . S
O356 C346 1.240 . S
O357 La328 2.482 1_565 S
O357 La329 2.757 . S
O357 C346 1.289 . S
O358 La329 2.470 . S
O358 C347 1.258 1_565 S
O359 La328 2.503 . S
O359 C347 1.256 . S
H360 C332 0.930 . S
H361 C333 0.930 . S
H362 C335 0.920 1_565 S
H363 C336 0.929 1_565 S
H364 C341 0.930 . S
H365 C342 0.930 . S
H366 C344 0.910 1_545 S
H367 C345 0.929 1_545 S
La368 C370 2.928 . S
La368 O388 2.521 . S
La368 O389 2.628 . S
La368 O390 2.554 . S
La368 O391 2.757 . S
La368 O392 2.470 . S
La368 O397 2.482 . S
La368 O399 2.503 . S
La369 C379 2.928 . S
La369 O391 2.482 . S
La369 O393 2.503 . S
La369 O394 2.521 . S
La369 O395 2.628 . S
La369 O396 2.554 . S
La369 O397 2.757 . S
La369 O398 2.470 . S
C370 La368 2.928 . S
C370 C371 1.503 . S
C370 O388 1.261 . S
C370 O389 1.243 . S
C371 C370 1.503 . S
C371 C372 1.394 . S
C371 C376 1.373 . S
C372 C371 1.394 . S
C372 C373 1.380 . S
C372 H400 0.930 . S
C373 C372 1.380 . S
C373 C374 1.376 . S
C373 H401 0.930 . S
C374 C373 1.376 . S
C374 C375 1.370 . S
C375 C374 1.370 . S
C375 C376 1.396 . S
C375 H402 0.929 . S
C376 C371 1.373 . S
C376 C375 1.396 . S
C376 H403 0.929 . S
C377 O390 1.240 . S
C377 O391 1.289 . S
C378 O392 1.258 . S
C378 O393 1.256 . S
C379 La369 2.928 . S
C379 C380 1.503 . S
C379 O394 1.261 . S
C379 O395 1.243 . S
C380 C379 1.503 . S
C380 C381 1.394 . S
C380 C385 1.373 . S
C381 C380 1.394 . S
C381 C382 1.380 . S
C381 H404 0.930 . S
C382 C381 1.380 . S
C382 C383 1.376 . S
C382 H405 0.930 . S
C383 C382 1.376 . S
C383 C384 1.370 . S
C384 C383 1.370 . S
C384 C385 1.396 . S
C384 H406 0.929 . S
C385 C380 1.373 . S
C385 C384 1.396 . S
C385 H407 0.929 . S
C386 O396 1.240 . S
C386 O397 1.289 . S
C387 O398 1.258 . S
C387 O399 1.256 . S
O388 La368 2.521 . S
O388 C370 1.261 . S
O389 La368 2.628 . S
O389 C370 1.243 . S
O390 La368 2.554 . S
O390 C377 1.240 . S
O391 La368 2.757 . S
O391 La369 2.482 . S
O391 C377 1.289 . S
O392 La368 2.470 . S
O392 C378 1.258 . S
O393 La369 2.503 . S
O393 C378 1.256 . S
O394 La369 2.521 . S
O394 C379 1.261 . S
O395 La369 2.628 . S
O395 C379 1.243 . S
O396 La369 2.554 . S
O396 C386 1.240 . S
O397 La368 2.482 . S
O397 La369 2.757 . S
O397 C386 1.289 . S
O398 La369 2.470 . S
O398 C387 1.258 . S
O399 La368 2.503 . S
O399 C387 1.256 . S
H400 C372 0.930 . S
H401 C373 0.930 . S
H402 C375 0.929 . S
H403 C376 0.929 . S
H404 C381 0.930 . S
H405 C382 0.930 . S
H406 C384 0.929 . S
H407 C385 0.929 . S
La408 C410 2.928 . S
La408 O428 2.521 . S
La408 O429 2.628 . S
La408 O430 2.554 . S
La408 O431 2.757 1_655 S
La408 O432 2.470 . S
La408 O437 2.482 . S
La408 O439 2.503 1_655 S
La409 C419 2.928 . S
La409 O431 2.482 . S
La409 O433 2.503 1_455 S
La409 O434 2.521 . S
La409 O435 2.628 . S
La409 O436 2.554 . S
La409 O437 2.757 1_455 S
La409 O438 2.470 . S
C410 La408 2.928 . S
C410 C411 1.503 . S
C410 O428 1.261 . S
C410 O429 1.243 . S
C411 C410 1.503 . S
C411 C412 1.394 . S
C411 C416 1.373 . S
C412 C411 1.394 . S
C412 C413 1.380 . S
C412 H440 0.930 . S
C413 C412 1.380 . S
C413 C414 1.376 . S
C413 H441 0.930 . S
C414 C413 1.376 . S
C414 C415 1.370 . S
C415 C414 1.370 . S
C415 C416 1.396 . S
C415 H442 0.929 . S
C416 C411 1.373 . S
C416 C415 1.396 . S
C416 H443 0.929 . S
C417 O430 1.256 . S
C417 O431 1.280 1_655 S
C418 O432 1.258 . S
C418 O433 1.256 . S
C419 La409 2.928 . S
C419 C420 1.503 . S
C419 O434 1.261 . S
C419 O435 1.243 . S
C420 C419 1.503 . S
C420 C421 1.394 . S
C420 C425 1.373 . S
C421 C420 1.394 . S
C421 C422 1.380 . S
C421 H444 0.930 . S
C422 C421 1.380 . S
C422 C423 1.376 . S
C422 H445 0.930 . S
C423 C422 1.376 . S
C423 C424 1.370 . S
C424 C423 1.370 . S
C424 C425 1.396 . S
C424 H446 0.929 . S
C425 C420 1.373 . S
C425 C424 1.396 . S
C425 H447 0.929 . S
C426 O436 1.263 . S
C426 O437 1.276 1_455 S
C427 O438 1.258 . S
C427 O439 1.256 . S
O428 La408 2.521 . S
O428 C410 1.261 . S
O429 La408 2.628 . S
O429 C410 1.243 . S
O430 La408 2.554 . S
O430 C417 1.256 . S
O431 La408 2.757 1_455 S
O431 La409 2.482 . S
O431 C417 1.280 1_455 S
O432 La408 2.470 . S
O432 C418 1.258 . S
O433 La409 2.503 1_655 S
O433 C418 1.256 . S
O434 La409 2.521 . S
O434 C419 1.261 . S
O435 La409 2.628 . S
O435 C419 1.243 . S
O436 La409 2.554 . S
O436 C426 1.263 . S
O437 La408 2.482 . S
O437 La409 2.757 1_655 S
O437 C426 1.276 1_655 S
O438 La409 2.470 . S
O438 C427 1.258 . S
O439 La408 2.503 1_455 S
O439 C427 1.256 . S
H440 C412 0.930 . S
H441 C413 0.930 . S
H442 C415 0.929 . S
H443 C416 0.929 . S
H444 C421 0.930 . S
H445 C422 0.930 . S
H446 C424 0.929 . S
H447 C425 0.929 . S
H448 C460 0.930 . S
H449 C462 0.930 . S
H450 C463 0.930 . S
H451 C467 0.959 . S
H452 C467 0.959 . S
H453 C467 0.961 . S
H454 C468 0.960 . S
H455 C468 0.961 . S
H456 C468 0.959 . S
H457 C471 0.929 . S
H458 C472 0.931 . S
H459 C474 0.930 . S
C460 H448 0.930 . S
C460 C461 1.399 1_545 S
C460 C465 1.399 . S
C461 C460 1.399 1_565 S
C461 C462 1.376 . S
C462 H449 0.930 . S
C462 C461 1.376 . S
C462 C463 1.388 . S
C463 H450 0.930 . S
C463 C462 1.388 . S
C463 C464 1.390 . S
C464 C463 1.390 . S
C464 C465 1.394 1_565 S
C464 C470 1.465 . S
C465 C460 1.399 . S
C465 C464 1.394 1_545 S
C465 C466 1.516 . S
C466 C465 1.516 . S
C466 C467 1.502 . S
C466 C468 1.561 . S
C466 C469 1.526 . S
C467 H451 0.959 . S
C467 H452 0.959 . S
C467 H453 0.961 . S
C467 C466 1.502 . S
C468 H454 0.960 . S
C468 H455 0.961 . S
C468 H456 0.959 . S
C468 C466 1.561 . S
C469 C466 1.526 . S
C469 C470 1.396 1_545 S
C469 C474 1.390 . S
C470 C464 1.465 . S
C470 C469 1.396 1_565 S
C470 C471 1.399 . S
C471 H457 0.929 . S
C471 C470 1.399 . S
C471 C472 1.385 . S
C472 H458 0.931 . S
C472 C471 1.385 . S
C472 C473 1.422 . S
C473 C472 1.422 . S
C473 C474 1.360 1_565 S
C474 H459 0.930 . S
C474 C469 1.390 . S
C474 C473 1.360 1_545 S
H475 C487 0.930 . S
H476 C489 0.930 . S
H477 C490 0.930 . S
H478 C494 0.959 . S
H479 C494 0.959 . S
H480 C494 0.961 . S
H481 C495 0.960 . S
H482 C495 0.961 . S
H483 C495 0.959 . S
H484 C498 0.929 . S
H485 C499 0.931 . S
H486 C501 0.930 . S
C487 H475 0.930 . S
C487 C488 1.399 . S
C487 C492 1.399 . S
C488 C487 1.399 . S
C488 C489 1.376 . S
C489 H476 0.930 . S
C489 C488 1.376 . S
C489 C490 1.388 . S
C490 H477 0.930 . S
C490 C489 1.388 . S
C490 C491 1.390 . S
C491 C490 1.390 . S
C491 C492 1.394 . S
C491 C497 1.465 . S
C492 C487 1.399 . S
C492 C491 1.394 . S
C492 C493 1.516 . S
C493 C492 1.516 . S
C493 C494 1.502 . S
C493 C495 1.561 . S
C493 C496 1.526 . S
C494 H478 0.959 . S
C494 H479 0.959 . S
C494 H480 0.961 . S
C494 C493 1.502 . S
C495 H481 0.960 . S
C495 H482 0.961 . S
C495 H483 0.959 . S
C495 C493 1.561 . S
C496 C493 1.526 . S
C496 C497 1.396 . S
C496 C501 1.390 . S
C497 C491 1.465 . S
C497 C496 1.396 . S
C497 C498 1.399 . S
C498 H484 0.929 . S
C498 C497 1.399 . S
C498 C499 1.385 . S
C499 H485 0.931 . S
C499 C498 1.385 . S
C499 C500 1.389 . S
C500 C499 1.389 . S
C500 C501 1.387 . S
C501 H486 0.930 . S
C501 C496 1.390 . S
C501 C500 1.387 . S
H502 C514 0.930 . S
H503 C516 0.930 . S
H504 C517 0.930 . S
H505 C521 0.959 . S
H506 C521 0.959 . S
H507 C521 0.961 . S
H508 C522 0.960 . S
H509 C522 0.961 . S
H510 C522 0.959 . S
H511 C525 0.929 . S
H512 C526 0.931 . S
H513 C528 0.930 . S
C514 H502 0.930 . S
C514 C515 1.399 . S
C514 C519 1.399 . S
C515 C514 1.399 . S
C515 C516 1.376 . S
C516 H503 0.930 . S
C516 C515 1.376 . S
C516 C517 1.388 . S
C517 H504 0.930 . S
C517 C516 1.388 . S
C517 C518 1.390 . S
C518 C517 1.390 . S
C518 C519 1.394 . S
C518 C524 1.465 . S
C519 C514 1.399 . S
C519 C518 1.394 . S
C519 C520 1.516 . S
C520 C519 1.516 . S
C520 C521 1.502 . S
C520 C522 1.561 . S
C520 C523 1.526 . S
C521 H505 0.959 . S
C521 H506 0.959 . S
C521 H507 0.961 . S
C521 C520 1.502 . S
C522 H508 0.960 . S
C522 H509 0.961 . S
C522 H510 0.959 . S
C522 C520 1.561 . S
C523 C520 1.526 . S
C523 C524 1.396 . S
C523 C528 1.390 . S
C524 C518 1.465 . S
C524 C523 1.396 . S
C524 C525 1.399 . S
C525 H511 0.929 . S
C525 C524 1.399 . S
C525 C526 1.385 . S
C526 H512 0.931 . S
C526 C525 1.385 . S
C526 C527 1.389 . S
C527 C526 1.389 . S
C527 C528 1.387 . S
C528 H513 0.930 . S
C528 C523 1.390 . S
C528 C527 1.387 . S
H529 C541 0.930 . S
H530 C543 0.930 . S
H531 C544 0.930 . S
H532 C548 0.959 . S
H533 C548 0.959 . S
H534 C548 0.961 . S
H535 C549 0.960 . S
H536 C549 0.961 . S
H537 C549 0.959 . S
H538 C552 0.929 . S
H539 C553 0.931 . S
H540 C555 0.930 . S
C541 H529 0.930 . S
C541 C542 1.399 1_655 S
C541 C546 1.399 . S
C542 C541 1.399 1_455 S
C542 C543 1.376 . S
C543 H530 0.930 . S
C543 C542 1.376 . S
C543 C544 1.388 . S
C544 H531 0.930 . S
C544 C543 1.388 . S
C544 C545 1.390 . S
C545 C544 1.390 . S
C545 C546 1.394 1_455 S
C545 C551 1.465 . S
C546 C541 1.399 . S
C546 C545 1.394 1_655 S
C546 C547 1.516 . S
C547 C546 1.516 . S
C547 C548 1.502 . S
C547 C549 1.561 . S
C547 C550 1.526 . S
C548 H532 0.959 . S
C548 H533 0.959 . S
C548 H534 0.961 . S
C548 C547 1.502 . S
C549 H535 0.960 . S
C549 H536 0.961 . S
C549 H537 0.959 . S
C549 C547 1.561 . S
C550 C547 1.526 . S
C550 C551 1.396 1_655 S
C550 C555 1.390 . S
C551 C545 1.465 . S
C551 C550 1.396 1_455 S
C551 C552 1.399 . S
C552 H538 0.929 . S
C552 C551 1.399 . S
C552 C553 1.385 . S
C553 H539 0.931 . S
C553 C552 1.385 . S
C553 C554 1.389 . S
C554 C553 1.389 . S
C554 C555 1.387 1_455 S
C555 H540 0.930 . S
C555 C550 1.390 . S
C555 C554 1.387 1_655 S
H556 C568 0.930 . S
H557 C570 0.930 . S
H558 C571 0.930 . S
H559 C575 0.959 . S
H560 C575 0.959 . S
H561 C575 0.961 1_554 S
H562 C576 0.960 . S
H563 C576 0.961 1_556 S
H564 C576 0.959 . S
H565 C579 0.929 1_554 S
H566 C580 0.931 . S
H567 C582 0.930 . S
C568 H556 0.930 . S
C568 C569 1.399 1_545 S
C568 C573 1.399 . S
C569 C568 1.399 1_565 S
C569 C570 1.376 . S
C570 H557 0.930 . S
C570 C569 1.376 . S
C570 C571 1.388 . S
C571 H558 0.930 . S
C571 C570 1.388 . S
C571 C572 1.390 . S
C572 C571 1.390 . S
C572 C573 1.394 1_565 S
C572 C578 1.465 . S
C573 C568 1.399 . S
C573 C572 1.394 1_545 S
C573 C574 1.516 . S
C574 C573 1.516 . S
C574 C575 1.502 1_554 S
C574 C576 1.561 . S
C574 C577 1.526 1_554 S
C575 H559 0.959 . S
C575 H560 0.959 . S
C575 H561 0.961 1_556 S
C575 C574 1.502 1_556 S
C576 H562 0.960 . S
C576 H563 0.961 1_554 S
C576 H564 0.959 . S
C576 C574 1.561 . S
C577 C574 1.526 1_556 S
C577 C578 1.396 1_546 S
C577 C582 1.390 . S
C578 C572 1.465 . S
C578 C577 1.396 1_564 S
C578 C579 1.399 1_554 S
C579 H565 0.929 1_556 S
C579 C578 1.399 1_556 S
C579 C580 1.385 . S
C580 H566 0.931 . S
C580 C579 1.385 . S
C580 C581 1.389 . S
C581 C580 1.389 . S
C581 C582 1.387 1_565 S
C582 H567 0.930 . S
C582 C577 1.390 . S
C582 C581 1.387 1_545 S
H583 C595 0.930 . S
H584 C597 0.930 . S
H585 C598 0.930 . S
H586 C602 0.959 1_554 S
H587 C602 0.959 . S
H588 C602 0.961 1_554 S
H589 C603 0.960 1_554 S
H590 C603 0.961 . S
H591 C603 0.959 . S
H592 C606 0.929 1_554 S
H593 C607 0.931 . S
H594 C609 0.930 . S
C595 H583 0.930 . S
C595 C596 1.399 . S
C595 C600 1.399 . S
C596 C595 1.399 . S
C596 C597 1.376 . S
C597 H584 0.930 . S
C597 C596 1.376 . S
C597 C598 1.388 . S
C598 H585 0.930 . S
C598 C597 1.388 . S
C598 C599 1.390 . S
C599 C598 1.390 . S
C599 C600 1.394 . S
C599 C605 1.465 . S
C600 C595 1.399 . S
C600 C599 1.394 . S
C600 C601 1.516 . S
C601 C600 1.516 . S
C601 C602 1.502 1_554 S
C601 C603 1.561 1_554 S
C601 C604 1.526 1_554 S
C602 H586 0.959 1_556 S
C602 H587 0.959 . S
C602 H588 0.961 1_556 S
C602 C601 1.502 1_556 S
C603 H589 0.960 1_556 S
C603 H590 0.961 . S
C603 H591 0.959 . S
C603 C601 1.561 1_556 S
C604 C601 1.526 1_556 S
C604 C605 1.396 1_556 S
C604 C609 1.390 . S
C605 C599 1.465 . S
C605 C604 1.396 1_554 S
C605 C606 1.399 1_554 S
C606 H592 0.929 1_556 S
C606 C605 1.399 1_556 S
C606 C607 1.385 . S
C607 H593 0.931 . S
C607 C606 1.385 . S
C607 C608 1.389 . S
C608 C607 1.389 . S
C608 C609 1.387 . S
C609 H594 0.930 . S
C609 C604 1.390 . S
C609 C608 1.387 . S
H610 C622 0.930 . S
H611 C624 0.930 . S
H612 C625 0.930 . S
H613 C629 0.959 . S
H614 C629 0.959 . S
H615 C629 0.961 1_554 S
H616 C630 0.960 . S
H617 C630 0.951 1_556 S
H618 C630 0.959 . S
H619 C633 0.929 1_554 S
H620 C634 0.931 . S
H621 C636 0.930 . S
C622 H610 0.930 . S
C622 C623 1.399 . S
C622 C627 1.399 . S
C623 C622 1.399 . S
C623 C624 1.376 . S
C624 H611 0.930 . S
C624 C623 1.376 . S
C624 C625 1.388 . S
C625 H612 0.930 . S
C625 C624 1.388 . S
C625 C626 1.390 . S
C626 C625 1.390 . S
C626 C627 1.394 . S
C626 C632 1.465 . S
C627 C622 1.399 . S
C627 C626 1.394 . S
C627 C628 1.516 . S
C628 C627 1.516 . S
C628 C629 1.502 1_554 S
C628 C630 1.561 . S
C628 C631 1.526 1_554 S
C629 H613 0.959 . S
C629 H614 0.959 . S
C629 H615 0.961 1_556 S
C629 C628 1.502 1_556 S
C630 H616 0.960 . S
C630 H617 0.951 1_554 S
C630 H618 0.959 . S
C630 C628 1.561 . S
C631 C628 1.526 1_556 S
C631 C632 1.396 1_556 S
C631 C636 1.390 . S
C632 C626 1.465 . S
C632 C631 1.396 1_554 S
C632 C633 1.399 1_554 S
C633 H619 0.929 1_556 S
C633 C632 1.399 1_556 S
C633 C634 1.385 . S
C634 H620 0.931 . S
C634 C633 1.385 . S
C634 C635 1.389 . S
C635 C634 1.389 . S
C635 C636 1.387 . S
C636 H621 0.930 . S
C636 C631 1.390 . S
C636 C635 1.387 . S
H637 C649 0.930 . S
H638 C651 0.930 . S
H639 C652 0.930 . S
H640 C656 0.959 . S
H641 C656 0.959 . S
H642 C656 0.961 1_554 S
H643 C657 0.960 1_554 S
H644 C657 0.961 . S
H645 C657 0.959 . S
H646 C660 0.929 1_554 S
H647 C661 0.931 . S
H648 C663 0.930 . S
C649 H637 0.930 . S
C649 C650 1.399 1_655 S
C649 C654 1.403 . S
C650 C649 1.399 1_455 S
C650 C651 1.376 . S
C651 H638 0.930 . S
C651 C650 1.376 . S
C651 C652 1.388 . S
C652 H639 0.930 . S
C652 C651 1.388 . S
C652 C653 1.390 . S
C653 C652 1.390 . S
C653 C654 1.385 1_455 S
C653 C659 1.465 . S
C654 C649 1.403 . S
C654 C653 1.385 1_655 S
C654 C655 1.521 . S
C655 C654 1.521 . S
C655 C656 1.502 1_554 S
C655 C657 1.561 1_654 S
C655 C658 1.526 1_554 S
C656 H640 0.959 . S
C656 H641 0.959 . S
C656 H642 0.961 1_556 S
C656 C655 1.502 1_556 S
C657 H643 0.960 1_556 S
C657 H644 0.961 . S
C657 H645 0.959 . S
C657 C655 1.561 1_456 S
C658 C655 1.526 1_556 S
C658 C659 1.396 1_656 S
C658 C663 1.390 . S
C659 C653 1.465 . S
C659 C658 1.396 1_454 S
C659 C660 1.399 1_554 S
C660 H646 0.929 1_556 S
C660 C659 1.399 1_556 S
C660 C661 1.385 . S
C661 H647 0.931 . S
C661 C660 1.385 . S
C661 C662 1.381 1_455 S
C662 C661 1.381 1_655 S
C662 C663 1.392 . S
C663 H648 0.930 . S
C663 C658 1.390 . S
C663 C662 1.392 . S
H664 C676 0.930 1_455 S
H665 C678 0.930 . S
H666 C679 0.930 . S
H667 C683 0.959 . S
H668 C683 0.959 1_655 S
H669 C683 0.961 . S
H670 C684 0.960 . S
H671 C684 0.961 . S
H672 C684 0.959 . S
H673 C687 0.929 . S
H674 C688 0.931 . S
H675 C690 0.930 . S
C676 H664 0.930 1_655 S
C676 C677 1.399 1_655 S
C676 C681 1.399 . S
C677 C676 1.399 1_455 S
C677 C678 1.376 1_455 S
C678 H665 0.930 . S
C678 C677 1.376 1_655 S
C678 C679 1.388 . S
C679 H666 0.930 . S
C679 C678 1.388 . S
C679 C680 1.390 . S
C680 C679 1.390 . S
C680 C681 1.394 . S
C680 C686 1.465 . S
C681 C676 1.399 . S
C681 C680 1.394 . S
C681 C682 1.516 . S
C682 C681 1.516 . S
C682 C683 1.502 1_655 S
C682 C684 1.561 . S
C682 C685 1.526 . S
C683 H667 0.959 . S
C683 H668 0.959 1_455 S
C683 H669 0.961 . S
C683 C682 1.502 1_455 S
C684 H670 0.960 . S
C684 H671 0.961 . S
C684 H672 0.959 . S
C684 C682 1.561 . S
C685 C682 1.526 . S
C685 C686 1.396 . S
C685 C690 1.390 . S
C686 C680 1.465 . S
C686 C685 1.396 . S
C686 C687 1.399 . S
C687 H673 0.929 . S
C687 C686 1.399 . S
C687 C688 1.385 . S
C688 H674 0.931 . S
C688 C687 1.385 . S
C688 C689 1.389 . S
C689 C688 1.389 . S
C689 C690 1.387 . S
C690 H675 0.930 . S
C690 C685 1.390 . S
C690 C689 1.387 . S
H691 C703 0.930 . S
H692 C705 0.930 . S
H693 C706 0.930 . S
H694 C710 0.959 . S
H695 C710 0.959 . S
H696 C710 0.961 . S
H697 C711 0.960 . S
H698 C711 0.961 . S
H699 C711 0.959 1_545 S
H700 C714 0.929 . S
H701 C715 0.931 . S
H702 C717 0.930 . S
C703 H691 0.930 . S
C703 C704 1.399 1_565 S
C703 C708 1.399 . S
C704 C703 1.399 1_545 S
C704 C705 1.376 . S
C705 H692 0.930 . S
C705 C704 1.376 . S
C705 C706 1.388 . S
C706 H693 0.930 . S
C706 C705 1.388 . S
C706 C707 1.390 1_545 S
C707 C706 1.390 1_565 S
C707 C708 1.394 . S
C707 C713 1.465 . S
C708 C703 1.399 . S
C708 C707 1.394 . S
C708 C709 1.516 . S
C709 C708 1.516 . S
C709 C710 1.502 . S
C709 C711 1.561 . S
C709 C712 1.526 . S
C710 H694 0.959 . S
C710 H695 0.959 . S
C710 H696 0.961 . S
C710 C709 1.502 . S
C711 H697 0.960 . S
C711 H698 0.961 . S
C711 H699 0.959 1_565 S
C711 C709 1.561 . S
C712 C709 1.526 . S
C712 C713 1.396 . S
C712 C717 1.390 . S
C713 C707 1.465 . S
C713 C712 1.396 . S
C713 C714 1.399 . S
C714 H700 0.929 . S
C714 C713 1.399 . S
C714 C715 1.385 . S
C715 H701 0.931 . S
C715 C714 1.385 . S
C715 C716 1.389 . S
C716 C715 1.389 . S
C716 C717 1.387 . S
C717 H702 0.930 . S
C717 C712 1.390 . S
C717 C716 1.387 . S
H718 C730 0.930 . S
H719 C732 0.930 . S
H720 C733 0.930 . S
H721 C737 0.959 . S
H722 C737 0.959 . S
H723 C737 0.961 . S
H724 C738 0.960 . S
H725 C738 0.961 . S
H726 C738 0.959 . S
H727 C741 0.929 . S
H728 C742 0.931 . S
H729 C744 0.930 . S
C730 H718 0.930 . S
C730 C731 1.399 . S
C730 C735 1.399 . S
C731 C730 1.399 . S
C731 C732 1.376 . S
C732 H719 0.930 . S
C732 C731 1.376 . S
C732 C733 1.388 . S
C733 H720 0.930 . S
C733 C732 1.388 . S
C733 C734 1.390 . S
C734 C733 1.390 . S
C734 C735 1.394 . S
C734 C740 1.465 . S
C735 C730 1.399 . S
C735 C734 1.394 . S
C735 C736 1.516 . S
C736 C735 1.516 . S
C736 C737 1.502 . S
C736 C738 1.561 . S
C736 C739 1.526 . S
C737 H721 0.959 . S
C737 H722 0.959 . S
C737 H723 0.961 . S
C737 C736 1.502 . S
C738 H724 0.960 . S
C738 H725 0.961 . S
C738 H726 0.959 . S
C738 C736 1.561 . S
C739 C736 1.526 . S
C739 C740 1.396 . S
C739 C744 1.390 . S
C740 C734 1.465 . S
C740 C739 1.396 . S
C740 C741 1.399 . S
C741 H727 0.929 . S
C741 C740 1.399 . S
C741 C742 1.385 . S
C742 H728 0.931 . S
C742 C741 1.385 . S
C742 C743 1.389 . S
C743 C742 1.389 . S
C743 C744 1.387 . S
C744 H729 0.930 . S
C744 C739 1.390 . S
C744 C743 1.387 . S
H745 C757 0.930 . S
H746 C759 0.930 . S
H747 C760 0.930 . S
H748 C764 0.959 . S
H749 C764 0.959 . S
H750 C764 0.961 . S
H751 C765 0.960 . S
H752 C765 0.961 . S
H753 C765 0.959 . S
H754 C768 0.929 . S
H755 C769 0.931 . S
H756 C771 0.930 . S
C757 H745 0.930 . S
C757 C758 1.399 . S
C757 C762 1.399 . S
C758 C757 1.399 . S
C758 C759 1.376 . S
C759 H746 0.930 . S
C759 C758 1.376 . S
C759 C760 1.388 . S
C760 H747 0.930 . S
C760 C759 1.388 . S
C760 C761 1.390 . S
C761 C760 1.390 . S
C761 C762 1.394 . S
C761 C767 1.465 . S
C762 C757 1.399 . S
C762 C761 1.394 . S
C762 C763 1.516 . S
C763 C762 1.516 . S
C763 C764 1.502 . S
C763 C765 1.561 . S
C763 C766 1.526 . S
C764 H748 0.959 . S
C764 H749 0.959 . S
C764 H750 0.961 . S
C764 C763 1.502 . S
C765 H751 0.960 . S
C765 H752 0.961 . S
C765 H753 0.959 . S
C765 C763 1.561 . S
C766 C763 1.526 . S
C766 C767 1.396 . S
C766 C771 1.390 . S
C767 C761 1.465 . S
C767 C766 1.396 . S
C767 C768 1.399 . S
C768 H754 0.929 . S
C768 C767 1.399 . S
C768 C769 1.385 . S
C769 H755 0.931 . S
C769 C768 1.385 . S
C769 C770 1.389 . S
C770 C769 1.389 . S
C770 C771 1.387 . S
C771 H756 0.930 . S
C771 C766 1.390 . S
C771 C770 1.387 . S
H772 C784 0.930 . S
H773 C786 0.930 . S
H774 C787 0.930 1_556 S
H775 C791 0.959 . S
H776 C791 0.959 . S
H777 C791 0.961 . S
H778 C792 0.960 . S
H779 C792 0.961 . S
H780 C792 0.959 . S
H781 C795 0.929 . S
H782 C796 0.931 . S
H783 C798 0.930 . S
C784 H772 0.930 . S
C784 C785 1.402 . S
C784 C789 1.399 1_655 S
C785 C784 1.402 . S
C785 C786 1.352 1_655 S
C786 H773 0.930 . S
C786 C785 1.352 1_455 S
C786 C787 1.388 . S
C787 H774 0.930 1_554 S
C787 C786 1.388 . S
C787 C788 1.390 . S
C788 C787 1.390 . S
C788 C789 1.394 . S
C788 C794 1.465 1_554 S
C789 C784 1.399 1_455 S
C789 C788 1.394 . S
C789 C790 1.516 . S
C790 C789 1.516 . S
C790 C791 1.502 1_455 S
C790 C792 1.561 . S
C790 C793 1.526 . S
C791 H775 0.959 . S
C791 H776 0.959 . S
C791 H777 0.961 . S
C791 C790 1.502 1_655 S
C792 H778 0.960 . S
C792 H779 0.961 . S
C792 H780 0.959 . S
C792 C790 1.561 . S
C793 C790 1.526 . S
C793 C794 1.396 1_554 S
C793 C798 1.390 . S
C794 C788 1.465 1_556 S
C794 C793 1.396 1_556 S
C794 C795 1.399 . S
C795 H781 0.929 . S
C795 C794 1.399 . S
C795 C796 1.385 . S
C796 H782 0.931 . S
C796 C795 1.385 . S
C796 C797 1.389 . S
C797 C796 1.389 . S
C797 C798 1.387 1_556 S
C798 H783 0.930 . S
C798 C793 1.390 . S
C798 C797 1.387 1_554 S
H799 C811 0.930 . S
H800 C813 0.930 . S
H801 C814 0.930 . S
H802 C818 0.959 . S
H803 C818 0.959 . S
H804 C818 0.961 . S
H805 C819 0.960 . S
H806 C819 0.961 . S
H807 C819 0.959 . S
H808 C822 0.929 . S
H809 C823 0.931 . S
H810 C825 0.930 . S
C811 H799 0.930 . S
C811 C812 1.404 . S
C811 C816 1.376 1_565 S
C812 C811 1.404 . S
C812 C813 1.366 1_565 S
C813 H800 0.930 . S
C813 C812 1.366 1_545 S
C813 C814 1.388 . S
C814 H801 0.930 . S
C814 C813 1.388 . S
C814 C815 1.390 . S
C815 C814 1.390 . S
C815 C816 1.438 . S
C815 C821 1.465 . S
C816 C811 1.376 1_545 S
C816 C815 1.438 . S
C816 C817 1.502 1_545 S
C817 C816 1.502 1_565 S
C817 C818 1.502 1_554 S
C817 C819 1.561 . S
C817 C820 1.526 1_565 S
C818 H802 0.959 . S
C818 H803 0.959 . S
C818 H804 0.961 . S
C818 C817 1.502 1_556 S
C819 H805 0.960 . S
C819 H806 0.961 . S
C819 H807 0.959 . S
C819 C817 1.561 . S
C820 C817 1.526 1_545 S
C820 C821 1.396 . S
C820 C825 1.390 1_554 S
C821 C815 1.465 . S
C821 C820 1.396 . S
C821 C822 1.399 . S
C822 H808 0.929 . S
C822 C821 1.399 . S
C822 C823 1.385 1_554 S
C823 H809 0.931 . S
C823 C822 1.385 1_556 S
C823 C824 1.389 . S
C824 C823 1.389 . S
C824 C825 1.387 . S
C825 H810 0.930 . S
C825 C820 1.390 1_556 S
C825 C824 1.387 . S
H826 C838 0.930 . S
H827 C840 0.930 . S
H828 C841 0.930 . S
H829 C845 0.959 . S
H830 C845 0.959 . S
H831 C845 0.961 . S
H832 C846 0.960 . S
H833 C846 0.961 . S
H834 C846 0.959 . S
H835 C849 0.929 . S
H836 C850 0.931 . S
H837 C852 0.930 . S
C838 H826 0.930 . S
C838 C839 1.399 . S
C838 C843 1.399 . S
C839 C838 1.399 . S
C839 C840 1.376 . S
C840 H827 0.930 . S
C840 C839 1.376 . S
C840 C841 1.388 . S
C841 H828 0.930 . S
C841 C840 1.388 . S
C841 C842 1.390 . S
C842 C841 1.390 . S
C842 C843 1.394 . S
C842 C848 1.465 . S
C843 C838 1.399 . S
C843 C842 1.394 . S
C843 C844 1.516 . S
C844 C843 1.516 . S
C844 C845 1.502 1_554 S
C844 C846 1.561 . S
C844 C847 1.526 . S
C845 H829 0.959 . S
C845 H830 0.959 . S
C845 H831 0.961 . S
C845 C844 1.502 1_556 S
C846 H832 0.960 . S
C846 H833 0.961 . S
C846 H834 0.959 . S
C846 C844 1.561 . S
C847 C844 1.526 . S
C847 C848 1.396 . S
C847 C852 1.390 1_554 S
C848 C842 1.465 . S
C848 C847 1.396 . S
C848 C849 1.399 . S
C849 H835 0.929 . S
C849 C848 1.399 . S
C849 C850 1.385 . S
C850 H836 0.931 . S
C850 C849 1.385 . S
C850 C851 1.389 1_554 S
C851 C850 1.389 1_556 S
C851 C852 1.387 . S
C852 H837 0.930 . S
C852 C847 1.390 1_556 S
C852 C851 1.387 . S
H853 C865 0.930 . S
H854 C867 0.930 . S
H855 C868 0.930 . S
H856 C872 0.959 . S
H857 C872 0.959 . S
H858 C872 0.961 1_554 S
H859 C873 0.960 . S
H860 C873 0.961 . S
H861 C873 0.959 . S
H862 C876 0.929 . S
H863 C877 0.931 . S
H864 C879 0.930 . S
C865 H853 0.930 . S
C865 C866 1.399 . S
C865 C870 1.399 . S
C866 C865 1.399 . S
C866 C867 1.376 . S
C867 H854 0.930 . S
C867 C866 1.376 . S
C867 C868 1.388 . S
C868 H855 0.930 . S
C868 C867 1.388 . S
C868 C869 1.390 . S
C869 C868 1.390 . S
C869 C870 1.394 . S
C869 C875 1.465 . S
C870 C865 1.399 . S
C870 C869 1.394 . S
C870 C871 1.516 . S
C871 C870 1.516 . S
C871 C872 1.502 1_554 S
C871 C873 1.561 . S
C871 C874 1.526 . S
C872 H856 0.959 . S
C872 H857 0.959 . S
C872 H858 0.961 1_556 S
C872 C871 1.502 1_556 S
C873 H859 0.960 . S
C873 H860 0.961 . S
C873 H861 0.959 . S
C873 C871 1.561 . S
C874 C871 1.526 . S
C874 C875 1.396 . S
C874 C879 1.390 1_554 S
C875 C869 1.465 . S
C875 C874 1.396 . S
C875 C876 1.399 . S
C876 H862 0.929 . S
C876 C875 1.399 . S
C876 C877 1.385 1_554 S
C877 H863 0.931 . S
C877 C876 1.385 1_556 S
C877 C878 1.389 . S
C878 C877 1.389 . S
C878 C879 1.387 . S
C879 H864 0.930 . S
C879 C874 1.390 1_556 S
C879 C878 1.387 . S
H880 C892 0.930 . S
H881 C894 0.930 . S
H882 C895 0.930 . S
H883 C899 0.959 . S
H884 C899 0.959 . S
H885 C899 0.961 . S
H886 C900 0.960 . S
H887 C900 0.961 . S
H888 C900 0.959 . S
H889 C903 0.929 . S
H890 C904 0.931 . S
H891 C906 0.930 1_655 S
C892 H880 0.930 . S
C892 C893 1.399 1_655 S
C892 C897 1.399 1_655 S
C893 C892 1.399 1_455 S
C893 C894 1.376 . S
C894 H881 0.930 . S
C894 C893 1.376 . S
C894 C895 1.388 . S
C895 H882 0.930 . S
C895 C894 1.388 . S
C895 C896 1.390 . S
C896 C895 1.390 . S
C896 C897 1.394 . S
C896 C902 1.465 . S
C897 C892 1.399 1_455 S
C897 C896 1.394 . S
C897 C898 1.516 1_455 S
C898 C897 1.516 1_655 S
C898 C899 1.502 . S
C898 C900 1.561 1_655 S
C898 C901 1.526 1_655 S
C899 H883 0.959 . S
C899 H884 0.959 . S
C899 H885 0.961 . S
C899 C898 1.502 . S
C900 H886 0.960 . S
C900 H887 0.961 . S
C900 H888 0.959 . S
C900 C898 1.561 1_455 S
C901 C898 1.526 1_455 S
C901 C902 1.396 . S
C901 C906 1.390 . S
C902 C896 1.465 . S
C902 C901 1.396 . S
C902 C903 1.399 . S
C903 H889 0.929 . S
C903 C902 1.399 . S
C903 C904 1.385 . S
C904 H890 0.931 . S
C904 C903 1.385 . S
C904 C905 1.389 . S
C905 C904 1.389 . S
C905 C906 1.387 . S
C906 H891 0.930 1_455 S
C906 C901 1.390 . S
C906 C905 1.387 . S
H907 C919 0.930 . S
H908 C921 0.930 . S
H909 C922 0.930 . S
H910 C926 0.959 1_545 S
H911 C926 0.959 . S
H912 C926 0.961 . S
H913 C927 0.960 . S
H914 C927 0.961 . S
H915 C927 0.959 . S
H916 C930 0.929 . S
H917 C931 0.931 . S
H918 C933 0.930 . S
C919 H907 0.930 . S
C919 C920 1.399 1_565 S
C919 C924 1.399 . S
C920 C919 1.399 1_545 S
C920 C921 1.376 . S
C921 H908 0.930 . S
C921 C920 1.376 . S
C921 C922 1.388 . S
C922 H909 0.930 . S
C922 C921 1.388 . S
C922 C923 1.390 . S
C923 C922 1.390 . S
C923 C924 1.394 1_545 S
C923 C929 1.465 . S
C924 C919 1.399 . S
C924 C923 1.394 1_565 S
C924 C925 1.516 . S
C925 C924 1.516 . S
C925 C926 1.502 . S
C925 C927 1.561 . S
C925 C928 1.536 . S
C926 H910 0.959 1_565 S
C926 H911 0.959 . S
C926 H912 0.961 . S
C926 C925 1.502 . S
C927 H913 0.960 . S
C927 H914 0.961 . S
C927 H915 0.959 . S
C927 C925 1.561 . S
C928 C925 1.536 . S
C928 C929 1.384 1_565 S
C928 C933 1.390 . S
C929 C923 1.465 . S
C929 C928 1.384 1_545 S
C929 C930 1.399 . S
C930 H916 0.929 . S
C930 C929 1.399 . S
C930 C931 1.385 . S
C931 H917 0.931 . S
C931 C930 1.385 . S
C931 C932 1.389 . S
C932 C931 1.389 . S
C932 C933 1.387 1_545 S
C933 H918 0.930 . S
C933 C928 1.390 . S
C933 C932 1.387 1_565 S
H934 C946 0.930 . S
H935 C948 0.930 . S
H936 C949 0.930 . S
H937 C953 0.959 . S
H938 C953 0.959 . S
H939 C953 0.961 . S
H940 C954 0.960 . S
H941 C954 0.961 . S
H942 C954 0.959 . S
H943 C957 0.929 . S
H944 C958 0.931 . S
H945 C960 0.930 . S
C946 H934 0.930 . S
C946 C947 1.399 . S
C946 C951 1.399 . S
C947 C946 1.399 . S
C947 C948 1.376 . S
C948 H935 0.930 . S
C948 C947 1.376 . S
C948 C949 1.388 . S
C949 H936 0.930 . S
C949 C948 1.388 . S
C949 C950 1.390 . S
C950 C949 1.390 . S
C950 C951 1.394 . S
C950 C956 1.465 . S
C951 C946 1.399 . S
C951 C950 1.394 . S
C951 C952 1.516 . S
C952 C951 1.516 . S
C952 C953 1.502 . S
C952 C954 1.561 . S
C952 C955 1.526 . S
C953 H937 0.959 . S
C953 H938 0.959 . S
C953 H939 0.961 . S
C953 C952 1.502 . S
C954 H940 0.960 . S
C954 H941 0.961 . S
C954 H942 0.959 . S
C954 C952 1.561 . S
C955 C952 1.526 . S
C955 C956 1.396 . S
C955 C960 1.390 . S
C956 C950 1.465 . S
C956 C955 1.396 . S
C956 C957 1.399 . S
C957 H943 0.929 . S
C957 C956 1.399 . S
C957 C958 1.385 . S
C958 H944 0.931 . S
C958 C957 1.385 . S
C958 C959 1.389 . S
C959 C958 1.389 . S
C959 C960 1.387 . S
C960 H945 0.930 . S
C960 C955 1.390 . S
C960 C959 1.387 . S
H961 C973 0.930 . S
H962 C975 0.930 . S
H963 C976 0.930 . S
H964 C980 0.959 . S
H965 C980 0.959 . S
H966 C980 0.961 . S
H967 C981 0.960 . S
H968 C981 0.961 . S
H969 C981 0.959 . S
H970 C984 0.929 . S
H971 C985 0.931 . S
H972 C987 0.930 . S
C973 H961 0.930 . S
C973 C974 1.399 . S
C973 C978 1.399 . S
C974 C973 1.399 . S
C974 C975 1.376 . S
C975 H962 0.930 . S
C975 C974 1.376 . S
C975 C976 1.388 . S
C976 H963 0.930 . S
C976 C975 1.388 . S
C976 C977 1.390 . S
C977 C976 1.390 . S
C977 C978 1.394 . S
C977 C983 1.465 . S
C978 C973 1.399 . S
C978 C977 1.394 . S
C978 C979 1.516 . S
C979 C978 1.516 . S
C979 C980 1.502 . S
C979 C981 1.561 . S
C979 C982 1.526 . S
C980 H964 0.959 . S
C980 H965 0.959 . S
C980 H966 0.961 . S
C980 C979 1.502 . S
C981 H967 0.960 . S
C981 H968 0.961 . S
C981 H969 0.959 . S
C981 C979 1.561 . S
C982 C979 1.526 . S
C982 C983 1.396 . S
C982 C987 1.390 . S
C983 C977 1.465 . S
C983 C982 1.396 . S
C983 C984 1.399 . S
C984 H970 0.929 . S
C984 C983 1.399 . S
C984 C985 1.385 . S
C985 H971 0.931 . S
C985 C984 1.385 . S
C985 C986 1.389 . S
C986 C985 1.389 . S
C986 C987 1.387 . S
C987 H972 0.930 . S
C987 C982 1.390 . S
C987 C986 1.387 . S
H988 C1000 0.925 1_455 S
H989 C1002 0.930 . S
H990 C1003 0.930 . S
H991 C1007 0.959 . S
H992 C1007 0.959 . S
H993 C1007 0.961 . S
H994 C1008 0.960 . S
H995 C1008 0.961 . S
H996 C1008 0.959 . S
H997 C1011 0.929 . S
H998 C1012 0.931 . S
H999 C1014 0.930 . S
C1000 H988 0.925 1_655 S
C1000 C1001 1.401 . S
C1000 C1005 1.401 . S
C1001 C1000 1.401 . S
C1001 C1002 1.376 . S
C1002 H989 0.930 . S
C1002 C1001 1.376 . S
C1002 C1003 1.388 . S
C1003 H990 0.930 . S
C1003 C1002 1.388 . S
C1003 C1004 1.390 . S
C1004 C1003 1.390 . S
C1004 C1005 1.394 . S
C1004 C1010 1.465 . S
C1005 C1000 1.401 . S
C1005 C1004 1.394 . S
C1005 C1006 1.516 . S
C1006 C1005 1.516 . S
C1006 C1007 1.502 1_655 S
C1006 C1008 1.561 . S
C1006 C1009 1.526 . S
C1007 H991 0.959 . S
C1007 H992 0.959 . S
C1007 H993 0.961 . S
C1007 C1006 1.502 1_455 S
C1008 H994 0.960 . S
C1008 H995 0.961 . S
C1008 H996 0.959 . S
C1008 C1006 1.561 . S
C1009 C1006 1.526 . S
C1009 C1010 1.396 . S
C1009 C1014 1.390 . S
C1010 C1004 1.465 . S
C1010 C1009 1.396 . S
C1010 C1011 1.399 . S
C1011 H997 0.929 . S
C1011 C1010 1.399 . S
C1011 C1012 1.385 . S
C1012 H998 0.931 . S
C1012 C1011 1.385 . S
C1012 C1013 1.389 . S
C1013 C1012 1.389 . S
C1013 C1014 1.387 . S
C1014 H999 0.930 . S
C1014 C1009 1.390 . S
C1014 C1013 1.387 . S
H1015 C1027 0.930 . S
H1016 C1029 0.930 . S
H1017 C1030 0.930 . S
H1018 C1034 0.959 . S
H1019 C1034 0.959 . S
H1020 C1034 0.961 . S
H1021 C1035 0.960 . S
H1022 C1035 0.961 . S
H1023 C1035 0.959 . S
H1024 C1038 0.929 . S
H1025 C1039 0.931 . S
H1026 C1041 0.930 . S
C1027 H1015 0.930 . S
C1027 C1028 1.401 . S
C1027 C1032 1.399 . S
C1028 C1027 1.401 . S
C1028 C1029 1.374 1_565 S
C1029 H1016 0.930 . S
C1029 C1028 1.374 1_545 S
C1029 C1030 1.388 . S
C1030 H1017 0.930 . S
C1030 C1029 1.388 . S
C1030 C1031 1.390 . S
C1031 C1030 1.390 . S
C1031 C1032 1.394 1_545 S
C1031 C1037 1.465 . S
C1032 C1027 1.399 . S
C1032 C1031 1.394 1_565 S
C1032 C1033 1.516 . S
C1033 C1032 1.516 . S
C1033 C1034 1.502 . S
C1033 C1035 1.561 . S
C1033 C1036 1.526 . S
C1034 H1018 0.959 . S
C1034 H1019 0.959 . S
C1034 H1020 0.961 . S
C1034 C1033 1.502 . S
C1035 H1021 0.960 . S
C1035 H1022 0.961 . S
C1035 H1023 0.959 . S
C1035 C1033 1.561 . S
C1036 C1033 1.526 . S
C1036 C1037 1.396 1_565 S
C1036 C1041 1.390 . S
C1037 C1031 1.465 . S
C1037 C1036 1.396 1_545 S
C1037 C1038 1.399 . S
C1038 H1024 0.929 . S
C1038 C1037 1.399 . S
C1038 C1039 1.385 . S
C1039 H1025 0.931 . S
C1039 C1038 1.385 . S
C1039 C1040 1.389 1_545 S
C1040 C1039 1.389 1_565 S
C1040 C1041 1.387 . S
C1041 H1026 0.930 . S
C1041 C1036 1.390 . S
C1041 C1040 1.387 . S
H1042 C1054 0.930 . S
H1043 C1056 0.930 . S
H1044 C1057 0.930 . S
H1045 C1061 0.959 . S
H1046 C1061 0.959 . S
H1047 C1061 0.961 . S
H1048 C1062 0.960 . S
H1049 C1062 0.961 . S
H1050 C1062 0.959 . S
H1051 C1065 0.929 . S
H1052 C1066 0.931 . S
H1053 C1068 0.930 . S
C1054 H1042 0.930 . S
C1054 C1055 1.399 . S
C1054 C1059 1.399 . S
C1055 C1054 1.399 . S
C1055 C1056 1.376 . S
C1056 H1043 0.930 . S
C1056 C1055 1.376 . S
C1056 C1057 1.388 . S
C1057 H1044 0.930 . S
C1057 C1056 1.388 . S
C1057 C1058 1.390 . S
C1058 C1057 1.390 . S
C1058 C1059 1.394 . S
C1058 C1064 1.465 . S
C1059 C1054 1.399 . S
C1059 C1058 1.394 . S
C1059 C1060 1.516 . S
C1060 C1059 1.516 . S
C1060 C1061 1.502 . S
C1060 C1062 1.561 . S
C1060 C1063 1.526 . S
C1061 H1045 0.959 . S
C1061 H1046 0.959 . S
C1061 H1047 0.961 . S
C1061 C1060 1.502 . S
C1062 H1048 0.960 . S
C1062 H1049 0.961 . S
C1062 H1050 0.959 . S
C1062 C1060 1.561 . S
C1063 C1060 1.526 . S
C1063 C1064 1.396 . S
C1063 C1068 1.390 . S
C1064 C1058 1.465 . S
C1064 C1063 1.396 . S
C1064 C1065 1.399 . S
C1065 H1051 0.929 . S
C1065 C1064 1.399 . S
C1065 C1066 1.385 . S
C1066 H1052 0.931 . S
C1066 C1065 1.385 . S
C1066 C1067 1.389 . S
C1067 C1066 1.389 . S
C1067 C1068 1.387 . S
C1068 H1053 0.930 . S
C1068 C1063 1.390 . S
C1068 C1067 1.387 . S
H1069 C1081 0.930 . S
H1070 C1083 0.930 . S
H1071 C1084 0.930 . S
H1072 C1088 0.959 . S
H1073 C1088 0.959 . S
H1074 C1088 0.961 . S
H1075 C1089 0.960 . S
H1076 C1089 0.961 . S
H1077 C1089 0.959 . S
H1078 C1092 0.929 . S
H1079 C1093 0.931 . S
H1080 C1095 0.930 . S
C1081 H1069 0.930 . S
C1081 C1082 1.399 . S
C1081 C1086 1.399 . S
C1082 C1081 1.399 . S
C1082 C1083 1.376 . S
C1083 H1070 0.930 . S
C1083 C1082 1.376 . S
C1083 C1084 1.388 . S
C1084 H1071 0.930 . S
C1084 C1083 1.388 . S
C1084 C1085 1.390 . S
C1085 C1084 1.390 . S
C1085 C1086 1.394 . S
C1085 C1091 1.465 . S
C1086 C1081 1.399 . S
C1086 C1085 1.394 . S
C1086 C1087 1.516 . S
C1087 C1086 1.516 . S
C1087 C1088 1.502 . S
C1087 C1089 1.561 . S
C1087 C1090 1.526 . S
C1088 H1072 0.959 . S
C1088 H1073 0.959 . S
C1088 H1074 0.961 . S
C1088 C1087 1.502 . S
C1089 H1075 0.960 . S
C1089 H1076 0.961 . S
C1089 H1077 0.959 . S
C1089 C1087 1.561 . S
C1090 C1087 1.526 . S
C1090 C1091 1.396 . S
C1090 C1095 1.390 . S
C1091 C1085 1.465 . S
C1091 C1090 1.396 . S
C1091 C1092 1.399 . S
C1092 H1078 0.929 . S
C1092 C1091 1.399 . S
C1092 C1093 1.385 . S
C1093 H1079 0.931 . S
C1093 C1092 1.385 . S
C1093 C1094 1.389 . S
C1094 C1093 1.389 . S
C1094 C1095 1.387 . S
C1095 H1080 0.930 . S
C1095 C1090 1.390 . S
C1095 C1094 1.387 . S
C461 C241 2.147 1_565 S
C473 C297 2.333 . S
C500 C337 2.362 . S
C488 C277 2.229 . S
C527 C377 2.367 . S
C515 C169 2.076 . S
C554 C417 2.363 1_455 S
C542 C205 2.114 . S
C581 C306 2.350 1_565 S
C569 C97 2.155 1_565 S
C596 C133 2.223 . S
C608 C346 2.364 . S
C623 C25 2.161 . S
C635 C386 2.361 . S
C650 C61 2.154 . S
C662 C426 2.349 1_655 S
C689 C303 0.511 . S
C677 C211 0.304 . S
C716 C343 0.401 . S
C704 C247 0.531 . S
C743 C383 0.564 . S
C731 C253 0.382 . S
C758 C175 0.404 . S
C770 C423 0.569 . S
C785 C67 0.473 1_655 S
C797 C294 0.512 . S
C824 C334 0.577 . S
C812 C103 0.348 1_565 S
C851 C374 0.561 . S
C839 C109 0.295 . S
C866 C31 0.354 . S
C878 C414 0.575 . S
C893 C181 2.822 . S
C905 C307 3.211 . S
C920 C217 2.858 . S
C932 C347 3.187 . S
C959 C387 3.195 . S
C947 C283 2.743 . S
C986 C427 3.198 . S
C974 C145 2.794 . S
C1001 C37 2.887 1_655 S
C1013 C298 3.217 . S
C1040 C338 3.169 . S
C1028 C73 2.828 1_565 S
C1067 C378 3.189 . S
C1055 C139 2.772 . S
C1082 C1 2.869 . S
C1094 C418 3.202 . S
