# Generated by pormake.
# Topology zzz, (3,6)-cn, num edge types: 1
# Building blocks:
#     Node 0, Type 0, BuildingBlock: BELTOD_clean_linker_0, # of connection points: 3
#     Node 1, Type 0, BuildingBlock: BELTOD_clean_linker_0, # of connection points: 3
#     Node 2, Type 0, BuildingBlock: BELTOD_clean_linker_0, # of connection points: 3
#     Node 3, Type 0, BuildingBlock: BELTOD_clean_linker_0, # of connection points: 3
#     Node 4, Type 0, BuildingBlock: BELTOD_clean_linker_0, # of connection points: 3
#     Node 5, Type 0, BuildingBlock: BELTOD_clean_linker_0, # of connection points: 3
#     Node 6, Type 0, BuildingBlock: BELTOD_clean_linker_0, # of connection points: 3
#     Node 7, Type 0, BuildingBlock: BELTOD_clean_linker_0, # of connection points: 3
#     Node 8, Type 1, BuildingBlock: KUMJIN_clean_sbu_1, # of connection points: 6
#     Node 9, Type 1, BuildingBlock: KUMJIN_clean_sbu_1, # of connection points: 6
#     Node 10, Type 1, BuildingBlock: KUMJIN_clean_sbu_1, # of connection points: 6
#     Node 11, Type 1, BuildingBlock: KUMJIN_clean_sbu_1, # of connection points: 6
#     Edge 12, Type (0, 1), BuildingBlock: XUDNAN_clean_linker_2, # of connection points: 2
#     Edge 13, Type (0, 1), BuildingBlock: XUDNAN_clean_linker_2, # of connection points: 2
#     Edge 14, Type (0, 1), BuildingBlock: XUDNAN_clean_linker_2, # of connection points: 2
#     Edge 15, Type (0, 1), BuildingBlock: XUDNAN_clean_linker_2, # of connection points: 2
#     Edge 16, Type (0, 1), BuildingBlock: XUDNAN_clean_linker_2, # of connection points: 2
#     Edge 17, Type (0, 1), BuildingBlock: XUDNAN_clean_linker_2, # of connection points: 2
#     Edge 18, Type (0, 1), BuildingBlock: XUDNAN_clean_linker_2, # of connection points: 2
#     Edge 19, Type (0, 1), BuildingBlock: XUDNAN_clean_linker_2, # of connection points: 2
#     Edge 20, Type (0, 1), BuildingBlock: XUDNAN_clean_linker_2, # of connection points: 2
#     Edge 21, Type (0, 1), BuildingBlock: XUDNAN_clean_linker_2, # of connection points: 2
#     Edge 22, Type (0, 1), BuildingBlock: XUDNAN_clean_linker_2, # of connection points: 2
#     Edge 23, Type (0, 1), BuildingBlock: XUDNAN_clean_linker_2, # of connection points: 2
#     Edge 24, Type (0, 1), BuildingBlock: XUDNAN_clean_linker_2, # of connection points: 2
#     Edge 25, Type (0, 1), BuildingBlock: XUDNAN_clean_linker_2, # of connection points: 2
#     Edge 26, Type (0, 1), BuildingBlock: XUDNAN_clean_linker_2, # of connection points: 2
#     Edge 27, Type (0, 1), BuildingBlock: XUDNAN_clean_linker_2, # of connection points: 2
#     Edge 28, Type (0, 1), BuildingBlock: XUDNAN_clean_linker_2, # of connection points: 2
#     Edge 29, Type (0, 1), BuildingBlock: XUDNAN_clean_linker_2, # of connection points: 2
#     Edge 30, Type (0, 1), BuildingBlock: XUDNAN_clean_linker_2, # of connection points: 2
#     Edge 31, Type (0, 1), BuildingBlock: XUDNAN_clean_linker_2, # of connection points: 2
#     Edge 32, Type (0, 1), BuildingBlock: XUDNAN_clean_linker_2, # of connection points: 2
#     Edge 33, Type (0, 1), BuildingBlock: XUDNAN_clean_linker_2, # of connection points: 2
#     Edge 34, Type (0, 1), BuildingBlock: XUDNAN_clean_linker_2, # of connection points: 2
#     Edge 35, Type (0, 1), BuildingBlock: XUDNAN_clean_linker_2, # of connection points: 2
# Relax obj value: 0.300
# Max RMSD: 0.192
# Mean RMSD: 0.171
data_MOF--net-zzz--node1-KUMJIN_clean_sbu_1--node2-BELTOD_clean_linker_0--edge1-XUDNAN_clean_linker_2
_symmetry_space_group_name_H-M    P1
_symmetry_Int_Tables_number       1
_symmetry_cell_setting            triclinic
loop_
_symmetry_equiv_pos_as_xyz
'x, y, z'
_cell_length_a     53.015231
_cell_length_b     53.132395
_cell_length_c     19.616212
_cell_angle_alpha  89.912976
_cell_angle_beta   89.954926
_cell_angle_gamma 90.331411
loop_
_atom_site_label
_atom_site_type_symbol
_atom_site_fract_x
_atom_site_fract_y
_atom_site_fract_z
_atom_type_partial_charge
P0 P 0.72263 0.5293 0.30569 0.0
H1 H 0.74077 0.49963 0.42314 0.0
H2 H 0.77892 0.50526 0.48738 0.0
H3 H 0.78073 0.5837 0.4264 0.0
H4 H 0.74204 0.57754 0.36413 0.0
H5 H 0.67578 0.49981 0.29864 0.0
H6 H 0.64351 0.50015 0.21093 0.0
H7 H 0.66588 0.57518 0.15227 0.0
H8 H 0.69841 0.57496 0.24195 0.0
H9 H 0.77753 0.53681 0.30684 0.0
H10 H 0.71813 0.53864 0.15621 0.0
O11 O 0.72396 0.49794 0.30232 0.0
H12 H 0.80733 0.55065 0.22321 0.0
H13 H 0.749 0.55089 0.07039 0.0
C14 C 0.73834 0.53793 0.38636 0.0
C15 C 0.74878 0.51838 0.42566 0.0
C16 C 0.77159 0.5216 0.46164 0.0
C17 C 0.78518 0.54461 0.45998 0.0
C18 C 0.77241 0.56518 0.42885 0.0
C19 C 0.74927 0.56195 0.39375 0.0
C20 C 0.69053 0.53697 0.27617 0.0
C21 C 0.67324 0.51694 0.26957 0.0
C22 C 0.65472 0.51704 0.21842 0.0
C23 C 0.65257 0.5373 0.17243 0.0
C24 C 0.66707 0.55909 0.18604 0.0
C25 C 0.68564 0.55904 0.23818 0.0
C26 C 0.74462 0.53941 0.24086 0.0
C27 C 0.77024 0.54187 0.25745 0.0
C28 C 0.78758 0.54958 0.20909 0.0
C29 C 0.78013 0.55289 0.1414 0.0
C30 C 0.75477 0.5498 0.12329 0.0
C31 C 0.73713 0.54273 0.17267 0.0
P32 P 0.00815 0.72864 0.30739 0.0
H33 H 0.03127 0.74607 0.43608 0.0
H34 H 0.02456 0.78611 0.49364 0.0
H35 H 0.95174 0.79211 0.39775 0.0
H36 H 0.95846 0.75197 0.34024 0.0
H37 H 0.04108 0.6988 0.22347 0.0
H38 H 0.03431 0.66531 0.14265 0.0
H39 H 0.9577 0.65676 0.21365 0.0
H40 H 0.9648 0.69089 0.29698 0.0
H41 H 0.02851 0.77598 0.2578 0.0
H42 H 0.96463 0.72781 0.21431 0.0
O43 O 0.03944 0.73169 0.31409 0.0
H44 H 0.01407 0.80552 0.17129 0.0
H45 H 0.95051 0.757 0.12683 0.0
C46 C 0.99576 0.74582 0.38147 0.0
C47 C 0.01324 0.7552 0.4296 0.0
C48 C 0.00948 0.77847 0.46259 0.0
C49 C 0.988 0.79302 0.44876 0.0
C50 C 0.96889 0.78186 0.40844 0.0
C51 C 0.97258 0.75848 0.37606 0.0
C52 C 1.00368 0.69747 0.26841 0.0
C53 C 0.02294 0.68935 0.2242 0.0
C54 C 0.01889 0.67032 0.17613 0.0
C55 C 0.99528 0.6585 0.16971 0.0
C56 C 0.9762 0.66541 0.21667 0.0
C57 C 0.98031 0.68479 0.26523 0.0
C58 C 0.99842 0.74911 0.2401 0.0
C59 C 0.01165 0.77155 0.22897 0.0
C60 C 1.00309 0.78859 0.1806 0.0
C61 C 0.98107 0.78344 0.14307 0.0
C62 C 0.96755 0.76122 0.15518 0.0
C63 C 0.97597 0.74433 0.20423 0.0
P64 P 0.79671 1.00065 0.29757 0.0
H65 H 0.78946 0.02689 0.42759 0.0
H66 H 0.75246 0.02612 0.50016 0.0
H67 H 0.73118 0.95375 0.41792 0.0
H68 H 0.76852 0.95479 0.34455 0.0
H69 H 0.82861 0.04152 0.24738 0.0
H70 H 0.86276 0.04269 0.16814 0.0
H71 H 0.87322 0.96266 0.19083 0.0
H72 H 0.83739 0.96137 0.27205 0.0
H73 H 0.74324 1.00139 0.27655 0.0
H74 H 0.80744 0.96798 0.17532 0.0
O75 O 0.78796 0.03077 0.29268 0.0
H76 H 0.71698 0.98996 0.18013 0.0
H77 H 0.78135 0.95818 0.07784 0.0
C78 C 0.78198 0.99123 0.37863 0.0
C79 C 0.77767 0.01018 0.42718 0.0
C80 C 0.75596 0.00984 0.46851 0.0
C81 C 0.73793 0.99021 0.46397 0.0
C82 C 0.74395 0.96965 0.42167 0.0
C83 C 0.76588 0.96996 0.3806 0.0
C84 C 0.82963 1.00129 0.26669 0.0
C85 C 0.83829 0.02403 0.23797 0.0
C86 C 0.8582 0.02473 0.19139 0.0
C87 C 0.87097 1.00278 0.17164 0.0
C88 C 0.86372 0.97999 0.20379 0.0
C89 C 0.84356 0.97935 0.25177 0.0
C90 C 0.77754 0.98615 0.23327 0.0
C91 C 0.75163 0.99096 0.23495 0.0
C92 C 0.73658 0.98422 0.18028 0.0
C93 C 0.74749 0.9734 0.12227 0.0
C94 C 0.77278 0.96637 0.12271 0.0
C95 C 0.78779 0.97254 0.17849 0.0
P96 P 0.52415 0.80402 0.2994 0.0
H97 H 0.50201 0.7939 0.434 0.0
H98 H 0.50372 0.75592 0.50179 0.0
H99 H 0.57166 0.73363 0.39696 0.0
H100 H 0.56941 0.77183 0.32759 0.0
H101 H 0.48832 0.84121 0.24746 0.0
H102 H 0.49304 0.87423 0.16317 0.0
H103 H 0.57368 0.87143 0.18564 0.0
H104 H 0.56898 0.8389 0.27485 0.0
H105 H 0.50525 0.75587 0.25453 0.0
H106 H 0.5662 0.80613 0.19816 0.0
O107 O 0.49286 0.80051 0.30433 0.0
H108 H 0.51813 0.72713 0.16444 0.0
H109 H 0.57796 0.77822 0.10608 0.0
C110 C 0.53526 0.78614 0.37402 0.0
C111 C 0.51799 0.78155 0.42708 0.0
C112 C 0.5189 0.75927 0.46598 0.0
C113 C 0.53752 0.74077 0.45453 0.0
C114 C 0.55649 0.74672 0.40646 0.0
C115 C 0.55552 0.76913 0.36745 0.0
C116 C 0.52833 0.83658 0.26766 0.0
C117 C 0.50716 0.84826 0.23777 0.0
C118 C 0.50977 0.86737 0.18868 0.0
C119 C 0.53367 0.87544 0.16698 0.0
C120 C 0.55491 0.86573 0.20136 0.0
C121 C 0.55221 0.84703 0.25259 0.0
C122 C 0.53363 0.78401 0.23066 0.0
C123 C 0.52105 0.76102 0.22225 0.0
C124 C 0.52873 0.74442 0.17187 0.0
C125 C 0.54903 0.75071 0.12904 0.0
C126 C 0.56225 0.77319 0.13886 0.0
C127 C 0.55496 0.7895 0.19055 0.0
P128 P 0.30239 0.46226 1.00913 0.0
H129 H 0.2869 0.45053 0.86872 0.0
H130 H 0.24695 0.45763 0.8108 0.0
H131 H 0.22746 0.51378 0.95933 0.0
H132 H 0.26747 0.50607 0.0194 0.0
H133 H 0.35163 0.43978 0.03258 0.0
H134 H 0.38304 0.44705 0.11936 0.0
H135 H 0.34896 0.51834 0.16768 0.0
H136 H 0.31731 0.51119 0.07743 0.0
H137 H 0.25378 0.43657 0.01219 0.0
H138 H 0.30469 0.46917 0.16039 0.0
O139 O 0.3102 0.43498 0.97284 0.0
H140 H 0.21967 0.43817 0.09634 0.0
H141 H 0.27068 0.4716 0.24182 0.0
C142 C 0.28088 0.4779 0.94886 0.0
C143 C 0.27484 0.46532 0.88767 0.0
C144 C 0.2517 0.46928 0.85429 0.0
C145 C 0.23394 0.48641 0.87987 0.0
C146 C 0.24084 0.50076 0.93742 0.0
C147 C 0.26399 0.49654 0.97154 0.0
C148 C 0.33157 0.47476 0.04765 0.0
C149 C 0.35122 0.45759 0.05921 0.0
C150 C 0.36918 0.46159 0.11047 0.0
C151 C 0.36813 0.48282 0.15326 0.0
C152 C 0.35033 0.50158 0.13663 0.0
C153 C 0.33229 0.49764 0.08412 0.0
C154 C 0.28151 0.45409 0.07821 0.0
C155 C 0.25789 0.44341 0.06298 0.0
C156 C 0.23846 0.44418 0.11092 0.0
C157 C 0.24276 0.4554 0.17437 0.0
C158 C 0.26711 0.46309 0.19254 0.0
C159 C 0.28649 0.46214 0.145 0.0
P160 P 0.06872 0.30658 0.01453 0.0
H161 H 0.07443 0.29469 0.86861 0.0
H162 H 0.06575 0.25614 0.80532 0.0
H163 H 0.02047 0.22841 0.9722 0.0
H164 H 0.02878 0.26747 0.03521 0.0
H165 H 0.09616 0.3496 0.06543 0.0
H166 H 0.08691 0.37982 0.15432 0.0
H167 H 0.00854 0.35809 0.14942 0.0
H168 H 0.01802 0.32699 0.05927 0.0
H169 H 0.10019 0.26219 0.02503 0.0
H170 H 0.0515 0.30487 0.15795 0.0
O171 O 0.0961 0.31355 0.97665 0.0
H172 H 0.0971 0.22641 0.10326 0.0
H173 H 0.04803 0.26974 0.23363 0.0
C174 C 0.05219 0.2846 0.95718 0.0
C175 C 0.06174 0.28094 0.89095 0.0
C176 C 0.05703 0.25849 0.85485 0.0
C177 C 0.04278 0.23868 0.88388 0.0
C178 C 0.03193 0.24291 0.94848 0.0
C179 C 0.03625 0.26565 0.98409 0.0
C180 C 0.05784 0.3359 0.05412 0.0
C181 C 0.07666 0.35194 0.08044 0.0
C182 C 0.07141 0.36922 0.13232 0.0
C183 C 0.04705 0.37132 0.15976 0.0
C184 C 0.02752 0.35707 0.12922 0.0
C185 C 0.03288 0.33941 0.07701 0.0
C186 C 0.07592 0.28621 0.08481 0.0
C187 C 0.08983 0.26435 0.07226 0.0
C188 C 0.08783 0.24384 0.11648 0.0
C189 C 0.07206 0.2452 0.17387 0.0
C190 C 0.06054 0.26812 0.19017 0.0
C191 C 0.06244 0.28843 0.14601 0.0
P192 P 0.22232 0.07204 0.01853 0.0
H193 H 0.23606 0.0887 0.88124 0.0
H194 H 0.2731 0.08295 0.81472 0.0
H195 H 0.29417 0.01984 0.94256 0.0
H196 H 0.25715 0.02746 0.01262 0.0
H197 H 0.17721 0.10004 0.0543 0.0
H198 H 0.14599 0.09288 0.14147 0.0
H199 H 0.16828 0.01513 0.1558 0.0
H200 H 0.19899 0.02207 0.06307 0.0
H201 H 0.25544 0.11107 0.0761 0.0
H202 H 0.23329 0.03471 0.12387 0.0
O203 O 0.21808 0.10186 0.99411 0.0
H204 H 0.28351 0.11106 0.17555 0.0
H205 H 0.25946 0.03537 0.22391 0.0
C206 C 0.24329 0.05874 0.95315 0.0
C207 C 0.24824 0.07317 0.89458 0.0
C208 C 0.27018 0.06969 0.8556 0.0
C209 C 0.28819 0.05099 0.8719 0.0
C210 C 0.28194 0.03505 0.9277 0.0
C211 C 0.26006 0.03901 0.96781 0.0
C212 C 0.1915 0.06187 0.05243 0.0
C213 C 0.175 0.08104 0.07333 0.0
C214 C 0.1572 0.07703 0.12498 0.0
C215 C 0.15533 0.05374 0.1589 0.0
C216 C 0.16947 0.03354 0.13225 0.0
C217 C 0.18716 0.03753 0.07892 0.0
C218 C 0.24139 0.07323 0.09379 0.0
C219 C 0.25579 0.09471 0.10901 0.0
C220 C 0.27158 0.09483 0.16595 0.0
C221 C 0.27273 0.0736 0.20846 0.0
C222 C 0.25798 0.05239 0.19363 0.0
C223 C 0.24287 0.05204 0.1361 0.0
P224 P 0.45311 0.22824 0.01518 0.0
H225 H 0.43696 0.24513 0.8797 0.0
H226 H 0.44589 0.28309 0.81579 0.0
H227 H 0.50915 0.29909 0.94753 0.0
H228 H 0.49953 0.26075 0.01315 0.0
H229 H 0.43607 0.17599 0.04038 0.0
H230 H 0.44823 0.14557 0.12789 0.0
H231 H 0.5149 0.18956 0.1701 0.0
H232 H 0.50256 0.22017 0.08289 0.0
H233 H 0.44586 0.28339 0.03002 0.0
H234 H 0.44163 0.21777 0.15976 0.0
O235 O 0.42553 0.21848 0.98353 0.0
H236 H 0.45283 0.30971 0.12859 0.0
H237 H 0.44627 0.24435 0.25933 0.0
C238 C 0.46768 0.24935 0.95144 0.0
C239 C 0.45341 0.25608 0.89384 0.0
C240 C 0.45851 0.27827 0.85706 0.0
C241 C 0.4782 0.29481 0.87613 0.0
C242 C 0.49357 0.28728 0.93136 0.0
C243 C 0.48849 0.26482 0.96813 0.0
C244 C 0.46852 0.20059 0.0533 0.0
C245 C 0.45402 0.17862 0.06572 0.0
C246 C 0.46091 0.16109 0.11653 0.0
C247 C 0.48246 0.16507 0.15697 0.0
C248 C 0.49807 0.18588 0.14043 0.0
C249 C 0.49121 0.20334 0.08951 0.0
C250 C 0.44596 0.24825 0.08687 0.0
C251 C 0.44613 0.27454 0.07967 0.0
C252 C 0.44953 0.2898 0.13669 0.0
C253 C 0.4515 0.27895 0.20187 0.0
C254 C 0.44627 0.25312 0.20946 0.0
C255 C 0.44358 0.23785 0.15227 0.0
Eu256 Eu 0.98473 0.03116 0.59653 0.0
C257 C 0.0816 0.03332 0.78705 0.0
N258 N 0.07702 0.02149 0.72672 0.0
C259 C 0.11941 0.02991 0.69021 0.0
C260 C 0.10539 0.04419 0.8008 0.0
C261 C 0.09557 0.01936 0.67881 0.0
C262 C 0.12432 0.04246 0.7513 0.0
C263 C 0.06721 0.04514 0.90018 0.0
C264 C 0.06268 0.03385 0.83622 0.0
C265 C 0.09066 0.05652 0.91327 0.0
C266 C 0.10972 0.05598 0.86382 0.0
Eu267 Eu 0.03663 1.00301 0.7149 0.0
N268 N 0.04025 0.02235 0.82269 0.0
C269 C 0.04833 0.04386 0.95003 0.0
C270 C 0.02298 0.01887 0.87334 0.0
C271 C 0.02629 0.03024 0.93692 0.0
H272 H 0.09234 0.00893 0.63249 0.0
H273 H 0.01219 0.02785 0.97638 0.0
H274 H 0.93109 0.0203 0.68574 0.0
H275 H 0.01206 1.00246 0.34009 0.0
H276 H 0.00722 1.0064 0.86614 0.0
H277 H 0.05107 0.0523 0.99974 0.0
H278 H 0.01856 0.02125 0.45286 0.0
H279 H 0.13409 0.02808 0.65219 0.0
H280 H 0.09445 0.06528 0.96208 0.0
H281 H 0.12789 0.0644 0.87524 0.0
H282 H 0.88922 1.00177 0.66449 0.0
H283 H 0.1429 0.05041 0.76018 0.0
H284 H 0.97092 0.98309 0.31147 0.0
N285 N 0.94576 0.01021 0.58856 0.0
C286 C 0.94084 1.00005 0.52621 0.0
C287 C 0.90365 1.00092 0.6255 0.0
C288 C 0.91683 0.98987 0.51139 0.0
C289 C 0.9276 0.01104 0.63781 0.0
C290 C 0.89822 0.99034 0.56205 0.0
N291 N 0.98287 0.00994 0.49163 0.0
C292 C 1.00128 0.01137 0.44314 0.0
C293 C 0.95478 0.99011 0.41112 0.0
C294 C 0.95973 1.00012 0.47645 0.0
C295 C 0.974 0.99062 0.36211 0.0
C296 C 0.99732 1.00135 0.3782 0.0
H297 H 0.87951 0.98284 0.55241 0.0
H298 H 0.89357 0.97222 0.43406 0.0
H299 H 0.92674 0.97237 0.34655 0.0
O300 O 0.98479 0.0577 0.51277 0.0
O301 O 0.98528 0.98774 0.60561 0.0
O302 O 0.02698 0.97878 0.62313 0.0
O303 O 0.95306 0.0569 0.58222 0.0
O304 O 0.02599 0.04001 0.57077 0.0
O305 O 0.04785 1.00482 0.60264 0.0
O306 O 0.02906 0.97035 0.77734 0.0
O307 O 0.03616 0.04657 0.71559 0.0
O308 O 0.99685 0.05913 0.67739 0.0
O309 O 0.06743 0.97666 0.7377 0.0
O310 O 0.99488 0.99782 0.74581 0.0
O311 O 0.97462 0.03319 0.70863 0.0
C312 C 1.00417 0.9716 0.60561 0.0
C313 C 0.9624 0.09556 0.52537 0.0
C314 C 0.97554 0.13382 0.46673 0.0
C315 C 0.95894 0.14781 0.50734 0.0
C316 C 0.94559 0.10965 0.56517 0.0
C317 C 0.94399 0.1357 0.55622 0.0
C318 C 0.97724 0.10782 0.47628 0.0
C319 C 0.0452 0.02468 0.5634 0.0
C320 C 0.96347 0.06797 0.52993 0.0
C321 C 0.91197 0.97993 0.4464 0.0
C322 C 0.93086 0.98004 0.39651 0.0
C323 C 0.01872 0.06393 0.70635 0.0
C324 C 0.05989 0.93908 0.80641 0.0
C325 C 0.04774 0.89943 0.85761 0.0
C326 C 0.07316 0.89263 0.86303 0.0
C327 C 0.08539 0.93239 0.81187 0.0
C328 C 0.04119 0.9226 0.83002 0.0
C329 C 0.09196 0.90921 0.84046 0.0
C330 C 0.97731 0.01504 0.75337 0.0
C331 C 0.05224 0.9624 0.77309 0.0
H332 H 0.95719 0.16795 0.50035 0.0
H333 H 0.93353 0.10057 0.60251 0.0
H334 H 0.93092 0.14649 0.5867 0.0
H335 H 0.99014 0.09708 0.44493 0.0
H336 H 0.07837 0.87468 0.88499 0.0
H337 H 0.10013 0.94491 0.79371 0.0
H338 H 0.02139 0.92745 0.82579 0.0
H339 H 0.11161 0.90403 0.84473 0.0
Eu340 Eu 0.52014 0.04059 0.72379 0.0
C341 C 0.50765 0.93232 0.58632 0.0
N342 N 0.51897 0.9532 0.55996 0.0
C343 C 0.54703 0.92751 0.49444 0.0
C344 C 0.51561 0.90805 0.56695 0.0
C345 C 0.53837 0.95115 0.51446 0.0
C346 C 0.53556 0.90586 0.52061 0.0
C347 C 0.47572 0.91368 0.65994 0.0
C348 C 0.48785 0.93513 0.63236 0.0
C349 C 0.48347 0.88956 0.64014 0.0
C350 C 0.50332 0.88675 0.59377 0.0
Eu351 Eu 0.50057 0.99194 0.59009 0.0
N352 N 0.48054 0.95872 0.65047 0.0
C353 C 0.45598 0.91706 0.70632 0.0
C354 C 0.46086 0.962 0.6944 0.0
C355 C 0.44856 0.94134 0.72366 0.0
H356 H 0.54629 0.96773 0.49081 0.0
H357 H 0.43311 0.94418 0.75889 0.0
H358 H 0.47133 0.06306 0.8153 0.0
H359 H 0.589 0.09128 0.56556 0.0
H360 H 0.45434 0.98037 0.70702 0.0
H361 H 0.44622 0.90106 0.72859 0.0
H362 H 0.56568 0.05435 0.60592 0.0
H363 H 0.56222 0.92601 0.45778 0.0
H364 H 0.47419 0.87292 0.66037 0.0
H365 H 0.50904 0.868 0.57893 0.0
H366 H 0.45625 0.10418 0.85641 0.0
H367 H 0.54211 0.88755 0.50429 0.0
H368 H 0.57792 0.13357 0.60793 0.0
N369 N 0.50161 0.07877 0.75772 0.0
C370 C 0.51411 0.10001 0.73824 0.0
C371 C 0.47246 0.10327 0.82296 0.0
C372 C 0.50641 0.12384 0.76174 0.0
C373 C 0.48084 0.08003 0.79879 0.0
C374 C 0.48541 0.12525 0.80482 0.0
N375 N 0.54118 0.07486 0.67081 0.0
C376 C 0.56048 0.07237 0.62523 0.0
C377 C 0.54762 0.11981 0.67238 0.0
C378 C 0.53457 0.09799 0.69416 0.0
C379 C 0.56748 0.11727 0.62594 0.0
C380 C 0.57378 0.09345 0.60187 0.0
H381 H 0.479 0.1432 0.82418 0.0
H382 H 0.51434 0.16391 0.75976 0.0
H383 H 0.55034 0.16037 0.68135 0.0
O384 O 0.55494 0.03311 0.77559 0.0
O385 O 0.50536 0.0576 0.62356 0.0
O386 O 0.51488 0.02828 0.54168 0.0
O387 O 0.52504 0.05376 0.82945 0.0
O388 O 0.55203 0.01664 0.67953 0.0
O389 O 0.54188 1.00296 0.57174 0.0
O390 O 0.46355 0.99195 0.54378 0.0
O391 O 0.51782 0.97607 0.68865 0.0
O392 O 0.5039 1.0043 0.76679 0.0
O393 O 0.49628 0.97948 0.48388 0.0
O394 O 0.47008 0.01942 0.62994 0.0
O395 O 0.48034 0.02646 0.74121 0.0
C396 C 0.5082 0.05121 0.55885 0.0
C397 C 0.56393 0.04514 0.89087 0.0
C398 C 0.60346 0.03357 0.94268 0.0
C399 C 0.59591 0.04491 1.00393 0.0
C400 C 0.55616 0.05631 0.95211 0.0
C401 C 0.57222 0.05617 1.00857 0.0
C402 C 0.58753 0.03378 0.88664 0.0
C403 C 0.55875 0.00779 0.6194 0.0
C404 C 0.54747 0.04398 0.83164 0.0
C405 C 0.51983 0.14548 0.7416 0.0
C406 C 0.54035 0.14347 0.69701 0.0
C407 C 0.51367 0.98231 0.75269 0.0
C408 C 0.45528 0.97872 0.42855 0.0
C409 C 0.41656 0.98896 0.36989 0.0
C410 C 0.42386 0.97374 0.31495 0.0
C411 C 0.46251 0.96336 0.37392 0.0
C412 C 0.43212 0.9911 0.42679 0.0
C413 C 0.44668 0.96075 0.31743 0.0
C414 C 0.46355 0.02593 0.6924 0.0
C415 C 0.47206 0.98311 0.48622 0.0
H416 H 0.60816 0.04472 0.04811 0.0
H417 H 0.53776 0.0649 0.95644 0.0
H418 H 0.56626 0.06466 0.05599 0.0
H419 H 0.59371 0.02501 0.8396 0.0
H420 H 0.41201 0.97209 0.27019 0.0
H421 H 0.48039 0.95359 0.37469 0.0
H422 H 0.42669 1.00347 0.46821 0.0
H423 H 0.4523 0.94901 0.27508 0.0
Eu424 Eu 0.53747 0.5023 0.59517 0.0
C425 C 0.4395 0.50426 0.78839 0.0
N426 N 0.44464 0.51589 0.72809 0.0
C427 C 0.40133 0.51183 0.69444 0.0
C428 C 0.41477 0.49613 0.80413 0.0
C429 C 0.42603 0.51976 0.68118 0.0
C430 C 0.39565 0.50003 0.75621 0.0
C431 C 0.45384 0.48933 0.89878 0.0
C432 C 0.45887 0.50087 0.8352 0.0
C433 C 0.42926 0.48124 0.91441 0.0
C434 C 0.40978 0.48466 0.86729 0.0
Eu435 Eu 0.48636 0.53079 0.71361 0.0
N436 N 0.48246 0.5093 0.81939 0.0
C437 C 0.47353 0.48672 0.94558 0.0
C438 C 0.50132 0.50787 0.86654 0.0
C439 C 0.49734 0.4962 0.92948 0.0
H440 H 0.42992 0.52973 0.63436 0.0
H441 H 0.51255 0.49504 0.96616 0.0
H442 H 0.59424 0.50424 0.67259 0.0
H443 H 0.50698 0.54389 0.35378 0.0
H444 H 0.51927 0.51636 0.85768 0.0
H445 H 0.47041 0.478 0.99486 0.0
H446 H 0.5017 0.52096 0.46111 0.0
H447 H 0.3866 0.51516 0.65739 0.0
H448 H 0.42507 0.47252 0.96314 0.0
H449 H 0.39087 0.47848 0.88037 0.0
H450 H 0.63708 0.52001 0.64825 0.0
H451 H 0.37642 0.49415 0.7666 0.0
H452 H 0.54891 0.56076 0.32185 0.0
N453 N 0.57844 0.51895 0.58147 0.0
C454 C 0.58275 0.53136 0.52183 0.0
C455 C 0.62195 0.52348 0.61251 0.0
C456 C 0.60717 0.5401 0.50503 0.0
C457 C 0.59754 0.51492 0.62673 0.0
C458 C 0.62682 0.53602 0.55128 0.0
N459 N 0.5393 0.52671 0.49439 0.0
C460 C 0.51963 0.52925 0.45026 0.0
C461 C 0.56688 0.54778 0.41447 0.0
C462 C 0.56274 0.53524 0.47704 0.0
C463 C 0.54647 0.55124 0.37033 0.0
C464 C 0.52276 0.54188 0.3883 0.0
H465 H 0.64584 0.54236 0.54006 0.0
H466 H 0.62998 0.55898 0.42857 0.0
H467 H 0.59475 0.56571 0.34943 0.0
O468 O 0.53025 0.47256 0.5208 0.0
O469 O 0.53808 0.54577 0.60346 0.0
O470 O 0.49617 0.55247 0.61725 0.0
O471 O 0.56735 0.47563 0.57032 0.0
O472 O 0.49623 0.49321 0.5705 0.0
O473 O 0.47413 0.52816 0.60188 0.0
O474 O 0.49598 0.56434 0.77036 0.0
O475 O 0.48617 0.48752 0.71052 0.0
O476 O 0.52742 0.4774 0.6867 0.0
O477 O 0.45713 0.55829 0.73729 0.0
O478 O 0.52784 0.53602 0.7491 0.0
O479 O 0.54936 0.50216 0.70588 0.0
C480 C 0.51879 0.56126 0.60366 0.0
C481 C 0.56184 0.44204 0.48837 0.0
C482 C 0.55362 0.40116 0.43777 0.0
C483 C 0.57927 0.39933 0.42041 0.0
C484 C 0.58743 0.43995 0.47118 0.0
C485 C 0.59603 0.41873 0.43675 0.0
C486 C 0.54487 0.42279 0.4707 0.0
C487 C 0.47648 0.50785 0.56425 0.0
C488 C 0.55306 0.4638 0.52692 0.0
C489 C 0.61129 0.55239 0.44257 0.0
C490 C 0.59122 0.55623 0.39749 0.0
C491 C 0.50476 0.47115 0.70894 0.0
C492 C 0.46463 0.58868 0.82504 0.0
C493 C 0.47304 0.6263 0.8902 0.0
C494 C 0.4484 0.62575 0.91603 0.0
C495 C 0.43991 0.58788 0.85078 0.0
C496 C 0.48113 0.60769 0.84585 0.0
C497 C 0.43194 0.60634 0.89676 0.0
C498 C 0.54717 0.5204 0.75078 0.0
C499 C 0.47299 0.57299 0.7686 0.0
H500 H 0.58633 0.38286 0.39431 0.0
H501 H 0.60073 0.45472 0.48436 0.0
H502 H 0.61576 0.41718 0.42333 0.0
H503 H 0.52515 0.42415 0.48501 0.0
H504 H 0.44193 0.64035 0.95018 0.0
H505 H 0.42668 0.57355 0.83413 0.0
H506 H 0.50004 0.60884 0.82464 0.0
H507 H 0.41282 0.60597 0.91612 0.0
Eu508 Eu 0.02725 0.54183 0.61091 0.0
C509 C 0.02443 0.44225 0.79101 0.0
N510 N 0.01454 0.44691 0.72832 0.0
C511 C 0.01856 0.40348 0.69799 0.0
C512 C 0.03148 0.41764 0.80983 0.0
C513 C 0.01172 0.42812 0.68157 0.0
C514 C 0.02821 0.39816 0.76263 0.0
C515 C 0.04063 0.45803 0.89879 0.0
C516 C 0.02877 0.46233 0.83538 0.0
C517 C 0.04648 0.43338 0.9188 0.0
C518 C 0.04189 0.41325 0.87453 0.0
Eu519 Eu 0.9975 0.4873 0.71511 0.0
N520 N 0.02321 0.48614 0.81447 0.0
C521 C 0.04705 0.47867 0.93945 0.0
C522 C 0.03072 0.50629 0.8527 0.0
C523 C 0.04255 0.50291 0.91556 0.0
H524 H 1.00311 0.43187 0.63278 0.0
H525 H 0.04831 0.51907 0.94541 0.0
H526 H 0.02818 0.59727 0.69243 0.0
H527 H 0.99855 0.52174 0.34838 0.0
H528 H 0.02861 0.52505 0.8351 0.0
H529 H 0.05627 0.47614 0.98824 0.0
H530 H 0.01991 0.51393 0.45692 0.0
H531 H 0.01595 0.38852 0.66125 0.0
H532 H 0.0552 0.42976 0.96778 0.0
H533 H 0.04703 0.39441 0.89022 0.0
H534 H 0.01084 0.64001 0.67884 0.0
H535 H 0.03331 0.37901 0.77535 0.0
H536 H 0.97731 0.56233 0.32854 0.0
N537 N 0.01235 0.5835 0.60062 0.0
C538 C 1.00014 0.5893 0.54181 0.0
C539 C 0.00739 0.62585 0.6403 0.0
C540 C 0.99068 0.61372 0.53051 0.0
C541 C 0.01665 0.60148 0.64881 0.0
C542 C 0.99416 0.63196 0.5811 0.0
N543 N 0.00776 0.54783 0.50331 0.0
C544 C 0.0091 0.53076 0.45158 0.0
C545 C 0.98633 0.57685 0.42876 0.0
C546 C 0.99785 0.571 0.49167 0.0
C547 C 0.98585 0.55854 0.37763 0.0
C548 C 0.99767 0.53554 0.38876 0.0
H549 H 0.98724 0.65095 0.57425 0.0
H550 H 0.97123 0.63801 0.45919 0.0
H551 H 0.96753 0.60576 0.37 0.0
O552 O 0.05953 0.53505 0.54661 0.0
O553 O 0.98391 0.54184 0.60771 0.0
O554 O 0.96959 0.50195 0.63551 0.0
O555 O 0.05668 0.5711 0.60064 0.0
O556 O 0.03189 0.50134 0.57017 0.0
O557 O 0.9975 0.47772 0.60261 0.0
O558 O 0.97222 0.48409 0.80188 0.0
O559 O 0.04041 0.48559 0.6984 0.0
O560 O 0.05016 0.5273 0.70087 0.0
O561 O 0.97007 0.4567 0.72062 0.0
O562 O 0.98691 0.52705 0.74898 0.0
O563 O 0.02073 0.55245 0.72266 0.0
C564 C 0.96577 0.5247 0.61079 0.0
C565 C 0.09375 0.5644 0.52909 0.0
C566 C 0.13011 0.55238 0.46118 0.0
C567 C 0.14246 0.57469 0.48115 0.0
C568 C 0.10614 0.58664 0.5485 0.0
C569 C 0.13037 0.59182 0.52399 0.0
C570 C 0.10552 0.54783 0.48403 0.0
C571 C 0.0159 0.48257 0.55981 0.0
C572 C 0.06967 0.55692 0.55973 0.0
C573 C 0.97858 0.61935 0.46873 0.0
C574 C 0.97643 0.60097 0.41798 0.0
C575 C 0.05724 0.50373 0.70652 0.0
C576 C 0.93214 0.46727 0.77462 0.0
C577 C 0.89393 0.48849 0.80879 0.0
C578 C 0.87943 0.4696 0.77776 0.0
C579 C 0.91753 0.44849 0.74291 0.0
C580 C 0.92015 0.48741 0.80706 0.0
C581 C 0.89125 0.44976 0.7443 0.0
C582 C 1.00044 0.54754 0.75958 0.0
C583 C 0.95969 0.46521 0.7759 0.0
H584 H 0.16162 0.57867 0.46509 0.0
H585 H 0.09738 0.59966 0.58359 0.0
H586 H 0.14004 0.60885 0.53957 0.0
H587 H 0.09564 0.53097 0.4677 0.0
H588 H 0.85903 0.4699 0.78103 0.0
H589 H 0.92641 0.43268 0.71792 0.0
H590 H 0.93102 0.50167 0.83376 0.0
H591 H 0.88005 0.43513 0.72054 0.0
H592 H 0.12473 0.0146 0.21171 0.0
H593 H 0.15394 0.08903 0.25985 0.0
H594 H 0.13049 0.08862 0.36762 0.0
H595 H 0.06233 0.024 0.28478 0.0
H596 H 0.05975 0.99247 0.31814 0.0
H597 H 0.07873 0.99855 0.24364 0.0
H598 H 0.11699 0.9782 0.30432 0.0
H599 H 0.09805 0.97255 0.37921 0.0
H600 H 0.12708 0.99021 0.38584 0.0
H601 H 0.10231 0.08187 0.46812 0.0
H602 H 0.07202 0.06809 0.55677 0.0
H603 H 0.06234 0.99681 0.45273 0.0
C604 C 0.12631 0.03074 0.24508 0.0
C605 C 0.14102 0.05208 0.22561 0.0
C606 C 0.1424 0.07271 0.27159 0.0
C607 C 0.12925 0.07261 0.33371 0.0
C608 C 0.11473 0.05163 0.35077 0.0
C609 C 0.11318 0.03097 0.30817 0.0
C610 C 0.09587 0.011 0.33958 0.0
C611 C 0.07281 1.00623 0.29379 0.0
C612 C 0.11037 0.98653 0.35304 0.0
C613 C 0.08815 0.02367 0.40622 0.0
C614 C 0.09915 0.04724 0.41099 0.0
C615 C 0.09383 0.06333 0.46529 0.0
C616 C 0.07659 0.05537 0.5155 0.0
C617 C 0.0651 0.03132 0.51235 0.0
C618 C 0.07129 0.01509 0.45733 0.0
H619 H 0.48317 0.11244 0.18194 0.0
H620 H 0.49028 0.18492 0.28211 0.0
H621 H 0.49672 0.16364 0.39202 0.0
H622 H 0.45087 0.07959 0.32314 0.0
H623 H 0.46751 0.05039 0.3122 0.0
H624 H 0.46227 0.07073 0.24002 0.0
H625 H 0.5102 0.07169 0.21569 0.0
H626 H 0.51559 0.0514 0.28788 0.0
H627 H 0.5317 0.0813 0.28203 0.0
H628 H 0.50141 0.13563 0.49214 0.0
H629 H 0.50675 0.10216 0.57681 0.0
H630 H 0.50034 0.04592 0.4174 0.0
C631 C 0.48609 0.12377 0.22711 0.0
C632 C 0.48652 0.15062 0.2226 0.0
C633 C 0.49034 0.16454 0.28333 0.0
C634 C 0.49384 0.15256 0.34642 0.0
C635 C 0.49371 0.12635 0.34918 0.0
C636 C 0.4901 0.11194 0.29137 0.0
C637 C 0.49176 0.08392 0.30985 0.0
C638 C 0.46661 0.07037 0.29543 0.0
C639 C 0.51362 0.07134 0.27157 0.0
C640 C 0.49703 0.08509 0.38662 0.0
C641 C 0.49765 0.10986 0.40776 0.0
C642 C 0.50127 0.11617 0.47599 0.0
C643 C 0.50446 0.09684 0.52408 0.0
C644 C 0.50468 0.07115 0.50467 0.0
C645 C 0.50081 0.0653 0.43437 0.0
H646 H 0.39331 0.52315 0.21894 0.0
H647 H 0.37718 0.44322 0.23862 0.0
H648 H 0.40173 0.4418 0.34437 0.0
H649 H 0.45785 0.51967 0.28676 0.0
H650 H 0.45598 0.54922 0.33135 0.0
H651 H 0.43758 0.5442 0.2553 0.0
H652 H 0.39701 0.55526 0.32242 0.0
H653 H 0.41536 0.55999 0.3987 0.0
H654 H 0.38937 0.53796 0.39893 0.0
H655 H 0.42891 0.44788 0.44679 0.0
H656 H 0.45663 0.4617 0.54078 0.0
H657 H 0.45436 0.53823 0.46424 0.0
C658 C 0.39487 0.50538 0.2456 0.0
C659 C 0.38337 0.4832 0.2187 0.0
C660 C 0.38613 0.46041 0.25603 0.0
C661 C 0.39996 0.4594 0.31697 0.0
C662 C 0.41111 0.48135 0.34158 0.0
C663 C 0.40882 0.50397 0.30732 0.0
C664 C 0.42308 0.52464 0.34578 0.0
C665 C 0.44491 0.53505 0.30219 0.0
C666 C 0.40513 0.54571 0.36777 0.0
C667 C 0.43311 0.51016 0.40741 0.0
C668 C 0.42618 0.48511 0.40301 0.0
C669 C 0.4342 0.46752 0.45112 0.0
C670 C 0.44993 0.47555 0.50458 0.0
C671 C 0.45733 0.50107 0.51101 0.0
C672 C 0.44846 0.5187 0.46197 0.0
H673 H 0.01553 0.41199 0.19272 0.0
H674 H 0.0715 0.36179 0.27788 0.0
H675 H 0.06897 0.38403 0.38793 0.0
H676 H 0.03912 0.46798 0.28171 0.0
H677 H 0.00824 0.48118 0.29411 0.0
H678 H 0.01418 0.46109 0.22205 0.0
H679 H 0.97707 0.43227 0.25969 0.0
H680 H 0.97137 0.45223 0.33221 0.0
H681 H 0.97697 0.41909 0.34446 0.0
H682 H 0.06183 0.41247 0.48859 0.0
H683 H 0.04971 0.44478 0.57315 0.0
H684 H 0.99688 0.47627 0.4282 0.0
C685 C 0.027 0.40556 0.23487 0.0
C686 C 0.04368 0.38494 0.22643 0.0
C687 C 0.05865 0.37747 0.28276 0.0
C688 C 0.05734 0.39001 0.34568 0.0
C689 C 0.04102 0.41033 0.35235 0.0
C690 C 0.02609 0.41816 0.29858 0.0
C691 C 0.01078 0.44114 0.31957 0.0
C692 C 0.01854 0.46421 0.2768 0.0
C693 C 0.98235 0.43585 0.31364 0.0
C694 C 0.0188 0.44439 0.39384 0.0
C695 C 0.03661 0.42661 0.41113 0.0
C696 C 0.04778 0.42637 0.47563 0.0
C697 C 0.04077 0.44478 0.5235 0.0
C698 C 0.02237 0.46305 0.5077 0.0
C699 C 0.01106 0.46261 0.44198 0.0
H700 H 0.88194 0.97139 0.05854 0.0
H701 H 0.90699 0.03929 0.16205 0.0
H702 H 0.93505 0.04923 0.06633 0.0
H703 H 0.94612 0.95678 0.98682 0.0
H704 H 0.93371 0.94466 0.90784 0.0
H705 H 0.91549 0.94189 0.98514 0.0
H706 H 0.87833 0.96446 0.92608 0.0
H707 H 0.8966 0.96766 0.84901 0.0
H708 H 0.88333 0.99512 0.88879 0.0
H709 H 0.95538 0.05599 0.95417 0.0
H710 H 0.97578 0.05383 0.84128 0.0
H711 H 0.94491 0.97889 0.8117 0.0
C712 C 0.89376 0.98803 0.06174 0.0
C713 C 0.89148 1.00492 0.11799 0.0
C714 C 0.90752 0.0264 0.11937 0.0
C715 C 0.92369 0.03225 0.06501 0.0
C716 C 0.92456 0.01613 0.00931 0.0
C717 C 0.91081 0.99395 1.00783 0.0
C718 C 0.91635 0.97984 0.94139 0.0
C719 C 0.92865 0.95428 0.95621 0.0
C720 C 0.89221 0.97658 0.89882 0.0
C721 C 0.93493 0.99783 0.90617 0.0
C722 C 0.93875 0.01889 0.94611 0.0
C723 C 0.95308 0.03931 0.92315 0.0
C724 C 0.96444 0.03803 0.85861 0.0
C725 C 0.96241 0.01611 0.81815 0.0
C726 C 0.94726 0.99571 0.84219 0.0
H727 H 0.52694 0.92677 0.13798 0.0
H728 H 0.54394 0.85503 0.04439 0.0
H729 H 0.54163 0.8747 0.93034 0.0
H730 H 0.48351 0.94937 0.01867 0.0
H731 H 0.49451 0.98154 0.01622 0.0
H732 H 0.49941 0.96275 0.09147 0.0
H733 H 0.54743 0.97159 0.08517 0.0
H734 H 0.5426 0.99066 0.01022 0.0
H735 H 0.5643 0.96472 1.00766 0.0
H736 H 0.53447 0.90097 0.8259 0.0
H737 H 0.52572 0.93261 0.7377 0.0
H738 H 0.51394 0.9889 0.89459 0.0
C739 C 0.53075 0.91543 0.0934 0.0
C740 C 0.53597 0.88929 0.10029 0.0
C741 C 0.54037 0.87505 0.04058 0.0
C742 C 0.53897 0.88608 0.97546 0.0
C743 C 0.5335 0.91167 0.97009 0.0
C744 C 0.52997 0.92639 0.02735 0.0
C745 C 0.52439 0.95353 1.00622 0.0
C746 C 0.49893 0.9623 0.03485 0.0
C747 C 0.54595 0.97117 0.02868 0.0
C748 C 0.52369 0.95129 0.92857 0.0
C749 C 0.52946 0.92701 0.90916 0.0
C750 C 0.53008 0.92007 0.84064 0.0
C751 C 0.52491 0.93829 0.79058 0.0
C752 C 0.51878 0.9634 0.80832 0.0
C753 C 0.51826 0.96988 0.8788 0.0
H754 H 0.61555 0.5666 0.10412 0.0
H755 H 0.65978 0.49841 0.08655 0.0
H756 H 0.63894 0.48855 0.97809 0.0
H757 H 0.55765 0.54002 0.03486 0.0
H758 H 0.54864 0.56774 0.98792 0.0
H759 H 0.56754 0.57073 0.06382 0.0
H760 H 0.6014 0.59534 0.99556 0.0
H761 H 0.58247 0.59242 0.91965 0.0
H762 H 0.61462 0.58155 0.9197 0.0
H763 H 0.61313 0.48429 0.87479 0.0
H764 H 0.58311 0.48555 0.78039 0.0
H765 H 0.55367 0.55642 0.856 0.0
C766 C 0.62089 0.5497 0.07709 0.0
C767 C 0.63932 0.53313 0.10501 0.0
C768 C 0.64559 0.51122 0.06755 0.0
C769 C 0.6339 0.50548 1.00536 0.0
C770 C 0.61568 0.52174 0.97991 0.0
C771 C 0.60904 0.54343 0.01413 0.0
C772 C 0.58815 0.55701 0.97461 0.0
C773 C 0.56407 0.55899 0.01791 0.0
C774 C 0.5972 0.58313 0.95097 0.0
C775 C 0.58414 0.53935 0.91373 0.0
C776 C 0.60048 0.51927 0.91836 0.0
C777 C 0.6004 0.50004 0.87025 0.0
C778 C 0.5832 0.50107 0.81608 0.0
C779 C 0.56599 0.52127 0.80885 0.0
C780 C 0.56664 0.5408 0.85892 0.0
H781 H 0.01268 0.65999 0.03603 0.0
H782 H 0.96836 0.61376 0.17444 0.0
H783 H 0.96339 0.58177 0.08374 0.0
H784 H 0.97659 0.64357 0.88166 0.0
H785 H 1.00408 0.64406 0.82759 0.0
H786 H 1.00276 0.66403 0.90173 0.0
H787 H 0.04445 0.6448 0.94595 0.0
H788 H 0.04589 0.62487 0.87194 0.0
H789 H 0.04678 0.61115 0.95602 0.0
H790 H 0.96411 0.55404 0.97731 0.0
H791 H 0.97135 0.53264 0.86806 0.0
H792 H 0.01762 0.59556 0.80058 0.0
C793 C 1.00194 0.64313 0.04762 0.0
C794 C 0.99097 0.63956 0.11329 0.0
C795 C 0.97673 0.61728 0.12495 0.0
C796 C 0.9739 0.59888 0.07358 0.0
C797 C 0.98522 0.60293 0.01002 0.0
C798 C 0.99889 0.62458 0.99682 0.0
C799 C 0.00943 0.62422 0.92447 0.0
C800 C 0.99752 0.64522 0.88132 0.0
C801 C 0.03836 0.62638 0.92465 0.0
C802 C 1.00064 0.59844 0.90006 0.0
C803 C 0.98615 0.58677 0.9496 0.0
C804 C 0.97541 0.56313 0.93835 0.0
C805 C 0.97963 0.5511 0.87547 0.0
C806 C 0.99497 0.56223 0.82394 0.0
C807 C 1.00561 0.58634 0.8373 0.0
H808 H 0.06494 0.23916 0.31076 0.0
H809 H 0.05844 0.20042 0.11683 0.0
H810 H 0.03558 0.16567 0.17326 0.0
H811 H 0.0696 0.18255 0.42089 0.0
H812 H 0.0505 0.19657 0.48658 0.0
H813 H 0.0702 0.21616 0.43328 0.0
H814 H 0.0312 0.24265 0.39952 0.0
H815 H 0.01132 0.22308 0.45199 0.0
H816 H 1.0041 0.22712 0.36289 0.0
H817 H 0.00893 0.13815 0.24707 0.0
H818 H 0.98185 0.11853 0.33507 0.0
H819 H 1.00432 0.17624 0.47944 0.0
C820 C 0.05936 0.223 0.28062 0.0
C821 C 0.06381 0.22223 0.20982 0.0
C822 C 0.0559 0.201 0.17161 0.0
C823 C 0.04266 0.18131 0.20304 0.0
C824 C 0.0376 0.18322 0.27247 0.0
C825 C 0.04589 0.20341 0.31093 0.0
C826 C 0.03606 0.2021 0.38314 0.0
C827 C 0.05789 0.19916 0.43399 0.0
C828 C 0.0197 0.2251 0.40033 0.0
C829 C 0.02035 0.1784 0.3788 0.0
C830 C 0.0217 0.16764 0.31477 0.0
C831 C 0.008 0.14616 0.29771 0.0
C832 C 0.99268 0.13522 0.34783 0.0
C833 C 0.99111 0.14597 0.41377 0.0
C834 C 1.00509 0.16781 0.42925 0.0
H835 H 0.32216 0.07846 0.18473 0.0
H836 H 0.26785 0.05948 0.34164 0.0
H837 H 0.30185 0.0411 0.41166 0.0
H838 H 0.34989 0.02366 0.18504 0.0
H839 H 0.38178 0.03402 0.16906 0.0
H840 H 0.35586 0.05303 0.14153 0.0
H841 H 0.37315 0.09107 0.21013 0.0
H842 H 0.39962 0.07236 0.2371 0.0
H843 H 0.37998 0.08751 0.29964 0.0
H844 H 0.33919 0.01715 0.45176 0.0
H845 H 0.37728 0.99044 0.45994 0.0
H846 H 0.40584 0.02296 0.27233 0.0
C847 C 0.31782 0.07197 0.23582 0.0
C848 C 0.29278 0.07094 0.25914 0.0
C849 C 0.28722 0.06094 0.32429 0.0
C850 C 0.30636 0.05044 0.36409 0.0
C851 C 0.33076 0.0502 0.33762 0.0
C852 C 0.33659 0.06099 0.27519 0.0
C853 C 0.36285 0.05423 0.25201 0.0
C854 C 0.36253 0.04042 0.18288 0.0
C855 C 0.37991 0.07769 0.24961 0.0
C856 C 0.37035 0.03684 0.30904 0.0
C857 C 0.35195 0.03521 0.3589 0.0
C858 C 0.35394 0.01865 0.41378 0.0
C859 C 0.37538 1.00344 0.41768 0.0
C860 C 0.39397 1.00459 0.36599 0.0
C861 C 0.39158 0.02167 0.31179 0.0
H862 H 0.44674 0.32957 0.2328 0.0
H863 H 0.48489 0.26109 0.29531 0.0
H864 H 0.50981 0.2851 0.37745 0.0
H865 H 0.49993 0.36632 0.22765 0.0
H866 H 0.4857 0.39475 0.25929 0.0
H867 H 0.46667 0.37173 0.2159 0.0
H868 H 0.43678 0.36938 0.32032 0.0
H869 H 0.45593 0.39232 0.36437 0.0
H870 H 0.44947 0.3622 0.40326 0.0
H871 H 0.53516 0.3158 0.43826 0.0
H872 H 0.56068 0.35248 0.47291 0.0
H873 H 0.50833 0.40216 0.37009 0.0
C874 C 0.45985 0.31953 0.26504 0.0
C875 C 0.46324 0.29325 0.25856 0.0
C876 C 0.481 0.28096 0.30096 0.0
C877 C 0.49548 0.29449 0.34769 0.0
C878 C 0.49209 0.32034 0.35166 0.0
C879 C 0.47474 0.33285 0.31168 0.0
C880 C 0.47719 0.36112 0.32025 0.0
C881 C 0.48271 0.37423 0.2517 0.0
C882 C 0.45343 0.3719 0.35408 0.0
C883 C 0.49968 0.36242 0.36788 0.0
C884 C 0.50746 0.3386 0.38656 0.0
C885 C 0.52907 0.33459 0.42517 0.0
C886 C 0.54353 0.35545 0.44408 0.0
C887 C 0.53642 0.37993 0.42386 0.0
C888 C 0.51387 0.38357 0.38689 0.0
H889 H 0.22922 0.5034 0.19059 0.0
H890 H 0.20927 0.42719 0.24904 0.0
H891 H 0.17547 0.44377 0.32437 0.0
H892 H 0.22217 0.53104 0.3499 0.0
H893 H 0.20915 0.5601 0.31856 0.0
H894 H 0.22992 0.54204 0.26539 0.0
H895 H 0.1958 0.54047 0.17078 0.0
H896 H 0.17487 0.5586 0.22363 0.0
H897 H 0.16474 0.52855 0.19063 0.0
H898 H 0.14804 0.46915 0.40225 0.0
H899 H 0.1267 0.50088 0.47245 0.0
H900 H 0.16291 0.56046 0.35526 0.0
C901 C 0.21744 0.49027 0.21876 0.0
C902 C 0.22156 0.46418 0.21519 0.0
C903 C 0.20607 0.44728 0.25189 0.0
C904 C 0.18697 0.45653 0.29438 0.0
C905 C 0.18367 0.48255 0.29794 0.0
C906 C 0.19829 0.49914 0.26041 0.0
C907 C 0.19176 0.52621 0.27506 0.0
C908 C 0.21461 0.54068 0.30395 0.0
C909 C 0.18115 0.53922 0.21123 0.0
C910 C 0.17166 0.52236 0.32846 0.0
C911 C 0.16721 0.49709 0.34086 0.0
C912 C 0.15087 0.48898 0.39187 0.0
C913 C 0.13877 0.50721 0.43124 0.0
C914 C 0.14286 0.53327 0.41877 0.0
C915 C 0.15941 0.54078 0.36626 0.0
H916 H 0.97678 0.83396 0.148 0.0
H917 H 0.97201 0.77014 0.012 0.0
H918 H 0.9767 0.79829 0.91337 0.0
H919 H 0.95195 0.88512 0.01501 0.0
H920 H 0.97448 0.90717 0.04961 0.0
H921 H 0.95886 0.88485 0.10495 0.0
H922 H 1.00239 0.86978 0.1473 0.0
H923 H 0.01823 0.89117 0.09117 0.0
H924 H 0.02497 0.85799 0.08648 0.0
H925 H 0.99805 0.82779 0.83943 0.0
H926 H 0.0295 0.85797 0.79387 0.0
H927 H 0.02182 0.90367 0.97484 0.0
C928 C 0.97521 0.82635 0.09698 0.0
C929 C 0.97412 0.80019 0.08685 0.0
C930 C 0.97249 0.7903 0.02029 0.0
C931 C 0.97516 0.80619 0.96399 0.0
C932 C 0.97907 0.8318 0.97559 0.0
C933 C 0.97829 0.84203 0.04059 0.0
C934 C 0.98855 0.86866 0.04146 0.0
C935 C 0.96719 0.88757 0.05342 0.0
C936 C 0.00979 0.87203 0.09464 0.0
C937 C 0.99843 0.87042 0.96939 0.0
C938 C 0.99183 0.84945 0.93134 0.0
C939 C 1.00248 0.84475 0.86753 0.0
C940 C 0.02056 0.86165 0.8425 0.0
C941 C 0.02773 0.88271 0.88159 0.0
C942 C 0.01606 0.88765 0.94439 0.0
H943 H 0.73935 0.0171 0.0636 0.0
H944 H 0.72475 0.93743 0.04314 0.0
H945 H 0.69155 0.94635 0.95796 0.0
H946 H 0.68147 0.02914 0.09182 0.0
H947 H 0.67988 0.05998 0.05373 0.0
H948 H 0.70945 0.04839 0.08359 0.0
H949 H 0.72919 0.05503 0.96404 0.0
H950 H 0.69954 0.06704 0.93334 0.0
H951 H 0.71449 0.04117 0.8901 0.0
H952 H 0.65312 0.96318 0.90786 0.0
H953 H 0.61234 0.98536 0.90309 0.0
H954 H 0.64885 0.05423 0.9685 0.0
C955 C 0.73007 1.00163 0.03756 0.0
C956 C 0.73441 0.97672 0.05787 0.0
C957 C 0.72171 0.95659 0.02627 0.0
C958 C 0.70294 0.9616 0.97801 0.0
C959 C 0.69719 0.98673 0.96364 0.0
C960 C 0.71053 1.00649 0.99277 0.0
C961 C 0.69662 0.03111 0.98734 0.0
C962 C 0.69156 0.04277 0.05827 0.0
C963 C 0.7108 0.04968 0.94086 0.0
C964 C 0.67262 0.02195 0.95476 0.0
C965 C 0.67365 0.99657 0.93877 0.0
C966 C 0.65231 0.98315 0.91824 0.0
C967 C 0.62927 0.99576 0.91636 0.0
C968 C 0.6279 0.02125 0.93647 0.0
C969 C 0.64982 0.03468 0.95315 0.0
H970 H 0.56114 0.70154 0.12529 0.0
H971 H 0.5435 0.76581 0.99927 0.0
H972 H 0.53128 0.73771 0.90561 0.0
H973 H 0.5771 0.65561 0.96588 0.0
H974 H 0.56345 0.62991 0.0136 0.0
H975 H 0.58172 0.6538 0.05675 0.0
H976 H 0.54417 0.66119 0.13823 0.0
H977 H 0.52546 0.63826 0.0945 0.0
H978 H 0.51395 0.66996 0.10341 0.0
H979 H 0.50527 0.70625 0.85137 0.0
H980 H 0.47514 0.67163 0.82773 0.0
H981 H 0.51003 0.62629 0.9844 0.0
C982 C 0.55655 0.70939 0.07589 0.0
C983 C 0.55332 0.73547 0.06837 0.0
C984 C 0.54649 0.74575 1.00479 0.0
C985 C 0.53946 0.72988 0.95144 0.0
C986 C 0.5401 0.70398 0.96252 0.0
C987 C 0.54964 0.69365 0.02214 0.0
C988 C 0.54389 0.66575 0.02669 0.0
C989 C 0.56797 0.65035 0.015 0.0
C990 C 0.53109 0.65843 0.09468 0.0
C991 C 0.52612 0.66312 0.96705 0.0
C992 C 0.52498 0.68507 0.92904 0.0
C993 C 0.50677 0.68861 0.87867 0.0
C994 C 0.48945 0.66921 0.86656 0.0
C995 C 0.49042 0.64688 0.9053 0.0
C996 C 0.50923 0.64347 0.95469 0.0
H997 H 0.81271 0.51573 0.12794 0.0
H998 H 0.79002 0.58629 0.03652 0.0
H999 H 0.82273 0.58082 0.94639 0.0
H1000 H 0.88022 0.51918 0.0917 0.0
H1001 H 0.8816 0.48595 0.07368 0.0
H1002 H 0.85911 0.49766 0.13463 0.0
H1003 H 0.82245 0.47671 0.06749 0.0
H1004 H 0.84471 0.46462 1.00705 0.0
H1005 H 0.81879 0.48364 0.97807 0.0
H1006 H 0.85459 0.56428 0.86037 0.0
H1007 H 0.88014 0.53727 0.78328 0.0
H1008 H 0.88057 0.47853 0.93622 0.0
C1009 C 0.81518 0.53044 0.09009 0.0
C1010 C 0.79964 0.55169 0.08922 0.0
C1011 C 0.8023 0.57008 0.0377 0.0
C1012 C 0.82082 0.56717 0.98708 0.0
C1013 C 0.83604 0.54579 0.98963 0.0
C1014 C 0.83318 0.52775 0.03995 0.0
C1015 C 0.84921 0.50499 0.0281 0.0
C1016 C 0.86871 0.50178 0.08541 0.0
C1017 C 0.83281 0.48111 0.01965 0.0
C1018 C 0.8614 0.51263 0.96211 0.0
C1019 C 0.85393 0.5363 0.94066 0.0
C1020 C 0.86088 0.54594 0.8771 0.0
C1021 C 0.87517 0.53059 0.83375 0.0
C1022 C 0.88187 0.50613 0.85487 0.0
C1023 C 0.87564 0.49739 0.92006 0.0
H1024 H 0.04635 0.18918 0.93295 0.0
H1025 H 0.03162 0.23193 0.74875 0.0
H1026 H 0.02593 0.19236 0.68487 0.0
H1027 H 0.08165 0.13861 0.84717 0.0
H1028 H 0.0694 0.11404 0.90153 0.0
H1029 H 0.07271 0.14566 0.93372 0.0
H1030 H 0.02543 0.1458 0.96673 0.0
H1031 H 0.02206 0.11419 0.93467 0.0
H1032 H 1.00203 0.13884 0.90272 0.0
H1033 H 0.0188 0.14841 0.64153 0.0
H1034 H 0.01341 0.10299 0.61995 0.0
H1035 H 0.03524 0.08664 0.82826 0.0
C1036 C 0.04181 0.1902 0.87922 0.0
C1037 C 0.03928 0.21401 0.84627 0.0
C1038 C 0.03376 0.21423 0.77551 0.0
C1039 C 0.03042 0.19174 0.73865 0.0
C1040 C 0.03298 0.16875 0.77246 0.0
C1041 C 0.03884 0.16771 0.841 0.0
C1042 C 0.04082 0.14026 0.86421 0.0
C1043 C 0.06774 0.1343 0.88809 0.0
C1044 C 0.02143 0.13443 0.92043 0.0
C1045 C 0.03452 0.12613 0.7985 0.0
C1046 C 0.03002 0.14311 0.74641 0.0
C1047 C 0.02263 0.13501 0.68178 0.0
C1048 C 0.01959 0.10908 0.66997 0.0
C1049 C 0.02423 0.09109 0.72181 0.0
C1050 C 0.03208 0.09982 0.78703 0.0
H1051 H 0.33241 0.02285 0.90216 0.0
H1052 H 0.30289 0.07426 0.74846 0.0
H1053 H 0.34337 0.074 0.69112 0.0
H1054 H 0.39474 0.04543 0.91166 0.0
H1055 H 0.40932 0.01487 0.91503 0.0
H1056 H 0.37764 0.01886 0.94617 0.0
H1057 H 0.36185 0.9838 0.86486 0.0
H1058 H 0.39355 0.97962 0.83357 0.0
H1059 H 0.36833 0.9863 0.77491 0.0
H1060 H 0.38791 0.06802 0.64584 0.0
H1061 H 0.4322 0.05664 0.62027 0.0
H1062 H 0.43374 0.00923 0.80008 0.0
C1063 C 0.33386 0.034 0.85629 0.0
C1064 C 0.3133 0.04906 0.83278 0.0
C1065 C 0.31747 0.06305 0.77142 0.0
C1066 C 0.34078 0.06288 0.7369 0.0
C1067 C 0.36028 0.04816 0.76213 0.0
C1068 C 0.357 0.0337 0.81997 0.0
C1069 C 0.38093 0.01883 0.83488 0.0
C1070 C 0.39127 0.02488 0.90618 0.0
C1071 C 0.37587 0.99046 0.82662 0.0
C1072 C 0.39857 0.02836 0.77886 0.0
C1073 C 0.38601 0.0448 0.73633 0.0
C1074 C 0.39787 0.05519 0.67903 0.0
C1075 C 0.42307 0.04859 0.66471 0.0
C1076 C 0.43659 0.03219 0.70814 0.0
C1077 C 0.42406 0.02208 0.76627 0.0
H1078 H 0.49415 0.34168 0.92764 0.0
H1079 H 0.47066 0.30538 0.7397 0.0
H1080 H 0.4738 0.34594 0.67968 0.0
H1081 H 0.46187 0.40062 0.89989 0.0
H1082 H 0.48673 0.41994 0.93487 0.0
H1083 H 0.48247 0.38805 0.96447 0.0
H1084 H 0.52887 0.37807 0.93377 0.0
H1085 H 0.53329 0.40996 0.90445 0.0
H1086 H 0.54002 0.384 0.84837 0.0
H1087 H 0.47945 0.3909 0.63808 0.0
H1088 H 0.48818 0.43622 0.61897 0.0
H1089 H 0.50895 0.44455 0.83127 0.0
C1090 C 0.48993 0.3421 0.8737 0.0
C1091 C 0.4819 0.31981 0.83924 0.0
C1092 C 0.47635 0.32181 0.7685 0.0
C1093 C 0.47823 0.34493 0.73347 0.0
C1094 C 0.48587 0.36638 0.76901 0.0
C1095 C 0.49176 0.3652 0.83754 0.0
C1096 C 0.49973 0.3912 0.86328 0.0
C1097 C 0.48162 0.40049 0.91895 0.0
C1098 C 0.5271 0.39078 0.889 0.0
C1099 C 0.49742 0.4071 0.79867 0.0
C1100 C 0.48933 0.39232 0.74491 0.0
C1101 C 0.4858 0.40256 0.67996 0.0
C1102 C 0.49076 0.42837 0.66948 0.0
C1103 C 0.4992 0.44397 0.72336 0.0
C1104 C 0.5025 0.43311 0.789 0.0
H1105 H 0.20644 0.52126 0.80126 0.0
H1106 H 0.2005 0.44878 0.90183 0.0
H1107 H 0.15611 0.44507 0.8649 0.0
H1108 H 0.14536 0.54466 0.83703 0.0
H1109 H 0.13958 0.5582 0.75415 0.0
H1110 H 0.17144 0.55489 0.78451 0.0
H1111 H 0.1829 0.52949 0.6765 0.0
H1112 H 0.15102 0.53281 0.64579 0.0
H1113 H 0.16458 0.50198 0.65483 0.0
H1114 H 0.11274 0.44826 0.8154 0.0
H1115 H 0.0722 0.45938 0.76449 0.0
H1116 H 0.1026 0.53176 0.70212 0.0
C1117 C 0.1957 0.50466 0.81539 0.0
C1118 C 0.20703 0.4853 0.85508 0.0
C1119 C 0.19236 0.46378 0.8717 0.0
C1120 C 0.16709 0.46149 0.85072 0.0
C1121 C 0.15644 0.48077 0.81205 0.0
C1122 C 0.17021 0.50192 0.79399 0.0
C1123 C 0.15377 0.51965 0.75153 0.0
C1124 C 0.15245 0.54591 0.7838 0.0
C1125 C 0.16366 0.52109 0.67782 0.0
C1126 C 0.1282 0.50614 0.75368 0.0
C1127 C 0.13066 0.48326 0.78651 0.0
C1128 C 0.11052 0.46639 0.79099 0.0
C1129 C 0.08721 0.47309 0.76243 0.0
C1130 C 0.08329 0.49702 0.73218 0.0
C1131 C 0.10445 0.51365 0.72697 0.0
H1132 H 1.00129 0.81838 0.57054 0.0
H1133 H 0.97418 0.83118 0.36459 0.0
H1134 H 0.97527 0.87679 0.38433 0.0
H1135 H 0.96512 0.87121 0.64706 0.0
H1136 H 0.98957 0.87962 0.70677 0.0
H1137 H 0.98624 0.84746 0.67889 0.0
H1138 H 0.03273 0.84758 0.63967 0.0
H1139 H 0.03618 0.87977 0.66708 0.0
H1140 H 0.04355 0.87128 0.58038 0.0
H1141 H 0.98175 0.92086 0.4208 0.0
H1142 H 0.99052 0.96125 0.4757 0.0
H1143 H 0.01112 0.92341 0.66234 0.0
C1144 C 0.99539 0.83081 0.52988 0.0
C1145 C 0.98729 0.82079 0.46591 0.0
C1146 C 0.97987 0.83796 0.41434 0.0
C1147 C 0.98063 0.86408 0.42489 0.0
C1148 C 0.98864 0.87327 0.4878 0.0
C1149 C 0.99561 0.85731 0.54004 0.0
C1150 C 1.00311 0.87275 0.60297 0.0
C1151 C 0.98493 0.86744 0.66245 0.0
C1152 C 0.03053 0.86753 0.62372 0.0
C1153 C 1.00006 0.89973 0.57671 0.0
C1154 C 0.99156 0.89928 0.51015 0.0
C1155 C 0.98779 0.92138 0.47347 0.0
C1156 C 0.9924 0.94452 0.50551 0.0
C1157 C 1.00033 0.94603 0.57405 0.0
C1158 C 1.00465 0.9231 0.61 0.0
H1159 H 0.68986 0.97349 0.42271 0.0
H1160 H 0.72825 0.01139 0.58948 0.0
H1161 H 0.68743 0.01878 0.64505 0.0
H1162 H 0.636 0.01217 0.4139 0.0
H1163 H 0.61343 0.9872 0.39974 0.0
H1164 H 0.64573 0.98335 0.37342 0.0
H1165 H 0.64871 0.94254 0.44512 0.0
H1166 H 0.61634 0.94629 0.47139 0.0
H1167 H 0.64084 0.94339 0.53448 0.0
H1168 H 0.64271 0.02388 0.68184 0.0
H1169 H 0.59707 0.02596 0.69877 0.0
H1170 H 0.58533 0.98492 0.50989 0.0
C1171 C 0.68981 0.98294 0.47154 0.0
C1172 C 0.71278 0.99207 0.50077 0.0
C1173 C 0.71133 1.0046 0.56456 0.0
C1174 C 0.68808 0.00876 0.59711 0.0
C1175 C 0.66599 1.00008 0.56632 0.0
C1176 C 0.66655 0.98717 0.50535 0.0
C1177 C 0.63968 0.98014 0.48356 0.0
C1178 C 0.63335 0.9914 0.41349 0.0
C1179 C 0.63619 0.95138 0.48361 0.0
C1180 C 0.624 0.99218 0.54014 0.0
C1181 C 0.63979 1.0031 0.5878 0.0
C1182 C 0.63021 0.01524 0.64495 0.0
C1183 C 0.60396 0.01627 0.65408 0.0
C1184 C 0.58688 1.00548 0.6062 0.0
C1185 C 0.59737 0.99329 0.54804 0.0
H1186 H 0.55297 0.69276 0.40933 0.0
H1187 H 0.51925 0.73029 0.58355 0.0
H1188 H 0.51215 0.68935 0.63826 0.0
H1189 H 0.51337 0.63869 0.40671 0.0
H1190 H 0.53778 0.61629 0.38756 0.0
H1191 H 0.54122 0.6486 0.3609 0.0
H1192 H 0.58383 0.65167 0.42468 0.0
H1193 H 0.58053 0.61929 0.4511 0.0
H1194 H 0.5852 0.64361 0.51389 0.0
H1195 H 0.50457 0.64445 0.67062 0.0
H1196 H 0.50119 0.59876 0.68393 0.0
H1197 H 0.54348 0.58782 0.49776 0.0
C1198 C 0.54452 0.69253 0.45954 0.0
C1199 C 0.53622 0.71537 0.49074 0.0
C1200 C 0.52512 0.71357 0.55658 0.0
C1201 C 0.52116 0.6902 0.58878 0.0
C1202 C 0.52884 0.66829 0.55593 0.0
C1203 C 0.54077 0.66913 0.49341 0.0
C1204 C 0.54719 0.64238 0.47012 0.0
C1205 C 0.53411 0.63613 0.40228 0.0
C1206 C 0.5759 0.63904 0.46461 0.0
C1207 C 0.53637 0.62648 0.52842 0.0
C1208 C 0.52581 0.64203 0.57699 0.0
C1209 C 0.5132 0.63218 0.6334 0.0
C1210 C 0.5113 0.60594 0.64062 0.0
C1211 C 0.52228 0.58923 0.59308 0.0
C1212 C 0.53526 0.59985 0.5361 0.0
H1213 H 0.81849 0.50649 0.50927 0.0
H1214 H 0.81673 0.58743 0.47176 0.0
H1215 H 0.86096 0.59018 0.50318 0.0
H1216 H 0.85997 0.51108 0.65948 0.0
H1217 H 0.87562 0.48209 0.63837 0.0
H1218 H 0.84321 0.48663 0.61426 0.0
H1219 H 0.85585 0.4765 0.48945 0.0
H1220 H 0.88828 0.47279 0.51468 0.0
H1221 H 0.88021 0.49495 0.44863 0.0
H1222 H 0.90711 0.58463 0.53461 0.0
H1223 H 0.94933 0.57148 0.57156 0.0
H1224 H 0.92204 0.4948 0.5963 0.0
C1225 C 0.82672 0.52508 0.50793 0.0
C1226 C 0.81261 0.54663 0.48605 0.0
C1227 C 0.82581 0.57014 0.48618 0.0
C1228 C 0.85147 0.57209 0.5046 0.0
C1229 C 0.86444 0.55055 0.52445 0.0
C1230 C 0.8524 0.52753 0.52732 0.0
C1231 C 0.8707 0.50733 0.55197 0.0
C1232 C 0.8618 0.49615 0.62014 0.0
C1233 C 0.87394 0.48667 0.49794 0.0
C1234 C 0.89504 0.52251 0.56116 0.0
C1235 C 0.8909 0.54744 0.54475 0.0
C1236 C 0.91041 0.56515 0.54791 0.0
C1237 C 0.93458 0.55737 0.56878 0.0
C1238 C 0.93959 0.53198 0.58681 0.0
C1239 C 0.91922 0.51436 0.58289 0.0
loop_
_geom_bond_atom_site_label_1
_geom_bond_atom_site_label_2
_geom_bond_distance
_geom_bond_site_symmetry_2
_ccdc_geom_bond_type
P0 O11 1.490 . S
P0 C14 1.812 . S
P0 C20 1.803 . S
P0 C26 1.819 . S
H1 C15 0.941 . S
H2 C16 0.939 . S
H3 C18 0.940 . S
H4 C19 0.940 . S
H5 C21 0.939 . S
H6 C22 0.942 . S
H7 C24 0.940 . S
H8 C25 0.939 . S
H9 C27 0.941 . S
H10 C31 0.939 . S
O11 P0 1.490 . S
H12 C28 0.939 . S
H13 C30 0.940 . S
C14 P0 1.812 . S
C14 C15 1.389 . S
C14 C19 1.391 . S
C15 H1 0.941 . S
C15 C14 1.389 . S
C15 C16 1.397 . S
C16 H2 0.939 . S
C16 C15 1.397 . S
C16 C17 1.378 . S
C17 C16 1.378 . S
C17 C18 1.378 . S
C18 H3 0.940 . S
C18 C17 1.378 . S
C18 C19 1.396 . S
C19 H4 0.940 . S
C19 C14 1.391 . S
C19 C18 1.396 . S
C20 P0 1.803 . S
C20 C21 1.378 . S
C20 C25 1.400 . S
C21 H5 0.939 . S
C21 C20 1.378 . S
C21 C22 1.361 . S
C22 H6 0.942 . S
C22 C21 1.361 . S
C22 C23 1.369 . S
C23 C22 1.369 . S
C23 C24 1.404 . S
C24 H7 0.940 . S
C24 C23 1.404 . S
C24 C25 1.389 . S
C25 H8 0.939 . S
C25 C20 1.400 . S
C25 C24 1.389 . S
C26 P0 1.819 . S
C26 C27 1.391 . S
C26 C31 1.391 . S
C27 H9 0.941 . S
C27 C26 1.391 . S
C27 C28 1.396 . S
C28 H12 0.939 . S
C28 C27 1.396 . S
C28 C29 1.397 . S
C29 C28 1.397 . S
C29 C30 1.385 . S
C30 H13 0.940 . S
C30 C29 1.385 . S
C30 C31 1.388 . S
C31 H10 0.939 . S
C31 C26 1.391 . S
C31 C30 1.388 . S
P32 O43 1.490 . S
P32 C46 1.812 1_455 S
P32 C52 1.803 1_455 S
P32 C58 1.819 1_455 S
H33 C47 0.941 . S
H34 C48 0.939 1_455 S
H35 C50 0.940 . S
H36 C51 0.940 . S
H37 C53 0.939 . S
H38 C54 0.942 1_455 S
H39 C56 0.940 . S
H40 C57 0.939 . S
H41 C59 0.941 . S
H42 C63 0.939 . S
O43 P32 1.490 . S
H44 C60 0.944 . S
H45 C62 0.940 . S
C46 P32 1.812 1_655 S
C46 C47 1.389 1_655 S
C46 C51 1.391 . S
C47 H33 0.941 . S
C47 C46 1.389 1_455 S
C47 C48 1.397 1_455 S
C48 H34 0.939 1_655 S
C48 C47 1.397 1_655 S
C48 C49 1.378 . S
C49 C48 1.378 . S
C49 C50 1.378 . S
C50 H35 0.940 . S
C50 C49 1.378 . S
C50 C51 1.396 . S
C51 H36 0.940 . S
C51 C46 1.391 . S
C51 C50 1.396 . S
C52 P32 1.803 1_655 S
C52 C53 1.378 1_655 S
C52 C57 1.400 . S
C53 H37 0.939 . S
C53 C52 1.378 1_455 S
C53 C54 1.361 1_455 S
C54 H38 0.942 1_655 S
C54 C53 1.361 1_655 S
C54 C55 1.369 . S
C55 C54 1.369 . S
C55 C56 1.404 . S
C56 H39 0.940 . S
C56 C55 1.404 . S
C56 C57 1.389 . S
C57 H40 0.939 . S
C57 C52 1.400 . S
C57 C56 1.389 . S
C58 P32 1.819 1_655 S
C58 C59 1.391 1_655 S
C58 C63 1.391 . S
C59 H41 0.941 . S
C59 C58 1.391 1_455 S
C59 C60 1.396 1_455 S
C60 H44 0.944 . S
C60 C59 1.396 1_655 S
C60 C61 1.397 . S
C61 C60 1.397 . S
C61 C62 1.385 . S
C62 H45 0.940 . S
C62 C61 1.385 . S
C62 C63 1.388 . S
C63 H42 0.939 . S
C63 C58 1.391 . S
C63 C62 1.388 . S
P64 O75 1.490 . S
P64 C78 1.812 1_545 S
P64 C84 1.803 1_545 S
P64 C90 1.819 1_545 S
H65 C79 0.941 . S
H66 C80 0.917 1_545 S
H67 C82 0.940 . S
H68 C83 0.940 . S
H69 C85 0.939 . S
H70 C86 0.944 1_545 S
H71 C88 0.940 . S
H72 C89 0.939 . S
H73 C91 0.941 . S
H74 C95 0.939 . S
O75 P64 1.490 . S
H76 C92 0.939 1_545 S
H77 C94 0.940 . S
C78 P64 1.812 1_565 S
C78 C79 1.389 1_565 S
C78 C83 1.391 . S
C79 H65 0.941 . S
C79 C78 1.389 1_545 S
C79 C80 1.382 1_545 S
C80 H66 0.917 1_565 S
C80 C79 1.382 1_565 S
C80 C81 1.417 . S
C81 C80 1.417 . S
C81 C82 1.378 . S
C82 H67 0.940 . S
C82 C81 1.378 . S
C82 C83 1.396 . S
C83 H68 0.940 . S
C83 C78 1.391 . S
C83 C82 1.396 . S
C84 P64 1.803 1_565 S
C84 C85 1.378 1_565 S
C84 C89 1.400 . S
C85 H69 0.939 . S
C85 C84 1.378 1_545 S
C85 C86 1.362 1_545 S
C86 H70 0.944 1_565 S
C86 C85 1.362 1_565 S
C86 C87 1.366 . S
C87 C86 1.366 . S
C87 C88 1.404 . S
C88 H71 0.940 . S
C88 C87 1.404 . S
C88 C89 1.389 . S
C89 H72 0.939 . S
C89 C84 1.400 . S
C89 C88 1.389 . S
C90 P64 1.819 1_565 S
C90 C91 1.391 1_565 S
C90 C95 1.391 . S
C91 H73 0.941 . S
C91 C90 1.391 1_545 S
C91 C92 1.396 1_545 S
C92 H76 0.939 1_565 S
C92 C91 1.396 1_565 S
C92 C93 1.397 . S
C93 C92 1.397 . S
C93 C94 1.385 . S
C94 H77 0.940 . S
C94 C93 1.385 . S
C94 C95 1.388 . S
C95 H74 0.939 . S
C95 C90 1.391 . S
C95 C94 1.388 . S
P96 O107 1.490 . S
P96 C110 1.812 . S
P96 C116 1.803 . S
P96 C122 1.819 . S
H97 C111 0.941 . S
H98 C112 0.939 . S
H99 C114 0.940 . S
H100 C115 0.940 . S
H101 C117 0.939 . S
H102 C118 0.942 . S
H103 C120 0.940 . S
H104 C121 0.939 . S
H105 C123 0.941 . S
H106 C127 0.939 . S
O107 P96 1.490 . S
H108 C124 0.939 . S
H109 C126 0.940 . S
C110 P96 1.812 . S
C110 C111 1.389 . S
C110 C115 1.391 . S
C111 H97 0.941 . S
C111 C110 1.389 . S
C111 C112 1.397 . S
C112 H98 0.939 . S
C112 C111 1.397 . S
C112 C113 1.378 . S
C113 C112 1.378 . S
C113 C114 1.378 . S
C114 H99 0.940 . S
C114 C113 1.378 . S
C114 C115 1.396 . S
C115 H100 0.940 . S
C115 C110 1.391 . S
C115 C114 1.396 . S
C116 P96 1.803 . S
C116 C117 1.378 . S
C116 C121 1.400 . S
C117 H101 0.939 . S
C117 C116 1.378 . S
C117 C118 1.361 . S
C118 H102 0.942 . S
C118 C117 1.361 . S
C118 C119 1.369 . S
C119 C118 1.369 . S
C119 C120 1.404 . S
C120 H103 0.940 . S
C120 C119 1.404 . S
C120 C121 1.389 . S
C121 H104 0.939 . S
C121 C116 1.400 . S
C121 C120 1.389 . S
C122 P96 1.819 . S
C122 C123 1.391 . S
C122 C127 1.391 . S
C123 H105 0.941 . S
C123 C122 1.391 . S
C123 C124 1.396 . S
C124 H108 0.939 . S
C124 C123 1.396 . S
C124 C125 1.397 . S
C125 C124 1.397 . S
C125 C126 1.385 . S
C126 H109 0.940 . S
C126 C125 1.385 . S
C126 C127 1.388 . S
C127 H106 0.939 . S
C127 C122 1.391 . S
C127 C126 1.388 . S
P128 O139 1.490 . S
P128 C142 1.812 1_554 S
P128 C148 1.803 . S
P128 C154 1.819 . S
H129 C143 0.941 . S
H130 C144 0.939 . S
H131 C146 0.940 . S
H132 C147 0.940 . S
H133 C149 0.939 . S
H134 C150 0.942 . S
H135 C152 0.940 . S
H136 C153 0.939 . S
H137 C155 0.941 . S
H138 C159 0.939 . S
O139 P128 1.490 . S
H140 C156 0.939 . S
H141 C158 0.940 . S
C142 P128 1.812 1_556 S
C142 C143 1.389 . S
C142 C147 1.391 . S
C143 H129 0.941 . S
C143 C142 1.389 . S
C143 C144 1.397 . S
C144 H130 0.939 . S
C144 C143 1.397 . S
C144 C145 1.378 . S
C145 C144 1.378 . S
C145 C146 1.378 . S
C146 H131 0.940 . S
C146 C145 1.378 . S
C146 C147 1.396 . S
C147 H132 0.940 . S
C147 C142 1.391 . S
C147 C146 1.396 . S
C148 P128 1.803 . S
C148 C149 1.378 . S
C148 C153 1.400 . S
C149 H133 0.939 . S
C149 C148 1.378 . S
C149 C150 1.361 . S
C150 H134 0.942 . S
C150 C149 1.361 . S
C150 C151 1.369 . S
C151 C150 1.369 . S
C151 C152 1.404 . S
C152 H135 0.940 . S
C152 C151 1.404 . S
C152 C153 1.389 . S
C153 H136 0.939 . S
C153 C148 1.400 . S
C153 C152 1.389 . S
C154 P128 1.819 . S
C154 C155 1.391 . S
C154 C159 1.391 . S
C155 H137 0.941 . S
C155 C154 1.391 . S
C155 C156 1.396 . S
C156 H140 0.939 . S
C156 C155 1.396 . S
C156 C157 1.397 . S
C157 C156 1.397 . S
C157 C158 1.385 . S
C158 H141 0.940 . S
C158 C157 1.385 . S
C158 C159 1.388 . S
C159 H138 0.939 . S
C159 C154 1.391 . S
C159 C158 1.388 . S
P160 O171 1.490 . S
P160 C174 1.812 1_554 S
P160 C180 1.803 . S
P160 C186 1.819 . S
H161 C175 0.941 . S
H162 C176 0.939 . S
H163 C178 0.940 . S
H164 C179 0.944 . S
H165 C181 0.939 . S
H166 C182 0.942 . S
H167 C184 0.940 . S
H168 C185 0.939 . S
H169 C187 0.941 . S
H170 C191 0.939 . S
O171 P160 1.490 . S
H172 C188 0.939 . S
H173 C190 0.940 . S
C174 P160 1.812 1_556 S
C174 C175 1.389 . S
C174 C179 1.391 . S
C175 H161 0.941 . S
C175 C174 1.389 . S
C175 C176 1.397 . S
C176 H162 0.939 . S
C176 C175 1.397 . S
C176 C177 1.378 . S
C177 C176 1.378 . S
C177 C178 1.378 . S
C178 H163 0.940 . S
C178 C177 1.378 . S
C178 C179 1.396 . S
C179 H164 0.944 . S
C179 C174 1.391 . S
C179 C178 1.396 . S
C180 P160 1.803 . S
C180 C181 1.378 . S
C180 C185 1.400 . S
C181 H165 0.939 . S
C181 C180 1.378 . S
C181 C182 1.361 . S
C182 H166 0.942 . S
C182 C181 1.361 . S
C182 C183 1.369 . S
C183 C182 1.369 . S
C183 C184 1.404 . S
C184 H167 0.940 . S
C184 C183 1.404 . S
C184 C185 1.389 . S
C185 H168 0.939 . S
C185 C180 1.400 . S
C185 C184 1.389 . S
C186 P160 1.819 . S
C186 C187 1.391 . S
C186 C191 1.391 . S
C187 H169 0.941 . S
C187 C186 1.391 . S
C187 C188 1.396 . S
C188 H172 0.939 . S
C188 C187 1.396 . S
C188 C189 1.397 . S
C189 C188 1.397 . S
C189 C190 1.385 . S
C190 H173 0.940 . S
C190 C189 1.385 . S
C190 C191 1.388 . S
C191 H170 0.939 . S
C191 C186 1.391 . S
C191 C190 1.388 . S
P192 O203 1.490 . S
P192 C206 1.812 1_554 S
P192 C212 1.803 . S
P192 C218 1.819 . S
H193 C207 0.941 . S
H194 C208 0.939 . S
H195 C210 0.940 . S
H196 C211 0.940 . S
H197 C213 0.939 . S
H198 C214 0.942 . S
H199 C216 0.940 . S
H200 C217 0.939 . S
H201 C219 0.941 . S
H202 C223 0.939 . S
O203 P192 1.490 . S
H204 C220 0.939 . S
H205 C222 0.940 . S
C206 P192 1.812 1_556 S
C206 C207 1.389 . S
C206 C211 1.391 . S
C207 H193 0.941 . S
C207 C206 1.389 . S
C207 C208 1.397 . S
C208 H194 0.939 . S
C208 C207 1.397 . S
C208 C209 1.378 . S
C209 C208 1.378 . S
C209 C210 1.378 . S
C210 H195 0.940 . S
C210 C209 1.378 . S
C210 C211 1.396 . S
C211 H196 0.940 . S
C211 C206 1.391 . S
C211 C210 1.396 . S
C212 P192 1.803 . S
C212 C213 1.378 . S
C212 C217 1.400 . S
C213 H197 0.939 . S
C213 C212 1.378 . S
C213 C214 1.361 . S
C214 H198 0.942 . S
C214 C213 1.361 . S
C214 C215 1.369 . S
C215 C214 1.369 . S
C215 C216 1.404 . S
C216 H199 0.940 . S
C216 C215 1.404 . S
C216 C217 1.389 . S
C217 H200 0.939 . S
C217 C212 1.400 . S
C217 C216 1.389 . S
C218 P192 1.819 . S
C218 C219 1.391 . S
C218 C223 1.391 . S
C219 H201 0.941 . S
C219 C218 1.391 . S
C219 C220 1.396 . S
C220 H204 0.939 . S
C220 C219 1.396 . S
C220 C221 1.397 . S
C221 C220 1.397 . S
C221 C222 1.385 . S
C222 H205 0.940 . S
C222 C221 1.385 . S
C222 C223 1.388 . S
C223 H202 0.939 . S
C223 C218 1.391 . S
C223 C222 1.388 . S
P224 O235 1.490 . S
P224 C238 1.812 1_554 S
P224 C244 1.803 . S
P224 C250 1.819 . S
H225 C239 0.941 . S
H226 C240 0.939 . S
H227 C242 0.940 . S
H228 C243 0.940 . S
H229 C245 0.939 . S
H230 C246 0.942 . S
H231 C248 0.940 . S
H232 C249 0.939 . S
H233 C251 0.941 . S
H234 C255 0.939 . S
O235 P224 1.490 . S
H236 C252 0.939 . S
H237 C254 0.940 . S
C238 P224 1.812 1_556 S
C238 C239 1.389 . S
C238 C243 1.391 . S
C239 H225 0.941 . S
C239 C238 1.389 . S
C239 C240 1.397 . S
C240 H226 0.939 . S
C240 C239 1.397 . S
C240 C241 1.378 . S
C241 C240 1.378 . S
C241 C242 1.378 . S
C242 H227 0.940 . S
C242 C241 1.378 . S
C242 C243 1.396 . S
C243 H228 0.940 . S
C243 C238 1.391 . S
C243 C242 1.396 . S
C244 P224 1.803 . S
C244 C245 1.378 . S
C244 C249 1.400 . S
C245 H229 0.939 . S
C245 C244 1.378 . S
C245 C246 1.361 . S
C246 H230 0.942 . S
C246 C245 1.361 . S
C246 C247 1.369 . S
C247 C246 1.369 . S
C247 C248 1.404 . S
C248 H231 0.940 . S
C248 C247 1.404 . S
C248 C249 1.389 . S
C249 H232 0.939 . S
C249 C244 1.400 . S
C249 C248 1.389 . S
C250 P224 1.819 . S
C250 C251 1.391 . S
C250 C255 1.391 . S
C251 H233 0.941 . S
C251 C250 1.391 . S
C251 C252 1.396 . S
C252 H236 0.939 . S
C252 C251 1.396 . S
C252 C253 1.397 . S
C253 C252 1.397 . S
C253 C254 1.385 . S
C254 H237 0.940 . S
C254 C253 1.385 . S
C254 C255 1.388 . S
C255 H234 0.939 . S
C255 C250 1.391 . S
C255 C254 1.388 . S
Eu256 N285 2.600 . S
Eu256 N291 2.562 . S
Eu256 O300 2.462 . S
Eu256 O301 2.373 1_545 S
Eu256 O303 2.432 . S
Eu256 O304 2.291 1_655 S
Eu256 O308 2.335 1_655 S
Eu256 O311 2.372 . S
Eu256 C320 2.787 . S
C257 N258 1.365 . S
C257 C260 1.405 . S
C257 C264 1.448 . S
N258 C257 1.365 . S
N258 C261 1.315 1_545 S
N258 Eu267 2.600 1_545 S
C259 C261 1.385 1_545 S
C259 C262 1.367 . S
C259 H279 0.931 . S
C260 C257 1.405 . S
C260 C262 1.403 . S
C260 C266 1.439 . S
C261 N258 1.315 1_565 S
C261 C259 1.385 1_565 S
C261 H272 0.949 . S
C262 C259 1.367 . S
C262 C260 1.403 . S
C262 H283 0.929 . S
C263 C264 1.430 . S
C263 C265 1.387 . S
C263 C269 1.404 . S
C264 C257 1.448 . S
C264 C263 1.430 . S
C264 N268 1.351 . S
C265 C263 1.387 . S
C265 C266 1.374 . S
C265 H280 0.931 . S
C266 C260 1.439 . S
C266 C265 1.374 . S
C266 H281 0.931 . S
Eu267 N258 2.600 1_565 S
Eu267 N268 2.562 1_565 S
Eu267 O302 2.335 . S
Eu267 O305 2.372 . S
Eu267 O306 2.462 . S
Eu267 O307 2.373 1_565 S
Eu267 O309 2.432 . S
Eu267 O310 2.291 1_465 S
Eu267 C331 2.787 . S
N268 C264 1.351 . S
N268 Eu267 2.562 1_545 S
N268 C270 1.325 . S
C269 C263 1.404 . S
C269 C271 1.366 . S
C269 H277 0.930 1_556 S
C270 N268 1.325 . S
C270 C271 1.416 . S
C270 H276 0.910 1_455 S
C271 C269 1.366 . S
C271 C270 1.416 . S
C271 H273 0.930 . S
H272 C261 0.949 . S
H273 C271 0.930 . S
H274 C289 0.930 . S
H275 C296 0.930 1_455 S
H276 C270 0.910 1_655 S
H277 C269 0.930 1_554 S
H278 C292 0.929 1_455 S
H279 C259 0.931 . S
H280 C265 0.931 . S
H281 C266 0.931 . S
H282 C287 0.931 . S
H283 C262 0.929 . S
H284 C295 0.930 . S
N285 Eu256 2.600 . S
N285 C286 1.365 . S
N285 C289 1.319 . S
C286 N285 1.365 . S
C286 C288 1.405 1_545 S
C286 C294 1.448 . S
C287 H282 0.931 . S
C287 C289 1.397 . S
C287 C290 1.367 1_545 S
C288 C286 1.405 1_565 S
C288 C290 1.403 . S
C288 C321 1.439 . S
C289 H274 0.930 . S
C289 N285 1.319 . S
C289 C287 1.397 . S
C290 C287 1.367 1_565 S
C290 C288 1.403 . S
C290 H297 0.929 . S
N291 Eu256 2.562 . S
N291 C292 1.325 . S
N291 C294 1.351 . S
C292 H278 0.929 1_655 S
C292 N291 1.325 . S
C292 C296 1.416 1_545 S
C293 C294 1.430 1_565 S
C293 C295 1.404 . S
C293 C322 1.387 . S
C294 C286 1.448 . S
C294 N291 1.351 . S
C294 C293 1.430 1_545 S
C295 H284 0.930 . S
C295 C293 1.404 . S
C295 C296 1.366 . S
C296 H275 0.930 1_655 S
C296 C292 1.416 1_565 S
C296 C295 1.366 . S
H297 C290 0.929 . S
H298 C321 0.931 . S
H299 C322 0.931 . S
O300 Eu256 2.462 . S
O300 C320 1.252 . S
O301 Eu256 2.373 1_565 S
O301 C312 1.249 . S
O302 Eu267 2.335 . S
O302 C312 1.264 1_455 S
O303 Eu256 2.432 . S
O303 C320 1.268 . S
O304 Eu256 2.291 1_455 S
O304 C319 1.255 . S
O305 Eu267 2.372 . S
O305 C319 1.257 1_565 S
O306 Eu267 2.462 . S
O306 C331 1.252 . S
O307 Eu267 2.373 1_545 S
O307 C323 1.249 . S
O308 Eu256 2.335 1_455 S
O308 C323 1.264 . S
O309 Eu267 2.432 . S
O309 C331 1.268 . S
O310 Eu267 2.291 1_645 S
O310 C330 1.255 . S
O311 Eu256 2.372 . S
O311 C330 1.257 . S
C312 O301 1.249 . S
C312 O302 1.264 1_655 S
C313 C316 1.382 . S
C313 C318 1.390 . S
C313 C320 1.506 . S
C314 C315 1.398 . S
C314 C318 1.392 . S
C315 C314 1.398 . S
C315 C317 1.372 . S
C315 H332 0.931 . S
C316 C313 1.382 . S
C316 C317 1.390 . S
C316 H333 0.931 . S
C317 C315 1.372 . S
C317 C316 1.390 . S
C317 H334 0.929 . S
C318 C313 1.390 . S
C318 C314 1.392 . S
C318 H335 0.930 1_655 S
C319 O304 1.255 . S
C319 O305 1.257 1_545 S
C320 Eu256 2.787 . S
C320 O300 1.252 . S
C320 O303 1.268 . S
C320 C313 1.506 . S
C321 C288 1.439 . S
C321 H298 0.931 . S
C321 C322 1.374 . S
C322 C293 1.387 . S
C322 H299 0.931 . S
C322 C321 1.374 . S
C323 O307 1.249 . S
C323 O308 1.264 . S
C324 C327 1.382 . S
C324 C328 1.390 . S
C324 C331 1.506 . S
C325 C326 1.398 . S
C325 C328 1.392 . S
C326 C325 1.398 . S
C326 C329 1.372 . S
C326 H336 0.931 . S
C327 C324 1.382 . S
C327 C329 1.390 . S
C327 H337 0.931 . S
C328 C324 1.390 . S
C328 C325 1.392 . S
C328 H338 0.930 . S
C329 C326 1.372 . S
C329 C327 1.390 . S
C329 H339 0.929 . S
C330 O310 1.255 . S
C330 O311 1.257 . S
C331 Eu267 2.787 . S
C331 O306 1.252 . S
C331 O309 1.268 . S
C331 C324 1.506 . S
H332 C315 0.931 . S
H333 C316 0.931 . S
H334 C317 0.929 . S
H335 C318 0.930 1_455 S
H336 C326 0.931 . S
H337 C327 0.931 . S
H338 C328 0.930 . S
H339 C329 0.929 . S
Eu340 N369 2.600 . S
Eu340 N375 2.562 . S
Eu340 O384 2.462 . S
Eu340 O385 2.373 . S
Eu340 O387 2.432 . S
Eu340 O388 2.291 . S
Eu340 O392 2.335 1_545 S
Eu340 O395 2.372 . S
Eu340 C404 2.787 . S
C341 N342 1.365 . S
C341 C344 1.405 . S
C341 C348 1.448 . S
N342 C341 1.365 . S
N342 C345 1.319 . S
N342 Eu351 2.600 . S
C343 C345 1.397 . S
C343 C346 1.367 . S
C343 H363 0.931 . S
C344 C341 1.405 . S
C344 C346 1.403 . S
C344 C350 1.439 . S
C345 N342 1.319 . S
C345 C343 1.397 . S
C345 H356 0.930 . S
C346 C343 1.367 . S
C346 C344 1.403 . S
C346 H367 0.929 . S
C347 C348 1.430 . S
C347 C349 1.387 . S
C347 C353 1.404 . S
C348 C341 1.448 . S
C348 C347 1.430 . S
C348 N352 1.351 . S
C349 C347 1.387 . S
C349 C350 1.374 . S
C349 H364 0.931 . S
C350 C344 1.439 . S
C350 C349 1.374 . S
C350 H365 0.931 . S
Eu351 N342 2.600 . S
Eu351 N352 2.562 . S
Eu351 O386 2.335 1_565 S
Eu351 O389 2.372 . S
Eu351 O390 2.462 . S
Eu351 O391 2.373 . S
Eu351 O393 2.432 . S
Eu351 O394 2.291 1_565 S
Eu351 C415 2.787 . S
N352 C348 1.351 . S
N352 Eu351 2.562 . S
N352 C354 1.325 . S
C353 C347 1.404 . S
C353 C355 1.366 . S
C353 H361 0.930 . S
C354 N352 1.325 . S
C354 C355 1.416 . S
C354 H360 0.929 . S
C355 C353 1.366 . S
C355 C354 1.416 . S
C355 H357 0.930 . S
H356 C345 0.930 . S
H357 C355 0.930 . S
H358 C373 0.930 . S
H359 C380 0.930 . S
H360 C354 0.929 . S
H361 C353 0.930 . S
H362 C376 0.929 . S
H363 C343 0.931 . S
H364 C349 0.931 . S
H365 C350 0.931 . S
H366 C371 0.931 . S
H367 C346 0.929 . S
H368 C379 0.930 . S
N369 Eu340 2.600 . S
N369 C370 1.365 . S
N369 C373 1.319 . S
C370 N369 1.365 . S
C370 C372 1.405 . S
C370 C378 1.448 . S
C371 H366 0.931 . S
C371 C373 1.397 . S
C371 C374 1.367 . S
C372 C370 1.405 . S
C372 C374 1.403 . S
C372 C405 1.439 . S
C373 H358 0.930 . S
C373 N369 1.319 . S
C373 C371 1.397 . S
C374 C371 1.367 . S
C374 C372 1.403 . S
C374 H381 0.929 . S
N375 Eu340 2.562 . S
N375 C376 1.325 . S
N375 C378 1.351 . S
C376 H362 0.929 . S
C376 N375 1.325 . S
C376 C380 1.416 . S
C377 C378 1.430 . S
C377 C379 1.404 . S
C377 C406 1.387 . S
C378 C370 1.448 . S
C378 N375 1.351 . S
C378 C377 1.430 . S
C379 H368 0.930 . S
C379 C377 1.404 . S
C379 C380 1.366 . S
C380 H359 0.930 . S
C380 C376 1.416 . S
C380 C379 1.366 . S
H381 C374 0.929 . S
H382 C405 0.931 . S
H383 C406 0.931 . S
O384 Eu340 2.462 . S
O384 C404 1.252 . S
O385 Eu340 2.373 . S
O385 C396 1.249 . S
O386 Eu351 2.335 1_545 S
O386 C396 1.264 . S
O387 Eu340 2.432 . S
O387 C404 1.268 . S
O388 Eu340 2.291 . S
O388 C403 1.226 1_545 S
O389 Eu351 2.372 . S
O389 C403 1.277 . S
O390 Eu351 2.462 . S
O390 C415 1.252 . S
O391 Eu351 2.373 . S
O391 C407 1.249 . S
O392 Eu340 2.335 1_565 S
O392 C407 1.264 . S
O393 Eu351 2.432 . S
O393 C415 1.268 . S
O394 Eu351 2.291 1_545 S
O394 C414 1.255 . S
O395 Eu340 2.372 . S
O395 C414 1.257 . S
C396 O385 1.249 . S
C396 O386 1.264 . S
C397 C400 1.382 . S
C397 C402 1.390 . S
C397 C404 1.506 . S
C398 C399 1.398 . S
C398 C402 1.392 . S
C399 C398 1.398 . S
C399 C401 1.372 . S
C399 H416 0.931 1_556 S
C400 C397 1.382 . S
C400 C401 1.390 . S
C400 H417 0.931 . S
C401 C399 1.372 . S
C401 C400 1.390 . S
C401 H418 0.929 1_556 S
C402 C397 1.390 . S
C402 C398 1.392 . S
C402 H419 0.930 . S
C403 O388 1.226 1_565 S
C403 O389 1.277 . S
C404 Eu340 2.787 . S
C404 O384 1.252 . S
C404 O387 1.268 . S
C404 C397 1.506 . S
C405 C372 1.439 . S
C405 H382 0.931 . S
C405 C406 1.374 . S
C406 C377 1.387 . S
C406 H383 0.931 . S
C406 C405 1.374 . S
C407 O391 1.249 . S
C407 O392 1.264 . S
C408 C411 1.382 . S
C408 C412 1.390 . S
C408 C415 1.506 . S
C409 C410 1.399 1_545 S
C409 C412 1.392 1_545 S
C410 C409 1.399 1_565 S
C410 C413 1.372 . S
C410 H420 0.931 . S
C411 C408 1.382 . S
C411 C413 1.390 . S
C411 H421 0.931 . S
C412 C408 1.390 . S
C412 C409 1.392 1_565 S
C412 H422 0.930 1_565 S
C413 C410 1.372 . S
C413 C411 1.390 . S
C413 H423 0.929 . S
C414 O394 1.255 . S
C414 O395 1.257 . S
C415 Eu351 2.787 . S
C415 O390 1.252 . S
C415 O393 1.268 . S
C415 C408 1.506 . S
H416 C399 0.931 1_554 S
H417 C400 0.931 . S
H418 C401 0.929 1_554 S
H419 C402 0.930 . S
H420 C410 0.931 . S
H421 C411 0.931 . S
H422 C412 0.930 1_545 S
H423 C413 0.929 . S
Eu424 N453 2.600 . S
Eu424 N459 2.562 . S
Eu424 O468 2.462 . S
Eu424 O469 2.373 . S
Eu424 O471 2.432 . S
Eu424 O472 2.291 . S
Eu424 O476 2.335 . S
Eu424 O479 2.372 . S
Eu424 C488 2.787 . S
C425 N426 1.365 . S
C425 C428 1.405 . S
C425 C432 1.448 . S
N426 C425 1.365 . S
N426 C429 1.319 . S
N426 Eu435 2.600 . S
C427 C429 1.397 . S
C427 C430 1.367 . S
C427 H447 0.931 . S
C428 C425 1.405 . S
C428 C430 1.403 . S
C428 C434 1.439 . S
C429 N426 1.319 . S
C429 C427 1.397 . S
C429 H440 0.930 . S
C430 C427 1.367 . S
C430 C428 1.403 . S
C430 H451 0.929 . S
C431 C432 1.430 . S
C431 C433 1.387 . S
C431 C437 1.404 . S
C432 C425 1.448 . S
C432 C431 1.430 . S
C432 N436 1.351 . S
C433 C431 1.387 . S
C433 C434 1.374 . S
C433 H448 0.931 . S
C434 C428 1.439 . S
C434 C433 1.374 . S
C434 H449 0.931 . S
Eu435 N426 2.600 . S
Eu435 N436 2.562 . S
Eu435 O470 2.335 . S
Eu435 O473 2.372 . S
Eu435 O474 2.462 . S
Eu435 O475 2.373 . S
Eu435 O477 2.432 . S
Eu435 O478 2.291 . S
Eu435 C499 2.787 . S
N436 C432 1.351 . S
N436 Eu435 2.562 . S
N436 C438 1.325 . S
C437 C431 1.404 . S
C437 C439 1.366 . S
C437 H445 0.930 1_556 S
C438 N436 1.325 . S
C438 C439 1.416 . S
C438 H444 0.929 . S
C439 C437 1.366 . S
C439 C438 1.416 . S
C439 H441 0.930 . S
H440 C429 0.930 . S
H441 C439 0.930 . S
H442 C457 0.930 . S
H443 C464 0.930 . S
H444 C438 0.929 . S
H445 C437 0.930 1_554 S
H446 C460 0.929 . S
H447 C427 0.931 . S
H448 C433 0.931 . S
H449 C434 0.931 . S
H450 C455 0.931 . S
H451 C430 0.929 . S
H452 C463 0.930 . S
N453 Eu424 2.600 . S
N453 C454 1.365 . S
N453 C457 1.319 . S
C454 N453 1.365 . S
C454 C456 1.405 . S
C454 C462 1.448 . S
C455 H450 0.931 . S
C455 C457 1.397 . S
C455 C458 1.367 . S
C456 C454 1.405 . S
C456 C458 1.403 . S
C456 C489 1.439 . S
C457 H442 0.930 . S
C457 N453 1.319 . S
C457 C455 1.397 . S
C458 C455 1.367 . S
C458 C456 1.403 . S
C458 H465 0.929 . S
N459 Eu424 2.562 . S
N459 C460 1.325 . S
N459 C462 1.351 . S
C460 H446 0.929 . S
C460 N459 1.325 . S
C460 C464 1.416 . S
C461 C462 1.430 . S
C461 C463 1.404 . S
C461 C490 1.387 . S
C462 C454 1.448 . S
C462 N459 1.351 . S
C462 C461 1.430 . S
C463 H452 0.930 . S
C463 C461 1.404 . S
C463 C464 1.366 . S
C464 H443 0.930 . S
C464 C460 1.416 . S
C464 C463 1.366 . S
H465 C458 0.929 . S
H466 C489 0.931 . S
H467 C490 0.931 . S
O468 Eu424 2.462 . S
O468 C488 1.252 . S
O469 Eu424 2.373 . S
O469 C480 1.249 . S
O470 Eu435 2.335 . S
O470 C480 1.264 . S
O471 Eu424 2.432 . S
O471 C488 1.268 . S
O472 Eu424 2.291 . S
O472 C487 1.255 . S
O473 Eu435 2.372 . S
O473 C487 1.257 . S
O474 Eu435 2.462 . S
O474 C499 1.252 . S
O475 Eu435 2.373 . S
O475 C491 1.249 . S
O476 Eu424 2.335 . S
O476 C491 1.264 . S
O477 Eu435 2.432 . S
O477 C499 1.268 . S
O478 Eu435 2.291 . S
O478 C498 1.255 . S
O479 Eu424 2.372 . S
O479 C498 1.257 . S
C480 O469 1.249 . S
C480 O470 1.264 . S
C481 C484 1.382 . S
C481 C486 1.390 . S
C481 C488 1.506 . S
C482 C483 1.398 . S
C482 C486 1.392 . S
C483 C482 1.398 . S
C483 C485 1.372 . S
C483 H500 0.931 . S
C484 C481 1.382 . S
C484 C485 1.390 . S
C484 H501 0.931 . S
C485 C483 1.372 . S
C485 C484 1.390 . S
C485 H502 0.929 . S
C486 C481 1.390 . S
C486 C482 1.392 . S
C486 H503 0.930 . S
C487 O472 1.255 . S
C487 O473 1.257 . S
C488 Eu424 2.787 . S
C488 O468 1.252 . S
C488 O471 1.268 . S
C488 C481 1.506 . S
C489 C456 1.439 . S
C489 H466 0.931 . S
C489 C490 1.374 . S
C490 C461 1.387 . S
C490 H467 0.931 . S
C490 C489 1.374 . S
C491 O475 1.249 . S
C491 O476 1.264 . S
C492 C495 1.382 . S
C492 C496 1.390 . S
C492 C499 1.506 . S
C493 C494 1.398 . S
C493 C496 1.392 . S
C494 C493 1.398 . S
C494 C497 1.372 . S
C494 H504 0.931 . S
C495 C492 1.382 . S
C495 C497 1.390 . S
C495 H505 0.931 . S
C496 C492 1.390 . S
C496 C493 1.392 . S
C496 H506 0.930 . S
C497 C494 1.372 . S
C497 C495 1.390 . S
C497 H507 0.929 . S
C498 O478 1.255 . S
C498 O479 1.257 . S
C499 Eu435 2.787 . S
C499 O474 1.252 . S
C499 O477 1.268 . S
C499 C492 1.506 . S
H500 C483 0.931 . S
H501 C484 0.931 . S
H502 C485 0.929 . S
H503 C486 0.930 . S
H504 C494 0.931 . S
H505 C495 0.931 . S
H506 C496 0.930 . S
H507 C497 0.929 . S
Eu508 N537 2.600 . S
Eu508 N543 2.562 . S
Eu508 O552 2.462 . S
Eu508 O553 2.373 1_455 S
Eu508 O555 2.432 . S
Eu508 O556 2.291 . S
Eu508 O560 2.335 . S
Eu508 O563 2.372 . S
Eu508 C572 2.787 . S
C509 N510 1.365 1_455 S
C509 C512 1.405 . S
C509 C516 1.448 . S
N510 C509 1.365 1_655 S
N510 C513 1.319 . S
N510 Eu519 2.600 . S
C511 C513 1.397 1_455 S
C511 C514 1.367 . S
C511 H531 0.936 . S
C512 C509 1.405 . S
C512 C514 1.403 . S
C512 C518 1.439 . S
C513 N510 1.319 . S
C513 C511 1.397 1_655 S
C513 H524 0.930 . S
C514 C511 1.367 . S
C514 C512 1.403 . S
C514 H535 0.929 . S
C515 C516 1.430 . S
C515 C517 1.387 . S
C515 C521 1.404 . S
C516 C509 1.448 . S
C516 C515 1.430 . S
C516 N520 1.351 . S
C517 C515 1.387 . S
C517 C518 1.374 . S
C517 H532 0.931 . S
C518 C512 1.439 . S
C518 C517 1.374 . S
C518 H533 0.931 . S
Eu519 N510 2.600 . S
Eu519 N520 2.562 1_655 S
Eu519 O554 2.335 . S
Eu519 O557 2.372 . S
Eu519 O558 2.462 . S
Eu519 O559 2.373 1_655 S
Eu519 O561 2.432 . S
Eu519 O562 2.304 . S
Eu519 C583 2.787 . S
N520 C516 1.351 . S
N520 Eu519 2.562 1_455 S
N520 C522 1.325 . S
C521 C515 1.404 . S
C521 C523 1.366 . S
C521 H529 0.930 1_556 S
C522 N520 1.325 . S
C522 C523 1.416 . S
C522 H528 0.914 1_455 S
C523 C521 1.366 . S
C523 C522 1.416 . S
C523 H525 0.930 . S
H524 C513 0.930 . S
H525 C523 0.930 . S
H526 C541 0.930 . S
H527 C548 0.930 . S
H528 C522 0.914 1_655 S
H529 C521 0.930 1_554 S
H530 C544 0.929 . S
H531 C511 0.936 . S
H532 C517 0.931 . S
H533 C518 0.931 . S
H534 C539 0.931 . S
H535 C514 0.929 . S
H536 C547 0.930 . S
N537 Eu508 2.600 . S
N537 C538 1.365 . S
N537 C541 1.319 . S
C538 N537 1.365 . S
C538 C540 1.405 1_455 S
C538 C546 1.446 1_455 S
C539 H534 0.931 . S
C539 C541 1.397 . S
C539 C542 1.367 1_455 S
C540 C538 1.405 1_655 S
C540 C542 1.403 . S
C540 C573 1.439 . S
C541 H526 0.930 . S
C541 N537 1.319 . S
C541 C539 1.397 . S
C542 C539 1.367 1_655 S
C542 C540 1.403 . S
C542 H549 0.929 . S
N543 Eu508 2.562 . S
N543 C544 1.325 . S
N543 C546 1.345 1_455 S
C544 H530 0.929 . S
C544 N543 1.325 . S
C544 C548 1.416 1_455 S
C545 C546 1.438 . S
C545 C547 1.404 . S
C545 C574 1.387 . S
C546 C538 1.446 1_655 S
C546 N543 1.345 1_655 S
C546 C545 1.438 . S
C547 H536 0.930 . S
C547 C545 1.404 . S
C547 C548 1.366 . S
C548 H527 0.930 . S
C548 C544 1.416 1_655 S
C548 C547 1.366 . S
H549 C542 0.929 . S
H550 C573 0.931 . S
H551 C574 0.931 . S
O552 Eu508 2.462 . S
O552 C572 1.252 . S
O553 Eu508 2.373 1_655 S
O553 C564 1.249 . S
O554 Eu519 2.335 . S
O554 C564 1.264 . S
O555 Eu508 2.432 . S
O555 C572 1.268 . S
O556 Eu508 2.291 . S
O556 C571 1.255 . S
O557 Eu519 2.372 . S
O557 C571 1.257 1_655 S
O558 Eu519 2.462 . S
O558 C583 1.252 . S
O559 Eu519 2.373 1_455 S
O559 C575 1.249 . S
O560 Eu508 2.335 . S
O560 C575 1.264 . S
O561 Eu519 2.432 . S
O561 C583 1.268 . S
O562 Eu519 2.304 . S
O562 C582 1.247 1_655 S
O563 Eu508 2.372 . S
O563 C582 1.257 . S
C564 O553 1.249 . S
C564 O554 1.264 . S
C565 C568 1.382 . S
C565 C570 1.390 . S
C565 C572 1.506 . S
C566 C567 1.398 . S
C566 C570 1.392 . S
C567 C566 1.398 . S
C567 C569 1.372 . S
C567 H584 0.931 . S
C568 C565 1.382 . S
C568 C569 1.390 . S
C568 H585 0.931 . S
C569 C567 1.372 . S
C569 C568 1.390 . S
C569 H586 0.929 . S
C570 C565 1.390 . S
C570 C566 1.392 . S
C570 H587 0.930 . S
C571 O556 1.255 . S
C571 O557 1.257 1_455 S
C572 Eu508 2.787 . S
C572 O552 1.252 . S
C572 O555 1.268 . S
C572 C565 1.506 . S
C573 C540 1.439 . S
C573 H550 0.931 . S
C573 C574 1.374 . S
C574 C545 1.387 . S
C574 H551 0.931 . S
C574 C573 1.374 . S
C575 O559 1.249 . S
C575 O560 1.264 . S
C576 C579 1.382 . S
C576 C580 1.390 . S
C576 C583 1.506 . S
C577 C578 1.398 . S
C577 C580 1.392 . S
C578 C577 1.398 . S
C578 C581 1.372 . S
C578 H588 0.931 . S
C579 C576 1.382 . S
C579 C581 1.390 . S
C579 H589 0.931 . S
C580 C576 1.390 . S
C580 C577 1.392 . S
C580 H590 0.930 . S
C581 C578 1.372 . S
C581 C579 1.390 . S
C581 H591 0.929 . S
C582 O562 1.247 1_455 S
C582 O563 1.257 . S
C583 Eu519 2.787 . S
C583 O558 1.252 . S
C583 O561 1.268 . S
C583 C576 1.506 . S
H584 C567 0.931 . S
H585 C568 0.931 . S
H586 C569 0.929 . S
H587 C570 0.930 . S
H588 C578 0.931 . S
H589 C579 0.931 . S
H590 C580 0.930 . S
H591 C581 0.929 . S
H592 C604 0.930 . S
H593 C606 0.930 . S
H594 C607 0.930 . S
H595 C611 0.959 1_545 S
H596 C611 0.959 . S
H597 C611 0.961 . S
H598 C612 0.960 . S
H599 C612 0.961 . S
H600 C612 0.959 . S
H601 C615 0.929 . S
H602 C616 0.931 . S
H603 C618 0.930 1_565 S
C604 H592 0.930 . S
C604 C605 1.399 . S
C604 C609 1.399 . S
C605 C604 1.399 . S
C605 C606 1.376 . S
C606 H593 0.930 . S
C606 C605 1.376 . S
C606 C607 1.388 . S
C607 H594 0.930 . S
C607 C606 1.388 . S
C607 C608 1.390 . S
C608 C607 1.390 . S
C608 C609 1.394 . S
C608 C614 1.465 . S
C609 C604 1.399 . S
C609 C608 1.394 . S
C609 C610 1.516 . S
C610 C609 1.516 . S
C610 C611 1.502 1_545 S
C610 C612 1.561 1_545 S
C610 C613 1.526 . S
C611 H595 0.959 1_565 S
C611 H596 0.959 . S
C611 H597 0.961 . S
C611 C610 1.502 1_565 S
C612 H598 0.960 . S
C612 H599 0.961 . S
C612 H600 0.959 . S
C612 C610 1.561 1_565 S
C613 C610 1.526 . S
C613 C614 1.396 . S
C613 C618 1.390 . S
C614 C608 1.465 . S
C614 C613 1.396 . S
C614 C615 1.399 . S
C615 H601 0.929 . S
C615 C614 1.399 . S
C615 C616 1.385 . S
C616 H602 0.931 . S
C616 C615 1.385 . S
C616 C617 1.389 . S
C617 C616 1.389 . S
C617 C618 1.387 . S
C618 H603 0.930 1_545 S
C618 C613 1.390 . S
C618 C617 1.387 . S
H619 C631 0.930 . S
H620 C633 0.930 . S
H621 C634 0.930 . S
H622 C638 0.959 . S
H623 C638 0.959 . S
H624 C638 0.961 . S
H625 C639 0.960 . S
H626 C639 0.961 . S
H627 C639 0.959 . S
H628 C642 0.929 . S
H629 C643 0.931 . S
H630 C645 0.930 . S
C631 H619 0.930 . S
C631 C632 1.399 . S
C631 C636 1.399 . S
C632 C631 1.399 . S
C632 C633 1.376 . S
C633 H620 0.930 . S
C633 C632 1.376 . S
C633 C634 1.388 . S
C634 H621 0.930 . S
C634 C633 1.388 . S
C634 C635 1.390 . S
C635 C634 1.390 . S
C635 C636 1.394 . S
C635 C641 1.465 . S
C636 C631 1.399 . S
C636 C635 1.394 . S
C636 C637 1.516 . S
C637 C636 1.516 . S
C637 C638 1.502 . S
C637 C639 1.561 . S
C637 C640 1.526 . S
C638 H622 0.959 . S
C638 H623 0.959 . S
C638 H624 0.961 . S
C638 C637 1.502 . S
C639 H625 0.960 . S
C639 H626 0.961 . S
C639 H627 0.959 . S
C639 C637 1.561 . S
C640 C637 1.526 . S
C640 C641 1.396 . S
C640 C645 1.390 . S
C641 C635 1.465 . S
C641 C640 1.396 . S
C641 C642 1.399 . S
C642 H628 0.929 . S
C642 C641 1.399 . S
C642 C643 1.385 . S
C643 H629 0.931 . S
C643 C642 1.385 . S
C643 C644 1.389 . S
C644 C643 1.389 . S
C644 C645 1.387 . S
C645 H630 0.930 . S
C645 C640 1.390 . S
C645 C644 1.387 . S
H646 C658 0.930 . S
H647 C660 0.930 . S
H648 C661 0.930 . S
H649 C665 0.959 . S
H650 C665 0.959 . S
H651 C665 0.961 . S
H652 C666 0.960 . S
H653 C666 0.961 . S
H654 C666 0.959 . S
H655 C669 0.929 . S
H656 C670 0.931 . S
H657 C672 0.930 . S
C658 H646 0.930 . S
C658 C659 1.399 . S
C658 C663 1.399 . S
C659 C658 1.399 . S
C659 C660 1.376 . S
C660 H647 0.930 . S
C660 C659 1.376 . S
C660 C661 1.388 . S
C661 H648 0.930 . S
C661 C660 1.388 . S
C661 C662 1.390 . S
C662 C661 1.390 . S
C662 C663 1.394 . S
C662 C668 1.465 . S
C663 C658 1.399 . S
C663 C662 1.394 . S
C663 C664 1.516 . S
C664 C663 1.516 . S
C664 C665 1.502 . S
C664 C666 1.561 . S
C664 C667 1.526 . S
C665 H649 0.959 . S
C665 H650 0.959 . S
C665 H651 0.961 . S
C665 C664 1.502 . S
C666 H652 0.960 . S
C666 H653 0.961 . S
C666 H654 0.959 . S
C666 C664 1.561 . S
C667 C664 1.526 . S
C667 C668 1.396 . S
C667 C672 1.390 . S
C668 C662 1.465 . S
C668 C667 1.396 . S
C668 C669 1.399 . S
C669 H655 0.929 . S
C669 C668 1.399 . S
C669 C670 1.385 . S
C670 H656 0.931 . S
C670 C669 1.385 . S
C670 C671 1.389 . S
C671 C670 1.389 . S
C671 C672 1.387 . S
C672 H657 0.930 . S
C672 C667 1.390 . S
C672 C671 1.387 . S
H673 C685 0.930 . S
H674 C687 0.930 . S
H675 C688 0.930 . S
H676 C692 0.959 . S
H677 C692 0.959 . S
H678 C692 0.961 . S
H679 C693 0.960 . S
H680 C693 0.961 . S
H681 C693 0.959 . S
H682 C696 0.929 . S
H683 C697 0.931 . S
H684 C699 0.930 1_655 S
C685 H673 0.930 . S
C685 C686 1.399 . S
C685 C690 1.399 . S
C686 C685 1.399 . S
C686 C687 1.376 . S
C687 H674 0.930 . S
C687 C686 1.376 . S
C687 C688 1.388 . S
C688 H675 0.930 . S
C688 C687 1.388 . S
C688 C689 1.390 . S
C689 C688 1.390 . S
C689 C690 1.394 . S
C689 C695 1.465 . S
C690 C685 1.399 . S
C690 C689 1.394 . S
C690 C691 1.516 . S
C691 C690 1.516 . S
C691 C692 1.502 . S
C691 C693 1.561 1_455 S
C691 C694 1.526 . S
C692 H676 0.959 . S
C692 H677 0.959 . S
C692 H678 0.961 . S
C692 C691 1.502 . S
C693 H679 0.960 . S
C693 H680 0.961 . S
C693 H681 0.959 . S
C693 C691 1.561 1_655 S
C694 C691 1.526 . S
C694 C695 1.396 . S
C694 C699 1.390 . S
C695 C689 1.465 . S
C695 C694 1.396 . S
C695 C696 1.399 . S
C696 H682 0.929 . S
C696 C695 1.399 . S
C696 C697 1.385 . S
C697 H683 0.931 . S
C697 C696 1.385 . S
C697 C698 1.389 . S
C698 C697 1.389 . S
C698 C699 1.387 . S
C699 H684 0.930 1_455 S
C699 C694 1.390 . S
C699 C698 1.387 . S
H700 C712 0.930 . S
H701 C714 0.930 . S
H702 C715 0.930 . S
H703 C719 0.959 . S
H704 C719 0.959 . S
H705 C719 0.961 . S
H706 C720 0.960 . S
H707 C720 0.961 . S
H708 C720 0.959 . S
H709 C723 0.929 . S
H710 C724 0.931 . S
H711 C726 0.930 . S
C712 H700 0.930 . S
C712 C713 1.399 . S
C712 C717 1.399 . S
C713 C712 1.399 . S
C713 C714 1.376 1_565 S
C714 H701 0.930 . S
C714 C713 1.376 1_545 S
C714 C715 1.388 . S
C715 H702 0.930 . S
C715 C714 1.388 . S
C715 C716 1.390 1_545 S
C716 C715 1.390 1_565 S
C716 C717 1.394 . S
C716 C722 1.465 1_564 S
C717 C712 1.399 . S
C717 C716 1.394 . S
C717 C718 1.516 1_554 S
C718 C717 1.516 1_556 S
C718 C719 1.502 . S
C718 C720 1.561 . S
C718 C721 1.526 . S
C719 H703 0.959 . S
C719 H704 0.959 . S
C719 H705 0.961 . S
C719 C718 1.502 . S
C720 H706 0.960 . S
C720 H707 0.961 . S
C720 H708 0.959 . S
C720 C718 1.561 . S
C721 C718 1.526 . S
C721 C722 1.396 1_565 S
C721 C726 1.390 . S
C722 C716 1.465 1_546 S
C722 C721 1.396 1_545 S
C722 C723 1.399 . S
C723 H709 0.929 . S
C723 C722 1.399 . S
C723 C724 1.385 . S
C724 H710 0.931 . S
C724 C723 1.385 . S
C724 C725 1.381 1_545 S
C725 C724 1.381 1_565 S
C725 C726 1.395 . S
C726 H711 0.930 . S
C726 C721 1.390 . S
C726 C725 1.395 . S
H727 C739 0.930 . S
H728 C741 0.930 . S
H729 C742 0.930 1_556 S
H730 C746 0.959 . S
H731 C746 0.959 . S
H732 C746 0.961 . S
H733 C747 0.960 . S
H734 C747 0.960 . S
H735 C747 0.959 1_556 S
H736 C750 0.929 . S
H737 C751 0.931 . S
H738 C753 0.930 . S
C739 H727 0.930 . S
C739 C740 1.399 . S
C739 C744 1.399 . S
C740 C739 1.399 . S
C740 C741 1.376 . S
C741 H728 0.930 . S
C741 C740 1.376 . S
C741 C742 1.388 . S
C742 H729 0.930 1_554 S
C742 C741 1.388 . S
C742 C743 1.390 1_554 S
C743 C742 1.390 1_556 S
C743 C744 1.394 1_556 S
C743 C749 1.465 . S
C744 C739 1.399 . S
C744 C743 1.394 1_554 S
C744 C745 1.516 . S
C745 C744 1.516 . S
C745 C746 1.502 . S
C745 C747 1.561 . S
C745 C748 1.526 1_554 S
C746 H730 0.959 . S
C746 H731 0.959 . S
C746 H732 0.961 . S
C746 C745 1.502 . S
C747 H733 0.960 . S
C747 H734 0.960 . S
C747 H735 0.959 1_554 S
C747 C745 1.561 . S
C748 C745 1.526 1_556 S
C748 C749 1.396 . S
C748 C753 1.390 . S
C749 C743 1.465 . S
C749 C748 1.396 . S
C749 C750 1.399 . S
C750 H736 0.929 . S
C750 C749 1.399 . S
C750 C751 1.385 . S
C751 H737 0.931 . S
C751 C750 1.385 . S
C751 C752 1.389 . S
C752 C751 1.389 . S
C752 C753 1.387 . S
C753 H738 0.930 . S
C753 C748 1.390 . S
C753 C752 1.387 . S
H754 C766 0.930 . S
H755 C768 0.930 . S
H756 C769 0.930 . S
H757 C773 0.959 . S
H758 C773 0.959 1_556 S
H759 C773 0.961 . S
H760 C774 0.960 . S
H761 C774 0.961 . S
H762 C774 0.959 . S
H763 C777 0.929 . S
H764 C778 0.931 . S
H765 C780 0.930 . S
C766 H754 0.930 . S
C766 C767 1.399 . S
C766 C771 1.399 . S
C767 C766 1.399 . S
C767 C768 1.376 . S
C768 H755 0.930 . S
C768 C767 1.376 . S
C768 C769 1.388 . S
C769 H756 0.930 . S
C769 C768 1.388 . S
C769 C770 1.390 1_554 S
C770 C769 1.390 1_556 S
C770 C771 1.394 1_556 S
C770 C776 1.465 . S
C771 C766 1.399 . S
C771 C770 1.394 1_554 S
C771 C772 1.516 1_554 S
C772 C771 1.516 1_556 S
C772 C773 1.502 1_556 S
C772 C774 1.561 . S
C772 C775 1.526 . S
C773 H757 0.959 . S
C773 H758 0.959 1_554 S
C773 H759 0.961 . S
C773 C772 1.502 1_554 S
C774 H760 0.960 . S
C774 H761 0.961 . S
C774 H762 0.959 . S
C774 C772 1.561 . S
C775 C772 1.526 . S
C775 C776 1.396 . S
C775 C780 1.390 . S
C776 C770 1.465 . S
C776 C775 1.396 . S
C776 C777 1.399 . S
C777 H763 0.929 . S
C777 C776 1.399 . S
C777 C778 1.385 . S
C778 H764 0.931 . S
C778 C777 1.385 . S
C778 C779 1.389 . S
C779 C778 1.389 . S
C779 C780 1.387 . S
C780 H765 0.930 . S
C780 C775 1.390 . S
C780 C779 1.387 . S
H781 C793 0.930 . S
H782 C795 0.930 . S
H783 C796 0.930 . S
H784 C800 0.959 . S
H785 C800 0.959 . S
H786 C800 0.961 . S
H787 C801 0.960 . S
H788 C801 0.961 . S
H789 C801 0.959 . S
H790 C804 0.929 . S
H791 C805 0.931 . S
H792 C807 0.930 1_455 S
C793 H781 0.930 . S
C793 C794 1.399 . S
C793 C798 1.399 . S
C794 C793 1.399 . S
C794 C795 1.376 . S
C795 H782 0.930 . S
C795 C794 1.376 . S
C795 C796 1.388 . S
C796 H783 0.930 . S
C796 C795 1.388 . S
C796 C797 1.390 . S
C797 C796 1.390 . S
C797 C798 1.394 . S
C797 C803 1.465 1_554 S
C798 C793 1.399 . S
C798 C797 1.394 . S
C798 C799 1.516 1_554 S
C799 C798 1.516 1_556 S
C799 C800 1.502 . S
C799 C801 1.561 1_655 S
C799 C802 1.526 . S
C800 H784 0.959 . S
C800 H785 0.959 . S
C800 H786 0.961 . S
C800 C799 1.502 . S
C801 H787 0.960 . S
C801 H788 0.961 . S
C801 H789 0.959 . S
C801 C799 1.561 1_455 S
C802 C799 1.526 . S
C802 C803 1.396 . S
C802 C807 1.390 . S
C803 C797 1.465 1_556 S
C803 C802 1.396 . S
C803 C804 1.399 . S
C804 H790 0.929 . S
C804 C803 1.399 . S
C804 C805 1.385 . S
C805 H791 0.931 . S
C805 C804 1.385 . S
C805 C806 1.389 . S
C806 C805 1.389 . S
C806 C807 1.387 . S
C807 H792 0.930 1_655 S
C807 C802 1.390 . S
C807 C806 1.387 . S
H808 C820 0.930 . S
H809 C822 0.930 . S
H810 C823 0.930 . S
H811 C827 0.959 . S
H812 C827 0.959 . S
H813 C827 0.961 . S
H814 C828 0.960 . S
H815 C828 0.961 . S
H816 C828 0.959 1_655 S
H817 C831 0.929 . S
H818 C832 0.931 . S
H819 C834 0.930 . S
C820 H808 0.930 . S
C820 C821 1.399 . S
C820 C825 1.399 . S
C821 C820 1.399 . S
C821 C822 1.376 . S
C822 H809 0.930 . S
C822 C821 1.376 . S
C822 C823 1.388 . S
C823 H810 0.930 . S
C823 C822 1.388 . S
C823 C824 1.390 . S
C824 C823 1.390 . S
C824 C825 1.394 . S
C824 C830 1.465 . S
C825 C820 1.399 . S
C825 C824 1.394 . S
C825 C826 1.516 . S
C826 C825 1.516 . S
C826 C827 1.502 . S
C826 C828 1.561 . S
C826 C829 1.526 . S
C827 H811 0.959 . S
C827 H812 0.959 . S
C827 H813 0.961 . S
C827 C826 1.502 . S
C828 H814 0.960 . S
C828 H815 0.961 . S
C828 H816 0.959 1_455 S
C828 C826 1.561 . S
C829 C826 1.526 . S
C829 C830 1.396 . S
C829 C834 1.390 . S
C830 C824 1.465 . S
C830 C829 1.396 . S
C830 C831 1.399 1_455 S
C831 H817 0.929 . S
C831 C830 1.399 1_655 S
C831 C832 1.385 . S
C832 H818 0.931 . S
C832 C831 1.385 . S
C832 C833 1.389 . S
C833 C832 1.389 . S
C833 C834 1.387 1_655 S
C834 H819 0.930 . S
C834 C829 1.390 . S
C834 C833 1.387 1_455 S
H835 C847 0.930 . S
H836 C849 0.930 . S
H837 C850 0.930 . S
H838 C854 0.977 . S
H839 C854 0.959 . S
H840 C854 0.961 . S
H841 C855 0.960 . S
H842 C855 0.961 . S
H843 C855 0.959 . S
H844 C858 0.929 . S
H845 C859 0.931 1_565 S
H846 C861 0.930 . S
C847 H835 0.930 . S
C847 C848 1.399 . S
C847 C852 1.399 . S
C848 C847 1.399 . S
C848 C849 1.376 . S
C849 H836 0.930 . S
C849 C848 1.376 . S
C849 C850 1.388 . S
C850 H837 0.930 . S
C850 C849 1.388 . S
C850 C851 1.390 . S
C851 C850 1.390 . S
C851 C852 1.394 . S
C851 C857 1.465 . S
C852 C847 1.399 . S
C852 C851 1.394 . S
C852 C853 1.516 . S
C853 C852 1.516 . S
C853 C854 1.502 . S
C853 C855 1.561 . S
C853 C856 1.526 . S
C854 H838 0.977 . S
C854 H839 0.959 . S
C854 H840 0.961 . S
C854 C853 1.502 . S
C855 H841 0.960 . S
C855 H842 0.961 . S
C855 H843 0.959 . S
C855 C853 1.561 . S
C856 C853 1.526 . S
C856 C857 1.396 . S
C856 C861 1.390 . S
C857 C851 1.465 . S
C857 C856 1.396 . S
C857 C858 1.399 . S
C858 H844 0.929 . S
C858 C857 1.399 . S
C858 C859 1.385 . S
C859 H845 0.931 1_545 S
C859 C858 1.385 . S
C859 C860 1.389 . S
C860 C859 1.389 . S
C860 C861 1.387 . S
C861 H846 0.930 . S
C861 C856 1.390 . S
C861 C860 1.387 . S
H862 C874 0.930 . S
H863 C876 0.930 . S
H864 C877 0.930 . S
H865 C881 0.959 . S
H866 C881 0.959 . S
H867 C881 0.961 . S
H868 C882 0.960 . S
H869 C882 0.961 . S
H870 C882 0.959 . S
H871 C885 0.929 . S
H872 C886 0.931 . S
H873 C888 0.930 . S
C874 H862 0.930 . S
C874 C875 1.399 . S
C874 C879 1.399 . S
C875 C874 1.399 . S
C875 C876 1.376 . S
C876 H863 0.930 . S
C876 C875 1.376 . S
C876 C877 1.388 . S
C877 H864 0.930 . S
C877 C876 1.388 . S
C877 C878 1.390 . S
C878 C877 1.390 . S
C878 C879 1.394 . S
C878 C884 1.465 . S
C879 C874 1.399 . S
C879 C878 1.394 . S
C879 C880 1.516 . S
C880 C879 1.516 . S
C880 C881 1.502 . S
C880 C882 1.561 . S
C880 C883 1.526 . S
C881 H865 0.959 . S
C881 H866 0.959 . S
C881 H867 0.961 . S
C881 C880 1.502 . S
C882 H868 0.960 . S
C882 H869 0.961 . S
C882 H870 0.959 . S
C882 C880 1.561 . S
C883 C880 1.526 . S
C883 C884 1.396 . S
C883 C888 1.390 . S
C884 C878 1.465 . S
C884 C883 1.396 . S
C884 C885 1.399 . S
C885 H871 0.929 . S
C885 C884 1.399 . S
C885 C886 1.385 . S
C886 H872 0.931 . S
C886 C885 1.385 . S
C886 C887 1.389 . S
C887 C886 1.389 . S
C887 C888 1.387 . S
C888 H873 0.930 . S
C888 C883 1.390 . S
C888 C887 1.387 . S
H889 C901 0.930 . S
H890 C903 0.930 . S
H891 C904 0.930 . S
H892 C908 0.959 . S
H893 C908 0.959 . S
H894 C908 0.961 . S
H895 C909 0.960 . S
H896 C909 0.961 . S
H897 C909 0.959 . S
H898 C912 0.929 . S
H899 C913 0.931 . S
H900 C915 0.930 . S
C901 H889 0.930 . S
C901 C902 1.399 . S
C901 C906 1.399 . S
C902 C901 1.399 . S
C902 C903 1.376 . S
C903 H890 0.930 . S
C903 C902 1.376 . S
C903 C904 1.388 . S
C904 H891 0.930 . S
C904 C903 1.388 . S
C904 C905 1.390 . S
C905 C904 1.390 . S
C905 C906 1.394 . S
C905 C911 1.465 . S
C906 C901 1.399 . S
C906 C905 1.394 . S
C906 C907 1.516 . S
C907 C906 1.516 . S
C907 C908 1.502 . S
C907 C909 1.561 . S
C907 C910 1.526 . S
C908 H892 0.959 . S
C908 H893 0.959 . S
C908 H894 0.961 . S
C908 C907 1.502 . S
C909 H895 0.960 . S
C909 H896 0.961 . S
C909 H897 0.959 . S
C909 C907 1.561 . S
C910 C907 1.526 . S
C910 C911 1.396 . S
C910 C915 1.390 . S
C911 C905 1.465 . S
C911 C910 1.396 . S
C911 C912 1.399 . S
C912 H898 0.929 . S
C912 C911 1.399 . S
C912 C913 1.385 . S
C913 H899 0.931 . S
C913 C912 1.385 . S
C913 C914 1.389 . S
C914 C913 1.389 . S
C914 C915 1.387 . S
C915 H900 0.930 . S
C915 C910 1.390 . S
C915 C914 1.387 . S
H916 C928 0.930 . S
H917 C930 0.930 . S
H918 C931 0.930 . S
H919 C935 0.959 . S
H920 C935 0.959 . S
H921 C935 0.961 . S
H922 C936 0.959 1_655 S
H923 C936 0.961 . S
H924 C936 0.959 . S
H925 C939 0.929 . S
H926 C940 0.931 . S
H927 C942 0.930 . S
C928 H916 0.930 . S
C928 C929 1.399 . S
C928 C933 1.399 . S
C929 C928 1.399 . S
C929 C930 1.376 . S
C930 H917 0.930 . S
C930 C929 1.376 . S
C930 C931 1.388 1_554 S
C931 H918 0.930 . S
C931 C930 1.388 1_556 S
C931 C932 1.390 . S
C932 C931 1.390 . S
C932 C933 1.394 1_556 S
C932 C938 1.466 . S
C933 C928 1.399 . S
C933 C932 1.394 1_554 S
C933 C934 1.516 . S
C934 C933 1.516 . S
C934 C935 1.502 . S
C934 C936 1.561 1_655 S
C934 C937 1.526 1_554 S
C935 H919 0.959 . S
C935 H920 0.959 . S
C935 H921 0.961 . S
C935 C934 1.502 . S
C936 H922 0.959 1_455 S
C936 H923 0.961 . S
C936 H924 0.959 . S
C936 C934 1.561 1_455 S
C937 C934 1.526 1_556 S
C937 C938 1.397 . S
C937 C942 1.390 1_655 S
C938 C932 1.466 . S
C938 C937 1.397 . S
C938 C939 1.397 1_655 S
C939 H925 0.929 . S
C939 C938 1.397 1_455 S
C939 C940 1.385 . S
C940 H926 0.931 . S
C940 C939 1.385 . S
C940 C941 1.389 . S
C941 C940 1.389 . S
C941 C942 1.387 . S
C942 H927 0.930 . S
C942 C937 1.390 1_455 S
C942 C941 1.387 . S
H943 C955 0.930 1_545 S
H944 C957 0.930 . S
H945 C958 0.930 . S
H946 C962 0.959 . S
H947 C962 0.959 . S
H948 C962 0.961 . S
H949 C963 0.960 1_554 S
H950 C963 0.961 . S
H951 C963 0.959 . S
H952 C966 0.929 . S
H953 C967 0.931 . S
H954 C969 0.930 . S
C955 H943 0.930 1_565 S
C955 C956 1.399 . S
C955 C960 1.399 . S
C956 C955 1.399 . S
C956 C957 1.376 . S
C957 H944 0.930 . S
C957 C956 1.376 . S
C957 C958 1.388 1_554 S
C958 H945 0.930 . S
C958 C957 1.388 1_556 S
C958 C959 1.390 . S
C959 C958 1.390 . S
C959 C960 1.394 1_556 S
C959 C965 1.465 . S
C960 C955 1.399 . S
C960 C959 1.394 1_554 S
C960 C961 1.516 1_565 S
C961 C960 1.516 1_545 S
C961 C962 1.502 . S
C961 C963 1.561 1_554 S
C961 C964 1.526 1_554 S
C962 H946 0.959 . S
C962 H947 0.959 . S
C962 H948 0.961 . S
C962 C961 1.502 . S
C963 H949 0.960 1_556 S
C963 H950 0.961 . S
C963 H951 0.959 . S
C963 C961 1.561 1_556 S
C964 C961 1.526 1_556 S
C964 C965 1.396 1_545 S
C964 C969 1.390 . S
C965 C959 1.465 . S
C965 C964 1.396 1_565 S
C965 C966 1.399 . S
C966 H952 0.929 . S
C966 C965 1.399 . S
C966 C967 1.385 . S
C967 H953 0.931 . S
C967 C966 1.385 . S
C967 C968 1.389 1_565 S
C968 C967 1.389 1_545 S
C968 C969 1.387 . S
C969 H954 0.930 . S
C969 C964 1.390 . S
C969 C968 1.387 . S
H970 C982 0.930 . S
H971 C984 0.930 . S
H972 C985 0.930 1_556 S
H973 C989 0.959 1_556 S
H974 C989 0.959 . S
H975 C989 0.961 . S
H976 C990 0.960 . S
H977 C990 0.961 . S
H978 C990 0.959 . S
H979 C993 0.929 . S
H980 C994 0.931 . S
H981 C996 0.930 . S
C982 H970 0.930 . S
C982 C983 1.399 . S
C982 C987 1.399 . S
C983 C982 1.399 . S
C983 C984 1.376 . S
C984 H971 0.930 . S
C984 C983 1.376 . S
C984 C985 1.388 . S
C985 H972 0.930 1_554 S
C985 C984 1.388 . S
C985 C986 1.390 . S
C986 C985 1.390 . S
C986 C987 1.394 . S
C986 C992 1.465 1_554 S
C987 C982 1.399 . S
C987 C986 1.394 . S
C987 C988 1.516 . S
C988 C987 1.516 . S
C988 C989 1.502 . S
C988 C990 1.561 . S
C988 C991 1.526 1_554 S
C989 H973 0.959 1_554 S
C989 H974 0.959 . S
C989 H975 0.961 . S
C989 C988 1.502 . S
C990 H976 0.960 . S
C990 H977 0.961 . S
C990 H978 0.959 . S
C990 C988 1.561 . S
C991 C988 1.526 1_556 S
C991 C992 1.396 . S
C991 C996 1.390 . S
C992 C986 1.465 1_556 S
C992 C991 1.396 . S
C992 C993 1.399 . S
C993 H979 0.929 . S
C993 C992 1.399 . S
C993 C994 1.385 . S
C994 H980 0.931 . S
C994 C993 1.385 . S
C994 C995 1.389 . S
C995 C994 1.389 . S
C995 C996 1.387 . S
C996 H981 0.930 . S
C996 C991 1.390 . S
C996 C995 1.387 . S
H997 C1009 0.930 . S
H998 C1011 0.930 . S
H999 C1012 0.930 . S
H1000 C1016 0.959 . S
H1001 C1016 0.959 . S
H1002 C1016 0.961 . S
H1003 C1017 0.960 . S
H1004 C1017 0.961 . S
H1005 C1017 0.959 1_556 S
H1006 C1020 0.929 . S
H1007 C1021 0.931 . S
H1008 C1023 0.930 . S
C1009 H997 0.930 . S
C1009 C1010 1.399 . S
C1009 C1014 1.399 . S
C1010 C1009 1.399 . S
C1010 C1011 1.376 . S
C1011 H998 0.930 . S
C1011 C1010 1.376 . S
C1011 C1012 1.388 1_554 S
C1012 H999 0.930 . S
C1012 C1011 1.388 1_556 S
C1012 C1013 1.390 . S
C1013 C1012 1.390 . S
C1013 C1014 1.394 1_556 S
C1013 C1019 1.465 . S
C1014 C1009 1.399 . S
C1014 C1013 1.394 1_554 S
C1014 C1015 1.516 . S
C1015 C1014 1.516 . S
C1015 C1016 1.502 . S
C1015 C1017 1.561 . S
C1015 C1018 1.526 1_554 S
C1016 H1000 0.959 . S
C1016 H1001 0.959 . S
C1016 H1002 0.961 . S
C1016 C1015 1.502 . S
C1017 H1003 0.960 . S
C1017 H1004 0.961 . S
C1017 H1005 0.959 1_554 S
C1017 C1015 1.561 . S
C1018 C1015 1.526 1_556 S
C1018 C1019 1.396 . S
C1018 C1023 1.390 . S
C1019 C1013 1.465 . S
C1019 C1018 1.396 . S
C1019 C1020 1.399 . S
C1020 H1006 0.929 . S
C1020 C1019 1.399 . S
C1020 C1021 1.385 . S
C1021 H1007 0.931 . S
C1021 C1020 1.385 . S
C1021 C1022 1.389 . S
C1022 C1021 1.389 . S
C1022 C1023 1.387 . S
C1023 H1008 0.930 . S
C1023 C1018 1.390 . S
C1023 C1022 1.387 . S
H1024 C1036 0.930 . S
H1025 C1038 0.930 . S
H1026 C1039 0.930 . S
H1027 C1043 0.959 . S
H1028 C1043 0.959 . S
H1029 C1043 0.961 . S
H1030 C1044 0.960 . S
H1031 C1044 0.961 . S
H1032 C1044 0.950 1_655 S
H1033 C1047 0.929 . S
H1034 C1048 0.931 . S
H1035 C1050 0.930 . S
C1036 H1024 0.930 . S
C1036 C1037 1.399 . S
C1036 C1041 1.399 . S
C1037 C1036 1.399 . S
C1037 C1038 1.376 . S
C1038 H1025 0.930 . S
C1038 C1037 1.376 . S
C1038 C1039 1.388 . S
C1039 H1026 0.930 . S
C1039 C1038 1.388 . S
C1039 C1040 1.390 . S
C1040 C1039 1.390 . S
C1040 C1041 1.394 . S
C1040 C1046 1.465 . S
C1041 C1036 1.399 . S
C1041 C1040 1.394 . S
C1041 C1042 1.516 . S
C1042 C1041 1.516 . S
C1042 C1043 1.502 . S
C1042 C1044 1.561 . S
C1042 C1045 1.526 . S
C1043 H1027 0.959 . S
C1043 H1028 0.959 . S
C1043 H1029 0.961 . S
C1043 C1042 1.502 . S
C1044 H1030 0.960 . S
C1044 H1031 0.961 . S
C1044 H1032 0.950 1_455 S
C1044 C1042 1.561 . S
C1045 C1042 1.526 . S
C1045 C1046 1.396 . S
C1045 C1050 1.390 . S
C1046 C1040 1.465 . S
C1046 C1045 1.396 . S
C1046 C1047 1.399 . S
C1047 H1033 0.929 . S
C1047 C1046 1.399 . S
C1047 C1048 1.385 . S
C1048 H1034 0.931 . S
C1048 C1047 1.385 . S
C1048 C1049 1.389 . S
C1049 C1048 1.389 . S
C1049 C1050 1.387 . S
C1050 H1035 0.930 . S
C1050 C1045 1.390 . S
C1050 C1049 1.387 . S
H1051 C1063 0.930 . S
H1052 C1065 0.930 . S
H1053 C1066 0.930 . S
H1054 C1070 0.959 . S
H1055 C1070 0.959 1_565 S
H1056 C1070 0.961 . S
H1057 C1071 0.960 . S
H1058 C1071 0.961 . S
H1059 C1071 0.959 . S
H1060 C1074 0.929 . S
H1061 C1075 0.931 . S
H1062 C1077 0.930 . S
C1063 H1051 0.930 . S
C1063 C1064 1.399 . S
C1063 C1068 1.399 . S
C1064 C1063 1.399 . S
C1064 C1065 1.376 . S
C1065 H1052 0.930 . S
C1065 C1064 1.376 . S
C1065 C1066 1.388 . S
C1066 H1053 0.930 . S
C1066 C1065 1.388 . S
C1066 C1067 1.390 . S
C1067 C1066 1.390 . S
C1067 C1068 1.394 . S
C1067 C1073 1.465 . S
C1068 C1063 1.399 . S
C1068 C1067 1.394 . S
C1068 C1069 1.516 . S
C1069 C1068 1.516 . S
C1069 C1070 1.502 . S
C1069 C1071 1.561 1_545 S
C1069 C1072 1.526 . S
C1070 H1054 0.959 . S
C1070 H1055 0.959 1_545 S
C1070 H1056 0.961 . S
C1070 C1069 1.502 . S
C1071 H1057 0.960 . S
C1071 H1058 0.961 . S
C1071 H1059 0.959 . S
C1071 C1069 1.561 1_565 S
C1072 C1069 1.526 . S
C1072 C1073 1.396 . S
C1072 C1077 1.390 . S
C1073 C1067 1.465 . S
C1073 C1072 1.396 . S
C1073 C1074 1.399 . S
C1074 H1060 0.929 . S
C1074 C1073 1.399 . S
C1074 C1075 1.385 . S
C1075 H1061 0.931 . S
C1075 C1074 1.385 . S
C1075 C1076 1.389 . S
C1076 C1075 1.389 . S
C1076 C1077 1.387 . S
C1077 H1062 0.930 . S
C1077 C1072 1.390 . S
C1077 C1076 1.387 . S
H1078 C1090 0.930 . S
H1079 C1092 0.930 . S
H1080 C1093 0.930 . S
H1081 C1097 0.959 . S
H1082 C1097 0.959 . S
H1083 C1097 0.961 . S
H1084 C1098 0.960 . S
H1085 C1098 0.961 . S
H1086 C1098 0.959 . S
H1087 C1101 0.929 . S
H1088 C1102 0.931 . S
H1089 C1104 0.930 . S
C1090 H1078 0.930 . S
C1090 C1091 1.399 . S
C1090 C1095 1.399 . S
C1091 C1090 1.399 . S
C1091 C1092 1.376 . S
C1092 H1079 0.930 . S
C1092 C1091 1.376 . S
C1092 C1093 1.388 . S
C1093 H1080 0.930 . S
C1093 C1092 1.388 . S
C1093 C1094 1.390 . S
C1094 C1093 1.390 . S
C1094 C1095 1.394 . S
C1094 C1100 1.465 . S
C1095 C1090 1.399 . S
C1095 C1094 1.394 . S
C1095 C1096 1.516 . S
C1096 C1095 1.516 . S
C1096 C1097 1.502 . S
C1096 C1098 1.561 . S
C1096 C1099 1.526 . S
C1097 H1081 0.959 . S
C1097 H1082 0.959 . S
C1097 H1083 0.961 . S
C1097 C1096 1.502 . S
C1098 H1084 0.960 . S
C1098 H1085 0.961 . S
C1098 H1086 0.959 . S
C1098 C1096 1.561 . S
C1099 C1096 1.526 . S
C1099 C1100 1.396 . S
C1099 C1104 1.390 . S
C1100 C1094 1.465 . S
C1100 C1099 1.396 . S
C1100 C1101 1.399 . S
C1101 H1087 0.929 . S
C1101 C1100 1.399 . S
C1101 C1102 1.385 . S
C1102 H1088 0.931 . S
C1102 C1101 1.385 . S
C1102 C1103 1.389 . S
C1103 C1102 1.389 . S
C1103 C1104 1.387 . S
C1104 H1089 0.930 . S
C1104 C1099 1.390 . S
C1104 C1103 1.387 . S
H1105 C1117 0.930 . S
H1106 C1119 0.930 . S
H1107 C1120 0.930 . S
H1108 C1124 0.959 . S
H1109 C1124 0.959 . S
H1110 C1124 0.961 . S
H1111 C1125 0.960 . S
H1112 C1125 0.961 . S
H1113 C1125 0.959 . S
H1114 C1128 0.929 . S
H1115 C1129 0.931 . S
H1116 C1131 0.930 . S
C1117 H1105 0.930 . S
C1117 C1118 1.399 . S
C1117 C1122 1.399 . S
C1118 C1117 1.399 . S
C1118 C1119 1.376 . S
C1119 H1106 0.930 . S
C1119 C1118 1.376 . S
C1119 C1120 1.388 . S
C1120 H1107 0.930 . S
C1120 C1119 1.388 . S
C1120 C1121 1.390 . S
C1121 C1120 1.390 . S
C1121 C1122 1.394 . S
C1121 C1127 1.465 . S
C1122 C1117 1.399 . S
C1122 C1121 1.394 . S
C1122 C1123 1.516 . S
C1123 C1122 1.516 . S
C1123 C1124 1.502 . S
C1123 C1125 1.561 . S
C1123 C1126 1.526 . S
C1124 H1108 0.959 . S
C1124 H1109 0.959 . S
C1124 H1110 0.961 . S
C1124 C1123 1.502 . S
C1125 H1111 0.960 . S
C1125 H1112 0.961 . S
C1125 H1113 0.959 . S
C1125 C1123 1.561 . S
C1126 C1123 1.526 . S
C1126 C1127 1.396 . S
C1126 C1131 1.390 . S
C1127 C1121 1.465 . S
C1127 C1126 1.396 . S
C1127 C1128 1.399 . S
C1128 H1114 0.929 . S
C1128 C1127 1.399 . S
C1128 C1129 1.385 . S
C1129 H1115 0.931 . S
C1129 C1128 1.385 . S
C1129 C1130 1.389 . S
C1130 C1129 1.389 . S
C1130 C1131 1.387 . S
C1131 H1116 0.930 . S
C1131 C1126 1.390 . S
C1131 C1130 1.387 . S
H1132 C1144 0.930 . S
H1133 C1146 0.930 . S
H1134 C1147 0.930 . S
H1135 C1151 0.959 . S
H1136 C1151 0.959 . S
H1137 C1151 0.961 . S
H1138 C1152 0.960 . S
H1139 C1152 0.961 . S
H1140 C1152 0.959 . S
H1141 C1155 0.929 . S
H1142 C1156 0.931 . S
H1143 C1158 0.930 . S
C1144 H1132 0.930 . S
C1144 C1145 1.399 . S
C1144 C1149 1.399 . S
C1145 C1144 1.399 . S
C1145 C1146 1.376 . S
C1146 H1133 0.930 . S
C1146 C1145 1.376 . S
C1146 C1147 1.388 . S
C1147 H1134 0.930 . S
C1147 C1146 1.388 . S
C1147 C1148 1.390 . S
C1148 C1147 1.390 . S
C1148 C1149 1.394 . S
C1148 C1154 1.465 . S
C1149 C1144 1.399 . S
C1149 C1148 1.394 . S
C1149 C1150 1.516 . S
C1150 C1149 1.516 . S
C1150 C1151 1.502 . S
C1150 C1152 1.561 1_655 S
C1150 C1153 1.526 . S
C1151 H1135 0.959 . S
C1151 H1136 0.959 . S
C1151 H1137 0.961 . S
C1151 C1150 1.502 . S
C1152 H1138 0.960 . S
C1152 H1139 0.961 . S
C1152 H1140 0.959 . S
C1152 C1150 1.561 1_455 S
C1153 C1150 1.526 . S
C1153 C1154 1.396 . S
C1153 C1158 1.390 . S
C1154 C1148 1.465 . S
C1154 C1153 1.396 . S
C1154 C1155 1.399 . S
C1155 H1141 0.929 . S
C1155 C1154 1.399 . S
C1155 C1156 1.385 . S
C1156 H1142 0.931 . S
C1156 C1155 1.385 . S
C1156 C1157 1.389 . S
C1157 C1156 1.389 . S
C1157 C1158 1.387 . S
C1158 H1143 0.930 . S
C1158 C1153 1.390 . S
C1158 C1157 1.387 . S
H1159 C1171 0.930 . S
H1160 C1173 0.930 . S
H1161 C1174 0.930 1_545 S
H1162 C1178 0.959 . S
H1163 C1178 0.959 . S
H1164 C1178 0.961 . S
H1165 C1179 0.960 . S
H1166 C1179 0.961 . S
H1167 C1179 0.959 . S
H1168 C1182 0.929 . S
H1169 C1183 0.931 . S
H1170 C1185 0.930 . S
C1171 H1159 0.930 . S
C1171 C1172 1.399 . S
C1171 C1176 1.399 . S
C1172 C1171 1.399 . S
C1172 C1173 1.376 . S
C1173 H1160 0.930 . S
C1173 C1172 1.376 . S
C1173 C1174 1.388 . S
C1174 H1161 0.930 1_565 S
C1174 C1173 1.388 . S
C1174 C1175 1.390 . S
C1175 C1174 1.390 . S
C1175 C1176 1.394 . S
C1175 C1181 1.465 . S
C1176 C1171 1.399 . S
C1176 C1175 1.394 . S
C1176 C1177 1.516 . S
C1177 C1176 1.516 . S
C1177 C1178 1.502 . S
C1177 C1179 1.561 . S
C1177 C1180 1.526 . S
C1178 H1162 0.959 . S
C1178 H1163 0.959 . S
C1178 H1164 0.961 . S
C1178 C1177 1.502 . S
C1179 H1165 0.960 . S
C1179 H1166 0.961 . S
C1179 H1167 0.959 . S
C1179 C1177 1.561 . S
C1180 C1177 1.526 . S
C1180 C1181 1.396 . S
C1180 C1185 1.390 . S
C1181 C1175 1.465 . S
C1181 C1180 1.396 . S
C1181 C1182 1.399 1_565 S
C1182 H1168 0.929 . S
C1182 C1181 1.399 1_545 S
C1182 C1183 1.385 . S
C1183 H1169 0.931 . S
C1183 C1182 1.385 . S
C1183 C1184 1.389 1_545 S
C1184 C1183 1.389 1_565 S
C1184 C1185 1.387 . S
C1185 H1170 0.930 . S
C1185 C1180 1.390 . S
C1185 C1184 1.387 . S
H1186 C1198 0.930 . S
H1187 C1200 0.930 . S
H1188 C1201 0.930 . S
H1189 C1205 0.959 . S
H1190 C1205 0.959 . S
H1191 C1205 0.961 . S
H1192 C1206 0.960 . S
H1193 C1206 0.961 . S
H1194 C1206 0.959 . S
H1195 C1209 0.929 . S
H1196 C1210 0.931 . S
H1197 C1212 0.930 . S
C1198 H1186 0.930 . S
C1198 C1199 1.399 . S
C1198 C1203 1.399 . S
C1199 C1198 1.399 . S
C1199 C1200 1.376 . S
C1200 H1187 0.930 . S
C1200 C1199 1.376 . S
C1200 C1201 1.388 . S
C1201 H1188 0.930 . S
C1201 C1200 1.388 . S
C1201 C1202 1.390 . S
C1202 C1201 1.390 . S
C1202 C1203 1.394 . S
C1202 C1208 1.465 . S
C1203 C1198 1.399 . S
C1203 C1202 1.394 . S
C1203 C1204 1.516 . S
C1204 C1203 1.516 . S
C1204 C1205 1.502 . S
C1204 C1206 1.561 . S
C1204 C1207 1.526 . S
C1205 H1189 0.959 . S
C1205 H1190 0.959 . S
C1205 H1191 0.961 . S
C1205 C1204 1.502 . S
C1206 H1192 0.960 . S
C1206 H1193 0.961 . S
C1206 H1194 0.959 . S
C1206 C1204 1.561 . S
C1207 C1204 1.526 . S
C1207 C1208 1.396 . S
C1207 C1212 1.390 . S
C1208 C1202 1.465 . S
C1208 C1207 1.396 . S
C1208 C1209 1.399 . S
C1209 H1195 0.929 . S
C1209 C1208 1.399 . S
C1209 C1210 1.385 . S
C1210 H1196 0.931 . S
C1210 C1209 1.385 . S
C1210 C1211 1.389 . S
C1211 C1210 1.389 . S
C1211 C1212 1.387 . S
C1212 H1197 0.930 . S
C1212 C1207 1.390 . S
C1212 C1211 1.387 . S
H1213 C1225 0.930 . S
H1214 C1227 0.930 . S
H1215 C1228 0.930 . S
H1216 C1232 0.959 . S
H1217 C1232 0.959 . S
H1218 C1232 0.961 . S
H1219 C1233 0.960 . S
H1220 C1233 0.961 . S
H1221 C1233 0.959 . S
H1222 C1236 0.929 . S
H1223 C1237 0.931 . S
H1224 C1239 0.930 . S
C1225 H1213 0.930 . S
C1225 C1226 1.399 . S
C1225 C1230 1.399 . S
C1226 C1225 1.399 . S
C1226 C1227 1.376 . S
C1227 H1214 0.930 . S
C1227 C1226 1.376 . S
C1227 C1228 1.388 . S
C1228 H1215 0.930 . S
C1228 C1227 1.388 . S
C1228 C1229 1.390 . S
C1229 C1228 1.390 . S
C1229 C1230 1.394 . S
C1229 C1235 1.465 . S
C1230 C1225 1.399 . S
C1230 C1229 1.394 . S
C1230 C1231 1.516 . S
C1231 C1230 1.516 . S
C1231 C1232 1.502 . S
C1231 C1233 1.561 . S
C1231 C1234 1.526 . S
C1232 H1216 0.959 . S
C1232 H1217 0.959 . S
C1232 H1218 0.961 . S
C1232 C1231 1.502 . S
C1233 H1219 0.960 . S
C1233 H1220 0.961 . S
C1233 H1221 0.959 . S
C1233 C1231 1.561 . S
C1234 C1231 1.526 . S
C1234 C1235 1.396 . S
C1234 C1239 1.390 . S
C1235 C1229 1.465 . S
C1235 C1234 1.396 . S
C1235 C1236 1.399 . S
C1236 H1222 0.929 . S
C1236 C1235 1.399 . S
C1236 C1237 1.385 . S
C1237 H1223 0.931 . S
C1237 C1236 1.385 . S
C1237 C1238 1.389 . S
C1238 C1237 1.389 . S
C1238 C1239 1.387 . S
C1239 H1224 0.930 . S
C1239 C1234 1.390 . S
C1239 C1238 1.387 . S
C605 C215 2.097 . S
C617 C319 2.260 . S
C644 C396 2.268 . S
C632 C247 2.112 . S
C671 C487 2.256 . S
C659 C151 2.097 . S
C698 C571 2.244 . S
C686 C183 2.079 . S
C725 C330 2.221 1_565 S
C713 C87 2.045 . S
C740 C119 2.054 . S
C752 C407 2.264 . S
C767 C23 2.022 . S
C779 C498 2.238 . S
C794 C55 2.084 . S
C806 C582 2.210 1_655 S
C833 C314 0.540 . S
C821 C189 0.470 . S
C860 C409 0.685 . S
C848 C221 0.469 . S
C887 C482 0.427 . S
C875 C253 0.501 . S
C902 C157 0.442 . S
C914 C566 0.609 . S
C929 C61 0.519 . S
C941 C325 0.446 . S
C968 C398 0.626 . S
C956 C93 0.686 . S
C995 C493 0.425 . S
C983 C125 0.464 . S
C1010 C29 0.667 . S
C1022 C577 0.556 . S
C1037 C177 2.385 . S
C1049 C323 2.552 . S
C1064 C209 2.383 . S
C1076 C414 2.605 . S
C1103 C491 2.567 . S
C1091 C241 2.404 . S
C1130 C575 2.594 . S
C1118 C145 2.351 . S
C1145 C49 2.262 . S
C1157 C312 2.581 . S
C1184 C403 2.605 . S
C1172 C81 2.338 . S
C1211 C480 2.568 . S
C1199 C113 2.356 . S
C1226 C17 2.316 . S
C1238 C564 2.592 . S
