# Generated by pormake.
# Topology cml, (3,6)-cn, num edge types: 1
# Building blocks:
#     Node 0, Type 0, BuildingBlock: PAMTOO_clean_linker_0, # of connection points: 3
#     Node 1, Type 0, BuildingBlock: PAMTOO_clean_linker_0, # of connection points: 3
#     Node 2, Type 0, BuildingBlock: PAMTOO_clean_linker_0, # of connection points: 3
#     Node 3, Type 0, BuildingBlock: PAMTOO_clean_linker_0, # of connection points: 3
#     Node 4, Type 0, BuildingBlock: PAMTOO_clean_linker_0, # of connection points: 3
#     Node 5, Type 0, BuildingBlock: PAMTOO_clean_linker_0, # of connection points: 3
#     Node 6, Type 0, BuildingBlock: PAMTOO_clean_linker_0, # of connection points: 3
#     Node 7, Type 0, BuildingBlock: PAMTOO_clean_linker_0, # of connection points: 3
#     Node 8, Type 1, BuildingBlock: IZENUY_clean_sbu_0, # of connection points: 6
#     Node 9, Type 1, BuildingBlock: IZENUY_clean_sbu_0, # of connection points: 6
#     Node 10, Type 1, BuildingBlock: IZENUY_clean_sbu_0, # of connection points: 6
#     Node 11, Type 1, BuildingBlock: IZENUY_clean_sbu_0, # of connection points: 6
#     Edge 12, Type (0, 1), BuildingBlock: TEMPAE_clean_linker_10, # of connection points: 2
#     Edge 13, Type (0, 1), BuildingBlock: TEMPAE_clean_linker_10, # of connection points: 2
#     Edge 14, Type (0, 1), BuildingBlock: TEMPAE_clean_linker_10, # of connection points: 2
#     Edge 15, Type (0, 1), BuildingBlock: TEMPAE_clean_linker_10, # of connection points: 2
#     Edge 16, Type (0, 1), BuildingBlock: TEMPAE_clean_linker_10, # of connection points: 2
#     Edge 17, Type (0, 1), BuildingBlock: TEMPAE_clean_linker_10, # of connection points: 2
#     Edge 18, Type (0, 1), BuildingBlock: TEMPAE_clean_linker_10, # of connection points: 2
#     Edge 19, Type (0, 1), BuildingBlock: TEMPAE_clean_linker_10, # of connection points: 2
#     Edge 20, Type (0, 1), BuildingBlock: TEMPAE_clean_linker_10, # of connection points: 2
#     Edge 21, Type (0, 1), BuildingBlock: TEMPAE_clean_linker_10, # of connection points: 2
#     Edge 22, Type (0, 1), BuildingBlock: TEMPAE_clean_linker_10, # of connection points: 2
#     Edge 23, Type (0, 1), BuildingBlock: TEMPAE_clean_linker_10, # of connection points: 2
#     Edge 24, Type (0, 1), BuildingBlock: TEMPAE_clean_linker_10, # of connection points: 2
#     Edge 25, Type (0, 1), BuildingBlock: TEMPAE_clean_linker_10, # of connection points: 2
#     Edge 26, Type (0, 1), BuildingBlock: TEMPAE_clean_linker_10, # of connection points: 2
#     Edge 27, Type (0, 1), BuildingBlock: TEMPAE_clean_linker_10, # of connection points: 2
#     Edge 28, Type (0, 1), BuildingBlock: TEMPAE_clean_linker_10, # of connection points: 2
#     Edge 29, Type (0, 1), BuildingBlock: TEMPAE_clean_linker_10, # of connection points: 2
#     Edge 30, Type (0, 1), BuildingBlock: TEMPAE_clean_linker_10, # of connection points: 2
#     Edge 31, Type (0, 1), BuildingBlock: TEMPAE_clean_linker_10, # of connection points: 2
#     Edge 32, Type (0, 1), BuildingBlock: TEMPAE_clean_linker_10, # of connection points: 2
#     Edge 33, Type (0, 1), BuildingBlock: TEMPAE_clean_linker_10, # of connection points: 2
#     Edge 34, Type (0, 1), BuildingBlock: TEMPAE_clean_linker_10, # of connection points: 2
#     Edge 35, Type (0, 1), BuildingBlock: TEMPAE_clean_linker_10, # of connection points: 2
# Relax obj value: 0.004
# Max RMSD: 0.070
# Mean RMSD: 0.053
data_MOF--net-cml--node1-IZENUY_clean_sbu_0--node2-PAMTOO_clean_linker_0--edge1-TEMPAE_clean_linker_10
_symmetry_space_group_name_H-M    P1
_symmetry_Int_Tables_number       1
_symmetry_cell_setting            triclinic
loop_
_symmetry_equiv_pos_as_xyz
'x, y, z'
_cell_length_a     37.560851
_cell_length_b     42.035762
_cell_length_c     36.301724
_cell_angle_alpha  89.882217
_cell_angle_beta   88.579213
_cell_angle_gamma 89.902321
loop_
_atom_site_label
_atom_site_type_symbol
_atom_site_fract_x
_atom_site_fract_y
_atom_site_fract_z
_atom_type_partial_charge
H0 H 0.35993 0.42523 0.03188 0.0
H1 H 0.28495 0.40596 0.94718 0.0
H2 H 0.28686 0.34675 0.0437 0.0
H3 H 0.28378 0.31496 0.97097 0.0
C4 C 0.26394 0.33073 0.95771 0.0
O5 O 0.25648 0.3563 0.98051 0.0
H6 H 0.27569 0.33943 0.93114 0.0
C7 C 0.33866 0.41076 0.02125 0.0
C8 C 0.32539 0.38503 0.04218 0.0
C9 C 0.32448 0.41848 0.98696 0.0
C10 C 0.29604 0.4005 0.97373 0.0
C11 C 0.28271 0.37453 0.99416 0.0
C12 C 0.29717 0.36703 0.02839 0.0
H13 H 0.65208 0.58525 0.52658 0.0
H14 H 0.72685 0.66204 0.53786 0.0
H15 H 0.72853 0.60561 0.43953 0.0
H16 H 0.80071 0.6233 0.46971 0.0
C17 C 0.7931 0.64686 0.48146 0.0
O18 O 0.75802 0.65311 0.47372 0.0
H19 H 0.7966 0.64614 0.5118 0.0
C20 C 0.67377 0.59965 0.51552 0.0
C21 C 0.68812 0.59276 0.48036 0.0
C22 C 0.68752 0.62447 0.53676 0.0
C23 C 0.71617 0.64238 0.52236 0.0
C24 C 0.73104 0.63529 0.48759 0.0
C25 C 0.71719 0.61047 0.46669 0.0
H26 H 0.67025 0.43951 0.05389 0.0
H27 H 0.74045 0.35887 0.04381 0.0
H28 H 0.73037 0.4233 0.95291 0.0
H29 H 0.73672 0.35484 0.93152 0.0
C30 C 0.75079 0.34608 0.95618 0.0
O31 O 0.76178 0.3719 0.97638 0.0
H32 H 0.7321 0.33108 0.97295 0.0
C33 C 0.68964 0.42586 0.03788 0.0
C34 C 0.69851 0.43516 1.00158 0.0
C35 C 0.70441 0.39831 0.05325 0.0
C36 C 0.7291 0.38038 0.03245 0.0
C37 C 0.73862 0.38971 0.99652 0.0
C38 C 0.72348 0.417 0.98115 0.0
H39 H 0.35164 0.58836 0.54772 0.0
H40 H 0.28832 0.60666 0.45244 0.0
H41 H 0.28352 0.67055 0.54469 0.0
H42 H 0.21466 0.64693 0.51179 0.0
C43 C 0.22216 0.65207 0.48249 0.0
O44 O 0.25824 0.65829 0.47957 0.0
H45 H 0.21595 0.63075 0.46578 0.0
C46 C 0.3324 0.60274 0.53334 0.0
C47 C 0.31882 0.63029 0.5503 0.0
C48 C 0.32206 0.594 0.49781 0.0
C49 C 0.29667 0.61281 0.47987 0.0
C50 C 0.28253 0.64019 0.49696 0.0
C51 C 0.29404 0.64912 0.53189 0.0
H52 H 0.85751 0.9274 0.03376 0.0
H53 H 0.78105 0.90866 0.95034 0.0
H54 H 0.78521 0.8484 0.0459 0.0
H55 H 0.78163 0.81729 0.97288 0.0
C56 C 0.76157 0.83305 0.95995 0.0
O57 O 0.75387 0.85823 0.98325 0.0
H58 H 0.77315 0.8422 0.93351 0.0
C59 C 0.83608 0.91296 0.02337 0.0
C60 C 0.82338 0.88696 0.04416 0.0
C61 C 0.82116 0.921 0.98956 0.0
C62 C 0.79264 0.90298 0.97659 0.0
C63 C 0.77995 0.87666 0.99683 0.0
C64 C 0.79504 0.86891 0.03068 0.0
H65 H 0.15126 0.08447 0.52771 0.0
H66 H 0.22499 0.16173 0.54117 0.0
H67 H 0.22936 0.1057 0.44252 0.0
H68 H 0.30034 0.12374 0.4755 0.0
C69 C 0.29247 0.14768 0.48595 0.0
O70 O 0.25745 0.15345 0.47751 0.0
H71 H 0.2956 0.14818 0.51634 0.0
C72 C 0.17307 0.09904 0.51723 0.0
C73 C 0.18827 0.09237 0.48239 0.0
C74 C 0.18611 0.12386 0.53892 0.0
C75 C 0.21487 0.14206 0.5253 0.0
C76 C 0.23053 0.13525 0.49078 0.0
C77 C 0.21741 0.11037 0.46945 0.0
H78 H 0.15087 0.92535 0.03603 0.0
H79 H 0.22752 0.84935 0.03246 0.0
H80 H 0.23294 0.92293 0.95073 0.0
H81 H 0.25038 0.86288 0.91716 0.0
C82 C 0.2533 0.84858 0.9427 0.0
O83 O 0.25954 0.86878 0.97181 0.0
H84 H 0.22813 0.83512 0.94798 0.0
C85 C 0.17413 0.91439 0.02316 0.0
C86 C 0.1901 0.92822 0.9915 0.0
C87 C 0.18776 0.88633 0.03855 0.0
C88 C 0.21712 0.87137 0.02142 0.0
C89 C 0.2327 0.88436 0.98942 0.0
C90 C 0.21984 0.913 0.97503 0.0
H91 H 0.86435 0.09715 0.53699 0.0
H92 H 0.79281 0.11174 0.4475 0.0
H93 H 0.79087 0.17575 0.53961 0.0
H94 H 0.72098 0.15201 0.51069 0.0
C95 C 0.72708 0.15626 0.4809 0.0
O96 O 0.76291 0.16289 0.47603 0.0
H97 H 0.72052 0.13437 0.46537 0.0
C98 C 0.84355 0.11081 0.52407 0.0
C99 C 0.82959 0.13773 0.54219 0.0
C100 C 0.83058 0.10097 0.48995 0.0
C101 C 0.80289 0.1185 0.47406 0.0
C102 C 0.78855 0.14536 0.49207 0.0
C103 C 0.80178 0.15478 0.52614 0.0
Fe104 Fe 0.00554 0.82608 0.31946 0.0
Fe105 Fe 0.00753 0.86507 0.39099 0.0
O106 O 0.00673 0.8634 0.34218 0.0
Fe107 Fe 0.00706 0.899 0.316 0.0
O108 O 0.9649 0.88935 0.29549 0.0
O109 O 0.97905 0.84022 0.28081 0.0
O110 O 0.96395 0.81574 0.34268 0.0
C111 C 0.95939 0.81468 0.37718 0.0
C112 C 0.05251 0.85807 0.27441 0.0
O113 O 0.98024 0.82924 0.39824 0.0
C114 C 0.05505 0.91424 0.3684 0.0
O115 O 0.03181 0.80494 0.35391 0.0
O116 O 0.04867 0.84224 0.39194 0.0
O117 O 0.03247 0.88223 0.27704 0.0
O118 O 0.04709 0.83392 0.29445 0.0
C119 C 0.96182 0.91442 0.37723 0.0
O120 O 0.03501 0.90103 0.39245 0.0
O121 O 0.0492 0.91125 0.33454 0.0
C122 C 0.05287 0.81497 0.37801 0.0
O123 O 0.96649 0.8883 0.39375 0.0
O124 O 0.98181 0.92235 0.3502 0.0
C125 C 0.95922 0.86439 0.27733 0.0
Fe126 Fe 1.00192 0.15452 0.89363 0.0
Fe127 Fe 1.00175 0.11794 0.82074 0.0
O128 O 1.00287 0.15445 0.84482 0.0
Fe129 Fe 0.00509 0.19087 0.82019 0.0
O130 O 0.04678 0.20124 0.84111 0.0
O131 O 0.02962 0.19045 0.89799 0.0
O132 O 0.04283 0.13144 0.89521 0.0
C133 C 0.04646 0.10442 0.88056 0.0
C134 C 0.95692 0.20391 0.8794 0.0
O135 O 0.02594 0.09538 0.85553 0.0
C136 C 0.95796 0.1583 0.77833 0.0
O137 O 0.97401 0.11861 0.89834 0.0
O138 O 0.95913 0.10752 0.8417 0.0
O139 O 0.97881 0.21344 0.85466 0.0
O140 O 0.96102 0.17736 0.89495 0.0
C141 C 0.0509 0.15012 0.7785 0.0
O142 O 0.97719 0.13374 0.78171 0.0
O143 O 0.96363 0.18291 0.79715 0.0
C144 C 0.95363 0.10493 0.87596 0.0
O145 O 0.04435 0.12587 0.79804 0.0
O146 O 0.03166 0.17481 0.78141 0.0
C147 C 0.05147 0.20322 0.87528 0.0
Fe148 Fe 0.50515 0.32633 0.31951 0.0
Fe149 Fe 0.50607 0.36482 0.39138 0.0
O150 O 0.50478 0.36342 0.34263 0.0
Fe151 Fe 0.50323 0.39911 0.3167 0.0
O152 O 0.46103 0.38818 0.29716 0.0
O153 O 0.47771 0.33996 0.28121 0.0
O154 O 0.4642 0.31426 0.34282 0.0
C155 C 0.45962 0.31314 0.37735 0.0
C156 C 0.54973 0.36014 0.27406 0.0
O157 O 0.4799 0.32831 0.39848 0.0
C158 C 0.55176 0.41524 0.36827 0.0
O159 O 0.53238 0.30566 0.35347 0.0
O160 O 0.54796 0.34305 0.39189 0.0
O161 O 0.52823 0.38325 0.27686 0.0
O162 O 0.54639 0.3361 0.29468 0.0
C163 C 0.45869 0.41313 0.37888 0.0
O164 O 0.53252 0.40143 0.39261 0.0
O165 O 0.54531 0.41244 0.33449 0.0
C166 C 0.55305 0.316 0.3777 0.0
O167 O 0.46432 0.38693 0.39484 0.0
O168 O 0.478 0.42171 0.35162 0.0
C169 C 0.45652 0.36331 0.27845 0.0
Fe170 Fe 0.50421 0.65324 0.89236 0.0
Fe171 Fe 0.50843 0.61615 0.81956 0.0
O172 O 0.50664 0.65279 0.8435 0.0
Fe173 Fe 0.50743 0.689 0.81846 0.0
O174 O 0.548 0.70133 0.84024 0.0
O175 O 0.53039 0.69004 0.89697 0.0
O176 O 0.54583 0.63153 0.89568 0.0
C177 C 0.55194 0.60484 0.88099 0.0
C178 C 0.45756 0.70104 0.87642 0.0
O179 O 0.53296 0.59492 0.85509 0.0
C180 C 0.46365 0.65421 0.77545 0.0
O181 O 0.4777 0.6165 0.89643 0.0
O182 O 0.4659 0.60375 0.8393 0.0
O183 O 0.4794 0.71084 0.85185 0.0
O184 O 0.46242 0.67486 0.89255 0.0
C185 C 0.55654 0.65017 0.77833 0.0
O186 O 0.48428 0.63066 0.77949 0.0
O187 O 0.46685 0.67887 0.79482 0.0
C188 C 0.4591 0.60159 0.87342 0.0
O189 O 0.55112 0.62596 0.79822 0.0
O190 O 0.53568 0.67384 0.78038 0.0
C191 C 0.55201 0.70352 0.87454 0.0
C192 C 0.19935 0.32807 0.93956 0.0
C193 C 0.23054 0.31226 0.94966 0.0
C194 C 0.16909 0.31097 0.92907 0.0
C195 C 0.17032 0.27729 0.92796 0.0
C196 C 0.20174 0.26124 0.93824 0.0
C197 C 0.23147 0.27892 0.94886 0.0
C198 C 0.13609 0.32897 0.91842 0.0
C199 C 0.2043 0.22539 0.9371 0.0
C200 C 0.08427 0.22946 0.92654 0.0
C201 C 0.08156 0.22252 0.88889 0.0
C202 C 0.11274 0.24758 0.93961 0.0
C203 C 0.13934 0.25882 0.91452 0.0
C204 C 0.13676 0.25189 0.87652 0.0
C205 C 0.10791 0.23395 0.86417 0.0
C206 C 0.11444 0.2546 0.98029 0.0
C207 C 0.16471 0.26318 0.84888 0.0
H208 H 0.19882 0.35385 0.93941 0.0
H209 H 0.25577 0.26664 0.95595 0.0
H210 H 0.13061 0.32467 0.88896 0.0
H211 H 0.11268 0.32029 0.93473 0.0
H212 H 0.13873 0.35501 0.92275 0.0
H213 H 0.23017 0.2165 0.94722 0.0
H214 H 0.1825 0.21467 0.95412 0.0
H215 H 0.20111 0.21697 0.90842 0.0
H216 H 0.06406 0.22082 0.94588 0.0
H217 H 0.10622 0.22862 0.83507 0.0
H218 H 0.11547 0.28068 0.98478 0.0
H219 H 0.13913 0.24433 0.99155 0.0
H220 H 0.09122 0.24481 0.99609 0.0
H221 H 0.16687 0.28948 0.84984 0.0
H222 H 0.15868 0.256 0.82026 0.0
H223 H 0.1911 0.25332 0.85595 0.0
C224 C 0.80663 0.70476 0.46948 0.0
C225 C 0.81651 0.67274 0.46556 0.0
C226 C 0.8284 0.72915 0.45521 0.0
C227 C 0.86121 0.72129 0.43746 0.0
C228 C 0.87168 0.68901 0.43419 0.0
C229 C 0.84916 0.6651 0.44832 0.0
C230 C 0.81631 0.76328 0.45909 0.0
C231 C 0.90675 0.67976 0.41594 0.0
C232 C 0.90632 0.77931 0.37115 0.0
C233 C 0.93257 0.79257 0.39324 0.0
C234 C 0.8823 0.75665 0.38546 0.0
C235 C 0.88486 0.74679 0.42261 0.0
C236 C 0.91079 0.76055 0.44525 0.0
C237 C 0.93418 0.78343 0.43036 0.0
C238 C 0.85464 0.74282 0.36064 0.0
C239 C 0.9145 0.75045 0.48493 0.0
H240 H 0.78172 0.71069 0.48357 0.0
H241 H 0.85712 0.64037 0.44596 0.0
H242 H 0.83578 0.77691 0.47522 0.0
H243 H 0.81512 0.77462 0.43152 0.0
H244 H 0.7897 0.76531 0.47295 0.0
H245 H 0.91104 0.6536 0.41589 0.0
H246 H 0.9078 0.68841 0.38705 0.0
H247 H 0.92903 0.69116 0.43043 0.0
H248 H 0.90474 0.78642 0.34251 0.0
H249 H 0.95444 0.79347 0.44761 0.0
H250 H 0.82768 0.74567 0.37341 0.0
H251 H 0.8594 0.71694 0.35709 0.0
H252 H 0.85497 0.75423 0.33301 0.0
H253 H 0.8888 0.75351 0.50023 0.0
H254 H 0.93528 0.76421 0.49917 0.0
H255 H 0.92151 0.72482 0.48617 0.0
C256 C 0.78235 0.30979 0.91098 0.0
C257 C 0.78226 0.32579 0.94479 0.0
C258 C 0.81067 0.28971 0.90043 0.0
C259 C 0.83953 0.28555 0.92436 0.0
C260 C 0.83934 0.30132 0.95878 0.0
C261 C 0.81044 0.3209 0.96882 0.0
C262 C 0.80964 0.27283 0.86379 0.0
C263 C 0.86971 0.29755 0.98495 0.0
C264 C 0.89842 0.2126 0.91229 0.0
C265 C 0.92729 0.22494 0.89161 0.0
C266 C 0.86961 0.23204 0.92307 0.0
C267 C 0.86993 0.26467 0.91335 0.0
C268 C 0.89917 0.27735 0.89287 0.0
C269 C 0.92739 0.25728 0.88201 0.0
C270 C 0.83866 0.21758 0.94449 0.0
C271 C 0.90062 0.31212 0.88239 0.0
H272 H 0.76012 0.31293 0.89283 0.0
H273 H 0.80993 0.33252 0.99546 0.0
H274 H 0.833 0.27984 0.84632 0.0
H275 H 0.81128 0.24673 0.86804 0.0
H276 H 0.78502 0.27827 0.84863 0.0
H277 H 0.86577 0.31192 0.01038 0.0
H278 H 0.87258 0.2722 0.99289 0.0
H279 H 0.89508 0.30487 0.97112 0.0
H280 H 0.89803 0.18757 0.91956 0.0
H281 H 0.94966 0.26702 0.86616 0.0
H282 H 0.81378 0.22079 0.92906 0.0
H283 H 0.83489 0.22992 0.97129 0.0
H284 H 0.84253 0.19179 0.94983 0.0
H285 H 0.87776 0.31819 0.86491 0.0
H286 H 0.92566 0.3184 0.86715 0.0
H287 H 0.89839 0.32707 0.9075 0.0
C288 C 0.16792 0.68745 0.48619 0.0
C289 C 0.20047 0.67979 0.46861 0.0
C290 C 0.14548 0.71099 0.47195 0.0
C291 C 0.1557 0.72722 0.43914 0.0
C292 C 0.18879 0.71991 0.42151 0.0
C293 C 0.2106 0.69603 0.43623 0.0
C294 C 0.11027 0.71773 0.4914 0.0
C295 C 0.20072 0.73672 0.38657 0.0
C296 C 0.08077 0.7609 0.38216 0.0
C297 C 0.08032 0.79305 0.39261 0.0
C298 C 0.10544 0.73943 0.3967 0.0
C299 C 0.13065 0.7503 0.42214 0.0
C300 C 0.13092 0.78284 0.43223 0.0
C301 C 0.10568 0.8038 0.41748 0.0
C302 C 0.10402 0.7049 0.38538 0.0
C303 C 0.15758 0.79542 0.459 0.0
H304 H 0.15965 0.67451 0.5108 0.0
H305 H 0.23536 0.6897 0.42209 0.0
H306 H 0.10782 0.74348 0.49762 0.0
H307 H 0.08811 0.71143 0.47314 0.0
H308 H 0.10702 0.70414 0.51753 0.0
H309 H 0.2283 0.73009 0.37784 0.0
H310 H 0.18254 0.73067 0.36401 0.0
H311 H 0.19942 0.76288 0.39043 0.0
H312 H 0.06135 0.75226 0.363 0.0
H313 H 0.10575 0.8286 0.42558 0.0
H314 H 0.09823 0.68979 0.4099 0.0
H315 H 0.13022 0.69729 0.37367 0.0
H316 H 0.08335 0.70039 0.36466 0.0
H317 H 0.15343 0.78381 0.48623 0.0
H318 H 0.15543 0.82159 0.46267 0.0
H319 H 0.18504 0.78957 0.44924 0.0
C320 C 0.69706 0.83005 0.94169 0.0
C321 C 0.72838 0.81439 0.95166 0.0
C322 C 0.66703 0.81281 0.93085 0.0
C323 C 0.66864 0.77915 0.92925 0.0
C324 C 0.70018 0.76326 0.93946 0.0
C325 C 0.72967 0.78107 0.95043 0.0
C326 C 0.63387 0.83063 0.9203 0.0
C327 C 0.70315 0.72745 0.93781 0.0
C328 C 0.58348 0.7302 0.92639 0.0
C329 C 0.58128 0.72352 0.88863 0.0
C330 C 0.61142 0.74869 0.93996 0.0
C331 C 0.63801 0.76057 0.91526 0.0
C332 C 0.63587 0.75402 0.87713 0.0
C333 C 0.60753 0.7357 0.86429 0.0
C334 C 0.61266 0.75531 0.98076 0.0
C335 C 0.66381 0.766 0.84989 0.0
H336 H 0.69625 0.85583 0.94188 0.0
H337 H 0.75408 0.76893 0.95744 0.0
H338 H 0.62866 0.82671 0.89071 0.0
H339 H 0.61046 0.8215 0.93626 0.0
H340 H 0.63615 0.85663 0.92516 0.0
H341 H 0.72903 0.71867 0.94801 0.0
H342 H 0.68134 0.71636 0.95448 0.0
H343 H 0.70028 0.71932 0.90897 0.0
H344 H 0.56334 0.72099 0.94544 0.0
H345 H 0.60624 0.73059 0.83509 0.0
H346 H 0.61348 0.78134 0.98563 0.0
H347 H 0.6373 0.74503 0.99214 0.0
H348 H 0.58936 0.74524 0.99617 0.0
H349 H 0.66565 0.7923 0.85142 0.0
H350 H 0.65803 0.75921 0.82109 0.0
H351 H 0.69028 0.75627 0.85692 0.0
C352 C 0.30525 0.20493 0.46906 0.0
C353 C 0.31606 0.17297 0.46897 0.0
C354 C 0.3273 0.22873 0.4539 0.0
C355 C 0.36132 0.22043 0.43924 0.0
C356 C 0.3727 0.1883 0.4399 0.0
C357 C 0.3499 0.16494 0.4548 0.0
C358 C 0.31422 0.26272 0.45358 0.0
C359 C 0.40905 0.17865 0.42507 0.0
C360 C 0.40881 0.2752 0.3709 0.0
C361 C 0.43305 0.29077 0.39345 0.0
C362 C 0.38483 0.25267 0.38557 0.0
C363 C 0.38528 0.24539 0.42364 0.0
C364 C 0.40921 0.2614 0.44667 0.0
C365 C 0.4327 0.284 0.43134 0.0
C366 C 0.35938 0.23631 0.36024 0.0
C367 C 0.41057 0.25415 0.48739 0.0
H368 H 0.27943 0.21128 0.48088 0.0
H369 H 0.35857 0.14034 0.4555 0.0
H370 H 0.33219 0.27794 0.46972 0.0
H371 H 0.31469 0.27202 0.42495 0.0
H372 H 0.28673 0.26507 0.46527 0.0
H373 H 0.41388 0.15267 0.42776 0.0
H374 H 0.41188 0.18531 0.39555 0.0
H375 H 0.43001 0.19154 0.44 0.0
H376 H 0.40872 0.28042 0.34164 0.0
H377 H 0.45132 0.29587 0.44901 0.0
H378 H 0.33158 0.23945 0.37067 0.0
H379 H 0.36493 0.21038 0.35972 0.0
H380 H 0.36142 0.24559 0.33159 0.0
H381 H 0.38395 0.25779 0.50062 0.0
H382 H 0.43014 0.26928 0.50166 0.0
H383 H 0.41788 0.22883 0.49152 0.0
C384 C 0.27715 0.79679 0.91826 0.0
C385 C 0.28354 0.82535 0.93679 0.0
C386 C 0.30496 0.77553 0.90976 0.0
C387 C 0.34006 0.78309 0.91997 0.0
C388 C 0.34669 0.8118 0.93894 0.0
C389 C 0.31843 0.83282 0.94668 0.0
C390 C 0.29692 0.74541 0.88896 0.0
C391 C 0.38378 0.8206 0.95037 0.0
C392 C 0.40874 0.71658 0.92127 0.0
C393 C 0.42732 0.72171 0.88779 0.0
C394 C 0.38038 0.73651 0.93228 0.0
C395 C 0.37011 0.76181 0.909 0.0
C396 C 0.3885 0.76684 0.875 0.0
C397 C 0.417 0.74685 0.86492 0.0
C398 C 0.36157 0.73065 0.96889 0.0
C399 C 0.378 0.79326 0.84916 0.0
H400 H 0.25033 0.79135 0.9099 0.0
H401 H 0.32374 0.85521 0.9602 0.0
H402 H 0.31123 0.74566 0.86186 0.0
H403 H 0.30653 0.72438 0.90434 0.0
H404 H 0.268 0.74249 0.88425 0.0
H405 H 0.38409 0.84273 0.96705 0.0
H406 H 0.3955 0.80101 0.96666 0.0
H407 H 0.40117 0.82411 0.92555 0.0
H408 H 0.41663 0.69724 0.93911 0.0
H409 H 0.431 0.75078 0.83884 0.0
H410 H 0.33289 0.72605 0.96466 0.0
H411 H 0.36334 0.75215 0.98644 0.0
H412 H 0.37299 0.71014 0.98393 0.0
H413 H 0.34973 0.7905 0.84161 0.0
H414 H 0.39471 0.79367 0.82348 0.0
H415 H 0.38042 0.8166 0.86307 0.0
C416 C 0.71437 0.20083 0.43555 0.0
C417 C 0.70426 0.18328 0.46703 0.0
C418 C 0.69181 0.22429 0.42116 0.0
C419 C 0.65795 0.22978 0.43807 0.0
C420 C 0.64764 0.21209 0.46983 0.0
C421 C 0.67086 0.18905 0.48382 0.0
C422 C 0.70386 0.24268 0.38735 0.0
C423 C 0.61161 0.21684 0.48842 0.0
C424 C 0.60525 0.30533 0.41827 0.0
C425 C 0.58112 0.29459 0.39211 0.0
C426 C 0.6309 0.28473 0.43293 0.0
C427 C 0.63236 0.25256 0.42138 0.0
C428 C 0.60844 0.24174 0.39461 0.0
C429 C 0.58329 0.26285 0.38025 0.0
C430 C 0.65614 0.29725 0.46116 0.0
C431 C 0.60891 0.20761 0.38165 0.0
H432 H 0.73978 0.19597 0.4219 0.0
H433 H 0.66262 0.17505 0.50765 0.0
H434 H 0.68653 0.23685 0.364 0.0
H435 H 0.70134 0.26862 0.39241 0.0
H436 H 0.73189 0.23727 0.37909 0.0
H437 H 0.60823 0.20215 0.51374 0.0
H438 H 0.60779 0.24221 0.49586 0.0
H439 H 0.59033 0.21047 0.46911 0.0
H440 H 0.60397 0.32982 0.42752 0.0
H441 H 0.56488 0.25422 0.36006 0.0
H442 H 0.6841 0.29268 0.45206 0.0
H443 H 0.65171 0.28456 0.4877 0.0
H444 H 0.6527 0.32318 0.466 0.0
H445 H 0.63573 0.2013 0.37044 0.0
H446 H 0.58909 0.20312 0.36005 0.0
H447 H 0.60311 0.19147 0.40526 0.0
C448 C 0.37753 0.44632 0.95978 0.0
C449 C 0.34047 0.44496 0.96513 0.0
C450 C 0.39383 0.47245 0.94231 0.0
C451 C 0.3726 0.49809 0.93013 0.0
C452 C 0.33503 0.49644 0.93443 0.0
C453 C 0.31935 0.46973 0.95172 0.0
C454 C 0.43393 0.47299 0.93784 0.0
C455 C 0.31155 0.52337 0.92201 0.0
C456 C 0.4232 0.57609 0.92451 0.0
C457 C 0.43296 0.57752 0.88699 0.0
C458 C 0.40187 0.55126 0.93856 0.0
C459 C 0.39022 0.52707 0.9146 0.0
C460 C 0.39853 0.52917 0.87642 0.0
C461 C 0.41964 0.55445 0.86304 0.0
C462 C 0.39324 0.55011 0.97939 0.0
C463 C 0.38677 0.50381 0.84998 0.0
H464 H 0.39385 0.42698 0.96976 0.0
H465 H 0.29071 0.46877 0.95603 0.0
H466 H 0.44174 0.47734 0.90859 0.0
H467 H 0.44492 0.49274 0.95426 0.0
H468 H 0.44638 0.45038 0.94689 0.0
H469 H 0.28279 0.51746 0.92487 0.0
H470 H 0.31682 0.54487 0.93867 0.0
H471 H 0.31775 0.5295 0.89282 0.0
H472 H 0.43301 0.59396 0.94319 0.0
H473 H 0.42692 0.55533 0.83397 0.0
H474 H 0.40746 0.52983 0.99202 0.0
H475 H 0.3643 0.54621 0.98431 0.0
H476 H 0.4011 0.5723 0.99363 0.0
H477 H 0.40123 0.48135 0.85559 0.0
H478 H 0.39203 0.51063 0.82077 0.0
H479 H 0.35793 0.4989 0.85393 0.0
C480 C 0.63495 0.56628 0.45469 0.0
C481 C 0.67199 0.56733 0.45811 0.0
C482 C 0.61863 0.5411 0.43647 0.0
C483 C 0.63989 0.51623 0.42148 0.0
C484 C 0.67745 0.51773 0.42365 0.0
C485 C 0.69312 0.54342 0.44187 0.0
C486 C 0.5785 0.54058 0.4344 0.0
C487 C 0.70091 0.49158 0.40812 0.0
C488 C 0.58951 0.43862 0.41682 0.0
C489 C 0.57858 0.43857 0.38017 0.0
C490 C 0.61133 0.46284 0.43004 0.0
C491 C 0.62228 0.48776 0.40608 0.0
C492 C 0.61301 0.48693 0.36853 0.0
C493 C 0.59136 0.46222 0.35595 0.0
C494 C 0.621 0.46265 0.47018 0.0
C495 C 0.62418 0.51311 0.34219 0.0
H496 H 0.61865 0.58505 0.46677 0.0
H497 H 0.72178 0.5442 0.44464 0.0
H498 H 0.57041 0.53729 0.40547 0.0
H499 H 0.56774 0.52019 0.4506 0.0
H500 H 0.56607 0.56278 0.44523 0.0
H501 H 0.72963 0.49777 0.40889 0.0
H502 H 0.69647 0.46944 0.42427 0.0
H503 H 0.69396 0.48638 0.37923 0.0
H504 H 0.58017 0.42015 0.43557 0.0
H505 H 0.58314 0.4623 0.32753 0.0
H506 H 0.60702 0.48242 0.48471 0.0
H507 H 0.65001 0.46652 0.473 0.0
H508 H 0.61361 0.43997 0.48411 0.0
H509 H 0.60941 0.53522 0.34934 0.0
H510 H 0.61875 0.50696 0.31311 0.0
H511 H 0.65298 0.51831 0.34454 0.0
C512 C 0.69848 0.4843 0.96194 0.0
C513 C 0.67987 0.46244 0.98439 0.0
C514 C 0.68065 0.50952 0.94477 0.0
C515 C 0.64336 0.51285 0.95017 0.0
C516 C 0.62454 0.49107 0.97313 0.0
C517 C 0.64298 0.46612 0.98984 0.0
C518 C 0.70157 0.53229 0.92044 0.0
C519 C 0.58472 0.49369 0.97945 0.0
C520 C 0.59442 0.59002 0.93061 0.0
C521 C 0.57839 0.58295 0.89709 0.0
C522 C 0.61684 0.5679 0.9476 0.0
C523 C 0.62346 0.53811 0.93058 0.0
C524 C 0.60867 0.53145 0.89598 0.0
C525 C 0.58633 0.5539 0.87969 0.0
C526 C 0.63219 0.57586 0.98449 0.0
C527 C 0.61524 0.50004 0.87682 0.0
H528 H 0.72702 0.48174 0.95787 0.0
H529 H 0.62827 0.44899 0.00656 0.0
H530 H 0.69212 0.53083 0.89178 0.0
H531 H 0.69716 0.5571 0.9299 0.0
H532 H 0.7306 0.52718 0.92022 0.0
H533 H 0.57432 0.47564 0.99933 0.0
H534 H 0.57768 0.51769 0.99002 0.0
H535 H 0.57103 0.49057 0.95297 0.0
H536 H 0.5886 0.61244 0.94419 0.0
H537 H 0.57442 0.54833 0.85359 0.0
H538 H 0.66132 0.57142 0.98404 0.0
H539 H 0.62012 0.5602 0.00603 0.0
H540 H 0.62722 0.60101 0.99243 0.0
H541 H 0.64421 0.495 0.87461 0.0
H542 H 0.60413 0.49956 0.84875 0.0
H543 H 0.60282 0.48055 0.89329 0.0
C544 C 0.31867 0.54379 0.46019 0.0
C545 C 0.339 0.56595 0.47941 0.0
C546 C 0.33471 0.51695 0.44353 0.0
C547 C 0.37196 0.51229 0.44598 0.0
C548 C 0.39256 0.53468 0.46523 0.0
C549 C 0.37588 0.56115 0.48162 0.0
C550 C 0.31185 0.49362 0.42326 0.0
C551 C 0.4324 0.53088 0.46819 0.0
C552 C 0.4174 0.43219 0.43007 0.0
C553 C 0.43269 0.4364 0.39473 0.0
C554 C 0.39615 0.45612 0.44655 0.0
C555 C 0.38998 0.48488 0.42722 0.0
C556 C 0.40387 0.48855 0.39088 0.0
C557 C 0.42497 0.46434 0.37513 0.0
C558 C 0.38167 0.45125 0.4853 0.0
C559 C 0.39791 0.51872 0.3692 0.0
H560 H 0.29013 0.5472 0.45862 0.0
H561 H 0.39188 0.57844 0.49586 0.0
H562 H 0.3207 0.49235 0.39391 0.0
H563 H 0.31493 0.46944 0.4351 0.0
H564 H 0.2832 0.50023 0.42455 0.0
H565 H 0.44444 0.54995 0.48495 0.0
H566 H 0.4387 0.50755 0.48082 0.0
H567 H 0.44515 0.53127 0.44029 0.0
H568 H 0.42307 0.4107 0.44541 0.0
H569 H 0.43626 0.46775 0.34764 0.0
H570 H 0.35282 0.45691 0.48687 0.0
H571 H 0.39523 0.46769 0.50426 0.0
H572 H 0.38567 0.42649 0.49515 0.0
H573 H 0.36916 0.52479 0.36917 0.0
H574 H 0.40782 0.51675 0.34021 0.0
H575 H 0.41189 0.53876 0.38242 0.0
C576 C 0.81509 0.97302 0.9562 0.0
C577 C 0.83652 0.94781 0.96789 0.0
C578 C 0.83034 1.00005 0.93923 0.0
C579 C 0.86776 1.00156 0.93347 0.0
C580 C 0.88926 0.97551 0.94391 0.0
C581 C 0.87339 0.94907 0.96116 0.0
C582 C 0.80661 0.02744 0.92873 0.0
C583 C 0.9292 0.97588 0.93777 0.0
C584 C 0.91264 0.05886 0.86605 0.0
C585 C 0.92739 0.08119 0.89001 0.0
C586 C 0.89171 0.03357 0.87963 0.0
C587 C 0.88501 0.03072 0.91803 0.0
C588 C 0.89801 0.05424 0.94211 0.0
C589 C 0.91918 0.07909 0.92784 0.0
C590 C 0.87855 0.00889 0.85306 0.0
C591 C 0.89105 0.05231 0.9832 0.0
H592 H 0.78659 0.9721 0.96163 0.0
H593 H 0.88992 0.9294 0.9699 0.0
H594 H 0.81283 0.04851 0.94575 0.0
H595 H 0.81164 0.0342 0.89951 0.0
H596 H 0.77791 0.02171 0.93272 0.0
H597 H 0.94181 0.953 0.94557 0.0
H598 H 0.9359 0.98087 0.90839 0.0
H599 H 0.94102 0.99517 0.95429 0.0
H600 H 0.91872 0.06026 0.83675 0.0
H601 H 0.93014 0.0964 0.94652 0.0
H602 H 0.84983 1.00408 0.85821 0.0
H603 H 0.89306 0.98621 0.85732 0.0
H604 H 0.88259 0.01633 0.82388 0.0
H605 H 0.86229 0.04843 0.98928 0.0
H606 H 0.89962 0.07418 0.99763 0.0
H607 H 0.90569 0.03173 0.99462 0.0
C608 C 0.13602 0.06558 0.45526 0.0
C609 C 0.17293 0.06686 0.45968 0.0
C610 C 0.12036 0.04022 0.43675 0.0
C611 C 0.14216 0.01541 0.4225 0.0
C612 C 0.17961 0.01715 0.42562 0.0
C613 C 0.19463 0.04303 0.44411 0.0
C614 C 0.08032 0.03945 0.43364 0.0
C615 C 0.20363 0.99107 0.41089 0.0
C616 C 0.09217 0.93765 0.41744 0.0
C617 C 0.08195 0.93737 0.38056 0.0
C618 C 0.11374 0.96194 0.43089 0.0
C619 C 0.12513 0.98672 0.40694 0.0
C620 C 0.11669 0.9856 0.36918 0.0
C621 C 0.09529 0.96081 0.35636 0.0
C622 C 0.12256 0.96206 0.47126 0.0
C623 C 0.12835 0.0116 0.34282 0.0
H624 H 0.1193 0.08429 0.46684 0.0
H625 H 0.22318 0.04399 0.44765 0.0
H626 H 0.07297 0.03588 0.40453 0.0
H627 H 0.06932 0.01912 0.44978 0.0
H628 H 0.06748 0.06166 0.44392 0.0
H629 H 0.23225 0.99752 0.41219 0.0
H630 H 0.1991 0.96904 0.42722 0.0
H631 H 0.19731 0.98556 0.38191 0.0
H632 H 0.08239 0.91935 0.43618 0.0
H633 H 0.08762 0.96071 0.32777 0.0
H634 H 0.1081 0.98181 0.48533 0.0
H635 H 0.15145 0.96615 0.47472 0.0
H636 H 0.11506 0.9394 0.4852 0.0
H637 H 0.11318 0.03366 0.34924 0.0
H638 H 0.12379 1.00512 0.31366 0.0
H639 H 0.15699 0.01706 0.34596 0.0
C640 C 0.1586 0.98092 0.99792 0.0
C641 C 0.17466 0.95768 0.97518 0.0
C642 C 0.14008 0.00671 0.98296 0.0
C643 C 0.13865 0.01012 0.94426 0.0
C644 C 0.15683 0.98807 0.92111 0.0
C645 C 0.17412 0.96188 0.93679 0.0
C646 C 0.12044 0.02932 0.00861 0.0
C647 C 0.15671 0.99137 0.87968 0.0
C648 C 0.05797 0.04992 0.90355 0.0
C649 C 0.07034 0.08088 0.8971 0.0
C650 C 0.07979 0.02691 0.9195 0.0
C651 C 0.11529 0.03479 0.92802 0.0
C652 C 0.12809 0.066 0.92111 0.0
C653 C 0.10515 0.08893 0.90632 0.0
C654 C 0.06469 0.99425 0.92751 0.0
C655 C 0.16609 0.07495 0.92875 0.0
H656 H 0.15972 0.97862 0.0276 0.0
H657 H 0.18603 0.94411 0.91876 0.0
H658 H 0.12798 0.05427 0.00229 0.0
H659 H 0.09135 0.02722 0.00452 0.0
H660 H 0.12584 0.02444 0.03804 0.0
H661 H 0.17613 0.97506 0.86588 0.0
H662 H 0.12978 0.98589 0.86958 0.0
H663 H 0.1631 0.01617 0.87136 0.0
H664 H 0.03085 0.04387 0.89676 0.0
H665 H 0.11465 0.1129 0.90107 0.0
H666 H 0.0678 0.98826 0.95704 0.0
H667 H 0.07957 0.97611 0.91117 0.0
H668 H 0.03603 0.99254 0.92092 0.0
H669 H 0.17161 0.07136 0.95833 0.0
H670 H 0.17201 0.10008 0.92136 0.0
H671 H 0.18458 0.05924 0.91283 0.0
C672 C 0.88373 0.06827 0.47087 0.0
C673 C 0.84666 0.07265 0.47125 0.0
C674 C 0.89953 0.04102 0.45531 0.0
C675 C 0.87783 0.01746 0.43944 0.0
C676 C 0.84042 0.02187 0.43923 0.0
C677 C 0.82526 0.04944 0.4551 0.0
C678 C 0.93956 0.03747 0.45585 0.0
C679 C 0.81643 0.99736 0.42244 0.0
C680 C 0.92729 0.96486 0.37044 0.0
C681 C 0.93613 0.93838 0.39207 0.0
C682 C 0.90677 0.98999 0.38499 0.0
C683 C 0.89479 0.9888 0.42222 0.0
C684 C 0.90202 0.96144 0.44371 0.0
C685 C 0.92252 0.93648 0.42835 0.0
C686 C 0.89947 0.01853 0.36096 0.0
C687 C 0.88968 0.95926 0.48351 0.0
H688 H 0.90052 0.08633 0.48271 0.0
H689 H 0.7966 0.05252 0.45557 0.0
H690 H 0.94674 0.01511 0.47018 0.0
H691 H 0.95053 0.03589 0.42726 0.0
H692 H 0.95258 0.05767 0.46986 0.0
H693 H 0.78791 1.00436 0.42434 0.0
H694 H 0.82401 0.99377 0.39301 0.0
H695 H 0.81972 0.97416 0.43657 0.0
H696 H 0.93727 0.9664 0.34221 0.0
H697 H 0.92914 0.91613 0.44526 0.0
H698 H 0.91437 0.03938 0.37117 0.0
H699 H 0.87076 0.02473 0.36233 0.0
H700 H 0.90751 0.01441 0.3317 0.0
H701 H 0.90426 0.97694 0.50003 0.0
H702 H 0.89426 0.93525 0.49535 0.0
H703 H 0.86091 0.96504 0.48626 0.0
C704 C 0.32022 0.36986 0.10925 0.0
C705 C 0.34157 0.37728 0.07815 0.0
C706 C 0.33538 0.36517 0.14391 0.0
C707 C 0.37269 0.36815 0.1475 0.0
C708 C 0.39442 0.37462 0.11597 0.0
C709 C 0.37864 0.37889 0.08173 0.0
C710 C 0.31141 0.35794 0.17683 0.0
C711 C 0.43434 0.3779 0.11853 0.0
C712 C 0.41466 0.3922 0.23725 0.0
C713 C 0.43063 0.36362 0.24821 0.0
C714 C 0.39422 0.39368 0.20542 0.0
C715 C 0.38928 0.36584 0.18426 0.0
C716 C 0.40342 0.33653 0.19645 0.0
C717 C 0.42406 0.33579 0.22818 0.0
C718 C 0.3797 0.42543 0.19329 0.0
C719 C 0.39831 0.30623 0.17497 0.0
H720 H 0.29156 0.36872 0.10675 0.0
H721 H 0.39541 0.38389 0.05768 0.0
H722 H 0.32117 0.33662 0.19158 0.0
H723 H 0.31189 0.37811 0.19646 0.0
H724 H 0.28341 0.35377 0.16895 0.0
H725 H 0.44751 0.3823 0.09125 0.0
H726 H 0.44074 0.39793 0.13709 0.0
H727 H 0.44586 0.35602 0.13055 0.0
H728 H 0.41944 0.41382 0.25256 0.0
H729 H 0.43594 0.31351 0.23665 0.0
H730 H 0.351 0.42344 0.18723 0.0
H731 H 0.39373 0.43308 0.16751 0.0
H732 H 0.38309 0.4442 0.21442 0.0
H733 H 0.36994 0.30331 0.16787 0.0
H734 H 0.40698 0.28489 0.19049 0.0
H735 H 0.41401 0.30745 0.14871 0.0
C736 C 0.69344 0.63794 0.60372 0.0
C737 C 0.67169 0.63143 0.57377 0.0
C738 C 0.67863 0.64278 0.63918 0.0
C739 C 0.64127 0.64085 0.64475 0.0
C740 C 0.61917 0.63495 0.6145 0.0
C741 C 0.63463 0.63051 0.5794 0.0
C742 C 0.70295 0.64931 0.67077 0.0
C743 C 0.57916 0.63278 0.6193 0.0
C744 C 0.59803 0.61938 0.73678 0.0
C745 C 0.58313 0.64863 0.7476 0.0
C746 C 0.61871 0.61681 0.70421 0.0
C747 C 0.62491 0.64419 0.68222 0.0
C748 C 0.61206 0.67414 0.69433 0.0
C749 C 0.59119 0.67599 0.72682 0.0
C750 C 0.63192 0.58442 0.69216 0.0
C751 C 0.61861 0.70395 0.67192 0.0
H752 H 0.72212 0.63844 0.59961 0.0
H753 H 0.61763 0.62615 0.55625 0.0
H754 H 0.69443 0.67128 0.68542 0.0
H755 H 0.70123 0.6295 0.69097 0.0
H756 H 0.73118 0.65203 0.66145 0.0
H757 H 0.56578 0.62829 0.59287 0.0
H758 H 0.57212 0.61328 0.63879 0.0
H759 H 0.56845 0.65519 0.6313 0.0
H760 H 0.59208 0.59814 0.75273 0.0
H761 H 0.58016 0.69876 0.73527 0.0
H762 H 0.6606 0.58541 0.68424 0.0
H763 H 0.61732 0.57675 0.66751 0.0
H764 H 0.62805 0.56617 0.71407 0.0
H765 H 0.64709 0.70573 0.66333 0.0
H766 H 0.61093 0.72579 0.6874 0.0
H767 H 0.60286 0.703 0.64649 0.0
C768 C 0.67523 0.35697 0.09287 0.0
C769 C 0.69112 0.38701 0.08963 0.0
C770 C 0.65611 0.34832 0.12504 0.0
C771 C 0.65337 0.37011 0.15467 0.0
C772 C 0.67202 0.39935 0.1526 0.0
C773 C 0.69036 0.40762 0.11987 0.0
C774 C 0.63629 0.31711 0.12594 0.0
C775 C 0.67035 0.42298 0.18386 0.0
C776 C 0.56711 0.37541 0.21018 0.0
C777 C 0.57582 0.3601 0.24307 0.0
C778 C 0.5918 0.3777 0.18085 0.0
C779 C 0.62644 0.365 0.18476 0.0
C780 C 0.63525 0.34892 0.21767 0.0
C781 C 0.60958 0.34633 0.24642 0.0
C782 C 0.58098 0.39441 0.14593 0.0
C783 C 0.67207 0.33553 0.22297 0.0
H784 H 0.67566 0.34114 0.06932 0.0
H785 H 0.70294 0.43075 0.11736 0.0
H786 H 0.63932 0.30496 0.15282 0.0
H787 H 0.60745 0.32172 0.12251 0.0
H788 H 0.6456 0.30085 0.10359 0.0
H789 H 0.69069 0.44197 0.1804 0.0
H790 H 0.64365 0.43432 0.18506 0.0
H791 H 0.67427 0.41083 0.21062 0.0
H792 H 0.54082 0.38571 0.20738 0.0
H793 H 0.61631 0.33463 0.27197 0.0
H794 H 0.58637 0.37893 0.1217 0.0
H795 H 0.59693 0.41639 0.14197 0.0
H796 H 0.55231 0.40101 0.14648 0.0
H797 H 0.67997 0.32002 0.19947 0.0
H798 H 0.67386 0.32163 0.24892 0.0
H799 H 0.69159 0.35529 0.2237 0.0
C800 C 0.32687 0.61969 0.61709 0.0
C801 C 0.33228 0.63966 0.58658 0.0
C802 C 0.34438 0.6253 0.65014 0.0
C803 C 0.36861 0.65099 0.65226 0.0
C804 C 0.37276 0.67215 0.62201 0.0
C805 C 0.35424 0.66635 0.58954 0.0
C806 C 0.33865 0.60256 0.68196 0.0
C807 C 0.39877 0.69946 0.62285 0.0
C808 C 0.40785 0.6724 0.74491 0.0
C809 C 0.4392 0.65421 0.74412 0.0
C810 C 0.38441 0.67167 0.71525 0.0
C811 C 0.39307 0.65294 0.68385 0.0
C812 C 0.42514 0.63517 0.6827 0.0
C813 C 0.44753 0.63574 0.71296 0.0
C814 C 0.35014 0.69041 0.71774 0.0
C815 C 0.43584 0.61542 0.64947 0.0
H816 H 0.30983 0.59904 0.61461 0.0
H817 H 0.35861 0.68155 0.56569 0.0
H818 H 0.3626 0.58736 0.68482 0.0
H819 H 0.3347 0.61581 0.70815 0.0
H820 H 0.31529 0.58687 0.67798 0.0
H821 H 0.39567 0.71588 0.59912 0.0
H822 H 0.39536 0.71318 0.64876 0.0
H823 H 0.42636 0.68995 0.62202 0.0
H824 H 0.40131 0.68664 0.76902 0.0
H825 H 0.47197 0.62196 0.71199 0.0
H826 H 0.32713 0.67399 0.71617 0.0
H827 H 0.34853 0.70707 0.69411 0.0
H828 H 0.34762 0.70424 0.74373 0.0
H829 H 0.41605 0.59626 0.64545 0.0
H830 H 0.46252 0.60433 0.65222 0.0
H831 H 0.43622 0.63042 0.62428 0.0
C832 C 0.81958 0.87182 0.11123 0.0
C833 C 0.84031 0.87894 0.07961 0.0
C834 C 0.83551 0.86714 0.1455 0.0
C835 C 0.87296 0.86975 0.1481 0.0
C836 C 0.89404 0.87582 0.116 0.0
C837 C 0.87748 0.88018 0.0822 0.0
C838 C 0.81222 0.86038 0.17907 0.0
C839 C 0.93408 0.87862 0.11749 0.0
C840 C 0.91743 0.89378 0.23649 0.0
C841 C 0.93303 0.86501 0.24739 0.0
C842 C 0.89632 0.89535 0.20516 0.0
C843 C 0.89039 0.86745 0.18439 0.0
C844 C 0.90427 0.83801 0.1965 0.0
C845 C 0.92552 0.83716 0.22777 0.0
C846 C 0.88204 0.92722 0.19312 0.0
C847 C 0.89819 0.80767 0.1754 0.0
H848 H 0.79084 0.87096 0.10944 0.0
H849 H 0.89371 0.88501 0.05771 0.0
H850 H 0.82203 0.83904 0.19375 0.0
H851 H 0.81347 0.88066 0.19848 0.0
H852 H 0.78397 0.85649 0.17194 0.0
H853 H 0.94667 0.88259 0.08985 0.0
H854 H 0.94124 0.89875 0.1356 0.0
H855 H 0.94554 0.85672 0.12952 0.0
H856 H 0.9229 0.91541 0.25153 0.0
H857 H 0.9371 0.81474 0.2362 0.0
H858 H 0.85314 0.92557 0.18785 0.0
H859 H 0.89555 0.93451 0.16691 0.0
H860 H 0.88627 0.94607 0.21396 0.0
H861 H 0.86959 0.80504 0.1691 0.0
H862 H 0.90694 0.7863 0.19081 0.0
H863 H 0.91323 0.80859 0.14873 0.0
C864 C 0.13222 0.12983 0.58013 0.0
C865 C 0.16939 0.13056 0.57557 0.0
C866 C 0.11588 0.13413 0.61486 0.0
C867 C 0.13721 0.13957 0.64582 0.0
C868 C 0.17471 0.14117 0.64133 0.0
C869 C 0.1904 0.13659 0.60621 0.0
C870 C 0.07576 0.13239 0.61848 0.0
C871 C 0.19823 0.14713 0.67371 0.0
C872 C 0.08631 0.17526 0.72707 0.0
C873 C 0.07736 0.148 0.74768 0.0
C874 C 0.10753 0.17311 0.69484 0.0
C875 C 0.11992 0.14298 0.68284 0.0
C876 C 0.11267 0.11564 0.70458 0.0
C877 C 0.09159 0.11849 0.73686 0.0
C878 C 0.11507 0.20287 0.67263 0.0
C879 C 0.12543 0.08308 0.69265 0.0
H880 H 0.11583 0.12578 0.55644 0.0
H881 H 0.21915 0.13694 0.60288 0.0
H882 H 0.06793 0.11283 0.63757 0.0
H883 H 0.06505 0.15483 0.6304 0.0
H884 H 0.06304 0.12826 0.5916 0.0
H885 H 0.22677 0.14929 0.66529 0.0
H886 H 0.18985 0.16924 0.68816 0.0
H887 H 0.19541 0.12733 0.69382 0.0
H888 H 0.07582 0.19823 0.73548 0.0
H889 H 0.08497 0.09733 0.75268 0.0
H890 H 0.10014 0.20205 0.64666 0.0
H891 H 0.1438 0.20438 0.66499 0.0
H892 H 0.10719 0.22479 0.68785 0.0
H893 H 0.11137 0.07582 0.6675 0.0
H894 H 0.12056 0.06478 0.71431 0.0
H895 H 0.15432 0.08359 0.68558 0.0
C896 C 0.19249 0.86666 0.10332 0.0
C897 C 0.1714 0.87337 0.07293 0.0
C898 C 0.17676 0.85921 0.13777 0.0
C899 C 0.13918 0.85833 0.14164 0.0
C900 C 0.11794 0.86283 0.11035 0.0
C901 C 0.13433 0.87042 0.07639 0.0
C902 C 0.20028 0.85453 0.17045 0.0
C903 C 0.07777 0.86173 0.1132 0.0
C904 C 0.08942 0.82831 0.22728 0.0
C905 C 0.07916 0.85713 0.24383 0.0
C906 C 0.11053 0.82807 0.19473 0.0
C907 C 0.12174 0.85729 0.17882 0.0
C908 C 0.11333 0.88626 0.19685 0.0
C909 C 0.09204 0.88581 0.22901 0.0
C910 C 0.11904 0.79673 0.17629 0.0
C911 C 0.12518 0.91794 0.18112 0.0
H912 H 0.22118 0.86899 0.10067 0.0
H913 H 0.11807 0.8751 0.05271 0.0
H914 H 0.19855 0.87586 0.18838 0.0
H915 H 0.19125 0.83384 0.18722 0.0
H916 H 0.22861 0.85089 0.16194 0.0
H917 H 0.0654 0.86202 0.08572 0.0
H918 H 0.06883 0.84007 0.12825 0.0
H919 H 0.0678 0.88262 0.12904 0.0
H920 H 0.07951 0.80607 0.23866 0.0
H921 H 0.08459 0.90812 0.24205 0.0
H922 H 0.14753 0.79566 0.16759 0.0
H923 H 0.1031 0.79443 0.15111 0.0
H924 H 0.11293 0.77617 0.19464 0.0
H925 H 0.15424 0.91769 0.17494 0.0
H926 H 0.11908 0.93798 0.20018 0.0
H927 H 0.11155 0.92245 0.15483 0.0
C928 C 0.88174 0.14978 0.58099 0.0
C929 C 0.84472 0.14769 0.57772 0.0
C930 C 0.89705 0.15538 0.61517 0.0
C931 C 0.8748 0.15873 0.647 0.0
C932 C 0.8373 0.15822 0.64359 0.0
C933 C 0.82266 0.15282 0.60886 0.0
C934 C 0.93715 0.15612 0.61746 0.0
C935 C 0.81272 0.1616 0.67686 0.0
C936 C 0.92012 0.13053 0.73314 0.0
C937 C 0.93221 0.15916 0.74809 0.0
C938 C 0.89958 0.13026 0.70144 0.0
C939 C 0.89115 0.15935 0.68395 0.0
C940 C 0.90163 0.18846 0.69998 0.0
C941 C 0.92192 0.18804 0.73205 0.0
C942 C 0.88856 0.09867 0.68558 0.0
C943 C 0.89319 0.21995 0.68213 0.0
H944 H 0.89881 0.14626 0.5568 0.0
H945 H 0.79402 0.15112 0.60637 0.0
H946 H 0.94574 0.17754 0.63264 0.0
H947 H 0.94641 0.13499 0.63294 0.0
H948 H 0.95051 0.1561 0.58981 0.0
H949 H 0.78451 0.16473 0.66907 0.0
H950 H 0.81466 0.13999 0.69431 0.0
H951 H 0.82069 0.18216 0.69388 0.0
H952 H 0.92755 0.10813 0.74569 0.0
H953 H 0.93116 0.21027 0.74346 0.0
H954 H 0.90317 0.09454 0.65907 0.0
H955 H 0.85971 0.0988 0.67975 0.0
H956 H 0.89415 0.07849 0.70439 0.0
H957 H 0.90938 0.22255 0.65632 0.0
H958 H 0.89899 0.24037 0.70039 0.0
H959 H 0.86478 0.22098 0.67458 0.0
loop_
_geom_bond_atom_site_label_1
_geom_bond_atom_site_label_2
_geom_bond_distance
_geom_bond_site_symmetry_2
_ccdc_geom_bond_type
H0 C7 0.929 . S
H1 C10 0.930 . S
H2 C12 0.929 . S
H3 C4 0.969 . S
C4 H3 0.969 . S
C4 O5 1.550 1_556 S
C4 H6 0.973 . S
O5 C4 1.550 1_554 S
O5 C11 1.412 . S
H6 C4 0.973 . S
C7 H0 0.929 . S
C7 C8 1.400 . S
C7 C9 1.364 1_554 S
C8 C7 1.400 . S
C8 C12 1.377 . S
C9 C7 1.364 1_556 S
C9 C10 1.374 . S
C10 H1 0.930 . S
C10 C9 1.374 . S
C10 C11 1.383 1_556 S
C11 O5 1.412 . S
C11 C10 1.383 1_554 S
C11 C12 1.394 . S
C12 H2 0.929 . S
C12 C8 1.377 . S
C12 C11 1.394 . S
H13 C20 0.929 . S
H14 C23 0.930 . S
H15 C25 0.929 . S
H16 C17 0.969 . S
C17 H16 0.969 . S
C17 O18 1.550 . S
C17 H19 0.973 . S
O18 C17 1.550 . S
O18 C24 1.412 . S
H19 C17 0.973 . S
C20 H13 0.929 . S
C20 C21 1.400 . S
C20 C22 1.364 . S
C21 C20 1.400 . S
C21 C25 1.377 . S
C22 C20 1.364 . S
C22 C23 1.374 . S
C23 H14 0.930 . S
C23 C22 1.374 . S
C23 C24 1.383 . S
C24 O18 1.412 . S
C24 C23 1.383 . S
C24 C25 1.394 . S
C25 H15 0.929 . S
C25 C21 1.377 . S
C25 C24 1.394 . S
H26 C33 0.929 . S
H27 C36 0.930 . S
H28 C38 0.929 . S
H29 C30 0.969 . S
C30 H29 0.969 . S
C30 O31 1.550 . S
C30 H32 0.973 1_556 S
O31 C30 1.550 . S
O31 C37 1.412 . S
H32 C30 0.973 1_554 S
C33 H26 0.929 . S
C33 C34 1.400 1_554 S
C33 C35 1.364 . S
C34 C33 1.400 1_556 S
C34 C38 1.377 . S
C35 C33 1.364 . S
C35 C36 1.374 . S
C36 H27 0.930 . S
C36 C35 1.374 . S
C36 C37 1.383 1_554 S
C37 O31 1.412 . S
C37 C36 1.383 1_556 S
C37 C38 1.394 . S
C38 H28 0.929 . S
C38 C34 1.377 . S
C38 C37 1.394 . S
H39 C46 0.929 . S
H40 C49 0.930 . S
H41 C51 0.929 . S
H42 C43 0.969 . S
C43 H42 0.969 . S
C43 O44 1.550 . S
C43 H45 0.973 . S
O44 C43 1.550 . S
O44 C50 1.412 . S
H45 C43 0.973 . S
C46 H39 0.929 . S
C46 C47 1.400 . S
C46 C48 1.364 . S
C47 C46 1.400 . S
C47 C51 1.377 . S
C48 C46 1.364 . S
C48 C49 1.374 . S
C49 H40 0.930 . S
C49 C48 1.374 . S
C49 C50 1.383 . S
C50 O44 1.412 . S
C50 C49 1.383 . S
C50 C51 1.394 . S
C51 H41 0.929 . S
C51 C47 1.377 . S
C51 C50 1.394 . S
H52 C59 0.929 . S
H53 C62 0.930 . S
H54 C64 0.929 . S
H55 C56 0.969 . S
C56 H55 0.969 . S
C56 O57 1.550 1_556 S
C56 H58 0.973 . S
O57 C56 1.550 1_554 S
O57 C63 1.412 . S
H58 C56 0.973 . S
C59 H52 0.929 . S
C59 C60 1.400 . S
C59 C61 1.364 1_554 S
C60 C59 1.400 . S
C60 C64 1.377 . S
C61 C59 1.364 1_556 S
C61 C62 1.374 . S
C62 H53 0.930 . S
C62 C61 1.374 . S
C62 C63 1.383 1_556 S
C63 O57 1.412 . S
C63 C62 1.383 1_554 S
C63 C64 1.394 . S
C64 H54 0.929 . S
C64 C60 1.377 . S
C64 C63 1.394 . S
H65 C72 0.929 . S
H66 C75 0.930 . S
H67 C77 0.929 . S
H68 C69 0.969 . S
C69 H68 0.969 . S
C69 O70 1.550 . S
C69 H71 0.973 . S
O70 C69 1.550 . S
O70 C76 1.412 . S
H71 C69 0.973 . S
C72 H65 0.929 . S
C72 C73 1.400 . S
C72 C74 1.364 . S
C73 C72 1.400 . S
C73 C77 1.377 . S
C74 C72 1.364 . S
C74 C75 1.374 . S
C75 H66 0.930 . S
C75 C74 1.374 . S
C75 C76 1.383 . S
C76 O70 1.412 . S
C76 C75 1.383 . S
C76 C77 1.394 . S
C77 H67 0.929 . S
C77 C73 1.377 . S
C77 C76 1.394 . S
H78 C85 0.929 . S
H79 C88 0.930 . S
H80 C90 0.929 . S
H81 C82 0.969 . S
C82 H81 0.969 . S
C82 O83 1.550 . S
C82 H84 0.973 1_556 S
O83 C82 1.550 . S
O83 C89 1.412 . S
H84 C82 0.973 1_554 S
C85 H78 0.929 . S
C85 C86 1.400 1_554 S
C85 C87 1.364 . S
C86 C85 1.400 1_556 S
C86 C90 1.377 . S
C87 C85 1.364 . S
C87 C88 1.374 . S
C88 H79 0.930 . S
C88 C87 1.374 . S
C88 C89 1.383 1_554 S
C89 O83 1.412 . S
C89 C88 1.383 1_556 S
C89 C90 1.394 . S
C90 H80 0.929 . S
C90 C86 1.377 . S
C90 C89 1.394 . S
H91 C98 0.929 . S
H92 C101 0.930 . S
H93 C103 0.929 . S
H94 C95 0.969 . S
C95 H94 0.969 . S
C95 O96 1.550 . S
C95 H97 0.973 . S
O96 C95 1.550 . S
O96 C102 1.412 . S
H97 C95 0.973 . S
C98 H91 0.929 . S
C98 C99 1.400 . S
C98 C100 1.364 . S
C99 C98 1.400 . S
C99 C103 1.377 . S
C100 C98 1.364 . S
C100 C101 1.374 . S
C101 H92 0.930 . S
C101 C100 1.374 . S
C101 C102 1.383 . S
C102 O96 1.412 . S
C102 C101 1.383 . S
C102 C103 1.394 . S
C103 H93 0.929 . S
C103 C99 1.377 . S
C103 C102 1.394 . S
Fe104 O106 1.918 . S
Fe104 O109 1.997 1_455 S
Fe104 O110 2.002 1_455 S
Fe104 O115 1.976 . S
Fe104 O118 1.996 . S
Fe105 O106 1.918 . S
Fe105 O113 1.997 1_455 S
Fe105 O116 1.996 . S
Fe105 O120 1.976 . S
Fe105 O123 2.002 1_455 S
O106 Fe104 1.918 . S
O106 Fe105 1.918 . S
O106 Fe107 1.918 . S
Fe107 O106 1.918 . S
Fe107 O108 2.002 1_455 S
Fe107 O117 1.976 . S
Fe107 O121 1.996 . S
Fe107 O124 1.997 1_455 S
O108 Fe107 2.002 1_655 S
O108 C125 1.295 . S
O109 Fe104 1.997 1_655 S
O109 C125 1.235 . S
O110 Fe104 2.002 1_655 S
O110 C111 1.295 . S
C111 O110 1.295 . S
C111 O113 1.235 . S
C112 O117 1.287 . S
C112 O118 1.255 . S
O113 Fe105 1.997 1_655 S
O113 C111 1.235 . S
C114 O120 1.287 . S
C114 O121 1.255 . S
O115 Fe104 1.976 . S
O115 C122 1.287 . S
O116 Fe105 1.996 . S
O116 C122 1.255 . S
O117 Fe107 1.976 . S
O117 C112 1.287 . S
O118 Fe104 1.996 . S
O118 C112 1.255 . S
C119 O123 1.295 . S
C119 O124 1.235 . S
O120 Fe105 1.976 . S
O120 C114 1.287 . S
O121 Fe107 1.996 . S
O121 C114 1.255 . S
C122 O115 1.287 . S
C122 O116 1.255 . S
O123 Fe105 2.002 1_655 S
O123 C119 1.295 . S
O124 Fe107 1.997 1_655 S
O124 C119 1.235 . S
C125 O108 1.295 . S
C125 O109 1.235 . S
Fe126 O128 1.918 . S
Fe126 O131 1.997 1_655 S
Fe126 O132 2.002 1_655 S
Fe126 O137 1.976 . S
Fe126 O140 1.996 . S
Fe127 O128 1.918 . S
Fe127 O135 1.982 1_655 S
Fe127 O138 2.010 . S
Fe127 O142 1.991 . S
Fe127 O145 1.988 1_655 S
O128 Fe126 1.918 . S
O128 Fe127 1.918 . S
O128 Fe129 1.918 . S
Fe129 O128 1.918 . S
Fe129 O130 1.991 1_655 S
Fe129 O139 1.987 . S
Fe129 O143 2.007 . S
Fe129 O146 1.985 1_655 S
O130 Fe129 1.991 1_455 S
O130 C147 1.295 . S
O131 Fe126 1.997 1_455 S
O131 C147 1.235 . S
O132 Fe126 2.002 1_455 S
O132 C133 1.295 . S
C133 O132 1.295 . S
C133 O135 1.235 . S
C134 O139 1.287 . S
C134 O140 1.255 . S
O135 Fe127 1.982 1_455 S
O135 C133 1.235 . S
C136 O142 1.287 . S
C136 O143 1.255 . S
O137 Fe126 1.976 . S
O137 C144 1.287 . S
O138 Fe127 2.010 . S
O138 C144 1.255 . S
O139 Fe129 1.987 . S
O139 C134 1.287 . S
O140 Fe126 1.996 . S
O140 C134 1.255 . S
C141 O145 1.295 . S
C141 O146 1.235 . S
O142 Fe127 1.991 . S
O142 C136 1.287 . S
O143 Fe129 2.007 . S
O143 C136 1.255 . S
C144 O137 1.287 . S
C144 O138 1.255 . S
O145 Fe127 1.988 1_455 S
O145 C141 1.295 . S
O146 Fe129 1.985 1_455 S
O146 C141 1.235 . S
C147 O130 1.295 . S
C147 O131 1.235 . S
Fe148 O150 1.918 . S
Fe148 O153 1.997 . S
Fe148 O154 2.002 . S
Fe148 O159 1.976 . S
Fe148 O162 1.996 . S
Fe149 O150 1.918 . S
Fe149 O157 1.997 . S
Fe149 O160 1.996 . S
Fe149 O164 1.976 . S
Fe149 O167 2.002 . S
O150 Fe148 1.918 . S
O150 Fe149 1.918 . S
O150 Fe151 1.918 . S
Fe151 O150 1.918 . S
Fe151 O152 2.002 . S
Fe151 O161 1.976 . S
Fe151 O165 1.996 . S
Fe151 O168 1.997 . S
O152 Fe151 2.002 . S
O152 C169 1.295 . S
O153 Fe148 1.997 . S
O153 C169 1.235 . S
O154 Fe148 2.002 . S
O154 C155 1.295 . S
C155 O154 1.295 . S
C155 O157 1.235 . S
C156 O161 1.287 . S
C156 O162 1.255 . S
O157 Fe149 1.997 . S
O157 C155 1.235 . S
C158 O164 1.287 . S
C158 O165 1.255 . S
O159 Fe148 1.976 . S
O159 C166 1.287 . S
O160 Fe149 1.996 . S
O160 C166 1.255 . S
O161 Fe151 1.976 . S
O161 C156 1.287 . S
O162 Fe148 1.996 . S
O162 C156 1.255 . S
C163 O167 1.295 . S
C163 O168 1.235 . S
O164 Fe149 1.976 . S
O164 C158 1.287 . S
O165 Fe151 1.996 . S
O165 C158 1.255 . S
C166 O159 1.287 . S
C166 O160 1.255 . S
O167 Fe149 2.002 . S
O167 C163 1.295 . S
O168 Fe151 1.997 . S
O168 C163 1.235 . S
C169 O152 1.295 . S
C169 O153 1.235 . S
Fe170 O172 1.918 . S
Fe170 O175 1.997 . S
Fe170 O176 2.002 . S
Fe170 O181 1.976 . S
Fe170 O184 1.996 . S
Fe171 O172 1.918 . S
Fe171 O179 1.997 . S
Fe171 O182 1.996 . S
Fe171 O186 1.976 . S
Fe171 O189 2.002 . S
O172 Fe170 1.918 . S
O172 Fe171 1.918 . S
O172 Fe173 1.918 . S
Fe173 O172 1.918 . S
Fe173 O174 2.002 . S
Fe173 O183 1.976 . S
Fe173 O187 1.996 . S
Fe173 O190 1.997 . S
O174 Fe173 2.002 . S
O174 C191 1.295 . S
O175 Fe170 1.997 . S
O175 C191 1.235 . S
O176 Fe170 2.002 . S
O176 C177 1.295 . S
C177 O176 1.295 . S
C177 O179 1.235 . S
C178 O183 1.287 . S
C178 O184 1.255 . S
O179 Fe171 1.997 . S
O179 C177 1.235 . S
C180 O186 1.287 . S
C180 O187 1.255 . S
O181 Fe170 1.976 . S
O181 C188 1.287 . S
O182 Fe171 1.996 . S
O182 C188 1.255 . S
O183 Fe173 1.976 . S
O183 C178 1.287 . S
O184 Fe170 1.996 . S
O184 C178 1.255 . S
C185 O189 1.295 . S
C185 O190 1.235 . S
O186 Fe171 1.976 . S
O186 C180 1.287 . S
O187 Fe173 1.996 . S
O187 C180 1.255 . S
C188 O181 1.287 . S
C188 O182 1.255 . S
O189 Fe171 2.002 . S
O189 C185 1.295 . S
O190 Fe173 1.997 . S
O190 C185 1.235 . S
C191 O174 1.295 . S
C191 O175 1.235 . S
C192 C193 1.391 . S
C192 C194 1.394 . S
C192 H208 0.931 . S
C193 C192 1.391 . S
C193 C197 1.376 . S
C194 C192 1.394 . S
C194 C195 1.369 . S
C194 C198 1.531 . S
C195 C194 1.369 . S
C195 C196 1.410 . S
C195 C203 1.503 . S
C196 C195 1.410 . S
C196 C197 1.392 . S
C196 C199 1.511 . S
C197 C193 1.376 . S
C197 C196 1.392 . S
C197 H209 0.929 . S
C198 C194 1.531 . S
C198 H210 0.960 . S
C198 H211 0.962 . S
C198 H212 0.960 . S
C199 C196 1.511 . S
C199 H213 0.961 . S
C199 H214 0.961 . S
C199 H215 0.961 . S
C200 C201 1.370 . S
C200 C202 1.363 . S
C200 H216 0.931 . S
C201 C200 1.370 . S
C201 C205 1.408 . S
C202 C200 1.363 . S
C202 C203 1.370 . S
C202 C206 1.524 . S
C203 C195 1.503 . S
C203 C202 1.370 . S
C203 C204 1.403 . S
C204 C203 1.403 . S
C204 C205 1.404 . S
C204 C207 1.539 . S
C205 C201 1.408 . S
C205 C204 1.404 . S
C205 H217 0.930 . S
C206 C202 1.524 . S
C206 H218 0.956 . S
C206 H219 0.961 . S
C206 H220 0.961 . S
C207 C204 1.539 . S
C207 H221 0.958 . S
C207 H222 0.961 . S
C207 H223 0.960 . S
H208 C192 0.931 . S
H209 C197 0.929 . S
H210 C198 0.960 . S
H211 C198 0.962 . S
H212 C198 0.960 . S
H213 C199 0.961 . S
H214 C199 0.961 . S
H215 C199 0.961 . S
H216 C200 0.931 . S
H217 C205 0.930 . S
H218 C206 0.956 . S
H219 C206 0.961 . S
H220 C206 0.961 . S
H221 C207 0.958 . S
H222 C207 0.961 . S
H223 C207 0.960 . S
C224 C225 1.391 . S
C224 C226 1.394 . S
C224 H240 0.931 . S
C225 C224 1.391 . S
C225 C229 1.376 . S
C226 C224 1.394 . S
C226 C227 1.369 . S
C226 C230 1.531 . S
C227 C226 1.369 . S
C227 C228 1.410 . S
C227 C235 1.503 . S
C228 C227 1.410 . S
C228 C229 1.392 . S
C228 C231 1.511 . S
C229 C225 1.376 . S
C229 C228 1.392 . S
C229 H241 0.929 . S
C230 C226 1.531 . S
C230 H242 0.960 . S
C230 H243 0.962 . S
C230 H244 0.960 . S
C231 C228 1.511 . S
C231 H245 0.961 . S
C231 H246 0.961 . S
C231 H247 0.961 . S
C232 C233 1.370 . S
C232 C234 1.363 . S
C232 H248 0.931 . S
C233 C232 1.370 . S
C233 C237 1.408 . S
C234 C232 1.363 . S
C234 C235 1.370 . S
C234 C238 1.524 . S
C235 C227 1.503 . S
C235 C234 1.370 . S
C235 C236 1.403 . S
C236 C235 1.403 . S
C236 C237 1.404 . S
C236 C239 1.539 . S
C237 C233 1.408 . S
C237 C236 1.404 . S
C237 H249 0.930 . S
C238 C234 1.524 . S
C238 H250 0.956 . S
C238 H251 0.961 . S
C238 H252 0.961 . S
C239 C236 1.539 . S
C239 H253 0.958 . S
C239 H254 0.961 . S
C239 H255 0.960 . S
H240 C224 0.931 . S
H241 C229 0.929 . S
H242 C230 0.960 . S
H243 C230 0.962 . S
H244 C230 0.960 . S
H245 C231 0.961 . S
H246 C231 0.961 . S
H247 C231 0.961 . S
H248 C232 0.931 . S
H249 C237 0.930 . S
H250 C238 0.956 . S
H251 C238 0.961 . S
H252 C238 0.961 . S
H253 C239 0.958 . S
H254 C239 0.961 . S
H255 C239 0.960 . S
C256 C257 1.391 . S
C256 C258 1.394 . S
C256 H272 0.931 . S
C257 C256 1.391 . S
C257 C261 1.376 . S
C258 C256 1.394 . S
C258 C259 1.369 . S
C258 C262 1.531 . S
C259 C258 1.369 . S
C259 C260 1.410 . S
C259 C267 1.503 . S
C260 C259 1.410 . S
C260 C261 1.392 . S
C260 C263 1.511 . S
C261 C257 1.376 . S
C261 C260 1.392 . S
C261 H273 0.929 1_556 S
C262 C258 1.531 . S
C262 H274 0.960 . S
C262 H275 0.962 . S
C262 H276 0.960 . S
C263 C260 1.511 . S
C263 H277 0.961 1_556 S
C263 H278 0.961 . S
C263 H279 0.961 . S
C264 C265 1.370 . S
C264 C266 1.363 . S
C264 H280 0.931 . S
C265 C264 1.370 . S
C265 C269 1.408 . S
C266 C264 1.363 . S
C266 C267 1.370 . S
C266 C270 1.524 . S
C267 C259 1.503 . S
C267 C266 1.370 . S
C267 C268 1.403 . S
C268 C267 1.403 . S
C268 C269 1.404 . S
C268 C271 1.539 . S
C269 C265 1.408 . S
C269 C268 1.404 . S
C269 H281 0.930 . S
C270 C266 1.524 . S
C270 H282 0.956 . S
C270 H283 0.961 . S
C270 H284 0.961 . S
C271 C268 1.539 . S
C271 H285 0.958 . S
C271 H286 0.961 . S
C271 H287 0.960 . S
H272 C256 0.931 . S
H273 C261 0.929 1_554 S
H274 C262 0.960 . S
H275 C262 0.962 . S
H276 C262 0.960 . S
H277 C263 0.961 1_554 S
H278 C263 0.961 . S
H279 C263 0.961 . S
H280 C264 0.931 . S
H281 C269 0.930 . S
H282 C270 0.956 . S
H283 C270 0.961 . S
H284 C270 0.961 . S
H285 C271 0.958 . S
H286 C271 0.961 . S
H287 C271 0.960 . S
C288 C289 1.391 . S
C288 C290 1.394 . S
C288 H304 0.931 . S
C289 C288 1.391 . S
C289 C293 1.376 . S
C290 C288 1.394 . S
C290 C291 1.369 . S
C290 C294 1.531 . S
C291 C290 1.369 . S
C291 C292 1.410 . S
C291 C299 1.503 . S
C292 C291 1.410 . S
C292 C293 1.392 . S
C292 C295 1.511 . S
C293 C289 1.376 . S
C293 C292 1.392 . S
C293 H305 0.929 . S
C294 C290 1.531 . S
C294 H306 0.960 . S
C294 H307 0.962 . S
C294 H308 0.960 . S
C295 C292 1.511 . S
C295 H309 0.961 . S
C295 H310 0.961 . S
C295 H311 0.961 . S
C296 C297 1.370 . S
C296 C298 1.363 . S
C296 H312 0.931 . S
C297 C296 1.370 . S
C297 C301 1.408 . S
C298 C296 1.363 . S
C298 C299 1.370 . S
C298 C302 1.524 . S
C299 C291 1.503 . S
C299 C298 1.370 . S
C299 C300 1.403 . S
C300 C299 1.403 . S
C300 C301 1.404 . S
C300 C303 1.539 . S
C301 C297 1.408 . S
C301 C300 1.404 . S
C301 H313 0.930 . S
C302 C298 1.524 . S
C302 H314 0.956 . S
C302 H315 0.961 . S
C302 H316 0.961 . S
C303 C300 1.539 . S
C303 H317 0.958 . S
C303 H318 0.961 . S
C303 H319 0.960 . S
H304 C288 0.931 . S
H305 C293 0.929 . S
H306 C294 0.960 . S
H307 C294 0.962 . S
H308 C294 0.960 . S
H309 C295 0.961 . S
H310 C295 0.961 . S
H311 C295 0.961 . S
H312 C296 0.931 . S
H313 C301 0.930 . S
H314 C302 0.956 . S
H315 C302 0.961 . S
H316 C302 0.961 . S
H317 C303 0.958 . S
H318 C303 0.961 . S
H319 C303 0.960 . S
C320 C321 1.391 . S
C320 C322 1.394 . S
C320 H336 0.931 . S
C321 C320 1.391 . S
C321 C325 1.376 . S
C322 C320 1.394 . S
C322 C323 1.369 . S
C322 C326 1.531 . S
C323 C322 1.369 . S
C323 C324 1.410 . S
C323 C331 1.503 . S
C324 C323 1.410 . S
C324 C325 1.392 . S
C324 C327 1.511 . S
C325 C321 1.376 . S
C325 C324 1.392 . S
C325 H337 0.929 . S
C326 C322 1.531 . S
C326 H338 0.960 . S
C326 H339 0.962 . S
C326 H340 0.960 . S
C327 C324 1.511 . S
C327 H341 0.961 . S
C327 H342 0.961 . S
C327 H343 0.961 . S
C328 C329 1.370 . S
C328 C330 1.363 . S
C328 H344 0.931 . S
C329 C328 1.370 . S
C329 C333 1.408 . S
C330 C328 1.363 . S
C330 C331 1.370 . S
C330 C334 1.524 . S
C331 C323 1.503 . S
C331 C330 1.370 . S
C331 C332 1.403 . S
C332 C331 1.403 . S
C332 C333 1.404 . S
C332 C335 1.539 . S
C333 C329 1.408 . S
C333 C332 1.404 . S
C333 H345 0.930 . S
C334 C330 1.524 . S
C334 H346 0.956 . S
C334 H347 0.961 . S
C334 H348 0.961 . S
C335 C332 1.539 . S
C335 H349 0.958 . S
C335 H350 0.961 . S
C335 H351 0.960 . S
H336 C320 0.931 . S
H337 C325 0.929 . S
H338 C326 0.960 . S
H339 C326 0.962 . S
H340 C326 0.960 . S
H341 C327 0.961 . S
H342 C327 0.961 . S
H343 C327 0.961 . S
H344 C328 0.931 . S
H345 C333 0.930 . S
H346 C334 0.956 . S
H347 C334 0.961 . S
H348 C334 0.961 . S
H349 C335 0.958 . S
H350 C335 0.961 . S
H351 C335 0.960 . S
C352 C353 1.391 . S
C352 C354 1.394 . S
C352 H368 0.931 . S
C353 C352 1.391 . S
C353 C357 1.376 . S
C354 C352 1.394 . S
C354 C355 1.369 . S
C354 C358 1.531 . S
C355 C354 1.369 . S
C355 C356 1.410 . S
C355 C363 1.503 . S
C356 C355 1.410 . S
C356 C357 1.392 . S
C356 C359 1.511 . S
C357 C353 1.376 . S
C357 C356 1.392 . S
C357 H369 0.929 . S
C358 C354 1.531 . S
C358 H370 0.960 . S
C358 H371 0.962 . S
C358 H372 0.960 . S
C359 C356 1.511 . S
C359 H373 0.961 . S
C359 H374 0.961 . S
C359 H375 0.961 . S
C360 C361 1.370 . S
C360 C362 1.363 . S
C360 H376 0.931 . S
C361 C360 1.370 . S
C361 C365 1.408 . S
C362 C360 1.363 . S
C362 C363 1.370 . S
C362 C366 1.524 . S
C363 C355 1.503 . S
C363 C362 1.370 . S
C363 C364 1.403 . S
C364 C363 1.403 . S
C364 C365 1.404 . S
C364 C367 1.539 . S
C365 C361 1.408 . S
C365 C364 1.404 . S
C365 H377 0.930 . S
C366 C362 1.524 . S
C366 H378 0.956 . S
C366 H379 0.961 . S
C366 H380 0.961 . S
C367 C364 1.539 . S
C367 H381 0.958 . S
C367 H382 0.961 . S
C367 H383 0.960 . S
H368 C352 0.931 . S
H369 C357 0.929 . S
H370 C358 0.960 . S
H371 C358 0.962 . S
H372 C358 0.960 . S
H373 C359 0.961 . S
H374 C359 0.961 . S
H375 C359 0.961 . S
H376 C360 0.931 . S
H377 C365 0.930 . S
H378 C366 0.956 . S
H379 C366 0.961 . S
H380 C366 0.961 . S
H381 C367 0.958 . S
H382 C367 0.961 . S
H383 C367 0.960 . S
C384 C385 1.391 . S
C384 C386 1.394 . S
C384 H400 0.931 . S
C385 C384 1.391 . S
C385 C389 1.376 . S
C386 C384 1.394 . S
C386 C387 1.369 . S
C386 C390 1.531 . S
C387 C386 1.369 . S
C387 C388 1.410 . S
C387 C395 1.503 . S
C388 C387 1.410 . S
C388 C389 1.392 . S
C388 C391 1.511 . S
C389 C385 1.376 . S
C389 C388 1.392 . S
C389 H401 0.929 . S
C390 C386 1.531 . S
C390 H402 0.960 . S
C390 H403 0.962 . S
C390 H404 0.960 . S
C391 C388 1.511 . S
C391 H405 0.961 . S
C391 H406 0.961 . S
C391 H407 0.961 . S
C392 C393 1.370 . S
C392 C394 1.363 . S
C392 H408 0.931 . S
C393 C392 1.370 . S
C393 C397 1.408 . S
C394 C392 1.363 . S
C394 C395 1.370 . S
C394 C398 1.524 . S
C395 C387 1.503 . S
C395 C394 1.370 . S
C395 C396 1.403 . S
C396 C395 1.403 . S
C396 C397 1.404 . S
C396 C399 1.539 . S
C397 C393 1.408 . S
C397 C396 1.404 . S
C397 H409 0.930 . S
C398 C394 1.524 . S
C398 H410 0.956 . S
C398 H411 0.961 . S
C398 H412 0.961 . S
C399 C396 1.539 . S
C399 H413 0.958 . S
C399 H414 0.961 . S
C399 H415 0.960 . S
H400 C384 0.931 . S
H401 C389 0.929 . S
H402 C390 0.960 . S
H403 C390 0.962 . S
H404 C390 0.960 . S
H405 C391 0.961 . S
H406 C391 0.961 . S
H407 C391 0.961 . S
H408 C392 0.931 . S
H409 C397 0.930 . S
H410 C398 0.956 . S
H411 C398 0.961 . S
H412 C398 0.961 . S
H413 C399 0.958 . S
H414 C399 0.961 . S
H415 C399 0.960 . S
C416 C417 1.391 . S
C416 C418 1.394 . S
C416 H432 0.931 . S
C417 C416 1.391 . S
C417 C421 1.376 . S
C418 C416 1.394 . S
C418 C419 1.369 . S
C418 C422 1.531 . S
C419 C418 1.369 . S
C419 C420 1.410 . S
C419 C427 1.503 . S
C420 C419 1.410 . S
C420 C421 1.392 . S
C420 C423 1.511 . S
C421 C417 1.376 . S
C421 C420 1.392 . S
C421 H433 0.929 . S
C422 C418 1.531 . S
C422 H434 0.960 . S
C422 H435 0.962 . S
C422 H436 0.960 . S
C423 C420 1.511 . S
C423 H437 0.961 . S
C423 H438 0.961 . S
C423 H439 0.961 . S
C424 C425 1.370 . S
C424 C426 1.363 . S
C424 H440 0.931 . S
C425 C424 1.370 . S
C425 C429 1.408 . S
C426 C424 1.363 . S
C426 C427 1.370 . S
C426 C430 1.524 . S
C427 C419 1.503 . S
C427 C426 1.370 . S
C427 C428 1.403 . S
C428 C427 1.403 . S
C428 C429 1.404 . S
C428 C431 1.539 . S
C429 C425 1.408 . S
C429 C428 1.404 . S
C429 H441 0.930 . S
C430 C426 1.524 . S
C430 H442 0.956 . S
C430 H443 0.961 . S
C430 H444 0.961 . S
C431 C428 1.539 . S
C431 H445 0.958 . S
C431 H446 0.961 . S
C431 H447 0.960 . S
H432 C416 0.931 . S
H433 C421 0.929 . S
H434 C422 0.960 . S
H435 C422 0.962 . S
H436 C422 0.960 . S
H437 C423 0.961 . S
H438 C423 0.961 . S
H439 C423 0.961 . S
H440 C424 0.931 . S
H441 C429 0.930 . S
H442 C430 0.956 . S
H443 C430 0.961 . S
H444 C430 0.961 . S
H445 C431 0.958 . S
H446 C431 0.961 . S
H447 C431 0.960 . S
C448 C449 1.391 . S
C448 C450 1.394 . S
C448 H464 0.931 . S
C449 C448 1.391 . S
C449 C453 1.376 . S
C450 C448 1.394 . S
C450 C451 1.369 . S
C450 C454 1.531 . S
C451 C450 1.369 . S
C451 C452 1.410 . S
C451 C459 1.503 . S
C452 C451 1.410 . S
C452 C453 1.392 . S
C452 C455 1.511 . S
C453 C449 1.376 . S
C453 C452 1.392 . S
C453 H465 0.929 . S
C454 C450 1.531 . S
C454 H466 0.960 . S
C454 H467 0.962 . S
C454 H468 0.960 . S
C455 C452 1.511 . S
C455 H469 0.961 . S
C455 H470 0.961 . S
C455 H471 0.961 . S
C456 C457 1.370 . S
C456 C458 1.363 . S
C456 H472 0.931 . S
C457 C456 1.370 . S
C457 C461 1.408 . S
C458 C456 1.363 . S
C458 C459 1.370 . S
C458 C462 1.524 . S
C459 C451 1.503 . S
C459 C458 1.370 . S
C459 C460 1.403 . S
C460 C459 1.403 . S
C460 C461 1.404 . S
C460 C463 1.539 . S
C461 C457 1.408 . S
C461 C460 1.404 . S
C461 H473 0.930 . S
C462 C458 1.524 . S
C462 H474 0.956 . S
C462 H475 0.961 . S
C462 H476 0.961 . S
C463 C460 1.539 . S
C463 H477 0.958 . S
C463 H478 0.961 . S
C463 H479 0.960 . S
H464 C448 0.931 . S
H465 C453 0.929 . S
H466 C454 0.960 . S
H467 C454 0.962 . S
H468 C454 0.960 . S
H469 C455 0.961 . S
H470 C455 0.961 . S
H471 C455 0.961 . S
H472 C456 0.931 . S
H473 C461 0.930 . S
H474 C462 0.956 . S
H475 C462 0.961 . S
H476 C462 0.961 . S
H477 C463 0.958 . S
H478 C463 0.961 . S
H479 C463 0.960 . S
C480 C481 1.391 . S
C480 C482 1.394 . S
C480 H496 0.931 . S
C481 C480 1.391 . S
C481 C485 1.376 . S
C482 C480 1.394 . S
C482 C483 1.369 . S
C482 C486 1.531 . S
C483 C482 1.369 . S
C483 C484 1.410 . S
C483 C491 1.503 . S
C484 C483 1.410 . S
C484 C485 1.392 . S
C484 C487 1.511 . S
C485 C481 1.376 . S
C485 C484 1.392 . S
C485 H497 0.929 . S
C486 C482 1.531 . S
C486 H498 0.960 . S
C486 H499 0.962 . S
C486 H500 0.960 . S
C487 C484 1.511 . S
C487 H501 0.961 . S
C487 H502 0.961 . S
C487 H503 0.961 . S
C488 C489 1.370 . S
C488 C490 1.363 . S
C488 H504 0.931 . S
C489 C488 1.370 . S
C489 C493 1.408 . S
C490 C488 1.363 . S
C490 C491 1.370 . S
C490 C494 1.524 . S
C491 C483 1.503 . S
C491 C490 1.370 . S
C491 C492 1.403 . S
C492 C491 1.403 . S
C492 C493 1.404 . S
C492 C495 1.539 . S
C493 C489 1.408 . S
C493 C492 1.404 . S
C493 H505 0.930 . S
C494 C490 1.524 . S
C494 H506 0.956 . S
C494 H507 0.961 . S
C494 H508 0.961 . S
C495 C492 1.539 . S
C495 H509 0.958 . S
C495 H510 0.961 . S
C495 H511 0.960 . S
H496 C480 0.931 . S
H497 C485 0.929 . S
H498 C486 0.960 . S
H499 C486 0.962 . S
H500 C486 0.960 . S
H501 C487 0.961 . S
H502 C487 0.961 . S
H503 C487 0.961 . S
H504 C488 0.931 . S
H505 C493 0.930 . S
H506 C494 0.956 . S
H507 C494 0.961 . S
H508 C494 0.961 . S
H509 C495 0.958 . S
H510 C495 0.961 . S
H511 C495 0.960 . S
C512 C513 1.391 . S
C512 C514 1.394 . S
C512 H528 0.931 . S
C513 C512 1.391 . S
C513 C517 1.376 . S
C514 C512 1.394 . S
C514 C515 1.369 . S
C514 C518 1.531 . S
C515 C514 1.369 . S
C515 C516 1.410 . S
C515 C523 1.503 . S
C516 C515 1.410 . S
C516 C517 1.392 . S
C516 C519 1.511 . S
C517 C513 1.376 . S
C517 C516 1.392 . S
C517 H529 0.929 1_556 S
C518 C514 1.531 . S
C518 H530 0.960 . S
C518 H531 0.962 . S
C518 H532 0.960 . S
C519 C516 1.511 . S
C519 H533 0.961 1_556 S
C519 H534 0.961 . S
C519 H535 0.961 . S
C520 C521 1.370 . S
C520 C522 1.363 . S
C520 H536 0.931 . S
C521 C520 1.370 . S
C521 C525 1.408 . S
C522 C520 1.363 . S
C522 C523 1.370 . S
C522 C526 1.524 . S
C523 C515 1.503 . S
C523 C522 1.370 . S
C523 C524 1.403 . S
C524 C523 1.403 . S
C524 C525 1.404 . S
C524 C527 1.539 . S
C525 C521 1.408 . S
C525 C524 1.404 . S
C525 H537 0.930 . S
C526 C522 1.524 . S
C526 H538 0.956 . S
C526 H539 0.961 . S
C526 H540 0.961 . S
C527 C524 1.539 . S
C527 H541 0.958 . S
C527 H542 0.961 . S
C527 H543 0.960 . S
H528 C512 0.931 . S
H529 C517 0.929 1_554 S
H530 C518 0.960 . S
H531 C518 0.962 . S
H532 C518 0.960 . S
H533 C519 0.961 1_554 S
H534 C519 0.961 . S
H535 C519 0.961 . S
H536 C520 0.931 . S
H537 C525 0.930 . S
H538 C526 0.956 . S
H539 C526 0.961 . S
H540 C526 0.961 . S
H541 C527 0.958 . S
H542 C527 0.961 . S
H543 C527 0.960 . S
C544 C545 1.391 . S
C544 C546 1.394 . S
C544 H560 0.931 . S
C545 C544 1.391 . S
C545 C549 1.376 . S
C546 C544 1.394 . S
C546 C547 1.369 . S
C546 C550 1.531 . S
C547 C546 1.369 . S
C547 C548 1.410 . S
C547 C555 1.503 . S
C548 C547 1.410 . S
C548 C549 1.392 . S
C548 C551 1.511 . S
C549 C545 1.376 . S
C549 C548 1.392 . S
C549 H561 0.929 . S
C550 C546 1.531 . S
C550 H562 0.960 . S
C550 H563 0.962 . S
C550 H564 0.960 . S
C551 C548 1.511 . S
C551 H565 0.961 . S
C551 H566 0.961 . S
C551 H567 0.961 . S
C552 C553 1.370 . S
C552 C554 1.363 . S
C552 H568 0.931 . S
C553 C552 1.370 . S
C553 C557 1.408 . S
C554 C552 1.363 . S
C554 C555 1.370 . S
C554 C558 1.524 . S
C555 C547 1.503 . S
C555 C554 1.370 . S
C555 C556 1.403 . S
C556 C555 1.403 . S
C556 C557 1.404 . S
C556 C559 1.539 . S
C557 C553 1.408 . S
C557 C556 1.404 . S
C557 H569 0.930 . S
C558 C554 1.524 . S
C558 H570 0.956 . S
C558 H571 0.961 . S
C558 H572 0.961 . S
C559 C556 1.539 . S
C559 H573 0.958 . S
C559 H574 0.961 . S
C559 H575 0.960 . S
H560 C544 0.931 . S
H561 C549 0.929 . S
H562 C550 0.960 . S
H563 C550 0.962 . S
H564 C550 0.960 . S
H565 C551 0.961 . S
H566 C551 0.961 . S
H567 C551 0.961 . S
H568 C552 0.931 . S
H569 C557 0.930 . S
H570 C558 0.956 . S
H571 C558 0.961 . S
H572 C558 0.961 . S
H573 C559 0.958 . S
H574 C559 0.961 . S
H575 C559 0.960 . S
C576 C577 1.391 . S
C576 C578 1.394 . S
C576 H592 0.931 . S
C577 C576 1.391 . S
C577 C581 1.376 . S
C578 C576 1.394 . S
C578 C579 1.369 . S
C578 C582 1.531 1_565 S
C579 C578 1.369 . S
C579 C580 1.410 . S
C579 C587 1.503 1_565 S
C580 C579 1.410 . S
C580 C581 1.392 . S
C580 C583 1.511 . S
C581 C577 1.376 . S
C581 C580 1.392 . S
C581 H593 0.929 . S
C582 C578 1.531 1_545 S
C582 H594 0.960 . S
C582 H595 0.962 . S
C582 H596 0.960 . S
C583 C580 1.511 . S
C583 H597 0.961 . S
C583 H598 0.961 . S
C583 H599 0.961 . S
C584 C585 1.370 . S
C584 C586 1.363 . S
C584 H600 0.931 . S
C585 C584 1.370 . S
C585 C589 1.408 . S
C586 C584 1.363 . S
C586 C587 1.370 . S
C586 C590 1.535 . S
C587 C579 1.503 1_545 S
C587 C586 1.370 . S
C587 C588 1.403 . S
C588 C587 1.403 . S
C588 C589 1.404 . S
C588 C591 1.539 . S
C589 C585 1.408 . S
C589 C588 1.404 . S
C589 H601 0.930 . S
C590 C586 1.535 . S
C590 H602 0.965 . S
C590 H603 0.931 1_545 S
C590 H604 0.971 . S
C591 C588 1.539 . S
C591 H605 0.958 1_556 S
C591 H606 0.961 . S
C591 H607 0.960 1_545 S
H592 C576 0.931 . S
H593 C581 0.929 . S
H594 C582 0.960 . S
H595 C582 0.962 . S
H596 C582 0.960 . S
H597 C583 0.961 . S
H598 C583 0.961 . S
H599 C583 0.961 . S
H600 C584 0.931 . S
H601 C589 0.930 . S
H602 C590 0.965 . S
H603 C590 0.931 1_565 S
H604 C590 0.971 . S
H605 C591 0.958 1_554 S
H606 C591 0.961 . S
H607 C591 0.960 1_565 S
C608 C609 1.391 . S
C608 C610 1.394 . S
C608 H624 0.931 . S
C609 C608 1.391 . S
C609 C613 1.376 . S
C610 C608 1.394 . S
C610 C611 1.369 . S
C610 C614 1.531 . S
C611 C610 1.369 . S
C611 C612 1.410 . S
C611 C619 1.503 1_545 S
C612 C611 1.410 . S
C612 C613 1.392 . S
C612 C615 1.511 . S
C613 C609 1.376 . S
C613 C612 1.392 . S
C613 H625 0.929 . S
C614 C610 1.531 . S
C614 H626 0.960 . S
C614 H627 0.962 . S
C614 H628 0.960 . S
C615 C612 1.511 . S
C615 H629 0.961 1_545 S
C615 H630 0.961 1_545 S
C615 H631 0.961 . S
C616 C617 1.370 . S
C616 C618 1.363 . S
C616 H632 0.931 . S
C617 C616 1.370 . S
C617 C621 1.408 . S
C618 C616 1.363 . S
C618 C619 1.370 . S
C618 C622 1.524 . S
C619 C611 1.503 1_565 S
C619 C618 1.370 . S
C619 C620 1.403 1_565 S
C620 C619 1.403 1_545 S
C620 C621 1.404 1_545 S
C620 C623 1.539 . S
C621 C617 1.408 . S
C621 C620 1.404 1_565 S
C621 H633 0.930 . S
C622 C618 1.524 . S
C622 H634 0.956 . S
C622 H635 0.961 . S
C622 H636 0.961 . S
C623 C620 1.539 . S
C623 H637 0.958 . S
C623 H638 0.961 . S
C623 H639 0.960 . S
H624 C608 0.931 . S
H625 C613 0.929 . S
H626 C614 0.960 . S
H627 C614 0.962 . S
H628 C614 0.960 . S
H629 C615 0.961 1_565 S
H630 C615 0.961 1_565 S
H631 C615 0.961 . S
H632 C616 0.931 . S
H633 C621 0.930 . S
H634 C622 0.956 . S
H635 C622 0.961 . S
H636 C622 0.961 . S
H637 C623 0.958 . S
H638 C623 0.961 . S
H639 C623 0.960 . S
C640 C641 1.391 . S
C640 C642 1.394 . S
C640 H656 0.931 1_556 S
C641 C640 1.391 . S
C641 C645 1.376 . S
C642 C640 1.394 . S
C642 C643 1.369 . S
C642 C646 1.531 1_565 S
C643 C642 1.369 . S
C643 C644 1.410 . S
C643 C651 1.503 1_565 S
C644 C643 1.410 . S
C644 C645 1.392 . S
C644 C647 1.511 . S
C645 C641 1.376 . S
C645 C644 1.392 . S
C645 H657 0.929 . S
C646 C642 1.531 1_545 S
C646 H658 0.960 . S
C646 H659 0.962 1_556 S
C646 H660 0.960 1_556 S
C647 C644 1.511 . S
C647 H661 0.961 . S
C647 H662 0.961 . S
C647 H663 0.961 . S
C648 C649 1.370 . S
C648 C650 1.363 . S
C648 H664 0.931 . S
C649 C648 1.370 . S
C649 C653 1.408 . S
C650 C648 1.363 . S
C650 C651 1.370 . S
C650 C654 1.524 1_545 S
C651 C643 1.503 1_545 S
C651 C650 1.370 . S
C651 C652 1.403 . S
C652 C651 1.403 . S
C652 C653 1.404 . S
C652 C655 1.539 . S
C653 C649 1.408 . S
C653 C652 1.404 . S
C653 H665 0.930 . S
C654 C650 1.524 1_565 S
C654 H666 0.956 . S
C654 H667 0.961 . S
C654 H668 0.961 . S
C655 C652 1.539 . S
C655 H669 0.958 . S
C655 H670 0.961 . S
C655 H671 0.960 . S
H656 C640 0.931 1_554 S
H657 C645 0.929 . S
H658 C646 0.960 . S
H659 C646 0.962 1_554 S
H660 C646 0.960 1_554 S
H661 C647 0.961 . S
H662 C647 0.961 . S
H663 C647 0.961 . S
H664 C648 0.931 . S
H665 C653 0.930 . S
H666 C654 0.956 . S
H667 C654 0.961 . S
H668 C654 0.961 . S
H669 C655 0.958 . S
H670 C655 0.961 . S
H671 C655 0.960 . S
C672 C673 1.391 . S
C672 C674 1.394 . S
C672 H688 0.931 . S
C673 C672 1.391 . S
C673 C677 1.376 . S
C674 C672 1.394 . S
C674 C675 1.369 . S
C674 C678 1.531 . S
C675 C674 1.369 . S
C675 C676 1.410 . S
C675 C683 1.503 1_545 S
C676 C675 1.410 . S
C676 C677 1.392 . S
C676 C679 1.511 1_545 S
C677 C673 1.376 . S
C677 C676 1.392 . S
C677 H689 0.929 . S
C678 C674 1.531 . S
C678 H690 0.960 . S
C678 H691 0.962 . S
C678 H692 0.960 . S
C679 C676 1.511 1_565 S
C679 H693 0.961 . S
C679 H694 0.961 . S
C679 H695 0.961 . S
C680 C681 1.370 . S
C680 C682 1.363 . S
C680 H696 0.931 . S
C681 C680 1.370 . S
C681 C685 1.408 . S
C682 C680 1.363 . S
C682 C683 1.370 . S
C682 C686 1.524 1_565 S
C683 C675 1.503 1_565 S
C683 C682 1.370 . S
C683 C684 1.403 . S
C684 C683 1.403 . S
C684 C685 1.404 . S
C684 C687 1.539 . S
C685 C681 1.408 . S
C685 C684 1.404 . S
C685 H697 0.930 . S
C686 C682 1.524 1_545 S
C686 H698 0.956 . S
C686 H699 0.961 . S
C686 H700 0.961 . S
C687 C684 1.539 . S
C687 H701 0.958 . S
C687 H702 0.961 . S
C687 H703 0.960 . S
H688 C672 0.931 . S
H689 C677 0.929 . S
H690 C678 0.960 . S
H691 C678 0.962 . S
H692 C678 0.960 . S
H693 C679 0.961 . S
H694 C679 0.961 . S
H695 C679 0.961 . S
H696 C680 0.931 . S
H697 C685 0.930 . S
H698 C686 0.956 . S
H699 C686 0.961 . S
H700 C686 0.961 . S
H701 C687 0.958 . S
H702 C687 0.961 . S
H703 C687 0.960 . S
C704 C705 1.391 . S
C704 C706 1.394 . S
C704 H720 0.931 . S
C705 C704 1.391 . S
C705 C709 1.376 . S
C706 C704 1.394 . S
C706 C707 1.369 . S
C706 C710 1.531 . S
C707 C706 1.369 . S
C707 C708 1.410 . S
C707 C715 1.503 . S
C708 C707 1.410 . S
C708 C709 1.392 . S
C708 C711 1.511 . S
C709 C705 1.376 . S
C709 C708 1.392 . S
C709 H721 0.929 . S
C710 C706 1.531 . S
C710 H722 0.960 . S
C710 H723 0.962 . S
C710 H724 0.960 . S
C711 C708 1.511 . S
C711 H725 0.961 . S
C711 H726 0.961 . S
C711 H727 0.961 . S
C712 C713 1.370 . S
C712 C714 1.363 . S
C712 H728 0.931 . S
C713 C712 1.370 . S
C713 C717 1.408 . S
C714 C712 1.363 . S
C714 C715 1.370 . S
C714 C718 1.524 . S
C715 C707 1.503 . S
C715 C714 1.370 . S
C715 C716 1.403 . S
C716 C715 1.403 . S
C716 C717 1.404 . S
C716 C719 1.539 . S
C717 C713 1.408 . S
C717 C716 1.404 . S
C717 H729 0.930 . S
C718 C714 1.524 . S
C718 H730 0.956 . S
C718 H731 0.961 . S
C718 H732 0.961 . S
C719 C716 1.539 . S
C719 H733 0.958 . S
C719 H734 0.961 . S
C719 H735 0.960 . S
H720 C704 0.931 . S
H721 C709 0.929 . S
H722 C710 0.960 . S
H723 C710 0.962 . S
H724 C710 0.960 . S
H725 C711 0.961 . S
H726 C711 0.961 . S
H727 C711 0.961 . S
H728 C712 0.931 . S
H729 C717 0.930 . S
H730 C718 0.956 . S
H731 C718 0.961 . S
H732 C718 0.961 . S
H733 C719 0.958 . S
H734 C719 0.961 . S
H735 C719 0.960 . S
C736 C737 1.391 . S
C736 C738 1.394 . S
C736 H752 0.931 . S
C737 C736 1.391 . S
C737 C741 1.376 . S
C738 C736 1.394 . S
C738 C739 1.369 . S
C738 C742 1.531 . S
C739 C738 1.369 . S
C739 C740 1.410 . S
C739 C747 1.503 . S
C740 C739 1.410 . S
C740 C741 1.392 . S
C740 C743 1.511 . S
C741 C737 1.376 . S
C741 C740 1.392 . S
C741 H753 0.929 . S
C742 C738 1.531 . S
C742 H754 0.960 . S
C742 H755 0.962 . S
C742 H756 0.960 . S
C743 C740 1.511 . S
C743 H757 0.961 . S
C743 H758 0.961 . S
C743 H759 0.961 . S
C744 C745 1.370 . S
C744 C746 1.363 . S
C744 H760 0.931 . S
C745 C744 1.370 . S
C745 C749 1.408 . S
C746 C744 1.363 . S
C746 C747 1.370 . S
C746 C750 1.524 . S
C747 C739 1.503 . S
C747 C746 1.370 . S
C747 C748 1.403 . S
C748 C747 1.403 . S
C748 C749 1.404 . S
C748 C751 1.539 . S
C749 C745 1.408 . S
C749 C748 1.404 . S
C749 H761 0.930 . S
C750 C746 1.524 . S
C750 H762 0.956 . S
C750 H763 0.961 . S
C750 H764 0.961 . S
C751 C748 1.539 . S
C751 H765 0.958 . S
C751 H766 0.961 . S
C751 H767 0.960 . S
H752 C736 0.931 . S
H753 C741 0.929 . S
H754 C742 0.960 . S
H755 C742 0.962 . S
H756 C742 0.960 . S
H757 C743 0.961 . S
H758 C743 0.961 . S
H759 C743 0.961 . S
H760 C744 0.931 . S
H761 C749 0.930 . S
H762 C750 0.956 . S
H763 C750 0.961 . S
H764 C750 0.961 . S
H765 C751 0.958 . S
H766 C751 0.961 . S
H767 C751 0.960 . S
C768 C769 1.391 . S
C768 C770 1.394 . S
C768 H784 0.931 . S
C769 C768 1.391 . S
C769 C773 1.376 . S
C770 C768 1.394 . S
C770 C771 1.369 . S
C770 C774 1.531 . S
C771 C770 1.369 . S
C771 C772 1.410 . S
C771 C779 1.503 . S
C772 C771 1.410 . S
C772 C773 1.392 . S
C772 C775 1.511 . S
C773 C769 1.376 . S
C773 C772 1.392 . S
C773 H785 0.929 . S
C774 C770 1.531 . S
C774 H786 0.960 . S
C774 H787 0.962 . S
C774 H788 0.960 . S
C775 C772 1.511 . S
C775 H789 0.961 . S
C775 H790 0.961 . S
C775 H791 0.961 . S
C776 C777 1.370 . S
C776 C778 1.363 . S
C776 H792 0.931 . S
C777 C776 1.370 . S
C777 C781 1.408 . S
C778 C776 1.363 . S
C778 C779 1.370 . S
C778 C782 1.524 . S
C779 C771 1.503 . S
C779 C778 1.370 . S
C779 C780 1.403 . S
C780 C779 1.403 . S
C780 C781 1.404 . S
C780 C783 1.539 . S
C781 C777 1.408 . S
C781 C780 1.404 . S
C781 H793 0.930 . S
C782 C778 1.524 . S
C782 H794 0.956 . S
C782 H795 0.961 . S
C782 H796 0.961 . S
C783 C780 1.539 . S
C783 H797 0.958 . S
C783 H798 0.961 . S
C783 H799 0.960 . S
H784 C768 0.931 . S
H785 C773 0.929 . S
H786 C774 0.960 . S
H787 C774 0.962 . S
H788 C774 0.960 . S
H789 C775 0.961 . S
H790 C775 0.961 . S
H791 C775 0.961 . S
H792 C776 0.931 . S
H793 C781 0.930 . S
H794 C782 0.956 . S
H795 C782 0.961 . S
H796 C782 0.961 . S
H797 C783 0.958 . S
H798 C783 0.961 . S
H799 C783 0.960 . S
C800 C801 1.391 . S
C800 C802 1.394 . S
C800 H816 0.931 . S
C801 C800 1.391 . S
C801 C805 1.376 . S
C802 C800 1.394 . S
C802 C803 1.369 . S
C802 C806 1.531 . S
C803 C802 1.369 . S
C803 C804 1.410 . S
C803 C811 1.503 . S
C804 C803 1.410 . S
C804 C805 1.392 . S
C804 C807 1.511 . S
C805 C801 1.376 . S
C805 C804 1.392 . S
C805 H817 0.929 . S
C806 C802 1.531 . S
C806 H818 0.960 . S
C806 H819 0.962 . S
C806 H820 0.960 . S
C807 C804 1.511 . S
C807 H821 0.961 . S
C807 H822 0.961 . S
C807 H823 0.961 . S
C808 C809 1.370 . S
C808 C810 1.363 . S
C808 H824 0.931 . S
C809 C808 1.370 . S
C809 C813 1.408 . S
C810 C808 1.363 . S
C810 C811 1.370 . S
C810 C814 1.524 . S
C811 C803 1.503 . S
C811 C810 1.370 . S
C811 C812 1.403 . S
C812 C811 1.403 . S
C812 C813 1.404 . S
C812 C815 1.539 . S
C813 C809 1.408 . S
C813 C812 1.404 . S
C813 H825 0.930 . S
C814 C810 1.524 . S
C814 H826 0.956 . S
C814 H827 0.961 . S
C814 H828 0.961 . S
C815 C812 1.539 . S
C815 H829 0.958 . S
C815 H830 0.961 . S
C815 H831 0.960 . S
H816 C800 0.931 . S
H817 C805 0.929 . S
H818 C806 0.960 . S
H819 C806 0.962 . S
H820 C806 0.960 . S
H821 C807 0.961 . S
H822 C807 0.961 . S
H823 C807 0.961 . S
H824 C808 0.931 . S
H825 C813 0.930 . S
H826 C814 0.956 . S
H827 C814 0.961 . S
H828 C814 0.961 . S
H829 C815 0.958 . S
H830 C815 0.961 . S
H831 C815 0.960 . S
C832 C833 1.391 . S
C832 C834 1.394 . S
C832 H848 0.931 . S
C833 C832 1.391 . S
C833 C837 1.376 . S
C834 C832 1.394 . S
C834 C835 1.369 . S
C834 C838 1.531 . S
C835 C834 1.369 . S
C835 C836 1.410 . S
C835 C843 1.503 . S
C836 C835 1.410 . S
C836 C837 1.392 . S
C836 C839 1.511 . S
C837 C833 1.376 . S
C837 C836 1.392 . S
C837 H849 0.929 . S
C838 C834 1.531 . S
C838 H850 0.960 . S
C838 H851 0.962 . S
C838 H852 0.960 . S
C839 C836 1.511 . S
C839 H853 0.961 . S
C839 H854 0.961 . S
C839 H855 0.961 . S
C840 C841 1.370 . S
C840 C842 1.363 . S
C840 H856 0.931 . S
C841 C840 1.370 . S
C841 C845 1.408 . S
C842 C840 1.363 . S
C842 C843 1.370 . S
C842 C846 1.524 . S
C843 C835 1.503 . S
C843 C842 1.370 . S
C843 C844 1.403 . S
C844 C843 1.403 . S
C844 C845 1.404 . S
C844 C847 1.539 . S
C845 C841 1.408 . S
C845 C844 1.404 . S
C845 H857 0.930 . S
C846 C842 1.524 . S
C846 H858 0.956 . S
C846 H859 0.961 . S
C846 H860 0.961 . S
C847 C844 1.539 . S
C847 H861 0.958 . S
C847 H862 0.961 . S
C847 H863 0.960 . S
H848 C832 0.931 . S
H849 C837 0.929 . S
H850 C838 0.960 . S
H851 C838 0.962 . S
H852 C838 0.960 . S
H853 C839 0.961 . S
H854 C839 0.961 . S
H855 C839 0.961 . S
H856 C840 0.931 . S
H857 C845 0.930 . S
H858 C846 0.956 . S
H859 C846 0.961 . S
H860 C846 0.961 . S
H861 C847 0.958 . S
H862 C847 0.961 . S
H863 C847 0.960 . S
C864 C865 1.391 . S
C864 C866 1.394 . S
C864 H880 0.931 . S
C865 C864 1.391 . S
C865 C869 1.376 . S
C866 C864 1.394 . S
C866 C867 1.369 . S
C866 C870 1.531 . S
C867 C866 1.369 . S
C867 C868 1.410 . S
C867 C875 1.503 . S
C868 C867 1.410 . S
C868 C869 1.392 . S
C868 C871 1.511 . S
C869 C865 1.376 . S
C869 C868 1.392 . S
C869 H881 0.929 . S
C870 C866 1.531 . S
C870 H882 0.960 . S
C870 H883 0.962 . S
C870 H884 0.960 . S
C871 C868 1.511 . S
C871 H885 0.961 . S
C871 H886 0.961 . S
C871 H887 0.961 . S
C872 C873 1.370 . S
C872 C874 1.363 . S
C872 H888 0.931 . S
C873 C872 1.370 . S
C873 C877 1.408 . S
C874 C872 1.363 . S
C874 C875 1.370 . S
C874 C878 1.524 . S
C875 C867 1.503 . S
C875 C874 1.370 . S
C875 C876 1.403 . S
C876 C875 1.403 . S
C876 C877 1.404 . S
C876 C879 1.539 . S
C877 C873 1.408 . S
C877 C876 1.404 . S
C877 H889 0.930 . S
C878 C874 1.524 . S
C878 H890 0.956 . S
C878 H891 0.961 . S
C878 H892 0.961 . S
C879 C876 1.539 . S
C879 H893 0.958 . S
C879 H894 0.961 . S
C879 H895 0.960 . S
H880 C864 0.931 . S
H881 C869 0.929 . S
H882 C870 0.960 . S
H883 C870 0.962 . S
H884 C870 0.960 . S
H885 C871 0.961 . S
H886 C871 0.961 . S
H887 C871 0.961 . S
H888 C872 0.931 . S
H889 C877 0.930 . S
H890 C878 0.956 . S
H891 C878 0.961 . S
H892 C878 0.961 . S
H893 C879 0.958 . S
H894 C879 0.961 . S
H895 C879 0.960 . S
C896 C897 1.391 . S
C896 C898 1.394 . S
C896 H912 0.931 . S
C897 C896 1.391 . S
C897 C901 1.376 . S
C898 C896 1.394 . S
C898 C899 1.369 . S
C898 C902 1.531 . S
C899 C898 1.369 . S
C899 C900 1.410 . S
C899 C907 1.503 . S
C900 C899 1.410 . S
C900 C901 1.392 . S
C900 C903 1.511 . S
C901 C897 1.376 . S
C901 C900 1.392 . S
C901 H913 0.929 . S
C902 C898 1.531 . S
C902 H914 0.960 . S
C902 H915 0.962 . S
C902 H916 0.960 . S
C903 C900 1.511 . S
C903 H917 0.961 . S
C903 H918 0.961 . S
C903 H919 0.961 . S
C904 C905 1.370 . S
C904 C906 1.363 . S
C904 H920 0.931 . S
C905 C904 1.370 . S
C905 C909 1.408 . S
C906 C904 1.363 . S
C906 C907 1.370 . S
C906 C910 1.524 . S
C907 C899 1.503 . S
C907 C906 1.370 . S
C907 C908 1.403 . S
C908 C907 1.403 . S
C908 C909 1.404 . S
C908 C911 1.539 . S
C909 C905 1.408 . S
C909 C908 1.404 . S
C909 H921 0.930 . S
C910 C906 1.524 . S
C910 H922 0.956 . S
C910 H923 0.961 . S
C910 H924 0.961 . S
C911 C908 1.539 . S
C911 H925 0.958 . S
C911 H926 0.961 . S
C911 H927 0.960 . S
H912 C896 0.931 . S
H913 C901 0.929 . S
H914 C902 0.960 . S
H915 C902 0.962 . S
H916 C902 0.960 . S
H917 C903 0.961 . S
H918 C903 0.961 . S
H919 C903 0.961 . S
H920 C904 0.931 . S
H921 C909 0.930 . S
H922 C910 0.956 . S
H923 C910 0.961 . S
H924 C910 0.961 . S
H925 C911 0.958 . S
H926 C911 0.961 . S
H927 C911 0.960 . S
C928 C929 1.391 . S
C928 C930 1.394 . S
C928 H944 0.931 . S
C929 C928 1.391 . S
C929 C933 1.376 . S
C930 C928 1.394 . S
C930 C931 1.369 . S
C930 C934 1.531 . S
C931 C930 1.369 . S
C931 C932 1.410 . S
C931 C939 1.503 . S
C932 C931 1.410 . S
C932 C933 1.392 . S
C932 C935 1.511 . S
C933 C929 1.376 . S
C933 C932 1.392 . S
C933 H945 0.929 . S
C934 C930 1.531 . S
C934 H946 0.960 . S
C934 H947 0.962 . S
C934 H948 0.960 . S
C935 C932 1.511 . S
C935 H949 0.961 . S
C935 H950 0.961 . S
C935 H951 0.961 . S
C936 C937 1.370 . S
C936 C938 1.363 . S
C936 H952 0.931 . S
C937 C936 1.370 . S
C937 C941 1.408 . S
C938 C936 1.363 . S
C938 C939 1.370 . S
C938 C942 1.524 . S
C939 C931 1.503 . S
C939 C938 1.370 . S
C939 C940 1.403 . S
C940 C939 1.403 . S
C940 C941 1.404 . S
C940 C943 1.539 . S
C941 C937 1.408 . S
C941 C940 1.404 . S
C941 H953 0.930 . S
C942 C938 1.524 . S
C942 H954 0.956 . S
C942 H955 0.961 . S
C942 H956 0.961 . S
C943 C940 1.539 . S
C943 H957 0.958 . S
C943 H958 0.961 . S
C943 H959 0.960 . S
H944 C928 0.931 . S
H945 C933 0.929 . S
H946 C934 0.960 . S
H947 C934 0.962 . S
H948 C934 0.960 . S
H949 C935 0.961 . S
H950 C935 0.961 . S
H951 C935 0.961 . S
H952 C936 0.931 . S
H953 C941 0.930 . S
H954 C942 0.956 . S
H955 C942 0.961 . S
H956 C942 0.961 . S
H957 C943 0.958 . S
H958 C943 0.961 . S
H959 C943 0.960 . S
C193 C4 1.519 . S
C201 C147 1.605 . S
C233 C111 1.470 . S
C225 C17 1.433 . S
C265 C134 1.472 . S
C257 C30 1.437 . S
C297 C122 1.606 . S
C289 C43 1.594 . S
C329 C191 1.609 . S
C321 C56 1.505 . S
C361 C155 1.481 . S
C353 C69 1.447 . S
C385 C82 1.413 . S
C393 C178 1.476 . S
C425 C166 1.607 . S
C417 C95 1.554 . S
C449 C9 1.560 . S
C457 C188 1.574 . S
C489 C158 1.449 . S
C481 C21 1.439 . S
C513 C34 1.448 . S
C521 C177 1.463 . S
C545 C48 1.560 . S
C553 C163 1.587 . S
C585 C144 1.572 . S
C577 C61 1.516 . S
C609 C73 1.431 . S
C617 C114 1.448 . S
C649 C133 1.470 . S
C641 C86 1.473 . S
C681 C119 1.589 . S
C673 C100 1.551 . S
C713 C169 1.526 . S
C705 C8 1.515 . S
C745 C185 1.529 . S
C737 C22 1.507 . S
C769 C35 1.495 . S
C777 C156 1.509 . S
C809 C180 1.501 . S
C801 C47 1.476 . S
C841 C125 1.525 . S
C833 C60 1.512 . S
C865 C74 1.504 . S
C873 C141 1.532 . S
C897 C87 1.455 . S
C905 C112 1.505 . S
C929 C99 1.490 . S
C937 C136 1.503 . S
