# Generated by pormake.
# Topology ssa, (4,4)-cn, num edge types: 1
# Building blocks:
#     Node 0, Type 0, BuildingBlock: NAWXER_clean_sbu_0, # of connection points: 4
#     Node 1, Type 0, BuildingBlock: NAWXER_clean_sbu_0, # of connection points: 4
#     Node 2, Type 0, BuildingBlock: NAWXER_clean_sbu_0, # of connection points: 4
#     Node 3, Type 0, BuildingBlock: NAWXER_clean_sbu_0, # of connection points: 4
#     Node 4, Type 0, BuildingBlock: NAWXER_clean_sbu_0, # of connection points: 4
#     Node 5, Type 0, BuildingBlock: NAWXER_clean_sbu_0, # of connection points: 4
#     Node 6, Type 1, BuildingBlock: KUFVIS_clean_linker_0, # of connection points: 4
#     Node 7, Type 1, BuildingBlock: KUFVIS_clean_linker_0, # of connection points: 4
#     Node 8, Type 1, BuildingBlock: KUFVIS_clean_linker_0, # of connection points: 4
#     Node 9, Type 1, BuildingBlock: KUFVIS_clean_linker_0, # of connection points: 4
#     Node 10, Type 1, BuildingBlock: KUFVIS_clean_linker_0, # of connection points: 4
#     Node 11, Type 1, BuildingBlock: KUFVIS_clean_linker_0, # of connection points: 4
#     Edge 12, Type (0, 1), BuildingBlock: XUDNAN_clean_linker_2, # of connection points: 2
#     Edge 13, Type (0, 1), BuildingBlock: XUDNAN_clean_linker_2, # of connection points: 2
#     Edge 14, Type (0, 1), BuildingBlock: XUDNAN_clean_linker_2, # of connection points: 2
#     Edge 15, Type (0, 1), BuildingBlock: XUDNAN_clean_linker_2, # of connection points: 2
#     Edge 16, Type (0, 1), BuildingBlock: XUDNAN_clean_linker_2, # of connection points: 2
#     Edge 17, Type (0, 1), BuildingBlock: XUDNAN_clean_linker_2, # of connection points: 2
#     Edge 18, Type (0, 1), BuildingBlock: XUDNAN_clean_linker_2, # of connection points: 2
#     Edge 19, Type (0, 1), BuildingBlock: XUDNAN_clean_linker_2, # of connection points: 2
#     Edge 20, Type (0, 1), BuildingBlock: XUDNAN_clean_linker_2, # of connection points: 2
#     Edge 21, Type (0, 1), BuildingBlock: XUDNAN_clean_linker_2, # of connection points: 2
#     Edge 22, Type (0, 1), BuildingBlock: XUDNAN_clean_linker_2, # of connection points: 2
#     Edge 23, Type (0, 1), BuildingBlock: XUDNAN_clean_linker_2, # of connection points: 2
#     Edge 24, Type (0, 1), BuildingBlock: XUDNAN_clean_linker_2, # of connection points: 2
#     Edge 25, Type (0, 1), BuildingBlock: XUDNAN_clean_linker_2, # of connection points: 2
#     Edge 26, Type (0, 1), BuildingBlock: XUDNAN_clean_linker_2, # of connection points: 2
#     Edge 27, Type (0, 1), BuildingBlock: XUDNAN_clean_linker_2, # of connection points: 2
#     Edge 28, Type (0, 1), BuildingBlock: XUDNAN_clean_linker_2, # of connection points: 2
#     Edge 29, Type (0, 1), BuildingBlock: XUDNAN_clean_linker_2, # of connection points: 2
#     Edge 30, Type (0, 1), BuildingBlock: XUDNAN_clean_linker_2, # of connection points: 2
#     Edge 31, Type (0, 1), BuildingBlock: XUDNAN_clean_linker_2, # of connection points: 2
#     Edge 32, Type (0, 1), BuildingBlock: XUDNAN_clean_linker_2, # of connection points: 2
#     Edge 33, Type (0, 1), BuildingBlock: XUDNAN_clean_linker_2, # of connection points: 2
#     Edge 34, Type (0, 1), BuildingBlock: XUDNAN_clean_linker_2, # of connection points: 2
#     Edge 35, Type (0, 1), BuildingBlock: XUDNAN_clean_linker_2, # of connection points: 2
# Relax obj value: 0.007
# Max RMSD: 0.057
# Mean RMSD: 0.038
data_MOF--net-ssa--node1-NAWXER_clean_sbu_0--node2-KUFVIS_clean_linker_0--edge1-XUDNAN_clean_linker_2
_symmetry_space_group_name_H-M    P1
_symmetry_Int_Tables_number       1
_symmetry_cell_setting            triclinic
loop_
_symmetry_equiv_pos_as_xyz
'x, y, z'
_cell_length_a     51.822361
_cell_length_b     51.841616
_cell_length_c     28.720552
_cell_angle_alpha  89.573177
_cell_angle_beta   90.314965
_cell_angle_gamma 119.95016
loop_
_atom_site_label
_atom_site_type_symbol
_atom_site_fract_x
_atom_site_fract_y
_atom_site_fract_z
_atom_type_partial_charge
C0 C 0.06194 0.56012 -0.0019 0.0
C1 C 0.98831 0.46226 0.94075 0.0
O2 O 0.04518 0.54296 0.0308 0.0
Zn3 Zn 1.00667 0.49847 0.03656 0.0
O4 O 0.05698 0.55137 0.95615 0.0
Zn5 Zn 0.02463 0.5118 0.96891 0.0
O6 O 0.98867 0.5194 0.98429 0.0
O7 O 0.97344 0.5035 0.05577 0.0
O8 O 1.00798 0.48423 0.91763 0.0
O9 O 0.986 0.46474 0.98463 0.0
O10 O 0.02082 0.47949 0.07905 0.0
O11 O 0.04567 0.49306 0.01252 0.0
C12 C 0.97082 0.5149 0.01802 0.0
C13 C 0.04165 0.48151 0.05341 0.0
C14 C 0.47078 0.03428 0.54651 0.0
C15 C 0.50151 0.96732 0.47965 0.0
O16 O 0.46859 0.01084 0.56473 0.0
Zn17 Zn 0.48702 1.00132 0.5143 0.0
O18 O 0.48243 0.04275 0.50608 0.0
Zn19 Zn 0.50045 0.02739 0.45282 0.0
O20 O 0.47217 0.01939 0.40278 0.0
O21 O 0.45319 0.98815 0.46193 0.0
O22 O 0.5065 0.9889 0.45197 0.0
O23 O 0.49072 0.96617 0.51972 0.0
O24 O 0.53243 0.03817 0.51486 0.0
O25 O 0.54016 0.06103 0.44693 0.0
C26 C 0.45016 0.99697 0.42154 0.0
C27 C 0.54963 0.05931 0.48708 0.0
C28 C 0.50527 0.44886 0.02705 0.0
C29 C 0.53533 0.55132 0.06738 0.0
O30 O 0.50473 0.46412 0.9922 0.0
Zn31 Zn 0.51189 0.50773 0.97833 0.0
O32 O 0.51183 0.46045 0.06723 0.0
Zn33 Zn 0.52024 0.5001 0.04825 0.0
O34 O 0.47762 0.49544 0.03564 0.0
O35 O 0.47272 0.50149 0.96056 0.0
O36 O 0.53439 0.5311 0.09392 0.0
O37 O 0.52833 0.5458 0.0242 0.0
O38 O 0.54244 0.52071 0.93196 0.0
O39 O 0.55769 0.51543 0.00169 0.0
C40 C 0.46224 0.4967 0.00159 0.0
C41 C 0.56285 0.52203 0.95831 0.0
C42 C 0.05909 0.57058 0.44846 0.0
C43 C 0.98321 0.46755 0.48384 0.0
O44 O 0.06159 0.56214 0.48949 0.0
Zn45 Zn 0.03903 0.52312 0.53294 0.0
O46 O 0.03772 0.55274 0.42239 0.0
Zn47 Zn 0.02095 0.51892 0.46485 0.0
O48 O 1.00125 0.53295 0.51744 0.0
O49 O 0.02581 0.53804 0.58315 0.0
O50 O 0.98791 0.48085 0.44484 0.0
O51 O 1.00021 0.48083 0.51862 0.0
O52 O 0.07036 0.51351 0.54456 0.0
O53 O 0.05757 0.51093 0.47052 0.0
C54 C 1.00546 0.53967 0.56073 0.0
C55 C 0.07447 0.50972 0.50217 0.0
C56 C 0.56823 0.96723 -0.00427 0.0
C57 C 0.5308 0.03609 0.96438 0.0
O58 O 0.5733 0.98627 0.02763 0.0
Zn59 Zn 0.5656 0.02135 0.04394 0.0
O60 O 0.55507 0.96781 0.95849 0.0
Zn61 Zn 0.54906 1.00105 0.97633 0.0
O62 O 0.59217 0.03924 0.97619 0.0
O63 O 0.60603 0.05599 0.04779 0.0
O64 O 0.52904 0.01619 0.9366 0.0
O65 O 0.54307 0.03927 0.00439 0.0
O66 O 0.5397 1.00352 0.09807 0.0
O67 O 0.51842 0.98117 0.03205 0.0
C68 C 0.61135 0.0583 0.00426 0.0
C69 C 0.5173 0.9833 0.07626 0.0
C70 C 0.5827 0.51528 0.49641 0.0
C71 C 0.48115 0.48744 0.4517 0.0
O72 O 0.56758 0.51733 0.52979 0.0
Zn73 Zn 0.52489 0.5129 0.5408 0.0
O74 O 0.57168 0.50913 0.45569 0.0
Zn75 Zn 0.53239 0.50298 0.47239 0.0
O76 O 0.53877 0.54702 0.48121 0.0
O77 O 0.53354 0.55289 0.556 0.0
O78 O 0.50091 0.4865 0.42692 0.0
O79 O 0.48706 0.49682 0.49381 0.0
O80 O 0.51076 0.48298 0.58936 0.0
O81 O 0.5164 0.4665 0.52156 0.0
C82 C 0.53883 0.56322 0.51478 0.0
C83 C 0.50947 0.46204 0.56483 0.0
H84 H 0.34767 0.48105 0.23421 0.0
H85 H 0.27454 0.46427 0.32234 0.0
H86 H 0.27551 0.48941 0.17768 0.0
H87 H 0.22572 0.4608 0.18683 0.0
H88 H 0.16762 0.47672 0.27145 0.0
H89 H 0.25007 0.49066 0.32936 0.0
C90 C 0.32649 0.48022 0.23881 0.0
C91 C 0.3129 0.48579 0.2009 0.0
C92 C 0.31293 0.47283 0.28242 0.0
C93 C 0.28512 0.47078 0.28855 0.0
C94 C 0.271 0.47669 0.25093 0.0
C95 C 0.28528 0.48414 0.20702 0.0
C96 C 0.24181 0.47561 0.25739 0.0
C97 C 0.22131 0.4676 0.22 0.0
C98 C 0.19492 0.4685 0.22515 0.0
C99 C 0.18834 0.47647 0.26777 0.0
C100 C 0.20794 0.4842 0.30552 0.0
C101 C 0.23462 0.48369 0.30039 0.0
H102 H 0.69207 0.16145 0.72841 0.0
H103 H 0.7754 0.22765 0.78343 0.0
H104 H 0.75438 0.22951 0.6375 0.0
H105 H 0.7994 0.26272 0.62693 0.0
H106 H 0.87444 0.33625 0.68929 0.0
H107 H 0.80502 0.27384 0.77743 0.0
C108 C 0.71358 0.18113 0.72285 0.0
C109 C 0.72166 0.19327 0.67795 0.0
C110 C 0.73265 0.19384 0.76096 0.0
C111 C 0.76068 0.2192 0.7538 0.0
C112 C 0.76912 0.23351 0.7096 0.0
C113 C 0.74906 0.21985 0.67189 0.0
C114 C 0.79831 0.26259 0.70341 0.0
C115 C 0.81037 0.27416 0.65852 0.0
C116 C 0.83696 0.30153 0.65386 0.0
C117 C 0.85296 0.31622 0.69354 0.0
C118 C 0.84151 0.30643 0.73803 0.0
C119 C 0.81408 0.27995 0.74279 0.0
H120 H 0.55349 0.68802 0.30348 0.0
H121 H 0.54101 0.7455 0.21028 0.0
H122 H 0.5508 0.76255 0.35913 0.0
H123 H 0.53424 0.79266 0.34363 0.0
H124 H 0.54504 0.86072 0.24665 0.0
H125 H 0.56318 0.79326 0.20217 0.0
C126 C 0.55098 0.70734 0.29745 0.0
C127 C 0.5501 0.72316 0.33583 0.0
C128 C 0.54722 0.71487 0.25222 0.0
C129 C 0.5453 0.74071 0.24522 0.0
C130 C 0.54785 0.75945 0.283 0.0
C131 C 0.54981 0.74987 0.32882 0.0
C132 C 0.5478 0.78823 0.27404 0.0
C133 C 0.54017 0.80234 0.30925 0.0
C134 C 0.54016 0.8292 0.3004 0.0
C135 C 0.54669 0.84119 0.25518 0.0
C136 C 0.55466 0.82806 0.21998 0.0
C137 C 0.55565 0.80206 0.22961 0.0
H138 H 0.88255 0.5496 0.78587 0.0
H139 H 0.79514 0.52503 0.83376 0.0
H140 H 0.82085 0.55242 0.6901 0.0
H141 H 0.77261 0.52467 0.67622 0.0
H142 H 0.69805 0.53124 0.72278 0.0
H143 H 0.76448 0.54166 0.82166 0.0
C144 C 0.86065 0.54682 0.7793 0.0
C145 C 0.85361 0.55154 0.73436 0.0
C146 C 0.8401 0.53828 0.81561 0.0
C147 C 0.81119 0.53288 0.80576 0.0
C148 C 0.80344 0.53795 0.76036 0.0
C149 C 0.82526 0.54741 0.72486 0.0
C150 C 0.77329 0.5345 0.75026 0.0
C151 C 0.76128 0.52859 0.70444 0.0
C152 C 0.7339 0.52694 0.69488 0.0
C153 C 0.71844 0.5311 0.73095 0.0
C154 C 0.7284 0.53477 0.77701 0.0
C155 C 0.75628 0.53738 0.7863 0.0
H156 H 0.17655 0.69115 0.2095 0.0
H157 H 0.24855 0.76411 0.13769 0.0
H158 H 0.23632 0.76942 0.28566 0.0
H159 H 0.25445 0.81866 0.26395 0.0
H160 H 0.3424 0.8807 0.21676 0.0
H161 H 0.2994 0.79131 0.16562 0.0
C162 C 0.19581 0.71337 0.21024 0.0
C163 C 0.20392 0.72911 0.25209 0.0
C164 C 0.21175 0.72552 0.16911 0.0
C165 C 0.23665 0.75439 0.16979 0.0
C166 C 0.24604 0.77061 0.2119 0.0
C167 C 0.22947 0.75754 0.253 0.0
C168 C 0.27279 0.80122 0.21295 0.0
C169 C 0.27327 0.82346 0.242 0.0
C170 C 0.29828 0.85214 0.24285 0.0
C171 C 0.32266 0.85876 0.21477 0.0
C172 C 0.32338 0.83708 0.18744 0.0
C173 C 0.29845 0.80825 0.1862 0.0
H174 H 0.48823 0.3271 0.80914 0.0
H175 H 0.48118 0.24808 0.86843 0.0
H176 H 0.48707 0.26106 0.71874 0.0
H177 H 0.45519 0.21079 0.72009 0.0
H178 H 0.46871 0.14059 0.76985 0.0
H179 H 0.50318 0.22087 0.84926 0.0
C180 C 0.48764 0.3061 0.80413 0.0
C181 C 0.48831 0.29643 0.75909 0.0
C182 C 0.48659 0.28957 0.8434 0.0
C183 C 0.48318 0.26118 0.83772 0.0
C184 C 0.48264 0.25007 0.79254 0.0
C185 C 0.48581 0.26832 0.75346 0.0
C186 C 0.47919 0.21979 0.78609 0.0
C187 C 0.4644 0.20256 0.74631 0.0
C188 C 0.46095 0.17417 0.74071 0.0
C189 C 0.472 0.16281 0.77445 0.0
C190 C 0.48745 0.17945 0.81334 0.0
C191 C 0.49083 0.20789 0.81938 0.0
H192 H 0.10038 0.51726 0.07134 0.0
H193 H 0.02907 0.42559 0.07814 0.0
H194 H 0.06405 0.41075 0.1116 0.0
H195 H 0.16287 0.50485 0.04787 0.0
H196 H 0.18767 0.53415 0.0865 0.0
H197 H 0.15817 0.53663 0.05707 0.0
H198 H 0.13742 0.54225 0.13692 0.0
H199 H 0.16795 0.54116 0.16505 0.0
H200 H 0.1302 0.51528 0.18214 0.0
H201 H 0.1058 0.40681 0.15 0.0
H202 H 0.1489 0.41486 0.19855 0.0
H203 H 0.19212 0.50939 0.16977 0.0
C204 C 0.09244 0.494 0.07901 0.0
C205 C 0.0624 0.47235 0.07156 0.0
C206 C 0.05222 0.44228 0.08332 0.0
C207 C 0.07194 0.43371 0.102 0.0
C208 C 0.10157 0.45563 0.10921 0.0
C209 C 0.11163 0.48524 0.09872 0.0
C210 C 0.14331 0.50498 0.11531 0.0
C211 C 0.16424 0.5211 0.07422 0.0
C212 C 0.14481 0.52722 0.15201 0.0
C213 C 0.14959 0.4819 0.1368 0.0
C214 C 0.12539 0.4535 0.13237 0.0
C215 C 0.12508 0.42885 0.1529 0.0
C216 C 0.14967 0.43352 0.18003 0.0
C217 C 0.174 0.46255 0.18636 0.0
C218 C 0.17422 0.48687 0.16369 0.0
H219 H 0.58333 0.05543 0.55766 0.0
H220 H 0.5825 0.11651 0.45445 0.0
H221 H 0.62898 0.15731 0.48797 0.0
H222 H 0.60795 0.10393 0.65164 0.0
H223 H 0.63162 0.09106 0.67621 0.0
H224 H 0.5998 0.06629 0.64174 0.0
H225 H 0.63372 0.05686 0.58678 0.0
H226 H 0.66568 0.08146 0.62137 0.0
H227 H 0.66531 0.08804 0.55972 0.0
H228 H 0.67216 0.19273 0.53975 0.0
H229 H 0.70985 0.21852 0.60113 0.0
H230 H 0.68524 0.133 0.66475 0.0
C231 C 0.5932 0.07727 0.5416 0.0
C232 C 0.57929 0.0828 0.50345 0.0
C233 C 0.59289 0.11171 0.48347 0.0
C234 C 0.61926 0.13504 0.50236 0.0
C235 C 0.6321 0.12898 0.54062 0.0
C236 C 0.61978 0.10064 0.55942 0.0
C237 C 0.63745 0.10003 0.60113 0.0
C238 C 0.61805 0.08973 0.64527 0.0
C239 C 0.65137 0.08044 0.59167 0.0
C240 C 0.66104 0.13261 0.60386 0.0
C241 C 0.65764 0.14903 0.5688 0.0
C242 C 0.67544 0.17997 0.56675 0.0
C243 C 0.69699 0.19445 0.60172 0.0
C244 C 0.70077 0.178 0.63819 0.0
C245 C 0.68287 0.14655 0.63809 0.0
H246 H 0.51968 0.56073 0.15315 0.0
H247 H 0.56208 0.60584 0.02445 0.0
H248 H 0.56787 0.65299 0.05544 0.0
H249 H 0.47747 0.59721 0.16839 0.0
H250 H 0.48117 0.59953 0.23087 0.0
H251 H 0.4819 0.56965 0.20066 0.0
H252 H 0.53286 0.58346 0.23644 0.0
H253 H 0.53215 0.6128 0.26848 0.0
H254 H 0.56334 0.62115 0.23138 0.0
H255 H 0.57081 0.69592 0.1033 0.0
H256 H 0.56971 0.72982 0.16268 0.0
H257 H 0.51923 0.65397 0.2542 0.0
C258 C 0.53061 0.58065 0.1318 0.0
C259 C 0.54101 0.57993 0.08684 0.0
C260 C 0.55432 0.60616 0.05927 0.0
C261 C 0.55759 0.63294 0.0765 0.0
C262 C 0.54678 0.63285 0.1209 0.0
C263 C 0.53335 0.60727 0.14796 0.0
C264 C 0.52284 0.61269 0.1939 0.0
C265 C 0.48881 0.59364 0.19865 0.0
C266 C 0.53876 0.60721 0.23495 0.0
C267 C 0.53267 0.64533 0.18869 0.0
C268 C 0.54673 0.6568 0.14672 0.0
C269 C 0.55949 0.68707 0.13606 0.0
C270 C 0.55855 0.70614 0.16983 0.0
C271 C 0.54469 0.69475 0.21344 0.0
C272 C 0.53063 0.66371 0.22176 0.0
H273 H 0.94495 0.51112 0.56072 0.0
H274 H 0.02336 0.5889 0.61394 0.0
H275 H 0.99126 0.60513 0.65257 0.0
H276 H 0.89643 0.54368 0.54495 0.0
H277 H 0.86387 0.51085 0.56635 0.0
H278 H 0.89275 0.50752 0.53708 0.0
H279 H 0.8981 0.4795 0.60825 0.0
H280 H 0.86881 0.48213 0.6371 0.0
H281 H 0.90453 0.49615 0.66508 0.0
H282 H 0.9513 0.61121 0.68898 0.0
H283 H 0.90664 0.60264 0.73223 0.0
H284 H 0.85376 0.51932 0.65976 0.0
C285 C 0.95522 0.53183 0.57989 0.0
C286 C 0.98646 0.54913 0.58405 0.0
C287 C 0.99939 0.57556 0.61042 0.0
C288 C 0.98136 0.58504 0.63196 0.0
C289 C 0.95053 0.56754 0.62723 0.0
C290 C 0.93751 0.54117 0.60263 0.0
C291 C 0.90395 0.52445 0.60828 0.0
C292 C 0.88834 0.52146 0.56136 0.0
C293 C 0.89323 0.49376 0.63105 0.0
C294 C 0.90014 0.5453 0.64056 0.0
C295 C 0.92726 0.57039 0.65 0.0
C296 C 0.9299 0.59191 0.6814 0.0
C297 C 0.90444 0.58701 0.70552 0.0
C298 C 0.87684 0.56068 0.69843 0.0
C299 C 0.87443 0.54008 0.66445 0.0
H300 H 0.45962 0.95956 0.04907 0.0
H301 H 0.51541 0.95379 0.15683 0.0
H302 H 0.47149 0.90883 0.18906 0.0
H303 H 0.39635 0.93902 0.1237 0.0
H304 H 0.36983 0.91951 0.07797 0.0
H305 H 0.40608 0.95009 0.06378 0.0
H306 H 0.41387 0.91539 0.00805 0.0
H307 H 0.37803 0.88443 0.02365 0.0
H308 H 0.41109 0.88152 0.03051 0.0
H309 H 0.42125 0.86397 0.20833 0.0
H310 H 0.36773 0.83044 0.22446 0.0
H311 H 0.34477 0.86709 0.10607 0.0
C312 C 0.46248 0.94897 0.07977 0.0
C313 C 0.49077 0.96008 0.10069 0.0
C314 C 0.49377 0.9458 0.14081 0.0
C315 C 0.46907 0.92002 0.15881 0.0
C316 C 0.44157 0.9091 0.13646 0.0
C317 C 0.43804 0.92366 0.0986 0.0
C318 C 0.4058 0.90895 0.08317 0.0
C319 C 0.39381 0.93068 0.08744 0.0
C320 C 0.40199 0.89686 0.03338 0.0
C321 C 0.39156 0.88384 0.1184 0.0
C322 C 0.41266 0.88383 0.14814 0.0
C323 C 0.40461 0.86361 0.18498 0.0
C324 C 0.37419 0.84425 0.19341 0.0
C325 C 0.35225 0.84557 0.16556 0.0
C326 C 0.36112 0.86478 0.12656 0.0
H327 H 0.52791 0.45309 0.64944 0.0
H328 H 0.47679 0.40673 0.52723 0.0
H329 H 0.46778 0.35878 0.56102 0.0
H330 H 0.56416 0.40992 0.66216 0.0
H331 H 0.56382 0.40964 0.72495 0.0
H332 H 0.56511 0.4404 0.69354 0.0
H333 H 0.51803 0.4333 0.73474 0.0
H334 H 0.51685 0.40326 0.76823 0.0
H335 H 0.4848 0.3972 0.73473 0.0
H336 H 0.46224 0.31545 0.61117 0.0
H337 H 0.46172 0.28117 0.67217 0.0
H338 H 0.52226 0.35737 0.75555 0.0
C339 C 0.51447 0.43276 0.63018 0.0
C340 C 0.50248 0.43335 0.58626 0.0
C341 C 0.48583 0.40653 0.56125 0.0
C342 C 0.48071 0.37928 0.58007 0.0
C343 C 0.49307 0.37943 0.62337 0.0
C344 C 0.50986 0.40555 0.64787 0.0
C345 C 0.52144 0.39988 0.69299 0.0
C346 C 0.55567 0.41589 0.69336 0.0
C347 C 0.50955 0.40893 0.73515 0.0
C348 C 0.50802 0.36646 0.69053 0.0
C349 C 0.49157 0.35493 0.65039 0.0
C350 C 0.47542 0.32428 0.64246 0.0
C351 C 0.47544 0.30495 0.67715 0.0
C352 C 0.49169 0.3164 0.71902 0.0
C353 C 0.50905 0.34766 0.72452 0.0
H354 H 0.53862 0.96947 0.41008 0.0
H355 H 0.47508 0.90996 0.51233 0.0
H356 H 0.47975 0.86818 0.48083 0.0
H357 H 0.51495 0.91966 0.31631 0.0
H358 H 0.55177 0.93188 0.29411 0.0
H359 H 0.54453 0.95726 0.32623 0.0
H360 H 0.58686 0.96676 0.38422 0.0
H361 H 0.59436 0.94153 0.35203 0.0
H362 H 0.58642 0.93565 0.41345 0.0
H363 H 0.48767 0.83178 0.43206 0.0
H364 H 0.50085 0.80509 0.3746 0.0
H365 H 0.5633 0.88974 0.31038 0.0
C366 C 0.52595 0.94772 0.4262 0.0
C367 C 0.50644 0.94297 0.46362 0.0
C368 C 0.4903 0.91418 0.48382 0.0
C369 C 0.49274 0.89028 0.46606 0.0
C370 C 0.51186 0.89563 0.42867 0.0
C371 C 0.52857 0.92379 0.40953 0.0
C372 C 0.54736 0.92368 0.36943 0.0
C373 C 0.53915 0.9337 0.32384 0.0
C374 C 0.58073 0.94305 0.38046 0.0
C375 C 0.53803 0.89096 0.36815 0.0
C376 C 0.51746 0.87505 0.40237 0.0
C377 C 0.50423 0.84414 0.4057 0.0
C378 C 0.51206 0.82914 0.37297 0.0
C379 C 0.53318 0.84504 0.33748 0.0
C380 C 0.54667 0.87652 0.33618 0.0
H381 H 0.57192 0.4999 0.8787 0.0
H382 H 0.61819 0.55759 -0.0049 0.0
H383 H 0.66647 0.5666 0.96331 0.0
H384 H 0.61673 0.46528 0.87643 0.0
H385 H 0.61623 0.46204 0.81391 0.0
H386 H 0.58544 0.46161 0.84322 0.0
H387 H 0.59084 0.50558 0.79352 0.0
H388 H 0.62105 0.50588 0.76244 0.0
H389 H 0.62645 0.53932 0.79016 0.0
H390 H 0.70999 0.57104 0.9152 0.0
H391 H 0.74411 0.56832 0.85796 0.0
H392 H 0.66759 0.50187 0.78079 0.0
C393 C 0.5923 0.51475 0.89706 0.0
C394 C 0.59166 0.52862 0.93866 0.0
C395 C 0.6185 0.54711 0.96278 0.0
C396 C 0.64591 0.55227 0.94506 0.0
C397 C 0.64583 0.53809 0.90393 0.0
C398 C 0.61963 0.51939 0.88065 0.0
C399 C 0.62526 0.50571 0.83844 0.0
C400 C 0.61004 0.47164 0.84336 0.0
C401 C 0.61532 0.51468 0.7935 0.0
C402 C 0.65877 0.52007 0.84105 0.0
C403 C 0.6704 0.53891 0.87864 0.0
C404 C 0.70109 0.556 0.88599 0.0
C405 C 0.72032 0.55416 0.85346 0.0
C406 C 0.70872 0.5351 0.81444 0.0
C407 C 0.67745 0.51724 0.80946 0.0
H408 H 0.05909 0.59945 0.36754 0.0
H409 H 0.11272 0.60782 0.48923 0.0
H410 H 0.15414 0.65413 0.45706 0.0
H411 H 0.11538 0.62214 0.28613 0.0
H412 H 0.10329 0.64255 0.24968 0.0
H413 H 0.07668 0.61209 0.28482 0.0
H414 H 0.0606 0.64695 0.32334 0.0
H415 H 0.08726 0.6776 0.28823 0.0
H416 H 0.08825 0.6808 0.35075 0.0
H417 H 0.19226 0.69543 0.40635 0.0
H418 H 0.22281 0.72814 0.34177 0.0
H419 H 0.14315 0.69592 0.25696 0.0
C420 C 0.0793 0.61136 0.38787 0.0
C421 C 0.08254 0.59999 0.43097 0.0
C422 C 0.10954 0.61614 0.45627 0.0
C423 C 0.13326 0.64255 0.43833 0.0
C424 C 0.12954 0.6529 0.39538 0.0
C425 C 0.10309 0.638 0.37076 0.0
C426 C 0.10545 0.65276 0.32411 0.0
C427 C 0.09988 0.6311 0.28384 0.0
C428 C 0.08412 0.66528 0.32148 0.0
C429 C 0.13762 0.67754 0.32565 0.0
C430 C 0.1512 0.67743 0.36706 0.0
C431 C 0.18171 0.69623 0.37417 0.0
C432 C 0.19891 0.71491 0.33741 0.0
C433 C 0.18548 0.71459 0.29418 0.0
C434 C 0.15422 0.69658 0.28939 0.0
H435 H 0.53343 0.05908 0.87717 0.0
H436 H 0.50942 0.06329 0.02017 0.0
H437 H 0.50008 0.10425 -0.00091 0.0
H438 H 0.57247 0.13782 0.85691 0.0
H439 H 0.56005 0.13548 0.79757 0.0
H440 H 0.56372 0.10551 0.82244 0.0
H441 H 0.50887 0.06753 0.80333 0.0
H442 H 0.50508 0.09695 0.77653 0.0
H443 H 0.47989 0.07465 0.82218 0.0
H444 H 0.49186 0.14399 0.96141 0.0
H445 H 0.48287 0.1769 0.90889 0.0
H446 H 0.51691 0.14967 0.79295 0.0
C447 C 0.52567 0.06828 0.90378 0.0
C448 C 0.52167 0.05778 0.95011 0.0
C449 C 0.51234 0.07091 0.98434 0.0
C450 C 0.50717 0.09428 0.97279 0.0
C451 C 0.51196 0.10464 0.92701 0.0
C452 C 0.52097 0.09202 0.89304 0.0
C453 C 0.52467 0.10734 0.84652 0.0
C454 C 0.55717 0.12244 0.82993 0.0
C455 C 0.50335 0.08531 0.81 0.0
C456 C 0.51583 0.13012 0.85946 0.0
C457 C 0.5086 0.12834 0.906 0.0
C458 C 0.49779 0.14584 0.92498 0.0
C459 C 0.49303 0.1647 0.89507 0.0
C460 C 0.49913 0.16581 0.84692 0.0
C461 C 0.51193 0.14924 0.82963 0.0
H462 H 0.45552 0.52174 0.4389 0.0
H463 H 0.441 0.43272 0.41909 0.0
H464 H 0.39133 0.41716 0.38491 0.0
H465 H 0.37812 0.50245 0.4625 0.0
H466 H 0.38111 0.53326 0.42868 0.0
H467 H 0.41352 0.53631 0.45745 0.0
H468 H 0.44181 0.54956 0.37894 0.0
H469 H 0.40973 0.54708 0.35028 0.0
H470 H 0.42545 0.52506 0.32997 0.0
H471 H 0.34503 0.41221 0.34865 0.0
H472 H 0.30877 0.41986 0.30283 0.0
H473 H 0.35453 0.51279 0.34175 0.0
C474 C 0.44152 0.49886 0.42807 0.0
C475 C 0.45155 0.47816 0.4321 0.0
C476 C 0.43335 0.44868 0.41643 0.0
C477 C 0.40512 0.43967 0.39737 0.0
C478 C 0.39574 0.46059 0.39371 0.0
C479 C 0.41361 0.48972 0.4079 0.0
C480 C 0.39994 0.5087 0.39484 0.0
C481 C 0.39274 0.52089 0.43848 0.0
C482 C 0.42044 0.53408 0.36151 0.0
C483 C 0.37175 0.48579 0.37056 0.0
C484 C 0.36944 0.45802 0.37123 0.0
C485 C 0.34633 0.4337 0.34853 0.0
C486 C 0.32569 0.43812 0.32298 0.0
C487 C 0.32847 0.46662 0.32019 0.0
C488 C 0.35138 0.49056 0.34503 0.0
H489 H 0.96336 0.45708 0.85505 0.0
H490 H 0.96301 0.4056 0.97491 0.0
H491 H 0.92332 0.35961 0.93824 0.0
H492 H 0.88392 0.41737 0.83957 0.0
H493 H 0.88582 0.41994 0.77693 0.0
H494 H 0.91519 0.44837 0.81157 0.0
H495 H 0.95416 0.43983 0.76857 0.0
H496 H 0.92491 0.41165 0.7335 0.0
H497 H 0.94922 0.40287 0.76657 0.0
H498 H 0.88455 0.31891 0.88623 0.0
H499 H 0.85017 0.28754 0.82388 0.0
H500 H 0.87221 0.36729 0.74382 0.0
C501 C 0.95523 0.43603 0.87316 0.0
C502 C 0.96648 0.43465 0.91732 0.0
C503 C 0.95476 0.40693 0.94076 0.0
C504 C 0.9322 0.38078 0.9203 0.0
C505 C 0.92121 0.38292 0.87693 0.0
C506 C 0.93222 0.40991 0.85384 0.0
C507 C 0.9159 0.40649 0.80851 0.0
C508 C 0.89921 0.42408 0.80922 0.0
C509 C 0.93732 0.41575 0.76684 0.0
C510 C 0.89446 0.3733 0.80917 0.0
C511 C 0.89784 0.35997 0.8487 0.0
C512 C 0.88148 0.32916 0.85534 0.0
C513 C 0.86181 0.31153 0.81995 0.0
C514 C 0.8586 0.32483 0.7787 0.0
C515 C 0.87446 0.35624 0.77443 0.0
H516 H 0.97164 0.56148 0.97334 0.0
H517 H 0.91251 0.47718 0.03994 0.0
H518 H 0.86901 0.47833 0.00611 0.0
H519 H 0.91898 0.59342 0.98209 0.0
H520 H 0.93161 0.61151 0.92633 0.0
H521 H 0.95694 0.607 0.96427 0.0
H522 H 0.96813 0.58038 0.89795 0.0
H523 H 0.94275 0.58448 0.86014 0.0
H524 H 0.93775 0.548 0.87122 0.0
H525 H 0.8339 0.48287 0.94871 0.0
H526 H 0.81114 0.49251 0.8794 0.0
H527 H 0.8924 0.57651 0.85757 0.0
C528 C 0.94943 0.54402 0.98253 0.0
C529 C 0.94528 0.51946 0.00956 0.0
C530 C 0.91604 0.49652 0.02007 0.0
C531 C 0.89123 0.49696 0.00083 0.0
C532 C 0.89611 0.52095 0.97239 0.0
C533 C 0.92455 0.54453 0.96453 0.0
C534 C 0.92437 0.56618 0.92916 0.0
C535 C 0.93351 0.59631 0.95183 0.0
C536 C 0.94441 0.56994 0.88717 0.0
C537 C 0.89178 0.55012 0.9158 0.0
C538 C 0.87561 0.5242 0.94126 0.0
C539 C 0.84609 0.50363 0.92971 0.0
C540 C 0.83324 0.50928 0.89036 0.0
C541 C 0.85 0.53524 0.86311 0.0
C542 C 0.879 0.55647 0.87778 0.0
H543 H 0.40745 0.93916 0.435 0.0
H544 H 0.4279 0.01747 0.35267 0.0
H545 H 0.37997 0.98888 0.31086 0.0
H546 H 0.38177 0.89086 0.34393 0.0
H547 H 0.35362 0.85977 0.37658 0.0
H548 H 0.38579 0.88823 0.40592 0.0
H549 H 0.35103 0.89603 0.46173 0.0
H550 H 0.31872 0.86801 0.43127 0.0
H551 H 0.32411 0.90492 0.43802 0.0
H552 H 0.33432 0.95058 0.27066 0.0
H553 H 0.30116 0.90516 0.22659 0.0
H554 H 0.31027 0.85129 0.33376 0.0
C555 C 0.40143 0.95051 0.40907 0.0
C556 C 0.42115 0.9806 0.3974 0.0
C557 C 0.41301 0.99445 0.36223 0.0
C558 C 0.38567 0.97847 0.33876 0.0
C559 C 0.36676 0.94867 0.35086 0.0
C560 C 0.37451 0.93476 0.38488 0.0
C561 C 0.35306 0.90152 0.38596 0.0
C562 C 0.36954 0.8841 0.37755 0.0
C563 C 0.3357 0.89207 0.43199 0.0
C564 C 0.33285 0.89858 0.34557 0.0
C565 C 0.34044 0.92618 0.32688 0.0
C566 C 0.32764 0.92893 0.28567 0.0
C567 C 0.30845 0.90299 0.2611 0.0
C568 C 0.30268 0.87482 0.27753 0.0
C569 C 0.31335 0.87249 0.3217 0.0
H570 H 0.53993 0.43841 0.97074 0.0
H571 H 0.46336 0.39402 0.06129 0.0
H572 H 0.45486 0.34488 0.03413 0.0
H573 H 0.50974 0.39304 0.8769 0.0
H574 H 0.54388 0.39474 0.85928 0.0
H575 H 0.54515 0.42465 0.89216 0.0
H576 H 0.57856 0.41798 0.95348 0.0
H577 H 0.57618 0.38721 0.92111 0.0
H578 H 0.56522 0.3823 0.98145 0.0
H579 H 0.44953 0.30164 0.98413 0.0
H580 H 0.44892 0.26987 0.91926 0.0
H581 H 0.53193 0.34295 0.86825 0.0
C582 C 0.52195 0.41825 0.98589 0.0
C583 C 0.50239 0.41967 0.01816 0.0
C584 C 0.47877 0.39312 0.03692 0.0
C585 C 0.47385 0.36524 0.02168 0.0
C586 C 0.49324 0.36454 0.98866 0.0
C587 C 0.51717 0.39052 0.97174 0.0
C588 C 0.53324 0.38443 0.9335 0.0
C589 C 0.53296 0.40011 0.88778 0.0
C590 C 0.56519 0.39351 0.9483 0.0
C591 C 0.514 0.35103 0.92993 0.0
C592 C 0.49103 0.33971 0.96198 0.0
C593 C 0.46796 0.31007 0.95997 0.0
C594 C 0.46782 0.29208 0.92326 0.0
C595 C 0.4906 0.30394 0.88935 0.0
C596 C 0.51462 0.33321 0.89444 0.0
H597 H 0.10844 0.53607 0.42714 0.0
H598 H 0.09901 0.47871 0.54397 0.0
H599 H 0.14021 0.47244 0.51256 0.0
H600 H 0.11911 0.49689 0.34246 0.0
H601 H 0.14596 0.52883 0.3098 0.0
H602 H 0.11917 0.53166 0.3455 0.0
H603 H 0.16197 0.57609 0.38946 0.0
H604 H 0.18899 0.57322 0.35392 0.0
H605 H 0.19106 0.57174 0.41647 0.0
H606 H 0.17664 0.46621 0.46006 0.0
H607 H 0.20375 0.46085 0.39322 0.0
H608 H 0.19124 0.52557 0.31528 0.0
C609 C 0.11538 0.52254 0.44653 0.0
C610 C 0.10055 0.5076 0.48759 0.0
C611 C 0.11027 0.49033 0.51238 0.0
C612 C 0.13365 0.48677 0.49486 0.0
C613 C 0.14747 0.5014 0.45343 0.0
C614 C 0.13886 0.51934 0.43014 0.0
C615 C 0.15537 0.53103 0.3848 0.0
C616 C 0.13361 0.52151 0.34323 0.0
C617 C 0.17555 0.56504 0.38628 0.0
C618 C 0.17348 0.51556 0.38459 0.0
C619 C 0.1691 0.49884 0.42463 0.0
C620 C 0.18085 0.47984 0.42921 0.0
C621 C 0.19636 0.47702 0.39126 0.0
C622 C 0.19967 0.49298 0.34945 0.0
C623 C 0.1893 0.51344 0.34718 0.0
H624 H 0.60723 0.09426 0.94139 0.0
H625 H 0.67171 0.08076 0.01795 0.0
H626 H 0.71233 0.11957 0.96909 0.0
H627 H 0.63664 0.10003 0.83304 0.0
H628 H 0.62795 0.12761 0.81173 0.0
H629 H 0.60605 0.10253 0.85758 0.0
H630 H 0.61735 0.14795 0.90971 0.0
H631 H 0.63927 0.17275 0.86335 0.0
H632 H 0.65549 0.17611 0.92025 0.0
H633 H 0.74426 0.15446 0.90241 0.0
H634 H 0.76402 0.1825 0.82856 0.0
H635 H 0.67779 0.17372 0.79955 0.0
C636 C 0.63007 0.10023 0.94884 0.0
C637 C 0.6366 0.08498 0.98354 0.0
C638 C 0.6665 0.09273 0.99198 0.0
C639 C 0.68958 0.11461 0.96425 0.0
C640 C 0.68221 0.12863 0.929 0.0
C641 C 0.6531 0.12197 0.92198 0.0
C642 C 0.65016 0.13798 0.87988 0.0
C643 C 0.62897 0.11572 0.84342 0.0
C644 C 0.63998 0.16002 0.89416 0.0
C645 C 0.68198 0.154 0.86299 0.0
C646 C 0.70033 0.14865 0.89171 0.0
C647 C 0.73016 0.15925 0.88033 0.0
C648 C 0.74125 0.17525 0.83836 0.0
C649 C 0.72247 0.18029 0.80812 0.0
C650 C 0.69273 0.17012 0.82162 0.0
H651 H 0.50394 0.57324 0.45651 0.0
H652 H 0.58011 0.61826 0.54807 0.0
H653 H 0.58687 0.66718 0.52216 0.0
H654 H 0.5317 0.62167 0.36353 0.0
H655 H 0.49664 0.61879 0.34793 0.0
H656 H 0.49719 0.58862 0.37807 0.0
H657 H 0.46358 0.59145 0.44268 0.0
H658 H 0.46367 0.6221 0.41248 0.0
H659 H 0.47559 0.62614 0.47239 0.0
H660 H 0.59027 0.7107 0.47373 0.0
H661 H 0.58854 0.74314 0.41105 0.0
H662 H 0.50597 0.66931 0.3608 0.0
C663 C 0.52164 0.59345 0.47178 0.0
C664 C 0.54157 0.59229 0.50404 0.0
C665 C 0.56457 0.61894 0.5234 0.0
C666 C 0.56848 0.64671 0.50894 0.0
C667 C 0.54858 0.64718 0.47632 0.0
C668 C 0.52526 0.62107 0.45876 0.0
C669 C 0.50787 0.62715 0.42226 0.0
C670 C 0.5084 0.61326 0.37521 0.0
C671 C 0.47578 0.61606 0.43845 0.0
C672 C 0.52569 0.66078 0.42041 0.0
C673 C 0.54919 0.67215 0.45165 0.0
C674 C 0.57136 0.70221 0.45035 0.0
C675 C 0.57014 0.72062 0.41499 0.0
C676 C 0.54678 0.70881 0.38195 0.0
C677 C 0.52354 0.67905 0.38666 0.0
H678 H 0.4968 0.09459 0.54847 0.0
H679 H 0.42113 0.01374 0.60086 0.0
H680 H 0.40329 0.0438 0.64174 0.0
H681 H 0.51151 0.1323 0.65314 0.0
H682 H 0.52433 0.16842 0.62711 0.0
H683 H 0.52729 0.14029 0.59545 0.0
H684 H 0.49748 0.14634 0.52743 0.0
H685 H 0.49376 0.17395 0.55987 0.0
H686 H 0.46105 0.14142 0.53833 0.0
H687 H 0.39655 0.08217 0.68291 0.0
H688 H 0.40692 0.1244 0.73388 0.0
H689 H 0.48815 0.18046 0.65817 0.0
C690 C 0.47611 0.08328 0.56775 0.0
C691 C 0.46002 0.05193 0.57113 0.0
C692 C 0.43363 0.03778 0.59783 0.0
C693 C 0.42318 0.05467 0.62059 0.0
C694 C 0.43956 0.08565 0.6166 0.0
C695 C 0.4658 0.09982 0.59156 0.0
C696 C 0.48185 0.13317 0.599 0.0
C697 C 0.51306 0.14417 0.61995 0.0
C698 C 0.48363 0.14969 0.55343 0.0
C699 C 0.4611 0.13553 0.63347 0.0
C700 C 0.43628 0.10797 0.64186 0.0
C701 C 0.41552 0.10394 0.67593 0.0
C702 C 0.42132 0.12814 0.70434 0.0
C703 C 0.44788 0.15577 0.69893 0.0
C704 C 0.46709 0.15992 0.66149 0.0
H705 H 0.45823 0.53119 0.06604 0.0
H706 H 0.40573 0.46405 0.96395 0.0
H707 H 0.35971 0.4613 -0.00466 0.0
H708 H 0.41262 0.49859 0.15747 0.0
H709 H 0.41955 0.53289 0.18403 0.0
H710 H 0.44695 0.53263 0.14641 0.0
H711 H 0.44565 0.57404 0.09557 0.0
H712 H 0.41769 0.57334 0.13353 0.0
H713 H 0.41064 0.56756 0.07187 0.0
H714 H 0.31952 0.45909 0.04899 0.0
H715 H 0.29015 0.45721 0.1181 0.0
H716 H 0.36999 0.52733 0.18225 0.0
C717 C 0.43706 0.51657 0.0494 0.0
C718 C 0.43521 0.49784 0.01278 0.0
C719 C 0.40739 0.47877 0.99182 0.0
C720 C 0.38128 0.47716 0.00942 0.0
C721 C 0.38376 0.49529 0.04705 0.0
C722 C 0.41116 0.51498 0.06618 0.0
C723 C 0.40819 0.52945 0.10964 0.0
C724 C 0.42265 0.52299 0.15186 0.0
C725 C 0.42131 0.5631 0.10219 0.0
C726 C 0.37472 0.51368 0.11388 0.0
C727 C 0.36082 0.49443 0.07713 0.0
C728 C 0.33012 0.4747 0.07714 0.0
C729 C 0.31356 0.47383 0.11639 0.0
C730 C 0.32789 0.49233 0.15509 0.0
C731 C 0.35851 0.51333 0.15268 0.0
H732 H 0.9369 0.4553 0.5396 0.0
H733 H 0.97093 0.41393 0.4469 0.0
H734 H 0.92963 0.36397 0.47013 0.0
H735 H 0.91839 0.40644 0.63009 0.0
H736 H 0.8851 0.40688 0.64647 0.0
H737 H 0.91451 0.4384 0.61693 0.0
H738 H 0.87718 0.43426 0.55249 0.0
H739 H 0.84774 0.40259 0.58232 0.0
H740 H 0.85561 0.39957 0.52218 0.0
H741 H 0.8902 0.31893 0.51594 0.0
H742 H 0.85677 0.28457 0.57722 0.0
H743 H 0.84563 0.35574 0.6327 0.0
C744 C 0.93503 0.43567 0.52322 0.0
C745 C 0.95668 0.43815 0.49132 0.0
C746 C 0.95413 0.41224 0.47097 0.0
C747 C 0.93078 0.38388 0.48398 0.0
C748 C 0.9099 0.38206 0.51642 0.0
C749 C 0.91162 0.40743 0.53504 0.0
C750 C 0.88811 0.39988 0.57177 0.0
C751 C 0.90239 0.4137 0.61907 0.0
C752 C 0.86584 0.40965 0.55624 0.0
C753 C 0.87372 0.36632 0.57273 0.0
C754 C 0.88633 0.35622 0.54051 0.0
C755 C 0.87946 0.32645 0.54018 0.0
C756 C 0.86026 0.30695 0.57479 0.0
C757 C 0.84822 0.31743 0.60889 0.0
C758 C 0.85391 0.34703 0.60609 0.0
H759 H 0.60617 0.9676 0.06082 0.0
H760 H 0.5394 0.90997 0.96133 0.0
H761 H 0.53643 0.86602 0.00111 0.0
H762 H 0.64029 0.91877 0.08794 0.0
H763 H 0.64368 0.92899 0.14845 0.0
H764 H 0.64742 0.95533 0.10388 0.0
H765 H 0.60598 0.96133 0.14369 0.0
H766 H 0.60165 0.93475 0.18768 0.0
H767 H 0.56998 0.92887 0.15329 0.0
H768 H 0.53252 0.82858 0.06233 0.0
H769 H 0.52809 0.80241 0.1371 0.0
H770 H 0.59519 0.88523 0.19803 0.0
C771 C 0.59195 0.9458 0.04598 0.0
C772 C 0.5732 0.9422 0.00776 0.0
C773 C 0.55441 0.91331 0.98998 0.0
C774 C 0.55249 0.8882 0.01262 0.0
C775 C 0.56971 0.89248 0.05257 0.0
C776 C 0.58944 0.92074 0.06861 0.0
C777 C 0.6016 0.91982 0.11624 0.0
C778 C 0.63525 0.93141 0.11397 0.0
C779 C 0.59434 0.93719 0.15229 0.0
C780 C 0.58448 0.88675 0.12587 0.0
C781 C 0.56679 0.87113 0.08839 0.0
C782 C 0.54684 0.84054 0.09134 0.0
C783 C 0.54446 0.82583 0.13385 0.0
C784 C 0.56148 0.84188 0.17297 0.0
C785 C 0.58226 0.87246 0.16834 0.0
H786 H 0.58828 0.48118 0.56132 0.0
H787 H 0.63904 0.54987 0.45957 0.0
H788 H 0.68584 0.55376 0.49055 0.0
H789 H 0.63546 0.51317 0.65329 0.0
H790 H 0.6289 0.4784 0.67821 0.0
H791 H 0.60101 0.47934 0.64207 0.0
H792 H 0.6017 0.43881 0.58961 0.0
H793 H 0.63057 0.43912 0.6253 0.0
H794 H 0.63624 0.44594 0.56354 0.0
H795 H 0.72696 0.55672 0.54437 0.0
H796 H 0.75685 0.55781 0.61297 0.0
H797 H 0.67835 0.48366 0.67353 0.0
C798 C 0.60924 0.49643 0.54472 0.0
C799 C 0.61033 0.51518 0.50817 0.0
C800 C 0.63794 0.53512 0.48736 0.0
C801 C 0.66451 0.5374 0.50475 0.0
C802 C 0.66276 0.519 0.54198 0.0
C803 C 0.63561 0.49853 0.56104 0.0
C804 C 0.63932 0.48329 0.60344 0.0
C805 C 0.62538 0.4889 0.64679 0.0
C806 C 0.62619 0.4498 0.59493 0.0
C807 C 0.67288 0.49916 0.60676 0.0
C808 C 0.68623 0.51964 0.57104 0.0
C809 C 0.71682 0.54009 0.57155 0.0
C810 C 0.73374 0.54046 0.61043 0.0
C811 C 0.71991 0.52052 0.64803 0.0
C812 C 0.68955 0.49864 0.64463 0.0
H813 H 0.10211 0.5702 0.06623 0.0
H814 H 0.08107 0.61441 0.95638 0.0
H815 H 0.12416 0.66293 0.98006 0.0
H816 H 0.12254 0.62279 0.15144 0.0
H817 H 0.15295 0.61895 0.17412 0.0
H818 H 0.12253 0.5882 0.14501 0.0
H819 H 0.15954 0.58569 0.08633 0.0
H820 H 0.18981 0.61605 0.11694 0.0
H821 H 0.18535 0.61881 0.05513 0.0
H822 H 0.16482 0.70718 0.02476 0.0
H823 H 0.19847 0.74186 0.085 0.0
H824 H 0.19664 0.66772 0.15844 0.0
C825 C 0.10685 0.59011 0.0469 0.0
C826 C 0.08828 0.58887 0.00995 0.0
C827 C 0.09516 0.61512 0.98491 0.0
C828 C 0.11961 0.64266 -0.002 0.0
C829 C 0.13747 0.64323 0.03505 0.0
C830 C 0.13162 0.61746 0.0585 0.0
C831 C 0.1533 0.6239 0.09808 0.0
C832 C 0.13684 0.61282 0.14489 0.0
C833 C 0.17319 0.61031 0.08857 0.0
C834 C 0.17103 0.65752 0.09543 0.0
C835 C 0.16195 0.66841 0.05855 0.0
C836 C 0.1727 0.69892 0.05294 0.0
C837 C 0.19203 0.71854 0.08705 0.0
C838 C 0.20029 0.70746 0.1261 0.0
C839 C 0.19095 0.6768 0.12859 0.0
loop_
_geom_bond_atom_site_label_1
_geom_bond_atom_site_label_2
_geom_bond_distance
_geom_bond_site_symmetry_2
_ccdc_geom_bond_type
C0 O2 1.247 . S
C0 O4 1.269 . S
C1 O8 1.247 . S
C1 O9 1.258 1_556 S
O2 C0 1.247 . S
O2 Zn3 2.028 1_455 S
Zn3 O2 2.028 1_655 S
Zn3 O7 2.035 . S
Zn3 O9 2.035 . S
Zn3 O10 2.028 1_655 S
O4 C0 1.269 . S
O4 Zn5 2.029 1_554 S
Zn5 O4 2.029 1_556 S
Zn5 O6 2.028 1_455 S
Zn5 O8 2.028 1_455 S
Zn5 O11 2.029 1_556 S
O6 Zn5 2.028 1_655 S
O6 C12 1.247 . S
O7 Zn3 2.035 . S
O7 C12 1.258 1_554 S
O8 C1 1.247 . S
O8 Zn5 2.028 1_655 S
O9 C1 1.258 1_554 S
O9 Zn3 2.035 . S
O10 Zn3 2.028 1_455 S
O10 C13 1.247 . S
O11 Zn5 2.029 1_554 S
O11 C13 1.268 . S
C12 O6 1.247 . S
C12 O7 1.258 1_556 S
C13 O10 1.247 . S
C13 O11 1.268 . S
C14 O16 1.247 . S
C14 O18 1.258 . S
C15 O22 1.247 . S
C15 O23 1.258 . S
O16 C14 1.247 . S
O16 Zn17 2.028 1_545 S
Zn17 O16 2.028 1_565 S
Zn17 O21 2.035 . S
Zn17 O23 2.035 . S
Zn17 O24 2.028 1_565 S
O18 C14 1.258 . S
O18 Zn19 2.035 . S
Zn19 O18 2.035 . S
Zn19 O20 2.028 1_545 S
Zn19 O22 2.028 1_545 S
Zn19 O25 2.035 . S
O20 Zn19 2.028 1_565 S
O20 C26 1.247 . S
O21 Zn17 2.035 . S
O21 C26 1.258 . S
O22 C15 1.247 . S
O22 Zn19 2.028 1_565 S
O23 C15 1.258 . S
O23 Zn17 2.035 . S
O24 Zn17 2.028 1_545 S
O24 C27 1.247 . S
O25 Zn19 2.035 . S
O25 C27 1.258 . S
C26 O20 1.247 . S
C26 O21 1.258 . S
C27 O24 1.247 . S
C27 O25 1.258 . S
C28 O30 1.247 . S
C28 O32 1.258 1_556 S
C29 O36 1.247 . S
C29 O37 1.269 . S
O30 C28 1.247 . S
O30 Zn31 2.028 . S
Zn31 O30 2.028 . S
Zn31 O35 2.028 1_556 S
Zn31 O37 2.028 1_556 S
Zn31 O38 2.028 . S
O32 C28 1.258 1_554 S
O32 Zn33 2.035 . S
Zn33 O32 2.035 . S
Zn33 O34 2.028 . S
Zn33 O36 2.028 . S
Zn33 O39 2.035 . S
O34 Zn33 2.028 . S
O34 C40 1.247 . S
O35 Zn31 2.028 1_554 S
O35 C40 1.269 . S
O36 C29 1.247 . S
O36 Zn33 2.028 . S
O37 C29 1.269 . S
O37 Zn31 2.028 1_554 S
O38 Zn31 2.028 . S
O38 C41 1.247 . S
O39 Zn33 2.035 . S
O39 C41 1.258 1_554 S
C40 O34 1.247 . S
C40 O35 1.269 . S
C41 O38 1.247 . S
C41 O39 1.258 1_556 S
C42 O44 1.247 . S
C42 O46 1.258 . S
C43 O50 1.247 . S
C43 O51 1.258 . S
O44 C42 1.247 . S
O44 Zn45 2.028 . S
Zn45 O44 2.028 . S
Zn45 O49 2.035 1_455 S
Zn45 O51 2.035 1_455 S
Zn45 O52 2.028 . S
O46 C42 1.258 . S
O46 Zn47 2.035 1_455 S
Zn47 O46 2.035 1_655 S
Zn47 O48 2.028 . S
Zn47 O50 2.028 . S
Zn47 O53 2.035 1_655 S
O48 Zn47 2.028 . S
O48 C54 1.247 . S
O49 Zn45 2.035 1_655 S
O49 C54 1.258 . S
O50 C43 1.247 . S
O50 Zn47 2.028 . S
O51 C43 1.258 . S
O51 Zn45 2.035 1_655 S
O52 Zn45 2.028 . S
O52 C55 1.247 . S
O53 Zn47 2.035 1_455 S
O53 C55 1.258 . S
C54 O48 1.247 . S
C54 O49 1.258 . S
C55 O52 1.247 . S
C55 O53 1.258 . S
C56 O58 1.247 . S
C56 O60 1.258 . S
C57 O64 1.247 . S
C57 O65 1.258 1_556 S
O58 C56 1.247 . S
O58 Zn59 2.028 1_565 S
Zn59 O58 2.028 1_545 S
Zn59 O63 2.035 . S
Zn59 O65 2.035 . S
Zn59 O66 2.028 1_545 S
O60 C56 1.258 . S
O60 Zn61 2.035 1_554 S
Zn61 O60 2.035 1_556 S
Zn61 O62 2.028 1_565 S
Zn61 O64 2.028 1_565 S
Zn61 O67 2.035 1_556 S
O62 Zn61 2.028 1_545 S
O62 C68 1.247 . S
O63 Zn59 2.035 . S
O63 C68 1.258 1_554 S
O64 C57 1.247 . S
O64 Zn61 2.028 1_545 S
O65 C57 1.258 1_554 S
O65 Zn59 2.035 . S
O66 Zn59 2.028 1_565 S
O66 C69 1.247 . S
O67 Zn61 2.035 1_554 S
O67 C69 1.258 . S
C68 O62 1.247 . S
C68 O63 1.258 1_556 S
C69 O66 1.247 . S
C69 O67 1.258 . S
C70 O72 1.247 . S
C70 O74 1.258 . S
C71 O78 1.247 . S
C71 O79 1.258 . S
O72 C70 1.247 . S
O72 Zn73 2.028 . S
Zn73 O72 2.028 . S
Zn73 O77 2.035 . S
Zn73 O79 2.035 . S
Zn73 O80 2.028 . S
O74 C70 1.258 . S
O74 Zn75 2.035 . S
Zn75 O74 2.035 . S
Zn75 O76 2.028 . S
Zn75 O78 2.028 . S
Zn75 O81 2.035 . S
O76 Zn75 2.028 . S
O76 C82 1.247 . S
O77 Zn73 2.035 . S
O77 C82 1.258 . S
O78 C71 1.247 . S
O78 Zn75 2.028 . S
O79 C71 1.258 . S
O79 Zn73 2.035 . S
O80 Zn73 2.028 . S
O80 C83 1.247 . S
O81 Zn75 2.035 . S
O81 C83 1.258 . S
C82 O76 1.247 . S
C82 O77 1.258 . S
C83 O80 1.247 . S
C83 O81 1.258 . S
H84 C90 0.930 . S
H85 C93 0.931 . S
H86 C95 0.931 . S
H87 C97 0.930 . S
H88 C99 0.930 . S
H89 C101 0.931 . S
C90 H84 0.930 . S
C90 C91 1.380 . S
C90 C92 1.394 . S
C91 C90 1.380 . S
C91 C95 1.382 . S
C92 C90 1.394 . S
C92 C93 1.400 . S
C93 H85 0.931 . S
C93 C92 1.400 . S
C93 C94 1.375 . S
C94 C93 1.375 . S
C94 C95 1.415 . S
C94 C96 1.501 . S
C95 H86 0.931 . S
C95 C91 1.382 . S
C95 C94 1.415 . S
C96 C94 1.501 . S
C96 C97 1.384 . S
C96 C101 1.408 . S
C97 H87 0.930 . S
C97 C96 1.384 . S
C97 C98 1.389 . S
C98 C97 1.389 . S
C98 C99 1.405 . S
C99 H88 0.930 . S
C99 C98 1.405 . S
C99 C100 1.364 . S
C100 C99 1.364 . S
C100 C101 1.400 . S
C101 H89 0.931 . S
C101 C96 1.408 . S
C101 C100 1.400 . S
H102 C108 0.930 . S
H103 C111 0.931 . S
H104 C113 0.931 . S
H105 C115 0.930 . S
H106 C117 0.930 . S
H107 C119 0.931 . S
C108 H102 0.930 . S
C108 C109 1.380 . S
C108 C110 1.394 . S
C109 C108 1.380 . S
C109 C113 1.382 . S
C110 C108 1.394 . S
C110 C111 1.400 . S
C111 H103 0.931 . S
C111 C110 1.400 . S
C111 C112 1.375 . S
C112 C111 1.375 . S
C112 C113 1.415 . S
C112 C114 1.501 . S
C113 H104 0.931 . S
C113 C109 1.382 . S
C113 C112 1.415 . S
C114 C112 1.501 . S
C114 C115 1.384 . S
C114 C119 1.408 . S
C115 H105 0.930 . S
C115 C114 1.384 . S
C115 C116 1.389 . S
C116 C115 1.389 . S
C116 C117 1.405 . S
C117 H106 0.930 . S
C117 C116 1.405 . S
C117 C118 1.364 . S
C118 C117 1.364 . S
C118 C119 1.400 . S
C119 H107 0.931 . S
C119 C114 1.408 . S
C119 C118 1.400 . S
H120 C126 0.930 . S
H121 C129 0.931 . S
H122 C131 0.931 . S
H123 C133 0.930 . S
H124 C135 0.930 . S
H125 C137 0.931 . S
C126 H120 0.930 . S
C126 C127 1.380 . S
C126 C128 1.394 . S
C127 C126 1.380 . S
C127 C131 1.382 . S
C128 C126 1.394 . S
C128 C129 1.400 . S
C129 H121 0.931 . S
C129 C128 1.400 . S
C129 C130 1.375 . S
C130 C129 1.375 . S
C130 C131 1.415 . S
C130 C132 1.501 . S
C131 H122 0.931 . S
C131 C127 1.382 . S
C131 C130 1.415 . S
C132 C130 1.501 . S
C132 C133 1.384 . S
C132 C137 1.408 . S
C133 H123 0.930 . S
C133 C132 1.384 . S
C133 C134 1.389 . S
C134 C133 1.389 . S
C134 C135 1.405 . S
C135 H124 0.930 . S
C135 C134 1.405 . S
C135 C136 1.364 . S
C136 C135 1.364 . S
C136 C137 1.400 . S
C137 H125 0.931 . S
C137 C132 1.408 . S
C137 C136 1.400 . S
H138 C144 0.930 . S
H139 C147 0.931 . S
H140 C149 0.931 . S
H141 C151 0.930 . S
H142 C153 0.930 . S
H143 C155 0.931 . S
C144 H138 0.930 . S
C144 C145 1.380 . S
C144 C146 1.394 . S
C145 C144 1.380 . S
C145 C149 1.382 . S
C146 C144 1.394 . S
C146 C147 1.400 . S
C147 H139 0.931 . S
C147 C146 1.400 . S
C147 C148 1.375 . S
C148 C147 1.375 . S
C148 C149 1.415 . S
C148 C150 1.501 . S
C149 H140 0.931 . S
C149 C145 1.382 . S
C149 C148 1.415 . S
C150 C148 1.501 . S
C150 C151 1.384 . S
C150 C155 1.408 . S
C151 H141 0.930 . S
C151 C150 1.384 . S
C151 C152 1.389 . S
C152 C151 1.389 . S
C152 C153 1.405 . S
C153 H142 0.930 . S
C153 C152 1.405 . S
C153 C154 1.364 . S
C154 C153 1.364 . S
C154 C155 1.400 . S
C155 H143 0.931 . S
C155 C150 1.408 . S
C155 C154 1.400 . S
H156 C162 0.930 . S
H157 C165 0.931 . S
H158 C167 0.931 . S
H159 C169 0.930 . S
H160 C171 0.930 . S
H161 C173 0.931 . S
C162 H156 0.930 . S
C162 C163 1.380 . S
C162 C164 1.394 . S
C163 C162 1.380 . S
C163 C167 1.382 . S
C164 C162 1.394 . S
C164 C165 1.400 . S
C165 H157 0.931 . S
C165 C164 1.400 . S
C165 C166 1.375 . S
C166 C165 1.375 . S
C166 C167 1.415 . S
C166 C168 1.501 . S
C167 H158 0.931 . S
C167 C163 1.382 . S
C167 C166 1.415 . S
C168 C166 1.501 . S
C168 C169 1.384 . S
C168 C173 1.408 . S
C169 H159 0.930 . S
C169 C168 1.384 . S
C169 C170 1.389 . S
C170 C169 1.389 . S
C170 C171 1.405 . S
C171 H160 0.930 . S
C171 C170 1.405 . S
C171 C172 1.364 . S
C172 C171 1.364 . S
C172 C173 1.400 . S
C173 H161 0.931 . S
C173 C168 1.408 . S
C173 C172 1.400 . S
H174 C180 0.930 . S
H175 C183 0.931 . S
H176 C185 0.931 . S
H177 C187 0.930 . S
H178 C189 0.930 . S
H179 C191 0.931 . S
C180 H174 0.930 . S
C180 C181 1.380 . S
C180 C182 1.394 . S
C181 C180 1.380 . S
C181 C185 1.382 . S
C182 C180 1.394 . S
C182 C183 1.400 . S
C183 H175 0.931 . S
C183 C182 1.400 . S
C183 C184 1.375 . S
C184 C183 1.375 . S
C184 C185 1.415 . S
C184 C186 1.501 . S
C185 H176 0.931 . S
C185 C181 1.382 . S
C185 C184 1.415 . S
C186 C184 1.501 . S
C186 C187 1.384 . S
C186 C191 1.408 . S
C187 H177 0.930 . S
C187 C186 1.384 . S
C187 C188 1.389 . S
C188 C187 1.389 . S
C188 C189 1.405 . S
C189 H178 0.930 . S
C189 C188 1.405 . S
C189 C190 1.364 . S
C190 C189 1.364 . S
C190 C191 1.400 . S
C191 H179 0.931 . S
C191 C186 1.408 . S
C191 C190 1.400 . S
H192 C204 0.930 . S
H193 C206 0.930 . S
H194 C207 0.930 . S
H195 C211 0.959 . S
H196 C211 0.959 . S
H197 C211 0.961 . S
H198 C212 0.960 . S
H199 C212 0.961 . S
H200 C212 0.959 . S
H201 C215 0.929 . S
H202 C216 0.931 . S
H203 C218 0.930 . S
C204 H192 0.930 . S
C204 C205 1.399 . S
C204 C209 1.399 . S
C205 C204 1.399 . S
C205 C206 1.376 . S
C206 H193 0.930 . S
C206 C205 1.376 . S
C206 C207 1.388 . S
C207 H194 0.930 . S
C207 C206 1.388 . S
C207 C208 1.390 . S
C208 C207 1.390 . S
C208 C209 1.394 . S
C208 C214 1.465 . S
C209 C204 1.399 . S
C209 C208 1.394 . S
C209 C210 1.516 . S
C210 C209 1.516 . S
C210 C211 1.502 . S
C210 C212 1.561 . S
C210 C213 1.526 . S
C211 H195 0.959 . S
C211 H196 0.959 . S
C211 H197 0.961 . S
C211 C210 1.502 . S
C212 H198 0.960 . S
C212 H199 0.961 . S
C212 H200 0.959 . S
C212 C210 1.561 . S
C213 C210 1.526 . S
C213 C214 1.396 . S
C213 C218 1.390 . S
C214 C208 1.465 . S
C214 C213 1.396 . S
C214 C215 1.399 . S
C215 H201 0.929 . S
C215 C214 1.399 . S
C215 C216 1.385 . S
C216 H202 0.931 . S
C216 C215 1.385 . S
C216 C217 1.389 . S
C217 C216 1.389 . S
C217 C218 1.387 . S
C218 H203 0.930 . S
C218 C213 1.390 . S
C218 C217 1.387 . S
H219 C231 0.930 . S
H220 C233 0.930 . S
H221 C234 0.930 . S
H222 C238 0.959 . S
H223 C238 0.959 . S
H224 C238 0.961 . S
H225 C239 0.960 . S
H226 C239 0.961 . S
H227 C239 0.959 . S
H228 C242 0.929 . S
H229 C243 0.931 . S
H230 C245 0.930 . S
C231 H219 0.930 . S
C231 C232 1.399 . S
C231 C236 1.399 . S
C232 C231 1.399 . S
C232 C233 1.376 . S
C233 H220 0.930 . S
C233 C232 1.376 . S
C233 C234 1.388 . S
C234 H221 0.930 . S
C234 C233 1.388 . S
C234 C235 1.390 . S
C235 C234 1.390 . S
C235 C236 1.394 . S
C235 C241 1.465 . S
C236 C231 1.399 . S
C236 C235 1.394 . S
C236 C237 1.516 . S
C237 C236 1.516 . S
C237 C238 1.502 . S
C237 C239 1.561 . S
C237 C240 1.526 . S
C238 H222 0.959 . S
C238 H223 0.959 . S
C238 H224 0.961 . S
C238 C237 1.502 . S
C239 H225 0.960 . S
C239 H226 0.961 . S
C239 H227 0.959 . S
C239 C237 1.561 . S
C240 C237 1.526 . S
C240 C241 1.396 . S
C240 C245 1.390 . S
C241 C235 1.465 . S
C241 C240 1.396 . S
C241 C242 1.399 . S
C242 H228 0.929 . S
C242 C241 1.399 . S
C242 C243 1.385 . S
C243 H229 0.931 . S
C243 C242 1.385 . S
C243 C244 1.389 . S
C244 C243 1.389 . S
C244 C245 1.387 . S
C245 H230 0.930 . S
C245 C240 1.390 . S
C245 C244 1.387 . S
H246 C258 0.930 . S
H247 C260 0.921 1_556 S
H248 C261 0.930 . S
H249 C265 0.959 . S
H250 C265 0.959 . S
H251 C265 0.961 . S
H252 C266 0.960 . S
H253 C266 0.961 . S
H254 C266 0.959 . S
H255 C269 0.929 . S
H256 C270 0.931 . S
H257 C272 0.930 . S
C258 H246 0.930 . S
C258 C259 1.399 . S
C258 C263 1.399 . S
C259 C258 1.399 . S
C259 C260 1.376 . S
C260 H247 0.921 1_554 S
C260 C259 1.376 . S
C260 C261 1.388 . S
C261 H248 0.930 . S
C261 C260 1.388 . S
C261 C262 1.390 . S
C262 C261 1.390 . S
C262 C263 1.394 . S
C262 C268 1.465 . S
C263 C258 1.399 . S
C263 C262 1.394 . S
C263 C264 1.516 . S
C264 C263 1.516 . S
C264 C265 1.502 . S
C264 C266 1.561 . S
C264 C267 1.526 . S
C265 H249 0.959 . S
C265 H250 0.959 . S
C265 H251 0.961 . S
C265 C264 1.502 . S
C266 H252 0.960 . S
C266 H253 0.961 . S
C266 H254 0.959 . S
C266 C264 1.561 . S
C267 C264 1.526 . S
C267 C268 1.396 . S
C267 C272 1.390 . S
C268 C262 1.465 . S
C268 C267 1.396 . S
C268 C269 1.399 . S
C269 H255 0.929 . S
C269 C268 1.399 . S
C269 C270 1.385 . S
C270 H256 0.931 . S
C270 C269 1.385 . S
C270 C271 1.389 . S
C271 C270 1.389 . S
C271 C272 1.387 . S
C272 H257 0.930 . S
C272 C267 1.390 . S
C272 C271 1.387 . S
H273 C285 0.930 . S
H274 C287 0.930 . S
H275 C288 0.930 . S
H276 C292 0.959 . S
H277 C292 0.959 . S
H278 C292 0.961 . S
H279 C293 0.960 . S
H280 C293 0.961 . S
H281 C293 0.959 . S
H282 C296 0.929 . S
H283 C297 0.931 . S
H284 C299 0.930 . S
C285 H273 0.930 . S
C285 C286 1.399 . S
C285 C290 1.399 . S
C286 C285 1.399 . S
C286 C287 1.376 . S
C287 H274 0.930 . S
C287 C286 1.376 . S
C287 C288 1.388 . S
C288 H275 0.930 . S
C288 C287 1.388 . S
C288 C289 1.390 . S
C289 C288 1.390 . S
C289 C290 1.394 . S
C289 C295 1.465 . S
C290 C285 1.399 . S
C290 C289 1.394 . S
C290 C291 1.516 . S
C291 C290 1.516 . S
C291 C292 1.502 . S
C291 C293 1.561 . S
C291 C294 1.526 . S
C292 H276 0.959 . S
C292 H277 0.959 . S
C292 H278 0.961 . S
C292 C291 1.502 . S
C293 H279 0.960 . S
C293 H280 0.961 . S
C293 H281 0.959 . S
C293 C291 1.561 . S
C294 C291 1.526 . S
C294 C295 1.396 . S
C294 C299 1.390 . S
C295 C289 1.465 . S
C295 C294 1.396 . S
C295 C296 1.399 . S
C296 H282 0.929 . S
C296 C295 1.399 . S
C296 C297 1.385 . S
C297 H283 0.931 . S
C297 C296 1.385 . S
C297 C298 1.389 . S
C298 C297 1.389 . S
C298 C299 1.387 . S
C299 H284 0.930 . S
C299 C294 1.390 . S
C299 C298 1.387 . S
H300 C312 0.930 . S
H301 C314 0.930 . S
H302 C315 0.930 . S
H303 C319 0.959 . S
H304 C319 0.959 . S
H305 C319 0.961 . S
H306 C320 0.960 . S
H307 C320 0.961 . S
H308 C320 0.959 . S
H309 C323 0.929 . S
H310 C324 0.931 . S
H311 C326 0.930 . S
C312 H300 0.930 . S
C312 C313 1.399 . S
C312 C317 1.399 . S
C313 C312 1.399 . S
C313 C314 1.376 . S
C314 H301 0.930 . S
C314 C313 1.376 . S
C314 C315 1.388 . S
C315 H302 0.930 . S
C315 C314 1.388 . S
C315 C316 1.390 . S
C316 C315 1.390 . S
C316 C317 1.394 . S
C316 C322 1.465 . S
C317 C312 1.399 . S
C317 C316 1.394 . S
C317 C318 1.516 . S
C318 C317 1.516 . S
C318 C319 1.502 . S
C318 C320 1.561 . S
C318 C321 1.526 . S
C319 H303 0.959 . S
C319 H304 0.959 . S
C319 H305 0.961 . S
C319 C318 1.502 . S
C320 H306 0.960 . S
C320 H307 0.961 . S
C320 H308 0.959 . S
C320 C318 1.561 . S
C321 C318 1.526 . S
C321 C322 1.396 . S
C321 C326 1.390 . S
C322 C316 1.465 . S
C322 C321 1.396 . S
C322 C323 1.399 . S
C323 H309 0.929 . S
C323 C322 1.399 . S
C323 C324 1.385 . S
C324 H310 0.931 . S
C324 C323 1.385 . S
C324 C325 1.389 . S
C325 C324 1.389 . S
C325 C326 1.387 . S
C326 H311 0.930 . S
C326 C321 1.390 . S
C326 C325 1.387 . S
H327 C339 0.930 . S
H328 C341 0.930 . S
H329 C342 0.930 . S
H330 C346 0.959 . S
H331 C346 0.959 . S
H332 C346 0.961 . S
H333 C347 0.960 . S
H334 C347 0.961 . S
H335 C347 0.959 . S
H336 C350 0.929 . S
H337 C351 0.931 . S
H338 C353 0.930 . S
C339 H327 0.930 . S
C339 C340 1.399 . S
C339 C344 1.399 . S
C340 C339 1.399 . S
C340 C341 1.376 . S
C341 H328 0.930 . S
C341 C340 1.376 . S
C341 C342 1.388 . S
C342 H329 0.930 . S
C342 C341 1.388 . S
C342 C343 1.390 . S
C343 C342 1.390 . S
C343 C344 1.394 . S
C343 C349 1.465 . S
C344 C339 1.399 . S
C344 C343 1.394 . S
C344 C345 1.516 . S
C345 C344 1.516 . S
C345 C346 1.502 . S
C345 C347 1.561 . S
C345 C348 1.526 . S
C346 H330 0.959 . S
C346 H331 0.959 . S
C346 H332 0.961 . S
C346 C345 1.502 . S
C347 H333 0.960 . S
C347 H334 0.961 . S
C347 H335 0.959 . S
C347 C345 1.561 . S
C348 C345 1.526 . S
C348 C349 1.396 . S
C348 C353 1.390 . S
C349 C343 1.465 . S
C349 C348 1.396 . S
C349 C350 1.399 . S
C350 H336 0.929 . S
C350 C349 1.399 . S
C350 C351 1.385 . S
C351 H337 0.931 . S
C351 C350 1.385 . S
C351 C352 1.389 . S
C352 C351 1.389 . S
C352 C353 1.387 . S
C353 H338 0.930 . S
C353 C348 1.390 . S
C353 C352 1.387 . S
H354 C366 0.930 . S
H355 C368 0.930 . S
H356 C369 0.930 . S
H357 C373 0.959 . S
H358 C373 0.959 . S
H359 C373 0.961 . S
H360 C374 0.960 . S
H361 C374 0.961 . S
H362 C374 0.959 . S
H363 C377 0.929 . S
H364 C378 0.931 . S
H365 C380 0.930 . S
C366 H354 0.930 . S
C366 C367 1.399 . S
C366 C371 1.399 . S
C367 C366 1.399 . S
C367 C368 1.376 . S
C368 H355 0.930 . S
C368 C367 1.376 . S
C368 C369 1.388 . S
C369 H356 0.930 . S
C369 C368 1.388 . S
C369 C370 1.390 . S
C370 C369 1.390 . S
C370 C371 1.394 . S
C370 C376 1.465 . S
C371 C366 1.399 . S
C371 C370 1.394 . S
C371 C372 1.516 . S
C372 C371 1.516 . S
C372 C373 1.502 . S
C372 C374 1.561 . S
C372 C375 1.526 . S
C373 H357 0.959 . S
C373 H358 0.959 . S
C373 H359 0.961 . S
C373 C372 1.502 . S
C374 H360 0.960 . S
C374 H361 0.961 . S
C374 H362 0.959 . S
C374 C372 1.561 . S
C375 C372 1.526 . S
C375 C376 1.396 . S
C375 C380 1.390 . S
C376 C370 1.465 . S
C376 C375 1.396 . S
C376 C377 1.399 . S
C377 H363 0.929 . S
C377 C376 1.399 . S
C377 C378 1.385 . S
C378 H364 0.931 . S
C378 C377 1.385 . S
C378 C379 1.389 . S
C379 C378 1.389 . S
C379 C380 1.387 . S
C380 H365 0.930 . S
C380 C375 1.390 . S
C380 C379 1.387 . S
H381 C393 0.930 . S
H382 C395 0.930 . S
H383 C396 0.930 . S
H384 C400 0.959 . S
H385 C400 0.959 . S
H386 C400 0.961 . S
H387 C401 0.960 . S
H388 C401 0.961 . S
H389 C401 0.959 . S
H390 C404 0.929 . S
H391 C405 0.931 . S
H392 C407 0.930 . S
C393 H381 0.930 . S
C393 C394 1.399 . S
C393 C398 1.399 . S
C394 C393 1.399 . S
C394 C395 1.376 . S
C395 H382 0.930 . S
C395 C394 1.376 . S
C395 C396 1.388 . S
C396 H383 0.930 . S
C396 C395 1.388 . S
C396 C397 1.390 . S
C397 C396 1.390 . S
C397 C398 1.394 . S
C397 C403 1.465 . S
C398 C393 1.399 . S
C398 C397 1.394 . S
C398 C399 1.516 . S
C399 C398 1.516 . S
C399 C400 1.502 . S
C399 C401 1.561 . S
C399 C402 1.526 . S
C400 H384 0.959 . S
C400 H385 0.959 . S
C400 H386 0.961 . S
C400 C399 1.502 . S
C401 H387 0.960 . S
C401 H388 0.961 . S
C401 H389 0.959 . S
C401 C399 1.561 . S
C402 C399 1.526 . S
C402 C403 1.396 . S
C402 C407 1.390 . S
C403 C397 1.465 . S
C403 C402 1.396 . S
C403 C404 1.399 . S
C404 H390 0.929 . S
C404 C403 1.399 . S
C404 C405 1.385 . S
C405 H391 0.931 . S
C405 C404 1.385 . S
C405 C406 1.389 . S
C406 C405 1.389 . S
C406 C407 1.387 . S
C407 H392 0.930 . S
C407 C402 1.390 . S
C407 C406 1.387 . S
H408 C420 0.930 . S
H409 C422 0.930 . S
H410 C423 0.930 . S
H411 C427 0.959 . S
H412 C427 0.959 . S
H413 C427 0.961 . S
H414 C428 0.960 . S
H415 C428 0.961 . S
H416 C428 0.959 . S
H417 C431 0.929 . S
H418 C432 0.931 . S
H419 C434 0.930 . S
C420 H408 0.930 . S
C420 C421 1.399 . S
C420 C425 1.399 . S
C421 C420 1.399 . S
C421 C422 1.376 . S
C422 H409 0.930 . S
C422 C421 1.376 . S
C422 C423 1.388 . S
C423 H410 0.930 . S
C423 C422 1.388 . S
C423 C424 1.390 . S
C424 C423 1.390 . S
C424 C425 1.394 . S
C424 C430 1.465 . S
C425 C420 1.399 . S
C425 C424 1.394 . S
C425 C426 1.516 . S
C426 C425 1.516 . S
C426 C427 1.502 . S
C426 C428 1.561 . S
C426 C429 1.526 . S
C427 H411 0.959 . S
C427 H412 0.959 . S
C427 H413 0.961 . S
C427 C426 1.502 . S
C428 H414 0.960 . S
C428 H415 0.961 . S
C428 H416 0.959 . S
C428 C426 1.561 . S
C429 C426 1.526 . S
C429 C430 1.396 . S
C429 C434 1.390 . S
C430 C424 1.465 . S
C430 C429 1.396 . S
C430 C431 1.399 . S
C431 H417 0.929 . S
C431 C430 1.399 . S
C431 C432 1.385 . S
C432 H418 0.931 . S
C432 C431 1.385 . S
C432 C433 1.389 . S
C433 C432 1.389 . S
C433 C434 1.387 . S
C434 H419 0.930 . S
C434 C429 1.390 . S
C434 C433 1.387 . S
H435 C447 0.930 . S
H436 C449 0.930 . S
H437 C450 0.930 . S
H438 C454 0.959 . S
H439 C454 0.959 . S
H440 C454 0.961 . S
H441 C455 0.960 . S
H442 C455 0.961 . S
H443 C455 0.959 . S
H444 C458 0.929 . S
H445 C459 0.931 . S
H446 C461 0.930 . S
C447 H435 0.930 . S
C447 C448 1.399 . S
C447 C452 1.399 . S
C448 C447 1.399 . S
C448 C449 1.376 . S
C449 H436 0.930 . S
C449 C448 1.376 . S
C449 C450 1.388 . S
C450 H437 0.930 . S
C450 C449 1.388 . S
C450 C451 1.390 . S
C451 C450 1.390 . S
C451 C452 1.394 . S
C451 C457 1.465 . S
C452 C447 1.399 . S
C452 C451 1.394 . S
C452 C453 1.516 . S
C453 C452 1.516 . S
C453 C454 1.502 . S
C453 C455 1.561 . S
C453 C456 1.526 . S
C454 H438 0.959 . S
C454 H439 0.959 . S
C454 H440 0.961 . S
C454 C453 1.502 . S
C455 H441 0.960 . S
C455 H442 0.961 . S
C455 H443 0.959 . S
C455 C453 1.561 . S
C456 C453 1.526 . S
C456 C457 1.396 . S
C456 C461 1.390 . S
C457 C451 1.465 . S
C457 C456 1.396 . S
C457 C458 1.399 . S
C458 H444 0.929 . S
C458 C457 1.399 . S
C458 C459 1.385 . S
C459 H445 0.931 . S
C459 C458 1.385 . S
C459 C460 1.389 . S
C460 C459 1.389 . S
C460 C461 1.387 . S
C461 H446 0.930 . S
C461 C456 1.390 . S
C461 C460 1.387 . S
H462 C474 0.930 . S
H463 C476 0.930 . S
H464 C477 0.930 . S
H465 C481 0.959 . S
H466 C481 0.959 . S
H467 C481 0.961 . S
H468 C482 0.960 . S
H469 C482 0.961 . S
H470 C482 0.959 . S
H471 C485 0.929 . S
H472 C486 0.931 . S
H473 C488 0.930 . S
C474 H462 0.930 . S
C474 C475 1.399 . S
C474 C479 1.399 . S
C475 C474 1.399 . S
C475 C476 1.376 . S
C476 H463 0.930 . S
C476 C475 1.376 . S
C476 C477 1.388 . S
C477 H464 0.930 . S
C477 C476 1.388 . S
C477 C478 1.390 . S
C478 C477 1.390 . S
C478 C479 1.394 . S
C478 C484 1.465 . S
C479 C474 1.399 . S
C479 C478 1.394 . S
C479 C480 1.516 . S
C480 C479 1.516 . S
C480 C481 1.502 . S
C480 C482 1.561 . S
C480 C483 1.526 . S
C481 H465 0.959 . S
C481 H466 0.959 . S
C481 H467 0.961 . S
C481 C480 1.502 . S
C482 H468 0.960 . S
C482 H469 0.961 . S
C482 H470 0.959 . S
C482 C480 1.561 . S
C483 C480 1.526 . S
C483 C484 1.396 . S
C483 C488 1.390 . S
C484 C478 1.465 . S
C484 C483 1.396 . S
C484 C485 1.399 . S
C485 H471 0.929 . S
C485 C484 1.399 . S
C485 C486 1.385 . S
C486 H472 0.931 . S
C486 C485 1.385 . S
C486 C487 1.389 . S
C487 C486 1.389 . S
C487 C488 1.387 . S
C488 H473 0.930 . S
C488 C483 1.390 . S
C488 C487 1.387 . S
H489 C501 0.930 . S
H490 C503 0.930 1_554 S
H491 C504 0.930 . S
H492 C508 0.959 . S
H493 C508 0.959 . S
H494 C508 0.961 . S
H495 C509 0.960 . S
H496 C509 0.961 . S
H497 C509 0.959 . S
H498 C512 0.929 . S
H499 C513 0.931 . S
H500 C515 0.930 . S
C501 H489 0.930 . S
C501 C502 1.399 . S
C501 C506 1.399 . S
C502 C501 1.399 . S
C502 C503 1.376 . S
C503 H490 0.930 1_556 S
C503 C502 1.376 . S
C503 C504 1.388 . S
C504 H491 0.930 . S
C504 C503 1.388 . S
C504 C505 1.390 . S
C505 C504 1.390 . S
C505 C506 1.394 . S
C505 C511 1.465 . S
C506 C501 1.399 . S
C506 C505 1.394 . S
C506 C507 1.516 . S
C507 C506 1.516 . S
C507 C508 1.502 . S
C507 C509 1.561 . S
C507 C510 1.526 . S
C508 H492 0.959 . S
C508 H493 0.959 . S
C508 H494 0.961 . S
C508 C507 1.502 . S
C509 H495 0.960 . S
C509 H496 0.961 . S
C509 H497 0.959 . S
C509 C507 1.561 . S
C510 C507 1.526 . S
C510 C511 1.396 . S
C510 C515 1.390 . S
C511 C505 1.465 . S
C511 C510 1.396 . S
C511 C512 1.399 . S
C512 H498 0.929 . S
C512 C511 1.399 . S
C512 C513 1.385 . S
C513 H499 0.931 . S
C513 C512 1.385 . S
C513 C514 1.389 . S
C514 C513 1.389 . S
C514 C515 1.387 . S
C515 H500 0.930 . S
C515 C510 1.390 . S
C515 C514 1.387 . S
H516 C528 0.930 . S
H517 C530 0.930 . S
H518 C531 0.930 . S
H519 C535 0.959 . S
H520 C535 0.959 . S
H521 C535 0.961 . S
H522 C536 0.960 . S
H523 C536 0.961 . S
H524 C536 0.959 . S
H525 C539 0.929 . S
H526 C540 0.931 . S
H527 C542 0.930 . S
C528 H516 0.930 . S
C528 C529 1.399 . S
C528 C533 1.399 . S
C529 C528 1.399 . S
C529 C530 1.376 . S
C530 H517 0.930 . S
C530 C529 1.376 . S
C530 C531 1.388 . S
C531 H518 0.930 . S
C531 C530 1.388 . S
C531 C532 1.390 . S
C532 C531 1.390 . S
C532 C533 1.394 . S
C532 C538 1.465 . S
C533 C528 1.399 . S
C533 C532 1.394 . S
C533 C534 1.516 . S
C534 C533 1.516 . S
C534 C535 1.502 . S
C534 C536 1.561 . S
C534 C537 1.526 . S
C535 H519 0.959 . S
C535 H520 0.959 . S
C535 H521 0.961 . S
C535 C534 1.502 . S
C536 H522 0.960 . S
C536 H523 0.961 . S
C536 H524 0.959 . S
C536 C534 1.561 . S
C537 C534 1.526 . S
C537 C538 1.396 . S
C537 C542 1.390 . S
C538 C532 1.465 . S
C538 C537 1.396 . S
C538 C539 1.399 . S
C539 H525 0.929 . S
C539 C538 1.399 . S
C539 C540 1.385 . S
C540 H526 0.931 . S
C540 C539 1.385 . S
C540 C541 1.389 . S
C541 C540 1.389 . S
C541 C542 1.387 . S
C542 H527 0.930 . S
C542 C537 1.390 . S
C542 C541 1.387 . S
H543 C555 0.930 . S
H544 C557 0.930 . S
H545 C558 0.930 . S
H546 C562 0.959 . S
H547 C562 0.959 . S
H548 C562 0.961 . S
H549 C563 0.960 . S
H550 C563 0.961 . S
H551 C563 0.959 . S
H552 C566 0.929 . S
H553 C567 0.931 . S
H554 C569 0.930 . S
C555 H543 0.930 . S
C555 C556 1.399 . S
C555 C560 1.399 . S
C556 C555 1.399 . S
C556 C557 1.376 . S
C557 H544 0.930 . S
C557 C556 1.376 . S
C557 C558 1.388 . S
C558 H545 0.930 . S
C558 C557 1.388 . S
C558 C559 1.390 . S
C559 C558 1.390 . S
C559 C560 1.394 . S
C559 C565 1.465 . S
C560 C555 1.399 . S
C560 C559 1.394 . S
C560 C561 1.516 . S
C561 C560 1.516 . S
C561 C562 1.502 . S
C561 C563 1.561 . S
C561 C564 1.526 . S
C562 H546 0.959 . S
C562 H547 0.959 . S
C562 H548 0.961 . S
C562 C561 1.502 . S
C563 H549 0.960 . S
C563 H550 0.961 . S
C563 H551 0.959 . S
C563 C561 1.561 . S
C564 C561 1.526 . S
C564 C565 1.396 . S
C564 C569 1.390 . S
C565 C559 1.465 . S
C565 C564 1.396 . S
C565 C566 1.399 . S
C566 H552 0.929 . S
C566 C565 1.399 . S
C566 C567 1.385 . S
C567 H553 0.931 . S
C567 C566 1.385 . S
C567 C568 1.389 . S
C568 C567 1.389 . S
C568 C569 1.387 . S
C569 H554 0.930 . S
C569 C564 1.390 . S
C569 C568 1.387 . S
H570 C582 0.930 . S
H571 C584 0.930 . S
H572 C585 0.930 . S
H573 C589 0.959 . S
H574 C589 0.959 . S
H575 C589 0.961 . S
H576 C590 0.964 . S
H577 C590 0.961 . S
H578 C590 0.959 . S
H579 C593 0.929 . S
H580 C594 0.931 . S
H581 C596 0.930 . S
C582 H570 0.930 . S
C582 C583 1.399 . S
C582 C587 1.399 . S
C583 C582 1.399 . S
C583 C584 1.376 . S
C584 H571 0.930 . S
C584 C583 1.376 . S
C584 C585 1.388 . S
C585 H572 0.930 . S
C585 C584 1.388 . S
C585 C586 1.390 . S
C586 C585 1.390 . S
C586 C587 1.394 . S
C586 C592 1.465 . S
C587 C582 1.399 . S
C587 C586 1.394 . S
C587 C588 1.516 . S
C588 C587 1.516 . S
C588 C589 1.502 . S
C588 C590 1.561 . S
C588 C591 1.526 . S
C589 H573 0.959 . S
C589 H574 0.959 . S
C589 H575 0.961 . S
C589 C588 1.502 . S
C590 H576 0.964 . S
C590 H577 0.961 . S
C590 H578 0.959 . S
C590 C588 1.561 . S
C591 C588 1.526 . S
C591 C592 1.396 . S
C591 C596 1.390 . S
C592 C586 1.465 . S
C592 C591 1.396 . S
C592 C593 1.399 . S
C593 H579 0.929 . S
C593 C592 1.399 . S
C593 C594 1.385 . S
C594 H580 0.931 . S
C594 C593 1.385 . S
C594 C595 1.389 . S
C595 C594 1.389 . S
C595 C596 1.387 . S
C596 H581 0.930 . S
C596 C591 1.390 . S
C596 C595 1.387 . S
H597 C609 0.930 . S
H598 C611 0.930 . S
H599 C612 0.930 . S
H600 C616 0.959 . S
H601 C616 0.959 . S
H602 C616 0.961 . S
H603 C617 0.960 . S
H604 C617 0.961 . S
H605 C617 0.959 . S
H606 C620 0.929 . S
H607 C621 0.931 . S
H608 C623 0.930 . S
C609 H597 0.930 . S
C609 C610 1.399 . S
C609 C614 1.399 . S
C610 C609 1.399 . S
C610 C611 1.376 . S
C611 H598 0.930 . S
C611 C610 1.376 . S
C611 C612 1.388 . S
C612 H599 0.930 . S
C612 C611 1.388 . S
C612 C613 1.390 . S
C613 C612 1.390 . S
C613 C614 1.394 . S
C613 C619 1.465 . S
C614 C609 1.399 . S
C614 C613 1.394 . S
C614 C615 1.516 . S
C615 C614 1.516 . S
C615 C616 1.502 . S
C615 C617 1.561 . S
C615 C618 1.526 . S
C616 H600 0.959 . S
C616 H601 0.959 . S
C616 H602 0.961 . S
C616 C615 1.502 . S
C617 H603 0.960 . S
C617 H604 0.961 . S
C617 H605 0.959 . S
C617 C615 1.561 . S
C618 C615 1.526 . S
C618 C619 1.396 . S
C618 C623 1.390 . S
C619 C613 1.465 . S
C619 C618 1.396 . S
C619 C620 1.399 . S
C620 H606 0.929 . S
C620 C619 1.399 . S
C620 C621 1.385 . S
C621 H607 0.931 . S
C621 C620 1.385 . S
C621 C622 1.389 . S
C622 C621 1.389 . S
C622 C623 1.387 . S
C623 H608 0.930 . S
C623 C618 1.390 . S
C623 C622 1.387 . S
H624 C636 0.930 . S
H625 C638 0.930 . S
H626 C639 0.930 . S
H627 C643 0.959 . S
H628 C643 0.959 . S
H629 C643 0.961 . S
H630 C644 0.947 1_554 S
H631 C644 0.961 . S
H632 C644 0.959 . S
H633 C647 0.929 . S
H634 C648 0.931 . S
H635 C650 0.930 . S
C636 H624 0.930 . S
C636 C637 1.399 . S
C636 C641 1.399 . S
C637 C636 1.399 . S
C637 C638 1.376 . S
C638 H625 0.930 . S
C638 C637 1.376 . S
C638 C639 1.388 . S
C639 H626 0.930 . S
C639 C638 1.388 . S
C639 C640 1.390 . S
C640 C639 1.390 . S
C640 C641 1.394 . S
C640 C646 1.465 . S
C641 C636 1.399 . S
C641 C640 1.394 . S
C641 C642 1.516 . S
C642 C641 1.516 . S
C642 C643 1.502 . S
C642 C644 1.561 . S
C642 C645 1.526 . S
C643 H627 0.959 . S
C643 H628 0.959 . S
C643 H629 0.961 . S
C643 C642 1.502 . S
C644 H630 0.947 1_556 S
C644 H631 0.961 . S
C644 H632 0.959 . S
C644 C642 1.561 . S
C645 C642 1.526 . S
C645 C646 1.396 . S
C645 C650 1.390 . S
C646 C640 1.465 . S
C646 C645 1.396 . S
C646 C647 1.399 . S
C647 H633 0.929 . S
C647 C646 1.399 . S
C647 C648 1.385 . S
C648 H634 0.931 . S
C648 C647 1.385 . S
C648 C649 1.389 . S
C649 C648 1.389 . S
C649 C650 1.387 . S
C650 H635 0.930 . S
C650 C645 1.390 . S
C650 C649 1.387 . S
H651 C663 0.930 . S
H652 C665 0.930 . S
H653 C666 0.930 . S
H654 C670 0.959 . S
H655 C670 0.959 . S
H656 C670 0.961 . S
H657 C671 0.960 . S
H658 C671 0.961 . S
H659 C671 0.959 . S
H660 C674 0.929 . S
H661 C675 0.931 . S
H662 C677 0.930 . S
C663 H651 0.930 . S
C663 C664 1.399 . S
C663 C668 1.399 . S
C664 C663 1.399 . S
C664 C665 1.376 . S
C665 H652 0.930 . S
C665 C664 1.376 . S
C665 C666 1.388 . S
C666 H653 0.930 . S
C666 C665 1.388 . S
C666 C667 1.390 . S
C667 C666 1.390 . S
C667 C668 1.394 . S
C667 C673 1.465 . S
C668 C663 1.399 . S
C668 C667 1.394 . S
C668 C669 1.516 . S
C669 C668 1.516 . S
C669 C670 1.502 . S
C669 C671 1.561 . S
C669 C672 1.526 . S
C670 H654 0.959 . S
C670 H655 0.959 . S
C670 H656 0.961 . S
C670 C669 1.502 . S
C671 H657 0.960 . S
C671 H658 0.961 . S
C671 H659 0.959 . S
C671 C669 1.561 . S
C672 C669 1.526 . S
C672 C673 1.396 . S
C672 C677 1.390 . S
C673 C667 1.465 . S
C673 C672 1.396 . S
C673 C674 1.399 . S
C674 H660 0.929 . S
C674 C673 1.399 . S
C674 C675 1.385 . S
C675 H661 0.931 . S
C675 C674 1.385 . S
C675 C676 1.389 . S
C676 C675 1.389 . S
C676 C677 1.387 . S
C677 H662 0.930 . S
C677 C672 1.390 . S
C677 C676 1.387 . S
H678 C690 0.930 . S
H679 C692 0.930 . S
H680 C693 0.930 . S
H681 C697 0.959 . S
H682 C697 0.959 . S
H683 C697 0.961 . S
H684 C698 0.960 . S
H685 C698 0.961 . S
H686 C698 0.959 . S
H687 C701 0.929 . S
H688 C702 0.931 . S
H689 C704 0.930 . S
C690 H678 0.930 . S
C690 C691 1.399 . S
C690 C695 1.399 . S
C691 C690 1.399 . S
C691 C692 1.376 . S
C692 H679 0.930 . S
C692 C691 1.376 . S
C692 C693 1.388 . S
C693 H680 0.930 . S
C693 C692 1.388 . S
C693 C694 1.390 . S
C694 C693 1.390 . S
C694 C695 1.394 . S
C694 C700 1.465 . S
C695 C690 1.399 . S
C695 C694 1.394 . S
C695 C696 1.516 . S
C696 C695 1.516 . S
C696 C697 1.502 . S
C696 C698 1.561 . S
C696 C699 1.526 . S
C697 H681 0.959 . S
C697 H682 0.959 . S
C697 H683 0.961 . S
C697 C696 1.502 . S
C698 H684 0.960 . S
C698 H685 0.961 . S
C698 H686 0.959 . S
C698 C696 1.561 . S
C699 C696 1.526 . S
C699 C700 1.396 . S
C699 C704 1.390 . S
C700 C694 1.465 . S
C700 C699 1.396 . S
C700 C701 1.399 . S
C701 H687 0.929 . S
C701 C700 1.399 . S
C701 C702 1.385 . S
C702 H688 0.931 . S
C702 C701 1.385 . S
C702 C703 1.389 . S
C703 C702 1.389 . S
C703 C704 1.387 . S
C704 H689 0.930 . S
C704 C699 1.390 . S
C704 C703 1.387 . S
H705 C717 0.930 . S
H706 C719 0.930 . S
H707 C720 0.930 . S
H708 C724 0.959 . S
H709 C724 0.959 . S
H710 C724 0.961 . S
H711 C725 0.960 . S
H712 C725 0.961 . S
H713 C725 0.959 . S
H714 C728 0.929 . S
H715 C729 0.931 . S
H716 C731 0.930 . S
C717 H705 0.930 . S
C717 C718 1.399 . S
C717 C722 1.399 . S
C718 C717 1.399 . S
C718 C719 1.376 . S
C719 H706 0.930 . S
C719 C718 1.376 . S
C719 C720 1.388 . S
C720 H707 0.930 . S
C720 C719 1.388 . S
C720 C721 1.390 . S
C721 C720 1.390 . S
C721 C722 1.394 . S
C721 C727 1.465 . S
C722 C717 1.399 . S
C722 C721 1.394 . S
C722 C723 1.516 . S
C723 C722 1.516 . S
C723 C724 1.502 . S
C723 C725 1.561 . S
C723 C726 1.526 . S
C724 H708 0.959 . S
C724 H709 0.959 . S
C724 H710 0.961 . S
C724 C723 1.502 . S
C725 H711 0.960 . S
C725 H712 0.961 . S
C725 H713 0.959 . S
C725 C723 1.561 . S
C726 C723 1.526 . S
C726 C727 1.396 . S
C726 C731 1.390 . S
C727 C721 1.465 . S
C727 C726 1.396 . S
C727 C728 1.399 . S
C728 H714 0.929 . S
C728 C727 1.399 . S
C728 C729 1.385 . S
C729 H715 0.931 . S
C729 C728 1.385 . S
C729 C730 1.389 . S
C730 C729 1.389 . S
C730 C731 1.387 . S
C731 H716 0.930 . S
C731 C726 1.390 . S
C731 C730 1.387 . S
H732 C744 0.930 . S
H733 C746 0.930 . S
H734 C747 0.930 . S
H735 C751 0.959 . S
H736 C751 0.959 . S
H737 C751 0.961 . S
H738 C752 0.960 . S
H739 C752 0.961 . S
H740 C752 0.959 . S
H741 C755 0.929 . S
H742 C756 0.931 . S
H743 C758 0.930 . S
C744 H732 0.930 . S
C744 C745 1.399 . S
C744 C749 1.399 . S
C745 C744 1.399 . S
C745 C746 1.376 . S
C746 H733 0.930 . S
C746 C745 1.376 . S
C746 C747 1.388 . S
C747 H734 0.930 . S
C747 C746 1.388 . S
C747 C748 1.390 . S
C748 C747 1.390 . S
C748 C749 1.394 . S
C748 C754 1.465 . S
C749 C744 1.399 . S
C749 C748 1.394 . S
C749 C750 1.516 . S
C750 C749 1.516 . S
C750 C751 1.502 . S
C750 C752 1.561 . S
C750 C753 1.526 . S
C751 H735 0.959 . S
C751 H736 0.959 . S
C751 H737 0.961 . S
C751 C750 1.502 . S
C752 H738 0.960 . S
C752 H739 0.961 . S
C752 H740 0.959 . S
C752 C750 1.561 . S
C753 C750 1.526 . S
C753 C754 1.396 . S
C753 C758 1.390 . S
C754 C748 1.465 . S
C754 C753 1.396 . S
C754 C755 1.399 . S
C755 H741 0.929 . S
C755 C754 1.399 . S
C755 C756 1.385 . S
C756 H742 0.931 . S
C756 C755 1.385 . S
C756 C757 1.389 . S
C757 C756 1.389 . S
C757 C758 1.387 . S
C758 H743 0.930 . S
C758 C753 1.390 . S
C758 C757 1.387 . S
H759 C771 0.930 . S
H760 C773 0.930 . S
H761 C774 0.930 . S
H762 C778 0.959 . S
H763 C778 0.959 . S
H764 C778 0.961 . S
H765 C779 0.960 . S
H766 C779 0.961 . S
H767 C779 0.959 . S
H768 C782 0.929 . S
H769 C783 0.931 . S
H770 C785 0.930 . S
C771 H759 0.930 . S
C771 C772 1.399 . S
C771 C776 1.399 . S
C772 C771 1.399 . S
C772 C773 1.376 . S
C773 H760 0.930 . S
C773 C772 1.376 . S
C773 C774 1.388 . S
C774 H761 0.930 . S
C774 C773 1.388 . S
C774 C775 1.390 . S
C775 C774 1.390 . S
C775 C776 1.394 . S
C775 C781 1.465 . S
C776 C771 1.399 . S
C776 C775 1.394 . S
C776 C777 1.516 . S
C777 C776 1.516 . S
C777 C778 1.502 . S
C777 C779 1.561 . S
C777 C780 1.526 . S
C778 H762 0.959 . S
C778 H763 0.959 . S
C778 H764 0.961 . S
C778 C777 1.502 . S
C779 H765 0.960 . S
C779 H766 0.961 . S
C779 H767 0.959 . S
C779 C777 1.561 . S
C780 C777 1.526 . S
C780 C781 1.396 . S
C780 C785 1.390 . S
C781 C775 1.465 . S
C781 C780 1.396 . S
C781 C782 1.399 . S
C782 H768 0.929 . S
C782 C781 1.399 . S
C782 C783 1.385 . S
C783 H769 0.931 . S
C783 C782 1.385 . S
C783 C784 1.389 . S
C784 C783 1.389 . S
C784 C785 1.387 . S
C785 H770 0.930 . S
C785 C780 1.390 . S
C785 C784 1.387 . S
H786 C798 0.930 . S
H787 C800 0.930 . S
H788 C801 0.930 . S
H789 C805 0.959 . S
H790 C805 0.959 . S
H791 C805 0.961 . S
H792 C806 0.960 . S
H793 C806 0.961 . S
H794 C806 0.959 . S
H795 C809 0.929 . S
H796 C810 0.931 . S
H797 C812 0.930 . S
C798 H786 0.930 . S
C798 C799 1.399 . S
C798 C803 1.399 . S
C799 C798 1.399 . S
C799 C800 1.376 . S
C800 H787 0.930 . S
C800 C799 1.376 . S
C800 C801 1.388 . S
C801 H788 0.930 . S
C801 C800 1.388 . S
C801 C802 1.390 . S
C802 C801 1.390 . S
C802 C803 1.394 . S
C802 C808 1.465 . S
C803 C798 1.399 . S
C803 C802 1.394 . S
C803 C804 1.516 . S
C804 C803 1.516 . S
C804 C805 1.502 . S
C804 C806 1.561 . S
C804 C807 1.526 . S
C805 H789 0.959 . S
C805 H790 0.959 . S
C805 H791 0.961 . S
C805 C804 1.502 . S
C806 H792 0.960 . S
C806 H793 0.961 . S
C806 H794 0.959 . S
C806 C804 1.561 . S
C807 C804 1.526 . S
C807 C808 1.396 . S
C807 C812 1.390 . S
C808 C802 1.465 . S
C808 C807 1.396 . S
C808 C809 1.399 . S
C809 H795 0.929 . S
C809 C808 1.399 . S
C809 C810 1.385 . S
C810 H796 0.931 . S
C810 C809 1.385 . S
C810 C811 1.389 . S
C811 C810 1.389 . S
C811 C812 1.387 . S
C812 H797 0.930 . S
C812 C807 1.390 . S
C812 C811 1.387 . S
H813 C825 0.930 . S
H814 C827 0.930 . S
H815 C828 0.930 . S
H816 C832 0.959 . S
H817 C832 0.959 . S
H818 C832 0.961 . S
H819 C833 0.960 . S
H820 C833 0.961 . S
H821 C833 0.959 . S
H822 C836 0.929 . S
H823 C837 0.931 . S
H824 C839 0.930 . S
C825 H813 0.930 . S
C825 C826 1.399 . S
C825 C830 1.399 . S
C826 C825 1.399 . S
C826 C827 1.376 . S
C827 H814 0.930 . S
C827 C826 1.376 . S
C827 C828 1.388 . S
C828 H815 0.930 . S
C828 C827 1.388 . S
C828 C829 1.390 . S
C829 C828 1.390 . S
C829 C830 1.394 . S
C829 C835 1.465 . S
C830 C825 1.399 . S
C830 C829 1.394 . S
C830 C831 1.516 . S
C831 C830 1.516 . S
C831 C832 1.502 . S
C831 C833 1.561 . S
C831 C834 1.526 . S
C832 H816 0.959 . S
C832 H817 0.959 . S
C832 H818 0.961 . S
C832 C831 1.502 . S
C833 H819 0.960 . S
C833 H820 0.961 . S
C833 H821 0.959 . S
C833 C831 1.561 . S
C834 C831 1.526 . S
C834 C835 1.396 . S
C834 C839 1.390 . S
C835 C829 1.465 . S
C835 C834 1.396 . S
C835 C836 1.399 . S
C836 H822 0.929 . S
C836 C835 1.399 . S
C836 C837 1.385 . S
C837 H823 0.931 . S
C837 C836 1.385 . S
C837 C838 1.389 . S
C838 C837 1.389 . S
C838 C839 1.387 . S
C839 H824 0.930 . S
C839 C834 1.390 . S
C839 C838 1.387 . S
C205 C13 1.573 . S
C217 C98 1.526 . S
C232 C27 1.583 . S
C244 C109 1.557 . S
C271 C128 1.550 . S
C259 C29 1.571 . S
C298 C145 1.516 . S
C286 C54 1.580 . S
C325 C172 1.480 . S
C313 C69 1.587 . S
C352 C181 1.560 . S
C340 C83 1.581 . S
C367 C15 1.583 . S
C379 C134 1.541 . S
C394 C41 1.577 . S
C406 C154 1.557 . S
C433 C163 1.484 . S
C421 C42 1.593 . S
C460 C190 1.503 . S
C448 C57 1.583 . S
C475 C71 1.582 . S
C487 C92 1.479 . S
C514 C118 1.560 . S
C502 C1 1.575 . S
C541 C146 1.509 . S
C529 C12 1.644 . S
C556 C26 1.642 . S
C568 C170 1.548 . S
C595 C182 1.530 . S
C583 C28 1.629 . S
C610 C55 1.646 . S
C622 C100 1.582 . S
C637 C68 1.633 . S
C649 C110 1.529 . S
C664 C82 1.641 . S
C676 C127 1.521 . S
C691 C14 1.635 . S
C703 C188 1.548 . S
C730 C91 1.581 . S
C718 C40 1.635 . S
C745 C43 1.650 . S
C757 C116 1.599 . S
C772 C56 1.653 . S
C784 C136 1.544 . S
C799 C70 1.639 . S
C811 C152 1.602 . S
C826 C0 1.637 . S
C838 C164 1.530 . S
