# Generated by pormake.
# Topology tsx, (6,3)-cn, num edge types: 1
# Building blocks:
#     Node 0, Type 0, BuildingBlock: FUNLAD_clean_sbu_0, # of connection points: 6
#     Node 1, Type 0, BuildingBlock: FUNLAD_clean_sbu_0, # of connection points: 6
#     Node 2, Type 1, BuildingBlock: QEWDON_clean_linker_0, # of connection points: 3
#     Node 3, Type 1, BuildingBlock: QEWDON_clean_linker_0, # of connection points: 3
#     Node 4, Type 1, BuildingBlock: QEWDON_clean_linker_0, # of connection points: 3
#     Node 5, Type 1, BuildingBlock: QEWDON_clean_linker_0, # of connection points: 3
#     Edge 6, Type (0, 1), BuildingBlock: KIFKEQ_clean_linker_1, # of connection points: 2
#     Edge 7, Type (0, 1), BuildingBlock: KIFKEQ_clean_linker_1, # of connection points: 2
#     Edge 8, Type (0, 1), BuildingBlock: KIFKEQ_clean_linker_1, # of connection points: 2
#     Edge 9, Type (0, 1), BuildingBlock: KIFKEQ_clean_linker_1, # of connection points: 2
#     Edge 10, Type (0, 1), BuildingBlock: KIFKEQ_clean_linker_1, # of connection points: 2
#     Edge 11, Type (0, 1), BuildingBlock: KIFKEQ_clean_linker_1, # of connection points: 2
#     Edge 12, Type (0, 1), BuildingBlock: KIFKEQ_clean_linker_1, # of connection points: 2
#     Edge 13, Type (0, 1), BuildingBlock: KIFKEQ_clean_linker_1, # of connection points: 2
#     Edge 14, Type (0, 1), BuildingBlock: KIFKEQ_clean_linker_1, # of connection points: 2
#     Edge 15, Type (0, 1), BuildingBlock: KIFKEQ_clean_linker_1, # of connection points: 2
#     Edge 16, Type (0, 1), BuildingBlock: KIFKEQ_clean_linker_1, # of connection points: 2
#     Edge 17, Type (0, 1), BuildingBlock: KIFKEQ_clean_linker_1, # of connection points: 2
# Relax obj value: 0.120
# Max RMSD: 0.176
# Mean RMSD: 0.151
data_MOF--net-tsx--node1-FUNLAD_clean_sbu_0--node2-QEWDON_clean_linker_0--edge1-KIFKEQ_clean_linker_1
_symmetry_space_group_name_H-M    P1
_symmetry_Int_Tables_number       1
_symmetry_cell_setting            triclinic
loop_
_symmetry_equiv_pos_as_xyz
'x, y, z'
_cell_length_a     19.633001
_cell_length_b     22.771069
_cell_length_c     36.745151
_cell_angle_alpha  90.957561
_cell_angle_beta   105.449
_cell_angle_gamma 89.548648
loop_
_atom_site_label
_atom_site_type_symbol
_atom_site_fract_x
_atom_site_fract_y
_atom_site_fract_z
_atom_type_partial_charge
C0 C 0.92982 0.91744 1.02685 0.0
N1 N 1.04698 0.99587 0.1316 0.0
C2 C 0.98563 1.00054 0.14209 0.0
C3 C 0.98653 1.00513 0.18025 0.0
C4 C 0.05117 1.00415 0.20838 0.0
C5 C 0.11364 0.99763 0.19666 0.0
C6 C 0.11035 0.99394 0.15809 0.0
Zn7 Zn 1.04206 0.9986 0.07449 0.0
C8 C 0.14294 0.91575 0.05247 0.0
N9 N 1.02596 0.01045 0.95446 0.0
C10 C 0.9623 0.00677 0.92823 0.0
C11 C 0.08555 0.02254 0.94371 0.0
C12 C 0.08225 0.03334 0.90586 0.0
C13 C 1.01724 0.03015 0.87792 0.0
C14 C 0.9569 0.01565 0.88986 0.0
Zn15 Zn 1.03216 1.00337 1.01196 0.0
O16 O 0.95864 0.9331 0.06103 0.0
C17 C 0.93827 0.09036 0.03814 0.0
O18 O 0.9518 0.93953 1.00054 0.0
H19 H 0.13599 0.02511 0.96461 0.0
H20 H 0.93564 1.0022 0.12077 0.0
H21 H 0.9152 0.99749 0.93704 0.0
O22 O 0.96712 0.06479 0.06874 0.0
O23 O 0.95344 0.07339 1.0079 0.0
H24 H 0.15866 0.99043 0.14933 0.0
O25 O 0.11118 0.06583 1.02398 0.0
O26 O 0.12346 0.065 0.08519 0.0
O27 O 0.11395 0.93565 1.01956 0.0
O28 O 0.12026 0.93308 0.08021 0.0
C29 C 0.14173 0.08442 0.05687 0.0
H30 H 0.93686 0.01091 0.18741 0.0
H31 H 0.16481 0.99536 0.21701 0.0
H32 H 0.13052 0.04534 0.89902 0.0
H33 H 0.90559 0.01098 0.86991 0.0
C34 C 0.52969 0.39675 0.53882 0.0
N35 N 0.64906 0.49469 0.63503 0.0
C36 C 0.59136 0.48998 0.64869 0.0
C37 C 0.5966 0.50102 0.68693 0.0
C38 C 0.66168 0.51797 0.71163 0.0
C39 C 0.72061 0.52142 0.69676 0.0
C40 C 0.71318 0.50932 0.6584 0.0
Zn41 Zn 0.63735 0.48655 0.57742 0.0
C42 C 0.74351 0.40408 0.55976 0.0
N43 N 0.61347 0.47807 0.45699 0.0
C44 C 0.54675 0.47932 0.43365 0.0
C45 C 0.67066 0.48118 0.44272 0.0
C46 C 0.66185 0.48756 0.40383 0.0
C47 C 0.59349 0.49112 0.37921 0.0
C48 C 0.53557 0.48579 0.39468 0.0
Zn49 Zn 0.62641 0.48103 0.51496 0.0
O50 O 0.5606 0.41664 0.57174 0.0
C51 C 0.5248 0.56501 0.53636 0.0
O52 O 0.54983 0.41425 0.51066 0.0
H53 H 0.72333 0.48071 0.46166 0.0
H54 H 0.54066 0.47875 0.62976 0.0
H55 H 0.50183 0.47699 0.44537 0.0
O56 O 0.55598 0.54609 0.56872 0.0
O57 O 0.54319 0.54585 0.50759 0.0
H58 H 0.7585 0.51309 0.64713 0.0
O59 O 0.69956 0.54893 0.51926 0.0
O60 O 0.70964 0.55884 0.57991 0.0
O61 O 0.71255 0.41726 0.52561 0.0
O62 O 0.72107 0.42632 0.58636 0.0
C63 C 0.72534 0.57591 0.55027 0.0
H64 H 0.5498 0.49638 0.6969 0.0
H65 H 0.77178 0.53492 0.71426 0.0
H66 H 0.70816 0.49184 0.39339 0.0
H67 H 0.48188 0.48715 0.37688 0.0
H68 H 0.12273 0.07104 0.51403 0.0
C69 C 0.1483 0.02912 0.51913 0.0
C70 C 0.13892 0.98884 0.48875 0.0
C71 C 0.19416 0.01661 0.55501 0.0
H72 H 0.16991 0.90406 0.4716 0.0
C73 C 0.17408 0.93482 0.49496 0.0
C74 C 0.21944 0.92151 0.53011 0.0
C75 C 0.22891 0.96191 0.56023 0.0
C76 C 0.21422 0.06366 0.58476 0.0
H77 H 0.26609 0.95201 0.58703 0.0
C78 C 0.1628 0.10014 0.59395 0.0
C79 C 0.18214 0.15295 0.61475 0.0
C80 C 0.28594 0.07706 0.60061 0.0
H81 H 0.32703 0.05016 0.5941 0.0
C82 C 0.30546 0.12734 0.62327 0.0
H83 H 0.10786 0.08919 0.58266 0.0
C84 C 0.25392 0.16596 0.62948 0.0
H85 H 0.26999 0.20658 0.64506 0.0
H86 H 0.36083 0.13781 0.63461 0.0
H87 H 0.98623 0.13878 0.57812 0.0
C88 C 0.9669 0.09538 0.56931 0.0
C89 C 0.95539 0.05602 0.59629 0.0
C90 C 0.95567 0.07783 0.53098 0.0
H91 H 0.91732 0.97088 0.60507 0.0
C92 C 0.9271 1.00089 0.58437 0.0
C93 C 0.91246 0.98301 0.54659 0.0
C94 C 0.92868 0.02062 0.52009 0.0
C95 C 0.97423 0.1177 0.50263 0.0
H96 H 0.92028 1.00506 0.49123 0.0
C97 C 1.03359 0.15552 0.51263 0.0
C98 C 0.05729 0.18606 0.48509 0.0
C99 C 0.93492 0.11568 0.46454 0.0
H100 H 0.8879 0.08895 0.45553 0.0
C101 C 0.95565 0.14811 0.43738 0.0
H102 H 0.06375 0.15908 0.54149 0.0
C103 C 1.01668 0.18237 0.44738 0.0
H104 H 1.03312 0.20462 0.42534 0.0
H105 H 0.92509 0.14552 0.40816 0.0
H106 H 0.69957 0.64629 1.00769 0.0
C107 C 0.70299 0.60115 1.01616 0.0
C108 C 0.70126 0.55602 0.98945 0.0
C109 C 0.70654 0.58812 0.05394 0.0
H110 H 0.70935 0.46354 0.98064 0.0
C111 C 0.708 0.49796 1.00124 0.0
C112 C 0.71618 0.48366 0.0391 0.0
C113 C 0.71465 0.52903 0.06563 0.0
C114 C 0.69855 0.6371 0.0799 0.0
H115 H 0.71941 0.51852 0.09485 0.0
C116 C 0.63075 0.6555 0.08149 0.0
C117 C 0.61931 0.70862 0.0998 0.0
C118 C 0.75697 0.67088 0.09851 0.0
H119 H 0.80958 0.65838 0.09714 0.0
C120 C 0.74755 0.72224 0.11798 0.0
H121 H 0.58743 0.62847 0.06733 0.0
C122 C 0.6797 0.74146 0.11821 0.0
H123 H 0.67525 0.78318 0.13184 0.0
H124 H 0.79301 0.74855 0.13189 0.0
H125 H 0.49184 0.59464 0.07689 0.0
C126 C 0.48099 0.54971 0.06803 0.0
C127 C 0.4861 0.50736 0.096 0.0
C128 C 0.45552 0.53473 1.02923 0.0
H129 H 0.46471 0.41809 0.10687 0.0
C130 C 0.46383 0.45017 0.08521 0.0
C131 C 0.4334 0.43544 0.0473 0.0
C132 C 0.42969 0.47751 1.01925 0.0
C133 C 0.44625 0.58066 0.99973 0.0
H134 H 0.4047 0.46633 0.98996 0.0
C135 C 0.50441 0.61118 0.99347 0.0
C136 C 0.49395 0.66197 0.97096 0.0
C137 C 0.37779 0.59732 0.97956 0.0
H138 H 0.33217 0.5744 0.98347 0.0
C139 C 0.36741 0.64523 0.95534 0.0
H140 H 0.55734 0.59769 1.00791 0.0
C141 C 0.42493 0.67826 0.95175 0.0
H142 H 0.4155 0.71739 0.93474 0.0
H143 H 0.31429 0.65829 0.94048 0.0
H144 H 0.15783 0.18608 0.09872 0.0
H145 H 0.24486 0.08556 1.02104 0.0
H146 H 0.23195 0.26996 0.0926 0.0
H147 H 0.31989 0.16847 1.01568 0.0
H148 H 0.48802 0.3248 0.05669 0.0
H149 H 0.42238 0.23506 0.06132 0.0
H150 H 0.22666 0.33264 1.02962 0.0
H151 H 0.29212 0.42175 1.02407 0.0
C152 C 0.19438 0.18144 0.08135 0.0
C153 C 0.19614 0.12965 0.06048 0.0
C154 C 0.23595 0.22939 0.07747 0.0
C155 C 0.28076 0.22553 0.05332 0.0
C156 C 0.28569 0.17242 0.03439 0.0
C157 C 0.24308 0.12511 0.03759 0.0
C158 C 0.43079 0.32623 0.04931 0.0
C159 C 0.39473 0.37953 0.03935 0.0
C160 C 0.39347 0.27534 0.0524 0.0
C161 C 0.31984 0.27757 0.04653 0.0
C162 C 0.28358 0.33023 0.0348 0.0
C163 C 0.32073 0.38076 1.03094 0.0
H164 H 0.21306 0.87264 1.00185 0.0
H165 H 0.22099 0.87451 0.12048 0.0
H166 H 0.32552 0.81949 1.0159 0.0
H167 H 0.33286 0.8213 0.13439 0.0
H168 H 0.57309 0.7899 0.14657 0.0
H169 H 0.45746 0.83629 0.13554 0.0
H170 H 0.37886 0.72511 0.03742 0.0
H171 H 0.4935 0.68184 0.04705 0.0
C172 C 0.23812 0.86105 1.03081 0.0
C173 C 0.20746 0.87783 0.0599 0.0
C174 C 0.30273 0.83051 0.03894 0.0
C175 C 0.33869 0.81623 0.0764 0.0
C176 C 0.30737 0.83217 0.10534 0.0
C177 C 0.24265 0.86228 0.09721 0.0
C178 C 0.53192 0.77538 0.1223 0.0
C179 C 0.54538 0.73199 0.09709 0.0
C180 C 0.46477 0.80175 0.11631 0.0
C181 C 0.40875 0.78539 0.08506 0.0
C182 C 0.42077 0.73999 0.06135 0.0
C183 C 0.48736 0.71385 0.06747 0.0
H184 H 0.85838 0.87634 0.95671 0.0
H185 H 0.86071 0.86699 0.07437 0.0
H186 H 0.75134 0.8172 0.93943 0.0
H187 H 0.75422 0.80688 0.05707 0.0
H188 H 0.52311 0.76253 1.01259 0.0
H189 H 0.63017 0.82082 1.0261 0.0
H190 H 0.69968 0.72134 0.94139 0.0
H191 H 0.59249 0.66071 0.92979 0.0
C192 C 0.83656 0.86115 0.979 0.0
C193 C 0.8682 0.87685 1.01701 0.0
C194 C 0.77514 0.82695 0.96902 0.0
C195 C 0.74344 0.80766 0.99673 0.0
C196 C 0.7763 0.8219 0.03485 0.0
C197 C 0.8378 0.85603 0.04486 0.0
C198 C 0.56263 0.75139 0.99816 0.0
C199 C 0.55311 0.70336 0.97298 0.0
C200 C 0.62368 0.78547 1.00539 0.0
C201 C 0.67559 0.77413 0.98621 0.0
C202 C 0.66181 0.73049 0.95746 0.0
C203 C 0.60106 0.6952 0.95106 0.0
H204 H 0.86236 0.15921 0.97973 0.0
H205 H 0.9125 0.14048 0.1009 0.0
H206 H 0.79766 0.25022 0.98529 0.0
H207 H 0.84932 0.23096 0.10619 0.0
H208 H 0.82771 0.43938 0.09307 0.0
H209 H 0.87347 0.33879 0.09453 0.0
H210 H 0.68867 0.28719 1.00694 0.0
H211 H 0.64216 0.38718 1.00624 0.0
C212 C 0.85898 0.17397 1.00738 0.0
C213 C 0.89291 0.14247 0.03976 0.0
C214 C 0.82184 0.22594 1.0106 0.0
C215 C 0.81877 0.24776 0.04627 0.0
C216 C 0.85123 0.21553 0.07842 0.0
C217 C 0.88727 0.16344 0.07521 0.0
C218 C 0.79548 0.40595 0.07541 0.0
C219 C 0.73165 0.4212 0.04942 0.0
C220 C 0.82199 0.3485 0.07587 0.0
C221 C 0.78534 0.30556 0.05014 0.0
C222 C 0.7187 0.31967 1.02648 0.0
C223 C 0.69179 0.37668 1.02644 0.0
H224 H 0.75651 0.66239 0.60477 0.0
H225 H 0.78194 0.61516 0.49476 0.0
H226 H 0.80254 0.7602 0.59918 0.0
H227 H 0.82794 0.7131 0.48927 0.0
H228 H 0.96776 0.88735 0.51778 0.0
H229 H 0.92902 0.78483 0.51829 0.0
H230 H 0.75007 0.84396 0.55666 0.0
H231 H 0.78849 0.94536 0.55596 0.0
C232 C 0.77319 0.67242 0.57975 0.0
C233 C 0.76507 0.63105 0.55015 0.0
C234 C 0.79889 0.72865 0.57635 0.0
C235 C 0.81768 0.74463 0.54346 0.0
C236 C 0.81376 0.70215 0.51487 0.0
C237 C 0.78735 0.64607 0.51808 0.0
C238 C 0.91895 0.87824 0.52505 0.0
C239 C 0.88091 0.92403 0.53672 0.0
C240 C 0.89717 0.81971 0.52574 0.0
C241 C 0.83749 0.80635 0.53846 0.0
C242 C 0.79722 0.8527 0.54766 0.0
C243 C 0.81859 0.91078 0.54674 0.0
H244 H 0.81955 0.35784 0.51274 0.0
H245 H 0.81553 0.36675 0.6297 0.0
H246 H 0.93077 0.3028 0.53094 0.0
H247 H 0.92672 0.31335 0.64782 0.0
H248 H 0.08377 0.15486 0.65552 0.0
H249 H 0.97926 0.21906 0.64492 0.0
H250 H 0.05517 0.3174 0.56433 0.0
H251 H 0.1609 0.25583 0.57708 0.0
C252 C 0.84209 0.34792 0.54224 0.0
C253 C 0.80831 0.36676 0.56964 0.0
C254 C 0.90633 0.31697 0.55279 0.0
C255 C 0.93833 0.30413 0.59099 0.0
C256 C 0.90369 0.32204 0.61819 0.0
C257 C 0.83974 0.35289 0.60769 0.0
C258 C 0.0781 0.19076 0.63601 0.0
C259 C 0.12789 0.19839 0.61538 0.0
C260 C 1.01843 0.22748 0.62983 0.0
C261 C 1.00685 0.27137 0.60221 0.0
C262 C 0.06056 0.2823 0.58444 0.0
C263 C 0.12117 0.24703 0.59169 0.0
H264 H 0.43689 0.36914 0.4711 0.0
H265 H 0.47249 0.34389 0.591 0.0
H266 H 0.32306 0.32026 0.45944 0.0
H267 H 0.3582 0.29383 0.57902 0.0
H268 H 0.18452 0.15177 0.53213 0.0
H269 H 0.29802 0.2005 0.54644 0.0
H270 H 0.20404 0.34154 0.47267 0.0
H271 H 0.08895 0.2929 0.45926 0.0
C272 C 0.42103 0.35245 0.49504 0.0
C273 C 0.46443 0.36035 0.53208 0.0
C274 C 0.3552 0.32494 0.48828 0.0
C275 C 0.33111 0.30366 0.51827 0.0
C276 C 0.37527 0.30973 0.55527 0.0
C277 C 0.44087 0.33825 0.56213 0.0
C278 C 0.18719 0.19332 0.51939 0.0
C279 C 0.12661 0.21812 0.49488 0.0
C280 C 0.25278 0.22147 0.52758 0.0
C281 C 0.26036 0.275 0.51076 0.0
C282 C 0.20016 0.30006 0.48597 0.0
C283 C 0.13414 0.27213 0.47826 0.0
H284 H 0.44981 0.62327 0.47323 0.0
H285 H 0.47886 0.6124 0.59381 0.0
H286 H 0.36997 0.70683 0.47141 0.0
H287 H 0.40222 0.69638 0.59221 0.0
H288 H 0.21982 0.82587 0.57383 0.0
H289 H 0.28505 0.73386 0.57285 0.0
H290 H 0.38294 0.80762 0.49152 0.0
H291 H 0.31584 0.898 0.49173 0.0
C292 C 0.43885 0.63841 0.4992 0.0
C293 C 0.47113 0.6116 0.53363 0.0
C294 C 0.39363 0.68647 0.49827 0.0
C295 C 0.38031 0.70862 0.53177 0.0
C296 C 0.41057 0.68018 0.56585 0.0
C297 C 0.45513 0.63216 0.56674 0.0
C298 C 0.25584 0.82208 0.55611 0.0
C299 C 0.26342 0.86843 0.53298 0.0
C300 C 0.29297 0.76963 0.55538 0.0
C301 C 0.3387 0.76321 0.53178 0.0
C302 C 0.34692 0.81046 0.50927 0.0
C303 C 0.30938 0.86242 0.50975 0.0
H304 H 0.15246 0.0579 0.26575 0.0
H305 H 0.95438 0.96489 0.24479 0.0
H306 H 0.15913 0.06297 0.33264 0.0
H307 H 0.95831 0.97415 0.31118 0.0
H308 H 1.04584 0.92217 0.43613 0.0
H309 H 1.01651 0.93269 0.36816 0.0
H310 H 0.11857 0.1023 0.38275 0.0
H311 H 0.15146 0.08971 0.45115 0.0
C312 C 0.11002 0.0387 0.27522 0.0
C313 C 0.05333 0.01025 0.24944 0.0
C314 C 0.11314 0.04273 0.31375 0.0
C315 C 0.05928 0.019 0.32778 0.0
C316 C 1.00146 0.99226 0.30182 0.0
C317 C 0.99876 0.9876 0.26338 0.0
C318 C 0.06076 0.96228 0.42483 0.0
C319 C 0.10217 1.00451 0.44907 0.0
C320 C 1.04361 0.96858 0.38565 0.0
C321 C 0.06652 0.01779 0.36949 0.0
C322 C 0.10184 0.0629 0.39396 0.0
C323 C 0.11961 0.05626 0.4333 0.0
H324 H 0.12071 0.01596 0.8397 0.0
H325 H 0.90332 0.07181 0.82187 0.0
H326 H 0.11417 0.03625 0.77478 0.0
H327 H 0.89431 0.08502 0.75562 0.0
H328 H 0.89487 0.1321 0.63759 0.0
H329 H 0.91531 0.13478 0.70634 0.0
H330 H 0.07618 1.00047 0.71571 0.0
H331 H 0.05908 1.00218 0.64803 0.0
C332 C 0.07122 0.03255 0.82223 0.0
C333 C 1.01258 0.04185 0.83698 0.0
C334 C 0.06699 0.04314 0.78422 0.0
C335 C 1.00333 0.06168 0.75898 0.0
C336 C 0.94479 0.07152 0.77372 0.0
C337 C 0.94957 0.06247 0.81204 0.0
C338 C 0.9364 0.10508 0.65479 0.0
C339 C 0.97641 0.06789 0.63765 0.0
C340 C 0.94732 0.1055 0.69423 0.0
C341 C 0.99709 0.0673 0.71735 0.0
C342 C 1.0384 0.03157 0.69976 0.0
C343 C 1.02852 0.03223 0.66066 0.0
H344 H 0.77461 0.49899 0.77366 0.0
H345 H 0.56266 0.57062 0.74254 0.0
H346 H 0.7829 0.52085 0.83986 0.0
H347 H 0.57049 0.59009 0.80895 0.0
H348 H 0.58844 0.52459 0.93267 0.0
H349 H 0.57859 0.52387 0.86494 0.0
H350 H 0.78288 0.60668 0.88656 0.0
H351 H 0.79195 0.60806 0.95469 0.0
C352 C 0.73001 0.51999 0.78067 0.0
C353 C 0.6677 0.53251 0.75234 0.0
C354 C 0.73489 0.53251 0.81876 0.0
C355 C 0.67737 0.55722 0.82966 0.0
C356 C 0.61552 0.57058 0.80148 0.0
C357 C 0.61091 0.55882 0.76336 0.0
C358 C 0.63034 0.54398 0.92276 0.0
C359 C 0.69063 0.56689 0.94869 0.0
C360 C 0.62476 0.54362 0.88404 0.0
C361 C 0.68012 0.56491 0.87039 0.0
C362 C 0.73958 0.58964 0.89629 0.0
C363 C 0.74456 0.59098 0.93514 0.0
H364 H 0.66745 0.44506 0.33124 0.0
H365 H 0.49464 0.56231 0.33347 0.0
H366 H 0.64569 0.46008 0.26346 0.0
H367 H 0.47314 0.57754 0.26592 0.0
H368 H 0.39678 0.51981 0.14009 0.0
H369 H 0.42632 0.52248 0.20885 0.0
H370 H 0.64841 0.52793 0.21329 0.0
H371 H 0.61786 0.52435 0.14389 0.0
C372 C 0.62537 0.47461 0.31742 0.0
C373 C 0.5823 0.50184 0.33793 0.0
C374 C 0.61303 0.48345 0.27848 0.0
C375 C 0.55737 0.51988 0.25896 0.0
C376 C 0.51564 0.54834 0.27972 0.0
C377 C 0.52787 0.53943 0.31856 0.0
C378 C 0.45179 0.52329 0.15585 0.0
C379 C 0.50502 0.52257 0.13685 0.0
C380 C 0.4689 0.52475 0.19531 0.0
C381 C 0.5399 0.5251 0.21688 0.0
C382 C 0.59323 0.52693 0.19767 0.0
C383 C 0.57591 0.52571 0.15799 0.0
loop_
_geom_bond_atom_site_label_1
_geom_bond_atom_site_label_2
_geom_bond_distance
_geom_bond_site_symmetry_2
_ccdc_geom_bond_type
C0 O16 1.251 . S
C0 O18 1.254 1_554 S
N1 C2 1.333 1_545 S
N1 C6 1.307 . S
N1 Zn7 2.020 . S
C2 N1 1.333 1_565 S
C2 C3 1.379 . S
C2 H20 0.952 1_455 S
C3 C2 1.379 . S
C3 C4 1.390 1_565 S
C3 H30 0.949 1_455 S
C4 C3 1.390 1_545 S
C4 C5 1.357 . S
C5 C4 1.357 . S
C5 C6 1.370 . S
C5 H31 0.950 . S
C6 N1 1.307 . S
C6 C5 1.370 . S
C6 H24 0.948 . S
Zn7 N1 2.020 . S
Zn7 O16 2.039 1_445 S
Zn7 O22 2.034 1_455 S
Zn7 O26 2.025 . S
Zn7 O28 2.024 1_545 S
C8 O27 1.246 1_554 S
C8 O28 1.249 . S
N9 C10 1.307 1_445 S
N9 C11 1.333 . S
N9 Zn15 2.020 . S
C10 N9 1.307 1_665 S
C10 C14 1.370 . S
C10 H21 0.948 . S
C11 N9 1.333 . S
C11 C12 1.379 . S
C11 H19 0.952 . S
C12 C11 1.379 . S
C12 C13 1.390 1_455 S
C12 H32 0.949 . S
C13 C12 1.390 1_655 S
C13 C14 1.357 1_545 S
C14 C10 1.370 . S
C14 C13 1.357 1_565 S
C14 H33 0.950 . S
Zn15 N9 2.020 . S
Zn15 O18 2.025 1_445 S
Zn15 O23 2.024 1_455 S
Zn15 O25 2.039 . S
Zn15 O27 2.034 1_545 S
O16 C0 1.251 . S
O16 Zn7 2.039 1_665 S
C17 O22 1.246 . S
C17 O23 1.249 1_554 S
O18 C0 1.254 1_556 S
O18 Zn15 2.025 1_665 S
H19 C11 0.952 . S
H20 C2 0.952 1_655 S
H21 C10 0.948 . S
O22 Zn7 2.034 1_655 S
O22 C17 1.246 . S
O23 Zn15 2.024 1_655 S
O23 C17 1.249 1_556 S
H24 C6 0.948 . S
O25 Zn15 2.039 . S
O25 C29 1.251 1_556 S
O26 Zn7 2.025 . S
O26 C29 1.254 . S
O27 C8 1.246 1_556 S
O27 Zn15 2.034 1_565 S
O28 Zn7 2.024 1_565 S
O28 C8 1.249 . S
C29 O25 1.251 1_554 S
C29 O26 1.254 . S
H30 C3 0.949 1_655 S
H31 C5 0.950 . S
H32 C12 0.949 . S
H33 C14 0.950 . S
C34 O50 1.251 . S
C34 O52 1.254 . S
N35 C36 1.333 . S
N35 C40 1.307 . S
N35 Zn41 2.020 . S
C36 N35 1.333 . S
C36 C37 1.379 . S
C36 H54 0.952 . S
C37 C36 1.379 . S
C37 C38 1.390 . S
C37 H64 0.949 . S
C38 C37 1.390 . S
C38 C39 1.357 . S
C39 C38 1.357 . S
C39 C40 1.370 . S
C39 H65 0.950 . S
C40 N35 1.307 . S
C40 C39 1.370 . S
C40 H58 0.948 . S
Zn41 N35 2.020 . S
Zn41 O50 2.039 . S
Zn41 O56 2.034 . S
Zn41 O60 2.025 . S
Zn41 O62 2.024 . S
C42 O61 1.246 . S
C42 O62 1.249 . S
N43 C44 1.307 . S
N43 C45 1.333 . S
N43 Zn49 2.020 . S
C44 N43 1.307 . S
C44 C48 1.370 . S
C44 H55 0.948 . S
C45 N43 1.333 . S
C45 C46 1.379 . S
C45 H53 0.952 . S
C46 C45 1.379 . S
C46 C47 1.390 . S
C46 H66 0.949 . S
C47 C46 1.390 . S
C47 C48 1.357 . S
C48 C44 1.370 . S
C48 C47 1.357 . S
C48 H67 0.950 . S
Zn49 N43 2.020 . S
Zn49 O52 2.025 . S
Zn49 O57 2.024 . S
Zn49 O59 2.039 . S
Zn49 O61 2.034 . S
O50 C34 1.251 . S
O50 Zn41 2.039 . S
C51 O56 1.246 . S
C51 O57 1.249 . S
O52 C34 1.254 . S
O52 Zn49 2.025 . S
H53 C45 0.952 . S
H54 C36 0.952 . S
H55 C44 0.948 . S
O56 Zn41 2.034 . S
O56 C51 1.246 . S
O57 Zn49 2.024 . S
O57 C51 1.249 . S
H58 C40 0.948 . S
O59 Zn49 2.039 . S
O59 C63 1.251 . S
O60 Zn41 2.025 . S
O60 C63 1.254 . S
O61 C42 1.246 . S
O61 Zn49 2.034 . S
O62 Zn41 2.024 . S
O62 C42 1.249 . S
C63 O59 1.251 . S
C63 O60 1.254 . S
H64 C37 0.949 . S
H65 C39 0.950 . S
H66 C46 0.949 . S
H67 C48 0.950 . S
H68 C69 0.949 . S
C69 H68 0.949 . S
C69 C70 1.395 . S
C69 C71 1.391 . S
C70 C69 1.395 . S
C70 C73 1.390 1_545 S
C71 C69 1.391 . S
C71 C75 1.387 1_545 S
C71 C76 1.491 . S
H72 C73 0.950 . S
C73 C70 1.390 1_565 S
C73 H72 0.950 . S
C73 C74 1.378 . S
C74 C73 1.378 . S
C74 C75 1.409 . S
C75 C71 1.387 1_565 S
C75 C74 1.409 . S
C75 H77 0.951 . S
C76 C71 1.491 . S
C76 C78 1.382 1_455 S
C76 C80 1.404 . S
H77 C75 0.951 . S
C78 C76 1.382 1_655 S
C78 C79 1.390 . S
C78 H83 0.949 . S
C79 C78 1.390 . S
C79 C84 1.399 1_655 S
C80 C76 1.404 . S
C80 H81 0.950 . S
C80 C82 1.375 . S
H81 C80 0.950 . S
C82 C80 1.375 . S
C82 C84 1.382 . S
C82 H86 0.950 . S
H83 C78 0.949 . S
C84 C79 1.399 1_455 S
C84 C82 1.382 . S
C84 H85 0.952 . S
H85 C84 0.952 . S
H86 C82 0.950 . S
H87 C88 0.944 1_455 S
C88 H87 0.944 1_655 S
C88 C89 1.400 . S
C88 C90 1.391 . S
C89 C88 1.400 . S
C89 C92 1.390 1_545 S
C90 C88 1.391 . S
C90 C94 1.387 1_545 S
C90 C95 1.491 1_655 S
H91 C92 0.950 . S
C92 C89 1.390 1_565 S
C92 H91 0.950 . S
C92 C93 1.378 . S
C93 C92 1.378 . S
C93 C94 1.409 . S
C94 C90 1.387 1_565 S
C94 C93 1.409 . S
C94 H96 0.951 . S
C95 C90 1.491 1_455 S
C95 C97 1.382 . S
C95 C99 1.404 1_455 S
H96 C94 0.951 . S
C97 C95 1.382 . S
C97 C98 1.390 . S
C97 H102 0.949 . S
C98 C97 1.390 . S
C98 C103 1.399 . S
C99 C95 1.404 1_655 S
C99 H100 0.950 . S
C99 C101 1.375 . S
H100 C99 0.950 . S
C101 C99 1.375 . S
C101 C103 1.382 1_655 S
C101 H105 0.950 . S
H102 C97 0.949 . S
C103 C98 1.399 . S
C103 C101 1.382 1_455 S
C103 H104 0.952 . S
H104 C103 0.952 . S
H105 C101 0.950 . S
H106 C107 0.949 . S
C107 H106 0.949 . S
C107 C108 1.395 . S
C107 C109 1.391 . S
C108 C107 1.395 . S
C108 C111 1.390 . S
C109 C107 1.391 . S
C109 C113 1.387 1_556 S
C109 C114 1.491 1_556 S
H110 C111 0.950 . S
C111 C108 1.390 . S
C111 H110 0.950 . S
C111 C112 1.378 . S
C112 C111 1.378 . S
C112 C113 1.409 1_556 S
C113 C109 1.387 1_554 S
C113 C112 1.409 1_554 S
C113 H115 0.951 . S
C114 C109 1.491 1_554 S
C114 C116 1.382 . S
C114 C118 1.404 . S
H115 C113 0.951 . S
C116 C114 1.382 . S
C116 C117 1.390 . S
C116 H121 0.949 1_554 S
C117 C116 1.390 . S
C117 C122 1.399 . S
C118 C114 1.404 . S
C118 H119 0.950 . S
C118 C120 1.375 . S
H119 C118 0.950 . S
C120 C118 1.375 . S
C120 C122 1.382 . S
C120 H124 0.950 . S
H121 C116 0.949 1_556 S
C122 C117 1.399 . S
C122 C120 1.382 . S
C122 H123 0.952 . S
H123 C122 0.952 . S
H124 C120 0.950 . S
H125 C126 0.949 . S
C126 H125 0.949 . S
C126 C127 1.395 . S
C126 C128 1.391 . S
C127 C126 1.395 . S
C127 C130 1.390 . S
C128 C126 1.391 . S
C128 C132 1.387 . S
C128 C133 1.491 . S
H129 C130 0.950 . S
C130 C127 1.390 . S
C130 H129 0.950 . S
C130 C131 1.378 . S
C131 C130 1.378 . S
C131 C132 1.409 . S
C132 C128 1.387 . S
C132 C131 1.409 . S
C132 H134 0.951 1_554 S
C133 C128 1.491 . S
C133 C135 1.382 . S
C133 C137 1.404 1_554 S
H134 C132 0.951 1_556 S
C135 C133 1.382 . S
C135 C136 1.390 1_554 S
C135 H140 0.949 . S
C136 C135 1.390 1_556 S
C136 C141 1.399 . S
C137 C133 1.404 1_556 S
C137 H138 0.950 . S
C137 C139 1.375 . S
H138 C137 0.950 . S
C139 C137 1.375 . S
C139 C141 1.382 . S
C139 H143 0.950 . S
H140 C135 0.949 . S
C141 C136 1.399 . S
C141 C139 1.382 . S
C141 H142 0.952 . S
H142 C141 0.952 . S
H143 C139 0.950 . S
H144 C152 0.950 . S
H145 C157 0.950 1_556 S
H146 C154 0.950 . S
H147 C156 0.950 1_556 S
H148 C158 0.950 1_556 S
H149 C160 0.950 1_556 S
H150 C162 0.950 . S
H151 C163 0.950 . S
C152 H144 0.950 . S
C152 C153 1.386 . S
C152 C154 1.391 . S
C153 C152 1.386 . S
C153 C157 1.393 . S
C154 H146 0.950 . S
C154 C152 1.391 . S
C154 C155 1.400 . S
C155 C154 1.400 . S
C155 C156 1.398 . S
C155 C161 1.491 . S
C156 H147 0.950 1_554 S
C156 C155 1.398 . S
C156 C157 1.391 . S
C157 H145 0.950 1_554 S
C157 C153 1.393 . S
C157 C156 1.391 . S
C158 H148 0.950 1_554 S
C158 C159 1.386 . S
C158 C160 1.391 . S
C159 C158 1.386 . S
C159 C163 1.393 . S
C160 H149 0.950 1_554 S
C160 C158 1.391 . S
C160 C161 1.400 . S
C161 C155 1.491 . S
C161 C160 1.400 . S
C161 C162 1.398 . S
C162 H150 0.950 . S
C162 C161 1.398 . S
C162 C163 1.391 . S
C163 H151 0.950 . S
C163 C159 1.393 . S
C163 C162 1.391 . S
H164 C172 0.950 . S
H165 C177 0.950 . S
H166 C174 0.950 . S
H167 C176 0.950 . S
H168 C178 0.950 . S
H169 C180 0.950 . S
H170 C182 0.951 . S
H171 C183 0.954 . S
C172 H164 0.950 . S
C172 C173 1.386 1_556 S
C172 C174 1.391 . S
C173 C172 1.386 1_554 S
C173 C177 1.393 . S
C174 H166 0.950 . S
C174 C172 1.391 . S
C174 C175 1.400 1_556 S
C175 C174 1.400 1_554 S
C175 C176 1.398 . S
C175 C181 1.491 . S
C176 H167 0.950 . S
C176 C175 1.398 . S
C176 C177 1.391 . S
C177 H165 0.950 . S
C177 C173 1.393 . S
C177 C176 1.391 . S
C178 H168 0.950 . S
C178 C179 1.386 . S
C178 C180 1.391 . S
C179 C178 1.386 . S
C179 C183 1.391 1_554 S
C180 H169 0.950 . S
C180 C178 1.391 . S
C180 C181 1.400 . S
C181 C175 1.491 . S
C181 C180 1.400 . S
C181 C182 1.396 1_554 S
C182 H170 0.951 . S
C182 C181 1.396 1_556 S
C182 C183 1.390 . S
C183 H171 0.954 . S
C183 C179 1.391 1_556 S
C183 C182 1.390 . S
H184 C192 0.950 . S
H185 C197 0.950 . S
H186 C194 0.950 . S
H187 C196 0.950 . S
H188 C198 0.950 . S
H189 C200 0.950 . S
H190 C202 0.950 . S
H191 C203 0.950 . S
C192 H184 0.950 . S
C192 C193 1.386 1_556 S
C192 C194 1.391 . S
C193 C192 1.386 1_554 S
C193 C197 1.393 . S
C194 H186 0.950 . S
C194 C192 1.391 . S
C194 C195 1.400 1_556 S
C195 C194 1.400 1_554 S
C195 C196 1.398 . S
C195 C201 1.491 . S
C196 H187 0.950 . S
C196 C195 1.398 . S
C196 C197 1.391 . S
C197 H185 0.950 . S
C197 C193 1.393 . S
C197 C196 1.391 . S
C198 H188 0.950 . S
C198 C199 1.386 . S
C198 C200 1.391 . S
C199 C198 1.386 . S
C199 C203 1.393 1_554 S
C200 H189 0.950 . S
C200 C198 1.391 . S
C200 C201 1.400 . S
C201 C195 1.491 . S
C201 C200 1.400 . S
C201 C202 1.398 1_554 S
C202 H190 0.950 . S
C202 C201 1.398 1_556 S
C202 C203 1.391 . S
C203 H191 0.950 . S
C203 C199 1.393 1_556 S
C203 C202 1.391 . S
H204 C212 0.950 . S
H205 C217 0.950 . S
H206 C214 0.950 . S
H207 C216 0.950 . S
H208 C218 0.950 . S
H209 C220 0.950 . S
H210 C222 0.950 . S
H211 C223 0.950 . S
C212 H204 0.950 . S
C212 C213 1.386 1_556 S
C212 C214 1.391 . S
C213 C212 1.386 1_554 S
C213 C217 1.393 . S
C214 H206 0.950 . S
C214 C212 1.391 . S
C214 C215 1.400 1_556 S
C215 C214 1.400 1_554 S
C215 C216 1.398 . S
C215 C221 1.494 1_554 S
C216 H207 0.950 . S
C216 C215 1.398 . S
C216 C217 1.391 . S
C217 H205 0.950 . S
C217 C213 1.393 . S
C217 C216 1.391 . S
C218 H208 0.950 . S
C218 C219 1.386 1_554 S
C218 C220 1.391 . S
C219 C218 1.386 1_556 S
C219 C223 1.393 . S
C220 H209 0.950 . S
C220 C218 1.391 . S
C220 C221 1.379 1_554 S
C221 C215 1.494 1_556 S
C221 C220 1.379 1_556 S
C221 C222 1.416 . S
C222 H210 0.950 . S
C222 C221 1.416 . S
C222 C223 1.391 . S
C223 H211 0.950 . S
C223 C219 1.393 . S
C223 C222 1.391 . S
H224 C232 0.950 . S
H225 C237 0.950 . S
H226 C234 0.950 . S
H227 C236 0.950 . S
H228 C238 0.950 . S
H229 C240 0.950 . S
H230 C242 0.950 . S
H231 C243 0.950 . S
C232 H224 0.950 . S
C232 C233 1.386 . S
C232 C234 1.391 . S
C233 C232 1.386 . S
C233 C237 1.393 . S
C234 H226 0.950 . S
C234 C232 1.391 . S
C234 C235 1.400 . S
C235 C234 1.400 . S
C235 C236 1.398 . S
C235 C241 1.491 . S
C236 H227 0.950 . S
C236 C235 1.398 . S
C236 C237 1.391 . S
C237 H225 0.950 . S
C237 C233 1.393 . S
C237 C236 1.391 . S
C238 H228 0.950 . S
C238 C239 1.386 . S
C238 C240 1.391 . S
C239 C238 1.386 . S
C239 C243 1.393 . S
C240 H229 0.950 . S
C240 C238 1.391 . S
C240 C241 1.400 . S
C241 C235 1.491 . S
C241 C240 1.400 . S
C241 C242 1.398 . S
C242 H230 0.950 . S
C242 C241 1.398 . S
C242 C243 1.391 . S
C243 H231 0.950 . S
C243 C239 1.393 . S
C243 C242 1.391 . S
H244 C252 0.950 . S
H245 C257 0.950 . S
H246 C254 0.950 . S
H247 C256 0.950 . S
H248 C258 0.950 . S
H249 C260 0.950 . S
H250 C262 0.950 . S
H251 C263 0.950 . S
C252 H244 0.950 . S
C252 C253 1.386 . S
C252 C254 1.391 . S
C253 C252 1.386 . S
C253 C257 1.393 . S
C254 H246 0.950 . S
C254 C252 1.391 . S
C254 C255 1.400 . S
C255 C254 1.400 . S
C255 C256 1.398 . S
C255 C261 1.491 . S
C256 H247 0.950 . S
C256 C255 1.398 . S
C256 C257 1.391 . S
C257 H245 0.950 . S
C257 C253 1.393 . S
C257 C256 1.391 . S
C258 H248 0.950 . S
C258 C259 1.386 . S
C258 C260 1.391 . S
C259 C258 1.386 . S
C259 C263 1.393 . S
C260 H249 0.950 . S
C260 C258 1.391 . S
C260 C261 1.400 . S
C261 C255 1.491 . S
C261 C260 1.400 . S
C261 C262 1.398 . S
C262 H250 0.950 . S
C262 C261 1.398 . S
C262 C263 1.391 . S
C263 H251 0.950 . S
C263 C259 1.393 . S
C263 C262 1.391 . S
H264 C272 0.950 . S
H265 C277 0.950 . S
H266 C274 0.950 . S
H267 C276 0.950 . S
H268 C278 0.950 . S
H269 C280 0.950 . S
H270 C282 0.950 . S
H271 C283 0.950 . S
C272 H264 0.950 . S
C272 C273 1.386 . S
C272 C274 1.391 . S
C273 C272 1.386 . S
C273 C277 1.393 . S
C274 H266 0.950 . S
C274 C272 1.391 . S
C274 C275 1.400 . S
C275 C274 1.400 . S
C275 C276 1.398 . S
C275 C281 1.491 . S
C276 H267 0.950 . S
C276 C275 1.398 . S
C276 C277 1.391 . S
C277 H265 0.950 . S
C277 C273 1.393 . S
C277 C276 1.391 . S
C278 H268 0.950 . S
C278 C279 1.386 . S
C278 C280 1.391 . S
C279 C278 1.386 . S
C279 C283 1.393 . S
C280 H269 0.950 . S
C280 C278 1.391 . S
C280 C281 1.400 . S
C281 C275 1.491 . S
C281 C280 1.400 . S
C281 C282 1.398 . S
C282 H270 0.950 . S
C282 C281 1.398 . S
C282 C283 1.391 . S
C283 H271 0.950 . S
C283 C279 1.393 . S
C283 C282 1.391 . S
H284 C292 0.950 . S
H285 C297 0.950 . S
H286 C294 0.950 . S
H287 C296 0.950 . S
H288 C298 0.950 . S
H289 C300 0.950 . S
H290 C302 0.950 . S
H291 C303 0.950 . S
C292 H284 0.950 . S
C292 C293 1.386 . S
C292 C294 1.391 . S
C293 C292 1.386 . S
C293 C297 1.393 . S
C294 H286 0.950 . S
C294 C292 1.391 . S
C294 C295 1.400 . S
C295 C294 1.400 . S
C295 C296 1.398 . S
C295 C301 1.491 . S
C296 H287 0.950 . S
C296 C295 1.398 . S
C296 C297 1.391 . S
C297 H285 0.950 . S
C297 C293 1.393 . S
C297 C296 1.391 . S
C298 H288 0.950 . S
C298 C299 1.386 . S
C298 C300 1.391 . S
C299 C298 1.386 . S
C299 C303 1.393 . S
C300 H289 0.950 . S
C300 C298 1.391 . S
C300 C301 1.400 . S
C301 C295 1.491 . S
C301 C300 1.400 . S
C301 C302 1.398 . S
C302 H290 0.950 . S
C302 C301 1.398 . S
C302 C303 1.391 . S
C303 H291 0.950 . S
C303 C299 1.393 . S
C303 C302 1.391 . S
H304 C312 0.950 . S
H305 C317 0.950 1_655 S
H306 C314 0.950 . S
H307 C316 0.950 1_655 S
H308 C318 0.950 1_655 S
H309 C320 0.950 1_655 S
H310 C322 0.950 . S
H311 C323 0.950 . S
C312 H304 0.950 . S
C312 C313 1.386 . S
C312 C314 1.391 . S
C313 C312 1.386 . S
C313 C317 1.393 1_545 S
C314 H306 0.950 . S
C314 C312 1.391 . S
C314 C315 1.400 . S
C315 C314 1.400 . S
C315 C316 1.398 1_545 S
C315 C321 1.491 . S
C316 H307 0.950 1_455 S
C316 C315 1.398 1_565 S
C316 C317 1.391 . S
C317 H305 0.950 1_455 S
C317 C313 1.393 1_565 S
C317 C316 1.391 . S
C318 H308 0.950 1_455 S
C318 C319 1.386 1_565 S
C318 C320 1.391 . S
C319 C318 1.386 1_545 S
C319 C323 1.393 . S
C320 H309 0.950 1_455 S
C320 C318 1.391 . S
C320 C321 1.400 1_565 S
C321 C315 1.491 . S
C321 C320 1.400 1_545 S
C321 C322 1.398 . S
C322 H310 0.950 . S
C322 C321 1.398 . S
C322 C323 1.391 . S
C323 H311 0.950 . S
C323 C319 1.393 . S
C323 C322 1.391 . S
H324 C332 0.950 . S
H325 C337 0.950 . S
H326 C334 0.950 . S
H327 C336 0.950 . S
H328 C338 0.950 . S
H329 C340 0.950 . S
H330 C342 0.950 1_565 S
H331 C343 0.950 1_565 S
C332 H324 0.950 . S
C332 C333 1.386 1_465 S
C332 C334 1.391 . S
C333 C332 1.386 1_645 S
C333 C337 1.393 . S
C334 H326 0.950 . S
C334 C332 1.391 . S
C334 C335 1.400 1_465 S
C335 C334 1.400 1_645 S
C335 C336 1.398 . S
C335 C341 1.491 . S
C336 H327 0.950 . S
C336 C335 1.398 . S
C336 C337 1.391 . S
C337 H325 0.950 . S
C337 C333 1.393 . S
C337 C336 1.391 . S
C338 H328 0.950 . S
C338 C339 1.386 . S
C338 C340 1.391 . S
C339 C338 1.386 . S
C339 C343 1.393 1_655 S
C340 H329 0.950 . S
C340 C338 1.391 . S
C340 C341 1.400 . S
C341 C335 1.491 . S
C341 C340 1.400 . S
C341 C342 1.398 1_655 S
C342 H330 0.950 1_545 S
C342 C341 1.398 1_455 S
C342 C343 1.391 . S
C343 H331 0.950 1_545 S
C343 C339 1.393 1_455 S
C343 C342 1.391 . S
H344 C352 0.950 . S
H345 C357 0.950 . S
H346 C354 0.950 . S
H347 C356 0.950 . S
H348 C358 0.950 . S
H349 C360 0.950 . S
H350 C362 0.950 . S
H351 C363 0.950 . S
C352 H344 0.950 . S
C352 C353 1.386 . S
C352 C354 1.391 . S
C353 C352 1.386 . S
C353 C357 1.393 . S
C354 H346 0.950 . S
C354 C352 1.391 . S
C354 C355 1.400 . S
C355 C354 1.400 . S
C355 C356 1.398 . S
C355 C361 1.491 . S
C356 H347 0.950 . S
C356 C355 1.398 . S
C356 C357 1.391 . S
C357 H345 0.950 . S
C357 C353 1.393 . S
C357 C356 1.391 . S
C358 H348 0.950 . S
C358 C359 1.386 . S
C358 C360 1.391 . S
C359 C358 1.386 . S
C359 C363 1.393 . S
C360 H349 0.950 . S
C360 C358 1.391 . S
C360 C361 1.400 . S
C361 C355 1.491 . S
C361 C360 1.400 . S
C361 C362 1.398 . S
C362 H350 0.950 . S
C362 C361 1.398 . S
C362 C363 1.391 . S
C363 H351 0.950 . S
C363 C359 1.393 . S
C363 C362 1.391 . S
H364 C372 0.950 . S
H365 C377 0.950 . S
H366 C374 0.950 . S
H367 C376 0.950 . S
H368 C378 0.950 . S
H369 C380 0.950 . S
H370 C382 0.950 . S
H371 C383 0.950 . S
C372 H364 0.950 . S
C372 C373 1.386 . S
C372 C374 1.391 . S
C373 C372 1.386 . S
C373 C377 1.393 . S
C374 H366 0.950 . S
C374 C372 1.391 . S
C374 C375 1.400 . S
C375 C374 1.400 . S
C375 C376 1.398 . S
C375 C381 1.491 . S
C376 H367 0.950 . S
C376 C375 1.398 . S
C376 C377 1.391 . S
C377 H365 0.950 . S
C377 C373 1.393 . S
C377 C376 1.391 . S
C378 H368 0.950 . S
C378 C379 1.386 . S
C378 C380 1.391 . S
C379 C378 1.386 . S
C379 C383 1.393 . S
C380 H369 0.950 . S
C380 C378 1.391 . S
C380 C381 1.400 . S
C381 C375 1.491 . S
C381 C380 1.400 . S
C381 C382 1.398 . S
C382 H370 0.950 . S
C382 C381 1.398 . S
C382 C383 1.391 . S
C383 H371 0.950 . S
C383 C379 1.393 . S
C383 C382 1.391 . S
C159 C131 1.538 . S
C153 C29 1.562 . S
C173 C8 1.413 . S
C179 C117 1.386 . S
C193 C0 1.427 . S
C199 C136 1.391 1_554 S
C213 C17 1.565 . S
C219 C112 1.529 . S
C233 C63 1.563 . S
C239 C93 1.535 . S
C253 C42 1.412 . S
C259 C79 1.393 . S
C279 C98 1.391 . S
C273 C34 1.426 . S
C299 C74 1.541 . S
C293 C51 1.565 . S
C313 C4 1.551 . S
C319 C70 1.537 . S
C333 C13 1.542 . S
C339 C89 1.537 . S
C359 C108 1.537 . S
C353 C38 1.551 . S
C373 C47 1.541 . S
C379 C127 1.535 . S
