# Generated by pormake.
# Topology tbo, (3,4)-cn, num edge types: 1
# Building blocks:
#     Node 0, Type 0, BuildingBlock: WUSLED_clean_sbu_0, # of connection points: 3
#     Node 1, Type 0, BuildingBlock: WUSLED_clean_sbu_0, # of connection points: 3
#     Node 2, Type 0, BuildingBlock: WUSLED_clean_sbu_0, # of connection points: 3
#     Node 3, Type 0, BuildingBlock: WUSLED_clean_sbu_0, # of connection points: 3
#     Node 4, Type 0, BuildingBlock: WUSLED_clean_sbu_0, # of connection points: 3
#     Node 5, Type 0, BuildingBlock: WUSLED_clean_sbu_0, # of connection points: 3
#     Node 6, Type 0, BuildingBlock: WUSLED_clean_sbu_0, # of connection points: 3
#     Node 7, Type 0, BuildingBlock: WUSLED_clean_sbu_0, # of connection points: 3
#     Node 8, Type 0, BuildingBlock: WUSLED_clean_sbu_0, # of connection points: 3
#     Node 9, Type 0, BuildingBlock: WUSLED_clean_sbu_0, # of connection points: 3
#     Node 10, Type 0, BuildingBlock: WUSLED_clean_sbu_0, # of connection points: 3
#     Node 11, Type 0, BuildingBlock: WUSLED_clean_sbu_0, # of connection points: 3
#     Node 12, Type 0, BuildingBlock: WUSLED_clean_sbu_0, # of connection points: 3
#     Node 13, Type 0, BuildingBlock: WUSLED_clean_sbu_0, # of connection points: 3
#     Node 14, Type 0, BuildingBlock: WUSLED_clean_sbu_0, # of connection points: 3
#     Node 15, Type 0, BuildingBlock: WUSLED_clean_sbu_0, # of connection points: 3
#     Node 16, Type 0, BuildingBlock: WUSLED_clean_sbu_0, # of connection points: 3
#     Node 17, Type 0, BuildingBlock: WUSLED_clean_sbu_0, # of connection points: 3
#     Node 18, Type 0, BuildingBlock: WUSLED_clean_sbu_0, # of connection points: 3
#     Node 19, Type 0, BuildingBlock: WUSLED_clean_sbu_0, # of connection points: 3
#     Node 20, Type 0, BuildingBlock: WUSLED_clean_sbu_0, # of connection points: 3
#     Node 21, Type 0, BuildingBlock: WUSLED_clean_sbu_0, # of connection points: 3
#     Node 22, Type 0, BuildingBlock: WUSLED_clean_sbu_0, # of connection points: 3
#     Node 23, Type 0, BuildingBlock: WUSLED_clean_sbu_0, # of connection points: 3
#     Node 24, Type 0, BuildingBlock: WUSLED_clean_sbu_0, # of connection points: 3
#     Node 25, Type 0, BuildingBlock: WUSLED_clean_sbu_0, # of connection points: 3
#     Node 26, Type 0, BuildingBlock: WUSLED_clean_sbu_0, # of connection points: 3
#     Node 27, Type 0, BuildingBlock: WUSLED_clean_sbu_0, # of connection points: 3
#     Node 28, Type 0, BuildingBlock: WUSLED_clean_sbu_0, # of connection points: 3
#     Node 29, Type 0, BuildingBlock: WUSLED_clean_sbu_0, # of connection points: 3
#     Node 30, Type 0, BuildingBlock: WUSLED_clean_sbu_0, # of connection points: 3
#     Node 31, Type 0, BuildingBlock: WUSLED_clean_sbu_0, # of connection points: 3
#     Node 32, Type 1, BuildingBlock: AZAVOO_clean_linker_0, # of connection points: 4
#     Node 33, Type 1, BuildingBlock: AZAVOO_clean_linker_0, # of connection points: 4
#     Node 34, Type 1, BuildingBlock: AZAVOO_clean_linker_0, # of connection points: 4
#     Node 35, Type 1, BuildingBlock: AZAVOO_clean_linker_0, # of connection points: 4
#     Node 36, Type 1, BuildingBlock: AZAVOO_clean_linker_0, # of connection points: 4
#     Node 37, Type 1, BuildingBlock: AZAVOO_clean_linker_0, # of connection points: 4
#     Node 38, Type 1, BuildingBlock: AZAVOO_clean_linker_0, # of connection points: 4
#     Node 39, Type 1, BuildingBlock: AZAVOO_clean_linker_0, # of connection points: 4
#     Node 40, Type 1, BuildingBlock: AZAVOO_clean_linker_0, # of connection points: 4
#     Node 41, Type 1, BuildingBlock: AZAVOO_clean_linker_0, # of connection points: 4
#     Node 42, Type 1, BuildingBlock: AZAVOO_clean_linker_0, # of connection points: 4
#     Node 43, Type 1, BuildingBlock: AZAVOO_clean_linker_0, # of connection points: 4
#     Node 44, Type 1, BuildingBlock: AZAVOO_clean_linker_0, # of connection points: 4
#     Node 45, Type 1, BuildingBlock: AZAVOO_clean_linker_0, # of connection points: 4
#     Node 46, Type 1, BuildingBlock: AZAVOO_clean_linker_0, # of connection points: 4
#     Node 47, Type 1, BuildingBlock: AZAVOO_clean_linker_0, # of connection points: 4
#     Node 48, Type 1, BuildingBlock: AZAVOO_clean_linker_0, # of connection points: 4
#     Node 49, Type 1, BuildingBlock: AZAVOO_clean_linker_0, # of connection points: 4
#     Node 50, Type 1, BuildingBlock: AZAVOO_clean_linker_0, # of connection points: 4
#     Node 51, Type 1, BuildingBlock: AZAVOO_clean_linker_0, # of connection points: 4
#     Node 52, Type 1, BuildingBlock: AZAVOO_clean_linker_0, # of connection points: 4
#     Node 53, Type 1, BuildingBlock: AZAVOO_clean_linker_0, # of connection points: 4
#     Node 54, Type 1, BuildingBlock: AZAVOO_clean_linker_0, # of connection points: 4
#     Node 55, Type 1, BuildingBlock: AZAVOO_clean_linker_0, # of connection points: 4
#     Edge 56, Type (0, 1), BuildingBlock: KIFKEQ_clean_linker_1, # of connection points: 2
#     Edge 57, Type (0, 1), BuildingBlock: KIFKEQ_clean_linker_1, # of connection points: 2
#     Edge 58, Type (0, 1), BuildingBlock: KIFKEQ_clean_linker_1, # of connection points: 2
#     Edge 59, Type (0, 1), BuildingBlock: KIFKEQ_clean_linker_1, # of connection points: 2
#     Edge 60, Type (0, 1), BuildingBlock: KIFKEQ_clean_linker_1, # of connection points: 2
#     Edge 61, Type (0, 1), BuildingBlock: KIFKEQ_clean_linker_1, # of connection points: 2
#     Edge 62, Type (0, 1), BuildingBlock: KIFKEQ_clean_linker_1, # of connection points: 2
#     Edge 63, Type (0, 1), BuildingBlock: KIFKEQ_clean_linker_1, # of connection points: 2
#     Edge 64, Type (0, 1), BuildingBlock: KIFKEQ_clean_linker_1, # of connection points: 2
#     Edge 65, Type (0, 1), BuildingBlock: KIFKEQ_clean_linker_1, # of connection points: 2
#     Edge 66, Type (0, 1), BuildingBlock: KIFKEQ_clean_linker_1, # of connection points: 2
#     Edge 67, Type (0, 1), BuildingBlock: KIFKEQ_clean_linker_1, # of connection points: 2
#     Edge 68, Type (0, 1), BuildingBlock: KIFKEQ_clean_linker_1, # of connection points: 2
#     Edge 69, Type (0, 1), BuildingBlock: KIFKEQ_clean_linker_1, # of connection points: 2
#     Edge 70, Type (0, 1), BuildingBlock: KIFKEQ_clean_linker_1, # of connection points: 2
#     Edge 71, Type (0, 1), BuildingBlock: KIFKEQ_clean_linker_1, # of connection points: 2
#     Edge 72, Type (0, 1), BuildingBlock: KIFKEQ_clean_linker_1, # of connection points: 2
#     Edge 73, Type (0, 1), BuildingBlock: KIFKEQ_clean_linker_1, # of connection points: 2
#     Edge 74, Type (0, 1), BuildingBlock: KIFKEQ_clean_linker_1, # of connection points: 2
#     Edge 75, Type (0, 1), BuildingBlock: KIFKEQ_clean_linker_1, # of connection points: 2
#     Edge 76, Type (0, 1), BuildingBlock: KIFKEQ_clean_linker_1, # of connection points: 2
#     Edge 77, Type (0, 1), BuildingBlock: KIFKEQ_clean_linker_1, # of connection points: 2
#     Edge 78, Type (0, 1), BuildingBlock: KIFKEQ_clean_linker_1, # of connection points: 2
#     Edge 79, Type (0, 1), BuildingBlock: KIFKEQ_clean_linker_1, # of connection points: 2
#     Edge 80, Type (0, 1), BuildingBlock: KIFKEQ_clean_linker_1, # of connection points: 2
#     Edge 81, Type (0, 1), BuildingBlock: KIFKEQ_clean_linker_1, # of connection points: 2
#     Edge 82, Type (0, 1), BuildingBlock: KIFKEQ_clean_linker_1, # of connection points: 2
#     Edge 83, Type (0, 1), BuildingBlock: KIFKEQ_clean_linker_1, # of connection points: 2
#     Edge 84, Type (0, 1), BuildingBlock: KIFKEQ_clean_linker_1, # of connection points: 2
#     Edge 85, Type (0, 1), BuildingBlock: KIFKEQ_clean_linker_1, # of connection points: 2
#     Edge 86, Type (0, 1), BuildingBlock: KIFKEQ_clean_linker_1, # of connection points: 2
#     Edge 87, Type (0, 1), BuildingBlock: KIFKEQ_clean_linker_1, # of connection points: 2
#     Edge 88, Type (0, 1), BuildingBlock: KIFKEQ_clean_linker_1, # of connection points: 2
#     Edge 89, Type (0, 1), BuildingBlock: KIFKEQ_clean_linker_1, # of connection points: 2
#     Edge 90, Type (0, 1), BuildingBlock: KIFKEQ_clean_linker_1, # of connection points: 2
#     Edge 91, Type (0, 1), BuildingBlock: KIFKEQ_clean_linker_1, # of connection points: 2
#     Edge 92, Type (0, 1), BuildingBlock: KIFKEQ_clean_linker_1, # of connection points: 2
#     Edge 93, Type (0, 1), BuildingBlock: KIFKEQ_clean_linker_1, # of connection points: 2
#     Edge 94, Type (0, 1), BuildingBlock: KIFKEQ_clean_linker_1, # of connection points: 2
#     Edge 95, Type (0, 1), BuildingBlock: KIFKEQ_clean_linker_1, # of connection points: 2
#     Edge 96, Type (0, 1), BuildingBlock: KIFKEQ_clean_linker_1, # of connection points: 2
#     Edge 97, Type (0, 1), BuildingBlock: KIFKEQ_clean_linker_1, # of connection points: 2
#     Edge 98, Type (0, 1), BuildingBlock: KIFKEQ_clean_linker_1, # of connection points: 2
#     Edge 99, Type (0, 1), BuildingBlock: KIFKEQ_clean_linker_1, # of connection points: 2
#     Edge 100, Type (0, 1), BuildingBlock: KIFKEQ_clean_linker_1, # of connection points: 2
#     Edge 101, Type (0, 1), BuildingBlock: KIFKEQ_clean_linker_1, # of connection points: 2
#     Edge 102, Type (0, 1), BuildingBlock: KIFKEQ_clean_linker_1, # of connection points: 2
#     Edge 103, Type (0, 1), BuildingBlock: KIFKEQ_clean_linker_1, # of connection points: 2
#     Edge 104, Type (0, 1), BuildingBlock: KIFKEQ_clean_linker_1, # of connection points: 2
#     Edge 105, Type (0, 1), BuildingBlock: KIFKEQ_clean_linker_1, # of connection points: 2
#     Edge 106, Type (0, 1), BuildingBlock: KIFKEQ_clean_linker_1, # of connection points: 2
#     Edge 107, Type (0, 1), BuildingBlock: KIFKEQ_clean_linker_1, # of connection points: 2
#     Edge 108, Type (0, 1), BuildingBlock: KIFKEQ_clean_linker_1, # of connection points: 2
#     Edge 109, Type (0, 1), BuildingBlock: KIFKEQ_clean_linker_1, # of connection points: 2
#     Edge 110, Type (0, 1), BuildingBlock: KIFKEQ_clean_linker_1, # of connection points: 2
#     Edge 111, Type (0, 1), BuildingBlock: KIFKEQ_clean_linker_1, # of connection points: 2
#     Edge 112, Type (0, 1), BuildingBlock: KIFKEQ_clean_linker_1, # of connection points: 2
#     Edge 113, Type (0, 1), BuildingBlock: KIFKEQ_clean_linker_1, # of connection points: 2
#     Edge 114, Type (0, 1), BuildingBlock: KIFKEQ_clean_linker_1, # of connection points: 2
#     Edge 115, Type (0, 1), BuildingBlock: KIFKEQ_clean_linker_1, # of connection points: 2
#     Edge 116, Type (0, 1), BuildingBlock: KIFKEQ_clean_linker_1, # of connection points: 2
#     Edge 117, Type (0, 1), BuildingBlock: KIFKEQ_clean_linker_1, # of connection points: 2
#     Edge 118, Type (0, 1), BuildingBlock: KIFKEQ_clean_linker_1, # of connection points: 2
#     Edge 119, Type (0, 1), BuildingBlock: KIFKEQ_clean_linker_1, # of connection points: 2
#     Edge 120, Type (0, 1), BuildingBlock: KIFKEQ_clean_linker_1, # of connection points: 2
#     Edge 121, Type (0, 1), BuildingBlock: KIFKEQ_clean_linker_1, # of connection points: 2
#     Edge 122, Type (0, 1), BuildingBlock: KIFKEQ_clean_linker_1, # of connection points: 2
#     Edge 123, Type (0, 1), BuildingBlock: KIFKEQ_clean_linker_1, # of connection points: 2
#     Edge 124, Type (0, 1), BuildingBlock: KIFKEQ_clean_linker_1, # of connection points: 2
#     Edge 125, Type (0, 1), BuildingBlock: KIFKEQ_clean_linker_1, # of connection points: 2
#     Edge 126, Type (0, 1), BuildingBlock: KIFKEQ_clean_linker_1, # of connection points: 2
#     Edge 127, Type (0, 1), BuildingBlock: KIFKEQ_clean_linker_1, # of connection points: 2
#     Edge 128, Type (0, 1), BuildingBlock: KIFKEQ_clean_linker_1, # of connection points: 2
#     Edge 129, Type (0, 1), BuildingBlock: KIFKEQ_clean_linker_1, # of connection points: 2
#     Edge 130, Type (0, 1), BuildingBlock: KIFKEQ_clean_linker_1, # of connection points: 2
#     Edge 131, Type (0, 1), BuildingBlock: KIFKEQ_clean_linker_1, # of connection points: 2
#     Edge 132, Type (0, 1), BuildingBlock: KIFKEQ_clean_linker_1, # of connection points: 2
#     Edge 133, Type (0, 1), BuildingBlock: KIFKEQ_clean_linker_1, # of connection points: 2
#     Edge 134, Type (0, 1), BuildingBlock: KIFKEQ_clean_linker_1, # of connection points: 2
#     Edge 135, Type (0, 1), BuildingBlock: KIFKEQ_clean_linker_1, # of connection points: 2
#     Edge 136, Type (0, 1), BuildingBlock: KIFKEQ_clean_linker_1, # of connection points: 2
#     Edge 137, Type (0, 1), BuildingBlock: KIFKEQ_clean_linker_1, # of connection points: 2
#     Edge 138, Type (0, 1), BuildingBlock: KIFKEQ_clean_linker_1, # of connection points: 2
#     Edge 139, Type (0, 1), BuildingBlock: KIFKEQ_clean_linker_1, # of connection points: 2
#     Edge 140, Type (0, 1), BuildingBlock: KIFKEQ_clean_linker_1, # of connection points: 2
#     Edge 141, Type (0, 1), BuildingBlock: KIFKEQ_clean_linker_1, # of connection points: 2
#     Edge 142, Type (0, 1), BuildingBlock: KIFKEQ_clean_linker_1, # of connection points: 2
#     Edge 143, Type (0, 1), BuildingBlock: KIFKEQ_clean_linker_1, # of connection points: 2
#     Edge 144, Type (0, 1), BuildingBlock: KIFKEQ_clean_linker_1, # of connection points: 2
#     Edge 145, Type (0, 1), BuildingBlock: KIFKEQ_clean_linker_1, # of connection points: 2
#     Edge 146, Type (0, 1), BuildingBlock: KIFKEQ_clean_linker_1, # of connection points: 2
#     Edge 147, Type (0, 1), BuildingBlock: KIFKEQ_clean_linker_1, # of connection points: 2
#     Edge 148, Type (0, 1), BuildingBlock: KIFKEQ_clean_linker_1, # of connection points: 2
#     Edge 149, Type (0, 1), BuildingBlock: KIFKEQ_clean_linker_1, # of connection points: 2
#     Edge 150, Type (0, 1), BuildingBlock: KIFKEQ_clean_linker_1, # of connection points: 2
#     Edge 151, Type (0, 1), BuildingBlock: KIFKEQ_clean_linker_1, # of connection points: 2
# Relax obj value: 0.034
# Max RMSD: 0.259
# Mean RMSD: 0.087
data_MOF--net-tbo--node1-WUSLED_clean_sbu_0--node2-AZAVOO_clean_linker_0--edge1-KIFKEQ_clean_linker_1
_symmetry_space_group_name_H-M    P1
_symmetry_Int_Tables_number       1
_symmetry_cell_setting            triclinic
loop_
_symmetry_equiv_pos_as_xyz
'x, y, z'
_cell_length_a     105.04778
_cell_length_b     105.4429
_cell_length_c     105.39017
_cell_angle_alpha  89.598442
_cell_angle_beta   89.096446
_cell_angle_gamma 88.951271
loop_
_atom_site_label
_atom_site_type_symbol
_atom_site_fract_x
_atom_site_fract_y
_atom_site_fract_z
_atom_type_partial_charge
C0 C 0.2011 0.14652 0.22244 0.0
C1 C 0.20916 0.13976 0.21401 0.0
C2 C 0.21487 0.12534 0.23103 0.0
C3 C 0.21594 0.12909 0.21829 0.0
C4 C 0.20687 0.13216 0.23941 0.0
C5 C 0.19999 0.14268 0.23511 0.0
U6 U 0.19613 0.17295 0.19865 0.0
O7 O 0.17859 0.18195 0.19161 0.0
O8 O 0.19255 0.19327 0.2017 0.0
C9 C 0.18112 0.19287 0.19687 0.0
C10 C 0.19416 0.15787 0.2183 0.0
C11 C 0.17098 0.19819 0.20494 0.0
C12 C 0.15698 0.19697 0.22343 0.0
C13 C 0.16668 0.19167 0.21582 0.0
C14 C 0.15611 0.21536 0.20945 0.0
C15 C 0.15168 0.20888 0.2203 0.0
C16 C 0.16568 0.21002 0.20181 0.0
C17 C 0.21696 0.1753 0.16941 0.0
C18 C 0.21364 0.1926 0.15445 0.0
C19 C 0.23124 0.17767 0.15138 0.0
C20 C 0.22759 0.17116 0.16236 0.0
C21 C 0.22437 0.18851 0.14734 0.0
C22 C 0.20996 0.18603 0.16543 0.0
C23 C 0.21341 0.16855 0.18104 0.0
O24 O 0.20083 0.16828 0.21836 0.0
O25 O 0.18735 0.15658 0.20804 0.0
O26 O 0.20209 0.16343 0.181 0.0
O27 O 0.21579 0.17463 0.19156 0.0
H28 H 0.21018 0.14274 0.20419 0.0
H29 H 0.22206 0.12384 0.21174 0.0
H30 H 0.20585 0.12924 0.24924 0.0
H31 H 0.19383 0.14785 0.24169 0.0
H32 H 0.15367 0.19184 0.23176 0.0
H33 H 0.17078 0.18252 0.21836 0.0
H34 H 0.15198 0.22445 0.20675 0.0
H35 H 0.16893 0.21511 0.19344 0.0
H36 H 0.20821 0.20097 0.15168 0.0
H37 H 0.2394 0.17411 0.14599 0.0
H38 H 0.23306 0.16289 0.16534 0.0
H39 H 0.20173 0.18936 0.17086 0.0
C40 C 0.86662 0.19602 0.14175 0.0
C41 C 0.86976 0.20892 0.14107 0.0
C42 C 0.85902 0.2108 0.12093 0.0
C43 C 0.86589 0.21631 0.13073 0.0
C44 C 0.85612 0.19785 0.12162 0.0
C45 C 0.8599 0.19053 0.13195 0.0
U46 U 0.88812 0.1897 0.16939 0.0
O47 O 0.88404 0.18269 0.18866 0.0
O48 O 0.89717 0.17201 0.1761 0.0
C49 C 0.89076 0.17219 0.1869 0.0
C50 C 0.87041 0.18806 0.15247 0.0
C51 C 0.88414 0.1605 0.19008 0.0
C52 C 0.86688 0.14592 0.18686 0.0
C53 C 0.87339 0.15687 0.18332 0.0
C54 C 0.88196 0.14211 0.20375 0.0
C55 C 0.8711 0.13859 0.19717 0.0
C56 C 0.88847 0.15301 0.20019 0.0
C57 C 0.91364 0.21249 0.17724 0.0
C58 C 0.92394 0.2108 0.19758 0.0
C59 C 0.93115 0.22614 0.18187 0.0
C60 C 0.92198 0.22204 0.17351 0.0
C61 C 0.93201 0.22074 0.19407 0.0
C62 C 0.91483 0.20666 0.18918 0.0
C63 C 0.90339 0.20894 0.16889 0.0
O64 O 0.88163 0.18247 0.15116 0.0
O65 O 0.86834 0.19304 0.16373 0.0
O66 O 0.892 0.20942 0.17423 0.0
O67 O 0.90562 0.1986 0.16227 0.0
H68 H 0.8751 0.21325 0.14856 0.0
H69 H 0.86821 0.22628 0.13038 0.0
H70 H 0.85061 0.19344 0.11431 0.0
H71 H 0.85746 0.1806 0.13235 0.0
H72 H 0.85845 0.14331 0.18177 0.0
H73 H 0.86995 0.1626 0.17547 0.0
H74 H 0.88527 0.13653 0.21175 0.0
H75 H 0.89677 0.1557 0.20545 0.0
H76 H 0.92452 0.20643 0.2069 0.0
H77 H 0.93717 0.23391 0.17901 0.0
H78 H 0.92116 0.22656 0.16428 0.0
H79 H 0.90849 0.19916 0.19211 0.0
C80 C 0.85029 0.86217 0.11782 0.0
C81 C 0.85527 0.8499 0.11561 0.0
C82 C 0.83877 0.84629 0.10013 0.0
C83 C 0.84957 0.84201 0.10675 0.0
C84 C 0.83427 0.85879 0.10197 0.0
C85 C 0.83998 0.86663 0.11073 0.0
U86 U 0.8734 0.8693 0.14455 0.0
O87 O 0.88022 0.88762 0.15147 0.0
O88 O 0.86909 0.87519 0.16409 0.0
C89 C 0.87467 0.88617 0.16264 0.0
C90 C 0.85486 0.87009 0.12817 0.0
C91 C 0.86761 0.89714 0.16786 0.0
C92 C 0.8489 0.91106 0.16917 0.0
C93 C 0.85596 0.90148 0.1629 0.0
C94 C 0.86533 0.91224 0.18499 0.0
C95 C 0.85339 0.91628 0.1805 0.0
C96 C 0.87232 0.90275 0.17876 0.0
C97 C 0.90094 0.84507 0.15048 0.0
C98 C 0.91923 0.8465 0.16429 0.0
C99 C 0.91342 0.82625 0.15557 0.0
C100 C 0.90326 0.83204 0.14936 0.0
C101 C 0.92173 0.83338 0.16292 0.0
C102 C 0.90886 0.85231 0.15812 0.0
C103 C 0.89008 0.85051 0.14354 0.0
O104 O 0.85374 0.86508 0.13957 0.0
O105 O 0.86575 0.87578 0.1262 0.0
O106 O 0.89174 0.86138 0.1376 0.0
O107 O 0.87895 0.84968 0.14931 0.0
H108 H 0.86326 0.8463 0.12103 0.0
H109 H 0.85323 0.83242 0.1055 0.0
H110 H 0.82611 0.8624 0.09684 0.0
H111 H 0.83604 0.87608 0.11229 0.0
H112 H 0.83973 0.914 0.16548 0.0
H113 H 0.85218 0.89721 0.15447 0.0
H114 H 0.86919 0.91624 0.19351 0.0
H115 H 0.88129 0.89953 0.18269 0.0
H116 H 0.92538 0.85229 0.1699 0.0
H117 H 0.91468 0.81609 0.15462 0.0
H118 H 0.89715 0.82628 0.14364 0.0
H119 H 0.90711 0.86241 0.15921 0.0
C120 C 0.12395 0.84709 0.15518 0.0
C121 C 0.12174 0.84752 0.16836 0.0
C122 C 0.10364 0.83336 0.16642 0.0
C123 C 0.11165 0.84073 0.17393 0.0
C124 C 0.10558 0.83355 0.15317 0.0
C125 C 0.11561 0.84029 0.14766 0.0
U126 U 0.15293 0.86989 0.15136 0.0
O127 O 0.17217 0.86488 0.14434 0.0
O128 O 0.16035 0.87845 0.13359 0.0
C129 C 0.17114 0.87196 0.13408 0.0
C130 C 0.13536 0.85258 0.14897 0.0
C131 C 0.17629 0.86664 0.12205 0.0
C132 C 0.18412 0.84883 0.10933 0.0
C133 C 0.17703 0.85352 0.11974 0.0
C134 C 0.18902 0.87031 0.10295 0.0
C135 C 0.19062 0.85717 0.10105 0.0
C136 C 0.18202 0.87495 0.11335 0.0
C137 C 0.15916 0.89523 0.17761 0.0
C138 C 0.17782 0.90807 0.18142 0.0
C139 C 0.15956 0.90941 0.19566 0.0
C140 C 0.15323 0.90065 0.1883 0.0
C141 C 0.17207 0.91298 0.19259 0.0
C142 C 0.17143 0.89919 0.174 0.0
C143 C 0.15245 0.88491 0.17122 0.0
O144 O 0.13424 0.8641 0.14422 0.0
O145 O 0.14633 0.85041 0.15446 0.0
O146 O 0.15814 0.8737 0.17109 0.0
O147 O 0.14658 0.88769 0.16061 0.0
H148 H 0.12804 0.85274 0.17437 0.0
H149 H 0.11049 0.84083 0.18416 0.0
H150 H 0.09946 0.8283 0.14701 0.0
H151 H 0.11708 0.83986 0.13747 0.0
H152 H 0.18508 0.83866 0.1082 0.0
H153 H 0.17262 0.84689 0.12628 0.0
H154 H 0.19352 0.87706 0.09661 0.0
H155 H 0.18154 0.8851 0.1149 0.0
H156 H 0.18744 0.91064 0.17875 0.0
H157 H 0.1547 0.91319 0.20399 0.0
H158 H 0.14377 0.89779 0.19122 0.0
H159 H 0.17617 0.89515 0.16573 0.0
C160 C 0.16757 0.88229 0.8606 0.0
C161 C 0.16248 0.8919 0.85272 0.0
C162 C 0.14634 0.87736 0.84521 0.0
C163 C 0.15194 0.88943 0.84504 0.0
C164 C 0.15176 0.86781 0.8529 0.0
C165 C 0.16217 0.87027 0.86049 0.0
U166 U 0.19869 0.89792 0.87245 0.0
O167 O 0.20474 0.90041 0.89227 0.0
O168 O 0.21602 0.88826 0.87928 0.0
C169 C 0.21477 0.89288 0.89078 0.0
C170 C 0.17834 0.88419 0.86924 0.0
C171 C 0.2186 0.88442 0.90134 0.0
C172 C 0.21473 0.86903 0.91832 0.0
C173 C 0.21011 0.87698 0.90853 0.0
C174 C 0.23611 0.8762 0.91392 0.0
C175 C 0.22786 0.86843 0.921 0.0
C176 C 0.23155 0.88398 0.90421 0.0
C177 C 0.21319 0.9258 0.85235 0.0
C178 C 0.23492 0.93345 0.85033 0.0
C179 C 0.21809 0.94315 0.83794 0.0
C180 C 0.2093 0.93505 0.84358 0.0
C181 C 0.23109 0.94218 0.84087 0.0
C182 C 0.22602 0.92524 0.85599 0.0
C183 C 0.2038 0.91619 0.85615 0.0
O184 O 0.18969 0.88096 0.86482 0.0
O185 O 0.17828 0.89457 0.87609 0.0
O186 O 0.19715 0.91808 0.86667 0.0
O187 O 0.2072 0.90427 0.8544 0.0
H188 H 0.16654 0.90127 0.85259 0.0
H189 H 0.14802 0.897 0.83921 0.0
H190 H 0.14796 0.85833 0.85307 0.0
H191 H 0.16599 0.8627 0.86639 0.0
H192 H 0.20808 0.86319 0.92358 0.0
H193 H 0.20003 0.87721 0.9065 0.0
H194 H 0.24619 0.87636 0.91588 0.0
H195 H 0.23825 0.88972 0.89888 0.0
H196 H 0.24486 0.93252 0.85284 0.0
H197 H 0.21475 0.94993 0.83093 0.0
H198 H 0.19946 0.93565 0.84065 0.0
H199 H 0.22923 0.91817 0.86279 0.0
C200 C 0.14241 0.14072 0.85792 0.0
C201 C 0.13677 0.15063 0.86508 0.0
C202 C 0.12128 0.15476 0.84829 0.0
C203 C 0.1262 0.15755 0.86032 0.0
C204 C 0.12666 0.14445 0.84157 0.0
C205 C 0.13704 0.13758 0.84631 0.0
U206 U 0.17362 0.13323 0.8772 0.0
O207 O 0.18275 0.11441 0.8804 0.0
O208 O 0.19255 0.12884 0.86901 0.0
C209 C 0.19291 0.11723 0.87358 0.0
C210 C 0.15432 0.1339 0.86149 0.0
C211 C 0.19854 0.10735 0.86518 0.0
C212 C 0.20005 0.09594 0.84514 0.0
C213 C 0.19341 0.10429 0.85338 0.0
C214 C 0.21672 0.09337 0.86058 0.0
C215 C 0.21192 0.09054 0.84856 0.0
C216 C 0.21012 0.10166 0.86875 0.0
C217 C 0.18305 0.1536 0.9062 0.0
C218 C 0.20367 0.15409 0.91648 0.0
C219 C 0.18673 0.16851 0.9232 0.0
C220 C 0.17869 0.1633 0.91426 0.0
C221 C 0.1994 0.16414 0.92433 0.0
C222 C 0.19556 0.14886 0.90747 0.0
C223 C 0.17458 0.14948 0.89601 0.0
O224 O 0.16499 0.13995 0.85944 0.0
O225 O 0.15436 0.12709 0.87199 0.0
O226 O 0.16949 0.13822 0.89719 0.0
O227 O 0.1784 0.15205 0.88436 0.0
H228 H 0.14073 0.15322 0.87411 0.0
H229 H 0.12227 0.16541 0.86577 0.0
H230 H 0.12299 0.14185 0.83242 0.0
H231 H 0.14116 0.12996 0.84064 0.0
H232 H 0.19598 0.09385 0.83603 0.0
H233 H 0.18448 0.10858 0.85042 0.0
H234 H 0.22589 0.08962 0.86351 0.0
H235 H 0.21431 0.10397 0.87775 0.0
H236 H 0.21332 0.15038 0.91717 0.0
H237 H 0.18313 0.17635 0.92888 0.0
H238 H 0.16911 0.16716 0.91337 0.0
H239 H 0.19913 0.14135 0.90134 0.0
C240 C 0.79817 0.1509 0.82801 0.0
C241 C 0.80475 0.14497 0.81788 0.0
C242 C 0.78747 0.12985 0.81566 0.0
C243 C 0.79945 0.13449 0.81179 0.0
C244 C 0.78099 0.13593 0.82576 0.0
C245 C 0.78628 0.14628 0.83184 0.0
U246 U 0.82235 0.17769 0.83535 0.0
O247 O 0.81794 0.19682 0.84268 0.0
O248 O 0.82936 0.1834 0.85402 0.0
C249 C 0.82404 0.19475 0.85332 0.0
C250 C 0.80336 0.1617 0.83508 0.0
C251 C 0.81845 0.20003 0.86513 0.0
C252 C 0.80072 0.20518 0.8795 0.0
C253 C 0.80544 0.19935 0.86837 0.0
C254 C 0.82195 0.21217 0.88424 0.0
C255 C 0.80898 0.21164 0.88755 0.0
C256 C 0.8266 0.20646 0.87316 0.0
C257 C 0.85253 0.18267 0.81414 0.0
C258 C 0.87018 0.19682 0.81795 0.0
C259 C 0.87053 0.18337 0.79943 0.0
C260 C 0.85872 0.17855 0.80303 0.0
C261 C 0.87658 0.1924 0.80692 0.0
C262 C 0.85824 0.19197 0.82155 0.0
C263 C 0.84043 0.17662 0.8178 0.0
O264 O 0.81394 0.15956 0.8413 0.0
O265 O 0.80295 0.17289 0.8295 0.0
O266 O 0.82995 0.18351 0.8166 0.0
O267 O 0.84056 0.1697 0.82821 0.0
H268 H 0.81395 0.14838 0.81475 0.0
H269 H 0.80467 0.13008 0.80399 0.0
H270 H 0.77189 0.13252 0.82916 0.0
H271 H 0.78109 0.15065 0.83968 0.0
H272 H 0.79068 0.2046 0.88187 0.0
H273 H 0.79897 0.19443 0.86229 0.0
H274 H 0.8285 0.21723 0.89011 0.0
H275 H 0.83664 0.20721 0.87078 0.0
H276 H 0.87453 0.20375 0.82397 0.0
H277 H 0.87494 0.17996 0.79071 0.0
H278 H 0.85447 0.17144 0.79715 0.0
H279 H 0.85359 0.19531 0.83019 0.0
C280 C 0.8401 0.92249 0.85413 0.0
C281 C 0.82777 0.92276 0.85952 0.0
C282 C 0.82128 0.93995 0.84492 0.0
C283 C 0.81849 0.93146 0.85502 0.0
C284 C 0.83379 0.93967 0.83985 0.0
C285 C 0.84302 0.93117 0.84445 0.0
U286 U 0.85644 0.89409 0.87296 0.0
O287 O 0.86696 0.878 0.86422 0.0
O288 O 0.87711 0.89132 0.87614 0.0
C289 C 0.87794 0.88118 0.86895 0.0
C290 C 0.84998 0.91282 0.85744 0.0
C291 C 0.88961 0.87921 0.86089 0.0
C292 C 0.90268 0.88218 0.84166 0.0
C293 C 0.89172 0.88522 0.84911 0.0
C294 C 0.90936 0.86704 0.85759 0.0
C295 C 0.91172 0.87284 0.84565 0.0
C296 C 0.89866 0.87028 0.86505 0.0
C297 C 0.83709 0.87995 0.90281 0.0
C298 C 0.84017 0.86208 0.91747 0.0
C299 C 0.82034 0.8741 0.91793 0.0
C300 C 0.82497 0.88202 0.90827 0.0
C301 C 0.82776 0.86392 0.92255 0.0
C302 C 0.84478 0.86999 0.90759 0.0
C303 C 0.84075 0.88814 0.89184 0.0
O304 O 0.85658 0.91448 0.86778 0.0
O305 O 0.84726 0.90089 0.85548 0.0
O306 O 0.84008 0.88334 0.8804 0.0
O307 O 0.85014 0.8961 0.89303 0.0
H308 H 0.82526 0.91614 0.86702 0.0
H309 H 0.80912 0.93142 0.85944 0.0
H310 H 0.83647 0.94566 0.83192 0.0
H311 H 0.85243 0.9311 0.84009 0.0
H312 H 0.90391 0.88719 0.83276 0.0
H313 H 0.88489 0.89217 0.84563 0.0
H314 H 0.91548 0.85959 0.86125 0.0
H315 H 0.89726 0.86544 0.87406 0.0
H316 H 0.84608 0.85426 0.9208 0.0
H317 H 0.8108 0.87582 0.92168 0.0
H318 H 0.81887 0.88965 0.90482 0.0
H319 H 0.85417 0.86818 0.90355 0.0
C320 C 0.13852 0.63535 0.66476 0.0
C321 C 0.14961 0.62892 0.66069 0.0
C322 C 0.14805 0.61421 0.67873 0.0
C323 C 0.15424 0.61837 0.66749 0.0
C324 C 0.1366 0.62046 0.68241 0.0
C325 C 0.13187 0.63085 0.67546 0.0
U326 U 0.12924 0.66912 0.64771 0.0
O327 O 0.10921 0.67588 0.64956 0.0
O328 O 0.12421 0.68443 0.66126 0.0
C329 C 0.11212 0.6841 0.65833 0.0
C330 C 0.13466 0.64757 0.65898 0.0
C331 C 0.10251 0.69275 0.66411 0.0
C332 C 0.089 0.69859 0.68221 0.0
C333 C 0.09681 0.6897 0.67582 0.0
C334 C 0.09195 0.71347 0.66489 0.0
C335 C 0.08666 0.71077 0.677 0.0
C336 C 0.09987 0.70461 0.65859 0.0
C337 C 0.14962 0.68075 0.61641 0.0
C338 C 0.15464 0.69675 0.60038 0.0
C339 C 0.16845 0.67833 0.60278 0.0
C340 C 0.16052 0.67383 0.61262 0.0
C341 C 0.16585 0.69005 0.59667 0.0
C342 C 0.14662 0.69211 0.61005 0.0
C343 C 0.14199 0.67687 0.62766 0.0
O344 O 0.14061 0.65807 0.6615 0.0
O345 O 0.12608 0.64847 0.65004 0.0
O346 O 0.13147 0.67039 0.62676 0.0
O347 O 0.1458 0.67893 0.63926 0.0
H348 H 0.15489 0.63226 0.65244 0.0
H349 H 0.16285 0.61368 0.66403 0.0
H350 H 0.13155 0.6178 0.69101 0.0
H351 H 0.12333 0.63576 0.67881 0.0
H352 H 0.0853 0.69603 0.6915 0.0
H353 H 0.09876 0.68058 0.68026 0.0
H354 H 0.09018 0.72252 0.66028 0.0
H355 H 0.10419 0.70715 0.64954 0.0
H356 H 0.15223 0.70586 0.59621 0.0
H357 H 0.1767 0.6726 0.6001 0.0
H358 H 0.16303 0.66502 0.6174 0.0
H359 H 0.13829 0.69766 0.61289 0.0
C360 C 0.8481 0.72246 0.65654 0.0
C361 C 0.85417 0.73349 0.65214 0.0
C362 C 0.83921 0.73523 0.63465 0.0
C363 C 0.84977 0.73982 0.64118 0.0
C364 C 0.83337 0.72415 0.63911 0.0
C365 C 0.83776 0.71788 0.6499 0.0
U366 U 0.86822 0.71553 0.68672 0.0
O367 O 0.86172 0.70702 0.70482 0.0
O368 O 0.87616 0.69711 0.69307 0.0
C369 C 0.86908 0.69688 0.70346 0.0
C370 C 0.85218 0.71521 0.66784 0.0
C371 C 0.86385 0.68451 0.70743 0.0
C372 C 0.8493 0.66682 0.70574 0.0
C373 C 0.85356 0.67876 0.70149 0.0
C374 C 0.86536 0.66655 0.72195 0.0
C375 C 0.85525 0.66049 0.71599 0.0
C376 C 0.86961 0.67831 0.71767 0.0
C377 C 0.89441 0.73994 0.69553 0.0
C378 C 0.90884 0.7404 0.71338 0.0
C379 C 0.91066 0.75595 0.69645 0.0
C380 C 0.90055 0.75044 0.69026 0.0
C381 C 0.91492 0.75106 0.70808 0.0
C382 C 0.89858 0.73489 0.70716 0.0
C383 C 0.88383 0.73464 0.68838 0.0
O384 O 0.86356 0.70984 0.66731 0.0
O385 O 0.84932 0.72013 0.67897 0.0
O386 O 0.87254 0.73453 0.69394 0.0
O387 O 0.88642 0.72443 0.68169 0.0
H388 H 0.86223 0.73718 0.65714 0.0
H389 H 0.85446 0.74835 0.63794 0.0
H390 H 0.8254 0.72023 0.63416 0.0
H391 H 0.83303 0.70935 0.65306 0.0
H392 H 0.84151 0.66249 0.70087 0.0
H393 H 0.84893 0.6834 0.69356 0.0
H394 H 0.86999 0.66229 0.73007 0.0
H395 H 0.87749 0.68261 0.72245 0.0
H396 H 0.91192 0.73646 0.72237 0.0
H397 H 0.91528 0.764 0.69202 0.0
H398 H 0.89753 0.75441 0.68126 0.0
H399 H 0.89395 0.72675 0.71138 0.0
C400 C 0.84403 0.34066 0.6365 0.0
C401 C 0.85067 0.33052 0.63057 0.0
C402 C 0.83317 0.32783 0.61551 0.0
C403 C 0.84528 0.32417 0.62018 0.0
C404 C 0.82689 0.33821 0.62139 0.0
C405 C 0.83217 0.34439 0.6317 0.0
U406 U 0.86436 0.35057 0.6668 0.0
O407 O 0.8692 0.37033 0.67167 0.0
O408 O 0.85589 0.35966 0.68386 0.0
C409 C 0.86211 0.37024 0.68206 0.0
C410 C 0.8488 0.34792 0.64752 0.0
C411 C 0.8568 0.38233 0.68735 0.0
C412 C 0.84037 0.3989 0.69012 0.0
C413 C 0.84497 0.38778 0.68401 0.0
C414 C 0.85927 0.39911 0.70288 0.0
C415 C 0.84748 0.40473 0.6997 0.0
C416 C 0.86384 0.38818 0.69677 0.0
C417 C 0.89312 0.32824 0.67885 0.0
C418 C 0.90589 0.32634 0.69808 0.0
C419 C 0.91017 0.31231 0.68044 0.0
C420 C 0.90043 0.31829 0.67361 0.0
C421 C 0.91292 0.31595 0.69293 0.0
C422 C 0.89605 0.33241 0.69112 0.0
C423 C 0.88225 0.33321 0.67123 0.0
O424 O 0.84635 0.34364 0.65903 0.0
O425 O 0.8598 0.35363 0.64653 0.0
O426 O 0.88403 0.34314 0.66384 0.0
O427 O 0.8707 0.33278 0.67616 0.0
H428 H 0.8599 0.32747 0.63399 0.0
H429 H 0.8505 0.31625 0.616 0.0
H430 H 0.81783 0.34175 0.61797 0.0
H431 H 0.82691 0.35225 0.63595 0.0
H432 H 0.83129 0.40295 0.6873 0.0
H433 H 0.83929 0.38344 0.67679 0.0
H434 H 0.86494 0.40298 0.71037 0.0
H435 H 0.8729 0.3841 0.69964 0.0
H436 H 0.90767 0.32953 0.70762 0.0
H437 H 0.91551 0.30473 0.67584 0.0
H438 H 0.89845 0.31492 0.66416 0.0
H439 H 0.89061 0.34013 0.6954 0.0
C440 C 0.11724 0.34576 0.68161 0.0
C441 C 0.11643 0.3453 0.69494 0.0
C442 C 0.09757 0.33213 0.69385 0.0
C443 C 0.10667 0.33852 0.70101 0.0
C444 C 0.09808 0.33332 0.68055 0.0
C445 C 0.10783 0.33997 0.67453 0.0
U446 U 0.1435 0.37063 0.67558 0.0
O447 O 0.16313 0.3676 0.66862 0.0
O448 O 0.14963 0.37887 0.65726 0.0
C449 C 0.16107 0.37368 0.6579 0.0
C450 C 0.12812 0.35133 0.67468 0.0
C451 C 0.16607 0.36757 0.64629 0.0
C452 C 0.17093 0.34888 0.63353 0.0
C453 C 0.16471 0.35455 0.64399 0.0
C454 C 0.17942 0.36928 0.62739 0.0
C455 C 0.17865 0.35617 0.62537 0.0
C456 C 0.17317 0.37491 0.63773 0.0
C457 C 0.1471 0.3988 0.69835 0.0
C458 C 0.16468 0.41348 0.6988 0.0
C459 C 0.14601 0.41704 0.71221 0.0
C460 C 0.14055 0.40617 0.70738 0.0
C461 C 0.15816 0.42081 0.70805 0.0
C462 C 0.15917 0.40254 0.69396 0.0
C463 C 0.14116 0.3871 0.69406 0.0
O464 O 0.12589 0.36214 0.66877 0.0
O465 O 0.13924 0.35079 0.68025 0.0
O466 O 0.14815 0.37667 0.69485 0.0
O467 O 0.13468 0.388 0.68352 0.0
H468 H 0.12353 0.34981 0.70062 0.0
H469 H 0.1066 0.33785 0.71127 0.0
H470 H 0.09106 0.3289 0.67471 0.0
H471 H 0.10822 0.34031 0.66425 0.0
H472 H 0.17021 0.33875 0.63217 0.0
H473 H 0.1592 0.34872 0.65048 0.0
H474 H 0.18518 0.37513 0.62115 0.0
H475 H 0.17426 0.38498 0.6393 0.0
H476 H 0.174 0.4162 0.69533 0.0
H477 H 0.14082 0.42229 0.71947 0.0
H478 H 0.13125 0.4034 0.71089 0.0
H479 H 0.16434 0.39696 0.68692 0.0
C480 C 0.10941 0.40059 0.36555 0.0
C481 C 0.1096 0.40298 0.35241 0.0
C482 C 0.09063 0.39047 0.35026 0.0
C483 C 0.10021 0.39794 0.34478 0.0
C484 C 0.08992 0.38905 0.36351 0.0
C485 C 0.09928 0.39405 0.3711 0.0
U486 U 0.14071 0.41718 0.37121 0.0
O487 O 0.14891 0.4235 0.38919 0.0
O488 O 0.15882 0.409 0.37761 0.0
C489 C 0.15823 0.41501 0.38849 0.0
C490 C 0.1204 0.4033 0.37335 0.0
C491 C 0.16022 0.407 0.39979 0.0
C492 C 0.15964 0.38636 0.41024 0.0
C493 C 0.15566 0.39455 0.4005 0.0
C494 C 0.17175 0.40334 0.41923 0.0
C495 C 0.16818 0.39053 0.41939 0.0
C496 C 0.16787 0.41146 0.40947 0.0
C497 C 0.15328 0.43996 0.34539 0.0
C498 C 0.17528 0.44638 0.34286 0.0
C499 C 0.15953 0.45321 0.32757 0.0
C500 C 0.15014 0.44687 0.33446 0.0
C501 C 0.17227 0.45272 0.33146 0.0
C502 C 0.16583 0.43999 0.34977 0.0
C503 C 0.1436 0.43181 0.35118 0.0
O504 O 0.13134 0.39903 0.36875 0.0
O505 O 0.12093 0.41481 0.37799 0.0
O506 O 0.13822 0.4358 0.36182 0.0
O507 O 0.14652 0.41964 0.3513 0.0
H508 H 0.11739 0.40807 0.34801 0.0
H509 H 0.10094 0.39911 0.33457 0.0
H510 H 0.08251 0.38344 0.36793 0.0
H511 H 0.09901 0.39217 0.38122 0.0
H512 H 0.15668 0.37657 0.4101 0.0
H513 H 0.14958 0.39097 0.39318 0.0
H514 H 0.17805 0.40694 0.42635 0.0
H515 H 0.17134 0.42107 0.40917 0.0
H516 H 0.18501 0.44581 0.34608 0.0
H517 H 0.15689 0.4582 0.31896 0.0
H518 H 0.14048 0.44695 0.33098 0.0
H519 H 0.1684 0.43466 0.35821 0.0
C520 C 0.17525 0.70275 0.27931 0.0
C521 C 0.17025 0.71317 0.28609 0.0
C522 C 0.15228 0.71455 0.2717 0.0
C523 C 0.1588 0.71904 0.28231 0.0
C524 C 0.15739 0.70406 0.26507 0.0
C525 C 0.16875 0.69827 0.26882 0.0
U526 U 0.20442 0.69536 0.30054 0.0
O527 O 0.21262 0.67658 0.30504 0.0
O528 O 0.2239 0.69034 0.29414 0.0
C529 C 0.2232 0.67871 0.29863 0.0
C530 C 0.18712 0.69615 0.28283 0.0
C531 C 0.22753 0.66852 0.29004 0.0
C532 C 0.22515 0.65532 0.2714 0.0
C533 C 0.2209 0.66546 0.27903 0.0
C534 C 0.24264 0.65142 0.28571 0.0
C535 C 0.23609 0.64816 0.27469 0.0
C536 C 0.23842 0.66149 0.29326 0.0
C537 C 0.21016 0.71301 0.33186 0.0
C538 C 0.22122 0.70566 0.35077 0.0
C539 C 0.21577 0.72793 0.34824 0.0
C540 C 0.21037 0.72541 0.33651 0.0
C541 C 0.2209 0.71805 0.35578 0.0
C542 C 0.21595 0.70318 0.33891 0.0
C543 C 0.20308 0.71058 0.32015 0.0
O544 O 0.19756 0.70283 0.28228 0.0
O545 O 0.18646 0.68862 0.29279 0.0
O546 O 0.1971 0.69975 0.31967 0.0
O547 O 0.20875 0.71366 0.30939 0.0
H548 H 0.17517 0.71673 0.29425 0.0
H549 H 0.15512 0.72711 0.2876 0.0
H550 H 0.15249 0.70014 0.25707 0.0
H551 H 0.17243 0.69017 0.26355 0.0
H552 H 0.21991 0.65309 0.26296 0.0
H553 H 0.21242 0.67081 0.27642 0.0
H554 H 0.25091 0.64597 0.28872 0.0
H555 H 0.24358 0.66367 0.30177 0.0
H556 H 0.22504 0.69777 0.3562 0.0
H557 H 0.21569 0.73765 0.35146 0.0
H558 H 0.20606 0.73315 0.33118 0.0
H559 H 0.21602 0.69353 0.33545 0.0
C560 C 0.85852 0.60321 0.35892 0.0
C561 C 0.86047 0.60327 0.34568 0.0
C562 C 0.84682 0.585 0.3438 0.0
C563 C 0.85457 0.59425 0.33815 0.0
C564 C 0.8457 0.58437 0.35705 0.0
C565 C 0.85149 0.59342 0.36455 0.0
U566 U 0.87888 0.63227 0.36663 0.0
O567 O 0.87242 0.65102 0.37337 0.0
O568 O 0.88518 0.63927 0.38519 0.0
C569 C 0.87875 0.65002 0.384 0.0
C570 C 0.86218 0.614 0.36686 0.0
C571 C 0.87293 0.65582 0.39545 0.0
C572 C 0.85492 0.66082 0.40956 0.0
C573 C 0.86049 0.65336 0.39983 0.0
C574 C 0.8744 0.67263 0.41094 0.0
C575 C 0.8617 0.67088 0.41488 0.0
C576 C 0.87988 0.66524 0.40134 0.0
C577 C 0.90657 0.6398 0.34223 0.0
C578 C 0.91865 0.65894 0.33798 0.0
C579 C 0.923 0.63995 0.32577 0.0
C580 C 0.91371 0.63357 0.33277 0.0
C581 C 0.92534 0.65284 0.32796 0.0
C582 C 0.90928 0.65247 0.34506 0.0
C583 C 0.89581 0.6329 0.34799 0.0
O584 O 0.87314 0.61305 0.37266 0.0
O585 O 0.85995 0.62533 0.36201 0.0
O586 O 0.88448 0.63834 0.34736 0.0
O587 O 0.89778 0.62684 0.35874 0.0
H588 H 0.86593 0.61069 0.34113 0.0
H589 H 0.85547 0.59491 0.32791 0.0
H590 H 0.83963 0.5774 0.36155 0.0
H591 H 0.84984 0.59322 0.37473 0.0
H592 H 0.84515 0.65916 0.41244 0.0
H593 H 0.85495 0.64608 0.39543 0.0
H594 H 0.88003 0.68003 0.41501 0.0
H595 H 0.88949 0.66728 0.39813 0.0
H596 H 0.92024 0.66885 0.33998 0.0
H597 H 0.92816 0.63481 0.3184 0.0
H598 H 0.91182 0.62378 0.33048 0.0
H599 H 0.90391 0.65745 0.3524 0.0
C600 C 0.86506 0.41322 0.36058 0.0
C601 C 0.85376 0.41559 0.36755 0.0
C602 C 0.84712 0.43161 0.35192 0.0
C603 C 0.8449 0.42476 0.3633 0.0
C604 C 0.85859 0.42918 0.34517 0.0
C605 C 0.86743 0.42019 0.3495 0.0
U606 U 0.87704 0.38472 0.38082 0.0
O607 O 0.88575 0.36685 0.37415 0.0
O608 O 0.89676 0.37954 0.38603 0.0
C609 C 0.89682 0.36914 0.37921 0.0
C610 C 0.87426 0.40312 0.36408 0.0
C611 C 0.90816 0.36664 0.37109 0.0
C612 C 0.91852 0.36507 0.3503 0.0
C613 C 0.90831 0.36931 0.35801 0.0
C614 C 0.92892 0.3563 0.3688 0.0
C615 C 0.92882 0.35814 0.35554 0.0
C616 C 0.91868 0.36039 0.37643 0.0
C617 C 0.85546 0.37337 0.40907 0.0
C618 C 0.85916 0.35659 0.42466 0.0
C619 C 0.83835 0.36669 0.42316 0.0
C620 C 0.84285 0.37447 0.41341 0.0
C621 C 0.8464 0.35765 0.429 0.0
C622 C 0.86366 0.36438 0.41473 0.0
C623 C 0.85939 0.38165 0.39846 0.0
O624 O 0.88031 0.40449 0.3748 0.0
O625 O 0.87057 0.39147 0.36219 0.0
O626 O 0.85876 0.37678 0.38706 0.0
O627 O 0.86947 0.38866 0.40004 0.0
H628 H 0.85174 0.41025 0.37615 0.0
H629 H 0.83632 0.42641 0.3689 0.0
H630 H 0.86064 0.43387 0.33623 0.0
H631 H 0.87605 0.41844 0.34395 0.0
H632 H 0.918 0.36672 0.34017 0.0
H633 H 0.90032 0.37422 0.35368 0.0
H634 H 0.9368 0.35143 0.37334 0.0
H635 H 0.9188 0.3583 0.38651 0.0
H636 H 0.8657 0.34982 0.42894 0.0
H637 H 0.82839 0.36761 0.42585 0.0
H638 H 0.83636 0.38128 0.4091 0.0
H639 H 0.87345 0.36336 0.41145 0.0
C640 C 0.6555 0.1565 0.68567 0.0
C641 C 0.66458 0.15006 0.67805 0.0
C642 C 0.66803 0.13458 0.69499 0.0
C643 C 0.67085 0.13917 0.68271 0.0
C644 C 0.65899 0.14115 0.70253 0.0
C645 C 0.65281 0.152 0.69792 0.0
U646 U 0.65103 0.18484 0.66296 0.0
O647 O 0.63333 0.19415 0.65645 0.0
O648 O 0.64702 0.20478 0.66761 0.0
C649 C 0.63587 0.20485 0.66213 0.0
C650 C 0.64889 0.1681 0.68134 0.0
C651 C 0.6254 0.21099 0.66927 0.0
C652 C 0.61218 0.21375 0.68826 0.0
C653 C 0.62137 0.20673 0.68133 0.0
C654 C 0.61074 0.22888 0.6709 0.0
C655 C 0.60703 0.2251 0.68321 0.0
C656 C 0.61986 0.22193 0.66405 0.0
C657 C 0.67374 0.18986 0.63476 0.0
C658 C 0.67444 0.20949 0.62251 0.0
C659 C 0.68973 0.19251 0.61821 0.0
C660 C 0.68408 0.1851 0.62766 0.0
C661 C 0.68522 0.20492 0.61574 0.0
C662 C 0.66874 0.202 0.63199 0.0
C663 C 0.66902 0.18236 0.64558 0.0
O664 O 0.65534 0.17858 0.68237 0.0
O665 O 0.64271 0.16733 0.67063 0.0
O666 O 0.65767 0.17749 0.64444 0.0
O667 O 0.67085 0.1874 0.65676 0.0
H668 H 0.66682 0.15348 0.66857 0.0
H669 H 0.67776 0.13426 0.67669 0.0
H670 H 0.6568 0.13798 0.71211 0.0
H671 H 0.64593 0.15693 0.70397 0.0
H672 H 0.60947 0.21059 0.69771 0.0
H673 H 0.62557 0.19824 0.68548 0.0
H674 H 0.60675 0.23739 0.6666 0.0
H675 H 0.62282 0.22531 0.65475 0.0
H676 H 0.67072 0.21899 0.62085 0.0
H677 H 0.6978 0.18856 0.61296 0.0
H678 H 0.68802 0.17574 0.62965 0.0
H679 H 0.66072 0.20581 0.63742 0.0
C680 C 0.36195 0.22046 0.61925 0.0
C681 C 0.36436 0.2328 0.61496 0.0
C682 C 0.34616 0.23197 0.60092 0.0
C683 C 0.35652 0.23852 0.60588 0.0
C684 C 0.34407 0.21943 0.60506 0.0
C685 C 0.35186 0.21377 0.6142 0.0
U686 U 0.38313 0.20477 0.64745 0.0
O687 O 0.37225 0.1927 0.66063 0.0
O688 O 0.38561 0.18386 0.64662 0.0
C689 C 0.37687 0.18222 0.65553 0.0
C690 C 0.36957 0.21481 0.6294 0.0
C691 C 0.37557 0.17008 0.66231 0.0
C692 C 0.36471 0.14998 0.6639 0.0
C693 C 0.36737 0.16116 0.65729 0.0
C694 C 0.37882 0.15627 0.68059 0.0
C695 C 0.37031 0.14739 0.6757 0.0
C696 C 0.38138 0.16758 0.67397 0.0
C697 C 0.41175 0.22491 0.66279 0.0
C698 C 0.42571 0.22872 0.68044 0.0
C699 C 0.4257 0.24304 0.66235 0.0
C700 C 0.41652 0.23566 0.65656 0.0
C701 C 0.43035 0.23967 0.67438 0.0
C702 C 0.4164 0.22146 0.67473 0.0
C703 C 0.40144 0.21771 0.65718 0.0
O704 O 0.37988 0.20794 0.62701 0.0
O705 O 0.36658 0.21642 0.64144 0.0
O706 O 0.38978 0.21809 0.66189 0.0
O707 O 0.40339 0.21017 0.64743 0.0
H708 H 0.37213 0.23808 0.61883 0.0
H709 H 0.35838 0.24821 0.60307 0.0
H710 H 0.33638 0.21397 0.60129 0.0
H711 H 0.3499 0.20421 0.61742 0.0
H712 H 0.35792 0.14358 0.65991 0.0
H713 H 0.36267 0.16302 0.64836 0.0
H714 H 0.38344 0.15454 0.68956 0.0
H715 H 0.38771 0.17441 0.67802 0.0
H716 H 0.42902 0.22596 0.68976 0.0
H717 H 0.42915 0.25139 0.65744 0.0
H718 H 0.41296 0.23849 0.64735 0.0
H719 H 0.41274 0.21323 0.67968 0.0
C720 C 0.33841 0.82987 0.63389 0.0
C721 C 0.34518 0.81955 0.62847 0.0
C722 C 0.32782 0.816 0.61355 0.0
C723 C 0.33993 0.81268 0.6184 0.0
C724 C 0.32134 0.82652 0.61895 0.0
C725 C 0.32651 0.83325 0.62896 0.0
U726 U 0.3598 0.83896 0.66303 0.0
O727 O 0.36629 0.85817 0.66786 0.0
O728 O 0.35298 0.84831 0.68063 0.0
C729 C 0.35963 0.85857 0.67852 0.0
C730 C 0.34321 0.83761 0.64451 0.0
C731 C 0.35431 0.871 0.68294 0.0
C732 C 0.33877 0.88861 0.68313 0.0
C733 C 0.34335 0.87698 0.678 0.0
C734 C 0.35615 0.88841 0.69787 0.0
C735 C 0.34505 0.89446 0.69329 0.0
C736 C 0.36061 0.87689 0.69285 0.0
C737 C 0.38745 0.81457 0.67322 0.0
C738 C 0.40262 0.81354 0.69061 0.0
C739 C 0.40296 0.79715 0.67472 0.0
C740 C 0.39283 0.80325 0.66857 0.0
C741 C 0.408 0.80199 0.686 0.0
C742 C 0.39249 0.81978 0.68427 0.0
C743 C 0.37658 0.82026 0.66613 0.0
O744 O 0.34094 0.83353 0.65612 0.0
O745 O 0.35444 0.8428 0.64315 0.0
O746 O 0.3787 0.83023 0.6589 0.0
O747 O 0.36527 0.82053 0.67165 0.0
H748 H 0.35443 0.81678 0.63205 0.0
H749 H 0.34525 0.80465 0.61458 0.0
H750 H 0.31223 0.82974 0.61536 0.0
H751 H 0.32115 0.84123 0.63286 0.0
H752 H 0.33019 0.89285 0.67928 0.0
H753 H 0.3383 0.87265 0.67032 0.0
H754 H 0.3616 0.8926 0.70533 0.0
H755 H 0.3691 0.87253 0.6968 0.0
H756 H 0.40603 0.81771 0.69924 0.0
H757 H 0.40689 0.78865 0.67039 0.0
H758 H 0.38918 0.79906 0.66003 0.0
H759 H 0.38854 0.82856 0.68805 0.0
C760 C 0.61409 0.83011 0.64791 0.0
C761 C 0.61243 0.83276 0.66089 0.0
C762 C 0.59482 0.81786 0.66239 0.0
C763 C 0.60286 0.82672 0.66805 0.0
C764 C 0.59613 0.81582 0.64925 0.0
C765 C 0.60563 0.82188 0.64213 0.0
U766 U 0.64185 0.85299 0.63905 0.0
O767 O 0.66156 0.8478 0.63352 0.0
O768 O 0.64928 0.85784 0.6199 0.0
C769 C 0.66057 0.85279 0.62211 0.0
C770 C 0.62522 0.83457 0.6404 0.0
C771 C 0.66768 0.8465 0.61159 0.0
C772 C 0.6714 0.82983 0.5959 0.0
C773 C 0.66373 0.83542 0.60554 0.0
C774 C 0.68685 0.84634 0.59832 0.0
C775 C 0.68313 0.83524 0.59218 0.0
C776 C 0.67923 0.85187 0.60781 0.0
C777 C 0.64542 0.88356 0.66031 0.0
C778 C 0.66297 0.89798 0.66377 0.0
C779 C 0.64288 0.90126 0.67491 0.0
C780 C 0.6379 0.8908 0.66876 0.0
C781 C 0.65555 0.90485 0.67274 0.0
C782 C 0.65797 0.88733 0.65766 0.0
C783 C 0.63997 0.87166 0.65553 0.0
O784 O 0.62361 0.84475 0.63329 0.0
O785 O 0.63628 0.83417 0.64606 0.0
O786 O 0.64639 0.86106 0.65761 0.0
O787 O 0.63436 0.87198 0.64446 0.0
H788 H 0.61877 0.83915 0.66557 0.0
H789 H 0.60198 0.82876 0.67808 0.0
H790 H 0.59028 0.80902 0.64452 0.0
H791 H 0.60673 0.81967 0.63214 0.0
H792 H 0.66815 0.82133 0.59135 0.0
H793 H 0.65483 0.83108 0.6083 0.0
H794 H 0.69587 0.85068 0.59606 0.0
H795 H 0.68251 0.86036 0.61238 0.0
H796 H 0.67277 0.90051 0.66189 0.0
H797 H 0.63684 0.90642 0.68159 0.0
H798 H 0.6282 0.88809 0.67094 0.0
H799 H 0.66398 0.88189 0.65118 0.0
C800 C 0.64288 0.87594 0.36556 0.0
C801 C 0.64051 0.88013 0.3531 0.0
C802 C 0.62274 0.86558 0.3518 0.0
C803 C 0.63041 0.87503 0.34628 0.0
C804 C 0.62482 0.86198 0.36446 0.0
C805 C 0.63475 0.86712 0.37124 0.0
U806 U 0.67406 0.89432 0.37334 0.0
O807 O 0.68087 0.89867 0.39252 0.0
O808 O 0.69185 0.88564 0.38022 0.0
C809 C 0.69073 0.89087 0.39147 0.0
C810 C 0.65429 0.87941 0.37263 0.0
C811 C 0.69353 0.88253 0.40242 0.0
C812 C 0.69208 0.86236 0.4138 0.0
C813 C 0.68771 0.87073 0.40429 0.0
C814 C 0.70753 0.87782 0.42001 0.0
C815 C 0.70237 0.86566 0.42147 0.0
C816 C 0.70319 0.8861 0.41058 0.0
C817 C 0.68698 0.92165 0.35194 0.0
C818 C 0.70847 0.92997 0.35087 0.0
C819 C 0.69193 0.93935 0.33789 0.0
C820 C 0.68318 0.9308 0.343 0.0
C821 C 0.70474 0.93891 0.34157 0.0
C822 C 0.69965 0.92142 0.35605 0.0
C823 C 0.67772 0.91194 0.35591 0.0
O824 O 0.66537 0.87661 0.36729 0.0
O825 O 0.65409 0.8903 0.37863 0.0
O826 O 0.67121 0.914 0.36648 0.0
O827 O 0.68147 0.90006 0.35459 0.0
H828 H 0.64669 0.88696 0.34855 0.0
H829 H 0.62899 0.87799 0.33653 0.0
H830 H 0.61896 0.85488 0.36903 0.0
H831 H 0.6364 0.86378 0.38084 0.0
H832 H 0.68788 0.85309 0.41469 0.0
H833 H 0.68018 0.86781 0.39811 0.0
H834 H 0.71525 0.8808 0.42592 0.0
H835 H 0.70776 0.89517 0.40934 0.0
H836 H 0.71825 0.92948 0.35398 0.0
H837 H 0.68876 0.94597 0.33065 0.0
H838 H 0.67348 0.93109 0.33964 0.0
H839 H 0.70278 0.91445 0.36298 0.0
C840 C 0.62885 0.17121 0.32569 0.0
C841 C 0.62625 0.18336 0.33058 0.0
C842 C 0.60835 0.18602 0.31617 0.0
C843 C 0.61607 0.19073 0.32583 0.0
C844 C 0.61083 0.17371 0.31164 0.0
C845 C 0.62096 0.16642 0.31633 0.0
U846 U 0.65864 0.1618 0.34584 0.0
O847 O 0.66573 0.14252 0.35037 0.0
O848 O 0.6773 0.15525 0.33844 0.0
C849 C 0.67636 0.14404 0.34385 0.0
C850 C 0.64018 0.16356 0.32928 0.0
C851 C 0.68165 0.13306 0.3369 0.0
C852 C 0.6842 0.11956 0.31833 0.0
C853 C 0.67783 0.12958 0.32469 0.0
C854 C 0.69784 0.11642 0.33646 0.0
C855 C 0.69449 0.1131 0.32409 0.0
C856 C 0.69152 0.12628 0.34274 0.0
C857 C 0.66826 0.18113 0.37546 0.0
C858 C 0.68784 0.17935 0.38764 0.0
C859 C 0.67189 0.19535 0.39302 0.0
C860 C 0.66421 0.1911 0.3833 0.0
C861 C 0.68396 0.18981 0.39514 0.0
C862 C 0.68006 0.17506 0.37781 0.0
C863 C 0.66014 0.17796 0.36464 0.0
O864 O 0.65127 0.16896 0.32769 0.0
O865 O 0.63937 0.15674 0.33974 0.0
O866 O 0.65372 0.1674 0.36547 0.0
O867 O 0.66495 0.18005 0.35325 0.0
H868 H 0.63222 0.18724 0.33783 0.0
H869 H 0.61432 0.20014 0.3296 0.0
H870 H 0.60523 0.16985 0.30409 0.0
H871 H 0.62287 0.15711 0.31236 0.0
H872 H 0.68139 0.11715 0.30881 0.0
H873 H 0.67018 0.13472 0.32004 0.0
H874 H 0.70551 0.11147 0.34127 0.0
H875 H 0.69457 0.1288 0.35216 0.0
H876 H 0.69705 0.17481 0.38903 0.0
H877 H 0.6684 0.20317 0.39878 0.0
H878 H 0.65513 0.19585 0.38173 0.0
H879 H 0.68335 0.16727 0.3719 0.0
C880 C 0.32481 0.12976 0.37248 0.0
C881 C 0.33022 0.12523 0.36104 0.0
C882 C 0.31476 0.10804 0.36072 0.0
C883 C 0.32524 0.11441 0.35521 0.0
C884 C 0.30982 0.11248 0.37238 0.0
C885 C 0.31472 0.12318 0.3781 0.0
U886 U 0.34387 0.16111 0.37986 0.0
O887 O 0.33482 0.17882 0.38683 0.0
O888 O 0.34815 0.16807 0.39906 0.0
C889 C 0.34084 0.17822 0.39767 0.0
C890 C 0.32872 0.14151 0.37885 0.0
C891 C 0.33528 0.18462 0.40895 0.0
C892 C 0.31766 0.19152 0.42274 0.0
C893 C 0.32245 0.1838 0.41282 0.0
C894 C 0.33853 0.20046 0.42514 0.0
C895 C 0.32562 0.20021 0.42881 0.0
C896 C 0.34324 0.19283 0.41535 0.0
C897 C 0.37304 0.17078 0.3572 0.0
C898 C 0.38734 0.18873 0.35501 0.0
C899 C 0.38872 0.17147 0.34003 0.0
C900 C 0.37895 0.16533 0.34654 0.0
C901 C 0.39316 0.18326 0.34408 0.0
C902 C 0.37731 0.18255 0.36151 0.0
C903 C 0.36222 0.16378 0.36283 0.0
O904 O 0.33942 0.14134 0.38516 0.0
O905 O 0.32633 0.15238 0.37312 0.0
O906 O 0.35065 0.16848 0.36138 0.0
O907 O 0.36381 0.15769 0.37363 0.0
H908 H 0.33807 0.13014 0.35653 0.0
H909 H 0.32934 0.11128 0.34625 0.0
H910 H 0.30204 0.1077 0.37715 0.0
H911 H 0.31045 0.12645 0.38694 0.0
H912 H 0.30765 0.19103 0.42529 0.0
H913 H 0.3161 0.1775 0.40802 0.0
H914 H 0.34508 0.2067 0.42973 0.0
H915 H 0.35315 0.19363 0.4125 0.0
H916 H 0.3905 0.19774 0.35855 0.0
H917 H 0.3925 0.16701 0.33152 0.0
H918 H 0.37577 0.15632 0.343 0.0
H919 H 0.37288 0.18697 0.36976 0.0
C920 C 0.37228 0.9186 0.38648 0.0
C921 C 0.36053 0.91877 0.39304 0.0
C922 C 0.35242 0.93554 0.37886 0.0
C923 C 0.35072 0.92724 0.38933 0.0
C924 C 0.36443 0.93548 0.37269 0.0
C925 C 0.3742 0.92721 0.37651 0.0
U926 U 0.38763 0.88924 0.40349 0.0
O927 O 0.39761 0.87298 0.39465 0.0
O928 O 0.408 0.88536 0.40744 0.0
C929 C 0.40845 0.87528 0.40015 0.0
C930 C 0.38243 0.909 0.38891 0.0
C931 C 0.42031 0.87219 0.39295 0.0
C932 C 0.43443 0.8735 0.37436 0.0
C933 C 0.42404 0.87832 0.38162 0.0
C934 C 0.43771 0.85692 0.39001 0.0
C935 C 0.44108 0.86242 0.37827 0.0
C936 C 0.42747 0.8617 0.39718 0.0
C937 C 0.36725 0.87357 0.43117 0.0
C938 C 0.36465 0.85189 0.43894 0.0
C939 C 0.35284 0.86915 0.44888 0.0
C940 C 0.35869 0.87776 0.44063 0.0
C941 C 0.35529 0.85602 0.44784 0.0
C942 C 0.37055 0.86059 0.43064 0.0
C943 C 0.3709 0.88278 0.42114 0.0
O944 O 0.38868 0.90982 0.39957 0.0
O945 O 0.3798 0.89728 0.3859 0.0
O946 O 0.37052 0.87891 0.40933 0.0
O947 O 0.38034 0.89045 0.42329 0.0
H948 H 0.35884 0.9122 0.4008 0.0
H949 H 0.34178 0.92709 0.39456 0.0
H950 H 0.36625 0.94138 0.36445 0.0
H951 H 0.38317 0.92722 0.3713 0.0
H952 H 0.43681 0.87804 0.3654 0.0
H953 H 0.41868 0.88648 0.37818 0.0
H954 H 0.44276 0.84859 0.39351 0.0
H955 H 0.4248 0.85684 0.4059 0.0
H956 H 0.36688 0.84189 0.43786 0.0
H957 H 0.34603 0.87279 0.45583 0.0
H958 H 0.35602 0.88772 0.44125 0.0
H959 H 0.37719 0.85712 0.42344 0.0
C960 C 0.72337 0.67825 0.22941 0.0
C961 C 0.73126 0.67152 0.22077 0.0
C962 C 0.73197 0.65336 0.23539 0.0
C963 C 0.73564 0.65913 0.22381 0.0
C964 C 0.72466 0.66048 0.24414 0.0
C965 C 0.72043 0.67272 0.24117 0.0
U966 U 0.71274 0.71071 0.21235 0.0
O967 O 0.69281 0.71748 0.21164 0.0
O968 O 0.70666 0.72792 0.22286 0.0
C969 C 0.69489 0.72728 0.2189 0.0
C970 C 0.71689 0.69048 0.22654 0.0
C971 C 0.68431 0.73205 0.22707 0.0
C972 C 0.66891 0.73072 0.24462 0.0
C973 C 0.67988 0.72598 0.2382 0.0
C974 C 0.66722 0.74772 0.22914 0.0
C975 C 0.66225 0.74146 0.23988 0.0
C976 C 0.67803 0.74305 0.22284 0.0
C977 C 0.72836 0.72177 0.17951 0.0
C978 C 0.72294 0.73765 0.16336 0.0
C979 C 0.74082 0.72321 0.15996 0.0
C980 C 0.73858 0.71769 0.17181 0.0
C981 C 0.73287 0.733 0.15537 0.0
C982 C 0.72063 0.73199 0.17536 0.0
C983 C 0.72586 0.71422 0.19117 0.0
O984 O 0.72308 0.70109 0.22794 0.0
O985 O 0.70864 0.69086 0.21729 0.0
O986 O 0.71528 0.70778 0.1918 0.0
O987 O 0.72935 0.71872 0.20216 0.0
H988 H 0.73369 0.67562 0.21162 0.0
H989 H 0.74132 0.65387 0.2169 0.0
H990 H 0.72185 0.65642 0.2532 0.0
H991 H 0.71439 0.67773 0.24798 0.0
H992 H 0.66535 0.72572 0.25292 0.0
H993 H 0.68465 0.71748 0.24169 0.0
H994 H 0.66256 0.75616 0.22539 0.0
H995 H 0.68131 0.74791 0.21434 0.0
H996 H 0.71667 0.74523 0.16013 0.0
H997 H 0.74869 0.71956 0.15422 0.0
H998 H 0.74467 0.70987 0.17482 0.0
H999 H 0.71268 0.73534 0.18117 0.0
C1000 C 0.38324 0.67047 0.13114 0.0
C1001 C 0.38614 0.68339 0.13195 0.0
C1002 C 0.3744 0.68775 0.11255 0.0
C1003 C 0.38175 0.69198 0.12271 0.0
C1004 C 0.37229 0.67467 0.11142 0.0
C1005 C 0.37661 0.66615 0.12065 0.0
U1006 U 0.40087 0.65913 0.16118 0.0
O1007 O 0.39283 0.65052 0.17848 0.0
O1008 O 0.40637 0.63956 0.16664 0.0
C1009 C 0.39829 0.63942 0.1763 0.0
C1010 C 0.38596 0.66145 0.14151 0.0
C1011 C 0.38976 0.62848 0.17711 0.0
C1012 C 0.36921 0.61895 0.17356 0.0
C1013 C 0.37774 0.62883 0.17144 0.0
C1014 C 0.38491 0.60792 0.18635 0.0
C1015 C 0.37264 0.60851 0.18122 0.0
C1016 C 0.39336 0.61786 0.18436 0.0
C1017 C 0.42707 0.68143 0.17416 0.0
C1018 C 0.43647 0.6826 0.19509 0.0
C1019 C 0.44256 0.69752 0.17858 0.0
C1020 C 0.43453 0.69161 0.17015 0.0
C1021 C 0.44339 0.69329 0.19119 0.0
C1022 C 0.42825 0.67673 0.18661 0.0
C1023 C 0.41735 0.67699 0.1654 0.0
O1024 O 0.39703 0.65545 0.14103 0.0
O1025 O 0.38269 0.66526 0.15297 0.0
O1026 O 0.4055 0.67744 0.16958 0.0
O1027 O 0.42012 0.66688 0.15859 0.0
H1028 H 0.39133 0.68689 0.13997 0.0
H1029 H 0.38356 0.70198 0.12388 0.0
H1030 H 0.36697 0.67102 0.10357 0.0
H1031 H 0.37437 0.6562 0.11982 0.0
H1032 H 0.35984 0.61957 0.16941 0.0
H1033 H 0.37481 0.63691 0.16571 0.0
H1034 H 0.38775 0.60003 0.19237 0.0
H1035 H 0.40259 0.61742 0.18881 0.0
H1036 H 0.43694 0.67923 0.2048 0.0
H1037 H 0.44784 0.7057 0.17537 0.0
H1038 H 0.43373 0.69537 0.16059 0.0
H1039 H 0.42251 0.66889 0.18989 0.0
C1040 C 0.37374 0.36753 0.09037 0.0
C1041 C 0.38011 0.35574 0.08923 0.0
C1042 C 0.36495 0.34914 0.07323 0.0
C1043 C 0.37575 0.34662 0.08071 0.0
C1044 C 0.35893 0.36113 0.07422 0.0
C1045 C 0.36328 0.37018 0.08266 0.0
U1046 U 0.39285 0.37995 0.11891 0.0
O1047 O 0.3975 0.39973 0.12368 0.0
O1048 O 0.38525 0.38858 0.13642 0.0
C1049 C 0.39048 0.3996 0.13413 0.0
C1050 C 0.37694 0.37687 0.10016 0.0
C1051 C 0.38249 0.41094 0.13702 0.0
C1052 C 0.36224 0.42259 0.13681 0.0
C1053 C 0.37017 0.41269 0.13224 0.0
C1054 C 0.37903 0.42931 0.15056 0.0
C1055 C 0.36644 0.43084 0.14632 0.0
C1056 C 0.38693 0.41953 0.14594 0.0
C1057 C 0.42044 0.3587 0.13228 0.0
C1058 C 0.42953 0.35889 0.15339 0.0
C1059 C 0.43664 0.34308 0.13818 0.0
C1060 C 0.42844 0.34838 0.12919 0.0
C1061 C 0.43707 0.34803 0.15054 0.0
C1062 C 0.42124 0.36415 0.14435 0.0
C1063 C 0.41045 0.36243 0.12323 0.0
O1064 O 0.37451 0.37344 0.11194 0.0
O1065 O 0.38779 0.38281 0.0988 0.0
O1066 O 0.41246 0.37241 0.11597 0.0
O1067 O 0.39868 0.36181 0.12754 0.0
H1068 H 0.38822 0.35349 0.09511 0.0
H1069 H 0.38072 0.33755 0.08011 0.0
H1070 H 0.35048 0.3634 0.06884 0.0
H1071 H 0.35817 0.37917 0.08347 0.0
H1072 H 0.35272 0.42358 0.13311 0.0
H1073 H 0.36655 0.40617 0.12532 0.0
H1074 H 0.38264 0.43525 0.15798 0.0
H1075 H 0.39637 0.41831 0.1498 0.0
H1076 H 0.42977 0.36313 0.16271 0.0
H1077 H 0.4421 0.33466 0.13561 0.0
H1078 H 0.42792 0.34399 0.11995 0.0
H1079 H 0.41515 0.37216 0.14693 0.0
C1080 C 0.61129 0.34692 0.15904 0.0
C1081 C 0.60611 0.35282 0.16992 0.0
C1082 C 0.59157 0.33506 0.17337 0.0
C1083 C 0.5963 0.34696 0.17701 0.0
C1084 C 0.59696 0.32933 0.16245 0.0
C1085 C 0.60655 0.33522 0.15538 0.0
U1086 U 0.63957 0.36955 0.15024 0.0
O1087 O 0.65812 0.3638 0.142 0.0
O1088 O 0.64527 0.37627 0.13109 0.0
C1089 C 0.65628 0.37015 0.1314 0.0
C1090 C 0.62186 0.35219 0.15129 0.0
C1091 C 0.66118 0.36427 0.1196 0.0
C1092 C 0.66338 0.34675 0.10473 0.0
C1093 C 0.65718 0.35246 0.11522 0.0
C1094 C 0.67733 0.36472 0.10288 0.0
C1095 C 0.67374 0.35273 0.09858 0.0
C1096 C 0.67109 0.37041 0.11319 0.0
C1097 C 0.64924 0.39675 0.17299 0.0
C1098 C 0.66773 0.41042 0.17188 0.0
C1099 C 0.6528 0.41212 0.18954 0.0
C1100 C 0.6455 0.40262 0.18433 0.0
C1101 C 0.66405 0.41621 0.18346 0.0
C1102 C 0.6604 0.40072 0.1667 0.0
C1103 C 0.64147 0.38616 0.16858 0.0
O1104 O 0.62012 0.36339 0.14596 0.0
O1105 O 0.63341 0.35038 0.15561 0.0
O1106 O 0.64684 0.37482 0.1689 0.0
O1107 O 0.63449 0.38817 0.1585 0.0
H1108 H 0.60965 0.36188 0.17296 0.0
H1109 H 0.59241 0.3518 0.18526 0.0
H1110 H 0.59405 0.32006 0.15942 0.0
H1111 H 0.61045 0.33044 0.14708 0.0
H1112 H 0.66023 0.33759 0.10161 0.0
H1113 H 0.64953 0.34755 0.12007 0.0
H1114 H 0.68539 0.36955 0.09869 0.0
H1115 H 0.67439 0.37947 0.11649 0.0
H1116 H 0.67625 0.41334 0.16683 0.0
H1117 H 0.64974 0.41595 0.1986 0.0
H1118 H 0.63699 0.39963 0.18937 0.0
H1119 H 0.66349 0.39627 0.15791 0.0
C1120 C 0.64411 0.38628 0.86368 0.0
C1121 C 0.64199 0.39498 0.85371 0.0
C1122 C 0.62388 0.38268 0.84662 0.0
C1123 C 0.63197 0.39316 0.8452 0.0
C1124 C 0.62612 0.37411 0.85665 0.0
C1125 C 0.63608 0.37589 0.86503 0.0
U1126 U 0.6754 0.40003 0.87746 0.0
O1127 O 0.6807 0.40155 0.89759 0.0
O1128 O 0.69185 0.3892 0.8847 0.0
C1129 C 0.69036 0.39353 0.89629 0.0
C1130 C 0.6547 0.38727 0.8727 0.0
C1131 C 0.6929 0.3845 0.90673 0.0
C1132 C 0.68934 0.36483 0.91841 0.0
C1133 C 0.68562 0.37365 0.90903 0.0
C1134 C 0.70736 0.37783 0.92334 0.0
C1135 C 0.70035 0.3668 0.92559 0.0
C1136 C 0.70366 0.38655 0.91405 0.0
C1137 C 0.69186 0.42849 0.86007 0.0
C1138 C 0.71371 0.43589 0.861 0.0
C1139 C 0.69881 0.44582 0.84654 0.0
C1140 C 0.68928 0.43781 0.85092 0.0
C1141 C 0.71127 0.44468 0.85115 0.0
C1142 C 0.70406 0.42777 0.86541 0.0
C1143 C 0.68191 0.41906 0.86262 0.0
O1144 O 0.66608 0.38399 0.8684 0.0
O1145 O 0.65475 0.39722 0.88016 0.0
O1146 O 0.67474 0.42051 0.87287 0.0
O1147 O 0.68501 0.40717 0.86027 0.0
H1148 H 0.6481 0.40308 0.85247 0.0
H1149 H 0.63048 0.39996 0.83759 0.0
H1150 H 0.62029 0.36582 0.85791 0.0
H1151 H 0.63759 0.36901 0.87257 0.0
H1152 H 0.6837 0.35646 0.91999 0.0
H1153 H 0.67727 0.37188 0.90345 0.0
H1154 H 0.71601 0.37955 0.92846 0.0
H1155 H 0.70946 0.3948 0.91233 0.0
H1156 H 0.7232 0.43483 0.8648 0.0
H1157 H 0.69652 0.45265 0.83917 0.0
H1158 H 0.67994 0.43855 0.84672 0.0
H1159 H 0.70625 0.42066 0.87255 0.0
C1160 C 0.62728 0.63273 0.86355 0.0
C1161 C 0.6233 0.64504 0.86708 0.0
C1162 C 0.60817 0.64584 0.84959 0.0
C1163 C 0.61376 0.65152 0.86019 0.0
C1164 C 0.61169 0.63323 0.84671 0.0
C1165 C 0.62113 0.62681 0.85356 0.0
U1166 U 0.65608 0.62686 0.88657 0.0
O1167 O 0.66437 0.60821 0.89214 0.0
O1168 O 0.67565 0.62164 0.88088 0.0
C1169 C 0.67516 0.61028 0.88604 0.0
C1170 C 0.63862 0.62621 0.8689 0.0
C1171 C 0.68071 0.59988 0.87829 0.0
C1172 C 0.68434 0.58976 0.85781 0.0
C1173 C 0.67716 0.598 0.86565 0.0
C1174 C 0.69806 0.58448 0.87541 0.0
C1175 C 0.69507 0.5832 0.86255 0.0
C1176 C 0.69098 0.5928 0.88318 0.0
C1177 C 0.6631 0.64979 0.91437 0.0
C1178 C 0.68319 0.65237 0.92527 0.0
C1179 C 0.66505 0.66588 0.93062 0.0
C1180 C 0.65774 0.65956 0.92176 0.0
C1181 C 0.67795 0.66258 0.93234 0.0
C1182 C 0.67583 0.64604 0.91634 0.0
C1183 C 0.65552 0.64477 0.90388 0.0
O1184 O 0.6495 0.63204 0.86751 0.0
O1185 O 0.63741 0.62036 0.8799 0.0
O1186 O 0.65016 0.6337 0.9056 0.0
O1187 O 0.66043 0.64622 0.89243 0.0
H1188 H 0.6279 0.64979 0.8748 0.0
H1189 H 0.61127 0.66119 0.86275 0.0
H1190 H 0.6074 0.62837 0.83888 0.0
H1191 H 0.624 0.61732 0.85068 0.0
H1192 H 0.68183 0.58887 0.84793 0.0
H1193 H 0.66926 0.60335 0.86168 0.0
H1194 H 0.70635 0.57966 0.87925 0.0
H1195 H 0.69395 0.59419 0.89286 0.0
H1196 H 0.69303 0.64944 0.92646 0.0
H1197 H 0.66069 0.67377 0.93569 0.0
H1198 H 0.64798 0.66267 0.92033 0.0
H1199 H 0.68016 0.6385 0.91074 0.0
C1200 C 0.3086 0.66989 0.83932 0.0
C1201 C 0.31499 0.66322 0.82954 0.0
C1202 C 0.29735 0.64877 0.82841 0.0
C1203 C 0.3094 0.65261 0.82416 0.0
C1204 C 0.29088 0.65565 0.83793 0.0
C1205 C 0.29651 0.66611 0.8434 0.0
U1206 U 0.33519 0.69353 0.84165 0.0
O1207 O 0.33511 0.71343 0.84763 0.0
O1208 O 0.34629 0.6991 0.85815 0.0
C1209 C 0.34223 0.71094 0.85753 0.0
C1210 C 0.31463 0.68041 0.84577 0.0
C1211 C 0.33785 0.71645 0.86956 0.0
C1212 C 0.3212 0.7217 0.88497 0.0
C1213 C 0.32512 0.71571 0.87373 0.0
C1214 C 0.34276 0.72886 0.88801 0.0
C1215 C 0.32998 0.72852 0.89206 0.0
C1216 C 0.34665 0.72285 0.87685 0.0
C1217 C 0.36164 0.69372 0.81691 0.0
C1218 C 0.37944 0.708 0.8184 0.0
C1219 C 0.37919 0.69205 0.8019 0.0
C1220 C 0.36747 0.68787 0.80642 0.0
C1221 C 0.38522 0.70209 0.80786 0.0
C1222 C 0.36762 0.70383 0.82291 0.0
C1223 C 0.34957 0.68881 0.82172 0.0
O1224 O 0.32564 0.67756 0.85092 0.0
O1225 O 0.31453 0.69131 0.83963 0.0
O1226 O 0.33986 0.69686 0.82152 0.0
O1227 O 0.35038 0.68229 0.83234 0.0
H1228 H 0.32435 0.66606 0.82627 0.0
H1229 H 0.31449 0.64738 0.8168 0.0
H1230 H 0.28161 0.65271 0.84137 0.0
H1231 H 0.29152 0.67113 0.85096 0.0
H1232 H 0.31129 0.72134 0.88793 0.0
H1233 H 0.31822 0.7107 0.86821 0.0
H1234 H 0.34973 0.73386 0.89344 0.0
H1235 H 0.35653 0.72338 0.87381 0.0
H1236 H 0.38401 0.7158 0.82304 0.0
H1237 H 0.38361 0.68742 0.79376 0.0
H1238 H 0.36299 0.68002 0.80177 0.0
H1239 H 0.3632 0.7084 0.83109 0.0
C1240 C 0.30712 0.38233 0.82196 0.0
C1241 C 0.29623 0.38426 0.82972 0.0
C1242 C 0.29039 0.40322 0.81738 0.0
C1243 C 0.28786 0.39461 0.82738 0.0
C1244 C 0.30111 0.40094 0.80952 0.0
C1245 C 0.30932 0.39065 0.81178 0.0
U1246 U 0.32372 0.35309 0.83899 0.0
O1247 O 0.33452 0.33747 0.8297 0.0
O1248 O 0.34431 0.35067 0.84208 0.0
C1249 C 0.34541 0.34085 0.83451 0.0
C1250 C 0.3168 0.37221 0.82424 0.0
C1251 C 0.35687 0.3401 0.82618 0.0
C1252 C 0.37186 0.34881 0.81062 0.0
C1253 C 0.36027 0.34971 0.81752 0.0
C1254 C 0.37642 0.32857 0.82066 0.0
C1255 C 0.38023 0.33832 0.8123 0.0
C1256 C 0.36497 0.3295 0.82752 0.0
C1257 C 0.30874 0.33734 0.86933 0.0
C1258 C 0.3159 0.3185 0.88097 0.0
C1259 C 0.29862 0.33156 0.88943 0.0
C1260 C 0.29959 0.33964 0.87891 0.0
C1261 C 0.30675 0.32095 0.89058 0.0
C1262 C 0.31693 0.32668 0.8704 0.0
C1263 C 0.30933 0.34634 0.85851 0.0
O1264 O 0.32402 0.37345 0.83421 0.0
O1265 O 0.31362 0.36041 0.82215 0.0
O1266 O 0.30818 0.34164 0.84707 0.0
O1267 O 0.31792 0.35521 0.85906 0.0
H1268 H 0.29433 0.37794 0.83764 0.0
H1269 H 0.27968 0.39613 0.83361 0.0
H1270 H 0.30324 0.40723 0.80163 0.0
H1271 H 0.31761 0.38931 0.80565 0.0
H1272 H 0.37443 0.35652 0.80429 0.0
H1273 H 0.35414 0.35798 0.81631 0.0
H1274 H 0.38234 0.32017 0.822 0.0
H1275 H 0.36252 0.32194 0.83409 0.0
H1276 H 0.3223 0.31036 0.88172 0.0
H1277 H 0.2915 0.33361 0.89672 0.0
H1278 H 0.29317 0.34778 0.87827 0.0
H1279 H 0.32408 0.32473 0.86313 0.0
H1280 H 0.22544 0.17931 0.02323 0.0
H1281 H 0.28498 0.2741 0.09766 0.0
H1282 H 0.27912 0.22006 0.99776 0.0
H1283 H 0.26821 0.20671 0.98288 0.0
H1284 H 0.24233 0.23787 0.97427 0.0
H1285 H 0.25307 0.25098 0.98978 0.0
H1286 H 0.26933 0.2126 0.02473 0.0
H1287 H 0.25352 0.19582 0.02504 0.0
H1288 H 0.22509 0.2227 0.01165 0.0
H1289 H 0.24094 0.23941 0.0116 0.0
H1290 H 0.28219 0.22749 0.04719 0.0
H1291 H 0.27385 0.21901 0.06731 0.0
H1292 H 0.23701 0.23592 0.05946 0.0
H1293 H 0.24549 0.2446 0.03946 0.0
H1294 H 0.30129 0.2486 0.04182 0.0
H1295 H 0.30707 0.25453 0.06337 0.0
H1296 H 0.26968 0.27161 0.06901 0.0
H1297 H 0.26411 0.26579 0.04741 0.0
H1298 H 0.30874 0.25666 0.0145 0.0
H1299 H 0.3244 0.27228 0.02079 0.0
H1300 H 0.29373 0.29716 0.0337 0.0
H1301 H 0.2783 0.28173 0.02693 0.0
H1302 H 0.29346 0.24378 0.98726 0.0
H1303 H 0.29892 0.25472 0.96742 0.0
H1304 H 0.27803 0.28802 0.98046 0.0
H1305 H 0.27293 0.27708 1.00028 0.0
O1306 O 0.23158 0.18605 0.02291 0.0
O1307 O 0.21755 0.20002 0.01518 0.0
O1308 O 0.30254 0.26398 0.08532 0.0
O1309 O 0.28314 0.27209 0.08894 0.0
C1310 C 0.27073 0.2426 1.00685 0.0
C1311 C 0.26578 0.23746 0.0183 0.0
C1312 C 0.26962 0.24218 0.03003 0.0
C1313 C 0.27837 0.25211 0.03048 0.0
C1314 C 0.28312 0.25762 0.01912 0.0
C1315 C 0.27912 0.253 1.0072 0.0
C1316 C 0.26698 0.23654 0.9948 0.0
C1317 C 0.2714 0.22416 0.9923 0.0
C1318 C 0.26506 0.21649 0.98379 0.0
C1319 C 0.25421 0.22108 0.97742 0.0
C1320 C 0.25045 0.23388 0.97919 0.0
C1321 C 0.25676 0.24152 0.98784 0.0
C1322 C 0.25629 0.22717 0.01805 0.0
C1323 C 0.25969 0.21481 0.02185 0.0
C1324 C 0.25064 0.20527 0.02202 0.0
C1325 C 0.23804 0.20792 0.01836 0.0
C1326 C 0.23471 0.22033 0.0145 0.0
C1327 C 0.24375 0.22987 0.0144 0.0
C1328 C 0.26444 0.23668 0.04195 0.0
C1329 C 0.27234 0.22938 0.04985 0.0
C1330 C 0.26758 0.22457 0.06129 0.0
C1331 C 0.25482 0.22687 0.06488 0.0
C1332 C 0.24686 0.23396 0.05682 0.0
C1333 C 0.25167 0.23891 0.04546 0.0
C1334 C 0.28232 0.25682 0.04306 0.0
C1335 C 0.29446 0.25381 0.04766 0.0
C1336 C 0.29769 0.25714 0.05999 0.0
C1337 C 0.2888 0.26348 0.06794 0.0
C1338 C 0.27673 0.26671 0.06317 0.0
C1339 C 0.27354 0.26343 0.05082 0.0
C1340 C 0.29236 0.26811 0.0201 0.0
C1341 C 0.30543 0.26569 0.01827 0.0
C1342 C 0.31437 0.27455 0.0221 0.0
C1343 C 0.31041 0.28602 0.02788 0.0
C1344 C 0.29723 0.28859 0.02913 0.0
C1345 C 0.28834 0.27977 0.02524 0.0
C1346 C 0.28285 0.25964 0.99527 0.0
C1347 C 0.29011 0.25345 0.98582 0.0
C1348 C 0.29315 0.25972 0.97443 0.0
C1349 C 0.28894 0.27231 0.97224 0.0
C1350 C 0.28167 0.27844 0.98181 0.0
C1351 C 0.27869 0.27218 0.99318 0.0
C1352 C 0.22841 0.1978 0.01869 0.0
C1353 C 0.29197 0.26654 0.08123 0.0
H1354 H 0.83811 0.22077 1.00125 0.0
H1355 H 0.75945 0.27553 0.10201 0.0
H1356 H 0.79701 0.27769 0.9908 0.0
H1357 H 0.80205 0.26977 0.96954 0.0
H1358 H 0.76493 0.25269 0.96833 0.0
H1359 H 0.7599 0.2611 0.98932 0.0
H1360 H 0.80886 0.26611 0.0162 0.0
H1361 H 0.82425 0.24926 0.01071 0.0
H1362 H 0.79354 0.22617 0.99762 0.0
H1363 H 0.77823 0.24296 1.00347 0.0
H1364 H 0.79904 0.27817 0.04163 0.0
H1365 H 0.81237 0.26746 0.05745 0.0
H1366 H 0.79408 0.23206 0.04984 0.0
H1367 H 0.78051 0.24287 0.03407 0.0
H1368 H 0.77713 0.29774 0.04506 0.0
H1369 H 0.77439 0.30092 0.06794 0.0
H1370 H 0.75898 0.26329 0.07167 0.0
H1371 H 0.76163 0.26031 0.04878 0.0
H1372 H 0.7634 0.30954 0.02162 0.0
H1373 H 0.74789 0.3235 0.03281 0.0
H1374 H 0.72731 0.2906 0.04557 0.0
H1375 H 0.74251 0.27683 0.03423 0.0
H1376 H 0.77586 0.29849 0.99204 0.0
H1377 H 0.76364 0.31201 0.97739 0.0
H1378 H 0.72874 0.29578 0.99152 0.0
H1379 H 0.74098 0.28178 1.00568 0.0
O1380 O 0.83188 0.22739 1.00318 0.0
O1381 O 0.81588 0.21628 0.99569 0.0
O1382 O 0.76814 0.29401 0.09046 0.0
O1383 O 0.76042 0.27462 0.09292 0.0
C1384 C 0.77596 0.27267 1.00525 0.0
C1385 C 0.78303 0.26567 0.01429 0.0
C1386 C 0.78096 0.26788 0.02732 0.0
C1387 C 0.77165 0.27673 0.03145 0.0
C1388 C 0.76437 0.28354 0.02249 0.0
C1389 C 0.76661 0.28166 1.00935 0.0
C1390 C 0.77809 0.26997 0.99157 0.0
C1391 C 0.78988 0.27251 0.98575 0.0
C1392 C 0.79279 0.26782 0.97366 0.0
C1393 C 0.78399 0.2604 0.96719 0.0
C1394 C 0.77193 0.25847 0.97286 0.0
C1395 C 0.769 0.26326 0.9849 0.0
C1396 C 0.79245 0.25577 0.0102 0.0
C1397 C 0.80549 0.25742 0.01212 0.0
C1398 C 0.81425 0.24778 1.00898 0.0
C1399 C 0.81012 0.23636 1.00374 0.0
C1400 C 0.79704 0.23484 1.00164 0.0
C1401 C 0.78828 0.24444 1.0049 0.0
C1402 C 0.7889 0.26125 0.03676 0.0
C1403 C 0.79787 0.26812 0.04342 0.0
C1404 C 0.80542 0.26206 0.05238 0.0
C1405 C 0.80409 0.24907 0.05469 0.0
C1406 C 0.79511 0.24213 0.0481 0.0
C1407 C 0.78748 0.24823 0.03914 0.0
C1408 C 0.76956 0.27881 0.04529 0.0
C1409 C 0.77306 0.29025 0.05083 0.0
C1410 C 0.77153 0.29202 0.0639 0.0
C1411 C 0.7665 0.28234 0.07164 0.0
C1412 C 0.76291 0.27092 0.066 0.0
C1413 C 0.76441 0.26919 0.05294 0.0
C1414 C 0.75407 0.29219 0.02718 0.0
C1415 C 0.75534 0.30542 0.02656 0.0
C1416 C 0.74655 0.31334 0.03296 0.0
C1417 C 0.73657 0.30805 0.04015 0.0
C1418 C 0.73503 0.29486 0.0402 0.0
C1419 C 0.74364 0.28702 0.0337 0.0
C1420 C 0.7593 0.2892 0.99996 0.0
C1421 C 0.7656 0.29768 0.99181 0.0
C1422 C 0.75865 0.3054 0.98351 0.0
C1423 C 0.74531 0.30491 0.98347 0.0
C1424 C 0.73902 0.29633 0.9915 0.0
C1425 C 0.74599 0.28839 0.99957 0.0
C1426 C 0.81943 0.22606 1.00059 0.0
C1427 C 0.76508 0.28406 0.08556 0.0
H1428 H 0.69918 0.70812 0.0401 0.0
H1429 H 0.76436 0.76118 0.92569 0.0
H1430 H 0.73218 0.76794 0.03748 0.0
H1431 H 0.72899 0.76405 0.06026 0.0
H1432 H 0.76874 0.75387 0.06365 0.0
H1433 H 0.77182 0.75719 0.04067 0.0
H1434 H 0.72115 0.75287 0.01582 0.0
H1435 H 0.70851 0.7358 0.02512 0.0
H1436 H 0.74301 0.71756 0.03858 0.0
H1437 H 0.75554 0.73461 0.02908 0.0
H1438 H 0.72643 0.75899 0.98792 0.0
H1439 H 0.71499 0.74272 0.97642 0.0
H1440 H 0.74267 0.71451 0.98863 0.0
H1441 H 0.75419 0.73091 0.99966 0.0
H1442 H 0.7453 0.78442 0.98174 0.0
H1443 H 0.74657 0.78645 0.95861 0.0
H1444 H 0.76706 0.75053 0.95663 0.0
H1445 H 0.76589 0.74873 0.97975 0.0
H1446 H 0.76018 0.79999 1.00557 0.0
H1447 H 0.77223 0.81588 0.99341 0.0
H1448 H 0.79411 0.78584 0.97532 0.0
H1449 H 0.78239 0.77012 0.98773 0.0
H1450 H 0.75403 0.79022 0.03526 0.0
H1451 H 0.76758 0.80186 0.04954 0.0
H1452 H 0.80099 0.78565 0.03086 0.0
H1453 H 0.78731 0.77335 0.01727 0.0
O1454 O 0.70435 0.71485 0.03664 0.0
O1455 O 0.72229 0.70616 0.04386 0.0
O1456 O 0.75335 0.77916 0.93637 0.0
O1457 O 0.76365 0.7606 0.93484 0.0
C1458 C 0.75362 0.7637 0.02323 0.0
C1459 C 0.74692 0.75509 0.01567 0.0
C1460 C 0.74775 0.75582 1.00231 0.0
C1461 C 0.75505 0.76542 0.99642 0.0
C1462 C 0.76207 0.77396 1.00386 0.0
C1463 C 0.76148 0.77292 0.01732 0.0
C1464 C 0.75223 0.76285 0.03735 0.0
C1465 C 0.74024 0.76495 0.04312 0.0
C1466 C 0.73842 0.76274 0.05611 0.0
C1467 C 0.74863 0.75871 0.06365 0.0
C1468 C 0.76076 0.75709 0.05802 0.0
C1469 C 0.76252 0.75902 0.04493 0.0
C1470 C 0.73924 0.74496 0.02177 0.0
C1471 C 0.72594 0.74517 0.02078 0.0
C1472 C 0.71876 0.73542 0.02611 0.0
C1473 C 0.72475 0.7253 0.03257 0.0
C1474 C 0.73809 0.72521 0.03366 0.0
C1475 C 0.74527 0.73495 0.02828 0.0
C1476 C 0.74119 0.74616 0.99457 0.0
C1477 C 0.73009 0.74932 0.98794 0.0
C1478 C 0.72349 0.73995 0.9815 0.0
C1479 C 0.72785 0.72722 0.98157 0.0
C1480 C 0.73909 0.72419 0.98815 0.0
C1481 C 0.74568 0.73355 0.99454 0.0
C1482 C 0.75545 0.76641 0.98239 0.0
C1483 C 0.75003 0.777 0.97628 0.0
C1484 C 0.75078 0.77813 0.96308 0.0
C1485 C 0.75692 0.76864 0.95577 0.0
C1486 C 0.76225 0.758 0.96196 0.0
C1487 C 0.76154 0.75691 0.97516 0.0
C1488 C 0.77019 0.78379 0.99744 0.0
C1489 C 0.76771 0.79684 0.99913 0.0
C1490 C 0.77461 0.80593 0.99217 0.0
C1491 C 0.78402 0.80215 0.98323 0.0
C1492 C 0.78678 0.7891 0.98193 0.0
C1493 C 0.78006 0.78008 0.98903 0.0
C1494 C 0.76967 0.78092 0.02522 0.0
C1495 C 0.76427 0.78918 0.03428 0.0
C1496 C 0.77206 0.7959 0.04236 0.0
C1497 C 0.78542 0.79472 0.04137 0.0
C1498 C 0.79076 0.78664 0.03207 0.0
C1499 C 0.78296 0.77975 0.02415 0.0
C1500 C 0.71711 0.71485 0.03806 0.0
C1501 C 0.75783 0.76983 0.94176 0.0
H1502 H 0.35976 0.72934 1.00207 0.0
H1503 H 0.28004 0.77937 0.10805 0.0
H1504 H 0.32323 0.78587 0.99866 0.0
H1505 H 0.32738 0.77865 0.97723 0.0
H1506 H 0.28687 0.7734 0.97241 0.0
H1507 H 0.2833 0.77839 0.99455 0.0
H1508 H 0.33331 0.77405 0.02279 0.0
H1509 H 0.34762 0.75706 0.01526 0.0
H1510 H 0.3155 0.73778 0.99963 0.0
H1511 H 0.30126 0.7547 1.00747 0.0
H1512 H 0.3256 0.78186 0.04854 0.0
H1513 H 0.33808 0.7668 0.06149 0.0
H1514 H 0.31286 0.7368 0.05121 0.0
H1515 H 0.30057 0.75183 0.03817 0.0
H1516 H 0.30224 0.80492 0.05416 0.0
H1517 H 0.29837 0.8064 0.07707 0.0
H1518 H 0.28113 0.76945 0.07685 0.0
H1519 H 0.2849 0.7682 0.05394 0.0
H1520 H 0.28857 0.8194 0.03217 0.0
H1521 H 0.27114 0.83257 0.04122 0.0
H1522 H 0.24926 0.79889 0.04826 0.0
H1523 H 0.26668 0.78585 0.03937 0.0
H1524 H 0.3016 0.81083 1.00085 0.0
H1525 H 0.29019 0.82338 0.98479 0.0
H1526 H 0.25485 0.80656 0.9969 0.0
H1527 H 0.26633 0.79357 0.01248 0.0
O1528 O 0.35393 0.73599 1.0049 0.0
O1529 O 0.33724 0.7269 0.99627 0.0
O1530 O 0.29027 0.79818 0.09855 0.0
O1531 O 0.28163 0.77908 0.09899 0.0
C1532 C 0.30097 0.78398 0.01218 0.0
C1533 C 0.30752 0.77574 0.02062 0.0
C1534 C 0.30532 0.7767 0.0338 0.0
C1535 C 0.29631 0.78559 0.03858 0.0
C1536 C 0.28942 0.79353 0.03015 0.0
C1537 C 0.29191 0.79295 0.01694 0.0
C1538 C 0.303 0.78242 0.9983 0.0
C1539 C 0.31528 0.78307 0.99295 0.0
C1540 C 0.31759 0.7791 0.98053 0.0
C1541 C 0.30751 0.77507 0.97293 0.0
C1542 C 0.29503 0.77578 0.978 0.0
C1543 C 0.29286 0.77901 0.99064 0.0
C1544 C 0.31625 0.76559 0.0157 0.0
C1545 C 0.32939 0.76612 0.01779 0.0
C1546 C 0.33754 0.75642 0.01345 0.0
C1547 C 0.3327 0.74605 1.00686 0.0
C1548 C 0.31953 0.74562 1.00468 0.0
C1549 C 0.31138 0.75528 1.00912 0.0
C1550 C 0.31216 0.76792 0.04252 0.0
C1551 C 0.32274 0.77206 0.0492 0.0
C1552 C 0.32989 0.76346 0.05645 0.0
C1553 C 0.32642 0.75067 0.05728 0.0
C1554 C 0.31568 0.74663 0.05076 0.0
C1555 C 0.30865 0.75517 0.04337 0.0
C1556 C 0.29392 0.78643 0.05244 0.0
C1557 C 0.29761 0.79718 0.05909 0.0
C1558 C 0.2954 0.79799 0.07217 0.0
C1559 C 0.28947 0.78802 0.0788 0.0
C1560 C 0.28575 0.77728 0.07205 0.0
C1561 C 0.28793 0.77651 0.05898 0.0
C1562 C 0.27888 0.80169 0.03519 0.0
C1563 C 0.27998 0.81491 0.03563 0.0
C1564 C 0.27006 0.82239 0.04077 0.0
C1565 C 0.25885 0.81672 0.04535 0.0
C1566 C 0.25772 0.8035 0.04464 0.0
C1567 C 0.26768 0.79605 0.03968 0.0
C1568 C 0.2848 0.80139 1.008 0.0
C1569 C 0.29138 0.80991 1.00009 0.0
C1570 C 0.28488 0.81703 0.99093 0.0
C1571 C 0.27165 0.81596 0.98969 0.0
C1572 C 0.26503 0.80766 0.99779 0.0
C1573 C 0.27157 0.80033 1.00675 0.0
C1574 C 0.34138 0.73572 1.00233 0.0
C1575 C 0.28717 0.78879 0.0927 0.0
H1576 H 0.02305 0.22646 0.21081 0.0
H1577 H 0.11368 0.29 0.29005 0.0
H1578 H 0.009 0.29218 0.24574 0.0
H1579 H 0.99037 0.28375 0.23526 0.0
H1580 H 0.98156 0.26157 0.26871 0.0
H1581 H 1.00026 0.27004 0.27922 0.0
H1582 H 0.03275 0.27431 0.23629 0.0
H1583 H 0.02933 0.25633 0.22227 0.0
H1584 H 0.01424 0.23492 0.25408 0.0
H1585 H 0.01795 0.25289 0.26803 0.0
H1586 H 0.05724 0.28284 0.24483 0.0
H1587 H 0.07506 0.2698 0.23691 0.0
H1588 H 0.06636 0.2412 0.26529 0.0
H1589 H 0.04815 0.25403 0.27255 0.0
H1590 H 0.05856 0.30757 0.26396 0.0
H1591 H 0.08105 0.31163 0.26776 0.0
H1592 H 0.08354 0.27737 0.29047 0.0
H1593 H 0.06101 0.27358 0.2868 0.0
H1594 H 0.03052 0.31977 0.27172 0.0
H1595 H 0.03604 0.33857 0.28382 0.0
H1596 H 0.05207 0.31436 0.313 0.0
H1597 H 0.04616 0.29563 0.30103 0.0
H1598 H 1.00408 0.31003 0.2677 0.0
H1599 H 0.98811 0.32152 0.28074 0.0
H1600 H 1.00169 0.30183 0.31412 0.0
H1601 H 0.0174 0.2903 0.30105 0.0
O1602 O 0.02396 0.23358 0.21644 0.0
O1603 O 0.01491 0.22349 0.23274 0.0
O1604 O 0.10284 0.30654 0.27725 0.0
O1605 O 0.10475 0.28871 0.2885 0.0
C1606 C 0.01898 0.28312 0.26728 0.0
C1607 C 0.02868 0.27541 0.26181 0.0
C1608 C 0.04146 0.2776 0.26466 0.0
C1609 C 0.04462 0.28771 0.27258 0.0
C1610 C 0.03484 0.29528 0.27807 0.0
C1611 C 0.02197 0.29265 0.2759 0.0
C1612 C 1.00588 0.2816 0.26314 0.0
C1613 C 1.00266 0.28602 0.25103 0.0
C1614 C 0.99208 0.28126 0.24509 0.0
C1615 C 0.9847 0.27215 0.25131 0.0
C1616 C 0.98712 0.26877 0.26393 0.0
C1617 C 0.99773 0.27356 0.2699 0.0
C1618 C 0.02555 0.2649 0.25314 0.0
C1619 C 0.02864 0.26575 0.24018 0.0
C1620 C 0.0267 0.25546 0.23221 0.0
C1621 C 0.02157 0.24416 0.23707 0.0
C1622 C 0.01823 0.24347 0.25004 0.0
C1623 C 0.02026 0.25374 0.25801 0.0
C1624 C 0.05159 0.26935 0.25929 0.0
C1625 C 0.05914 0.27366 0.24916 0.0
C1626 C 0.06935 0.26624 0.24475 0.0
C1627 C 0.07228 0.25452 0.2506 0.0
C1628 C 0.06432 0.25008 0.26047 0.0
C1629 C 0.05399 0.25742 0.26472 0.0
C1630 C 0.05819 0.29029 0.27511 0.0
C1631 C 0.06397 0.30101 0.26982 0.0
C1632 C 0.07682 0.30328 0.27198 0.0
C1633 C 0.0841 0.2948 0.2794 0.0
C1634 C 0.07823 0.28408 0.2847 0.0
C1635 C 0.06537 0.28187 0.28261 0.0
C1636 C 0.03801 0.30645 0.28555 0.0
C1637 C 0.03513 0.31858 0.28079 0.0
C1638 C 0.03831 0.32925 0.28764 0.0
C1639 C 0.04442 0.32786 0.29931 0.0
C1640 C 0.04717 0.31565 0.30411 0.0
C1641 C 0.04394 0.30499 0.29727 0.0
C1642 C 0.01181 0.29926 0.28343 0.0
C1643 C 1.00348 0.30811 0.2778 0.0
C1644 C 0.99447 0.31474 0.28527 0.0
C1645 C 0.99365 0.31255 0.29844 0.0
C1646 C 1.00198 0.3036 0.30398 0.0
C1647 C 0.01097 0.29704 0.29655 0.0
C1648 C 0.01989 0.23312 0.22866 0.0
C1649 C 0.09778 0.29708 0.28162 0.0
H1650 H 0.85253 0.01332 0.19691 0.0
H1651 H 0.79289 0.10933 0.27481 0.0
H1652 H 0.78677 1.00538 0.23428 0.0
H1653 H 0.79437 0.98732 0.22169 0.0
H1654 H 0.81769 0.97466 0.25283 0.0
H1655 H 0.81024 0.99302 0.26536 0.0
H1656 H 0.80536 0.02586 0.22458 0.0
H1657 H 0.82296 0.02124 0.20974 0.0
H1658 H 0.84528 1.00626 0.24075 0.0
H1659 H 0.82767 0.01116 0.25551 0.0
H1660 H 0.79639 0.05074 0.23335 0.0
H1661 H 0.8092 0.06721 0.22301 0.0
H1662 H 0.84022 0.05837 0.24816 0.0
H1663 H 0.82743 0.04171 0.25834 0.0
H1664 H 0.77308 0.05373 0.25343 0.0
H1665 H 0.76955 0.07656 0.25616 0.0
H1666 H 0.80489 0.07863 0.2765 0.0
H1667 H 0.80817 0.05577 0.27392 0.0
H1668 H 0.76036 0.02667 0.26358 0.0
H1669 H 0.74245 0.03667 0.27492 0.0
H1670 H 0.76882 0.05429 0.30026 0.0
H1671 H 0.78647 0.0434 0.2895 0.0
H1672 H 0.77046 0.9997 0.25655 0.0
H1673 H 0.75675 0.98606 0.26963 0.0
H1674 H 0.77436 1.00004 0.30342 0.0
H1675 H 0.78815 0.01337 0.29034 0.0
O1676 O 0.84555 0.01468 0.20286 0.0
O1677 O 0.85618 1.00593 0.21888 0.0
O1678 O 0.7755 0.0986 0.26387 0.0
O1679 O 0.79392 0.10025 0.27379 0.0
C1680 C 0.797 0.01342 0.25584 0.0
C1681 C 0.80499 0.02262 0.25022 0.0
C1682 C 0.8031 0.03551 0.25304 0.0
C1683 C 0.79324 0.03935 0.26141 0.0
C1684 C 0.78555 0.03015 0.26745 0.0
C1685 C 0.78763 0.01707 0.26494 0.0
C1686 C 0.79787 1.00042 0.25076 0.0
C1687 C 0.79309 0.99841 0.2386 0.0
C1688 C 0.79756 0.98823 0.23136 0.0
C1689 C 0.80671 0.97978 0.23627 0.0
C1690 C 0.81061 0.98109 0.24889 0.0
C1691 C 0.80626 0.99144 0.2561 0.0
C1692 C 0.81527 0.01884 0.24109 0.0
C1693 C 0.81404 0.02153 0.22812 0.0
C1694 C 0.82411 0.01889 0.21968 0.0
C1695 C 0.83555 0.01344 0.22407 0.0
C1696 C 0.83661 0.01048 0.23706 0.0
C1697 C 0.82656 0.01321 0.2455 0.0
C1698 C 0.81102 0.04514 0.24659 0.0
C1699 C 0.80599 0.05231 0.23654 0.0
C1700 C 0.81329 0.06161 0.23064 0.0
C1701 C 0.82562 0.06394 0.23484 0.0
C1702 C 0.83069 0.05669 0.24483 0.0
C1703 C 0.82345 0.04724 0.25061 0.0
C1704 C 0.79085 0.05311 0.26352 0.0
C1705 C 0.77997 0.05912 0.25858 0.0
C1706 C 0.77801 0.07216 0.26011 0.0
C1707 C 0.78696 0.07943 0.26652 0.0
C1708 C 0.79782 0.07333 0.2715 0.0
C1709 C 0.79972 0.06028 0.27004 0.0
C1710 C 0.77471 0.03443 0.27564 0.0
C1711 C 0.76219 0.03236 0.27185 0.0
C1712 C 0.75199 0.03825 0.27823 0.0
C1713 C 0.75415 0.04652 0.28837 0.0
C1714 C 0.7667 0.04793 0.29259 0.0
C1715 C 0.77686 0.0418 0.28638 0.0
C1716 C 0.7804 1.0075 0.27245 0.0
C1717 C 0.77159 0.99957 0.26674 0.0
C1718 C 0.7637 0.99185 0.27424 0.0
C1719 C 0.76437 0.99207 0.28758 0.0
C1720 C 0.77345 0.99978 0.2932 0.0
C1721 C 0.78142 1.00732 0.28573 0.0
C1722 C 0.84639 0.01107 0.21515 0.0
C1723 C 0.78506 0.09332 0.26797 0.0
H1724 H 0.03789 0.6806 0.29288 0.0
H1725 H 0.92583 0.73096 0.22502 0.0
H1726 H 0.03426 0.74129 0.25912 0.0
H1727 H 0.05682 0.73993 0.26401 0.0
H1728 H 0.06542 0.7302 0.22494 0.0
H1729 H 0.04262 0.73084 0.22036 0.0
H1730 H 0.01433 0.72526 0.26919 0.0
H1731 H 0.02312 0.70823 0.28245 0.0
H1732 H 0.03839 0.68972 0.24887 0.0
H1733 H 0.0293 0.70671 0.23569 0.0
H1734 H 0.98856 0.73414 0.26357 0.0
H1735 H 0.97662 0.72002 0.27784 0.0
H1736 H 0.98497 0.68856 0.25293 0.0
H1737 H 0.99726 0.70268 0.2388 0.0
H1738 H 0.98042 0.75594 0.24338 0.0
H1739 H 0.95722 0.75733 0.2419 0.0
H1740 H 0.95743 0.72149 0.22216 0.0
H1741 H 0.98065 0.72035 0.2235 0.0
H1742 H 1.00358 0.77119 0.23263 0.0
H1743 H 0.99205 0.78802 0.22117 0.0
H1744 H 0.97898 0.76039 0.1945 0.0
H1745 H 0.99068 0.74363 0.2059 0.0
H1746 H 0.03171 0.76405 0.23899 0.0
H1747 H 0.04528 0.77919 0.22776 0.0
H1748 H 0.03467 0.763 0.19198 0.0
H1749 H 0.02138 0.74764 0.20335 0.0
O1750 O 0.0346 0.68729 0.28745 0.0
O1751 O 0.04278 0.67845 0.26997 0.0
O1752 O 0.93546 0.74939 0.23529 0.0
O1753 O 0.93501 0.73071 0.22565 0.0
C1754 C 0.02298 0.73605 0.23695 0.0
C1755 C 0.01522 0.72718 0.2434 0.0
C1756 C 1.00187 0.72787 0.24224 0.0
C1757 C 0.99627 0.73724 0.23439 0.0
C1758 C 1.00404 0.74596 0.22768 0.0
C1759 C 0.01743 0.74536 0.22892 0.0
C1760 C 0.03682 0.73605 0.23943 0.0
C1761 C 0.04103 0.73883 0.25163 0.0
C1762 C 0.05395 0.7382 0.25436 0.0
C1763 C 0.06298 0.73498 0.24487 0.0
C1764 C 0.05872 0.73252 0.23253 0.0
C1765 C 0.04573 0.73299 0.22985 0.0
C1766 C 0.02107 0.71714 0.25148 0.0
C1767 C 0.01952 0.71748 0.26472 0.0
C1768 C 0.02459 0.70776 0.27227 0.0
C1769 C 0.03141 0.69758 0.26672 0.0
C1770 C 0.03315 0.6974 0.25345 0.0
C1771 C 0.028 0.7071 0.2459 0.0
C1772 C 0.99373 0.71943 0.25015 0.0
C1773 C 0.98775 0.72422 0.26114 0.0
C1774 C 0.98103 0.71617 0.2693 0.0
C1775 C 0.98001 0.70326 0.26647 0.0
C1776 C 0.9857 0.69851 0.25528 0.0
C1777 C 0.99264 0.70653 0.24722 0.0
C1778 C 0.9822 0.73808 0.23348 0.0
C1779 C 0.97544 0.74845 0.23866 0.0
C1780 C 0.96219 0.74919 0.23784 0.0
C1781 C 0.95547 0.73951 0.2319 0.0
C1782 C 0.9623 0.72911 0.22678 0.0
C1783 C 0.97556 0.72842 0.22755 0.0
C1784 C 0.99799 0.75622 0.22005 0.0
C1785 C 0.99839 0.76882 0.2242 0.0
C1786 C 0.99172 0.77838 0.21773 0.0
C1787 C 0.98461 0.77548 0.20699 0.0
C1788 C 0.98449 0.76289 0.20268 0.0
C1789 C 0.99112 0.75333 0.20918 0.0
C1790 C 0.02559 0.75468 0.22202 0.0
C1791 C 0.03236 0.76374 0.22873 0.0
C1792 C 0.04002 0.77246 0.22228 0.0
C1793 C 0.04106 0.77236 0.20895 0.0
C1794 C 0.03421 0.76328 0.20224 0.0
C1795 C 0.02655 0.75454 0.20872 0.0
C1796 C 0.03664 0.68719 0.27476 0.0
C1797 C 0.94139 0.74022 0.23107 0.0
H1798 H 0.19797 0.01877 0.22577 0.0
H1799 H 0.24678 0.91288 0.30797 0.0
H1800 H 0.25745 0.02039 0.27032 0.0
H1801 H 0.25481 0.0423 0.26298 0.0
H1802 H 0.22725 0.04931 0.29312 0.0
H1803 H 0.2301 0.02727 0.30055 0.0
H1804 H 0.24005 0.99912 0.25632 0.0
H1805 H 0.22479 1.00652 0.24047 0.0
H1806 H 0.19955 0.01985 0.27054 0.0
H1807 H 0.21477 0.01215 0.28628 0.0
H1808 H 0.24944 0.97191 0.26532 0.0
H1809 H 0.23786 0.95968 0.24956 0.0
H1810 H 0.20224 0.97062 0.26756 0.0
H1811 H 0.21382 0.98266 0.28348 0.0
H1812 H 0.26961 0.96835 0.28806 0.0
H1813 H 0.27279 0.9456 0.29187 0.0
H1814 H 0.23405 0.94328 0.30613 0.0
H1815 H 0.23108 0.96605 0.30245 0.0
H1816 H 0.28101 0.99419 0.29881 0.0
H1817 H 0.29697 0.98674 0.31398 0.0
H1818 H 0.26717 0.97052 0.3373 0.0
H1819 H 0.25121 0.97838 0.32228 0.0
H1820 H 0.27471 0.01722 0.29142 0.0
H1821 H 0.28517 0.03408 0.30314 0.0
H1822 H 0.25722 0.03067 0.33334 0.0
H1823 H 0.24697 0.01352 0.32173 0.0
O1824 O 0.20394 0.01604 0.23218 0.0
O1825 O 0.19178 0.02363 0.24794 0.0
O1826 O 0.26577 0.92365 0.29934 0.0
O1827 O 0.2458 0.92189 0.30637 0.0
C1828 C 0.24462 0.00883 0.28915 0.0
C1829 C 0.23757 1.00021 0.28207 0.0
C1830 C 0.23939 0.98705 0.28391 0.0
C1831 C 0.24828 0.98262 0.29299 0.0
C1832 C 0.2553 0.99139 0.30018 0.0
C1833 C 0.25332 1.00454 0.29829 0.0
C1834 C 0.24392 0.02238 0.28587 0.0
C1835 C 0.25106 0.02676 0.27548 0.0
C1836 C 0.2496 0.03923 0.27138 0.0
C1837 C 0.24088 0.0474 0.27756 0.0
C1838 C 0.23404 0.04312 0.28827 0.0
C1839 C 0.23564 0.03063 0.29248 0.0
C1840 C 0.22849 1.00507 0.27243 0.0
C1841 C 0.23121 1.00362 0.25945 0.0
C1842 C 0.22248 1.00787 0.25042 0.0
C1843 C 0.21094 0.01376 0.25424 0.0
C1844 C 0.20834 0.01535 0.26728 0.0
C1845 C 0.21703 0.011 0.27628 0.0
C1846 C 0.23251 0.9781 0.27563 0.0
C1847 C 0.23917 0.97144 0.26605 0.0
C1848 C 0.23256 0.96461 0.25699 0.0
C1849 C 0.21921 0.9644 0.25733 0.0
C1850 C 0.21254 0.97077 0.26709 0.0
C1851 C 0.21915 0.97753 0.27621 0.0
C1852 C 0.25013 0.96882 0.29502 0.0
C1853 C 0.26185 0.9629 0.29204 0.0
C1854 C 0.26362 0.94991 0.29421 0.0
C1855 C 0.25367 0.94262 0.29931 0.0
C1856 C 0.24191 0.9486 0.30219 0.0
C1857 C 0.24017 0.96159 0.30007 0.0
C1858 C 0.26493 0.98689 0.30947 0.0
C1859 C 0.27791 0.98922 0.3073 0.0
C1860 C 0.28701 0.98495 0.31596 0.0
C1861 C 0.28331 0.97804 0.32681 0.0
C1862 C 0.2703 0.97575 0.32896 0.0
C1863 C 0.26118 0.98021 0.32041 0.0
C1864 C 0.26024 0.014 0.30584 0.0
C1865 C 0.271 0.01993 0.30068 0.0
C1866 C 0.27692 0.02956 0.30733 0.0
C1867 C 0.272 0.03357 0.31913 0.0
C1868 C 0.26118 0.02768 0.32427 0.0
C1869 C 0.25539 0.01788 0.31771 0.0
C1870 C 0.20162 0.01814 0.24464 0.0
C1871 C 0.2555 0.92883 0.30165 0.0
H1872 H 0.0257 0.87439 0.83173 0.0
H1873 H 0.11354 0.80945 0.74212 0.0
H1874 H 0.01184 0.81657 0.79642 0.0
H1875 H 0.9934 0.8253 0.80781 0.0
H1876 H 0.9813 0.84451 0.77357 0.0
H1877 H 1.00026 0.83604 0.76236 0.0
H1878 H 0.03689 0.82853 0.80242 0.0
H1879 H 0.03369 0.84572 0.81769 0.0
H1880 H 0.01744 0.86933 0.78813 0.0
H1881 H 0.0209 0.85213 0.77294 0.0
H1882 H 0.06057 0.81407 0.78892 0.0
H1883 H 0.0781 0.8239 0.79989 0.0
H1884 H 0.06854 0.8599 0.78225 0.0
H1885 H 0.0513 0.84978 0.77086 0.0
H1886 H 0.05792 0.79327 0.76849 0.0
H1887 H 0.07994 0.7877 0.76264 0.0
H1888 H 0.08415 0.82455 0.74494 0.0
H1889 H 0.06207 0.82992 0.75068 0.0
H1890 H 0.02999 0.78401 0.7612 0.0
H1891 H 0.03702 0.76698 0.74678 0.0
H1892 H 0.0519 0.79496 0.72065 0.0
H1893 H 0.04479 0.81185 0.73502 0.0
H1894 H 1.00451 0.79806 0.7749 0.0
H1895 H 0.98632 0.78792 0.76541 0.0
H1896 H 0.99712 0.8035 0.72877 0.0
H1897 H 0.01479 0.81427 0.73859 0.0
O1898 O 0.02693 0.86774 0.82553 0.0
O1899 O 0.01825 0.87932 0.8101 0.0
O1900 O 0.10188 0.79219 0.75288 0.0
O1901 O 0.1047 0.81126 0.74426 0.0
C1902 C 0.02028 0.82238 0.77267 0.0
C1903 C 0.031 0.82871 0.77734 0.0
C1904 C 0.04342 0.82524 0.77321 0.0
C1905 C 0.04523 0.81561 0.76407 0.0
C1906 C 0.0346 0.80948 0.7589 0.0
C1907 C 0.02208 0.81296 0.76317 0.0
C1908 C 1.00744 0.82552 0.77847 0.0
C1909 C 1.00506 0.82243 0.79127 0.0
C1910 C 0.99443 0.82748 0.79781 0.0
C1911 C 0.98569 0.83572 0.79172 0.0
C1912 C 0.98783 0.83839 0.77871 0.0
C1913 C 0.99858 0.83336 0.77217 0.0
C1914 C 0.02915 0.83913 0.7866 0.0
C1915 C 0.03272 0.83745 0.79927 0.0
C1916 C 0.03084 0.84727 0.80796 0.0
C1917 C 0.0253 0.8589 0.80413 0.0
C1918 C 0.02173 0.8605 0.7914 0.0
C1919 C 0.02367 0.8507 0.78271 0.0
C1920 C 0.05462 0.8312 0.77913 0.0
C1921 C 0.06238 0.82403 0.78727 0.0
C1922 C 0.07232 0.82972 0.79364 0.0
C1923 C 0.07464 0.84276 0.7921 0.0
C1924 C 0.06708 0.84984 0.78361 0.0
C1925 C 0.05717 0.8441 0.77716 0.0
C1926 C 0.0584 0.81199 0.75999 0.0
C1927 C 0.06357 0.80007 0.76323 0.0
C1928 C 0.07617 0.79694 0.75992 0.0
C1929 C 0.08383 0.80571 0.75337 0.0
C1930 C 0.07854 0.81759 0.75002 0.0
C1931 C 0.06593 0.82068 0.75328 0.0
C1932 C 0.03688 0.79924 0.74925 0.0
C1933 C 0.0345 0.78648 0.75223 0.0
C1934 C 0.03857 0.77674 0.74398 0.0
C1935 C 0.0452 0.77956 0.73261 0.0
C1936 C 0.04705 0.79239 0.72942 0.0
C1937 C 0.04288 0.80209 0.73759 0.0
C1938 C 0.01094 0.80694 0.75745 0.0
C1939 C 1.00282 0.79942 0.76487 0.0
C1940 C 0.99253 0.79348 0.75936 0.0
C1941 C 0.99027 0.79477 0.74627 0.0
C1942 C 0.99843 0.80239 0.73889 0.0
C1943 C 0.00862 0.80847 0.74446 0.0
C1944 C 0.02326 0.86929 0.81339 0.0
C1945 C 0.09733 0.80259 0.75016 0.0
H1946 H 0.36378 0.01492 0.68472 0.0
H1947 H 0.31163 0.1128 0.77275 0.0
H1948 H 0.30526 1.00776 0.72798 0.0
H1949 H 0.30899 0.98667 0.71903 0.0
H1950 H 0.33305 0.97687 0.75063 0.0
H1951 H 0.32902 0.99803 0.75964 0.0
H1952 H 0.32061 0.03143 0.71665 0.0
H1953 H 0.33652 0.02583 0.70032 0.0
H1954 H 0.36087 0.00979 0.72925 0.0
H1955 H 0.34496 0.0156 0.74547 0.0
H1956 H 0.30845 0.05807 0.72989 0.0
H1957 H 0.31821 0.07577 0.71839 0.0
H1958 H 0.3553 0.06317 0.73079 0.0
H1959 H 0.34543 0.0458 0.74292 0.0
H1960 H 0.2897 0.05802 0.75143 0.0
H1961 H 0.28618 0.0805 0.75619 0.0
H1962 H 0.32463 0.08255 0.77002 0.0
H1963 H 0.32797 0.06002 0.76537 0.0
H1964 H 0.27922 0.03148 0.76074 0.0
H1965 H 0.26281 0.03889 0.77572 0.0
H1966 H 0.292 0.05369 0.79972 0.0
H1967 H 0.30835 0.04569 0.78489 0.0
H1968 H 0.2877 1.00579 0.75327 0.0
H1969 H 0.27617 0.99161 0.76775 0.0
H1970 H 0.30173 1.00108 0.79786 0.0
H1971 H 0.31305 0.01536 0.78335 0.0
O1972 O 0.35759 0.01701 0.69131 0.0
O1973 O 0.36954 1.00849 0.70651 0.0
O1974 O 0.29287 0.1022 0.76414 0.0
O1975 O 0.31271 0.10386 0.77093 0.0
C1976 C 0.31556 0.0179 0.74893 0.0
C1977 C 0.32217 0.0275 0.74219 0.0
C1978 C 0.31996 0.04046 0.74508 0.0
C1979 C 0.31129 0.04381 0.75498 0.0
C1980 C 0.30485 0.03428 0.76194 0.0
C1981 C 0.30723 0.02132 0.7591 0.0
C1982 C 0.31678 1.00446 0.74453 0.0
C1983 C 0.31119 1.001 0.73307 0.0
C1984 C 0.31346 0.98895 0.72789 0.0
C1985 C 0.32143 0.98002 0.734 0.0
C1986 C 0.32676 0.98341 0.74569 0.0
C1987 C 0.32446 0.99551 0.75089 0.0
C1988 C 0.33165 0.0239 0.73221 0.0
C1989 C 0.32939 0.02672 0.71942 0.0
C1990 C 0.33849 0.0235 0.71012 0.0
C1991 C 0.34997 0.01736 0.71348 0.0
C1992 C 0.35214 0.0145 0.72633 0.0
C1993 C 0.34306 0.01776 0.73561 0.0
C1994 C 0.32618 0.05064 0.73736 0.0
C1995 C 0.31867 0.05914 0.73021 0.0
C1996 C 0.32424 0.06921 0.72362 0.0
C1997 C 0.33747 0.0708 0.72375 0.0
C1998 C 0.34507 0.06209 0.73053 0.0
C1999 C 0.33945 0.05217 0.73741 0.0
C2000 C 0.30906 0.05739 0.75813 0.0
C2001 C 0.29731 0.06332 0.7556 0.0
C2002 C 0.29534 0.07617 0.75828 0.0
C2003 C 0.30513 0.08333 0.76348 0.0
C2004 C 0.31689 0.07732 0.76601 0.0
C2005 C 0.31883 0.06446 0.76337 0.0
C2006 C 0.29501 0.03799 0.7717 0.0
C2007 C 0.28208 0.03612 0.76935 0.0
C2008 C 0.27268 0.04054 0.77788 0.0
C2009 C 0.27598 0.04704 0.78896 0.0
C2010 C 0.28902 0.04863 0.79141 0.0
C2011 C 0.29842 0.04413 0.7829 0.0
C2012 C 0.30127 0.01149 0.76723 0.0
C2013 C 0.29094 1.00459 0.76292 0.0
C2014 C 0.28436 0.99653 0.77123 0.0
C2015 C 0.28801 0.99524 0.78399 0.0
C2016 C 0.29857 1.00198 0.78816 0.0
C2017 C 0.30512 0.01002 0.77985 0.0
C2018 C 0.35965 0.01399 0.7036 0.0
C2019 C 0.30315 0.09702 0.76619 0.0
H2020 H 0.99861 0.1652 0.81749 0.0
H2021 H 0.09938 0.24903 0.77042 0.0
H2022 H 0.99101 0.20841 0.76243 0.0
H2023 H 0.96901 0.20268 0.76747 0.0
H2024 H 0.96282 0.23901 0.78549 0.0
H2025 H 0.98484 0.24463 0.78042 0.0
H2026 H 0.01629 0.19692 0.77527 0.0
H2027 H 0.01014 0.18065 0.79073 0.0
H2028 H 0.99216 0.20958 0.81415 0.0
H2029 H 0.99856 0.22577 0.79872 0.0
H2030 H 0.044 0.20786 0.7679 0.0
H2031 H 0.05957 0.19622 0.7808 0.0
H2032 H 0.04355 0.21351 0.81462 0.0
H2033 H 0.02807 0.2252 0.80162 0.0
H2034 H 0.04461 0.2296 0.74661 0.0
H2035 H 0.06744 0.23324 0.74398 0.0
H2036 H 0.06849 0.24784 0.78219 0.0
H2037 H 0.04562 0.24435 0.78462 0.0
H2038 H 0.02266 0.2429 0.73459 0.0
H2039 H 0.0332 0.25927 0.72169 0.0
H2040 H 0.04009 0.28067 0.75562 0.0
H2041 H 0.02961 0.26431 0.76839 0.0
H2042 H 0.99342 0.2329 0.74098 0.0
H2043 H 0.97813 0.24604 0.72918 0.0
H2044 H 0.98496 0.27734 0.75431 0.0
H2045 H 1.0005 0.26421 0.76574 0.0
O2046 O 1.00075 0.17175 0.81138 0.0
O2047 O 0.99112 0.1869 0.82278 0.0
O2048 O 0.0892 0.24036 0.75145 0.0
O2049 O 0.09032 0.24761 0.77115 0.0
C2050 C 1.00332 0.22962 0.76963 0.0
C2051 C 0.01226 0.22243 0.77686 0.0
C2052 C 0.02545 0.22481 0.77579 0.0
C2053 C 0.02964 0.23439 0.76735 0.0
C2054 C 0.02072 0.24186 0.76041 0.0
C2055 C 1.00752 0.2395 0.76148 0.0
C2056 C 0.98953 0.22694 0.77104 0.0
C2057 C 0.98483 0.2152 0.76728 0.0
C2058 C 0.9723 0.21192 0.77025 0.0
C2059 C 0.96419 0.22036 0.77697 0.0
C2060 C 0.96877 0.23235 0.7802 0.0
C2061 C 0.98134 0.23559 0.7773 0.0
C2062 C 1.00783 0.2125 0.78586 0.0
C2063 C 0.01098 0.1997 0.78372 0.0
C2064 C 1.00746 0.19044 0.79258 0.0
C2065 C 1.00068 0.19382 0.80369 0.0
C2066 C 0.99738 0.20665 0.80569 0.0
C2067 C 1.00096 0.21591 0.79687 0.0
C2068 C 0.03485 0.21747 0.78374 0.0
C2069 C 0.04386 0.20918 0.77809 0.0
C2070 C 0.05278 0.20253 0.7855 0.0
C2071 C 0.05288 0.20392 0.7988 0.0
C2072 C 0.0437 0.21208 0.80445 0.0
C2073 C 0.03485 0.21881 0.79701 0.0
C2074 C 0.04348 0.23672 0.7658 0.0
C2075 C 0.04979 0.23366 0.75437 0.0
C2076 C 0.06283 0.23571 0.75291 0.0
C2077 C 0.0698 0.24081 0.76289 0.0
C2078 C 0.06342 0.24389 0.77433 0.0
C2079 C 0.05036 0.24189 0.77575 0.0
C2080 C 0.02538 0.25246 0.7524 0.0
C2081 C 0.02623 0.25125 0.73917 0.0
C2082 C 0.03231 0.26054 0.73185 0.0
C2083 C 0.03746 0.27122 0.73767 0.0
C2084 C 0.03607 0.27263 0.75087 0.0
C2085 C 0.03013 0.2633 0.75817 0.0
C2086 C 0.99813 0.24754 0.75426 0.0
C2087 C 0.99162 0.24261 0.74392 0.0
C2088 C 0.9828 0.25015 0.73721 0.0
C2089 C 0.98017 0.26285 0.74073 0.0
C2090 C 0.98679 0.26773 0.75111 0.0
C2091 C 0.99566 0.2602 0.75775 0.0
C2092 C 0.99719 0.18399 0.81321 0.0
C2093 C 0.08368 0.2429 0.76143 0.0
H2094 H 0.66598 0.02451 0.69488 0.0
H2095 H 0.72263 0.92772 0.78061 0.0
H2096 H 0.72343 0.03097 0.73142 0.0
H2097 H 0.71703 0.051 0.72187 0.0
H2098 H 0.70258 0.06383 0.75841 0.0
H2099 H 0.70782 0.04307 0.76749 0.0
H2100 H 0.71052 1.00825 0.72377 0.0
H2101 H 0.69386 0.01367 0.70861 0.0
H2102 H 0.67114 0.03043 0.73891 0.0
H2103 H 0.68781 0.02479 0.75401 0.0
H2104 H 0.72366 0.98303 0.73584 0.0
H2105 H 0.71336 0.96758 0.72254 0.0
H2106 H 0.67673 0.97899 0.73848 0.0
H2107 H 0.68732 0.99386 0.75233 0.0
H2108 H 0.74345 0.98276 0.75743 0.0
H2109 H 0.74738 0.96034 0.76238 0.0
H2110 H 0.70916 0.95776 0.77796 0.0
H2111 H 0.70543 0.98022 0.77312 0.0
H2112 H 0.7544 0.00919 0.76731 0.0
H2113 H 0.77004 0.99999 0.78198 0.0
H2114 H 0.73944 0.98532 0.80527 0.0
H2115 H 0.72388 0.99487 0.79084 0.0
H2116 H 0.74602 0.03249 0.75411 0.0
H2117 H 0.75654 0.05089 0.76291 0.0
H2118 H 0.73325 0.04784 0.79693 0.0
H2119 H 0.7227 0.02945 0.78793 0.0
O2120 O 0.67247 0.0225 0.70103 0.0
O2121 O 0.66132 0.03132 0.71688 0.0
O2122 O 0.7411 0.93855 0.77095 0.0
O2123 O 0.72141 0.93664 0.7787 0.0
C2124 C 0.71751 0.02226 0.75492 0.0
C2125 C 0.71035 0.01261 0.74927 0.0
C2126 C 0.71269 0.99976 0.75241 0.0
C2127 C 0.72175 0.99664 0.76178 0.0
C2128 C 0.72851 1.00633 0.76801 0.0
C2129 C 0.72647 0.01919 0.76443 0.0
C2130 C 0.71597 0.03549 0.75011 0.0
C2131 C 0.71896 0.03817 0.73738 0.0
C2132 C 0.71539 0.04976 0.73195 0.0
C2133 C 0.70913 0.05918 0.73926 0.0
C2134 C 0.70702 0.05676 0.75232 0.0
C2135 C 0.71024 0.04496 0.75764 0.0
C2136 C 0.70032 0.01604 0.73999 0.0
C2137 C 0.70191 0.01302 0.72712 0.0
C2138 C 0.69239 0.01617 0.71848 0.0
C2139 C 0.68115 0.02246 0.72255 0.0
C2140 C 0.67966 0.02557 0.73546 0.0
C2141 C 0.68917 0.02238 0.7441 0.0
C2142 C 0.70629 0.98958 0.74513 0.0
C2143 C 0.71343 0.98201 0.73664 0.0
C2144 C 0.70745 0.97331 0.72885 0.0
C2145 C 0.6941 0.97205 0.72919 0.0
C2146 C 0.687 0.97951 0.73794 0.0
C2147 C 0.69304 0.9881 0.74586 0.0
C2148 C 0.72419 0.9831 0.76496 0.0
C2149 C 0.73599 0.97735 0.762 0.0
C2150 C 0.73818 0.96454 0.7648 0.0
C2151 C 0.72857 0.95725 0.77055 0.0
C2152 C 0.71676 0.96308 0.77352 0.0
C2153 C 0.7146 0.9759 0.77075 0.0
C2154 C 0.73794 1.00273 0.77795 0.0
C2155 C 0.75105 1.00434 0.77578 0.0
C2156 C 0.75999 0.99901 0.78413 0.0
C2157 C 0.75597 0.99179 0.7947 0.0
C2158 C 0.74284 0.99068 0.79713 0.0
C2159 C 0.73393 0.9962 0.78893 0.0
C2160 C 0.73368 0.02954 0.77042 0.0
C2161 C 0.74332 0.0357 0.76353 0.0
C2162 C 0.74933 0.04621 0.76861 0.0
C2163 C 0.74579 0.05089 0.78067 0.0
C2164 C 0.73617 0.04459 0.78759 0.0
C2165 C 0.73022 0.03399 0.78253 0.0
C2166 C 0.67103 0.02572 0.71336 0.0
C2167 C 0.73079 0.9436 0.7734 0.0
H2168 H 0.19415 0.70124 0.48831 0.0
H2169 H 0.29441 0.76588 0.41933 0.0
H2170 H 0.23058 0.75729 0.51451 0.0
H2171 H 0.21587 0.74752 0.52972 0.0
H2172 H 0.24562 0.72111 0.5409 0.0
H2173 H 0.26032 0.73111 0.5257 0.0
H2174 H 0.22581 0.74634 0.48746 0.0
H2175 H 0.20974 0.72986 0.48649 0.0
H2176 H 0.23667 0.70271 0.50217 0.0
H2177 H 0.25269 0.71922 0.50287 0.0
H2178 H 0.24103 0.76098 0.46751 0.0
H2179 H 0.23531 0.75476 0.44604 0.0
H2180 H 0.25507 0.71886 0.45122 0.0
H2181 H 0.26079 0.72521 0.47279 0.0
H2182 H 0.26239 0.77992 0.47275 0.0
H2183 H 0.27046 0.78641 0.45182 0.0
H2184 H 0.28935 0.74984 0.44763 0.0
H2185 H 0.28145 0.7436 0.46867 0.0
H2186 H 0.2668 0.78703 0.5002 0.0
H2187 H 0.28195 0.8038 0.49494 0.0
H2188 H 0.31043 0.77533 0.48515 0.0
H2189 H 0.29521 0.75865 0.49035 0.0
H2190 H 0.25355 0.77209 0.52675 0.0
H2191 H 0.26432 0.78117 0.54505 0.0
H2192 H 0.2992 0.76173 0.53385 0.0
H2193 H 0.28835 0.75249 0.51587 0.0
O2194 O 0.20062 0.70763 0.48882 0.0
O2195 O 0.21461 0.69423 0.49753 0.0
O2196 O 0.28255 0.78281 0.43084 0.0
O2197 O 0.2915 0.76376 0.42783 0.0
C2198 C 0.25411 0.74881 0.50749 0.0
C2199 C 0.25021 0.74387 0.49568 0.0
C2200 C 0.25585 0.74804 0.48421 0.0
C2201 C 0.26563 0.75699 0.48443 0.0
C2202 C 0.26994 0.76171 0.4961 0.0
C2203 C 0.26441 0.75744 0.50776 0.0
C2204 C 0.24666 0.74513 0.51912 0.0
C2205 C 0.23406 0.74968 0.52057 0.0
C2206 C 0.22558 0.7439 0.52911 0.0
C2207 C 0.22945 0.73338 0.53649 0.0
C2208 C 0.24228 0.72924 0.53549 0.0
C2209 C 0.25078 0.73503 0.52688 0.0
C2210 C 0.24037 0.73397 0.49529 0.0
C2211 C 0.2282 0.73682 0.49066 0.0
C2212 C 0.21905 0.72739 0.49013 0.0
C2213 C 0.22192 0.71496 0.49427 0.0
C2214 C 0.23414 0.71218 0.49893 0.0
C2215 C 0.24329 0.72159 0.49938 0.0
C2216 C 0.25125 0.74352 0.47174 0.0
C2217 C 0.24396 0.7517 0.46408 0.0
C2218 C 0.24072 0.74813 0.45183 0.0
C2219 C 0.24475 0.73633 0.44694 0.0
C2220 C 0.25192 0.72806 0.4547 0.0
C2221 C 0.25507 0.7316 0.46704 0.0
C2222 C 0.27139 0.76133 0.47222 0.0
C2223 C 0.26845 0.77342 0.46737 0.0
C2224 C 0.273 0.77706 0.45539 0.0
C2225 C 0.28049 0.76861 0.44802 0.0
C2226 C 0.28358 0.75657 0.45303 0.0
C2227 C 0.27911 0.75299 0.46505 0.0
C2228 C 0.27991 0.77161 0.49574 0.0
C2229 C 0.27642 0.78442 0.49728 0.0
C2230 C 0.28504 0.79398 0.49414 0.0
C2231 C 0.29736 0.79089 0.48956 0.0
C2232 C 0.30106 0.77803 0.48876 0.0
C2233 C 0.29239 0.76848 0.49175 0.0
C2234 C 0.27012 0.76157 0.51992 0.0
C2235 C 0.26343 0.76955 0.52841 0.0
C2236 C 0.26963 0.7748 0.53882 0.0
C2237 C 0.28269 0.7723 0.54084 0.0
C2238 C 0.28922 0.76403 0.53249 0.0
C2239 C 0.28299 0.75865 0.52226 0.0
C2240 C 0.2122 0.70496 0.49366 0.0
C2241 C 0.28491 0.77221 0.43507 0.0
H2242 H 0.84318 0.7106 0.5249 0.0
H2243 H 0.79093 0.78099 0.41704 0.0
H2244 H 0.78407 0.74705 0.52837 0.0
H2245 H 0.79225 0.74271 0.54968 0.0
H2246 H 0.80397 0.78158 0.55241 0.0
H2247 H 0.79628 0.78578 0.53085 0.0
H2248 H 0.79724 0.73565 0.50561 0.0
H2249 H 0.81459 0.72186 0.51303 0.0
H2250 H 0.83505 0.75485 0.52492 0.0
H2251 H 0.81777 0.76855 0.51714 0.0
H2252 H 0.78642 0.74212 0.48005 0.0
H2253 H 0.79932 0.7268 0.4677 0.0
H2254 H 0.83268 0.74916 0.47347 0.0
H2255 H 0.81978 0.76441 0.48607 0.0
H2256 H 0.7656 0.7644 0.47309 0.0
H2257 H 0.76387 0.76617 0.45 0.0
H2258 H 0.80113 0.78293 0.44798 0.0
H2259 H 0.80265 0.78125 0.47106 0.0
H2260 H 0.75137 0.77787 0.49605 0.0
H2261 H 0.73676 0.79231 0.48468 0.0
H2262 H 0.76876 0.81457 0.47217 0.0
H2263 H 0.78319 0.80027 0.48358 0.0
H2264 H 0.76143 0.76587 0.52549 0.0
H2265 H 0.7456 0.77615 0.5393 0.0
H2266 H 0.75833 0.81286 0.52634 0.0
H2267 H 0.77469 0.80243 0.51306 0.0
O2268 O 0.83636 0.71623 0.52216 0.0
O2269 O 0.84601 0.7334 0.52911 0.0
O2270 O 0.77202 0.77198 0.42775 0.0
O2271 O 0.79127 0.78034 0.42619 0.0
C2272 C 0.78783 0.76836 0.51418 0.0
C2273 C 0.79599 0.7615 0.50577 0.0
C2274 C 0.79454 0.76272 0.49256 0.0
C2275 C 0.78542 0.77134 0.48768 0.0
C2276 C 0.77746 0.77854 0.49603 0.0
C2277 C 0.77843 0.77683 0.50935 0.0
C2278 C 0.78965 0.76672 0.52804 0.0
C2279 C 0.78816 0.7547 0.53367 0.0
C2280 C 0.79288 0.75221 0.54576 0.0
C2281 C 0.7988 0.76181 0.55251 0.0
C2282 C 0.79942 0.77407 0.5473 0.0
C2283 C 0.79494 0.77649 0.53508 0.0
C2284 C 0.8063 0.75309 0.51078 0.0
C2285 C 0.80551 0.73988 0.50977 0.0
C2286 C 0.81541 0.73203 0.51405 0.0
C2287 C 0.82623 0.73726 0.51954 0.0
C2288 C 0.82687 0.75052 0.52071 0.0
C2289 C 0.81701 0.75836 0.51632 0.0
C2290 C 0.80216 0.75438 0.48391 0.0
C2291 C 0.79648 0.74379 0.47854 0.0
C2292 C 0.80383 0.73502 0.47161 0.0
C2293 C 0.81693 0.73682 0.46981 0.0
C2294 C 0.82258 0.74761 0.47483 0.0
C2295 C 0.81524 0.75631 0.48193 0.0
C2296 C 0.78423 0.77272 0.47372 0.0
C2297 C 0.77332 0.76854 0.46764 0.0
C2298 C 0.77238 0.76952 0.45446 0.0
C2299 C 0.78238 0.77467 0.44714 0.0
C2300 C 0.79327 0.77891 0.45331 0.0
C2301 C 0.79417 0.77795 0.46649 0.0
C2302 C 0.76835 0.78798 0.49058 0.0
C2303 C 0.75516 0.78601 0.49104 0.0
C2304 C 0.74685 0.79424 0.48456 0.0
C2305 C 0.75165 0.80446 0.47741 0.0
C2306 C 0.76481 0.80666 0.47743 0.0
C2307 C 0.77305 0.79854 0.48398 0.0
C2308 C 0.76922 0.78335 0.51818 0.0
C2309 C 0.76093 0.77614 0.52575 0.0
C2310 C 0.75175 0.78206 0.53353 0.0
C2311 C 0.75049 0.79537 0.53384 0.0
C2312 C 0.75902 0.8026 0.52644 0.0
C2313 C 0.76832 0.79665 0.51874 0.0
C2314 C 0.83681 0.72889 0.52392 0.0
C2315 C 0.78152 0.77557 0.43312 0.0
H2316 H 0.69304 0.21152 0.51239 0.0
H2317 H 0.78157 0.2642 0.41973 0.0
H2318 H 0.73399 0.27114 0.52359 0.0
H2319 H 0.72208 0.26477 0.54265 0.0
H2320 H 0.75307 0.23947 0.55302 0.0
H2321 H 0.76497 0.24597 0.53389 0.0
H2322 H 0.72444 0.25538 0.50039 0.0
H2323 H 0.70826 0.23938 0.50446 0.0
H2324 H 0.73711 0.21425 0.52006 0.0
H2325 H 0.7532 0.23027 0.51576 0.0
H2326 H 0.73678 0.26434 0.47435 0.0
H2327 H 0.72579 0.25248 0.45804 0.0
H2328 H 0.74489 0.21801 0.47034 0.0
H2329 H 0.75583 0.22998 0.48665 0.0
H2330 H 0.75738 0.28518 0.47479 0.0
H2331 H 0.76204 0.28875 0.45224 0.0
H2332 H 0.78045 0.25178 0.45018 0.0
H2333 H 0.7759 0.24843 0.47278 0.0
H2334 H 0.76663 0.29654 0.49802 0.0
H2335 H 0.78164 0.31161 0.48865 0.0
H2336 H 0.80866 0.28085 0.48197 0.0
H2337 H 0.79339 0.26587 0.49091 0.0
H2338 H 0.75663 0.28606 0.52928 0.0
H2339 H 0.76831 0.29579 0.54654 0.0
H2340 H 0.80254 0.27573 0.53446 0.0
H2341 H 0.79073 0.2658 0.51744 0.0
O2342 O 0.69953 0.21782 0.5111 0.0
O2343 O 0.71454 0.2056 0.51981 0.0
O2344 O 0.77096 0.28239 0.43043 0.0
O2345 O 0.77988 0.26317 0.42873 0.0
C2346 C 0.75563 0.26038 0.51445 0.0
C2347 C 0.74989 0.25339 0.50468 0.0
C2348 C 0.75354 0.25527 0.4919 0.0
C2349 C 0.76298 0.26421 0.48891 0.0
C2350 C 0.76911 0.27085 0.4987 0.0
C2351 C 0.76562 0.26883 0.5116 0.0
C2352 C 0.75035 0.25908 0.52746 0.0
C2353 C 0.73838 0.26455 0.53022 0.0
C2354 C 0.73153 0.2608 0.54099 0.0
C2355 C 0.7366 0.25153 0.5492 0.0
C2356 C 0.74899 0.2467 0.54688 0.0
C2357 C 0.75583 0.25044 0.53604 0.0
C2358 C 0.73996 0.24398 0.50783 0.0
C2359 C 0.72722 0.24643 0.50473 0.0
C2360 C 0.71801 0.23727 0.50706 0.0
C2361 C 0.7214 0.22552 0.51256 0.0
C2362 C 0.73417 0.22319 0.51581 0.0
C2363 C 0.74337 0.23234 0.51343 0.0
C2364 C 0.74719 0.24807 0.48166 0.0
C2365 C 0.73868 0.25425 0.47345 0.0
C2366 C 0.73241 0.24744 0.46413 0.0
C2367 C 0.73446 0.23427 0.46283 0.0
C2368 C 0.74297 0.2281 0.47114 0.0
C2369 C 0.74929 0.23494 0.48041 0.0
C2370 C 0.76639 0.26659 0.4754 0.0
C2371 C 0.76257 0.27795 0.46948 0.0
C2372 C 0.76518 0.27993 0.45659 0.0
C2373 C 0.7716 0.27053 0.4494 0.0
C2374 C 0.77549 0.2592 0.45543 0.0
C2375 C 0.77292 0.25726 0.46833 0.0
C2376 C 0.77898 0.28015 0.49516 0.0
C2377 C 0.77591 0.29314 0.49477 0.0
C2378 C 0.7845 0.30172 0.48941 0.0
C2379 C 0.79632 0.29742 0.48446 0.0
C2380 C 0.79955 0.28445 0.48547 0.0
C2381 C 0.79092 0.27589 0.4907 0.0
C2382 C 0.77274 0.27512 0.52202 0.0
C2383 C 0.76662 0.28367 0.53039 0.0
C2384 C 0.77334 0.28925 0.54027 0.0
C2385 C 0.78642 0.28658 0.54194 0.0
C2386 C 0.79255 0.27815 0.53341 0.0
C2387 C 0.78578 0.27244 0.52366 0.0
C2388 C 0.71166 0.2157 0.51475 0.0
C2389 C 0.77412 0.27245 0.43563 0.0
H2390 H 0.19521 0.36485 0.52612 0.0
H2391 H 0.2487 0.28426 0.42559 0.0
H2392 H 0.2541 0.32858 0.53169 0.0
H2393 H 0.24361 0.33646 0.55067 0.0
H2394 H 0.23249 0.29818 0.56047 0.0
H2395 H 0.24171 0.29077 0.54045 0.0
H2396 H 0.24069 0.3372 0.50824 0.0
H2397 H 0.22354 0.35196 0.51454 0.0
H2398 H 0.2031 0.32091 0.53186 0.0
H2399 H 0.2202 0.30621 0.52524 0.0
H2400 H 0.24985 0.32771 0.48284 0.0
H2401 H 0.23593 0.3401 0.46892 0.0
H2402 H 0.20408 0.31713 0.48065 0.0
H2403 H 0.21811 0.30499 0.4948 0.0
H2404 H 0.27231 0.30618 0.47943 0.0
H2405 H 0.27461 0.30251 0.4566 0.0
H2406 H 0.23807 0.28422 0.45681 0.0
H2407 H 0.23601 0.28778 0.47967 0.0
H2408 H 0.286 0.29454 0.50029 0.0
H2409 H 0.2999 0.27834 0.4902 0.0
H2410 H 0.26777 0.25363 0.48719 0.0
H2411 H 0.25397 0.26986 0.49707 0.0
H2412 H 0.27999 0.30621 0.52802 0.0
H2413 H 0.29499 0.29503 0.5421 0.0
H2414 H 0.27232 0.2614 0.54027 0.0
H2415 H 0.25749 0.27252 0.52599 0.0
O2416 O 0.20196 0.35887 0.52388 0.0
O2417 O 0.19227 0.34277 0.53347 0.0
O2418 O 0.26715 0.29456 0.43514 0.0
O2419 O 0.24817 0.2856 0.43466 0.0
C2420 C 0.25006 0.30577 0.52095 0.0
C2421 C 0.24187 0.31164 0.51202 0.0
C2422 C 0.24322 0.30882 0.49903 0.0
C2423 C 0.25248 0.29989 0.49491 0.0
C2424 C 0.26025 0.29356 0.50384 0.0
C2425 C 0.25917 0.2966 0.51686 0.0
C2426 C 0.24844 0.30916 0.53454 0.0
C2427 C 0.24966 0.32185 0.53812 0.0
C2428 C 0.2436 0.32634 0.54911 0.0
C2429 C 0.23672 0.31808 0.55713 0.0
C2430 C 0.2371 0.30501 0.55432 0.0
C2431 C 0.24272 0.30063 0.54302 0.0
C2432 C 0.23164 0.32065 0.51624 0.0
C2433 C 0.23247 0.33361 0.51335 0.0
C2434 C 0.22268 0.34201 0.51698 0.0
C2435 C 0.21192 0.3376 0.52366 0.0
C2436 C 0.21123 0.32461 0.5267 0.0
C2437 C 0.22099 0.31621 0.52297 0.0
C2438 C 0.23497 0.31546 0.48974 0.0
C2439 C 0.2399 0.32527 0.48225 0.0
C2440 C 0.23193 0.33231 0.47431 0.0
C2441 C 0.21888 0.32958 0.47365 0.0
C2442 C 0.21404 0.31956 0.48104 0.0
C2443 C 0.22203 0.31255 0.48903 0.0
C2444 C 0.25402 0.29721 0.48117 0.0
C2445 C 0.26488 0.30127 0.47453 0.0
C2446 C 0.26614 0.29921 0.4615 0.0
C2447 C 0.2565 0.29311 0.45487 0.0
C2448 C 0.24566 0.28897 0.46161 0.0
C2449 C 0.24445 0.29098 0.47466 0.0
C2450 C 0.26903 0.2833 0.49943 0.0
C2451 C 0.28206 0.28553 0.49765 0.0
C2452 C 0.28993 0.27634 0.49185 0.0
C2453 C 0.28487 0.26475 0.48799 0.0
C2454 C 0.27192 0.26241 0.49025 0.0
C2455 C 0.26405 0.27164 0.49586 0.0
C2456 C 0.26765 0.29017 0.52608 0.0
C2457 C 0.27824 0.29646 0.53073 0.0
C2458 C 0.2868 0.29008 0.53867 0.0
C2459 C 0.28474 0.2774 0.54218 0.0
C2460 C 0.27402 0.2712 0.53769 0.0
C2461 C 0.26557 0.27752 0.5296 0.0
C2462 C 0.20145 0.34653 0.52734 0.0
C2463 C 0.25765 0.29114 0.44098 0.0
H2464 H 0.86193 0.52206 0.70963 0.0
H2465 H 0.80041 0.61146 0.79787 0.0
H2466 H 0.79794 0.50812 0.74898 0.0
H2467 H 0.80377 0.48833 0.73808 0.0
H2468 H 0.83096 0.47947 0.76725 0.0
H2469 H 0.82481 0.4992 0.77832 0.0
H2470 H 0.81526 0.53319 0.73883 0.0
H2471 H 0.8327 0.52964 0.7235 0.0
H2472 H 0.85611 0.51426 0.75352 0.0
H2473 H 0.83871 0.51814 0.76877 0.0
H2474 H 0.80113 0.55684 0.75098 0.0
H2475 H 0.80926 0.57672 0.74233 0.0
H2476 H 0.84495 0.56981 0.76119 0.0
H2477 H 0.83664 0.54984 0.76996 0.0
H2478 H 0.78142 0.55721 0.77265 0.0
H2479 H 0.77706 0.57945 0.77797 0.0
H2480 H 0.81395 0.58144 0.79544 0.0
H2481 H 0.8181 0.55917 0.79022 0.0
H2482 H 0.77106 0.52902 0.78069 0.0
H2483 H 0.75366 0.53553 0.79508 0.0
H2484 H 0.78099 0.55067 0.82088 0.0
H2485 H 0.79836 0.54386 0.80657 0.0
H2486 H 0.78115 0.50475 0.77087 0.0
H2487 H 0.76759 0.49085 0.78373 0.0
H2488 H 0.78939 0.49955 0.81689 0.0
H2489 H 0.80287 0.51341 0.80395 0.0
O2490 O 0.85512 0.52329 0.71581 0.0
O2491 O 0.86639 0.51456 0.7314 0.0
O2492 O 0.78268 0.60096 0.78724 0.0
O2493 O 0.80176 0.60259 0.79587 0.0
C2494 C 0.80866 0.51805 0.76981 0.0
C2495 C 0.81535 0.52832 0.76427 0.0
C2496 C 0.81236 0.54093 0.76783 0.0
C2497 C 0.80298 0.5433 0.77731 0.0
C2498 C 0.79645 0.53315 0.78311 0.0
C2499 C 0.79943 0.52047 0.77951 0.0
C2500 C 0.8108 0.50505 0.76456 0.0
C2501 C 0.8049 0.50174 0.75322 0.0
C2502 C 0.80828 0.49046 0.74696 0.0
C2503 C 0.81785 0.48234 0.75177 0.0
C2504 C 0.82359 0.48555 0.76328 0.0
C2505 C 0.82001 0.49675 0.76967 0.0
C2506 C 0.82573 0.52586 0.75487 0.0
C2507 C 0.82417 0.52906 0.74205 0.0
C2508 C 0.83414 0.52702 0.73333 0.0
C2509 C 0.8458 0.52166 0.73728 0.0
C2510 C 0.84726 0.51839 0.75015 0.0
C2511 C 0.83733 0.52054 0.75887 0.0
C2512 C 0.81827 0.55189 0.76111 0.0
C2513 C 0.81077 0.55952 0.75312 0.0
C2514 C 0.81538 0.57093 0.74828 0.0
C2515 C 0.82767 0.57493 0.75122 0.0
C2516 C 0.83544 0.56697 0.75875 0.0
C2517 C 0.83074 0.55556 0.76371 0.0
C2518 C 0.80005 0.5566 0.78109 0.0
C2519 C 0.78847 0.56244 0.77774 0.0
C2520 C 0.78604 0.57515 0.78075 0.0
C2521 C 0.79518 0.58223 0.7871 0.0
C2522 C 0.80672 0.57628 0.79053 0.0
C2523 C 0.80911 0.56356 0.78757 0.0
C2524 C 0.78601 0.53595 0.79254 0.0
C2525 C 0.77331 0.53348 0.78958 0.0
C2526 C 0.76337 0.53723 0.79781 0.0
C2527 C 0.76593 0.5437 0.8091 0.0
C2528 C 0.77869 0.54585 0.8122 0.0
C2529 C 0.78863 0.54193 0.80405 0.0
C2530 C 0.79308 0.50998 0.78644 0.0
C2531 C 0.78325 0.50332 0.78081 0.0
C2532 C 0.77545 0.49547 0.78821 0.0
C2533 C 0.77734 0.4942 0.80137 0.0
C2534 C 0.78757 0.50047 0.80683 0.0
C2535 C 0.79539 0.50824 0.79943 0.0
C2536 C 0.85641 0.51959 0.72803 0.0
C2537 C 0.79277 0.59581 0.79007 0.0
H2538 H 0.28554 0.51922 0.83327 0.0
H2539 H 0.20283 0.6161 0.77894 0.0
H2540 H 0.24474 0.50897 0.7726 0.0
H2541 H 0.25434 0.48848 0.77781 0.0
H2542 H 0.22382 0.4817 0.80495 0.0
H2543 H 0.21383 0.50199 0.79887 0.0
H2544 H 0.25566 0.53205 0.78847 0.0
H2545 H 0.27129 0.52735 0.8049 0.0
H2546 H 0.24095 0.51527 0.83019 0.0
H2547 H 0.22541 0.52031 0.81377 0.0
H2548 H 0.2462 0.55531 0.7766 0.0
H2549 H 0.25888 0.57215 0.78562 0.0
H2550 H 0.23725 0.56954 0.82071 0.0
H2551 H 0.22464 0.55242 0.81162 0.0
H2552 H 0.22442 0.56012 0.75773 0.0
H2553 H 0.22084 0.58286 0.75425 0.0
H2554 H 0.202 0.58552 0.79095 0.0
H2555 H 0.20534 0.56271 0.79414 0.0
H2556 H 0.21667 0.53588 0.74631 0.0
H2557 H 0.20479 0.54698 0.72954 0.0
H2558 H 0.17567 0.55779 0.75687 0.0
H2559 H 0.18774 0.54696 0.7737 0.0
H2560 H 0.22544 0.50676 0.75738 0.0
H2561 H 0.21498 0.48915 0.747 0.0
H2562 H 0.17896 0.50107 0.76368 0.0
H2563 H 0.18962 0.51828 0.77472 0.0
O2564 O 0.27922 0.52087 0.82686 0.0
O2565 O 0.26344 0.51364 0.83905 0.0
O2566 O 0.21284 0.60501 0.76066 0.0
O2567 O 0.20402 0.60702 0.77988 0.0
C2568 C 0.22399 0.52029 0.7833 0.0
C2569 C 0.22989 0.5299 0.79021 0.0
C2570 C 0.22695 0.54273 0.78769 0.0
C2571 C 0.21781 0.5461 0.77858 0.0
C2572 C 0.21172 0.53659 0.77166 0.0
C2573 C 0.21481 0.52363 0.77404 0.0
C2574 C 0.22849 0.50692 0.78521 0.0
C2575 C 0.23994 0.50288 0.7794 0.0
C2576 C 0.24555 0.49121 0.78262 0.0
C2577 C 0.24008 0.48338 0.79206 0.0
C2578 C 0.22833 0.48731 0.79757 0.0
C2579 C 0.22257 0.49893 0.79412 0.0
C2580 C 0.23943 0.52655 0.79998 0.0
C2581 C 0.25242 0.52841 0.79758 0.0
C2582 C 0.26132 0.5257 0.80697 0.0
C2583 C 0.25736 0.52096 0.81887 0.0
C2584 C 0.24432 0.51893 0.82114 0.0
C2585 C 0.23543 0.52176 0.81178 0.0
C2586 C 0.23456 0.55272 0.79349 0.0
C2587 C 0.24427 0.55832 0.78626 0.0
C2588 C 0.25151 0.56784 0.79142 0.0
C2589 C 0.24904 0.57199 0.80384 0.0
C2590 C 0.23928 0.56642 0.8111 0.0
C2591 C 0.23213 0.55671 0.80597 0.0
C2592 C 0.21499 0.55975 0.77611 0.0
C2593 C 0.21932 0.56559 0.76489 0.0
C2594 C 0.21734 0.5786 0.76298 0.0
C2595 C 0.21115 0.58602 0.77234 0.0
C2596 C 0.20679 0.5801 0.78355 0.0
C2597 C 0.20866 0.56707 0.78539 0.0
C2598 C 0.20304 0.54051 0.76123 0.0
C2599 C 0.20754 0.5403 0.74862 0.0
C2600 C 0.20083 0.54673 0.73908 0.0
C2601 C 0.18935 0.55323 0.74195 0.0
C2602 C 0.18444 0.55275 0.75442 0.0
C2603 C 0.19128 0.54653 0.764 0.0
C2604 C 0.20834 0.5136 0.76702 0.0
C2605 C 0.21535 0.50545 0.75899 0.0
C2606 C 0.20938 0.49547 0.75303 0.0
C2607 C 0.19625 0.49378 0.7547 0.0
C2608 C 0.18912 0.50222 0.76234 0.0
C2609 C 0.19517 0.51202 0.76858 0.0
C2610 C 0.26682 0.51824 0.82889 0.0
C2611 C 0.20939 0.59991 0.77055 0.0
H2612 H 0.21117 0.53787 0.28743 0.0
H2613 H 0.28438 0.42531 0.24494 0.0
H2614 H 0.2535 0.53563 0.2319 0.0
H2615 H 0.24788 0.55781 0.23527 0.0
H2616 H 0.28534 0.56396 0.25042 0.0
H2617 H 0.29033 0.54138 0.24811 0.0
H2618 H 0.2411 0.51444 0.24634 0.0
H2619 H 0.22548 0.52319 0.26152 0.0
H2620 H 0.25609 0.53779 0.28383 0.0
H2621 H 0.27161 0.52885 0.26865 0.0
H2622 H 0.24907 0.48627 0.24084 0.0
H2623 H 0.23357 0.47655 0.2553 0.0
H2624 H 0.2538 0.49131 0.28729 0.0
H2625 H 0.26962 0.50021 0.27278 0.0
H2626 H 0.27101 0.48158 0.21844 0.0
H2627 H 0.2722 0.45844 0.21692 0.0
H2628 H 0.28637 0.45627 0.25521 0.0
H2629 H 0.28532 0.4794 0.25653 0.0
H2630 H 0.28658 0.50745 0.20509 0.0
H2631 H 0.30098 0.4969 0.18977 0.0
H2632 H 0.31864 0.47598 0.22031 0.0
H2633 H 0.30483 0.48713 0.2357 0.0
H2634 H 0.27981 0.53354 0.21189 0.0
H2635 H 0.29481 0.54821 0.20208 0.0
H2636 H 0.32402 0.53469 0.22766 0.0
H2637 H 0.30907 0.51967 0.23688 0.0
O2638 O 0.2175 0.53463 0.28147 0.0
O2639 O 0.23358 0.54206 0.29253 0.0
O2640 O 0.27703 0.43612 0.22543 0.0
O2641 O 0.2839 0.43448 0.24524 0.0
C2642 C 0.27461 0.52289 0.23968 0.0
C2643 C 0.26696 0.51514 0.24751 0.0
C2644 C 0.26845 0.50182 0.24712 0.0
C2645 C 0.27728 0.49618 0.23851 0.0
C2646 C 0.28524 0.50393 0.2308 0.0
C2647 C 0.2841 0.51732 0.23172 0.0
C2648 C 0.2723 0.53686 0.2398 0.0
C2649 C 0.26051 0.54181 0.23588 0.0
C2650 C 0.25737 0.55458 0.23771 0.0
C2651 C 0.2661 0.56282 0.24319 0.0
C2652 C 0.27821 0.55792 0.24646 0.0
C2653 C 0.28121 0.54503 0.24494 0.0
C2654 C 0.25747 0.521 0.25642 0.0
C2655 C 0.2444 0.51954 0.25451 0.0
C2656 C 0.23551 0.52455 0.26319 0.0
C2657 C 0.23954 0.53116 0.2739 0.0
C2658 C 0.25266 0.53274 0.27568 0.0
C2659 C 0.26155 0.5277 0.26701 0.0
C2660 C 0.26045 0.49396 0.25576 0.0
C2661 C 0.25034 0.48704 0.25098 0.0
C2662 C 0.24138 0.48169 0.25927 0.0
C2663 C 0.24229 0.48331 0.27249 0.0
C2664 C 0.25282 0.48972 0.27721 0.0
C2665 C 0.26187 0.49487 0.26893 0.0
C2666 C 0.27808 0.48215 0.23759 0.0
C2667 C 0.27442 0.47609 0.22646 0.0
C2668 C 0.27509 0.46287 0.22563 0.0
C2669 C 0.27937 0.4555 0.23596 0.0
C2670 C 0.28302 0.46165 0.24709 0.0
C2671 C 0.2824 0.47486 0.24788 0.0
C2672 C 0.29453 0.49804 0.22158 0.0
C2673 C 0.29374 0.50081 0.20854 0.0
C2674 C 0.30193 0.49476 0.19978 0.0
C2675 C 0.31084 0.48558 0.20387 0.0
C2676 C 0.31178 0.48296 0.21692 0.0
C2677 C 0.30385 0.48928 0.2257 0.0
C2678 C 0.29338 0.52555 0.22506 0.0
C2679 C 0.28951 0.53367 0.21522 0.0
C2680 C 0.29809 0.54215 0.20974 0.0
C2681 C 0.31068 0.54278 0.21411 0.0
C2682 C 0.31452 0.53441 0.22386 0.0
C2683 C 0.30597 0.52583 0.2292 0.0
C2684 C 0.23007 0.53631 0.28321 0.0
C2685 C 0.28001 0.44146 0.23517 0.0
H2686 H 0.6961 0.53584 0.20669 0.0
H2687 H 0.74138 0.42351 0.28201 0.0
H2688 H 0.75735 0.53251 0.24468 0.0
H2689 H 0.75625 0.55543 0.24056 0.0
H2690 H 0.7365 0.5609 0.27642 0.0
H2691 H 0.73779 0.53797 0.28053 0.0
H2692 H 0.73907 0.51123 0.23226 0.0
H2693 H 0.72299 0.52053 0.21825 0.0
H2694 H 0.70266 0.53569 0.25095 0.0
H2695 H 0.71867 0.52614 0.26484 0.0
H2696 H 0.74777 0.48334 0.24022 0.0
H2697 H 0.73472 0.4699 0.22704 0.0
H2698 H 0.70107 0.4823 0.24795 0.0
H2699 H 0.71427 0.49584 0.26106 0.0
H2700 H 0.76802 0.47687 0.26111 0.0
H2701 H 0.76915 0.45385 0.26419 0.0
H2702 H 0.7316 0.45499 0.28163 0.0
H2703 H 0.73067 0.47801 0.27862 0.0
H2704 H 0.7828 0.49996 0.27342 0.0
H2705 H 0.79781 0.48979 0.28807 0.0
H2706 H 0.76629 0.47785 0.31183 0.0
H2707 H 0.75137 0.4881 0.29719 0.0
H2708 H 0.77573 0.52858 0.26486 0.0
H2709 H 0.79051 0.54096 0.27726 0.0
H2710 H 0.77137 0.52921 0.31183 0.0
H2711 H 0.75627 0.51719 0.29933 0.0
O2712 O 0.70244 0.53237 0.21238 0.0
O2713 O 0.69281 0.54066 0.22943 0.0
O2714 O 0.76056 0.43254 0.27182 0.0
O2715 O 0.74118 0.43259 0.28063 0.0
C2716 C 0.74779 0.51968 0.26501 0.0
C2717 C 0.73949 0.51201 0.2581 0.0
C2718 C 0.74007 0.49868 0.2595 0.0
C2719 C 0.74874 0.49305 0.26808 0.0
C2720 C 0.75686 0.50071 0.27521 0.0
C2721 C 0.75635 0.51405 0.27369 0.0
C2722 C 0.74764 0.53362 0.26289 0.0
C2723 C 0.7529 0.53869 0.25169 0.0
C2724 C 0.75233 0.55176 0.24939 0.0
C2725 C 0.74629 0.55993 0.25817 0.0
C2726 C 0.74116 0.55481 0.26947 0.0
C2727 C 0.74191 0.54175 0.27185 0.0
C2728 C 0.73001 0.518 0.24954 0.0
C2729 C 0.73113 0.51655 0.23636 0.0
C2730 C 0.72194 0.52188 0.22839 0.0
C2731 C 0.71152 0.52883 0.23349 0.0
C2732 C 0.71055 0.53039 0.24672 0.0
C2733 C 0.71969 0.52498 0.25467 0.0
C2734 C 0.73197 0.49053 0.25161 0.0
C2735 C 0.73759 0.48311 0.24198 0.0
C2736 C 0.73012 0.4754 0.23451 0.0
C2737 C 0.71685 0.47498 0.23648 0.0
C2738 C 0.71124 0.4825 0.24611 0.0
C2739 C 0.71875 0.4902 0.25363 0.0
C2740 C 0.74927 0.47907 0.26965 0.0
C2741 C 0.76007 0.47211 0.2656 0.0
C2742 C 0.76068 0.45898 0.26736 0.0
C2743 C 0.75046 0.45258 0.27317 0.0
C2744 C 0.73962 0.45961 0.27713 0.0
C2745 C 0.73905 0.47275 0.27539 0.0
C2746 C 0.76599 0.49472 0.28421 0.0
C2747 C 0.77916 0.49521 0.28184 0.0
C2748 C 0.78771 0.48945 0.29023 0.0
C2749 C 0.78323 0.48299 0.30109 0.0
C2750 C 0.77002 0.48261 0.30347 0.0
C2751 C 0.7615 0.48846 0.29513 0.0
C2752 C 0.76488 0.52207 0.28119 0.0
C2753 C 0.77457 0.52888 0.27509 0.0
C2754 C 0.78302 0.53588 0.28217 0.0
C2755 C 0.78207 0.536 0.29548 0.0
C2756 C 0.77235 0.52919 0.30159 0.0
C2757 C 0.76373 0.52238 0.29447 0.0
C2758 C 0.70168 0.53434 0.22502 0.0
C2759 C 0.75108 0.43864 0.27514 0.0
H2760 H 0.49888 0.37334 0.82206 0.0
H2761 H 0.60474 0.32439 0.74242 0.0
H2762 H 0.49667 0.31406 0.77987 0.0
H2763 H 0.47464 0.31623 0.78743 0.0
H2764 H 0.46575 0.3395 0.75472 0.0
H2765 H 0.48791 0.33703 0.74708 0.0
H2766 H 0.51808 0.33048 0.79202 0.0
H2767 H 0.51096 0.34621 0.80768 0.0
H2768 H 0.4966 0.37017 0.77744 0.0
H2769 H 0.50393 0.35443 0.76188 0.0
H2770 H 0.54464 0.31984 0.78225 0.0
H2771 H 0.56036 0.32996 0.79535 0.0
H2772 H 0.55072 0.36625 0.7783 0.0
H2773 H 0.53537 0.35579 0.76472 0.0
H2774 H 0.54887 0.30137 0.76164 0.0
H2775 H 0.57189 0.2986 0.75872 0.0
H2776 H 0.57369 0.33586 0.74142 0.0
H2777 H 0.55061 0.3384 0.74419 0.0
H2778 H 0.52569 0.28941 0.75197 0.0
H2779 H 0.53767 0.27328 0.7399 0.0
H2780 H 0.5486 0.30186 0.71243 0.0
H2781 H 0.53684 0.31797 0.72476 0.0
H2782 H 0.49624 0.29755 0.75722 0.0
H2783 H 0.48265 0.28499 0.74378 0.0
H2784 H 0.49587 0.30604 0.71087 0.0
H2785 H 0.50869 0.31907 0.72457 0.0
O2786 O 0.50145 0.36717 0.81573 0.0
O2787 O 0.49367 0.37886 0.7999 0.0
O2788 O 0.59403 0.3057 0.75159 0.0
O2789 O 0.59558 0.32513 0.74344 0.0
C2790 C 0.50764 0.32495 0.75933 0.0
C2791 C 0.51635 0.33214 0.76632 0.0
C2792 C 0.52961 0.33051 0.76429 0.0
C2793 C 0.53415 0.32184 0.75507 0.0
C2794 C 0.52549 0.3148 0.74794 0.0
C2795 C 0.51222 0.31648 0.74989 0.0
C2796 C 0.49389 0.32542 0.76296 0.0
C2797 C 0.48993 0.31951 0.77426 0.0
C2798 C 0.47735 0.32084 0.7786 0.0
C2799 C 0.46845 0.32819 0.77178 0.0
C2800 C 0.47234 0.33373 0.76018 0.0
C2801 C 0.48499 0.33236 0.7558 0.0
C2802 C 0.51156 0.34138 0.77585 0.0
C2803 C 0.5134 0.33914 0.78882 0.0
C2804 C 0.50931 0.34813 0.79773 0.0
C2805 C 0.50325 0.35947 0.79381 0.0
C2806 C 0.50125 0.36155 0.78078 0.0
C2807 C 0.50539 0.35258 0.77188 0.0
C2808 C 0.53885 0.33705 0.77252 0.0
C2809 C 0.54596 0.32997 0.7813 0.0
C2810 C 0.55488 0.33583 0.78889 0.0
C2811 C 0.55681 0.349 0.78802 0.0
C2812 C 0.54963 0.35609 0.77917 0.0
C2813 C 0.54075 0.35016 0.77149 0.0
C2814 C 0.54808 0.32004 0.75302 0.0
C2815 C 0.55424 0.30885 0.75708 0.0
C2816 C 0.56739 0.30732 0.75546 0.0
C2817 C 0.57464 0.31702 0.74985 0.0
C2818 C 0.56841 0.32821 0.74578 0.0
C2819 C 0.55523 0.32969 0.74734 0.0
C2820 C 0.53049 0.30483 0.73925 0.0
C2821 C 0.5304 0.29209 0.74316 0.0
C2822 C 0.53723 0.28291 0.73625 0.0
C2823 C 0.54419 0.28634 0.7253 0.0
C2824 C 0.5435 0.29898 0.72095 0.0
C2825 C 0.53674 0.30817 0.72791 0.0
C2826 C 0.50332 0.30934 0.74191 0.0
C2827 C 0.49595 0.29962 0.74715 0.0
C2828 C 0.48836 0.2923 0.73938 0.0
C2829 C 0.48816 0.29439 0.72615 0.0
C2830 C 0.49555 0.30423 0.72099 0.0
C2831 C 0.50297 0.31167 0.7288 0.0
C2832 C 0.49913 0.3691 0.80328 0.0
C2833 C 0.58866 0.31555 0.74835 0.0
H2834 H 0.49976 0.6635 0.80864 0.0
H2835 H 0.60481 0.73568 0.74833 0.0
H2836 H 0.49388 0.70035 0.74957 0.0
H2837 H 0.47175 0.69692 0.75634 0.0
H2838 H 0.46952 0.73534 0.77047 0.0
H2839 H 0.49145 0.73863 0.76368 0.0
H2840 H 0.51892 0.68901 0.76292 0.0
H2841 H 0.51197 0.67505 0.78023 0.0
H2842 H 0.49682 0.7076 0.80058 0.0
H2843 H 0.50405 0.72147 0.78332 0.0
H2844 H 0.54647 0.69668 0.75529 0.0
H2845 H 0.55933 0.68473 0.77068 0.0
H2846 H 0.54575 0.70969 0.80048 0.0
H2847 H 0.53297 0.72154 0.78504 0.0
H2848 H 0.54782 0.71703 0.72945 0.0
H2849 H 0.57068 0.71907 0.72536 0.0
H2850 H 0.57462 0.73695 0.76187 0.0
H2851 H 0.55172 0.73499 0.76577 0.0
H2852 H 0.5224 0.73196 0.71678 0.0
H2853 H 0.53216 0.74656 0.70122 0.0
H2854 H 0.54953 0.76672 0.73171 0.0
H2855 H 0.53937 0.7526 0.7472 0.0
H2856 H 0.49426 0.72207 0.72774 0.0
H2857 H 0.47693 0.73443 0.71818 0.0
H2858 H 0.4911 0.76841 0.73526 0.0
H2859 H 0.50815 0.75585 0.74515 0.0
O2860 O 0.50231 0.66917 0.80184 0.0
O2861 O 0.49406 0.68613 0.81159 0.0
O2862 O 0.59318 0.72568 0.73095 0.0
O2863 O 0.59575 0.73476 0.7497 0.0
C2864 C 0.5079 0.72135 0.75369 0.0
C2865 C 0.51663 0.71475 0.76155 0.0
C2866 C 0.52982 0.71652 0.75998 0.0
C2867 C 0.53425 0.72469 0.75023 0.0
C2868 C 0.52546 0.73173 0.74261 0.0
C2869 C 0.51218 0.73012 0.74439 0.0
C2870 C 0.49415 0.71976 0.75608 0.0
C2871 C 0.48846 0.70806 0.75391 0.0
C2872 C 0.47591 0.70611 0.75784 0.0
C2873 C 0.46892 0.71588 0.7639 0.0
C2874 C 0.47457 0.72771 0.76561 0.0
C2875 C 0.48709 0.72962 0.76175 0.0
C2876 C 0.51192 0.70623 0.77184 0.0
C2877 C 0.51408 0.69309 0.77112 0.0
C2878 C 0.5101 0.68515 0.78102 0.0
C2879 C 0.50384 0.69021 0.79179 0.0
C2880 C 0.5016 0.70339 0.79242 0.0
C2881 C 0.50566 0.71133 0.78255 0.0
C2882 C 0.5388 0.71005 0.76898 0.0
C2883 C 0.54644 0.69969 0.7651 0.0
C2884 C 0.55375 0.69285 0.77394 0.0
C2885 C 0.55354 0.69618 0.78688 0.0
C2886 C 0.54602 0.70671 0.79067 0.0
C2887 C 0.53879 0.71358 0.78182 0.0
C2888 C 0.54814 0.72581 0.74792 0.0
C2889 C 0.55364 0.72138 0.73655 0.0
C2890 C 0.5667 0.72256 0.73424 0.0
C2891 C 0.57448 0.72816 0.7433 0.0
C2892 C 0.56891 0.73256 0.75471 0.0
C2893 C 0.55585 0.73142 0.75698 0.0
C2894 C 0.5303 0.74111 0.73314 0.0
C2895 C 0.52811 0.73968 0.72011 0.0
C2896 C 0.53368 0.74797 0.71125 0.0
C2897 C 0.54164 0.75764 0.71533 0.0
C2898 C 0.54349 0.75927 0.72837 0.0
C2899 C 0.53773 0.75119 0.73719 0.0
C2900 C 0.50261 0.73799 0.73715 0.0
C2901 C 0.49372 0.7322 0.72932 0.0
C2902 C 0.48379 0.73933 0.72382 0.0
C2903 C 0.48249 0.75249 0.72592 0.0
C2904 C 0.49162 0.7583 0.73353 0.0
C2905 C 0.50152 0.75115 0.73906 0.0
C2906 C 0.49974 0.68176 0.80235 0.0
C2907 C 0.58835 0.72943 0.7409 0.0
H2908 H 0.54737 0.72054 0.22675 0.0
H2909 H 0.43855 0.79257 0.27776 0.0
H2910 H 0.54927 0.75915 0.28548 0.0
H2911 H 0.57155 0.75361 0.28044 0.0
H2912 H 0.57676 0.79069 0.26385 0.0
H2913 H 0.55428 0.79614 0.26859 0.0
H2914 H 0.52746 0.74747 0.27134 0.0
H2915 H 0.53508 0.73296 0.25476 0.0
H2916 H 0.54818 0.76493 0.23253 0.0
H2917 H 0.54034 0.77934 0.24911 0.0
H2918 H 0.50001 0.75486 0.27993 0.0
H2919 H 0.48782 0.74089 0.26643 0.0
H2920 H 0.49928 0.76291 0.23351 0.0
H2921 H 0.51081 0.77712 0.24719 0.0
H2922 H 0.49492 0.77604 0.30182 0.0
H2923 H 0.47172 0.77768 0.30412 0.0
H2924 H 0.46961 0.79481 0.26678 0.0
H2925 H 0.49279 0.79327 0.26468 0.0
H2926 H 0.51996 0.78911 0.31477 0.0
H2927 H 0.50907 0.80237 0.33089 0.0
H2928 H 0.49174 0.82481 0.30126 0.0
H2929 H 0.50283 0.81177 0.28516 0.0
H2930 H 0.54957 0.78234 0.30427 0.0
H2931 H 0.56477 0.79589 0.3146 0.0
H2932 H 0.54672 0.82892 0.29759 0.0
H2933 H 0.53222 0.81514 0.28648 0.0
O2934 O 0.54464 0.72643 0.23329 0.0
O2935 O 0.55189 0.74311 0.22257 0.0
O2936 O 0.44935 0.78355 0.29652 0.0
O2937 O 0.44774 0.79196 0.27719 0.0
C2938 C 0.53623 0.78042 0.27866 0.0
C2939 C 0.528 0.77329 0.27111 0.0
C2940 C 0.51469 0.77473 0.27254 0.0
C2941 C 0.50954 0.78329 0.28158 0.0
C2942 C 0.51772 0.79065 0.28905 0.0
C2943 C 0.53113 0.78937 0.28743 0.0
C2944 C 0.55017 0.77805 0.2774 0.0
C2945 C 0.55527 0.76616 0.28095 0.0
C2946 C 0.56793 0.76301 0.27809 0.0
C2947 C 0.57576 0.77177 0.27185 0.0
C2948 C 0.57086 0.78387 0.2688 0.0
C2949 C 0.5581 0.78699 0.27152 0.0
C2950 C 0.53334 0.76444 0.2614 0.0
C2951 C 0.532 0.7513 0.26289 0.0
C2952 C 0.53636 0.74304 0.2534 0.0
C2953 C 0.54221 0.74779 0.2423 0.0
C2954 C 0.54372 0.76097 0.24095 0.0
C2955 C 0.5393 0.76921 0.25042 0.0
C2956 C 0.50623 0.76704 0.26455 0.0
C2957 C 0.49964 0.75678 0.26983 0.0
C2958 C 0.49285 0.74869 0.26205 0.0
C2959 C 0.4926 0.75066 0.24881 0.0
C2960 C 0.49906 0.76114 0.24364 0.0
C2961 C 0.50572 0.76927 0.25144 0.0
C2962 C 0.49551 0.78454 0.2831 0.0
C2963 C 0.48942 0.78021 0.29419 0.0
C2964 C 0.47618 0.78113 0.29546 0.0
C2965 C 0.46881 0.78635 0.28561 0.0
C2966 C 0.47498 0.79073 0.27453 0.0
C2967 C 0.48822 0.78984 0.2733 0.0
C2968 C 0.51216 0.79943 0.29877 0.0
C2969 C 0.51403 0.79705 0.31176 0.0
C2970 C 0.50783 0.80459 0.32093 0.0
C2971 C 0.49968 0.81459 0.31723 0.0
C2972 C 0.49807 0.81718 0.30428 0.0
C2973 C 0.50434 0.80973 0.29512 0.0
C2974 C 0.5398 0.7977 0.29453 0.0
C2975 C 0.54896 0.79249 0.30269 0.0
C2976 C 0.55756 0.80031 0.30873 0.0
C2977 C 0.55702 0.81357 0.30699 0.0
C2978 C 0.54762 0.81877 0.29901 0.0
C2979 C 0.53918 0.81091 0.29277 0.0
C2980 C 0.54657 0.73901 0.23211 0.0
C2981 C 0.45473 0.78719 0.28683 0.0
H2982 H 0.50959 0.1991 0.31636 0.0
H2983 H 0.40934 0.25409 0.23455 0.0
H2984 H 0.51678 0.25674 0.27515 0.0
H2985 H 0.53621 0.24795 0.28427 0.0
H2986 H 0.54325 0.22625 0.25011 0.0
H2987 H 0.52344 0.23487 0.24125 0.0
H2988 H 0.49301 0.24308 0.28633 0.0
H2989 H 0.49896 0.22687 0.30199 0.0
H2990 H 0.51289 0.20259 0.27171 0.0
H2991 H 0.50662 0.21875 0.25615 0.0
H2992 H 0.46664 0.25512 0.27571 0.0
H2993 H 0.45153 0.24461 0.29 0.0
H2994 H 0.46164 0.20851 0.27316 0.0
H2995 H 0.4767 0.21915 0.25878 0.0
H2996 H 0.46556 0.27512 0.25322 0.0
H2997 H 0.44283 0.27896 0.2497 0.0
H2998 H 0.43959 0.24073 0.23565 0.0
H2999 H 0.46233 0.23708 0.23907 0.0
H3000 H 0.49337 0.2855 0.24135 0.0
H3001 H 0.48658 0.30113 0.22536 0.0
H3002 H 0.46811 0.27165 0.20473 0.0
H3003 H 0.47565 0.25588 0.22024 0.0
H3004 H 0.5167 0.27643 0.25365 0.0
H3005 H 0.5319 0.28946 0.24186 0.0
H3006 H 0.52513 0.26772 0.20806 0.0
H3007 H 0.50957 0.25508 0.21989 0.0
O3008 O 0.50734 0.20541 0.31002 0.0
O3009 O 0.51543 0.19379 0.2942 0.0
O3010 O 0.42057 0.27255 0.24297 0.0
O3011 O 0.41838 0.2529 0.23589 0.0
C3012 C 0.50525 0.24871 0.25402 0.0
C3013 C 0.4957 0.24187 0.2606 0.0
C3014 C 0.48272 0.24435 0.25822 0.0
C3015 C 0.47928 0.25338 0.24883 0.0
C3016 C 0.48883 0.26001 0.24191 0.0
C3017 C 0.50189 0.25772 0.2446 0.0
C3018 C 0.51872 0.24644 0.25755 0.0
C3019 C 0.52276 0.25043 0.26946 0.0
C3020 C 0.53388 0.24535 0.27467 0.0
C3021 C 0.54125 0.23623 0.26801 0.0
C3022 C 0.53768 0.23305 0.25561 0.0
C3023 C 0.52649 0.23813 0.25042 0.0
C3024 C 0.49938 0.23208 0.27013 0.0
C3025 C 0.49729 0.23423 0.28311 0.0
C3026 C 0.50073 0.22496 0.29203 0.0
C3027 C 0.50641 0.21343 0.2881 0.0
C3028 C 0.50855 0.21136 0.27506 0.0
C3029 C 0.505 0.22058 0.26616 0.0
C3030 C 0.47276 0.23794 0.26615 0.0
C3031 C 0.46545 0.24498 0.27495 0.0
C3032 C 0.45682 0.23894 0.28313 0.0
C3033 C 0.45537 0.2257 0.28275 0.0
C3034 C 0.46261 0.21869 0.2738 0.0
C3035 C 0.47117 0.22476 0.26553 0.0
C3036 C 0.46558 0.25584 0.24636 0.0
C3037 C 0.45994 0.26763 0.24929 0.0
C3038 C 0.44695 0.26978 0.24731 0.0
C3039 C 0.43939 0.26013 0.24241 0.0
C3040 C 0.44512 0.24835 0.23945 0.0
C3041 C 0.45811 0.24624 0.24139 0.0
C3042 C 0.48509 0.26948 0.23197 0.0
C3043 C 0.48815 0.28233 0.23322 0.0
C3044 C 0.48422 0.29126 0.22414 0.0
C3045 C 0.47684 0.28755 0.21387 0.0
C3046 C 0.47379 0.27472 0.21259 0.0
C3047 C 0.47805 0.26574 0.22146 0.0
C3048 C 0.512 0.26481 0.23763 0.0
C3049 C 0.51861 0.27441 0.24373 0.0
C3050 C 0.52735 0.28183 0.23695 0.0
C3051 C 0.52977 0.27974 0.22393 0.0
C3052 C 0.52337 0.26982 0.21798 0.0
C3053 C 0.51454 0.26248 0.22475 0.0
C3054 C 0.51002 0.2036 0.29758 0.0
C3055 C 0.42556 0.26229 0.24045 0.0
H3056 H 0.24865 0.19338 0.13945 0.0
H3057 H 0.20937 0.19939 0.12899 0.0
H3058 H 0.25558 0.20289 0.11962 0.0
H3059 H 0.21631 0.20993 0.10952 0.0
H3060 H 0.23312 0.2137 0.06935 0.0
H3061 H 0.22541 0.20527 0.0896 0.0
H3062 H 0.25755 0.22165 0.10832 0.0
H3063 H 0.26547 0.22948 0.08797 0.0
C3064 C 0.24148 0.19681 0.13294 0.0
C3065 C 0.22846 0.19543 0.13573 0.0
C3066 C 0.24546 0.20249 0.12163 0.0
C3067 C 0.23652 0.20719 0.11291 0.0
C3068 C 0.22347 0.20622 0.1159 0.0
C3069 C 0.21948 0.20034 0.12716 0.0
C3070 C 0.23847 0.21548 0.07784 0.0
C3071 C 0.24992 0.22211 0.07716 0.0
C3072 C 0.23403 0.21075 0.08946 0.0
C3073 C 0.24087 0.21273 0.10063 0.0
C3074 C 0.25217 0.21967 0.0999 0.0
C3075 C 0.25671 0.2242 0.08827 0.0
H3076 H 0.84644 0.23361 0.12228 0.0
H3077 H 0.85996 0.20507 0.09587 0.0
H3078 H 0.83393 0.24362 0.10552 0.0
H3079 H 0.847 0.2146 0.07933 0.0
H3080 H 0.82758 0.23957 0.04996 0.0
H3081 H 0.84296 0.23204 0.06559 0.0
H3082 H 0.8146 0.23748 0.0954 0.0
H3083 H 0.79947 0.24542 0.07969 0.0
C3084 C 0.84695 0.22966 0.11282 0.0
C3085 C 0.85395 0.21846 0.11036 0.0
C3086 C 0.83964 0.23525 0.10329 0.0
C3087 C 0.83923 0.22969 0.09122 0.0
C3088 C 0.84709 0.2191 0.08853 0.0
C3089 C 0.85444 0.21359 0.09801 0.0
C3090 C 0.82471 0.23898 0.05987 0.0
C3091 C 0.81248 0.24288 0.06378 0.0
C3092 C 0.83345 0.23472 0.06879 0.0
C3093 C 0.83004 0.23432 0.08173 0.0
C3094 C 0.81761 0.23797 0.08553 0.0
C3095 C 0.80889 0.24229 0.07659 0.0
H3096 H 0.8133 0.84276 0.10056 0.0
H3097 H 0.8479 0.8302 0.0815 0.0
H3098 H 0.80086 0.82977 0.0866 0.0
H3099 H 0.83535 0.81722 0.06723 0.0
H3100 H 0.80798 0.78686 0.05204 0.0
H3101 H 0.82141 0.79868 0.06629 0.0
H3102 H 0.795 0.83051 0.06456 0.0
H3103 H 0.78173 0.81887 0.05022 0.0
C3104 C 0.81823 0.83726 0.0933 0.0
C3105 C 0.83154 0.83765 0.09197 0.0
C3106 C 0.8111 0.82983 0.08528 0.0
C3107 C 0.81708 0.82264 0.07566 0.0
C3108 C 0.83046 0.82265 0.07458 0.0
C3109 C 0.83765 0.83007 0.08271 0.0
C3110 C 0.80511 0.79644 0.05457 0.0
C3111 C 0.79372 0.80188 0.05 0.0
C3112 C 0.81281 0.80319 0.06277 0.0
C3113 C 0.80924 0.81549 0.06664 0.0
C3114 C 0.79792 0.82095 0.06197 0.0
C3115 C 0.79027 0.81425 0.05375 0.0
H3116 H 0.21338 0.86742 0.09369 0.0
H3117 H 0.1891 0.83577 0.08615 0.0
H3118 H 0.22892 0.85939 0.07851 0.0
H3119 H 0.20527 0.82705 0.07174 0.0
H3120 H 0.23333 0.81657 0.04077 0.0
H3121 H 0.21633 0.82751 0.05263 0.0
H3122 H 0.24452 0.84422 0.0766 0.0
H3123 H 0.26134 0.83384 0.06425 0.0
C3124 C 0.21126 0.85878 0.08872 0.0
C3125 C 0.19987 0.8523 0.0912 0.0
C3126 C 0.22037 0.854 0.08014 0.0
C3127 C 0.21856 0.84242 0.07393 0.0
C3128 C 0.20704 0.83605 0.07619 0.0
C3129 C 0.1978 0.84096 0.08465 0.0
C3130 C 0.23581 0.82275 0.04848 0.0
C3131 C 0.24862 0.82437 0.05162 0.0
C3132 C 0.22608 0.82895 0.05537 0.0
C3133 C 0.22892 0.83672 0.06574 0.0
C3134 C 0.24183 0.83855 0.06859 0.0
C3135 C 0.25155 0.83255 0.06154 0.0
H3136 H 0.21781 0.86189 0.94456 0.0
H3137 H 0.2503 0.85503 0.91985 0.0
H3138 H 0.22746 0.84853 0.96071 0.0
H3139 H 0.2607 0.84326 0.93622 0.0
H3140 H 0.27694 0.81632 0.96441 0.0
H3141 H 0.26558 0.82735 0.94788 0.0
H3142 H 0.24008 0.84397 0.9763 0.0
H3143 H 0.25089 0.83166 0.99252 0.0
C3144 C 0.22705 0.85755 0.94258 0.0
C3145 C 0.23329 0.85971 0.93089 0.0
C3146 C 0.23281 0.85002 0.95201 0.0
C3147 C 0.24514 0.84462 0.95017 0.0
C3148 C 0.2512 0.84677 0.93832 0.0
C3149 C 0.24528 0.85391 0.92883 0.0
C3150 C 0.26885 0.82233 0.96702 0.0
C3151 C 0.26482 0.82319 0.97971 0.0
C3152 C 0.2623 0.8289 0.95751 0.0
C3153 C 0.25177 0.837 0.96042 0.0
C3154 C 0.24786 0.83781 0.9733 0.0
C3155 C 0.25417 0.83084 0.98275 0.0
H3156 H 0.22441 0.1703 0.92012 0.0
H3157 H 0.19428 0.17306 0.94835 0.0
H3158 H 0.23773 0.18347 0.93308 0.0
H3159 H 0.20766 0.18603 0.96147 0.0
H3160 H 0.22818 0.22086 0.97492 0.0
H3161 H 0.21557 0.20648 0.96264 0.0
H3162 H 0.24985 0.18609 0.95109 0.0
H3163 H 0.26253 0.20112 0.96251 0.0
C3164 C 0.22071 0.17349 0.92922 0.0
C3165 C 0.20818 0.17071 0.93308 0.0
C3166 C 0.22838 0.18109 0.9367 0.0
C3167 C 0.22378 0.18606 0.94832 0.0
C3168 C 0.21146 0.18274 0.95244 0.0
C3169 C 0.20377 0.17521 0.94493 0.0
C3170 C 0.23309 0.2135 0.96954 0.0
C3171 C 0.24646 0.21232 0.96966 0.0
C3172 C 0.22579 0.20503 0.96268 0.0
C3173 C 0.2316 0.19498 0.95584 0.0
C3174 C 0.24497 0.19376 0.95605 0.0
C3175 C 0.25228 0.20233 0.96278 0.0
H3176 H 0.78884 0.22831 0.89031 0.0
H3177 H 0.8188 0.20962 0.91123 0.0
H3178 H 0.78303 0.24079 0.90892 0.0
H3179 H 0.81255 0.22126 0.93013 0.0
H3180 H 0.80738 0.25061 0.95989 0.0
H3181 H 0.81309 0.23956 0.9406 0.0
H3182 H 0.77407 0.24312 0.92819 0.0
H3183 H 0.76881 0.25552 0.94681 0.0
C3184 C 0.79399 0.22668 0.89901 0.0
C3185 C 0.80432 0.21806 0.89929 0.0
C3186 C 0.79065 0.23382 0.90977 0.0
C3187 C 0.79736 0.23228 0.92121 0.0
C3188 C 0.80736 0.22318 0.92152 0.0
C3189 C 0.81087 0.21631 0.9107 0.0
C3190 C 0.80008 0.24937 0.9529 0.0
C3191 C 0.7876 0.25402 0.95502 0.0
C3192 C 0.80329 0.24268 0.94186 0.0
C3193 C 0.79404 0.24008 0.93271 0.0
C3194 C 0.78159 0.24492 0.93479 0.0
C3195 C 0.77847 0.2519 0.94568 0.0
H3196 H 0.83577 0.85706 0.94657 0.0
H3197 H 0.8063 0.85048 0.91954 0.0
H3198 H 0.82519 0.84269 0.96179 0.0
H3199 H 0.79578 0.83625 0.93452 0.0
H3200 H 0.7882 0.80062 0.95769 0.0
H3201 H 0.79912 0.81543 0.94367 0.0
H3202 H 0.80546 0.84014 0.97535 0.0
H3203 H 0.79457 0.82507 0.98953 0.0
C3204 C 0.8271 0.85246 0.94386 0.0
C3205 C 0.82192 0.85482 0.93181 0.0
C3206 C 0.82096 0.84433 0.9526 0.0
C3207 C 0.80963 0.8382 0.94939 0.0
C3208 C 0.80455 0.84061 0.93732 0.0
C3209 C 0.81056 0.84882 0.92871 0.0
C3210 C 0.79199 0.80916 0.96172 0.0
C3211 C 0.79056 0.81158 0.97477 0.0
C3212 C 0.79817 0.81775 0.95363 0.0
C3213 C 0.80321 0.82905 0.95831 0.0
C3214 C 0.80182 0.8315 0.97141 0.0
C3215 C 0.79547 0.82292 0.97952 0.0
H3216 H 0.12951 0.19778 0.22726 0.0
H3217 H 0.15016 0.23251 0.2302 0.0
H3218 H 0.11057 0.20816 0.2354 0.0
H3219 H 0.13182 0.24285 0.23968 0.0
H3220 H 0.09532 0.26412 0.24372 0.0
H3221 H 0.11434 0.25289 0.2378 0.0
H3222 H 0.09548 0.21723 0.2456 0.0
H3223 H 0.07595 0.22873 0.24954 0.0
C3224 C 0.13 0.20763 0.23003 0.0
C3225 C 0.14111 0.21447 0.22782 0.0
C3226 C 0.11907 0.21373 0.2348 0.0
C3227 C 0.11909 0.22678 0.23784 0.0
C3228 C 0.13079 0.23313 0.2368 0.0
C3229 C 0.14155 0.22714 0.23158 0.0
C3230 C 0.09516 0.25386 0.24379 0.0
C3231 C 0.08403 0.24736 0.247 0.0
C3232 C 0.10635 0.24724 0.24074 0.0
C3233 C 0.10699 0.23385 0.24132 0.0
C3234 C 0.09575 0.22742 0.24474 0.0
C3235 C 0.08441 0.23406 0.24728 0.0
H3236 H 0.85406 0.13831 0.21648 0.0
H3237 H 0.87216 0.11453 0.18818 0.0
H3238 H 0.84293 0.1201 0.22524 0.0
H3239 H 0.86174 0.09597 0.19731 0.0
H3240 H 0.83255 0.06689 0.21008 0.0
H3241 H 0.84317 0.08498 0.20035 0.0
H3242 H 0.84597 0.10221 0.23737 0.0
H3243 H 0.83484 0.08435 0.24682 0.0
C3244 C 0.85559 0.1291 0.21217 0.0
C3245 C 0.86383 0.12768 0.2017 0.0
C3246 C 0.84939 0.11861 0.21726 0.0
C3247 C 0.85153 0.10644 0.21213 0.0
C3248 C 0.8597 0.10516 0.20145 0.0
C3249 C 0.86573 0.11573 0.19623 0.0
C3250 C 0.83547 0.07461 0.21604 0.0
C3251 C 0.83292 0.07435 0.22913 0.0
C3252 C 0.84164 0.08493 0.21052 0.0
C3253 C 0.84537 0.09519 0.21802 0.0
C3254 C 0.84302 0.09468 0.23121 0.0
C3255 C 0.83682 0.08437 0.2367 0.0
H3256 H 0.93645 0.81409 0.15321 0.0
H3257 H 0.93252 0.83799 0.18621 0.0
H3258 H 0.95188 0.80106 0.16385 0.0
H3259 H 0.94944 0.82587 0.19645 0.0
H3260 H 0.96829 0.79285 0.21775 0.0
H3261 H 0.95447 0.80805 0.20707 0.0
H3262 H 0.97095 0.79646 0.17089 0.0
H3263 H 0.98384 0.78061 0.18167 0.0
C3264 C 0.93899 0.81667 0.16275 0.0
C3265 C 0.93285 0.82688 0.16896 0.0
C3266 C 0.9482 0.8093 0.16884 0.0
C3267 C 0.95207 0.81219 0.1812 0.0
C3268 C 0.94655 0.82299 0.18711 0.0
C3269 C 0.93696 0.83016 0.18112 0.0
C3270 C 0.96891 0.79363 0.2075 0.0
C3271 C 0.97701 0.78547 0.20051 0.0
C3272 C 0.96104 0.80246 0.20131 0.0
C3273 C 0.96129 0.80356 0.18796 0.0
C3274 C 0.96995 0.79573 0.1811 0.0
C3275 C 0.97752 0.78666 0.18727 0.0
H3276 H 0.18815 0.93302 0.18747 0.0
H3277 H 0.17216 0.91103 0.21834 0.0
H3278 H 0.19955 0.94583 0.20282 0.0
H3279 H 0.18289 0.92403 0.23351 0.0
H3280 H 0.21416 0.93936 0.25746 0.0
H3281 H 0.20319 0.92728 0.24143 0.0
H3282 H 0.19747 0.96159 0.21934 0.0
H3283 H 0.20883 0.97354 0.23543 0.0
C3284 C 0.18705 0.93092 0.1975 0.0
C3285 C 0.17918 0.921 0.20164 0.0
C3286 C 0.19347 0.93836 0.20632 0.0
C3287 C 0.19225 0.93596 0.21947 0.0
C3288 C 0.18431 0.92607 0.22351 0.0
C3289 C 0.17797 0.91869 0.21476 0.0
C3290 C 0.21054 0.94426 0.24916 0.0
C3291 C 0.21227 0.95731 0.24764 0.0
C3292 C 0.20417 0.93739 0.23998 0.0
C3293 C 0.19932 0.94343 0.22904 0.0
C3294 C 0.20115 0.95657 0.22754 0.0
C3295 C 0.20755 0.96344 0.23677 0.0
H3296 H 0.14059 0.88434 0.82058 0.0
H3297 H 0.12571 0.86401 0.85298 0.0
H3298 H 0.12317 0.87723 0.80797 0.0
H3299 H 0.10822 0.85715 0.84099 0.0
H3300 H 0.07999 0.83843 0.81695 0.0
H3301 H 0.09609 0.84733 0.82946 0.0
H3302 H 0.10735 0.87119 0.79752 0.0
H3303 H 0.09151 0.86127 0.78487 0.0
C3304 C 0.13347 0.87841 0.82504 0.0
C3305 C 0.1348 0.87446 0.83771 0.0
C3306 C 0.1233 0.87418 0.81775 0.0
C3307 C 0.114 0.86595 0.82293 0.0
C3308 C 0.11507 0.86284 0.83596 0.0
C3309 C 0.12526 0.86692 0.84311 0.0
C3310 C 0.08607 0.84545 0.81256 0.0
C3311 C 0.08452 0.84896 0.79983 0.0
C3312 C 0.09542 0.85091 0.81991 0.0
C3313 C 0.10356 0.86036 0.81493 0.0
C3314 C 0.10171 0.86401 0.80211 0.0
C3315 C 0.0924 0.85837 0.7947 0.0
H3316 H 0.22647 0.06914 0.85352 0.0
H3317 H 0.21547 0.09428 0.82295 0.0
H3318 H 0.24102 0.05784 0.83923 0.0
H3319 H 0.2303 0.08335 0.80873 0.0
H3320 H 0.25272 0.05758 0.78275 0.0
H3321 H 0.23636 0.06635 0.79674 0.0
H3322 H 0.26035 0.05871 0.82899 0.0
H3323 H 0.27622 0.04892 0.81505 0.0
C3324 C 0.22716 0.07229 0.84373 0.0
C3325 C 0.2198 0.08271 0.83946 0.0
C3326 C 0.23562 0.06584 0.8355 0.0
C3327 C 0.23711 0.06969 0.82273 0.0
C3328 C 0.22941 0.07988 0.81838 0.0
C3329 C 0.22085 0.08622 0.82659 0.0
C3330 C 0.25443 0.0575 0.79285 0.0
C3331 C 0.26588 0.05245 0.79769 0.0
C3332 C 0.24506 0.06278 0.80093 0.0
C3333 C 0.24689 0.06342 0.81413 0.0
C3334 C 0.25835 0.0583 0.81896 0.0
C3335 C 0.26764 0.05284 0.81089 0.0
H3336 H 0.89623 0.17823 0.79678 0.0
H3337 H 0.88665 0.21638 0.80874 0.0
H3338 H 0.91678 0.18519 0.78916 0.0
H3339 H 0.90779 0.22323 0.80192 0.0
H3340 H 0.94178 0.23415 0.77647 0.0
H3341 H 0.92078 0.22768 0.78401 0.0
H3342 H 0.93672 0.19129 0.79531 0.0
H3343 H 0.95749 0.19766 0.78742 0.0
C3344 C 0.8985 0.18814 0.79782 0.0
C3345 C 0.88962 0.19675 0.80323 0.0
C3346 C 0.91046 0.19211 0.79362 0.0
C3347 C 0.91408 0.20481 0.7949 0.0
C3348 C 0.90532 0.21342 0.80057 0.0
C3349 C 0.89323 0.20945 0.80467 0.0
C3350 C 0.94075 0.22477 0.78056 0.0
C3351 C 0.95128 0.21639 0.78125 0.0
C3352 C 0.92871 0.22106 0.78497 0.0
C3353 C 0.92693 0.20892 0.7903 0.0
C3354 C 0.93755 0.2006 0.79103 0.0
C3355 C 0.94952 0.20426 0.78651 0.0
H3356 H 0.82432 0.9632 0.83286 0.0
H3357 H 0.79514 0.93671 0.84381 0.0
H3358 H 0.80898 0.97539 0.82092 0.0
H3359 H 0.77942 0.94983 0.83321 0.0
H3360 H 0.75558 0.96695 0.80191 0.0
H3361 H 0.77093 0.95512 0.81448 0.0
H3362 H 0.79272 0.98925 0.81886 0.0
H3363 H 0.77766 1.00074 0.80549 0.0
C3364 C 0.81463 0.95992 0.83283 0.0
C3365 C 0.81125 0.94859 0.83915 0.0
C3366 C 0.80564 0.96719 0.82612 0.0
C3367 C 0.79277 0.96368 0.82579 0.0
C3368 C 0.78923 0.95277 0.83275 0.0
C3369 C 0.79831 0.94529 0.83917 0.0
C3370 C 0.76365 0.97191 0.80562 0.0
C3371 C 0.76536 0.9848 0.80275 0.0
C3372 C 0.77248 0.96513 0.81297 0.0
C3373 C 0.78322 0.97109 0.81797 0.0
C3374 C 0.78482 0.9841 0.81512 0.0
C3375 C 0.77611 0.99079 0.80749 0.0
H3376 H 0.21085 0.10105 0.2244 0.0
H3377 H 0.23324 0.12438 0.24867 0.0
H3378 H 0.21823 0.08207 0.23587 0.0
H3379 H 0.24068 0.10546 0.26013 0.0
H3380 H 0.25762 0.06555 0.27038 0.0
H3381 H 0.25297 0.08454 0.25764 0.0
H3382 H 0.21296 0.07568 0.25874 0.0
H3383 H 0.21763 0.0567 0.27136 0.0
C3384 C 0.21765 0.10201 0.23195 0.0
C3385 C 0.22153 0.11401 0.23577 0.0
C3386 C 0.22174 0.09125 0.23857 0.0
C3387 C 0.22983 0.09242 0.24897 0.0
C3388 C 0.23444 0.10436 0.25214 0.0
C3389 C 0.23023 0.11513 0.24562 0.0
C3390 C 0.24784 0.06782 0.26801 0.0
C3391 C 0.23796 0.05979 0.27181 0.0
C3392 C 0.24519 0.0786 0.26074 0.0
C3393 C 0.23266 0.08136 0.25707 0.0
C3394 C 0.22274 0.07357 0.26127 0.0
C3395 C 0.22536 0.06287 0.26864 0.0
H3396 H 0.23136 0.9455 0.81532 0.0
H3397 H 0.25208 0.95534 0.8488 0.0
H3398 H 0.24543 0.95824 0.80236 0.0
H3399 H 0.26679 0.96779 0.83557 0.0
H3400 H 0.28093 1.00016 0.80869 0.0
H3401 H 0.26815 0.98703 0.82299 0.0
H3402 H 0.26611 0.95853 0.79384 0.0
H3403 H 0.27863 0.97173 0.77957 0.0
C3404 C 0.23897 0.9504 0.81994 0.0
C3405 C 0.24046 0.94952 0.83315 0.0
C3406 C 0.2472 0.95759 0.81244 0.0
C3407 C 0.25735 0.96402 0.81785 0.0
C3408 C 0.25901 0.96305 0.83108 0.0
C3409 C 0.25068 0.95582 0.83865 0.0
C3410 C 0.27784 0.99103 0.8054 0.0
C3411 C 0.28071 0.98704 0.79294 0.0
C3412 C 0.27054 0.98348 0.81362 0.0
C3413 C 0.26596 0.97174 0.80957 0.0
C3414 C 0.26918 0.96764 0.79722 0.0
C3415 C 0.27639 0.9752 0.78901 0.0
H3416 H 0.09834 0.16428 0.85811 0.0
H3417 H 0.12169 0.16373 0.82415 0.0
H3418 H 0.08208 0.17666 0.847 0.0
H3419 H 0.10544 0.17485 0.81272 0.0
H3420 H 0.07828 0.20085 0.79346 0.0
H3421 H 0.09447 0.19059 0.80586 0.0
H3422 H 0.06603 0.18062 0.83431 0.0
H3423 H 0.05001 0.19192 0.82204 0.0
C3424 C 0.1 0.16683 0.84825 0.0
C3425 C 0.11132 0.16292 0.84202 0.0
C3426 C 0.09053 0.17382 0.84171 0.0
C3427 C 0.09207 0.17705 0.82868 0.0
C3428 C 0.10359 0.17312 0.82268 0.0
C3429 C 0.11302 0.16639 0.82924 0.0
C3430 C 0.07547 0.19642 0.80235 0.0
C3431 C 0.06276 0.19718 0.80663 0.0
C3432 C 0.08485 0.1903 0.80958 0.0
C3433 C 0.08189 0.18426 0.82128 0.0
C3434 C 0.06906 0.18511 0.82556 0.0
C3435 C 0.05971 0.19157 0.81843 0.0
H3436 H 0.79908 0.10727 0.80893 0.0
H3437 H 0.76274 0.1269 0.80859 0.0
H3438 H 0.78926 0.08832 0.801 0.0
H3439 H 0.75293 0.10837 0.79985 0.0
H3440 H 0.73472 0.07067 0.79395 0.0
H3441 H 0.74479 0.08927 0.80228 0.0
H3442 H 0.78094 0.07629 0.78631 0.0
H3443 H 0.77097 0.05721 0.77911 0.0
C3444 C 0.78901 0.10761 0.80691 0.0
C3445 C 0.78171 0.1186 0.80952 0.0
C3446 C 0.78328 0.09668 0.80226 0.0
C3447 C 0.7701 0.09647 0.79976 0.0
C3448 C 0.76296 0.10774 0.80196 0.0
C3449 C 0.76863 0.11854 0.80688 0.0
C3450 C 0.74488 0.0717 0.79244 0.0
C3451 C 0.752 0.06237 0.78585 0.0
C3452 C 0.7507 0.08258 0.79703 0.0
C3453 C 0.76384 0.08465 0.795 0.0
C3454 C 0.77091 0.07522 0.78837 0.0
C3455 C 0.76512 0.06425 0.78399 0.0
H3456 H 0.91658 0.87667 0.81955 0.0
H3457 H 0.93404 0.85982 0.85279 0.0
H3458 H 0.93427 0.86868 0.80663 0.0
H3459 H 0.95097 0.85129 0.83969 0.0
H3460 H 0.97156 0.82534 0.81136 0.0
H3461 H 0.95452 0.83507 0.82395 0.0
H3462 H 0.95723 0.86933 0.80152 0.0
H3463 H 0.97457 0.85966 0.78898 0.0
C3464 C 0.92401 0.87134 0.82429 0.0
C3465 C 0.92322 0.86875 0.83748 0.0
C3466 C 0.93425 0.86667 0.81672 0.0
C3467 C 0.94398 0.85902 0.82198 0.0
C3468 C 0.94349 0.8568 0.83514 0.0
C3469 C 0.93349 0.86169 0.84273 0.0
C3470 C 0.9687 0.835 0.80913 0.0
C3471 C 0.97466 0.84164 0.79908 0.0
C3472 C 0.95883 0.84062 0.8164 0.0
C3473 C 0.95445 0.85308 0.8139 0.0
C3474 C 0.96021 0.85969 0.80372 0.0
C3475 C 0.97018 0.85408 0.79646 0.0
H3476 H 0.83918 0.93693 0.17234 0.0
H3477 H 0.84976 0.916 0.20605 0.0
H3478 H 0.82708 0.95209 0.18549 0.0
H3479 H 0.8385 0.93139 0.21914 0.0
H3480 H 0.80854 0.95423 0.23982 0.0
H3481 H 0.8186 0.93866 0.2257 0.0
H3482 H 0.82964 0.96884 0.19998 0.0
H3483 H 0.81894 0.98424 0.21387 0.0
C3484 C 0.8389 0.93556 0.18254 0.0
C3485 C 0.84553 0.92534 0.18816 0.0
C3486 C 0.83211 0.94432 0.1901 0.0
C3487 C 0.83181 0.94302 0.20343 0.0
C3488 C 0.8383 0.93266 0.20894 0.0
C3489 C 0.84496 0.9239 0.20142 0.0
C3490 C 0.81308 0.95745 0.23111 0.0
C3491 C 0.81292 0.97034 0.22785 0.0
C3492 C 0.81892 0.94858 0.22303 0.0
C3493 C 0.82499 0.95245 0.21166 0.0
C3494 C 0.82486 0.96544 0.20849 0.0
C3495 C 0.81881 0.97428 0.21647 0.0
H3496 H 0.09705 0.80959 0.15895 0.0
H3497 H 0.08792 0.83779 0.18723 0.0
H3498 H 0.08138 0.7959 0.16777 0.0
H3499 H 0.0729 0.82373 0.19707 0.0
H3500 H 0.04374 0.79768 0.21368 0.0
H3501 H 0.05747 0.81252 0.20319 0.0
H3502 H 0.07144 0.78235 0.17844 0.0
H3503 H 0.05717 0.768 0.18871 0.0
C3504 C 0.09161 0.8129 0.16713 0.0
C3505 C 0.09379 0.82491 0.17227 0.0
C3506 C 0.08258 0.8048 0.17251 0.0
C3507 C 0.07549 0.80819 0.18354 0.0
C3508 C 0.07775 0.82035 0.18864 0.0
C3509 C 0.08665 0.82855 0.18306 0.0
C3510 C 0.0498 0.7943 0.20596 0.0
C3511 C 0.04937 0.7816 0.20212 0.0
C3512 C 0.0579 0.80289 0.19983 0.0
C3513 C 0.06615 0.79906 0.18975 0.0
C3514 C 0.06546 0.78624 0.1859 0.0
C3515 C 0.05716 0.77775 0.19189 0.0
H3516 H 0.95676 0.22736 0.19061 0.0
H3517 H 0.92614 0.2269 0.21846 0.0
H3518 H 0.96965 0.23942 0.20511 0.0
H3519 H 0.93918 0.23853 0.23316 0.0
H3520 H 0.95923 0.27415 0.24736 0.0
H3521 H 0.94668 0.26035 0.23389 0.0
H3522 H 0.98062 0.23798 0.22516 0.0
H3523 H 0.99303 0.252 0.23829 0.0
C3524 C 0.95289 0.22969 0.19991 0.0
C3525 C 0.94047 0.2263 0.20342 0.0
C3526 C 0.96027 0.23649 0.20823 0.0
C3527 C 0.95533 0.23999 0.22019 0.0
C3528 C 0.94312 0.23611 0.22391 0.0
C3529 C 0.93574 0.22932 0.21558 0.0
C3530 C 0.96385 0.26623 0.24254 0.0
C3531 C 0.97691 0.26395 0.24372 0.0
C3532 C 0.95676 0.25832 0.23495 0.0
C3533 C 0.96271 0.24808 0.22855 0.0
C3534 C 0.97583 0.24585 0.22989 0.0
C3535 C 0.98289 0.25377 0.23741 0.0
H3536 H 0.16083 0.70638 0.57645 0.0
H3537 H 0.19198 0.68642 0.59462 0.0
H3538 H 0.17581 0.71671 0.56231 0.0
H3539 H 0.20674 0.69558 0.57957 0.0
H3540 H 0.23311 0.7234 0.56036 0.0
H3541 H 0.21791 0.71284 0.57417 0.0
H3542 H 0.18927 0.71681 0.54529 0.0
H3543 H 0.20444 0.72784 0.53173 0.0
C3544 C 0.17084 0.70408 0.57746 0.0
C3545 C 0.17501 0.69556 0.58698 0.0
C3546 C 0.17952 0.70989 0.56908 0.0
C3547 C 0.19271 0.7072 0.56967 0.0
C3548 C 0.1968 0.6983 0.57887 0.0
C3549 C 0.18816 0.69274 0.58744 0.0
C3550 C 0.22358 0.72198 0.55693 0.0
C3551 C 0.22007 0.7266 0.54491 0.0
C3552 C 0.21478 0.71579 0.56487 0.0
C3553 C 0.20216 0.71379 0.56102 0.0
C3554 C 0.19871 0.7183 0.54888 0.0
C3555 C 0.20748 0.72465 0.54101 0.0
H3556 H 0.85208 0.74373 0.61333 0.0
H3557 H 0.81445 0.74104 0.63004 0.0
H3558 H 0.84271 0.75125 0.59339 0.0
H3559 H 0.80511 0.74808 0.61021 0.0
H3560 H 0.79188 0.77029 0.57591 0.0
H3561 H 0.80236 0.76567 0.59604 0.0
H3562 H 0.83025 0.74209 0.57632 0.0
H3563 H 0.81971 0.74686 0.55622 0.0
C3564 C 0.84184 0.74494 0.6128 0.0
C3565 C 0.83399 0.74169 0.62321 0.0
C3566 C 0.83646 0.74908 0.60135 0.0
C3567 C 0.82314 0.75015 0.60015 0.0
C3568 C 0.81539 0.74748 0.61079 0.0
C3569 C 0.82074 0.74335 0.62215 0.0
C3570 C 0.80027 0.76416 0.57596 0.0
C3571 C 0.80501 0.75887 0.56465 0.0
C3572 C 0.80626 0.76147 0.58744 0.0
C3573 C 0.81719 0.75353 0.58781 0.0
C3574 C 0.82198 0.74837 0.57638 0.0
C3575 C 0.81589 0.75096 0.56491 0.0
H3576 H 0.84405 0.31582 0.59432 0.0
H3577 H 0.80758 0.32403 0.61218 0.0
H3578 H 0.8333 0.30543 0.577 0.0
H3579 H 0.79691 0.31501 0.59451 0.0
H3580 H 0.77872 0.28933 0.56675 0.0
H3581 H 0.79025 0.29812 0.58425 0.0
H3582 H 0.82184 0.30632 0.55882 0.0
H3583 H 0.81041 0.29677 0.54147 0.0
C3584 C 0.83376 0.31548 0.59461 0.0
C3585 C 0.82681 0.321 0.60479 0.0
C3586 C 0.8275 0.30966 0.58447 0.0
C3587 C 0.81405 0.30924 0.58408 0.0
C3588 C 0.8072 0.31474 0.59432 0.0
C3589 C 0.81342 0.32028 0.60449 0.0
C3590 C 0.78811 0.29306 0.56488 0.0
C3591 C 0.79356 0.29235 0.55264 0.0
C3592 C 0.7948 0.29824 0.57498 0.0
C3593 C 0.80712 0.30321 0.57319 0.0
C3594 C 0.81254 0.30249 0.56086 0.0
C3595 C 0.80592 0.29705 0.55079 0.0
H3596 H 0.17185 0.33974 0.60661 0.0
H3597 H 0.204 0.35892 0.62199 0.0
H3598 H 0.18558 0.33068 0.58995 0.0
H3599 H 0.2179 0.3493 0.60615 0.0
H3600 H 0.23938 0.34015 0.57085 0.0
H3601 H 0.22473 0.34949 0.58596 0.0
H3602 H 0.201 0.31648 0.58392 0.0
H3603 H 0.21464 0.308 0.56731 0.0
C3604 C 0.1819 0.34188 0.60648 0.0
C3605 C 0.18685 0.35013 0.61547 0.0
C3606 C 0.18984 0.33663 0.59699 0.0
C3607 C 0.20297 0.33927 0.5965 0.0
C3608 C 0.20786 0.34729 0.6058 0.0
C3609 C 0.19989 0.35275 0.61503 0.0
C3610 C 0.23093 0.33492 0.57332 0.0
C3611 C 0.22838 0.32321 0.56764 0.0
C3612 C 0.22256 0.34021 0.58233 0.0
C3613 C 0.21162 0.33375 0.58645 0.0
C3614 C 0.20917 0.32193 0.58097 0.0
C3615 C 0.21729 0.31685 0.57158 0.0
H3616 H 0.19321 0.38981 0.42539 0.0
H3617 H 0.15797 0.37029 0.43262 0.0
H3618 H 0.20444 0.37462 0.4386 0.0
H3619 H 0.16949 0.35459 0.4456 0.0
H3620 H 0.19456 0.33822 0.47889 0.0
H3621 H 0.18138 0.35237 0.46588 0.0
H3622 H 0.21094 0.35259 0.43691 0.0
H3623 H 0.22401 0.33848 0.4498 0.0
C3624 C 0.1878 0.38234 0.42993 0.0
C3625 C 0.17464 0.38137 0.42804 0.0
C3626 C 0.19431 0.37349 0.43735 0.0
C3627 C 0.18789 0.36331 0.44302 0.0
C3628 C 0.17468 0.36236 0.44136 0.0
C3629 C 0.16811 0.37129 0.43388 0.0
C3630 C 0.19814 0.34114 0.46966 0.0
C3631 C 0.21041 0.33736 0.46544 0.0
C3632 C 0.19059 0.34924 0.46222 0.0
C3633 C 0.1952 0.35374 0.45046 0.0
C3634 C 0.20724 0.34953 0.44607 0.0
C3635 C 0.21475 0.34145 0.45346 0.0
H3636 H 0.21103 0.7356 0.37252 0.0
H3637 H 0.24018 0.70626 0.36943 0.0
H3638 H 0.21753 0.74002 0.39377 0.0
H3639 H 0.2458 0.70975 0.39142 0.0
H3640 H 0.26052 0.72633 0.42842 0.0
H3641 H 0.25538 0.72195 0.4064 0.0
H3642 H 0.21622 0.73334 0.41407 0.0
H3643 H 0.22165 0.73836 0.4357 0.0
C3644 C 0.21888 0.73006 0.37631 0.0
C3645 C 0.2251 0.72061 0.36903 0.0
C3646 C 0.22244 0.73241 0.38877 0.0
C3647 C 0.23209 0.72513 0.39461 0.0
C3648 C 0.23839 0.71567 0.38734 0.0
C3649 C 0.23501 0.71351 0.37471 0.0
C3650 C 0.25082 0.72785 0.42533 0.0
C3651 C 0.24151 0.73279 0.43375 0.0
C3652 C 0.24782 0.72528 0.41269 0.0
C3653 C 0.23537 0.72741 0.40821 0.0
C3654 C 0.22602 0.73196 0.41687 0.0
C3655 C 0.22908 0.73475 0.42938 0.0
H3656 H 0.86443 0.69649 0.4146 0.0
H3657 H 0.84484 0.66674 0.43489 0.0
H3658 H 0.85521 0.71211 0.42877 0.0
H3659 H 0.83464 0.68265 0.44863 0.0
H3660 H 0.82453 0.71325 0.47748 0.0
H3661 H 0.83614 0.69718 0.46499 0.0
H3662 H 0.83696 0.72317 0.43299 0.0
H3663 H 0.82618 0.73928 0.44585 0.0
C3664 C 0.85814 0.69325 0.42214 0.0
C3665 C 0.8555 0.68029 0.42363 0.0
C3666 C 0.85262 0.70231 0.43018 0.0
C3667 C 0.84398 0.69879 0.43985 0.0
C3668 C 0.84132 0.68579 0.44141 0.0
C3669 C 0.84703 0.67665 0.4334 0.0
C3670 C 0.82742 0.71546 0.46781 0.0
C3671 C 0.82458 0.72743 0.46256 0.0
C3672 C 0.83393 0.70625 0.46059 0.0
C3673 C 0.83752 0.70874 0.44788 0.0
C3674 C 0.83468 0.72087 0.44277 0.0
C3675 C 0.82841 0.73013 0.45008 0.0
H3676 H 0.85267 0.3326 0.43416 0.0
H3677 H 0.82815 0.36338 0.44715 0.0
H3678 H 0.84223 0.31833 0.44906 0.0
H3679 H 0.81689 0.34892 0.46099 0.0
H3680 H 0.80206 0.32193 0.49059 0.0
H3681 H 0.81577 0.33644 0.47893 0.0
H3682 H 0.82334 0.30748 0.45078 0.0
H3683 H 0.80996 0.29299 0.46262 0.0
C3684 C 0.84512 0.33638 0.44021 0.0
C3685 C 0.84112 0.34915 0.43916 0.0
C3686 C 0.83894 0.32811 0.44863 0.0
C3687 C 0.82845 0.33232 0.45609 0.0
C3688 C 0.82491 0.34523 0.4555 0.0
C3689 C 0.83126 0.35354 0.44731 0.0
C3690 C 0.8067 0.31867 0.48193 0.0
C3691 C 0.80496 0.30626 0.4776 0.0
C3692 C 0.81456 0.32702 0.47519 0.0
C3693 C 0.82078 0.32321 0.46385 0.0
C3694 C 0.81904 0.31074 0.4596 0.0
C3695 C 0.81129 0.30239 0.46639 0.0
H3696 H 0.08971 0.73671 0.6763 0.0
H3697 H 0.0672 0.7079 0.6949 0.0
H3698 H 0.07889 0.75282 0.68869 0.0
H3699 H 0.05734 0.72397 0.70837 0.0
H3700 H 0.03439 0.75705 0.72554 0.0
H3701 H 0.04344 0.74065 0.7117 0.0
H3702 H 0.07804 0.76208 0.70792 0.0
H3703 H 0.06874 0.77856 0.72117 0.0
C3704 C 0.08243 0.73371 0.68298 0.0
C3705 C 0.07948 0.7208 0.68447 0.0
C3706 C 0.07636 0.74306 0.69041 0.0
C3707 C 0.06732 0.73987 0.69987 0.0
C3708 C 0.06416 0.72698 0.70121 0.0
C3709 C 0.07004 0.71764 0.69356 0.0
C3710 C 0.04393 0.75824 0.7217 0.0
C3711 C 0.05074 0.76925 0.72436 0.0
C3712 C 0.04919 0.74876 0.71378 0.0
C3713 C 0.06153 0.74992 0.70842 0.0
C3714 C 0.06839 0.76086 0.71138 0.0
C3715 C 0.06306 0.77038 0.71911 0.0
H3716 H 0.87028 0.64105 0.72525 0.0
H3717 H 0.83103 0.65057 0.71722 0.0
H3718 H 0.86385 0.62113 0.73456 0.0
H3719 H 0.82466 0.63 0.72556 0.0
H3720 H 0.81481 0.59762 0.75217 0.0
H3721 H 0.82146 0.61807 0.74382 0.0
H3722 H 0.85711 0.60095 0.73104 0.0
H3723 H 0.85057 0.58066 0.73995 0.0
C3724 C 0.86024 0.63892 0.72542 0.0
C3725 C 0.85119 0.64766 0.72061 0.0
C3726 C 0.85655 0.62728 0.7306 0.0
C3727 C 0.84369 0.62379 0.73091 0.0
C3728 C 0.83464 0.63236 0.72577 0.0
C3729 C 0.83832 0.64414 0.72075 0.0
C3730 C 0.82407 0.59826 0.74757 0.0
C3731 C 0.83212 0.5875 0.74661 0.0
C3732 C 0.82788 0.61 0.74269 0.0
C3733 C 0.83979 0.61129 0.73654 0.0
C3734 C 0.84793 0.6005 0.73581 0.0
C3735 C 0.84418 0.5888 0.74088 0.0
H3736 H 0.92961 0.32426 0.71135 0.0
H3737 H 0.91867 0.29041 0.69177 0.0
H3738 H 0.94541 0.31184 0.72305 0.0
H3739 H 0.93507 0.2784 0.70233 0.0
H3740 H 0.95759 0.25543 0.73037 0.0
H3741 H 0.94167 0.26818 0.71966 0.0
H3742 H 0.96463 0.30143 0.7242 0.0
H3743 H 0.98042 0.28859 0.73532 0.0
C3744 C 0.93055 0.3142 0.70946 0.0
C3745 C 0.92276 0.3085 0.70042 0.0
C3746 C 0.93984 0.30704 0.71607 0.0
C3747 C 0.94175 0.29392 0.71381 0.0
C3748 C 0.93394 0.28832 0.70473 0.0
C3749 C 0.92457 0.29538 0.69835 0.0
C3750 C 0.95936 0.26544 0.72901 0.0
C3751 C 0.97044 0.27086 0.73378 0.0
C3752 C 0.95014 0.27287 0.72275 0.0
C3753 C 0.95166 0.28604 0.72082 0.0
C3754 C 0.9628 0.29145 0.72558 0.0
C3755 C 0.97198 0.28401 0.73198 0.0
H3756 H 0.18294 0.42369 0.71516 0.0
H3757 H 0.14658 0.44344 0.71408 0.0
H3758 H 0.19198 0.44153 0.72619 0.0
H3759 H 0.15525 0.46079 0.72595 0.0
H3760 H 0.17714 0.49533 0.73774 0.0
H3761 H 0.16826 0.47807 0.72563 0.0
H3762 H 0.19226 0.4512 0.74587 0.0
H3763 H 0.20164 0.46868 0.75729 0.0
C3764 C 0.17689 0.43187 0.71721 0.0
C3765 C 0.16401 0.43209 0.7138 0.0
C3766 C 0.182 0.44202 0.72376 0.0
C3767 C 0.17433 0.4526 0.72717 0.0
C3768 C 0.16153 0.45292 0.72344 0.0
C3769 C 0.15648 0.44286 0.71676 0.0
C3770 C 0.18042 0.48569 0.73956 0.0
C3771 C 0.19007 0.48324 0.74831 0.0
C3772 C 0.17532 0.47577 0.73269 0.0
C3773 C 0.17959 0.46317 0.73465 0.0
C3774 C 0.18898 0.46077 0.7438 0.0
C3775 C 0.19426 0.47073 0.75046 0.0
H3776 H 0.07641 0.39771 0.32966 0.0
H3777 H 0.08731 0.36534 0.35266 0.0
H3778 H 0.06307 0.38397 0.31681 0.0
H3779 H 0.07428 0.35178 0.33995 0.0
H3780 H 0.04155 0.3323 0.32452 0.0
H3781 H 0.05123 0.34912 0.33658 0.0
H3782 H 0.0663 0.36537 0.30183 0.0
H3783 H 0.05654 0.34852 0.28973 0.0
C3784 C 0.07591 0.3877 0.33196 0.0
C3785 C 0.08259 0.38259 0.34229 0.0
C3786 C 0.06833 0.37988 0.32465 0.0
C3787 C 0.06745 0.36691 0.32762 0.0
C3788 C 0.07444 0.36183 0.33773 0.0
C3789 C 0.08191 0.36958 0.34499 0.0
C3790 C 0.04679 0.33957 0.31947 0.0
C3791 C 0.04851 0.33906 0.30627 0.0
C3792 C 0.05229 0.34917 0.32633 0.0
C3793 C 0.05965 0.35838 0.32011 0.0
C3794 C 0.06062 0.3584 0.30682 0.0
C3795 C 0.05507 0.34877 0.29993 0.0
H3796 H 0.26061 0.64117 0.26863 0.0
H3797 H 0.22169 0.62979 0.26373 0.0
H3798 H 0.26816 0.62115 0.25962 0.0
H3799 H 0.22932 0.60982 0.2544 0.0
H3800 H 0.24973 0.57876 0.23005 0.0
H3801 H 0.24233 0.6 0.23594 0.0
H3802 H 0.26672 0.59883 0.26849 0.0
H3803 H 0.27362 0.57743 0.26315 0.0
C3804 C 0.25365 0.63444 0.26554 0.0
C3805 C 0.24053 0.63699 0.26716 0.0
C3806 C 0.25799 0.62299 0.26035 0.0
C3807 C 0.24933 0.61386 0.25651 0.0
C3808 C 0.23621 0.61671 0.25728 0.0
C3809 C 0.23185 0.62817 0.26259 0.0
C3810 C 0.25345 0.58293 0.23855 0.0
C3811 C 0.2623 0.57623 0.24611 0.0
C3812 C 0.24924 0.59515 0.24185 0.0
C3813 C 0.25399 0.60108 0.25263 0.0
C3814 C 0.26304 0.59456 0.26001 0.0
C3815 C 0.26706 0.58228 0.25687 0.0
H3816 H 0.94266 0.67137 0.33353 0.0
H3817 H 0.92765 0.65034 0.30227 0.0
H3818 H 0.95628 0.68301 0.3187 0.0
H3819 H 0.94184 0.66107 0.2877 0.0
H3820 H 0.95759 0.69184 0.26217 0.0
H3821 H 0.94474 0.67969 0.27716 0.0
H3822 H 0.97402 0.68318 0.30533 0.0
H3823 H 0.98637 0.6961 0.29041 0.0
C3824 C 0.94231 0.66917 0.32352 0.0
C3825 C 0.93404 0.65987 0.31915 0.0
C3826 C 0.95028 0.67571 0.31499 0.0
C3827 C 0.95021 0.67309 0.30188 0.0
C3828 C 0.94206 0.66364 0.29762 0.0
C3829 C 0.93403 0.65726 0.30608 0.0
C3830 C 0.96124 0.6899 0.27156 0.0
C3831 C 0.97289 0.69487 0.2752 0.0
C3832 C 0.95394 0.68286 0.28018 0.0
C3833 C 0.95826 0.68037 0.29259 0.0
C3834 C 0.97018 0.68508 0.29602 0.0
C3835 C 0.97735 0.69237 0.28746 0.0
H3836 H 0.82085 0.4311 0.35428 0.0
H3837 H 0.85116 0.45316 0.33753 0.0
H3838 H 0.8053 0.44468 0.34388 0.0
H3839 H 0.83577 0.46563 0.32593 0.0
H3840 H 0.8056 0.49174 0.31039 0.0
H3841 H 0.82039 0.48079 0.32443 0.0
H3842 H 0.7962 0.44796 0.32471 0.0
H3843 H 0.78122 0.45925 0.31127 0.0
C3844 C 0.82427 0.43883 0.34843 0.0
C3845 C 0.83741 0.44074 0.34662 0.0
C3846 C 0.81529 0.44651 0.34219 0.0
C3847 C 0.81914 0.45615 0.3337 0.0
C3848 C 0.83226 0.45841 0.33236 0.0
C3849 C 0.8412 0.45098 0.33887 0.0
C3850 C 0.80347 0.48219 0.31353 0.0
C3851 C 0.79224 0.47637 0.30975 0.0
C3852 C 0.81199 0.47583 0.32156 0.0
C3853 C 0.80964 0.46336 0.32582 0.0
C3854 C 0.79833 0.45761 0.32199 0.0
C3855 C 0.78972 0.46406 0.31416 0.0
H3856 H 0.17351 0.60838 0.6819 0.0
H3857 H 0.13612 0.59692 0.69467 0.0
H3858 H 0.1831 0.59285 0.6957 0.0
H3859 H 0.14574 0.58252 0.7098 0.0
H3860 H 0.16547 0.55135 0.7322 0.0
H3861 H 0.15558 0.5648 0.7161 0.0
H3862 H 0.18928 0.58795 0.71499 0.0
H3863 H 0.19932 0.57371 0.73011 0.0
C3864 C 0.16725 0.60256 0.68762 0.0
C3865 C 0.15393 0.6041 0.68703 0.0
C3866 C 0.17284 0.59375 0.69592 0.0
C3867 C 0.16537 0.5864 0.70432 0.0
C3868 C 0.15201 0.58778 0.70356 0.0
C3869 C 0.1464 0.59634 0.69496 0.0
C3870 C 0.17072 0.55926 0.72832 0.0
C3871 C 0.18318 0.56143 0.73224 0.0
C3872 C 0.16503 0.56713 0.71914 0.0
C3873 C 0.17151 0.57765 0.71394 0.0
C3874 C 0.18396 0.57983 0.71822 0.0
C3875 C 0.18975 0.57173 0.72706 0.0
H3876 H 0.17473 0.44996 0.30592 0.0
H3877 H 0.1929 0.46681 0.33801 0.0
H3878 H 0.19152 0.45765 0.29194 0.0
H3879 H 0.20977 0.4747 0.32391 0.0
H3880 H 0.24459 0.47329 0.29653 0.0
H3881 H 0.22763 0.46675 0.31103 0.0
H3882 H 0.19969 0.47696 0.28292 0.0
H3883 H 0.21657 0.48368 0.2685 0.0
C3884 C 0.18222 0.4555 0.30996 0.0
C3885 C 0.18243 0.45786 0.32306 0.0
C3886 C 0.19186 0.45992 0.30193 0.0
C3887 C 0.20197 0.46685 0.30678 0.0
C3888 C 0.20219 0.46926 0.31989 0.0
C3889 C 0.19253 0.46478 0.32797 0.0
C3890 C 0.23483 0.47425 0.29346 0.0
C3891 C 0.23199 0.47894 0.28127 0.0
C3892 C 0.2251 0.47052 0.3018 0.0
C3893 C 0.2123 0.4713 0.29814 0.0
C3894 C 0.20946 0.47603 0.28598 0.0
C3895 C 0.21917 0.47983 0.27767 0.0
H3896 H 0.14452 0.71924 0.24747 0.0
H3897 H 0.1322 0.72296 0.28661 0.0
H3898 H 0.12332 0.72559 0.24054 0.0
H3899 H 0.111 0.72959 0.27961 0.0
H3900 H 0.07665 0.74967 0.26097 0.0
H3901 H 0.09871 0.74649 0.2674 0.0
H3902 H 0.10244 0.71448 0.24221 0.0
H3903 H 0.08034 0.71734 0.23607 0.0
C3904 C 0.13731 0.72149 0.2546 0.0
C3905 C 0.13999 0.72035 0.2676 0.0
C3906 C 0.12518 0.72515 0.25062 0.0
C3907 C 0.11549 0.7279 0.25954 0.0
C3908 C 0.11833 0.72755 0.27253 0.0
C3909 C 0.13047 0.72378 0.27653 0.0
C3910 C 0.08215 0.74191 0.25685 0.0
C3911 C 0.07668 0.73373 0.24803 0.0
C3912 C 0.09478 0.74013 0.26051 0.0
C3913 C 0.10227 0.73026 0.25529 0.0
C3914 C 0.09693 0.72229 0.24625 0.0
C3915 C 0.08427 0.72397 0.2427 0.0
H3916 H 0.84848 0.55985 0.33736 0.0
H3917 H 0.82518 0.59367 0.33344 0.0
H3918 H 0.83274 0.54777 0.32567 0.0
H3919 H 0.80918 0.58169 0.32242 0.0
H3920 H 0.7892 0.56037 0.29178 0.0
H3921 H 0.80534 0.5719 0.30302 0.0
H3922 H 0.81175 0.53934 0.32744 0.0
H3923 H 0.79582 0.52767 0.31578 0.0
C3924 C 0.84 0.56466 0.33392 0.0
C3925 C 0.83805 0.57767 0.33604 0.0
C3926 C 0.83092 0.55776 0.32738 0.0
C3927 C 0.81967 0.56375 0.32306 0.0
C3928 C 0.81782 0.5768 0.32532 0.0
C3929 C 0.82695 0.58367 0.33165 0.0
C3930 C 0.79411 0.55569 0.29952 0.0
C3931 C 0.79133 0.54315 0.3029 0.0
C3932 C 0.80328 0.56232 0.30606 0.0
C3933 C 0.80989 0.55657 0.31616 0.0
C3934 C 0.80698 0.54402 0.31962 0.0
C3935 C 0.79776 0.53738 0.31306 0.0
H3936 H 0.93882 0.36669 0.3326 0.0
H3937 H 0.94185 0.33567 0.35949 0.0
H3938 H 0.95385 0.35585 0.31859 0.0
H3939 H 0.95801 0.32574 0.34645 0.0
H3940 H 0.97786 0.30278 0.31658 0.0
H3941 H 0.96243 0.31387 0.32985 0.0
H3942 H 0.97331 0.34949 0.31238 0.0
H3943 H 0.98807 0.33801 0.29844 0.0
C3944 C 0.94275 0.35762 0.33563 0.0
C3945 C 0.93895 0.35212 0.34726 0.0
C3946 C 0.95165 0.35144 0.32763 0.0
C3947 C 0.95727 0.3397 0.33114 0.0
C3948 C 0.95375 0.33449 0.34301 0.0
C3949 C 0.94461 0.34045 0.35078 0.0
C3950 C 0.97689 0.31299 0.31558 0.0
C3951 C 0.98417 0.31952 0.30648 0.0
C3952 C 0.96809 0.31947 0.32334 0.0
C3953 C 0.96653 0.33277 0.3225 0.0
C3954 C 0.97391 0.33928 0.31332 0.0
C3955 C 0.98249 0.33271 0.30532 0.0
H3956 H 0.86145 0.42469 0.70816 0.0
H3957 H 0.82288 0.41159 0.70703 0.0
H3958 H 0.85475 0.44252 0.72045 0.0
H3959 H 0.81577 0.42956 0.71927 0.0
H3960 H 0.80318 0.4637 0.74203 0.0
H3961 H 0.80973 0.44566 0.72957 0.0
H3962 H 0.84909 0.45722 0.73261 0.0
H3963 H 0.8421 0.47514 0.74494 0.0
C3964 C 0.85144 0.42559 0.71063 0.0
C3965 C 0.8428 0.41645 0.70661 0.0
C3966 C 0.84741 0.43608 0.71785 0.0
C3967 C 0.83448 0.43805 0.72144 0.0
C3968 C 0.82581 0.42892 0.71708 0.0
C3969 C 0.82988 0.4184 0.70982 0.0
C3970 C 0.81324 0.46228 0.73994 0.0
C3971 C 0.82209 0.47085 0.74451 0.0
C3972 C 0.81717 0.45175 0.73268 0.0
C3973 C 0.83018 0.44939 0.72955 0.0
C3974 C 0.83899 0.45816 0.73435 0.0
C3975 C 0.83502 0.46862 0.74168 0.0
H3976 H 0.08904 0.30951 0.68509 0.0
H3977 H 0.08463 0.33521 0.71669 0.0
H3978 H 0.07346 0.29567 0.69457 0.0
H3979 H 0.06979 0.32068 0.72684 0.0
H3980 H 0.03583 0.29712 0.73817 0.0
H3981 H 0.04957 0.31217 0.72715 0.0
H3982 H 0.07072 0.28084 0.71019 0.0
H3983 H 0.05657 0.266 0.7207 0.0
C3984 C 0.08471 0.31227 0.69407 0.0
C3985 C 0.08806 0.32362 0.70002 0.0
C3986 C 0.0759 0.30414 0.69967 0.0
C3987 C 0.07034 0.30691 0.71158 0.0
C3988 C 0.07369 0.31825 0.71758 0.0
C3989 C 0.08239 0.32653 0.71185 0.0
C3990 C 0.04335 0.29353 0.73196 0.0
C3991 C 0.04511 0.28041 0.73024 0.0
C3992 C 0.05132 0.30213 0.72572 0.0
C3993 C 0.06138 0.29781 0.71778 0.0
C3994 C 0.06297 0.28464 0.71598 0.0
C3995 C 0.05487 0.27607 0.72204 0.0
H3996 H 0.9182 0.77628 0.71204 0.0
H3997 H 0.93613 0.73966 0.71819 0.0
H3998 H 0.93642 0.7866 0.72103 0.0
H3999 H 0.95474 0.74995 0.72669 0.0
H4000 H 0.98127 0.77118 0.75212 0.0
H4001 H 0.963 0.76076 0.7435 0.0
H4002 H 0.95732 0.79217 0.71744 0.0
H4003 H 0.97489 0.80312 0.72693 0.0
C4004 C 0.92611 0.77044 0.71528 0.0
C4005 C 0.92574 0.75716 0.71441 0.0
C4006 C 0.93665 0.77636 0.72033 0.0
C4007 C 0.94721 0.76918 0.72452 0.0
C4008 C 0.94676 0.75584 0.72377 0.0
C4009 C 0.93609 0.74991 0.71888 0.0
C4010 C 0.97599 0.77599 0.74471 0.0
C4011 C 0.9795 0.7881 0.74037 0.0
C4012 C 0.9656 0.76988 0.73957 0.0
C4013 C 0.95854 0.77558 0.72976 0.0
C4014 C 0.96229 0.78755 0.72517 0.0
C4015 C 0.97255 0.79377 0.73047 0.0
H4016 H 0.71091 0.20665 0.61278 0.0
H4017 H 0.67558 0.22194 0.59819 0.0
H4018 H 0.72274 0.21851 0.59705 0.0
H4019 H 0.68755 0.23476 0.58292 0.0
H4020 H 0.71222 0.24346 0.54763 0.0
H4021 H 0.69941 0.23334 0.5641 0.0
H4022 H 0.73 0.23789 0.59064 0.0
H4023 H 0.74296 0.24742 0.5739 0.0
C4024 C 0.70565 0.21261 0.60621 0.0
C4025 C 0.69227 0.21313 0.60661 0.0
C4026 C 0.71248 0.21965 0.5973 0.0
C4027 C 0.70617 0.22768 0.58864 0.0
C4028 C 0.69276 0.22854 0.58928 0.0
C4029 C 0.68589 0.22131 0.59815 0.0
C4030 C 0.71612 0.24238 0.55704 0.0
C4031 C 0.72858 0.2462 0.55952 0.0
C4032 C 0.70875 0.23663 0.56653 0.0
C4033 C 0.71362 0.23469 0.57876 0.0
C4034 C 0.72598 0.23891 0.58128 0.0
C4035 C 0.73342 0.24446 0.57173 0.0
H4036 H 0.3518 0.24908 0.5819 0.0
H4037 H 0.32032 0.2293 0.59935 0.0
H4038 H 0.33715 0.26026 0.56804 0.0
H4039 H 0.30587 0.23935 0.58463 0.0
H4040 H 0.28004 0.26792 0.56571 0.0
H4041 H 0.29495 0.25725 0.57982 0.0
H4042 H 0.32451 0.26012 0.55083 0.0
H4043 H 0.30967 0.27174 0.5373 0.0
C4044 C 0.34176 0.24704 0.58274 0.0
C4045 C 0.3373 0.23829 0.59183 0.0
C4046 C 0.33332 0.25331 0.57459 0.0
C4047 C 0.32018 0.25082 0.57511 0.0
C4048 C 0.3158 0.24183 0.58403 0.0
C4049 C 0.3242 0.2358 0.59236 0.0
C4050 C 0.28977 0.26627 0.56247 0.0
C4051 C 0.29378 0.27064 0.55052 0.0
C4052 C 0.29834 0.26002 0.57048 0.0
C4053 C 0.31106 0.25765 0.56655 0.0
C4054 C 0.31494 0.26194 0.55441 0.0
C4055 C 0.30643 0.26851 0.54656 0.0
H4056 H 0.30241 0.81129 0.61046 0.0
H4057 H 0.33912 0.80382 0.59277 0.0
H4058 H 0.29205 0.80147 0.59299 0.0
H4059 H 0.32874 0.79271 0.57568 0.0
H4060 H 0.30606 0.78357 0.54019 0.0
H4061 H 0.31717 0.79359 0.55748 0.0
H4062 H 0.28621 0.78389 0.58312 0.0
H4063 H 0.27494 0.77463 0.56564 0.0
C4064 C 0.30836 0.80751 0.60285 0.0
C4065 C 0.32169 0.80867 0.60309 0.0
C4066 C 0.30235 0.80154 0.59282 0.0
C4067 C 0.3094 0.79609 0.5827 0.0
C4068 C 0.32282 0.79691 0.58307 0.0
C4069 C 0.32885 0.80314 0.59306 0.0
C4070 C 0.30165 0.78362 0.54955 0.0
C4071 C 0.28955 0.77835 0.5515 0.0
C4072 C 0.30808 0.78932 0.55956 0.0
C4073 C 0.30271 0.78974 0.57192 0.0
C4074 C 0.29066 0.78421 0.57381 0.0
C4075 C 0.28414 0.77877 0.56375 0.0
H4076 H 0.69817 0.84723 0.57434 0.0
H4077 H 0.68795 0.80983 0.58756 0.0
H4078 H 0.71411 0.83791 0.56008 0.0
H4079 H 0.70381 0.8005 0.57307 0.0
H4080 H 0.72601 0.78744 0.53774 0.0
H4081 H 0.70933 0.79698 0.551 0.0
H4082 H 0.73463 0.82707 0.56087 0.0
H4083 H 0.75142 0.81744 0.54766 0.0
C4084 C 0.69931 0.837 0.57426 0.0
C4085 C 0.69181 0.82933 0.58233 0.0
C4086 C 0.7085 0.83165 0.56604 0.0
C4087 C 0.71039 0.81844 0.56549 0.0
C4088 C 0.70257 0.81071 0.57316 0.0
C4089 C 0.69342 0.81608 0.58147 0.0
C4090 C 0.72811 0.79602 0.54283 0.0
C4091 C 0.74017 0.80156 0.54169 0.0
C4092 C 0.71849 0.80151 0.55045 0.0
C4093 C 0.7206 0.81277 0.5571 0.0
C4094 C 0.73258 0.81847 0.55578 0.0
C4095 C 0.74224 0.81294 0.54819 0.0
H4096 H 0.72776 0.86164 0.42443 0.0
H4097 H 0.69133 0.84821 0.43787 0.0
H4098 H 0.73855 0.84676 0.43828 0.0
H4099 H 0.7023 0.83264 0.45152 0.0
H4100 H 0.72857 0.81578 0.48364 0.0
H4101 H 0.71573 0.83013 0.47033 0.0
H4102 H 0.74279 0.82476 0.43943 0.0
H4103 H 0.75562 0.81087 0.45275 0.0
C4104 C 0.72202 0.85553 0.43041 0.0
C4105 C 0.70865 0.85624 0.43008 0.0
C4106 C 0.72824 0.84681 0.43824 0.0
C4107 C 0.72133 0.83834 0.44593 0.0
C4108 C 0.70793 0.83905 0.44575 0.0
C4109 C 0.70164 0.84787 0.43784 0.0
C4110 C 0.73168 0.81766 0.47397 0.0
C4111 C 0.74322 0.81242 0.4693 0.0
C4112 C 0.72431 0.82583 0.46633 0.0
C4113 C 0.72833 0.82881 0.45386 0.0
C4114 C 0.73958 0.82302 0.44909 0.0
C4115 C 0.74694 0.81502 0.45671 0.0
H4116 H 0.69991 0.17795 0.41253 0.0
H4117 H 0.68747 0.21492 0.39933 0.0
H4118 H 0.71291 0.18805 0.42861 0.0
H4119 H 0.69959 0.22487 0.41563 0.0
H4120 H 0.73055 0.24145 0.43821 0.0
H4121 H 0.71969 0.23011 0.42175 0.0
H4122 H 0.71232 0.19939 0.44808 0.0
H4123 H 0.7236 0.2107 0.46451 0.0
C4124 C 0.69995 0.18821 0.41303 0.0
C4125 C 0.69249 0.1956 0.40469 0.0
C4126 C 0.70729 0.19402 0.42236 0.0
C4127 C 0.70738 0.20735 0.42352 0.0
C4128 C 0.70003 0.21463 0.41501 0.0
C4129 C 0.69285 0.20888 0.40572 0.0
C4130 C 0.72657 0.2323 0.44053 0.0
C4131 C 0.72789 0.22707 0.45274 0.0
C4132 C 0.72028 0.22576 0.43106 0.0
C4133 C 0.71491 0.21382 0.43352 0.0
C4134 C 0.71641 0.20847 0.44571 0.0
C4135 C 0.72285 0.21499 0.45518 0.0
H4136 H 0.33286 0.22478 0.43243 0.0
H4137 H 0.30693 0.19674 0.44718 0.0
H4138 H 0.32529 0.2397 0.44816 0.0
H4139 H 0.29827 0.2122 0.4621 0.0
H4140 H 0.28818 0.23953 0.49298 0.0
H4141 H 0.29947 0.22382 0.47999 0.0
H4142 H 0.30947 0.2534 0.45308 0.0
H4143 H 0.299 0.26902 0.46665 0.0
C4144 C 0.32553 0.22173 0.43905 0.0
C4145 C 0.32058 0.20942 0.43848 0.0
C4146 C 0.32096 0.23047 0.44799 0.0
C4147 C 0.31097 0.22738 0.45645 0.0
C4148 C 0.30607 0.21502 0.45594 0.0
C4149 C 0.31087 0.20615 0.44716 0.0
C4150 C 0.29302 0.2426 0.48437 0.0
C4151 C 0.29276 0.25544 0.48079 0.0
C4152 C 0.29938 0.23359 0.4768 0.0
C4153 C 0.30532 0.23715 0.46526 0.0
C4154 C 0.30528 0.25015 0.46193 0.0
C4155 C 0.2992 0.25918 0.46968 0.0
H4156 H 0.36224 0.83276 0.45832 0.0
H4157 H 0.32991 0.8582 0.45393 0.0
H4158 H 0.34855 0.81738 0.46879 0.0
H4159 H 0.31658 0.84358 0.46538 0.0
H4160 H 0.29146 0.81033 0.47344 0.0
H4161 H 0.30553 0.8258 0.46399 0.0
H4162 H 0.33689 0.81003 0.48554 0.0
H4163 H 0.32275 0.79398 0.4943 0.0
C4164 C 0.35225 0.83515 0.45967 0.0
C4165 C 0.34727 0.8468 0.45519 0.0
C4166 C 0.34436 0.82636 0.4659 0.0
C4167 C 0.33125 0.82901 0.46794 0.0
C4168 C 0.32645 0.84086 0.46378 0.0
C4169 C 0.33425 0.84948 0.45739 0.0
C4170 C 0.30134 0.81025 0.47624 0.0
C4171 C 0.30597 0.80095 0.48466 0.0
C4172 C 0.30949 0.81923 0.47086 0.0
C4173 C 0.32252 0.81941 0.47395 0.0
C4174 C 0.32706 0.81019 0.48263 0.0
C4175 C 0.31892 0.80101 0.48779 0.0
H4176 H 0.60796 0.25066 0.68495 0.0
H4177 H 0.5866 0.21864 0.69858 0.0
H4178 H 0.59273 0.26495 0.6944 0.0
H4179 H 0.57186 0.23296 0.70963 0.0
H4180 H 0.54038 0.26129 0.7197 0.0
H4181 H 0.5555 0.24631 0.71028 0.0
H4182 H 0.584 0.27561 0.70951 0.0
H4183 H 0.56855 0.29051 0.71777 0.0
C4184 C 0.59999 0.24667 0.69016 0.0
C4185 C 0.59834 0.23352 0.69074 0.0
C4186 C 0.59126 0.25495 0.69593 0.0
C4187 C 0.58076 0.25038 0.70298 0.0
C4188 C 0.57949 0.23708 0.70409 0.0
C4189 C 0.58812 0.22876 0.69794 0.0
C4190 C 0.54987 0.26447 0.71729 0.0
C4191 C 0.5532 0.27714 0.71925 0.0
C4192 C 0.55869 0.25581 0.71201 0.0
C4193 C 0.57122 0.25951 0.70886 0.0
C4194 C 0.57448 0.27221 0.71117 0.0
C4195 C 0.56557 0.28089 0.71606 0.0
H4196 H 0.36687 0.14468 0.70147 0.0
H4197 H 0.36557 0.12359 0.66651 0.0
H4198 H 0.36003 0.126 0.71324 0.0
H4199 H 0.358 0.10516 0.6782 0.0
H4200 H 0.35503 0.07047 0.70435 0.0
H4201 H 0.36385 0.0887 0.69289 0.0
H4202 H 0.34126 0.11401 0.71665 0.0
H4203 H 0.33264 0.09578 0.72807 0.0
C4204 C 0.36523 0.13605 0.69628 0.0
C4205 C 0.36679 0.13572 0.683 0.0
C4206 C 0.3611 0.12537 0.70302 0.0
C4207 C 0.35835 0.11405 0.69669 0.0
C4208 C 0.36013 0.11364 0.68344 0.0
C4209 C 0.36433 0.1243 0.6767 0.0
C4210 C 0.35208 0.07996 0.70714 0.0
C4211 C 0.34319 0.08177 0.71707 0.0
C4212 C 0.35703 0.0904 0.70053 0.0
C4213 C 0.3533 0.10288 0.70383 0.0
C4214 C 0.3445 0.1046 0.71392 0.0
C4215 C 0.33947 0.09417 0.72041 0.0
H4216 H 0.42668 0.81127 0.70195 0.0
H4217 H 0.41387 0.77621 0.68578 0.0
H4218 H 0.44424 0.79969 0.71183 0.0
H4219 H 0.4316 0.76497 0.69513 0.0
H4220 H 0.4717 0.75001 0.70244 0.0
H4221 H 0.454 0.76201 0.69341 0.0
H4222 H 0.45067 0.78425 0.72759 0.0
H4223 H 0.46847 0.77222 0.73663 0.0
C4224 C 0.42745 0.80114 0.70046 0.0
C4225 C 0.41872 0.79491 0.69269 0.0
C4226 C 0.43765 0.79446 0.70615 0.0
C4227 C 0.43959 0.78135 0.70416 0.0
C4228 C 0.43074 0.77509 0.69665 0.0
C4229 C 0.42048 0.78168 0.69115 0.0
C4230 C 0.46716 0.75738 0.70811 0.0
C4231 C 0.47162 0.76006 0.72032 0.0
C4232 C 0.45694 0.76431 0.70291 0.0
C4233 C 0.45074 0.77416 0.70973 0.0
C4234 C 0.45524 0.7769 0.72192 0.0
C4235 C 0.4655 0.76996 0.72713 0.0
H4236 H 0.6699 0.92519 0.66484 0.0
H4237 H 0.65353 0.90787 0.69831 0.0
H4238 H 0.67798 0.94228 0.67772 0.0
H4239 H 0.66223 0.92422 0.71136 0.0
H4240 H 0.67231 0.95823 0.73342 0.0
H4241 H 0.66225 0.94359 0.71935 0.0
H4242 H 0.69205 0.94976 0.69126 0.0
H4243 H 0.70116 0.96548 0.70476 0.0
C4244 C 0.66817 0.92497 0.67499 0.0
C4245 C 0.66101 0.91519 0.68051 0.0
C4246 C 0.67288 0.93477 0.68249 0.0
C4247 C 0.67087 0.93489 0.6958 0.0
C4248 C 0.6638 0.92492 0.70122 0.0
C4249 C 0.65886 0.91535 0.69371 0.0
C4250 C 0.67659 0.9567 0.72413 0.0
C4251 C 0.68772 0.96305 0.72041 0.0
C4252 C 0.67092 0.948 0.71605 0.0
C4253 C 0.67636 0.94504 0.70406 0.0
C4254 C 0.68736 0.95164 0.70027 0.0
C4255 C 0.69283 0.96057 0.70822 0.0
H4256 H 0.62055 0.84011 0.35008 0.0
H4257 H 0.60368 0.87519 0.33655 0.0
H4258 H 0.60465 0.82816 0.33904 0.0
H4259 H 0.58736 0.86316 0.32562 0.0
H4260 H 0.56794 0.83552 0.29797 0.0
H4261 H 0.58351 0.84864 0.30834 0.0
H4262 H 0.58265 0.82362 0.34097 0.0
H4263 H 0.56705 0.81065 0.33074 0.0
C4264 C 0.61334 0.84528 0.34479 0.0
C4265 C 0.61328 0.85859 0.34431 0.0
C4266 C 0.60417 0.83842 0.3385 0.0
C4267 C 0.59455 0.84467 0.3316 0.0
C4268 C 0.59466 0.85803 0.3308 0.0
C4269 C 0.60397 0.86492 0.33706 0.0
C4270 C 0.57094 0.83289 0.30743 0.0
C4271 C 0.56626 0.8219 0.31344 0.0
C4272 C 0.5799 0.84044 0.31337 0.0
C4273 C 0.58447 0.83714 0.32545 0.0
C4274 C 0.57959 0.82631 0.33154 0.0
C4275 C 0.57062 0.81882 0.32564 0.0
H4276 H 0.68638 0.09294 0.30994 0.0
H4277 H 0.72025 0.11107 0.32308 0.0
H4278 H 0.69968 0.07551 0.30123 0.0
H4279 H 0.73331 0.09369 0.31473 0.0
H4280 H 0.7506 0.05421 0.31305 0.0
H4281 H 0.73526 0.06995 0.321 0.0
H4282 H 0.71818 0.07251 0.28409 0.0
H4283 H 0.73385 0.05723 0.27587 0.0
C4284 C 0.69662 0.09327 0.31084 0.0
C4285 C 0.70226 0.10325 0.31738 0.0
C4286 C 0.7042 0.0833 0.30594 0.0
C4287 C 0.71746 0.08316 0.3076 0.0
C4288 C 0.72308 0.0934 0.31363 0.0
C4289 C 0.71559 0.10335 0.31838 0.0
C4290 C 0.7436 0.0581 0.30659 0.0
C4291 C 0.74361 0.05453 0.29376 0.0
C4292 C 0.73477 0.06706 0.31118 0.0
C4293 C 0.72563 0.07249 0.30311 0.0
C4294 C 0.7251 0.0684 0.29051 0.0
C4295 C 0.73406 0.05958 0.28584 0.0
H4296 H 0.39676 0.209 0.34015 0.0
H4297 H 0.41316 0.17234 0.33057 0.0
H4298 H 0.4122 0.21911 0.32614 0.0
H4299 H 0.42754 0.18227 0.31564 0.0
H4300 H 0.45942 0.20369 0.29624 0.0
H4301 H 0.44536 0.19383 0.31185 0.0
H4302 H 0.41691 0.22318 0.30507 0.0
H4303 H 0.43123 0.23322 0.28986 0.0
C4304 C 0.40362 0.20305 0.33512 0.0
C4305 C 0.40341 0.18976 0.33645 0.0
C4306 C 0.41238 0.20887 0.32682 0.0
C4307 C 0.42109 0.20158 0.31944 0.0
C4308 C 0.42114 0.18833 0.32112 0.0
C4309 C 0.41261 0.18256 0.32959 0.0
C4310 C 0.45013 0.20799 0.29806 0.0
C4311 C 0.44649 0.21929 0.29184 0.0
C4312 C 0.44199 0.20231 0.30702 0.0
C4313 C 0.4299 0.20768 0.30992 0.0
C4314 C 0.42622 0.21888 0.30346 0.0
C4315 C 0.43442 0.22463 0.29463 0.0
H4316 H 0.3265 0.93104 0.37991 0.0
H4317 H 0.35352 0.9585 0.36593 0.0
H4318 H 0.3096 0.94249 0.36925 0.0
H4319 H 0.33695 0.9689 0.35395 0.0
H4320 H 0.30348 0.99016 0.33723 0.0
H4321 H 0.31933 0.98134 0.35162 0.0
H4322 H 0.30125 0.94483 0.34971 0.0
H4323 H 0.28512 0.95396 0.33603 0.0
C4324 C 0.32894 0.93951 0.37462 0.0
C4325 C 0.34164 0.94351 0.37363 0.0
C4326 C 0.31918 0.94597 0.36819 0.0
C4327 C 0.32181 0.95646 0.36027 0.0
C4328 C 0.33437 0.9609 0.35986 0.0
C4329 C 0.34405 0.95467 0.36659 0.0
C4330 C 0.30291 0.98027 0.34 0.0
C4331 C 0.29301 0.97277 0.3356 0.0
C4332 C 0.31206 0.97514 0.34822 0.0
C4333 C 0.3117 0.96228 0.35202 0.0
C4334 C 0.30177 0.95483 0.34743 0.0
C4335 C 0.29252 0.96003 0.33946 0.0
H4336 H 0.65698 0.11474 0.70719 0.0
H4337 H 0.69351 0.12846 0.69454 0.0
H4338 H 0.66733 0.0968 0.71753 0.0
H4339 H 0.70407 0.11077 0.70541 0.0
H4340 H 0.71874 0.07197 0.71832 0.0
H4341 H 0.70886 0.08931 0.7067 0.0
H4342 H 0.67887 0.09166 0.73521 0.0
H4343 H 0.68783 0.07339 0.74595 0.0
C4344 C 0.66727 0.11392 0.70668 0.0
C4345 C 0.67444 0.12306 0.70018 0.0
C4346 C 0.67325 0.10368 0.71273 0.0
C4347 C 0.68661 0.1024 0.71262 0.0
C4348 C 0.69378 0.11135 0.70569 0.0
C4349 C 0.68774 0.12152 0.69946 0.0
C4350 C 0.7099 0.07599 0.72203 0.0
C4351 C 0.70405 0.07099 0.73306 0.0
C4352 C 0.70433 0.08616 0.71543 0.0
C4353 C 0.69292 0.09188 0.71986 0.0
C4354 C 0.68744 0.08731 0.73123 0.0
C4355 C 0.6928 0.07693 0.73763 0.0
H4356 H 0.70239 0.96428 0.33602 0.0
H4357 H 0.7283 0.93226 0.33206 0.0
H4358 H 0.71672 0.97723 0.32312 0.0
H4359 H 0.74277 0.94526 0.31935 0.0
H4360 H 0.7574 0.96737 0.28455 0.0
H4361 H 0.74331 0.95488 0.29819 0.0
H4362 H 0.73746 0.98717 0.32273 0.0
H4363 H 0.75131 0.99972 0.30893 0.0
C4364 C 0.71121 0.96004 0.33248 0.0
C4365 C 0.71417 0.94721 0.33503 0.0
C4366 C 0.71947 0.96749 0.32514 0.0
C4367 C 0.73086 0.96227 0.32007 0.0
C4368 C 0.73398 0.94954 0.32293 0.0
C4369 C 0.72577 0.94212 0.33036 0.0
C4370 C 0.75303 0.97182 0.29281 0.0
C4371 C 0.75554 0.98451 0.29569 0.0
C4372 C 0.74506 0.96462 0.30071 0.0
C4373 C 0.73932 0.96997 0.31164 0.0
C4374 C 0.74167 0.98275 0.31439 0.0
C4375 C 0.7497 0.98991 0.30653 0.0
H4376 H 0.58426 0.17911 0.30991 0.0
H4377 H 0.60952 0.21093 0.30875 0.0
H4378 H 0.56841 0.19143 0.2983 0.0
H4379 H 0.59387 0.22319 0.29676 0.0
H4380 H 0.55866 0.2457 0.28449 0.0
H4381 H 0.57427 0.23393 0.29688 0.0
H4382 H 0.56395 0.19936 0.2781 0.0
H4383 H 0.5477 0.21099 0.26643 0.0
C4384 C 0.58643 0.18875 0.30715 0.0
C4385 C 0.59818 0.19401 0.31023 0.0
C4386 C 0.57737 0.19581 0.30038 0.0
C4387 C 0.57985 0.20831 0.29638 0.0
C4388 C 0.5915 0.21367 0.29977 0.0
C4389 C 0.60051 0.20664 0.30666 0.0
C4390 C 0.55966 0.23557 0.28306 0.0
C4391 C 0.55186 0.22932 0.27447 0.0
C4392 C 0.56875 0.22881 0.29008 0.0
C4393 C 0.5704 0.21562 0.28862 0.0
C4394 C 0.56283 0.20944 0.27973 0.0
C4395 C 0.55365 0.21618 0.27281 0.0
H4396 H 0.28937 0.1026 0.36018 0.0
H4397 H 0.32603 0.08856 0.34683 0.0
H4398 H 0.27926 0.08433 0.35149 0.0
H4399 H 0.31572 0.07074 0.33692 0.0
H4400 H 0.29593 0.0341 0.32854 0.0
H4401 H 0.30618 0.05164 0.33906 0.0
H4402 H 0.27203 0.0747 0.33416 0.0
H4403 H 0.26166 0.05674 0.32461 0.0
C4404 C 0.29533 0.09561 0.35534 0.0
C4405 C 0.30861 0.09707 0.3544 0.0
C4406 C 0.28943 0.08515 0.35008 0.0
C4407 C 0.29654 0.07589 0.34335 0.0
C4408 C 0.30984 0.07745 0.3422 0.0
C4409 C 0.31579 0.08785 0.3477 0.0
C4410 C 0.29065 0.04293 0.32989 0.0
C4411 C 0.27804 0.04411 0.32585 0.0
C4412 C 0.29655 0.05308 0.33579 0.0
C4413 C 0.29008 0.06481 0.33747 0.0
C4414 C 0.27736 0.06586 0.33337 0.0
C4415 C 0.27138 0.05559 0.32778 0.0
H4416 H 0.46014 0.87261 0.36298 0.0
H4417 H 0.44363 0.83699 0.37431 0.0
H4418 H 0.47501 0.86118 0.34875 0.0
H4419 H 0.4587 0.82568 0.3608 0.0
H4420 H 0.47535 0.81017 0.32412 0.0
H4421 H 0.46187 0.82201 0.33907 0.0
H4422 H 0.4932 0.84669 0.34688 0.0
H4423 H 0.50658 0.83481 0.33155 0.0
C4424 C 0.45971 0.86238 0.3625 0.0
C4425 C 0.45064 0.85577 0.36983 0.0
C4426 C 0.46833 0.8558 0.35445 0.0
C4427 C 0.46801 0.84247 0.35348 0.0
C4428 C 0.45912 0.83593 0.36104 0.0
C4429 C 0.45055 0.84245 0.36899 0.0
C4430 C 0.47931 0.8181 0.32909 0.0
C4431 C 0.49193 0.82161 0.32677 0.0
C4432 C 0.47165 0.82487 0.33773 0.0
C4433 C 0.47642 0.83533 0.3443 0.0
C4434 C 0.48915 0.83879 0.34195 0.0
C4435 C 0.49684 0.83196 0.33327 0.0
H4436 H 0.33219 0.91496 0.68221 0.0
H4437 H 0.34686 0.902 0.71819 0.0
H4438 H 0.32557 0.93492 0.69193 0.0
H4439 H 0.34161 0.92222 0.72747 0.0
H4440 H 0.32348 0.95661 0.7456 0.0
H4441 H 0.32779 0.93613 0.73596 0.0
H4442 H 0.33089 0.95428 0.6991 0.0
H4443 H 0.32597 0.97462 0.70881 0.0
C4444 C 0.33407 0.9163 0.69217 0.0
C4445 C 0.3403 0.90672 0.69925 0.0
C4446 C 0.33045 0.92796 0.69777 0.0
C4447 C 0.3331 0.93054 0.71061 0.0
C4448 C 0.33913 0.92082 0.71767 0.0
C4449 C 0.34246 0.90914 0.71218 0.0
C4450 C 0.32511 0.95623 0.73544 0.0
C4451 C 0.32432 0.96735 0.72804 0.0
C4452 C 0.32768 0.94439 0.72982 0.0
C4453 C 0.32982 0.94325 0.71659 0.0
C4454 C 0.32907 0.95447 0.70923 0.0
C4455 C 0.3263 0.96627 0.71484 0.0
H4456 H 0.59851 0.80809 0.68628 0.0
H4457 H 0.57094 0.80936 0.65627 0.0
H4458 H 0.58511 0.79371 0.69827 0.0
H4459 H 0.55785 0.79427 0.668 0.0
H4460 H 0.5321 0.77554 0.69896 0.0
H4461 H 0.54428 0.79061 0.68598 0.0
H4462 H 0.57928 0.77233 0.69806 0.0
H4463 H 0.56707 0.75781 0.71136 0.0
C4464 C 0.58953 0.80542 0.68225 0.0
C4465 C 0.58591 0.80993 0.67022 0.0
C4466 C 0.58192 0.79693 0.68906 0.0
C4467 C 0.57047 0.79256 0.68404 0.0
C4468 C 0.56659 0.79738 0.6722 0.0
C4469 C 0.57419 0.80597 0.6654 0.0
C4470 C 0.5424 0.77476 0.69868 0.0
C4471 C 0.5487 0.76566 0.70618 0.0
C4472 C 0.54939 0.78335 0.69125 0.0
C4473 C 0.56283 0.7829 0.69113 0.0
C4474 C 0.569 0.77328 0.6982 0.0
C4475 C 0.56203 0.76486 0.70572 0.0
H4476 H 0.42958 0.2654 0.67701 0.0
H4477 H 0.45212 0.23212 0.68634 0.0
H4478 H 0.44391 0.27849 0.68892 0.0
H4479 H 0.46694 0.2452 0.69769 0.0
H4480 H 0.4831 0.26902 0.72885 0.0
H4481 H 0.46956 0.25614 0.71604 0.0
H4482 H 0.46318 0.288 0.6907 0.0
H4483 H 0.47564 0.30123 0.7043 0.0
C4484 C 0.43777 0.26093 0.68143 0.0
C4485 C 0.43968 0.24773 0.68082 0.0
C4486 C 0.44607 0.26845 0.68823 0.0
C4487 C 0.45666 0.26299 0.69441 0.0
C4488 C 0.45876 0.24979 0.69339 0.0
C4489 C 0.45031 0.24225 0.6868 0.0
C4490 C 0.47862 0.27339 0.7207 0.0
C4491 C 0.48039 0.28628 0.71779 0.0
C4492 C 0.47102 0.26588 0.71313 0.0
C4493 C 0.46517 0.27094 0.70223 0.0
C4494 C 0.46725 0.28375 0.69912 0.0
C4495 C 0.47464 0.29134 0.70685 0.0
H4496 H 0.73277 0.75758 0.14582 0.0
H4497 H 0.73702 0.71844 0.1345 0.0
H4498 H 0.73667 0.76428 0.12371 0.0
H4499 H 0.74122 0.72506 0.11277 0.0
H4500 H 0.734 0.73986 0.07298 0.0
H4501 H 0.72983 0.73427 0.09517 0.0
H4502 H 0.75391 0.76466 0.10702 0.0
H4503 H 0.75807 0.77018 0.08464 0.0
C4504 C 0.73448 0.75042 0.13864 0.0
C4505 C 0.73463 0.73747 0.14197 0.0
C4506 C 0.73685 0.75426 0.12601 0.0
C4507 C 0.73924 0.7452 0.11644 0.0
C4508 C 0.73927 0.7323 0.11982 0.0
C4509 C 0.73697 0.7285 0.13234 0.0
C4510 C 0.73837 0.74533 0.08036 0.0
C4511 C 0.74635 0.75541 0.07717 0.0
C4512 C 0.73605 0.74211 0.09306 0.0
C4513 C 0.74154 0.749 0.10292 0.0
C4514 C 0.74944 0.75922 0.09969 0.0
C4515 C 0.75192 0.76233 0.08691 0.0
H4516 H 0.35039 0.68647 0.10331 0.0
H4517 H 0.38373 0.70986 0.10208 0.0
H4518 H 0.33956 0.70108 0.08926 0.0
H4519 H 0.37244 0.72522 0.08874 0.0
H4520 H 0.35207 0.74589 0.05642 0.0
H4521 H 0.36412 0.73046 0.06907 0.0
H4522 H 0.32934 0.72024 0.0889 0.0
H4523 H 0.3174 0.73503 0.07571 0.0
C4524 C 0.35546 0.69474 0.09998 0.0
C4525 C 0.368 0.6969 0.10378 0.0
C4526 C 0.34912 0.70332 0.09208 0.0
C4527 C 0.35498 0.71453 0.08792 0.0
C4528 C 0.36759 0.71667 0.09162 0.0
C4529 C 0.37404 0.70794 0.09943 0.0
C4530 C 0.34708 0.74027 0.0635 0.0
C4531 C 0.33383 0.74157 0.06509 0.0
C4532 C 0.35397 0.73148 0.07081 0.0
C4533 C 0.34777 0.72396 0.08004 0.0
C4534 C 0.33449 0.72552 0.08169 0.0
C4535 C 0.3276 0.73409 0.07421 0.0
H4536 H 0.36258 0.32363 0.07824 0.0
H4537 H 0.35443 0.35204 0.04966 0.0
H4538 H 0.35063 0.30822 0.06643 0.0
H4539 H 0.34269 0.33662 0.03771 0.0
H4540 H 0.30906 0.31207 0.02831 0.0
H4541 H 0.32325 0.32657 0.03848 0.0
H4542 H 0.34796 0.29509 0.04893 0.0
H4543 H 0.33317 0.28045 0.03956 0.0
C4544 C 0.35848 0.32654 0.0693 0.0
C4545 C 0.35933 0.33919 0.06505 0.0
C4546 C 0.35158 0.31766 0.06247 0.0
C4547 C 0.34541 0.32115 0.05116 0.0
C4548 C 0.34692 0.33361 0.04656 0.0
C4549 C 0.35374 0.34249 0.05341 0.0
C4550 C 0.31745 0.30818 0.03286 0.0
C4551 C 0.31984 0.29501 0.03313 0.0
C4552 C 0.32577 0.31657 0.03855 0.0
C4553 C 0.33688 0.31211 0.04456 0.0
C4554 C 0.33945 0.29894 0.04456 0.0
C4555 C 0.33103 0.29052 0.03898 0.0
H4556 H 0.67985 0.32735 0.09654 0.0
H4557 H 0.68555 0.36338 0.07764 0.0
H4558 H 0.69483 0.31733 0.0818 0.0
H4559 H 0.70128 0.3535 0.06353 0.0
H4560 H 0.72147 0.32827 0.03319 0.0
H4561 H 0.70544 0.33929 0.04643 0.0
H4562 H 0.71718 0.31672 0.07877 0.0
H4563 H 0.73273 0.30553 0.06541 0.0
C4564 C 0.68417 0.33315 0.08919 0.0
C4565 C 0.68155 0.34626 0.08847 0.0
C4566 C 0.69299 0.32742 0.08086 0.0
C4567 C 0.69955 0.33465 0.07166 0.0
C4568 C 0.69647 0.34763 0.0705 0.0
C4569 C 0.68752 0.35333 0.07873 0.0
C4570 C 0.72063 0.32582 0.04316 0.0
C4571 C 0.72812 0.31596 0.04829 0.0
C4572 C 0.71147 0.3321 0.05076 0.0
C4573 C 0.70978 0.32868 0.06363 0.0
C4574 C 0.71787 0.31929 0.06882 0.0
C4575 C 0.72687 0.31296 0.06122 0.0
H4576 H 0.70163 0.34092 0.92317 0.0
H4577 H 0.7101 0.37108 0.94907 0.0
H4578 H 0.71176 0.32557 0.93748 0.0
H4579 H 0.72053 0.35584 0.96313 0.0
H4580 H 0.72816 0.32301 0.99086 0.0
H4581 H 0.71609 0.33769 0.9773 0.0
H4582 H 0.73398 0.32086 0.94409 0.0
H4583 H 0.74605 0.30625 0.95774 0.0
C4584 C 0.70548 0.34425 0.93198 0.0
C4585 C 0.70509 0.35724 0.93494 0.0
C4586 C 0.71143 0.33549 0.9401 0.0
C4587 C 0.71703 0.33951 0.95138 0.0
C4588 C 0.71623 0.35242 0.95456 0.0
C4589 C 0.71033 0.36117 0.94644 0.0
C4590 C 0.72941 0.32246 0.98065 0.0
C4591 C 0.73794 0.31357 0.97526 0.0
C4592 C 0.72258 0.33087 0.9729 0.0
C4593 C 0.72404 0.33039 0.95962 0.0
C4594 C 0.73253 0.32136 0.95427 0.0
C4595 C 0.73949 0.31308 0.96204 0.0
H4596 H 0.67151 0.67315 0.95543 0.0
H4597 H 0.7026 0.67008 0.92828 0.0
H4598 H 0.68365 0.68792 0.96783 0.0
H4599 H 0.71466 0.68504 0.94046 0.0
H4600 H 0.73758 0.70655 0.96862 0.0
H4601 H 0.7261 0.6899 0.95822 0.0
H4602 H 0.69043 0.70871 0.96811 0.0
H4603 H 0.70192 0.72482 0.97936 0.0
C4604 C 0.68095 0.67562 0.95208 0.0
C4605 C 0.68599 0.67045 0.94075 0.0
C4606 C 0.68793 0.68419 0.95918 0.0
C4607 C 0.70015 0.68793 0.95514 0.0
C4608 C 0.70537 0.68237 0.94405 0.0
C4609 C 0.69842 0.67373 0.937 0.0
C4610 C 0.72727 0.70705 0.96878 0.0
C4611 C 0.72073 0.71711 0.97489 0.0
C4612 C 0.72065 0.69754 0.96261 0.0
C4613 C 0.70725 0.69785 0.96219 0.0
C4614 C 0.70071 0.70793 0.96832 0.0
C4615 C 0.70734 0.71737 0.97462 0.0
H4616 H 0.31569 0.72019 0.9122 0.0
H4617 H 0.33505 0.753 0.89739 0.0
H4618 H 0.31011 0.73178 0.93146 0.0
H4619 H 0.32891 0.76491 0.9162 0.0
H4620 H 0.32772 0.77913 0.95627 0.0
H4621 H 0.33304 0.76758 0.9372 0.0
H4622 H 0.2977 0.74732 0.94059 0.0
H4623 H 0.2933 0.75733 0.9606 0.0
C4624 C 0.31856 0.72996 0.91302 0.0
C4625 C 0.32587 0.73569 0.90341 0.0
C4626 C 0.31531 0.73667 0.92402 0.0
C4627 C 0.31907 0.74934 0.92547 0.0
C4628 C 0.3261 0.75511 0.91562 0.0
C4629 C 0.32955 0.74832 0.90478 0.0
C4630 C 0.32116 0.77202 0.95319 0.0
C4631 C 0.31008 0.76922 0.96027 0.0
C4632 C 0.32411 0.76556 0.94199 0.0
C4633 C 0.31582 0.75645 0.93726 0.0
C4634 C 0.3045 0.75403 0.94403 0.0
C4635 C 0.30179 0.76012 0.95546 0.0
H4636 H 0.29417 0.29867 0.89308 0.0
H4637 H 0.31635 0.32519 0.91386 0.0
H4638 H 0.28987 0.28679 0.91262 0.0
H4639 H 0.31287 0.31303 0.93331 0.0
H4640 H 0.29421 0.29753 0.96863 0.0
H4641 H 0.29849 0.30866 0.94893 0.0
H4642 H 0.29627 0.27335 0.92848 0.0
H4643 H 0.29077 0.26246 0.94812 0.0
C4644 C 0.29837 0.30174 0.90184 0.0
C4645 C 0.30565 0.31275 0.90201 0.0
C4646 C 0.29597 0.29492 0.91308 0.0
C4647 C 0.30092 0.29889 0.92475 0.0
C4648 C 0.30858 0.30975 0.9247 0.0
C4649 C 0.31078 0.31666 0.91351 0.0
C4650 C 0.29441 0.29214 0.95992 0.0
C4651 C 0.29208 0.27904 0.96007 0.0
C4652 C 0.29713 0.29852 0.94855 0.0
C4653 C 0.2979 0.29199 0.93693 0.0
C4654 C 0.29565 0.27885 0.9371 0.0
C4655 C 0.2927 0.2725 0.94848 0.0
H4656 H 0.64122 0.74856 0.22674 0.0
H4657 H 0.65475 0.74427 0.26505 0.0
H4658 H 0.62098 0.75667 0.23474 0.0
H4659 H 0.63397 0.75196 0.27319 0.0
H4660 H 0.59862 0.77826 0.28165 0.0
H4661 H 0.6199 0.77096 0.27447 0.0
H4662 H 0.60257 0.7487 0.24531 0.0
H4663 H 0.58154 0.75614 0.25243 0.0
C4664 C 0.63988 0.74935 0.23692 0.0
C4665 C 0.64969 0.74582 0.24524 0.0
C4666 C 0.62817 0.75389 0.24152 0.0
C4667 C 0.62577 0.75488 0.25462 0.0
C4668 C 0.63554 0.75138 0.26303 0.0
C4669 C 0.64738 0.74683 0.25839 0.0
C4670 C 0.5995 0.77187 0.27367 0.0
C4671 C 0.58859 0.76777 0.2675 0.0
C4672 C 0.61161 0.7676 0.26963 0.0
C4673 C 0.61297 0.75927 0.25929 0.0
C4674 C 0.60193 0.75524 0.25318 0.0
C4675 C 0.58989 0.75943 0.25726 0.0
H4676 H 0.37535 0.58271 0.17982 0.0
H4677 H 0.34879 0.61241 0.19088 0.0
H4678 H 0.36024 0.5668 0.18676 0.0
H4679 H 0.33406 0.59675 0.19887 0.0
H4680 H 0.30521 0.5669 0.20551 0.0
H4681 H 0.31954 0.58208 0.19621 0.0
H4682 H 0.35126 0.55617 0.20281 0.0
H4683 H 0.33663 0.5404 0.21055 0.0
C4684 C 0.36625 0.5858 0.18382 0.0
C4685 C 0.36319 0.59877 0.18475 0.0
C4686 C 0.35759 0.57668 0.18798 0.0
C4687 C 0.34579 0.5803 0.19358 0.0
C4688 C 0.34281 0.59337 0.1944 0.0
C4689 C 0.35131 0.60245 0.18988 0.0
C4690 C 0.3152 0.56428 0.20467 0.0
C4691 C 0.31966 0.5523 0.20872 0.0
C4692 C 0.32356 0.57318 0.19955 0.0
C4693 C 0.33676 0.57057 0.19869 0.0
C4694 C 0.34122 0.55861 0.20296 0.0
C4695 C 0.33279 0.54957 0.20771 0.0
H4696 H 0.46024 0.3354 0.14826 0.0
H4697 H 0.43049 0.34466 0.17564 0.0
H4698 H 0.4703 0.32134 0.16375 0.0
H4699 H 0.44092 0.33115 0.19126 0.0
H4700 H 0.45206 0.29269 0.2088 0.0
H4701 H 0.44338 0.30845 0.19405 0.0
H4702 H 0.48155 0.31982 0.18388 0.0
H4703 H 0.49018 0.30395 0.19873 0.0
C4704 C 0.4559 0.33458 0.15761 0.0
C4705 C 0.44441 0.3411 0.16058 0.0
C4706 C 0.46177 0.32661 0.16655 0.0
C4707 C 0.45633 0.32497 0.17872 0.0
C4708 C 0.44524 0.33199 0.1819 0.0
C4709 C 0.43935 0.33992 0.17296 0.0
C4710 C 0.45856 0.29857 0.20338 0.0
C4711 C 0.47175 0.29714 0.20485 0.0
C4712 C 0.45361 0.30768 0.19502 0.0
C4713 C 0.46176 0.31549 0.18782 0.0
C4714 C 0.47501 0.31396 0.18924 0.0
C4715 C 0.47995 0.30493 0.19776 0.0
H4716 H 0.65585 0.43651 0.1979 0.0
H4717 H 0.69026 0.41858 0.1831 0.0
H4718 H 0.66838 0.45032 0.21068 0.0
H4719 H 0.70289 0.43339 0.19494 0.0
H4720 H 0.72216 0.45069 0.22886 0.0
H4721 H 0.70964 0.43732 0.21533 0.0
H4722 H 0.68136 0.46746 0.212 0.0
H4723 H 0.69375 0.48061 0.2259 0.0
C4724 C 0.66611 0.43553 0.19726 0.0
C4725 C 0.67194 0.42608 0.18964 0.0
C4726 C 0.67336 0.4437 0.20448 0.0
C4727 C 0.68674 0.44298 0.20405 0.0
C4728 C 0.69262 0.43405 0.19585 0.0
C4729 C 0.68534 0.42566 0.18882 0.0
C4730 C 0.71328 0.45446 0.22519 0.0
C4731 C 0.70898 0.46674 0.22843 0.0
C4732 C 0.7061 0.44681 0.21733 0.0
C4733 C 0.69446 0.45125 0.21238 0.0
C4734 C 0.69015 0.46355 0.21571 0.0
C4735 C 0.69727 0.47115 0.22369 0.0
H4736 H 0.59961 0.37577 0.85263 0.0
H4737 H 0.62405 0.3841 0.82048 0.0
H4738 H 0.58306 0.36912 0.83849 0.0
H4739 H 0.60762 0.37694 0.80617 0.0
H4740 H 0.57269 0.36898 0.78252 0.0
H4741 H 0.58791 0.37888 0.7964 0.0
H4742 H 0.57806 0.35223 0.82619 0.0
H4743 H 0.56224 0.34316 0.81277 0.0
C4744 C 0.60145 0.37616 0.84249 0.0
C4745 C 0.61326 0.38029 0.83772 0.0
C4746 C 0.59196 0.37223 0.83433 0.0
C4747 C 0.594 0.3721 0.82109 0.0
C4748 C 0.60559 0.37687 0.81627 0.0
C4749 C 0.61507 0.38098 0.82448 0.0
C4750 C 0.5736 0.3654 0.79212 0.0
C4751 C 0.56617 0.35521 0.79645 0.0
C4752 C 0.58251 0.37098 0.80006 0.0
C4753 C 0.58431 0.36647 0.81254 0.0
C4754 C 0.57686 0.35625 0.8168 0.0
C4755 C 0.56788 0.35082 0.80895 0.0
H4756 H 0.70361 0.55846 0.86396 0.0
H4757 H 0.70729 0.59286 0.84195 0.0
H4758 H 0.72048 0.54832 0.85096 0.0
H4759 H 0.72413 0.58287 0.82906 0.0
H4760 H 0.76386 0.56713 0.81987 0.0
H4761 H 0.74624 0.57594 0.8325 0.0
H4762 H 0.72608 0.54084 0.82908 0.0
H4763 H 0.7439 0.5319 0.81657 0.0
C4764 C 0.70794 0.56377 0.85624 0.0
C4765 C 0.70412 0.57641 0.85389 0.0
C4766 C 0.71757 0.55799 0.84879 0.0
C4767 C 0.72375 0.56483 0.83905 0.0
C4768 C 0.71969 0.57738 0.83658 0.0
C4769 C 0.70994 0.58307 0.84386 0.0
C4770 C 0.75575 0.56123 0.82193 0.0
C4771 C 0.75531 0.5488 0.81722 0.0
C4772 C 0.74557 0.56633 0.82905 0.0
C4773 C 0.73468 0.55914 0.83172 0.0
C4774 C 0.73433 0.54662 0.82723 0.0
C4775 C 0.74449 0.54154 0.81999 0.0
H4776 H 0.40867 0.69636 0.81686 0.0
H4777 H 0.38904 0.7164 0.787 0.0
H4778 H 0.42904 0.69989 0.80594 0.0
H4779 H 0.40915 0.71954 0.77573 0.0
H4780 H 0.44829 0.73183 0.76328 0.0
H4781 H 0.42841 0.72978 0.77504 0.0
H4782 H 0.44039 0.69243 0.78792 0.0
H4783 H 0.46076 0.69498 0.77694 0.0
C4784 C 0.40883 0.70175 0.80807 0.0
C4785 C 0.39748 0.70625 0.80274 0.0
C4786 C 0.4204 0.70358 0.8017 0.0
C4787 C 0.42073 0.70985 0.78986 0.0
C4788 C 0.40931 0.71479 0.78487 0.0
C4789 C 0.39779 0.71301 0.79128 0.0
C4790 C 0.44668 0.72321 0.76868 0.0
C4791 C 0.45612 0.71364 0.76932 0.0
C4792 C 0.43523 0.72196 0.77532 0.0
C4793 C 0.43283 0.711 0.78257 0.0
C4794 C 0.44205 0.70115 0.78271 0.0
C4795 C 0.45362 0.70249 0.7762 0.0
H4796 H 0.26421 0.40582 0.81614 0.0
H4797 H 0.29869 0.42721 0.81396 0.0
H4798 H 0.2519 0.42461 0.81047 0.0
H4799 H 0.2868 0.44611 0.8093 0.0
H4800 H 0.26588 0.47914 0.79341 0.0
H4801 H 0.27723 0.46042 0.79924 0.0
H4802 H 0.24152 0.44218 0.80861 0.0
H4803 H 0.23019 0.46076 0.8011 0.0
C4804 C 0.26913 0.41465 0.8146 0.0
C4805 C 0.28246 0.41494 0.81527 0.0
C4806 C 0.26204 0.42563 0.81134 0.0
C4807 C 0.26804 0.43738 0.80892 0.0
C4808 C 0.28142 0.43756 0.81035 0.0
C4809 C 0.28844 0.42658 0.81326 0.0
C4810 C 0.26037 0.47104 0.79638 0.0
C4811 C 0.247 0.47159 0.79649 0.0
C4812 C 0.26702 0.46009 0.80017 0.0
C4813 C 0.26065 0.44923 0.80476 0.0
C4814 C 0.24716 0.44994 0.80511 0.0
C4815 C 0.24049 0.46085 0.80093 0.0
H4816 H 0.7151 0.63613 0.24391 0.0
H4817 H 0.75459 0.63965 0.23319 0.0
H4818 H 0.7185 0.61464 0.24971 0.0
H4819 H 0.75848 0.61772 0.23886 0.0
H4820 H 0.76428 0.57652 0.24953 0.0
H4821 H 0.76145 0.59859 0.24412 0.0
H4822 H 0.72137 0.59594 0.25482 0.0
H4823 H 0.72464 0.57419 0.26005 0.0
C4824 C 0.72465 0.63218 0.24284 0.0
C4825 C 0.73457 0.63968 0.23817 0.0
C4826 C 0.72675 0.61952 0.24619 0.0
C4827 C 0.73893 0.61366 0.24501 0.0
C4828 C 0.74889 0.62131 0.24012 0.0
C4829 C 0.74671 0.63409 0.23671 0.0
C4830 C 0.75489 0.58084 0.25065 0.0
C4831 C 0.74469 0.57365 0.25523 0.0
C4832 C 0.75315 0.5937 0.24752 0.0
C4833 C 0.74105 0.5998 0.24873 0.0
C4834 C 0.73093 0.59231 0.25349 0.0
C4835 C 0.73274 0.57955 0.25668 0.0
H4836 H 0.71488 0.44772 0.8258 0.0
H4837 H 0.73125 0.45764 0.86164 0.0
H4838 H 0.73086 0.45984 0.8146 0.0
H4839 H 0.74788 0.46948 0.85025 0.0
H4840 H 0.767 0.50038 0.82466 0.0
H4841 H 0.75169 0.48835 0.83739 0.0
H4842 H 0.75253 0.45891 0.80904 0.0
H4843 H 0.76755 0.47102 0.7963 0.0
C4844 C 0.72193 0.45252 0.83132 0.0
C4845 C 0.72167 0.4518 0.84464 0.0
C4846 C 0.73125 0.45935 0.82485 0.0
C4847 C 0.74079 0.46557 0.83146 0.0
C4848 C 0.74063 0.46486 0.84484 0.0
C4849 C 0.7312 0.45798 0.85137 0.0
C4850 C 0.76399 0.49127 0.82123 0.0
C4851 C 0.76845 0.48667 0.80942 0.0
C4852 C 0.75523 0.48436 0.82854 0.0
C4853 C 0.75076 0.47267 0.82423 0.0
C4854 C 0.7555 0.46799 0.81256 0.0
C4855 C 0.76415 0.47492 0.80524 0.0
H4856 H 0.58909 0.66351 0.85547 0.0
H4857 H 0.60779 0.64494 0.82372 0.0
H4858 H 0.57581 0.67573 0.84075 0.0
H4859 H 0.59411 0.65628 0.80921 0.0
H4860 H 0.57794 0.68691 0.78422 0.0
H4861 H 0.59064 0.67527 0.79954 0.0
H4862 H 0.55911 0.67663 0.82643 0.0
H4863 H 0.54658 0.68878 0.81111 0.0
C4864 C 0.59034 0.66198 0.84538 0.0
C4865 C 0.59955 0.65317 0.84086 0.0
C4866 C 0.58259 0.66889 0.83689 0.0
C4867 C 0.58385 0.66719 0.82364 0.0
C4868 C 0.59294 0.65821 0.81924 0.0
C4869 C 0.6007 0.65145 0.82765 0.0
C4870 C 0.57367 0.68467 0.79337 0.0
C4871 C 0.5612 0.68879 0.79636 0.0
C4872 C 0.58096 0.67789 0.80222 0.0
C4873 C 0.57598 0.67478 0.81434 0.0
C4874 C 0.56345 0.67892 0.81734 0.0
C4875 C 0.5562 0.68588 0.8085 0.0
H4876 H 0.27634 0.64739 0.81399 0.0
H4877 H 0.30513 0.62447 0.83235 0.0
H4878 H 0.26494 0.62828 0.80839 0.0
H4879 H 0.29351 0.60529 0.82733 0.0
H4880 H 0.27472 0.57328 0.80526 0.0
H4881 H 0.28716 0.59175 0.81065 0.0
H4882 H 0.25231 0.61276 0.81907 0.0
H4883 H 0.23995 0.59431 0.81332 0.0
C4884 C 0.28024 0.63819 0.8167 0.0
C4885 C 0.29156 0.63726 0.8235 0.0
C4886 C 0.27366 0.62728 0.81368 0.0
C4887 C 0.2782 0.61527 0.81761 0.0
C4888 C 0.2898 0.61438 0.82408 0.0
C4889 C 0.29647 0.6253 0.82694 0.0
C4890 C 0.26979 0.58185 0.80838 0.0
C4891 C 0.25645 0.58248 0.80886 0.0
C4892 C 0.27688 0.5924 0.81151 0.0
C4893 C 0.27073 0.60379 0.81512 0.0
C4894 C 0.25734 0.60421 0.81607 0.0
C4895 C 0.25026 0.59363 0.81298 0.0
H4896 H 0.40247 0.32879 0.82205 0.0
H4897 H 0.38739 0.34617 0.78808 0.0
H4898 H 0.42302 0.32627 0.81178 0.0
H4899 H 0.40848 0.34455 0.778 0.0
H4900 H 0.44546 0.32806 0.75949 0.0
H4901 H 0.42414 0.33094 0.76881 0.0
H4902 H 0.44083 0.33699 0.80548 0.0
H4903 H 0.46188 0.33372 0.79625 0.0
C4904 C 0.4035 0.3321 0.81235 0.0
C4905 C 0.39309 0.33755 0.8059 0.0
C4906 C 0.41546 0.33087 0.80648 0.0
C4907 C 0.4176 0.33529 0.79402 0.0
C4908 C 0.40725 0.34089 0.78755 0.0
C4909 C 0.39515 0.34199 0.79341 0.0
C4910 C 0.44452 0.33004 0.76954 0.0
C4911 C 0.45538 0.33046 0.77715 0.0
C4912 C 0.43228 0.33175 0.7749 0.0
C4913 C 0.43061 0.33405 0.78799 0.0
C4914 C 0.44157 0.33485 0.79546 0.0
C4915 C 0.45373 0.33301 0.79015 0.0
H4916 H 0.34085 0.42851 0.15159 0.0
H4917 H 0.3718 0.45455 0.15566 0.0
H4918 H 0.32708 0.44249 0.16414 0.0
H4919 H 0.35818 0.46815 0.16886 0.0
H4920 H 0.32684 0.49469 0.1853 0.0
H4921 H 0.33975 0.4824 0.16998 0.0
H4922 H 0.32527 0.4477 0.18626 0.0
H4923 H 0.31242 0.46 0.2014 0.0
C4924 C 0.34473 0.43727 0.15499 0.0
C4925 C 0.35757 0.44024 0.15265 0.0
C4926 C 0.33684 0.44522 0.16239 0.0
C4927 C 0.34155 0.45635 0.16775 0.0
C4928 C 0.35419 0.45968 0.16491 0.0
C4929 C 0.36207 0.45176 0.15744 0.0
C4930 C 0.32643 0.48443 0.18551 0.0
C4931 C 0.31869 0.47827 0.19454 0.0
C4932 C 0.33385 0.47738 0.1768 0.0
C4933 C 0.33353 0.46403 0.17681 0.0
C4934 C 0.32565 0.45795 0.18582 0.0
C4935 C 0.31839 0.46497 0.1946 0.0
H4936 H 0.57333 0.31893 0.16465 0.0
H4937 H 0.58631 0.33576 0.1993 0.0
H4938 H 0.55925 0.30558 0.17668 0.0
H4939 H 0.57091 0.32345 0.21133 0.0
H4940 H 0.55211 0.29037 0.2317 0.0
H4941 H 0.56619 0.30423 0.21983 0.0
H4942 H 0.54124 0.30246 0.18762 0.0
H4943 H 0.5275 0.28831 0.19938 0.0
C4944 C 0.57319 0.31988 0.17486 0.0
C4945 C 0.58141 0.32828 0.1809 0.0
C4946 C 0.56476 0.31233 0.18184 0.0
C4947 C 0.56381 0.31319 0.19515 0.0
C4948 C 0.57151 0.32212 0.20117 0.0
C4949 C 0.58024 0.32945 0.19418 0.0
C4950 C 0.5496 0.29297 0.22208 0.0
C4951 C 0.53862 0.28812 0.21655 0.0
C4952 C 0.5577 0.30105 0.21523 0.0
C4953 C 0.55503 0.30466 0.20262 0.0
C4954 C 0.54396 0.2998 0.19714 0.0
C4955 C 0.53597 0.29163 0.20395 0.0
H4956 H 0.43889 0.71779 0.19709 0.0
H4957 H 0.46375 0.68606 0.20578 0.0
H4958 H 0.4506 0.73114 0.21125 0.0
H4959 H 0.47627 0.69963 0.21942 0.0
H4960 H 0.49016 0.72478 0.25124 0.0
H4961 H 0.47816 0.71065 0.23803 0.0
H4962 H 0.46862 0.74223 0.21329 0.0
H4963 H 0.47943 0.75644 0.22718 0.0
C4964 C 0.44699 0.71373 0.20202 0.0
C4965 C 0.45045 0.70094 0.20036 0.0
C4966 C 0.45385 0.72142 0.21004 0.0
C4967 C 0.46463 0.71664 0.21641 0.0
C4968 C 0.46799 0.7037 0.21484 0.0
C4969 C 0.46088 0.6959 0.20699 0.0
C4970 C 0.48527 0.72875 0.24313 0.0
C4971 C 0.48569 0.74184 0.24042 0.0
C4972 C 0.47855 0.72057 0.23537 0.0
C4973 C 0.47222 0.7252 0.22455 0.0
C4974 C 0.473 0.73824 0.22168 0.0
C4975 C 0.47947 0.74644 0.22957 0.0
loop_
_geom_bond_atom_site_label_1
_geom_bond_atom_site_label_2
_geom_bond_distance
_geom_bond_site_symmetry_2
_ccdc_geom_bond_type
C0 C1 1.264 . S
C0 C5 1.479 . S
C0 C10 1.465 . S
C1 C0 1.264 . S
C1 C3 1.339 . S
C1 H28 0.931 . S
C2 C3 1.395 . S
C2 C4 1.320 . S
C3 C1 1.339 . S
C3 C2 1.395 . S
C3 H29 0.929 . S
C4 C2 1.320 . S
C4 C5 1.405 . S
C4 H30 0.930 . S
C5 C0 1.479 . S
C5 C4 1.405 . S
C5 H31 0.931 . S
U6 O7 2.454 . S
U6 O8 2.458 . S
U6 C9 2.984 . S
U6 C10 2.847 . S
U6 C23 2.882 . S
U6 O24 2.441 . S
U6 O25 2.420 . S
U6 O26 2.455 . S
U6 O27 2.449 . S
O7 U6 2.454 . S
O7 C9 1.353 . S
O8 U6 2.458 . S
O8 C9 1.286 . S
C9 U6 2.984 . S
C9 O7 1.353 . S
C9 O8 1.286 . S
C9 C11 1.363 . S
C10 C0 1.465 . S
C10 U6 2.847 . S
C10 O24 1.249 . S
C10 O25 1.202 . S
C11 C9 1.363 . S
C11 C13 1.408 . S
C11 C16 1.342 . S
C12 C13 1.310 . S
C12 C15 1.461 . S
C12 H32 0.932 . S
C13 C11 1.408 . S
C13 C12 1.310 . S
C13 H33 0.930 . S
C14 C15 1.474 . S
C14 C16 1.285 . S
C14 H34 0.929 . S
C15 C12 1.461 . S
C15 C14 1.474 . S
C16 C11 1.342 . S
C16 C14 1.285 . S
C16 H35 0.930 . S
C17 C20 1.424 . S
C17 C22 1.245 . S
C17 C23 1.428 . S
C18 C21 1.260 . S
C18 C22 1.477 . S
C18 H36 0.932 . S
C19 C20 1.384 . S
C19 C21 1.479 . S
C19 H37 0.929 . S
C20 C17 1.424 . S
C20 C19 1.384 . S
C20 H38 0.928 . S
C21 C18 1.260 . S
C21 C19 1.479 . S
C22 C17 1.245 . S
C22 C18 1.477 . S
C22 H39 0.932 . S
C23 U6 2.882 . S
C23 C17 1.428 . S
C23 O26 1.301 . S
C23 O27 1.282 . S
O24 U6 2.441 . S
O24 C10 1.249 . S
O25 U6 2.420 . S
O25 C10 1.202 . S
O26 U6 2.455 . S
O26 C23 1.301 . S
O27 U6 2.449 . S
O27 C23 1.282 . S
H28 C1 0.931 . S
H29 C3 0.929 . S
H30 C4 0.930 . S
H31 C5 0.931 . S
H32 C12 0.932 . S
H33 C13 0.930 . S
H34 C14 0.929 . S
H35 C16 0.930 . S
H36 C18 0.932 . S
H37 C19 0.929 . S
H38 C20 0.928 . S
H39 C22 0.932 . S
C40 C41 1.264 . S
C40 C45 1.479 . S
C40 C50 1.465 . S
C41 C40 1.264 . S
C41 C43 1.339 . S
C41 H68 0.931 . S
C42 C43 1.395 . S
C42 C44 1.320 . S
C43 C41 1.339 . S
C43 C42 1.395 . S
C43 H69 0.929 . S
C44 C42 1.320 . S
C44 C45 1.405 . S
C44 H70 0.930 . S
C45 C40 1.479 . S
C45 C44 1.405 . S
C45 H71 0.931 . S
U46 O47 2.454 . S
U46 O48 2.458 . S
U46 C49 2.984 . S
U46 C50 2.847 . S
U46 C63 2.882 . S
U46 O64 2.441 . S
U46 O65 2.420 . S
U46 O66 2.455 . S
U46 O67 2.449 . S
O47 U46 2.454 . S
O47 C49 1.353 . S
O48 U46 2.458 . S
O48 C49 1.286 . S
C49 U46 2.984 . S
C49 O47 1.353 . S
C49 O48 1.286 . S
C49 C51 1.363 . S
C50 C40 1.465 . S
C50 U46 2.847 . S
C50 O64 1.249 . S
C50 O65 1.202 . S
C51 C49 1.363 . S
C51 C53 1.408 . S
C51 C56 1.342 . S
C52 C53 1.310 . S
C52 C55 1.461 . S
C52 H72 0.932 . S
C53 C51 1.408 . S
C53 C52 1.310 . S
C53 H73 0.930 . S
C54 C55 1.474 . S
C54 C56 1.285 . S
C54 H74 0.929 . S
C55 C52 1.461 . S
C55 C54 1.474 . S
C56 C51 1.342 . S
C56 C54 1.285 . S
C56 H75 0.930 . S
C57 C60 1.424 . S
C57 C62 1.245 . S
C57 C63 1.428 . S
C58 C61 1.260 . S
C58 C62 1.477 . S
C58 H76 0.932 . S
C59 C60 1.384 . S
C59 C61 1.479 . S
C59 H77 0.929 . S
C60 C57 1.424 . S
C60 C59 1.384 . S
C60 H78 0.928 . S
C61 C58 1.260 . S
C61 C59 1.479 . S
C62 C57 1.245 . S
C62 C58 1.477 . S
C62 H79 0.932 . S
C63 U46 2.882 . S
C63 C57 1.428 . S
C63 O66 1.301 . S
C63 O67 1.282 . S
O64 U46 2.441 . S
O64 C50 1.249 . S
O65 U46 2.420 . S
O65 C50 1.202 . S
O66 U46 2.455 . S
O66 C63 1.301 . S
O67 U46 2.449 . S
O67 C63 1.282 . S
H68 C41 0.931 . S
H69 C43 0.929 . S
H70 C44 0.930 . S
H71 C45 0.931 . S
H72 C52 0.932 . S
H73 C53 0.930 . S
H74 C54 0.929 . S
H75 C56 0.930 . S
H76 C58 0.932 . S
H77 C59 0.929 . S
H78 C60 0.928 . S
H79 C62 0.932 . S
C80 C81 1.264 . S
C80 C85 1.479 . S
C80 C90 1.465 . S
C81 C80 1.264 . S
C81 C83 1.339 . S
C81 H108 0.931 . S
C82 C83 1.395 . S
C82 C84 1.320 . S
C83 C81 1.339 . S
C83 C82 1.395 . S
C83 H109 0.929 . S
C84 C82 1.320 . S
C84 C85 1.405 . S
C84 H110 0.930 . S
C85 C80 1.479 . S
C85 C84 1.405 . S
C85 H111 0.931 . S
U86 O87 2.454 . S
U86 O88 2.458 . S
U86 C89 2.984 . S
U86 C90 2.847 . S
U86 C103 2.882 . S
U86 O104 2.441 . S
U86 O105 2.420 . S
U86 O106 2.455 . S
U86 O107 2.449 . S
O87 U86 2.454 . S
O87 C89 1.353 . S
O88 U86 2.458 . S
O88 C89 1.286 . S
C89 U86 2.984 . S
C89 O87 1.353 . S
C89 O88 1.286 . S
C89 C91 1.363 . S
C90 C80 1.465 . S
C90 U86 2.847 . S
C90 O104 1.249 . S
C90 O105 1.202 . S
C91 C89 1.363 . S
C91 C93 1.408 . S
C91 C96 1.342 . S
C92 C93 1.310 . S
C92 C95 1.461 . S
C92 H112 0.932 . S
C93 C91 1.408 . S
C93 C92 1.310 . S
C93 H113 0.930 . S
C94 C95 1.474 . S
C94 C96 1.285 . S
C94 H114 0.929 . S
C95 C92 1.461 . S
C95 C94 1.474 . S
C96 C91 1.342 . S
C96 C94 1.285 . S
C96 H115 0.930 . S
C97 C100 1.424 . S
C97 C102 1.245 . S
C97 C103 1.428 . S
C98 C101 1.260 . S
C98 C102 1.477 . S
C98 H116 0.932 . S
C99 C100 1.384 . S
C99 C101 1.479 . S
C99 H117 0.929 . S
C100 C97 1.424 . S
C100 C99 1.384 . S
C100 H118 0.928 . S
C101 C98 1.260 . S
C101 C99 1.479 . S
C102 C97 1.245 . S
C102 C98 1.477 . S
C102 H119 0.932 . S
C103 U86 2.882 . S
C103 C97 1.428 . S
C103 O106 1.301 . S
C103 O107 1.282 . S
O104 U86 2.441 . S
O104 C90 1.249 . S
O105 U86 2.420 . S
O105 C90 1.202 . S
O106 U86 2.455 . S
O106 C103 1.301 . S
O107 U86 2.449 . S
O107 C103 1.282 . S
H108 C81 0.931 . S
H109 C83 0.929 . S
H110 C84 0.930 . S
H111 C85 0.931 . S
H112 C92 0.932 . S
H113 C93 0.930 . S
H114 C94 0.929 . S
H115 C96 0.930 . S
H116 C98 0.932 . S
H117 C99 0.929 . S
H118 C100 0.928 . S
H119 C102 0.932 . S
C120 C121 1.264 . S
C120 C125 1.479 . S
C120 C130 1.465 . S
C121 C120 1.264 . S
C121 C123 1.339 . S
C121 H148 0.931 . S
C122 C123 1.395 . S
C122 C124 1.320 . S
C123 C121 1.339 . S
C123 C122 1.395 . S
C123 H149 0.929 . S
C124 C122 1.320 . S
C124 C125 1.405 . S
C124 H150 0.930 . S
C125 C120 1.479 . S
C125 C124 1.405 . S
C125 H151 0.931 . S
U126 O127 2.454 . S
U126 O128 2.458 . S
U126 C129 2.984 . S
U126 C130 2.847 . S
U126 C143 2.882 . S
U126 O144 2.441 . S
U126 O145 2.420 . S
U126 O146 2.455 . S
U126 O147 2.449 . S
O127 U126 2.454 . S
O127 C129 1.353 . S
O128 U126 2.458 . S
O128 C129 1.286 . S
C129 U126 2.984 . S
C129 O127 1.353 . S
C129 O128 1.286 . S
C129 C131 1.363 . S
C130 C120 1.465 . S
C130 U126 2.847 . S
C130 O144 1.249 . S
C130 O145 1.202 . S
C131 C129 1.363 . S
C131 C133 1.408 . S
C131 C136 1.342 . S
C132 C133 1.310 . S
C132 C135 1.461 . S
C132 H152 0.932 . S
C133 C131 1.408 . S
C133 C132 1.310 . S
C133 H153 0.930 . S
C134 C135 1.474 . S
C134 C136 1.285 . S
C134 H154 0.929 . S
C135 C132 1.461 . S
C135 C134 1.474 . S
C136 C131 1.342 . S
C136 C134 1.285 . S
C136 H155 0.930 . S
C137 C140 1.424 . S
C137 C142 1.245 . S
C137 C143 1.428 . S
C138 C141 1.260 . S
C138 C142 1.477 . S
C138 H156 0.932 . S
C139 C140 1.384 . S
C139 C141 1.479 . S
C139 H157 0.929 . S
C140 C137 1.424 . S
C140 C139 1.384 . S
C140 H158 0.928 . S
C141 C138 1.260 . S
C141 C139 1.479 . S
C142 C137 1.245 . S
C142 C138 1.477 . S
C142 H159 0.932 . S
C143 U126 2.882 . S
C143 C137 1.428 . S
C143 O146 1.301 . S
C143 O147 1.282 . S
O144 U126 2.441 . S
O144 C130 1.249 . S
O145 U126 2.420 . S
O145 C130 1.202 . S
O146 U126 2.455 . S
O146 C143 1.301 . S
O147 U126 2.449 . S
O147 C143 1.282 . S
H148 C121 0.931 . S
H149 C123 0.929 . S
H150 C124 0.930 . S
H151 C125 0.931 . S
H152 C132 0.932 . S
H153 C133 0.930 . S
H154 C134 0.929 . S
H155 C136 0.930 . S
H156 C138 0.932 . S
H157 C139 0.929 . S
H158 C140 0.928 . S
H159 C142 0.932 . S
C160 C161 1.264 . S
C160 C165 1.479 . S
C160 C170 1.465 . S
C161 C160 1.264 . S
C161 C163 1.339 . S
C161 H188 0.931 . S
C162 C163 1.395 . S
C162 C164 1.320 . S
C163 C161 1.339 . S
C163 C162 1.395 . S
C163 H189 0.929 . S
C164 C162 1.320 . S
C164 C165 1.405 . S
C164 H190 0.930 . S
C165 C160 1.479 . S
C165 C164 1.405 . S
C165 H191 0.931 . S
U166 O167 2.454 . S
U166 O168 2.458 . S
U166 C169 2.984 . S
U166 C170 2.847 . S
U166 C183 2.882 . S
U166 O184 2.441 . S
U166 O185 2.420 . S
U166 O186 2.455 . S
U166 O187 2.449 . S
O167 U166 2.454 . S
O167 C169 1.353 . S
O168 U166 2.458 . S
O168 C169 1.286 . S
C169 U166 2.984 . S
C169 O167 1.353 . S
C169 O168 1.286 . S
C169 C171 1.363 . S
C170 C160 1.465 . S
C170 U166 2.847 . S
C170 O184 1.249 . S
C170 O185 1.202 . S
C171 C169 1.363 . S
C171 C173 1.408 . S
C171 C176 1.342 . S
C172 C173 1.310 . S
C172 C175 1.461 . S
C172 H192 0.932 . S
C173 C171 1.408 . S
C173 C172 1.310 . S
C173 H193 0.930 . S
C174 C175 1.474 . S
C174 C176 1.285 . S
C174 H194 0.929 . S
C175 C172 1.461 . S
C175 C174 1.474 . S
C176 C171 1.342 . S
C176 C174 1.285 . S
C176 H195 0.930 . S
C177 C180 1.424 . S
C177 C182 1.245 . S
C177 C183 1.428 . S
C178 C181 1.260 . S
C178 C182 1.477 . S
C178 H196 0.932 . S
C179 C180 1.384 . S
C179 C181 1.479 . S
C179 H197 0.929 . S
C180 C177 1.424 . S
C180 C179 1.384 . S
C180 H198 0.928 . S
C181 C178 1.260 . S
C181 C179 1.479 . S
C182 C177 1.245 . S
C182 C178 1.477 . S
C182 H199 0.932 . S
C183 U166 2.882 . S
C183 C177 1.428 . S
C183 O186 1.301 . S
C183 O187 1.282 . S
O184 U166 2.441 . S
O184 C170 1.249 . S
O185 U166 2.420 . S
O185 C170 1.202 . S
O186 U166 2.455 . S
O186 C183 1.301 . S
O187 U166 2.449 . S
O187 C183 1.282 . S
H188 C161 0.931 . S
H189 C163 0.929 . S
H190 C164 0.930 . S
H191 C165 0.931 . S
H192 C172 0.932 . S
H193 C173 0.930 . S
H194 C174 0.929 . S
H195 C176 0.930 . S
H196 C178 0.932 . S
H197 C179 0.929 . S
H198 C180 0.928 . S
H199 C182 0.932 . S
C200 C201 1.264 . S
C200 C205 1.479 . S
C200 C210 1.465 . S
C201 C200 1.264 . S
C201 C203 1.339 . S
C201 H228 0.931 . S
C202 C203 1.395 . S
C202 C204 1.320 . S
C203 C201 1.339 . S
C203 C202 1.395 . S
C203 H229 0.929 . S
C204 C202 1.320 . S
C204 C205 1.405 . S
C204 H230 0.930 . S
C205 C200 1.479 . S
C205 C204 1.405 . S
C205 H231 0.931 . S
U206 O207 2.454 . S
U206 O208 2.458 . S
U206 C209 2.984 . S
U206 C210 2.847 . S
U206 C223 2.882 . S
U206 O224 2.441 . S
U206 O225 2.420 . S
U206 O226 2.455 . S
U206 O227 2.449 . S
O207 U206 2.454 . S
O207 C209 1.353 . S
O208 U206 2.458 . S
O208 C209 1.286 . S
C209 U206 2.984 . S
C209 O207 1.353 . S
C209 O208 1.286 . S
C209 C211 1.363 . S
C210 C200 1.465 . S
C210 U206 2.847 . S
C210 O224 1.249 . S
C210 O225 1.202 . S
C211 C209 1.363 . S
C211 C213 1.408 . S
C211 C216 1.342 . S
C212 C213 1.310 . S
C212 C215 1.461 . S
C212 H232 0.932 . S
C213 C211 1.408 . S
C213 C212 1.310 . S
C213 H233 0.930 . S
C214 C215 1.474 . S
C214 C216 1.285 . S
C214 H234 0.929 . S
C215 C212 1.461 . S
C215 C214 1.474 . S
C216 C211 1.342 . S
C216 C214 1.285 . S
C216 H235 0.930 . S
C217 C220 1.424 . S
C217 C222 1.245 . S
C217 C223 1.428 . S
C218 C221 1.260 . S
C218 C222 1.477 . S
C218 H236 0.932 . S
C219 C220 1.384 . S
C219 C221 1.479 . S
C219 H237 0.929 . S
C220 C217 1.424 . S
C220 C219 1.384 . S
C220 H238 0.928 . S
C221 C218 1.260 . S
C221 C219 1.479 . S
C222 C217 1.245 . S
C222 C218 1.477 . S
C222 H239 0.932 . S
C223 U206 2.882 . S
C223 C217 1.428 . S
C223 O226 1.301 . S
C223 O227 1.282 . S
O224 U206 2.441 . S
O224 C210 1.249 . S
O225 U206 2.420 . S
O225 C210 1.202 . S
O226 U206 2.455 . S
O226 C223 1.301 . S
O227 U206 2.449 . S
O227 C223 1.282 . S
H228 C201 0.931 . S
H229 C203 0.929 . S
H230 C204 0.930 . S
H231 C205 0.931 . S
H232 C212 0.932 . S
H233 C213 0.930 . S
H234 C214 0.929 . S
H235 C216 0.930 . S
H236 C218 0.932 . S
H237 C219 0.929 . S
H238 C220 0.928 . S
H239 C222 0.932 . S
C240 C241 1.264 . S
C240 C245 1.479 . S
C240 C250 1.465 . S
C241 C240 1.264 . S
C241 C243 1.339 . S
C241 H268 0.931 . S
C242 C243 1.395 . S
C242 C244 1.320 . S
C243 C241 1.339 . S
C243 C242 1.395 . S
C243 H269 0.929 . S
C244 C242 1.320 . S
C244 C245 1.405 . S
C244 H270 0.930 . S
C245 C240 1.479 . S
C245 C244 1.405 . S
C245 H271 0.931 . S
U246 O247 2.454 . S
U246 O248 2.458 . S
U246 C249 2.984 . S
U246 C250 2.847 . S
U246 C263 2.882 . S
U246 O264 2.441 . S
U246 O265 2.420 . S
U246 O266 2.455 . S
U246 O267 2.449 . S
O247 U246 2.454 . S
O247 C249 1.353 . S
O248 U246 2.458 . S
O248 C249 1.286 . S
C249 U246 2.984 . S
C249 O247 1.353 . S
C249 O248 1.286 . S
C249 C251 1.363 . S
C250 C240 1.465 . S
C250 U246 2.847 . S
C250 O264 1.249 . S
C250 O265 1.202 . S
C251 C249 1.363 . S
C251 C253 1.408 . S
C251 C256 1.342 . S
C252 C253 1.310 . S
C252 C255 1.461 . S
C252 H272 0.932 . S
C253 C251 1.408 . S
C253 C252 1.310 . S
C253 H273 0.930 . S
C254 C255 1.474 . S
C254 C256 1.285 . S
C254 H274 0.929 . S
C255 C252 1.461 . S
C255 C254 1.474 . S
C256 C251 1.342 . S
C256 C254 1.285 . S
C256 H275 0.930 . S
C257 C260 1.424 . S
C257 C262 1.245 . S
C257 C263 1.428 . S
C258 C261 1.260 . S
C258 C262 1.477 . S
C258 H276 0.932 . S
C259 C260 1.384 . S
C259 C261 1.479 . S
C259 H277 0.929 . S
C260 C257 1.424 . S
C260 C259 1.384 . S
C260 H278 0.928 . S
C261 C258 1.260 . S
C261 C259 1.479 . S
C262 C257 1.245 . S
C262 C258 1.477 . S
C262 H279 0.932 . S
C263 U246 2.882 . S
C263 C257 1.428 . S
C263 O266 1.301 . S
C263 O267 1.282 . S
O264 U246 2.441 . S
O264 C250 1.249 . S
O265 U246 2.420 . S
O265 C250 1.202 . S
O266 U246 2.455 . S
O266 C263 1.301 . S
O267 U246 2.449 . S
O267 C263 1.282 . S
H268 C241 0.931 . S
H269 C243 0.929 . S
H270 C244 0.930 . S
H271 C245 0.931 . S
H272 C252 0.932 . S
H273 C253 0.930 . S
H274 C254 0.929 . S
H275 C256 0.930 . S
H276 C258 0.932 . S
H277 C259 0.929 . S
H278 C260 0.928 . S
H279 C262 0.932 . S
C280 C281 1.264 . S
C280 C285 1.479 . S
C280 C290 1.465 . S
C281 C280 1.264 . S
C281 C283 1.339 . S
C281 H308 0.931 . S
C282 C283 1.395 . S
C282 C284 1.320 . S
C283 C281 1.339 . S
C283 C282 1.395 . S
C283 H309 0.929 . S
C284 C282 1.320 . S
C284 C285 1.405 . S
C284 H310 0.930 . S
C285 C280 1.479 . S
C285 C284 1.405 . S
C285 H311 0.931 . S
U286 O287 2.454 . S
U286 O288 2.458 . S
U286 C289 2.984 . S
U286 C290 2.847 . S
U286 C303 2.882 . S
U286 O304 2.441 . S
U286 O305 2.420 . S
U286 O306 2.455 . S
U286 O307 2.449 . S
O287 U286 2.454 . S
O287 C289 1.353 . S
O288 U286 2.458 . S
O288 C289 1.286 . S
C289 U286 2.984 . S
C289 O287 1.353 . S
C289 O288 1.286 . S
C289 C291 1.363 . S
C290 C280 1.465 . S
C290 U286 2.847 . S
C290 O304 1.249 . S
C290 O305 1.202 . S
C291 C289 1.363 . S
C291 C293 1.408 . S
C291 C296 1.342 . S
C292 C293 1.310 . S
C292 C295 1.461 . S
C292 H312 0.932 . S
C293 C291 1.408 . S
C293 C292 1.310 . S
C293 H313 0.930 . S
C294 C295 1.474 . S
C294 C296 1.285 . S
C294 H314 0.929 . S
C295 C292 1.461 . S
C295 C294 1.474 . S
C296 C291 1.342 . S
C296 C294 1.285 . S
C296 H315 0.930 . S
C297 C300 1.424 . S
C297 C302 1.245 . S
C297 C303 1.428 . S
C298 C301 1.260 . S
C298 C302 1.477 . S
C298 H316 0.932 . S
C299 C300 1.384 . S
C299 C301 1.479 . S
C299 H317 0.929 . S
C300 C297 1.424 . S
C300 C299 1.384 . S
C300 H318 0.928 . S
C301 C298 1.260 . S
C301 C299 1.479 . S
C302 C297 1.245 . S
C302 C298 1.477 . S
C302 H319 0.932 . S
C303 U286 2.882 . S
C303 C297 1.428 . S
C303 O306 1.301 . S
C303 O307 1.282 . S
O304 U286 2.441 . S
O304 C290 1.249 . S
O305 U286 2.420 . S
O305 C290 1.202 . S
O306 U286 2.455 . S
O306 C303 1.301 . S
O307 U286 2.449 . S
O307 C303 1.282 . S
H308 C281 0.931 . S
H309 C283 0.929 . S
H310 C284 0.930 . S
H311 C285 0.931 . S
H312 C292 0.932 . S
H313 C293 0.930 . S
H314 C294 0.929 . S
H315 C296 0.930 . S
H316 C298 0.932 . S
H317 C299 0.929 . S
H318 C300 0.928 . S
H319 C302 0.932 . S
C320 C321 1.264 . S
C320 C325 1.479 . S
C320 C330 1.465 . S
C321 C320 1.264 . S
C321 C323 1.339 . S
C321 H348 0.931 . S
C322 C323 1.395 . S
C322 C324 1.320 . S
C323 C321 1.339 . S
C323 C322 1.395 . S
C323 H349 0.929 . S
C324 C322 1.320 . S
C324 C325 1.405 . S
C324 H350 0.930 . S
C325 C320 1.479 . S
C325 C324 1.405 . S
C325 H351 0.931 . S
U326 O327 2.454 . S
U326 O328 2.458 . S
U326 C329 2.984 . S
U326 C330 2.847 . S
U326 C343 2.882 . S
U326 O344 2.441 . S
U326 O345 2.420 . S
U326 O346 2.455 . S
U326 O347 2.449 . S
O327 U326 2.454 . S
O327 C329 1.353 . S
O328 U326 2.458 . S
O328 C329 1.286 . S
C329 U326 2.984 . S
C329 O327 1.353 . S
C329 O328 1.286 . S
C329 C331 1.363 . S
C330 C320 1.465 . S
C330 U326 2.847 . S
C330 O344 1.249 . S
C330 O345 1.202 . S
C331 C329 1.363 . S
C331 C333 1.408 . S
C331 C336 1.342 . S
C332 C333 1.310 . S
C332 C335 1.461 . S
C332 H352 0.932 . S
C333 C331 1.408 . S
C333 C332 1.310 . S
C333 H353 0.930 . S
C334 C335 1.474 . S
C334 C336 1.285 . S
C334 H354 0.929 . S
C335 C332 1.461 . S
C335 C334 1.474 . S
C336 C331 1.342 . S
C336 C334 1.285 . S
C336 H355 0.930 . S
C337 C340 1.424 . S
C337 C342 1.245 . S
C337 C343 1.428 . S
C338 C341 1.260 . S
C338 C342 1.477 . S
C338 H356 0.932 . S
C339 C340 1.384 . S
C339 C341 1.479 . S
C339 H357 0.929 . S
C340 C337 1.424 . S
C340 C339 1.384 . S
C340 H358 0.928 . S
C341 C338 1.260 . S
C341 C339 1.479 . S
C342 C337 1.245 . S
C342 C338 1.477 . S
C342 H359 0.932 . S
C343 U326 2.882 . S
C343 C337 1.428 . S
C343 O346 1.301 . S
C343 O347 1.282 . S
O344 U326 2.441 . S
O344 C330 1.249 . S
O345 U326 2.420 . S
O345 C330 1.202 . S
O346 U326 2.455 . S
O346 C343 1.301 . S
O347 U326 2.449 . S
O347 C343 1.282 . S
H348 C321 0.931 . S
H349 C323 0.929 . S
H350 C324 0.930 . S
H351 C325 0.931 . S
H352 C332 0.932 . S
H353 C333 0.930 . S
H354 C334 0.929 . S
H355 C336 0.930 . S
H356 C338 0.932 . S
H357 C339 0.929 . S
H358 C340 0.928 . S
H359 C342 0.932 . S
C360 C361 1.264 . S
C360 C365 1.479 . S
C360 C370 1.465 . S
C361 C360 1.264 . S
C361 C363 1.339 . S
C361 H388 0.931 . S
C362 C363 1.395 . S
C362 C364 1.320 . S
C363 C361 1.339 . S
C363 C362 1.395 . S
C363 H389 0.929 . S
C364 C362 1.320 . S
C364 C365 1.405 . S
C364 H390 0.930 . S
C365 C360 1.479 . S
C365 C364 1.405 . S
C365 H391 0.931 . S
U366 O367 2.454 . S
U366 O368 2.458 . S
U366 C369 2.984 . S
U366 C370 2.847 . S
U366 C383 2.882 . S
U366 O384 2.441 . S
U366 O385 2.420 . S
U366 O386 2.455 . S
U366 O387 2.449 . S
O367 U366 2.454 . S
O367 C369 1.353 . S
O368 U366 2.458 . S
O368 C369 1.286 . S
C369 U366 2.984 . S
C369 O367 1.353 . S
C369 O368 1.286 . S
C369 C371 1.363 . S
C370 C360 1.465 . S
C370 U366 2.847 . S
C370 O384 1.249 . S
C370 O385 1.202 . S
C371 C369 1.363 . S
C371 C373 1.408 . S
C371 C376 1.342 . S
C372 C373 1.310 . S
C372 C375 1.461 . S
C372 H392 0.932 . S
C373 C371 1.408 . S
C373 C372 1.310 . S
C373 H393 0.930 . S
C374 C375 1.474 . S
C374 C376 1.285 . S
C374 H394 0.929 . S
C375 C372 1.461 . S
C375 C374 1.474 . S
C376 C371 1.342 . S
C376 C374 1.285 . S
C376 H395 0.930 . S
C377 C380 1.424 . S
C377 C382 1.245 . S
C377 C383 1.428 . S
C378 C381 1.260 . S
C378 C382 1.477 . S
C378 H396 0.932 . S
C379 C380 1.384 . S
C379 C381 1.479 . S
C379 H397 0.929 . S
C380 C377 1.424 . S
C380 C379 1.384 . S
C380 H398 0.928 . S
C381 C378 1.260 . S
C381 C379 1.479 . S
C382 C377 1.245 . S
C382 C378 1.477 . S
C382 H399 0.932 . S
C383 U366 2.882 . S
C383 C377 1.428 . S
C383 O386 1.301 . S
C383 O387 1.282 . S
O384 U366 2.441 . S
O384 C370 1.249 . S
O385 U366 2.420 . S
O385 C370 1.202 . S
O386 U366 2.455 . S
O386 C383 1.301 . S
O387 U366 2.449 . S
O387 C383 1.282 . S
H388 C361 0.931 . S
H389 C363 0.929 . S
H390 C364 0.930 . S
H391 C365 0.931 . S
H392 C372 0.932 . S
H393 C373 0.930 . S
H394 C374 0.929 . S
H395 C376 0.930 . S
H396 C378 0.932 . S
H397 C379 0.929 . S
H398 C380 0.928 . S
H399 C382 0.932 . S
C400 C401 1.264 . S
C400 C405 1.479 . S
C400 C410 1.465 . S
C401 C400 1.264 . S
C401 C403 1.339 . S
C401 H428 0.931 . S
C402 C403 1.395 . S
C402 C404 1.320 . S
C403 C401 1.339 . S
C403 C402 1.395 . S
C403 H429 0.929 . S
C404 C402 1.320 . S
C404 C405 1.405 . S
C404 H430 0.930 . S
C405 C400 1.479 . S
C405 C404 1.405 . S
C405 H431 0.931 . S
U406 O407 2.454 . S
U406 O408 2.458 . S
U406 C409 2.984 . S
U406 C410 2.847 . S
U406 C423 2.882 . S
U406 O424 2.441 . S
U406 O425 2.420 . S
U406 O426 2.455 . S
U406 O427 2.449 . S
O407 U406 2.454 . S
O407 C409 1.353 . S
O408 U406 2.458 . S
O408 C409 1.286 . S
C409 U406 2.984 . S
C409 O407 1.353 . S
C409 O408 1.286 . S
C409 C411 1.363 . S
C410 C400 1.465 . S
C410 U406 2.847 . S
C410 O424 1.249 . S
C410 O425 1.202 . S
C411 C409 1.363 . S
C411 C413 1.408 . S
C411 C416 1.342 . S
C412 C413 1.310 . S
C412 C415 1.461 . S
C412 H432 0.932 . S
C413 C411 1.408 . S
C413 C412 1.310 . S
C413 H433 0.930 . S
C414 C415 1.474 . S
C414 C416 1.285 . S
C414 H434 0.929 . S
C415 C412 1.461 . S
C415 C414 1.474 . S
C416 C411 1.342 . S
C416 C414 1.285 . S
C416 H435 0.930 . S
C417 C420 1.424 . S
C417 C422 1.245 . S
C417 C423 1.428 . S
C418 C421 1.260 . S
C418 C422 1.477 . S
C418 H436 0.932 . S
C419 C420 1.384 . S
C419 C421 1.479 . S
C419 H437 0.929 . S
C420 C417 1.424 . S
C420 C419 1.384 . S
C420 H438 0.928 . S
C421 C418 1.260 . S
C421 C419 1.479 . S
C422 C417 1.245 . S
C422 C418 1.477 . S
C422 H439 0.932 . S
C423 U406 2.882 . S
C423 C417 1.428 . S
C423 O426 1.301 . S
C423 O427 1.282 . S
O424 U406 2.441 . S
O424 C410 1.249 . S
O425 U406 2.420 . S
O425 C410 1.202 . S
O426 U406 2.455 . S
O426 C423 1.301 . S
O427 U406 2.449 . S
O427 C423 1.282 . S
H428 C401 0.931 . S
H429 C403 0.929 . S
H430 C404 0.930 . S
H431 C405 0.931 . S
H432 C412 0.932 . S
H433 C413 0.930 . S
H434 C414 0.929 . S
H435 C416 0.930 . S
H436 C418 0.932 . S
H437 C419 0.929 . S
H438 C420 0.928 . S
H439 C422 0.932 . S
C440 C441 1.264 . S
C440 C445 1.479 . S
C440 C450 1.465 . S
C441 C440 1.264 . S
C441 C443 1.339 . S
C441 H468 0.931 . S
C442 C443 1.395 . S
C442 C444 1.320 . S
C443 C441 1.339 . S
C443 C442 1.395 . S
C443 H469 0.929 . S
C444 C442 1.320 . S
C444 C445 1.405 . S
C444 H470 0.930 . S
C445 C440 1.479 . S
C445 C444 1.405 . S
C445 H471 0.931 . S
U446 O447 2.454 . S
U446 O448 2.458 . S
U446 C449 2.984 . S
U446 C450 2.847 . S
U446 C463 2.882 . S
U446 O464 2.441 . S
U446 O465 2.420 . S
U446 O466 2.455 . S
U446 O467 2.449 . S
O447 U446 2.454 . S
O447 C449 1.353 . S
O448 U446 2.458 . S
O448 C449 1.286 . S
C449 U446 2.984 . S
C449 O447 1.353 . S
C449 O448 1.286 . S
C449 C451 1.363 . S
C450 C440 1.465 . S
C450 U446 2.847 . S
C450 O464 1.249 . S
C450 O465 1.202 . S
C451 C449 1.363 . S
C451 C453 1.408 . S
C451 C456 1.342 . S
C452 C453 1.310 . S
C452 C455 1.461 . S
C452 H472 0.932 . S
C453 C451 1.408 . S
C453 C452 1.310 . S
C453 H473 0.930 . S
C454 C455 1.474 . S
C454 C456 1.285 . S
C454 H474 0.929 . S
C455 C452 1.461 . S
C455 C454 1.474 . S
C456 C451 1.342 . S
C456 C454 1.285 . S
C456 H475 0.930 . S
C457 C460 1.424 . S
C457 C462 1.245 . S
C457 C463 1.428 . S
C458 C461 1.260 . S
C458 C462 1.477 . S
C458 H476 0.932 . S
C459 C460 1.384 . S
C459 C461 1.479 . S
C459 H477 0.929 . S
C460 C457 1.424 . S
C460 C459 1.384 . S
C460 H478 0.928 . S
C461 C458 1.260 . S
C461 C459 1.479 . S
C462 C457 1.245 . S
C462 C458 1.477 . S
C462 H479 0.932 . S
C463 U446 2.882 . S
C463 C457 1.428 . S
C463 O466 1.301 . S
C463 O467 1.282 . S
O464 U446 2.441 . S
O464 C450 1.249 . S
O465 U446 2.420 . S
O465 C450 1.202 . S
O466 U446 2.455 . S
O466 C463 1.301 . S
O467 U446 2.449 . S
O467 C463 1.282 . S
H468 C441 0.931 . S
H469 C443 0.929 . S
H470 C444 0.930 . S
H471 C445 0.931 . S
H472 C452 0.932 . S
H473 C453 0.930 . S
H474 C454 0.929 . S
H475 C456 0.930 . S
H476 C458 0.932 . S
H477 C459 0.929 . S
H478 C460 0.928 . S
H479 C462 0.932 . S
C480 C481 1.264 . S
C480 C485 1.479 . S
C480 C490 1.465 . S
C481 C480 1.264 . S
C481 C483 1.339 . S
C481 H508 0.931 . S
C482 C483 1.395 . S
C482 C484 1.320 . S
C483 C481 1.339 . S
C483 C482 1.395 . S
C483 H509 0.929 . S
C484 C482 1.320 . S
C484 C485 1.405 . S
C484 H510 0.930 . S
C485 C480 1.479 . S
C485 C484 1.405 . S
C485 H511 0.931 . S
U486 O487 2.454 . S
U486 O488 2.458 . S
U486 C489 2.984 . S
U486 C490 2.847 . S
U486 C503 2.882 . S
U486 O504 2.441 . S
U486 O505 2.420 . S
U486 O506 2.455 . S
U486 O507 2.449 . S
O487 U486 2.454 . S
O487 C489 1.353 . S
O488 U486 2.458 . S
O488 C489 1.286 . S
C489 U486 2.984 . S
C489 O487 1.353 . S
C489 O488 1.286 . S
C489 C491 1.363 . S
C490 C480 1.465 . S
C490 U486 2.847 . S
C490 O504 1.249 . S
C490 O505 1.202 . S
C491 C489 1.363 . S
C491 C493 1.408 . S
C491 C496 1.342 . S
C492 C493 1.310 . S
C492 C495 1.461 . S
C492 H512 0.932 . S
C493 C491 1.408 . S
C493 C492 1.310 . S
C493 H513 0.930 . S
C494 C495 1.474 . S
C494 C496 1.285 . S
C494 H514 0.929 . S
C495 C492 1.461 . S
C495 C494 1.474 . S
C496 C491 1.342 . S
C496 C494 1.285 . S
C496 H515 0.930 . S
C497 C500 1.424 . S
C497 C502 1.245 . S
C497 C503 1.428 . S
C498 C501 1.260 . S
C498 C502 1.477 . S
C498 H516 0.932 . S
C499 C500 1.384 . S
C499 C501 1.479 . S
C499 H517 0.929 . S
C500 C497 1.424 . S
C500 C499 1.384 . S
C500 H518 0.928 . S
C501 C498 1.260 . S
C501 C499 1.479 . S
C502 C497 1.245 . S
C502 C498 1.477 . S
C502 H519 0.932 . S
C503 U486 2.882 . S
C503 C497 1.428 . S
C503 O506 1.301 . S
C503 O507 1.282 . S
O504 U486 2.441 . S
O504 C490 1.249 . S
O505 U486 2.420 . S
O505 C490 1.202 . S
O506 U486 2.455 . S
O506 C503 1.301 . S
O507 U486 2.449 . S
O507 C503 1.282 . S
H508 C481 0.931 . S
H509 C483 0.929 . S
H510 C484 0.930 . S
H511 C485 0.931 . S
H512 C492 0.932 . S
H513 C493 0.930 . S
H514 C494 0.929 . S
H515 C496 0.930 . S
H516 C498 0.932 . S
H517 C499 0.929 . S
H518 C500 0.928 . S
H519 C502 0.932 . S
C520 C521 1.264 . S
C520 C525 1.479 . S
C520 C530 1.465 . S
C521 C520 1.264 . S
C521 C523 1.339 . S
C521 H548 0.931 . S
C522 C523 1.395 . S
C522 C524 1.320 . S
C523 C521 1.339 . S
C523 C522 1.395 . S
C523 H549 0.929 . S
C524 C522 1.320 . S
C524 C525 1.405 . S
C524 H550 0.930 . S
C525 C520 1.479 . S
C525 C524 1.405 . S
C525 H551 0.931 . S
U526 O527 2.454 . S
U526 O528 2.458 . S
U526 C529 2.984 . S
U526 C530 2.847 . S
U526 C543 2.882 . S
U526 O544 2.441 . S
U526 O545 2.420 . S
U526 O546 2.455 . S
U526 O547 2.449 . S
O527 U526 2.454 . S
O527 C529 1.353 . S
O528 U526 2.458 . S
O528 C529 1.286 . S
C529 U526 2.984 . S
C529 O527 1.353 . S
C529 O528 1.286 . S
C529 C531 1.363 . S
C530 C520 1.465 . S
C530 U526 2.847 . S
C530 O544 1.249 . S
C530 O545 1.202 . S
C531 C529 1.363 . S
C531 C533 1.408 . S
C531 C536 1.342 . S
C532 C533 1.310 . S
C532 C535 1.461 . S
C532 H552 0.932 . S
C533 C531 1.408 . S
C533 C532 1.310 . S
C533 H553 0.930 . S
C534 C535 1.474 . S
C534 C536 1.285 . S
C534 H554 0.929 . S
C535 C532 1.461 . S
C535 C534 1.474 . S
C536 C531 1.342 . S
C536 C534 1.285 . S
C536 H555 0.930 . S
C537 C540 1.424 . S
C537 C542 1.245 . S
C537 C543 1.428 . S
C538 C541 1.260 . S
C538 C542 1.477 . S
C538 H556 0.932 . S
C539 C540 1.384 . S
C539 C541 1.479 . S
C539 H557 0.929 . S
C540 C537 1.424 . S
C540 C539 1.384 . S
C540 H558 0.928 . S
C541 C538 1.260 . S
C541 C539 1.479 . S
C542 C537 1.245 . S
C542 C538 1.477 . S
C542 H559 0.932 . S
C543 U526 2.882 . S
C543 C537 1.428 . S
C543 O546 1.301 . S
C543 O547 1.282 . S
O544 U526 2.441 . S
O544 C530 1.249 . S
O545 U526 2.420 . S
O545 C530 1.202 . S
O546 U526 2.455 . S
O546 C543 1.301 . S
O547 U526 2.449 . S
O547 C543 1.282 . S
H548 C521 0.931 . S
H549 C523 0.929 . S
H550 C524 0.930 . S
H551 C525 0.931 . S
H552 C532 0.932 . S
H553 C533 0.930 . S
H554 C534 0.929 . S
H555 C536 0.930 . S
H556 C538 0.932 . S
H557 C539 0.929 . S
H558 C540 0.928 . S
H559 C542 0.932 . S
C560 C561 1.264 . S
C560 C565 1.479 . S
C560 C570 1.465 . S
C561 C560 1.264 . S
C561 C563 1.339 . S
C561 H588 0.931 . S
C562 C563 1.395 . S
C562 C564 1.320 . S
C563 C561 1.339 . S
C563 C562 1.395 . S
C563 H589 0.929 . S
C564 C562 1.320 . S
C564 C565 1.405 . S
C564 H590 0.930 . S
C565 C560 1.479 . S
C565 C564 1.405 . S
C565 H591 0.931 . S
U566 O567 2.454 . S
U566 O568 2.458 . S
U566 C569 2.984 . S
U566 C570 2.847 . S
U566 C583 2.882 . S
U566 O584 2.441 . S
U566 O585 2.420 . S
U566 O586 2.455 . S
U566 O587 2.449 . S
O567 U566 2.454 . S
O567 C569 1.353 . S
O568 U566 2.458 . S
O568 C569 1.286 . S
C569 U566 2.984 . S
C569 O567 1.353 . S
C569 O568 1.286 . S
C569 C571 1.363 . S
C570 C560 1.465 . S
C570 U566 2.847 . S
C570 O584 1.249 . S
C570 O585 1.202 . S
C571 C569 1.363 . S
C571 C573 1.408 . S
C571 C576 1.342 . S
C572 C573 1.310 . S
C572 C575 1.461 . S
C572 H592 0.932 . S
C573 C571 1.408 . S
C573 C572 1.310 . S
C573 H593 0.930 . S
C574 C575 1.474 . S
C574 C576 1.285 . S
C574 H594 0.929 . S
C575 C572 1.461 . S
C575 C574 1.474 . S
C576 C571 1.342 . S
C576 C574 1.285 . S
C576 H595 0.930 . S
C577 C580 1.424 . S
C577 C582 1.245 . S
C577 C583 1.428 . S
C578 C581 1.260 . S
C578 C582 1.477 . S
C578 H596 0.932 . S
C579 C580 1.384 . S
C579 C581 1.479 . S
C579 H597 0.929 . S
C580 C577 1.424 . S
C580 C579 1.384 . S
C580 H598 0.928 . S
C581 C578 1.260 . S
C581 C579 1.479 . S
C582 C577 1.245 . S
C582 C578 1.477 . S
C582 H599 0.932 . S
C583 U566 2.882 . S
C583 C577 1.428 . S
C583 O586 1.301 . S
C583 O587 1.282 . S
O584 U566 2.441 . S
O584 C570 1.249 . S
O585 U566 2.420 . S
O585 C570 1.202 . S
O586 U566 2.455 . S
O586 C583 1.301 . S
O587 U566 2.449 . S
O587 C583 1.282 . S
H588 C561 0.931 . S
H589 C563 0.929 . S
H590 C564 0.930 . S
H591 C565 0.931 . S
H592 C572 0.932 . S
H593 C573 0.930 . S
H594 C574 0.929 . S
H595 C576 0.930 . S
H596 C578 0.932 . S
H597 C579 0.929 . S
H598 C580 0.928 . S
H599 C582 0.932 . S
C600 C601 1.264 . S
C600 C605 1.479 . S
C600 C610 1.465 . S
C601 C600 1.264 . S
C601 C603 1.339 . S
C601 H628 0.931 . S
C602 C603 1.395 . S
C602 C604 1.320 . S
C603 C601 1.339 . S
C603 C602 1.395 . S
C603 H629 0.929 . S
C604 C602 1.320 . S
C604 C605 1.405 . S
C604 H630 0.930 . S
C605 C600 1.479 . S
C605 C604 1.405 . S
C605 H631 0.931 . S
U606 O607 2.454 . S
U606 O608 2.458 . S
U606 C609 2.984 . S
U606 C610 2.847 . S
U606 C623 2.882 . S
U606 O624 2.441 . S
U606 O625 2.420 . S
U606 O626 2.455 . S
U606 O627 2.449 . S
O607 U606 2.454 . S
O607 C609 1.353 . S
O608 U606 2.458 . S
O608 C609 1.286 . S
C609 U606 2.984 . S
C609 O607 1.353 . S
C609 O608 1.286 . S
C609 C611 1.363 . S
C610 C600 1.465 . S
C610 U606 2.847 . S
C610 O624 1.249 . S
C610 O625 1.202 . S
C611 C609 1.363 . S
C611 C613 1.408 . S
C611 C616 1.342 . S
C612 C613 1.310 . S
C612 C615 1.461 . S
C612 H632 0.932 . S
C613 C611 1.408 . S
C613 C612 1.310 . S
C613 H633 0.930 . S
C614 C615 1.474 . S
C614 C616 1.285 . S
C614 H634 0.929 . S
C615 C612 1.461 . S
C615 C614 1.474 . S
C616 C611 1.342 . S
C616 C614 1.285 . S
C616 H635 0.930 . S
C617 C620 1.424 . S
C617 C622 1.245 . S
C617 C623 1.428 . S
C618 C621 1.260 . S
C618 C622 1.477 . S
C618 H636 0.932 . S
C619 C620 1.384 . S
C619 C621 1.479 . S
C619 H637 0.929 . S
C620 C617 1.424 . S
C620 C619 1.384 . S
C620 H638 0.928 . S
C621 C618 1.260 . S
C621 C619 1.479 . S
C622 C617 1.245 . S
C622 C618 1.477 . S
C622 H639 0.932 . S
C623 U606 2.882 . S
C623 C617 1.428 . S
C623 O626 1.301 . S
C623 O627 1.282 . S
O624 U606 2.441 . S
O624 C610 1.249 . S
O625 U606 2.420 . S
O625 C610 1.202 . S
O626 U606 2.455 . S
O626 C623 1.301 . S
O627 U606 2.449 . S
O627 C623 1.282 . S
H628 C601 0.931 . S
H629 C603 0.929 . S
H630 C604 0.930 . S
H631 C605 0.931 . S
H632 C612 0.932 . S
H633 C613 0.930 . S
H634 C614 0.929 . S
H635 C616 0.930 . S
H636 C618 0.932 . S
H637 C619 0.929 . S
H638 C620 0.928 . S
H639 C622 0.932 . S
C640 C641 1.264 . S
C640 C645 1.479 . S
C640 C650 1.465 . S
C641 C640 1.264 . S
C641 C643 1.339 . S
C641 H668 0.931 . S
C642 C643 1.395 . S
C642 C644 1.320 . S
C643 C641 1.339 . S
C643 C642 1.395 . S
C643 H669 0.929 . S
C644 C642 1.320 . S
C644 C645 1.405 . S
C644 H670 0.930 . S
C645 C640 1.479 . S
C645 C644 1.405 . S
C645 H671 0.931 . S
U646 O647 2.454 . S
U646 O648 2.458 . S
U646 C649 2.984 . S
U646 C650 2.847 . S
U646 C663 2.882 . S
U646 O664 2.441 . S
U646 O665 2.420 . S
U646 O666 2.455 . S
U646 O667 2.449 . S
O647 U646 2.454 . S
O647 C649 1.353 . S
O648 U646 2.458 . S
O648 C649 1.286 . S
C649 U646 2.984 . S
C649 O647 1.353 . S
C649 O648 1.286 . S
C649 C651 1.363 . S
C650 C640 1.465 . S
C650 U646 2.847 . S
C650 O664 1.249 . S
C650 O665 1.202 . S
C651 C649 1.363 . S
C651 C653 1.408 . S
C651 C656 1.342 . S
C652 C653 1.310 . S
C652 C655 1.461 . S
C652 H672 0.932 . S
C653 C651 1.408 . S
C653 C652 1.310 . S
C653 H673 0.930 . S
C654 C655 1.474 . S
C654 C656 1.285 . S
C654 H674 0.929 . S
C655 C652 1.461 . S
C655 C654 1.474 . S
C656 C651 1.342 . S
C656 C654 1.285 . S
C656 H675 0.930 . S
C657 C660 1.424 . S
C657 C662 1.245 . S
C657 C663 1.428 . S
C658 C661 1.260 . S
C658 C662 1.477 . S
C658 H676 0.932 . S
C659 C660 1.384 . S
C659 C661 1.479 . S
C659 H677 0.929 . S
C660 C657 1.424 . S
C660 C659 1.384 . S
C660 H678 0.928 . S
C661 C658 1.260 . S
C661 C659 1.479 . S
C662 C657 1.245 . S
C662 C658 1.477 . S
C662 H679 0.932 . S
C663 U646 2.882 . S
C663 C657 1.428 . S
C663 O666 1.301 . S
C663 O667 1.282 . S
O664 U646 2.441 . S
O664 C650 1.249 . S
O665 U646 2.420 . S
O665 C650 1.202 . S
O666 U646 2.455 . S
O666 C663 1.301 . S
O667 U646 2.449 . S
O667 C663 1.282 . S
H668 C641 0.931 . S
H669 C643 0.929 . S
H670 C644 0.930 . S
H671 C645 0.931 . S
H672 C652 0.932 . S
H673 C653 0.930 . S
H674 C654 0.929 . S
H675 C656 0.930 . S
H676 C658 0.932 . S
H677 C659 0.929 . S
H678 C660 0.928 . S
H679 C662 0.932 . S
C680 C681 1.264 . S
C680 C685 1.479 . S
C680 C690 1.465 . S
C681 C680 1.264 . S
C681 C683 1.339 . S
C681 H708 0.931 . S
C682 C683 1.395 . S
C682 C684 1.320 . S
C683 C681 1.339 . S
C683 C682 1.395 . S
C683 H709 0.929 . S
C684 C682 1.320 . S
C684 C685 1.405 . S
C684 H710 0.930 . S
C685 C680 1.479 . S
C685 C684 1.405 . S
C685 H711 0.931 . S
U686 O687 2.454 . S
U686 O688 2.458 . S
U686 C689 2.984 . S
U686 C690 2.847 . S
U686 C703 2.882 . S
U686 O704 2.441 . S
U686 O705 2.420 . S
U686 O706 2.455 . S
U686 O707 2.449 . S
O687 U686 2.454 . S
O687 C689 1.353 . S
O688 U686 2.458 . S
O688 C689 1.286 . S
C689 U686 2.984 . S
C689 O687 1.353 . S
C689 O688 1.286 . S
C689 C691 1.363 . S
C690 C680 1.465 . S
C690 U686 2.847 . S
C690 O704 1.249 . S
C690 O705 1.202 . S
C691 C689 1.363 . S
C691 C693 1.408 . S
C691 C696 1.342 . S
C692 C693 1.310 . S
C692 C695 1.461 . S
C692 H712 0.932 . S
C693 C691 1.408 . S
C693 C692 1.310 . S
C693 H713 0.930 . S
C694 C695 1.474 . S
C694 C696 1.285 . S
C694 H714 0.929 . S
C695 C692 1.461 . S
C695 C694 1.474 . S
C696 C691 1.342 . S
C696 C694 1.285 . S
C696 H715 0.930 . S
C697 C700 1.424 . S
C697 C702 1.245 . S
C697 C703 1.428 . S
C698 C701 1.260 . S
C698 C702 1.477 . S
C698 H716 0.932 . S
C699 C700 1.384 . S
C699 C701 1.479 . S
C699 H717 0.929 . S
C700 C697 1.424 . S
C700 C699 1.384 . S
C700 H718 0.928 . S
C701 C698 1.260 . S
C701 C699 1.479 . S
C702 C697 1.245 . S
C702 C698 1.477 . S
C702 H719 0.932 . S
C703 U686 2.882 . S
C703 C697 1.428 . S
C703 O706 1.301 . S
C703 O707 1.282 . S
O704 U686 2.441 . S
O704 C690 1.249 . S
O705 U686 2.420 . S
O705 C690 1.202 . S
O706 U686 2.455 . S
O706 C703 1.301 . S
O707 U686 2.449 . S
O707 C703 1.282 . S
H708 C681 0.931 . S
H709 C683 0.929 . S
H710 C684 0.930 . S
H711 C685 0.931 . S
H712 C692 0.932 . S
H713 C693 0.930 . S
H714 C694 0.929 . S
H715 C696 0.930 . S
H716 C698 0.932 . S
H717 C699 0.929 . S
H718 C700 0.928 . S
H719 C702 0.932 . S
C720 C721 1.264 . S
C720 C725 1.479 . S
C720 C730 1.465 . S
C721 C720 1.264 . S
C721 C723 1.339 . S
C721 H748 0.931 . S
C722 C723 1.395 . S
C722 C724 1.320 . S
C723 C721 1.339 . S
C723 C722 1.395 . S
C723 H749 0.929 . S
C724 C722 1.320 . S
C724 C725 1.405 . S
C724 H750 0.930 . S
C725 C720 1.479 . S
C725 C724 1.405 . S
C725 H751 0.931 . S
U726 O727 2.454 . S
U726 O728 2.458 . S
U726 C729 2.984 . S
U726 C730 2.847 . S
U726 C743 2.882 . S
U726 O744 2.441 . S
U726 O745 2.420 . S
U726 O746 2.455 . S
U726 O747 2.449 . S
O727 U726 2.454 . S
O727 C729 1.353 . S
O728 U726 2.458 . S
O728 C729 1.286 . S
C729 U726 2.984 . S
C729 O727 1.353 . S
C729 O728 1.286 . S
C729 C731 1.363 . S
C730 C720 1.465 . S
C730 U726 2.847 . S
C730 O744 1.249 . S
C730 O745 1.202 . S
C731 C729 1.363 . S
C731 C733 1.408 . S
C731 C736 1.342 . S
C732 C733 1.310 . S
C732 C735 1.461 . S
C732 H752 0.932 . S
C733 C731 1.408 . S
C733 C732 1.310 . S
C733 H753 0.930 . S
C734 C735 1.474 . S
C734 C736 1.285 . S
C734 H754 0.929 . S
C735 C732 1.461 . S
C735 C734 1.474 . S
C736 C731 1.342 . S
C736 C734 1.285 . S
C736 H755 0.930 . S
C737 C740 1.424 . S
C737 C742 1.245 . S
C737 C743 1.428 . S
C738 C741 1.260 . S
C738 C742 1.477 . S
C738 H756 0.932 . S
C739 C740 1.384 . S
C739 C741 1.479 . S
C739 H757 0.929 . S
C740 C737 1.424 . S
C740 C739 1.384 . S
C740 H758 0.928 . S
C741 C738 1.260 . S
C741 C739 1.479 . S
C742 C737 1.245 . S
C742 C738 1.477 . S
C742 H759 0.932 . S
C743 U726 2.882 . S
C743 C737 1.428 . S
C743 O746 1.301 . S
C743 O747 1.282 . S
O744 U726 2.441 . S
O744 C730 1.249 . S
O745 U726 2.420 . S
O745 C730 1.202 . S
O746 U726 2.455 . S
O746 C743 1.301 . S
O747 U726 2.449 . S
O747 C743 1.282 . S
H748 C721 0.931 . S
H749 C723 0.929 . S
H750 C724 0.930 . S
H751 C725 0.931 . S
H752 C732 0.932 . S
H753 C733 0.930 . S
H754 C734 0.929 . S
H755 C736 0.930 . S
H756 C738 0.932 . S
H757 C739 0.929 . S
H758 C740 0.928 . S
H759 C742 0.932 . S
C760 C761 1.264 . S
C760 C765 1.479 . S
C760 C770 1.465 . S
C761 C760 1.264 . S
C761 C763 1.339 . S
C761 H788 0.931 . S
C762 C763 1.395 . S
C762 C764 1.320 . S
C763 C761 1.339 . S
C763 C762 1.395 . S
C763 H789 0.929 . S
C764 C762 1.320 . S
C764 C765 1.405 . S
C764 H790 0.930 . S
C765 C760 1.479 . S
C765 C764 1.405 . S
C765 H791 0.931 . S
U766 O767 2.454 . S
U766 O768 2.458 . S
U766 C769 2.984 . S
U766 C770 2.847 . S
U766 C783 2.882 . S
U766 O784 2.441 . S
U766 O785 2.420 . S
U766 O786 2.455 . S
U766 O787 2.449 . S
O767 U766 2.454 . S
O767 C769 1.353 . S
O768 U766 2.458 . S
O768 C769 1.286 . S
C769 U766 2.984 . S
C769 O767 1.353 . S
C769 O768 1.286 . S
C769 C771 1.363 . S
C770 C760 1.465 . S
C770 U766 2.847 . S
C770 O784 1.249 . S
C770 O785 1.202 . S
C771 C769 1.363 . S
C771 C773 1.408 . S
C771 C776 1.342 . S
C772 C773 1.310 . S
C772 C775 1.461 . S
C772 H792 0.932 . S
C773 C771 1.408 . S
C773 C772 1.310 . S
C773 H793 0.930 . S
C774 C775 1.474 . S
C774 C776 1.285 . S
C774 H794 0.929 . S
C775 C772 1.461 . S
C775 C774 1.474 . S
C776 C771 1.342 . S
C776 C774 1.285 . S
C776 H795 0.930 . S
C777 C780 1.424 . S
C777 C782 1.245 . S
C777 C783 1.428 . S
C778 C781 1.260 . S
C778 C782 1.477 . S
C778 H796 0.932 . S
C779 C780 1.384 . S
C779 C781 1.479 . S
C779 H797 0.929 . S
C780 C777 1.424 . S
C780 C779 1.384 . S
C780 H798 0.928 . S
C781 C778 1.260 . S
C781 C779 1.479 . S
C782 C777 1.245 . S
C782 C778 1.477 . S
C782 H799 0.932 . S
C783 U766 2.882 . S
C783 C777 1.428 . S
C783 O786 1.301 . S
C783 O787 1.282 . S
O784 U766 2.441 . S
O784 C770 1.249 . S
O785 U766 2.420 . S
O785 C770 1.202 . S
O786 U766 2.455 . S
O786 C783 1.301 . S
O787 U766 2.449 . S
O787 C783 1.282 . S
H788 C761 0.931 . S
H789 C763 0.929 . S
H790 C764 0.930 . S
H791 C765 0.931 . S
H792 C772 0.932 . S
H793 C773 0.930 . S
H794 C774 0.929 . S
H795 C776 0.930 . S
H796 C778 0.932 . S
H797 C779 0.929 . S
H798 C780 0.928 . S
H799 C782 0.932 . S
C800 C801 1.264 . S
C800 C805 1.479 . S
C800 C810 1.465 . S
C801 C800 1.264 . S
C801 C803 1.339 . S
C801 H828 0.931 . S
C802 C803 1.395 . S
C802 C804 1.320 . S
C803 C801 1.339 . S
C803 C802 1.395 . S
C803 H829 0.929 . S
C804 C802 1.320 . S
C804 C805 1.405 . S
C804 H830 0.930 . S
C805 C800 1.479 . S
C805 C804 1.405 . S
C805 H831 0.931 . S
U806 O807 2.454 . S
U806 O808 2.458 . S
U806 C809 2.984 . S
U806 C810 2.847 . S
U806 C823 2.882 . S
U806 O824 2.441 . S
U806 O825 2.420 . S
U806 O826 2.455 . S
U806 O827 2.449 . S
O807 U806 2.454 . S
O807 C809 1.353 . S
O808 U806 2.458 . S
O808 C809 1.286 . S
C809 U806 2.984 . S
C809 O807 1.353 . S
C809 O808 1.286 . S
C809 C811 1.363 . S
C810 C800 1.465 . S
C810 U806 2.847 . S
C810 O824 1.249 . S
C810 O825 1.202 . S
C811 C809 1.363 . S
C811 C813 1.408 . S
C811 C816 1.342 . S
C812 C813 1.310 . S
C812 C815 1.461 . S
C812 H832 0.932 . S
C813 C811 1.408 . S
C813 C812 1.310 . S
C813 H833 0.930 . S
C814 C815 1.474 . S
C814 C816 1.285 . S
C814 H834 0.929 . S
C815 C812 1.461 . S
C815 C814 1.474 . S
C816 C811 1.342 . S
C816 C814 1.285 . S
C816 H835 0.930 . S
C817 C820 1.424 . S
C817 C822 1.245 . S
C817 C823 1.428 . S
C818 C821 1.260 . S
C818 C822 1.477 . S
C818 H836 0.932 . S
C819 C820 1.384 . S
C819 C821 1.479 . S
C819 H837 0.929 . S
C820 C817 1.424 . S
C820 C819 1.384 . S
C820 H838 0.928 . S
C821 C818 1.260 . S
C821 C819 1.479 . S
C822 C817 1.245 . S
C822 C818 1.477 . S
C822 H839 0.932 . S
C823 U806 2.882 . S
C823 C817 1.428 . S
C823 O826 1.301 . S
C823 O827 1.282 . S
O824 U806 2.441 . S
O824 C810 1.249 . S
O825 U806 2.420 . S
O825 C810 1.202 . S
O826 U806 2.455 . S
O826 C823 1.301 . S
O827 U806 2.449 . S
O827 C823 1.282 . S
H828 C801 0.931 . S
H829 C803 0.929 . S
H830 C804 0.930 . S
H831 C805 0.931 . S
H832 C812 0.932 . S
H833 C813 0.930 . S
H834 C814 0.929 . S
H835 C816 0.930 . S
H836 C818 0.932 . S
H837 C819 0.929 . S
H838 C820 0.928 . S
H839 C822 0.932 . S
C840 C841 1.264 . S
C840 C845 1.479 . S
C840 C850 1.465 . S
C841 C840 1.264 . S
C841 C843 1.339 . S
C841 H868 0.931 . S
C842 C843 1.395 . S
C842 C844 1.320 . S
C843 C841 1.339 . S
C843 C842 1.395 . S
C843 H869 0.929 . S
C844 C842 1.320 . S
C844 C845 1.405 . S
C844 H870 0.930 . S
C845 C840 1.479 . S
C845 C844 1.405 . S
C845 H871 0.931 . S
U846 O847 2.454 . S
U846 O848 2.458 . S
U846 C849 2.984 . S
U846 C850 2.847 . S
U846 C863 2.882 . S
U846 O864 2.441 . S
U846 O865 2.420 . S
U846 O866 2.455 . S
U846 O867 2.449 . S
O847 U846 2.454 . S
O847 C849 1.353 . S
O848 U846 2.458 . S
O848 C849 1.286 . S
C849 U846 2.984 . S
C849 O847 1.353 . S
C849 O848 1.286 . S
C849 C851 1.363 . S
C850 C840 1.465 . S
C850 U846 2.847 . S
C850 O864 1.249 . S
C850 O865 1.202 . S
C851 C849 1.363 . S
C851 C853 1.408 . S
C851 C856 1.342 . S
C852 C853 1.310 . S
C852 C855 1.461 . S
C852 H872 0.932 . S
C853 C851 1.408 . S
C853 C852 1.310 . S
C853 H873 0.930 . S
C854 C855 1.474 . S
C854 C856 1.285 . S
C854 H874 0.929 . S
C855 C852 1.461 . S
C855 C854 1.474 . S
C856 C851 1.342 . S
C856 C854 1.285 . S
C856 H875 0.930 . S
C857 C860 1.424 . S
C857 C862 1.245 . S
C857 C863 1.428 . S
C858 C861 1.260 . S
C858 C862 1.477 . S
C858 H876 0.932 . S
C859 C860 1.384 . S
C859 C861 1.479 . S
C859 H877 0.929 . S
C860 C857 1.424 . S
C860 C859 1.384 . S
C860 H878 0.928 . S
C861 C858 1.260 . S
C861 C859 1.479 . S
C862 C857 1.245 . S
C862 C858 1.477 . S
C862 H879 0.932 . S
C863 U846 2.882 . S
C863 C857 1.428 . S
C863 O866 1.301 . S
C863 O867 1.282 . S
O864 U846 2.441 . S
O864 C850 1.249 . S
O865 U846 2.420 . S
O865 C850 1.202 . S
O866 U846 2.455 . S
O866 C863 1.301 . S
O867 U846 2.449 . S
O867 C863 1.282 . S
H868 C841 0.931 . S
H869 C843 0.929 . S
H870 C844 0.930 . S
H871 C845 0.931 . S
H872 C852 0.932 . S
H873 C853 0.930 . S
H874 C854 0.929 . S
H875 C856 0.930 . S
H876 C858 0.932 . S
H877 C859 0.929 . S
H878 C860 0.928 . S
H879 C862 0.932 . S
C880 C881 1.264 . S
C880 C885 1.479 . S
C880 C890 1.465 . S
C881 C880 1.264 . S
C881 C883 1.339 . S
C881 H908 0.931 . S
C882 C883 1.395 . S
C882 C884 1.320 . S
C883 C881 1.339 . S
C883 C882 1.395 . S
C883 H909 0.929 . S
C884 C882 1.320 . S
C884 C885 1.405 . S
C884 H910 0.930 . S
C885 C880 1.479 . S
C885 C884 1.405 . S
C885 H911 0.931 . S
U886 O887 2.454 . S
U886 O888 2.458 . S
U886 C889 2.984 . S
U886 C890 2.847 . S
U886 C903 2.882 . S
U886 O904 2.441 . S
U886 O905 2.420 . S
U886 O906 2.455 . S
U886 O907 2.449 . S
O887 U886 2.454 . S
O887 C889 1.353 . S
O888 U886 2.458 . S
O888 C889 1.286 . S
C889 U886 2.984 . S
C889 O887 1.353 . S
C889 O888 1.286 . S
C889 C891 1.363 . S
C890 C880 1.465 . S
C890 U886 2.847 . S
C890 O904 1.249 . S
C890 O905 1.202 . S
C891 C889 1.363 . S
C891 C893 1.408 . S
C891 C896 1.342 . S
C892 C893 1.310 . S
C892 C895 1.461 . S
C892 H912 0.932 . S
C893 C891 1.408 . S
C893 C892 1.310 . S
C893 H913 0.930 . S
C894 C895 1.474 . S
C894 C896 1.285 . S
C894 H914 0.929 . S
C895 C892 1.461 . S
C895 C894 1.474 . S
C896 C891 1.342 . S
C896 C894 1.285 . S
C896 H915 0.930 . S
C897 C900 1.424 . S
C897 C902 1.245 . S
C897 C903 1.428 . S
C898 C901 1.260 . S
C898 C902 1.477 . S
C898 H916 0.932 . S
C899 C900 1.384 . S
C899 C901 1.479 . S
C899 H917 0.929 . S
C900 C897 1.424 . S
C900 C899 1.384 . S
C900 H918 0.928 . S
C901 C898 1.260 . S
C901 C899 1.479 . S
C902 C897 1.245 . S
C902 C898 1.477 . S
C902 H919 0.932 . S
C903 U886 2.882 . S
C903 C897 1.428 . S
C903 O906 1.301 . S
C903 O907 1.282 . S
O904 U886 2.441 . S
O904 C890 1.249 . S
O905 U886 2.420 . S
O905 C890 1.202 . S
O906 U886 2.455 . S
O906 C903 1.301 . S
O907 U886 2.449 . S
O907 C903 1.282 . S
H908 C881 0.931 . S
H909 C883 0.929 . S
H910 C884 0.930 . S
H911 C885 0.931 . S
H912 C892 0.932 . S
H913 C893 0.930 . S
H914 C894 0.929 . S
H915 C896 0.930 . S
H916 C898 0.932 . S
H917 C899 0.929 . S
H918 C900 0.928 . S
H919 C902 0.932 . S
C920 C921 1.264 . S
C920 C925 1.479 . S
C920 C930 1.465 . S
C921 C920 1.264 . S
C921 C923 1.339 . S
C921 H948 0.931 . S
C922 C923 1.395 . S
C922 C924 1.320 . S
C923 C921 1.339 . S
C923 C922 1.395 . S
C923 H949 0.929 . S
C924 C922 1.320 . S
C924 C925 1.405 . S
C924 H950 0.930 . S
C925 C920 1.479 . S
C925 C924 1.405 . S
C925 H951 0.931 . S
U926 O927 2.454 . S
U926 O928 2.458 . S
U926 C929 2.984 . S
U926 C930 2.847 . S
U926 C943 2.882 . S
U926 O944 2.441 . S
U926 O945 2.420 . S
U926 O946 2.455 . S
U926 O947 2.449 . S
O927 U926 2.454 . S
O927 C929 1.353 . S
O928 U926 2.458 . S
O928 C929 1.286 . S
C929 U926 2.984 . S
C929 O927 1.353 . S
C929 O928 1.286 . S
C929 C931 1.363 . S
C930 C920 1.465 . S
C930 U926 2.847 . S
C930 O944 1.249 . S
C930 O945 1.202 . S
C931 C929 1.363 . S
C931 C933 1.408 . S
C931 C936 1.342 . S
C932 C933 1.310 . S
C932 C935 1.461 . S
C932 H952 0.932 . S
C933 C931 1.408 . S
C933 C932 1.310 . S
C933 H953 0.930 . S
C934 C935 1.474 . S
C934 C936 1.285 . S
C934 H954 0.929 . S
C935 C932 1.461 . S
C935 C934 1.474 . S
C936 C931 1.342 . S
C936 C934 1.285 . S
C936 H955 0.930 . S
C937 C940 1.424 . S
C937 C942 1.245 . S
C937 C943 1.428 . S
C938 C941 1.260 . S
C938 C942 1.477 . S
C938 H956 0.932 . S
C939 C940 1.384 . S
C939 C941 1.479 . S
C939 H957 0.929 . S
C940 C937 1.424 . S
C940 C939 1.384 . S
C940 H958 0.928 . S
C941 C938 1.260 . S
C941 C939 1.479 . S
C942 C937 1.245 . S
C942 C938 1.477 . S
C942 H959 0.932 . S
C943 U926 2.882 . S
C943 C937 1.428 . S
C943 O946 1.301 . S
C943 O947 1.282 . S
O944 U926 2.441 . S
O944 C930 1.249 . S
O945 U926 2.420 . S
O945 C930 1.202 . S
O946 U926 2.455 . S
O946 C943 1.301 . S
O947 U926 2.449 . S
O947 C943 1.282 . S
H948 C921 0.931 . S
H949 C923 0.929 . S
H950 C924 0.930 . S
H951 C925 0.931 . S
H952 C932 0.932 . S
H953 C933 0.930 . S
H954 C934 0.929 . S
H955 C936 0.930 . S
H956 C938 0.932 . S
H957 C939 0.929 . S
H958 C940 0.928 . S
H959 C942 0.932 . S
C960 C961 1.264 . S
C960 C965 1.479 . S
C960 C970 1.465 . S
C961 C960 1.264 . S
C961 C963 1.339 . S
C961 H988 0.931 . S
C962 C963 1.395 . S
C962 C964 1.320 . S
C963 C961 1.339 . S
C963 C962 1.395 . S
C963 H989 0.929 . S
C964 C962 1.320 . S
C964 C965 1.405 . S
C964 H990 0.930 . S
C965 C960 1.479 . S
C965 C964 1.405 . S
C965 H991 0.931 . S
U966 O967 2.454 . S
U966 O968 2.458 . S
U966 C969 2.984 . S
U966 C970 2.847 . S
U966 C983 2.882 . S
U966 O984 2.441 . S
U966 O985 2.420 . S
U966 O986 2.455 . S
U966 O987 2.449 . S
O967 U966 2.454 . S
O967 C969 1.353 . S
O968 U966 2.458 . S
O968 C969 1.286 . S
C969 U966 2.984 . S
C969 O967 1.353 . S
C969 O968 1.286 . S
C969 C971 1.363 . S
C970 C960 1.465 . S
C970 U966 2.847 . S
C970 O984 1.249 . S
C970 O985 1.202 . S
C971 C969 1.363 . S
C971 C973 1.408 . S
C971 C976 1.342 . S
C972 C973 1.310 . S
C972 C975 1.461 . S
C972 H992 0.932 . S
C973 C971 1.408 . S
C973 C972 1.310 . S
C973 H993 0.930 . S
C974 C975 1.474 . S
C974 C976 1.285 . S
C974 H994 0.929 . S
C975 C972 1.461 . S
C975 C974 1.474 . S
C976 C971 1.342 . S
C976 C974 1.285 . S
C976 H995 0.930 . S
C977 C980 1.424 . S
C977 C982 1.245 . S
C977 C983 1.428 . S
C978 C981 1.260 . S
C978 C982 1.477 . S
C978 H996 0.932 . S
C979 C980 1.384 . S
C979 C981 1.479 . S
C979 H997 0.929 . S
C980 C977 1.424 . S
C980 C979 1.384 . S
C980 H998 0.928 . S
C981 C978 1.260 . S
C981 C979 1.479 . S
C982 C977 1.245 . S
C982 C978 1.477 . S
C982 H999 0.932 . S
C983 U966 2.882 . S
C983 C977 1.428 . S
C983 O986 1.301 . S
C983 O987 1.282 . S
O984 U966 2.441 . S
O984 C970 1.249 . S
O985 U966 2.420 . S
O985 C970 1.202 . S
O986 U966 2.455 . S
O986 C983 1.301 . S
O987 U966 2.449 . S
O987 C983 1.282 . S
H988 C961 0.931 . S
H989 C963 0.929 . S
H990 C964 0.930 . S
H991 C965 0.931 . S
H992 C972 0.932 . S
H993 C973 0.930 . S
H994 C974 0.929 . S
H995 C976 0.930 . S
H996 C978 0.932 . S
H997 C979 0.929 . S
H998 C980 0.928 . S
H999 C982 0.932 . S
C1000 C1001 1.264 . S
C1000 C1005 1.479 . S
C1000 C1010 1.465 . S
C1001 C1000 1.264 . S
C1001 C1003 1.339 . S
C1001 H1028 0.931 . S
C1002 C1003 1.395 . S
C1002 C1004 1.320 . S
C1003 C1001 1.339 . S
C1003 C1002 1.395 . S
C1003 H1029 0.929 . S
C1004 C1002 1.320 . S
C1004 C1005 1.405 . S
C1004 H1030 0.930 . S
C1005 C1000 1.479 . S
C1005 C1004 1.405 . S
C1005 H1031 0.931 . S
U1006 O1007 2.454 . S
U1006 O1008 2.458 . S
U1006 C1009 2.984 . S
U1006 C1010 2.847 . S
U1006 C1023 2.882 . S
U1006 O1024 2.441 . S
U1006 O1025 2.420 . S
U1006 O1026 2.455 . S
U1006 O1027 2.449 . S
O1007 U1006 2.454 . S
O1007 C1009 1.353 . S
O1008 U1006 2.458 . S
O1008 C1009 1.286 . S
C1009 U1006 2.984 . S
C1009 O1007 1.353 . S
C1009 O1008 1.286 . S
C1009 C1011 1.363 . S
C1010 C1000 1.465 . S
C1010 U1006 2.847 . S
C1010 O1024 1.249 . S
C1010 O1025 1.202 . S
C1011 C1009 1.363 . S
C1011 C1013 1.408 . S
C1011 C1016 1.342 . S
C1012 C1013 1.310 . S
C1012 C1015 1.461 . S
C1012 H1032 0.932 . S
C1013 C1011 1.408 . S
C1013 C1012 1.310 . S
C1013 H1033 0.930 . S
C1014 C1015 1.474 . S
C1014 C1016 1.285 . S
C1014 H1034 0.929 . S
C1015 C1012 1.461 . S
C1015 C1014 1.474 . S
C1016 C1011 1.342 . S
C1016 C1014 1.285 . S
C1016 H1035 0.930 . S
C1017 C1020 1.424 . S
C1017 C1022 1.245 . S
C1017 C1023 1.428 . S
C1018 C1021 1.260 . S
C1018 C1022 1.477 . S
C1018 H1036 0.932 . S
C1019 C1020 1.384 . S
C1019 C1021 1.479 . S
C1019 H1037 0.929 . S
C1020 C1017 1.424 . S
C1020 C1019 1.384 . S
C1020 H1038 0.928 . S
C1021 C1018 1.260 . S
C1021 C1019 1.479 . S
C1022 C1017 1.245 . S
C1022 C1018 1.477 . S
C1022 H1039 0.932 . S
C1023 U1006 2.882 . S
C1023 C1017 1.428 . S
C1023 O1026 1.301 . S
C1023 O1027 1.282 . S
O1024 U1006 2.441 . S
O1024 C1010 1.249 . S
O1025 U1006 2.420 . S
O1025 C1010 1.202 . S
O1026 U1006 2.455 . S
O1026 C1023 1.301 . S
O1027 U1006 2.449 . S
O1027 C1023 1.282 . S
H1028 C1001 0.931 . S
H1029 C1003 0.929 . S
H1030 C1004 0.930 . S
H1031 C1005 0.931 . S
H1032 C1012 0.932 . S
H1033 C1013 0.930 . S
H1034 C1014 0.929 . S
H1035 C1016 0.930 . S
H1036 C1018 0.932 . S
H1037 C1019 0.929 . S
H1038 C1020 0.928 . S
H1039 C1022 0.932 . S
C1040 C1041 1.264 . S
C1040 C1045 1.479 . S
C1040 C1050 1.465 . S
C1041 C1040 1.264 . S
C1041 C1043 1.339 . S
C1041 H1068 0.931 . S
C1042 C1043 1.395 . S
C1042 C1044 1.320 . S
C1043 C1041 1.339 . S
C1043 C1042 1.395 . S
C1043 H1069 0.929 . S
C1044 C1042 1.320 . S
C1044 C1045 1.405 . S
C1044 H1070 0.930 . S
C1045 C1040 1.479 . S
C1045 C1044 1.405 . S
C1045 H1071 0.931 . S
U1046 O1047 2.454 . S
U1046 O1048 2.458 . S
U1046 C1049 2.984 . S
U1046 C1050 2.847 . S
U1046 C1063 2.882 . S
U1046 O1064 2.441 . S
U1046 O1065 2.420 . S
U1046 O1066 2.455 . S
U1046 O1067 2.449 . S
O1047 U1046 2.454 . S
O1047 C1049 1.353 . S
O1048 U1046 2.458 . S
O1048 C1049 1.286 . S
C1049 U1046 2.984 . S
C1049 O1047 1.353 . S
C1049 O1048 1.286 . S
C1049 C1051 1.363 . S
C1050 C1040 1.465 . S
C1050 U1046 2.847 . S
C1050 O1064 1.249 . S
C1050 O1065 1.202 . S
C1051 C1049 1.363 . S
C1051 C1053 1.408 . S
C1051 C1056 1.342 . S
C1052 C1053 1.310 . S
C1052 C1055 1.461 . S
C1052 H1072 0.932 . S
C1053 C1051 1.408 . S
C1053 C1052 1.310 . S
C1053 H1073 0.930 . S
C1054 C1055 1.474 . S
C1054 C1056 1.285 . S
C1054 H1074 0.929 . S
C1055 C1052 1.461 . S
C1055 C1054 1.474 . S
C1056 C1051 1.342 . S
C1056 C1054 1.285 . S
C1056 H1075 0.930 . S
C1057 C1060 1.424 . S
C1057 C1062 1.245 . S
C1057 C1063 1.428 . S
C1058 C1061 1.260 . S
C1058 C1062 1.477 . S
C1058 H1076 0.932 . S
C1059 C1060 1.384 . S
C1059 C1061 1.479 . S
C1059 H1077 0.929 . S
C1060 C1057 1.424 . S
C1060 C1059 1.384 . S
C1060 H1078 0.928 . S
C1061 C1058 1.260 . S
C1061 C1059 1.479 . S
C1062 C1057 1.245 . S
C1062 C1058 1.477 . S
C1062 H1079 0.932 . S
C1063 U1046 2.882 . S
C1063 C1057 1.428 . S
C1063 O1066 1.301 . S
C1063 O1067 1.282 . S
O1064 U1046 2.441 . S
O1064 C1050 1.249 . S
O1065 U1046 2.420 . S
O1065 C1050 1.202 . S
O1066 U1046 2.455 . S
O1066 C1063 1.301 . S
O1067 U1046 2.449 . S
O1067 C1063 1.282 . S
H1068 C1041 0.931 . S
H1069 C1043 0.929 . S
H1070 C1044 0.930 . S
H1071 C1045 0.931 . S
H1072 C1052 0.932 . S
H1073 C1053 0.930 . S
H1074 C1054 0.929 . S
H1075 C1056 0.930 . S
H1076 C1058 0.932 . S
H1077 C1059 0.929 . S
H1078 C1060 0.928 . S
H1079 C1062 0.932 . S
C1080 C1081 1.264 . S
C1080 C1085 1.479 . S
C1080 C1090 1.465 . S
C1081 C1080 1.264 . S
C1081 C1083 1.339 . S
C1081 H1108 0.931 . S
C1082 C1083 1.395 . S
C1082 C1084 1.320 . S
C1083 C1081 1.339 . S
C1083 C1082 1.395 . S
C1083 H1109 0.929 . S
C1084 C1082 1.320 . S
C1084 C1085 1.405 . S
C1084 H1110 0.930 . S
C1085 C1080 1.479 . S
C1085 C1084 1.405 . S
C1085 H1111 0.931 . S
U1086 O1087 2.454 . S
U1086 O1088 2.458 . S
U1086 C1089 2.984 . S
U1086 C1090 2.847 . S
U1086 C1103 2.882 . S
U1086 O1104 2.441 . S
U1086 O1105 2.420 . S
U1086 O1106 2.455 . S
U1086 O1107 2.449 . S
O1087 U1086 2.454 . S
O1087 C1089 1.353 . S
O1088 U1086 2.458 . S
O1088 C1089 1.286 . S
C1089 U1086 2.984 . S
C1089 O1087 1.353 . S
C1089 O1088 1.286 . S
C1089 C1091 1.363 . S
C1090 C1080 1.465 . S
C1090 U1086 2.847 . S
C1090 O1104 1.249 . S
C1090 O1105 1.202 . S
C1091 C1089 1.363 . S
C1091 C1093 1.408 . S
C1091 C1096 1.342 . S
C1092 C1093 1.310 . S
C1092 C1095 1.461 . S
C1092 H1112 0.932 . S
C1093 C1091 1.408 . S
C1093 C1092 1.310 . S
C1093 H1113 0.930 . S
C1094 C1095 1.474 . S
C1094 C1096 1.285 . S
C1094 H1114 0.929 . S
C1095 C1092 1.461 . S
C1095 C1094 1.474 . S
C1096 C1091 1.342 . S
C1096 C1094 1.285 . S
C1096 H1115 0.930 . S
C1097 C1100 1.424 . S
C1097 C1102 1.245 . S
C1097 C1103 1.428 . S
C1098 C1101 1.260 . S
C1098 C1102 1.477 . S
C1098 H1116 0.932 . S
C1099 C1100 1.384 . S
C1099 C1101 1.479 . S
C1099 H1117 0.929 . S
C1100 C1097 1.424 . S
C1100 C1099 1.384 . S
C1100 H1118 0.928 . S
C1101 C1098 1.260 . S
C1101 C1099 1.479 . S
C1102 C1097 1.245 . S
C1102 C1098 1.477 . S
C1102 H1119 0.932 . S
C1103 U1086 2.882 . S
C1103 C1097 1.428 . S
C1103 O1106 1.301 . S
C1103 O1107 1.282 . S
O1104 U1086 2.441 . S
O1104 C1090 1.249 . S
O1105 U1086 2.420 . S
O1105 C1090 1.202 . S
O1106 U1086 2.455 . S
O1106 C1103 1.301 . S
O1107 U1086 2.449 . S
O1107 C1103 1.282 . S
H1108 C1081 0.931 . S
H1109 C1083 0.929 . S
H1110 C1084 0.930 . S
H1111 C1085 0.931 . S
H1112 C1092 0.932 . S
H1113 C1093 0.930 . S
H1114 C1094 0.929 . S
H1115 C1096 0.930 . S
H1116 C1098 0.932 . S
H1117 C1099 0.929 . S
H1118 C1100 0.928 . S
H1119 C1102 0.932 . S
C1120 C1121 1.264 . S
C1120 C1125 1.479 . S
C1120 C1130 1.465 . S
C1121 C1120 1.264 . S
C1121 C1123 1.339 . S
C1121 H1148 0.931 . S
C1122 C1123 1.395 . S
C1122 C1124 1.320 . S
C1123 C1121 1.339 . S
C1123 C1122 1.395 . S
C1123 H1149 0.929 . S
C1124 C1122 1.320 . S
C1124 C1125 1.405 . S
C1124 H1150 0.930 . S
C1125 C1120 1.479 . S
C1125 C1124 1.405 . S
C1125 H1151 0.931 . S
U1126 O1127 2.454 . S
U1126 O1128 2.458 . S
U1126 C1129 2.984 . S
U1126 C1130 2.847 . S
U1126 C1143 2.882 . S
U1126 O1144 2.441 . S
U1126 O1145 2.420 . S
U1126 O1146 2.455 . S
U1126 O1147 2.449 . S
O1127 U1126 2.454 . S
O1127 C1129 1.353 . S
O1128 U1126 2.458 . S
O1128 C1129 1.286 . S
C1129 U1126 2.984 . S
C1129 O1127 1.353 . S
C1129 O1128 1.286 . S
C1129 C1131 1.363 . S
C1130 C1120 1.465 . S
C1130 U1126 2.847 . S
C1130 O1144 1.249 . S
C1130 O1145 1.202 . S
C1131 C1129 1.363 . S
C1131 C1133 1.408 . S
C1131 C1136 1.342 . S
C1132 C1133 1.310 . S
C1132 C1135 1.461 . S
C1132 H1152 0.932 . S
C1133 C1131 1.408 . S
C1133 C1132 1.310 . S
C1133 H1153 0.930 . S
C1134 C1135 1.474 . S
C1134 C1136 1.285 . S
C1134 H1154 0.929 . S
C1135 C1132 1.461 . S
C1135 C1134 1.474 . S
C1136 C1131 1.342 . S
C1136 C1134 1.285 . S
C1136 H1155 0.930 . S
C1137 C1140 1.424 . S
C1137 C1142 1.245 . S
C1137 C1143 1.428 . S
C1138 C1141 1.260 . S
C1138 C1142 1.477 . S
C1138 H1156 0.932 . S
C1139 C1140 1.384 . S
C1139 C1141 1.479 . S
C1139 H1157 0.929 . S
C1140 C1137 1.424 . S
C1140 C1139 1.384 . S
C1140 H1158 0.928 . S
C1141 C1138 1.260 . S
C1141 C1139 1.479 . S
C1142 C1137 1.245 . S
C1142 C1138 1.477 . S
C1142 H1159 0.932 . S
C1143 U1126 2.882 . S
C1143 C1137 1.428 . S
C1143 O1146 1.301 . S
C1143 O1147 1.282 . S
O1144 U1126 2.441 . S
O1144 C1130 1.249 . S
O1145 U1126 2.420 . S
O1145 C1130 1.202 . S
O1146 U1126 2.455 . S
O1146 C1143 1.301 . S
O1147 U1126 2.449 . S
O1147 C1143 1.282 . S
H1148 C1121 0.931 . S
H1149 C1123 0.929 . S
H1150 C1124 0.930 . S
H1151 C1125 0.931 . S
H1152 C1132 0.932 . S
H1153 C1133 0.930 . S
H1154 C1134 0.929 . S
H1155 C1136 0.930 . S
H1156 C1138 0.932 . S
H1157 C1139 0.929 . S
H1158 C1140 0.928 . S
H1159 C1142 0.932 . S
C1160 C1161 1.264 . S
C1160 C1165 1.479 . S
C1160 C1170 1.465 . S
C1161 C1160 1.264 . S
C1161 C1163 1.339 . S
C1161 H1188 0.931 . S
C1162 C1163 1.395 . S
C1162 C1164 1.320 . S
C1163 C1161 1.339 . S
C1163 C1162 1.395 . S
C1163 H1189 0.929 . S
C1164 C1162 1.320 . S
C1164 C1165 1.405 . S
C1164 H1190 0.930 . S
C1165 C1160 1.479 . S
C1165 C1164 1.405 . S
C1165 H1191 0.931 . S
U1166 O1167 2.454 . S
U1166 O1168 2.458 . S
U1166 C1169 2.984 . S
U1166 C1170 2.847 . S
U1166 C1183 2.882 . S
U1166 O1184 2.441 . S
U1166 O1185 2.420 . S
U1166 O1186 2.455 . S
U1166 O1187 2.449 . S
O1167 U1166 2.454 . S
O1167 C1169 1.353 . S
O1168 U1166 2.458 . S
O1168 C1169 1.286 . S
C1169 U1166 2.984 . S
C1169 O1167 1.353 . S
C1169 O1168 1.286 . S
C1169 C1171 1.363 . S
C1170 C1160 1.465 . S
C1170 U1166 2.847 . S
C1170 O1184 1.249 . S
C1170 O1185 1.202 . S
C1171 C1169 1.363 . S
C1171 C1173 1.408 . S
C1171 C1176 1.342 . S
C1172 C1173 1.310 . S
C1172 C1175 1.461 . S
C1172 H1192 0.932 . S
C1173 C1171 1.408 . S
C1173 C1172 1.310 . S
C1173 H1193 0.930 . S
C1174 C1175 1.474 . S
C1174 C1176 1.285 . S
C1174 H1194 0.929 . S
C1175 C1172 1.461 . S
C1175 C1174 1.474 . S
C1176 C1171 1.342 . S
C1176 C1174 1.285 . S
C1176 H1195 0.930 . S
C1177 C1180 1.424 . S
C1177 C1182 1.245 . S
C1177 C1183 1.428 . S
C1178 C1181 1.260 . S
C1178 C1182 1.477 . S
C1178 H1196 0.932 . S
C1179 C1180 1.384 . S
C1179 C1181 1.479 . S
C1179 H1197 0.929 . S
C1180 C1177 1.424 . S
C1180 C1179 1.384 . S
C1180 H1198 0.928 . S
C1181 C1178 1.260 . S
C1181 C1179 1.479 . S
C1182 C1177 1.245 . S
C1182 C1178 1.477 . S
C1182 H1199 0.932 . S
C1183 U1166 2.882 . S
C1183 C1177 1.428 . S
C1183 O1186 1.301 . S
C1183 O1187 1.282 . S
O1184 U1166 2.441 . S
O1184 C1170 1.249 . S
O1185 U1166 2.420 . S
O1185 C1170 1.202 . S
O1186 U1166 2.455 . S
O1186 C1183 1.301 . S
O1187 U1166 2.449 . S
O1187 C1183 1.282 . S
H1188 C1161 0.931 . S
H1189 C1163 0.929 . S
H1190 C1164 0.930 . S
H1191 C1165 0.931 . S
H1192 C1172 0.932 . S
H1193 C1173 0.930 . S
H1194 C1174 0.929 . S
H1195 C1176 0.930 . S
H1196 C1178 0.932 . S
H1197 C1179 0.929 . S
H1198 C1180 0.928 . S
H1199 C1182 0.932 . S
C1200 C1201 1.264 . S
C1200 C1205 1.479 . S
C1200 C1210 1.465 . S
C1201 C1200 1.264 . S
C1201 C1203 1.339 . S
C1201 H1228 0.931 . S
C1202 C1203 1.395 . S
C1202 C1204 1.320 . S
C1203 C1201 1.339 . S
C1203 C1202 1.395 . S
C1203 H1229 0.929 . S
C1204 C1202 1.320 . S
C1204 C1205 1.405 . S
C1204 H1230 0.930 . S
C1205 C1200 1.479 . S
C1205 C1204 1.405 . S
C1205 H1231 0.931 . S
U1206 O1207 2.454 . S
U1206 O1208 2.458 . S
U1206 C1209 2.984 . S
U1206 C1210 2.847 . S
U1206 C1223 2.882 . S
U1206 O1224 2.441 . S
U1206 O1225 2.420 . S
U1206 O1226 2.455 . S
U1206 O1227 2.449 . S
O1207 U1206 2.454 . S
O1207 C1209 1.353 . S
O1208 U1206 2.458 . S
O1208 C1209 1.286 . S
C1209 U1206 2.984 . S
C1209 O1207 1.353 . S
C1209 O1208 1.286 . S
C1209 C1211 1.363 . S
C1210 C1200 1.465 . S
C1210 U1206 2.847 . S
C1210 O1224 1.249 . S
C1210 O1225 1.202 . S
C1211 C1209 1.363 . S
C1211 C1213 1.408 . S
C1211 C1216 1.342 . S
C1212 C1213 1.310 . S
C1212 C1215 1.461 . S
C1212 H1232 0.932 . S
C1213 C1211 1.408 . S
C1213 C1212 1.310 . S
C1213 H1233 0.930 . S
C1214 C1215 1.474 . S
C1214 C1216 1.285 . S
C1214 H1234 0.929 . S
C1215 C1212 1.461 . S
C1215 C1214 1.474 . S
C1216 C1211 1.342 . S
C1216 C1214 1.285 . S
C1216 H1235 0.930 . S
C1217 C1220 1.424 . S
C1217 C1222 1.245 . S
C1217 C1223 1.428 . S
C1218 C1221 1.260 . S
C1218 C1222 1.477 . S
C1218 H1236 0.932 . S
C1219 C1220 1.384 . S
C1219 C1221 1.479 . S
C1219 H1237 0.929 . S
C1220 C1217 1.424 . S
C1220 C1219 1.384 . S
C1220 H1238 0.928 . S
C1221 C1218 1.260 . S
C1221 C1219 1.479 . S
C1222 C1217 1.245 . S
C1222 C1218 1.477 . S
C1222 H1239 0.932 . S
C1223 U1206 2.882 . S
C1223 C1217 1.428 . S
C1223 O1226 1.301 . S
C1223 O1227 1.282 . S
O1224 U1206 2.441 . S
O1224 C1210 1.249 . S
O1225 U1206 2.420 . S
O1225 C1210 1.202 . S
O1226 U1206 2.455 . S
O1226 C1223 1.301 . S
O1227 U1206 2.449 . S
O1227 C1223 1.282 . S
H1228 C1201 0.931 . S
H1229 C1203 0.929 . S
H1230 C1204 0.930 . S
H1231 C1205 0.931 . S
H1232 C1212 0.932 . S
H1233 C1213 0.930 . S
H1234 C1214 0.929 . S
H1235 C1216 0.930 . S
H1236 C1218 0.932 . S
H1237 C1219 0.929 . S
H1238 C1220 0.928 . S
H1239 C1222 0.932 . S
C1240 C1241 1.264 . S
C1240 C1245 1.479 . S
C1240 C1250 1.465 . S
C1241 C1240 1.264 . S
C1241 C1243 1.339 . S
C1241 H1268 0.931 . S
C1242 C1243 1.395 . S
C1242 C1244 1.320 . S
C1243 C1241 1.339 . S
C1243 C1242 1.395 . S
C1243 H1269 0.929 . S
C1244 C1242 1.320 . S
C1244 C1245 1.405 . S
C1244 H1270 0.930 . S
C1245 C1240 1.479 . S
C1245 C1244 1.405 . S
C1245 H1271 0.931 . S
U1246 O1247 2.454 . S
U1246 O1248 2.458 . S
U1246 C1249 2.984 . S
U1246 C1250 2.847 . S
U1246 C1263 2.882 . S
U1246 O1264 2.441 . S
U1246 O1265 2.420 . S
U1246 O1266 2.455 . S
U1246 O1267 2.449 . S
O1247 U1246 2.454 . S
O1247 C1249 1.353 . S
O1248 U1246 2.458 . S
O1248 C1249 1.286 . S
C1249 U1246 2.984 . S
C1249 O1247 1.353 . S
C1249 O1248 1.286 . S
C1249 C1251 1.363 . S
C1250 C1240 1.465 . S
C1250 U1246 2.847 . S
C1250 O1264 1.249 . S
C1250 O1265 1.202 . S
C1251 C1249 1.363 . S
C1251 C1253 1.408 . S
C1251 C1256 1.342 . S
C1252 C1253 1.310 . S
C1252 C1255 1.461 . S
C1252 H1272 0.932 . S
C1253 C1251 1.408 . S
C1253 C1252 1.310 . S
C1253 H1273 0.930 . S
C1254 C1255 1.474 . S
C1254 C1256 1.285 . S
C1254 H1274 0.929 . S
C1255 C1252 1.461 . S
C1255 C1254 1.474 . S
C1256 C1251 1.342 . S
C1256 C1254 1.285 . S
C1256 H1275 0.930 . S
C1257 C1260 1.424 . S
C1257 C1262 1.245 . S
C1257 C1263 1.428 . S
C1258 C1261 1.260 . S
C1258 C1262 1.477 . S
C1258 H1276 0.932 . S
C1259 C1260 1.384 . S
C1259 C1261 1.479 . S
C1259 H1277 0.929 . S
C1260 C1257 1.424 . S
C1260 C1259 1.384 . S
C1260 H1278 0.928 . S
C1261 C1258 1.260 . S
C1261 C1259 1.479 . S
C1262 C1257 1.245 . S
C1262 C1258 1.477 . S
C1262 H1279 0.932 . S
C1263 U1246 2.882 . S
C1263 C1257 1.428 . S
C1263 O1266 1.301 . S
C1263 O1267 1.282 . S
O1264 U1246 2.441 . S
O1264 C1250 1.249 . S
O1265 U1246 2.420 . S
O1265 C1250 1.202 . S
O1266 U1246 2.455 . S
O1266 C1263 1.301 . S
O1267 U1246 2.449 . S
O1267 C1263 1.282 . S
H1268 C1241 0.931 . S
H1269 C1243 0.929 . S
H1270 C1244 0.930 . S
H1271 C1245 0.931 . S
H1272 C1252 0.932 . S
H1273 C1253 0.930 . S
H1274 C1254 0.929 . S
H1275 C1256 0.930 . S
H1276 C1258 0.932 . S
H1277 C1259 0.929 . S
H1278 C1260 0.928 . S
H1279 C1262 0.932 . S
H1280 O1306 0.856 . S
H1281 O1309 0.854 . S
H1282 C1317 0.930 . S
H1283 C1318 0.930 . S
H1284 C1320 0.930 . S
H1285 C1321 0.930 . S
H1286 C1323 0.931 . S
H1287 C1324 0.930 . S
H1288 C1326 0.930 . S
H1289 C1327 0.929 . S
H1290 C1329 0.930 . S
H1291 C1330 0.931 . S
H1292 C1332 0.930 . S
H1293 C1333 0.929 . S
H1294 C1335 0.931 . S
H1295 C1336 0.930 . S
H1296 C1338 0.930 . S
H1297 C1339 0.932 . S
H1298 C1341 0.930 . S
H1299 C1342 0.929 . S
H1300 C1344 0.931 . S
H1301 C1345 0.930 . S
H1302 C1347 0.929 . S
H1303 C1348 0.931 . S
H1304 C1350 0.930 . S
H1305 C1351 0.929 . S
O1306 H1280 0.856 . S
O1306 C1352 1.300 . S
O1307 C1352 1.209 . S
O1308 C1353 1.199 . S
O1309 H1281 0.854 . S
O1309 C1353 1.297 . S
C1310 C1311 1.404 . S
C1310 C1315 1.397 . S
C1310 C1316 1.492 1_554 S
C1311 C1310 1.404 . S
C1311 C1312 1.396 . S
C1311 C1322 1.492 . S
C1312 C1311 1.396 . S
C1312 C1313 1.397 . S
C1312 C1328 1.509 . S
C1313 C1312 1.397 . S
C1313 C1314 1.412 . S
C1313 C1334 1.485 . S
C1314 C1313 1.412 . S
C1314 C1315 1.388 . S
C1314 C1340 1.490 . S
C1315 C1310 1.397 . S
C1315 C1314 1.388 . S
C1315 C1346 1.519 1_554 S
C1316 C1310 1.492 1_556 S
C1316 C1317 1.363 . S
C1316 C1321 1.390 . S
C1317 H1282 0.930 . S
C1317 C1316 1.363 . S
C1317 C1318 1.372 . S
C1318 H1283 0.930 . S
C1318 C1317 1.372 . S
C1318 C1319 1.383 . S
C1319 C1318 1.383 . S
C1319 C1320 1.395 . S
C1320 H1284 0.930 . S
C1320 C1319 1.395 . S
C1320 C1321 1.362 . S
C1321 H1285 0.930 . S
C1321 C1316 1.390 . S
C1321 C1320 1.362 . S
C1322 C1311 1.492 . S
C1322 C1323 1.377 . S
C1322 C1327 1.397 . S
C1323 H1286 0.931 . S
C1323 C1322 1.377 . S
C1323 C1324 1.376 . S
C1324 H1287 0.930 . S
C1324 C1323 1.376 . S
C1324 C1325 1.376 . S
C1325 C1324 1.376 . S
C1325 C1326 1.378 . S
C1325 C1352 1.486 . S
C1326 H1288 0.930 . S
C1326 C1325 1.378 . S
C1326 C1327 1.376 . S
C1327 H1289 0.929 . S
C1327 C1322 1.397 . S
C1327 C1326 1.376 . S
C1328 C1312 1.509 . S
C1328 C1329 1.391 . S
C1328 C1333 1.386 . S
C1329 H1290 0.930 . S
C1329 C1328 1.391 . S
C1329 C1330 1.375 . S
C1330 H1291 0.931 . S
C1330 C1329 1.375 . S
C1330 C1331 1.375 . S
C1331 C1330 1.375 . S
C1331 C1332 1.361 . S
C1332 H1292 0.930 . S
C1332 C1331 1.361 . S
C1332 C1333 1.399 . S
C1333 H1293 0.929 . S
C1333 C1328 1.386 . S
C1333 C1332 1.399 . S
C1334 C1313 1.485 . S
C1334 C1335 1.394 . S
C1334 C1339 1.360 . S
C1335 H1294 0.931 . S
C1335 C1334 1.394 . S
C1335 C1336 1.372 . S
C1336 H1295 0.930 . S
C1336 C1335 1.372 . S
C1336 C1337 1.397 . S
C1337 C1336 1.397 . S
C1337 C1338 1.390 . S
C1337 C1353 1.476 . S
C1338 H1296 0.930 . S
C1338 C1337 1.390 . S
C1338 C1339 1.366 . S
C1339 H1297 0.932 . S
C1339 C1334 1.360 . S
C1339 C1338 1.366 . S
C1340 C1314 1.490 . S
C1340 C1341 1.380 . S
C1340 C1345 1.386 . S
C1341 H1298 0.930 . S
C1341 C1340 1.380 . S
C1341 C1342 1.381 . S
C1342 H1299 0.929 . S
C1342 C1341 1.381 . S
C1342 C1343 1.371 . S
C1343 C1342 1.371 . S
C1343 C1344 1.380 . S
C1344 H1300 0.931 . S
C1344 C1343 1.380 . S
C1344 C1345 1.387 . S
C1345 H1301 0.930 . S
C1345 C1340 1.386 . S
C1345 C1344 1.387 . S
C1346 C1315 1.519 1_556 S
C1346 C1347 1.377 . S
C1346 C1351 1.361 . S
C1347 H1302 0.929 . S
C1347 C1346 1.377 . S
C1347 C1348 1.386 . S
C1348 H1303 0.931 . S
C1348 C1347 1.386 . S
C1348 C1349 1.363 . S
C1349 C1348 1.363 . S
C1349 C1350 1.385 . S
C1350 H1304 0.930 . S
C1350 C1349 1.385 . S
C1350 C1351 1.396 . S
C1351 H1305 0.929 . S
C1351 C1346 1.361 . S
C1351 C1350 1.396 . S
C1352 O1306 1.300 . S
C1352 O1307 1.209 . S
C1352 C1325 1.486 . S
C1353 O1308 1.199 . S
C1353 O1309 1.297 . S
C1353 C1337 1.476 . S
H1354 O1380 0.856 . S
H1355 O1383 0.854 . S
H1356 C1391 0.930 . S
H1357 C1392 0.930 . S
H1358 C1394 0.930 . S
H1359 C1395 0.930 . S
H1360 C1397 0.931 . S
H1361 C1398 0.930 . S
H1362 C1400 0.930 . S
H1363 C1401 0.929 . S
H1364 C1403 0.930 . S
H1365 C1404 0.931 . S
H1366 C1406 0.930 . S
H1367 C1407 0.929 . S
H1368 C1409 0.931 . S
H1369 C1410 0.930 . S
H1370 C1412 0.930 . S
H1371 C1413 0.932 . S
H1372 C1415 0.930 . S
H1373 C1416 0.929 . S
H1374 C1418 0.931 . S
H1375 C1419 0.930 . S
H1376 C1421 0.929 . S
H1377 C1422 0.931 . S
H1378 C1424 0.930 . S
H1379 C1425 0.928 1_554 S
O1380 H1354 0.856 . S
O1380 C1426 1.300 . S
O1381 C1426 1.209 . S
O1382 C1427 1.199 . S
O1383 H1355 0.854 . S
O1383 C1427 1.297 . S
C1384 C1385 1.402 1_556 S
C1384 C1389 1.396 1_556 S
C1384 C1390 1.495 . S
C1385 C1384 1.402 1_554 S
C1385 C1386 1.396 . S
C1385 C1396 1.492 . S
C1386 C1385 1.396 . S
C1386 C1387 1.397 . S
C1386 C1402 1.509 . S
C1387 C1386 1.397 . S
C1387 C1388 1.412 . S
C1387 C1408 1.485 . S
C1388 C1387 1.412 . S
C1388 C1389 1.388 . S
C1388 C1414 1.490 . S
C1389 C1384 1.396 1_554 S
C1389 C1388 1.388 . S
C1389 C1420 1.519 1_554 S
C1390 C1384 1.495 . S
C1390 C1391 1.363 . S
C1390 C1395 1.390 . S
C1391 H1356 0.930 . S
C1391 C1390 1.363 . S
C1391 C1392 1.372 . S
C1392 H1357 0.930 . S
C1392 C1391 1.372 . S
C1392 C1393 1.383 . S
C1393 C1392 1.383 . S
C1393 C1394 1.395 . S
C1394 H1358 0.930 . S
C1394 C1393 1.395 . S
C1394 C1395 1.362 . S
C1395 H1359 0.930 . S
C1395 C1390 1.390 . S
C1395 C1394 1.362 . S
C1396 C1385 1.492 . S
C1396 C1397 1.377 . S
C1396 C1401 1.397 1_554 S
C1397 H1360 0.931 . S
C1397 C1396 1.377 . S
C1397 C1398 1.376 . S
C1398 H1361 0.930 . S
C1398 C1397 1.376 . S
C1398 C1399 1.376 1_554 S
C1399 C1398 1.376 1_556 S
C1399 C1400 1.378 . S
C1399 C1426 1.486 . S
C1400 H1362 0.930 . S
C1400 C1399 1.378 . S
C1400 C1401 1.376 . S
C1401 H1363 0.929 . S
C1401 C1396 1.397 1_556 S
C1401 C1400 1.376 . S
C1402 C1386 1.509 . S
C1402 C1403 1.391 . S
C1402 C1407 1.386 . S
C1403 H1364 0.930 . S
C1403 C1402 1.391 . S
C1403 C1404 1.375 . S
C1404 H1365 0.931 . S
C1404 C1403 1.375 . S
C1404 C1405 1.375 . S
C1405 C1404 1.375 . S
C1405 C1406 1.361 . S
C1406 H1366 0.930 . S
C1406 C1405 1.361 . S
C1406 C1407 1.399 . S
C1407 H1367 0.929 . S
C1407 C1402 1.386 . S
C1407 C1406 1.399 . S
C1408 C1387 1.485 . S
C1408 C1409 1.394 . S
C1408 C1413 1.360 . S
C1409 H1368 0.931 . S
C1409 C1408 1.394 . S
C1409 C1410 1.372 . S
C1410 H1369 0.930 . S
C1410 C1409 1.372 . S
C1410 C1411 1.397 . S
C1411 C1410 1.397 . S
C1411 C1412 1.390 . S
C1411 C1427 1.476 . S
C1412 H1370 0.930 . S
C1412 C1411 1.390 . S
C1412 C1413 1.366 . S
C1413 H1371 0.932 . S
C1413 C1408 1.360 . S
C1413 C1412 1.366 . S
C1414 C1388 1.490 . S
C1414 C1415 1.380 . S
C1414 C1419 1.386 . S
C1415 H1372 0.930 . S
C1415 C1414 1.380 . S
C1415 C1416 1.381 . S
C1416 H1373 0.929 . S
C1416 C1415 1.381 . S
C1416 C1417 1.371 . S
C1417 C1416 1.371 . S
C1417 C1418 1.380 . S
C1418 H1374 0.931 . S
C1418 C1417 1.380 . S
C1418 C1419 1.387 . S
C1419 H1375 0.930 . S
C1419 C1414 1.386 . S
C1419 C1418 1.387 . S
C1420 C1389 1.519 1_556 S
C1420 C1421 1.377 . S
C1420 C1425 1.361 . S
C1421 H1376 0.929 . S
C1421 C1420 1.377 . S
C1421 C1422 1.386 . S
C1422 H1377 0.931 . S
C1422 C1421 1.386 . S
C1422 C1423 1.363 . S
C1423 C1422 1.363 . S
C1423 C1424 1.385 . S
C1424 H1378 0.930 . S
C1424 C1423 1.385 . S
C1424 C1425 1.396 . S
C1425 H1379 0.928 1_556 S
C1425 C1420 1.361 . S
C1425 C1424 1.396 . S
C1426 O1380 1.300 . S
C1426 O1381 1.209 . S
C1426 C1399 1.486 . S
C1427 O1382 1.199 . S
C1427 O1383 1.297 . S
C1427 C1411 1.476 . S
H1428 O1454 0.856 . S
H1429 O1457 0.854 . S
H1430 C1465 0.930 . S
H1431 C1466 0.930 . S
H1432 C1468 0.930 . S
H1433 C1469 0.930 . S
H1434 C1471 0.931 . S
H1435 C1472 0.930 . S
H1436 C1474 0.930 . S
H1437 C1475 0.929 . S
H1438 C1477 0.930 . S
H1439 C1478 0.931 . S
H1440 C1480 0.930 . S
H1441 C1481 0.929 . S
H1442 C1483 0.931 . S
H1443 C1484 0.930 . S
H1444 C1486 0.930 . S
H1445 C1487 0.932 . S
H1446 C1489 0.930 . S
H1447 C1490 0.929 . S
H1448 C1492 0.931 . S
H1449 C1493 0.930 . S
H1450 C1495 0.929 . S
H1451 C1496 0.931 . S
H1452 C1498 0.930 . S
H1453 C1499 0.929 . S
O1454 H1428 0.856 . S
O1454 C1500 1.300 . S
O1455 C1500 1.209 . S
O1456 C1501 1.199 . S
O1457 H1429 0.854 . S
O1457 C1501 1.297 . S
C1458 C1459 1.404 . S
C1458 C1463 1.397 . S
C1458 C1464 1.492 . S
C1459 C1458 1.404 . S
C1459 C1460 1.396 1_554 S
C1459 C1470 1.492 . S
C1460 C1459 1.396 1_556 S
C1460 C1461 1.397 . S
C1460 C1476 1.509 . S
C1461 C1460 1.397 . S
C1461 C1462 1.412 . S
C1461 C1482 1.485 . S
C1462 C1461 1.412 . S
C1462 C1463 1.388 1_556 S
C1462 C1488 1.490 . S
C1463 C1458 1.397 . S
C1463 C1462 1.388 1_554 S
C1463 C1494 1.519 . S
C1464 C1458 1.492 . S
C1464 C1465 1.363 . S
C1464 C1469 1.390 . S
C1465 H1430 0.930 . S
C1465 C1464 1.363 . S
C1465 C1466 1.372 . S
C1466 H1431 0.930 . S
C1466 C1465 1.372 . S
C1466 C1467 1.383 . S
C1467 C1466 1.383 . S
C1467 C1468 1.395 . S
C1468 H1432 0.930 . S
C1468 C1467 1.395 . S
C1468 C1469 1.362 . S
C1469 H1433 0.930 . S
C1469 C1464 1.390 . S
C1469 C1468 1.362 . S
C1470 C1459 1.492 . S
C1470 C1471 1.377 . S
C1470 C1475 1.397 . S
C1471 H1434 0.931 . S
C1471 C1470 1.377 . S
C1471 C1472 1.376 . S
C1472 H1435 0.930 . S
C1472 C1471 1.376 . S
C1472 C1473 1.376 . S
C1473 C1472 1.376 . S
C1473 C1474 1.378 . S
C1473 C1500 1.486 . S
C1474 H1436 0.930 . S
C1474 C1473 1.378 . S
C1474 C1475 1.376 . S
C1475 H1437 0.929 . S
C1475 C1470 1.397 . S
C1475 C1474 1.376 . S
C1476 C1460 1.509 . S
C1476 C1477 1.391 . S
C1476 C1481 1.386 . S
C1477 H1438 0.930 . S
C1477 C1476 1.391 . S
C1477 C1478 1.375 . S
C1478 H1439 0.931 . S
C1478 C1477 1.375 . S
C1478 C1479 1.375 . S
C1479 C1478 1.375 . S
C1479 C1480 1.361 . S
C1480 H1440 0.930 . S
C1480 C1479 1.361 . S
C1480 C1481 1.399 . S
C1481 H1441 0.929 . S
C1481 C1476 1.386 . S
C1481 C1480 1.399 . S
C1482 C1461 1.485 . S
C1482 C1483 1.394 . S
C1482 C1487 1.360 . S
C1483 H1442 0.931 . S
C1483 C1482 1.394 . S
C1483 C1484 1.372 . S
C1484 H1443 0.930 . S
C1484 C1483 1.372 . S
C1484 C1485 1.397 . S
C1485 C1484 1.397 . S
C1485 C1486 1.390 . S
C1485 C1501 1.476 . S
C1486 H1444 0.930 . S
C1486 C1485 1.390 . S
C1486 C1487 1.366 . S
C1487 H1445 0.932 . S
C1487 C1482 1.360 . S
C1487 C1486 1.366 . S
C1488 C1462 1.490 . S
C1488 C1489 1.380 . S
C1488 C1493 1.386 . S
C1489 H1446 0.930 . S
C1489 C1488 1.380 . S
C1489 C1490 1.381 . S
C1490 H1447 0.929 . S
C1490 C1489 1.381 . S
C1490 C1491 1.371 . S
C1491 C1490 1.371 . S
C1491 C1492 1.380 . S
C1492 H1448 0.931 . S
C1492 C1491 1.380 . S
C1492 C1493 1.387 . S
C1493 H1449 0.930 . S
C1493 C1488 1.386 . S
C1493 C1492 1.387 . S
C1494 C1463 1.519 . S
C1494 C1495 1.377 . S
C1494 C1499 1.361 . S
C1495 H1450 0.929 . S
C1495 C1494 1.377 . S
C1495 C1496 1.386 . S
C1496 H1451 0.931 . S
C1496 C1495 1.386 . S
C1496 C1497 1.363 . S
C1497 C1496 1.363 . S
C1497 C1498 1.385 . S
C1498 H1452 0.930 . S
C1498 C1497 1.385 . S
C1498 C1499 1.396 . S
C1499 H1453 0.929 . S
C1499 C1494 1.361 . S
C1499 C1498 1.396 . S
C1500 O1454 1.300 . S
C1500 O1455 1.209 . S
C1500 C1473 1.486 . S
C1501 O1456 1.199 . S
C1501 O1457 1.297 . S
C1501 C1485 1.476 . S
H1502 O1528 0.856 . S
H1503 O1531 0.854 . S
H1504 C1539 0.930 . S
H1505 C1540 0.930 . S
H1506 C1542 0.930 . S
H1507 C1543 0.930 . S
H1508 C1545 0.931 . S
H1509 C1546 0.930 . S
H1510 C1548 0.930 . S
H1511 C1549 0.929 . S
H1512 C1551 0.930 . S
H1513 C1552 0.931 . S
H1514 C1554 0.930 . S
H1515 C1555 0.929 . S
H1516 C1557 0.931 . S
H1517 C1558 0.930 . S
H1518 C1560 0.930 . S
H1519 C1561 0.932 . S
H1520 C1563 0.930 . S
H1521 C1564 0.929 . S
H1522 C1566 0.931 . S
H1523 C1567 0.930 . S
H1524 C1569 0.929 . S
H1525 C1570 0.931 . S
H1526 C1572 0.930 . S
H1527 C1573 0.929 1_554 S
O1528 H1502 0.856 . S
O1528 C1574 1.300 . S
O1529 C1574 1.209 . S
O1530 C1575 1.199 . S
O1531 H1503 0.854 . S
O1531 C1575 1.297 . S
C1532 C1533 1.404 . S
C1532 C1537 1.397 . S
C1532 C1538 1.492 1_554 S
C1533 C1532 1.404 . S
C1533 C1534 1.396 . S
C1533 C1544 1.492 . S
C1534 C1533 1.396 . S
C1534 C1535 1.397 . S
C1534 C1550 1.509 . S
C1535 C1534 1.397 . S
C1535 C1536 1.412 . S
C1535 C1556 1.485 . S
C1536 C1535 1.412 . S
C1536 C1537 1.388 . S
C1536 C1562 1.490 . S
C1537 C1532 1.397 . S
C1537 C1536 1.388 . S
C1537 C1568 1.519 1_554 S
C1538 C1532 1.492 1_556 S
C1538 C1539 1.363 . S
C1538 C1543 1.390 . S
C1539 H1504 0.930 . S
C1539 C1538 1.363 . S
C1539 C1540 1.372 . S
C1540 H1505 0.930 . S
C1540 C1539 1.372 . S
C1540 C1541 1.383 . S
C1541 C1540 1.383 . S
C1541 C1542 1.395 . S
C1542 H1506 0.930 . S
C1542 C1541 1.395 . S
C1542 C1543 1.362 . S
C1543 H1507 0.930 . S
C1543 C1538 1.390 . S
C1543 C1542 1.362 . S
C1544 C1533 1.492 . S
C1544 C1545 1.377 . S
C1544 C1549 1.397 1_554 S
C1545 H1508 0.931 . S
C1545 C1544 1.377 . S
C1545 C1546 1.376 . S
C1546 H1509 0.930 . S
C1546 C1545 1.376 . S
C1546 C1547 1.376 1_554 S
C1547 C1546 1.376 1_556 S
C1547 C1548 1.378 . S
C1547 C1574 1.486 . S
C1548 H1510 0.930 . S
C1548 C1547 1.378 . S
C1548 C1549 1.376 . S
C1549 H1511 0.929 . S
C1549 C1544 1.397 1_556 S
C1549 C1548 1.376 . S
C1550 C1534 1.509 . S
C1550 C1551 1.391 . S
C1550 C1555 1.386 . S
C1551 H1512 0.930 . S
C1551 C1550 1.391 . S
C1551 C1552 1.375 . S
C1552 H1513 0.931 . S
C1552 C1551 1.375 . S
C1552 C1553 1.375 . S
C1553 C1552 1.375 . S
C1553 C1554 1.361 . S
C1554 H1514 0.930 . S
C1554 C1553 1.361 . S
C1554 C1555 1.399 . S
C1555 H1515 0.929 . S
C1555 C1550 1.386 . S
C1555 C1554 1.399 . S
C1556 C1535 1.485 . S
C1556 C1557 1.394 . S
C1556 C1561 1.360 . S
C1557 H1516 0.931 . S
C1557 C1556 1.394 . S
C1557 C1558 1.372 . S
C1558 H1517 0.930 . S
C1558 C1557 1.372 . S
C1558 C1559 1.397 . S
C1559 C1558 1.397 . S
C1559 C1560 1.390 . S
C1559 C1575 1.476 . S
C1560 H1518 0.930 . S
C1560 C1559 1.390 . S
C1560 C1561 1.366 . S
C1561 H1519 0.932 . S
C1561 C1556 1.360 . S
C1561 C1560 1.366 . S
C1562 C1536 1.490 . S
C1562 C1563 1.380 . S
C1562 C1567 1.386 . S
C1563 H1520 0.930 . S
C1563 C1562 1.380 . S
C1563 C1564 1.381 . S
C1564 H1521 0.929 . S
C1564 C1563 1.381 . S
C1564 C1565 1.371 . S
C1565 C1564 1.371 . S
C1565 C1566 1.380 . S
C1566 H1522 0.931 . S
C1566 C1565 1.380 . S
C1566 C1567 1.387 . S
C1567 H1523 0.930 . S
C1567 C1562 1.386 . S
C1567 C1566 1.387 . S
C1568 C1537 1.519 1_556 S
C1568 C1569 1.377 . S
C1568 C1573 1.361 . S
C1569 H1524 0.929 . S
C1569 C1568 1.377 . S
C1569 C1570 1.386 . S
C1570 H1525 0.931 . S
C1570 C1569 1.386 . S
C1570 C1571 1.363 . S
C1571 C1570 1.363 . S
C1571 C1572 1.385 . S
C1572 H1526 0.930 . S
C1572 C1571 1.385 . S
C1572 C1573 1.396 . S
C1573 H1527 0.929 1_556 S
C1573 C1568 1.361 . S
C1573 C1572 1.396 . S
C1574 O1528 1.300 . S
C1574 O1529 1.209 . S
C1574 C1547 1.486 . S
C1575 O1530 1.199 . S
C1575 O1531 1.297 . S
C1575 C1559 1.476 . S
H1576 O1602 0.856 . S
H1577 O1605 0.854 . S
H1578 C1613 0.930 1_455 S
H1579 C1614 0.930 . S
H1580 C1616 0.930 . S
H1581 C1617 0.930 . S
H1582 C1619 0.931 . S
H1583 C1620 0.930 . S
H1584 C1622 0.930 . S
H1585 C1623 0.929 . S
H1586 C1625 0.930 . S
H1587 C1626 0.931 . S
H1588 C1628 0.930 . S
H1589 C1629 0.929 . S
H1590 C1631 0.931 . S
H1591 C1632 0.930 . S
H1592 C1634 0.930 . S
H1593 C1635 0.932 . S
H1594 C1637 0.930 . S
H1595 C1638 0.929 . S
H1596 C1640 0.931 . S
H1597 C1641 0.930 . S
H1598 C1643 0.929 1_455 S
H1599 C1644 0.931 . S
H1600 C1646 0.930 . S
H1601 C1647 0.929 . S
O1602 H1576 0.856 . S
O1602 C1648 1.300 . S
O1603 C1648 1.209 . S
O1604 C1649 1.199 . S
O1605 H1577 0.854 . S
O1605 C1649 1.297 . S
C1606 C1607 1.404 . S
C1606 C1611 1.397 . S
C1606 C1612 1.492 . S
C1607 C1606 1.404 . S
C1607 C1608 1.396 . S
C1607 C1618 1.492 . S
C1608 C1607 1.396 . S
C1608 C1609 1.397 . S
C1608 C1624 1.509 . S
C1609 C1608 1.397 . S
C1609 C1610 1.412 . S
C1609 C1630 1.485 . S
C1610 C1609 1.412 . S
C1610 C1611 1.388 . S
C1610 C1636 1.490 . S
C1611 C1606 1.397 . S
C1611 C1610 1.388 . S
C1611 C1642 1.519 . S
C1612 C1606 1.492 . S
C1612 C1613 1.363 1_455 S
C1612 C1617 1.390 1_455 S
C1613 H1578 0.930 1_655 S
C1613 C1612 1.363 1_655 S
C1613 C1614 1.372 . S
C1614 H1579 0.930 . S
C1614 C1613 1.372 . S
C1614 C1615 1.383 . S
C1615 C1614 1.383 . S
C1615 C1616 1.395 . S
C1616 H1580 0.930 . S
C1616 C1615 1.395 . S
C1616 C1617 1.362 . S
C1617 H1581 0.930 . S
C1617 C1612 1.390 1_655 S
C1617 C1616 1.362 . S
C1618 C1607 1.492 . S
C1618 C1619 1.377 . S
C1618 C1623 1.397 . S
C1619 H1582 0.931 . S
C1619 C1618 1.377 . S
C1619 C1620 1.376 . S
C1620 H1583 0.930 . S
C1620 C1619 1.376 . S
C1620 C1621 1.376 . S
C1621 C1620 1.376 . S
C1621 C1622 1.378 . S
C1621 C1648 1.486 . S
C1622 H1584 0.930 . S
C1622 C1621 1.378 . S
C1622 C1623 1.376 . S
C1623 H1585 0.929 . S
C1623 C1618 1.397 . S
C1623 C1622 1.376 . S
C1624 C1608 1.509 . S
C1624 C1625 1.391 . S
C1624 C1629 1.386 . S
C1625 H1586 0.930 . S
C1625 C1624 1.391 . S
C1625 C1626 1.375 . S
C1626 H1587 0.931 . S
C1626 C1625 1.375 . S
C1626 C1627 1.375 . S
C1627 C1626 1.375 . S
C1627 C1628 1.361 . S
C1628 H1588 0.930 . S
C1628 C1627 1.361 . S
C1628 C1629 1.399 . S
C1629 H1589 0.929 . S
C1629 C1624 1.386 . S
C1629 C1628 1.399 . S
C1630 C1609 1.485 . S
C1630 C1631 1.394 . S
C1630 C1635 1.360 . S
C1631 H1590 0.931 . S
C1631 C1630 1.394 . S
C1631 C1632 1.372 . S
C1632 H1591 0.930 . S
C1632 C1631 1.372 . S
C1632 C1633 1.397 . S
C1633 C1632 1.397 . S
C1633 C1634 1.390 . S
C1633 C1649 1.476 . S
C1634 H1592 0.930 . S
C1634 C1633 1.390 . S
C1634 C1635 1.366 . S
C1635 H1593 0.932 . S
C1635 C1630 1.360 . S
C1635 C1634 1.366 . S
C1636 C1610 1.490 . S
C1636 C1637 1.380 . S
C1636 C1641 1.386 . S
C1637 H1594 0.930 . S
C1637 C1636 1.380 . S
C1637 C1638 1.381 . S
C1638 H1595 0.929 . S
C1638 C1637 1.381 . S
C1638 C1639 1.371 . S
C1639 C1638 1.371 . S
C1639 C1640 1.380 . S
C1640 H1596 0.931 . S
C1640 C1639 1.380 . S
C1640 C1641 1.387 . S
C1641 H1597 0.930 . S
C1641 C1636 1.386 . S
C1641 C1640 1.387 . S
C1642 C1611 1.519 . S
C1642 C1643 1.377 1_455 S
C1642 C1647 1.361 . S
C1643 H1598 0.929 1_655 S
C1643 C1642 1.377 1_655 S
C1643 C1644 1.386 . S
C1644 H1599 0.931 . S
C1644 C1643 1.386 . S
C1644 C1645 1.363 . S
C1645 C1644 1.363 . S
C1645 C1646 1.385 . S
C1646 H1600 0.930 . S
C1646 C1645 1.385 . S
C1646 C1647 1.396 1_655 S
C1647 H1601 0.929 . S
C1647 C1642 1.361 . S
C1647 C1646 1.396 1_455 S
C1648 O1602 1.300 . S
C1648 O1603 1.209 . S
C1648 C1621 1.486 . S
C1649 O1604 1.199 . S
C1649 O1605 1.297 . S
C1649 C1633 1.476 . S
H1650 O1676 0.856 . S
H1651 O1679 0.854 . S
H1652 C1687 0.974 . S
H1653 C1688 0.930 . S
H1654 C1690 0.930 . S
H1655 C1691 0.930 . S
H1656 C1693 0.931 . S
H1657 C1694 0.930 . S
H1658 C1696 0.927 . S
H1659 C1697 0.929 . S
H1660 C1699 0.930 . S
H1661 C1700 0.931 . S
H1662 C1702 0.930 . S
H1663 C1703 0.929 . S
H1664 C1705 0.931 . S
H1665 C1706 0.930 . S
H1666 C1708 0.930 . S
H1667 C1709 0.932 . S
H1668 C1711 0.930 . S
H1669 C1712 0.929 . S
H1670 C1714 0.931 . S
H1671 C1715 0.930 . S
H1672 C1717 0.929 . S
H1673 C1718 0.931 . S
H1674 C1720 0.930 . S
H1675 C1721 0.929 . S
O1676 H1650 0.856 . S
O1676 C1722 1.300 . S
O1677 C1722 1.209 1_565 S
O1678 C1723 1.199 . S
O1679 H1651 0.854 . S
O1679 C1723 1.297 . S
C1680 C1681 1.404 . S
C1680 C1685 1.397 . S
C1680 C1686 1.492 1_545 S
C1681 C1680 1.404 . S
C1681 C1682 1.396 . S
C1681 C1692 1.492 . S
C1682 C1681 1.396 . S
C1682 C1683 1.397 . S
C1682 C1698 1.509 . S
C1683 C1682 1.397 . S
C1683 C1684 1.412 . S
C1683 C1704 1.485 . S
C1684 C1683 1.412 . S
C1684 C1685 1.388 . S
C1684 C1710 1.490 . S
C1685 C1680 1.397 . S
C1685 C1684 1.388 . S
C1685 C1716 1.519 . S
C1686 C1680 1.492 1_565 S
C1686 C1687 1.363 . S
C1686 C1691 1.390 . S
C1687 H1652 0.974 . S
C1687 C1686 1.363 . S
C1687 C1688 1.372 . S
C1688 H1653 0.930 . S
C1688 C1687 1.372 . S
C1688 C1689 1.383 . S
C1689 C1688 1.383 . S
C1689 C1690 1.395 . S
C1690 H1654 0.930 . S
C1690 C1689 1.395 . S
C1690 C1691 1.362 . S
C1691 H1655 0.930 . S
C1691 C1686 1.390 . S
C1691 C1690 1.362 . S
C1692 C1681 1.492 . S
C1692 C1693 1.377 . S
C1692 C1697 1.397 . S
C1693 H1656 0.931 . S
C1693 C1692 1.377 . S
C1693 C1694 1.376 . S
C1694 H1657 0.930 . S
C1694 C1693 1.376 . S
C1694 C1695 1.376 . S
C1695 C1694 1.376 . S
C1695 C1696 1.378 . S
C1695 C1722 1.486 . S
C1696 H1658 0.927 . S
C1696 C1695 1.378 . S
C1696 C1697 1.376 . S
C1697 H1659 0.929 . S
C1697 C1692 1.397 . S
C1697 C1696 1.376 . S
C1698 C1682 1.509 . S
C1698 C1699 1.391 . S
C1698 C1703 1.386 . S
C1699 H1660 0.930 . S
C1699 C1698 1.391 . S
C1699 C1700 1.375 . S
C1700 H1661 0.931 . S
C1700 C1699 1.375 . S
C1700 C1701 1.375 . S
C1701 C1700 1.375 . S
C1701 C1702 1.361 . S
C1702 H1662 0.930 . S
C1702 C1701 1.361 . S
C1702 C1703 1.399 . S
C1703 H1663 0.929 . S
C1703 C1698 1.386 . S
C1703 C1702 1.399 . S
C1704 C1683 1.485 . S
C1704 C1705 1.394 . S
C1704 C1709 1.360 . S
C1705 H1664 0.931 . S
C1705 C1704 1.394 . S
C1705 C1706 1.372 . S
C1706 H1665 0.930 . S
C1706 C1705 1.372 . S
C1706 C1707 1.397 . S
C1707 C1706 1.397 . S
C1707 C1708 1.390 . S
C1707 C1723 1.476 . S
C1708 H1666 0.930 . S
C1708 C1707 1.390 . S
C1708 C1709 1.366 . S
C1709 H1667 0.932 . S
C1709 C1704 1.360 . S
C1709 C1708 1.366 . S
C1710 C1684 1.490 . S
C1710 C1711 1.380 . S
C1710 C1715 1.386 . S
C1711 H1668 0.930 . S
C1711 C1710 1.380 . S
C1711 C1712 1.381 . S
C1712 H1669 0.929 . S
C1712 C1711 1.381 . S
C1712 C1713 1.371 . S
C1713 C1712 1.371 . S
C1713 C1714 1.380 . S
C1714 H1670 0.931 . S
C1714 C1713 1.380 . S
C1714 C1715 1.387 . S
C1715 H1671 0.930 . S
C1715 C1710 1.386 . S
C1715 C1714 1.387 . S
C1716 C1685 1.519 . S
C1716 C1717 1.377 1_545 S
C1716 C1721 1.361 . S
C1717 H1672 0.929 . S
C1717 C1716 1.377 1_565 S
C1717 C1718 1.386 . S
C1718 H1673 0.931 . S
C1718 C1717 1.386 . S
C1718 C1719 1.363 . S
C1719 C1718 1.363 . S
C1719 C1720 1.385 . S
C1720 H1674 0.930 . S
C1720 C1719 1.385 . S
C1720 C1721 1.396 1_565 S
C1721 H1675 0.929 . S
C1721 C1716 1.361 . S
C1721 C1720 1.396 1_545 S
C1722 O1676 1.300 . S
C1722 O1677 1.209 1_545 S
C1722 C1695 1.486 . S
C1723 O1678 1.199 . S
C1723 O1679 1.297 . S
C1723 C1707 1.476 . S
H1724 O1750 0.856 . S
H1725 O1753 0.854 . S
H1726 C1761 0.930 . S
H1727 C1762 0.930 . S
H1728 C1764 0.930 . S
H1729 C1765 0.930 . S
H1730 C1767 0.931 . S
H1731 C1768 0.930 . S
H1732 C1770 0.930 . S
H1733 C1771 0.929 . S
H1734 C1773 0.930 . S
H1735 C1774 0.931 . S
H1736 C1776 0.930 . S
H1737 C1777 0.929 . S
H1738 C1779 0.931 . S
H1739 C1780 0.930 . S
H1740 C1782 0.930 . S
H1741 C1783 0.932 . S
H1742 C1785 0.930 . S
H1743 C1786 0.929 . S
H1744 C1788 0.931 . S
H1745 C1789 0.930 . S
H1746 C1791 0.929 . S
H1747 C1792 0.931 . S
H1748 C1794 0.930 . S
H1749 C1795 0.929 . S
O1750 H1724 0.856 . S
O1750 C1796 1.300 . S
O1751 C1796 1.209 . S
O1752 C1797 1.199 . S
O1753 H1725 0.854 . S
O1753 C1797 1.297 . S
C1754 C1755 1.404 . S
C1754 C1759 1.397 . S
C1754 C1760 1.492 . S
C1755 C1754 1.404 . S
C1755 C1756 1.396 1_455 S
C1755 C1766 1.492 . S
C1756 C1755 1.396 1_655 S
C1756 C1757 1.397 . S
C1756 C1772 1.509 . S
C1757 C1756 1.397 . S
C1757 C1758 1.412 . S
C1757 C1778 1.485 . S
C1758 C1757 1.412 . S
C1758 C1759 1.388 1_655 S
C1758 C1784 1.490 . S
C1759 C1754 1.397 . S
C1759 C1758 1.388 1_455 S
C1759 C1790 1.519 . S
C1760 C1754 1.492 . S
C1760 C1761 1.363 . S
C1760 C1765 1.390 . S
C1761 H1726 0.930 . S
C1761 C1760 1.363 . S
C1761 C1762 1.372 . S
C1762 H1727 0.930 . S
C1762 C1761 1.372 . S
C1762 C1763 1.383 . S
C1763 C1762 1.383 . S
C1763 C1764 1.395 . S
C1764 H1728 0.930 . S
C1764 C1763 1.395 . S
C1764 C1765 1.362 . S
C1765 H1729 0.930 . S
C1765 C1760 1.390 . S
C1765 C1764 1.362 . S
C1766 C1755 1.492 . S
C1766 C1767 1.377 . S
C1766 C1771 1.397 . S
C1767 H1730 0.931 . S
C1767 C1766 1.377 . S
C1767 C1768 1.376 . S
C1768 H1731 0.930 . S
C1768 C1767 1.376 . S
C1768 C1769 1.376 . S
C1769 C1768 1.376 . S
C1769 C1770 1.378 . S
C1769 C1796 1.486 . S
C1770 H1732 0.930 . S
C1770 C1769 1.378 . S
C1770 C1771 1.376 . S
C1771 H1733 0.929 . S
C1771 C1766 1.397 . S
C1771 C1770 1.376 . S
C1772 C1756 1.509 . S
C1772 C1773 1.391 . S
C1772 C1777 1.386 . S
C1773 H1734 0.930 . S
C1773 C1772 1.391 . S
C1773 C1774 1.375 . S
C1774 H1735 0.931 . S
C1774 C1773 1.375 . S
C1774 C1775 1.375 . S
C1775 C1774 1.375 . S
C1775 C1776 1.361 . S
C1776 H1736 0.930 . S
C1776 C1775 1.361 . S
C1776 C1777 1.399 . S
C1777 H1737 0.929 . S
C1777 C1772 1.386 . S
C1777 C1776 1.399 . S
C1778 C1757 1.485 . S
C1778 C1779 1.394 . S
C1778 C1783 1.360 . S
C1779 H1738 0.931 . S
C1779 C1778 1.394 . S
C1779 C1780 1.372 . S
C1780 H1739 0.930 . S
C1780 C1779 1.372 . S
C1780 C1781 1.397 . S
C1781 C1780 1.397 . S
C1781 C1782 1.390 . S
C1781 C1797 1.476 . S
C1782 H1740 0.930 . S
C1782 C1781 1.390 . S
C1782 C1783 1.366 . S
C1783 H1741 0.932 . S
C1783 C1778 1.360 . S
C1783 C1782 1.366 . S
C1784 C1758 1.490 . S
C1784 C1785 1.380 . S
C1784 C1789 1.386 . S
C1785 H1742 0.930 . S
C1785 C1784 1.380 . S
C1785 C1786 1.381 . S
C1786 H1743 0.929 . S
C1786 C1785 1.381 . S
C1786 C1787 1.371 . S
C1787 C1786 1.371 . S
C1787 C1788 1.380 . S
C1788 H1744 0.931 . S
C1788 C1787 1.380 . S
C1788 C1789 1.387 . S
C1789 H1745 0.930 . S
C1789 C1784 1.386 . S
C1789 C1788 1.387 . S
C1790 C1759 1.519 . S
C1790 C1791 1.377 . S
C1790 C1795 1.361 . S
C1791 H1746 0.929 . S
C1791 C1790 1.377 . S
C1791 C1792 1.386 . S
C1792 H1747 0.931 . S
C1792 C1791 1.386 . S
C1792 C1793 1.363 . S
C1793 C1792 1.363 . S
C1793 C1794 1.385 . S
C1794 H1748 0.930 . S
C1794 C1793 1.385 . S
C1794 C1795 1.396 . S
C1795 H1749 0.929 . S
C1795 C1790 1.361 . S
C1795 C1794 1.396 . S
C1796 O1750 1.300 . S
C1796 O1751 1.209 . S
C1796 C1769 1.486 . S
C1797 O1752 1.199 . S
C1797 O1753 1.297 . S
C1797 C1781 1.476 . S
H1798 O1824 0.856 . S
H1799 O1827 0.854 . S
H1800 C1835 0.930 . S
H1801 C1836 0.930 . S
H1802 C1838 0.930 . S
H1803 C1839 0.930 . S
H1804 C1841 0.931 . S
H1805 C1842 0.944 . S
H1806 C1844 0.930 . S
H1807 C1845 0.929 . S
H1808 C1847 0.930 . S
H1809 C1848 0.931 . S
H1810 C1850 0.930 . S
H1811 C1851 0.929 . S
H1812 C1853 0.931 . S
H1813 C1854 0.930 . S
H1814 C1856 0.930 . S
H1815 C1857 0.932 . S
H1816 C1859 0.930 . S
H1817 C1860 0.929 . S
H1818 C1862 0.931 . S
H1819 C1863 0.930 . S
H1820 C1865 0.929 . S
H1821 C1866 0.931 . S
H1822 C1868 0.930 . S
H1823 C1869 0.929 . S
O1824 H1798 0.856 . S
O1824 C1870 1.300 . S
O1825 C1870 1.209 . S
O1826 C1871 1.199 . S
O1827 H1799 0.854 . S
O1827 C1871 1.297 . S
C1828 C1829 1.404 1_545 S
C1828 C1833 1.397 1_545 S
C1828 C1834 1.492 . S
C1829 C1828 1.404 1_565 S
C1829 C1830 1.396 . S
C1829 C1840 1.492 . S
C1830 C1829 1.396 . S
C1830 C1831 1.397 . S
C1830 C1846 1.509 . S
C1831 C1830 1.397 . S
C1831 C1832 1.412 . S
C1831 C1852 1.485 . S
C1832 C1831 1.412 . S
C1832 C1833 1.388 . S
C1832 C1858 1.490 . S
C1833 C1828 1.397 1_565 S
C1833 C1832 1.388 . S
C1833 C1864 1.519 1_565 S
C1834 C1828 1.492 . S
C1834 C1835 1.363 . S
C1834 C1839 1.390 . S
C1835 H1800 0.930 . S
C1835 C1834 1.363 . S
C1835 C1836 1.372 . S
C1836 H1801 0.930 . S
C1836 C1835 1.372 . S
C1836 C1837 1.383 . S
C1837 C1836 1.383 . S
C1837 C1838 1.395 . S
C1838 H1802 0.930 . S
C1838 C1837 1.395 . S
C1838 C1839 1.362 . S
C1839 H1803 0.930 . S
C1839 C1834 1.390 . S
C1839 C1838 1.362 . S
C1840 C1829 1.492 . S
C1840 C1841 1.377 . S
C1840 C1845 1.397 1_565 S
C1841 H1804 0.931 . S
C1841 C1840 1.377 . S
C1841 C1842 1.395 . S
C1842 H1805 0.944 . S
C1842 C1841 1.395 . S
C1842 C1843 1.346 1_565 S
C1843 C1842 1.346 1_545 S
C1843 C1844 1.378 . S
C1843 C1870 1.486 . S
C1844 H1806 0.930 . S
C1844 C1843 1.378 . S
C1844 C1845 1.376 . S
C1845 H1807 0.929 . S
C1845 C1840 1.397 1_545 S
C1845 C1844 1.376 . S
C1846 C1830 1.509 . S
C1846 C1847 1.391 . S
C1846 C1851 1.386 . S
C1847 H1808 0.930 . S
C1847 C1846 1.391 . S
C1847 C1848 1.375 . S
C1848 H1809 0.931 . S
C1848 C1847 1.375 . S
C1848 C1849 1.375 . S
C1849 C1848 1.375 . S
C1849 C1850 1.361 . S
C1850 H1810 0.930 . S
C1850 C1849 1.361 . S
C1850 C1851 1.399 . S
C1851 H1811 0.929 . S
C1851 C1846 1.386 . S
C1851 C1850 1.399 . S
C1852 C1831 1.485 . S
C1852 C1853 1.394 . S
C1852 C1857 1.360 . S
C1853 H1812 0.931 . S
C1853 C1852 1.394 . S
C1853 C1854 1.372 . S
C1854 H1813 0.930 . S
C1854 C1853 1.372 . S
C1854 C1855 1.397 . S
C1855 C1854 1.397 . S
C1855 C1856 1.390 . S
C1855 C1871 1.476 . S
C1856 H1814 0.930 . S
C1856 C1855 1.390 . S
C1856 C1857 1.366 . S
C1857 H1815 0.932 . S
C1857 C1852 1.360 . S
C1857 C1856 1.366 . S
C1858 C1832 1.490 . S
C1858 C1859 1.380 . S
C1858 C1863 1.386 . S
C1859 H1816 0.930 . S
C1859 C1858 1.380 . S
C1859 C1860 1.381 . S
C1860 H1817 0.929 . S
C1860 C1859 1.381 . S
C1860 C1861 1.371 . S
C1861 C1860 1.371 . S
C1861 C1862 1.380 . S
C1862 H1818 0.931 . S
C1862 C1861 1.380 . S
C1862 C1863 1.387 . S
C1863 H1819 0.930 . S
C1863 C1858 1.386 . S
C1863 C1862 1.387 . S
C1864 C1833 1.519 1_545 S
C1864 C1865 1.377 . S
C1864 C1869 1.361 . S
C1865 H1820 0.929 . S
C1865 C1864 1.377 . S
C1865 C1866 1.386 . S
C1866 H1821 0.931 . S
C1866 C1865 1.386 . S
C1866 C1867 1.363 . S
C1867 C1866 1.363 . S
C1867 C1868 1.385 . S
C1868 H1822 0.930 . S
C1868 C1867 1.385 . S
C1868 C1869 1.396 . S
C1869 H1823 0.929 . S
C1869 C1864 1.361 . S
C1869 C1868 1.396 . S
C1870 O1824 1.300 . S
C1870 O1825 1.209 . S
C1870 C1843 1.486 . S
C1871 O1826 1.199 . S
C1871 O1827 1.297 . S
C1871 C1855 1.476 . S
H1872 O1898 0.856 . S
H1873 O1901 0.854 . S
H1874 C1909 0.930 1_455 S
H1875 C1910 0.930 . S
H1876 C1912 0.930 . S
H1877 C1913 0.930 . S
H1878 C1915 0.931 . S
H1879 C1916 0.930 . S
H1880 C1918 0.930 . S
H1881 C1919 0.929 . S
H1882 C1921 0.930 . S
H1883 C1922 0.931 . S
H1884 C1924 0.930 . S
H1885 C1925 0.929 . S
H1886 C1927 0.931 . S
H1887 C1928 0.930 . S
H1888 C1930 0.930 . S
H1889 C1931 0.932 . S
H1890 C1933 0.930 . S
H1891 C1934 0.929 . S
H1892 C1936 0.931 . S
H1893 C1937 0.930 . S
H1894 C1939 0.929 . S
H1895 C1940 0.931 . S
H1896 C1942 0.930 . S
H1897 C1943 0.929 . S
O1898 H1872 0.856 . S
O1898 C1944 1.300 . S
O1899 C1944 1.209 . S
O1900 C1945 1.199 . S
O1901 H1873 0.854 . S
O1901 C1945 1.297 . S
C1902 C1903 1.404 . S
C1902 C1907 1.397 . S
C1902 C1908 1.492 . S
C1903 C1902 1.404 . S
C1903 C1904 1.396 . S
C1903 C1914 1.492 . S
C1904 C1903 1.396 . S
C1904 C1905 1.397 . S
C1904 C1920 1.509 . S
C1905 C1904 1.397 . S
C1905 C1906 1.412 . S
C1905 C1926 1.485 . S
C1906 C1905 1.412 . S
C1906 C1907 1.388 . S
C1906 C1932 1.490 . S
C1907 C1902 1.397 . S
C1907 C1906 1.388 . S
C1907 C1938 1.519 . S
C1908 C1902 1.492 . S
C1908 C1909 1.363 1_455 S
C1908 C1913 1.390 1_455 S
C1909 H1874 0.930 1_655 S
C1909 C1908 1.363 1_655 S
C1909 C1910 1.372 . S
C1910 H1875 0.930 . S
C1910 C1909 1.372 . S
C1910 C1911 1.383 . S
C1911 C1910 1.383 . S
C1911 C1912 1.395 . S
C1912 H1876 0.930 . S
C1912 C1911 1.395 . S
C1912 C1913 1.362 . S
C1913 H1877 0.930 . S
C1913 C1908 1.390 1_655 S
C1913 C1912 1.362 . S
C1914 C1903 1.492 . S
C1914 C1915 1.377 . S
C1914 C1919 1.397 . S
C1915 H1878 0.931 . S
C1915 C1914 1.377 . S
C1915 C1916 1.376 . S
C1916 H1879 0.930 . S
C1916 C1915 1.376 . S
C1916 C1917 1.376 . S
C1917 C1916 1.376 . S
C1917 C1918 1.378 . S
C1917 C1944 1.486 . S
C1918 H1880 0.930 . S
C1918 C1917 1.378 . S
C1918 C1919 1.376 . S
C1919 H1881 0.929 . S
C1919 C1914 1.397 . S
C1919 C1918 1.376 . S
C1920 C1904 1.509 . S
C1920 C1921 1.391 . S
C1920 C1925 1.386 . S
C1921 H1882 0.930 . S
C1921 C1920 1.391 . S
C1921 C1922 1.375 . S
C1922 H1883 0.931 . S
C1922 C1921 1.375 . S
C1922 C1923 1.375 . S
C1923 C1922 1.375 . S
C1923 C1924 1.361 . S
C1924 H1884 0.930 . S
C1924 C1923 1.361 . S
C1924 C1925 1.399 . S
C1925 H1885 0.929 . S
C1925 C1920 1.386 . S
C1925 C1924 1.399 . S
C1926 C1905 1.485 . S
C1926 C1927 1.394 . S
C1926 C1931 1.360 . S
C1927 H1886 0.931 . S
C1927 C1926 1.394 . S
C1927 C1928 1.372 . S
C1928 H1887 0.930 . S
C1928 C1927 1.372 . S
C1928 C1929 1.397 . S
C1929 C1928 1.397 . S
C1929 C1930 1.390 . S
C1929 C1945 1.476 . S
C1930 H1888 0.930 . S
C1930 C1929 1.390 . S
C1930 C1931 1.366 . S
C1931 H1889 0.932 . S
C1931 C1926 1.360 . S
C1931 C1930 1.366 . S
C1932 C1906 1.490 . S
C1932 C1933 1.380 . S
C1932 C1937 1.386 . S
C1933 H1890 0.930 . S
C1933 C1932 1.380 . S
C1933 C1934 1.381 . S
C1934 H1891 0.929 . S
C1934 C1933 1.381 . S
C1934 C1935 1.371 . S
C1935 C1934 1.371 . S
C1935 C1936 1.380 . S
C1936 H1892 0.931 . S
C1936 C1935 1.380 . S
C1936 C1937 1.387 . S
C1937 H1893 0.930 . S
C1937 C1932 1.386 . S
C1937 C1936 1.387 . S
C1938 C1907 1.519 . S
C1938 C1939 1.377 1_455 S
C1938 C1943 1.361 . S
C1939 H1894 0.929 . S
C1939 C1938 1.377 1_655 S
C1939 C1940 1.386 . S
C1940 H1895 0.931 . S
C1940 C1939 1.386 . S
C1940 C1941 1.363 . S
C1941 C1940 1.363 . S
C1941 C1942 1.385 . S
C1942 H1896 0.930 . S
C1942 C1941 1.385 . S
C1942 C1943 1.396 1_655 S
C1943 H1897 0.929 . S
C1943 C1938 1.361 . S
C1943 C1942 1.396 1_455 S
C1944 O1898 1.300 . S
C1944 O1899 1.209 . S
C1944 C1917 1.486 . S
C1945 O1900 1.199 . S
C1945 O1901 1.297 . S
C1945 C1929 1.476 . S
H1946 O1972 0.856 . S
H1947 O1975 0.854 . S
H1948 C1983 0.977 . S
H1949 C1984 0.930 . S
H1950 C1986 0.930 . S
H1951 C1987 0.930 . S
H1952 C1989 0.931 . S
H1953 C1990 0.930 . S
H1954 C1992 0.930 . S
H1955 C1993 0.929 . S
H1956 C1995 0.930 . S
H1957 C1996 0.931 . S
H1958 C1998 0.930 . S
H1959 C1999 0.929 . S
H1960 C2001 0.931 . S
H1961 C2002 0.930 . S
H1962 C2004 0.930 . S
H1963 C2005 0.932 . S
H1964 C2007 0.930 . S
H1965 C2008 0.929 . S
H1966 C2010 0.931 . S
H1967 C2011 0.930 . S
H1968 C2013 0.929 . S
H1969 C2014 0.931 . S
H1970 C2016 0.930 . S
H1971 C2017 0.929 . S
O1972 H1946 0.856 . S
O1972 C2018 1.300 . S
O1973 C2018 1.209 1_565 S
O1974 C2019 1.199 . S
O1975 H1947 0.854 . S
O1975 C2019 1.297 . S
C1976 C1977 1.404 . S
C1976 C1981 1.397 . S
C1976 C1982 1.492 1_545 S
C1977 C1976 1.404 . S
C1977 C1978 1.396 . S
C1977 C1988 1.492 . S
C1978 C1977 1.396 . S
C1978 C1979 1.397 . S
C1978 C1994 1.509 . S
C1979 C1978 1.397 . S
C1979 C1980 1.412 . S
C1979 C2000 1.485 . S
C1980 C1979 1.412 . S
C1980 C1981 1.388 . S
C1980 C2006 1.490 . S
C1981 C1976 1.397 . S
C1981 C1980 1.388 . S
C1981 C2012 1.519 . S
C1982 C1976 1.492 1_565 S
C1982 C1983 1.363 . S
C1982 C1987 1.390 . S
C1983 H1948 0.977 . S
C1983 C1982 1.363 . S
C1983 C1984 1.372 . S
C1984 H1949 0.930 . S
C1984 C1983 1.372 . S
C1984 C1985 1.383 . S
C1985 C1984 1.383 . S
C1985 C1986 1.395 . S
C1986 H1950 0.930 . S
C1986 C1985 1.395 . S
C1986 C1987 1.362 . S
C1987 H1951 0.930 . S
C1987 C1982 1.390 . S
C1987 C1986 1.362 . S
C1988 C1977 1.492 . S
C1988 C1989 1.377 . S
C1988 C1993 1.397 . S
C1989 H1952 0.931 . S
C1989 C1988 1.377 . S
C1989 C1990 1.376 . S
C1990 H1953 0.930 . S
C1990 C1989 1.376 . S
C1990 C1991 1.376 . S
C1991 C1990 1.376 . S
C1991 C1992 1.378 . S
C1991 C2018 1.486 . S
C1992 H1954 0.930 . S
C1992 C1991 1.378 . S
C1992 C1993 1.376 . S
C1993 H1955 0.929 . S
C1993 C1988 1.397 . S
C1993 C1992 1.376 . S
C1994 C1978 1.509 . S
C1994 C1995 1.391 . S
C1994 C1999 1.386 . S
C1995 H1956 0.930 . S
C1995 C1994 1.391 . S
C1995 C1996 1.375 . S
C1996 H1957 0.931 . S
C1996 C1995 1.375 . S
C1996 C1997 1.375 . S
C1997 C1996 1.375 . S
C1997 C1998 1.361 . S
C1998 H1958 0.930 . S
C1998 C1997 1.361 . S
C1998 C1999 1.399 . S
C1999 H1959 0.929 . S
C1999 C1994 1.386 . S
C1999 C1998 1.399 . S
C2000 C1979 1.485 . S
C2000 C2001 1.394 . S
C2000 C2005 1.360 . S
C2001 H1960 0.931 . S
C2001 C2000 1.394 . S
C2001 C2002 1.372 . S
C2002 H1961 0.930 . S
C2002 C2001 1.372 . S
C2002 C2003 1.397 . S
C2003 C2002 1.397 . S
C2003 C2004 1.390 . S
C2003 C2019 1.476 . S
C2004 H1962 0.930 . S
C2004 C2003 1.390 . S
C2004 C2005 1.366 . S
C2005 H1963 0.932 . S
C2005 C2000 1.360 . S
C2005 C2004 1.366 . S
C2006 C1980 1.490 . S
C2006 C2007 1.380 . S
C2006 C2011 1.386 . S
C2007 H1964 0.930 . S
C2007 C2006 1.380 . S
C2007 C2008 1.381 . S
C2008 H1965 0.929 . S
C2008 C2007 1.381 . S
C2008 C2009 1.371 . S
C2009 C2008 1.371 . S
C2009 C2010 1.380 . S
C2010 H1966 0.931 . S
C2010 C2009 1.380 . S
C2010 C2011 1.387 . S
C2011 H1967 0.930 . S
C2011 C2006 1.386 . S
C2011 C2010 1.387 . S
C2012 C1981 1.519 . S
C2012 C2013 1.377 1_545 S
C2012 C2017 1.361 . S
C2013 H1968 0.929 . S
C2013 C2012 1.377 1_565 S
C2013 C2014 1.386 . S
C2014 H1969 0.931 . S
C2014 C2013 1.386 . S
C2014 C2015 1.363 . S
C2015 C2014 1.363 . S
C2015 C2016 1.385 . S
C2016 H1970 0.930 . S
C2016 C2015 1.385 . S
C2016 C2017 1.396 1_565 S
C2017 H1971 0.929 . S
C2017 C2012 1.361 . S
C2017 C2016 1.396 1_545 S
C2018 O1972 1.300 . S
C2018 O1973 1.209 1_545 S
C2018 C1991 1.486 . S
C2019 O1974 1.199 . S
C2019 O1975 1.297 . S
C2019 C2003 1.476 . S
H2020 O2046 0.856 . S
H2021 O2049 0.854 . S
H2022 C2057 0.930 . S
H2023 C2058 0.930 . S
H2024 C2060 0.930 . S
H2025 C2061 0.930 . S
H2026 C2063 0.931 . S
H2027 C2064 0.930 . S
H2028 C2066 0.930 . S
H2029 C2067 0.929 . S
H2030 C2069 0.930 . S
H2031 C2070 0.931 . S
H2032 C2072 0.930 . S
H2033 C2073 0.929 . S
H2034 C2075 0.931 . S
H2035 C2076 0.930 . S
H2036 C2078 0.930 . S
H2037 C2079 0.932 . S
H2038 C2081 0.930 . S
H2039 C2082 0.929 . S
H2040 C2084 0.931 . S
H2041 C2085 0.930 . S
H2042 C2087 0.929 . S
H2043 C2088 0.931 . S
H2044 C2090 0.930 . S
H2045 C2091 0.929 . S
O2046 H2020 0.856 . S
O2046 C2092 1.300 . S
O2047 C2092 1.209 . S
O2048 C2093 1.199 . S
O2049 H2021 0.854 . S
O2049 C2093 1.297 . S
C2050 C2051 1.404 1_655 S
C2050 C2055 1.397 1_655 S
C2050 C2056 1.492 . S
C2051 C2050 1.404 1_455 S
C2051 C2052 1.396 . S
C2051 C2062 1.492 . S
C2052 C2051 1.396 . S
C2052 C2053 1.397 . S
C2052 C2068 1.509 . S
C2053 C2052 1.397 . S
C2053 C2054 1.412 . S
C2053 C2074 1.485 . S
C2054 C2053 1.412 . S
C2054 C2055 1.388 . S
C2054 C2080 1.490 . S
C2055 C2050 1.397 1_455 S
C2055 C2054 1.388 . S
C2055 C2086 1.519 1_455 S
C2056 C2050 1.492 . S
C2056 C2057 1.363 . S
C2056 C2061 1.390 . S
C2057 H2022 0.930 . S
C2057 C2056 1.363 . S
C2057 C2058 1.372 . S
C2058 H2023 0.930 . S
C2058 C2057 1.372 . S
C2058 C2059 1.383 . S
C2059 C2058 1.383 . S
C2059 C2060 1.395 . S
C2060 H2024 0.930 . S
C2060 C2059 1.395 . S
C2060 C2061 1.362 . S
C2061 H2025 0.930 . S
C2061 C2056 1.390 . S
C2061 C2060 1.362 . S
C2062 C2051 1.492 . S
C2062 C2063 1.377 . S
C2062 C2067 1.397 1_455 S
C2063 H2026 0.931 . S
C2063 C2062 1.377 . S
C2063 C2064 1.376 . S
C2064 H2027 0.930 . S
C2064 C2063 1.376 . S
C2064 C2065 1.376 1_455 S
C2065 C2064 1.376 1_655 S
C2065 C2066 1.378 . S
C2065 C2092 1.486 . S
C2066 H2028 0.930 . S
C2066 C2065 1.378 . S
C2066 C2067 1.376 . S
C2067 H2029 0.929 . S
C2067 C2062 1.397 1_655 S
C2067 C2066 1.376 . S
C2068 C2052 1.509 . S
C2068 C2069 1.391 . S
C2068 C2073 1.386 . S
C2069 H2030 0.930 . S
C2069 C2068 1.391 . S
C2069 C2070 1.375 . S
C2070 H2031 0.931 . S
C2070 C2069 1.375 . S
C2070 C2071 1.375 . S
C2071 C2070 1.375 . S
C2071 C2072 1.361 . S
C2072 H2032 0.930 . S
C2072 C2071 1.361 . S
C2072 C2073 1.399 . S
C2073 H2033 0.929 . S
C2073 C2068 1.386 . S
C2073 C2072 1.399 . S
C2074 C2053 1.485 . S
C2074 C2075 1.394 . S
C2074 C2079 1.360 . S
C2075 H2034 0.931 . S
C2075 C2074 1.394 . S
C2075 C2076 1.372 . S
C2076 H2035 0.930 . S
C2076 C2075 1.372 . S
C2076 C2077 1.397 . S
C2077 C2076 1.397 . S
C2077 C2078 1.390 . S
C2077 C2093 1.476 . S
C2078 H2036 0.930 . S
C2078 C2077 1.390 . S
C2078 C2079 1.366 . S
C2079 H2037 0.932 . S
C2079 C2074 1.360 . S
C2079 C2078 1.366 . S
C2080 C2054 1.490 . S
C2080 C2081 1.380 . S
C2080 C2085 1.386 . S
C2081 H2038 0.930 . S
C2081 C2080 1.380 . S
C2081 C2082 1.381 . S
C2082 H2039 0.929 . S
C2082 C2081 1.381 . S
C2082 C2083 1.371 . S
C2083 C2082 1.371 . S
C2083 C2084 1.380 . S
C2084 H2040 0.931 . S
C2084 C2083 1.380 . S
C2084 C2085 1.387 . S
C2085 H2041 0.930 . S
C2085 C2080 1.386 . S
C2085 C2084 1.387 . S
C2086 C2055 1.519 1_655 S
C2086 C2087 1.377 . S
C2086 C2091 1.361 . S
C2087 H2042 0.929 . S
C2087 C2086 1.377 . S
C2087 C2088 1.386 . S
C2088 H2043 0.931 . S
C2088 C2087 1.386 . S
C2088 C2089 1.363 . S
C2089 C2088 1.363 . S
C2089 C2090 1.385 . S
C2090 H2044 0.930 . S
C2090 C2089 1.385 . S
C2090 C2091 1.396 . S
C2091 H2045 0.929 . S
C2091 C2086 1.361 . S
C2091 C2090 1.396 . S
C2092 O2046 1.300 . S
C2092 O2047 1.209 . S
C2092 C2065 1.486 . S
C2093 O2048 1.199 . S
C2093 O2049 1.297 . S
C2093 C2077 1.476 . S
H2094 O2120 0.856 . S
H2095 O2123 0.854 . S
H2096 C2131 0.930 . S
H2097 C2132 0.930 . S
H2098 C2134 0.930 . S
H2099 C2135 0.930 . S
H2100 C2137 0.931 1_565 S
H2101 C2138 0.930 . S
H2102 C2140 0.930 . S
H2103 C2141 0.929 . S
H2104 C2143 0.930 . S
H2105 C2144 0.931 . S
H2106 C2146 0.930 . S
H2107 C2147 0.929 . S
H2108 C2149 0.931 . S
H2109 C2150 0.930 . S
H2110 C2152 0.930 . S
H2111 C2153 0.932 . S
H2112 C2155 0.930 1_545 S
H2113 C2156 0.929 . S
H2114 C2158 0.931 . S
H2115 C2159 0.930 . S
H2116 C2161 0.929 . S
H2117 C2162 0.931 . S
H2118 C2164 0.930 . S
H2119 C2165 0.929 . S
O2120 H2094 0.856 . S
O2120 C2166 1.300 . S
O2121 C2166 1.209 . S
O2122 C2167 1.199 . S
O2123 H2095 0.854 . S
O2123 C2167 1.297 . S
C2124 C2125 1.404 . S
C2124 C2129 1.397 . S
C2124 C2130 1.492 . S
C2125 C2124 1.404 . S
C2125 C2126 1.396 1_545 S
C2125 C2136 1.492 . S
C2126 C2125 1.396 1_565 S
C2126 C2127 1.397 . S
C2126 C2142 1.509 . S
C2127 C2126 1.397 . S
C2127 C2128 1.412 . S
C2127 C2148 1.485 . S
C2128 C2127 1.412 . S
C2128 C2129 1.388 1_565 S
C2128 C2154 1.490 . S
C2129 C2124 1.397 . S
C2129 C2128 1.388 1_545 S
C2129 C2160 1.519 . S
C2130 C2124 1.492 . S
C2130 C2131 1.363 . S
C2130 C2135 1.390 . S
C2131 H2096 0.930 . S
C2131 C2130 1.363 . S
C2131 C2132 1.372 . S
C2132 H2097 0.930 . S
C2132 C2131 1.372 . S
C2132 C2133 1.383 . S
C2133 C2132 1.383 . S
C2133 C2134 1.395 . S
C2134 H2098 0.930 . S
C2134 C2133 1.395 . S
C2134 C2135 1.362 . S
C2135 H2099 0.930 . S
C2135 C2130 1.390 . S
C2135 C2134 1.362 . S
C2136 C2125 1.492 . S
C2136 C2137 1.377 . S
C2136 C2141 1.397 . S
C2137 H2100 0.931 1_545 S
C2137 C2136 1.377 . S
C2137 C2138 1.376 . S
C2138 H2101 0.930 . S
C2138 C2137 1.376 . S
C2138 C2139 1.376 . S
C2139 C2138 1.376 . S
C2139 C2140 1.378 . S
C2139 C2166 1.486 . S
C2140 H2102 0.930 . S
C2140 C2139 1.378 . S
C2140 C2141 1.376 . S
C2141 H2103 0.929 . S
C2141 C2136 1.397 . S
C2141 C2140 1.376 . S
C2142 C2126 1.509 . S
C2142 C2143 1.391 . S
C2142 C2147 1.386 . S
C2143 H2104 0.930 . S
C2143 C2142 1.391 . S
C2143 C2144 1.375 . S
C2144 H2105 0.931 . S
C2144 C2143 1.375 . S
C2144 C2145 1.375 . S
C2145 C2144 1.375 . S
C2145 C2146 1.361 . S
C2146 H2106 0.930 . S
C2146 C2145 1.361 . S
C2146 C2147 1.399 . S
C2147 H2107 0.929 . S
C2147 C2142 1.386 . S
C2147 C2146 1.399 . S
C2148 C2127 1.485 . S
C2148 C2149 1.394 . S
C2148 C2153 1.360 . S
C2149 H2108 0.931 . S
C2149 C2148 1.394 . S
C2149 C2150 1.372 . S
C2150 H2109 0.930 . S
C2150 C2149 1.372 . S
C2150 C2151 1.397 . S
C2151 C2150 1.397 . S
C2151 C2152 1.390 . S
C2151 C2167 1.476 . S
C2152 H2110 0.930 . S
C2152 C2151 1.390 . S
C2152 C2153 1.366 . S
C2153 H2111 0.932 . S
C2153 C2148 1.360 . S
C2153 C2152 1.366 . S
C2154 C2128 1.490 . S
C2154 C2155 1.380 . S
C2154 C2159 1.386 . S
C2155 H2112 0.930 1_565 S
C2155 C2154 1.380 . S
C2155 C2156 1.381 . S
C2156 H2113 0.929 . S
C2156 C2155 1.381 . S
C2156 C2157 1.371 . S
C2157 C2156 1.371 . S
C2157 C2158 1.380 . S
C2158 H2114 0.931 . S
C2158 C2157 1.380 . S
C2158 C2159 1.387 . S
C2159 H2115 0.930 . S
C2159 C2154 1.386 . S
C2159 C2158 1.387 . S
C2160 C2129 1.519 . S
C2160 C2161 1.377 . S
C2160 C2165 1.361 . S
C2161 H2116 0.929 . S
C2161 C2160 1.377 . S
C2161 C2162 1.386 . S
C2162 H2117 0.931 . S
C2162 C2161 1.386 . S
C2162 C2163 1.363 . S
C2163 C2162 1.363 . S
C2163 C2164 1.385 . S
C2164 H2118 0.930 . S
C2164 C2163 1.385 . S
C2164 C2165 1.396 . S
C2165 H2119 0.929 . S
C2165 C2160 1.361 . S
C2165 C2164 1.396 . S
C2166 O2120 1.300 . S
C2166 O2121 1.209 . S
C2166 C2139 1.486 . S
C2167 O2122 1.199 . S
C2167 O2123 1.297 . S
C2167 C2151 1.476 . S
H2168 O2194 0.856 . S
H2169 O2197 0.854 . S
H2170 C2205 0.930 . S
H2171 C2206 0.930 . S
H2172 C2208 0.930 . S
H2173 C2209 0.930 . S
H2174 C2211 0.931 . S
H2175 C2212 0.930 . S
H2176 C2214 0.930 . S
H2177 C2215 0.929 . S
H2178 C2217 0.930 . S
H2179 C2218 0.931 . S
H2180 C2220 0.930 . S
H2181 C2221 0.929 . S
H2182 C2223 0.931 . S
H2183 C2224 0.930 . S
H2184 C2226 0.930 . S
H2185 C2227 0.932 . S
H2186 C2229 0.930 . S
H2187 C2230 0.929 . S
H2188 C2232 0.931 . S
H2189 C2233 0.930 . S
H2190 C2235 0.929 . S
H2191 C2236 0.931 . S
H2192 C2238 0.930 . S
H2193 C2239 0.929 . S
O2194 H2168 0.856 . S
O2194 C2240 1.300 . S
O2195 C2240 1.209 . S
O2196 C2241 1.199 . S
O2197 H2169 0.854 . S
O2197 C2241 1.297 . S
C2198 C2199 1.404 . S
C2198 C2203 1.397 . S
C2198 C2204 1.492 . S
C2199 C2198 1.404 . S
C2199 C2200 1.396 . S
C2199 C2210 1.492 . S
C2200 C2199 1.396 . S
C2200 C2201 1.397 . S
C2200 C2216 1.509 . S
C2201 C2200 1.397 . S
C2201 C2202 1.412 . S
C2201 C2222 1.485 . S
C2202 C2201 1.412 . S
C2202 C2203 1.388 . S
C2202 C2228 1.490 . S
C2203 C2198 1.397 . S
C2203 C2202 1.388 . S
C2203 C2234 1.519 . S
C2204 C2198 1.492 . S
C2204 C2205 1.363 . S
C2204 C2209 1.390 . S
C2205 H2170 0.930 . S
C2205 C2204 1.363 . S
C2205 C2206 1.372 . S
C2206 H2171 0.930 . S
C2206 C2205 1.372 . S
C2206 C2207 1.383 . S
C2207 C2206 1.383 . S
C2207 C2208 1.395 . S
C2208 H2172 0.930 . S
C2208 C2207 1.395 . S
C2208 C2209 1.362 . S
C2209 H2173 0.930 . S
C2209 C2204 1.390 . S
C2209 C2208 1.362 . S
C2210 C2199 1.492 . S
C2210 C2211 1.377 . S
C2210 C2215 1.397 . S
C2211 H2174 0.931 . S
C2211 C2210 1.377 . S
C2211 C2212 1.376 . S
C2212 H2175 0.930 . S
C2212 C2211 1.376 . S
C2212 C2213 1.376 . S
C2213 C2212 1.376 . S
C2213 C2214 1.378 . S
C2213 C2240 1.486 . S
C2214 H2176 0.930 . S
C2214 C2213 1.378 . S
C2214 C2215 1.376 . S
C2215 H2177 0.929 . S
C2215 C2210 1.397 . S
C2215 C2214 1.376 . S
C2216 C2200 1.509 . S
C2216 C2217 1.391 . S
C2216 C2221 1.386 . S
C2217 H2178 0.930 . S
C2217 C2216 1.391 . S
C2217 C2218 1.375 . S
C2218 H2179 0.931 . S
C2218 C2217 1.375 . S
C2218 C2219 1.375 . S
C2219 C2218 1.375 . S
C2219 C2220 1.361 . S
C2220 H2180 0.930 . S
C2220 C2219 1.361 . S
C2220 C2221 1.399 . S
C2221 H2181 0.929 . S
C2221 C2216 1.386 . S
C2221 C2220 1.399 . S
C2222 C2201 1.485 . S
C2222 C2223 1.394 . S
C2222 C2227 1.360 . S
C2223 H2182 0.931 . S
C2223 C2222 1.394 . S
C2223 C2224 1.372 . S
C2224 H2183 0.930 . S
C2224 C2223 1.372 . S
C2224 C2225 1.397 . S
C2225 C2224 1.397 . S
C2225 C2226 1.390 . S
C2225 C2241 1.476 . S
C2226 H2184 0.930 . S
C2226 C2225 1.390 . S
C2226 C2227 1.366 . S
C2227 H2185 0.932 . S
C2227 C2222 1.360 . S
C2227 C2226 1.366 . S
C2228 C2202 1.490 . S
C2228 C2229 1.380 . S
C2228 C2233 1.386 . S
C2229 H2186 0.930 . S
C2229 C2228 1.380 . S
C2229 C2230 1.381 . S
C2230 H2187 0.929 . S
C2230 C2229 1.381 . S
C2230 C2231 1.371 . S
C2231 C2230 1.371 . S
C2231 C2232 1.380 . S
C2232 H2188 0.931 . S
C2232 C2231 1.380 . S
C2232 C2233 1.387 . S
C2233 H2189 0.930 . S
C2233 C2228 1.386 . S
C2233 C2232 1.387 . S
C2234 C2203 1.519 . S
C2234 C2235 1.377 . S
C2234 C2239 1.361 . S
C2235 H2190 0.929 . S
C2235 C2234 1.377 . S
C2235 C2236 1.386 . S
C2236 H2191 0.931 . S
C2236 C2235 1.386 . S
C2236 C2237 1.363 . S
C2237 C2236 1.363 . S
C2237 C2238 1.385 . S
C2238 H2192 0.930 . S
C2238 C2237 1.385 . S
C2238 C2239 1.396 . S
C2239 H2193 0.929 . S
C2239 C2234 1.361 . S
C2239 C2238 1.396 . S
C2240 O2194 1.300 . S
C2240 O2195 1.209 . S
C2240 C2213 1.486 . S
C2241 O2196 1.199 . S
C2241 O2197 1.297 . S
C2241 C2225 1.476 . S
H2242 O2268 0.856 . S
H2243 O2271 0.854 . S
H2244 C2279 0.930 . S
H2245 C2280 0.930 . S
H2246 C2282 0.930 . S
H2247 C2283 0.930 . S
H2248 C2285 0.931 . S
H2249 C2286 0.930 . S
H2250 C2288 0.930 . S
H2251 C2289 0.929 . S
H2252 C2291 0.930 . S
H2253 C2292 0.931 . S
H2254 C2294 0.930 . S
H2255 C2295 0.929 . S
H2256 C2297 0.931 . S
H2257 C2298 0.930 . S
H2258 C2300 0.930 . S
H2259 C2301 0.932 . S
H2260 C2303 0.930 . S
H2261 C2304 0.929 . S
H2262 C2306 0.931 . S
H2263 C2307 0.930 . S
H2264 C2309 0.929 . S
H2265 C2310 0.931 . S
H2266 C2312 0.930 . S
H2267 C2313 0.929 . S
O2268 H2242 0.856 . S
O2268 C2314 1.300 . S
O2269 C2314 1.209 . S
O2270 C2315 1.199 . S
O2271 H2243 0.854 . S
O2271 C2315 1.297 . S
C2272 C2273 1.404 . S
C2272 C2277 1.397 . S
C2272 C2278 1.492 . S
C2273 C2272 1.404 . S
C2273 C2274 1.396 . S
C2273 C2284 1.492 . S
C2274 C2273 1.396 . S
C2274 C2275 1.397 . S
C2274 C2290 1.509 . S
C2275 C2274 1.397 . S
C2275 C2276 1.412 . S
C2275 C2296 1.485 . S
C2276 C2275 1.412 . S
C2276 C2277 1.388 . S
C2276 C2302 1.490 . S
C2277 C2272 1.397 . S
C2277 C2276 1.388 . S
C2277 C2308 1.519 . S
C2278 C2272 1.492 . S
C2278 C2279 1.363 . S
C2278 C2283 1.390 . S
C2279 H2244 0.930 . S
C2279 C2278 1.363 . S
C2279 C2280 1.372 . S
C2280 H2245 0.930 . S
C2280 C2279 1.372 . S
C2280 C2281 1.383 . S
C2281 C2280 1.383 . S
C2281 C2282 1.395 . S
C2282 H2246 0.930 . S
C2282 C2281 1.395 . S
C2282 C2283 1.362 . S
C2283 H2247 0.930 . S
C2283 C2278 1.390 . S
C2283 C2282 1.362 . S
C2284 C2273 1.492 . S
C2284 C2285 1.377 . S
C2284 C2289 1.397 . S
C2285 H2248 0.931 . S
C2285 C2284 1.377 . S
C2285 C2286 1.376 . S
C2286 H2249 0.930 . S
C2286 C2285 1.376 . S
C2286 C2287 1.376 . S
C2287 C2286 1.376 . S
C2287 C2288 1.378 . S
C2287 C2314 1.486 . S
C2288 H2250 0.930 . S
C2288 C2287 1.378 . S
C2288 C2289 1.376 . S
C2289 H2251 0.929 . S
C2289 C2284 1.397 . S
C2289 C2288 1.376 . S
C2290 C2274 1.509 . S
C2290 C2291 1.391 . S
C2290 C2295 1.386 . S
C2291 H2252 0.930 . S
C2291 C2290 1.391 . S
C2291 C2292 1.375 . S
C2292 H2253 0.931 . S
C2292 C2291 1.375 . S
C2292 C2293 1.375 . S
C2293 C2292 1.375 . S
C2293 C2294 1.361 . S
C2294 H2254 0.930 . S
C2294 C2293 1.361 . S
C2294 C2295 1.399 . S
C2295 H2255 0.929 . S
C2295 C2290 1.386 . S
C2295 C2294 1.399 . S
C2296 C2275 1.485 . S
C2296 C2297 1.394 . S
C2296 C2301 1.360 . S
C2297 H2256 0.931 . S
C2297 C2296 1.394 . S
C2297 C2298 1.372 . S
C2298 H2257 0.930 . S
C2298 C2297 1.372 . S
C2298 C2299 1.397 . S
C2299 C2298 1.397 . S
C2299 C2300 1.390 . S
C2299 C2315 1.476 . S
C2300 H2258 0.930 . S
C2300 C2299 1.390 . S
C2300 C2301 1.366 . S
C2301 H2259 0.932 . S
C2301 C2296 1.360 . S
C2301 C2300 1.366 . S
C2302 C2276 1.490 . S
C2302 C2303 1.380 . S
C2302 C2307 1.386 . S
C2303 H2260 0.930 . S
C2303 C2302 1.380 . S
C2303 C2304 1.381 . S
C2304 H2261 0.929 . S
C2304 C2303 1.381 . S
C2304 C2305 1.371 . S
C2305 C2304 1.371 . S
C2305 C2306 1.380 . S
C2306 H2262 0.931 . S
C2306 C2305 1.380 . S
C2306 C2307 1.387 . S
C2307 H2263 0.930 . S
C2307 C2302 1.386 . S
C2307 C2306 1.387 . S
C2308 C2277 1.519 . S
C2308 C2309 1.377 . S
C2308 C2313 1.361 . S
C2309 H2264 0.929 . S
C2309 C2308 1.377 . S
C2309 C2310 1.386 . S
C2310 H2265 0.931 . S
C2310 C2309 1.386 . S
C2310 C2311 1.363 . S
C2311 C2310 1.363 . S
C2311 C2312 1.385 . S
C2312 H2266 0.930 . S
C2312 C2311 1.385 . S
C2312 C2313 1.396 . S
C2313 H2267 0.929 . S
C2313 C2308 1.361 . S
C2313 C2312 1.396 . S
C2314 O2268 1.300 . S
C2314 O2269 1.209 . S
C2314 C2287 1.486 . S
C2315 O2270 1.199 . S
C2315 O2271 1.297 . S
C2315 C2299 1.476 . S
H2316 O2342 0.856 . S
H2317 O2345 0.854 . S
H2318 C2353 0.930 . S
H2319 C2354 0.930 . S
H2320 C2356 0.930 . S
H2321 C2357 0.930 . S
H2322 C2359 0.931 . S
H2323 C2360 0.930 . S
H2324 C2362 0.930 . S
H2325 C2363 0.929 . S
H2326 C2365 0.930 . S
H2327 C2366 0.931 . S
H2328 C2368 0.930 . S
H2329 C2369 0.929 . S
H2330 C2371 0.931 . S
H2331 C2372 0.930 . S
H2332 C2374 0.930 . S
H2333 C2375 0.932 . S
H2334 C2377 0.930 . S
H2335 C2378 0.929 . S
H2336 C2380 0.931 . S
H2337 C2381 0.930 . S
H2338 C2383 0.929 . S
H2339 C2384 0.931 . S
H2340 C2386 0.930 . S
H2341 C2387 0.929 . S
O2342 H2316 0.856 . S
O2342 C2388 1.300 . S
O2343 C2388 1.209 . S
O2344 C2389 1.199 . S
O2345 H2317 0.854 . S
O2345 C2389 1.297 . S
C2346 C2347 1.404 . S
C2346 C2351 1.397 . S
C2346 C2352 1.492 . S
C2347 C2346 1.404 . S
C2347 C2348 1.396 . S
C2347 C2358 1.492 . S
C2348 C2347 1.396 . S
C2348 C2349 1.397 . S
C2348 C2364 1.509 . S
C2349 C2348 1.397 . S
C2349 C2350 1.412 . S
C2349 C2370 1.485 . S
C2350 C2349 1.412 . S
C2350 C2351 1.388 . S
C2350 C2376 1.490 . S
C2351 C2346 1.397 . S
C2351 C2350 1.388 . S
C2351 C2382 1.519 . S
C2352 C2346 1.492 . S
C2352 C2353 1.363 . S
C2352 C2357 1.390 . S
C2353 H2318 0.930 . S
C2353 C2352 1.363 . S
C2353 C2354 1.372 . S
C2354 H2319 0.930 . S
C2354 C2353 1.372 . S
C2354 C2355 1.383 . S
C2355 C2354 1.383 . S
C2355 C2356 1.395 . S
C2356 H2320 0.930 . S
C2356 C2355 1.395 . S
C2356 C2357 1.362 . S
C2357 H2321 0.930 . S
C2357 C2352 1.390 . S
C2357 C2356 1.362 . S
C2358 C2347 1.492 . S
C2358 C2359 1.377 . S
C2358 C2363 1.397 . S
C2359 H2322 0.931 . S
C2359 C2358 1.377 . S
C2359 C2360 1.376 . S
C2360 H2323 0.930 . S
C2360 C2359 1.376 . S
C2360 C2361 1.376 . S
C2361 C2360 1.376 . S
C2361 C2362 1.378 . S
C2361 C2388 1.486 . S
C2362 H2324 0.930 . S
C2362 C2361 1.378 . S
C2362 C2363 1.376 . S
C2363 H2325 0.929 . S
C2363 C2358 1.397 . S
C2363 C2362 1.376 . S
C2364 C2348 1.509 . S
C2364 C2365 1.391 . S
C2364 C2369 1.386 . S
C2365 H2326 0.930 . S
C2365 C2364 1.391 . S
C2365 C2366 1.375 . S
C2366 H2327 0.931 . S
C2366 C2365 1.375 . S
C2366 C2367 1.375 . S
C2367 C2366 1.375 . S
C2367 C2368 1.361 . S
C2368 H2328 0.930 . S
C2368 C2367 1.361 . S
C2368 C2369 1.399 . S
C2369 H2329 0.929 . S
C2369 C2364 1.386 . S
C2369 C2368 1.399 . S
C2370 C2349 1.485 . S
C2370 C2371 1.394 . S
C2370 C2375 1.360 . S
C2371 H2330 0.931 . S
C2371 C2370 1.394 . S
C2371 C2372 1.372 . S
C2372 H2331 0.930 . S
C2372 C2371 1.372 . S
C2372 C2373 1.397 . S
C2373 C2372 1.397 . S
C2373 C2374 1.390 . S
C2373 C2389 1.476 . S
C2374 H2332 0.930 . S
C2374 C2373 1.390 . S
C2374 C2375 1.366 . S
C2375 H2333 0.932 . S
C2375 C2370 1.360 . S
C2375 C2374 1.366 . S
C2376 C2350 1.490 . S
C2376 C2377 1.380 . S
C2376 C2381 1.386 . S
C2377 H2334 0.930 . S
C2377 C2376 1.380 . S
C2377 C2378 1.381 . S
C2378 H2335 0.929 . S
C2378 C2377 1.381 . S
C2378 C2379 1.371 . S
C2379 C2378 1.371 . S
C2379 C2380 1.380 . S
C2380 H2336 0.931 . S
C2380 C2379 1.380 . S
C2380 C2381 1.387 . S
C2381 H2337 0.930 . S
C2381 C2376 1.386 . S
C2381 C2380 1.387 . S
C2382 C2351 1.519 . S
C2382 C2383 1.377 . S
C2382 C2387 1.361 . S
C2383 H2338 0.929 . S
C2383 C2382 1.377 . S
C2383 C2384 1.386 . S
C2384 H2339 0.931 . S
C2384 C2383 1.386 . S
C2384 C2385 1.363 . S
C2385 C2384 1.363 . S
C2385 C2386 1.385 . S
C2386 H2340 0.930 . S
C2386 C2385 1.385 . S
C2386 C2387 1.396 . S
C2387 H2341 0.929 . S
C2387 C2382 1.361 . S
C2387 C2386 1.396 . S
C2388 O2342 1.300 . S
C2388 O2343 1.209 . S
C2388 C2361 1.486 . S
C2389 O2344 1.199 . S
C2389 O2345 1.297 . S
C2389 C2373 1.476 . S
H2390 O2416 0.856 . S
H2391 O2419 0.854 . S
H2392 C2427 0.930 . S
H2393 C2428 0.930 . S
H2394 C2430 0.930 . S
H2395 C2431 0.930 . S
H2396 C2433 0.931 . S
H2397 C2434 0.930 . S
H2398 C2436 0.930 . S
H2399 C2437 0.929 . S
H2400 C2439 0.930 . S
H2401 C2440 0.931 . S
H2402 C2442 0.930 . S
H2403 C2443 0.929 . S
H2404 C2445 0.931 . S
H2405 C2446 0.930 . S
H2406 C2448 0.930 . S
H2407 C2449 0.932 . S
H2408 C2451 0.930 . S
H2409 C2452 0.929 . S
H2410 C2454 0.931 . S
H2411 C2455 0.930 . S
H2412 C2457 0.929 . S
H2413 C2458 0.931 . S
H2414 C2460 0.930 . S
H2415 C2461 0.929 . S
O2416 H2390 0.856 . S
O2416 C2462 1.300 . S
O2417 C2462 1.209 . S
O2418 C2463 1.199 . S
O2419 H2391 0.854 . S
O2419 C2463 1.297 . S
C2420 C2421 1.404 . S
C2420 C2425 1.397 . S
C2420 C2426 1.492 . S
C2421 C2420 1.404 . S
C2421 C2422 1.396 . S
C2421 C2432 1.492 . S
C2422 C2421 1.396 . S
C2422 C2423 1.397 . S
C2422 C2438 1.509 . S
C2423 C2422 1.397 . S
C2423 C2424 1.412 . S
C2423 C2444 1.485 . S
C2424 C2423 1.412 . S
C2424 C2425 1.388 . S
C2424 C2450 1.490 . S
C2425 C2420 1.397 . S
C2425 C2424 1.388 . S
C2425 C2456 1.519 . S
C2426 C2420 1.492 . S
C2426 C2427 1.363 . S
C2426 C2431 1.390 . S
C2427 H2392 0.930 . S
C2427 C2426 1.363 . S
C2427 C2428 1.372 . S
C2428 H2393 0.930 . S
C2428 C2427 1.372 . S
C2428 C2429 1.383 . S
C2429 C2428 1.383 . S
C2429 C2430 1.395 . S
C2430 H2394 0.930 . S
C2430 C2429 1.395 . S
C2430 C2431 1.362 . S
C2431 H2395 0.930 . S
C2431 C2426 1.390 . S
C2431 C2430 1.362 . S
C2432 C2421 1.492 . S
C2432 C2433 1.377 . S
C2432 C2437 1.397 . S
C2433 H2396 0.931 . S
C2433 C2432 1.377 . S
C2433 C2434 1.376 . S
C2434 H2397 0.930 . S
C2434 C2433 1.376 . S
C2434 C2435 1.376 . S
C2435 C2434 1.376 . S
C2435 C2436 1.378 . S
C2435 C2462 1.486 . S
C2436 H2398 0.930 . S
C2436 C2435 1.378 . S
C2436 C2437 1.376 . S
C2437 H2399 0.929 . S
C2437 C2432 1.397 . S
C2437 C2436 1.376 . S
C2438 C2422 1.509 . S
C2438 C2439 1.391 . S
C2438 C2443 1.386 . S
C2439 H2400 0.930 . S
C2439 C2438 1.391 . S
C2439 C2440 1.375 . S
C2440 H2401 0.931 . S
C2440 C2439 1.375 . S
C2440 C2441 1.375 . S
C2441 C2440 1.375 . S
C2441 C2442 1.361 . S
C2442 H2402 0.930 . S
C2442 C2441 1.361 . S
C2442 C2443 1.399 . S
C2443 H2403 0.929 . S
C2443 C2438 1.386 . S
C2443 C2442 1.399 . S
C2444 C2423 1.485 . S
C2444 C2445 1.394 . S
C2444 C2449 1.360 . S
C2445 H2404 0.931 . S
C2445 C2444 1.394 . S
C2445 C2446 1.372 . S
C2446 H2405 0.930 . S
C2446 C2445 1.372 . S
C2446 C2447 1.397 . S
C2447 C2446 1.397 . S
C2447 C2448 1.390 . S
C2447 C2463 1.476 . S
C2448 H2406 0.930 . S
C2448 C2447 1.390 . S
C2448 C2449 1.366 . S
C2449 H2407 0.932 . S
C2449 C2444 1.360 . S
C2449 C2448 1.366 . S
C2450 C2424 1.490 . S
C2450 C2451 1.380 . S
C2450 C2455 1.386 . S
C2451 H2408 0.930 . S
C2451 C2450 1.380 . S
C2451 C2452 1.381 . S
C2452 H2409 0.929 . S
C2452 C2451 1.381 . S
C2452 C2453 1.371 . S
C2453 C2452 1.371 . S
C2453 C2454 1.380 . S
C2454 H2410 0.931 . S
C2454 C2453 1.380 . S
C2454 C2455 1.387 . S
C2455 H2411 0.930 . S
C2455 C2450 1.386 . S
C2455 C2454 1.387 . S
C2456 C2425 1.519 . S
C2456 C2457 1.377 . S
C2456 C2461 1.361 . S
C2457 H2412 0.929 . S
C2457 C2456 1.377 . S
C2457 C2458 1.386 . S
C2458 H2413 0.931 . S
C2458 C2457 1.386 . S
C2458 C2459 1.363 . S
C2459 C2458 1.363 . S
C2459 C2460 1.385 . S
C2460 H2414 0.930 . S
C2460 C2459 1.385 . S
C2460 C2461 1.396 . S
C2461 H2415 0.929 . S
C2461 C2456 1.361 . S
C2461 C2460 1.396 . S
C2462 O2416 1.300 . S
C2462 O2417 1.209 . S
C2462 C2435 1.486 . S
C2463 O2418 1.199 . S
C2463 O2419 1.297 . S
C2463 C2447 1.476 . S
H2464 O2490 0.856 . S
H2465 O2493 0.854 . S
H2466 C2501 0.930 . S
H2467 C2502 0.930 . S
H2468 C2504 0.930 . S
H2469 C2505 0.930 . S
H2470 C2507 0.931 . S
H2471 C2508 0.930 . S
H2472 C2510 0.930 . S
H2473 C2511 0.929 . S
H2474 C2513 0.930 . S
H2475 C2514 0.931 . S
H2476 C2516 0.930 . S
H2477 C2517 0.929 . S
H2478 C2519 0.931 . S
H2479 C2520 0.930 . S
H2480 C2522 0.930 . S
H2481 C2523 0.932 . S
H2482 C2525 0.930 . S
H2483 C2526 0.929 . S
H2484 C2528 0.931 . S
H2485 C2529 0.930 . S
H2486 C2531 0.929 . S
H2487 C2532 0.931 . S
H2488 C2534 0.930 . S
H2489 C2535 0.929 . S
O2490 H2464 0.856 . S
O2490 C2536 1.300 . S
O2491 C2536 1.209 . S
O2492 C2537 1.199 . S
O2493 H2465 0.854 . S
O2493 C2537 1.297 . S
C2494 C2495 1.404 . S
C2494 C2499 1.397 . S
C2494 C2500 1.492 . S
C2495 C2494 1.404 . S
C2495 C2496 1.396 . S
C2495 C2506 1.492 . S
C2496 C2495 1.396 . S
C2496 C2497 1.397 . S
C2496 C2512 1.509 . S
C2497 C2496 1.397 . S
C2497 C2498 1.412 . S
C2497 C2518 1.485 . S
C2498 C2497 1.412 . S
C2498 C2499 1.388 . S
C2498 C2524 1.490 . S
C2499 C2494 1.397 . S
C2499 C2498 1.388 . S
C2499 C2530 1.519 . S
C2500 C2494 1.492 . S
C2500 C2501 1.363 . S
C2500 C2505 1.390 . S
C2501 H2466 0.930 . S
C2501 C2500 1.363 . S
C2501 C2502 1.372 . S
C2502 H2467 0.930 . S
C2502 C2501 1.372 . S
C2502 C2503 1.383 . S
C2503 C2502 1.383 . S
C2503 C2504 1.395 . S
C2504 H2468 0.930 . S
C2504 C2503 1.395 . S
C2504 C2505 1.362 . S
C2505 H2469 0.930 . S
C2505 C2500 1.390 . S
C2505 C2504 1.362 . S
C2506 C2495 1.492 . S
C2506 C2507 1.377 . S
C2506 C2511 1.397 . S
C2507 H2470 0.931 . S
C2507 C2506 1.377 . S
C2507 C2508 1.376 . S
C2508 H2471 0.930 . S
C2508 C2507 1.376 . S
C2508 C2509 1.376 . S
C2509 C2508 1.376 . S
C2509 C2510 1.378 . S
C2509 C2536 1.486 . S
C2510 H2472 0.930 . S
C2510 C2509 1.378 . S
C2510 C2511 1.376 . S
C2511 H2473 0.929 . S
C2511 C2506 1.397 . S
C2511 C2510 1.376 . S
C2512 C2496 1.509 . S
C2512 C2513 1.391 . S
C2512 C2517 1.386 . S
C2513 H2474 0.930 . S
C2513 C2512 1.391 . S
C2513 C2514 1.375 . S
C2514 H2475 0.931 . S
C2514 C2513 1.375 . S
C2514 C2515 1.375 . S
C2515 C2514 1.375 . S
C2515 C2516 1.361 . S
C2516 H2476 0.930 . S
C2516 C2515 1.361 . S
C2516 C2517 1.399 . S
C2517 H2477 0.929 . S
C2517 C2512 1.386 . S
C2517 C2516 1.399 . S
C2518 C2497 1.485 . S
C2518 C2519 1.394 . S
C2518 C2523 1.360 . S
C2519 H2478 0.931 . S
C2519 C2518 1.394 . S
C2519 C2520 1.372 . S
C2520 H2479 0.930 . S
C2520 C2519 1.372 . S
C2520 C2521 1.397 . S
C2521 C2520 1.397 . S
C2521 C2522 1.390 . S
C2521 C2537 1.476 . S
C2522 H2480 0.930 . S
C2522 C2521 1.390 . S
C2522 C2523 1.366 . S
C2523 H2481 0.932 . S
C2523 C2518 1.360 . S
C2523 C2522 1.366 . S
C2524 C2498 1.490 . S
C2524 C2525 1.380 . S
C2524 C2529 1.386 . S
C2525 H2482 0.930 . S
C2525 C2524 1.380 . S
C2525 C2526 1.381 . S
C2526 H2483 0.929 . S
C2526 C2525 1.381 . S
C2526 C2527 1.371 . S
C2527 C2526 1.371 . S
C2527 C2528 1.380 . S
C2528 H2484 0.931 . S
C2528 C2527 1.380 . S
C2528 C2529 1.387 . S
C2529 H2485 0.930 . S
C2529 C2524 1.386 . S
C2529 C2528 1.387 . S
C2530 C2499 1.519 . S
C2530 C2531 1.377 . S
C2530 C2535 1.361 . S
C2531 H2486 0.929 . S
C2531 C2530 1.377 . S
C2531 C2532 1.386 . S
C2532 H2487 0.931 . S
C2532 C2531 1.386 . S
C2532 C2533 1.363 . S
C2533 C2532 1.363 . S
C2533 C2534 1.385 . S
C2534 H2488 0.930 . S
C2534 C2533 1.385 . S
C2534 C2535 1.396 . S
C2535 H2489 0.929 . S
C2535 C2530 1.361 . S
C2535 C2534 1.396 . S
C2536 O2490 1.300 . S
C2536 O2491 1.209 . S
C2536 C2509 1.486 . S
C2537 O2492 1.199 . S
C2537 O2493 1.297 . S
C2537 C2521 1.476 . S
H2538 O2564 0.856 . S
H2539 O2567 0.854 . S
H2540 C2575 0.930 . S
H2541 C2576 0.930 . S
H2542 C2578 0.930 . S
H2543 C2579 0.930 . S
H2544 C2581 0.931 . S
H2545 C2582 0.930 . S
H2546 C2584 0.930 . S
H2547 C2585 0.929 . S
H2548 C2587 0.930 . S
H2549 C2588 0.931 . S
H2550 C2590 0.930 . S
H2551 C2591 0.929 . S
H2552 C2593 0.931 . S
H2553 C2594 0.930 . S
H2554 C2596 0.930 . S
H2555 C2597 0.932 . S
H2556 C2599 0.930 . S
H2557 C2600 0.929 . S
H2558 C2602 0.931 . S
H2559 C2603 0.930 . S
H2560 C2605 0.929 . S
H2561 C2606 0.931 . S
H2562 C2608 0.930 . S
H2563 C2609 0.929 . S
O2564 H2538 0.856 . S
O2564 C2610 1.300 . S
O2565 C2610 1.209 . S
O2566 C2611 1.199 . S
O2567 H2539 0.854 . S
O2567 C2611 1.297 . S
C2568 C2569 1.404 . S
C2568 C2573 1.397 . S
C2568 C2574 1.492 . S
C2569 C2568 1.404 . S
C2569 C2570 1.396 . S
C2569 C2580 1.492 . S
C2570 C2569 1.396 . S
C2570 C2571 1.397 . S
C2570 C2586 1.509 . S
C2571 C2570 1.397 . S
C2571 C2572 1.412 . S
C2571 C2592 1.485 . S
C2572 C2571 1.412 . S
C2572 C2573 1.388 . S
C2572 C2598 1.490 . S
C2573 C2568 1.397 . S
C2573 C2572 1.388 . S
C2573 C2604 1.519 . S
C2574 C2568 1.492 . S
C2574 C2575 1.363 . S
C2574 C2579 1.390 . S
C2575 H2540 0.930 . S
C2575 C2574 1.363 . S
C2575 C2576 1.372 . S
C2576 H2541 0.930 . S
C2576 C2575 1.372 . S
C2576 C2577 1.383 . S
C2577 C2576 1.383 . S
C2577 C2578 1.395 . S
C2578 H2542 0.930 . S
C2578 C2577 1.395 . S
C2578 C2579 1.362 . S
C2579 H2543 0.930 . S
C2579 C2574 1.390 . S
C2579 C2578 1.362 . S
C2580 C2569 1.492 . S
C2580 C2581 1.377 . S
C2580 C2585 1.397 . S
C2581 H2544 0.931 . S
C2581 C2580 1.377 . S
C2581 C2582 1.376 . S
C2582 H2545 0.930 . S
C2582 C2581 1.376 . S
C2582 C2583 1.376 . S
C2583 C2582 1.376 . S
C2583 C2584 1.378 . S
C2583 C2610 1.486 . S
C2584 H2546 0.930 . S
C2584 C2583 1.378 . S
C2584 C2585 1.376 . S
C2585 H2547 0.929 . S
C2585 C2580 1.397 . S
C2585 C2584 1.376 . S
C2586 C2570 1.509 . S
C2586 C2587 1.391 . S
C2586 C2591 1.386 . S
C2587 H2548 0.930 . S
C2587 C2586 1.391 . S
C2587 C2588 1.375 . S
C2588 H2549 0.931 . S
C2588 C2587 1.375 . S
C2588 C2589 1.375 . S
C2589 C2588 1.375 . S
C2589 C2590 1.361 . S
C2590 H2550 0.930 . S
C2590 C2589 1.361 . S
C2590 C2591 1.399 . S
C2591 H2551 0.929 . S
C2591 C2586 1.386 . S
C2591 C2590 1.399 . S
C2592 C2571 1.485 . S
C2592 C2593 1.394 . S
C2592 C2597 1.360 . S
C2593 H2552 0.931 . S
C2593 C2592 1.394 . S
C2593 C2594 1.372 . S
C2594 H2553 0.930 . S
C2594 C2593 1.372 . S
C2594 C2595 1.397 . S
C2595 C2594 1.397 . S
C2595 C2596 1.390 . S
C2595 C2611 1.476 . S
C2596 H2554 0.930 . S
C2596 C2595 1.390 . S
C2596 C2597 1.366 . S
C2597 H2555 0.932 . S
C2597 C2592 1.360 . S
C2597 C2596 1.366 . S
C2598 C2572 1.490 . S
C2598 C2599 1.380 . S
C2598 C2603 1.386 . S
C2599 H2556 0.930 . S
C2599 C2598 1.380 . S
C2599 C2600 1.381 . S
C2600 H2557 0.929 . S
C2600 C2599 1.381 . S
C2600 C2601 1.371 . S
C2601 C2600 1.371 . S
C2601 C2602 1.380 . S
C2602 H2558 0.931 . S
C2602 C2601 1.380 . S
C2602 C2603 1.387 . S
C2603 H2559 0.930 . S
C2603 C2598 1.386 . S
C2603 C2602 1.387 . S
C2604 C2573 1.519 . S
C2604 C2605 1.377 . S
C2604 C2609 1.361 . S
C2605 H2560 0.929 . S
C2605 C2604 1.377 . S
C2605 C2606 1.386 . S
C2606 H2561 0.931 . S
C2606 C2605 1.386 . S
C2606 C2607 1.363 . S
C2607 C2606 1.363 . S
C2607 C2608 1.385 . S
C2608 H2562 0.930 . S
C2608 C2607 1.385 . S
C2608 C2609 1.396 . S
C2609 H2563 0.929 . S
C2609 C2604 1.361 . S
C2609 C2608 1.396 . S
C2610 O2564 1.300 . S
C2610 O2565 1.209 . S
C2610 C2583 1.486 . S
C2611 O2566 1.199 . S
C2611 O2567 1.297 . S
C2611 C2595 1.476 . S
H2612 O2638 0.856 . S
H2613 O2641 0.854 . S
H2614 C2649 0.930 . S
H2615 C2650 0.930 . S
H2616 C2652 0.930 . S
H2617 C2653 0.930 . S
H2618 C2655 0.931 . S
H2619 C2656 0.930 . S
H2620 C2658 0.930 . S
H2621 C2659 0.929 . S
H2622 C2661 0.930 . S
H2623 C2662 0.931 . S
H2624 C2664 0.930 . S
H2625 C2665 0.929 . S
H2626 C2667 0.931 . S
H2627 C2668 0.930 . S
H2628 C2670 0.930 . S
H2629 C2671 0.932 . S
H2630 C2673 0.930 . S
H2631 C2674 0.929 . S
H2632 C2676 0.931 . S
H2633 C2677 0.930 . S
H2634 C2679 0.929 . S
H2635 C2680 0.931 . S
H2636 C2682 0.930 . S
H2637 C2683 0.929 . S
O2638 H2612 0.856 . S
O2638 C2684 1.300 . S
O2639 C2684 1.209 . S
O2640 C2685 1.199 . S
O2641 H2613 0.854 . S
O2641 C2685 1.297 . S
C2642 C2643 1.404 . S
C2642 C2647 1.397 . S
C2642 C2648 1.492 . S
C2643 C2642 1.404 . S
C2643 C2644 1.396 . S
C2643 C2654 1.492 . S
C2644 C2643 1.396 . S
C2644 C2645 1.397 . S
C2644 C2660 1.509 . S
C2645 C2644 1.397 . S
C2645 C2646 1.412 . S
C2645 C2666 1.485 . S
C2646 C2645 1.412 . S
C2646 C2647 1.388 . S
C2646 C2672 1.490 . S
C2647 C2642 1.397 . S
C2647 C2646 1.388 . S
C2647 C2678 1.519 . S
C2648 C2642 1.492 . S
C2648 C2649 1.363 . S
C2648 C2653 1.390 . S
C2649 H2614 0.930 . S
C2649 C2648 1.363 . S
C2649 C2650 1.372 . S
C2650 H2615 0.930 . S
C2650 C2649 1.372 . S
C2650 C2651 1.383 . S
C2651 C2650 1.383 . S
C2651 C2652 1.395 . S
C2652 H2616 0.930 . S
C2652 C2651 1.395 . S
C2652 C2653 1.362 . S
C2653 H2617 0.930 . S
C2653 C2648 1.390 . S
C2653 C2652 1.362 . S
C2654 C2643 1.492 . S
C2654 C2655 1.377 . S
C2654 C2659 1.397 . S
C2655 H2618 0.931 . S
C2655 C2654 1.377 . S
C2655 C2656 1.376 . S
C2656 H2619 0.930 . S
C2656 C2655 1.376 . S
C2656 C2657 1.376 . S
C2657 C2656 1.376 . S
C2657 C2658 1.378 . S
C2657 C2684 1.486 . S
C2658 H2620 0.930 . S
C2658 C2657 1.378 . S
C2658 C2659 1.376 . S
C2659 H2621 0.929 . S
C2659 C2654 1.397 . S
C2659 C2658 1.376 . S
C2660 C2644 1.509 . S
C2660 C2661 1.391 . S
C2660 C2665 1.386 . S
C2661 H2622 0.930 . S
C2661 C2660 1.391 . S
C2661 C2662 1.375 . S
C2662 H2623 0.931 . S
C2662 C2661 1.375 . S
C2662 C2663 1.375 . S
C2663 C2662 1.375 . S
C2663 C2664 1.361 . S
C2664 H2624 0.930 . S
C2664 C2663 1.361 . S
C2664 C2665 1.399 . S
C2665 H2625 0.929 . S
C2665 C2660 1.386 . S
C2665 C2664 1.399 . S
C2666 C2645 1.485 . S
C2666 C2667 1.394 . S
C2666 C2671 1.360 . S
C2667 H2626 0.931 . S
C2667 C2666 1.394 . S
C2667 C2668 1.372 . S
C2668 H2627 0.930 . S
C2668 C2667 1.372 . S
C2668 C2669 1.397 . S
C2669 C2668 1.397 . S
C2669 C2670 1.390 . S
C2669 C2685 1.476 . S
C2670 H2628 0.930 . S
C2670 C2669 1.390 . S
C2670 C2671 1.366 . S
C2671 H2629 0.932 . S
C2671 C2666 1.360 . S
C2671 C2670 1.366 . S
C2672 C2646 1.490 . S
C2672 C2673 1.380 . S
C2672 C2677 1.386 . S
C2673 H2630 0.930 . S
C2673 C2672 1.380 . S
C2673 C2674 1.381 . S
C2674 H2631 0.929 . S
C2674 C2673 1.381 . S
C2674 C2675 1.371 . S
C2675 C2674 1.371 . S
C2675 C2676 1.380 . S
C2676 H2632 0.931 . S
C2676 C2675 1.380 . S
C2676 C2677 1.387 . S
C2677 H2633 0.930 . S
C2677 C2672 1.386 . S
C2677 C2676 1.387 . S
C2678 C2647 1.519 . S
C2678 C2679 1.377 . S
C2678 C2683 1.361 . S
C2679 H2634 0.929 . S
C2679 C2678 1.377 . S
C2679 C2680 1.386 . S
C2680 H2635 0.931 . S
C2680 C2679 1.386 . S
C2680 C2681 1.363 . S
C2681 C2680 1.363 . S
C2681 C2682 1.385 . S
C2682 H2636 0.930 . S
C2682 C2681 1.385 . S
C2682 C2683 1.396 . S
C2683 H2637 0.929 . S
C2683 C2678 1.361 . S
C2683 C2682 1.396 . S
C2684 O2638 1.300 . S
C2684 O2639 1.209 . S
C2684 C2657 1.486 . S
C2685 O2640 1.199 . S
C2685 O2641 1.297 . S
C2685 C2669 1.476 . S
H2686 O2712 0.856 . S
H2687 O2715 0.854 . S
H2688 C2723 0.930 . S
H2689 C2724 0.930 . S
H2690 C2726 0.930 . S
H2691 C2727 0.930 . S
H2692 C2729 0.931 . S
H2693 C2730 0.930 . S
H2694 C2732 0.930 . S
H2695 C2733 0.929 . S
H2696 C2735 0.930 . S
H2697 C2736 0.931 . S
H2698 C2738 0.930 . S
H2699 C2739 0.929 . S
H2700 C2741 0.931 . S
H2701 C2742 0.930 . S
H2702 C2744 0.930 . S
H2703 C2745 0.932 . S
H2704 C2747 0.930 . S
H2705 C2748 0.929 . S
H2706 C2750 0.931 . S
H2707 C2751 0.930 . S
H2708 C2753 0.929 . S
H2709 C2754 0.931 . S
H2710 C2756 0.930 . S
H2711 C2757 0.929 . S
O2712 H2686 0.856 . S
O2712 C2758 1.300 . S
O2713 C2758 1.209 . S
O2714 C2759 1.199 . S
O2715 H2687 0.854 . S
O2715 C2759 1.297 . S
C2716 C2717 1.404 . S
C2716 C2721 1.397 . S
C2716 C2722 1.492 . S
C2717 C2716 1.404 . S
C2717 C2718 1.396 . S
C2717 C2728 1.492 . S
C2718 C2717 1.396 . S
C2718 C2719 1.397 . S
C2718 C2734 1.509 . S
C2719 C2718 1.397 . S
C2719 C2720 1.412 . S
C2719 C2740 1.485 . S
C2720 C2719 1.412 . S
C2720 C2721 1.388 . S
C2720 C2746 1.490 . S
C2721 C2716 1.397 . S
C2721 C2720 1.388 . S
C2721 C2752 1.519 . S
C2722 C2716 1.492 . S
C2722 C2723 1.363 . S
C2722 C2727 1.390 . S
C2723 H2688 0.930 . S
C2723 C2722 1.363 . S
C2723 C2724 1.372 . S
C2724 H2689 0.930 . S
C2724 C2723 1.372 . S
C2724 C2725 1.383 . S
C2725 C2724 1.383 . S
C2725 C2726 1.395 . S
C2726 H2690 0.930 . S
C2726 C2725 1.395 . S
C2726 C2727 1.362 . S
C2727 H2691 0.930 . S
C2727 C2722 1.390 . S
C2727 C2726 1.362 . S
C2728 C2717 1.492 . S
C2728 C2729 1.377 . S
C2728 C2733 1.397 . S
C2729 H2692 0.931 . S
C2729 C2728 1.377 . S
C2729 C2730 1.376 . S
C2730 H2693 0.930 . S
C2730 C2729 1.376 . S
C2730 C2731 1.376 . S
C2731 C2730 1.376 . S
C2731 C2732 1.378 . S
C2731 C2758 1.486 . S
C2732 H2694 0.930 . S
C2732 C2731 1.378 . S
C2732 C2733 1.376 . S
C2733 H2695 0.929 . S
C2733 C2728 1.397 . S
C2733 C2732 1.376 . S
C2734 C2718 1.509 . S
C2734 C2735 1.391 . S
C2734 C2739 1.386 . S
C2735 H2696 0.930 . S
C2735 C2734 1.391 . S
C2735 C2736 1.375 . S
C2736 H2697 0.931 . S
C2736 C2735 1.375 . S
C2736 C2737 1.375 . S
C2737 C2736 1.375 . S
C2737 C2738 1.361 . S
C2738 H2698 0.930 . S
C2738 C2737 1.361 . S
C2738 C2739 1.399 . S
C2739 H2699 0.929 . S
C2739 C2734 1.386 . S
C2739 C2738 1.399 . S
C2740 C2719 1.485 . S
C2740 C2741 1.394 . S
C2740 C2745 1.360 . S
C2741 H2700 0.931 . S
C2741 C2740 1.394 . S
C2741 C2742 1.372 . S
C2742 H2701 0.930 . S
C2742 C2741 1.372 . S
C2742 C2743 1.397 . S
C2743 C2742 1.397 . S
C2743 C2744 1.390 . S
C2743 C2759 1.476 . S
C2744 H2702 0.930 . S
C2744 C2743 1.390 . S
C2744 C2745 1.366 . S
C2745 H2703 0.932 . S
C2745 C2740 1.360 . S
C2745 C2744 1.366 . S
C2746 C2720 1.490 . S
C2746 C2747 1.380 . S
C2746 C2751 1.386 . S
C2747 H2704 0.930 . S
C2747 C2746 1.380 . S
C2747 C2748 1.381 . S
C2748 H2705 0.929 . S
C2748 C2747 1.381 . S
C2748 C2749 1.371 . S
C2749 C2748 1.371 . S
C2749 C2750 1.380 . S
C2750 H2706 0.931 . S
C2750 C2749 1.380 . S
C2750 C2751 1.387 . S
C2751 H2707 0.930 . S
C2751 C2746 1.386 . S
C2751 C2750 1.387 . S
C2752 C2721 1.519 . S
C2752 C2753 1.377 . S
C2752 C2757 1.361 . S
C2753 H2708 0.929 . S
C2753 C2752 1.377 . S
C2753 C2754 1.386 . S
C2754 H2709 0.931 . S
C2754 C2753 1.386 . S
C2754 C2755 1.363 . S
C2755 C2754 1.363 . S
C2755 C2756 1.385 . S
C2756 H2710 0.930 . S
C2756 C2755 1.385 . S
C2756 C2757 1.396 . S
C2757 H2711 0.929 . S
C2757 C2752 1.361 . S
C2757 C2756 1.396 . S
C2758 O2712 1.300 . S
C2758 O2713 1.209 . S
C2758 C2731 1.486 . S
C2759 O2714 1.199 . S
C2759 O2715 1.297 . S
C2759 C2743 1.476 . S
H2760 O2786 0.856 . S
H2761 O2789 0.854 . S
H2762 C2797 0.930 . S
H2763 C2798 0.930 . S
H2764 C2800 0.930 . S
H2765 C2801 0.930 . S
H2766 C2803 0.931 . S
H2767 C2804 0.930 . S
H2768 C2806 0.930 . S
H2769 C2807 0.929 . S
H2770 C2809 0.930 . S
H2771 C2810 0.931 . S
H2772 C2812 0.930 . S
H2773 C2813 0.929 . S
H2774 C2815 0.931 . S
H2775 C2816 0.930 . S
H2776 C2818 0.930 . S
H2777 C2819 0.932 . S
H2778 C2821 0.930 . S
H2779 C2822 0.929 . S
H2780 C2824 0.931 . S
H2781 C2825 0.930 . S
H2782 C2827 0.929 . S
H2783 C2828 0.931 . S
H2784 C2830 0.930 . S
H2785 C2831 0.929 . S
O2786 H2760 0.856 . S
O2786 C2832 1.300 . S
O2787 C2832 1.209 . S
O2788 C2833 1.199 . S
O2789 H2761 0.854 . S
O2789 C2833 1.297 . S
C2790 C2791 1.404 . S
C2790 C2795 1.397 . S
C2790 C2796 1.492 . S
C2791 C2790 1.404 . S
C2791 C2792 1.396 . S
C2791 C2802 1.492 . S
C2792 C2791 1.396 . S
C2792 C2793 1.397 . S
C2792 C2808 1.509 . S
C2793 C2792 1.397 . S
C2793 C2794 1.412 . S
C2793 C2814 1.485 . S
C2794 C2793 1.412 . S
C2794 C2795 1.388 . S
C2794 C2820 1.490 . S
C2795 C2790 1.397 . S
C2795 C2794 1.388 . S
C2795 C2826 1.519 . S
C2796 C2790 1.492 . S
C2796 C2797 1.363 . S
C2796 C2801 1.390 . S
C2797 H2762 0.930 . S
C2797 C2796 1.363 . S
C2797 C2798 1.372 . S
C2798 H2763 0.930 . S
C2798 C2797 1.372 . S
C2798 C2799 1.383 . S
C2799 C2798 1.383 . S
C2799 C2800 1.395 . S
C2800 H2764 0.930 . S
C2800 C2799 1.395 . S
C2800 C2801 1.362 . S
C2801 H2765 0.930 . S
C2801 C2796 1.390 . S
C2801 C2800 1.362 . S
C2802 C2791 1.492 . S
C2802 C2803 1.377 . S
C2802 C2807 1.397 . S
C2803 H2766 0.931 . S
C2803 C2802 1.377 . S
C2803 C2804 1.376 . S
C2804 H2767 0.930 . S
C2804 C2803 1.376 . S
C2804 C2805 1.376 . S
C2805 C2804 1.376 . S
C2805 C2806 1.378 . S
C2805 C2832 1.486 . S
C2806 H2768 0.930 . S
C2806 C2805 1.378 . S
C2806 C2807 1.376 . S
C2807 H2769 0.929 . S
C2807 C2802 1.397 . S
C2807 C2806 1.376 . S
C2808 C2792 1.509 . S
C2808 C2809 1.391 . S
C2808 C2813 1.386 . S
C2809 H2770 0.930 . S
C2809 C2808 1.391 . S
C2809 C2810 1.375 . S
C2810 H2771 0.931 . S
C2810 C2809 1.375 . S
C2810 C2811 1.375 . S
C2811 C2810 1.375 . S
C2811 C2812 1.361 . S
C2812 H2772 0.930 . S
C2812 C2811 1.361 . S
C2812 C2813 1.399 . S
C2813 H2773 0.929 . S
C2813 C2808 1.386 . S
C2813 C2812 1.399 . S
C2814 C2793 1.485 . S
C2814 C2815 1.394 . S
C2814 C2819 1.360 . S
C2815 H2774 0.931 . S
C2815 C2814 1.394 . S
C2815 C2816 1.372 . S
C2816 H2775 0.930 . S
C2816 C2815 1.372 . S
C2816 C2817 1.397 . S
C2817 C2816 1.397 . S
C2817 C2818 1.390 . S
C2817 C2833 1.476 . S
C2818 H2776 0.930 . S
C2818 C2817 1.390 . S
C2818 C2819 1.366 . S
C2819 H2777 0.932 . S
C2819 C2814 1.360 . S
C2819 C2818 1.366 . S
C2820 C2794 1.490 . S
C2820 C2821 1.380 . S
C2820 C2825 1.386 . S
C2821 H2778 0.930 . S
C2821 C2820 1.380 . S
C2821 C2822 1.381 . S
C2822 H2779 0.929 . S
C2822 C2821 1.381 . S
C2822 C2823 1.371 . S
C2823 C2822 1.371 . S
C2823 C2824 1.380 . S
C2824 H2780 0.931 . S
C2824 C2823 1.380 . S
C2824 C2825 1.387 . S
C2825 H2781 0.930 . S
C2825 C2820 1.386 . S
C2825 C2824 1.387 . S
C2826 C2795 1.519 . S
C2826 C2827 1.377 . S
C2826 C2831 1.361 . S
C2827 H2782 0.929 . S
C2827 C2826 1.377 . S
C2827 C2828 1.386 . S
C2828 H2783 0.931 . S
C2828 C2827 1.386 . S
C2828 C2829 1.363 . S
C2829 C2828 1.363 . S
C2829 C2830 1.385 . S
C2830 H2784 0.930 . S
C2830 C2829 1.385 . S
C2830 C2831 1.396 . S
C2831 H2785 0.929 . S
C2831 C2826 1.361 . S
C2831 C2830 1.396 . S
C2832 O2786 1.300 . S
C2832 O2787 1.209 . S
C2832 C2805 1.486 . S
C2833 O2788 1.199 . S
C2833 O2789 1.297 . S
C2833 C2817 1.476 . S
H2834 O2860 0.856 . S
H2835 O2863 0.854 . S
H2836 C2871 0.930 . S
H2837 C2872 0.930 . S
H2838 C2874 0.930 . S
H2839 C2875 0.930 . S
H2840 C2877 0.931 . S
H2841 C2878 0.930 . S
H2842 C2880 0.930 . S
H2843 C2881 0.929 . S
H2844 C2883 0.930 . S
H2845 C2884 0.931 . S
H2846 C2886 0.930 . S
H2847 C2887 0.929 . S
H2848 C2889 0.931 . S
H2849 C2890 0.930 . S
H2850 C2892 0.930 . S
H2851 C2893 0.932 . S
H2852 C2895 0.930 . S
H2853 C2896 0.929 . S
H2854 C2898 0.931 . S
H2855 C2899 0.930 . S
H2856 C2901 0.929 . S
H2857 C2902 0.931 . S
H2858 C2904 0.930 . S
H2859 C2905 0.929 . S
O2860 H2834 0.856 . S
O2860 C2906 1.300 . S
O2861 C2906 1.209 . S
O2862 C2907 1.199 . S
O2863 H2835 0.854 . S
O2863 C2907 1.297 . S
C2864 C2865 1.404 . S
C2864 C2869 1.397 . S
C2864 C2870 1.492 . S
C2865 C2864 1.404 . S
C2865 C2866 1.396 . S
C2865 C2876 1.492 . S
C2866 C2865 1.396 . S
C2866 C2867 1.397 . S
C2866 C2882 1.509 . S
C2867 C2866 1.397 . S
C2867 C2868 1.412 . S
C2867 C2888 1.485 . S
C2868 C2867 1.412 . S
C2868 C2869 1.388 . S
C2868 C2894 1.490 . S
C2869 C2864 1.397 . S
C2869 C2868 1.388 . S
C2869 C2900 1.519 . S
C2870 C2864 1.492 . S
C2870 C2871 1.363 . S
C2870 C2875 1.390 . S
C2871 H2836 0.930 . S
C2871 C2870 1.363 . S
C2871 C2872 1.372 . S
C2872 H2837 0.930 . S
C2872 C2871 1.372 . S
C2872 C2873 1.383 . S
C2873 C2872 1.383 . S
C2873 C2874 1.395 . S
C2874 H2838 0.930 . S
C2874 C2873 1.395 . S
C2874 C2875 1.362 . S
C2875 H2839 0.930 . S
C2875 C2870 1.390 . S
C2875 C2874 1.362 . S
C2876 C2865 1.492 . S
C2876 C2877 1.377 . S
C2876 C2881 1.397 . S
C2877 H2840 0.931 . S
C2877 C2876 1.377 . S
C2877 C2878 1.376 . S
C2878 H2841 0.930 . S
C2878 C2877 1.376 . S
C2878 C2879 1.376 . S
C2879 C2878 1.376 . S
C2879 C2880 1.378 . S
C2879 C2906 1.486 . S
C2880 H2842 0.930 . S
C2880 C2879 1.378 . S
C2880 C2881 1.376 . S
C2881 H2843 0.929 . S
C2881 C2876 1.397 . S
C2881 C2880 1.376 . S
C2882 C2866 1.509 . S
C2882 C2883 1.391 . S
C2882 C2887 1.386 . S
C2883 H2844 0.930 . S
C2883 C2882 1.391 . S
C2883 C2884 1.375 . S
C2884 H2845 0.931 . S
C2884 C2883 1.375 . S
C2884 C2885 1.375 . S
C2885 C2884 1.375 . S
C2885 C2886 1.361 . S
C2886 H2846 0.930 . S
C2886 C2885 1.361 . S
C2886 C2887 1.399 . S
C2887 H2847 0.929 . S
C2887 C2882 1.386 . S
C2887 C2886 1.399 . S
C2888 C2867 1.485 . S
C2888 C2889 1.394 . S
C2888 C2893 1.360 . S
C2889 H2848 0.931 . S
C2889 C2888 1.394 . S
C2889 C2890 1.372 . S
C2890 H2849 0.930 . S
C2890 C2889 1.372 . S
C2890 C2891 1.397 . S
C2891 C2890 1.397 . S
C2891 C2892 1.390 . S
C2891 C2907 1.476 . S
C2892 H2850 0.930 . S
C2892 C2891 1.390 . S
C2892 C2893 1.366 . S
C2893 H2851 0.932 . S
C2893 C2888 1.360 . S
C2893 C2892 1.366 . S
C2894 C2868 1.490 . S
C2894 C2895 1.380 . S
C2894 C2899 1.386 . S
C2895 H2852 0.930 . S
C2895 C2894 1.380 . S
C2895 C2896 1.381 . S
C2896 H2853 0.929 . S
C2896 C2895 1.381 . S
C2896 C2897 1.371 . S
C2897 C2896 1.371 . S
C2897 C2898 1.380 . S
C2898 H2854 0.931 . S
C2898 C2897 1.380 . S
C2898 C2899 1.387 . S
C2899 H2855 0.930 . S
C2899 C2894 1.386 . S
C2899 C2898 1.387 . S
C2900 C2869 1.519 . S
C2900 C2901 1.377 . S
C2900 C2905 1.361 . S
C2901 H2856 0.929 . S
C2901 C2900 1.377 . S
C2901 C2902 1.386 . S
C2902 H2857 0.931 . S
C2902 C2901 1.386 . S
C2902 C2903 1.363 . S
C2903 C2902 1.363 . S
C2903 C2904 1.385 . S
C2904 H2858 0.930 . S
C2904 C2903 1.385 . S
C2904 C2905 1.396 . S
C2905 H2859 0.929 . S
C2905 C2900 1.361 . S
C2905 C2904 1.396 . S
C2906 O2860 1.300 . S
C2906 O2861 1.209 . S
C2906 C2879 1.486 . S
C2907 O2862 1.199 . S
C2907 O2863 1.297 . S
C2907 C2891 1.476 . S
H2908 O2934 0.856 . S
H2909 O2937 0.854 . S
H2910 C2945 0.930 . S
H2911 C2946 0.930 . S
H2912 C2948 0.930 . S
H2913 C2949 0.930 . S
H2914 C2951 0.931 . S
H2915 C2952 0.930 . S
H2916 C2954 0.930 . S
H2917 C2955 0.929 . S
H2918 C2957 0.930 . S
H2919 C2958 0.931 . S
H2920 C2960 0.930 . S
H2921 C2961 0.929 . S
H2922 C2963 0.931 . S
H2923 C2964 0.930 . S
H2924 C2966 0.930 . S
H2925 C2967 0.932 . S
H2926 C2969 0.930 . S
H2927 C2970 0.929 . S
H2928 C2972 0.931 . S
H2929 C2973 0.930 . S
H2930 C2975 0.929 . S
H2931 C2976 0.931 . S
H2932 C2978 0.930 . S
H2933 C2979 0.929 . S
O2934 H2908 0.856 . S
O2934 C2980 1.300 . S
O2935 C2980 1.209 . S
O2936 C2981 1.199 . S
O2937 H2909 0.854 . S
O2937 C2981 1.297 . S
C2938 C2939 1.404 . S
C2938 C2943 1.397 . S
C2938 C2944 1.492 . S
C2939 C2938 1.404 . S
C2939 C2940 1.396 . S
C2939 C2950 1.492 . S
C2940 C2939 1.396 . S
C2940 C2941 1.397 . S
C2940 C2956 1.509 . S
C2941 C2940 1.397 . S
C2941 C2942 1.412 . S
C2941 C2962 1.485 . S
C2942 C2941 1.412 . S
C2942 C2943 1.388 . S
C2942 C2968 1.490 . S
C2943 C2938 1.397 . S
C2943 C2942 1.388 . S
C2943 C2974 1.519 . S
C2944 C2938 1.492 . S
C2944 C2945 1.363 . S
C2944 C2949 1.390 . S
C2945 H2910 0.930 . S
C2945 C2944 1.363 . S
C2945 C2946 1.372 . S
C2946 H2911 0.930 . S
C2946 C2945 1.372 . S
C2946 C2947 1.383 . S
C2947 C2946 1.383 . S
C2947 C2948 1.395 . S
C2948 H2912 0.930 . S
C2948 C2947 1.395 . S
C2948 C2949 1.362 . S
C2949 H2913 0.930 . S
C2949 C2944 1.390 . S
C2949 C2948 1.362 . S
C2950 C2939 1.492 . S
C2950 C2951 1.377 . S
C2950 C2955 1.397 . S
C2951 H2914 0.931 . S
C2951 C2950 1.377 . S
C2951 C2952 1.376 . S
C2952 H2915 0.930 . S
C2952 C2951 1.376 . S
C2952 C2953 1.376 . S
C2953 C2952 1.376 . S
C2953 C2954 1.378 . S
C2953 C2980 1.486 . S
C2954 H2916 0.930 . S
C2954 C2953 1.378 . S
C2954 C2955 1.376 . S
C2955 H2917 0.929 . S
C2955 C2950 1.397 . S
C2955 C2954 1.376 . S
C2956 C2940 1.509 . S
C2956 C2957 1.391 . S
C2956 C2961 1.386 . S
C2957 H2918 0.930 . S
C2957 C2956 1.391 . S
C2957 C2958 1.375 . S
C2958 H2919 0.931 . S
C2958 C2957 1.375 . S
C2958 C2959 1.375 . S
C2959 C2958 1.375 . S
C2959 C2960 1.361 . S
C2960 H2920 0.930 . S
C2960 C2959 1.361 . S
C2960 C2961 1.399 . S
C2961 H2921 0.929 . S
C2961 C2956 1.386 . S
C2961 C2960 1.399 . S
C2962 C2941 1.485 . S
C2962 C2963 1.394 . S
C2962 C2967 1.360 . S
C2963 H2922 0.931 . S
C2963 C2962 1.394 . S
C2963 C2964 1.372 . S
C2964 H2923 0.930 . S
C2964 C2963 1.372 . S
C2964 C2965 1.397 . S
C2965 C2964 1.397 . S
C2965 C2966 1.390 . S
C2965 C2981 1.476 . S
C2966 H2924 0.930 . S
C2966 C2965 1.390 . S
C2966 C2967 1.366 . S
C2967 H2925 0.932 . S
C2967 C2962 1.360 . S
C2967 C2966 1.366 . S
C2968 C2942 1.490 . S
C2968 C2969 1.380 . S
C2968 C2973 1.386 . S
C2969 H2926 0.930 . S
C2969 C2968 1.380 . S
C2969 C2970 1.381 . S
C2970 H2927 0.929 . S
C2970 C2969 1.381 . S
C2970 C2971 1.371 . S
C2971 C2970 1.371 . S
C2971 C2972 1.380 . S
C2972 H2928 0.931 . S
C2972 C2971 1.380 . S
C2972 C2973 1.387 . S
C2973 H2929 0.930 . S
C2973 C2968 1.386 . S
C2973 C2972 1.387 . S
C2974 C2943 1.519 . S
C2974 C2975 1.377 . S
C2974 C2979 1.361 . S
C2975 H2930 0.929 . S
C2975 C2974 1.377 . S
C2975 C2976 1.386 . S
C2976 H2931 0.931 . S
C2976 C2975 1.386 . S
C2976 C2977 1.363 . S
C2977 C2976 1.363 . S
C2977 C2978 1.385 . S
C2978 H2932 0.930 . S
C2978 C2977 1.385 . S
C2978 C2979 1.396 . S
C2979 H2933 0.929 . S
C2979 C2974 1.361 . S
C2979 C2978 1.396 . S
C2980 O2934 1.300 . S
C2980 O2935 1.209 . S
C2980 C2953 1.486 . S
C2981 O2936 1.199 . S
C2981 O2937 1.297 . S
C2981 C2965 1.476 . S
H2982 O3008 0.856 . S
H2983 O3011 0.854 . S
H2984 C3019 0.930 . S
H2985 C3020 0.930 . S
H2986 C3022 0.930 . S
H2987 C3023 0.930 . S
H2988 C3025 0.931 . S
H2989 C3026 0.930 . S
H2990 C3028 0.930 . S
H2991 C3029 0.929 . S
H2992 C3031 0.930 . S
H2993 C3032 0.931 . S
H2994 C3034 0.930 . S
H2995 C3035 0.929 . S
H2996 C3037 0.931 . S
H2997 C3038 0.930 . S
H2998 C3040 0.930 . S
H2999 C3041 0.932 . S
H3000 C3043 0.930 . S
H3001 C3044 0.929 . S
H3002 C3046 0.931 . S
H3003 C3047 0.930 . S
H3004 C3049 0.929 . S
H3005 C3050 0.931 . S
H3006 C3052 0.930 . S
H3007 C3053 0.929 . S
O3008 H2982 0.856 . S
O3008 C3054 1.300 . S
O3009 C3054 1.209 . S
O3010 C3055 1.199 . S
O3011 H2983 0.854 . S
O3011 C3055 1.297 . S
C3012 C3013 1.404 . S
C3012 C3017 1.397 . S
C3012 C3018 1.492 . S
C3013 C3012 1.404 . S
C3013 C3014 1.396 . S
C3013 C3024 1.492 . S
C3014 C3013 1.396 . S
C3014 C3015 1.397 . S
C3014 C3030 1.509 . S
C3015 C3014 1.397 . S
C3015 C3016 1.412 . S
C3015 C3036 1.485 . S
C3016 C3015 1.412 . S
C3016 C3017 1.388 . S
C3016 C3042 1.490 . S
C3017 C3012 1.397 . S
C3017 C3016 1.388 . S
C3017 C3048 1.519 . S
C3018 C3012 1.492 . S
C3018 C3019 1.363 . S
C3018 C3023 1.390 . S
C3019 H2984 0.930 . S
C3019 C3018 1.363 . S
C3019 C3020 1.372 . S
C3020 H2985 0.930 . S
C3020 C3019 1.372 . S
C3020 C3021 1.383 . S
C3021 C3020 1.383 . S
C3021 C3022 1.395 . S
C3022 H2986 0.930 . S
C3022 C3021 1.395 . S
C3022 C3023 1.362 . S
C3023 H2987 0.930 . S
C3023 C3018 1.390 . S
C3023 C3022 1.362 . S
C3024 C3013 1.492 . S
C3024 C3025 1.377 . S
C3024 C3029 1.397 . S
C3025 H2988 0.931 . S
C3025 C3024 1.377 . S
C3025 C3026 1.376 . S
C3026 H2989 0.930 . S
C3026 C3025 1.376 . S
C3026 C3027 1.376 . S
C3027 C3026 1.376 . S
C3027 C3028 1.378 . S
C3027 C3054 1.486 . S
C3028 H2990 0.930 . S
C3028 C3027 1.378 . S
C3028 C3029 1.376 . S
C3029 H2991 0.929 . S
C3029 C3024 1.397 . S
C3029 C3028 1.376 . S
C3030 C3014 1.509 . S
C3030 C3031 1.391 . S
C3030 C3035 1.386 . S
C3031 H2992 0.930 . S
C3031 C3030 1.391 . S
C3031 C3032 1.375 . S
C3032 H2993 0.931 . S
C3032 C3031 1.375 . S
C3032 C3033 1.375 . S
C3033 C3032 1.375 . S
C3033 C3034 1.361 . S
C3034 H2994 0.930 . S
C3034 C3033 1.361 . S
C3034 C3035 1.399 . S
C3035 H2995 0.929 . S
C3035 C3030 1.386 . S
C3035 C3034 1.399 . S
C3036 C3015 1.485 . S
C3036 C3037 1.394 . S
C3036 C3041 1.360 . S
C3037 H2996 0.931 . S
C3037 C3036 1.394 . S
C3037 C3038 1.372 . S
C3038 H2997 0.930 . S
C3038 C3037 1.372 . S
C3038 C3039 1.397 . S
C3039 C3038 1.397 . S
C3039 C3040 1.390 . S
C3039 C3055 1.476 . S
C3040 H2998 0.930 . S
C3040 C3039 1.390 . S
C3040 C3041 1.366 . S
C3041 H2999 0.932 . S
C3041 C3036 1.360 . S
C3041 C3040 1.366 . S
C3042 C3016 1.490 . S
C3042 C3043 1.380 . S
C3042 C3047 1.386 . S
C3043 H3000 0.930 . S
C3043 C3042 1.380 . S
C3043 C3044 1.381 . S
C3044 H3001 0.929 . S
C3044 C3043 1.381 . S
C3044 C3045 1.371 . S
C3045 C3044 1.371 . S
C3045 C3046 1.380 . S
C3046 H3002 0.931 . S
C3046 C3045 1.380 . S
C3046 C3047 1.387 . S
C3047 H3003 0.930 . S
C3047 C3042 1.386 . S
C3047 C3046 1.387 . S
C3048 C3017 1.519 . S
C3048 C3049 1.377 . S
C3048 C3053 1.361 . S
C3049 H3004 0.929 . S
C3049 C3048 1.377 . S
C3049 C3050 1.386 . S
C3050 H3005 0.931 . S
C3050 C3049 1.386 . S
C3050 C3051 1.363 . S
C3051 C3050 1.363 . S
C3051 C3052 1.385 . S
C3052 H3006 0.930 . S
C3052 C3051 1.385 . S
C3052 C3053 1.396 . S
C3053 H3007 0.929 . S
C3053 C3048 1.361 . S
C3053 C3052 1.396 . S
C3054 O3008 1.300 . S
C3054 O3009 1.209 . S
C3054 C3027 1.486 . S
C3055 O3010 1.199 . S
C3055 O3011 1.297 . S
C3055 C3039 1.476 . S
H3056 C3064 0.950 . S
H3057 C3069 0.950 . S
H3058 C3066 0.950 . S
H3059 C3068 0.950 . S
H3060 C3070 0.950 . S
H3061 C3072 0.950 . S
H3062 C3074 0.950 . S
H3063 C3075 0.950 . S
C3064 H3056 0.950 . S
C3064 C3065 1.386 . S
C3064 C3066 1.391 . S
C3065 C3064 1.386 . S
C3065 C3069 1.393 . S
C3066 H3058 0.950 . S
C3066 C3064 1.391 . S
C3066 C3067 1.400 . S
C3067 C3066 1.400 . S
C3067 C3068 1.398 . S
C3067 C3073 1.491 . S
C3068 H3059 0.950 . S
C3068 C3067 1.398 . S
C3068 C3069 1.391 . S
C3069 H3057 0.950 . S
C3069 C3065 1.393 . S
C3069 C3068 1.391 . S
C3070 H3060 0.950 . S
C3070 C3071 1.386 . S
C3070 C3072 1.391 . S
C3071 C3070 1.386 . S
C3071 C3075 1.393 . S
C3072 H3061 0.950 . S
C3072 C3070 1.391 . S
C3072 C3073 1.400 . S
C3073 C3067 1.491 . S
C3073 C3072 1.400 . S
C3073 C3074 1.398 . S
C3074 H3062 0.950 . S
C3074 C3073 1.398 . S
C3074 C3075 1.391 . S
C3075 H3063 0.950 . S
C3075 C3071 1.393 . S
C3075 C3074 1.391 . S
H3076 C3084 0.950 . S
H3077 C3089 0.950 . S
H3078 C3086 0.950 . S
H3079 C3088 0.950 . S
H3080 C3090 0.950 . S
H3081 C3092 0.950 . S
H3082 C3094 0.950 . S
H3083 C3095 0.950 . S
C3084 H3076 0.950 . S
C3084 C3085 1.386 . S
C3084 C3086 1.391 . S
C3085 C3084 1.386 . S
C3085 C3089 1.393 . S
C3086 H3078 0.950 . S
C3086 C3084 1.391 . S
C3086 C3087 1.400 . S
C3087 C3086 1.400 . S
C3087 C3088 1.398 . S
C3087 C3093 1.491 . S
C3088 H3079 0.950 . S
C3088 C3087 1.398 . S
C3088 C3089 1.391 . S
C3089 H3077 0.950 . S
C3089 C3085 1.393 . S
C3089 C3088 1.391 . S
C3090 H3080 0.950 . S
C3090 C3091 1.386 . S
C3090 C3092 1.391 . S
C3091 C3090 1.386 . S
C3091 C3095 1.393 . S
C3092 H3081 0.950 . S
C3092 C3090 1.391 . S
C3092 C3093 1.400 . S
C3093 C3087 1.491 . S
C3093 C3092 1.400 . S
C3093 C3094 1.398 . S
C3094 H3082 0.950 . S
C3094 C3093 1.398 . S
C3094 C3095 1.391 . S
C3095 H3083 0.950 . S
C3095 C3091 1.393 . S
C3095 C3094 1.391 . S
H3096 C3104 0.950 . S
H3097 C3109 0.950 . S
H3098 C3106 0.950 . S
H3099 C3108 0.950 . S
H3100 C3110 0.950 . S
H3101 C3112 0.950 . S
H3102 C3114 0.950 . S
H3103 C3115 0.950 . S
C3104 H3096 0.950 . S
C3104 C3105 1.386 . S
C3104 C3106 1.391 . S
C3105 C3104 1.386 . S
C3105 C3109 1.393 . S
C3106 H3098 0.950 . S
C3106 C3104 1.391 . S
C3106 C3107 1.400 . S
C3107 C3106 1.400 . S
C3107 C3108 1.398 . S
C3107 C3113 1.491 . S
C3108 H3099 0.950 . S
C3108 C3107 1.398 . S
C3108 C3109 1.391 . S
C3109 H3097 0.950 . S
C3109 C3105 1.393 . S
C3109 C3108 1.391 . S
C3110 H3100 0.950 . S
C3110 C3111 1.386 . S
C3110 C3112 1.391 . S
C3111 C3110 1.386 . S
C3111 C3115 1.393 . S
C3112 H3101 0.950 . S
C3112 C3110 1.391 . S
C3112 C3113 1.400 . S
C3113 C3107 1.491 . S
C3113 C3112 1.400 . S
C3113 C3114 1.398 . S
C3114 H3102 0.950 . S
C3114 C3113 1.398 . S
C3114 C3115 1.391 . S
C3115 H3103 0.950 . S
C3115 C3111 1.393 . S
C3115 C3114 1.391 . S
H3116 C3124 0.950 . S
H3117 C3129 0.950 . S
H3118 C3126 0.950 . S
H3119 C3128 0.950 . S
H3120 C3130 0.950 . S
H3121 C3132 0.950 . S
H3122 C3134 0.950 . S
H3123 C3135 0.950 . S
C3124 H3116 0.950 . S
C3124 C3125 1.386 . S
C3124 C3126 1.391 . S
C3125 C3124 1.386 . S
C3125 C3129 1.393 . S
C3126 H3118 0.950 . S
C3126 C3124 1.391 . S
C3126 C3127 1.400 . S
C3127 C3126 1.400 . S
C3127 C3128 1.398 . S
C3127 C3133 1.491 . S
C3128 H3119 0.950 . S
C3128 C3127 1.398 . S
C3128 C3129 1.391 . S
C3129 H3117 0.950 . S
C3129 C3125 1.393 . S
C3129 C3128 1.391 . S
C3130 H3120 0.950 . S
C3130 C3131 1.386 . S
C3130 C3132 1.391 . S
C3131 C3130 1.386 . S
C3131 C3135 1.393 . S
C3132 H3121 0.950 . S
C3132 C3130 1.391 . S
C3132 C3133 1.400 . S
C3133 C3127 1.491 . S
C3133 C3132 1.400 . S
C3133 C3134 1.398 . S
C3134 H3122 0.950 . S
C3134 C3133 1.398 . S
C3134 C3135 1.391 . S
C3135 H3123 0.950 . S
C3135 C3131 1.393 . S
C3135 C3134 1.391 . S
H3136 C3144 0.950 . S
H3137 C3149 0.950 . S
H3138 C3146 0.950 . S
H3139 C3148 0.950 . S
H3140 C3150 0.950 . S
H3141 C3152 0.950 . S
H3142 C3154 0.950 . S
H3143 C3155 0.950 . S
C3144 H3136 0.950 . S
C3144 C3145 1.386 . S
C3144 C3146 1.391 . S
C3145 C3144 1.386 . S
C3145 C3149 1.393 . S
C3146 H3138 0.950 . S
C3146 C3144 1.391 . S
C3146 C3147 1.400 . S
C3147 C3146 1.400 . S
C3147 C3148 1.398 . S
C3147 C3153 1.491 . S
C3148 H3139 0.950 . S
C3148 C3147 1.398 . S
C3148 C3149 1.391 . S
C3149 H3137 0.950 . S
C3149 C3145 1.393 . S
C3149 C3148 1.391 . S
C3150 H3140 0.950 . S
C3150 C3151 1.386 . S
C3150 C3152 1.391 . S
C3151 C3150 1.386 . S
C3151 C3155 1.393 . S
C3152 H3141 0.950 . S
C3152 C3150 1.391 . S
C3152 C3153 1.400 . S
C3153 C3147 1.491 . S
C3153 C3152 1.400 . S
C3153 C3154 1.398 . S
C3154 H3142 0.950 . S
C3154 C3153 1.398 . S
C3154 C3155 1.391 . S
C3155 H3143 0.950 . S
C3155 C3151 1.393 . S
C3155 C3154 1.391 . S
H3156 C3164 0.950 . S
H3157 C3169 0.950 . S
H3158 C3166 0.950 . S
H3159 C3168 0.950 . S
H3160 C3170 0.950 . S
H3161 C3172 0.950 . S
H3162 C3174 0.950 . S
H3163 C3175 0.950 . S
C3164 H3156 0.950 . S
C3164 C3165 1.386 . S
C3164 C3166 1.391 . S
C3165 C3164 1.386 . S
C3165 C3169 1.393 . S
C3166 H3158 0.950 . S
C3166 C3164 1.391 . S
C3166 C3167 1.400 . S
C3167 C3166 1.400 . S
C3167 C3168 1.398 . S
C3167 C3173 1.491 . S
C3168 H3159 0.950 . S
C3168 C3167 1.398 . S
C3168 C3169 1.391 . S
C3169 H3157 0.950 . S
C3169 C3165 1.393 . S
C3169 C3168 1.391 . S
C3170 H3160 0.950 . S
C3170 C3171 1.386 . S
C3170 C3172 1.391 . S
C3171 C3170 1.386 . S
C3171 C3175 1.393 . S
C3172 H3161 0.950 . S
C3172 C3170 1.391 . S
C3172 C3173 1.400 . S
C3173 C3167 1.491 . S
C3173 C3172 1.400 . S
C3173 C3174 1.398 . S
C3174 H3162 0.950 . S
C3174 C3173 1.398 . S
C3174 C3175 1.391 . S
C3175 H3163 0.950 . S
C3175 C3171 1.393 . S
C3175 C3174 1.391 . S
H3176 C3184 0.950 . S
H3177 C3189 0.950 . S
H3178 C3186 0.950 . S
H3179 C3188 0.950 . S
H3180 C3190 0.950 . S
H3181 C3192 0.950 . S
H3182 C3194 0.950 . S
H3183 C3195 0.950 . S
C3184 H3176 0.950 . S
C3184 C3185 1.386 . S
C3184 C3186 1.391 . S
C3185 C3184 1.386 . S
C3185 C3189 1.393 . S
C3186 H3178 0.950 . S
C3186 C3184 1.391 . S
C3186 C3187 1.400 . S
C3187 C3186 1.400 . S
C3187 C3188 1.398 . S
C3187 C3193 1.491 . S
C3188 H3179 0.950 . S
C3188 C3187 1.398 . S
C3188 C3189 1.391 . S
C3189 H3177 0.950 . S
C3189 C3185 1.393 . S
C3189 C3188 1.391 . S
C3190 H3180 0.950 . S
C3190 C3191 1.386 . S
C3190 C3192 1.391 . S
C3191 C3190 1.386 . S
C3191 C3195 1.393 . S
C3192 H3181 0.950 . S
C3192 C3190 1.391 . S
C3192 C3193 1.400 . S
C3193 C3187 1.491 . S
C3193 C3192 1.400 . S
C3193 C3194 1.398 . S
C3194 H3182 0.950 . S
C3194 C3193 1.398 . S
C3194 C3195 1.391 . S
C3195 H3183 0.950 . S
C3195 C3191 1.393 . S
C3195 C3194 1.391 . S
H3196 C3204 0.950 . S
H3197 C3209 0.950 . S
H3198 C3206 0.950 . S
H3199 C3208 0.950 . S
H3200 C3210 0.950 . S
H3201 C3212 0.950 . S
H3202 C3214 0.950 . S
H3203 C3215 0.950 . S
C3204 H3196 0.950 . S
C3204 C3205 1.386 . S
C3204 C3206 1.391 . S
C3205 C3204 1.386 . S
C3205 C3209 1.393 . S
C3206 H3198 0.950 . S
C3206 C3204 1.391 . S
C3206 C3207 1.400 . S
C3207 C3206 1.400 . S
C3207 C3208 1.398 . S
C3207 C3213 1.491 . S
C3208 H3199 0.950 . S
C3208 C3207 1.398 . S
C3208 C3209 1.391 . S
C3209 H3197 0.950 . S
C3209 C3205 1.393 . S
C3209 C3208 1.391 . S
C3210 H3200 0.950 . S
C3210 C3211 1.386 . S
C3210 C3212 1.391 . S
C3211 C3210 1.386 . S
C3211 C3215 1.393 . S
C3212 H3201 0.950 . S
C3212 C3210 1.391 . S
C3212 C3213 1.400 . S
C3213 C3207 1.491 . S
C3213 C3212 1.400 . S
C3213 C3214 1.398 . S
C3214 H3202 0.950 . S
C3214 C3213 1.398 . S
C3214 C3215 1.391 . S
C3215 H3203 0.950 . S
C3215 C3211 1.393 . S
C3215 C3214 1.391 . S
H3216 C3224 0.950 . S
H3217 C3229 0.950 . S
H3218 C3226 0.950 . S
H3219 C3228 0.950 . S
H3220 C3230 0.950 . S
H3221 C3232 0.950 . S
H3222 C3234 0.950 . S
H3223 C3235 0.950 . S
C3224 H3216 0.950 . S
C3224 C3225 1.386 . S
C3224 C3226 1.391 . S
C3225 C3224 1.386 . S
C3225 C3229 1.393 . S
C3226 H3218 0.950 . S
C3226 C3224 1.391 . S
C3226 C3227 1.400 . S
C3227 C3226 1.400 . S
C3227 C3228 1.398 . S
C3227 C3233 1.491 . S
C3228 H3219 0.950 . S
C3228 C3227 1.398 . S
C3228 C3229 1.391 . S
C3229 H3217 0.950 . S
C3229 C3225 1.393 . S
C3229 C3228 1.391 . S
C3230 H3220 0.950 . S
C3230 C3231 1.386 . S
C3230 C3232 1.391 . S
C3231 C3230 1.386 . S
C3231 C3235 1.393 . S
C3232 H3221 0.950 . S
C3232 C3230 1.391 . S
C3232 C3233 1.400 . S
C3233 C3227 1.491 . S
C3233 C3232 1.400 . S
C3233 C3234 1.398 . S
C3234 H3222 0.950 . S
C3234 C3233 1.398 . S
C3234 C3235 1.391 . S
C3235 H3223 0.950 . S
C3235 C3231 1.393 . S
C3235 C3234 1.391 . S
H3236 C3244 0.950 . S
H3237 C3249 0.950 . S
H3238 C3246 0.950 . S
H3239 C3248 0.950 . S
H3240 C3250 0.950 . S
H3241 C3252 0.950 . S
H3242 C3254 0.950 . S
H3243 C3255 0.950 . S
C3244 H3236 0.950 . S
C3244 C3245 1.386 . S
C3244 C3246 1.391 . S
C3245 C3244 1.386 . S
C3245 C3249 1.393 . S
C3246 H3238 0.950 . S
C3246 C3244 1.391 . S
C3246 C3247 1.400 . S
C3247 C3246 1.400 . S
C3247 C3248 1.398 . S
C3247 C3253 1.491 . S
C3248 H3239 0.950 . S
C3248 C3247 1.398 . S
C3248 C3249 1.391 . S
C3249 H3237 0.950 . S
C3249 C3245 1.393 . S
C3249 C3248 1.391 . S
C3250 H3240 0.950 . S
C3250 C3251 1.386 . S
C3250 C3252 1.391 . S
C3251 C3250 1.386 . S
C3251 C3255 1.393 . S
C3252 H3241 0.950 . S
C3252 C3250 1.391 . S
C3252 C3253 1.400 . S
C3253 C3247 1.491 . S
C3253 C3252 1.400 . S
C3253 C3254 1.398 . S
C3254 H3242 0.950 . S
C3254 C3253 1.398 . S
C3254 C3255 1.391 . S
C3255 H3243 0.950 . S
C3255 C3251 1.393 . S
C3255 C3254 1.391 . S
H3256 C3264 0.950 . S
H3257 C3269 0.950 . S
H3258 C3266 0.950 . S
H3259 C3268 0.950 . S
H3260 C3270 0.950 . S
H3261 C3272 0.950 . S
H3262 C3274 0.950 . S
H3263 C3275 0.950 . S
C3264 H3256 0.950 . S
C3264 C3265 1.386 . S
C3264 C3266 1.391 . S
C3265 C3264 1.386 . S
C3265 C3269 1.393 . S
C3266 H3258 0.950 . S
C3266 C3264 1.391 . S
C3266 C3267 1.400 . S
C3267 C3266 1.400 . S
C3267 C3268 1.398 . S
C3267 C3273 1.491 . S
C3268 H3259 0.950 . S
C3268 C3267 1.398 . S
C3268 C3269 1.391 . S
C3269 H3257 0.950 . S
C3269 C3265 1.393 . S
C3269 C3268 1.391 . S
C3270 H3260 0.950 . S
C3270 C3271 1.386 . S
C3270 C3272 1.391 . S
C3271 C3270 1.386 . S
C3271 C3275 1.393 . S
C3272 H3261 0.950 . S
C3272 C3270 1.391 . S
C3272 C3273 1.400 . S
C3273 C3267 1.491 . S
C3273 C3272 1.400 . S
C3273 C3274 1.398 . S
C3274 H3262 0.950 . S
C3274 C3273 1.398 . S
C3274 C3275 1.391 . S
C3275 H3263 0.950 . S
C3275 C3271 1.393 . S
C3275 C3274 1.391 . S
H3276 C3284 0.950 . S
H3277 C3289 0.950 . S
H3278 C3286 0.950 . S
H3279 C3288 0.950 . S
H3280 C3290 0.950 . S
H3281 C3292 0.950 . S
H3282 C3294 0.950 . S
H3283 C3295 0.950 . S
C3284 H3276 0.950 . S
C3284 C3285 1.386 . S
C3284 C3286 1.391 . S
C3285 C3284 1.386 . S
C3285 C3289 1.393 . S
C3286 H3278 0.950 . S
C3286 C3284 1.391 . S
C3286 C3287 1.400 . S
C3287 C3286 1.400 . S
C3287 C3288 1.398 . S
C3287 C3293 1.491 . S
C3288 H3279 0.950 . S
C3288 C3287 1.398 . S
C3288 C3289 1.391 . S
C3289 H3277 0.950 . S
C3289 C3285 1.393 . S
C3289 C3288 1.391 . S
C3290 H3280 0.950 . S
C3290 C3291 1.386 . S
C3290 C3292 1.391 . S
C3291 C3290 1.386 . S
C3291 C3295 1.393 . S
C3292 H3281 0.950 . S
C3292 C3290 1.391 . S
C3292 C3293 1.400 . S
C3293 C3287 1.491 . S
C3293 C3292 1.400 . S
C3293 C3294 1.398 . S
C3294 H3282 0.950 . S
C3294 C3293 1.398 . S
C3294 C3295 1.391 . S
C3295 H3283 0.950 . S
C3295 C3291 1.393 . S
C3295 C3294 1.391 . S
H3296 C3304 0.950 . S
H3297 C3309 0.950 . S
H3298 C3306 0.950 . S
H3299 C3308 0.950 . S
H3300 C3310 0.950 . S
H3301 C3312 0.950 . S
H3302 C3314 0.950 . S
H3303 C3315 0.950 . S
C3304 H3296 0.950 . S
C3304 C3305 1.386 . S
C3304 C3306 1.391 . S
C3305 C3304 1.386 . S
C3305 C3309 1.393 . S
C3306 H3298 0.950 . S
C3306 C3304 1.391 . S
C3306 C3307 1.400 . S
C3307 C3306 1.400 . S
C3307 C3308 1.398 . S
C3307 C3313 1.491 . S
C3308 H3299 0.950 . S
C3308 C3307 1.398 . S
C3308 C3309 1.391 . S
C3309 H3297 0.950 . S
C3309 C3305 1.393 . S
C3309 C3308 1.391 . S
C3310 H3300 0.950 . S
C3310 C3311 1.386 . S
C3310 C3312 1.391 . S
C3311 C3310 1.386 . S
C3311 C3315 1.393 . S
C3312 H3301 0.950 . S
C3312 C3310 1.391 . S
C3312 C3313 1.400 . S
C3313 C3307 1.491 . S
C3313 C3312 1.400 . S
C3313 C3314 1.398 . S
C3314 H3302 0.950 . S
C3314 C3313 1.398 . S
C3314 C3315 1.391 . S
C3315 H3303 0.950 . S
C3315 C3311 1.393 . S
C3315 C3314 1.391 . S
H3316 C3324 0.950 . S
H3317 C3329 0.950 . S
H3318 C3326 0.950 . S
H3319 C3328 0.950 . S
H3320 C3330 0.950 . S
H3321 C3332 0.950 . S
H3322 C3334 0.950 . S
H3323 C3335 0.950 . S
C3324 H3316 0.950 . S
C3324 C3325 1.386 . S
C3324 C3326 1.391 . S
C3325 C3324 1.386 . S
C3325 C3329 1.393 . S
C3326 H3318 0.950 . S
C3326 C3324 1.391 . S
C3326 C3327 1.400 . S
C3327 C3326 1.400 . S
C3327 C3328 1.398 . S
C3327 C3333 1.491 . S
C3328 H3319 0.950 . S
C3328 C3327 1.398 . S
C3328 C3329 1.391 . S
C3329 H3317 0.950 . S
C3329 C3325 1.393 . S
C3329 C3328 1.391 . S
C3330 H3320 0.950 . S
C3330 C3331 1.386 . S
C3330 C3332 1.391 . S
C3331 C3330 1.386 . S
C3331 C3335 1.393 . S
C3332 H3321 0.950 . S
C3332 C3330 1.391 . S
C3332 C3333 1.400 . S
C3333 C3327 1.491 . S
C3333 C3332 1.400 . S
C3333 C3334 1.398 . S
C3334 H3322 0.950 . S
C3334 C3333 1.398 . S
C3334 C3335 1.391 . S
C3335 H3323 0.950 . S
C3335 C3331 1.393 . S
C3335 C3334 1.391 . S
H3336 C3344 0.950 . S
H3337 C3349 0.950 . S
H3338 C3346 0.950 . S
H3339 C3348 0.950 . S
H3340 C3350 0.950 . S
H3341 C3352 0.950 . S
H3342 C3354 0.950 . S
H3343 C3355 0.950 . S
C3344 H3336 0.950 . S
C3344 C3345 1.386 . S
C3344 C3346 1.391 . S
C3345 C3344 1.386 . S
C3345 C3349 1.393 . S
C3346 H3338 0.950 . S
C3346 C3344 1.391 . S
C3346 C3347 1.400 . S
C3347 C3346 1.400 . S
C3347 C3348 1.398 . S
C3347 C3353 1.491 . S
C3348 H3339 0.950 . S
C3348 C3347 1.398 . S
C3348 C3349 1.391 . S
C3349 H3337 0.950 . S
C3349 C3345 1.393 . S
C3349 C3348 1.391 . S
C3350 H3340 0.950 . S
C3350 C3351 1.386 . S
C3350 C3352 1.391 . S
C3351 C3350 1.386 . S
C3351 C3355 1.393 . S
C3352 H3341 0.950 . S
C3352 C3350 1.391 . S
C3352 C3353 1.400 . S
C3353 C3347 1.491 . S
C3353 C3352 1.400 . S
C3353 C3354 1.398 . S
C3354 H3342 0.950 . S
C3354 C3353 1.398 . S
C3354 C3355 1.391 . S
C3355 H3343 0.950 . S
C3355 C3351 1.393 . S
C3355 C3354 1.391 . S
H3356 C3364 0.950 . S
H3357 C3369 0.950 . S
H3358 C3366 0.950 . S
H3359 C3368 0.950 . S
H3360 C3370 0.950 . S
H3361 C3372 0.950 . S
H3362 C3374 0.950 . S
H3363 C3375 0.950 . S
C3364 H3356 0.950 . S
C3364 C3365 1.386 . S
C3364 C3366 1.391 . S
C3365 C3364 1.386 . S
C3365 C3369 1.393 . S
C3366 H3358 0.950 . S
C3366 C3364 1.391 . S
C3366 C3367 1.400 . S
C3367 C3366 1.400 . S
C3367 C3368 1.398 . S
C3367 C3373 1.491 . S
C3368 H3359 0.950 . S
C3368 C3367 1.398 . S
C3368 C3369 1.391 . S
C3369 H3357 0.950 . S
C3369 C3365 1.393 . S
C3369 C3368 1.391 . S
C3370 H3360 0.950 . S
C3370 C3371 1.386 . S
C3370 C3372 1.391 . S
C3371 C3370 1.386 . S
C3371 C3375 1.393 . S
C3372 H3361 0.950 . S
C3372 C3370 1.391 . S
C3372 C3373 1.400 . S
C3373 C3367 1.491 . S
C3373 C3372 1.400 . S
C3373 C3374 1.398 . S
C3374 H3362 0.950 . S
C3374 C3373 1.398 . S
C3374 C3375 1.391 . S
C3375 H3363 0.950 . S
C3375 C3371 1.393 . S
C3375 C3374 1.391 . S
H3376 C3384 0.950 . S
H3377 C3389 0.950 . S
H3378 C3386 0.950 . S
H3379 C3388 0.950 . S
H3380 C3390 0.950 . S
H3381 C3392 0.950 . S
H3382 C3394 0.950 . S
H3383 C3395 0.950 . S
C3384 H3376 0.950 . S
C3384 C3385 1.386 . S
C3384 C3386 1.391 . S
C3385 C3384 1.386 . S
C3385 C3389 1.393 . S
C3386 H3378 0.950 . S
C3386 C3384 1.391 . S
C3386 C3387 1.400 . S
C3387 C3386 1.400 . S
C3387 C3388 1.398 . S
C3387 C3393 1.491 . S
C3388 H3379 0.950 . S
C3388 C3387 1.398 . S
C3388 C3389 1.391 . S
C3389 H3377 0.950 . S
C3389 C3385 1.393 . S
C3389 C3388 1.391 . S
C3390 H3380 0.950 . S
C3390 C3391 1.386 . S
C3390 C3392 1.391 . S
C3391 C3390 1.386 . S
C3391 C3395 1.393 . S
C3392 H3381 0.950 . S
C3392 C3390 1.391 . S
C3392 C3393 1.400 . S
C3393 C3387 1.491 . S
C3393 C3392 1.400 . S
C3393 C3394 1.398 . S
C3394 H3382 0.950 . S
C3394 C3393 1.398 . S
C3394 C3395 1.391 . S
C3395 H3383 0.950 . S
C3395 C3391 1.393 . S
C3395 C3394 1.391 . S
H3396 C3404 0.950 . S
H3397 C3409 0.950 . S
H3398 C3406 0.950 . S
H3399 C3408 0.950 . S
H3400 C3410 0.950 . S
H3401 C3412 0.950 . S
H3402 C3414 0.950 . S
H3403 C3415 0.950 . S
C3404 H3396 0.950 . S
C3404 C3405 1.386 . S
C3404 C3406 1.391 . S
C3405 C3404 1.386 . S
C3405 C3409 1.393 . S
C3406 H3398 0.950 . S
C3406 C3404 1.391 . S
C3406 C3407 1.400 . S
C3407 C3406 1.400 . S
C3407 C3408 1.398 . S
C3407 C3413 1.491 . S
C3408 H3399 0.950 . S
C3408 C3407 1.398 . S
C3408 C3409 1.391 . S
C3409 H3397 0.950 . S
C3409 C3405 1.393 . S
C3409 C3408 1.391 . S
C3410 H3400 0.950 . S
C3410 C3411 1.386 . S
C3410 C3412 1.391 . S
C3411 C3410 1.386 . S
C3411 C3415 1.393 . S
C3412 H3401 0.950 . S
C3412 C3410 1.391 . S
C3412 C3413 1.400 . S
C3413 C3407 1.491 . S
C3413 C3412 1.400 . S
C3413 C3414 1.398 . S
C3414 H3402 0.950 . S
C3414 C3413 1.398 . S
C3414 C3415 1.391 . S
C3415 H3403 0.950 . S
C3415 C3411 1.393 . S
C3415 C3414 1.391 . S
H3416 C3424 0.950 . S
H3417 C3429 0.950 . S
H3418 C3426 0.950 . S
H3419 C3428 0.950 . S
H3420 C3430 0.950 . S
H3421 C3432 0.950 . S
H3422 C3434 0.950 . S
H3423 C3435 0.950 . S
C3424 H3416 0.950 . S
C3424 C3425 1.386 . S
C3424 C3426 1.391 . S
C3425 C3424 1.386 . S
C3425 C3429 1.393 . S
C3426 H3418 0.950 . S
C3426 C3424 1.391 . S
C3426 C3427 1.400 . S
C3427 C3426 1.400 . S
C3427 C3428 1.398 . S
C3427 C3433 1.491 . S
C3428 H3419 0.950 . S
C3428 C3427 1.398 . S
C3428 C3429 1.391 . S
C3429 H3417 0.950 . S
C3429 C3425 1.393 . S
C3429 C3428 1.391 . S
C3430 H3420 0.950 . S
C3430 C3431 1.386 . S
C3430 C3432 1.391 . S
C3431 C3430 1.386 . S
C3431 C3435 1.393 . S
C3432 H3421 0.950 . S
C3432 C3430 1.391 . S
C3432 C3433 1.400 . S
C3433 C3427 1.491 . S
C3433 C3432 1.400 . S
C3433 C3434 1.398 . S
C3434 H3422 0.950 . S
C3434 C3433 1.398 . S
C3434 C3435 1.391 . S
C3435 H3423 0.950 . S
C3435 C3431 1.393 . S
C3435 C3434 1.391 . S
H3436 C3444 0.950 . S
H3437 C3449 0.950 . S
H3438 C3446 0.950 . S
H3439 C3448 0.950 . S
H3440 C3450 0.950 . S
H3441 C3452 0.950 . S
H3442 C3454 0.950 . S
H3443 C3455 0.950 . S
C3444 H3436 0.950 . S
C3444 C3445 1.386 . S
C3444 C3446 1.391 . S
C3445 C3444 1.386 . S
C3445 C3449 1.393 . S
C3446 H3438 0.950 . S
C3446 C3444 1.391 . S
C3446 C3447 1.400 . S
C3447 C3446 1.400 . S
C3447 C3448 1.398 . S
C3447 C3453 1.491 . S
C3448 H3439 0.950 . S
C3448 C3447 1.398 . S
C3448 C3449 1.391 . S
C3449 H3437 0.950 . S
C3449 C3445 1.393 . S
C3449 C3448 1.391 . S
C3450 H3440 0.950 . S
C3450 C3451 1.386 . S
C3450 C3452 1.391 . S
C3451 C3450 1.386 . S
C3451 C3455 1.393 . S
C3452 H3441 0.950 . S
C3452 C3450 1.391 . S
C3452 C3453 1.400 . S
C3453 C3447 1.491 . S
C3453 C3452 1.400 . S
C3453 C3454 1.398 . S
C3454 H3442 0.950 . S
C3454 C3453 1.398 . S
C3454 C3455 1.391 . S
C3455 H3443 0.950 . S
C3455 C3451 1.393 . S
C3455 C3454 1.391 . S
H3456 C3464 0.950 . S
H3457 C3469 0.950 . S
H3458 C3466 0.950 . S
H3459 C3468 0.950 . S
H3460 C3470 0.950 . S
H3461 C3472 0.950 . S
H3462 C3474 0.950 . S
H3463 C3475 0.950 . S
C3464 H3456 0.950 . S
C3464 C3465 1.386 . S
C3464 C3466 1.391 . S
C3465 C3464 1.386 . S
C3465 C3469 1.393 . S
C3466 H3458 0.950 . S
C3466 C3464 1.391 . S
C3466 C3467 1.400 . S
C3467 C3466 1.400 . S
C3467 C3468 1.398 . S
C3467 C3473 1.491 . S
C3468 H3459 0.950 . S
C3468 C3467 1.398 . S
C3468 C3469 1.391 . S
C3469 H3457 0.950 . S
C3469 C3465 1.393 . S
C3469 C3468 1.391 . S
C3470 H3460 0.950 . S
C3470 C3471 1.386 . S
C3470 C3472 1.391 . S
C3471 C3470 1.386 . S
C3471 C3475 1.393 . S
C3472 H3461 0.950 . S
C3472 C3470 1.391 . S
C3472 C3473 1.400 . S
C3473 C3467 1.491 . S
C3473 C3472 1.400 . S
C3473 C3474 1.398 . S
C3474 H3462 0.950 . S
C3474 C3473 1.398 . S
C3474 C3475 1.391 . S
C3475 H3463 0.950 . S
C3475 C3471 1.393 . S
C3475 C3474 1.391 . S
H3476 C3484 0.950 . S
H3477 C3489 0.950 . S
H3478 C3486 0.950 . S
H3479 C3488 0.950 . S
H3480 C3490 0.950 . S
H3481 C3492 0.950 . S
H3482 C3494 0.950 . S
H3483 C3495 0.950 . S
C3484 H3476 0.950 . S
C3484 C3485 1.386 . S
C3484 C3486 1.391 . S
C3485 C3484 1.386 . S
C3485 C3489 1.393 . S
C3486 H3478 0.950 . S
C3486 C3484 1.391 . S
C3486 C3487 1.400 . S
C3487 C3486 1.400 . S
C3487 C3488 1.398 . S
C3487 C3493 1.491 . S
C3488 H3479 0.950 . S
C3488 C3487 1.398 . S
C3488 C3489 1.391 . S
C3489 H3477 0.950 . S
C3489 C3485 1.393 . S
C3489 C3488 1.391 . S
C3490 H3480 0.950 . S
C3490 C3491 1.386 . S
C3490 C3492 1.391 . S
C3491 C3490 1.386 . S
C3491 C3495 1.393 . S
C3492 H3481 0.950 . S
C3492 C3490 1.391 . S
C3492 C3493 1.400 . S
C3493 C3487 1.491 . S
C3493 C3492 1.400 . S
C3493 C3494 1.398 . S
C3494 H3482 0.950 . S
C3494 C3493 1.398 . S
C3494 C3495 1.391 . S
C3495 H3483 0.950 . S
C3495 C3491 1.393 . S
C3495 C3494 1.391 . S
H3496 C3504 0.950 . S
H3497 C3509 0.950 . S
H3498 C3506 0.950 . S
H3499 C3508 0.950 . S
H3500 C3510 0.950 . S
H3501 C3512 0.950 . S
H3502 C3514 0.950 . S
H3503 C3515 0.950 . S
C3504 H3496 0.950 . S
C3504 C3505 1.386 . S
C3504 C3506 1.391 . S
C3505 C3504 1.386 . S
C3505 C3509 1.393 . S
C3506 H3498 0.950 . S
C3506 C3504 1.391 . S
C3506 C3507 1.400 . S
C3507 C3506 1.400 . S
C3507 C3508 1.398 . S
C3507 C3513 1.491 . S
C3508 H3499 0.950 . S
C3508 C3507 1.398 . S
C3508 C3509 1.391 . S
C3509 H3497 0.950 . S
C3509 C3505 1.393 . S
C3509 C3508 1.391 . S
C3510 H3500 0.950 . S
C3510 C3511 1.386 . S
C3510 C3512 1.391 . S
C3511 C3510 1.386 . S
C3511 C3515 1.393 . S
C3512 H3501 0.950 . S
C3512 C3510 1.391 . S
C3512 C3513 1.400 . S
C3513 C3507 1.491 . S
C3513 C3512 1.400 . S
C3513 C3514 1.398 . S
C3514 H3502 0.950 . S
C3514 C3513 1.398 . S
C3514 C3515 1.391 . S
C3515 H3503 0.950 . S
C3515 C3511 1.393 . S
C3515 C3514 1.391 . S
H3516 C3524 0.950 . S
H3517 C3529 0.950 . S
H3518 C3526 0.950 . S
H3519 C3528 0.950 . S
H3520 C3530 0.950 . S
H3521 C3532 0.950 . S
H3522 C3534 0.950 . S
H3523 C3535 0.950 . S
C3524 H3516 0.950 . S
C3524 C3525 1.386 . S
C3524 C3526 1.391 . S
C3525 C3524 1.386 . S
C3525 C3529 1.393 . S
C3526 H3518 0.950 . S
C3526 C3524 1.391 . S
C3526 C3527 1.400 . S
C3527 C3526 1.400 . S
C3527 C3528 1.398 . S
C3527 C3533 1.491 . S
C3528 H3519 0.950 . S
C3528 C3527 1.398 . S
C3528 C3529 1.391 . S
C3529 H3517 0.950 . S
C3529 C3525 1.393 . S
C3529 C3528 1.391 . S
C3530 H3520 0.950 . S
C3530 C3531 1.386 . S
C3530 C3532 1.391 . S
C3531 C3530 1.386 . S
C3531 C3535 1.393 . S
C3532 H3521 0.950 . S
C3532 C3530 1.391 . S
C3532 C3533 1.400 . S
C3533 C3527 1.491 . S
C3533 C3532 1.400 . S
C3533 C3534 1.398 . S
C3534 H3522 0.950 . S
C3534 C3533 1.398 . S
C3534 C3535 1.391 . S
C3535 H3523 0.950 . S
C3535 C3531 1.393 . S
C3535 C3534 1.391 . S
H3536 C3544 0.950 . S
H3537 C3549 0.950 . S
H3538 C3546 0.950 . S
H3539 C3548 0.950 . S
H3540 C3550 0.950 . S
H3541 C3552 0.950 . S
H3542 C3554 0.950 . S
H3543 C3555 0.950 . S
C3544 H3536 0.950 . S
C3544 C3545 1.386 . S
C3544 C3546 1.391 . S
C3545 C3544 1.386 . S
C3545 C3549 1.393 . S
C3546 H3538 0.950 . S
C3546 C3544 1.391 . S
C3546 C3547 1.400 . S
C3547 C3546 1.400 . S
C3547 C3548 1.398 . S
C3547 C3553 1.491 . S
C3548 H3539 0.950 . S
C3548 C3547 1.398 . S
C3548 C3549 1.391 . S
C3549 H3537 0.950 . S
C3549 C3545 1.393 . S
C3549 C3548 1.391 . S
C3550 H3540 0.950 . S
C3550 C3551 1.386 . S
C3550 C3552 1.391 . S
C3551 C3550 1.386 . S
C3551 C3555 1.393 . S
C3552 H3541 0.950 . S
C3552 C3550 1.391 . S
C3552 C3553 1.400 . S
C3553 C3547 1.491 . S
C3553 C3552 1.400 . S
C3553 C3554 1.398 . S
C3554 H3542 0.950 . S
C3554 C3553 1.398 . S
C3554 C3555 1.391 . S
C3555 H3543 0.950 . S
C3555 C3551 1.393 . S
C3555 C3554 1.391 . S
H3556 C3564 0.950 . S
H3557 C3569 0.950 . S
H3558 C3566 0.950 . S
H3559 C3568 0.950 . S
H3560 C3570 0.950 . S
H3561 C3572 0.950 . S
H3562 C3574 0.950 . S
H3563 C3575 0.950 . S
C3564 H3556 0.950 . S
C3564 C3565 1.386 . S
C3564 C3566 1.391 . S
C3565 C3564 1.386 . S
C3565 C3569 1.393 . S
C3566 H3558 0.950 . S
C3566 C3564 1.391 . S
C3566 C3567 1.400 . S
C3567 C3566 1.400 . S
C3567 C3568 1.398 . S
C3567 C3573 1.491 . S
C3568 H3559 0.950 . S
C3568 C3567 1.398 . S
C3568 C3569 1.391 . S
C3569 H3557 0.950 . S
C3569 C3565 1.393 . S
C3569 C3568 1.391 . S
C3570 H3560 0.950 . S
C3570 C3571 1.386 . S
C3570 C3572 1.391 . S
C3571 C3570 1.386 . S
C3571 C3575 1.393 . S
C3572 H3561 0.950 . S
C3572 C3570 1.391 . S
C3572 C3573 1.400 . S
C3573 C3567 1.491 . S
C3573 C3572 1.400 . S
C3573 C3574 1.398 . S
C3574 H3562 0.950 . S
C3574 C3573 1.398 . S
C3574 C3575 1.391 . S
C3575 H3563 0.950 . S
C3575 C3571 1.393 . S
C3575 C3574 1.391 . S
H3576 C3584 0.950 . S
H3577 C3589 0.950 . S
H3578 C3586 0.950 . S
H3579 C3588 0.950 . S
H3580 C3590 0.950 . S
H3581 C3592 0.950 . S
H3582 C3594 0.950 . S
H3583 C3595 0.950 . S
C3584 H3576 0.950 . S
C3584 C3585 1.386 . S
C3584 C3586 1.391 . S
C3585 C3584 1.386 . S
C3585 C3589 1.393 . S
C3586 H3578 0.950 . S
C3586 C3584 1.391 . S
C3586 C3587 1.400 . S
C3587 C3586 1.400 . S
C3587 C3588 1.398 . S
C3587 C3593 1.491 . S
C3588 H3579 0.950 . S
C3588 C3587 1.398 . S
C3588 C3589 1.391 . S
C3589 H3577 0.950 . S
C3589 C3585 1.393 . S
C3589 C3588 1.391 . S
C3590 H3580 0.950 . S
C3590 C3591 1.386 . S
C3590 C3592 1.391 . S
C3591 C3590 1.386 . S
C3591 C3595 1.393 . S
C3592 H3581 0.950 . S
C3592 C3590 1.391 . S
C3592 C3593 1.400 . S
C3593 C3587 1.491 . S
C3593 C3592 1.400 . S
C3593 C3594 1.398 . S
C3594 H3582 0.950 . S
C3594 C3593 1.398 . S
C3594 C3595 1.391 . S
C3595 H3583 0.950 . S
C3595 C3591 1.393 . S
C3595 C3594 1.391 . S
H3596 C3604 0.950 . S
H3597 C3609 0.950 . S
H3598 C3606 0.950 . S
H3599 C3608 0.950 . S
H3600 C3610 0.950 . S
H3601 C3612 0.950 . S
H3602 C3614 0.950 . S
H3603 C3615 0.950 . S
C3604 H3596 0.950 . S
C3604 C3605 1.386 . S
C3604 C3606 1.391 . S
C3605 C3604 1.386 . S
C3605 C3609 1.393 . S
C3606 H3598 0.950 . S
C3606 C3604 1.391 . S
C3606 C3607 1.400 . S
C3607 C3606 1.400 . S
C3607 C3608 1.398 . S
C3607 C3613 1.491 . S
C3608 H3599 0.950 . S
C3608 C3607 1.398 . S
C3608 C3609 1.391 . S
C3609 H3597 0.950 . S
C3609 C3605 1.393 . S
C3609 C3608 1.391 . S
C3610 H3600 0.950 . S
C3610 C3611 1.386 . S
C3610 C3612 1.391 . S
C3611 C3610 1.386 . S
C3611 C3615 1.393 . S
C3612 H3601 0.950 . S
C3612 C3610 1.391 . S
C3612 C3613 1.400 . S
C3613 C3607 1.491 . S
C3613 C3612 1.400 . S
C3613 C3614 1.398 . S
C3614 H3602 0.950 . S
C3614 C3613 1.398 . S
C3614 C3615 1.391 . S
C3615 H3603 0.950 . S
C3615 C3611 1.393 . S
C3615 C3614 1.391 . S
H3616 C3624 0.950 . S
H3617 C3629 0.950 . S
H3618 C3626 0.950 . S
H3619 C3628 0.950 . S
H3620 C3630 0.950 . S
H3621 C3632 0.950 . S
H3622 C3634 0.950 . S
H3623 C3635 0.950 . S
C3624 H3616 0.950 . S
C3624 C3625 1.386 . S
C3624 C3626 1.391 . S
C3625 C3624 1.386 . S
C3625 C3629 1.393 . S
C3626 H3618 0.950 . S
C3626 C3624 1.391 . S
C3626 C3627 1.400 . S
C3627 C3626 1.400 . S
C3627 C3628 1.398 . S
C3627 C3633 1.491 . S
C3628 H3619 0.950 . S
C3628 C3627 1.398 . S
C3628 C3629 1.391 . S
C3629 H3617 0.950 . S
C3629 C3625 1.393 . S
C3629 C3628 1.391 . S
C3630 H3620 0.950 . S
C3630 C3631 1.386 . S
C3630 C3632 1.391 . S
C3631 C3630 1.386 . S
C3631 C3635 1.393 . S
C3632 H3621 0.950 . S
C3632 C3630 1.391 . S
C3632 C3633 1.400 . S
C3633 C3627 1.491 . S
C3633 C3632 1.400 . S
C3633 C3634 1.398 . S
C3634 H3622 0.950 . S
C3634 C3633 1.398 . S
C3634 C3635 1.391 . S
C3635 H3623 0.950 . S
C3635 C3631 1.393 . S
C3635 C3634 1.391 . S
H3636 C3644 0.950 . S
H3637 C3649 0.950 . S
H3638 C3646 0.950 . S
H3639 C3648 0.950 . S
H3640 C3650 0.950 . S
H3641 C3652 0.950 . S
H3642 C3654 0.950 . S
H3643 C3655 0.950 . S
C3644 H3636 0.950 . S
C3644 C3645 1.386 . S
C3644 C3646 1.391 . S
C3645 C3644 1.386 . S
C3645 C3649 1.393 . S
C3646 H3638 0.950 . S
C3646 C3644 1.391 . S
C3646 C3647 1.400 . S
C3647 C3646 1.400 . S
C3647 C3648 1.398 . S
C3647 C3653 1.491 . S
C3648 H3639 0.950 . S
C3648 C3647 1.398 . S
C3648 C3649 1.391 . S
C3649 H3637 0.950 . S
C3649 C3645 1.393 . S
C3649 C3648 1.391 . S
C3650 H3640 0.950 . S
C3650 C3651 1.386 . S
C3650 C3652 1.391 . S
C3651 C3650 1.386 . S
C3651 C3655 1.393 . S
C3652 H3641 0.950 . S
C3652 C3650 1.391 . S
C3652 C3653 1.400 . S
C3653 C3647 1.491 . S
C3653 C3652 1.400 . S
C3653 C3654 1.398 . S
C3654 H3642 0.950 . S
C3654 C3653 1.398 . S
C3654 C3655 1.391 . S
C3655 H3643 0.950 . S
C3655 C3651 1.393 . S
C3655 C3654 1.391 . S
H3656 C3664 0.950 . S
H3657 C3669 0.950 . S
H3658 C3666 0.950 . S
H3659 C3668 0.950 . S
H3660 C3670 0.950 . S
H3661 C3672 0.950 . S
H3662 C3674 0.950 . S
H3663 C3675 0.950 . S
C3664 H3656 0.950 . S
C3664 C3665 1.386 . S
C3664 C3666 1.391 . S
C3665 C3664 1.386 . S
C3665 C3669 1.393 . S
C3666 H3658 0.950 . S
C3666 C3664 1.391 . S
C3666 C3667 1.400 . S
C3667 C3666 1.400 . S
C3667 C3668 1.398 . S
C3667 C3673 1.491 . S
C3668 H3659 0.950 . S
C3668 C3667 1.398 . S
C3668 C3669 1.391 . S
C3669 H3657 0.950 . S
C3669 C3665 1.393 . S
C3669 C3668 1.391 . S
C3670 H3660 0.950 . S
C3670 C3671 1.386 . S
C3670 C3672 1.391 . S
C3671 C3670 1.386 . S
C3671 C3675 1.393 . S
C3672 H3661 0.950 . S
C3672 C3670 1.391 . S
C3672 C3673 1.400 . S
C3673 C3667 1.491 . S
C3673 C3672 1.400 . S
C3673 C3674 1.398 . S
C3674 H3662 0.950 . S
C3674 C3673 1.398 . S
C3674 C3675 1.391 . S
C3675 H3663 0.950 . S
C3675 C3671 1.393 . S
C3675 C3674 1.391 . S
H3676 C3684 0.950 . S
H3677 C3689 0.950 . S
H3678 C3686 0.950 . S
H3679 C3688 0.950 . S
H3680 C3690 0.950 . S
H3681 C3692 0.950 . S
H3682 C3694 0.950 . S
H3683 C3695 0.950 . S
C3684 H3676 0.950 . S
C3684 C3685 1.386 . S
C3684 C3686 1.391 . S
C3685 C3684 1.386 . S
C3685 C3689 1.393 . S
C3686 H3678 0.950 . S
C3686 C3684 1.391 . S
C3686 C3687 1.400 . S
C3687 C3686 1.400 . S
C3687 C3688 1.398 . S
C3687 C3693 1.491 . S
C3688 H3679 0.950 . S
C3688 C3687 1.398 . S
C3688 C3689 1.391 . S
C3689 H3677 0.950 . S
C3689 C3685 1.393 . S
C3689 C3688 1.391 . S
C3690 H3680 0.950 . S
C3690 C3691 1.386 . S
C3690 C3692 1.391 . S
C3691 C3690 1.386 . S
C3691 C3695 1.393 . S
C3692 H3681 0.950 . S
C3692 C3690 1.391 . S
C3692 C3693 1.400 . S
C3693 C3687 1.491 . S
C3693 C3692 1.400 . S
C3693 C3694 1.398 . S
C3694 H3682 0.950 . S
C3694 C3693 1.398 . S
C3694 C3695 1.391 . S
C3695 H3683 0.950 . S
C3695 C3691 1.393 . S
C3695 C3694 1.391 . S
H3696 C3704 0.950 . S
H3697 C3709 0.950 . S
H3698 C3706 0.950 . S
H3699 C3708 0.950 . S
H3700 C3710 0.950 . S
H3701 C3712 0.950 . S
H3702 C3714 0.950 . S
H3703 C3715 0.950 . S
C3704 H3696 0.950 . S
C3704 C3705 1.386 . S
C3704 C3706 1.391 . S
C3705 C3704 1.386 . S
C3705 C3709 1.393 . S
C3706 H3698 0.950 . S
C3706 C3704 1.391 . S
C3706 C3707 1.400 . S
C3707 C3706 1.400 . S
C3707 C3708 1.398 . S
C3707 C3713 1.491 . S
C3708 H3699 0.950 . S
C3708 C3707 1.398 . S
C3708 C3709 1.391 . S
C3709 H3697 0.950 . S
C3709 C3705 1.393 . S
C3709 C3708 1.391 . S
C3710 H3700 0.950 . S
C3710 C3711 1.386 . S
C3710 C3712 1.391 . S
C3711 C3710 1.386 . S
C3711 C3715 1.393 . S
C3712 H3701 0.950 . S
C3712 C3710 1.391 . S
C3712 C3713 1.400 . S
C3713 C3707 1.491 . S
C3713 C3712 1.400 . S
C3713 C3714 1.398 . S
C3714 H3702 0.950 . S
C3714 C3713 1.398 . S
C3714 C3715 1.391 . S
C3715 H3703 0.950 . S
C3715 C3711 1.393 . S
C3715 C3714 1.391 . S
H3716 C3724 0.950 . S
H3717 C3729 0.950 . S
H3718 C3726 0.950 . S
H3719 C3728 0.950 . S
H3720 C3730 0.950 . S
H3721 C3732 0.950 . S
H3722 C3734 0.950 . S
H3723 C3735 0.950 . S
C3724 H3716 0.950 . S
C3724 C3725 1.386 . S
C3724 C3726 1.391 . S
C3725 C3724 1.386 . S
C3725 C3729 1.393 . S
C3726 H3718 0.950 . S
C3726 C3724 1.391 . S
C3726 C3727 1.400 . S
C3727 C3726 1.400 . S
C3727 C3728 1.398 . S
C3727 C3733 1.491 . S
C3728 H3719 0.950 . S
C3728 C3727 1.398 . S
C3728 C3729 1.391 . S
C3729 H3717 0.950 . S
C3729 C3725 1.393 . S
C3729 C3728 1.391 . S
C3730 H3720 0.950 . S
C3730 C3731 1.386 . S
C3730 C3732 1.391 . S
C3731 C3730 1.386 . S
C3731 C3735 1.393 . S
C3732 H3721 0.950 . S
C3732 C3730 1.391 . S
C3732 C3733 1.400 . S
C3733 C3727 1.491 . S
C3733 C3732 1.400 . S
C3733 C3734 1.398 . S
C3734 H3722 0.950 . S
C3734 C3733 1.398 . S
C3734 C3735 1.391 . S
C3735 H3723 0.950 . S
C3735 C3731 1.393 . S
C3735 C3734 1.391 . S
H3736 C3744 0.950 . S
H3737 C3749 0.950 . S
H3738 C3746 0.950 . S
H3739 C3748 0.950 . S
H3740 C3750 0.950 . S
H3741 C3752 0.950 . S
H3742 C3754 0.950 . S
H3743 C3755 0.950 . S
C3744 H3736 0.950 . S
C3744 C3745 1.386 . S
C3744 C3746 1.391 . S
C3745 C3744 1.386 . S
C3745 C3749 1.393 . S
C3746 H3738 0.950 . S
C3746 C3744 1.391 . S
C3746 C3747 1.400 . S
C3747 C3746 1.400 . S
C3747 C3748 1.398 . S
C3747 C3753 1.491 . S
C3748 H3739 0.950 . S
C3748 C3747 1.398 . S
C3748 C3749 1.391 . S
C3749 H3737 0.950 . S
C3749 C3745 1.393 . S
C3749 C3748 1.391 . S
C3750 H3740 0.950 . S
C3750 C3751 1.386 . S
C3750 C3752 1.391 . S
C3751 C3750 1.386 . S
C3751 C3755 1.393 . S
C3752 H3741 0.950 . S
C3752 C3750 1.391 . S
C3752 C3753 1.400 . S
C3753 C3747 1.491 . S
C3753 C3752 1.400 . S
C3753 C3754 1.398 . S
C3754 H3742 0.950 . S
C3754 C3753 1.398 . S
C3754 C3755 1.391 . S
C3755 H3743 0.950 . S
C3755 C3751 1.393 . S
C3755 C3754 1.391 . S
H3756 C3764 0.950 . S
H3757 C3769 0.950 . S
H3758 C3766 0.950 . S
H3759 C3768 0.950 . S
H3760 C3770 0.950 . S
H3761 C3772 0.950 . S
H3762 C3774 0.950 . S
H3763 C3775 0.950 . S
C3764 H3756 0.950 . S
C3764 C3765 1.386 . S
C3764 C3766 1.391 . S
C3765 C3764 1.386 . S
C3765 C3769 1.393 . S
C3766 H3758 0.950 . S
C3766 C3764 1.391 . S
C3766 C3767 1.400 . S
C3767 C3766 1.400 . S
C3767 C3768 1.398 . S
C3767 C3773 1.491 . S
C3768 H3759 0.950 . S
C3768 C3767 1.398 . S
C3768 C3769 1.391 . S
C3769 H3757 0.950 . S
C3769 C3765 1.393 . S
C3769 C3768 1.391 . S
C3770 H3760 0.950 . S
C3770 C3771 1.386 . S
C3770 C3772 1.391 . S
C3771 C3770 1.386 . S
C3771 C3775 1.393 . S
C3772 H3761 0.950 . S
C3772 C3770 1.391 . S
C3772 C3773 1.400 . S
C3773 C3767 1.491 . S
C3773 C3772 1.400 . S
C3773 C3774 1.398 . S
C3774 H3762 0.950 . S
C3774 C3773 1.398 . S
C3774 C3775 1.391 . S
C3775 H3763 0.950 . S
C3775 C3771 1.393 . S
C3775 C3774 1.391 . S
H3776 C3784 0.950 . S
H3777 C3789 0.950 . S
H3778 C3786 0.950 . S
H3779 C3788 0.950 . S
H3780 C3790 0.950 . S
H3781 C3792 0.950 . S
H3782 C3794 0.950 . S
H3783 C3795 0.950 . S
C3784 H3776 0.950 . S
C3784 C3785 1.386 . S
C3784 C3786 1.391 . S
C3785 C3784 1.386 . S
C3785 C3789 1.393 . S
C3786 H3778 0.950 . S
C3786 C3784 1.391 . S
C3786 C3787 1.400 . S
C3787 C3786 1.400 . S
C3787 C3788 1.398 . S
C3787 C3793 1.491 . S
C3788 H3779 0.950 . S
C3788 C3787 1.398 . S
C3788 C3789 1.391 . S
C3789 H3777 0.950 . S
C3789 C3785 1.393 . S
C3789 C3788 1.391 . S
C3790 H3780 0.950 . S
C3790 C3791 1.386 . S
C3790 C3792 1.391 . S
C3791 C3790 1.386 . S
C3791 C3795 1.393 . S
C3792 H3781 0.950 . S
C3792 C3790 1.391 . S
C3792 C3793 1.400 . S
C3793 C3787 1.491 . S
C3793 C3792 1.400 . S
C3793 C3794 1.398 . S
C3794 H3782 0.950 . S
C3794 C3793 1.398 . S
C3794 C3795 1.391 . S
C3795 H3783 0.950 . S
C3795 C3791 1.393 . S
C3795 C3794 1.391 . S
H3796 C3804 0.950 . S
H3797 C3809 0.950 . S
H3798 C3806 0.950 . S
H3799 C3808 0.950 . S
H3800 C3810 0.950 . S
H3801 C3812 0.950 . S
H3802 C3814 0.950 . S
H3803 C3815 0.950 . S
C3804 H3796 0.950 . S
C3804 C3805 1.386 . S
C3804 C3806 1.391 . S
C3805 C3804 1.386 . S
C3805 C3809 1.393 . S
C3806 H3798 0.950 . S
C3806 C3804 1.391 . S
C3806 C3807 1.400 . S
C3807 C3806 1.400 . S
C3807 C3808 1.398 . S
C3807 C3813 1.491 . S
C3808 H3799 0.950 . S
C3808 C3807 1.398 . S
C3808 C3809 1.391 . S
C3809 H3797 0.950 . S
C3809 C3805 1.393 . S
C3809 C3808 1.391 . S
C3810 H3800 0.950 . S
C3810 C3811 1.386 . S
C3810 C3812 1.391 . S
C3811 C3810 1.386 . S
C3811 C3815 1.393 . S
C3812 H3801 0.950 . S
C3812 C3810 1.391 . S
C3812 C3813 1.400 . S
C3813 C3807 1.491 . S
C3813 C3812 1.400 . S
C3813 C3814 1.398 . S
C3814 H3802 0.950 . S
C3814 C3813 1.398 . S
C3814 C3815 1.391 . S
C3815 H3803 0.950 . S
C3815 C3811 1.393 . S
C3815 C3814 1.391 . S
H3816 C3824 0.950 . S
H3817 C3829 0.950 . S
H3818 C3826 0.950 . S
H3819 C3828 0.950 . S
H3820 C3830 0.950 . S
H3821 C3832 0.950 . S
H3822 C3834 0.950 . S
H3823 C3835 0.950 . S
C3824 H3816 0.950 . S
C3824 C3825 1.386 . S
C3824 C3826 1.391 . S
C3825 C3824 1.386 . S
C3825 C3829 1.393 . S
C3826 H3818 0.950 . S
C3826 C3824 1.391 . S
C3826 C3827 1.400 . S
C3827 C3826 1.400 . S
C3827 C3828 1.398 . S
C3827 C3833 1.491 . S
C3828 H3819 0.950 . S
C3828 C3827 1.398 . S
C3828 C3829 1.391 . S
C3829 H3817 0.950 . S
C3829 C3825 1.393 . S
C3829 C3828 1.391 . S
C3830 H3820 0.950 . S
C3830 C3831 1.386 . S
C3830 C3832 1.391 . S
C3831 C3830 1.386 . S
C3831 C3835 1.393 . S
C3832 H3821 0.950 . S
C3832 C3830 1.391 . S
C3832 C3833 1.400 . S
C3833 C3827 1.491 . S
C3833 C3832 1.400 . S
C3833 C3834 1.398 . S
C3834 H3822 0.950 . S
C3834 C3833 1.398 . S
C3834 C3835 1.391 . S
C3835 H3823 0.950 . S
C3835 C3831 1.393 . S
C3835 C3834 1.391 . S
H3836 C3844 0.950 . S
H3837 C3849 0.950 . S
H3838 C3846 0.950 . S
H3839 C3848 0.950 . S
H3840 C3850 0.950 . S
H3841 C3852 0.950 . S
H3842 C3854 0.950 . S
H3843 C3855 0.950 . S
C3844 H3836 0.950 . S
C3844 C3845 1.386 . S
C3844 C3846 1.391 . S
C3845 C3844 1.386 . S
C3845 C3849 1.393 . S
C3846 H3838 0.950 . S
C3846 C3844 1.391 . S
C3846 C3847 1.400 . S
C3847 C3846 1.400 . S
C3847 C3848 1.398 . S
C3847 C3853 1.491 . S
C3848 H3839 0.950 . S
C3848 C3847 1.398 . S
C3848 C3849 1.391 . S
C3849 H3837 0.950 . S
C3849 C3845 1.393 . S
C3849 C3848 1.391 . S
C3850 H3840 0.950 . S
C3850 C3851 1.386 . S
C3850 C3852 1.391 . S
C3851 C3850 1.386 . S
C3851 C3855 1.393 . S
C3852 H3841 0.950 . S
C3852 C3850 1.391 . S
C3852 C3853 1.400 . S
C3853 C3847 1.491 . S
C3853 C3852 1.400 . S
C3853 C3854 1.398 . S
C3854 H3842 0.950 . S
C3854 C3853 1.398 . S
C3854 C3855 1.391 . S
C3855 H3843 0.950 . S
C3855 C3851 1.393 . S
C3855 C3854 1.391 . S
H3856 C3864 0.950 . S
H3857 C3869 0.950 . S
H3858 C3866 0.950 . S
H3859 C3868 0.950 . S
H3860 C3870 0.950 . S
H3861 C3872 0.950 . S
H3862 C3874 0.950 . S
H3863 C3875 0.950 . S
C3864 H3856 0.950 . S
C3864 C3865 1.386 . S
C3864 C3866 1.391 . S
C3865 C3864 1.386 . S
C3865 C3869 1.393 . S
C3866 H3858 0.950 . S
C3866 C3864 1.391 . S
C3866 C3867 1.400 . S
C3867 C3866 1.400 . S
C3867 C3868 1.398 . S
C3867 C3873 1.491 . S
C3868 H3859 0.950 . S
C3868 C3867 1.398 . S
C3868 C3869 1.391 . S
C3869 H3857 0.950 . S
C3869 C3865 1.393 . S
C3869 C3868 1.391 . S
C3870 H3860 0.950 . S
C3870 C3871 1.386 . S
C3870 C3872 1.391 . S
C3871 C3870 1.386 . S
C3871 C3875 1.393 . S
C3872 H3861 0.950 . S
C3872 C3870 1.391 . S
C3872 C3873 1.400 . S
C3873 C3867 1.491 . S
C3873 C3872 1.400 . S
C3873 C3874 1.398 . S
C3874 H3862 0.950 . S
C3874 C3873 1.398 . S
C3874 C3875 1.391 . S
C3875 H3863 0.950 . S
C3875 C3871 1.393 . S
C3875 C3874 1.391 . S
H3876 C3884 0.950 . S
H3877 C3889 0.950 . S
H3878 C3886 0.950 . S
H3879 C3888 0.950 . S
H3880 C3890 0.950 . S
H3881 C3892 0.950 . S
H3882 C3894 0.950 . S
H3883 C3895 0.950 . S
C3884 H3876 0.950 . S
C3884 C3885 1.386 . S
C3884 C3886 1.391 . S
C3885 C3884 1.386 . S
C3885 C3889 1.393 . S
C3886 H3878 0.950 . S
C3886 C3884 1.391 . S
C3886 C3887 1.400 . S
C3887 C3886 1.400 . S
C3887 C3888 1.398 . S
C3887 C3893 1.491 . S
C3888 H3879 0.950 . S
C3888 C3887 1.398 . S
C3888 C3889 1.391 . S
C3889 H3877 0.950 . S
C3889 C3885 1.393 . S
C3889 C3888 1.391 . S
C3890 H3880 0.950 . S
C3890 C3891 1.386 . S
C3890 C3892 1.391 . S
C3891 C3890 1.386 . S
C3891 C3895 1.393 . S
C3892 H3881 0.950 . S
C3892 C3890 1.391 . S
C3892 C3893 1.400 . S
C3893 C3887 1.491 . S
C3893 C3892 1.400 . S
C3893 C3894 1.398 . S
C3894 H3882 0.950 . S
C3894 C3893 1.398 . S
C3894 C3895 1.391 . S
C3895 H3883 0.950 . S
C3895 C3891 1.393 . S
C3895 C3894 1.391 . S
H3896 C3904 0.950 . S
H3897 C3909 0.950 . S
H3898 C3906 0.950 . S
H3899 C3908 0.950 . S
H3900 C3910 0.950 . S
H3901 C3912 0.950 . S
H3902 C3914 0.950 . S
H3903 C3915 0.950 . S
C3904 H3896 0.950 . S
C3904 C3905 1.386 . S
C3904 C3906 1.391 . S
C3905 C3904 1.386 . S
C3905 C3909 1.393 . S
C3906 H3898 0.950 . S
C3906 C3904 1.391 . S
C3906 C3907 1.400 . S
C3907 C3906 1.400 . S
C3907 C3908 1.398 . S
C3907 C3913 1.491 . S
C3908 H3899 0.950 . S
C3908 C3907 1.398 . S
C3908 C3909 1.391 . S
C3909 H3897 0.950 . S
C3909 C3905 1.393 . S
C3909 C3908 1.391 . S
C3910 H3900 0.950 . S
C3910 C3911 1.386 . S
C3910 C3912 1.391 . S
C3911 C3910 1.386 . S
C3911 C3915 1.393 . S
C3912 H3901 0.950 . S
C3912 C3910 1.391 . S
C3912 C3913 1.400 . S
C3913 C3907 1.491 . S
C3913 C3912 1.400 . S
C3913 C3914 1.398 . S
C3914 H3902 0.950 . S
C3914 C3913 1.398 . S
C3914 C3915 1.391 . S
C3915 H3903 0.950 . S
C3915 C3911 1.393 . S
C3915 C3914 1.391 . S
H3916 C3924 0.950 . S
H3917 C3929 0.950 . S
H3918 C3926 0.950 . S
H3919 C3928 0.950 . S
H3920 C3930 0.950 . S
H3921 C3932 0.950 . S
H3922 C3934 0.950 . S
H3923 C3935 0.950 . S
C3924 H3916 0.950 . S
C3924 C3925 1.386 . S
C3924 C3926 1.391 . S
C3925 C3924 1.386 . S
C3925 C3929 1.393 . S
C3926 H3918 0.950 . S
C3926 C3924 1.391 . S
C3926 C3927 1.400 . S
C3927 C3926 1.400 . S
C3927 C3928 1.398 . S
C3927 C3933 1.491 . S
C3928 H3919 0.950 . S
C3928 C3927 1.398 . S
C3928 C3929 1.391 . S
C3929 H3917 0.950 . S
C3929 C3925 1.393 . S
C3929 C3928 1.391 . S
C3930 H3920 0.950 . S
C3930 C3931 1.386 . S
C3930 C3932 1.391 . S
C3931 C3930 1.386 . S
C3931 C3935 1.393 . S
C3932 H3921 0.950 . S
C3932 C3930 1.391 . S
C3932 C3933 1.400 . S
C3933 C3927 1.491 . S
C3933 C3932 1.400 . S
C3933 C3934 1.398 . S
C3934 H3922 0.950 . S
C3934 C3933 1.398 . S
C3934 C3935 1.391 . S
C3935 H3923 0.950 . S
C3935 C3931 1.393 . S
C3935 C3934 1.391 . S
H3936 C3944 0.950 . S
H3937 C3949 0.950 . S
H3938 C3946 0.950 . S
H3939 C3948 0.950 . S
H3940 C3950 0.950 . S
H3941 C3952 0.950 . S
H3942 C3954 0.950 . S
H3943 C3955 0.950 . S
C3944 H3936 0.950 . S
C3944 C3945 1.386 . S
C3944 C3946 1.391 . S
C3945 C3944 1.386 . S
C3945 C3949 1.393 . S
C3946 H3938 0.950 . S
C3946 C3944 1.391 . S
C3946 C3947 1.400 . S
C3947 C3946 1.400 . S
C3947 C3948 1.398 . S
C3947 C3953 1.491 . S
C3948 H3939 0.950 . S
C3948 C3947 1.398 . S
C3948 C3949 1.391 . S
C3949 H3937 0.950 . S
C3949 C3945 1.393 . S
C3949 C3948 1.391 . S
C3950 H3940 0.950 . S
C3950 C3951 1.386 . S
C3950 C3952 1.391 . S
C3951 C3950 1.386 . S
C3951 C3955 1.393 . S
C3952 H3941 0.950 . S
C3952 C3950 1.391 . S
C3952 C3953 1.400 . S
C3953 C3947 1.491 . S
C3953 C3952 1.400 . S
C3953 C3954 1.398 . S
C3954 H3942 0.950 . S
C3954 C3953 1.398 . S
C3954 C3955 1.391 . S
C3955 H3943 0.950 . S
C3955 C3951 1.393 . S
C3955 C3954 1.391 . S
H3956 C3964 0.950 . S
H3957 C3969 0.950 . S
H3958 C3966 0.950 . S
H3959 C3968 0.950 . S
H3960 C3970 0.950 . S
H3961 C3972 0.950 . S
H3962 C3974 0.950 . S
H3963 C3975 0.950 . S
C3964 H3956 0.950 . S
C3964 C3965 1.386 . S
C3964 C3966 1.391 . S
C3965 C3964 1.386 . S
C3965 C3969 1.393 . S
C3966 H3958 0.950 . S
C3966 C3964 1.391 . S
C3966 C3967 1.400 . S
C3967 C3966 1.400 . S
C3967 C3968 1.398 . S
C3967 C3973 1.491 . S
C3968 H3959 0.950 . S
C3968 C3967 1.398 . S
C3968 C3969 1.391 . S
C3969 H3957 0.950 . S
C3969 C3965 1.393 . S
C3969 C3968 1.391 . S
C3970 H3960 0.950 . S
C3970 C3971 1.386 . S
C3970 C3972 1.391 . S
C3971 C3970 1.386 . S
C3971 C3975 1.393 . S
C3972 H3961 0.950 . S
C3972 C3970 1.391 . S
C3972 C3973 1.400 . S
C3973 C3967 1.491 . S
C3973 C3972 1.400 . S
C3973 C3974 1.398 . S
C3974 H3962 0.950 . S
C3974 C3973 1.398 . S
C3974 C3975 1.391 . S
C3975 H3963 0.950 . S
C3975 C3971 1.393 . S
C3975 C3974 1.391 . S
H3976 C3984 0.950 . S
H3977 C3989 0.950 . S
H3978 C3986 0.950 . S
H3979 C3988 0.950 . S
H3980 C3990 0.950 . S
H3981 C3992 0.950 . S
H3982 C3994 0.950 . S
H3983 C3995 0.950 . S
C3984 H3976 0.950 . S
C3984 C3985 1.386 . S
C3984 C3986 1.391 . S
C3985 C3984 1.386 . S
C3985 C3989 1.393 . S
C3986 H3978 0.950 . S
C3986 C3984 1.391 . S
C3986 C3987 1.400 . S
C3987 C3986 1.400 . S
C3987 C3988 1.398 . S
C3987 C3993 1.491 . S
C3988 H3979 0.950 . S
C3988 C3987 1.398 . S
C3988 C3989 1.391 . S
C3989 H3977 0.950 . S
C3989 C3985 1.393 . S
C3989 C3988 1.391 . S
C3990 H3980 0.950 . S
C3990 C3991 1.386 . S
C3990 C3992 1.391 . S
C3991 C3990 1.386 . S
C3991 C3995 1.393 . S
C3992 H3981 0.950 . S
C3992 C3990 1.391 . S
C3992 C3993 1.400 . S
C3993 C3987 1.491 . S
C3993 C3992 1.400 . S
C3993 C3994 1.398 . S
C3994 H3982 0.950 . S
C3994 C3993 1.398 . S
C3994 C3995 1.391 . S
C3995 H3983 0.950 . S
C3995 C3991 1.393 . S
C3995 C3994 1.391 . S
H3996 C4004 0.950 . S
H3997 C4009 0.950 . S
H3998 C4006 0.950 . S
H3999 C4008 0.950 . S
H4000 C4010 0.950 . S
H4001 C4012 0.950 . S
H4002 C4014 0.950 . S
H4003 C4015 0.950 . S
C4004 H3996 0.950 . S
C4004 C4005 1.386 . S
C4004 C4006 1.391 . S
C4005 C4004 1.386 . S
C4005 C4009 1.393 . S
C4006 H3998 0.950 . S
C4006 C4004 1.391 . S
C4006 C4007 1.400 . S
C4007 C4006 1.400 . S
C4007 C4008 1.398 . S
C4007 C4013 1.491 . S
C4008 H3999 0.950 . S
C4008 C4007 1.398 . S
C4008 C4009 1.391 . S
C4009 H3997 0.950 . S
C4009 C4005 1.393 . S
C4009 C4008 1.391 . S
C4010 H4000 0.950 . S
C4010 C4011 1.386 . S
C4010 C4012 1.391 . S
C4011 C4010 1.386 . S
C4011 C4015 1.393 . S
C4012 H4001 0.950 . S
C4012 C4010 1.391 . S
C4012 C4013 1.400 . S
C4013 C4007 1.491 . S
C4013 C4012 1.400 . S
C4013 C4014 1.398 . S
C4014 H4002 0.950 . S
C4014 C4013 1.398 . S
C4014 C4015 1.391 . S
C4015 H4003 0.950 . S
C4015 C4011 1.393 . S
C4015 C4014 1.391 . S
H4016 C4024 0.950 . S
H4017 C4029 0.950 . S
H4018 C4026 0.950 . S
H4019 C4028 0.950 . S
H4020 C4030 0.950 . S
H4021 C4032 0.950 . S
H4022 C4034 0.950 . S
H4023 C4035 0.950 . S
C4024 H4016 0.950 . S
C4024 C4025 1.386 . S
C4024 C4026 1.391 . S
C4025 C4024 1.386 . S
C4025 C4029 1.393 . S
C4026 H4018 0.950 . S
C4026 C4024 1.391 . S
C4026 C4027 1.400 . S
C4027 C4026 1.400 . S
C4027 C4028 1.398 . S
C4027 C4033 1.491 . S
C4028 H4019 0.950 . S
C4028 C4027 1.398 . S
C4028 C4029 1.391 . S
C4029 H4017 0.950 . S
C4029 C4025 1.393 . S
C4029 C4028 1.391 . S
C4030 H4020 0.950 . S
C4030 C4031 1.386 . S
C4030 C4032 1.391 . S
C4031 C4030 1.386 . S
C4031 C4035 1.393 . S
C4032 H4021 0.950 . S
C4032 C4030 1.391 . S
C4032 C4033 1.400 . S
C4033 C4027 1.491 . S
C4033 C4032 1.400 . S
C4033 C4034 1.398 . S
C4034 H4022 0.950 . S
C4034 C4033 1.398 . S
C4034 C4035 1.391 . S
C4035 H4023 0.950 . S
C4035 C4031 1.393 . S
C4035 C4034 1.391 . S
H4036 C4044 0.950 . S
H4037 C4049 0.950 . S
H4038 C4046 0.950 . S
H4039 C4048 0.950 . S
H4040 C4050 0.950 . S
H4041 C4052 0.950 . S
H4042 C4054 0.950 . S
H4043 C4055 0.950 . S
C4044 H4036 0.950 . S
C4044 C4045 1.386 . S
C4044 C4046 1.391 . S
C4045 C4044 1.386 . S
C4045 C4049 1.393 . S
C4046 H4038 0.950 . S
C4046 C4044 1.391 . S
C4046 C4047 1.400 . S
C4047 C4046 1.400 . S
C4047 C4048 1.398 . S
C4047 C4053 1.491 . S
C4048 H4039 0.950 . S
C4048 C4047 1.398 . S
C4048 C4049 1.391 . S
C4049 H4037 0.950 . S
C4049 C4045 1.393 . S
C4049 C4048 1.391 . S
C4050 H4040 0.950 . S
C4050 C4051 1.386 . S
C4050 C4052 1.391 . S
C4051 C4050 1.386 . S
C4051 C4055 1.393 . S
C4052 H4041 0.950 . S
C4052 C4050 1.391 . S
C4052 C4053 1.400 . S
C4053 C4047 1.491 . S
C4053 C4052 1.400 . S
C4053 C4054 1.398 . S
C4054 H4042 0.950 . S
C4054 C4053 1.398 . S
C4054 C4055 1.391 . S
C4055 H4043 0.950 . S
C4055 C4051 1.393 . S
C4055 C4054 1.391 . S
H4056 C4064 0.950 . S
H4057 C4069 0.950 . S
H4058 C4066 0.950 . S
H4059 C4068 0.950 . S
H4060 C4070 0.950 . S
H4061 C4072 0.950 . S
H4062 C4074 0.950 . S
H4063 C4075 0.950 . S
C4064 H4056 0.950 . S
C4064 C4065 1.386 . S
C4064 C4066 1.391 . S
C4065 C4064 1.386 . S
C4065 C4069 1.393 . S
C4066 H4058 0.950 . S
C4066 C4064 1.391 . S
C4066 C4067 1.400 . S
C4067 C4066 1.400 . S
C4067 C4068 1.398 . S
C4067 C4073 1.491 . S
C4068 H4059 0.950 . S
C4068 C4067 1.398 . S
C4068 C4069 1.391 . S
C4069 H4057 0.950 . S
C4069 C4065 1.393 . S
C4069 C4068 1.391 . S
C4070 H4060 0.950 . S
C4070 C4071 1.386 . S
C4070 C4072 1.391 . S
C4071 C4070 1.386 . S
C4071 C4075 1.393 . S
C4072 H4061 0.950 . S
C4072 C4070 1.391 . S
C4072 C4073 1.400 . S
C4073 C4067 1.491 . S
C4073 C4072 1.400 . S
C4073 C4074 1.398 . S
C4074 H4062 0.950 . S
C4074 C4073 1.398 . S
C4074 C4075 1.391 . S
C4075 H4063 0.950 . S
C4075 C4071 1.393 . S
C4075 C4074 1.391 . S
H4076 C4084 0.950 . S
H4077 C4089 0.950 . S
H4078 C4086 0.950 . S
H4079 C4088 0.950 . S
H4080 C4090 0.950 . S
H4081 C4092 0.950 . S
H4082 C4094 0.950 . S
H4083 C4095 0.950 . S
C4084 H4076 0.950 . S
C4084 C4085 1.386 . S
C4084 C4086 1.391 . S
C4085 C4084 1.386 . S
C4085 C4089 1.393 . S
C4086 H4078 0.950 . S
C4086 C4084 1.391 . S
C4086 C4087 1.400 . S
C4087 C4086 1.400 . S
C4087 C4088 1.398 . S
C4087 C4093 1.491 . S
C4088 H4079 0.950 . S
C4088 C4087 1.398 . S
C4088 C4089 1.391 . S
C4089 H4077 0.950 . S
C4089 C4085 1.393 . S
C4089 C4088 1.391 . S
C4090 H4080 0.950 . S
C4090 C4091 1.386 . S
C4090 C4092 1.391 . S
C4091 C4090 1.386 . S
C4091 C4095 1.393 . S
C4092 H4081 0.950 . S
C4092 C4090 1.391 . S
C4092 C4093 1.400 . S
C4093 C4087 1.491 . S
C4093 C4092 1.400 . S
C4093 C4094 1.398 . S
C4094 H4082 0.950 . S
C4094 C4093 1.398 . S
C4094 C4095 1.391 . S
C4095 H4083 0.950 . S
C4095 C4091 1.393 . S
C4095 C4094 1.391 . S
H4096 C4104 0.950 . S
H4097 C4109 0.950 . S
H4098 C4106 0.950 . S
H4099 C4108 0.950 . S
H4100 C4110 0.950 . S
H4101 C4112 0.950 . S
H4102 C4114 0.950 . S
H4103 C4115 0.950 . S
C4104 H4096 0.950 . S
C4104 C4105 1.386 . S
C4104 C4106 1.391 . S
C4105 C4104 1.386 . S
C4105 C4109 1.393 . S
C4106 H4098 0.950 . S
C4106 C4104 1.391 . S
C4106 C4107 1.400 . S
C4107 C4106 1.400 . S
C4107 C4108 1.398 . S
C4107 C4113 1.491 . S
C4108 H4099 0.950 . S
C4108 C4107 1.398 . S
C4108 C4109 1.391 . S
C4109 H4097 0.950 . S
C4109 C4105 1.393 . S
C4109 C4108 1.391 . S
C4110 H4100 0.950 . S
C4110 C4111 1.386 . S
C4110 C4112 1.391 . S
C4111 C4110 1.386 . S
C4111 C4115 1.393 . S
C4112 H4101 0.950 . S
C4112 C4110 1.391 . S
C4112 C4113 1.400 . S
C4113 C4107 1.491 . S
C4113 C4112 1.400 . S
C4113 C4114 1.398 . S
C4114 H4102 0.950 . S
C4114 C4113 1.398 . S
C4114 C4115 1.391 . S
C4115 H4103 0.950 . S
C4115 C4111 1.393 . S
C4115 C4114 1.391 . S
H4116 C4124 0.950 . S
H4117 C4129 0.950 . S
H4118 C4126 0.950 . S
H4119 C4128 0.950 . S
H4120 C4130 0.950 . S
H4121 C4132 0.950 . S
H4122 C4134 0.950 . S
H4123 C4135 0.950 . S
C4124 H4116 0.950 . S
C4124 C4125 1.386 . S
C4124 C4126 1.391 . S
C4125 C4124 1.386 . S
C4125 C4129 1.393 . S
C4126 H4118 0.950 . S
C4126 C4124 1.391 . S
C4126 C4127 1.400 . S
C4127 C4126 1.400 . S
C4127 C4128 1.398 . S
C4127 C4133 1.491 . S
C4128 H4119 0.950 . S
C4128 C4127 1.398 . S
C4128 C4129 1.391 . S
C4129 H4117 0.950 . S
C4129 C4125 1.393 . S
C4129 C4128 1.391 . S
C4130 H4120 0.950 . S
C4130 C4131 1.386 . S
C4130 C4132 1.391 . S
C4131 C4130 1.386 . S
C4131 C4135 1.393 . S
C4132 H4121 0.950 . S
C4132 C4130 1.391 . S
C4132 C4133 1.400 . S
C4133 C4127 1.491 . S
C4133 C4132 1.400 . S
C4133 C4134 1.398 . S
C4134 H4122 0.950 . S
C4134 C4133 1.398 . S
C4134 C4135 1.391 . S
C4135 H4123 0.950 . S
C4135 C4131 1.393 . S
C4135 C4134 1.391 . S
H4136 C4144 0.950 . S
H4137 C4149 0.950 . S
H4138 C4146 0.950 . S
H4139 C4148 0.950 . S
H4140 C4150 0.950 . S
H4141 C4152 0.950 . S
H4142 C4154 0.950 . S
H4143 C4155 0.950 . S
C4144 H4136 0.950 . S
C4144 C4145 1.386 . S
C4144 C4146 1.391 . S
C4145 C4144 1.386 . S
C4145 C4149 1.393 . S
C4146 H4138 0.950 . S
C4146 C4144 1.391 . S
C4146 C4147 1.400 . S
C4147 C4146 1.400 . S
C4147 C4148 1.398 . S
C4147 C4153 1.491 . S
C4148 H4139 0.950 . S
C4148 C4147 1.398 . S
C4148 C4149 1.391 . S
C4149 H4137 0.950 . S
C4149 C4145 1.393 . S
C4149 C4148 1.391 . S
C4150 H4140 0.950 . S
C4150 C4151 1.386 . S
C4150 C4152 1.391 . S
C4151 C4150 1.386 . S
C4151 C4155 1.393 . S
C4152 H4141 0.950 . S
C4152 C4150 1.391 . S
C4152 C4153 1.400 . S
C4153 C4147 1.491 . S
C4153 C4152 1.400 . S
C4153 C4154 1.398 . S
C4154 H4142 0.950 . S
C4154 C4153 1.398 . S
C4154 C4155 1.391 . S
C4155 H4143 0.950 . S
C4155 C4151 1.393 . S
C4155 C4154 1.391 . S
H4156 C4164 0.950 . S
H4157 C4169 0.950 . S
H4158 C4166 0.950 . S
H4159 C4168 0.950 . S
H4160 C4170 0.950 . S
H4161 C4172 0.950 . S
H4162 C4174 0.950 . S
H4163 C4175 0.950 . S
C4164 H4156 0.950 . S
C4164 C4165 1.386 . S
C4164 C4166 1.391 . S
C4165 C4164 1.386 . S
C4165 C4169 1.393 . S
C4166 H4158 0.950 . S
C4166 C4164 1.391 . S
C4166 C4167 1.400 . S
C4167 C4166 1.400 . S
C4167 C4168 1.398 . S
C4167 C4173 1.491 . S
C4168 H4159 0.950 . S
C4168 C4167 1.398 . S
C4168 C4169 1.391 . S
C4169 H4157 0.950 . S
C4169 C4165 1.393 . S
C4169 C4168 1.391 . S
C4170 H4160 0.950 . S
C4170 C4171 1.386 . S
C4170 C4172 1.391 . S
C4171 C4170 1.386 . S
C4171 C4175 1.393 . S
C4172 H4161 0.950 . S
C4172 C4170 1.391 . S
C4172 C4173 1.400 . S
C4173 C4167 1.491 . S
C4173 C4172 1.400 . S
C4173 C4174 1.398 . S
C4174 H4162 0.950 . S
C4174 C4173 1.398 . S
C4174 C4175 1.391 . S
C4175 H4163 0.950 . S
C4175 C4171 1.393 . S
C4175 C4174 1.391 . S
H4176 C4184 0.950 . S
H4177 C4189 0.950 . S
H4178 C4186 0.950 . S
H4179 C4188 0.950 . S
H4180 C4190 0.950 . S
H4181 C4192 0.950 . S
H4182 C4194 0.950 . S
H4183 C4195 0.950 . S
C4184 H4176 0.950 . S
C4184 C4185 1.386 . S
C4184 C4186 1.391 . S
C4185 C4184 1.386 . S
C4185 C4189 1.393 . S
C4186 H4178 0.950 . S
C4186 C4184 1.391 . S
C4186 C4187 1.400 . S
C4187 C4186 1.400 . S
C4187 C4188 1.398 . S
C4187 C4193 1.491 . S
C4188 H4179 0.950 . S
C4188 C4187 1.398 . S
C4188 C4189 1.391 . S
C4189 H4177 0.950 . S
C4189 C4185 1.393 . S
C4189 C4188 1.391 . S
C4190 H4180 0.950 . S
C4190 C4191 1.386 . S
C4190 C4192 1.391 . S
C4191 C4190 1.386 . S
C4191 C4195 1.393 . S
C4192 H4181 0.950 . S
C4192 C4190 1.391 . S
C4192 C4193 1.400 . S
C4193 C4187 1.491 . S
C4193 C4192 1.400 . S
C4193 C4194 1.398 . S
C4194 H4182 0.950 . S
C4194 C4193 1.398 . S
C4194 C4195 1.391 . S
C4195 H4183 0.950 . S
C4195 C4191 1.393 . S
C4195 C4194 1.391 . S
H4196 C4204 0.950 . S
H4197 C4209 0.950 . S
H4198 C4206 0.950 . S
H4199 C4208 0.950 . S
H4200 C4210 0.950 . S
H4201 C4212 0.950 . S
H4202 C4214 0.950 . S
H4203 C4215 0.950 . S
C4204 H4196 0.950 . S
C4204 C4205 1.386 . S
C4204 C4206 1.391 . S
C4205 C4204 1.386 . S
C4205 C4209 1.393 . S
C4206 H4198 0.950 . S
C4206 C4204 1.391 . S
C4206 C4207 1.400 . S
C4207 C4206 1.400 . S
C4207 C4208 1.398 . S
C4207 C4213 1.491 . S
C4208 H4199 0.950 . S
C4208 C4207 1.398 . S
C4208 C4209 1.391 . S
C4209 H4197 0.950 . S
C4209 C4205 1.393 . S
C4209 C4208 1.391 . S
C4210 H4200 0.950 . S
C4210 C4211 1.386 . S
C4210 C4212 1.391 . S
C4211 C4210 1.386 . S
C4211 C4215 1.393 . S
C4212 H4201 0.950 . S
C4212 C4210 1.391 . S
C4212 C4213 1.400 . S
C4213 C4207 1.491 . S
C4213 C4212 1.400 . S
C4213 C4214 1.398 . S
C4214 H4202 0.950 . S
C4214 C4213 1.398 . S
C4214 C4215 1.391 . S
C4215 H4203 0.950 . S
C4215 C4211 1.393 . S
C4215 C4214 1.391 . S
H4216 C4224 0.950 . S
H4217 C4229 0.950 . S
H4218 C4226 0.950 . S
H4219 C4228 0.950 . S
H4220 C4230 0.950 . S
H4221 C4232 0.950 . S
H4222 C4234 0.950 . S
H4223 C4235 0.950 . S
C4224 H4216 0.950 . S
C4224 C4225 1.386 . S
C4224 C4226 1.391 . S
C4225 C4224 1.386 . S
C4225 C4229 1.393 . S
C4226 H4218 0.950 . S
C4226 C4224 1.391 . S
C4226 C4227 1.400 . S
C4227 C4226 1.400 . S
C4227 C4228 1.398 . S
C4227 C4233 1.491 . S
C4228 H4219 0.950 . S
C4228 C4227 1.398 . S
C4228 C4229 1.391 . S
C4229 H4217 0.950 . S
C4229 C4225 1.393 . S
C4229 C4228 1.391 . S
C4230 H4220 0.950 . S
C4230 C4231 1.386 . S
C4230 C4232 1.391 . S
C4231 C4230 1.386 . S
C4231 C4235 1.393 . S
C4232 H4221 0.950 . S
C4232 C4230 1.391 . S
C4232 C4233 1.400 . S
C4233 C4227 1.491 . S
C4233 C4232 1.400 . S
C4233 C4234 1.398 . S
C4234 H4222 0.950 . S
C4234 C4233 1.398 . S
C4234 C4235 1.391 . S
C4235 H4223 0.950 . S
C4235 C4231 1.393 . S
C4235 C4234 1.391 . S
H4236 C4244 0.950 . S
H4237 C4249 0.950 . S
H4238 C4246 0.950 . S
H4239 C4248 0.950 . S
H4240 C4250 0.950 . S
H4241 C4252 0.950 . S
H4242 C4254 0.950 . S
H4243 C4255 0.950 . S
C4244 H4236 0.950 . S
C4244 C4245 1.386 . S
C4244 C4246 1.391 . S
C4245 C4244 1.386 . S
C4245 C4249 1.393 . S
C4246 H4238 0.950 . S
C4246 C4244 1.391 . S
C4246 C4247 1.400 . S
C4247 C4246 1.400 . S
C4247 C4248 1.398 . S
C4247 C4253 1.491 . S
C4248 H4239 0.950 . S
C4248 C4247 1.398 . S
C4248 C4249 1.391 . S
C4249 H4237 0.950 . S
C4249 C4245 1.393 . S
C4249 C4248 1.391 . S
C4250 H4240 0.950 . S
C4250 C4251 1.386 . S
C4250 C4252 1.391 . S
C4251 C4250 1.386 . S
C4251 C4255 1.393 . S
C4252 H4241 0.950 . S
C4252 C4250 1.391 . S
C4252 C4253 1.400 . S
C4253 C4247 1.491 . S
C4253 C4252 1.400 . S
C4253 C4254 1.398 . S
C4254 H4242 0.950 . S
C4254 C4253 1.398 . S
C4254 C4255 1.391 . S
C4255 H4243 0.950 . S
C4255 C4251 1.393 . S
C4255 C4254 1.391 . S
H4256 C4264 0.950 . S
H4257 C4269 0.950 . S
H4258 C4266 0.950 . S
H4259 C4268 0.950 . S
H4260 C4270 0.950 . S
H4261 C4272 0.950 . S
H4262 C4274 0.950 . S
H4263 C4275 0.950 . S
C4264 H4256 0.950 . S
C4264 C4265 1.386 . S
C4264 C4266 1.391 . S
C4265 C4264 1.386 . S
C4265 C4269 1.393 . S
C4266 H4258 0.950 . S
C4266 C4264 1.391 . S
C4266 C4267 1.400 . S
C4267 C4266 1.400 . S
C4267 C4268 1.398 . S
C4267 C4273 1.491 . S
C4268 H4259 0.950 . S
C4268 C4267 1.398 . S
C4268 C4269 1.391 . S
C4269 H4257 0.950 . S
C4269 C4265 1.393 . S
C4269 C4268 1.391 . S
C4270 H4260 0.950 . S
C4270 C4271 1.386 . S
C4270 C4272 1.391 . S
C4271 C4270 1.386 . S
C4271 C4275 1.393 . S
C4272 H4261 0.950 . S
C4272 C4270 1.391 . S
C4272 C4273 1.400 . S
C4273 C4267 1.491 . S
C4273 C4272 1.400 . S
C4273 C4274 1.398 . S
C4274 H4262 0.950 . S
C4274 C4273 1.398 . S
C4274 C4275 1.391 . S
C4275 H4263 0.950 . S
C4275 C4271 1.393 . S
C4275 C4274 1.391 . S
H4276 C4284 0.950 . S
H4277 C4289 0.950 . S
H4278 C4286 0.950 . S
H4279 C4288 0.950 . S
H4280 C4290 0.950 . S
H4281 C4292 0.950 . S
H4282 C4294 0.950 . S
H4283 C4295 0.950 . S
C4284 H4276 0.950 . S
C4284 C4285 1.386 . S
C4284 C4286 1.391 . S
C4285 C4284 1.386 . S
C4285 C4289 1.393 . S
C4286 H4278 0.950 . S
C4286 C4284 1.391 . S
C4286 C4287 1.400 . S
C4287 C4286 1.400 . S
C4287 C4288 1.398 . S
C4287 C4293 1.491 . S
C4288 H4279 0.950 . S
C4288 C4287 1.398 . S
C4288 C4289 1.391 . S
C4289 H4277 0.950 . S
C4289 C4285 1.393 . S
C4289 C4288 1.391 . S
C4290 H4280 0.950 . S
C4290 C4291 1.386 . S
C4290 C4292 1.391 . S
C4291 C4290 1.386 . S
C4291 C4295 1.393 . S
C4292 H4281 0.950 . S
C4292 C4290 1.391 . S
C4292 C4293 1.400 . S
C4293 C4287 1.491 . S
C4293 C4292 1.400 . S
C4293 C4294 1.398 . S
C4294 H4282 0.950 . S
C4294 C4293 1.398 . S
C4294 C4295 1.391 . S
C4295 H4283 0.950 . S
C4295 C4291 1.393 . S
C4295 C4294 1.391 . S
H4296 C4304 0.950 . S
H4297 C4309 0.950 . S
H4298 C4306 0.950 . S
H4299 C4308 0.950 . S
H4300 C4310 0.950 . S
H4301 C4312 0.950 . S
H4302 C4314 0.950 . S
H4303 C4315 0.950 . S
C4304 H4296 0.950 . S
C4304 C4305 1.386 . S
C4304 C4306 1.391 . S
C4305 C4304 1.386 . S
C4305 C4309 1.393 . S
C4306 H4298 0.950 . S
C4306 C4304 1.391 . S
C4306 C4307 1.400 . S
C4307 C4306 1.400 . S
C4307 C4308 1.398 . S
C4307 C4313 1.491 . S
C4308 H4299 0.950 . S
C4308 C4307 1.398 . S
C4308 C4309 1.391 . S
C4309 H4297 0.950 . S
C4309 C4305 1.393 . S
C4309 C4308 1.391 . S
C4310 H4300 0.950 . S
C4310 C4311 1.386 . S
C4310 C4312 1.391 . S
C4311 C4310 1.386 . S
C4311 C4315 1.393 . S
C4312 H4301 0.950 . S
C4312 C4310 1.391 . S
C4312 C4313 1.400 . S
C4313 C4307 1.491 . S
C4313 C4312 1.400 . S
C4313 C4314 1.398 . S
C4314 H4302 0.950 . S
C4314 C4313 1.398 . S
C4314 C4315 1.391 . S
C4315 H4303 0.950 . S
C4315 C4311 1.393 . S
C4315 C4314 1.391 . S
H4316 C4324 0.950 . S
H4317 C4329 0.950 . S
H4318 C4326 0.950 . S
H4319 C4328 0.950 . S
H4320 C4330 0.950 . S
H4321 C4332 0.950 . S
H4322 C4334 0.950 . S
H4323 C4335 0.950 . S
C4324 H4316 0.950 . S
C4324 C4325 1.386 . S
C4324 C4326 1.391 . S
C4325 C4324 1.386 . S
C4325 C4329 1.393 . S
C4326 H4318 0.950 . S
C4326 C4324 1.391 . S
C4326 C4327 1.400 . S
C4327 C4326 1.400 . S
C4327 C4328 1.398 . S
C4327 C4333 1.491 . S
C4328 H4319 0.950 . S
C4328 C4327 1.398 . S
C4328 C4329 1.391 . S
C4329 H4317 0.950 . S
C4329 C4325 1.393 . S
C4329 C4328 1.391 . S
C4330 H4320 0.950 . S
C4330 C4331 1.386 . S
C4330 C4332 1.391 . S
C4331 C4330 1.386 . S
C4331 C4335 1.393 . S
C4332 H4321 0.950 . S
C4332 C4330 1.391 . S
C4332 C4333 1.400 . S
C4333 C4327 1.491 . S
C4333 C4332 1.400 . S
C4333 C4334 1.398 . S
C4334 H4322 0.950 . S
C4334 C4333 1.398 . S
C4334 C4335 1.391 . S
C4335 H4323 0.950 . S
C4335 C4331 1.393 . S
C4335 C4334 1.391 . S
H4336 C4344 0.950 . S
H4337 C4349 0.950 . S
H4338 C4346 0.950 . S
H4339 C4348 0.950 . S
H4340 C4350 0.950 . S
H4341 C4352 0.950 . S
H4342 C4354 0.950 . S
H4343 C4355 0.950 . S
C4344 H4336 0.950 . S
C4344 C4345 1.386 . S
C4344 C4346 1.391 . S
C4345 C4344 1.386 . S
C4345 C4349 1.393 . S
C4346 H4338 0.950 . S
C4346 C4344 1.391 . S
C4346 C4347 1.400 . S
C4347 C4346 1.400 . S
C4347 C4348 1.398 . S
C4347 C4353 1.491 . S
C4348 H4339 0.950 . S
C4348 C4347 1.398 . S
C4348 C4349 1.391 . S
C4349 H4337 0.950 . S
C4349 C4345 1.393 . S
C4349 C4348 1.391 . S
C4350 H4340 0.950 . S
C4350 C4351 1.386 . S
C4350 C4352 1.391 . S
C4351 C4350 1.386 . S
C4351 C4355 1.393 . S
C4352 H4341 0.950 . S
C4352 C4350 1.391 . S
C4352 C4353 1.400 . S
C4353 C4347 1.491 . S
C4353 C4352 1.400 . S
C4353 C4354 1.398 . S
C4354 H4342 0.950 . S
C4354 C4353 1.398 . S
C4354 C4355 1.391 . S
C4355 H4343 0.950 . S
C4355 C4351 1.393 . S
C4355 C4354 1.391 . S
H4356 C4364 0.950 . S
H4357 C4369 0.950 . S
H4358 C4366 0.950 . S
H4359 C4368 0.950 . S
H4360 C4370 0.950 . S
H4361 C4372 0.950 . S
H4362 C4374 0.950 . S
H4363 C4375 0.950 . S
C4364 H4356 0.950 . S
C4364 C4365 1.386 . S
C4364 C4366 1.391 . S
C4365 C4364 1.386 . S
C4365 C4369 1.393 . S
C4366 H4358 0.950 . S
C4366 C4364 1.391 . S
C4366 C4367 1.400 . S
C4367 C4366 1.400 . S
C4367 C4368 1.398 . S
C4367 C4373 1.491 . S
C4368 H4359 0.950 . S
C4368 C4367 1.398 . S
C4368 C4369 1.391 . S
C4369 H4357 0.950 . S
C4369 C4365 1.393 . S
C4369 C4368 1.391 . S
C4370 H4360 0.950 . S
C4370 C4371 1.386 . S
C4370 C4372 1.391 . S
C4371 C4370 1.386 . S
C4371 C4375 1.393 . S
C4372 H4361 0.950 . S
C4372 C4370 1.391 . S
C4372 C4373 1.400 . S
C4373 C4367 1.491 . S
C4373 C4372 1.400 . S
C4373 C4374 1.398 . S
C4374 H4362 0.950 . S
C4374 C4373 1.398 . S
C4374 C4375 1.391 . S
C4375 H4363 0.950 . S
C4375 C4371 1.393 . S
C4375 C4374 1.391 . S
H4376 C4384 0.950 . S
H4377 C4389 0.950 . S
H4378 C4386 0.950 . S
H4379 C4388 0.950 . S
H4380 C4390 0.950 . S
H4381 C4392 0.950 . S
H4382 C4394 0.950 . S
H4383 C4395 0.950 . S
C4384 H4376 0.950 . S
C4384 C4385 1.386 . S
C4384 C4386 1.391 . S
C4385 C4384 1.386 . S
C4385 C4389 1.393 . S
C4386 H4378 0.950 . S
C4386 C4384 1.391 . S
C4386 C4387 1.400 . S
C4387 C4386 1.400 . S
C4387 C4388 1.398 . S
C4387 C4393 1.491 . S
C4388 H4379 0.950 . S
C4388 C4387 1.398 . S
C4388 C4389 1.391 . S
C4389 H4377 0.950 . S
C4389 C4385 1.393 . S
C4389 C4388 1.391 . S
C4390 H4380 0.950 . S
C4390 C4391 1.386 . S
C4390 C4392 1.391 . S
C4391 C4390 1.386 . S
C4391 C4395 1.393 . S
C4392 H4381 0.950 . S
C4392 C4390 1.391 . S
C4392 C4393 1.400 . S
C4393 C4387 1.491 . S
C4393 C4392 1.400 . S
C4393 C4394 1.398 . S
C4394 H4382 0.950 . S
C4394 C4393 1.398 . S
C4394 C4395 1.391 . S
C4395 H4383 0.950 . S
C4395 C4391 1.393 . S
C4395 C4394 1.391 . S
H4396 C4404 0.950 . S
H4397 C4409 0.950 . S
H4398 C4406 0.950 . S
H4399 C4408 0.950 . S
H4400 C4410 0.950 . S
H4401 C4412 0.950 . S
H4402 C4414 0.950 . S
H4403 C4415 0.950 . S
C4404 H4396 0.950 . S
C4404 C4405 1.386 . S
C4404 C4406 1.391 . S
C4405 C4404 1.386 . S
C4405 C4409 1.393 . S
C4406 H4398 0.950 . S
C4406 C4404 1.391 . S
C4406 C4407 1.400 . S
C4407 C4406 1.400 . S
C4407 C4408 1.398 . S
C4407 C4413 1.491 . S
C4408 H4399 0.950 . S
C4408 C4407 1.398 . S
C4408 C4409 1.391 . S
C4409 H4397 0.950 . S
C4409 C4405 1.393 . S
C4409 C4408 1.391 . S
C4410 H4400 0.950 . S
C4410 C4411 1.386 . S
C4410 C4412 1.391 . S
C4411 C4410 1.386 . S
C4411 C4415 1.393 . S
C4412 H4401 0.950 . S
C4412 C4410 1.391 . S
C4412 C4413 1.400 . S
C4413 C4407 1.491 . S
C4413 C4412 1.400 . S
C4413 C4414 1.398 . S
C4414 H4402 0.950 . S
C4414 C4413 1.398 . S
C4414 C4415 1.391 . S
C4415 H4403 0.950 . S
C4415 C4411 1.393 . S
C4415 C4414 1.391 . S
H4416 C4424 0.950 . S
H4417 C4429 0.950 . S
H4418 C4426 0.950 . S
H4419 C4428 0.950 . S
H4420 C4430 0.950 . S
H4421 C4432 0.950 . S
H4422 C4434 0.950 . S
H4423 C4435 0.950 . S
C4424 H4416 0.950 . S
C4424 C4425 1.386 . S
C4424 C4426 1.391 . S
C4425 C4424 1.386 . S
C4425 C4429 1.393 . S
C4426 H4418 0.950 . S
C4426 C4424 1.391 . S
C4426 C4427 1.400 . S
C4427 C4426 1.400 . S
C4427 C4428 1.398 . S
C4427 C4433 1.491 . S
C4428 H4419 0.950 . S
C4428 C4427 1.398 . S
C4428 C4429 1.391 . S
C4429 H4417 0.950 . S
C4429 C4425 1.393 . S
C4429 C4428 1.391 . S
C4430 H4420 0.950 . S
C4430 C4431 1.386 . S
C4430 C4432 1.391 . S
C4431 C4430 1.386 . S
C4431 C4435 1.393 . S
C4432 H4421 0.950 . S
C4432 C4430 1.391 . S
C4432 C4433 1.400 . S
C4433 C4427 1.491 . S
C4433 C4432 1.400 . S
C4433 C4434 1.398 . S
C4434 H4422 0.950 . S
C4434 C4433 1.398 . S
C4434 C4435 1.391 . S
C4435 H4423 0.950 . S
C4435 C4431 1.393 . S
C4435 C4434 1.391 . S
H4436 C4444 0.950 . S
H4437 C4449 0.950 . S
H4438 C4446 0.950 . S
H4439 C4448 0.950 . S
H4440 C4450 0.950 . S
H4441 C4452 0.950 . S
H4442 C4454 0.950 . S
H4443 C4455 0.950 . S
C4444 H4436 0.950 . S
C4444 C4445 1.386 . S
C4444 C4446 1.391 . S
C4445 C4444 1.386 . S
C4445 C4449 1.393 . S
C4446 H4438 0.950 . S
C4446 C4444 1.391 . S
C4446 C4447 1.400 . S
C4447 C4446 1.400 . S
C4447 C4448 1.398 . S
C4447 C4453 1.491 . S
C4448 H4439 0.950 . S
C4448 C4447 1.398 . S
C4448 C4449 1.391 . S
C4449 H4437 0.950 . S
C4449 C4445 1.393 . S
C4449 C4448 1.391 . S
C4450 H4440 0.950 . S
C4450 C4451 1.386 . S
C4450 C4452 1.391 . S
C4451 C4450 1.386 . S
C4451 C4455 1.393 . S
C4452 H4441 0.950 . S
C4452 C4450 1.391 . S
C4452 C4453 1.400 . S
C4453 C4447 1.491 . S
C4453 C4452 1.400 . S
C4453 C4454 1.398 . S
C4454 H4442 0.950 . S
C4454 C4453 1.398 . S
C4454 C4455 1.391 . S
C4455 H4443 0.950 . S
C4455 C4451 1.393 . S
C4455 C4454 1.391 . S
H4456 C4464 0.950 . S
H4457 C4469 0.950 . S
H4458 C4466 0.950 . S
H4459 C4468 0.950 . S
H4460 C4470 0.950 . S
H4461 C4472 0.950 . S
H4462 C4474 0.950 . S
H4463 C4475 0.950 . S
C4464 H4456 0.950 . S
C4464 C4465 1.386 . S
C4464 C4466 1.391 . S
C4465 C4464 1.386 . S
C4465 C4469 1.393 . S
C4466 H4458 0.950 . S
C4466 C4464 1.391 . S
C4466 C4467 1.400 . S
C4467 C4466 1.400 . S
C4467 C4468 1.398 . S
C4467 C4473 1.491 . S
C4468 H4459 0.950 . S
C4468 C4467 1.398 . S
C4468 C4469 1.391 . S
C4469 H4457 0.950 . S
C4469 C4465 1.393 . S
C4469 C4468 1.391 . S
C4470 H4460 0.950 . S
C4470 C4471 1.386 . S
C4470 C4472 1.391 . S
C4471 C4470 1.386 . S
C4471 C4475 1.393 . S
C4472 H4461 0.950 . S
C4472 C4470 1.391 . S
C4472 C4473 1.400 . S
C4473 C4467 1.491 . S
C4473 C4472 1.400 . S
C4473 C4474 1.398 . S
C4474 H4462 0.950 . S
C4474 C4473 1.398 . S
C4474 C4475 1.391 . S
C4475 H4463 0.950 . S
C4475 C4471 1.393 . S
C4475 C4474 1.391 . S
H4476 C4484 0.950 . S
H4477 C4489 0.950 . S
H4478 C4486 0.950 . S
H4479 C4488 0.950 . S
H4480 C4490 0.950 . S
H4481 C4492 0.950 . S
H4482 C4494 0.950 . S
H4483 C4495 0.950 . S
C4484 H4476 0.950 . S
C4484 C4485 1.386 . S
C4484 C4486 1.391 . S
C4485 C4484 1.386 . S
C4485 C4489 1.393 . S
C4486 H4478 0.950 . S
C4486 C4484 1.391 . S
C4486 C4487 1.400 . S
C4487 C4486 1.400 . S
C4487 C4488 1.398 . S
C4487 C4493 1.491 . S
C4488 H4479 0.950 . S
C4488 C4487 1.398 . S
C4488 C4489 1.391 . S
C4489 H4477 0.950 . S
C4489 C4485 1.393 . S
C4489 C4488 1.391 . S
C4490 H4480 0.950 . S
C4490 C4491 1.386 . S
C4490 C4492 1.391 . S
C4491 C4490 1.386 . S
C4491 C4495 1.393 . S
C4492 H4481 0.950 . S
C4492 C4490 1.391 . S
C4492 C4493 1.400 . S
C4493 C4487 1.491 . S
C4493 C4492 1.400 . S
C4493 C4494 1.398 . S
C4494 H4482 0.950 . S
C4494 C4493 1.398 . S
C4494 C4495 1.391 . S
C4495 H4483 0.950 . S
C4495 C4491 1.393 . S
C4495 C4494 1.391 . S
H4496 C4504 0.950 . S
H4497 C4509 0.950 . S
H4498 C4506 0.950 . S
H4499 C4508 0.950 . S
H4500 C4510 0.950 . S
H4501 C4512 0.950 . S
H4502 C4514 0.950 . S
H4503 C4515 0.950 . S
C4504 H4496 0.950 . S
C4504 C4505 1.386 . S
C4504 C4506 1.391 . S
C4505 C4504 1.386 . S
C4505 C4509 1.393 . S
C4506 H4498 0.950 . S
C4506 C4504 1.391 . S
C4506 C4507 1.400 . S
C4507 C4506 1.400 . S
C4507 C4508 1.398 . S
C4507 C4513 1.491 . S
C4508 H4499 0.950 . S
C4508 C4507 1.398 . S
C4508 C4509 1.391 . S
C4509 H4497 0.950 . S
C4509 C4505 1.393 . S
C4509 C4508 1.391 . S
C4510 H4500 0.950 . S
C4510 C4511 1.386 . S
C4510 C4512 1.391 . S
C4511 C4510 1.386 . S
C4511 C4515 1.393 . S
C4512 H4501 0.950 . S
C4512 C4510 1.391 . S
C4512 C4513 1.400 . S
C4513 C4507 1.491 . S
C4513 C4512 1.400 . S
C4513 C4514 1.398 . S
C4514 H4502 0.950 . S
C4514 C4513 1.398 . S
C4514 C4515 1.391 . S
C4515 H4503 0.950 . S
C4515 C4511 1.393 . S
C4515 C4514 1.391 . S
H4516 C4524 0.950 . S
H4517 C4529 0.950 . S
H4518 C4526 0.950 . S
H4519 C4528 0.950 . S
H4520 C4530 0.950 . S
H4521 C4532 0.950 . S
H4522 C4534 0.950 . S
H4523 C4535 0.950 . S
C4524 H4516 0.950 . S
C4524 C4525 1.386 . S
C4524 C4526 1.391 . S
C4525 C4524 1.386 . S
C4525 C4529 1.393 . S
C4526 H4518 0.950 . S
C4526 C4524 1.391 . S
C4526 C4527 1.400 . S
C4527 C4526 1.400 . S
C4527 C4528 1.398 . S
C4527 C4533 1.491 . S
C4528 H4519 0.950 . S
C4528 C4527 1.398 . S
C4528 C4529 1.391 . S
C4529 H4517 0.950 . S
C4529 C4525 1.393 . S
C4529 C4528 1.391 . S
C4530 H4520 0.950 . S
C4530 C4531 1.386 . S
C4530 C4532 1.391 . S
C4531 C4530 1.386 . S
C4531 C4535 1.393 . S
C4532 H4521 0.950 . S
C4532 C4530 1.391 . S
C4532 C4533 1.400 . S
C4533 C4527 1.491 . S
C4533 C4532 1.400 . S
C4533 C4534 1.398 . S
C4534 H4522 0.950 . S
C4534 C4533 1.398 . S
C4534 C4535 1.391 . S
C4535 H4523 0.950 . S
C4535 C4531 1.393 . S
C4535 C4534 1.391 . S
H4536 C4544 0.950 . S
H4537 C4549 0.950 . S
H4538 C4546 0.950 . S
H4539 C4548 0.950 . S
H4540 C4550 0.950 . S
H4541 C4552 0.950 . S
H4542 C4554 0.950 . S
H4543 C4555 0.950 . S
C4544 H4536 0.950 . S
C4544 C4545 1.386 . S
C4544 C4546 1.391 . S
C4545 C4544 1.386 . S
C4545 C4549 1.393 . S
C4546 H4538 0.950 . S
C4546 C4544 1.391 . S
C4546 C4547 1.400 . S
C4547 C4546 1.400 . S
C4547 C4548 1.398 . S
C4547 C4553 1.491 . S
C4548 H4539 0.950 . S
C4548 C4547 1.398 . S
C4548 C4549 1.391 . S
C4549 H4537 0.950 . S
C4549 C4545 1.393 . S
C4549 C4548 1.391 . S
C4550 H4540 0.950 . S
C4550 C4551 1.386 . S
C4550 C4552 1.391 . S
C4551 C4550 1.386 . S
C4551 C4555 1.393 . S
C4552 H4541 0.950 . S
C4552 C4550 1.391 . S
C4552 C4553 1.400 . S
C4553 C4547 1.491 . S
C4553 C4552 1.400 . S
C4553 C4554 1.398 . S
C4554 H4542 0.950 . S
C4554 C4553 1.398 . S
C4554 C4555 1.391 . S
C4555 H4543 0.950 . S
C4555 C4551 1.393 . S
C4555 C4554 1.391 . S
H4556 C4564 0.950 . S
H4557 C4569 0.950 . S
H4558 C4566 0.950 . S
H4559 C4568 0.950 . S
H4560 C4570 0.950 . S
H4561 C4572 0.950 . S
H4562 C4574 0.950 . S
H4563 C4575 0.950 . S
C4564 H4556 0.950 . S
C4564 C4565 1.386 . S
C4564 C4566 1.391 . S
C4565 C4564 1.386 . S
C4565 C4569 1.393 . S
C4566 H4558 0.950 . S
C4566 C4564 1.391 . S
C4566 C4567 1.400 . S
C4567 C4566 1.400 . S
C4567 C4568 1.398 . S
C4567 C4573 1.491 . S
C4568 H4559 0.950 . S
C4568 C4567 1.398 . S
C4568 C4569 1.391 . S
C4569 H4557 0.950 . S
C4569 C4565 1.393 . S
C4569 C4568 1.391 . S
C4570 H4560 0.950 . S
C4570 C4571 1.386 . S
C4570 C4572 1.391 . S
C4571 C4570 1.386 . S
C4571 C4575 1.393 . S
C4572 H4561 0.950 . S
C4572 C4570 1.391 . S
C4572 C4573 1.400 . S
C4573 C4567 1.491 . S
C4573 C4572 1.400 . S
C4573 C4574 1.398 . S
C4574 H4562 0.950 . S
C4574 C4573 1.398 . S
C4574 C4575 1.391 . S
C4575 H4563 0.950 . S
C4575 C4571 1.393 . S
C4575 C4574 1.391 . S
H4576 C4584 0.950 . S
H4577 C4589 0.950 . S
H4578 C4586 0.950 . S
H4579 C4588 0.950 . S
H4580 C4590 0.950 . S
H4581 C4592 0.950 . S
H4582 C4594 0.950 . S
H4583 C4595 0.950 . S
C4584 H4576 0.950 . S
C4584 C4585 1.386 . S
C4584 C4586 1.391 . S
C4585 C4584 1.386 . S
C4585 C4589 1.393 . S
C4586 H4578 0.950 . S
C4586 C4584 1.391 . S
C4586 C4587 1.400 . S
C4587 C4586 1.400 . S
C4587 C4588 1.398 . S
C4587 C4593 1.491 . S
C4588 H4579 0.950 . S
C4588 C4587 1.398 . S
C4588 C4589 1.391 . S
C4589 H4577 0.950 . S
C4589 C4585 1.393 . S
C4589 C4588 1.391 . S
C4590 H4580 0.950 . S
C4590 C4591 1.386 . S
C4590 C4592 1.391 . S
C4591 C4590 1.386 . S
C4591 C4595 1.393 . S
C4592 H4581 0.950 . S
C4592 C4590 1.391 . S
C4592 C4593 1.400 . S
C4593 C4587 1.491 . S
C4593 C4592 1.400 . S
C4593 C4594 1.398 . S
C4594 H4582 0.950 . S
C4594 C4593 1.398 . S
C4594 C4595 1.391 . S
C4595 H4583 0.950 . S
C4595 C4591 1.393 . S
C4595 C4594 1.391 . S
H4596 C4604 0.950 . S
H4597 C4609 0.950 . S
H4598 C4606 0.950 . S
H4599 C4608 0.950 . S
H4600 C4610 0.950 . S
H4601 C4612 0.950 . S
H4602 C4614 0.950 . S
H4603 C4615 0.950 . S
C4604 H4596 0.950 . S
C4604 C4605 1.386 . S
C4604 C4606 1.391 . S
C4605 C4604 1.386 . S
C4605 C4609 1.393 . S
C4606 H4598 0.950 . S
C4606 C4604 1.391 . S
C4606 C4607 1.400 . S
C4607 C4606 1.400 . S
C4607 C4608 1.398 . S
C4607 C4613 1.491 . S
C4608 H4599 0.950 . S
C4608 C4607 1.398 . S
C4608 C4609 1.391 . S
C4609 H4597 0.950 . S
C4609 C4605 1.393 . S
C4609 C4608 1.391 . S
C4610 H4600 0.950 . S
C4610 C4611 1.386 . S
C4610 C4612 1.391 . S
C4611 C4610 1.386 . S
C4611 C4615 1.393 . S
C4612 H4601 0.950 . S
C4612 C4610 1.391 . S
C4612 C4613 1.400 . S
C4613 C4607 1.491 . S
C4613 C4612 1.400 . S
C4613 C4614 1.398 . S
C4614 H4602 0.950 . S
C4614 C4613 1.398 . S
C4614 C4615 1.391 . S
C4615 H4603 0.950 . S
C4615 C4611 1.393 . S
C4615 C4614 1.391 . S
H4616 C4624 0.950 . S
H4617 C4629 0.950 . S
H4618 C4626 0.950 . S
H4619 C4628 0.950 . S
H4620 C4630 0.950 . S
H4621 C4632 0.950 . S
H4622 C4634 0.950 . S
H4623 C4635 0.950 . S
C4624 H4616 0.950 . S
C4624 C4625 1.386 . S
C4624 C4626 1.391 . S
C4625 C4624 1.386 . S
C4625 C4629 1.393 . S
C4626 H4618 0.950 . S
C4626 C4624 1.391 . S
C4626 C4627 1.400 . S
C4627 C4626 1.400 . S
C4627 C4628 1.398 . S
C4627 C4633 1.491 . S
C4628 H4619 0.950 . S
C4628 C4627 1.398 . S
C4628 C4629 1.391 . S
C4629 H4617 0.950 . S
C4629 C4625 1.393 . S
C4629 C4628 1.391 . S
C4630 H4620 0.950 . S
C4630 C4631 1.386 . S
C4630 C4632 1.391 . S
C4631 C4630 1.386 . S
C4631 C4635 1.393 . S
C4632 H4621 0.950 . S
C4632 C4630 1.391 . S
C4632 C4633 1.400 . S
C4633 C4627 1.491 . S
C4633 C4632 1.400 . S
C4633 C4634 1.398 . S
C4634 H4622 0.950 . S
C4634 C4633 1.398 . S
C4634 C4635 1.391 . S
C4635 H4623 0.950 . S
C4635 C4631 1.393 . S
C4635 C4634 1.391 . S
H4636 C4644 0.950 . S
H4637 C4649 0.950 . S
H4638 C4646 0.950 . S
H4639 C4648 0.950 . S
H4640 C4650 0.950 . S
H4641 C4652 0.950 . S
H4642 C4654 0.950 . S
H4643 C4655 0.950 . S
C4644 H4636 0.950 . S
C4644 C4645 1.386 . S
C4644 C4646 1.391 . S
C4645 C4644 1.386 . S
C4645 C4649 1.393 . S
C4646 H4638 0.950 . S
C4646 C4644 1.391 . S
C4646 C4647 1.400 . S
C4647 C4646 1.400 . S
C4647 C4648 1.398 . S
C4647 C4653 1.491 . S
C4648 H4639 0.950 . S
C4648 C4647 1.398 . S
C4648 C4649 1.391 . S
C4649 H4637 0.950 . S
C4649 C4645 1.393 . S
C4649 C4648 1.391 . S
C4650 H4640 0.950 . S
C4650 C4651 1.386 . S
C4650 C4652 1.391 . S
C4651 C4650 1.386 . S
C4651 C4655 1.393 . S
C4652 H4641 0.950 . S
C4652 C4650 1.391 . S
C4652 C4653 1.400 . S
C4653 C4647 1.491 . S
C4653 C4652 1.400 . S
C4653 C4654 1.398 . S
C4654 H4642 0.950 . S
C4654 C4653 1.398 . S
C4654 C4655 1.391 . S
C4655 H4643 0.950 . S
C4655 C4651 1.393 . S
C4655 C4654 1.391 . S
H4656 C4664 0.950 . S
H4657 C4669 0.950 . S
H4658 C4666 0.950 . S
H4659 C4668 0.950 . S
H4660 C4670 0.950 . S
H4661 C4672 0.950 . S
H4662 C4674 0.950 . S
H4663 C4675 0.950 . S
C4664 H4656 0.950 . S
C4664 C4665 1.386 . S
C4664 C4666 1.391 . S
C4665 C4664 1.386 . S
C4665 C4669 1.393 . S
C4666 H4658 0.950 . S
C4666 C4664 1.391 . S
C4666 C4667 1.400 . S
C4667 C4666 1.400 . S
C4667 C4668 1.398 . S
C4667 C4673 1.491 . S
C4668 H4659 0.950 . S
C4668 C4667 1.398 . S
C4668 C4669 1.391 . S
C4669 H4657 0.950 . S
C4669 C4665 1.393 . S
C4669 C4668 1.391 . S
C4670 H4660 0.950 . S
C4670 C4671 1.386 . S
C4670 C4672 1.391 . S
C4671 C4670 1.386 . S
C4671 C4675 1.393 . S
C4672 H4661 0.950 . S
C4672 C4670 1.391 . S
C4672 C4673 1.400 . S
C4673 C4667 1.491 . S
C4673 C4672 1.400 . S
C4673 C4674 1.398 . S
C4674 H4662 0.950 . S
C4674 C4673 1.398 . S
C4674 C4675 1.391 . S
C4675 H4663 0.950 . S
C4675 C4671 1.393 . S
C4675 C4674 1.391 . S
H4676 C4684 0.950 . S
H4677 C4689 0.950 . S
H4678 C4686 0.950 . S
H4679 C4688 0.950 . S
H4680 C4690 0.950 . S
H4681 C4692 0.950 . S
H4682 C4694 0.950 . S
H4683 C4695 0.950 . S
C4684 H4676 0.950 . S
C4684 C4685 1.386 . S
C4684 C4686 1.391 . S
C4685 C4684 1.386 . S
C4685 C4689 1.393 . S
C4686 H4678 0.950 . S
C4686 C4684 1.391 . S
C4686 C4687 1.400 . S
C4687 C4686 1.400 . S
C4687 C4688 1.398 . S
C4687 C4693 1.491 . S
C4688 H4679 0.950 . S
C4688 C4687 1.398 . S
C4688 C4689 1.391 . S
C4689 H4677 0.950 . S
C4689 C4685 1.393 . S
C4689 C4688 1.391 . S
C4690 H4680 0.950 . S
C4690 C4691 1.386 . S
C4690 C4692 1.391 . S
C4691 C4690 1.386 . S
C4691 C4695 1.393 . S
C4692 H4681 0.950 . S
C4692 C4690 1.391 . S
C4692 C4693 1.400 . S
C4693 C4687 1.491 . S
C4693 C4692 1.400 . S
C4693 C4694 1.398 . S
C4694 H4682 0.950 . S
C4694 C4693 1.398 . S
C4694 C4695 1.391 . S
C4695 H4683 0.950 . S
C4695 C4691 1.393 . S
C4695 C4694 1.391 . S
H4696 C4704 0.950 . S
H4697 C4709 0.950 . S
H4698 C4706 0.950 . S
H4699 C4708 0.950 . S
H4700 C4710 0.950 . S
H4701 C4712 0.950 . S
H4702 C4714 0.950 . S
H4703 C4715 0.950 . S
C4704 H4696 0.950 . S
C4704 C4705 1.386 . S
C4704 C4706 1.391 . S
C4705 C4704 1.386 . S
C4705 C4709 1.393 . S
C4706 H4698 0.950 . S
C4706 C4704 1.391 . S
C4706 C4707 1.400 . S
C4707 C4706 1.400 . S
C4707 C4708 1.398 . S
C4707 C4713 1.491 . S
C4708 H4699 0.950 . S
C4708 C4707 1.398 . S
C4708 C4709 1.391 . S
C4709 H4697 0.950 . S
C4709 C4705 1.393 . S
C4709 C4708 1.391 . S
C4710 H4700 0.950 . S
C4710 C4711 1.386 . S
C4710 C4712 1.391 . S
C4711 C4710 1.386 . S
C4711 C4715 1.393 . S
C4712 H4701 0.950 . S
C4712 C4710 1.391 . S
C4712 C4713 1.400 . S
C4713 C4707 1.491 . S
C4713 C4712 1.400 . S
C4713 C4714 1.398 . S
C4714 H4702 0.950 . S
C4714 C4713 1.398 . S
C4714 C4715 1.391 . S
C4715 H4703 0.950 . S
C4715 C4711 1.393 . S
C4715 C4714 1.391 . S
H4716 C4724 0.950 . S
H4717 C4729 0.950 . S
H4718 C4726 0.950 . S
H4719 C4728 0.950 . S
H4720 C4730 0.950 . S
H4721 C4732 0.950 . S
H4722 C4734 0.950 . S
H4723 C4735 0.950 . S
C4724 H4716 0.950 . S
C4724 C4725 1.386 . S
C4724 C4726 1.391 . S
C4725 C4724 1.386 . S
C4725 C4729 1.393 . S
C4726 H4718 0.950 . S
C4726 C4724 1.391 . S
C4726 C4727 1.400 . S
C4727 C4726 1.400 . S
C4727 C4728 1.398 . S
C4727 C4733 1.491 . S
C4728 H4719 0.950 . S
C4728 C4727 1.398 . S
C4728 C4729 1.391 . S
C4729 H4717 0.950 . S
C4729 C4725 1.393 . S
C4729 C4728 1.391 . S
C4730 H4720 0.950 . S
C4730 C4731 1.386 . S
C4730 C4732 1.391 . S
C4731 C4730 1.386 . S
C4731 C4735 1.393 . S
C4732 H4721 0.950 . S
C4732 C4730 1.391 . S
C4732 C4733 1.400 . S
C4733 C4727 1.491 . S
C4733 C4732 1.400 . S
C4733 C4734 1.398 . S
C4734 H4722 0.950 . S
C4734 C4733 1.398 . S
C4734 C4735 1.391 . S
C4735 H4723 0.950 . S
C4735 C4731 1.393 . S
C4735 C4734 1.391 . S
H4736 C4744 0.950 . S
H4737 C4749 0.950 . S
H4738 C4746 0.950 . S
H4739 C4748 0.950 . S
H4740 C4750 0.950 . S
H4741 C4752 0.950 . S
H4742 C4754 0.950 . S
H4743 C4755 0.950 . S
C4744 H4736 0.950 . S
C4744 C4745 1.386 . S
C4744 C4746 1.391 . S
C4745 C4744 1.386 . S
C4745 C4749 1.393 . S
C4746 H4738 0.950 . S
C4746 C4744 1.391 . S
C4746 C4747 1.400 . S
C4747 C4746 1.400 . S
C4747 C4748 1.398 . S
C4747 C4753 1.491 . S
C4748 H4739 0.950 . S
C4748 C4747 1.398 . S
C4748 C4749 1.391 . S
C4749 H4737 0.950 . S
C4749 C4745 1.393 . S
C4749 C4748 1.391 . S
C4750 H4740 0.950 . S
C4750 C4751 1.386 . S
C4750 C4752 1.391 . S
C4751 C4750 1.386 . S
C4751 C4755 1.393 . S
C4752 H4741 0.950 . S
C4752 C4750 1.391 . S
C4752 C4753 1.400 . S
C4753 C4747 1.491 . S
C4753 C4752 1.400 . S
C4753 C4754 1.398 . S
C4754 H4742 0.950 . S
C4754 C4753 1.398 . S
C4754 C4755 1.391 . S
C4755 H4743 0.950 . S
C4755 C4751 1.393 . S
C4755 C4754 1.391 . S
H4756 C4764 0.950 . S
H4757 C4769 0.950 . S
H4758 C4766 0.950 . S
H4759 C4768 0.950 . S
H4760 C4770 0.950 . S
H4761 C4772 0.950 . S
H4762 C4774 0.950 . S
H4763 C4775 0.950 . S
C4764 H4756 0.950 . S
C4764 C4765 1.386 . S
C4764 C4766 1.391 . S
C4765 C4764 1.386 . S
C4765 C4769 1.393 . S
C4766 H4758 0.950 . S
C4766 C4764 1.391 . S
C4766 C4767 1.400 . S
C4767 C4766 1.400 . S
C4767 C4768 1.398 . S
C4767 C4773 1.491 . S
C4768 H4759 0.950 . S
C4768 C4767 1.398 . S
C4768 C4769 1.391 . S
C4769 H4757 0.950 . S
C4769 C4765 1.393 . S
C4769 C4768 1.391 . S
C4770 H4760 0.950 . S
C4770 C4771 1.386 . S
C4770 C4772 1.391 . S
C4771 C4770 1.386 . S
C4771 C4775 1.393 . S
C4772 H4761 0.950 . S
C4772 C4770 1.391 . S
C4772 C4773 1.400 . S
C4773 C4767 1.491 . S
C4773 C4772 1.400 . S
C4773 C4774 1.398 . S
C4774 H4762 0.950 . S
C4774 C4773 1.398 . S
C4774 C4775 1.391 . S
C4775 H4763 0.950 . S
C4775 C4771 1.393 . S
C4775 C4774 1.391 . S
H4776 C4784 0.950 . S
H4777 C4789 0.950 . S
H4778 C4786 0.950 . S
H4779 C4788 0.950 . S
H4780 C4790 0.950 . S
H4781 C4792 0.950 . S
H4782 C4794 0.950 . S
H4783 C4795 0.950 . S
C4784 H4776 0.950 . S
C4784 C4785 1.386 . S
C4784 C4786 1.391 . S
C4785 C4784 1.386 . S
C4785 C4789 1.393 . S
C4786 H4778 0.950 . S
C4786 C4784 1.391 . S
C4786 C4787 1.400 . S
C4787 C4786 1.400 . S
C4787 C4788 1.398 . S
C4787 C4793 1.491 . S
C4788 H4779 0.950 . S
C4788 C4787 1.398 . S
C4788 C4789 1.391 . S
C4789 H4777 0.950 . S
C4789 C4785 1.393 . S
C4789 C4788 1.391 . S
C4790 H4780 0.950 . S
C4790 C4791 1.386 . S
C4790 C4792 1.391 . S
C4791 C4790 1.386 . S
C4791 C4795 1.393 . S
C4792 H4781 0.950 . S
C4792 C4790 1.391 . S
C4792 C4793 1.400 . S
C4793 C4787 1.491 . S
C4793 C4792 1.400 . S
C4793 C4794 1.398 . S
C4794 H4782 0.950 . S
C4794 C4793 1.398 . S
C4794 C4795 1.391 . S
C4795 H4783 0.950 . S
C4795 C4791 1.393 . S
C4795 C4794 1.391 . S
H4796 C4804 0.950 . S
H4797 C4809 0.950 . S
H4798 C4806 0.950 . S
H4799 C4808 0.950 . S
H4800 C4810 0.950 . S
H4801 C4812 0.950 . S
H4802 C4814 0.950 . S
H4803 C4815 0.950 . S
C4804 H4796 0.950 . S
C4804 C4805 1.386 . S
C4804 C4806 1.391 . S
C4805 C4804 1.386 . S
C4805 C4809 1.393 . S
C4806 H4798 0.950 . S
C4806 C4804 1.391 . S
C4806 C4807 1.400 . S
C4807 C4806 1.400 . S
C4807 C4808 1.398 . S
C4807 C4813 1.491 . S
C4808 H4799 0.950 . S
C4808 C4807 1.398 . S
C4808 C4809 1.391 . S
C4809 H4797 0.950 . S
C4809 C4805 1.393 . S
C4809 C4808 1.391 . S
C4810 H4800 0.950 . S
C4810 C4811 1.386 . S
C4810 C4812 1.391 . S
C4811 C4810 1.386 . S
C4811 C4815 1.393 . S
C4812 H4801 0.950 . S
C4812 C4810 1.391 . S
C4812 C4813 1.400 . S
C4813 C4807 1.491 . S
C4813 C4812 1.400 . S
C4813 C4814 1.398 . S
C4814 H4802 0.950 . S
C4814 C4813 1.398 . S
C4814 C4815 1.391 . S
C4815 H4803 0.950 . S
C4815 C4811 1.393 . S
C4815 C4814 1.391 . S
H4816 C4824 0.950 . S
H4817 C4829 0.950 . S
H4818 C4826 0.950 . S
H4819 C4828 0.950 . S
H4820 C4830 0.950 . S
H4821 C4832 0.950 . S
H4822 C4834 0.950 . S
H4823 C4835 0.950 . S
C4824 H4816 0.950 . S
C4824 C4825 1.386 . S
C4824 C4826 1.391 . S
C4825 C4824 1.386 . S
C4825 C4829 1.393 . S
C4826 H4818 0.950 . S
C4826 C4824 1.391 . S
C4826 C4827 1.400 . S
C4827 C4826 1.400 . S
C4827 C4828 1.398 . S
C4827 C4833 1.491 . S
C4828 H4819 0.950 . S
C4828 C4827 1.398 . S
C4828 C4829 1.391 . S
C4829 H4817 0.950 . S
C4829 C4825 1.393 . S
C4829 C4828 1.391 . S
C4830 H4820 0.950 . S
C4830 C4831 1.386 . S
C4830 C4832 1.391 . S
C4831 C4830 1.386 . S
C4831 C4835 1.393 . S
C4832 H4821 0.950 . S
C4832 C4830 1.391 . S
C4832 C4833 1.400 . S
C4833 C4827 1.491 . S
C4833 C4832 1.400 . S
C4833 C4834 1.398 . S
C4834 H4822 0.950 . S
C4834 C4833 1.398 . S
C4834 C4835 1.391 . S
C4835 H4823 0.950 . S
C4835 C4831 1.393 . S
C4835 C4834 1.391 . S
H4836 C4844 0.950 . S
H4837 C4849 0.950 . S
H4838 C4846 0.950 . S
H4839 C4848 0.950 . S
H4840 C4850 0.950 . S
H4841 C4852 0.950 . S
H4842 C4854 0.950 . S
H4843 C4855 0.950 . S
C4844 H4836 0.950 . S
C4844 C4845 1.386 . S
C4844 C4846 1.391 . S
C4845 C4844 1.386 . S
C4845 C4849 1.393 . S
C4846 H4838 0.950 . S
C4846 C4844 1.391 . S
C4846 C4847 1.400 . S
C4847 C4846 1.400 . S
C4847 C4848 1.398 . S
C4847 C4853 1.491 . S
C4848 H4839 0.950 . S
C4848 C4847 1.398 . S
C4848 C4849 1.391 . S
C4849 H4837 0.950 . S
C4849 C4845 1.393 . S
C4849 C4848 1.391 . S
C4850 H4840 0.950 . S
C4850 C4851 1.386 . S
C4850 C4852 1.391 . S
C4851 C4850 1.386 . S
C4851 C4855 1.393 . S
C4852 H4841 0.950 . S
C4852 C4850 1.391 . S
C4852 C4853 1.400 . S
C4853 C4847 1.491 . S
C4853 C4852 1.400 . S
C4853 C4854 1.398 . S
C4854 H4842 0.950 . S
C4854 C4853 1.398 . S
C4854 C4855 1.391 . S
C4855 H4843 0.950 . S
C4855 C4851 1.393 . S
C4855 C4854 1.391 . S
H4856 C4864 0.950 . S
H4857 C4869 0.950 . S
H4858 C4866 0.950 . S
H4859 C4868 0.950 . S
H4860 C4870 0.950 . S
H4861 C4872 0.950 . S
H4862 C4874 0.950 . S
H4863 C4875 0.950 . S
C4864 H4856 0.950 . S
C4864 C4865 1.386 . S
C4864 C4866 1.391 . S
C4865 C4864 1.386 . S
C4865 C4869 1.393 . S
C4866 H4858 0.950 . S
C4866 C4864 1.391 . S
C4866 C4867 1.400 . S
C4867 C4866 1.400 . S
C4867 C4868 1.398 . S
C4867 C4873 1.491 . S
C4868 H4859 0.950 . S
C4868 C4867 1.398 . S
C4868 C4869 1.391 . S
C4869 H4857 0.950 . S
C4869 C4865 1.393 . S
C4869 C4868 1.391 . S
C4870 H4860 0.950 . S
C4870 C4871 1.386 . S
C4870 C4872 1.391 . S
C4871 C4870 1.386 . S
C4871 C4875 1.393 . S
C4872 H4861 0.950 . S
C4872 C4870 1.391 . S
C4872 C4873 1.400 . S
C4873 C4867 1.491 . S
C4873 C4872 1.400 . S
C4873 C4874 1.398 . S
C4874 H4862 0.950 . S
C4874 C4873 1.398 . S
C4874 C4875 1.391 . S
C4875 H4863 0.950 . S
C4875 C4871 1.393 . S
C4875 C4874 1.391 . S
H4876 C4884 0.950 . S
H4877 C4889 0.950 . S
H4878 C4886 0.950 . S
H4879 C4888 0.950 . S
H4880 C4890 0.950 . S
H4881 C4892 0.950 . S
H4882 C4894 0.950 . S
H4883 C4895 0.950 . S
C4884 H4876 0.950 . S
C4884 C4885 1.386 . S
C4884 C4886 1.391 . S
C4885 C4884 1.386 . S
C4885 C4889 1.393 . S
C4886 H4878 0.950 . S
C4886 C4884 1.391 . S
C4886 C4887 1.400 . S
C4887 C4886 1.400 . S
C4887 C4888 1.398 . S
C4887 C4893 1.491 . S
C4888 H4879 0.950 . S
C4888 C4887 1.398 . S
C4888 C4889 1.391 . S
C4889 H4877 0.950 . S
C4889 C4885 1.393 . S
C4889 C4888 1.391 . S
C4890 H4880 0.950 . S
C4890 C4891 1.386 . S
C4890 C4892 1.391 . S
C4891 C4890 1.386 . S
C4891 C4895 1.393 . S
C4892 H4881 0.950 . S
C4892 C4890 1.391 . S
C4892 C4893 1.400 . S
C4893 C4887 1.491 . S
C4893 C4892 1.400 . S
C4893 C4894 1.398 . S
C4894 H4882 0.950 . S
C4894 C4893 1.398 . S
C4894 C4895 1.391 . S
C4895 H4883 0.950 . S
C4895 C4891 1.393 . S
C4895 C4894 1.391 . S
H4896 C4904 0.950 . S
H4897 C4909 0.950 . S
H4898 C4906 0.950 . S
H4899 C4908 0.950 . S
H4900 C4910 0.950 . S
H4901 C4912 0.950 . S
H4902 C4914 0.950 . S
H4903 C4915 0.950 . S
C4904 H4896 0.950 . S
C4904 C4905 1.386 . S
C4904 C4906 1.391 . S
C4905 C4904 1.386 . S
C4905 C4909 1.393 . S
C4906 H4898 0.950 . S
C4906 C4904 1.391 . S
C4906 C4907 1.400 . S
C4907 C4906 1.400 . S
C4907 C4908 1.398 . S
C4907 C4913 1.491 . S
C4908 H4899 0.950 . S
C4908 C4907 1.398 . S
C4908 C4909 1.391 . S
C4909 H4897 0.950 . S
C4909 C4905 1.393 . S
C4909 C4908 1.391 . S
C4910 H4900 0.950 . S
C4910 C4911 1.386 . S
C4910 C4912 1.391 . S
C4911 C4910 1.386 . S
C4911 C4915 1.393 . S
C4912 H4901 0.950 . S
C4912 C4910 1.391 . S
C4912 C4913 1.400 . S
C4913 C4907 1.491 . S
C4913 C4912 1.400 . S
C4913 C4914 1.398 . S
C4914 H4902 0.950 . S
C4914 C4913 1.398 . S
C4914 C4915 1.391 . S
C4915 H4903 0.950 . S
C4915 C4911 1.393 . S
C4915 C4914 1.391 . S
H4916 C4924 0.950 . S
H4917 C4929 0.950 . S
H4918 C4926 0.950 . S
H4919 C4928 0.950 . S
H4920 C4930 0.950 . S
H4921 C4932 0.950 . S
H4922 C4934 0.950 . S
H4923 C4935 0.950 . S
C4924 H4916 0.950 . S
C4924 C4925 1.386 . S
C4924 C4926 1.391 . S
C4925 C4924 1.386 . S
C4925 C4929 1.393 . S
C4926 H4918 0.950 . S
C4926 C4924 1.391 . S
C4926 C4927 1.400 . S
C4927 C4926 1.400 . S
C4927 C4928 1.398 . S
C4927 C4933 1.491 . S
C4928 H4919 0.950 . S
C4928 C4927 1.398 . S
C4928 C4929 1.391 . S
C4929 H4917 0.950 . S
C4929 C4925 1.393 . S
C4929 C4928 1.391 . S
C4930 H4920 0.950 . S
C4930 C4931 1.386 . S
C4930 C4932 1.391 . S
C4931 C4930 1.386 . S
C4931 C4935 1.393 . S
C4932 H4921 0.950 . S
C4932 C4930 1.391 . S
C4932 C4933 1.400 . S
C4933 C4927 1.491 . S
C4933 C4932 1.400 . S
C4933 C4934 1.398 . S
C4934 H4922 0.950 . S
C4934 C4933 1.398 . S
C4934 C4935 1.391 . S
C4935 H4923 0.950 . S
C4935 C4931 1.393 . S
C4935 C4934 1.391 . S
H4936 C4944 0.950 . S
H4937 C4949 0.950 . S
H4938 C4946 0.950 . S
H4939 C4948 0.950 . S
H4940 C4950 0.950 . S
H4941 C4952 0.950 . S
H4942 C4954 0.950 . S
H4943 C4955 0.950 . S
C4944 H4936 0.950 . S
C4944 C4945 1.386 . S
C4944 C4946 1.391 . S
C4945 C4944 1.386 . S
C4945 C4949 1.393 . S
C4946 H4938 0.950 . S
C4946 C4944 1.391 . S
C4946 C4947 1.400 . S
C4947 C4946 1.400 . S
C4947 C4948 1.398 . S
C4947 C4953 1.491 . S
C4948 H4939 0.950 . S
C4948 C4947 1.398 . S
C4948 C4949 1.391 . S
C4949 H4937 0.950 . S
C4949 C4945 1.393 . S
C4949 C4948 1.391 . S
C4950 H4940 0.950 . S
C4950 C4951 1.386 . S
C4950 C4952 1.391 . S
C4951 C4950 1.386 . S
C4951 C4955 1.393 . S
C4952 H4941 0.950 . S
C4952 C4950 1.391 . S
C4952 C4953 1.400 . S
C4953 C4947 1.491 . S
C4953 C4952 1.400 . S
C4953 C4954 1.398 . S
C4954 H4942 0.950 . S
C4954 C4953 1.398 . S
C4954 C4955 1.391 . S
C4955 H4943 0.950 . S
C4955 C4951 1.393 . S
C4955 C4954 1.391 . S
H4956 C4964 0.950 . S
H4957 C4969 0.950 . S
H4958 C4966 0.950 . S
H4959 C4968 0.950 . S
H4960 C4970 0.950 . S
H4961 C4972 0.950 . S
H4962 C4974 0.950 . S
H4963 C4975 0.950 . S
C4964 H4956 0.950 . S
C4964 C4965 1.386 . S
C4964 C4966 1.391 . S
C4965 C4964 1.386 . S
C4965 C4969 1.393 . S
C4966 H4958 0.950 . S
C4966 C4964 1.391 . S
C4966 C4967 1.400 . S
C4967 C4966 1.400 . S
C4967 C4968 1.398 . S
C4967 C4973 1.491 . S
C4968 H4959 0.950 . S
C4968 C4967 1.398 . S
C4968 C4969 1.391 . S
C4969 H4957 0.950 . S
C4969 C4965 1.393 . S
C4969 C4968 1.391 . S
C4970 H4960 0.950 . S
C4970 C4971 1.386 . S
C4970 C4972 1.391 . S
C4971 C4970 1.386 . S
C4971 C4975 1.393 . S
C4972 H4961 0.950 . S
C4972 C4970 1.391 . S
C4972 C4973 1.400 . S
C4973 C4967 1.491 . S
C4973 C4972 1.400 . S
C4973 C4974 1.398 . S
C4974 H4962 0.950 . S
C4974 C4973 1.398 . S
C4974 C4975 1.391 . S
C4975 H4963 0.950 . S
C4975 C4971 1.393 . S
C4975 C4974 1.391 . S
C3071 C1331 1.133 . S
C3065 C21 1.114 . S
C3091 C1405 1.253 . S
C3085 C42 1.220 . S
C3105 C82 1.584 . S
C3111 C1497 1.586 . S
C3131 C1565 1.920 . S
C3125 C135 1.937 . S
C3145 C175 1.669 . S
C3151 C1571 1.671 . S
C3165 C221 2.036 . S
C3171 C1319 1.932 . S
C3185 C255 1.724 . S
C3191 C1393 1.664 . S
C3211 C1491 2.098 . S
C3205 C301 2.025 . S
C3231 C1627 0.891 . S
C3225 C15 0.891 . S
C3245 C55 0.951 . S
C3251 C1701 0.961 . S
C3265 C101 1.576 . S
C3271 C1787 1.556 . S
C3291 C1849 1.995 . S
C3285 C141 1.911 . S
C3305 C162 1.565 . S
C3311 C1923 1.547 . S
C3331 C2009 1.598 . S
C3325 C215 1.568 . S
C3345 C261 1.627 . S
C3351 C2059 1.593 . S
C3371 C2157 1.910 . S
C3365 C282 1.835 . S
C3385 C2 0.974 . S
C3391 C1837 0.974 . S
C3405 C181 1.724 . S
C3411 C2015 1.696 . S
C3431 C2071 1.670 . S
C3425 C202 1.661 . S
C3445 C242 1.967 . S
C3451 C2163 1.951 . S
C3471 C1911 2.077 . S
C3465 C295 2.097 . S
C3491 C1689 1.757 . S
C3485 C95 1.842 . S
C3505 C122 1.927 . S
C3511 C1793 2.024 . S
C3531 C1615 1.326 . S
C3525 C61 1.354 . S
C3551 C2207 2.491 . S
C3545 C341 2.574 . S
C3565 C362 1.493 . S
C3571 C2281 1.468 . S
C3585 C402 2.163 . S
C3591 C2385 2.157 . S
C3611 C2429 1.735 . S
C3605 C455 1.855 . S
C3625 C495 1.342 . S
C3631 C2441 1.371 . S
C3645 C541 1.657 . S
C3651 C2219 1.714 . S
C3665 C575 1.712 . S
C3671 C2293 1.737 . S
C3685 C621 1.660 . S
C3691 C2379 1.708 . S
C3711 C1935 2.131 . S
C3705 C335 2.088 . S
C3725 C375 1.628 . S
C3731 C2515 1.589 . S
C3751 C2089 1.933 . S
C3745 C421 1.941 . S
C3765 C461 1.890 . S
C3771 C2607 1.917 . S
C3785 C482 1.144 . S
C3791 C1639 1.166 . S
C3811 C2651 1.160 . S
C3805 C535 1.141 . S
C3825 C581 1.549 . S
C3831 C1775 1.622 . S
C3851 C2749 1.825 . S
C3845 C602 1.727 . S
C3865 C322 2.030 . S
C3871 C2601 2.036 . S
C3891 C2663 1.699 . S
C3885 C501 1.709 . S
C3905 C522 1.352 . S
C3911 C1763 1.430 . S
C3931 C2755 1.791 . S
C3925 C562 1.681 . S
C3945 C615 2.167 . S
C3951 C1645 2.201 . S
C3965 C415 1.947 . S
C3971 C2503 1.921 . S
C3985 C442 1.664 . S
C3991 C2083 1.676 . S
C4005 C381 1.668 . S
C4011 C1941 1.668 . S
C4025 C661 1.519 . S
C4031 C2355 1.465 . S
C4051 C2459 2.137 . S
C4045 C682 2.076 . S
C4065 C722 1.996 . S
C4071 C2237 1.990 . S
C4085 C775 2.249 . S
C4091 C2311 2.232 . S
C4105 C815 1.696 . S
C4111 C2305 1.682 . S
C4125 C861 1.470 . S
C4131 C2367 1.465 . S
C4151 C2453 1.798 . S
C4145 C895 1.837 . S
C4165 C941 1.715 . S
C4171 C2231 1.844 . S
C4191 C2823 1.279 . S
C4185 C655 1.309 . S
C4205 C695 1.633 . S
C4211 C1997 1.635 . S
C4231 C2903 1.812 . S
C4225 C741 1.802 . S
C4245 C781 1.717 . S
C4251 C2145 1.775 . S
C4265 C802 1.872 . S
C4271 C2977 1.885 . S
C4285 C855 1.223 . S
C4291 C1713 1.211 . S
C4311 C3033 1.735 . S
C4305 C901 1.686 . S
C4325 C922 2.115 . S
C4331 C1861 2.281 . S
C4351 C2133 1.498 . S
C4345 C642 1.523 . S
C4371 C1719 2.233 . S
C4365 C821 2.263 . S
C4385 C842 1.792 . S
C4391 C3021 1.695 . S
C4405 C882 1.860 . S
C4411 C1867 1.919 . S
C4431 C2971 2.268 . S
C4425 C935 2.189 . S
C4451 C1985 1.771 . S
C4445 C735 1.791 . S
C4471 C2897 1.970 . S
C4465 C762 1.923 . S
C4491 C2829 2.026 . S
C4485 C701 1.958 . S
C4505 C981 1.765 . S
C4511 C1467 1.841 . S
C4525 C1002 1.273 . S
C4531 C1553 1.358 . S
C4551 C1343 1.886 . S
C4545 C1042 1.885 . S
C4571 C1417 1.665 . S
C4565 C1095 1.687 . S
C4591 C1423 1.822 . S
C4585 C1135 1.826 . S
C4611 C1479 1.833 . S
C4605 C1181 1.823 . S
C4631 C1541 1.252 . S
C4625 C1215 1.307 . S
C4645 C1261 1.988 . S
C4651 C1349 1.992 . S
C4665 C975 1.495 . S
C4671 C2947 1.512 . S
C4691 C2681 1.744 . S
C4685 C1015 1.695 . S
C4711 C3045 2.130 . S
C4705 C1061 2.117 . S
C4731 C2737 1.760 . S
C4725 C1101 1.681 . S
C4745 C1122 1.530 . S
C4751 C2811 1.502 . S
C4771 C2527 1.494 . S
C4765 C1175 1.426 . S
C4791 C2873 1.235 . S
C4785 C1221 1.285 . S
C4805 C1242 1.724 . S
C4811 C2577 1.714 . S
C4831 C2725 1.881 . S
C4825 C962 1.786 . S
C4851 C2533 1.917 . S
C4845 C1141 1.974 . S
C4871 C2885 1.857 . S
C4865 C1162 1.838 . S
C4885 C1202 1.354 . S
C4891 C2589 1.336 . S
C4905 C1255 1.643 . S
C4911 C2799 1.626 . S
C4925 C1055 2.129 . S
C4931 C2675 2.204 . S
C4945 C1082 2.086 . S
C4951 C3051 2.169 . S
C4971 C2959 1.706 . S
C4965 C1021 1.600 . S
