# Generated by pormake.
# Topology rtl, (3,6)-cn, num edge types: 1
# Building blocks:
#     Node 0, Type 0, BuildingBlock: BETDIP_clean_linker_0, # of connection points: 3
#     Node 1, Type 0, BuildingBlock: BETDIP_clean_linker_0, # of connection points: 3
#     Node 2, Type 0, BuildingBlock: BETDIP_clean_linker_0, # of connection points: 3
#     Node 3, Type 0, BuildingBlock: BETDIP_clean_linker_0, # of connection points: 3
#     Node 4, Type 1, BuildingBlock: KUMBUR_clean_sbu_1, # of connection points: 6
#     Node 5, Type 1, BuildingBlock: KUMBUR_clean_sbu_1, # of connection points: 6
#     Edge 6, Type (0, 1), BuildingBlock: ZUJKAS_clean_linker_0, # of connection points: 2
#     Edge 7, Type (0, 1), BuildingBlock: ZUJKAS_clean_linker_0, # of connection points: 2
#     Edge 8, Type (0, 1), BuildingBlock: ZUJKAS_clean_linker_0, # of connection points: 2
#     Edge 9, Type (0, 1), BuildingBlock: ZUJKAS_clean_linker_0, # of connection points: 2
#     Edge 10, Type (0, 1), BuildingBlock: ZUJKAS_clean_linker_0, # of connection points: 2
#     Edge 11, Type (0, 1), BuildingBlock: ZUJKAS_clean_linker_0, # of connection points: 2
#     Edge 12, Type (0, 1), BuildingBlock: ZUJKAS_clean_linker_0, # of connection points: 2
#     Edge 13, Type (0, 1), BuildingBlock: ZUJKAS_clean_linker_0, # of connection points: 2
#     Edge 14, Type (0, 1), BuildingBlock: ZUJKAS_clean_linker_0, # of connection points: 2
#     Edge 15, Type (0, 1), BuildingBlock: ZUJKAS_clean_linker_0, # of connection points: 2
#     Edge 16, Type (0, 1), BuildingBlock: ZUJKAS_clean_linker_0, # of connection points: 2
#     Edge 17, Type (0, 1), BuildingBlock: ZUJKAS_clean_linker_0, # of connection points: 2
# Relax obj value: 0.051
# Max RMSD: 0.207
# Mean RMSD: 0.154
data_MOF--net-rtl--node1-KUMBUR_clean_sbu_1--node2-BETDIP_clean_linker_0--edge1-ZUJKAS_clean_linker_0
_symmetry_space_group_name_H-M    P1
_symmetry_Int_Tables_number       1
_symmetry_cell_setting            triclinic
loop_
_symmetry_equiv_pos_as_xyz
'x, y, z'
_cell_length_a     45.269357
_cell_length_b     45.317488
_cell_length_c     34.089473
_cell_angle_alpha  80.977878
_cell_angle_beta   99.751716
_cell_angle_gamma 91.152083
loop_
_atom_site_label
_atom_site_type_symbol
_atom_site_fract_x
_atom_site_fract_y
_atom_site_fract_z
_atom_type_partial_charge
H0 H 0.23865 0.83563 0.96506 0.0
H1 H 0.24832 0.82607 0.09433 0.0
H2 H 0.1854 0.88955 0.01973 0.0
H3 H 0.28784 0.79834 0.09508 0.0
C4 C 0.2871 0.79116 0.06605 0.0
C5 C 0.23256 0.84241 0.99176 0.0
C6 C 0.21044 0.86439 0.98787 0.0
C7 C 0.2465 0.82845 0.0298 0.0
C8 C 0.23816 0.83673 0.06465 0.0
C9 C 0.21634 0.8591 0.06118 0.0
C10 C 0.20257 0.87263 0.02268 0.0
N11 N 0.26804 0.80573 0.03121 0.0
H12 H 0.7061 0.72864 0.68696 0.0
H13 H 0.71528 0.72259 0.56486 0.0
H14 H 0.66232 0.65825 0.62784 0.0
H15 H 0.71924 0.77433 0.56368 0.0
C16 C 0.73553 0.77419 0.59107 0.0
C17 C 0.70107 0.71733 0.6609 0.0
C18 C 0.68224 0.69219 0.66174 0.0
C19 C 0.71268 0.72877 0.62594 0.0
C20 C 0.70585 0.71451 0.59166 0.0
C21 C 0.68776 0.689 0.59235 0.0
C22 C 0.67624 0.67799 0.62744 0.0
N23 N 0.73188 0.75403 0.62633 0.0
H24 H 0.78571 0.19319 0.97544 0.0
H25 H 0.79939 0.18414 0.10468 0.0
H26 H 0.85057 0.13002 0.04784 0.0
H27 H 0.75339 0.20295 0.09447 0.0
C28 C 0.75104 0.21834 0.0663 0.0
C29 C 0.79683 0.18223 1.00461 0.0
C30 C 0.81914 0.16049 0.00717 0.0
C31 C 0.78898 0.19047 0.03945 0.0
C32 C 0.80431 0.17735 0.07744 0.0
C33 C 0.82646 0.15546 0.08059 0.0
C34 C 0.83349 0.14693 0.0454 0.0
N35 N 0.76644 0.21278 0.03509 0.0
H36 H 0.33674 0.29881 0.39266 0.0
H37 H 0.33115 0.3001 0.51697 0.0
H38 H 0.38788 0.36257 0.4572 0.0
H39 H 0.32513 0.24913 0.51529 0.0
C40 C 0.30857 0.25036 0.48796 0.0
C41 C 0.34372 0.30816 0.42011 0.0
C42 C 0.36354 0.3325 0.42043 0.0
C43 C 0.33265 0.29579 0.4551 0.0
C44 C 0.34085 0.30848 0.4905 0.0
C45 C 0.36047 0.33287 0.4914 0.0
C46 C 0.37195 0.34442 0.45635 0.0
N47 N 0.31233 0.27142 0.45356 0.0
Tb48 Tb 0.03816 0.98159 0.51279 0.0
C49 C 0.96597 0.09638 0.49218 0.0
N50 N 0.99406 0.09049 0.51325 0.0
C51 C 1.01093 0.13793 0.48344 0.0
C52 C 0.95936 0.12328 0.46534 0.0
C53 C 0.01638 0.11098 0.50987 0.0
C54 C 0.98233 0.14407 0.46095 0.0
C55 C 0.91441 0.08069 0.47684 0.0
C56 C 0.94394 0.07514 0.49762 0.0
C57 C 0.90772 0.10733 0.44973 0.0
C58 C 0.93015 0.12855 0.44393 0.0
Tb59 Tb 1.0002 0.04646 0.55656 0.0
N60 N 0.95118 0.04972 0.52451 0.0
C61 C 0.89223 0.05983 0.48502 0.0
C62 C 0.92887 0.03109 0.53555 0.0
C63 C 0.8994 0.03521 0.51509 0.0
H64 H 0.03826 0.10671 0.52792 0.0
H65 H 0.88206 0.01987 0.52342 0.0
H66 H 0.99161 0.92416 0.50974 0.0
H67 H 0.15232 0.99093 0.589 0.0
H68 H 0.93313 0.01373 0.56123 0.0
H69 H 0.86927 0.06325 0.46968 0.0
H70 H 0.10647 0.00851 0.54266 0.0
H71 H 0.02872 0.15404 0.48065 0.0
H72 H 0.88514 0.11196 0.43357 0.0
H73 H 0.9246 0.14907 0.42311 0.0
H74 H 0.99068 0.87181 0.54311 0.0
H75 H 0.97816 0.165 0.44056 0.0
H76 H 0.15571 0.9391 0.62531 0.0
N77 N 0.03522 0.93252 0.54009 0.0
C78 C 0.06005 0.92073 0.56547 0.0
C79 C 1.01026 0.88539 0.54991 0.0
C80 C 0.06078 0.8908 0.58467 0.0
C81 C 1.01064 0.91522 0.53154 0.0
C82 C 0.03538 0.87315 0.57674 0.0
N83 N 0.08252 0.96814 0.55478 0.0
C84 C 0.10683 0.98637 0.55935 0.0
C85 C 0.11075 0.92779 0.59914 0.0
C86 C 0.08463 0.93905 0.57277 0.0
C87 C 0.13517 0.94689 0.60543 0.0
C88 C 0.13327 0.97621 0.58516 0.0
H89 H 0.03503 0.85004 0.59091 0.0
H90 H 0.08768 0.85658 0.62627 0.0
H91 H 0.13152 0.88891 0.63867 0.0
O92 O 0.06632 0.98916 0.46918 0.0
O93 O 0.03921 0.97636 0.57811 0.0
O94 O 0.03914 0.02364 0.59571 0.0
O95 O 0.0373 0.95114 0.47188 0.0
O96 O 0.05703 0.02699 0.50465 0.0
O97 O 0.0484 0.05097 0.55723 0.0
O98 O 0.97673 0.0471 0.6049 0.0
O99 O 1.00346 0.05118 0.49215 0.0
O100 O 0.99795 1.00384 0.47637 0.0
O101 O 1.00711 0.08218 0.58969 0.0
O102 O 0.98475 0.9999 0.56925 0.0
O103 O 0.98991 0.9789 0.51313 0.0
C104 C 0.04617 0.99506 0.60395 0.0
C105 C 0.04848 0.97157 0.40829 0.0
C106 C 0.05994 0.96534 0.34265 0.0
C107 C 0.03453 0.98276 0.324 0.0
C108 C 0.02322 0.98875 0.38916 0.0
C109 C 0.0163 0.99432 0.3472 0.0
C110 C 0.06672 0.95981 0.38501 0.0
C111 C 0.0634 0.0476 0.52825 0.0
C112 C 0.05643 0.96617 0.45241 0.0
C113 C 0.08669 0.87953 0.61118 0.0
C114 C 0.11165 0.89795 0.61829 0.0
C115 C 0.99323 0.03278 0.46705 0.0
C116 C 0.96414 0.0955 0.61422 0.0
C117 C 0.92818 0.11321 0.65145 0.0
C118 C 0.92022 0.13688 0.61959 0.0
C119 C 0.95634 0.11981 0.5833 0.0
C120 C 0.9501 0.09244 0.6484 0.0
C121 C 0.93431 0.14013 0.58584 0.0
C122 C 0.97713 0.98005 0.54484 0.0
C123 C 0.98678 0.07325 0.61143 0.0
H124 H 0.02855 0.98712 0.29148 0.0
H125 H 1.00896 0.99783 0.40663 0.0
H126 H 0.99673 1.00761 0.33264 0.0
H127 H 0.08643 0.94679 0.39989 0.0
H128 H 0.9037 0.15339 0.62127 0.0
H129 H 0.96742 0.1234 0.55737 0.0
H130 H 0.95622 0.07389 0.67254 0.0
H131 H 0.92841 0.15872 0.56178 0.0
Tb132 Tb 0.49009 0.49581 0.99746 0.0
C133 C 0.61206 0.545 0.04722 0.0
N134 N 0.59947 0.52024 0.06551 0.0
C135 C 0.64397 0.49199 0.06622 0.0
C136 C 0.64046 0.54385 0.03575 0.0
C137 C 0.61602 0.49452 0.07775 0.0
C138 C 0.65597 0.5166 0.04431 0.0
C139 C 0.61052 0.59877 0.02714 0.0
C140 C 0.59742 0.57204 0.0429 0.0
C141 C 0.63806 0.59761 0.01365 0.0
C142 C 0.65296 0.57016 0.01781 0.0
Tb143 Tb 0.55256 0.52701 0.08016 0.0
N144 N 0.57048 0.57215 0.05523 0.0
C145 C 0.59572 0.62582 0.02606 0.0
C146 C 0.55664 0.59847 0.05626 0.0
C147 C 0.56887 0.62568 0.04125 0.0
H148 H 0.60813 0.47599 0.09712 0.0
H149 H 0.55757 0.64649 0.04128 0.0
H150 H 0.427 0.52464 0.01021 0.0
H151 H 0.51901 0.38106 0.99262 0.0
H152 H 0.53592 0.59833 0.06806 0.0
H153 H 0.60507 0.64688 0.01425 0.0
H154 H 0.52178 0.43573 0.97472 0.0
H155 H 0.65652 0.47124 0.07502 0.0
H156 H 0.64833 0.61784 1.00082 0.0
H157 H 0.6746 0.56967 0.00834 0.0
H158 H 0.38124 0.50691 0.03739 0.0
H159 H 0.67784 0.51473 0.03598 0.0
H160 H 0.4802 0.35866 0.03109 0.0
N161 N 0.4469 0.48144 0.02084 0.0
C162 C 0.44325 0.45171 0.03184 0.0
C163 C 0.39864 0.49117 0.03632 0.0
C164 C 0.41774 0.44051 0.04763 0.0
C165 C 0.42452 0.50116 0.02105 0.0
C166 C 0.39546 0.46075 0.05033 0.0
N167 N 0.48761 0.44457 0.00738 0.0
C168 C 0.50584 0.4264 0.99342 0.0
C169 C 0.46136 0.40144 0.035 0.0
C170 C 0.46473 0.4326 0.02563 0.0
C171 C 0.48193 0.38275 0.02439 0.0
C172 C 0.50389 0.3953 1.00273 0.0
H173 H 0.37546 0.45306 0.06228 0.0
H174 H 0.39579 0.40046 0.07186 0.0
H175 H 0.43408 0.36616 0.06086 0.0
O176 O 0.47022 0.47967 0.94375 0.0
O177 O 0.48286 0.49429 0.05999 0.0
O178 O 0.52918 0.4858 0.09942 0.0
O179 O 0.46932 0.5269 0.94898 0.0
O180 O 0.53647 0.47891 0.00635 0.0
O181 O 0.55536 0.47961 0.0736 0.0
O182 O 0.54212 0.5454 0.12903 0.0
O183 O 0.54115 0.54998 0.01756 0.0
O184 O 0.53254 0.51211 0.98029 0.0
O185 O 0.5858 0.52716 0.13151 0.0
O186 O 0.50738 0.54573 0.07318 0.0
O187 O 0.48302 0.54164 0.00818 0.0
C188 C 0.50005 0.48152 0.09297 0.0
C189 C 0.44477 0.51377 0.88515 0.0
C190 C 0.42606 0.50053 0.81852 0.0
C191 C 0.41269 0.52902 0.80677 0.0
C192 C 0.43137 0.54211 0.87244 0.0
C193 C 0.41537 0.54959 0.83356 0.0
C194 C 0.44193 0.49293 0.85811 0.0
C195 C 0.55373 0.46772 0.04038 0.0
C196 C 0.46169 0.50646 0.92648 0.0
C197 C 0.41504 0.40956 0.05916 0.0
C198 C 0.43688 0.39004 0.05297 0.0
C199 C 0.54338 0.53859 0.98511 0.0
C200 C 0.56804 0.52535 0.1929 0.0
C201 C 0.57885 0.5295 0.26446 0.0
C202 C 0.56648 0.50095 0.27329 0.0
C203 C 0.55594 0.49692 0.20222 0.0
C204 C 0.57957 0.54144 0.22395 0.0
C205 C 0.55517 0.48481 0.24231 0.0
C206 C 0.48677 0.55421 0.04119 0.0
C207 C 0.56819 0.53912 0.15104 0.0
H208 H 0.39981 0.53536 0.7769 0.0
H209 H 0.43309 0.55852 0.89265 0.0
H210 H 0.40496 0.57142 0.82414 0.0
H211 H 0.45252 0.47115 0.86755 0.0
H212 H 0.56513 0.49125 0.30404 0.0
H213 H 0.54703 0.48425 0.17858 0.0
H214 H 0.58927 0.56323 0.21641 0.0
H215 H 0.5456 0.46293 0.24938 0.0
H216 H 0.30029 0.20519 0.54678 0.0
H217 H 0.25825 0.17043 0.54823 0.0
H218 H 0.21746 0.21296 0.42983 0.0
H219 H 0.25958 0.2479 0.42819 0.0
H220 H 0.1781 0.2039 0.48856 0.0
H221 H 0.23964 0.10035 0.48316 0.0
H222 H 0.25708 0.12158 0.52103 0.0
H223 H 0.25396 0.13723 0.46868 0.0
C224 C 0.28246 0.20697 0.52093 0.0
C225 C 0.28329 0.22909 0.48732 0.0
C226 C 0.25854 0.18704 0.52173 0.0
C227 C 0.23494 0.18887 0.48893 0.0
C228 C 0.23557 0.21107 0.45533 0.0
H229 H 0.09413 0.05477 0.46469 0.0
H230 H 0.13481 0.08963 0.45286 0.0
C231 C 0.25966 0.23095 0.45441 0.0
C232 C 0.20921 0.16816 0.49058 0.0
H233 H 0.19103 0.09414 0.50124 0.0
C234 C 0.18084 0.17992 0.49099 0.0
C235 C 0.21278 0.13693 0.49331 0.0
C236 C 0.24244 0.1232 0.49116 0.0
C237 C 0.15613 0.16116 0.49542 0.0
C238 C 0.16003 0.12982 0.49999 0.0
C239 C 0.18816 0.11815 0.49818 0.0
C240 C 0.13529 0.10876 0.50724 0.0
C241 C 0.12604 0.17502 0.49509 0.0
C242 C 0.1224 0.10759 0.5421 0.0
C243 C 0.09922 0.08762 0.54907 0.0
C244 C 0.08845 0.06838 0.5213 0.0
C245 C 0.10177 0.0693 0.48669 0.0
C246 C 0.12502 0.08924 0.47982 0.0
H247 H 0.12496 0.19885 0.48083 0.0
H248 H 0.10766 0.16274 0.47878 0.0
H249 H 0.12219 0.17398 0.52657 0.0
H250 H 0.13044 0.12199 0.56412 0.0
H251 H 0.08977 0.08729 0.57628 0.0
H252 H 0.32781 0.76088 0.12568 0.0
H253 H 0.36206 0.72086 0.12061 0.0
H254 H 0.32602 0.7263 0.99417 0.0
H255 H 0.29217 0.76641 0.99886 0.0
H256 H 0.34834 0.66532 0.09679 0.0
H257 H 0.41618 0.73263 0.99446 0.0
H258 H 0.39138 0.74941 0.02108 0.0
H259 H 0.37656 0.73425 0.97614 0.0
C260 C 0.32734 0.75358 0.0968 0.0
C261 C 0.3075 0.76689 0.06269 0.0
C262 C 0.34685 0.73075 0.09394 0.0
C263 C 0.34692 0.72097 0.05686 0.0
C264 C 0.32682 0.73397 0.02286 0.0
H265 H 0.44389 0.5821 0.98074 0.0
H266 H 0.40945 0.62209 0.9846 0.0
C267 C 0.30735 0.7568 0.02568 0.0
C268 C 0.36752 0.69668 0.05393 0.0
H269 H 0.42447 0.68016 0.00661 0.0
C270 C 0.36509 0.66859 0.07724 0.0
C271 C 0.38928 0.701 0.02827 0.0
C272 C 0.39378 0.73101 1.00381 0.0
C273 C 0.38357 0.64457 0.07517 0.0
C274 C 0.40531 0.64891 0.04954 0.0
C275 C 0.40769 0.67693 0.02613 0.0
C276 C 0.4262 0.62475 0.04724 0.0
C277 C 0.37938 0.61458 0.09989 0.0
C278 C 0.44726 0.61334 0.08104 0.0
C279 C 0.467 0.59056 0.07898 0.0
C280 C 0.4661 0.57875 0.04299 0.0
C281 C 0.44514 0.59052 0.009 0.0
C282 C 0.42546 0.61341 0.01109 0.0
H283 H 0.35734 0.61305 0.11027 0.0
H284 H 0.38117 0.59621 0.08232 0.0
H285 H 0.39721 0.6112 0.1269 0.0
H286 H 0.44852 0.62216 0.10902 0.0
H287 H 0.48287 0.58217 0.10574 0.0
H288 H 0.743 0.81882 0.53106 0.0
H289 H 0.78483 0.85384 0.52816 0.0
H290 H 0.82638 0.81322 0.64712 0.0
H291 H 0.78446 0.77818 0.65034 0.0
H292 H 0.80787 0.89496 0.58655 0.0
H293 H 0.89041 0.81003 0.57027 0.0
H294 H 0.85042 0.80444 0.55913 0.0
H295 H 0.869 0.80103 0.61047 0.0
C296 C 0.76099 0.81748 0.55668 0.0
C297 C 0.76049 0.79582 0.59087 0.0
C298 C 0.78481 0.83748 0.55499 0.0
C299 C 0.80875 0.83596 0.58729 0.0
C300 C 0.8082 0.81458 0.62176 0.0
H301 H 0.95689 0.9624 0.61608 0.0
H302 H 0.91608 0.92755 0.6285 0.0
C303 C 0.7842 0.79467 0.6236 0.0
C304 C 0.83441 0.85655 0.58438 0.0
H305 H 0.90775 0.85932 0.5717 0.0
C306 C 0.82978 0.88719 0.58363 0.0
C307 C 0.86284 0.8463 0.58019 0.0
C308 C 0.86865 0.8137 0.57977 0.0
C309 C 0.85292 0.90788 0.57873 0.0
C310 C 0.88129 0.89761 0.57441 0.0
C311 C 0.88596 0.867 0.57527 0.0
C312 C 0.906 0.91857 0.56721 0.0
C313 C 0.84685 0.94068 0.57721 0.0
C314 C 0.91377 0.92492 0.52869 0.0
C315 C 0.93679 0.94498 0.52141 0.0
C316 C 0.95278 0.95871 0.5527 0.0
C317 C 0.94499 0.95218 0.59136 0.0
C318 C 0.92174 0.93229 0.59853 0.0
H319 H 0.82277 0.94536 0.57663 0.0
H320 H 0.86011 0.94847 0.6041 0.0
H321 H 0.85401 0.95383 0.55013 0.0
H322 H 0.90175 0.9146 0.50413 0.0
H323 H 0.94191 0.9499 0.49116 0.0
H324 H 0.72046 0.23434 0.12131 0.0
H325 H 0.68675 0.27725 0.11375 0.0
H326 H 0.70197 0.30388 0.99173 0.0
H327 H 0.73564 0.26094 0.99903 0.0
H328 H 0.70129 0.33916 0.09316 0.0
H329 H 0.60919 0.30182 0.98212 0.0
H330 H 0.63755 0.2765 0.01224 0.0
H331 H 0.6462 0.30164 0.96957 0.0
C332 C 0.7165 0.2493 0.09282 0.0
C333 C 0.73056 0.24427 0.06077 0.0
C334 C 0.6973 0.27377 0.08857 0.0
C335 C 0.69163 0.29352 0.05206 0.0
C336 C 0.7057 0.28862 0.01995 0.0
H337 H 0.57836 0.45291 0.97826 0.0
H338 H 0.6124 0.41106 0.98027 0.0
C339 C 0.72503 0.26416 0.02424 0.0
C340 C 0.67153 0.31961 0.04815 0.0
H341 H 0.60411 0.34968 0.99953 0.0
C342 C 0.68004 0.34149 0.07271 0.0
C343 C 0.64394 0.32262 0.02125 0.0
C344 C 0.63343 0.29935 0.99493 0.0
C345 C 0.66169 0.36642 0.07103 0.0
C346 C 0.63378 0.36914 0.04475 0.0
C347 C 0.62547 0.34747 0.01974 0.0
C348 C 0.6127 0.39406 0.04331 0.0
C349 C 0.67258 0.38985 0.09697 0.0
C350 C 0.60115 0.398 0.07786 0.0
C351 C 0.58175 0.42181 0.07676 0.0
C352 C 0.57335 0.44195 0.04099 0.0
C353 C 0.58438 0.43761 0.00617 0.0
C354 C 0.60386 0.41381 0.00732 0.0
H355 H 0.6973 0.38884 0.10647 0.0
H356 H 0.66621 0.41264 0.0808 0.0
H357 H 0.66219 0.386 0.12457 0.0
H358 H 0.60712 0.38262 0.1057 0.0
H359 H 0.5733 0.42448 0.1039 0.0
H360 H 0.20758 0.91568 0.07491 0.0
H361 H 0.18494 0.93063 0.12901 0.0
H362 H 0.18109 0.83838 0.18325 0.0
H363 H 0.20336 0.82309 0.12862 0.0
H364 H 0.12537 0.90551 0.14327 0.0
H365 H 0.21544 0.88747 0.27822 0.0
H366 H 0.22373 0.89429 0.22754 0.0
H367 H 0.20915 0.85885 0.24654 0.0
C368 C 0.20218 0.89856 0.09854 0.0
C369 C 0.20693 0.86817 0.09727 0.0
C370 C 0.18941 0.90717 0.1295 0.0
C371 C 0.18144 0.88561 0.16005 0.0
C372 C 0.18743 0.85534 0.1601 0.0
H373 H 0.08387 0.90897 0.35393 0.0
H374 H 0.11376 0.88828 0.31092 0.0
C375 C 0.20018 0.84666 0.12896 0.0
C376 C 0.16412 0.89483 0.18922 0.0
H377 H 0.16871 0.90515 0.28714 0.0
C378 C 0.13478 0.90538 0.17477 0.0
C379 C 0.17643 0.89425 0.23026 0.0
C380 C 0.20797 0.88325 0.24683 0.0
C381 C 0.11742 0.91571 0.20022 0.0
C382 C 0.13006 0.91623 0.24102 0.0
C383 C 0.15918 0.90494 0.25577 0.0
C384 C 0.11348 0.92911 0.26836 0.0
C385 C 0.08559 0.92571 0.18322 0.0
C386 C 0.10408 0.95909 0.2592 0.0
C387 C 0.08698 0.9709 0.28356 0.0
C388 C 0.07923 0.95305 0.31785 0.0
C389 C 0.08958 0.9233 0.32779 0.0
C390 C 0.10659 0.91144 0.30323 0.0
H391 H 0.07668 0.91583 0.15577 0.0
H392 H 0.07056 0.9195 0.20574 0.0
H393 H 0.08499 0.95038 0.17469 0.0
H394 H 0.10981 0.97332 0.23298 0.0
H395 H 0.07987 0.99406 0.27559 0.0
H396 H 0.70686 0.6883 0.74224 0.0
H397 H 0.68424 0.66643 0.80044 0.0
H398 H 0.60424 0.64658 0.72073 0.0
H399 H 0.6256 0.67029 0.66302 0.0
H400 H 0.58931 0.66536 0.78238 0.0
H401 H 0.67812 0.57913 0.83862 0.0
H402 H 0.69191 0.61662 0.83676 0.0
H403 H 0.67624 0.6031 0.79078 0.0
C404 C 0.68427 0.6797 0.73714 0.0
C405 C 0.66832 0.68059 0.69775 0.0
C406 C 0.67153 0.66676 0.77047 0.0
C407 C 0.64284 0.654 0.765 0.0
C408 C 0.62654 0.6559 0.72583 0.0
H409 H 0.5687 0.51783 0.92744 0.0
H410 H 0.59249 0.54706 0.87474 0.0
C411 C 0.63899 0.6692 0.69272 0.0
C412 C 0.62947 0.63847 0.7996 0.0
H413 H 0.64034 0.58082 0.87835 0.0
C414 C 0.6005 0.64688 0.80338 0.0
C415 C 0.64386 0.61404 0.8267 0.0
C416 C 0.67411 0.60245 0.82287 0.0
C417 C 0.58533 0.63134 0.83287 0.0
C418 C 0.60001 0.60741 0.86062 0.0
C419 C 0.62915 0.59926 0.85726 0.0
C420 C 0.58523 0.58985 0.89246 0.0
C421 C 0.55329 0.64003 0.83277 0.0
C422 C 0.57316 0.60407 0.91998 0.0
C423 C 0.55881 0.58746 0.94929 0.0
C424 C 0.5573 0.5562 0.95281 0.0
C425 C 0.56953 0.54191 0.92548 0.0
C426 C 0.58335 0.55859 0.89558 0.0
H427 H 0.54268 0.65192 0.80282 0.0
H428 H 0.53954 0.62016 0.84092 0.0
H429 H 0.55287 0.65538 0.85503 0.0
H430 H 0.57486 0.62803 0.91892 0.0
H431 H 0.5489 0.59913 0.96923 0.0
H432 H 0.85218 0.18426 0.14225 0.0
H433 H 0.88069 0.16217 0.20748 0.0
H434 H 0.86586 0.07424 0.17468 0.0
H435 H 0.83783 0.0963 0.10909 0.0
H436 H 0.86407 0.12336 0.26779 0.0
H437 H 0.95548 0.073 0.20991 0.0
H438 H 0.92893 0.09944 0.17829 0.0
H439 H 0.91886 0.06082 0.18983 0.0
C440 C 0.85495 0.16021 0.14905 0.0
C441 C 0.84293 0.14199 0.12058 0.0
C442 C 0.87131 0.14763 0.18622 0.0
C443 C 0.87591 0.1166 0.19567 0.0
C444 C 0.86335 0.09829 0.16762 0.0
H445 H 0.95047 1.00432 0.42049 0.0
H446 H 0.92166 0.02439 0.35433 0.0
C447 C 0.84723 0.11089 0.13027 0.0
C448 C 0.89325 0.10346 0.23529 0.0
H449 H 0.95428 0.05995 0.28001 0.0
C450 C 0.88381 0.10955 0.27039 0.0
C451 C 0.91916 0.08557 0.23869 0.0
C452 C 0.93141 0.07953 0.20219 0.0
C453 C 0.89938 0.09801 0.30873 0.0
C454 C 0.92497 0.07996 0.31203 0.0
C455 C 0.93447 0.07372 0.27714 0.0
C456 C 0.9425 0.06784 0.35165 0.0
C457 C 0.88868 0.10536 0.3456 0.0
C458 C 0.9638 0.08567 0.3716 0.0
C459 C 0.98052 0.07418 0.40902 0.0
C460 C 0.97589 0.04482 0.42724 0.0
C461 C 0.95453 0.02701 0.40708 0.0
C462 C 0.93804 0.03842 0.36945 0.0
H463 H 0.86629 0.11637 0.33825 0.0
H464 H 0.88761 0.08479 0.36779 0.0
H465 H 0.90498 0.12068 0.36 0.0
H466 H 0.96756 0.10842 0.35811 0.0
H467 H 0.99723 0.08818 0.42354 0.0
H468 H 0.3656 0.39241 0.49671 0.0
H469 H 0.37884 0.4156 0.5572 0.0
H470 H 0.38502 0.3287 0.63085 0.0
H471 H 0.37294 0.30514 0.57019 0.0
H472 H 0.34832 0.41248 0.62081 0.0
H473 H 0.46391 0.36704 0.67342 0.0
H474 H 0.44377 0.36537 0.62337 0.0
H475 H 0.43517 0.33963 0.66558 0.0
C476 C 0.37028 0.37813 0.52568 0.0
C477 C 0.36845 0.34686 0.5285 0.0
C478 C 0.37762 0.39146 0.56028 0.0
C479 C 0.38332 0.37389 0.59852 0.0
C480 C 0.38128 0.34268 0.60162 0.0
H481 H 0.4147 0.44022 0.83165 0.0
H482 H 0.40521 0.40649 0.78107 0.0
C483 C 0.37401 0.32927 0.56692 0.0
C484 C 0.39039 0.3886 0.63493 0.0
H485 H 0.44529 0.39726 0.71452 0.0
C486 C 0.36946 0.409 0.64139 0.0
C487 C 0.41796 0.38396 0.66186 0.0
C488 C 0.44166 0.36301 0.6557 0.0
C489 C 0.37556 0.42529 0.67355 0.0
C490 C 0.40335 0.4212 0.69982 0.0
C491 C 0.42398 0.4002 0.69426 0.0
C492 C 0.41196 0.44034 0.73123 0.0
C493 C 0.35249 0.44721 0.67895 0.0
C494 C 0.41962 0.47019 0.71993 0.0
C495 C 0.42522 0.48936 0.74858 0.0
C496 C 0.42312 0.47911 0.78917 0.0
C497 C 0.41662 0.44878 0.8007 0.0
C498 C 0.4111 0.42953 0.77189 0.0
H499 H 0.33023 0.44397 0.6607 0.0
H500 H 0.35005 0.44505 0.71115 0.0
H501 H 0.36001 0.4703 0.66948 0.0
H502 H 0.42066 0.47882 0.68869 0.0
H503 H 0.43079 0.5124 0.7388 0.0
H504 H 0.66792 0.71436 0.51424 0.0
H505 H 0.65031 0.68847 0.4566 0.0
H506 H 0.67322 0.60367 0.53196 0.0
H507 H 0.69046 0.62933 0.58957 0.0
H508 H 0.67763 0.64939 0.4186 0.0
H509 H 0.58496 0.59337 0.48821 0.0
H510 H 0.60596 0.62363 0.50791 0.0
H511 H 0.621 0.58622 0.51933 0.0
C512 C 0.6695 0.69022 0.5183 0.0
C513 C 0.6802 0.67381 0.55645 0.0
C514 C 0.65935 0.67547 0.48546 0.0
C515 C 0.65978 0.64412 0.49028 0.0
C516 C 0.67188 0.62782 0.52786 0.0
H517 H 0.6111 0.50872 0.33906 0.0
H518 H 0.63068 0.53749 0.39275 0.0
C519 C 0.68181 0.6425 0.56068 0.0
C520 C 0.64714 0.62831 0.45633 0.0
H521 H 0.59515 0.5763 0.42924 0.0
C522 C 0.65947 0.63357 0.42077 0.0
C523 C 0.62327 0.60782 0.45917 0.0
C524 C 0.6078 0.60261 0.49554 0.0
C525 C 0.64915 0.61817 0.38842 0.0
C526 C 0.62581 0.5972 0.39174 0.0
C527 C 0.61322 0.59223 0.42702 0.0
C528 C 0.61414 0.58004 0.35895 0.0
C529 C 0.66366 0.62391 0.35127 0.0
C530 C 0.598 0.59445 0.32245 0.0
C531 C 0.58644 0.57805 0.29189 0.0
C532 C 0.59086 0.5469 0.29723 0.0
C533 C 0.60695 0.53258 0.33405 0.0
C534 C 0.61835 0.54899 0.36466 0.0
H535 H 0.68491 0.63652 0.35636 0.0
H536 H 0.66837 0.60252 0.3414 0.0
H537 H 0.64809 0.63718 0.32641 0.0
H538 H 0.59405 0.61834 0.3178 0.0
H539 H 0.57366 0.58976 0.26429 0.0
H540 H 0.87581 0.15057 0.99386 0.0
H541 H 0.89072 0.13775 0.93299 0.0
H542 H 0.7982 0.14012 0.87534 0.0
H543 H 0.78289 0.15238 0.93652 0.0
H544 H 0.87091 0.08759 0.89042 0.0
H545 H 0.84265 0.1992 0.79834 0.0
H546 H 0.8474 0.19315 0.85268 0.0
H547 H 0.81377 0.18118 0.82358 0.0
C548 C 0.85853 0.148 0.96847 0.0
C549 C 0.82811 0.15251 0.97011 0.0
C550 C 0.86714 0.1408 0.93366 0.0
C551 C 0.84559 0.13823 0.89966 0.0
C552 C 0.81519 0.1424 0.90117 0.0
H553 H 0.86904 0.1195 0.65634 0.0
H554 H 0.84732 0.12186 0.71684 0.0
C555 C 0.80652 0.14951 0.93607 0.0
C556 C 0.85514 0.13165 0.86249 0.0
H557 H 0.86084 0.16275 0.76627 0.0
C558 C 0.86863 0.10393 0.86316 0.0
C559 C 0.85202 0.15301 0.82707 0.0
C560 C 0.83838 0.18342 0.82517 0.0
C561 C 0.87912 0.09696 0.82919 0.0
C562 C 0.87665 0.11861 0.794 0.0
C563 C 0.86269 0.14615 0.79322 0.0
C564 C 0.88932 0.11382 0.75806 0.0
C565 C 0.89244 0.0664 0.8312 0.0
C566 C 0.92009 0.10819 0.76115 0.0
C567 C 0.93252 0.10669 0.72664 0.0
C568 C 0.91446 0.11125 0.68835 0.0
C569 C 0.88354 0.11616 0.68543 0.0
C570 C 0.8711 0.11743 0.71995 0.0
H571 H 0.88415 0.04979 0.8544 0.0
H572 H 0.88712 0.05835 0.80168 0.0
H573 H 0.91716 0.06754 0.83955 0.0
H574 H 0.93474 0.10609 0.79007 0.0
H575 H 0.95648 0.10333 0.72977 0.0
H576 H 0.38428 0.30328 0.36551 0.0
H577 H 0.40766 0.32541 0.30791 0.0
H578 H 0.39379 0.41344 0.33474 0.0
H579 H 0.37022 0.39165 0.39187 0.0
H580 H 0.38595 0.3688 0.2389 0.0
H581 H 0.48492 0.40929 0.33513 0.0
H582 H 0.4595 0.38187 0.3548 0.0
H583 H 0.44966 0.42088 0.34537 0.0
C584 C 0.38589 0.32736 0.35884 0.0
C585 C 0.37572 0.34567 0.38363 0.0
C586 C 0.39936 0.33995 0.32604 0.0
C587 C 0.403 0.37102 0.31758 0.0
C588 C 0.39185 0.38937 0.34131 0.0
H589 H 0.44383 0.48769 0.10927 0.0
H590 H 0.42055 0.4581 0.16205 0.0
C591 C 0.37841 0.37686 0.37399 0.0
C592 C 0.41878 0.38444 0.28436 0.0
H593 H 0.47878 0.42784 0.26489 0.0
C594 C 0.40635 0.38154 0.24454 0.0
C595 C 0.44568 0.40063 0.29185 0.0
C596 C 0.46094 0.40317 0.33411 0.0
C597 C 0.41954 0.39535 0.2119 0.0
C598 C 0.44562 0.41274 0.21936 0.0
C599 C 0.45862 0.41474 0.25923 0.0
C600 C 0.45935 0.42972 0.18621 0.0
C601 C 0.40562 0.39111 0.16972 0.0
C602 C 0.48908 0.42401 0.1827 0.0
C603 C 0.50234 0.44078 0.15227 0.0
C604 C 0.48613 0.46369 0.12508 0.0
C605 C 0.45654 0.46962 0.12904 0.0
C606 C 0.44324 0.45276 0.15925 0.0
H607 H 0.39057 0.37144 0.16973 0.0
H608 H 0.39212 0.4112 0.15488 0.0
H609 H 0.42319 0.38822 0.15149 0.0
H610 H 0.502 0.40651 0.20344 0.0
H611 H 0.5252 0.43574 0.14991 0.0
H612 H 0.23581 0.887 0.92218 0.0
H613 H 0.21025 0.91184 0.8564 0.0
H614 H 0.12503 0.89775 0.89681 0.0
H615 H 0.15044 0.87337 0.96259 0.0
H616 H 0.16862 0.89156 0.80046 0.0
H617 H 0.12135 0.98625 0.8548 0.0
H618 H 0.1498 0.96163 0.886 0.0
H619 H 0.11101 0.9508 0.8801 0.0
C620 C 0.21162 0.88918 0.91692 0.0
C621 C 0.19512 0.87854 0.94757 0.0
C622 C 0.19707 0.90345 0.87945 0.0
C623 C 0.1658 0.90725 0.87203 0.0
C624 C 0.14925 0.8959 0.90227 0.0
H625 H 0.0475 0.93792 0.64344 0.0
H626 H 0.07822 0.91764 0.70761 0.0
C627 C 0.16377 0.88187 0.93977 0.0
C628 C 0.15031 0.92233 0.83234 0.0
H629 H 0.10058 0.97825 0.78793 0.0
C630 C 0.15395 0.91068 0.79765 0.0
C631 C 0.13162 0.94763 0.82862 0.0
C632 C 0.12844 0.96251 0.86432 0.0
C633 C 0.13859 0.92302 0.7595 0.0
C634 C 0.11849 0.94717 0.75612 0.0
C635 C 0.11567 0.95947 0.79061 0.0
C636 C 0.09975 0.95963 0.71725 0.0
C637 C 0.14428 0.9102 0.72318 0.0
C638 C 0.10075 0.99022 0.70203 0.0
C639 C 0.08286 1.00197 0.66553 0.0
C640 C 0.06376 0.98327 0.64366 0.0
C641 C 0.06237 0.95279 0.65935 0.0
C642 C 0.08005 0.94112 0.6959 0.0
H643 H 0.16648 0.89887 0.72888 0.0
H644 H 0.12689 0.89334 0.71607 0.0
H645 H 0.14332 0.92787 0.69648 0.0
H646 H 0.11564 1.00494 0.71817 0.0
H647 H 0.08448 0.02552 0.65402 0.0
loop_
_geom_bond_atom_site_label_1
_geom_bond_atom_site_label_2
_geom_bond_distance
_geom_bond_site_symmetry_2
_ccdc_geom_bond_type
H0 C5 0.930 . S
H1 C8 0.930 . S
H2 C10 0.930 . S
H3 C4 1.016 . S
C4 H3 1.016 . S
C4 N11 1.286 . S
C5 H0 0.930 . S
C5 C6 1.397 . S
C5 C7 1.361 1_556 S
C6 C5 1.397 . S
C6 C10 1.390 1_556 S
C7 C5 1.361 1_554 S
C7 C8 1.393 . S
C7 N11 1.413 . S
C8 H1 0.930 . S
C8 C7 1.393 . S
C8 C9 1.399 . S
C9 C8 1.399 . S
C9 C10 1.381 . S
C10 H2 0.930 . S
C10 C6 1.390 1_554 S
C10 C9 1.381 . S
N11 C4 1.286 . S
N11 C7 1.413 . S
H12 C17 0.930 . S
H13 C20 0.930 . S
H14 C22 0.930 . S
H15 C16 1.016 . S
C16 H15 1.016 . S
C16 N23 1.286 . S
C17 H12 0.930 . S
C17 C18 1.397 . S
C17 C19 1.361 . S
C18 C17 1.397 . S
C18 C22 1.390 . S
C19 C17 1.361 . S
C19 C20 1.393 . S
C19 N23 1.413 . S
C20 H13 0.930 . S
C20 C19 1.393 . S
C20 C21 1.399 . S
C21 C20 1.399 . S
C21 C22 1.381 . S
C22 H14 0.930 . S
C22 C18 1.390 . S
C22 C21 1.381 . S
N23 C16 1.286 . S
N23 C19 1.413 . S
H24 C29 0.930 . S
H25 C32 0.930 . S
H26 C34 0.930 . S
H27 C28 1.016 . S
C28 H27 1.016 . S
C28 N35 1.286 . S
C29 H24 0.930 . S
C29 C30 1.397 . S
C29 C31 1.361 1_556 S
C30 C29 1.397 . S
C30 C34 1.390 1_556 S
C31 C29 1.361 1_554 S
C31 C32 1.393 . S
C31 N35 1.413 . S
C32 H25 0.930 . S
C32 C31 1.393 . S
C32 C33 1.399 . S
C33 C32 1.399 . S
C33 C34 1.381 . S
C34 H26 0.930 . S
C34 C30 1.390 1_554 S
C34 C33 1.381 . S
N35 C28 1.286 . S
N35 C31 1.413 . S
H36 C41 0.930 . S
H37 C44 0.930 . S
H38 C46 0.930 . S
H39 C40 1.016 . S
C40 H39 1.016 . S
C40 N47 1.286 . S
C41 H36 0.930 . S
C41 C42 1.397 . S
C41 C43 1.361 . S
C42 C41 1.397 . S
C42 C46 1.390 . S
C43 C41 1.361 . S
C43 C44 1.393 . S
C43 N47 1.413 . S
C44 H37 0.930 . S
C44 C43 1.393 . S
C44 C45 1.399 . S
C45 C44 1.399 . S
C45 C46 1.381 . S
C46 H38 0.930 . S
C46 C42 1.390 . S
C46 C45 1.381 . S
N47 C40 1.286 . S
N47 C43 1.413 . S
Tb48 N77 2.617 . S
Tb48 N83 2.572 . S
Tb48 O92 2.465 . S
Tb48 O93 2.387 . S
Tb48 O95 2.428 . S
Tb48 O96 2.308 1_565 S
Tb48 O100 2.349 1_465 S
Tb48 O103 2.393 1_455 S
Tb48 C112 2.802 . S
C49 N50 1.379 . S
C49 C52 1.416 . S
C49 C56 1.424 . S
N50 C49 1.379 . S
N50 C53 1.334 1_655 S
N50 Tb59 2.617 . S
C51 C53 1.390 . S
C51 C54 1.339 1_455 S
C51 H71 0.930 . S
C52 C49 1.416 . S
C52 C54 1.416 . S
C52 C58 1.448 . S
C53 N50 1.334 1_455 S
C53 C51 1.390 . S
C53 H64 0.930 . S
C54 C51 1.339 1_655 S
C54 C52 1.416 . S
C54 H75 0.930 . S
C55 C56 1.413 . S
C55 C57 1.427 . S
C55 C61 1.416 . S
C56 C49 1.424 . S
C56 C55 1.413 . S
C56 N60 1.361 . S
C57 C55 1.427 . S
C57 C58 1.328 . S
C57 H72 0.929 . S
C58 C52 1.448 . S
C58 C57 1.328 . S
C58 H73 0.930 . S
Tb59 N50 2.617 . S
Tb59 N60 2.572 . S
Tb59 O94 2.349 1_655 S
Tb59 O97 2.393 1_655 S
Tb59 O98 2.465 . S
Tb59 O99 2.387 . S
Tb59 O101 2.428 . S
Tb59 O102 2.308 1_545 S
Tb59 C123 2.802 . S
N60 C56 1.361 . S
N60 Tb59 2.572 . S
N60 C62 1.340 . S
C61 C55 1.416 . S
C61 C63 1.332 . S
C61 H69 0.931 . S
C62 N60 1.340 . S
C62 C63 1.407 . S
C62 H68 0.930 . S
C63 C61 1.332 . S
C63 C62 1.407 . S
C63 H65 0.929 . S
H64 C53 0.930 . S
H65 C63 0.929 . S
H66 C81 0.930 1_655 S
H67 C88 0.929 . S
H68 C62 0.930 . S
H69 C61 0.931 . S
H70 C84 0.930 . S
H71 C51 0.930 . S
H72 C57 0.929 . S
H73 C58 0.930 . S
H74 C79 0.930 1_655 S
H75 C54 0.930 . S
H76 C87 0.931 . S
N77 Tb48 2.617 . S
N77 C78 1.379 . S
N77 C81 1.334 . S
C78 N77 1.379 . S
C78 C80 1.416 . S
C78 C86 1.424 . S
C79 H74 0.930 1_455 S
C79 C81 1.390 . S
C79 C82 1.339 . S
C80 C78 1.416 . S
C80 C82 1.416 . S
C80 C113 1.448 . S
C81 H66 0.930 1_455 S
C81 N77 1.334 . S
C81 C79 1.390 . S
C82 C79 1.339 . S
C82 C80 1.416 . S
C82 H89 0.930 . S
N83 Tb48 2.572 . S
N83 C84 1.340 . S
N83 C86 1.361 . S
C84 H70 0.930 . S
C84 N83 1.340 . S
C84 C88 1.407 . S
C85 C86 1.413 . S
C85 C87 1.416 . S
C85 C114 1.427 . S
C86 C78 1.424 . S
C86 N83 1.361 . S
C86 C85 1.413 . S
C87 H76 0.931 . S
C87 C85 1.416 . S
C87 C88 1.332 . S
C88 H67 0.929 . S
C88 C84 1.407 . S
C88 C87 1.332 . S
H89 C82 0.930 . S
H90 C113 0.930 . S
H91 C114 0.929 . S
O92 Tb48 2.465 . S
O92 C112 1.264 . S
O93 Tb48 2.387 . S
O93 C104 1.264 . S
O94 Tb59 2.349 1_455 S
O94 C104 1.243 1_545 S
O95 Tb48 2.428 . S
O95 C112 1.256 . S
O96 Tb48 2.308 1_545 S
O96 C111 1.266 . S
O97 Tb59 2.393 1_455 S
O97 C111 1.248 . S
O98 Tb59 2.465 . S
O98 C123 1.264 . S
O99 Tb59 2.387 . S
O99 C115 1.264 . S
O100 Tb48 2.349 1_645 S
O100 C115 1.243 . S
O101 Tb59 2.428 . S
O101 C123 1.256 . S
O102 Tb59 2.308 1_565 S
O102 C122 1.266 . S
O103 Tb48 2.393 1_655 S
O103 C122 1.248 . S
C104 O93 1.264 . S
C104 O94 1.243 1_565 S
C105 C108 1.399 . S
C105 C110 1.383 . S
C105 C112 1.496 . S
C106 C107 1.399 . S
C106 C110 1.389 . S
C107 C106 1.399 . S
C107 C109 1.380 . S
C107 H124 0.929 . S
C108 C105 1.399 . S
C108 C109 1.392 . S
C108 H125 0.929 . S
C109 C107 1.380 . S
C109 C108 1.392 . S
C109 H126 0.929 . S
C110 C105 1.383 . S
C110 C106 1.389 . S
C110 H127 0.931 . S
C111 O96 1.266 . S
C111 O97 1.248 . S
C112 Tb48 2.802 . S
C112 O92 1.264 . S
C112 O95 1.256 . S
C112 C105 1.496 . S
C113 C80 1.448 . S
C113 H90 0.930 . S
C113 C114 1.328 . S
C114 C85 1.427 . S
C114 H91 0.929 . S
C114 C113 1.328 . S
C115 O99 1.264 . S
C115 O100 1.243 . S
C116 C119 1.399 . S
C116 C120 1.383 . S
C116 C123 1.496 . S
C117 C118 1.399 . S
C117 C120 1.389 . S
C118 C117 1.399 . S
C118 C121 1.380 . S
C118 H128 0.929 . S
C119 C116 1.399 . S
C119 C121 1.392 . S
C119 H129 0.929 . S
C120 C116 1.383 . S
C120 C117 1.389 . S
C120 H130 0.931 . S
C121 C118 1.380 . S
C121 C119 1.392 . S
C121 H131 0.929 . S
C122 O102 1.266 . S
C122 O103 1.248 . S
C123 Tb59 2.802 . S
C123 O98 1.264 . S
C123 O101 1.256 . S
C123 C116 1.496 . S
H124 C107 0.929 . S
H125 C108 0.929 . S
H126 C109 0.929 . S
H127 C110 0.931 . S
H128 C118 0.929 . S
H129 C119 0.929 . S
H130 C120 0.931 . S
H131 C121 0.929 . S
Tb132 N161 2.619 . S
Tb132 N167 2.572 1_556 S
Tb132 O176 2.465 . S
Tb132 O177 2.387 1_556 S
Tb132 O179 2.428 . S
Tb132 O180 2.308 1_556 S
Tb132 O184 2.349 . S
Tb132 O187 2.393 1_556 S
Tb132 C196 2.802 . S
C133 N134 1.379 . S
C133 C136 1.416 . S
C133 C140 1.424 . S
N134 C133 1.379 . S
N134 C137 1.334 . S
N134 Tb143 2.617 . S
C135 C137 1.390 . S
C135 C138 1.339 . S
C135 H155 0.930 . S
C136 C133 1.416 . S
C136 C138 1.416 . S
C136 C142 1.448 . S
C137 N134 1.334 . S
C137 C135 1.390 . S
C137 H148 0.930 . S
C138 C135 1.339 . S
C138 C136 1.416 . S
C138 H159 0.930 . S
C139 C140 1.413 . S
C139 C141 1.427 . S
C139 C145 1.416 . S
C140 C133 1.424 . S
C140 C139 1.413 . S
C140 N144 1.361 . S
C141 C139 1.427 . S
C141 C142 1.328 . S
C141 H156 0.929 . S
C142 C136 1.448 . S
C142 C141 1.328 . S
C142 H157 0.930 . S
Tb143 N134 2.617 . S
Tb143 N144 2.572 . S
Tb143 O178 2.349 . S
Tb143 O181 2.393 . S
Tb143 O182 2.465 . S
Tb143 O183 2.387 . S
Tb143 O185 2.428 . S
Tb143 O186 2.308 . S
Tb143 C207 2.802 . S
N144 C140 1.361 . S
N144 Tb143 2.572 . S
N144 C146 1.340 . S
C145 C139 1.416 . S
C145 C147 1.332 . S
C145 H153 0.931 . S
C146 N144 1.340 . S
C146 C147 1.407 . S
C146 H152 0.930 . S
C147 C145 1.332 . S
C147 C146 1.407 . S
C147 H149 0.929 . S
H148 C137 0.930 . S
H149 C147 0.929 . S
H150 C165 0.930 . S
H151 C172 0.929 . S
H152 C146 0.930 . S
H153 C145 0.931 . S
H154 C168 0.930 . S
H155 C135 0.930 . S
H156 C141 0.929 . S
H157 C142 0.930 . S
H158 C163 0.930 . S
H159 C138 0.930 . S
H160 C171 0.931 . S
N161 Tb132 2.619 . S
N161 C162 1.377 1_556 S
N161 C165 1.334 . S
C162 N161 1.377 1_554 S
C162 C164 1.416 . S
C162 C170 1.424 . S
C163 H158 0.930 . S
C163 C165 1.398 . S
C163 C166 1.332 1_556 S
C164 C162 1.416 . S
C164 C166 1.416 . S
C164 C197 1.448 . S
C165 H150 0.930 . S
C165 N161 1.334 . S
C165 C163 1.398 . S
C166 C163 1.332 1_554 S
C166 C164 1.416 . S
C166 H173 0.930 . S
N167 Tb132 2.572 1_554 S
N167 C168 1.340 . S
N167 C170 1.361 . S
C168 H154 0.930 . S
C168 N167 1.340 . S
C168 C172 1.407 . S
C169 C170 1.413 . S
C169 C171 1.416 . S
C169 C198 1.427 . S
C170 C162 1.424 . S
C170 N167 1.361 . S
C170 C169 1.413 . S
C171 H160 0.931 . S
C171 C169 1.416 . S
C171 C172 1.332 . S
C172 H151 0.929 . S
C172 C168 1.407 . S
C172 C171 1.332 . S
H173 C166 0.930 . S
H174 C197 0.930 . S
H175 C198 0.929 . S
O176 Tb132 2.465 . S
O176 C196 1.264 . S
O177 Tb132 2.387 1_554 S
O177 C188 1.264 . S
O178 Tb143 2.349 . S
O178 C188 1.243 . S
O179 Tb132 2.428 . S
O179 C196 1.256 . S
O180 Tb132 2.308 1_554 S
O180 C195 1.266 . S
O181 Tb143 2.393 . S
O181 C195 1.248 . S
O182 Tb143 2.465 . S
O182 C207 1.264 . S
O183 Tb143 2.387 . S
O183 C199 1.264 1_554 S
O184 Tb132 2.349 . S
O184 C199 1.243 . S
O185 Tb143 2.428 . S
O185 C207 1.256 . S
O186 Tb143 2.308 . S
O186 C206 1.266 . S
O187 Tb132 2.393 1_554 S
O187 C206 1.248 . S
C188 O177 1.264 . S
C188 O178 1.243 . S
C189 C192 1.399 . S
C189 C194 1.383 . S
C189 C196 1.496 . S
C190 C191 1.399 . S
C190 C194 1.389 . S
C191 C190 1.399 . S
C191 C193 1.380 . S
C191 H208 0.929 . S
C192 C189 1.399 . S
C192 C193 1.392 . S
C192 H209 0.929 . S
C193 C191 1.380 . S
C193 C192 1.392 . S
C193 H210 0.929 . S
C194 C189 1.383 . S
C194 C190 1.389 . S
C194 H211 0.931 . S
C195 O180 1.266 . S
C195 O181 1.248 . S
C196 Tb132 2.802 . S
C196 O176 1.264 . S
C196 O179 1.256 . S
C196 C189 1.496 . S
C197 C164 1.448 . S
C197 H174 0.930 . S
C197 C198 1.328 . S
C198 C169 1.427 . S
C198 H175 0.929 . S
C198 C197 1.328 . S
C199 O183 1.264 1_556 S
C199 O184 1.243 . S
C200 C203 1.399 . S
C200 C204 1.383 . S
C200 C207 1.496 . S
C201 C202 1.399 . S
C201 C204 1.389 . S
C202 C201 1.399 . S
C202 C205 1.380 . S
C202 H212 0.929 . S
C203 C200 1.399 . S
C203 C205 1.392 . S
C203 H213 0.929 . S
C204 C200 1.383 . S
C204 C201 1.389 . S
C204 H214 0.931 . S
C205 C202 1.380 . S
C205 C203 1.392 . S
C205 H215 0.929 . S
C206 O186 1.266 . S
C206 O187 1.248 . S
C207 Tb143 2.802 . S
C207 O182 1.264 . S
C207 O185 1.256 . S
C207 C200 1.496 . S
H208 C191 0.929 . S
H209 C192 0.929 . S
H210 C193 0.929 . S
H211 C194 0.931 . S
H212 C202 0.929 . S
H213 C203 0.929 . S
H214 C204 0.931 . S
H215 C205 0.929 . S
H216 C224 0.929 . S
H217 C226 0.930 . S
H218 C228 0.930 . S
H219 C231 0.929 . S
H220 C234 0.930 . S
H221 C236 0.960 . S
H222 C236 0.960 . S
H223 C236 0.960 . S
C224 H216 0.929 . S
C224 C225 1.377 . S
C224 C226 1.384 . S
C225 C224 1.377 . S
C225 C231 1.390 . S
C226 H217 0.930 . S
C226 C224 1.384 . S
C226 C227 1.372 . S
C227 C226 1.372 . S
C227 C228 1.400 . S
C227 C232 1.490 . S
C228 H218 0.930 . S
C228 C227 1.400 . S
C228 C231 1.386 . S
H229 C245 0.930 . S
H230 C246 0.931 . S
C231 H219 0.929 . S
C231 C225 1.390 . S
C231 C228 1.386 . S
C232 C227 1.490 . S
C232 C234 1.395 . S
C232 C235 1.403 . S
H233 C239 0.930 . S
C234 H220 0.930 . S
C234 C232 1.395 . S
C234 C237 1.403 . S
C235 C232 1.403 . S
C235 C236 1.524 . S
C235 C239 1.400 . S
C236 H221 0.960 . S
C236 H222 0.960 . S
C236 H223 0.960 . S
C236 C235 1.524 . S
C237 C234 1.403 . S
C237 C238 1.392 . S
C237 C241 1.495 . S
C238 C237 1.392 . S
C238 C239 1.385 . S
C238 C240 1.478 . S
C239 H233 0.930 . S
C239 C235 1.400 . S
C239 C238 1.385 . S
C240 C238 1.478 . S
C240 C242 1.381 . S
C240 C246 1.383 . S
C241 C237 1.495 . S
C241 H247 0.959 . S
C241 H248 0.961 . S
C241 H249 0.960 . S
C242 C240 1.381 . S
C242 C243 1.394 . S
C242 H250 0.930 . S
C243 C242 1.394 . S
C243 C244 1.383 . S
C243 H251 0.929 . S
C244 C243 1.383 . S
C244 C245 1.377 . S
C245 H229 0.930 . S
C245 C244 1.377 . S
C245 C246 1.379 . S
C246 H230 0.931 . S
C246 C240 1.383 . S
C246 C245 1.379 . S
H247 C241 0.959 . S
H248 C241 0.961 . S
H249 C241 0.960 . S
H250 C242 0.930 . S
H251 C243 0.929 . S
H252 C260 0.929 . S
H253 C262 0.930 . S
H254 C264 0.930 1_556 S
H255 C267 0.929 1_556 S
H256 C270 0.930 . S
H257 C272 0.960 . S
H258 C272 0.960 . S
H259 C272 0.960 . S
C260 H252 0.929 . S
C260 C261 1.377 . S
C260 C262 1.384 . S
C261 C260 1.377 . S
C261 C267 1.390 . S
C262 H253 0.930 . S
C262 C260 1.384 . S
C262 C263 1.372 . S
C263 C262 1.372 . S
C263 C264 1.400 . S
C263 C268 1.490 . S
C264 H254 0.930 1_554 S
C264 C263 1.400 . S
C264 C267 1.386 . S
H265 C281 0.930 1_556 S
H266 C282 0.931 1_556 S
C267 H255 0.929 1_554 S
C267 C261 1.390 . S
C267 C264 1.386 . S
C268 C263 1.490 . S
C268 C270 1.395 . S
C268 C271 1.403 . S
H269 C275 0.930 . S
C270 H256 0.930 . S
C270 C268 1.395 . S
C270 C273 1.403 . S
C271 C268 1.403 . S
C271 C272 1.524 . S
C271 C275 1.400 . S
C272 H257 0.960 . S
C272 H258 0.960 . S
C272 H259 0.960 . S
C272 C271 1.524 . S
C273 C270 1.403 . S
C273 C274 1.392 . S
C273 C277 1.495 . S
C274 C273 1.392 . S
C274 C275 1.385 . S
C274 C276 1.478 . S
C275 H269 0.930 . S
C275 C271 1.400 . S
C275 C274 1.385 . S
C276 C274 1.478 . S
C276 C278 1.381 . S
C276 C282 1.383 . S
C277 C273 1.495 . S
C277 H283 0.959 . S
C277 H284 0.961 . S
C277 H285 0.960 . S
C278 C276 1.381 . S
C278 C279 1.394 . S
C278 H286 0.930 . S
C279 C278 1.394 . S
C279 C280 1.383 . S
C279 H287 0.929 . S
C280 C279 1.383 . S
C280 C281 1.377 . S
C281 H265 0.930 1_554 S
C281 C280 1.377 . S
C281 C282 1.379 . S
C282 H266 0.931 1_554 S
C282 C276 1.383 . S
C282 C281 1.379 . S
H283 C277 0.959 . S
H284 C277 0.961 . S
H285 C277 0.960 . S
H286 C278 0.930 . S
H287 C279 0.929 . S
H288 C296 0.929 . S
H289 C298 0.930 . S
H290 C300 0.930 . S
H291 C303 0.929 . S
H292 C306 0.930 . S
H293 C308 0.960 . S
H294 C308 0.960 . S
H295 C308 0.960 . S
C296 H288 0.929 . S
C296 C297 1.377 . S
C296 C298 1.384 . S
C297 C296 1.377 . S
C297 C303 1.390 . S
C298 H289 0.930 . S
C298 C296 1.384 . S
C298 C299 1.372 . S
C299 C298 1.372 . S
C299 C300 1.400 . S
C299 C304 1.490 . S
C300 H290 0.930 . S
C300 C299 1.400 . S
C300 C303 1.386 . S
H301 C317 0.930 . S
H302 C318 0.931 . S
C303 H291 0.929 . S
C303 C297 1.390 . S
C303 C300 1.386 . S
C304 C299 1.490 . S
C304 C306 1.395 . S
C304 C307 1.403 . S
H305 C311 0.930 . S
C306 H292 0.930 . S
C306 C304 1.395 . S
C306 C309 1.403 . S
C307 C304 1.403 . S
C307 C308 1.524 . S
C307 C311 1.400 . S
C308 H293 0.960 . S
C308 H294 0.960 . S
C308 H295 0.960 . S
C308 C307 1.524 . S
C309 C306 1.403 . S
C309 C310 1.392 . S
C309 C313 1.495 . S
C310 C309 1.392 . S
C310 C311 1.385 . S
C310 C312 1.478 . S
C311 H305 0.930 . S
C311 C307 1.400 . S
C311 C310 1.385 . S
C312 C310 1.478 . S
C312 C314 1.381 . S
C312 C318 1.383 . S
C313 C309 1.495 . S
C313 H319 0.959 . S
C313 H320 0.961 . S
C313 H321 0.960 . S
C314 C312 1.381 . S
C314 C315 1.394 . S
C314 H322 0.930 . S
C315 C314 1.394 . S
C315 C316 1.383 . S
C315 H323 0.929 . S
C316 C315 1.383 . S
C316 C317 1.377 . S
C317 H301 0.930 . S
C317 C316 1.377 . S
C317 C318 1.379 . S
C318 H302 0.931 . S
C318 C312 1.383 . S
C318 C317 1.379 . S
H319 C313 0.959 . S
H320 C313 0.961 . S
H321 C313 0.960 . S
H322 C314 0.930 . S
H323 C315 0.929 . S
H324 C332 0.929 . S
H325 C334 0.930 . S
H326 C336 0.930 . S
H327 C339 0.929 . S
H328 C342 0.930 . S
H329 C344 0.960 . S
H330 C344 0.960 . S
H331 C344 0.960 1_556 S
C332 H324 0.929 . S
C332 C333 1.377 . S
C332 C334 1.384 . S
C333 C332 1.377 . S
C333 C339 1.390 1_554 S
C334 H325 0.930 . S
C334 C332 1.384 . S
C334 C335 1.372 . S
C335 C334 1.372 . S
C335 C336 1.400 1_554 S
C335 C340 1.490 . S
C336 H326 0.930 . S
C336 C335 1.400 1_556 S
C336 C339 1.386 . S
H337 C353 0.930 . S
H338 C354 0.931 . S
C339 H327 0.929 . S
C339 C333 1.390 1_556 S
C339 C336 1.386 . S
C340 C335 1.490 . S
C340 C342 1.395 . S
C340 C343 1.403 . S
H341 C347 0.930 . S
C342 H328 0.930 . S
C342 C340 1.395 . S
C342 C345 1.403 . S
C343 C340 1.403 . S
C343 C344 1.524 . S
C343 C347 1.400 . S
C344 H329 0.960 . S
C344 H330 0.960 . S
C344 H331 0.960 1_554 S
C344 C343 1.524 . S
C345 C342 1.403 . S
C345 C346 1.392 . S
C345 C349 1.495 . S
C346 C345 1.392 . S
C346 C347 1.385 . S
C346 C348 1.478 . S
C347 H341 0.930 . S
C347 C343 1.400 . S
C347 C346 1.385 . S
C348 C346 1.478 . S
C348 C350 1.381 . S
C348 C354 1.383 1_554 S
C349 C345 1.495 . S
C349 H355 0.959 . S
C349 H356 0.961 . S
C349 H357 0.960 . S
C350 C348 1.381 . S
C350 C351 1.394 . S
C350 H358 0.930 . S
C351 C350 1.394 . S
C351 C352 1.383 . S
C351 H359 0.929 . S
C352 C351 1.383 . S
C352 C353 1.377 1_554 S
C353 H337 0.930 . S
C353 C352 1.377 1_556 S
C353 C354 1.379 . S
C354 H338 0.931 . S
C354 C348 1.383 1_556 S
C354 C353 1.379 . S
H355 C349 0.959 . S
H356 C349 0.961 . S
H357 C349 0.960 . S
H358 C350 0.930 . S
H359 C351 0.929 . S
H360 C368 0.929 . S
H361 C370 0.930 . S
H362 C372 0.930 . S
H363 C375 0.929 . S
H364 C378 0.930 . S
H365 C380 0.960 . S
H366 C380 0.960 . S
H367 C380 0.960 . S
C368 H360 0.929 . S
C368 C369 1.377 . S
C368 C370 1.384 . S
C369 C368 1.377 . S
C369 C375 1.390 . S
C370 H361 0.930 . S
C370 C368 1.384 . S
C370 C371 1.372 . S
C371 C370 1.372 . S
C371 C372 1.400 . S
C371 C376 1.490 . S
C372 H362 0.930 . S
C372 C371 1.400 . S
C372 C375 1.386 . S
H373 C389 0.930 . S
H374 C390 0.931 . S
C375 H363 0.929 . S
C375 C369 1.390 . S
C375 C372 1.386 . S
C376 C371 1.490 . S
C376 C378 1.395 . S
C376 C379 1.403 . S
H377 C383 0.930 . S
C378 H364 0.930 . S
C378 C376 1.395 . S
C378 C381 1.403 . S
C379 C376 1.403 . S
C379 C380 1.524 . S
C379 C383 1.400 . S
C380 H365 0.960 . S
C380 H366 0.960 . S
C380 H367 0.960 . S
C380 C379 1.524 . S
C381 C378 1.403 . S
C381 C382 1.392 . S
C381 C385 1.495 . S
C382 C381 1.392 . S
C382 C383 1.385 . S
C382 C384 1.478 . S
C383 H377 0.930 . S
C383 C379 1.400 . S
C383 C382 1.385 . S
C384 C382 1.478 . S
C384 C386 1.381 . S
C384 C390 1.383 . S
C385 C381 1.495 . S
C385 H391 0.959 . S
C385 H392 0.961 . S
C385 H393 0.960 . S
C386 C384 1.381 . S
C386 C387 1.394 . S
C386 H394 0.930 . S
C387 C386 1.394 . S
C387 C388 1.383 . S
C387 H395 0.929 . S
C388 C387 1.383 . S
C388 C389 1.377 . S
C389 H373 0.930 . S
C389 C388 1.377 . S
C389 C390 1.379 . S
C390 H374 0.931 . S
C390 C384 1.383 . S
C390 C389 1.379 . S
H391 C385 0.959 . S
H392 C385 0.961 . S
H393 C385 0.960 . S
H394 C386 0.930 . S
H395 C387 0.929 . S
H396 C404 0.929 . S
H397 C406 0.930 . S
H398 C408 0.930 . S
H399 C411 0.929 . S
H400 C414 0.930 . S
H401 C416 0.960 . S
H402 C416 0.960 . S
H403 C416 0.960 . S
C404 H396 0.929 . S
C404 C405 1.377 . S
C404 C406 1.384 . S
C405 C404 1.377 . S
C405 C411 1.390 . S
C406 H397 0.930 . S
C406 C404 1.384 . S
C406 C407 1.372 . S
C407 C406 1.372 . S
C407 C408 1.400 . S
C407 C412 1.490 . S
C408 H398 0.930 . S
C408 C407 1.400 . S
C408 C411 1.386 . S
H409 C425 0.930 . S
H410 C426 0.931 . S
C411 H399 0.929 . S
C411 C405 1.390 . S
C411 C408 1.386 . S
C412 C407 1.490 . S
C412 C414 1.395 . S
C412 C415 1.403 . S
H413 C419 0.930 . S
C414 H400 0.930 . S
C414 C412 1.395 . S
C414 C417 1.403 . S
C415 C412 1.403 . S
C415 C416 1.524 . S
C415 C419 1.400 . S
C416 H401 0.960 . S
C416 H402 0.960 . S
C416 H403 0.960 . S
C416 C415 1.524 . S
C417 C414 1.403 . S
C417 C418 1.392 . S
C417 C421 1.495 . S
C418 C417 1.392 . S
C418 C419 1.385 . S
C418 C420 1.478 . S
C419 H413 0.930 . S
C419 C415 1.400 . S
C419 C418 1.385 . S
C420 C418 1.478 . S
C420 C422 1.381 . S
C420 C426 1.383 . S
C421 C417 1.495 . S
C421 H427 0.959 . S
C421 H428 0.961 . S
C421 H429 0.960 . S
C422 C420 1.381 . S
C422 C423 1.394 . S
C422 H430 0.930 . S
C423 C422 1.394 . S
C423 C424 1.383 . S
C423 H431 0.929 . S
C424 C423 1.383 . S
C424 C425 1.377 . S
C425 H409 0.930 . S
C425 C424 1.377 . S
C425 C426 1.379 . S
C426 H410 0.931 . S
C426 C420 1.383 . S
C426 C425 1.379 . S
H427 C421 0.959 . S
H428 C421 0.961 . S
H429 C421 0.960 . S
H430 C422 0.930 . S
H431 C423 0.929 . S
H432 C440 0.929 . S
H433 C442 0.930 . S
H434 C444 0.930 . S
H435 C447 0.929 . S
H436 C450 0.930 . S
H437 C452 0.960 . S
H438 C452 0.960 . S
H439 C452 0.960 . S
C440 H432 0.929 . S
C440 C441 1.377 . S
C440 C442 1.384 . S
C441 C440 1.377 . S
C441 C447 1.390 . S
C442 H433 0.930 . S
C442 C440 1.384 . S
C442 C443 1.372 . S
C443 C442 1.372 . S
C443 C444 1.400 . S
C443 C448 1.490 . S
C444 H434 0.930 . S
C444 C443 1.400 . S
C444 C447 1.386 . S
H445 C461 0.930 . S
H446 C462 0.931 . S
C447 H435 0.929 . S
C447 C441 1.390 . S
C447 C444 1.386 . S
C448 C443 1.490 . S
C448 C450 1.395 . S
C448 C451 1.403 . S
H449 C455 0.930 . S
C450 H436 0.930 . S
C450 C448 1.395 . S
C450 C453 1.403 . S
C451 C448 1.403 . S
C451 C452 1.524 . S
C451 C455 1.400 . S
C452 H437 0.960 . S
C452 H438 0.960 . S
C452 H439 0.960 . S
C452 C451 1.524 . S
C453 C450 1.403 . S
C453 C454 1.392 . S
C453 C457 1.495 . S
C454 C453 1.392 . S
C454 C455 1.385 . S
C454 C456 1.478 . S
C455 H449 0.930 . S
C455 C451 1.400 . S
C455 C454 1.385 . S
C456 C454 1.478 . S
C456 C458 1.381 . S
C456 C462 1.383 . S
C457 C453 1.495 . S
C457 H463 0.959 . S
C457 H464 0.961 . S
C457 H465 0.960 . S
C458 C456 1.381 . S
C458 C459 1.394 . S
C458 H466 0.930 . S
C459 C458 1.394 . S
C459 C460 1.383 . S
C459 H467 0.929 . S
C460 C459 1.383 . S
C460 C461 1.377 . S
C461 H445 0.930 . S
C461 C460 1.377 . S
C461 C462 1.379 . S
C462 H446 0.931 . S
C462 C456 1.383 . S
C462 C461 1.379 . S
H463 C457 0.959 . S
H464 C457 0.961 . S
H465 C457 0.960 . S
H466 C458 0.930 . S
H467 C459 0.929 . S
H468 C476 0.929 . S
H469 C478 0.930 . S
H470 C480 0.930 . S
H471 C483 0.929 . S
H472 C486 0.930 . S
H473 C488 0.960 . S
H474 C488 0.960 . S
H475 C488 0.960 . S
C476 H468 0.929 . S
C476 C477 1.377 . S
C476 C478 1.384 . S
C477 C476 1.377 . S
C477 C483 1.390 . S
C478 H469 0.930 . S
C478 C476 1.384 . S
C478 C479 1.372 . S
C479 C478 1.372 . S
C479 C480 1.400 . S
C479 C484 1.490 . S
C480 H470 0.930 . S
C480 C479 1.400 . S
C480 C483 1.386 . S
H481 C497 0.930 . S
H482 C498 0.931 . S
C483 H471 0.929 . S
C483 C477 1.390 . S
C483 C480 1.386 . S
C484 C479 1.490 . S
C484 C486 1.395 . S
C484 C487 1.403 . S
H485 C491 0.930 . S
C486 H472 0.930 . S
C486 C484 1.395 . S
C486 C489 1.403 . S
C487 C484 1.403 . S
C487 C488 1.524 . S
C487 C491 1.400 . S
C488 H473 0.960 . S
C488 H474 0.960 . S
C488 H475 0.960 . S
C488 C487 1.524 . S
C489 C486 1.403 . S
C489 C490 1.392 . S
C489 C493 1.495 . S
C490 C489 1.392 . S
C490 C491 1.385 . S
C490 C492 1.478 . S
C491 H485 0.930 . S
C491 C487 1.400 . S
C491 C490 1.385 . S
C492 C490 1.478 . S
C492 C494 1.381 . S
C492 C498 1.383 . S
C493 C489 1.495 . S
C493 H499 0.959 . S
C493 H500 0.961 . S
C493 H501 0.960 . S
C494 C492 1.381 . S
C494 C495 1.394 . S
C494 H502 0.930 . S
C495 C494 1.394 . S
C495 C496 1.383 . S
C495 H503 0.929 . S
C496 C495 1.383 . S
C496 C497 1.377 . S
C497 H481 0.930 . S
C497 C496 1.377 . S
C497 C498 1.379 . S
C498 H482 0.931 . S
C498 C492 1.383 . S
C498 C497 1.379 . S
H499 C493 0.959 . S
H500 C493 0.961 . S
H501 C493 0.960 . S
H502 C494 0.930 . S
H503 C495 0.929 . S
H504 C512 0.929 . S
H505 C514 0.930 . S
H506 C516 0.930 . S
H507 C519 0.929 . S
H508 C522 0.930 . S
H509 C524 0.960 . S
H510 C524 0.960 . S
H511 C524 0.960 . S
C512 H504 0.929 . S
C512 C513 1.377 . S
C512 C514 1.384 . S
C513 C512 1.377 . S
C513 C519 1.390 . S
C514 H505 0.930 . S
C514 C512 1.384 . S
C514 C515 1.372 . S
C515 C514 1.372 . S
C515 C516 1.400 . S
C515 C520 1.490 . S
C516 H506 0.930 . S
C516 C515 1.400 . S
C516 C519 1.386 . S
H517 C533 0.930 . S
H518 C534 0.931 . S
C519 H507 0.929 . S
C519 C513 1.390 . S
C519 C516 1.386 . S
C520 C515 1.490 . S
C520 C522 1.395 . S
C520 C523 1.403 . S
H521 C527 0.930 . S
C522 H508 0.930 . S
C522 C520 1.395 . S
C522 C525 1.403 . S
C523 C520 1.403 . S
C523 C524 1.524 . S
C523 C527 1.400 . S
C524 H509 0.960 . S
C524 H510 0.960 . S
C524 H511 0.960 . S
C524 C523 1.524 . S
C525 C522 1.403 . S
C525 C526 1.392 . S
C525 C529 1.495 . S
C526 C525 1.392 . S
C526 C527 1.385 . S
C526 C528 1.478 . S
C527 H521 0.930 . S
C527 C523 1.400 . S
C527 C526 1.385 . S
C528 C526 1.478 . S
C528 C530 1.381 . S
C528 C534 1.383 . S
C529 C525 1.495 . S
C529 H535 0.959 . S
C529 H536 0.961 . S
C529 H537 0.960 . S
C530 C528 1.381 . S
C530 C531 1.394 . S
C530 H538 0.930 . S
C531 C530 1.394 . S
C531 C532 1.383 . S
C531 H539 0.929 . S
C532 C531 1.383 . S
C532 C533 1.377 . S
C533 H517 0.930 . S
C533 C532 1.377 . S
C533 C534 1.379 . S
C534 H518 0.931 . S
C534 C528 1.383 . S
C534 C533 1.379 . S
H535 C529 0.959 . S
H536 C529 0.961 . S
H537 C529 0.960 . S
H538 C530 0.930 . S
H539 C531 0.929 . S
H540 C548 0.929 . S
H541 C550 0.930 . S
H542 C552 0.930 . S
H543 C555 0.929 . S
H544 C558 0.930 . S
H545 C560 0.960 . S
H546 C560 0.960 . S
H547 C560 0.960 . S
C548 H540 0.929 . S
C548 C549 1.377 . S
C548 C550 1.384 . S
C549 C548 1.377 . S
C549 C555 1.390 . S
C550 H541 0.930 . S
C550 C548 1.384 . S
C550 C551 1.372 . S
C551 C550 1.372 . S
C551 C552 1.400 . S
C551 C556 1.490 . S
C552 H542 0.930 . S
C552 C551 1.400 . S
C552 C555 1.386 . S
H553 C569 0.930 . S
H554 C570 0.931 . S
C555 H543 0.929 . S
C555 C549 1.390 . S
C555 C552 1.386 . S
C556 C551 1.490 . S
C556 C558 1.395 . S
C556 C559 1.403 . S
H557 C563 0.930 . S
C558 H544 0.930 . S
C558 C556 1.395 . S
C558 C561 1.403 . S
C559 C556 1.403 . S
C559 C560 1.524 . S
C559 C563 1.400 . S
C560 H545 0.960 . S
C560 H546 0.960 . S
C560 H547 0.960 . S
C560 C559 1.524 . S
C561 C558 1.403 . S
C561 C562 1.392 . S
C561 C565 1.495 . S
C562 C561 1.392 . S
C562 C563 1.385 . S
C562 C564 1.478 . S
C563 H557 0.930 . S
C563 C559 1.400 . S
C563 C562 1.385 . S
C564 C562 1.478 . S
C564 C566 1.381 . S
C564 C570 1.383 . S
C565 C561 1.495 . S
C565 H571 0.959 . S
C565 H572 0.961 . S
C565 H573 0.960 . S
C566 C564 1.381 . S
C566 C567 1.394 . S
C566 H574 0.930 . S
C567 C566 1.394 . S
C567 C568 1.383 . S
C567 H575 0.929 . S
C568 C567 1.383 . S
C568 C569 1.377 . S
C569 H553 0.930 . S
C569 C568 1.377 . S
C569 C570 1.379 . S
C570 H554 0.931 . S
C570 C564 1.383 . S
C570 C569 1.379 . S
H571 C565 0.959 . S
H572 C565 0.961 . S
H573 C565 0.960 . S
H574 C566 0.930 . S
H575 C567 0.929 . S
H576 C584 0.929 . S
H577 C586 0.930 . S
H578 C588 0.930 . S
H579 C591 0.929 . S
H580 C594 0.930 . S
H581 C596 0.960 . S
H582 C596 0.960 . S
H583 C596 0.960 . S
C584 H576 0.929 . S
C584 C585 1.377 . S
C584 C586 1.384 . S
C585 C584 1.377 . S
C585 C591 1.390 . S
C586 H577 0.930 . S
C586 C584 1.384 . S
C586 C587 1.372 . S
C587 C586 1.372 . S
C587 C588 1.400 . S
C587 C592 1.490 . S
C588 H578 0.930 . S
C588 C587 1.400 . S
C588 C591 1.386 . S
H589 C605 0.930 . S
H590 C606 0.931 . S
C591 H579 0.929 . S
C591 C585 1.390 . S
C591 C588 1.386 . S
C592 C587 1.490 . S
C592 C594 1.395 . S
C592 C595 1.403 . S
H593 C599 0.930 . S
C594 H580 0.930 . S
C594 C592 1.395 . S
C594 C597 1.403 . S
C595 C592 1.403 . S
C595 C596 1.524 . S
C595 C599 1.400 . S
C596 H581 0.960 . S
C596 H582 0.960 . S
C596 H583 0.960 . S
C596 C595 1.524 . S
C597 C594 1.403 . S
C597 C598 1.392 . S
C597 C601 1.495 . S
C598 C597 1.392 . S
C598 C599 1.385 . S
C598 C600 1.478 . S
C599 H593 0.930 . S
C599 C595 1.400 . S
C599 C598 1.385 . S
C600 C598 1.478 . S
C600 C602 1.381 . S
C600 C606 1.383 . S
C601 C597 1.495 . S
C601 H607 0.959 . S
C601 H608 0.961 . S
C601 H609 0.960 . S
C602 C600 1.381 . S
C602 C603 1.394 . S
C602 H610 0.930 . S
C603 C602 1.394 . S
C603 C604 1.383 . S
C603 H611 0.929 . S
C604 C603 1.383 . S
C604 C605 1.377 . S
C605 H589 0.930 . S
C605 C604 1.377 . S
C605 C606 1.379 . S
C606 H590 0.931 . S
C606 C600 1.383 . S
C606 C605 1.379 . S
H607 C601 0.959 . S
H608 C601 0.961 . S
H609 C601 0.960 . S
H610 C602 0.930 . S
H611 C603 0.929 . S
H612 C620 0.929 . S
H613 C622 0.930 . S
H614 C624 0.930 . S
H615 C627 0.929 . S
H616 C630 0.930 . S
H617 C632 0.960 . S
H618 C632 0.960 . S
H619 C632 0.960 . S
C620 H612 0.929 . S
C620 C621 1.377 . S
C620 C622 1.384 . S
C621 C620 1.377 . S
C621 C627 1.390 . S
C622 H613 0.930 . S
C622 C620 1.384 . S
C622 C623 1.372 . S
C623 C622 1.372 . S
C623 C624 1.400 . S
C623 C628 1.490 . S
C624 H614 0.930 . S
C624 C623 1.400 . S
C624 C627 1.386 . S
H625 C641 0.930 . S
H626 C642 0.931 . S
C627 H615 0.929 . S
C627 C621 1.390 . S
C627 C624 1.386 . S
C628 C623 1.490 . S
C628 C630 1.395 . S
C628 C631 1.403 . S
H629 C635 0.930 . S
C630 H616 0.930 . S
C630 C628 1.395 . S
C630 C633 1.403 . S
C631 C628 1.403 . S
C631 C632 1.524 . S
C631 C635 1.400 . S
C632 H617 0.960 . S
C632 H618 0.960 . S
C632 H619 0.960 . S
C632 C631 1.524 . S
C633 C630 1.403 . S
C633 C634 1.392 . S
C633 C637 1.495 . S
C634 C633 1.392 . S
C634 C635 1.385 . S
C634 C636 1.478 . S
C635 H629 0.930 . S
C635 C631 1.400 . S
C635 C634 1.385 . S
C636 C634 1.478 . S
C636 C638 1.381 . S
C636 C642 1.383 . S
C637 C633 1.495 . S
C637 H643 0.959 . S
C637 H644 0.961 . S
C637 H645 0.960 . S
C638 C636 1.381 . S
C638 C639 1.394 . S
C638 H646 0.930 . S
C639 C638 1.394 . S
C639 C640 1.383 . S
C639 H647 0.929 . S
C640 C639 1.383 . S
C640 C641 1.377 . S
C641 H625 0.930 . S
C641 C640 1.377 . S
C641 C642 1.379 . S
C642 H626 0.931 . S
C642 C636 1.383 . S
C642 C641 1.379 . S
H643 C637 0.959 . S
H644 C637 0.961 . S
H645 C637 0.960 . S
H646 C638 0.930 . S
H647 C639 0.929 . S
C244 C111 1.660 . S
C225 C40 1.691 . S
C261 C4 1.691 . S
C280 C206 1.662 . S
C297 C16 1.686 . S
C316 C122 1.698 . S
C333 C28 1.659 . S
C352 C195 1.648 . S
C388 C106 1.446 . S
C369 C9 1.634 . S
C424 C199 1.735 . S
C405 C18 1.735 . S
C441 C33 1.652 . S
C460 C115 1.659 . S
C477 C45 1.625 . S
C496 C190 1.421 . S
C532 C201 1.412 . S
C513 C21 1.578 . S
C568 C117 1.406 . S
C549 C30 1.583 . S
C604 C188 1.651 . S
C585 C42 1.651 . S
C621 C6 1.589 . S
C640 C104 1.592 . S
