# Generated by pormake.
# Topology zzz, (3,6)-cn, num edge types: 1
# Building blocks:
#     Node 0, Type 0, BuildingBlock: ESEHIV_clean_linker_0, # of connection points: 3
#     Node 1, Type 0, BuildingBlock: ESEHIV_clean_linker_0, # of connection points: 3
#     Node 2, Type 0, BuildingBlock: ESEHIV_clean_linker_0, # of connection points: 3
#     Node 3, Type 0, BuildingBlock: ESEHIV_clean_linker_0, # of connection points: 3
#     Node 4, Type 0, BuildingBlock: ESEHIV_clean_linker_0, # of connection points: 3
#     Node 5, Type 0, BuildingBlock: ESEHIV_clean_linker_0, # of connection points: 3
#     Node 6, Type 0, BuildingBlock: ESEHIV_clean_linker_0, # of connection points: 3
#     Node 7, Type 0, BuildingBlock: ESEHIV_clean_linker_0, # of connection points: 3
#     Node 8, Type 1, BuildingBlock: GEDQOX_clean_sbu_0, # of connection points: 6
#     Node 9, Type 1, BuildingBlock: GEDQOX_clean_sbu_0, # of connection points: 6
#     Node 10, Type 1, BuildingBlock: GEDQOX_clean_sbu_0, # of connection points: 6
#     Node 11, Type 1, BuildingBlock: GEDQOX_clean_sbu_0, # of connection points: 6
#     Edge 12, Type (0, 1), BuildingBlock: AJUNOK_clean_linker_0, # of connection points: 2
#     Edge 13, Type (0, 1), BuildingBlock: AJUNOK_clean_linker_0, # of connection points: 2
#     Edge 14, Type (0, 1), BuildingBlock: AJUNOK_clean_linker_0, # of connection points: 2
#     Edge 15, Type (0, 1), BuildingBlock: AJUNOK_clean_linker_0, # of connection points: 2
#     Edge 16, Type (0, 1), BuildingBlock: AJUNOK_clean_linker_0, # of connection points: 2
#     Edge 17, Type (0, 1), BuildingBlock: AJUNOK_clean_linker_0, # of connection points: 2
#     Edge 18, Type (0, 1), BuildingBlock: AJUNOK_clean_linker_0, # of connection points: 2
#     Edge 19, Type (0, 1), BuildingBlock: AJUNOK_clean_linker_0, # of connection points: 2
#     Edge 20, Type (0, 1), BuildingBlock: AJUNOK_clean_linker_0, # of connection points: 2
#     Edge 21, Type (0, 1), BuildingBlock: AJUNOK_clean_linker_0, # of connection points: 2
#     Edge 22, Type (0, 1), BuildingBlock: AJUNOK_clean_linker_0, # of connection points: 2
#     Edge 23, Type (0, 1), BuildingBlock: AJUNOK_clean_linker_0, # of connection points: 2
#     Edge 24, Type (0, 1), BuildingBlock: AJUNOK_clean_linker_0, # of connection points: 2
#     Edge 25, Type (0, 1), BuildingBlock: AJUNOK_clean_linker_0, # of connection points: 2
#     Edge 26, Type (0, 1), BuildingBlock: AJUNOK_clean_linker_0, # of connection points: 2
#     Edge 27, Type (0, 1), BuildingBlock: AJUNOK_clean_linker_0, # of connection points: 2
#     Edge 28, Type (0, 1), BuildingBlock: AJUNOK_clean_linker_0, # of connection points: 2
#     Edge 29, Type (0, 1), BuildingBlock: AJUNOK_clean_linker_0, # of connection points: 2
#     Edge 30, Type (0, 1), BuildingBlock: AJUNOK_clean_linker_0, # of connection points: 2
#     Edge 31, Type (0, 1), BuildingBlock: AJUNOK_clean_linker_0, # of connection points: 2
#     Edge 32, Type (0, 1), BuildingBlock: AJUNOK_clean_linker_0, # of connection points: 2
#     Edge 33, Type (0, 1), BuildingBlock: AJUNOK_clean_linker_0, # of connection points: 2
#     Edge 34, Type (0, 1), BuildingBlock: AJUNOK_clean_linker_0, # of connection points: 2
#     Edge 35, Type (0, 1), BuildingBlock: AJUNOK_clean_linker_0, # of connection points: 2
# Relax obj value: 0.327
# Max RMSD: 0.368
# Mean RMSD: 0.188
data_MOF--net-zzz--node1-GEDQOX_clean_sbu_0--node2-ESEHIV_clean_linker_0--edge1-AJUNOK_clean_linker_0
_symmetry_space_group_name_H-M    P1
_symmetry_Int_Tables_number       1
_symmetry_cell_setting            triclinic
loop_
_symmetry_equiv_pos_as_xyz
'x, y, z'
_cell_length_a     35.130804
_cell_length_b     33.251507
_cell_length_c     14.043222
_cell_angle_alpha  75.51071
_cell_angle_beta   89.992086
_cell_angle_gamma 107.92771
loop_
_atom_site_label
_atom_site_type_symbol
_atom_site_fract_x
_atom_site_fract_y
_atom_site_fract_z
_atom_type_partial_charge
H0 H 0.8466 0.56807 0.15543 0.0
H1 H 0.74854 0.53606 0.97542 0.0
H2 H 0.74191 0.6048 0.19548 0.0
C3 C 0.81704 0.56893 0.13449 0.0
C4 C 0.79664 0.5891 0.18285 0.0
C5 C 0.79991 0.54934 0.06074 0.0
C6 C 0.76194 0.55109 0.0327 0.0
C7 C 0.74087 0.57138 0.08069 0.0
C8 C 0.7583 0.59016 0.15645 0.0
H9 H 0.0586 0.8337 0.31288 0.0
H10 H 0.07416 0.7711 0.09074 0.0
H11 H 0.00791 0.6937 0.37016 0.0
C12 C 0.05572 0.80379 0.29121 0.0
C13 C 0.03275 0.764 0.35415 0.0
C14 C 0.06924 0.80683 0.19571 0.0
C15 C 0.06407 0.76849 0.16573 0.0
C16 C 0.04334 0.7271 0.22862 0.0
C17 C 0.02614 0.72488 0.32294 0.0
H18 H 0.69278 0.02539 0.20477 0.0
H19 H 0.79526 0.06387 0.99555 0.0
H20 H 0.78893 0.97289 0.28013 0.0
C21 C 0.72206 0.02386 0.18489 0.0
C22 C 0.73924 0.99756 0.25308 0.0
C23 C 0.74173 0.04776 0.09165 0.0
C24 C 0.77954 0.04498 0.06685 0.0
C25 C 0.79733 0.0184 0.1348 0.0
C26 C 0.77651 0.9944 0.22766 0.0
H27 H 0.57999 0.76131 0.38303 0.0
H28 H 0.53935 0.84891 0.50393 0.0
H29 H 0.58945 0.88841 0.2012 0.0
C30 C 0.57775 0.79377 0.37522 0.0
C31 C 0.58365 0.82309 0.28129 0.0
C32 C 0.56463 0.80356 0.45851 0.0
C33 C 0.55389 0.84265 0.44375 0.0
C34 C 0.56284 0.87367 0.34903 0.0
C35 C 0.58226 0.86502 0.27327 0.0
H36 H 0.21005 0.56423 0.57596 0.0
H37 H 0.30267 0.57259 0.77552 0.0
H38 H 0.31038 0.52293 0.52148 0.0
C39 C 0.23927 0.56132 0.59455 0.0
C40 C 0.25896 0.54388 0.53697 0.0
C41 C 0.25465 0.57191 0.67973 0.0
C42 C 0.29096 0.56493 0.70856 0.0
C43 C 0.31178 0.54767 0.65117 0.0
C44 C 0.29525 0.53692 0.56541 0.0
H45 H 0.97754 0.24386 0.4989 0.0
H46 H 0.97081 0.30812 0.72312 0.0
H47 H 0.01929 0.3847 0.42867 0.0
C48 C 0.98016 0.27403 0.51909 0.0
C49 C 0.99892 0.31384 0.45051 0.0
C50 C 0.97065 0.27184 0.6168 0.0
C51 C 0.97647 0.31049 0.64571 0.0
C52 C 0.99236 0.35186 0.57775 0.0
C53 C 0.00507 0.35334 0.47992 0.0
H54 H 0.35233 0.07534 0.5798 0.0
H55 H 0.25696 0.03735 0.80665 0.0
H56 H 0.24524 0.10907 0.51108 0.0
C57 C 0.32248 0.07418 0.60284 0.0
C58 C 0.30101 0.09517 0.53515 0.0
C59 C 0.30646 0.05235 0.69982 0.0
C60 C 0.26856 0.05262 0.73027 0.0
C61 C 0.24569 0.0724 0.66249 0.0
C62 C 0.26229 0.09379 0.56437 0.0
H63 H 0.44879 0.32867 0.37216 0.0
H64 H 0.52245 0.26146 0.27871 0.0
H65 H 0.44527 0.20313 0.54964 0.0
C66 C 0.45751 0.29945 0.38243 0.0
C67 C 0.44885 0.26858 0.47488 0.0
C68 C 0.48315 0.29732 0.30826 0.0
C69 C 0.49898 0.26158 0.32849 0.0
C70 C 0.48514 0.22705 0.41711 0.0
C71 C 0.45577 0.22897 0.48186 0.0
Nd72 Nd 0.00405 0.01765 0.82909 0.0
Nd73 Nd 0.03716 0.06165 0.98573 0.0
C74 C 0.97102 0.96046 0.72408 0.0
C75 C 0.97834 0.92543 0.68333 0.0
C76 C 0.97652 0.92843 0.58178 0.0
C77 C 0.98129 0.89517 0.5421 0.0
C78 C 0.98823 0.85767 0.60248 0.0
C79 C 0.98997 0.85459 0.70433 0.0
C80 C 0.9849 0.88781 0.74413 0.0
C81 C 0.08524 0.06537 0.7894 0.0
C82 C 0.04517 0.96762 0.00941 0.0
C83 C 0.06903 0.11915 0.09082 0.0
C84 C 0.06051 0.15428 0.12837 0.0
C85 C 0.07517 0.16202 0.21744 0.0
C86 C 0.06857 0.19535 0.25374 0.0
C87 C 0.04738 0.22262 0.20165 0.0
C88 C 0.0323 0.21445 0.11265 0.0
C89 C 0.03875 0.1808 0.07664 0.0
C90 C 0.9563 0.01402 0.02699 0.0
C91 C 0.99674 0.11183 0.80576 0.0
O92 O 0.96383 0.95245 0.81958 0.0
O93 O 0.99257 1.00122 0.68432 0.0
O94 O 0.05896 0.06469 0.72473 0.0
O95 O 0.068 0.04182 0.87223 0.0
O96 O 0.01473 0.96377 0.9538 0.0
O97 O 0.06491 0.00609 0.02404 0.0
O98 O 0.07709 0.12687 0.99578 0.0
O99 O 0.04716 0.07852 0.13036 0.0
O100 O 0.98327 0.01387 0.08969 0.0
O101 O 0.97283 0.0374 0.94316 0.0
O102 O 0.02741 0.11556 0.86037 0.0
O103 O 0.9766 0.07339 0.79181 0.0
H104 H 0.97108 0.95657 0.53271 0.0
H105 H 0.98002 0.89912 0.46335 0.0
H106 H 0.99459 0.82609 0.75381 0.0
H107 H 0.98567 0.88372 0.82277 0.0
H108 H 0.09174 0.142 0.25963 0.0
H109 H 0.07939 0.19899 0.32425 0.0
H110 H 0.01556 0.23419 0.07041 0.0
H111 H 0.02661 0.17546 0.00845 0.0
Nd112 Nd 0.53111 0.02569 0.839 0.0
Nd113 Nd 0.52356 0.08672 0.94965 0.0
C114 C 0.53662 0.96149 0.7657 0.0
C115 C 0.57083 0.95783 0.71208 0.0
C116 C 0.5706 0.91782 0.69593 0.0
C117 C 0.60267 0.9158 0.6398 0.0
C118 C 0.63541 0.95379 0.59944 0.0
C119 C 0.63569 0.99346 0.61827 0.0
C120 C 0.60392 0.99536 0.67448 0.0
C121 C 0.53891 0.10791 0.71459 0.0
C122 C 0.61393 0.0869 0.89282 0.0
C123 C 0.5143 0.14735 0.03025 0.0
C124 C 0.47825 0.14646 0.08591 0.0
C125 C 0.47212 0.1851 0.09521 0.0
C126 C 0.43778 0.18306 0.14994 0.0
C127 C 0.40907 0.14243 0.19603 0.0
C128 C 0.41535 0.104 0.18514 0.0
C129 C 0.44919 0.10605 0.12989 0.0
C130 C 0.51637 1.0042 0.07147 0.0
C131 C 0.44117 0.02621 0.89313 0.0
O132 O 0.5408 0.96121 0.85824 0.0
O133 O 0.52197 0.99196 0.7193 0.0
O134 O 0.56157 0.08449 0.70625 0.0
O135 O 0.51369 0.08776 0.7889 0.0
O136 O 0.59627 0.05037 0.8685 0.0
O137 O 0.59281 0.11057 0.91537 0.0
O138 O 0.51111 0.14957 0.93655 0.0
O139 O 0.53137 0.11847 0.07281 0.0
O140 O 0.49235 0.02616 0.0793 0.0
O141 O 0.54179 0.02537 0.99849 0.0
O142 O 0.4588 0.06312 0.9157 0.0
O143 O 0.46227 1.00187 0.87497 0.0
H144 H 0.54532 0.88847 0.72477 0.0
H145 H 0.60142 0.88484 0.62576 0.0
H146 H 0.65952 0.02367 0.58554 0.0
H147 H 0.60459 0.02658 0.68597 0.0
H148 H 0.494 0.21668 0.06116 0.0
H149 H 0.43383 0.21311 0.15761 0.0
H150 H 0.39493 0.07201 0.22244 0.0
H151 H 0.45302 0.07577 0.12332 0.0
Nd152 Nd 0.49864 0.55369 0.94659 0.0
Nd153 Nd 0.54749 0.54305 0.79853 0.0
C154 C 0.45043 0.57886 0.04364 0.0
C155 C 0.45965 0.62305 0.05713 0.0
C156 C 0.47258 0.65969 0.97449 0.0
C157 C 0.49761 0.69962 0.9852 0.0
C158 C 0.50939 0.70317 0.07857 0.0
C159 C 0.49257 0.66832 0.16219 0.0
C160 C 0.46753 0.62852 0.15163 0.0
C161 C 0.57743 0.56593 0.99236 0.0
C162 C 0.54331 0.64 0.76022 0.0
C163 C 0.59242 0.51615 0.69669 0.0
C164 C 0.57907 0.47238 0.67854 0.0
C165 C 0.56892 0.43473 0.75886 0.0
C166 C 0.54234 0.39532 0.74937 0.0
C167 C 0.52557 0.39289 0.65968 0.0
C168 C 0.53902 0.42912 0.57691 0.0
C169 C 0.5658 0.46846 0.58606 0.0
C170 C 0.46915 0.53206 0.75154 0.0
C171 C 0.50529 0.45796 0.99216 0.0
O172 O 0.44516 0.57533 0.9536 0.0
O173 O 0.47397 0.55755 0.08746 0.0
O174 O 0.54645 0.54417 0.05468 0.0
O175 O 0.56673 0.58166 0.90943 0.0
O176 O 0.51144 0.6198 0.82416 0.0
O177 O 0.56818 0.61854 0.74827 0.0
O178 O 0.59821 0.51731 0.78814 0.0
O179 O 0.57199 0.54166 0.65466 0.0
O180 O 0.50037 0.55317 0.68976 0.0
O181 O 0.47951 0.51585 0.83476 0.0
O182 O 0.53547 0.47727 0.92283 0.0
O183 O 0.48075 0.47917 0.00699 0.0
H184 H 0.46631 0.65671 0.90065 0.0
H185 H 0.50949 0.72679 0.92043 0.0
H186 H 0.50035 0.67132 0.23537 0.0
H187 H 0.45776 0.60087 0.21625 0.0
H188 H 0.57891 0.43636 0.83116 0.0
H189 H 0.53345 0.36752 0.81343 0.0
H190 H 0.52771 0.42746 0.50572 0.0
H191 H 0.57333 0.49682 0.52286 0.0
Nd192 Nd 0.02146 0.57846 0.79798 0.0
Nd193 Nd 0.0242 0.51598 0.97036 0.0
C194 C 0.00378 0.63833 0.65737 0.0
C195 C 0.96962 0.63459 0.59512 0.0
C196 C 0.95292 0.66869 0.56787 0.0
C197 C 0.92071 0.66511 0.50797 0.0
C198 C 0.90393 0.62669 0.47739 0.0
C199 C 0.92008 0.59219 0.50696 0.0
C200 C 0.95255 0.59606 0.56521 0.0
C201 C 0.02167 0.50165 0.75295 0.0
C202 C 0.93535 0.51757 0.91886 0.0
C203 C 0.03575 0.45564 0.11892 0.0
C204 C 0.07337 0.46234 0.16858 0.0
C205 C 0.07742 0.43374 0.25687 0.0
C206 C 0.112 0.44504 0.30791 0.0
C207 C 0.14377 0.48424 0.268 0.0
C208 C 0.14102 0.50979 0.17389 0.0
C209 C 0.1057 0.50002 0.12754 0.0
C210 C 0.04267 0.59894 0.00537 0.0
C211 C 0.10681 0.5706 0.84339 0.0
O212 O 0.99519 0.63272 0.75097 0.0
O213 O 0.02879 0.61816 0.64251 0.0
O214 O 0.04387 0.54057 0.70574 0.0
O215 O 1.00098 0.50356 0.82495 0.0
O216 O 0.95369 0.54557 0.83566 0.0
O217 O 0.95589 0.49985 0.98587 0.0
O218 O 0.03956 0.45473 0.02696 0.0
O219 O 0.01487 0.48086 0.13004 0.0
O220 O 0.0644 0.57349 0.02744 0.0
O221 O 0.01474 0.58226 0.95676 0.0
O222 O 0.08379 0.5306 0.88411 0.0
O223 O 0.08975 0.60149 0.81655 0.0
H224 H 0.96478 0.69798 0.5931 0.0
H225 H 0.90867 0.69209 0.48624 0.0
H226 H 0.90801 0.56242 0.48341 0.0
H227 H 0.96435 0.56887 0.58676 0.0
H228 H 0.05355 0.40353 0.28661 0.0
H229 H 0.11319 0.42399 0.37964 0.0
H230 H 0.16563 0.5385 0.13699 0.0
H231 H 0.10362 0.52246 0.05932 0.0
C232 C 0.19199 0.1078 0.66896 0.0
C233 C 0.20447 0.07028 0.69458 0.0
C234 C 0.1534 0.10632 0.70039 0.0
C235 C 0.12629 0.06747 0.75957 0.0
H236 H 0.2123 0.13864 0.62515 0.0
H237 H 0.14483 0.13577 0.6789 0.0
S238 S 0.1422 0.95906 0.83767 0.0
N239 N 0.18486 0.99224 0.77558 0.0
N240 N 0.11321 0.98992 0.83616 0.0
C241 C 0.13805 0.02963 0.78405 0.0
C242 C 0.17693 0.03093 0.75129 0.0
C243 C 0.54175 0.20911 0.50716 0.0
C244 C 0.50609 0.19455 0.46153 0.0
C245 C 0.55318 0.18071 0.58664 0.0
C246 C 0.52912 0.13676 0.62445 0.0
H247 H 0.55901 0.24362 0.48743 0.0
H248 H 0.57977 0.19389 0.62227 0.0
S249 S 0.43632 0.08054 0.52284 0.0
N250 N 0.44963 0.1316 0.45389 0.0
N251 N 0.47066 0.07879 0.60276 0.0
C252 C 0.49517 0.12101 0.57498 0.0
C253 C 0.48391 0.14965 0.49356 0.0
C254 C 0.38412 0.55822 0.60833 0.0
C255 C 0.35101 0.54147 0.67925 0.0
C256 C 0.42176 0.55417 0.63255 0.0
C257 C 0.42796 0.53283 0.72856 0.0
H258 H 0.38115 0.57548 0.53373 0.0
H259 H 0.44637 0.56845 0.5754 0.0
S260 S 0.3504 0.48049 0.94006 0.0
N261 N 0.32641 0.50093 0.84887 0.0
N262 N 0.39712 0.49293 0.89408 0.0
C263 C 0.3949 0.51492 0.79978 0.0
C264 C 0.35652 0.51942 0.77529 0.0
C265 C 0.03472 0.42692 0.59474 0.0
C266 C 0.99813 0.39217 0.61491 0.0
C267 C 0.04199 0.4619 0.63983 0.0
C268 C 0.01326 0.46356 0.70804 0.0
H269 H 0.05843 0.42651 0.54605 0.0
H270 H 0.07074 0.48757 0.62229 0.0
S271 S 0.91084 0.38393 0.77762 0.0
N272 N 0.93128 0.36453 0.70086 0.0
N273 N 0.94567 0.42885 0.78737 0.0
C274 C 0.97624 0.42978 0.72671 0.0
C275 C 0.96852 0.39465 0.6797 0.0
C276 C 0.84752 0.01184 0.01572 0.0
C277 C 0.83767 0.0158 0.10956 0.0
C278 C 0.8855 0.00974 0.99064 0.0
C279 C 0.91489 0.01083 0.05884 0.0
H280 H 0.82573 0.0104 0.96106 0.0
H281 H 0.89207 0.00775 0.91689 0.0
S282 S 0.90518 0.02356 0.31249 0.0
N283 N 0.86155 0.02331 0.26879 0.0
N284 N 0.93177 0.01716 0.22387 0.0
C285 C 0.90529 0.01433 0.15329 0.0
C286 C 0.86703 0.01738 0.17802 0.0
C287 C 0.5746 0.95286 0.26852 0.0
C288 C 0.54693 0.91136 0.31481 0.0
C289 C 0.56418 0.98297 0.19182 0.0
C290 C 0.52528 0.97356 0.15954 0.0
H291 H 0.60577 0.96029 0.28408 0.0
H292 H 0.5873 0.01318 0.15484 0.0
S293 S 0.44014 0.87249 0.26297 0.0
N294 N 0.4779 0.86437 0.32664 0.0
N295 N 0.45782 0.92194 0.1864 0.0
C296 C 0.49628 0.93425 0.21102 0.0
C297 C 0.50714 0.90311 0.28801 0.0
C298 C 0.6916 0.60606 0.99355 0.0
C299 C 0.69937 0.56986 0.05695 0.0
C300 C 0.65211 0.6045 0.97107 0.0
C301 C 0.61916 0.56708 0.01324 0.0
H302 H 0.71619 0.63562 0.96105 0.0
H303 H 0.64727 0.633 0.92204 0.0
S304 S 0.62425 0.46304 0.17913 0.0
N305 N 0.67144 0.49511 0.15728 0.0
N306 N 0.59753 0.49249 0.1177 0.0
C307 C 0.62686 0.53072 0.07594 0.0
C308 C 0.66691 0.53203 0.09714 0.0
C309 C 0.07317 0.67534 0.17661 0.0
C310 C 0.03914 0.68823 0.18819 0.0
C311 C 0.07378 0.6465 0.11827 0.0
C312 C 0.04071 0.62985 0.0664 0.0
H313 H 0.10018 0.68893 0.21044 0.0
H314 H 0.10089 0.638 0.1119 0.0
S315 S 0.94359 0.65243 0.07379 0.0
N316 N 0.97105 0.68113 0.14444 0.0
N317 N 0.97206 0.62749 0.03449 0.0
C318 C 0.00614 0.64189 0.07875 0.0
C319 C 0.00542 0.67087 0.1394 0.0
C320 C 0.99779 0.22911 0.75135 0.0
C321 C 0.96662 0.23 0.68952 0.0
C322 C 0.00644 0.19038 0.7899 0.0
C323 C 0.98383 0.15083 0.76962 0.0
H324 H 0.01828 0.25926 0.7619 0.0
H325 H 0.03256 0.19231 0.83158 0.0
S326 S 0.89374 0.13463 0.62793 0.0
N327 N 0.90937 0.1876 0.62075 0.0
N328 N 0.92501 0.11385 0.69578 0.0
C329 C 0.94996 0.15041 0.71615 0.0
C330 C 0.94133 0.19019 0.67613 0.0
C331 C 0.34306 0.04828 0.85221 0.0
C332 C 0.33164 0.03264 0.76912 0.0
C333 C 0.3762 0.04119 0.90072 0.0
C334 C 0.39905 0.01832 0.86758 0.0
H335 H 0.32872 0.06948 0.87424 0.0
H336 H 0.38604 0.05706 0.95913 0.0
S337 S 0.3751 0.96212 0.66748 0.0
N338 N 0.34067 0.98657 0.66702 0.0
N339 N 0.40324 0.9735 0.75748 0.0
C340 C 0.38471 0.99788 0.7925 0.0
C341 C 0.35097 1.00515 0.74313 0.0
C342 C 0.43823 0.32222 0.56019 0.0
C343 C 0.4508 0.28548 0.56477 0.0
C344 C 0.46063 0.35601 0.59971 0.0
C345 C 0.49469 0.35278 0.64968 0.0
H346 H 0.4149 0.32799 0.51342 0.0
H347 H 0.45345 0.38634 0.58345 0.0
S348 S 0.52664 0.25407 0.72741 0.0
N349 N 0.48977 0.24104 0.65682 0.0
N350 N 0.53132 0.30453 0.73094 0.0
C351 C 0.50151 0.31228 0.6748 0.0
C352 C 0.47905 0.27807 0.63375 0.0
C353 C 0.21085 0.61549 0.70666 0.0
C354 C 0.22724 0.58149 0.74468 0.0
C355 C 0.17315 0.61401 0.74443 0.0
C356 C 0.15022 0.57792 0.81976 0.0
H357 H 0.22557 0.64125 0.64149 0.0
H358 H 0.16056 0.63933 0.70877 0.0
S359 S 0.18257 0.48325 0.95131 0.0
N360 N 0.22038 0.51408 0.86912 0.0
N361 N 0.14914 0.50941 0.93663 0.0
C362 C 0.16811 0.54567 0.86329 0.0
C363 C 0.20683 0.54807 0.82693 0.0
C364 C 0.04748 0.85169 0.05404 0.0
C365 C 0.07599 0.84952 0.12327 0.0
C366 C 0.03882 0.89049 0.01619 0.0
C367 C 0.05879 0.92893 0.04442 0.0
H368 H 0.02849 0.82219 0.03728 0.0
H369 H 0.01457 0.88938 0.96861 0.0
S370 S 0.1431 0.9426 0.20494 0.0
N371 N 0.12922 0.8903 0.2057 0.0
N372 N 0.11354 0.96417 0.13214 0.0
C373 C 0.09076 0.92853 0.10436 0.0
C374 C 0.09944 0.88866 0.14364 0.0
C375 C 0.69948 0.09746 0.05331 0.0
C376 C 0.72019 0.07251 0.02049 0.0
C377 C 0.66793 0.10808 1.00286 0.0
C378 C 0.6561 0.09412 0.91781 0.0
H379 H 0.70523 0.10529 0.12343 0.0
H380 H 0.65005 0.1229 0.03689 0.0
S381 S 0.70739 0.03844 0.78757 0.0
N382 N 0.73148 0.04161 0.88772 0.0
N383 N 0.67302 0.0626 0.79149 0.0
C384 C 0.68038 0.07495 0.87668 0.0
C385 C 0.71228 0.06385 0.9284 0.0
C386 C 0.5928 0.77118 0.18948 0.0
C387 C 0.57785 0.80545 0.19334 0.0
C388 C 0.57304 0.73994 0.14046 0.0
C389 C 0.53872 0.74305 0.09184 0.0
H390 H 0.61664 0.76546 0.2344 0.0
H391 H 0.58208 0.71095 0.14911 0.0
S392 S 0.49548 0.83346 0.05213 0.0
N393 N 0.53207 0.84581 0.12389 0.0
N394 N 0.4964 0.7874 0.02958 0.0
C395 C 0.52803 0.78095 0.07983 0.0
C396 C 0.54751 0.81245 0.13089 0.0
C397 C 0.8408 0.54911 0.91616 0.0
C398 C 0.82377 0.52879 0.01334 0.0
C399 C 0.87464 0.54126 0.88162 0.0
C400 C 0.89281 0.51317 0.94366 0.0
H401 H 0.83038 0.57428 0.86983 0.0
H402 H 0.88865 0.5605 0.80888 0.0
S403 S 0.85299 0.44431 0.19664 0.0
N404 N 0.82245 0.47361 0.16476 0.0
N405 N 0.88602 0.45874 0.10062 0.0
C406 C 0.87278 0.4886 0.03667 0.0
C407 C 0.83829 0.49653 0.07141 0.0
C408 C 0.98891 0.287 0.2981 0.0
C409 C 0.01581 0.30928 0.35687 0.0
C410 C 1.00005 0.26152 0.24315 0.0
C411 C 0.03874 0.25703 0.24391 0.0
H412 H 0.95768 0.28538 0.30319 0.0
H413 H 0.97706 0.24246 0.20621 0.0
S414 S 0.12298 0.31623 0.36855 0.0
N415 N 0.08445 0.32988 0.40096 0.0
N416 N 0.10605 0.28399 0.29502 0.0
C417 C 0.06713 0.28306 0.29363 0.0
C418 C 0.0556 0.30877 0.35004 0.0
C419 C 0.35632 0.15195 0.42002 0.0
C420 C 0.32029 0.11689 0.43392 0.0
C421 C 0.38315 0.16329 0.33652 0.0
C422 C 0.37537 0.13922 0.26532 0.0
H423 H 0.36535 0.16829 0.47802 0.0
H424 H 0.41175 0.18836 0.3327 0.0
S425 S 0.28096 0.05097 0.25762 0.0
N426 N 0.27508 0.063 0.36277 0.0
N427 N 0.32529 0.0844 0.20502 0.0
C428 C 0.3373 0.10744 0.2731 0.0
C429 C 0.30984 0.09617 0.35784 0.0
C430 C 0.50991 0.37915 0.23793 0.0
C431 C 0.49671 0.33711 0.22052 0.0
C432 C 0.51238 0.4174 0.16369 0.0
C433 C 0.50357 0.41616 0.06665 0.0
H434 H 0.51622 0.38232 0.31173 0.0
H435 H 0.52054 0.4483 0.18321 0.0
S436 S 0.46899 0.31548 0.97892 0.0
N437 N 0.47519 0.29724 0.09676 0.0
N438 N 0.48181 0.36941 0.95612 0.0
C439 C 0.49221 0.37487 0.04619 0.0
C440 C 0.48863 0.33546 0.12299 0.0
C441 C 0.22505 0.48667 0.45003 0.0
C442 C 0.23852 0.53093 0.4517 0.0
C443 C 0.19545 0.47185 0.38793 0.0
C444 C 0.17803 0.50072 0.32631 0.0
H445 H 0.23555 0.46293 0.50137 0.0
H446 H 0.18527 0.43733 0.39057 0.0
S447 S 0.20483 0.6205 0.30214 0.0
N448 N 0.23502 0.60399 0.38141 0.0
N449 N 0.17741 0.57624 0.27171 0.0
C450 C 0.19267 0.54548 0.32517 0.0
C451 C 0.2235 0.56053 0.38571 0.0
C452 C 0.97825 0.78194 0.43064 0.0
C453 C 0.01288 0.7688 0.44326 0.0
C454 C 0.96922 0.80835 0.48626 0.0
C455 C 0.99429 0.82287 0.55769 0.0
H456 H 0.96013 0.77541 0.37043 0.0
H457 H 0.94347 0.81944 0.46932 0.0
S458 S 0.08635 0.79375 0.62681 0.0
N459 N 0.0704 0.76938 0.53861 0.0
N460 N 0.0535 0.81829 0.6436 0.0
C461 C 0.02708 0.8068 0.57693 0.0
C462 C 0.03628 0.78 0.5199 0.0
C463 C 0.67874 0.94655 0.36108 0.0
C464 C 0.71804 0.97555 0.35223 0.0
C465 C 0.6533 0.93589 0.44669 0.0
C466 C 0.66608 0.95422 0.52572 0.0
H467 H 0.66669 0.93472 0.2986 0.0
H468 H 0.62238 0.91641 0.44732 0.0
S469 S 0.76915 0.02429 0.54642 0.0
N470 N 0.77075 0.01694 0.43459 0.0
N471 N 0.72303 0.99632 0.59648 0.0
C472 C 0.70677 0.97928 0.52182 0.0
C473 C 0.73274 0.99008 0.43466 0.0
C474 C 0.52173 0.74179 0.59973 0.0
C475 C 0.55994 0.76925 0.55497 0.0
C476 C 0.51677 0.70123 0.67019 0.0
C477 C 0.54968 0.68592 0.69724 0.0
H478 H 0.49527 0.75024 0.57539 0.0
H479 H 0.4866 0.68052 0.69908 0.0
S480 S 0.6564 0.74799 0.61068 0.0
N481 N 0.6315 0.78003 0.55119 0.0
N482 N 0.6222 0.70423 0.68026 0.0
C483 C 0.58811 0.71437 0.65728 0.0
C484 C 0.59319 0.75577 0.58738 0.0
C485 C 0.85014 0.64324 0.24409 0.0
C486 C 0.81592 0.60571 0.26512 0.0
C487 C 0.87705 0.65186 0.31604 0.0
C488 C 0.87097 0.62271 0.41067 0.0
H489 H 0.85761 0.66431 0.1696 0.0
H490 H 0.90426 0.67966 0.29526 0.0
S491 S 0.78418 0.52208 0.5047 0.0
N492 N 0.77587 0.5412 0.38892 0.0
N493 N 0.82649 0.55707 0.52406 0.0
C494 C 0.83556 0.58665 0.43424 0.0
C495 C 0.80801 0.57823 0.36143 0.0
loop_
_geom_bond_atom_site_label_1
_geom_bond_atom_site_label_2
_geom_bond_distance
_geom_bond_site_symmetry_2
_ccdc_geom_bond_type
H0 C3 0.931 . S
H1 C6 0.928 . S
H2 C8 0.930 . S
C3 H0 0.931 . S
C3 C4 1.413 . S
C3 C5 1.360 1_554 S
C4 C3 1.413 . S
C4 C8 1.429 . S
C5 C3 1.360 1_556 S
C5 C6 1.372 . S
C6 H1 0.928 . S
C6 C5 1.372 . S
C6 C7 1.404 . S
C7 C6 1.404 . S
C7 C8 1.391 1_556 S
C8 H2 0.930 . S
C8 C4 1.429 . S
C8 C7 1.391 1_554 S
H9 C12 0.931 . S
H10 C15 0.928 . S
H11 C17 0.930 . S
C12 H9 0.931 . S
C12 C13 1.413 . S
C12 C14 1.360 1_554 S
C13 C12 1.413 . S
C13 C17 1.429 . S
C14 C12 1.360 1_556 S
C14 C15 1.372 . S
C15 H10 0.928 . S
C15 C14 1.372 . S
C15 C16 1.404 1_556 S
C16 C15 1.404 1_554 S
C16 C17 1.391 . S
C17 H11 0.930 . S
C17 C13 1.429 . S
C17 C16 1.391 . S
H18 C21 0.931 . S
H19 C24 0.928 . S
H20 C26 0.930 . S
C21 H18 0.931 . S
C21 C22 1.413 . S
C21 C23 1.360 1_554 S
C22 C21 1.413 . S
C22 C26 1.429 . S
C23 C21 1.360 1_556 S
C23 C24 1.372 . S
C24 H19 0.928 . S
C24 C23 1.372 . S
C24 C25 1.404 1_556 S
C25 C24 1.404 1_554 S
C25 C26 1.391 . S
C26 H20 0.930 . S
C26 C22 1.429 . S
C26 C25 1.391 . S
H27 C30 0.931 . S
H28 C33 0.928 . S
H29 C35 0.930 . S
C30 H27 0.931 . S
C30 C31 1.413 . S
C30 C32 1.360 . S
C31 C30 1.413 . S
C31 C35 1.429 . S
C32 C30 1.360 . S
C32 C33 1.372 . S
C33 H28 0.928 . S
C33 C32 1.372 . S
C33 C34 1.404 . S
C34 C33 1.404 . S
C34 C35 1.391 . S
C35 H29 0.930 . S
C35 C31 1.429 . S
C35 C34 1.391 . S
H36 C39 0.931 . S
H37 C42 0.928 . S
H38 C44 0.930 . S
C39 H36 0.931 . S
C39 C40 1.413 . S
C39 C41 1.360 . S
C40 C39 1.413 . S
C40 C44 1.429 . S
C41 C39 1.360 . S
C41 C42 1.372 . S
C42 H37 0.928 . S
C42 C41 1.372 . S
C42 C43 1.404 . S
C43 C42 1.404 . S
C43 C44 1.391 . S
C44 H38 0.930 . S
C44 C40 1.429 . S
C44 C43 1.391 . S
H45 C48 0.931 . S
H46 C51 0.928 . S
H47 C53 0.930 . S
C48 H45 0.931 . S
C48 C49 1.413 . S
C48 C50 1.360 . S
C49 C48 1.413 . S
C49 C53 1.429 . S
C50 C48 1.360 . S
C50 C51 1.372 . S
C51 H46 0.928 . S
C51 C50 1.372 . S
C51 C52 1.404 . S
C52 C51 1.404 . S
C52 C53 1.391 . S
C53 H47 0.930 . S
C53 C49 1.429 . S
C53 C52 1.391 . S
H54 C57 0.931 . S
H55 C60 0.928 . S
H56 C62 0.930 . S
C57 H54 0.931 . S
C57 C58 1.413 . S
C57 C59 1.360 . S
C58 C57 1.413 . S
C58 C62 1.429 . S
C59 C57 1.360 . S
C59 C60 1.372 . S
C60 H55 0.928 . S
C60 C59 1.372 . S
C60 C61 1.404 . S
C61 C60 1.404 . S
C61 C62 1.391 . S
C62 H56 0.930 . S
C62 C58 1.429 . S
C62 C61 1.391 . S
H63 C66 0.931 . S
H64 C69 0.928 . S
H65 C71 0.930 . S
C66 H63 0.931 . S
C66 C67 1.413 . S
C66 C68 1.360 . S
C67 C66 1.413 . S
C67 C71 1.429 . S
C68 C66 1.360 . S
C68 C69 1.372 . S
C69 H64 0.928 . S
C69 C68 1.372 . S
C69 C70 1.404 . S
C70 C69 1.404 . S
C70 C71 1.391 . S
C71 H65 0.930 . S
C71 C67 1.429 . S
C71 C70 1.391 . S
Nd72 C74 2.836 1_445 S
Nd72 O92 2.500 1_445 S
Nd72 O93 2.509 . S
Nd72 O94 2.487 . S
Nd72 O95 2.682 . S
Nd72 O96 2.410 1_545 S
Nd72 O101 2.414 1_455 S
Nd72 O103 2.424 . S
Nd73 C83 2.836 . S
Nd73 O95 2.414 1_554 S
Nd73 O97 2.424 1_545 S
Nd73 O98 2.500 . S
Nd73 O99 2.492 . S
Nd73 O100 2.487 1_455 S
Nd73 O101 2.682 1_454 S
Nd73 O102 2.410 1_554 S
C74 Nd72 2.836 1_665 S
C74 C75 1.498 . S
C74 O92 1.258 . S
C74 O93 1.234 1_665 S
C75 C74 1.498 . S
C75 C76 1.366 . S
C75 C80 1.407 1_655 S
C76 C75 1.366 . S
C76 C77 1.392 . S
C76 H104 0.930 . S
C77 C76 1.392 . S
C77 C78 1.398 . S
C77 H105 0.929 . S
C78 C77 1.398 . S
C78 C79 1.352 . S
C79 C78 1.352 . S
C79 C80 1.384 1_655 S
C79 H106 0.930 1_655 S
C80 C75 1.407 1_455 S
C80 C79 1.384 1_455 S
C80 H107 0.929 . S
C81 O94 1.241 . S
C81 O95 1.273 . S
C82 O96 1.251 . S
C82 O97 1.268 1_556 S
C83 Nd73 2.836 . S
C83 C84 1.498 . S
C83 O98 1.258 . S
C83 O99 1.239 . S
C84 C83 1.498 . S
C84 C85 1.366 . S
C84 C89 1.407 . S
C85 C84 1.366 . S
C85 C86 1.392 . S
C85 H108 0.930 . S
C86 C85 1.392 . S
C86 C87 1.398 . S
C86 H109 0.929 . S
C87 C86 1.398 . S
C87 C88 1.352 . S
C88 C87 1.352 . S
C88 C89 1.384 . S
C88 H110 0.930 . S
C89 C84 1.407 . S
C89 C88 1.384 . S
C89 H111 0.929 . S
C90 O100 1.241 1_556 S
C90 O101 1.273 . S
C91 O102 1.251 . S
C91 O103 1.268 . S
O92 Nd72 2.500 1_665 S
O92 C74 1.258 . S
O93 Nd72 2.509 . S
O93 C74 1.234 1_445 S
O94 Nd72 2.487 . S
O94 C81 1.241 . S
O95 Nd72 2.682 . S
O95 Nd73 2.414 1_556 S
O95 C81 1.273 . S
O96 Nd72 2.410 1_565 S
O96 C82 1.251 . S
O97 Nd73 2.424 1_565 S
O97 C82 1.268 1_554 S
O98 Nd73 2.500 . S
O98 C83 1.258 . S
O99 Nd73 2.492 . S
O99 C83 1.239 . S
O100 Nd73 2.487 1_655 S
O100 C90 1.241 1_554 S
O101 Nd72 2.414 1_655 S
O101 Nd73 2.682 1_656 S
O101 C90 1.273 . S
O102 Nd73 2.410 1_556 S
O102 C91 1.251 . S
O103 Nd72 2.424 . S
O103 C91 1.268 . S
H104 C76 0.930 . S
H105 C77 0.929 . S
H106 C79 0.930 1_455 S
H107 C80 0.929 . S
H108 C85 0.930 . S
H109 C86 0.929 . S
H110 C88 0.930 . S
H111 C89 0.929 . S
Nd112 C114 2.836 1_545 S
Nd112 O132 2.500 1_545 S
Nd112 O133 2.492 . S
Nd112 O134 2.487 . S
Nd112 O135 2.682 . S
Nd112 O136 2.410 . S
Nd112 O141 2.414 1_545 S
Nd112 O143 2.424 . S
Nd113 C123 2.836 1_556 S
Nd113 O135 2.414 . S
Nd113 O137 2.424 . S
Nd113 O138 2.500 . S
Nd113 O139 2.492 1_556 S
Nd113 O140 2.483 1_546 S
Nd113 O141 2.682 1_545 S
Nd113 O142 2.410 . S
C114 Nd112 2.836 1_565 S
C114 C115 1.498 . S
C114 O132 1.258 . S
C114 O133 1.239 1_565 S
C115 C114 1.498 . S
C115 C116 1.366 . S
C115 C120 1.407 . S
C116 C115 1.366 . S
C116 C117 1.392 . S
C116 H144 0.930 . S
C117 C116 1.392 . S
C117 C118 1.398 . S
C117 H145 0.929 . S
C118 C117 1.398 . S
C118 C119 1.352 . S
C119 C118 1.352 . S
C119 C120 1.384 . S
C119 H146 0.930 . S
C120 C115 1.407 . S
C120 C119 1.384 . S
C120 H147 0.929 . S
C121 O134 1.241 . S
C121 O135 1.273 . S
C122 O136 1.251 . S
C122 O137 1.268 . S
C123 Nd113 2.836 1_554 S
C123 C124 1.498 . S
C123 O138 1.258 1_554 S
C123 O139 1.239 . S
C124 C123 1.498 . S
C124 C125 1.366 . S
C124 C129 1.407 . S
C125 C124 1.366 . S
C125 C126 1.392 . S
C125 H148 0.930 . S
C126 C125 1.392 . S
C126 C127 1.398 . S
C126 H149 0.929 . S
C127 C126 1.398 . S
C127 C128 1.352 . S
C128 C127 1.352 . S
C128 C129 1.384 . S
C128 H150 0.930 . S
C129 C124 1.407 . S
C129 C128 1.384 . S
C129 H151 0.929 . S
C130 O140 1.245 . S
C130 O141 1.273 1_554 S
C131 O142 1.251 . S
C131 O143 1.268 . S
O132 Nd112 2.500 1_565 S
O132 C114 1.258 . S
O133 Nd112 2.492 . S
O133 C114 1.239 1_545 S
O134 Nd112 2.487 . S
O134 C121 1.241 . S
O135 Nd112 2.682 . S
O135 Nd113 2.414 . S
O135 C121 1.273 . S
O136 Nd112 2.410 . S
O136 C122 1.251 . S
O137 Nd113 2.424 . S
O137 C122 1.268 . S
O138 Nd113 2.500 . S
O138 C123 1.258 1_556 S
O139 Nd113 2.492 1_554 S
O139 C123 1.239 . S
O140 Nd113 2.483 1_564 S
O140 C130 1.245 . S
O141 Nd112 2.414 1_565 S
O141 Nd113 2.682 1_565 S
O141 C130 1.273 1_556 S
O142 Nd113 2.410 . S
O142 C131 1.251 . S
O143 Nd112 2.424 . S
O143 C131 1.268 . S
H144 C116 0.930 . S
H145 C117 0.929 . S
H146 C119 0.930 . S
H147 C120 0.929 . S
H148 C125 0.930 . S
H149 C126 0.929 . S
H150 C128 0.930 . S
H151 C129 0.929 . S
Nd152 C154 2.836 . S
Nd152 O172 2.500 . S
Nd152 O173 2.492 . S
Nd152 O174 2.487 1_554 S
Nd152 O175 2.682 1_554 S
Nd152 O176 2.410 1_554 S
Nd152 O181 2.414 1_554 S
Nd152 O183 2.424 . S
Nd153 C163 2.836 . S
Nd153 O175 2.414 . S
Nd153 O177 2.424 . S
Nd153 O178 2.500 . S
Nd153 O179 2.492 . S
Nd153 O180 2.487 . S
Nd153 O181 2.682 . S
Nd153 O182 2.410 . S
C154 Nd152 2.836 . S
C154 C155 1.498 . S
C154 O172 1.258 . S
C154 O173 1.239 . S
C155 C154 1.498 . S
C155 C156 1.366 . S
C155 C160 1.407 . S
C156 C155 1.366 . S
C156 C157 1.392 . S
C156 H184 0.930 . S
C157 C156 1.392 . S
C157 C158 1.398 . S
C157 H185 0.929 . S
C158 C157 1.398 . S
C158 C159 1.352 . S
C159 C158 1.352 . S
C159 C160 1.384 . S
C159 H186 0.930 . S
C160 C155 1.407 . S
C160 C159 1.384 . S
C160 H187 0.929 . S
C161 O174 1.241 . S
C161 O175 1.273 . S
C162 O176 1.251 . S
C162 O177 1.268 . S
C163 Nd153 2.836 . S
C163 C164 1.498 . S
C163 O178 1.258 . S
C163 O179 1.239 . S
C164 C163 1.498 . S
C164 C165 1.366 . S
C164 C169 1.407 . S
C165 C164 1.366 . S
C165 C166 1.392 . S
C165 H188 0.930 . S
C166 C165 1.392 . S
C166 C167 1.398 . S
C166 H189 0.929 . S
C167 C166 1.398 . S
C167 C168 1.352 . S
C168 C167 1.352 . S
C168 C169 1.384 . S
C168 H190 0.930 . S
C169 C164 1.407 . S
C169 C168 1.384 . S
C169 H191 0.929 . S
C170 O180 1.241 . S
C170 O181 1.273 . S
C171 O182 1.251 . S
C171 O183 1.268 1_556 S
O172 Nd152 2.500 . S
O172 C154 1.258 . S
O173 Nd152 2.492 . S
O173 C154 1.239 . S
O174 Nd152 2.487 1_556 S
O174 C161 1.241 . S
O175 Nd152 2.682 1_556 S
O175 Nd153 2.414 . S
O175 C161 1.273 . S
O176 Nd152 2.410 1_556 S
O176 C162 1.251 . S
O177 Nd153 2.424 . S
O177 C162 1.268 . S
O178 Nd153 2.500 . S
O178 C163 1.258 . S
O179 Nd153 2.492 . S
O179 C163 1.239 . S
O180 Nd153 2.487 . S
O180 C170 1.241 . S
O181 Nd152 2.414 1_556 S
O181 Nd153 2.682 . S
O181 C170 1.273 . S
O182 Nd153 2.410 . S
O182 C171 1.251 . S
O183 Nd152 2.424 . S
O183 C171 1.268 1_554 S
H184 C156 0.930 . S
H185 C157 0.929 . S
H186 C159 0.930 . S
H187 C160 0.929 . S
H188 C165 0.930 . S
H189 C166 0.929 . S
H190 C168 0.930 . S
H191 C169 0.929 . S
Nd192 C194 2.836 1_455 S
Nd192 O212 2.500 1_455 S
Nd192 O213 2.492 1_455 S
Nd192 O214 2.487 . S
Nd192 O215 2.682 . S
Nd192 O216 2.410 1_455 S
Nd192 O221 2.414 . S
Nd192 O223 2.424 . S
Nd193 C203 2.836 . S
Nd193 O215 2.414 1_554 S
Nd193 O217 2.424 1_454 S
Nd193 O218 2.500 . S
Nd193 O219 2.492 . S
Nd193 O220 2.487 . S
Nd193 O221 2.682 1_554 S
Nd193 O222 2.410 1_554 S
C194 Nd192 2.836 1_655 S
C194 C195 1.498 . S
C194 O212 1.258 . S
C194 O213 1.239 . S
C195 C194 1.498 . S
C195 C196 1.366 . S
C195 C200 1.407 . S
C196 C195 1.366 . S
C196 C197 1.392 . S
C196 H224 0.930 . S
C197 C196 1.392 . S
C197 C198 1.398 . S
C197 H225 0.929 . S
C198 C197 1.398 . S
C198 C199 1.352 . S
C199 C198 1.352 . S
C199 C200 1.384 . S
C199 H226 0.930 . S
C200 C195 1.407 . S
C200 C199 1.384 . S
C200 H227 0.929 . S
C201 O214 1.241 . S
C201 O215 1.273 . S
C202 O216 1.251 . S
C202 O217 1.268 . S
C203 Nd193 2.836 . S
C203 C204 1.498 . S
C203 O218 1.258 . S
C203 O219 1.239 . S
C204 C203 1.498 . S
C204 C205 1.366 . S
C204 C209 1.407 . S
C205 C204 1.366 . S
C205 C206 1.392 . S
C205 H228 0.930 . S
C206 C205 1.392 . S
C206 C207 1.398 . S
C206 H229 0.929 . S
C207 C206 1.398 . S
C207 C208 1.352 . S
C208 C207 1.352 . S
C208 C209 1.384 . S
C208 H230 0.930 . S
C209 C204 1.407 . S
C209 C208 1.384 . S
C209 H231 0.929 . S
C210 O220 1.241 1_556 S
C210 O221 1.273 . S
C211 O222 1.251 . S
C211 O223 1.268 . S
O212 Nd192 2.500 1_655 S
O212 C194 1.258 . S
O213 Nd192 2.492 1_655 S
O213 C194 1.239 . S
O214 Nd192 2.487 . S
O214 C201 1.241 . S
O215 Nd192 2.682 . S
O215 Nd193 2.414 1_556 S
O215 C201 1.273 . S
O216 Nd192 2.410 1_655 S
O216 C202 1.251 . S
O217 Nd193 2.424 1_656 S
O217 C202 1.268 . S
O218 Nd193 2.500 . S
O218 C203 1.258 . S
O219 Nd193 2.492 . S
O219 C203 1.239 . S
O220 Nd193 2.487 . S
O220 C210 1.241 1_554 S
O221 Nd192 2.414 . S
O221 Nd193 2.682 1_556 S
O221 C210 1.273 . S
O222 Nd193 2.410 1_556 S
O222 C211 1.251 . S
O223 Nd192 2.424 . S
O223 C211 1.268 . S
H224 C196 0.930 . S
H225 C197 0.929 . S
H226 C199 0.930 . S
H227 C200 0.929 . S
H228 C205 0.930 . S
H229 C206 0.929 . S
H230 C208 0.930 . S
H231 C209 0.929 . S
C232 C233 1.369 . S
C232 C234 1.419 . S
C232 H236 0.930 . S
C233 C232 1.369 . S
C233 C242 1.429 . S
C234 C232 1.419 . S
C234 C235 1.363 . S
C234 H237 0.929 . S
C235 C234 1.363 . S
C235 C241 1.428 . S
H236 C232 0.930 . S
H237 C234 0.929 . S
S238 N239 1.613 1_565 S
S238 N240 1.610 1_565 S
N239 S238 1.613 1_545 S
N239 C242 1.350 . S
N240 S238 1.610 1_545 S
N240 C241 1.351 . S
C241 C235 1.428 . S
C241 N240 1.351 . S
C241 C242 1.434 . S
C242 C233 1.429 . S
C242 N239 1.350 . S
C242 C241 1.434 . S
C243 C244 1.369 . S
C243 C245 1.419 . S
C243 H247 0.930 . S
C244 C243 1.369 . S
C244 C253 1.429 . S
C245 C243 1.419 . S
C245 C246 1.363 . S
C245 H248 0.929 . S
C246 C245 1.363 . S
C246 C252 1.428 . S
H247 C243 0.930 . S
H248 C245 0.929 . S
S249 N250 1.613 . S
S249 N251 1.610 . S
N250 S249 1.613 . S
N250 C253 1.350 . S
N251 S249 1.610 . S
N251 C252 1.351 . S
C252 C246 1.428 . S
C252 N251 1.351 . S
C252 C253 1.434 . S
C253 C244 1.429 . S
C253 N250 1.350 . S
C253 C252 1.434 . S
C254 C255 1.369 . S
C254 C256 1.419 . S
C254 H258 0.930 . S
C255 C254 1.369 . S
C255 C264 1.429 . S
C256 C254 1.419 . S
C256 C257 1.363 . S
C256 H259 0.929 . S
C257 C256 1.363 . S
C257 C263 1.428 . S
H258 C254 0.930 . S
H259 C256 0.929 . S
S260 N261 1.613 1_554 S
S260 N262 1.610 . S
N261 S260 1.613 1_556 S
N261 C264 1.350 . S
N262 S260 1.610 . S
N262 C263 1.351 1_554 S
C263 C257 1.428 . S
C263 N262 1.351 1_556 S
C263 C264 1.434 . S
C264 C255 1.429 . S
C264 N261 1.350 . S
C264 C263 1.434 . S
C265 C266 1.369 . S
C265 C267 1.419 . S
C265 H269 0.930 . S
C266 C265 1.369 . S
C266 C275 1.429 . S
C267 C265 1.419 . S
C267 C268 1.363 . S
C267 H270 0.929 . S
C268 C267 1.363 . S
C268 C274 1.428 . S
H269 C265 0.930 . S
H270 C267 0.929 . S
S271 N272 1.613 . S
S271 N273 1.610 . S
N272 S271 1.613 . S
N272 C275 1.350 . S
N273 S271 1.610 . S
N273 C274 1.351 . S
C274 C268 1.428 . S
C274 N273 1.351 . S
C274 C275 1.434 . S
C275 C266 1.429 . S
C275 N272 1.350 . S
C275 C274 1.434 . S
C276 C277 1.369 . S
C276 C278 1.419 . S
C276 H280 0.930 . S
C277 C276 1.369 . S
C277 C286 1.429 1_556 S
C278 C276 1.419 . S
C278 C279 1.363 1_565 S
C278 H281 0.929 1_565 S
C279 C278 1.363 1_545 S
C279 C285 1.428 1_546 S
H280 C276 0.930 . S
H281 C278 0.929 1_545 S
S282 N283 1.613 . S
S282 N284 1.610 1_565 S
N283 S282 1.613 . S
N283 C286 1.350 . S
N284 S282 1.610 1_545 S
N284 C285 1.351 1_545 S
C285 C279 1.428 1_564 S
C285 N284 1.351 1_565 S
C285 C286 1.434 . S
C286 C277 1.429 1_554 S
C286 N283 1.350 . S
C286 C285 1.434 . S
C287 C288 1.369 . S
C287 C289 1.419 . S
C287 H291 0.930 . S
C288 C287 1.369 . S
C288 C297 1.429 . S
C289 C287 1.419 . S
C289 C290 1.363 . S
C289 H292 0.929 . S
C290 C289 1.363 . S
C290 C296 1.428 . S
H291 C287 0.930 . S
H292 C289 0.929 . S
S293 N294 1.613 . S
S293 N295 1.610 . S
N294 S293 1.613 . S
N294 C297 1.350 . S
N295 S293 1.610 . S
N295 C296 1.351 . S
C296 C290 1.428 . S
C296 N295 1.351 . S
C296 C297 1.434 . S
C297 C288 1.429 . S
C297 N294 1.350 . S
C297 C296 1.434 . S
C298 C299 1.369 . S
C298 C300 1.419 . S
C298 H302 0.930 . S
C299 C298 1.369 . S
C299 C308 1.429 . S
C300 C298 1.419 . S
C300 C301 1.363 . S
C300 H303 0.929 . S
C301 C300 1.363 . S
C301 C307 1.428 . S
H302 C298 0.930 . S
H303 C300 0.929 . S
S304 N305 1.613 . S
S304 N306 1.610 . S
N305 S304 1.613 . S
N305 C308 1.350 . S
N306 S304 1.610 . S
N306 C307 1.351 . S
C307 C301 1.428 . S
C307 N306 1.351 . S
C307 C308 1.434 . S
C308 C299 1.429 . S
C308 N305 1.350 . S
C308 C307 1.434 . S
C309 C310 1.369 1_556 S
C309 C311 1.419 . S
C309 H313 0.930 . S
C310 C309 1.369 1_554 S
C310 C319 1.429 . S
C311 C309 1.419 . S
C311 C312 1.363 . S
C311 H314 0.929 . S
C312 C311 1.363 . S
C312 C318 1.428 1_556 S
H313 C309 0.930 . S
H314 C311 0.929 . S
S315 N316 1.613 . S
S315 N317 1.610 . S
N316 S315 1.613 . S
N316 C319 1.350 . S
N317 S315 1.610 . S
N317 C318 1.351 . S
C318 C312 1.428 1_554 S
C318 N317 1.351 . S
C318 C319 1.434 . S
C319 C310 1.429 . S
C319 N316 1.350 . S
C319 C318 1.434 . S
C320 C321 1.369 . S
C320 C322 1.419 . S
C320 H324 0.930 . S
C321 C320 1.369 . S
C321 C330 1.429 . S
C322 C320 1.419 . S
C322 C323 1.363 . S
C322 H325 0.929 . S
C323 C322 1.363 . S
C323 C329 1.428 . S
H324 C320 0.930 . S
H325 C322 0.929 . S
S326 N327 1.613 . S
S326 N328 1.610 . S
N327 S326 1.613 . S
N327 C330 1.350 . S
N328 S326 1.610 . S
N328 C329 1.351 . S
C329 C323 1.428 . S
C329 N328 1.351 . S
C329 C330 1.434 . S
C330 C321 1.429 . S
C330 N327 1.350 . S
C330 C329 1.434 . S
C331 C332 1.369 . S
C331 C333 1.419 . S
C331 H335 0.930 . S
C332 C331 1.369 . S
C332 C341 1.429 . S
C333 C331 1.419 . S
C333 C334 1.363 . S
C333 H336 0.929 1_556 S
C334 C333 1.363 . S
C334 C340 1.428 . S
H335 C331 0.930 . S
H336 C333 0.929 1_554 S
S337 N338 1.613 . S
S337 N339 1.610 . S
N338 S337 1.613 . S
N338 C341 1.350 . S
N339 S337 1.610 . S
N339 C340 1.351 . S
C340 C334 1.428 . S
C340 N339 1.351 . S
C340 C341 1.434 . S
C341 C332 1.429 . S
C341 N338 1.350 . S
C341 C340 1.434 . S
C342 C343 1.369 . S
C342 C344 1.419 . S
C342 H346 0.930 . S
C343 C342 1.369 . S
C343 C352 1.429 . S
C344 C342 1.419 . S
C344 C345 1.363 . S
C344 H347 0.929 . S
C345 C344 1.363 . S
C345 C351 1.428 . S
H346 C342 0.930 . S
H347 C344 0.929 . S
S348 N349 1.613 . S
S348 N350 1.610 . S
N349 S348 1.613 . S
N349 C352 1.350 . S
N350 S348 1.610 . S
N350 C351 1.351 . S
C351 C345 1.428 . S
C351 N350 1.351 . S
C351 C352 1.434 . S
C352 C343 1.429 . S
C352 N349 1.350 . S
C352 C351 1.434 . S
C353 C354 1.369 . S
C353 C355 1.419 . S
C353 H357 0.930 . S
C354 C353 1.369 . S
C354 C363 1.429 . S
C355 C353 1.419 . S
C355 C356 1.363 . S
C355 H358 0.929 . S
C356 C355 1.363 . S
C356 C362 1.428 . S
H357 C353 0.930 . S
H358 C355 0.929 . S
S359 N360 1.613 . S
S359 N361 1.610 . S
N360 S359 1.613 . S
N360 C363 1.350 1_554 S
N361 S359 1.610 . S
N361 C362 1.351 1_554 S
C362 C356 1.428 . S
C362 N361 1.351 1_556 S
C362 C363 1.434 . S
C363 C354 1.429 . S
C363 N360 1.350 1_556 S
C363 C362 1.434 . S
C364 C365 1.369 . S
C364 C366 1.419 . S
C364 H368 0.930 . S
C365 C364 1.369 . S
C365 C374 1.429 1_556 S
C366 C364 1.419 . S
C366 C367 1.363 . S
C366 H369 0.929 . S
C367 C366 1.363 . S
C367 C373 1.428 1_556 S
H368 C364 0.930 . S
H369 C366 0.929 . S
S370 N371 1.613 . S
S370 N372 1.610 1_655 S
N371 S370 1.613 . S
N371 C374 1.350 . S
N372 S370 1.610 1_455 S
N372 C373 1.351 1_455 S
C373 C367 1.428 1_554 S
C373 N372 1.351 1_655 S
C373 C374 1.434 . S
C374 C365 1.429 1_554 S
C374 N371 1.350 . S
C374 C373 1.434 . S
C375 C376 1.369 1_545 S
C375 C377 1.419 . S
C375 H379 0.930 1_556 S
C376 C375 1.369 1_565 S
C376 C385 1.429 . S
C377 C375 1.419 . S
C377 C378 1.363 . S
C377 H380 0.929 . S
C378 C377 1.363 . S
C378 C384 1.404 1_545 S
H379 C375 0.930 1_554 S
H380 C377 0.929 . S
S381 N382 1.613 . S
S381 N383 1.610 . S
N382 S381 1.613 . S
N382 C385 1.350 . S
N383 S381 1.610 . S
N383 C384 1.355 . S
C384 C378 1.404 1_565 S
C384 N383 1.355 . S
C384 C385 1.458 . S
C385 C376 1.429 . S
C385 N382 1.350 . S
C385 C384 1.458 . S
C386 C387 1.369 . S
C386 C388 1.419 . S
C386 H390 0.930 . S
C387 C386 1.369 . S
C387 C396 1.429 . S
C388 C386 1.419 . S
C388 C389 1.363 . S
C388 H391 0.929 . S
C389 C388 1.363 . S
C389 C395 1.428 . S
H390 C386 0.930 . S
H391 C388 0.929 . S
S392 N393 1.613 . S
S392 N394 1.610 . S
N393 S392 1.613 . S
N393 C396 1.350 . S
N394 S392 1.610 . S
N394 C395 1.351 . S
C395 C389 1.428 . S
C395 N394 1.351 . S
C395 C396 1.434 . S
C396 C387 1.429 . S
C396 N393 1.350 . S
C396 C395 1.434 . S
C397 C398 1.369 . S
C397 C399 1.419 . S
C397 H401 0.930 1_556 S
C398 C397 1.369 . S
C398 C407 1.429 . S
C399 C397 1.419 . S
C399 C400 1.363 . S
C399 H402 0.929 1_556 S
C400 C399 1.363 . S
C400 C406 1.428 . S
H401 C397 0.930 1_554 S
H402 C399 0.929 1_554 S
S403 N404 1.613 . S
S403 N405 1.610 . S
N404 S403 1.613 . S
N404 C407 1.350 . S
N405 S403 1.610 . S
N405 C406 1.351 . S
C406 C400 1.428 . S
C406 N405 1.351 . S
C406 C407 1.434 . S
C407 C398 1.429 . S
C407 N404 1.350 . S
C407 C406 1.434 . S
C408 C409 1.369 . S
C408 C410 1.419 . S
C408 H412 0.930 . S
C409 C408 1.369 . S
C409 C418 1.429 . S
C410 C408 1.419 . S
C410 C411 1.363 . S
C410 H413 0.929 . S
C411 C410 1.363 . S
C411 C417 1.428 . S
H412 C408 0.930 . S
H413 C410 0.929 . S
S414 N415 1.613 . S
S414 N416 1.610 . S
N415 S414 1.613 . S
N415 C418 1.350 . S
N416 S414 1.610 . S
N416 C417 1.351 . S
C417 C411 1.428 . S
C417 N416 1.351 . S
C417 C418 1.434 . S
C418 C409 1.429 . S
C418 N415 1.350 . S
C418 C417 1.434 . S
C419 C420 1.369 . S
C419 C421 1.419 . S
C419 H423 0.930 . S
C420 C419 1.369 . S
C420 C429 1.429 . S
C421 C419 1.419 . S
C421 C422 1.363 . S
C421 H424 0.929 . S
C422 C421 1.363 . S
C422 C428 1.428 . S
H423 C419 0.930 . S
H424 C421 0.929 . S
S425 N426 1.613 . S
S425 N427 1.610 . S
N426 S425 1.613 . S
N426 C429 1.350 . S
N427 S425 1.610 . S
N427 C428 1.351 . S
C428 C422 1.428 . S
C428 N427 1.351 . S
C428 C429 1.434 . S
C429 C420 1.429 . S
C429 N426 1.350 . S
C429 C428 1.434 . S
C430 C431 1.369 . S
C430 C432 1.419 . S
C430 H434 0.930 . S
C431 C430 1.369 . S
C431 C440 1.429 . S
C432 C430 1.419 . S
C432 C433 1.363 . S
C432 H435 0.929 . S
C433 C432 1.363 . S
C433 C439 1.437 . S
H434 C430 0.930 . S
H435 C432 0.929 . S
S436 N437 1.613 . S
S436 N438 1.610 . S
N437 S436 1.613 . S
N437 C440 1.350 1_556 S
N438 S436 1.610 . S
N438 C439 1.339 1_556 S
C439 C433 1.437 . S
C439 N438 1.339 1_554 S
C439 C440 1.436 . S
C440 C431 1.429 . S
C440 N437 1.350 1_554 S
C440 C439 1.436 . S
C441 C442 1.369 . S
C441 C443 1.419 . S
C441 H445 0.930 . S
C442 C441 1.369 . S
C442 C451 1.429 . S
C443 C441 1.419 . S
C443 C444 1.363 . S
C443 H446 0.929 . S
C444 C443 1.363 . S
C444 C450 1.428 . S
H445 C441 0.930 . S
H446 C443 0.929 . S
S447 N448 1.613 . S
S447 N449 1.610 . S
N448 S447 1.613 . S
N448 C451 1.350 . S
N449 S447 1.610 . S
N449 C450 1.351 . S
C450 C444 1.428 . S
C450 N449 1.351 . S
C450 C451 1.434 . S
C451 C442 1.429 . S
C451 N448 1.350 . S
C451 C450 1.434 . S
C452 C453 1.369 . S
C452 C454 1.419 . S
C452 H456 0.930 . S
C453 C452 1.369 . S
C453 C462 1.429 . S
C454 C452 1.419 . S
C454 C455 1.363 . S
C454 H457 0.929 . S
C455 C454 1.363 . S
C455 C461 1.428 . S
H456 C452 0.930 . S
H457 C454 0.929 . S
S458 N459 1.613 . S
S458 N460 1.610 . S
N459 S458 1.613 . S
N459 C462 1.350 . S
N460 S458 1.610 . S
N460 C461 1.351 . S
C461 C455 1.428 . S
C461 N460 1.351 . S
C461 C462 1.434 . S
C462 C453 1.429 . S
C462 N459 1.350 . S
C462 C461 1.434 . S
C463 C464 1.369 . S
C463 C465 1.419 . S
C463 H467 0.930 . S
C464 C463 1.369 . S
C464 C473 1.429 . S
C465 C463 1.419 . S
C465 C466 1.363 . S
C465 H468 0.929 . S
C466 C465 1.363 . S
C466 C472 1.428 . S
H467 C463 0.930 . S
H468 C465 0.929 . S
S469 N470 1.613 . S
S469 N471 1.610 1_545 S
N470 S469 1.613 . S
N470 C473 1.350 1_545 S
N471 S469 1.610 1_565 S
N471 C472 1.351 . S
C472 C466 1.428 . S
C472 N471 1.351 . S
C472 C473 1.434 . S
C473 C464 1.429 . S
C473 N470 1.350 1_565 S
C473 C472 1.434 . S
C474 C475 1.369 . S
C474 C476 1.419 . S
C474 H478 0.930 . S
C475 C474 1.369 . S
C475 C484 1.429 . S
C476 C474 1.419 . S
C476 C477 1.363 . S
C476 H479 0.929 . S
C477 C476 1.363 . S
C477 C483 1.428 . S
H478 C474 0.930 . S
H479 C476 0.929 . S
S480 N481 1.613 . S
S480 N482 1.610 . S
N481 S480 1.613 . S
N481 C484 1.350 . S
N482 S480 1.610 . S
N482 C483 1.351 . S
C483 C477 1.428 . S
C483 N482 1.351 . S
C483 C484 1.434 . S
C484 C475 1.429 . S
C484 N481 1.350 . S
C484 C483 1.434 . S
C485 C486 1.369 . S
C485 C487 1.419 . S
C485 H489 0.930 . S
C486 C485 1.369 . S
C486 C495 1.429 . S
C487 C485 1.419 . S
C487 C488 1.363 . S
C487 H490 0.929 . S
C488 C487 1.363 . S
C488 C494 1.428 . S
H489 C485 0.930 . S
H490 C487 0.929 . S
S491 N492 1.613 . S
S491 N493 1.610 . S
N492 S491 1.613 . S
N492 C495 1.350 . S
N493 S491 1.610 . S
N493 C494 1.351 . S
C494 C488 1.428 . S
C494 N493 1.351 . S
C494 C495 1.434 . S
C495 C486 1.429 . S
C495 N492 1.350 . S
C495 C494 1.434 . S
C233 C61 1.522 . S
C235 C81 1.514 . S
C246 C121 1.553 . S
C244 C70 1.617 . S
C257 C170 1.228 . S
C255 C43 1.249 . S
C268 C201 1.744 . S
C266 C52 1.813 . S
C279 C90 1.511 . S
C277 C25 1.531 1_556 S
C288 C34 1.595 . S
C290 C130 1.563 . S
C299 C7 1.247 . S
C301 C161 1.225 . S
C310 C16 1.828 . S
C312 C210 1.737 1_655 S
C323 C91 1.045 . S
C321 C50 0.932 . S
C334 C131 1.499 . S
C332 C59 1.358 . S
C345 C167 0.863 . S
C343 C67 0.872 . S
C354 C41 1.112 . S
C356 C211 1.206 . S
C365 C14 0.925 . S
C367 C82 1.046 1_655 S
C378 C122 1.498 . S
C376 C23 1.389 . S
C389 C158 0.860 . S
C387 C31 0.875 . S
C398 C5 1.112 . S
C400 C202 1.207 . S
C409 C49 1.704 . S
C411 C87 1.734 . S
C420 C58 1.802 . S
C422 C127 1.704 . S
C433 C171 2.158 1_554 S
C431 C68 1.948 . S
C444 C207 1.549 . S
C442 C40 1.593 . S
C453 C13 1.699 . S
C455 C78 1.732 . S
C466 C118 1.702 . S
C464 C22 1.799 . S
C477 C162 2.157 . S
C475 C32 1.931 . S
C486 C4 1.592 . S
C488 C198 1.551 . S
