# Generated by pormake.
# Topology anh, (6,3)-cn, num edge types: 1
# Building blocks:
#     Node 0, Type 0, BuildingBlock: MIFKUJ_clean_sbu_0, # of connection points: 6
#     Node 1, Type 0, BuildingBlock: MIFKUJ_clean_sbu_0, # of connection points: 6
#     Node 2, Type 0, BuildingBlock: MIFKUJ_clean_sbu_0, # of connection points: 6
#     Node 3, Type 1, BuildingBlock: KAKCAD_clean_linker_0, # of connection points: 3
#     Node 4, Type 1, BuildingBlock: KAKCAD_clean_linker_0, # of connection points: 3
#     Node 5, Type 1, BuildingBlock: KAKCAD_clean_linker_0, # of connection points: 3
#     Node 6, Type 1, BuildingBlock: KAKCAD_clean_linker_0, # of connection points: 3
#     Node 7, Type 1, BuildingBlock: KAKCAD_clean_linker_0, # of connection points: 3
#     Node 8, Type 1, BuildingBlock: KAKCAD_clean_linker_0, # of connection points: 3
#     Edge 9, Type (0, 1), BuildingBlock: XIVTED_clean_linker_0, # of connection points: 2
#     Edge 10, Type (0, 1), BuildingBlock: XIVTED_clean_linker_0, # of connection points: 2
#     Edge 11, Type (0, 1), BuildingBlock: XIVTED_clean_linker_0, # of connection points: 2
#     Edge 12, Type (0, 1), BuildingBlock: XIVTED_clean_linker_0, # of connection points: 2
#     Edge 13, Type (0, 1), BuildingBlock: XIVTED_clean_linker_0, # of connection points: 2
#     Edge 14, Type (0, 1), BuildingBlock: XIVTED_clean_linker_0, # of connection points: 2
#     Edge 15, Type (0, 1), BuildingBlock: XIVTED_clean_linker_0, # of connection points: 2
#     Edge 16, Type (0, 1), BuildingBlock: XIVTED_clean_linker_0, # of connection points: 2
#     Edge 17, Type (0, 1), BuildingBlock: XIVTED_clean_linker_0, # of connection points: 2
#     Edge 18, Type (0, 1), BuildingBlock: XIVTED_clean_linker_0, # of connection points: 2
#     Edge 19, Type (0, 1), BuildingBlock: XIVTED_clean_linker_0, # of connection points: 2
#     Edge 20, Type (0, 1), BuildingBlock: XIVTED_clean_linker_0, # of connection points: 2
#     Edge 21, Type (0, 1), BuildingBlock: XIVTED_clean_linker_0, # of connection points: 2
#     Edge 22, Type (0, 1), BuildingBlock: XIVTED_clean_linker_0, # of connection points: 2
#     Edge 23, Type (0, 1), BuildingBlock: XIVTED_clean_linker_0, # of connection points: 2
#     Edge 24, Type (0, 1), BuildingBlock: XIVTED_clean_linker_0, # of connection points: 2
#     Edge 25, Type (0, 1), BuildingBlock: XIVTED_clean_linker_0, # of connection points: 2
#     Edge 26, Type (0, 1), BuildingBlock: XIVTED_clean_linker_0, # of connection points: 2
# Relax obj value: 0.134
# Max RMSD: 0.184
# Mean RMSD: 0.144
data_MOF--net-anh--node1-MIFKUJ_clean_sbu_0--node2-KAKCAD_clean_linker_0--edge1-XIVTED_clean_linker_0
_symmetry_space_group_name_H-M    P1
_symmetry_Int_Tables_number       1
_symmetry_cell_setting            triclinic
loop_
_symmetry_equiv_pos_as_xyz
'x, y, z'
_cell_length_a     37.179643
_cell_length_b     37.357794
_cell_length_c     64.306573
_cell_angle_alpha  93.862304
_cell_angle_beta   90.757935
_cell_angle_gamma 119.76922
loop_
_atom_site_label
_atom_site_type_symbol
_atom_site_fract_x
_atom_site_fract_y
_atom_site_fract_z
_atom_type_partial_charge
Zn0 Zn 0.03501 0.56627 0.16116 0.0
Zn1 Zn 0.95188 0.48064 0.15423 0.0
C2 C 0.09161 0.53962 0.17218 0.0
O3 O 0.09405 0.5628 0.18904 0.0
C4 C 0.88139 0.4881 0.14453 0.0
O5 O 0.8796 0.46223 0.12911 0.0
O6 O 0.08256 0.62397 0.16468 0.0
O7 O 0.00434 0.56384 0.13493 0.0
O8 O 0.98137 0.49761 0.12751 0.0
C9 C 0.08343 0.65638 0.15919 0.0
O10 O 0.04931 0.6544 0.15182 0.0
O11 O 0.06514 0.53319 0.15751 0.0
C12 C 0.91788 0.39041 0.15446 0.0
O13 O 0.95236 0.3986 0.16463 0.0
O14 O 0.91315 0.41987 0.14896 0.0
O15 O 0.98314 0.48845 0.18173 0.0
O16 O 0.00463 0.55482 0.18752 0.0
O17 O 0.91235 0.50369 0.15771 0.0
C18 C 0.99269 0.5332 0.12155 0.0
C19 C 0.99347 0.51999 0.19441 0.0
Zn20 Zn 0.53154 0.05197 0.49464 0.0
Zn21 Zn 0.52669 0.95108 0.49386 0.0
C22 C 0.61693 0.11128 0.50333 0.0
O23 O 0.60241 0.11291 0.52167 0.0
C24 C 0.45552 0.87189 0.48054 0.0
O25 O 0.48412 0.86619 0.47167 0.0
O26 O 0.5112 0.09265 0.49445 0.0
O27 O 0.50032 0.00761 0.47158 0.0
O28 O 0.54333 0.98354 0.46849 0.0
C29 C 0.52068 0.1168 0.47992 0.0
O30 O 0.54156 0.11286 0.46447 0.0
O31 O 0.59233 0.08533 0.48884 0.0
C32 C 0.58964 0.93042 0.5065 0.0
O33 O 0.60378 0.96358 0.51965 0.0
O34 O 0.55848 0.92052 0.49423 0.0
O35 O 0.53412 0.97927 0.52273 0.0
O36 O 0.52709 0.03498 0.52369 0.0
O37 O 0.46603 0.90679 0.49022 0.0
C38 C 0.523 0.99862 0.46041 0.0
C39 C 0.53166 0.00833 0.53285 0.0
Zn40 Zn 0.58447 0.53282 0.8394 0.0
Zn41 Zn 0.4829 0.53026 0.83386 0.0
C42 C 0.53792 0.44123 0.83423 0.0
O43 O 0.50743 0.44389 0.84288 0.0
C44 C 0.47427 0.59762 0.82046 0.0
O45 O 0.44163 0.56648 0.81034 0.0
O46 O 0.64665 0.5655 0.84081 0.0
O47 O 0.56569 0.5571 0.81784 0.0
O48 O 0.50189 0.5092 0.80916 0.0
C49 C 0.66357 0.56276 0.82417 0.0
O50 O 0.63976 0.54037 0.8077 0.0
O51 O 0.57087 0.47417 0.83063 0.0
C52 C 0.39701 0.47598 0.84515 0.0
O53 O 0.41338 0.47014 0.86191 0.0
O54 O 0.42061 0.49838 0.83166 0.0
O55 O 0.50152 0.52735 0.86309 0.0
O56 O 0.56363 0.5331 0.86792 0.0
O57 O 0.49864 0.59029 0.83112 0.0
C58 C 0.53922 0.53048 0.80435 0.0
C59 C 0.53021 0.52929 0.87496 0.0
C60 C 0.53918 0.07245 0.29852 0.0
C61 C 0.52842 0.03543 0.30756 0.0
C62 C 0.53561 0.07267 0.27686 0.0
C63 C 0.52072 0.03577 0.26393 0.0
C64 C 0.51001 0.99883 0.273 0.0
C65 C 0.51391 0.99868 0.29457 0.0
C66 C 0.51623 0.03539 0.241 0.0
C67 C 0.54858 0.06461 0.22995 0.0
C68 C 0.5454 0.06206 0.20807 0.0
C69 C 0.50919 0.03089 0.19721 0.0
C70 C 0.4764 0.00202 0.20813 0.0
C71 C 0.48015 0.00437 0.22998 0.0
C72 C 0.43861 0.96835 0.19689 0.0
C73 C 0.41629 0.97689 0.18213 0.0
C74 C 0.42379 0.9274 0.20159 0.0
C75 C 0.38681 0.89556 0.19208 0.0
C76 C 0.36372 0.90403 0.17776 0.0
C77 C 0.58093 0.09076 0.1966 0.0
C78 C 0.59744 0.13357 0.20041 0.0
C79 C 0.59969 0.07548 0.18254 0.0
C80 C 0.63533 0.10282 0.17284 0.0
C81 C 0.65196 0.14568 0.17675 0.0
C82 C 0.63248 0.16085 0.19039 0.0
C83 C 0.37885 0.94494 0.17275 0.0
H84 H 0.55065 0.10126 0.30819 0.0
H85 H 0.54393 0.10153 0.27023 0.0
H86 H 0.49887 0.97001 0.26337 0.0
H87 H 0.50498 0.96961 0.30111 0.0
H88 H 0.57699 0.08818 0.23828 0.0
H89 H 0.45475 0.98205 0.23844 0.0
H90 H 0.50686 0.02872 0.18029 0.0
H91 H 0.42718 0.00836 0.17835 0.0
H92 H 0.44065 0.92009 0.21283 0.0
H93 H 0.37562 0.86439 0.19645 0.0
H94 H 0.58337 0.14585 0.21124 0.0
H95 H 0.58746 0.04246 0.17955 0.0
H96 H 0.36161 0.95219 0.16172 0.0
H97 H 0.64511 0.19385 0.19376 0.0
H98 H 0.64998 0.09058 0.16238 0.0
C99 C 0.58549 0.56386 0.64328 0.0
C100 C 0.59725 0.53888 0.65339 0.0
C101 C 0.58755 0.56558 0.62171 0.0
C102 C 0.60225 0.54296 0.6098 0.0
C103 C 0.61453 0.51831 0.62008 0.0
C104 C 0.61164 0.51597 0.64166 0.0
C105 C 0.60356 0.54438 0.58672 0.0
C106 C 0.61264 0.5808 0.57763 0.0
C107 C 0.60983 0.58155 0.55586 0.0
C108 C 0.60077 0.5458 0.54295 0.0
C109 C 0.59342 0.50946 0.55181 0.0
C110 C 0.59392 0.50889 0.57365 0.0
C111 C 0.58393 0.47122 0.53869 0.0
C112 C 0.55587 0.45695 0.52113 0.0
C113 C 0.60068 0.44687 0.54484 0.0
C114 C 0.58758 0.408 0.53467 0.0
C115 C 0.55799 0.39282 0.51789 0.0
C116 C 0.61472 0.61948 0.5471 0.0
C117 C 0.59816 0.64201 0.55743 0.0
C118 C 0.63638 0.63413 0.52896 0.0
C119 C 0.6423 0.67118 0.52173 0.0
C120 C 0.62708 0.69428 0.53269 0.0
C121 C 0.60458 0.67906 0.55043 0.0
C122 C 0.54311 0.41798 0.51072 0.0
H123 H 0.57374 0.58136 0.65202 0.0
H124 H 0.57678 0.58404 0.61438 0.0
H125 H 0.62659 0.50096 0.61151 0.0
H126 H 0.62108 0.49667 0.64922 0.0
H127 H 0.62172 0.60882 0.58758 0.0
H128 H 0.58546 0.48018 0.58047 0.0
H129 H 0.59898 0.54607 0.52614 0.0
H130 H 0.54234 0.47495 0.51606 0.0
H131 H 0.62311 0.4574 0.55797 0.0
H132 H 0.59993 0.38929 0.54022 0.0
H133 H 0.58015 0.63104 0.57104 0.0
H134 H 0.64958 0.61755 0.52067 0.0
H135 H 0.52028 0.40674 0.49775 0.0
H136 H 0.59158 0.69574 0.55884 0.0
H137 H 0.65955 0.68229 0.50792 0.0
C138 C 0.06251 0.58909 0.96275 0.0
C139 C 0.02158 0.57092 0.96914 0.0
C140 C 0.07035 0.59145 0.94159 0.0
C141 C 0.03743 0.57607 0.92645 0.0
C142 C 0.99657 0.55894 0.93284 0.0
C143 C 0.98869 0.55616 0.95401 0.0
C144 C 0.04555 0.57607 0.90402 0.0
C145 C 0.07081 0.5607 0.89648 0.0
C146 C 0.07745 0.55861 0.87507 0.0
C147 C 0.05773 0.57161 0.86105 0.0
C148 C 0.03284 0.58769 0.86855 0.0
C149 C 0.02692 0.5898 0.89001 0.0
C150 C 0.01025 0.60003 0.85434 0.0
C151 C 0.0134 0.63897 0.858 0.0
C152 C 0.97994 0.57051 0.83975 0.0
C153 C 0.95047 0.57829 0.83059 0.0
C154 C 0.95112 0.61584 0.83581 0.0
C155 C 0.10466 0.54222 0.86786 0.0
C156 C 0.14101 0.55274 0.87981 0.0
C157 C 0.09356 0.51414 0.85003 0.0
C158 C 0.11756 0.49576 0.84481 0.0
C159 C 0.15262 0.5049 0.85749 0.0
C160 C 0.16449 0.53409 0.87478 0.0
C161 C 0.98429 0.64693 0.84869 0.0
H162 H 0.0884 0.60039 0.9741 0.0
H163 H 0.10213 0.60498 0.93703 0.0
H164 H 0.97065 0.5466 0.92144 0.0
H165 H 0.95688 0.54225 0.95856 0.0
H166 H 0.08426 0.54903 0.90733 0.0
H167 H 0.00708 0.60146 0.89579 0.0
H168 H 0.06221 0.56993 0.84447 0.0
H169 H 0.03682 0.66227 0.86912 0.0
H170 H 0.97684 0.54017 0.83683 0.0
H171 H 0.92527 0.55355 0.82083 0.0
H172 H 0.15107 0.57509 0.89331 0.0
H173 H 0.06564 0.5053 0.84057 0.0
H174 H 0.98623 0.67651 0.85264 0.0
H175 H 0.19205 0.54249 0.88447 0.0
H176 H 0.10806 0.47353 0.83129 0.0
C177 C 0.97105 0.4993 0.36115 0.0
C178 C 0.0042 0.50445 0.34905 0.0
C179 C 0.97351 0.49756 0.38272 0.0
C180 C 0.00942 0.50159 0.39256 0.0
C181 C 0.04266 0.50693 0.38048 0.0
C182 C 0.03994 0.50804 0.35887 0.0
C183 C 0.01227 0.50038 0.41543 0.0
C184 C 0.9804 0.4684 0.42534 0.0
C185 C 0.98277 0.46672 0.44707 0.0
C186 C 0.01813 0.49765 0.45892 0.0
C187 C 0.04986 0.53048 0.44908 0.0
C188 C 0.04678 0.53132 0.42736 0.0
C189 C 0.08668 0.56467 0.4609 0.0
C190 C 0.09717 0.60573 0.45842 0.0
C191 C 0.11459 0.55701 0.47196 0.0
C192 C 0.15368 0.58988 0.47909 0.0
C193 C 0.16524 0.63089 0.47542 0.0
C194 C 0.94775 0.4323 0.45682 0.0
C195 C 0.90675 0.41991 0.45017 0.0
C196 C 0.95462 0.4093 0.4712 0.0
C197 C 0.92117 0.37322 0.4778 0.0
C198 C 0.88048 0.35958 0.47002 0.0
C199 C 0.87359 0.38394 0.4566 0.0
C200 C 0.13593 0.63849 0.46566 0.0
H201 H 0.94307 0.49622 0.35391 0.0
H202 H 0.94758 0.49363 0.39175 0.0
H203 H 0.07057 0.50988 0.38773 0.0
H204 H 0.06602 0.51231 0.34988 0.0
H205 H 0.95399 0.44415 0.41597 0.0
H206 H 0.07134 0.55639 0.41972 0.0
H207 H 0.02035 0.49696 0.47569 0.0
H208 H 0.07608 0.61233 0.4499 0.0
H209 H 0.10721 0.52555 0.47393 0.0
H210 H 0.17542 0.58308 0.48679 0.0
H211 H 0.90036 0.43751 0.43947 0.0
H212 H 0.98588 0.41806 0.47656 0.0
H213 H 0.14383 0.66955 0.46239 0.0
H214 H 0.84247 0.37474 0.45077 0.0
H215 H 0.92729 0.35503 0.48822 0.0
C216 C 0.50578 0.98411 0.69887 0.0
C217 C 0.53564 0.01838 0.68919 0.0
C218 C 0.50427 0.98555 0.72057 0.0
C219 C 0.53272 0.02124 0.73308 0.0
C220 C 0.56278 0.05543 0.72339 0.0
C221 C 0.56415 0.05405 0.70167 0.0
C222 C 0.53073 0.02289 0.75616 0.0
C223 C 0.52263 0.98841 0.76683 0.0
C224 C 0.51952 0.98914 0.78858 0.0
C225 C 0.52532 0.02544 0.79988 0.0
C226 C 0.53379 0.06051 0.78934 0.0
C227 C 0.53622 0.05871 0.76754 0.0
C228 C 0.53889 0.09912 0.8004 0.0
C229 C 0.50899 0.09822 0.81382 0.0
C230 C 0.57121 0.13761 0.79537 0.0
C231 C 0.57232 0.17425 0.80251 0.0
C232 C 0.54122 0.1735 0.815 0.0
C233 C 0.51002 0.9512 0.79882 0.0
C234 C 0.47705 0.91292 0.79054 0.0
C235 C 0.53646 0.95196 0.81486 0.0
C236 C 0.53133 0.91481 0.82162 0.0
C237 C 0.49945 0.87634 0.81256 0.0
C238 C 0.47184 0.87602 0.79729 0.0
C239 C 0.51008 0.13507 0.82102 0.0
H240 H 0.48301 0.95642 0.68964 0.0
H241 H 0.48028 0.95895 0.72752 0.0
H242 H 0.58553 0.08315 0.7326 0.0
H243 H 0.58784 0.08075 0.69465 0.0
H244 H 0.51926 0.96087 0.75819 0.0
H245 H 0.54116 0.08503 0.75929 0.0
H246 H 0.523 0.02629 0.81667 0.0
H247 H 0.48361 0.06896 0.81786 0.0
H248 H 0.59484 0.13926 0.78515 0.0
H249 H 0.59656 0.20301 0.79733 0.0
H250 H 0.45618 0.91148 0.77817 0.0
H251 H 0.56228 0.9811 0.8214 0.0
H252 H 0.48599 0.13336 0.83088 0.0
H253 H 0.44728 0.84718 0.78972 0.0
H254 H 0.55285 0.9162 0.83359 0.0
C255 C 0.5187 0.50231 0.04129 0.0
C256 C 0.49755 0.517 0.02934 0.0
C257 C 0.5156 0.5017 0.06288 0.0
C258 C 0.49211 0.51676 0.07329 0.0
C259 C 0.47113 0.53169 0.06139 0.0
C260 C 0.47348 0.53142 0.0397 0.0
C261 C 0.48967 0.51681 0.09643 0.0
C262 C 0.524 0.52409 0.10911 0.0
C263 C 0.52174 0.52211 0.13081 0.0
C264 C 0.48469 0.51429 0.14015 0.0
C265 C 0.45015 0.50808 0.1277 0.0
C266 C 0.45293 0.50887 0.10592 0.0
C267 C 0.411 0.50167 0.13685 0.0
C268 C 0.37252 0.46986 0.12808 0.0
C269 C 0.41146 0.53033 0.15231 0.0
C270 C 0.37434 0.52873 0.1579 0.0
C271 C 0.33593 0.49829 0.1482 0.0
C272 C 0.55786 0.52525 0.14271 0.0
C273 C 0.55389 0.49103 0.15244 0.0
C274 C 0.59783 0.55873 0.14048 0.0
C275 C 0.63313 0.55668 0.14631 0.0
C276 C 0.62923 0.52088 0.15432 0.0
C277 C 0.58924 0.48879 0.15812 0.0
C278 C 0.33551 0.46812 0.13371 0.0
H279 H 0.53818 0.4916 0.03407 0.0
H280 H 0.53155 0.48913 0.07135 0.0
H281 H 0.45314 0.54403 0.0688 0.0
H282 H 0.45611 0.54235 0.03111 0.0
H283 H 0.55272 0.5306 0.10207 0.0
H284 H 0.42614 0.50322 0.09634 0.0
H285 H 0.48268 0.5128 0.15689 0.0
H286 H 0.37116 0.44705 0.11628 0.0
H287 H 0.44067 0.55539 0.15919 0.0
H288 H 0.37602 0.55265 0.16904 0.0
H289 H 0.52348 0.46463 0.15414 0.0
H290 H 0.60172 0.58537 0.13289 0.0
H291 H 0.30658 0.44357 0.12631 0.0
H292 H 0.58517 0.46101 0.16453 0.0
H293 H 0.66331 0.58186 0.14305 0.0
H294 H 0.14834 0.54501 0.2015 0.0
H295 H 0.27208 0.48141 0.12001 0.0
H296 H 0.10758 0.50503 0.13674 0.0
H297 H 0.31056 0.5183 0.18522 0.0
H298 H 0.20976 0.48583 0.12623 0.0
H299 H 0.20529 0.53115 0.19624 0.0
C300 C 0.15109 0.53293 0.18618 0.0
C301 C 0.12311 0.52641 0.1695 0.0
C302 C 0.23168 0.49273 0.13922 0.0
C303 C 0.1889 0.51075 0.16332 0.0
C304 C 0.26728 0.48994 0.13573 0.0
C305 C 0.29688 0.49939 0.15213 0.0
C306 C 0.22537 0.50522 0.15927 0.0
C307 C 0.28905 0.51118 0.17202 0.0
C308 C 0.18378 0.52509 0.18319 0.0
C309 C 0.12832 0.51055 0.15005 0.0
N310 N 0.25421 0.51384 0.175 0.0
N311 N 0.16075 0.50358 0.14746 0.0
H312 H 0.67873 0.16712 0.53128 0.0
H313 H 0.82118 0.29945 0.44283 0.0
H314 H 0.65239 0.12806 0.46548 0.0
H315 H 0.85954 0.32799 0.50825 0.0
H316 H 0.76027 0.23535 0.45098 0.0
H317 H 0.74616 0.22447 0.52346 0.0
C318 C 0.68729 0.17032 0.5152 0.0
C319 C 0.65969 0.14289 0.49899 0.0
C320 C 0.78208 0.25539 0.46358 0.0
C321 C 0.73675 0.20879 0.48992 0.0
C322 C 0.81674 0.29212 0.45895 0.0
C323 C 0.84516 0.31929 0.47494 0.0
C324 C 0.7754 0.24578 0.48441 0.0
C325 C 0.83834 0.3079 0.49548 0.0
C326 C 0.72584 0.2031 0.51075 0.0
C327 C 0.67258 0.14849 0.47847 0.0
N328 N 0.80387 0.27219 0.49967 0.0
N329 N 0.70997 0.18104 0.47451 0.0
H330 H 0.54355 0.6722 0.83369 0.0
H331 H 0.42893 0.80211 0.81675 0.0
H332 H 0.41791 0.61933 0.80807 0.0
H333 H 0.56248 0.85933 0.81991 0.0
H334 H 0.42378 0.7351 0.82001 0.0
H335 H 0.5506 0.74136 0.83438 0.0
C336 C 0.51751 0.67511 0.82822 0.0
C337 C 0.48015 0.63992 0.82071 0.0
C338 C 0.45424 0.76235 0.8201 0.0
C339 C 0.48778 0.71857 0.82181 0.0
C340 C 0.45723 0.80069 0.81821 0.0
C341 C 0.4962 0.83651 0.81771 0.0
C342 C 0.49044 0.75956 0.82169 0.0
C343 C 0.53176 0.83268 0.82028 0.0
C344 C 0.52157 0.71452 0.82862 0.0
C345 C 0.44739 0.64551 0.81385 0.0
N346 N 0.52804 0.79484 0.82203 0.0
N347 N 0.45193 0.68395 0.81466 0.0
H348 H 0.87602 0.54701 0.17076 0.0
H349 H 0.63356 0.45173 0.14211 0.0
H350 H 0.80473 0.44443 0.1248 0.0
H351 H 0.70917 0.57692 0.16971 0.0
H352 H 0.69504 0.44425 0.14117 0.0
H353 H 0.81458 0.55509 0.17518 0.0
C354 C 0.84759 0.52628 0.1616 0.0
C355 C 0.84565 0.49511 0.14731 0.0
C356 C 0.69822 0.47331 0.14757 0.0
C357 C 0.77533 0.5037 0.15257 0.0
C358 C 0.66297 0.47746 0.14834 0.0
C359 C 0.66603 0.515 0.15605 0.0
C360 C 0.73711 0.50681 0.15467 0.0
C361 C 0.70537 0.54751 0.1635 0.0
C362 C 0.81261 0.53092 0.16412 0.0
C363 C 0.80793 0.46908 0.13589 0.0
N364 N 0.73939 0.54269 0.16263 0.0
N365 N 0.77439 0.47382 0.13885 0.0
H366 H 0.38737 0.87238 0.49633 0.0
H367 H 0.23666 0.62907 0.46813 0.0
H368 H 0.42549 0.79154 0.46524 0.0
H369 H 0.1931 0.71109 0.49141 0.0
H370 H 0.30746 0.68743 0.4706 0.0
H371 H 0.31712 0.81321 0.49734 0.0
C372 C 0.38098 0.84226 0.48967 0.0
C373 C 0.41239 0.83699 0.48062 0.0
C374 C 0.28248 0.69267 0.47531 0.0
C375 C 0.3322 0.7691 0.48192 0.0
C376 C 0.24203 0.65921 0.47413 0.0
C377 C 0.20878 0.66513 0.47953 0.0
C378 C 0.28992 0.73248 0.48197 0.0
C379 C 0.21771 0.70517 0.48685 0.0
C380 C 0.34089 0.80848 0.49029 0.0
C381 C 0.4023 0.79718 0.47229 0.0
N382 N 0.25738 0.73733 0.48776 0.0
N383 N 0.36318 0.76484 0.47318 0.0
H384 H 0.47104 0.36329 0.83675 0.0
H385 H 0.60689 0.25188 0.82521 0.0
H386 H 0.60136 0.42687 0.82469 0.0
H387 H 0.47321 0.18443 0.81688 0.0
H388 H 0.60515 0.31633 0.82977 0.0
H389 H 0.4709 0.29737 0.83348 0.0
C390 C 0.49954 0.36341 0.83332 0.0
C391 C 0.53625 0.40072 0.83096 0.0
C392 C 0.57618 0.2874 0.827 0.0
C393 C 0.53641 0.32557 0.82757 0.0
C394 C 0.57711 0.25051 0.82436 0.0
C395 C 0.54017 0.21247 0.82039 0.0
C396 C 0.53801 0.28652 0.82588 0.0
C397 C 0.5025 0.21284 0.82005 0.0
C398 C 0.49943 0.32579 0.83149 0.0
C399 C 0.57227 0.39895 0.82656 0.0
N400 N 0.50239 0.24927 0.82267 0.0
N401 N 0.57148 0.36211 0.82515 0.0
H402 H 0.64502 0.93259 0.53582 0.0
H403 H 0.61101 0.71075 0.49387 0.0
H404 H 0.57197 0.86309 0.47964 0.0
H405 H 0.65743 0.76768 0.55619 0.0
H406 H 0.61154 0.77381 0.48478 0.0
H407 H 0.66453 0.87971 0.53974 0.0
C408 C 0.63356 0.90654 0.52415 0.0
C409 C 0.6063 0.90192 0.50756 0.0
C410 C 0.62217 0.77267 0.50035 0.0
C411 C 0.62846 0.84134 0.51197 0.0
C412 C 0.62211 0.73687 0.50547 0.0
C413 C 0.63369 0.73401 0.52585 0.0
C414 C 0.63418 0.80575 0.51571 0.0
C415 C 0.64768 0.76856 0.54038 0.0
C416 C 0.64463 0.87632 0.52642 0.0
C417 C 0.5926 0.86761 0.49284 0.0
N418 N 0.64721 0.80288 0.53509 0.0
N419 N 0.60351 0.83843 0.49549 0.0
H420 H 0.72241 0.61138 0.85515 0.0
H421 H 0.90152 0.58945 0.79945 0.0
H422 H 0.70826 0.55511 0.79248 0.0
H423 H 0.91552 0.64982 0.8611 0.0
H424 H 0.83397 0.585 0.79453 0.0
H425 H 0.79637 0.63417 0.85562 0.0
C426 C 0.73492 0.60414 0.84142 0.0
C427 C 0.70901 0.58078 0.82388 0.0
C428 C 0.8522 0.59985 0.80899 0.0
C429 C 0.79363 0.60653 0.82433 0.0
C430 C 0.89072 0.60231 0.81181 0.0
C431 C 0.91416 0.61972 0.83077 0.0
C432 C 0.8369 0.61458 0.82531 0.0
C433 C 0.89885 0.63643 0.84614 0.0
C434 C 0.7772 0.61721 0.84167 0.0
C435 C 0.72701 0.57267 0.80644 0.0
N436 N 0.86103 0.63295 0.84317 0.0
N437 N 0.76812 0.58509 0.8072 0.0
H438 H 0.09914 0.73587 0.15548 0.0
H439 H 0.34472 0.82701 0.16161 0.0
H440 H 0.15979 0.66397 0.16254 0.0
H441 H 0.29002 0.90387 0.17479 0.0
H442 H 0.27555 0.76763 0.15364 0.0
H443 H 0.16777 0.79856 0.15556 0.0
C444 C 0.12679 0.73327 0.157 0.0
C445 C 0.12381 0.69479 0.15923 0.0
C446 C 0.27864 0.79755 0.15808 0.0
C447 C 0.20172 0.76567 0.15891 0.0
C448 C 0.31807 0.83141 0.16259 0.0
C449 C 0.32292 0.87013 0.16921 0.0
C450 C 0.24373 0.80238 0.16027 0.0
C451 C 0.2875 0.87442 0.16979 0.0
C452 C 0.16579 0.76892 0.15701 0.0
C453 C 0.16053 0.69303 0.16104 0.0
N454 N 0.24917 0.84071 0.16565 0.0
N455 N 0.19786 0.7279 0.16082 0.0
H456 H 0.48038 0.13514 0.51042 0.0
H457 H 0.55964 0.36441 0.47763 0.0
H458 H 0.54595 0.18045 0.4546 0.0
H459 H 0.51901 0.32378 0.53847 0.0
H460 H 0.54035 0.29295 0.46527 0.0
H461 H 0.4792 0.19958 0.51692 0.0
C462 C 0.49409 0.15842 0.49937 0.0
C463 C 0.51398 0.15268 0.48214 0.0
C464 C 0.53512 0.29964 0.48123 0.0
C465 C 0.51301 0.22676 0.48961 0.0
C466 C 0.54593 0.34022 0.48821 0.0
C467 C 0.54124 0.3497 0.5091 0.0
C468 C 0.51922 0.26864 0.49526 0.0
C469 C 0.52349 0.31758 0.5223 0.0
C470 C 0.49347 0.19527 0.50312 0.0
C471 C 0.53073 0.18378 0.46823 0.0
N472 N 0.51338 0.27855 0.5152 0.0
N473 N 0.53036 0.21977 0.47241 0.0
H474 H 0.35308 0.4808 0.81207 0.0
H475 H 0.17648 0.46638 0.8843 0.0
H476 H 0.3398 0.4436 0.87492 0.0
H477 H 0.18579 0.49825 0.82064 0.0
H478 H 0.22789 0.44466 0.87878 0.0
H479 H 0.28435 0.4739 0.81242 0.0
C480 C 0.33541 0.47048 0.82584 0.0
C481 C 0.35259 0.46364 0.84368 0.0
C482 C 0.2183 0.45575 0.86588 0.0
C483 C 0.27401 0.45609 0.84423 0.0
C484 C 0.18902 0.4682 0.86905 0.0
C485 C 0.17758 0.48476 0.85299 0.0
C486 C 0.23674 0.46049 0.84659 0.0
C487 C 0.19408 0.48586 0.83343 0.0
C488 C 0.29612 0.46655 0.82601 0.0
C489 C 0.32804 0.44975 0.86093 0.0
N490 N 0.22348 0.47463 0.83087 0.0
N491 N 0.29027 0.44715 0.86091 0.0
H492 H 0.90842 0.32062 0.17128 0.0
H493 H 0.66507 0.20971 0.15423 0.0
H494 H 0.84529 0.36371 0.13192 0.0
H495 H 0.72661 0.14837 0.17881 0.0
H496 H 0.7316 0.26388 0.14341 0.0
H497 H 0.8437 0.25444 0.17166 0.0
C498 C 0.88122 0.31592 0.16242 0.0
C499 C 0.88199 0.348 0.15193 0.0
C500 C 0.73061 0.23828 0.15086 0.0
C501 C 0.80808 0.27283 0.15244 0.0
C502 C 0.69268 0.20751 0.15706 0.0
C503 C 0.6907 0.17497 0.16751 0.0
C504 C 0.76692 0.23693 0.15558 0.0
C505 C 0.72711 0.17314 0.17076 0.0
C506 C 0.8443 0.27817 0.16265 0.0
C507 C 0.84593 0.34014 0.14058 0.0
N508 N 0.764 0.20419 0.16513 0.0
N509 N 0.81033 0.30362 0.14141 0.0
H510 H 0.02878 0.60658 0.1036 0.0
H511 H 0.96449 0.50176 0.98666 0.0
H512 H 0.95963 0.47429 0.08844 0.0
H513 H 0.06021 0.62845 0.00233 0.0
H514 H 0.95427 0.49273 0.02388 0.0
H515 H 0.03273 0.61651 0.0664 0.0
C516 C 0.01425 0.5796 0.09245 0.0
C517 C 0.99404 0.53951 0.09912 0.0
C518 C 0.97738 0.52253 0.01915 0.0
C519 C 0.99838 0.55073 0.05655 0.0
C520 C 0.98301 0.52779 -0.00205 0.0
C521 C 0.01332 0.56588 0.99148 0.0
C522 C 1.002 0.55572 0.03394 0.0
C523 C 0.03682 0.59847 0.00672 0.0
C524 C 0.01664 0.58532 0.07122 0.0
C525 C 0.97578 0.50572 0.08397 0.0
N526 N 0.03067 0.59265 0.02726 0.0
N527 N 0.9784 0.5121 0.06336 0.0
H528 H 0.56559 0.97964 0.4315 0.0
H529 H 0.50326 0.07223 0.33776 0.0
H530 H 0.48903 0.03621 0.43857 0.0
H531 H 0.56057 0.99659 0.32941 0.0
H532 H 0.50473 0.06646 0.37544 0.0
H533 H 0.57042 0.9922 0.39464 0.0
C534 C 0.54987 0.9948 0.42533 0.0
C535 C 0.52672 0.00673 0.43814 0.0
C536 C 0.51711 0.05126 0.36536 0.0
C537 C 0.53223 0.02129 0.39592 0.0
C538 C 0.51654 0.05478 0.3439 0.0
C539 C 0.53159 0.03464 0.33048 0.0
C540 C 0.5331 0.02765 0.37342 0.0
C541 C 0.54811 0.01211 0.3392 0.0
C542 C 0.55263 0.00193 0.40426 0.0
C543 C 0.50709 0.02635 0.42926 0.0
N544 N 0.54836 0.00916 0.36011 0.0
N545 N 0.51026 0.03299 0.40868 0.0
H546 H 0.49693 0.46872 0.77316 0.0
H547 H 0.62968 0.6027 0.6837 0.0
H548 H 0.60722 0.58809 0.786 0.0
H549 H 0.55608 0.4697 0.67446 0.0
H550 H 0.61871 0.59879 0.72111 0.0
H551 H 0.5147 0.46874 0.73656 0.0
C552 C 0.52493 0.4948 0.7683 0.0
C553 C 0.55051 0.52856 0.78257 0.0
C554 C 0.6053 0.57041 0.71095 0.0
C555 C 0.57072 0.52891 0.7409 0.0
C556 C 0.61143 0.57268 0.68965 0.0
C557 C 0.59367 0.53647 0.67613 0.0
C558 C 0.58053 0.53172 0.71867 0.0
C559 C 0.57041 0.49825 0.6845 0.0
C560 C 0.53514 0.49469 0.74748 0.0
C561 C 0.58659 0.56144 0.77551 0.0
N562 N 0.56402 0.49686 0.70527 0.0
N563 N 0.59538 0.561 0.75512 0.0
H564 H 0.53445 0.06943 0.5601 0.0
H565 H 0.52805 0.95517 0.66194 0.0
H566 H 0.53346 0.95313 0.55828 0.0
H567 H 0.54538 0.07848 0.66401 0.0
H568 H 0.528 0.95296 0.62386 0.0
H569 H 0.53674 0.07251 0.59814 0.0
C570 C 0.5347 0.04451 0.56768 0.0
C571 C 0.53361 0.01088 0.55593 0.0
C572 C 0.53195 0.98056 0.63264 0.0
C573 C 0.53622 0.01427 0.59954 0.0
C574 C 0.53175 0.98174 0.65436 0.0
C575 C 0.53666 0.01704 0.66614 0.0
C576 C 0.53682 0.01482 0.6226 0.0
C577 C 0.54191 0.05081 0.65553 0.0
C578 C 0.5361 0.04636 0.58942 0.0
C579 C 0.53421 0.97963 0.56666 0.0
N580 N 0.54168 0.0488 0.63436 0.0
N581 N 0.53533 0.98203 0.58785 0.0
H582 H 0.48315 0.55266 0.89817 0.0
H583 H 0.50643 0.46222 0.00187 0.0
H584 H 0.56398 0.50116 0.90313 0.0
H585 H 0.49631 0.57283 0.00372 0.0
H586 H 0.5149 0.46554 0.96437 0.0
H587 H 0.47435 0.54936 0.93587 0.0
C588 C 0.49891 0.54055 0.90719 0.0
C589 C 0.52449 0.52733 0.89759 0.0
C590 C 0.51078 0.48898 0.97309 0.0
C591 C 0.51395 0.52286 0.94041 0.0
C592 C 0.50621 0.48737 0.99455 0.0
C593 C 0.50096 0.51752 0.00625 0.0
C594 C 0.50911 0.52031 0.96308 0.0
C595 C 0.49959 0.54847 0.9955 0.0
C596 C 0.49401 0.53885 0.92863 0.0
C597 C 0.54427 0.51198 0.90998 0.0
N598 N 0.50343 0.54893 0.97452 0.0
N599 N 0.5383 0.50981 0.93076 0.0
H600 H 0.99149 0.4571 0.21481 0.0
H601 H 0.98078 0.55129 0.32802 0.0
H602 H 0.99716 0.57516 0.2257 0.0
H603 H 0.02185 0.46214 0.31835 0.0
H604 H 0.97733 0.55461 0.29018 0.0
H605 H 0.99355 0.45269 0.25258 0.0
C606 C 0.99304 0.48202 0.22514 0.0
C607 C 0.99422 0.51659 0.21713 0.0
C608 C 0.98713 0.53437 0.29636 0.0
C609 C 0.99628 0.51156 0.26022 0.0
C610 C 0.98886 0.53229 0.31789 0.0
C611 C 1.00166 0.50644 0.32623 0.0
C612 C 0.99769 0.50997 0.28311 0.0
C613 C 0.01216 0.4827 0.31249 0.0
C614 C 0.99438 0.47954 0.24666 0.0
C615 C 0.99636 0.54804 0.23122 0.0
N616 N 0.00974 0.48486 0.29155 0.0
N617 N 0.99712 0.54468 0.25209 0.0
loop_
_geom_bond_atom_site_label_1
_geom_bond_atom_site_label_2
_geom_bond_distance
_geom_bond_site_symmetry_2
_ccdc_geom_bond_type
Zn0 O6 1.969 . S
Zn0 O7 1.965 . S
Zn0 O11 2.024 . S
Zn0 O16 1.969 . S
Zn1 O8 1.969 . S
Zn1 O14 1.969 . S
Zn1 O15 1.965 . S
Zn1 O17 2.024 . S
C2 O3 1.229 . S
C2 O11 1.058 . S
O3 C2 1.229 . S
C4 O5 1.229 . S
C4 O17 1.058 . S
O5 C4 1.229 . S
O6 Zn0 1.969 . S
O6 C9 1.267 . S
O7 Zn0 1.965 . S
O7 C18 1.260 1_455 S
O8 Zn1 1.969 . S
O8 C18 1.258 . S
C9 O6 1.267 . S
C9 O10 1.228 . S
O10 C9 1.228 . S
O11 Zn0 2.024 . S
O11 C2 1.058 . S
C12 O13 1.228 . S
C12 O14 1.267 . S
O13 C12 1.228 . S
O14 Zn1 1.969 . S
O14 C12 1.267 . S
O15 Zn1 1.965 . S
O15 C19 1.260 1_655 S
O16 Zn0 1.969 . S
O16 C19 1.258 . S
O17 Zn1 2.024 . S
O17 C4 1.058 . S
C18 O7 1.260 1_655 S
C18 O8 1.258 . S
C19 O15 1.260 1_455 S
C19 O16 1.258 . S
Zn20 O26 1.969 . S
Zn20 O27 1.965 . S
Zn20 O31 2.024 . S
Zn20 O36 1.969 . S
Zn21 O28 1.969 . S
Zn21 O34 1.969 . S
Zn21 O35 1.965 . S
Zn21 O37 2.024 . S
C22 O23 1.229 . S
C22 O31 1.058 . S
O23 C22 1.229 . S
C24 O25 1.229 . S
C24 O37 1.058 . S
O25 C24 1.229 . S
O26 Zn20 1.969 . S
O26 C29 1.267 . S
O27 Zn20 1.965 . S
O27 C38 1.260 . S
O28 Zn21 1.969 . S
O28 C38 1.258 1_565 S
C29 O26 1.267 . S
C29 O30 1.228 . S
O30 C29 1.228 . S
O31 Zn20 2.024 . S
O31 C22 1.058 . S
C32 O33 1.228 . S
C32 O34 1.267 . S
O33 C32 1.228 . S
O34 Zn21 1.969 . S
O34 C32 1.267 . S
O35 Zn21 1.965 . S
O35 C39 1.260 1_565 S
O36 Zn20 1.969 . S
O36 C39 1.258 . S
O37 Zn21 2.024 . S
O37 C24 1.058 . S
C38 O27 1.260 . S
C38 O28 1.258 1_545 S
C39 O35 1.260 1_545 S
C39 O36 1.258 . S
Zn40 O46 1.969 . S
Zn40 O47 1.965 . S
Zn40 O51 2.024 . S
Zn40 O56 1.969 . S
Zn41 O48 1.969 . S
Zn41 O54 1.969 . S
Zn41 O55 1.965 . S
Zn41 O57 2.024 . S
C42 O43 1.229 . S
C42 O51 1.058 . S
O43 C42 1.229 . S
C44 O45 1.229 . S
C44 O57 1.058 . S
O45 C44 1.229 . S
O46 Zn40 1.969 . S
O46 C49 1.267 . S
O47 Zn40 1.965 . S
O47 C58 1.260 . S
O48 Zn41 1.969 . S
O48 C58 1.258 . S
C49 O46 1.267 . S
C49 O50 1.228 . S
O50 C49 1.228 . S
O51 Zn40 2.024 . S
O51 C42 1.058 . S
C52 O53 1.228 . S
C52 O54 1.267 . S
O53 C52 1.228 . S
O54 Zn41 1.969 . S
O54 C52 1.267 . S
O55 Zn41 1.965 . S
O55 C59 1.260 . S
O56 Zn40 1.969 . S
O56 C59 1.258 . S
O57 Zn41 2.024 . S
O57 C44 1.058 . S
C58 O47 1.260 . S
C58 O48 1.258 . S
C59 O55 1.260 . S
C59 O56 1.258 . S
C60 C61 1.386 . S
C60 C62 1.397 . S
C60 H84 0.931 . S
C61 C60 1.386 . S
C61 C65 1.397 1_545 S
C62 C60 1.397 . S
C62 C63 1.384 . S
C62 H85 0.930 . S
C63 C62 1.384 . S
C63 C64 1.377 1_545 S
C63 C66 1.481 . S
C64 C63 1.377 1_565 S
C64 C65 1.389 . S
C64 H86 0.929 . S
C65 C61 1.397 1_565 S
C65 C64 1.389 . S
C65 H87 0.931 . S
C66 C63 1.481 . S
C66 C67 1.387 . S
C66 C71 1.390 . S
C67 C66 1.387 . S
C67 C68 1.401 . S
C67 H88 0.930 . S
C68 C67 1.401 . S
C68 C69 1.376 . S
C68 C77 1.511 . S
C69 C68 1.376 . S
C69 C70 1.390 1_545 S
C69 H90 0.931 . S
C70 C69 1.390 1_565 S
C70 C71 1.361 1_565 S
C70 C72 1.501 . S
C71 C66 1.390 . S
C71 C70 1.361 1_545 S
C71 H89 0.931 1_545 S
C72 C70 1.501 . S
C72 C73 1.371 . S
C72 C74 1.365 . S
C73 C72 1.371 . S
C73 C83 1.386 . S
C73 H91 0.931 . S
C74 C72 1.365 . S
C74 C75 1.409 . S
C74 H92 0.929 . S
C75 C74 1.409 . S
C75 C76 1.380 . S
C75 H93 0.930 . S
C76 C75 1.380 . S
C76 C83 1.357 . S
C77 C68 1.511 . S
C77 C78 1.341 . S
C77 C79 1.371 . S
C78 C77 1.341 . S
C78 C82 1.394 . S
C78 H94 0.930 . S
C79 C77 1.371 . S
C79 C80 1.392 . S
C79 H95 0.931 . S
C80 C79 1.392 . S
C80 C81 1.331 . S
C80 H98 0.932 . S
C81 C80 1.331 . S
C81 C82 1.336 . S
C82 C78 1.394 . S
C82 C81 1.336 . S
C82 H97 0.929 . S
C83 C73 1.386 . S
C83 C76 1.357 . S
C83 H96 0.928 . S
H84 C60 0.931 . S
H85 C62 0.930 . S
H86 C64 0.929 . S
H87 C65 0.931 . S
H88 C67 0.930 . S
H89 C71 0.931 1_565 S
H90 C69 0.931 . S
H91 C73 0.931 . S
H92 C74 0.929 . S
H93 C75 0.930 . S
H94 C78 0.930 . S
H95 C79 0.931 . S
H96 C83 0.928 . S
H97 C82 0.929 . S
H98 C80 0.932 . S
C99 C100 1.386 . S
C99 C101 1.397 . S
C99 H123 0.931 . S
C100 C99 1.386 . S
C100 C104 1.397 . S
C101 C99 1.397 . S
C101 C102 1.384 . S
C101 H124 0.930 . S
C102 C101 1.384 . S
C102 C103 1.377 . S
C102 C105 1.481 . S
C103 C102 1.377 . S
C103 C104 1.389 . S
C103 H125 0.929 . S
C104 C100 1.397 . S
C104 C103 1.389 . S
C104 H126 0.931 . S
C105 C102 1.481 . S
C105 C106 1.387 . S
C105 C110 1.390 . S
C106 C105 1.387 . S
C106 C107 1.401 . S
C106 H127 0.930 . S
C107 C106 1.401 . S
C107 C108 1.376 . S
C107 C116 1.511 . S
C108 C107 1.376 . S
C108 C109 1.392 . S
C108 H129 0.931 . S
C109 C108 1.392 . S
C109 C110 1.361 . S
C109 C111 1.500 . S
C110 C105 1.390 . S
C110 C109 1.361 . S
C110 H128 0.931 . S
C111 C109 1.500 . S
C111 C112 1.371 . S
C111 C113 1.365 . S
C112 C111 1.371 . S
C112 C122 1.386 . S
C112 H130 0.931 . S
C113 C111 1.365 . S
C113 C114 1.409 . S
C113 H131 0.929 . S
C114 C113 1.409 . S
C114 C115 1.380 . S
C114 H132 0.930 . S
C115 C114 1.380 . S
C115 C122 1.357 . S
C116 C107 1.511 . S
C116 C117 1.341 . S
C116 C118 1.371 . S
C117 C116 1.341 . S
C117 C121 1.394 . S
C117 H133 0.930 . S
C118 C116 1.371 . S
C118 C119 1.392 . S
C118 H134 0.931 . S
C119 C118 1.392 . S
C119 C120 1.331 . S
C119 H137 0.932 . S
C120 C119 1.331 . S
C120 C121 1.336 . S
C121 C117 1.394 . S
C121 C120 1.336 . S
C121 H136 0.929 . S
C122 C112 1.386 . S
C122 C115 1.357 . S
C122 H135 0.928 . S
H123 C99 0.931 . S
H124 C101 0.930 . S
H125 C103 0.929 . S
H126 C104 0.931 . S
H127 C106 0.930 . S
H128 C110 0.931 . S
H129 C108 0.931 . S
H130 C112 0.931 . S
H131 C113 0.929 . S
H132 C114 0.930 . S
H133 C117 0.930 . S
H134 C118 0.931 . S
H135 C122 0.928 . S
H136 C121 0.929 . S
H137 C119 0.932 . S
C138 C139 1.386 . S
C138 C140 1.397 . S
C138 H162 0.931 . S
C139 C138 1.386 . S
C139 C143 1.397 1_455 S
C140 C138 1.397 . S
C140 C141 1.384 . S
C140 H163 0.930 . S
C141 C140 1.384 . S
C141 C142 1.377 1_455 S
C141 C144 1.481 . S
C142 C141 1.377 1_655 S
C142 C143 1.389 . S
C142 H164 0.929 . S
C143 C139 1.397 1_655 S
C143 C142 1.389 . S
C143 H165 0.931 . S
C144 C141 1.481 . S
C144 C145 1.387 . S
C144 C149 1.390 . S
C145 C144 1.387 . S
C145 C146 1.401 . S
C145 H166 0.930 . S
C146 C145 1.401 . S
C146 C147 1.376 . S
C146 C155 1.511 . S
C147 C146 1.376 . S
C147 C148 1.392 . S
C147 H168 0.931 . S
C148 C147 1.392 . S
C148 C149 1.361 . S
C148 C150 1.500 1_455 S
C149 C144 1.390 . S
C149 C148 1.361 . S
C149 H167 0.931 1_455 S
C150 C148 1.500 1_655 S
C150 C151 1.371 . S
C150 C152 1.365 . S
C151 C150 1.371 . S
C151 C161 1.386 . S
C151 H169 0.931 . S
C152 C150 1.365 . S
C152 C153 1.409 . S
C152 H170 0.929 . S
C153 C152 1.409 . S
C153 C154 1.380 . S
C153 H171 0.930 . S
C154 C153 1.380 . S
C154 C161 1.357 . S
C155 C146 1.511 . S
C155 C156 1.341 . S
C155 C157 1.371 . S
C156 C155 1.341 . S
C156 C160 1.394 . S
C156 H172 0.930 . S
C157 C155 1.371 . S
C157 C158 1.392 . S
C157 H173 0.931 . S
C158 C157 1.392 . S
C158 C159 1.331 . S
C158 H176 0.932 . S
C159 C158 1.331 . S
C159 C160 1.336 . S
C160 C156 1.394 . S
C160 C159 1.336 . S
C160 H175 0.929 . S
C161 C151 1.386 . S
C161 C154 1.357 . S
C161 H174 0.928 . S
H162 C138 0.931 . S
H163 C140 0.930 . S
H164 C142 0.929 . S
H165 C143 0.931 . S
H166 C145 0.930 . S
H167 C149 0.931 1_655 S
H168 C147 0.931 . S
H169 C151 0.931 . S
H170 C152 0.929 . S
H171 C153 0.930 . S
H172 C156 0.930 . S
H173 C157 0.931 . S
H174 C161 0.928 . S
H175 C160 0.929 . S
H176 C158 0.932 . S
C177 C178 1.386 1_655 S
C177 C179 1.397 . S
C177 H201 0.931 . S
C178 C177 1.386 1_455 S
C178 C182 1.397 . S
C179 C177 1.397 . S
C179 C180 1.384 1_655 S
C179 H202 0.930 . S
C180 C179 1.384 1_455 S
C180 C181 1.377 . S
C180 C183 1.481 . S
C181 C180 1.377 . S
C181 C182 1.389 . S
C181 H203 0.929 . S
C182 C178 1.397 . S
C182 C181 1.389 . S
C182 H204 0.931 . S
C183 C180 1.481 . S
C183 C184 1.387 1_455 S
C183 C188 1.390 . S
C184 C183 1.387 1_655 S
C184 C185 1.401 . S
C184 H205 0.930 . S
C185 C184 1.401 . S
C185 C186 1.376 1_655 S
C185 C194 1.511 . S
C186 C185 1.376 1_455 S
C186 C187 1.392 . S
C186 H207 0.931 . S
C187 C186 1.392 . S
C187 C188 1.361 . S
C187 C189 1.500 . S
C188 C183 1.390 . S
C188 C187 1.361 . S
C188 H206 0.931 . S
C189 C187 1.500 . S
C189 C190 1.371 . S
C189 C191 1.365 . S
C190 C189 1.371 . S
C190 C200 1.386 . S
C190 H208 0.931 . S
C191 C189 1.365 . S
C191 C192 1.409 . S
C191 H209 0.929 . S
C192 C191 1.409 . S
C192 C193 1.380 . S
C192 H210 0.930 . S
C193 C192 1.380 . S
C193 C200 1.357 . S
C194 C185 1.511 . S
C194 C195 1.341 . S
C194 C196 1.371 . S
C195 C194 1.341 . S
C195 C199 1.394 . S
C195 H211 0.930 . S
C196 C194 1.371 . S
C196 C197 1.392 . S
C196 H212 0.931 . S
C197 C196 1.392 . S
C197 C198 1.331 . S
C197 H215 0.932 . S
C198 C197 1.331 . S
C198 C199 1.336 . S
C199 C195 1.394 . S
C199 C198 1.336 . S
C199 H214 0.929 . S
C200 C190 1.386 . S
C200 C193 1.357 . S
C200 H213 0.928 . S
H201 C177 0.931 . S
H202 C179 0.930 . S
H203 C181 0.929 . S
H204 C182 0.931 . S
H205 C184 0.930 . S
H206 C188 0.931 . S
H207 C186 0.931 . S
H208 C190 0.931 . S
H209 C191 0.929 . S
H210 C192 0.930 . S
H211 C195 0.930 . S
H212 C196 0.931 . S
H213 C200 0.928 . S
H214 C199 0.929 . S
H215 C197 0.932 . S
C216 C217 1.386 1_565 S
C216 C218 1.397 . S
C216 H240 0.931 . S
C217 C216 1.386 1_545 S
C217 C221 1.397 . S
C218 C216 1.397 . S
C218 C219 1.384 1_565 S
C218 H241 0.930 . S
C219 C218 1.384 1_545 S
C219 C220 1.377 . S
C219 C222 1.481 . S
C220 C219 1.377 . S
C220 C221 1.389 . S
C220 H242 0.929 . S
C221 C217 1.397 . S
C221 C220 1.389 . S
C221 H243 0.931 . S
C222 C219 1.481 . S
C222 C223 1.387 1_545 S
C222 C227 1.390 . S
C223 C222 1.387 1_565 S
C223 C224 1.401 . S
C223 H244 0.930 . S
C224 C223 1.401 . S
C224 C225 1.376 1_565 S
C224 C233 1.511 . S
C225 C224 1.376 1_545 S
C225 C226 1.392 . S
C225 H246 0.931 . S
C226 C225 1.392 . S
C226 C227 1.361 . S
C226 C228 1.500 . S
C227 C222 1.390 . S
C227 C226 1.361 . S
C227 H245 0.931 . S
C228 C226 1.500 . S
C228 C229 1.371 . S
C228 C230 1.365 . S
C229 C228 1.371 . S
C229 C239 1.386 . S
C229 H247 0.931 . S
C230 C228 1.365 . S
C230 C231 1.409 . S
C230 H248 0.929 . S
C231 C230 1.409 . S
C231 C232 1.380 . S
C231 H249 0.930 . S
C232 C231 1.380 . S
C232 C239 1.357 . S
C233 C224 1.511 . S
C233 C234 1.341 . S
C233 C235 1.371 . S
C234 C233 1.341 . S
C234 C238 1.394 . S
C234 H250 0.930 . S
C235 C233 1.371 . S
C235 C236 1.392 . S
C235 H251 0.931 . S
C236 C235 1.392 . S
C236 C237 1.331 . S
C236 H254 0.932 . S
C237 C236 1.331 . S
C237 C238 1.336 . S
C238 C234 1.394 . S
C238 C237 1.336 . S
C238 H253 0.929 . S
C239 C229 1.386 . S
C239 C232 1.357 . S
C239 H252 0.928 . S
H240 C216 0.931 . S
H241 C218 0.930 . S
H242 C220 0.929 . S
H243 C221 0.931 . S
H244 C223 0.930 . S
H245 C227 0.931 . S
H246 C225 0.931 . S
H247 C229 0.931 . S
H248 C230 0.929 . S
H249 C231 0.930 . S
H250 C234 0.930 . S
H251 C235 0.931 . S
H252 C239 0.928 . S
H253 C238 0.929 . S
H254 C236 0.932 . S
C255 C256 1.386 . S
C255 C257 1.397 . S
C255 H279 0.931 . S
C256 C255 1.386 . S
C256 C260 1.397 . S
C257 C255 1.397 . S
C257 C258 1.384 . S
C257 H280 0.930 . S
C258 C257 1.384 . S
C258 C259 1.377 . S
C258 C261 1.481 . S
C259 C258 1.377 . S
C259 C260 1.389 . S
C259 H281 0.929 . S
C260 C256 1.397 . S
C260 C259 1.389 . S
C260 H282 0.931 . S
C261 C258 1.481 . S
C261 C262 1.387 . S
C261 C266 1.390 . S
C262 C261 1.387 . S
C262 C263 1.401 . S
C262 H283 0.930 . S
C263 C262 1.401 . S
C263 C264 1.376 . S
C263 C272 1.511 . S
C264 C263 1.376 . S
C264 C265 1.392 . S
C264 H285 0.931 . S
C265 C264 1.392 . S
C265 C266 1.361 . S
C265 C267 1.500 . S
C266 C261 1.390 . S
C266 C265 1.361 . S
C266 H284 0.931 . S
C267 C265 1.500 . S
C267 C268 1.371 . S
C267 C269 1.365 . S
C268 C267 1.371 . S
C268 C278 1.386 . S
C268 H286 0.931 . S
C269 C267 1.365 . S
C269 C270 1.409 . S
C269 H287 0.929 . S
C270 C269 1.409 . S
C270 C271 1.380 . S
C270 H288 0.930 . S
C271 C270 1.380 . S
C271 C278 1.357 . S
C272 C263 1.511 . S
C272 C273 1.341 . S
C272 C274 1.371 . S
C273 C272 1.341 . S
C273 C277 1.394 . S
C273 H289 0.930 . S
C274 C272 1.371 . S
C274 C275 1.392 . S
C274 H290 0.931 . S
C275 C274 1.392 . S
C275 C276 1.331 . S
C275 H293 0.932 . S
C276 C275 1.331 . S
C276 C277 1.336 . S
C277 C273 1.394 . S
C277 C276 1.336 . S
C277 H292 0.929 . S
C278 C268 1.386 . S
C278 C271 1.357 . S
C278 H291 0.928 . S
H279 C255 0.931 . S
H280 C257 0.930 . S
H281 C259 0.929 . S
H282 C260 0.931 . S
H283 C262 0.930 . S
H284 C266 0.931 . S
H285 C264 0.931 . S
H286 C268 0.931 . S
H287 C269 0.929 . S
H288 C270 0.930 . S
H289 C273 0.930 . S
H290 C274 0.931 . S
H291 C278 0.928 . S
H292 C277 0.929 . S
H293 C275 0.932 . S
H294 C300 0.930 . S
H295 C304 0.930 . S
H296 C309 0.929 . S
H297 C307 0.929 . S
H298 C302 0.929 . S
H299 C308 0.929 . S
C300 H294 0.930 . S
C300 C301 1.367 . S
C300 C308 1.378 . S
C301 C300 1.367 . S
C301 C309 1.433 . S
C302 H298 0.929 . S
C302 C304 1.378 . S
C302 C306 1.350 . S
C303 C306 1.463 . S
C303 C308 1.350 . S
C303 N311 1.427 . S
C304 H295 0.930 . S
C304 C302 1.378 . S
C304 C305 1.367 . S
C305 C304 1.367 . S
C305 C307 1.433 . S
C306 C302 1.350 . S
C306 C303 1.463 . S
C306 N310 1.427 . S
C307 H297 0.929 . S
C307 C305 1.433 . S
C307 N310 1.384 . S
C308 H299 0.929 . S
C308 C300 1.378 . S
C308 C303 1.350 . S
C309 H296 0.929 . S
C309 C301 1.433 . S
C309 N311 1.384 . S
N310 C306 1.427 . S
N310 C307 1.384 . S
N311 C303 1.427 . S
N311 C309 1.384 . S
H312 C318 0.930 . S
H313 C322 0.930 . S
H314 C327 0.929 . S
H315 C325 0.929 . S
H316 C320 0.929 . S
H317 C326 0.929 . S
C318 H312 0.930 . S
C318 C319 1.367 . S
C318 C326 1.378 . S
C319 C318 1.367 . S
C319 C327 1.433 . S
C320 H316 0.929 . S
C320 C322 1.378 . S
C320 C324 1.350 . S
C321 C324 1.463 . S
C321 C326 1.350 . S
C321 N329 1.427 . S
C322 H313 0.930 . S
C322 C320 1.378 . S
C322 C323 1.367 . S
C323 C322 1.367 . S
C323 C325 1.433 . S
C324 C320 1.350 . S
C324 C321 1.463 . S
C324 N328 1.427 . S
C325 H315 0.929 . S
C325 C323 1.433 . S
C325 N328 1.384 . S
C326 H317 0.929 . S
C326 C318 1.378 . S
C326 C321 1.350 . S
C327 H314 0.929 . S
C327 C319 1.433 . S
C327 N329 1.384 . S
N328 C324 1.427 . S
N328 C325 1.384 . S
N329 C321 1.427 . S
N329 C327 1.384 . S
H330 C336 0.930 . S
H331 C340 0.930 . S
H332 C345 0.929 . S
H333 C343 0.929 . S
H334 C338 0.929 . S
H335 C344 0.929 . S
C336 H330 0.930 . S
C336 C337 1.367 . S
C336 C344 1.378 . S
C337 C336 1.367 . S
C337 C345 1.433 . S
C338 H334 0.929 . S
C338 C340 1.378 . S
C338 C342 1.350 . S
C339 C342 1.463 . S
C339 C344 1.350 . S
C339 N347 1.427 . S
C340 H331 0.930 . S
C340 C338 1.378 . S
C340 C341 1.367 . S
C341 C340 1.367 . S
C341 C343 1.433 . S
C342 C338 1.350 . S
C342 C339 1.463 . S
C342 N346 1.427 . S
C343 H333 0.929 . S
C343 C341 1.433 . S
C343 N346 1.384 . S
C344 H335 0.929 . S
C344 C336 1.378 . S
C344 C339 1.350 . S
C345 H332 0.929 . S
C345 C337 1.433 . S
C345 N347 1.384 . S
N346 C342 1.427 . S
N346 C343 1.384 . S
N347 C339 1.427 . S
N347 C345 1.384 . S
H348 C354 0.930 . S
H349 C358 0.930 . S
H350 C363 0.929 . S
H351 C361 0.929 . S
H352 C356 0.929 . S
H353 C362 0.929 . S
C354 H348 0.930 . S
C354 C355 1.367 . S
C354 C362 1.378 . S
C355 C354 1.367 . S
C355 C363 1.433 . S
C356 H352 0.929 . S
C356 C358 1.378 . S
C356 C360 1.350 . S
C357 C360 1.463 . S
C357 C362 1.350 . S
C357 N365 1.427 . S
C358 H349 0.930 . S
C358 C356 1.378 . S
C358 C359 1.367 . S
C359 C358 1.367 . S
C359 C361 1.433 . S
C360 C356 1.350 . S
C360 C357 1.463 . S
C360 N364 1.427 . S
C361 H351 0.929 . S
C361 C359 1.433 . S
C361 N364 1.384 . S
C362 H353 0.929 . S
C362 C354 1.378 . S
C362 C357 1.350 . S
C363 H350 0.929 . S
C363 C355 1.433 . S
C363 N365 1.384 . S
N364 C360 1.427 . S
N364 C361 1.384 . S
N365 C357 1.427 . S
N365 C363 1.384 . S
H366 C372 0.930 . S
H367 C376 0.930 . S
H368 C381 0.929 . S
H369 C379 0.929 . S
H370 C374 0.929 . S
H371 C380 0.929 . S
C372 H366 0.930 . S
C372 C373 1.367 . S
C372 C380 1.378 . S
C373 C372 1.367 . S
C373 C381 1.433 . S
C374 H370 0.929 . S
C374 C376 1.378 . S
C374 C378 1.350 . S
C375 C378 1.463 . S
C375 C380 1.350 . S
C375 N383 1.427 . S
C376 H367 0.930 . S
C376 C374 1.378 . S
C376 C377 1.367 . S
C377 C376 1.367 . S
C377 C379 1.433 . S
C378 C374 1.350 . S
C378 C375 1.463 . S
C378 N382 1.427 . S
C379 H369 0.929 . S
C379 C377 1.433 . S
C379 N382 1.384 . S
C380 H371 0.929 . S
C380 C372 1.378 . S
C380 C375 1.350 . S
C381 H368 0.929 . S
C381 C373 1.433 . S
C381 N383 1.384 . S
N382 C378 1.427 . S
N382 C379 1.384 . S
N383 C375 1.427 . S
N383 C381 1.384 . S
H384 C390 0.930 . S
H385 C394 0.930 . S
H386 C399 0.929 . S
H387 C397 0.929 . S
H388 C392 0.929 . S
H389 C398 0.929 . S
C390 H384 0.930 . S
C390 C391 1.367 . S
C390 C398 1.378 . S
C391 C390 1.367 . S
C391 C399 1.433 . S
C392 H388 0.929 . S
C392 C394 1.378 . S
C392 C396 1.350 . S
C393 C396 1.463 . S
C393 C398 1.350 . S
C393 N401 1.427 . S
C394 H385 0.930 . S
C394 C392 1.378 . S
C394 C395 1.367 . S
C395 C394 1.367 . S
C395 C397 1.433 . S
C396 C392 1.350 . S
C396 C393 1.463 . S
C396 N400 1.427 . S
C397 H387 0.929 . S
C397 C395 1.433 . S
C397 N400 1.384 . S
C398 H389 0.929 . S
C398 C390 1.378 . S
C398 C393 1.350 . S
C399 H386 0.929 . S
C399 C391 1.433 . S
C399 N401 1.384 . S
N400 C396 1.427 . S
N400 C397 1.384 . S
N401 C393 1.427 . S
N401 C399 1.384 . S
H402 C408 0.930 . S
H403 C412 0.930 . S
H404 C417 0.929 . S
H405 C415 0.929 . S
H406 C410 0.929 . S
H407 C416 0.929 . S
C408 H402 0.930 . S
C408 C409 1.367 . S
C408 C416 1.378 . S
C409 C408 1.367 . S
C409 C417 1.433 . S
C410 H406 0.929 . S
C410 C412 1.378 . S
C410 C414 1.350 . S
C411 C414 1.463 . S
C411 C416 1.350 . S
C411 N419 1.427 . S
C412 H403 0.930 . S
C412 C410 1.378 . S
C412 C413 1.367 . S
C413 C412 1.367 . S
C413 C415 1.433 . S
C414 C410 1.350 . S
C414 C411 1.463 . S
C414 N418 1.427 . S
C415 H405 0.929 . S
C415 C413 1.433 . S
C415 N418 1.384 . S
C416 H407 0.929 . S
C416 C408 1.378 . S
C416 C411 1.350 . S
C417 H404 0.929 . S
C417 C409 1.433 . S
C417 N419 1.384 . S
N418 C414 1.427 . S
N418 C415 1.384 . S
N419 C411 1.427 . S
N419 C417 1.384 . S
H420 C426 0.930 . S
H421 C430 0.930 . S
H422 C435 0.929 . S
H423 C433 0.929 . S
H424 C428 0.929 . S
H425 C434 0.929 . S
C426 H420 0.930 . S
C426 C427 1.367 . S
C426 C434 1.378 . S
C427 C426 1.367 . S
C427 C435 1.433 . S
C428 H424 0.929 . S
C428 C430 1.378 . S
C428 C432 1.350 . S
C429 C432 1.463 . S
C429 C434 1.350 . S
C429 N437 1.427 . S
C430 H421 0.930 . S
C430 C428 1.378 . S
C430 C431 1.367 . S
C431 C430 1.367 . S
C431 C433 1.433 . S
C432 C428 1.350 . S
C432 C429 1.463 . S
C432 N436 1.427 . S
C433 H423 0.929 . S
C433 C431 1.433 . S
C433 N436 1.384 . S
C434 H425 0.929 . S
C434 C426 1.378 . S
C434 C429 1.350 . S
C435 H422 0.929 . S
C435 C427 1.433 . S
C435 N437 1.384 . S
N436 C432 1.427 . S
N436 C433 1.384 . S
N437 C429 1.427 . S
N437 C435 1.384 . S
H438 C444 0.930 . S
H439 C448 0.930 . S
H440 C453 0.929 . S
H441 C451 0.929 . S
H442 C446 0.929 . S
H443 C452 0.929 . S
C444 H438 0.930 . S
C444 C445 1.367 . S
C444 C452 1.378 . S
C445 C444 1.367 . S
C445 C453 1.433 . S
C446 H442 0.929 . S
C446 C448 1.378 . S
C446 C450 1.350 . S
C447 C450 1.463 . S
C447 C452 1.350 . S
C447 N455 1.427 . S
C448 H439 0.930 . S
C448 C446 1.378 . S
C448 C449 1.367 . S
C449 C448 1.367 . S
C449 C451 1.433 . S
C450 C446 1.350 . S
C450 C447 1.463 . S
C450 N454 1.427 . S
C451 H441 0.929 . S
C451 C449 1.433 . S
C451 N454 1.384 . S
C452 H443 0.929 . S
C452 C444 1.378 . S
C452 C447 1.350 . S
C453 H440 0.929 . S
C453 C445 1.433 . S
C453 N455 1.384 . S
N454 C450 1.427 . S
N454 C451 1.384 . S
N455 C447 1.427 . S
N455 C453 1.384 . S
H456 C462 0.930 . S
H457 C466 0.930 . S
H458 C471 0.929 . S
H459 C469 0.929 . S
H460 C464 0.929 . S
H461 C470 0.929 . S
C462 H456 0.930 . S
C462 C463 1.367 . S
C462 C470 1.378 . S
C463 C462 1.367 . S
C463 C471 1.433 . S
C464 H460 0.929 . S
C464 C466 1.378 . S
C464 C468 1.350 . S
C465 C468 1.463 . S
C465 C470 1.350 . S
C465 N473 1.427 . S
C466 H457 0.930 . S
C466 C464 1.378 . S
C466 C467 1.367 . S
C467 C466 1.367 . S
C467 C469 1.433 . S
C468 C464 1.350 . S
C468 C465 1.463 . S
C468 N472 1.427 . S
C469 H459 0.929 . S
C469 C467 1.433 . S
C469 N472 1.384 . S
C470 H461 0.929 . S
C470 C462 1.378 . S
C470 C465 1.350 . S
C471 H458 0.929 . S
C471 C463 1.433 . S
C471 N473 1.384 . S
N472 C468 1.427 . S
N472 C469 1.384 . S
N473 C465 1.427 . S
N473 C471 1.384 . S
H474 C480 0.930 . S
H475 C484 0.930 . S
H476 C489 0.929 . S
H477 C487 0.929 . S
H478 C482 0.929 . S
H479 C488 0.929 . S
C480 H474 0.930 . S
C480 C481 1.367 . S
C480 C488 1.378 . S
C481 C480 1.367 . S
C481 C489 1.433 . S
C482 H478 0.929 . S
C482 C484 1.378 . S
C482 C486 1.350 . S
C483 C486 1.463 . S
C483 C488 1.350 . S
C483 N491 1.427 . S
C484 H475 0.930 . S
C484 C482 1.378 . S
C484 C485 1.367 . S
C485 C484 1.367 . S
C485 C487 1.433 . S
C486 C482 1.350 . S
C486 C483 1.463 . S
C486 N490 1.427 . S
C487 H477 0.929 . S
C487 C485 1.433 . S
C487 N490 1.384 . S
C488 H479 0.929 . S
C488 C480 1.378 . S
C488 C483 1.350 . S
C489 H476 0.929 . S
C489 C481 1.433 . S
C489 N491 1.384 . S
N490 C486 1.427 . S
N490 C487 1.384 . S
N491 C483 1.427 . S
N491 C489 1.384 . S
H492 C498 0.930 . S
H493 C502 0.930 . S
H494 C507 0.929 . S
H495 C505 0.929 . S
H496 C500 0.929 . S
H497 C506 0.929 . S
C498 H492 0.930 . S
C498 C499 1.367 . S
C498 C506 1.378 . S
C499 C498 1.367 . S
C499 C507 1.433 . S
C500 H496 0.929 . S
C500 C502 1.378 . S
C500 C504 1.350 . S
C501 C504 1.463 . S
C501 C506 1.350 . S
C501 N509 1.427 . S
C502 H493 0.930 . S
C502 C500 1.378 . S
C502 C503 1.367 . S
C503 C502 1.367 . S
C503 C505 1.433 . S
C504 C500 1.350 . S
C504 C501 1.463 . S
C504 N508 1.427 . S
C505 H495 0.929 . S
C505 C503 1.433 . S
C505 N508 1.384 . S
C506 H497 0.929 . S
C506 C498 1.378 . S
C506 C501 1.350 . S
C507 H494 0.929 . S
C507 C499 1.433 . S
C507 N509 1.384 . S
N508 C504 1.427 . S
N508 C505 1.384 . S
N509 C501 1.427 . S
N509 C507 1.384 . S
H510 C516 0.930 . S
H511 C520 0.930 1_655 S
H512 C525 0.929 . S
H513 C523 0.929 . S
H514 C518 0.929 . S
H515 C524 0.929 . S
C516 H510 0.930 . S
C516 C517 1.367 . S
C516 C524 1.378 . S
C517 C516 1.367 . S
C517 C525 1.433 1_455 S
C518 H514 0.929 . S
C518 C520 1.378 1_655 S
C518 C522 1.350 1_655 S
C519 C522 1.463 . S
C519 C524 1.350 . S
C519 N527 1.427 1_455 S
C520 H511 0.930 1_455 S
C520 C518 1.378 1_455 S
C520 C521 1.367 . S
C521 C520 1.367 . S
C521 C523 1.433 . S
C522 C518 1.350 1_455 S
C522 C519 1.463 . S
C522 N526 1.427 . S
C523 H513 0.929 . S
C523 C521 1.433 . S
C523 N526 1.384 . S
C524 H515 0.929 . S
C524 C516 1.378 . S
C524 C519 1.350 . S
C525 H512 0.929 . S
C525 C517 1.433 1_655 S
C525 N527 1.384 . S
N526 C522 1.427 . S
N526 C523 1.384 . S
N527 C519 1.427 1_655 S
N527 C525 1.384 . S
H528 C534 0.930 . S
H529 C538 0.930 . S
H530 C543 0.929 . S
H531 C541 0.929 . S
H532 C536 0.929 . S
H533 C542 0.929 . S
C534 H528 0.930 . S
C534 C535 1.367 . S
C534 C542 1.378 . S
C535 C534 1.367 . S
C535 C543 1.433 . S
C536 H532 0.929 . S
C536 C538 1.378 . S
C536 C540 1.350 . S
C537 C540 1.463 . S
C537 C542 1.350 . S
C537 N545 1.427 . S
C538 H529 0.930 . S
C538 C536 1.378 . S
C538 C539 1.367 . S
C539 C538 1.367 . S
C539 C541 1.433 . S
C540 C536 1.350 . S
C540 C537 1.463 . S
C540 N544 1.427 . S
C541 H531 0.929 . S
C541 C539 1.433 . S
C541 N544 1.384 . S
C542 H533 0.929 . S
C542 C534 1.378 . S
C542 C537 1.350 . S
C543 H530 0.929 . S
C543 C535 1.433 . S
C543 N545 1.384 . S
N544 C540 1.427 . S
N544 C541 1.384 . S
N545 C537 1.427 . S
N545 C543 1.384 . S
H546 C552 0.930 . S
H547 C556 0.930 . S
H548 C561 0.929 . S
H549 C559 0.929 . S
H550 C554 0.929 . S
H551 C560 0.929 . S
C552 H546 0.930 . S
C552 C553 1.367 . S
C552 C560 1.378 . S
C553 C552 1.367 . S
C553 C561 1.433 . S
C554 H550 0.929 . S
C554 C556 1.378 . S
C554 C558 1.350 . S
C555 C558 1.463 . S
C555 C560 1.350 . S
C555 N563 1.427 . S
C556 H547 0.930 . S
C556 C554 1.378 . S
C556 C557 1.367 . S
C557 C556 1.367 . S
C557 C559 1.433 . S
C558 C554 1.350 . S
C558 C555 1.463 . S
C558 N562 1.427 . S
C559 H549 0.929 . S
C559 C557 1.433 . S
C559 N562 1.384 . S
C560 H551 0.929 . S
C560 C552 1.378 . S
C560 C555 1.350 . S
C561 H548 0.929 . S
C561 C553 1.433 . S
C561 N563 1.384 . S
N562 C558 1.427 . S
N562 C559 1.384 . S
N563 C555 1.427 . S
N563 C561 1.384 . S
H564 C570 0.930 . S
H565 C574 0.930 . S
H566 C579 0.929 . S
H567 C577 0.929 . S
H568 C572 0.929 . S
H569 C578 0.929 . S
C570 H564 0.930 . S
C570 C571 1.367 . S
C570 C578 1.378 . S
C571 C570 1.367 . S
C571 C579 1.433 1_545 S
C572 H568 0.929 . S
C572 C574 1.378 . S
C572 C576 1.350 1_565 S
C573 C576 1.463 . S
C573 C578 1.350 . S
C573 N581 1.427 1_545 S
C574 H565 0.930 . S
C574 C572 1.378 . S
C574 C575 1.367 1_565 S
C575 C574 1.367 1_545 S
C575 C577 1.433 . S
C576 C572 1.350 1_545 S
C576 C573 1.463 . S
C576 N580 1.427 . S
C577 H567 0.929 . S
C577 C575 1.433 . S
C577 N580 1.384 . S
C578 H569 0.929 . S
C578 C570 1.378 . S
C578 C573 1.350 . S
C579 H566 0.929 . S
C579 C571 1.433 1_565 S
C579 N581 1.384 . S
N580 C576 1.427 . S
N580 C577 1.384 . S
N581 C573 1.427 1_565 S
N581 C579 1.384 . S
H582 C588 0.930 . S
H583 C592 0.930 . S
H584 C597 0.929 . S
H585 C595 0.929 . S
H586 C590 0.929 . S
H587 C596 0.929 . S
C588 H582 0.930 . S
C588 C589 1.367 . S
C588 C596 1.378 . S
C589 C588 1.367 . S
C589 C597 1.433 . S
C590 H586 0.929 . S
C590 C592 1.378 . S
C590 C594 1.350 . S
C591 C594 1.463 . S
C591 C596 1.350 . S
C591 N599 1.427 . S
C592 H583 0.930 . S
C592 C590 1.378 . S
C592 C593 1.367 . S
C593 C592 1.367 . S
C593 C595 1.433 . S
C594 C590 1.350 . S
C594 C591 1.463 . S
C594 N598 1.427 . S
C595 H585 0.929 . S
C595 C593 1.433 . S
C595 N598 1.384 . S
C596 H587 0.929 . S
C596 C588 1.378 . S
C596 C591 1.350 . S
C597 H584 0.929 . S
C597 C589 1.433 . S
C597 N599 1.384 . S
N598 C594 1.427 . S
N598 C595 1.384 . S
N599 C591 1.427 . S
N599 C597 1.384 . S
H600 C606 0.930 . S
H601 C610 0.917 1_655 S
H602 C615 0.929 . S
H603 C613 0.929 . S
H604 C608 0.933 . S
H605 C614 0.929 . S
C606 H600 0.930 . S
C606 C607 1.359 1_455 S
C606 C614 1.378 . S
C607 C606 1.359 1_655 S
C607 C615 1.441 . S
C608 H604 0.933 . S
C608 C610 1.377 1_655 S
C608 C612 1.346 1_655 S
C609 C612 1.463 . S
C609 C614 1.350 . S
C609 N617 1.427 1_455 S
C610 H601 0.917 1_455 S
C610 C608 1.377 1_455 S
C610 C611 1.381 . S
C611 C610 1.381 . S
C611 C613 1.433 . S
C612 C608 1.346 1_455 S
C612 C609 1.463 . S
C612 N616 1.427 . S
C613 H603 0.929 . S
C613 C611 1.433 . S
C613 N616 1.384 . S
C614 H605 0.929 . S
C614 C606 1.378 . S
C614 C609 1.350 . S
C615 H602 0.929 . S
C615 C607 1.441 . S
C615 N617 1.384 . S
N616 C612 1.427 . S
N616 C613 1.384 . S
N617 C609 1.427 1_655 S
N617 C615 1.384 . S
C301 C2 1.366 . S
C305 C271 1.442 . S
C319 C22 1.353 . S
C323 C198 1.428 . S
C337 C44 1.418 . S
C341 C237 1.478 . S
C355 C4 1.553 . S
C359 C276 1.623 . S
C377 C193 1.644 . S
C373 C24 1.590 . S
C395 C232 1.580 . S
C391 C42 1.517 . S
C409 C32 1.344 . S
C413 C120 1.357 . S
C427 C49 1.309 . S
C431 C154 1.300 . S
C445 C9 1.275 . S
C449 C76 1.269 . S
C467 C115 1.279 . S
C463 C29 1.238 . S
C485 C159 1.307 . S
C481 C52 1.273 . S
C499 C12 1.274 . S
C503 C81 1.319 . S
C521 C139 1.440 1_554 S
C517 C18 1.430 1_455 S
C535 C38 1.427 . S
C539 C61 1.442 . S
C553 C58 1.426 . S
C557 C100 1.444 . S
C575 C217 1.503 . S
C571 C39 1.483 . S
C593 C256 1.496 1_556 S
C589 C59 1.478 . S
C607 C19 1.466 1_655 S
C611 C178 1.497 . S
