# Generated by pormake.
# Topology ptr, (4,4)-cn, num edge types: 1
# Building blocks:
#     Node 0, Type 0, BuildingBlock: TATPOV_clean_sbu_0, # of connection points: 4
#     Node 1, Type 0, BuildingBlock: TATPOV_clean_sbu_0, # of connection points: 4
#     Node 2, Type 0, BuildingBlock: TATPOV_clean_sbu_0, # of connection points: 4
#     Node 3, Type 0, BuildingBlock: TATPOV_clean_sbu_0, # of connection points: 4
#     Node 4, Type 0, BuildingBlock: TATPOV_clean_sbu_0, # of connection points: 4
#     Node 5, Type 0, BuildingBlock: TATPOV_clean_sbu_0, # of connection points: 4
#     Node 6, Type 0, BuildingBlock: TATPOV_clean_sbu_0, # of connection points: 4
#     Node 7, Type 0, BuildingBlock: TATPOV_clean_sbu_0, # of connection points: 4
#     Node 8, Type 0, BuildingBlock: TATPOV_clean_sbu_0, # of connection points: 4
#     Node 9, Type 0, BuildingBlock: TATPOV_clean_sbu_0, # of connection points: 4
#     Node 10, Type 0, BuildingBlock: TATPOV_clean_sbu_0, # of connection points: 4
#     Node 11, Type 0, BuildingBlock: TATPOV_clean_sbu_0, # of connection points: 4
#     Node 12, Type 0, BuildingBlock: TATPOV_clean_sbu_0, # of connection points: 4
#     Node 13, Type 0, BuildingBlock: TATPOV_clean_sbu_0, # of connection points: 4
#     Node 14, Type 0, BuildingBlock: TATPOV_clean_sbu_0, # of connection points: 4
#     Node 15, Type 0, BuildingBlock: TATPOV_clean_sbu_0, # of connection points: 4
#     Node 16, Type 0, BuildingBlock: TATPOV_clean_sbu_0, # of connection points: 4
#     Node 17, Type 0, BuildingBlock: TATPOV_clean_sbu_0, # of connection points: 4
#     Node 18, Type 1, BuildingBlock: NAHDIM_clean_linker_0, # of connection points: 4
#     Node 19, Type 1, BuildingBlock: NAHDIM_clean_linker_0, # of connection points: 4
#     Node 20, Type 1, BuildingBlock: NAHDIM_clean_linker_0, # of connection points: 4
#     Node 21, Type 1, BuildingBlock: NAHDIM_clean_linker_0, # of connection points: 4
#     Node 22, Type 1, BuildingBlock: NAHDIM_clean_linker_0, # of connection points: 4
#     Node 23, Type 1, BuildingBlock: NAHDIM_clean_linker_0, # of connection points: 4
#     Node 24, Type 1, BuildingBlock: NAHDIM_clean_linker_0, # of connection points: 4
#     Node 25, Type 1, BuildingBlock: NAHDIM_clean_linker_0, # of connection points: 4
#     Node 26, Type 1, BuildingBlock: NAHDIM_clean_linker_0, # of connection points: 4
#     Node 27, Type 1, BuildingBlock: NAHDIM_clean_linker_0, # of connection points: 4
#     Node 28, Type 1, BuildingBlock: NAHDIM_clean_linker_0, # of connection points: 4
#     Node 29, Type 1, BuildingBlock: NAHDIM_clean_linker_0, # of connection points: 4
#     Node 30, Type 1, BuildingBlock: NAHDIM_clean_linker_0, # of connection points: 4
#     Node 31, Type 1, BuildingBlock: NAHDIM_clean_linker_0, # of connection points: 4
#     Node 32, Type 1, BuildingBlock: NAHDIM_clean_linker_0, # of connection points: 4
#     Node 33, Type 1, BuildingBlock: NAHDIM_clean_linker_0, # of connection points: 4
#     Node 34, Type 1, BuildingBlock: NAHDIM_clean_linker_0, # of connection points: 4
#     Node 35, Type 1, BuildingBlock: NAHDIM_clean_linker_0, # of connection points: 4
#     Edge 36, Type (0, 1), BuildingBlock: AJUNOK_clean_linker_0, # of connection points: 2
#     Edge 37, Type (0, 1), BuildingBlock: AJUNOK_clean_linker_0, # of connection points: 2
#     Edge 38, Type (0, 1), BuildingBlock: AJUNOK_clean_linker_0, # of connection points: 2
#     Edge 39, Type (0, 1), BuildingBlock: AJUNOK_clean_linker_0, # of connection points: 2
#     Edge 40, Type (0, 1), BuildingBlock: AJUNOK_clean_linker_0, # of connection points: 2
#     Edge 41, Type (0, 1), BuildingBlock: AJUNOK_clean_linker_0, # of connection points: 2
#     Edge 42, Type (0, 1), BuildingBlock: AJUNOK_clean_linker_0, # of connection points: 2
#     Edge 43, Type (0, 1), BuildingBlock: AJUNOK_clean_linker_0, # of connection points: 2
#     Edge 44, Type (0, 1), BuildingBlock: AJUNOK_clean_linker_0, # of connection points: 2
#     Edge 45, Type (0, 1), BuildingBlock: AJUNOK_clean_linker_0, # of connection points: 2
#     Edge 46, Type (0, 1), BuildingBlock: AJUNOK_clean_linker_0, # of connection points: 2
#     Edge 47, Type (0, 1), BuildingBlock: AJUNOK_clean_linker_0, # of connection points: 2
#     Edge 48, Type (0, 1), BuildingBlock: AJUNOK_clean_linker_0, # of connection points: 2
#     Edge 49, Type (0, 1), BuildingBlock: AJUNOK_clean_linker_0, # of connection points: 2
#     Edge 50, Type (0, 1), BuildingBlock: AJUNOK_clean_linker_0, # of connection points: 2
#     Edge 51, Type (0, 1), BuildingBlock: AJUNOK_clean_linker_0, # of connection points: 2
#     Edge 52, Type (0, 1), BuildingBlock: AJUNOK_clean_linker_0, # of connection points: 2
#     Edge 53, Type (0, 1), BuildingBlock: AJUNOK_clean_linker_0, # of connection points: 2
#     Edge 54, Type (0, 1), BuildingBlock: AJUNOK_clean_linker_0, # of connection points: 2
#     Edge 55, Type (0, 1), BuildingBlock: AJUNOK_clean_linker_0, # of connection points: 2
#     Edge 56, Type (0, 1), BuildingBlock: AJUNOK_clean_linker_0, # of connection points: 2
#     Edge 57, Type (0, 1), BuildingBlock: AJUNOK_clean_linker_0, # of connection points: 2
#     Edge 58, Type (0, 1), BuildingBlock: AJUNOK_clean_linker_0, # of connection points: 2
#     Edge 59, Type (0, 1), BuildingBlock: AJUNOK_clean_linker_0, # of connection points: 2
#     Edge 60, Type (0, 1), BuildingBlock: AJUNOK_clean_linker_0, # of connection points: 2
#     Edge 61, Type (0, 1), BuildingBlock: AJUNOK_clean_linker_0, # of connection points: 2
#     Edge 62, Type (0, 1), BuildingBlock: AJUNOK_clean_linker_0, # of connection points: 2
#     Edge 63, Type (0, 1), BuildingBlock: AJUNOK_clean_linker_0, # of connection points: 2
#     Edge 64, Type (0, 1), BuildingBlock: AJUNOK_clean_linker_0, # of connection points: 2
#     Edge 65, Type (0, 1), BuildingBlock: AJUNOK_clean_linker_0, # of connection points: 2
#     Edge 66, Type (0, 1), BuildingBlock: AJUNOK_clean_linker_0, # of connection points: 2
#     Edge 67, Type (0, 1), BuildingBlock: AJUNOK_clean_linker_0, # of connection points: 2
#     Edge 68, Type (0, 1), BuildingBlock: AJUNOK_clean_linker_0, # of connection points: 2
#     Edge 69, Type (0, 1), BuildingBlock: AJUNOK_clean_linker_0, # of connection points: 2
#     Edge 70, Type (0, 1), BuildingBlock: AJUNOK_clean_linker_0, # of connection points: 2
#     Edge 71, Type (0, 1), BuildingBlock: AJUNOK_clean_linker_0, # of connection points: 2
#     Edge 72, Type (0, 1), BuildingBlock: AJUNOK_clean_linker_0, # of connection points: 2
#     Edge 73, Type (0, 1), BuildingBlock: AJUNOK_clean_linker_0, # of connection points: 2
#     Edge 74, Type (0, 1), BuildingBlock: AJUNOK_clean_linker_0, # of connection points: 2
#     Edge 75, Type (0, 1), BuildingBlock: AJUNOK_clean_linker_0, # of connection points: 2
#     Edge 76, Type (0, 1), BuildingBlock: AJUNOK_clean_linker_0, # of connection points: 2
#     Edge 77, Type (0, 1), BuildingBlock: AJUNOK_clean_linker_0, # of connection points: 2
#     Edge 78, Type (0, 1), BuildingBlock: AJUNOK_clean_linker_0, # of connection points: 2
#     Edge 79, Type (0, 1), BuildingBlock: AJUNOK_clean_linker_0, # of connection points: 2
#     Edge 80, Type (0, 1), BuildingBlock: AJUNOK_clean_linker_0, # of connection points: 2
#     Edge 81, Type (0, 1), BuildingBlock: AJUNOK_clean_linker_0, # of connection points: 2
#     Edge 82, Type (0, 1), BuildingBlock: AJUNOK_clean_linker_0, # of connection points: 2
#     Edge 83, Type (0, 1), BuildingBlock: AJUNOK_clean_linker_0, # of connection points: 2
#     Edge 84, Type (0, 1), BuildingBlock: AJUNOK_clean_linker_0, # of connection points: 2
#     Edge 85, Type (0, 1), BuildingBlock: AJUNOK_clean_linker_0, # of connection points: 2
#     Edge 86, Type (0, 1), BuildingBlock: AJUNOK_clean_linker_0, # of connection points: 2
#     Edge 87, Type (0, 1), BuildingBlock: AJUNOK_clean_linker_0, # of connection points: 2
#     Edge 88, Type (0, 1), BuildingBlock: AJUNOK_clean_linker_0, # of connection points: 2
#     Edge 89, Type (0, 1), BuildingBlock: AJUNOK_clean_linker_0, # of connection points: 2
#     Edge 90, Type (0, 1), BuildingBlock: AJUNOK_clean_linker_0, # of connection points: 2
#     Edge 91, Type (0, 1), BuildingBlock: AJUNOK_clean_linker_0, # of connection points: 2
#     Edge 92, Type (0, 1), BuildingBlock: AJUNOK_clean_linker_0, # of connection points: 2
#     Edge 93, Type (0, 1), BuildingBlock: AJUNOK_clean_linker_0, # of connection points: 2
#     Edge 94, Type (0, 1), BuildingBlock: AJUNOK_clean_linker_0, # of connection points: 2
#     Edge 95, Type (0, 1), BuildingBlock: AJUNOK_clean_linker_0, # of connection points: 2
#     Edge 96, Type (0, 1), BuildingBlock: AJUNOK_clean_linker_0, # of connection points: 2
#     Edge 97, Type (0, 1), BuildingBlock: AJUNOK_clean_linker_0, # of connection points: 2
#     Edge 98, Type (0, 1), BuildingBlock: AJUNOK_clean_linker_0, # of connection points: 2
#     Edge 99, Type (0, 1), BuildingBlock: AJUNOK_clean_linker_0, # of connection points: 2
#     Edge 100, Type (0, 1), BuildingBlock: AJUNOK_clean_linker_0, # of connection points: 2
#     Edge 101, Type (0, 1), BuildingBlock: AJUNOK_clean_linker_0, # of connection points: 2
#     Edge 102, Type (0, 1), BuildingBlock: AJUNOK_clean_linker_0, # of connection points: 2
#     Edge 103, Type (0, 1), BuildingBlock: AJUNOK_clean_linker_0, # of connection points: 2
#     Edge 104, Type (0, 1), BuildingBlock: AJUNOK_clean_linker_0, # of connection points: 2
#     Edge 105, Type (0, 1), BuildingBlock: AJUNOK_clean_linker_0, # of connection points: 2
#     Edge 106, Type (0, 1), BuildingBlock: AJUNOK_clean_linker_0, # of connection points: 2
#     Edge 107, Type (0, 1), BuildingBlock: AJUNOK_clean_linker_0, # of connection points: 2
# Relax obj value: 0.077
# Max RMSD: 0.285
# Mean RMSD: 0.116
data_MOF--net-ptr--node1-TATPOV_clean_sbu_0--node2-NAHDIM_clean_linker_0--edge1-AJUNOK_clean_linker_0
_symmetry_space_group_name_H-M    P1
_symmetry_Int_Tables_number       1
_symmetry_cell_setting            triclinic
loop_
_symmetry_equiv_pos_as_xyz
'x, y, z'
_cell_length_a     76.184203
_cell_length_b     77.216985
_cell_length_c     64.267654
_cell_angle_alpha  90.687505
_cell_angle_beta   91.061009
_cell_angle_gamma 121.79142
loop_
_atom_site_label
_atom_site_type_symbol
_atom_site_fract_x
_atom_site_fract_y
_atom_site_fract_z
_atom_type_partial_charge
Zn0 Zn 0.96329 0.34096 0.0138 0.0
Zn1 Zn 0.00184 0.34716 0.01719 0.0
O2 O 0.98262 0.31597 0.01395 0.0
O3 O 0.95127 0.31059 0.01223 0.0
O4 O 0.03008 0.35159 0.02267 0.0
O5 O 0.96739 0.35555 0.04157 0.0
O6 O 0.99879 0.36099 0.04303 0.0
C7 C 0.96313 0.30371 0.01218 0.0
C8 C 0.9911 0.3646 0.98054 0.0
O9 O 0.00427 0.36224 0.99053 0.0
O10 O 0.973 0.35712 0.98723 0.0
C11 C 0.03585 0.34014 0.01524 0.0
O12 O 0.02355 0.32504 0.00236 0.0
C13 C 0.98481 0.36317 0.05084 0.0
Zn14 Zn 0.64076 0.61823 0.98009 0.0
Zn15 Zn 0.64158 0.64554 0.00787 0.0
O16 O 0.67229 0.65759 0.00087 0.0
O17 O 0.67172 0.63512 0.97896 0.0
O18 O 0.64268 0.66678 0.02724 0.0
O19 O 0.62791 0.59714 0.00253 0.0
O20 O 0.62753 0.61915 0.02451 0.0
C21 C 0.68175 0.65167 0.98943 0.0
C22 C 0.61777 0.63616 0.96615 0.0
O23 O 0.62333 0.64503 0.98396 0.0
O24 O 0.62338 0.62412 0.96029 0.0
C25 C 0.65119 0.68492 0.02094 0.0
O26 O 0.65942 0.6893 0.00252 0.0
C27 C 0.62355 0.60129 0.02009 0.0
Zn28 Zn 0.33681 0.97112 0.01153 0.0
Zn29 Zn 0.33998 0.00738 0.00572 0.0
O30 O 0.3094 0.98697 0.01153 0.0
O31 O 0.30604 0.95719 0.01555 0.0
O32 O 0.33977 0.03274 0.99927 0.0
O33 O 0.34847 0.97279 0.98298 0.0
O34 O 0.35197 0.00276 0.97949 0.0
C35 C 0.2981 0.96805 0.01512 0.0
C36 C 0.36418 0.00379 0.04152 0.0
O37 O 0.35932 0.01468 0.03115 0.0
O38 O 0.35655 0.9852 0.03639 0.0
C39 C 0.3295 0.03789 0.01033 0.0
O40 O 0.32046 0.02732 0.02687 0.0
C41 C 0.35432 0.98862 0.9725 0.0
Zn42 Zn 0.03825 0.66071 0.03175 0.0
Zn43 Zn 0.00249 0.6568 0.01666 0.0
O44 O 0.02163 0.68652 0.02578 0.0
O45 O 0.05151 0.69137 0.03633 0.0
O46 O 0.9792 0.65885 0.00439 0.0
O47 O 0.04041 0.64923 0.00373 0.0
O48 O 0.01168 0.64656 0.99228 0.0
C49 C 0.04001 0.69835 0.03277 0.0
C50 C 0.00063 0.63291 0.05446 0.0
O51 O 0.99122 0.63697 0.04062 0.0
O52 O 0.02013 0.64134 0.05428 0.0
C53 C 0.96692 0.66085 0.01581 0.0
O54 O 0.9678 0.659 0.03603 0.0
C55 C 0.02686 0.64432 0.98934 0.0
Zn56 Zn 0.34326 0.39055 0.03684 0.0
Zn57 Zn 0.34416 0.3599 0.01577 0.0
O58 O 0.31487 0.34773 0.0255 0.0
O59 O 0.31214 0.37177 0.04082 0.0
O60 O 0.34054 0.33535 0.00071 0.0
O61 O 0.35304 0.40659 0.00994 0.0
O62 O 0.35259 0.38117 0.99355 0.0
C63 C 0.30404 0.3534 0.03463 0.0
C64 C 0.37149 0.379 0.05444 0.0
O65 O 0.36569 0.36694 0.03866 0.0
O66 O 0.3639 0.39 0.05748 0.0
C67 C 0.33274 0.31906 0.01096 0.0
O68 O 0.33054 0.32014 0.03107 0.0
C69 C 0.35556 0.39901 0.99346 0.0
Zn70 Zn 0.66071 0.03776 0.99359 0.0
Zn71 Zn 0.65371 0.00091 0.00599 0.0
O72 O 0.68416 0.01801 0.99891 0.0
O73 O 0.69144 0.04862 0.9908 0.0
O74 O 0.65301 0.97654 0.01763 0.0
O75 O 0.64984 0.04069 0.0214 0.0
O76 O 0.64486 0.01115 0.03063 0.0
C77 C 0.69715 0.03607 0.99351 0.0
C78 C 0.63099 0.00195 0.96747 0.0
O79 O 0.6339 0.99151 0.98075 0.0
O80 O 0.64059 0.02123 0.96944 0.0
C81 C 0.66116 0.9683 0.00773 0.0
O82 O 0.66658 0.97364 0.98846 0.0
C83 C 0.64401 0.02685 0.03472 0.0
Zn84 Zn 0.63813 0.68707 0.32753 0.0
Zn85 Zn 0.6717 0.69083 0.34788 0.0
O86 O 0.6569 0.66229 0.33426 0.0
O87 O 0.63111 0.65962 0.31549 0.0
O88 O 0.69691 0.69333 0.36172 0.0
O89 O 0.62776 0.68908 0.3558 0.0
O90 O 0.65609 0.69424 0.37158 0.0
C91 C 0.64162 0.65218 0.32159 0.0
C92 C 0.67687 0.72196 0.31569 0.0
O93 O 0.68444 0.71476 0.32815 0.0
O94 O 0.65752 0.71324 0.31282 0.0
C95 C 0.70654 0.68641 0.35228 0.0
O96 O 0.69981 0.67754 0.33386 0.0
C97 C 0.63868 0.69283 0.37232 0.0
Zn98 Zn 0.30016 0.94382 0.33659 0.0
Zn99 Zn 0.3126 0.97973 0.35663 0.0
O100 O 0.33885 0.98286 0.34427 0.0
O101 O 0.32957 0.95309 0.33002 0.0
O102 O 0.32385 0.00709 0.37125 0.0
O103 O 0.28807 0.92955 0.36348 0.0
O104 O 0.30052 0.95905 0.38016 0.0
C105 C 0.34349 0.97131 0.33473 0.0
C106 C 0.28195 0.96546 0.31961 0.0
O107 O 0.29134 0.97785 0.33491 0.0
O108 O 0.28377 0.95026 0.31661 0.0
C109 C 0.33738 0.02306 0.36228 0.0
O110 O 0.34297 0.02153 0.3435 0.0
C111 C 0.29098 0.93966 0.38019 0.0
Zn112 Zn 0.02264 0.30527 0.35311 0.0
Zn113 Zn 0.0221 0.33783 0.33775 0.0
O114 O 0.99266 0.31948 0.34791 0.0
O115 O 0.99284 0.2935 0.36137 0.0
O116 O 0.02247 0.36214 0.32631 0.0
O117 O 0.02846 0.29927 0.32406 0.0
O118 O 0.02952 0.32662 0.31263 0.0
C119 C 0.98338 0.30255 0.35714 0.0
C120 C 0.05269 0.34394 0.37299 0.0
O121 O 0.04431 0.35061 0.36086 0.0
O122 O 0.04658 0.32516 0.37257 0.0
C123 C 0.01435 0.37048 0.33604 0.0
O124 O 0.00514 0.3627 0.35358 0.0
C125 C 0.03112 0.31122 0.30947 0.0
Zn126 Zn 0.70748 0.98039 0.37027 0.0
Zn127 Zn 0.67385 0.9763 0.34917 0.0
O128 O 0.69121 0.00618 0.35826 0.0
O129 O 0.71925 0.01093 0.37424 0.0
O130 O 0.65029 0.97626 0.33457 0.0
O131 O 0.71373 0.9705 0.34332 0.0
O132 O 0.68697 0.96812 0.32675 0.0
C133 C 0.70854 0.01796 0.3675 0.0
C134 C 0.66788 0.95195 0.38846 0.0
O135 O 0.6607 0.95636 0.37275 0.0
O136 O 0.68725 0.96028 0.39122 0.0
C137 C 0.63131 0.96236 0.33532 0.0
O138 O 0.62603 0.94566 0.34537 0.0
C139 C 0.70285 0.96663 0.32675 0.0
Zn140 Zn 0.006 0.71834 0.37074 0.0
Zn141 Zn 0.01288 0.69223 0.34844 0.0
O142 O 0.98249 0.67439 0.35557 0.0
O143 O 0.97545 0.69579 0.37064 0.0
O144 O 0.01824 0.67387 0.33096 0.0
O145 O 0.01668 0.73798 0.34656 0.0
O146 O 0.02007 0.71549 0.32876 0.0
C147 C 0.9697 0.67802 0.36391 0.0
C148 C 0.03499 0.70923 0.39047 0.0
O149 O 0.03212 0.69916 0.37361 0.0
O150 O 0.02558 0.71854 0.39328 0.0
C151 C 0.00527 0.662 0.31703 0.0
O152 O 0.98781 0.66132 0.31416 0.0
C153 C 0.02121 0.73254 0.32984 0.0
Zn154 Zn 0.32168 0.37189 0.31643 0.0
Zn155 Zn 0.31968 0.33984 0.33657 0.0
O156 O 0.34918 0.35719 0.3266 0.0
O157 O 0.35256 0.38451 0.31233 0.0
O158 O 0.32186 0.3186 0.35212 0.0
O159 O 0.31222 0.37868 0.34323 0.0
O160 O 0.31158 0.35319 0.3589 0.0
C161 C 0.36025 0.37411 0.31776 0.0
C162 C 0.29298 0.33119 0.29765 0.0
O163 O 0.29825 0.3247 0.31321 0.0
O164 O 0.30094 0.35018 0.29536 0.0
C165 C 0.32985 0.30975 0.3431 0.0
O166 O 0.33417 0.31315 0.32332 0.0
C167 C 0.30927 0.36837 0.35942 0.0
Zn168 Zn 0.29779 0.01648 0.65431 0.0
Zn169 Zn 0.32848 0.01743 0.67679 0.0
O170 O 0.30888 0.98674 0.66982 0.0
O171 O 0.28474 0.98636 0.65001 0.0
O172 O 0.35273 0.01922 0.69204 0.0
O173 O 0.29102 0.02709 0.67995 0.0
O174 O 0.31629 0.02789 0.69799 0.0
C175 C 0.29227 0.97705 0.65878 0.0
C176 C 0.33678 0.04187 0.63645 0.0
O177 O 0.34288 0.03649 0.6523 0.0
O178 O 0.31781 0.03535 0.63351 0.0
C179 C 0.3616 0.01098 0.68357 0.0
O180 O 0.35399 0.00095 0.66577 0.0
C181 C 0.30125 0.03069 0.69691 0.0
Zn182 Zn 0.99007 0.28533 0.66514 0.0
Zn183 Zn 0.9887 0.31663 0.68239 0.0
O184 O 0.01934 0.33052 0.67467 0.0
O185 O 0.0206 0.30475 0.66142 0.0
O186 O 0.98567 0.33898 0.69459 0.0
O187 O 0.98026 0.27029 0.69207 0.0
O188 O 0.97963 0.29613 0.70601 0.0
C189 C 0.02956 0.32344 0.66666 0.0
C190 C 0.96213 0.29342 0.64329 0.0
O191 O 0.96818 0.30706 0.65762 0.0
O192 O 0.9694 0.28198 0.64268 0.0
C193 C 0.99299 0.35592 0.68564 0.0
O194 O 0.00398 0.35929 0.66898 0.0
C195 C 0.97689 0.27842 0.70747 0.0
Zn196 Zn 0.68479 0.63729 0.69094 0.0
Zn197 Zn 0.68144 0.66708 0.67339 0.0
O198 O 0.65306 0.64702 0.68549 0.0
O199 O 0.6548 0.62162 0.69816 0.0
O200 O 0.6749 0.68645 0.65965 0.0
O201 O 0.69332 0.63183 0.6633 0.0
O202 O 0.69047 0.6561 0.64916 0.0
C203 C 0.64452 0.62986 0.6943 0.0
C204 C 0.71199 0.6779 0.70956 0.0
O205 O 0.70448 0.68376 0.69541 0.0
O206 O 0.70583 0.65918 0.71098 0.0
C207 C 0.67807 0.70293 0.66791 0.0
O208 O 0.68808 0.70927 0.68595 0.0
C209 C 0.6946 0.64215 0.6476 0.0
Zn210 Zn 0.37029 0.31757 0.70479 0.0
Zn211 Zn 0.33842 0.31699 0.68369 0.0
O212 O 0.35707 0.34591 0.69545 0.0
O213 O 0.38403 0.34803 0.71116 0.0
O214 O 0.31744 0.32083 0.66847 0.0
O215 O 0.37651 0.30822 0.67752 0.0
O216 O 0.35102 0.30838 0.66102 0.0
C217 C 0.37424 0.35634 0.70541 0.0
C218 C 0.32906 0.28991 0.72107 0.0
O219 O 0.32276 0.29559 0.70563 0.0
O220 O 0.34823 0.29715 0.72416 0.0
C221 C 0.30449 0.32272 0.67888 0.0
O222 O 0.30373 0.31993 0.69904 0.0
C223 C 0.3661 0.30561 0.66088 0.0
Zn224 Zn 0.70498 0.0714 0.69601 0.0
Zn225 Zn 0.6908 0.03335 0.67857 0.0
O226 O 0.66535 0.03027 0.69149 0.0
O227 O 0.67555 0.0601 0.70627 0.0
O228 O 0.67974 0.00604 0.66447 0.0
O229 O 0.7112 0.08297 0.66684 0.0
O230 O 0.70043 0.05235 0.65393 0.0
C231 C 0.66134 0.04185 0.70183 0.0
C232 C 0.72556 0.05109 0.71172 0.0
O233 O 0.71265 0.03652 0.69966 0.0
O234 O 0.72601 0.06774 0.71267 0.0
C235 C 0.66694 0.98947 0.67303 0.0
O236 O 0.66179 0.99008 0.6923 0.0
C237 C 0.70768 0.07122 0.65127 0.0
Zn238 Zn 0.99042 0.71335 0.65641 0.0
Zn239 Zn 0.98346 0.67852 0.67485 0.0
O240 O 0.01366 0.69399 0.66714 0.0
O241 O 0.021 0.72309 0.65384 0.0
O242 O 0.98219 0.65448 0.68809 0.0
O243 O 0.98086 0.71973 0.68343 0.0
O244 O 0.97619 0.69197 0.69789 0.0
C245 C 0.0266 0.71098 0.65937 0.0
C246 C 0.95994 0.6753 0.63459 0.0
O247 O 0.9633 0.66706 0.64993 0.0
O248 O 0.96961 0.69457 0.63353 0.0
C249 C 0.96967 0.6358 0.68334 0.0
O250 O 0.95449 0.63073 0.6698 0.0
C251 C 0.9759 0.7083 0.69903 0.0
C252 C 0.2108 0.28267 0.00983 0.0
C253 C 0.21523 0.29477 0.03032 0.0
C254 C 0.19798 0.28367 0.06332 0.0
C255 C 0.20366 0.30296 0.07139 0.0
C256 C 0.19264 0.30496 0.08749 0.0
C257 C 0.17542 0.28729 0.09548 0.0
C258 C 0.17026 0.26778 0.08805 0.0
C259 C 0.18189 0.26624 0.07225 0.0
C260 C 0.19897 0.326 0.09541 0.0
C261 C 0.15195 0.24862 0.09616 0.0
C262 C 0.06877 0.33501 0.05383 0.0
C263 C 0.08541 0.33552 0.06684 0.0
C264 C 0.09468 0.31218 0.08149 0.0
C265 C 0.08803 0.2918 0.08478 0.0
C266 C 0.10063 0.28644 0.09552 0.0
C267 C 0.12039 0.30194 0.10315 0.0
C268 C 0.12723 0.32263 0.09996 0.0
C269 C 0.11433 0.32756 0.08913 0.0
C270 C 0.09292 0.26423 0.0986 0.0
C271 C 0.14829 0.33953 0.10779 0.0
C272 C 0.09637 0.29547 0.24073 0.0
C273 C 0.09219 0.27621 0.23468 0.0
C274 C 0.1055 0.27402 0.22166 0.0
C275 C 0.12377 0.2916 0.21511 0.0
C276 C 0.12848 0.31116 0.22184 0.0
C277 C 0.11466 0.3129 0.23452 0.0
C278 C 0.09998 0.25293 0.21481 0.0
C279 C 0.14813 0.33019 0.21563 0.0
C280 C 0.2488 0.25795 0.22839 0.0
C281 C 0.24217 0.27345 0.2306 0.0
C282 C 0.20796 0.26863 0.22561 0.0
C283 C 0.18716 0.25347 0.22257 0.0
C284 C 0.17308 0.25784 0.21348 0.0
C285 C 0.17997 0.27806 0.20779 0.0
C286 C 0.20082 0.29369 0.21175 0.0
C287 C 0.21465 0.2888 0.22048 0.0
C288 C 0.15092 0.24081 0.20973 0.0
C289 C 0.20854 0.31554 0.20657 0.0
C290 C 0.16165 0.28939 0.10993 0.0
C291 C 0.14752 0.29376 0.10122 0.0
C292 C 0.13432 0.29653 0.11364 0.0
C293 C 0.13495 0.29464 0.13545 0.0
C294 C 0.12168 0.29705 0.14839 0.0
C295 C 0.12248 0.29524 0.16985 0.0
C296 C 0.13674 0.29117 0.17921 0.0
C297 C 0.13779 0.2895 0.20102 0.0
C298 C 0.1521 0.2854 0.20983 0.0
C299 C 0.16543 0.28276 0.1974 0.0
C300 C 0.1646 0.28435 0.17553 0.0
C301 C 0.17772 0.28173 0.16251 0.0
C302 C 0.1769 0.2835 0.14104 0.0
C303 C 0.16272 0.28766 0.13172 0.0
C304 C 0.14927 0.29027 0.14452 0.0
C305 C 0.15022 0.28862 0.16644 0.0
C306 C 0.06604 0.31165 0.27012 0.0
C307 C 0.07639 0.31027 0.25131 0.0
O308 O 0.2073 0.28138 0.04661 0.0
O309 O 0.22106 0.26322 0.23342 0.0
O310 O 0.08292 0.29665 0.25327 0.0
O311 O 0.08176 0.31631 0.07086 0.0
H312 H 0.20694 0.30306 0.02881 0.0
H313 H 0.19384 0.27262 0.00711 0.0
H314 H 0.21754 0.27296 0.01015 0.0
H315 H 0.21724 0.29321 0.99661 0.0
H316 H 0.21652 0.31652 0.06498 0.0
H317 H 0.17782 0.25141 0.06609 0.0
H318 H 0.18778 0.3299 0.08933 0.0
H319 H 0.21463 0.33779 0.09036 0.0
H320 H 0.19875 0.32645 0.11268 0.0
H321 H 0.14967 0.23463 0.08835 0.0
H322 H 0.1377 0.24904 0.09377 0.0
H323 H 0.15412 0.24771 0.11314 0.0
H324 H 0.09018 0.34558 0.08107 0.0
H325 H 0.05504 0.3189 0.05394 0.0
H326 H 0.08367 0.34918 0.02654 0.0
H327 H 0.06168 0.34135 0.0643 0.0
H328 H 0.07288 0.28004 0.0788 0.0
H329 H 0.11978 0.34342 0.08659 0.0
H330 H 0.09323 0.26138 0.11546 0.0
H331 H 0.10333 0.26029 0.09087 0.0
H332 H 0.07695 0.25401 0.0922 0.0
H333 H 0.1511 0.35489 0.10463 0.0
H334 H 0.1604 0.338 0.10022 0.0
H335 H 0.1499 0.33826 0.12483 0.0
H336 H 0.08796 0.32517 0.24465 0.0
H337 H 0.07821 0.26286 0.2399 0.0
H338 H 0.11842 0.32783 0.23994 0.0
H339 H 0.10034 0.25196 0.19758 0.0
H340 H 0.08445 0.24093 0.21994 0.0
H341 H 0.11159 0.24982 0.22138 0.0
H342 H 0.15029 0.34413 0.22341 0.0
H343 H 0.14782 0.33188 0.19853 0.0
H344 H 0.16166 0.32891 0.21959 0.0
H345 H 0.24591 0.28156 0.21557 0.0
H346 H 0.26574 0.26592 0.22628 0.0
H347 H 0.24087 0.24787 0.21451 0.0
H348 H 0.24473 0.24826 0.24225 0.0
H349 H 0.18209 0.23801 0.22684 0.0
H350 H 0.23061 0.30078 0.22334 0.0
H351 H 0.14605 0.24063 0.1933 0.0
H352 H 0.14081 0.24344 0.21978 0.0
H353 H 0.14848 0.22565 0.21322 0.0
H354 H 0.22452 0.3262 0.21271 0.0
H355 H 0.19818 0.3202 0.21305 0.0
H356 H 0.20836 0.31697 0.18941 0.0
H357 H 0.14694 0.29526 0.08448 0.0
H358 H 0.11048 0.3003 0.14206 0.0
H359 H 0.11182 0.29717 0.17901 0.0
H360 H 0.15279 0.28412 0.22658 0.0
H361 H 0.18884 0.27834 0.16878 0.0
H362 H 0.18748 0.2815 0.1318 0.0
H363 H 0.0355 0.2997 0.25969 0.0
H364 H 0.07624 0.32784 0.2761 0.0
H365 H 0.07031 0.30489 0.28327 0.0
C366 C 0.72052 0.95513 0.06649 0.0
C367 C 0.70351 0.936 0.05466 0.0
C368 C 0.69666 0.90854 0.07865 0.0
C369 C 0.6823 0.8945 0.09229 0.0
C370 C 0.68632 0.88144 0.10352 0.0
C371 C 0.70542 0.88273 0.10129 0.0
C372 C 0.72008 0.8969 0.08752 0.0
C373 C 0.7155 0.90955 0.07619 0.0
C374 C 0.67007 0.86618 0.11769 0.0
C375 C 0.74058 0.89865 0.08478 0.0
C376 C 0.6691 0.72727 0.06045 0.0
C377 C 0.67115 0.74317 0.07544 0.0
C378 C 0.69204 0.78009 0.0815 0.0
C379 C 0.71101 0.7979 0.07807 0.0
C380 C 0.7164 0.81646 0.08794 0.0
C381 C 0.70224 0.81722 0.10126 0.0
C382 C 0.6827 0.79939 0.10425 0.0
C383 C 0.67793 0.78097 0.09459 0.0
C384 C 0.73734 0.83516 0.08442 0.0
C385 C 0.66693 0.7997 0.11788 0.0
C386 C 0.71252 0.79198 0.23246 0.0
C387 C 0.73284 0.80877 0.23157 0.0
C388 C 0.73706 0.82639 0.22109 0.0
C389 C 0.72056 0.82725 0.21175 0.0
C390 C 0.70002 0.81049 0.21325 0.0
C391 C 0.69638 0.79292 0.2232 0.0
C392 C 0.7591 0.84392 0.21967 0.0
C393 C 0.68183 0.81097 0.20422 0.0
C394 C 0.74264 0.97797 0.23752 0.0
C395 C 0.72997 0.95624 0.24545 0.0
C396 C 0.73821 0.93073 0.23478 0.0
C397 C 0.75502 0.92964 0.22834 0.0
C398 C 0.75211 0.91273 0.21682 0.0
C399 C 0.73181 0.89638 0.21191 0.0
C400 C 0.71469 0.89702 0.21906 0.0
C401 C 0.71806 0.91419 0.23049 0.0
C402 C 0.77069 0.91237 0.20977 0.0
C403 C 0.69286 0.87954 0.21464 0.0
C404 C 0.7097 0.86877 0.11287 0.0
C405 C 0.70599 0.85108 0.10244 0.0
C406 C 0.70806 0.8364 0.11276 0.0
C407 C 0.71398 0.83935 0.1341 0.0
C408 C 0.71612 0.82484 0.14497 0.0
C409 C 0.72015 0.82696 0.16632 0.0
C410 C 0.72241 0.84378 0.17757 0.0
C411 C 0.72456 0.8451 0.19951 0.0
C412 C 0.72791 0.86251 0.21017 0.0
C413 C 0.72853 0.87851 0.19951 0.0
C414 C 0.72517 0.87691 0.17763 0.0
C415 C 0.7246 0.89217 0.16647 0.0
C416 C 0.71991 0.88975 0.14517 0.0
C417 C 0.7158 0.87205 0.1342 0.0
C418 C 0.71749 0.85705 0.14493 0.0
C419 C 0.72195 0.85938 0.16669 0.0
C420 C 0.70567 0.75551 0.27194 0.0
C421 C 0.71908 0.77258 0.25804 0.0
O422 O 0.69162 0.92072 0.06838 0.0
O423 O 0.74212 0.94776 0.24543 0.0
O424 O 0.70771 0.7746 0.24222 0.0
O425 O 0.68797 0.7625 0.07191 0.0
H426 H 0.71077 0.93054 0.04364 0.0
H427 H 0.7312 0.95188 0.07506 0.0
H428 H 0.71375 0.96071 0.07793 0.0
H429 H 0.72975 0.96743 0.0554 0.0
H430 H 0.6678 0.89376 0.09404 0.0
H431 H 0.72675 0.92014 0.06555 0.0
H432 H 0.66705 0.8507 0.11425 0.0
H433 H 0.65529 0.86573 0.11608 0.0
H434 H 0.67573 0.8702 0.13412 0.0
H435 H 0.75109 0.91167 0.07498 0.0
H436 H 0.73798 0.8844 0.07735 0.0
H437 H 0.7483 0.90055 0.1002 0.0
H438 H 0.66986 0.73908 0.09217 0.0
H439 H 0.68436 0.73398 0.05255 0.0
H440 H 0.64135 0.71804 0.04416 0.0
H441 H 0.67143 0.71658 0.07017 0.0
H442 H 0.72176 0.79712 0.06788 0.0
H443 H 0.66313 0.76735 0.09735 0.0
H444 H 0.73541 0.84693 0.07686 0.0
H445 H 0.74701 0.8318 0.07445 0.0
H446 H 0.74563 0.84169 0.09959 0.0
H447 H 0.65143 0.78559 0.11585 0.0
H448 H 0.66559 0.81302 0.11437 0.0
H449 H 0.67196 0.80115 0.13446 0.0
H450 H 0.73303 0.77298 0.25241 0.0
H451 H 0.74542 0.808 0.23865 0.0
H452 H 0.68076 0.77988 0.22414 0.0
H453 H 0.76286 0.84793 0.20313 0.0
H454 H 0.7703 0.84036 0.22655 0.0
H455 H 0.761 0.85752 0.22796 0.0
H456 H 0.66696 0.79879 0.21051 0.0
H457 H 0.68106 0.80867 0.18707 0.0
H458 H 0.68353 0.82594 0.2075 0.0
H459 H 0.71649 0.94779 0.23444 0.0
H460 H 0.73321 0.98509 0.23722 0.0
H461 H 0.74758 0.97767 0.22143 0.0
H462 H 0.75666 0.98748 0.24758 0.0
H463 H 0.7705 0.94233 0.23208 0.0
H464 H 0.70496 0.91447 0.23628 0.0
H465 H 0.76999 0.91048 0.19256 0.0
H466 H 0.77054 0.89912 0.2165 0.0
H467 H 0.78547 0.9265 0.21447 0.0
H468 H 0.68123 0.88209 0.22183 0.0
H469 H 0.69093 0.86522 0.22063 0.0
H470 H 0.68975 0.87738 0.19757 0.0
H471 H 0.70086 0.84845 0.08621 0.0
H472 H 0.71426 0.81144 0.13718 0.0
H473 H 0.7212 0.81511 0.17395 0.0
H474 H 0.72944 0.86338 0.22703 0.0
H475 H 0.72733 0.90597 0.17416 0.0
H476 H 0.71928 0.9018 0.13743 0.0
H477 H 0.7107 0.74426 0.26984 0.0
H478 H 0.69037 0.74564 0.2634 0.0
H479 H 0.70844 0.77017 0.30057 0.0
C480 C 0.19747 0.91957 0.02685 0.0
C481 C 0.21366 0.93207 0.04411 0.0
C482 C 0.19708 0.91126 0.07489 0.0
C483 C 0.18154 0.91577 0.07682 0.0
C484 C 0.16583 0.90558 0.09123 0.0
C485 C 0.16569 0.89065 0.1039 0.0
C486 C 0.18177 0.88667 0.10251 0.0
C487 C 0.19731 0.89715 0.08809 0.0
C488 C 0.14905 0.91034 0.09255 0.0
C489 C 0.18213 0.87081 0.1157 0.0
C490 C 0.05997 0.78987 0.02148 0.0
C491 C 0.06735 0.78457 0.04135 0.0
C492 C 0.07051 0.80039 0.0752 0.0
C493 C 0.08675 0.799 0.08382 0.0
C494 C 0.09999 0.81293 0.09936 0.0
C495 C 0.09702 0.82868 0.1062 0.0
C496 C 0.07973 0.82918 0.09857 0.0
C497 C 0.06647 0.81474 0.08334 0.0
C498 C 0.11788 0.81152 0.10754 0.0
C499 C 0.07609 0.84575 0.10547 0.0
C500 C 0.0662 0.81269 0.24383 0.0
C501 C 0.08176 0.80931 0.23767 0.0
C502 C 0.09795 0.82344 0.22539 0.0
C503 C 0.09852 0.84125 0.21916 0.0
C504 C 0.08313 0.84491 0.22582 0.0
C505 C 0.06728 0.83065 0.2383 0.0
C506 C 0.11449 0.8194 0.21915 0.0
C507 C 0.08339 0.86383 0.21966 0.0
C508 C 0.23009 0.98644 0.25044 0.0
C509 C 0.22389 0.96601 0.26001 0.0
C510 C 0.20325 0.93657 0.23603 0.0
C511 C 0.20323 0.9197 0.22799 0.0
C512 C 0.18546 0.90328 0.21839 0.0
C513 C 0.16747 0.90423 0.21598 0.0
C514 C 0.16737 0.92132 0.22411 0.0
C515 C 0.18526 0.93728 0.23424 0.0
C516 C 0.18606 0.88507 0.21064 0.0
C517 C 0.14851 0.92287 0.22174 0.0
C518 C 0.14766 0.87757 0.11688 0.0
C519 C 0.13067 0.86074 0.10702 0.0
C520 C 0.11382 0.8464 0.11824 0.0
C521 C 0.11379 0.84887 0.14008 0.0
C522 C 0.09735 0.83453 0.15197 0.0
C523 C 0.09769 0.83702 0.17352 0.0
C524 C 0.11459 0.85383 0.18399 0.0
C525 C 0.11537 0.85622 0.20593 0.0
C526 C 0.13258 0.87295 0.21582 0.0
C527 C 0.14908 0.8876 0.2044 0.0
C528 C 0.14843 0.88566 0.18243 0.0
C529 C 0.16461 0.90029 0.17041 0.0
C530 C 0.16433 0.89776 0.14892 0.0
C531 C 0.14775 0.88064 0.1386 0.0
C532 C 0.13085 0.8661 0.15028 0.0
C533 C 0.13124 0.86858 0.17224 0.0
C534 C 0.01814 0.77145 0.24252 0.0
C535 C 0.03911 0.77823 0.25288 0.0
O536 O 0.21194 0.91971 0.06041 0.0
O537 O 0.22122 0.95209 0.24456 0.0
O538 O 0.05031 0.79926 0.2556 0.0
O539 O 0.05916 0.78872 0.05844 0.0
H540 H 0.21141 0.94434 0.04999 0.0
H541 H 0.18163 0.91301 0.03267 0.0
H542 H 0.19912 0.90686 0.02117 0.0
H543 H 0.1993 0.92944 0.01359 0.0
H544 H 0.18132 0.92691 0.06697 0.0
H545 H 0.20947 0.89393 0.08661 0.0
H546 H 0.13428 0.89711 0.08629 0.0
H547 H 0.15264 0.92399 0.08359 0.0
H548 H 0.14672 0.91289 0.10905 0.0
H549 H 0.19558 0.86934 0.11251 0.0
H550 H 0.16774 0.85576 0.11277 0.0
H551 H 0.18274 0.87487 0.13244 0.0
H552 H 0.0845 0.79469 0.04179 0.0
H553 H 0.06615 0.78641 0.00757 0.0
H554 H 0.06563 0.80639 0.02175 0.0
H555 H 0.04283 0.78119 0.02013 0.0
H556 H 0.08942 0.78738 0.07798 0.0
H557 H 0.05365 0.81544 0.07677 0.0
H558 H 0.12004 0.81452 0.12463 0.0
H559 H 0.13224 0.82325 0.1001 0.0
H560 H 0.11563 0.79634 0.10408 0.0
H561 H 0.06156 0.84359 0.0986 0.0
H562 H 0.08922 0.86079 0.10084 0.0
H563 H 0.07536 0.84609 0.12269 0.0
H564 H 0.04705 0.77326 0.24219 0.0
H565 H 0.0815 0.79586 0.24274 0.0
H566 H 0.05539 0.83326 0.24346 0.0
H567 H 0.11411 0.81757 0.20196 0.0
H568 H 0.11252 0.80546 0.22628 0.0
H569 H 0.12997 0.83261 0.22385 0.0
H570 H 0.06964 0.86386 0.2251 0.0
H571 H 0.08396 0.86513 0.20247 0.0
H572 H 0.0975 0.8775 0.22638 0.0
H573 H 0.20923 0.96032 0.26838 0.0
H574 H 0.21773 0.9845 0.23944 0.0
H575 H 0.23236 0.99765 0.26283 0.0
H576 H 0.24462 0.99258 0.24179 0.0
H577 H 0.21725 0.91937 0.22943 0.0
H578 H 0.18529 0.95048 0.24016 0.0
H579 H 0.1868 0.88527 0.19341 0.0
H580 H 0.17184 0.87067 0.21489 0.0
H581 H 0.19971 0.88508 0.21705 0.0
H582 H 0.15148 0.93788 0.22729 0.0
H583 H 0.13578 0.91075 0.23078 0.0
H584 H 0.14321 0.92042 0.20516 0.0
H585 H 0.13079 0.85847 0.09033 0.0
H586 H 0.08408 0.8212 0.14473 0.0
H587 H 0.0846 0.82549 0.18189 0.0
H588 H 0.13326 0.87445 0.23267 0.0
H589 H 0.17779 0.91379 0.17751 0.0
H590 H 0.17731 0.90936 0.14047 0.0
H591 H 0.00932 0.77614 0.25218 0.0
H592 H 0.00893 0.75462 0.24017 0.0
H593 H 0.02045 0.77853 0.22707 0.0
C594 C 0.33039 0.12158 0.99225 0.0
C595 C 0.31625 0.10159 0.98006 0.0
C596 C 0.31363 0.11327 0.94569 0.0
C597 C 0.29295 0.10797 0.94492 0.0
C598 C 0.28645 0.1178 0.9314 0.0
C599 C 0.30096 0.13329 0.91851 0.0
C600 C 0.32169 0.1382 0.91883 0.0
C601 C 0.32765 0.12784 0.93221 0.0
C602 C 0.26413 0.11183 0.93108 0.0
C603 C 0.33765 0.15474 0.90545 0.0
C604 C 0.2653 0.24091 0.95719 0.0
C605 C 0.28496 0.24166 0.96454 0.0
C606 C 0.29348 0.22443 0.93775 0.0
C607 C 0.30897 0.22738 0.92434 0.0
C608 C 0.30799 0.21092 0.91375 0.0
C609 C 0.29063 0.19104 0.91615 0.0
C610 C 0.27472 0.18792 0.92951 0.0
C611 C 0.27639 0.20463 0.94036 0.0
C612 C 0.32557 0.21483 0.90008 0.0
C613 C 0.25593 0.16694 0.93229 0.0
C614 C 0.26223 0.20221 0.78369 0.0
C615 C 0.28229 0.20832 0.79066 0.0
C616 C 0.28618 0.19477 0.8011 0.0
C617 C 0.26955 0.17482 0.80506 0.0
C618 C 0.24944 0.1684 0.79734 0.0
C619 C 0.24612 0.18214 0.78645 0.0
C620 C 0.30803 0.20192 0.80817 0.0
C621 C 0.23138 0.1472 0.80103 0.0
C622 C 0.2671 0.03795 0.78743 0.0
C623 C 0.27264 0.05344 0.77024 0.0
C624 C 0.28457 0.08687 0.78692 0.0
C625 C 0.30174 0.10655 0.79001 0.0
C626 C 0.30002 0.12184 0.79991 0.0
C627 C 0.28058 0.1172 0.80699 0.0
C628 C 0.26306 0.09736 0.80381 0.0
C629 C 0.26522 0.08234 0.79388 0.0
C630 C 0.31901 0.14286 0.8031 0.0
C631 C 0.24214 0.09198 0.81128 0.0
C632 C 0.29478 0.14524 0.90577 0.0
C633 C 0.29448 0.16126 0.91572 0.0
C634 C 0.28928 0.17353 0.9048 0.0
C635 C 0.28406 0.16975 0.88332 0.0
C636 C 0.27822 0.18149 0.87199 0.0
C637 C 0.27425 0.1784 0.85062 0.0
C638 C 0.276 0.16349 0.83976 0.0
C639 C 0.27314 0.16099 0.81785 0.0
C640 C 0.27456 0.1457 0.80766 0.0
C641 C 0.27883 0.13281 0.81876 0.0
C642 C 0.28202 0.13525 0.8406 0.0
C643 C 0.28654 0.12264 0.85219 0.0
C644 C 0.29038 0.12563 0.87359 0.0
C645 C 0.29 0.14144 0.88419 0.0
C646 C 0.28484 0.15392 0.8729 0.0
C647 C 0.28083 0.1508 0.85109 0.0
C648 C 0.25057 0.2413 0.78054 0.0
C649 C 0.26715 0.23582 0.77996 0.0
O650 O 0.32048 0.10445 0.95903 0.0
O651 O 0.28754 0.07282 0.77746 0.0
O652 O 0.25793 0.21535 0.77447 0.0
O653 O 0.29564 0.24113 0.9476 0.0
H654 H 0.29998 0.09699 0.98259 0.0
H655 H 0.32757 0.13354 0.98683 0.0
H656 H 0.34688 0.12687 0.98994 0.0
H657 H 0.32722 0.11951 0.00914 0.0
H658 H 0.2818 0.09604 0.95465 0.0
H659 H 0.34351 0.13157 0.93272 0.0
H660 H 0.26304 0.12453 0.93779 0.0
H661 H 0.2543 0.09795 0.94014 0.0
H662 H 0.25794 0.10906 0.91479 0.0
H663 H 0.35336 0.15754 0.90845 0.0
H664 H 0.33809 0.16918 0.90835 0.0
H665 H 0.33337 0.15039 0.88877 0.0
H666 H 0.28063 0.22838 0.97449 0.0
H667 H 0.25682 0.24149 0.9708 0.0
H668 H 0.25489 0.22659 0.94818 0.0
H669 H 0.26914 0.25394 0.94705 0.0
H670 H 0.32207 0.24271 0.92244 0.0
H671 H 0.26419 0.20207 0.9506 0.0
H672 H 0.32039 0.21274 0.8835 0.0
H673 H 0.33037 0.20378 0.90329 0.0
H674 H 0.33921 0.23053 0.9024 0.0
H675 H 0.24383 0.16739 0.94125 0.0
H676 H 0.26055 0.15742 0.94071 0.0
H677 H 0.24921 0.15943 0.91688 0.0
H678 H 0.27369 0.23854 0.79616 0.0
H679 H 0.29494 0.22364 0.78791 0.0
H680 H 0.23074 0.1775 0.78073 0.0
H681 H 0.30963 0.20462 0.82528 0.0
H682 H 0.31952 0.21633 0.80072 0.0
H683 H 0.31172 0.1901 0.80456 0.0
H684 H 0.21648 0.14508 0.79538 0.0
H685 H 0.23038 0.14398 0.8179 0.0
H686 H 0.23374 0.13587 0.79285 0.0
H687 H 0.2584 0.05312 0.76526 0.0
H688 H 0.2554 0.02238 0.78144 0.0
H689 H 0.26046 0.04165 0.80074 0.0
H690 H 0.28096 0.03802 0.79324 0.0
H691 H 0.31659 0.10988 0.78466 0.0
H692 H 0.25179 0.06712 0.79196 0.0
H693 H 0.32226 0.14653 0.82003 0.0
H694 H 0.31625 0.15437 0.79621 0.0
H695 H 0.33285 0.1442 0.79602 0.0
H696 H 0.22984 0.07607 0.80693 0.0
H697 H 0.23788 0.10253 0.80461 0.0
H698 H 0.2428 0.09389 0.82848 0.0
H699 H 0.29866 0.16441 0.93217 0.0
H700 H 0.27685 0.19334 0.87948 0.0
H701 H 0.27 0.18802 0.8427 0.0
H702 H 0.27254 0.14394 0.79085 0.0
H703 H 0.28734 0.1104 0.84482 0.0
H704 H 0.2939 0.11556 0.88168 0.0
H705 H 0.25768 0.25773 0.78465 0.0
H706 H 0.23916 0.23223 0.79251 0.0
H707 H 0.2422 0.23796 0.76526 0.0
C708 C 0.79031 0.05429 0.00739 0.0
C709 C 0.7843 0.06214 0.9885 0.0
C710 C 0.79777 0.06756 0.95374 0.0
C711 C 0.79176 0.08087 0.94678 0.0
C712 C 0.80274 0.09495 0.93135 0.0
C713 C 0.82031 0.09595 0.92302 0.0
C714 C 0.8255 0.08155 0.92895 0.0
C715 C 0.81386 0.06725 0.94405 0.0
C716 C 0.79636 0.10964 0.92496 0.0
C717 C 0.84417 0.08222 0.92047 0.0
C718 C 0.91918 0.20347 0.00442 0.0
C719 C 0.9257 0.21819 0.98635 0.0
C720 C 0.89879 0.19881 0.95892 0.0
C721 C 0.90528 0.18548 0.95307 0.0
C722 C 0.89408 0.17002 0.9379 0.0
C723 C 0.87598 0.16773 0.92856 0.0
C724 C 0.86964 0.18133 0.93415 0.0
C725 C 0.88123 0.19677 0.94918 0.0
C726 C 0.90129 0.15579 0.93217 0.0
C727 C 0.85031 0.17921 0.92467 0.0
C728 C 0.91422 0.20733 0.7966 0.0
C729 C 0.91917 0.19401 0.80604 0.0
C730 C 0.90394 0.17622 0.81548 0.0
C731 C 0.88345 0.17188 0.81604 0.0
C732 C 0.87843 0.18531 0.80678 0.0
C733 C 0.8939 0.20282 0.7971 0.0
C734 C 0.90983 0.16211 0.82498 0.0
C735 C 0.85678 0.18123 0.80725 0.0
C736 C 0.7755 0.01531 0.75737 0.0
C737 C 0.77739 0.03481 0.76594 0.0
C738 C 0.8074 0.06554 0.78161 0.0
C739 C 0.82816 0.07351 0.78688 0.0
C740 C 0.83882 0.08995 0.8011 0.0
C741 C 0.8286 0.09918 0.80964 0.0
C742 C 0.80763 0.09145 0.80398 0.0
C743 C 0.79711 0.07443 0.79031 0.0
C744 C 0.86111 0.09756 0.80673 0.0
C745 C 0.79646 0.1014 0.81201 0.0
C746 C 0.83524 0.11426 0.91153 0.0
C747 C 0.84852 0.13173 0.92356 0.0
C748 C 0.86268 0.15001 0.91441 0.0
C749 C 0.86375 0.15108 0.89252 0.0
C750 C 0.8777 0.16932 0.8828 0.0
C751 C 0.87869 0.17021 0.86123 0.0
C752 C 0.86597 0.15281 0.84857 0.0
C753 C 0.86742 0.15344 0.82667 0.0
C754 C 0.85446 0.13593 0.81451 0.0
C755 C 0.84031 0.11749 0.82362 0.0
C756 C 0.83872 0.11651 0.84556 0.0
C757 C 0.82484 0.09823 0.85537 0.0
C758 C 0.82341 0.09749 0.87697 0.0
C759 C 0.83622 0.11486 0.88959 0.0
C760 C 0.8505 0.1334 0.88005 0.0
C761 C 0.85163 0.13427 0.85803 0.0
C762 C 0.96251 0.24374 0.80247 0.0
C763 C 0.94892 0.23131 0.78356 0.0
O764 O 0.78903 0.05566 0.97041 0.0
O765 O 0.79816 0.04982 0.76748 0.0
O766 O 0.92839 0.2246 0.78696 0.0
O767 O 0.90861 0.2136 0.97397 0.0
H768 H 0.79393 0.07911 0.98994 0.0
H769 H 0.80721 0.06059 0.00763 0.0
H770 H 0.7822 0.03741 0.00689 0.0
H771 H 0.78649 0.05927 0.02202 0.0
H772 H 0.77885 0.08067 0.95381 0.0
H773 H 0.81816 0.05668 0.94935 0.0
H774 H 0.80695 0.12471 0.93265 0.0
H775 H 0.78033 0.10436 0.92951 0.0
H776 H 0.79749 0.11172 0.90786 0.0
H777 H 0.84561 0.06943 0.92598 0.0
H778 H 0.85836 0.09682 0.92538 0.0
H779 H 0.8433 0.08163 0.9032 0.0
H780 H 0.93709 0.21701 0.97685 0.0
H781 H 0.91216 0.18757 0.9984 0.0
H782 H 0.90767 0.20435 0.014 0.0
H783 H 0.93284 0.20723 0.01445 0.0
H784 H 0.91882 0.18679 0.96042 0.0
H785 H 0.87638 0.20714 0.95376 0.0
H786 H 0.89 0.14026 0.93756 0.0
H787 H 0.91671 0.16077 0.93924 0.0
H788 H 0.90204 0.1548 0.91499 0.0
H789 H 0.84755 0.19113 0.93061 0.0
H790 H 0.83674 0.16401 0.92814 0.0
H791 H 0.85147 0.18023 0.90749 0.0
H792 H 0.95066 0.21803 0.78103 0.0
H793 H 0.93483 0.19732 0.80629 0.0
H794 H 0.8902 0.21317 0.78989 0.0
H795 H 0.90912 0.16277 0.84218 0.0
H796 H 0.92568 0.16625 0.82094 0.0
H797 H 0.89877 0.14613 0.81968 0.0
H798 H 0.85563 0.19373 0.80034 0.0
H799 H 0.8516 0.17924 0.82356 0.0
H800 H 0.84607 0.16682 0.79847 0.0
H801 H 0.77087 0.03149 0.7818 0.0
H802 H 0.75913 0.00248 0.75693 0.0
H803 H 0.78451 0.01104 0.76754 0.0
H804 H 0.78159 0.01764 0.74139 0.0
H805 H 0.83597 0.06662 0.77993 0.0
H806 H 0.7811 0.06853 0.78598 0.0
H807 H 0.86402 0.10047 0.82378 0.0
H808 H 0.87123 0.11217 0.7989 0.0
H809 H 0.86556 0.08658 0.8018 0.0
H810 H 0.78116 0.09524 0.80406 0.0
H811 H 0.80591 0.11812 0.80984 0.0
H812 H 0.79405 0.09882 0.82894 0.0
H813 H 0.84771 0.13112 0.94042 0.0
H814 H 0.88799 0.18313 0.89178 0.0
H815 H 0.88967 0.18471 0.85461 0.0
H816 H 0.85589 0.1365 0.79773 0.0
H817 H 0.81486 0.0843 0.84645 0.0
H818 H 0.81233 0.08309 0.8837 0.0
H819 H 0.97898 0.24937 0.79955 0.0
H820 H 0.95794 0.23408 0.81639 0.0
H821 H 0.96092 0.25696 0.80595 0.0
C822 C 0.78366 0.70463 0.99423 0.0
C823 C 0.77031 0.70196 0.97484 0.0
C824 C 0.79151 0.70001 0.94717 0.0
C825 C 0.80783 0.72051 0.94812 0.0
C826 C 0.82562 0.72702 0.93645 0.0
C827 C 0.82699 0.7128 0.92358 0.0
C828 C 0.8103 0.69229 0.92222 0.0
C829 C 0.79276 0.68625 0.93397 0.0
C830 C 0.84304 0.74903 0.93798 0.0
C831 C 0.81111 0.67665 0.90863 0.0
C832 C 0.93349 0.72053 0.00164 0.0
C833 C 0.92642 0.7028 0.986 0.0
C834 C 0.92037 0.71295 0.95259 0.0
C835 C 0.90238 0.69598 0.94415 0.0
C836 C 0.88932 0.6984 0.93045 0.0
C837 C 0.89424 0.71829 0.92549 0.0
C838 C 0.91269 0.73546 0.93375 0.0
C839 C 0.92575 0.73253 0.94694 0.0
C840 C 0.86999 0.67969 0.92176 0.0
C841 C 0.91826 0.75687 0.92917 0.0
C842 C 0.93636 0.74118 0.79128 0.0
C843 C 0.91936 0.72164 0.79498 0.0
C844 C 0.90265 0.71914 0.80638 0.0
C845 C 0.90292 0.73653 0.81408 0.0
C846 C 0.91977 0.75623 0.80987 0.0
C847 C 0.93621 0.75827 0.79835 0.0
C848 C 0.88462 0.69792 0.81007 0.0
C849 C 0.92042 0.77509 0.81758 0.0
C850 C 0.7714 0.74364 0.78394 0.0
C851 C 0.77747 0.73166 0.76978 0.0
C852 C 0.799 0.72279 0.79098 0.0
C853 C 0.79947 0.70612 0.79836 0.0
C854 C 0.81693 0.70866 0.80894 0.0
C855 C 0.8342 0.72855 0.8128 0.0
C856 C 0.834 0.74557 0.80513 0.0
C857 C 0.81641 0.74252 0.79412 0.0
C858 C 0.81672 0.69003 0.81625 0.0
C859 C 0.8522 0.76695 0.80898 0.0
C860 C 0.84621 0.7189 0.91235 0.0
C861 C 0.86188 0.71819 0.92316 0.0
C862 C 0.87927 0.72101 0.91306 0.0
C863 C 0.8813 0.72493 0.8915 0.0
C864 C 0.89832 0.7274 0.88067 0.0
C865 C 0.89991 0.73082 0.85936 0.0
C866 C 0.88435 0.73152 0.84798 0.0
C867 C 0.88538 0.73415 0.82618 0.0
C868 C 0.86921 0.73393 0.81527 0.0
C869 C 0.85201 0.73136 0.82555 0.0
C870 C 0.85106 0.72944 0.84743 0.0
C871 C 0.83423 0.72738 0.85832 0.0
C872 C 0.83278 0.72427 0.87964 0.0
C873 C 0.84812 0.72315 0.8909 0.0
C874 C 0.86563 0.72599 0.8804 0.0
C875 C 0.86712 0.72918 0.85862 0.0
C876 C 0.98289 0.74449 0.7916 0.0
C877 C 0.96155 0.73232 0.7808 0.0
O878 O 0.7743 0.69261 0.95864 0.0
O879 O 0.78117 0.71892 0.78152 0.0
O880 O 0.95284 0.7442 0.78041 0.0
O881 O 0.9326 0.71063 0.96634 0.0
H882 H 0.77366 0.71715 0.96991 0.0
H883 H 0.77973 0.7114 0.00733 0.0
H884 H 0.78119 0.68975 0.99903 0.0
H885 H 0.80029 0.715 0.99115 0.0
H886 H 0.80688 0.73143 0.95796 0.0
H887 H 0.77999 0.67053 0.93321 0.0
H888 H 0.8569 0.75004 0.94524 0.0
H889 H 0.83901 0.75856 0.94739 0.0
H890 H 0.8472 0.75536 0.92216 0.0
H891 H 0.79728 0.66111 0.91018 0.0
H892 H 0.82509 0.67623 0.91273 0.0
H893 H 0.81218 0.68097 0.89209 0.0
H894 H 0.90925 0.69296 0.98625 0.0
H895 H 0.9284 0.71483 0.01753 0.0
H896 H 0.92665 0.72963 0.99715 0.0
H897 H 0.9506 0.73065 0.00194 0.0
H898 H 0.89857 0.68087 0.9484 0.0
H899 H 0.93983 0.7455 0.95353 0.0
H900 H 0.86771 0.68134 0.90495 0.0
H901 H 0.85644 0.6778 0.93002 0.0
H902 H 0.87044 0.66566 0.92379 0.0
H903 H 0.93245 0.76855 0.93789 0.0
H904 H 0.90532 0.75887 0.93328 0.0
H905 H 0.92078 0.75958 0.91227 0.0
H906 H 0.95226 0.71851 0.79017 0.0
H907 H 0.91888 0.70833 0.78868 0.0
H908 H 0.94923 0.77329 0.79506 0.0
H909 H 0.88277 0.69534 0.82706 0.0
H910 H 0.88657 0.68596 0.80276 0.0
H911 H 0.87016 0.69631 0.80371 0.0
H912 H 0.9349 0.78932 0.81349 0.0
H913 H 0.91902 0.77474 0.83477 0.0
H914 H 0.90708 0.77538 0.81076 0.0
H915 H 0.79158 0.74243 0.76125 0.0
H916 H 0.76837 0.75384 0.77455 0.0
H917 H 0.78407 0.75321 0.79542 0.0
H918 H 0.75731 0.73309 0.79256 0.0
H919 H 0.78596 0.69097 0.79577 0.0
H920 H 0.81623 0.75556 0.78847 0.0
H921 H 0.81535 0.68917 0.83341 0.0
H922 H 0.83137 0.69104 0.8124 0.0
H923 H 0.8036 0.67573 0.80916 0.0
H924 H 0.8493 0.77864 0.80285 0.0
H925 H 0.86599 0.76865 0.80143 0.0
H926 H 0.85584 0.76985 0.82595 0.0
H927 H 0.86016 0.71463 0.93956 0.0
H928 H 0.91057 0.72665 0.88856 0.0
H929 H 0.91336 0.7326 0.85185 0.0
H930 H 0.86977 0.73525 0.79847 0.0
H931 H 0.82188 0.72797 0.85043 0.0
H932 H 0.81938 0.72257 0.88718 0.0
H933 H 0.99017 0.73524 0.79219 0.0
H934 H 0.98136 0.74857 0.80781 0.0
H935 H 0.99315 0.75876 0.78326 0.0
C936 C 0.87892 0.59541 0.35081 0.0
C937 C 0.88306 0.61242 0.36636 0.0
C938 C 0.86728 0.60993 0.39957 0.0
C939 C 0.87292 0.63031 0.40224 0.0
C940 C 0.86205 0.63561 0.41563 0.0
C941 C 0.84486 0.62013 0.42618 0.0
C942 C 0.8394 0.59958 0.42377 0.0
C943 C 0.85106 0.59485 0.41087 0.0
C944 C 0.86876 0.65774 0.41818 0.0
C945 C 0.82088 0.58249 0.43425 0.0
C946 C 0.73742 0.67397 0.38746 0.0
C947 C 0.75376 0.67327 0.3998 0.0
C948 C 0.76724 0.65112 0.40524 0.0
C949 C 0.76195 0.63084 0.40487 0.0
C950 C 0.77442 0.62502 0.4151 0.0
C951 C 0.79294 0.64005 0.42547 0.0
C952 C 0.79897 0.66079 0.4249 0.0
C953 C 0.78592 0.66609 0.41507 0.0
C954 C 0.76755 0.60278 0.41533 0.0
C955 C 0.81903 0.67736 0.43505 0.0
C956 C 0.75537 0.63489 0.5571 0.0
C957 C 0.75078 0.61634 0.54772 0.0
C958 C 0.7662 0.61459 0.53815 0.0
C959 C 0.7865 0.63185 0.5374 0.0
C960 C 0.79117 0.65053 0.54674 0.0
C961 C 0.77553 0.65176 0.55655 0.0
C962 C 0.76069 0.59435 0.52849 0.0
C963 C 0.81259 0.66928 0.54602 0.0
C964 C 0.91369 0.60373 0.56483 0.0
C965 C 0.90761 0.61965 0.56677 0.0
C966 C 0.87325 0.61413 0.56101 0.0
C967 C 0.85277 0.59829 0.55755 0.0
C968 C 0.83864 0.6015 0.54663 0.0
C969 C 0.84513 0.62121 0.53949 0.0
C970 C 0.86555 0.63756 0.544 0.0
C971 C 0.87944 0.63383 0.55462 0.0
C972 C 0.81692 0.58375 0.5423 0.0
C973 C 0.87277 0.65892 0.53729 0.0
C974 C 0.8318 0.62525 0.43849 0.0
C975 C 0.81874 0.6298 0.42752 0.0
C976 C 0.80546 0.63408 0.43791 0.0
C977 C 0.80461 0.63319 0.45985 0.0
C978 C 0.79062 0.63635 0.4707 0.0
C979 C 0.78996 0.63559 0.49227 0.0
C980 C 0.80326 0.63165 0.50387 0.0
C981 C 0.80244 0.63053 0.5258 0.0
C982 C 0.81631 0.62724 0.53695 0.0
C983 C 0.83081 0.62458 0.52671 0.0
C984 C 0.83138 0.62496 0.5047 0.0
C985 C 0.84532 0.62172 0.49382 0.0
C986 C 0.84563 0.62199 0.47216 0.0
C987 C 0.83196 0.62538 0.46053 0.0
C988 C 0.81807 0.62907 0.4712 0.0
C989 C 0.81761 0.62861 0.49328 0.0
C990 C 0.70666 0.62002 0.55154 0.0
C991 C 0.72059 0.62248 0.57028 0.0
O992 O 0.87691 0.60434 0.38591 0.0
O993 O 0.88663 0.60984 0.57034 0.0
O994 O 0.74096 0.63732 0.56665 0.0
O995 O 0.75394 0.65563 0.39613 0.0
H996 H 0.87328 0.61834 0.36078 0.0
H997 H 0.86209 0.58387 0.34978 0.0
H998 H 0.88705 0.58763 0.35569 0.0
H999 H 0.88403 0.6017 0.33509 0.0
H1000 H 0.8858 0.6421 0.39391 0.0
H1001 H 0.84695 0.57919 0.40879 0.0
H1002 H 0.85777 0.66044 0.40939 0.0
H1003 H 0.88447 0.66809 0.41223 0.0
H1004 H 0.86861 0.66172 0.43481 0.0
H1005 H 0.81678 0.56726 0.42809 0.0
H1006 H 0.80727 0.58403 0.43216 0.0
H1007 H 0.82429 0.5832 0.45121 0.0
H1008 H 0.7546 0.6771 0.41674 0.0
H1009 H 0.72632 0.65804 0.3812 0.0
H1010 H 0.75427 0.69878 0.36817 0.0
H1011 H 0.72654 0.67355 0.39936 0.0
H1012 H 0.74762 0.61944 0.39706 0.0
H1013 H 0.7904 0.68192 0.41514 0.0
H1014 H 0.77898 0.60052 0.40728 0.0
H1015 H 0.75216 0.59286 0.40754 0.0
H1016 H 0.76685 0.59789 0.43163 0.0
H1017 H 0.82311 0.6928 0.43025 0.0
H1018 H 0.83184 0.67513 0.43107 0.0
H1019 H 0.81764 0.67664 0.45222 0.0
H1020 H 0.71921 0.60759 0.57277 0.0
H1021 H 0.73524 0.60316 0.54752 0.0
H1022 H 0.77895 0.66603 0.56373 0.0
H1023 H 0.76112 0.59545 0.51128 0.0
H1024 H 0.74504 0.58182 0.53271 0.0
H1025 H 0.77214 0.59036 0.53349 0.0
H1026 H 0.81359 0.68283 0.5535 0.0
H1027 H 0.81728 0.67273 0.5296 0.0
H1028 H 0.82379 0.66637 0.55407 0.0
H1029 H 0.91098 0.6272 0.55146 0.0
H1030 H 0.93052 0.61128 0.56218 0.0
H1031 H 0.90516 0.59322 0.55139 0.0
H1032 H 0.90989 0.59456 0.57909 0.0
H1033 H 0.84808 0.5832 0.56282 0.0
H1034 H 0.89509 0.64632 0.55792 0.0
H1035 H 0.81336 0.58206 0.52529 0.0
H1036 H 0.80577 0.58672 0.54991 0.0
H1037 H 0.81459 0.56919 0.54805 0.0
H1038 H 0.88831 0.6703 0.54398 0.0
H1039 H 0.86163 0.66324 0.54209 0.0
H1040 H 0.87346 0.65952 0.52006 0.0
H1041 H 0.81896 0.63009 0.41065 0.0
H1042 H 0.77991 0.63933 0.46264 0.0
H1043 H 0.77889 0.63818 0.49973 0.0
H1044 H 0.81567 0.62652 0.55379 0.0
H1045 H 0.85609 0.61886 0.50192 0.0
H1046 H 0.85673 0.61947 0.46463 0.0
H1047 H 0.69029 0.60844 0.5547 0.0
H1048 H 0.71118 0.61483 0.53758 0.0
H1049 H 0.70793 0.63467 0.54797 0.0
C1050 C 0.38573 0.29392 0.40596 0.0
C1051 C 0.36918 0.27575 0.39264 0.0
C1052 C 0.35951 0.24632 0.41475 0.0
C1053 C 0.34385 0.23152 0.42681 0.0
C1054 C 0.34637 0.21714 0.43736 0.0
C1055 C 0.36523 0.21781 0.436 0.0
C1056 C 0.38117 0.23268 0.42377 0.0
C1057 C 0.37813 0.24672 0.41315 0.0
C1058 C 0.3289 0.20127 0.44999 0.0
C1059 C 0.40146 0.23378 0.42201 0.0
C1060 C 0.34964 0.07522 0.37799 0.0
C1061 C 0.35925 0.09651 0.38636 0.0
C1062 C 0.35169 0.11678 0.40987 0.0
C1063 C 0.37191 0.13401 0.41051 0.0
C1064 C 0.37681 0.15155 0.42221 0.0
C1065 C 0.36123 0.1519 0.43347 0.0
C1066 C 0.34088 0.13462 0.43284 0.0
C1067 C 0.33642 0.11726 0.42107 0.0
C1068 C 0.39867 0.16972 0.42264 0.0
C1069 C 0.32388 0.13449 0.44465 0.0
C1070 C 0.38052 0.1259 0.56134 0.0
C1071 C 0.4 0.1437 0.55926 0.0
C1072 C 0.40175 0.16113 0.55049 0.0
C1073 C 0.38366 0.16075 0.54411 0.0
C1074 C 0.36402 0.14317 0.54734 0.0
C1075 C 0.36277 0.12586 0.55551 0.0
C1076 C 0.4229 0.17967 0.54734 0.0
C1077 C 0.3443 0.14237 0.54153 0.0
C1078 C 0.4013 0.30838 0.56964 0.0
C1079 C 0.38858 0.28785 0.58014 0.0
C1080 C 0.39654 0.26202 0.57016 0.0
C1081 C 0.41356 0.26131 0.5637 0.0
C1082 C 0.41097 0.24471 0.55181 0.0
C1083 C 0.39079 0.22824 0.54665 0.0
C1084 C 0.37348 0.22848 0.55388 0.0
C1085 C 0.37653 0.24538 0.56559 0.0
C1086 C 0.42977 0.24484 0.54459 0.0
C1087 C 0.35176 0.21087 0.54924 0.0
C1088 C 0.3682 0.20283 0.44725 0.0
C1089 C 0.3644 0.18541 0.43623 0.0
C1090 C 0.36618 0.17032 0.44599 0.0
C1091 C 0.37186 0.17256 0.46737 0.0
C1092 C 0.3738 0.15767 0.47766 0.0
C1093 C 0.37859 0.15962 0.49887 0.0
C1094 C 0.38149 0.17646 0.51066 0.0
C1095 C 0.38508 0.17791 0.53247 0.0
C1096 C 0.38829 0.19502 0.54367 0.0
C1097 C 0.38781 0.21077 0.53369 0.0
C1098 C 0.38381 0.20938 0.51193 0.0
C1099 C 0.38292 0.22478 0.50139 0.0
C1100 C 0.37807 0.22281 0.48016 0.0
C1101 C 0.37398 0.2054 0.46863 0.0
C1102 C 0.37555 0.19006 0.47877 0.0
C1103 C 0.38044 0.19205 0.50044 0.0
C1104 C 0.40454 0.10044 0.56601 0.0
C1105 C 0.39129 0.10503 0.57991 0.0
O1106 O 0.35596 0.25984 0.40515 0.0
O1107 O 0.40007 0.27868 0.58128 0.0
O1108 O 0.37797 0.10812 0.56789 0.0
O1109 O 0.3463 0.09948 0.39874 0.0
H1110 H 0.37689 0.27056 0.38192 0.0
H1111 H 0.39542 0.28967 0.41493 0.0
H1112 H 0.37852 0.29923 0.41717 0.0
H1113 H 0.39602 0.30674 0.39583 0.0
H1114 H 0.32953 0.23127 0.42792 0.0
H1115 H 0.39042 0.25793 0.40379 0.0
H1116 H 0.32526 0.18581 0.44528 0.0
H1117 H 0.31467 0.20182 0.44814 0.0
H1118 H 0.33367 0.2037 0.46672 0.0
H1119 H 0.41282 0.24705 0.41298 0.0
H1120 H 0.39878 0.21963 0.41424 0.0
H1121 H 0.40822 0.23482 0.43777 0.0
H1122 H 0.36714 0.10859 0.3746 0.0
H1123 H 0.34869 0.07642 0.36061 0.0
H1124 H 0.33248 0.06757 0.38007 0.0
H1125 H 0.36738 0.06503 0.3922 0.0
H1126 H 0.38396 0.13387 0.40198 0.0
H1127 H 0.32089 0.10393 0.42052 0.0
H1128 H 0.3988 0.18318 0.41654 0.0
H1129 H 0.40912 0.16699 0.41325 0.0
H1130 H 0.40481 0.17349 0.43895 0.0
H1131 H 0.30877 0.12 0.44222 0.0
H1132 H 0.32226 0.14731 0.43967 0.0
H1133 H 0.32796 0.13677 0.46156 0.0
H1134 H 0.40165 0.11891 0.58969 0.0
H1135 H 0.41384 0.14385 0.56374 0.0
H1136 H 0.34783 0.11205 0.5573 0.0
H1137 H 0.4248 0.18351 0.5306 0.0
H1138 H 0.43549 0.17736 0.55258 0.0
H1139 H 0.42449 0.19291 0.55612 0.0
H1140 H 0.33065 0.12941 0.54881 0.0
H1141 H 0.34178 0.14053 0.52438 0.0
H1142 H 0.34535 0.15677 0.54633 0.0
H1143 H 0.37436 0.27856 0.57025 0.0
H1144 H 0.39235 0.31599 0.56844 0.0
H1145 H 0.40511 0.306 0.55367 0.0
H1146 H 0.41596 0.31855 0.57857 0.0
H1147 H 0.42894 0.27405 0.56767 0.0
H1148 H 0.36329 0.24538 0.57144 0.0
H1149 H 0.429 0.24292 0.52738 0.0
H1150 H 0.43002 0.23178 0.55131 0.0
H1151 H 0.44439 0.25915 0.54922 0.0
H1152 H 0.34 0.21278 0.55712 0.0
H1153 H 0.35019 0.19642 0.55428 0.0
H1154 H 0.34849 0.20945 0.5322 0.0
H1155 H 0.35978 0.18347 0.41988 0.0
H1156 H 0.37146 0.14425 0.46947 0.0
H1157 H 0.3798 0.14762 0.50594 0.0
H1158 H 0.39076 0.1959 0.56043 0.0
H1159 H 0.38573 0.23842 0.5095 0.0
H1160 H 0.3774 0.23505 0.47292 0.0
H1161 H 0.41498 0.09766 0.57574 0.0
H1162 H 0.4142 0.11358 0.556 0.0
H1163 H 0.39473 0.08684 0.55577 0.0
C1164 C 0.88315 0.25426 0.35962 0.0
C1165 C 0.89651 0.26333 0.3796 0.0
C1166 C 0.87494 0.23751 0.4052 0.0
C1167 C 0.85956 0.24232 0.40649 0.0
C1168 C 0.84189 0.23039 0.4182 0.0
C1169 C 0.83958 0.21339 0.42879 0.0
C1170 C 0.85522 0.20876 0.42782 0.0
C1171 C 0.87274 0.22099 0.41612 0.0
C1172 C 0.82557 0.23581 0.41912 0.0
C1173 C 0.85328 0.19071 0.43885 0.0
C1174 C 0.72904 0.10664 0.34213 0.0
C1175 C 0.73724 0.10438 0.3632 0.0
C1176 C 0.74216 0.124 0.39494 0.0
C1177 C 0.7577 0.122 0.40446 0.0
C1178 C 0.77123 0.13626 0.41961 0.0
C1179 C 0.76926 0.15293 0.4252 0.0
C1180 C 0.75289 0.15434 0.41645 0.0
C1181 C 0.73931 0.13961 0.40159 0.0
C1182 C 0.78815 0.13393 0.42902 0.0
C1183 C 0.75031 0.17188 0.42212 0.0
C1184 C 0.72645 0.13001 0.55705 0.0
C1185 C 0.74252 0.12645 0.55401 0.0
C1186 C 0.76064 0.1409 0.54422 0.0
C1187 C 0.76276 0.15928 0.53753 0.0
C1188 C 0.74694 0.16322 0.5413 0.0
C1189 C 0.729 0.14852 0.5511 0.0
C1190 C 0.77744 0.13645 0.5408 0.0
C1191 C 0.74884 0.1828 0.53464 0.0
C1192 C 0.90631 0.29331 0.56412 0.0
C1193 C 0.89766 0.27755 0.58129 0.0
C1194 C 0.87186 0.24531 0.56304 0.0
C1195 C 0.86805 0.2263 0.55653 0.0
C1196 C 0.84979 0.21229 0.54558 0.0
C1197 C 0.83499 0.21755 0.5409 0.0
C1198 C 0.83848 0.23662 0.54781 0.0
C1199 C 0.85691 0.25035 0.55887 0.0
C1200 C 0.84651 0.19202 0.53865 0.0
C1201 C 0.82294 0.2426 0.54305 0.0
C1202 C 0.82043 0.19984 0.44012 0.0
C1203 C 0.8036 0.18427 0.42869 0.0
C1204 C 0.7856 0.16985 0.43843 0.0
C1205 C 0.78411 0.17108 0.46023 0.0
C1206 C 0.76629 0.15676 0.47057 0.0
C1207 C 0.76519 0.1579 0.4921 0.0
C1208 C 0.78197 0.17323 0.50414 0.0
C1209 C 0.78127 0.17418 0.52609 0.0
C1210 C 0.79849 0.18917 0.53762 0.0
C1211 C 0.81649 0.20347 0.52778 0.0
C1212 C 0.81727 0.2032 0.50582 0.0
C1213 C 0.83499 0.21768 0.49543 0.0
C1214 C 0.83594 0.21683 0.47389 0.0
C1215 C 0.81927 0.20136 0.46192 0.0
C1216 C 0.80107 0.18687 0.47201 0.0
C1217 C 0.80004 0.18786 0.49399 0.0
C1218 C 0.67693 0.08405 0.56431 0.0
C1219 C 0.7004 0.09544 0.56753 0.0
O1220 O 0.89201 0.24808 0.39357 0.0
O1221 O 0.89028 0.25821 0.57293 0.0
O1222 O 0.70831 0.11612 0.56563 0.0
O1223 O 0.7302 0.11152 0.37886 0.0
H1224 H 0.89356 0.27467 0.38687 0.0
H1225 H 0.86652 0.24682 0.36304 0.0
H1226 H 0.88574 0.24268 0.35236 0.0
H1227 H 0.88698 0.26644 0.3483 0.0
H1228 H 0.8611 0.25519 0.39833 0.0
H1229 H 0.88473 0.21748 0.41513 0.0
H1230 H 0.81104 0.22344 0.41148 0.0
H1231 H 0.8303 0.25034 0.41131 0.0
H1232 H 0.82217 0.23715 0.4356 0.0
H1233 H 0.86644 0.18872 0.43585 0.0
H1234 H 0.83872 0.17657 0.43374 0.0
H1235 H 0.85256 0.19268 0.45589 0.0
H1236 H 0.75438 0.11415 0.36254 0.0
H1237 H 0.73427 0.10073 0.32937 0.0
H1238 H 0.73503 0.12299 0.33945 0.0
H1239 H 0.71189 0.09828 0.34162 0.0
H1240 H 0.75947 0.1095 0.39984 0.0
H1241 H 0.72706 0.14083 0.39433 0.0
H1242 H 0.78918 0.1364 0.44616 0.0
H1243 H 0.80318 0.14563 0.42264 0.0
H1244 H 0.78566 0.11865 0.42552 0.0
H1245 H 0.73654 0.17056 0.41424 0.0
H1246 H 0.76426 0.18645 0.41774 0.0
H1247 H 0.74881 0.17256 0.43921 0.0
H1248 H 0.70624 0.0899 0.55496 0.0
H1249 H 0.74104 0.11248 0.55923 0.0
H1250 H 0.71663 0.15124 0.55379 0.0
H1251 H 0.7802 0.13649 0.52389 0.0
H1252 H 0.77351 0.12149 0.54703 0.0
H1253 H 0.79208 0.1486 0.54846 0.0
H1254 H 0.73542 0.18381 0.53926 0.0
H1255 H 0.75011 0.18394 0.51746 0.0
H1256 H 0.76317 0.19603 0.54165 0.0
H1257 H 0.88494 0.27793 0.58905 0.0
H1258 H 0.91239 0.30884 0.57086 0.0
H1259 H 0.89401 0.29006 0.55238 0.0
H1260 H 0.91896 0.29302 0.55611 0.0
H1261 H 0.87965 0.22255 0.5599 0.0
H1262 H 0.85957 0.26499 0.56387 0.0
H1263 H 0.84634 0.19112 0.52138 0.0
H1264 H 0.83131 0.17942 0.54382 0.0
H1265 H 0.85879 0.18966 0.54486 0.0
H1266 H 0.82775 0.25785 0.54976 0.0
H1267 H 0.80774 0.23114 0.54933 0.0
H1268 H 0.82082 0.24276 0.52592 0.0
H1269 H 0.80476 0.18301 0.412 0.0
H1270 H 0.75302 0.14451 0.46211 0.0
H1271 H 0.75109 0.14645 0.49922 0.0
H1272 H 0.79804 0.18946 0.55448 0.0
H1273 H 0.84838 0.22983 0.50385 0.0
H1274 H 0.84999 0.22833 0.46674 0.0
H1275 H 0.66997 0.08897 0.57625 0.0
H1276 H 0.67009 0.06733 0.56528 0.0
H1277 H 0.67301 0.08725 0.54866 0.0
C1278 C 0.03688 0.46277 0.3216 0.0
C1279 C 0.01972 0.44507 0.30843 0.0
C1280 C 0.01752 0.45872 0.27531 0.0
C1281 C 0.99669 0.45282 0.27392 0.0
C1282 C 0.99041 0.46354 0.26151 0.0
C1283 C 0.00531 0.48053 0.2504 0.0
C1284 C 0.02628 0.48621 0.25145 0.0
C1285 C 0.03203 0.47495 0.26365 0.0
C1286 C 0.96787 0.4568 0.26036 0.0
C1287 C 0.04264 0.50435 0.23999 0.0
C1288 C 0.0096 0.61774 0.30209 0.0
C1289 C 0.014 0.60298 0.29213 0.0
C1290 C 0.99583 0.56917 0.27535 0.0
C1291 C 0.01344 0.57157 0.26585 0.0
C1292 C 0.01226 0.55578 0.25373 0.0
C1293 C 0.99314 0.53709 0.25121 0.0
C1294 C 0.97539 0.53456 0.26075 0.0
C1295 C 0.97695 0.55074 0.27261 0.0
C1296 C 0.03151 0.55901 0.2437 0.0
C1297 C 0.95485 0.51475 0.25847 0.0
C1298 C 0.95582 0.54699 0.12382 0.0
C1299 C 0.97712 0.55546 0.1272 0.0
C1300 C 0.98466 0.54366 0.13515 0.0
C1301 C 0.97057 0.52307 0.14003 0.0
C1302 C 0.94923 0.51422 0.13549 0.0
C1303 C 0.94216 0.52629 0.1272 0.0
C1304 C 0.00759 0.55338 0.13905 0.0
C1305 C 0.9338 0.49224 0.14018 0.0
C1306 C 0.0214 0.41468 0.13945 0.0
C1307 C 0.00539 0.41539 0.12532 0.0
C1308 C 0.00626 0.4475 0.12367 0.0
C1309 C 0.02053 0.46839 0.12603 0.0
C1310 C 0.01448 0.48161 0.13335 0.0
C1311 C 0.99357 0.47364 0.13818 0.0
C1312 C 0.97872 0.45282 0.13396 0.0
C1313 C 0.98521 0.43993 0.12663 0.0
C1314 C 0.03063 0.50386 0.13711 0.0
C1315 C 0.95622 0.444 0.13833 0.0
C1316 C 0.99908 0.49283 0.23838 0.0
C1317 C 0.99736 0.50761 0.24927 0.0
C1318 C 0.99208 0.52014 0.239 0.0
C1319 C 0.9878 0.51759 0.21731 0.0
C1320 C 0.98173 0.52946 0.20663 0.0
C1321 C 0.97798 0.52711 0.18519 0.0
C1322 C 0.9808 0.51326 0.17351 0.0
C1323 C 0.97785 0.51134 0.15158 0.0
C1324 C 0.98175 0.4981 0.14039 0.0
C1325 C 0.98802 0.48628 0.15064 0.0
C1326 C 0.99004 0.48727 0.17262 0.0
C1327 C 0.99541 0.47489 0.18346 0.0
C1328 C 0.99787 0.47631 0.20502 0.0
C1329 C 0.99561 0.49055 0.21656 0.0
C1330 C 0.98993 0.50297 0.206 0.0
C1331 C 0.98682 0.5011 0.18403 0.0
C1332 C 0.93902 0.58201 0.1297 0.0
C1333 C 0.95623 0.57879 0.12274 0.0
O1334 O 0.02394 0.44881 0.28751 0.0
O1335 O 0.01342 0.43518 0.11882 0.0
O1336 O 0.94791 0.55836 0.11766 0.0
O1337 O 0.99642 0.58422 0.28714 0.0
H1338 H 0.00496 0.44404 0.31199 0.0
H1339 H 0.03763 0.47713 0.31777 0.0
H1340 H 0.05211 0.46471 0.31851 0.0
H1341 H 0.03372 0.46 0.33843 0.0
H1342 H 0.98535 0.43974 0.28237 0.0
H1343 H 0.04803 0.47915 0.26466 0.0
H1344 H 0.96587 0.46872 0.26771 0.0
H1345 H 0.95797 0.44223 0.26837 0.0
H1346 H 0.96249 0.45493 0.24384 0.0
H1347 H 0.05843 0.50764 0.24367 0.0
H1348 H 0.04207 0.51807 0.24403 0.0
H1349 H 0.03962 0.50148 0.22296 0.0
H1350 H 0.02627 0.60153 0.30017 0.0
H1351 H 0.01649 0.62041 0.31833 0.0
H1352 H 0.99311 0.60871 0.30721 0.0
H1353 H 0.01997 0.641 0.28044 0.0
H1354 H 0.02819 0.58573 0.26782 0.0
H1355 H 0.96345 0.54902 0.27995 0.0
H1356 H 0.02863 0.55571 0.2267 0.0
H1357 H 0.03556 0.54827 0.25023 0.0
H1358 H 0.04493 0.5748 0.24622 0.0
H1359 H 0.94252 0.51512 0.26706 0.0
H1360 H 0.95633 0.5021 0.26435 0.0
H1361 H 0.9501 0.51138 0.24175 0.0
H1362 H 0.96701 0.58333 0.13651 0.0
H1363 H 0.98787 0.57131 0.12384 0.0
H1364 H 0.92579 0.51981 0.12417 0.0
H1365 H 0.01104 0.55534 0.15607 0.0
H1366 H 0.01665 0.56854 0.13185 0.0
H1367 H 0.01275 0.54335 0.1328 0.0
H1368 H 0.91774 0.4876 0.13558 0.0
H1369 H 0.93444 0.48979 0.1571 0.0
H1370 H 0.93784 0.48221 0.13179 0.0
H1371 H 0.99179 0.41037 0.1352 0.0
H1372 H 0.01568 0.39875 0.14396 0.0
H1373 H 0.02415 0.42397 0.15385 0.0
H1374 H 0.03639 0.42093 0.13167 0.0
H1375 H 0.03664 0.47417 0.12313 0.0
H1376 H 0.97387 0.42396 0.1236 0.0
H1377 H 0.03299 0.50727 0.15413 0.0
H1378 H 0.02531 0.5135 0.13024 0.0
H1379 H 0.04569 0.5081 0.13042 0.0
H1380 H 0.9463 0.42811 0.13215 0.0
H1381 H 0.95085 0.45356 0.13134 0.0
H1382 H 0.95428 0.44407 0.1554 0.0
H1383 H 0.0007 0.50973 0.26592 0.0
H1384 H 0.9797 0.54063 0.21474 0.0
H1385 H 0.97319 0.53658 0.17788 0.0
H1386 H 0.98002 0.49709 0.12355 0.0
H1387 H 0.99774 0.46388 0.17543 0.0
H1388 H 0.00193 0.46635 0.2125 0.0
H1389 H 0.9454 0.59839 0.13344 0.0
H1390 H 0.93198 0.5732 0.14392 0.0
H1391 H 0.92664 0.57678 0.11749 0.0
C1392 C 0.45435 0.3968 0.33207 0.0
C1393 C 0.44845 0.40522 0.31358 0.0
C1394 C 0.46495 0.41391 0.28009 0.0
C1395 C 0.46102 0.42918 0.27491 0.0
C1396 C 0.47329 0.44413 0.26065 0.0
C1397 C 0.48996 0.44391 0.25159 0.0
C1398 C 0.49321 0.42785 0.2559 0.0
C1399 C 0.48039 0.41284 0.26991 0.0
C1400 C 0.46891 0.4606 0.25587 0.0
C1401 C 0.51076 0.42706 0.24643 0.0
C1402 C 0.62152 0.55712 0.31222 0.0
C1403 C 0.61479 0.56811 0.29733 0.0
C1404 C 0.58036 0.54369 0.28213 0.0
C1405 C 0.58564 0.53158 0.27062 0.0
C1406 C 0.57121 0.51616 0.25683 0.0
C1407 C 0.55135 0.51326 0.25401 0.0
C1408 C 0.54622 0.52583 0.26518 0.0
C1409 C 0.56071 0.54065 0.27935 0.0
C1410 C 0.57702 0.50261 0.24575 0.0
C1411 C 0.52528 0.52334 0.26253 0.0
C1412 C 0.57982 0.54592 0.1159 0.0
C1413 C 0.58202 0.52952 0.12109 0.0
C1414 C 0.56766 0.51387 0.1336 0.0
C1415 C 0.55044 0.51434 0.1407 0.0
C1416 C 0.5484 0.53106 0.13589 0.0
C1417 C 0.56335 0.54682 0.1238 0.0
C1418 C 0.57073 0.49664 0.13891 0.0
C1419 C 0.53022 0.53204 0.14315 0.0
C1420 C 0.41856 0.35311 0.12043 0.0
C1421 C 0.42554 0.37548 0.11771 0.0
C1422 C 0.46035 0.40568 0.12036 0.0
C1423 C 0.48094 0.41126 0.12267 0.0
C1424 C 0.49578 0.43004 0.13201 0.0
C1425 C 0.48987 0.44375 0.13865 0.0
C1426 C 0.46936 0.43883 0.13486 0.0
C1427 C 0.45475 0.41975 0.12589 0.0
C1428 C 0.51759 0.43493 0.13538 0.0
C1429 C 0.46271 0.4534 0.14101 0.0
C1430 C 0.5052 0.46158 0.23949 0.0
C1431 C 0.52056 0.47863 0.25074 0.0
C1432 C 0.5354 0.49607 0.24072 0.0
C1433 C 0.53498 0.49666 0.21874 0.0
C1434 C 0.54947 0.51406 0.20812 0.0
C1435 C 0.54929 0.51423 0.18645 0.0
C1436 C 0.53441 0.49711 0.17458 0.0
C1437 C 0.53432 0.49698 0.15255 0.0
C1438 C 0.51938 0.47959 0.14127 0.0
C1439 C 0.50453 0.46219 0.15138 0.0
C1440 C 0.50434 0.46207 0.17339 0.0
C1441 C 0.48962 0.44479 0.18407 0.0
C1442 C 0.48966 0.4447 0.20571 0.0
C1443 C 0.50468 0.46171 0.21751 0.0
C1444 C 0.51965 0.47933 0.2071 0.0
C1445 C 0.51939 0.47956 0.185 0.0
C1446 C 0.61127 0.57346 0.07073 0.0
C1447 C 0.60318 0.55759 0.08698 0.0
O1448 O 0.45459 0.40048 0.29529 0.0
O1449 O 0.44631 0.38653 0.11312 0.0
O1450 O 0.59291 0.56068 0.10284 0.0
O1451 O 0.59342 0.55798 0.2965 0.0
H1452 H 0.45721 0.42207 0.31631 0.0
H1453 H 0.47142 0.40423 0.3332 0.0
H1454 H 0.44749 0.38011 0.33031 0.0
H1455 H 0.4491 0.40006 0.34681 0.0
H1456 H 0.44857 0.42962 0.28224 0.0
H1457 H 0.48307 0.40078 0.27379 0.0
H1458 H 0.48104 0.47514 0.26351 0.0
H1459 H 0.45364 0.45689 0.26153 0.0
H1460 H 0.46936 0.46302 0.23884 0.0
H1461 H 0.51129 0.41363 0.2515 0.0
H1462 H 0.52568 0.44112 0.25087 0.0
H1463 H 0.50914 0.42644 0.2292 0.0
H1464 H 0.62081 0.56805 0.28169 0.0
H1465 H 0.61576 0.55667 0.32809 0.0
H1466 H 0.63862 0.56481 0.31286 0.0
H1467 H 0.61508 0.54116 0.30673 0.0
H1468 H 0.60074 0.53364 0.27276 0.0
H1469 H 0.55678 0.55005 0.28832 0.0
H1470 H 0.5651 0.48632 0.24805 0.0
H1471 H 0.59224 0.50545 0.2513 0.0
H1472 H 0.57774 0.50531 0.22879 0.0
H1473 H 0.52509 0.53658 0.26918 0.0
H1474 H 0.51368 0.50947 0.27062 0.0
H1475 H 0.52052 0.52137 0.24581 0.0
H1476 H 0.61447 0.55361 0.09276 0.0
H1477 H 0.59494 0.52884 0.11544 0.0
H1478 H 0.56181 0.55956 0.11979 0.0
H1479 H 0.56861 0.49351 0.15579 0.0
H1480 H 0.58628 0.49995 0.13477 0.0
H1481 H 0.55896 0.48262 0.13024 0.0
H1482 H 0.53047 0.54569 0.13745 0.0
H1483 H 0.53025 0.53237 0.16042 0.0
H1484 H 0.51559 0.51816 0.13763 0.0
H1485 H 0.42321 0.38082 0.13302 0.0
H1486 H 0.40188 0.344 0.12399 0.0
H1487 H 0.42744 0.35183 0.1336 0.0
H1488 H 0.4212 0.34658 0.10621 0.0
H1489 H 0.48517 0.40044 0.11795 0.0
H1490 H 0.43896 0.41583 0.12345 0.0
H1491 H 0.52239 0.4388 0.15205 0.0
H1492 H 0.5282 0.44843 0.12624 0.0
H1493 H 0.51936 0.42207 0.13055 0.0
H1494 H 0.44727 0.44871 0.13423 0.0
H1495 H 0.47415 0.46902 0.13593 0.0
H1496 H 0.46203 0.45399 0.15823 0.0
H1497 H 0.521 0.4783 0.26762 0.0
H1498 H 0.56123 0.52768 0.21645 0.0
H1499 H 0.56099 0.52796 0.17912 0.0
H1500 H 0.51957 0.47946 0.12439 0.0
H1501 H 0.47787 0.43108 0.17586 0.0
H1502 H 0.47792 0.43102 0.21308 0.0
H1503 H 0.62855 0.58081 0.07164 0.0
H1504 H 0.61148 0.58702 0.07774 0.0
H1505 H 0.59347 0.55754 0.04404 0.0
C1506 C 0.44206 0.00585 0.32614 0.0
C1507 C 0.42827 0.00492 0.30791 0.0
C1508 C 0.44407 0.99782 0.27842 0.0
C1509 C 0.46192 0.0174 0.27752 0.0
C1510 C 0.47796 0.02117 0.2643 0.0
C1511 C 0.47615 0.00506 0.25183 0.0
C1512 C 0.45803 0.98546 0.25236 0.0
C1513 C 0.44215 0.98217 0.26556 0.0
C1514 C 0.49704 0.04229 0.26392 0.0
C1515 C 0.45565 0.9679 0.23937 0.0
C1516 C 0.56551 0.99025 0.3252 0.0
C1517 C 0.57025 0.98143 0.30618 0.0
C1518 C 0.56632 0.99891 0.27695 0.0
C1519 C 0.54976 0.98273 0.26563 0.0
C1520 C 0.53711 0.98615 0.2524 0.0
C1521 C 0.54116 0.00617 0.2505 0.0
C1522 C 0.55844 0.02264 0.26116 0.0
C1523 C 0.571 0.01879 0.27409 0.0
C1524 C 0.51909 0.96832 0.24086 0.0
C1525 C 0.5632 0.04415 0.25942 0.0
C1526 C 0.58993 0.04455 0.12296 0.0
C1527 C 0.57339 0.02421 0.12343 0.0
C1528 C 0.55485 0.01919 0.13285 0.0
C1529 C 0.55288 0.03485 0.14195 0.0
C1530 C 0.56918 0.05542 0.14062 0.0
C1531 C 0.58745 0.06 0.13093 0.0
C1532 C 0.53749 0.99717 0.13341 0.0
C1533 C 0.56748 0.07252 0.14986 0.0
C1534 C 0.41849 0.03958 0.12936 0.0
C1535 C 0.42661 0.03585 0.10923 0.0
C1536 C 0.44918 0.02366 0.12141 0.0
C1537 C 0.4505 0.00634 0.1227 0.0
C1538 C 0.46746 0.00715 0.13261 0.0
C1539 C 0.48353 0.02583 0.14148 0.0
C1540 C 0.48261 0.04359 0.1398 0.0
C1541 C 0.46542 0.04235 0.12978 0.0
C1542 C 0.46797 0.98792 0.13403 0.0
C1543 C 0.49958 0.06374 0.14906 0.0
C1544 C 0.4938 0.00839 0.23933 0.0
C1545 C 0.50913 0.00658 0.24938 0.0
C1546 C 0.52629 0.00951 0.2388 0.0
C1547 C 0.52853 0.01475 0.21761 0.0
C1548 C 0.54586 0.01829 0.20663 0.0
C1549 C 0.54789 0.02346 0.18576 0.0
C1550 C 0.53244 0.02482 0.17495 0.0
C1551 C 0.53418 0.02974 0.15365 0.0
C1552 C 0.51819 0.03027 0.14322 0.0
C1553 C 0.50056 0.02636 0.15364 0.0
C1554 C 0.49888 0.02216 0.17511 0.0
C1555 C 0.48164 0.01883 0.1862 0.0
C1556 C 0.48005 0.01457 0.20729 0.0
C1557 C 0.49544 0.01311 0.21801 0.0
C1558 C 0.51294 0.01638 0.20714 0.0
C1559 C 0.51477 0.02116 0.18573 0.0
C1560 C 0.63804 0.05166 0.12951 0.0
C1561 C 0.61824 0.03914 0.1162 0.0
O1562 O 0.42845 0.99318 0.29151 0.0
O1563 O 0.43184 0.02135 0.11224 0.0
O1564 O 0.60834 0.04988 0.11469 0.0
O1565 O 0.57802 0.99577 0.29069 0.0
H1566 H 0.43399 0.02063 0.30259 0.0
H1567 H 0.45838 0.01339 0.32147 0.0
H1568 H 0.43704 0.99028 0.33138 0.0
H1569 H 0.44137 0.01479 0.33942 0.0
H1570 H 0.46359 0.02978 0.28716 0.0
H1571 H 0.42827 0.96716 0.26627 0.0
H1572 H 0.51048 0.04196 0.27036 0.0
H1573 H 0.49537 0.05358 0.27315 0.0
H1574 H 0.50047 0.04744 0.24762 0.0
H1575 H 0.44062 0.95355 0.24168 0.0
H1576 H 0.46833 0.96533 0.24342 0.0
H1577 H 0.45686 0.97164 0.22264 0.0
H1578 H 0.55565 0.96751 0.30067 0.0
H1579 H 0.55931 0.97899 0.33781 0.0
H1580 H 0.55372 0.99401 0.3209 0.0
H1581 H 0.57969 0.00438 0.33113 0.0
H1582 H 0.5467 0.96743 0.2671 0.0
H1583 H 0.58406 0.0312 0.28266 0.0
H1584 H 0.5193 0.9717 0.22409 0.0
H1585 H 0.50442 0.96573 0.24709 0.0
H1586 H 0.51922 0.95407 0.24237 0.0
H1587 H 0.57742 0.05533 0.26844 0.0
H1588 H 0.55004 0.04505 0.26519 0.0
H1589 H 0.56514 0.04851 0.24284 0.0
H1590 H 0.60852 0.02457 0.12431 0.0
H1591 H 0.57487 0.01226 0.11635 0.0
H1592 H 0.60016 0.07568 0.13008 0.0
H1593 H 0.53487 0.99216 0.14978 0.0
H1594 H 0.54082 0.98697 0.12429 0.0
H1595 H 0.52296 0.99548 0.12717 0.0
H1596 H 0.58161 0.08771 0.14764 0.0
H1597 H 0.56469 0.07023 0.16678 0.0
H1598 H 0.55407 0.07235 0.14254 0.0
H1599 H 0.44042 0.05033 0.10436 0.0
H1600 H 0.41409 0.05103 0.12688 0.0
H1601 H 0.43057 0.04548 0.14195 0.0
H1602 H 0.40479 0.02519 0.13455 0.0
H1603 H 0.43794 0.99203 0.11613 0.0
H1604 H 0.4647 0.05594 0.12884 0.0
H1605 H 0.4677 0.98394 0.15061 0.0
H1606 H 0.48254 0.99045 0.12756 0.0
H1607 H 0.4547 0.97481 0.12552 0.0
H1608 H 0.49705 0.07635 0.1457 0.0
H1609 H 0.51469 0.06757 0.14284 0.0
H1610 H 0.50048 0.06253 0.1662 0.0
H1611 H 0.50758 0.00264 0.26569 0.0
H1612 H 0.5581 0.01723 0.2141 0.0
H1613 H 0.56165 0.02617 0.17816 0.0
H1614 H 0.51945 0.03368 0.12679 0.0
H1615 H 0.46921 0.01958 0.17873 0.0
H1616 H 0.4665 0.01224 0.21506 0.0
H1617 H 0.64623 0.04333 0.13109 0.0
H1618 H 0.63417 0.05438 0.14532 0.0
H1619 H 0.64852 0.06665 0.12244 0.0
C1620 C 0.56439 0.99923 0.68699 0.0
C1621 C 0.57316 0.00892 0.70856 0.0
C1622 C 0.55338 0.99571 0.7399 0.0
C1623 C 0.56055 0.01429 0.75063 0.0
C1624 C 0.5487 0.01595 0.76605 0.0
C1625 C 0.52934 0.99866 0.77078 0.0
C1626 C 0.52273 0.97962 0.76093 0.0
C1627 C 0.53503 0.97835 0.74574 0.0
C1628 C 0.55646 0.03635 0.77669 0.0
C1629 C 0.50223 0.96086 0.76572 0.0
C1630 C 0.45832 0.05044 0.70129 0.0
C1631 C 0.44352 0.03181 0.71378 0.0
C1632 C 0.45598 0.03007 0.74822 0.0
C1633 C 0.44898 0.00929 0.74911 0.0
C1634 C 0.45912 0.00253 0.76202 0.0
C1635 C 0.47669 0.01692 0.77411 0.0
C1636 C 0.48329 0.03783 0.7738 0.0
C1637 C 0.47257 0.04409 0.76107 0.0
C1638 C 0.45137 0.98009 0.76233 0.0
C1639 C 0.50206 0.05361 0.78633 0.0
C1640 C 0.43844 0.00641 0.90091 0.0
C1641 C 0.43267 0.9865 0.89488 0.0
C1642 C 0.44719 0.98253 0.88667 0.0
C1643 C 0.46791 0.99873 0.88483 0.0
C1644 C 0.4741 0.01843 0.89256 0.0
C1645 C 0.45924 0.02199 0.9006 0.0
C1646 C 0.44023 0.96122 0.87912 0.0
C1647 C 0.49617 0.03594 0.89129 0.0
C1648 C 0.57472 0.94125 0.89027 0.0
C1649 C 0.57323 0.95949 0.89707 0.0
C1650 C 0.54221 0.96125 0.89665 0.0
C1651 C 0.52102 0.94856 0.89252 0.0
C1652 C 0.50937 0.9564 0.8846 0.0
C1653 C 0.51914 0.97759 0.88135 0.0
C1654 C 0.5403 0.99071 0.887 0.0
C1655 C 0.55167 0.98238 0.89442 0.0
C1656 C 0.48679 0.94195 0.87906 0.0
C1657 C 0.55105 0.01347 0.8846 0.0
C1658 C 0.51504 0.00106 0.78409 0.0
C1659 C 0.50297 0.00756 0.77449 0.0
C1660 C 0.48907 0.01027 0.78573 0.0
C1661 C 0.48717 0.00656 0.80729 0.0
C1662 C 0.47331 0.00909 0.81906 0.0
C1663 C 0.47173 0.00563 0.84031 0.0
C1664 C 0.48382 0.9993 0.8506 0.0
C1665 C 0.48228 0.99574 0.87222 0.0
C1666 C 0.49417 0.98903 0.88191 0.0
C1667 C 0.50766 0.98571 0.87049 0.0
C1668 C 0.50961 0.98948 0.84887 0.0
C1669 C 0.52308 0.98641 0.83688 0.0
C1670 C 0.52505 0.99038 0.8157 0.0
C1671 C 0.51331 0.99715 0.8056 0.0
C1672 C 0.4994 3e-05 0.81727 0.0
C1673 C 0.49766 0.99632 0.83895 0.0
C1674 C 0.40375 0.01722 0.88376 0.0
C1675 C 0.40446 0.00275 0.89939 0.0
O1676 O 0.56346 0.99421 0.72346 0.0
O1677 O 0.55309 0.95262 0.90244 0.0
O1678 O 0.42453 0.01119 0.90717 0.0
O1679 O 0.44719 0.03698 0.73484 0.0
H1680 H 0.56951 0.02103 0.71049 0.0
H1681 H 0.54761 0.99347 0.68601 0.0
H1682 H 0.56645 0.98622 0.68392 0.0
H1683 H 0.57217 0.0107 0.67475 0.0
H1684 H 0.57521 0.02757 0.74668 0.0
H1685 H 0.52985 0.96401 0.73758 0.0
H1686 H 0.54678 0.04242 0.77148 0.0
H1687 H 0.5728 0.04764 0.77314 0.0
H1688 H 0.55508 0.0346 0.79381 0.0
H1689 H 0.49962 0.94707 0.75716 0.0
H1690 H 0.48953 0.96333 0.76146 0.0
H1691 H 0.50146 0.95806 0.78267 0.0
H1692 H 0.44685 0.01974 0.70994 0.0
H1693 H 0.4558 0.04663 0.68434 0.0
H1694 H 0.47454 0.05544 0.70557 0.0
H1695 H 0.45602 0.06327 0.70457 0.0
H1696 H 0.4357 0.99842 0.73957 0.0
H1697 H 0.47765 0.06008 0.76039 0.0
H1698 H 0.4501 0.97503 0.77864 0.0
H1699 H 0.4626 0.97731 0.75458 0.0
H1700 H 0.43609 0.97066 0.75419 0.0
H1701 H 0.50561 0.06933 0.78378 0.0
H1702 H 0.5157 0.05281 0.7821 0.0
H1703 H 0.49955 0.0504 0.80315 0.0
H1704 H 0.39913 0.98839 0.89039 0.0
H1705 H 0.41687 0.97403 0.89636 0.0
H1706 H 0.46365 0.03718 0.90586 0.0
H1707 H 0.44196 0.9611 0.86201 0.0
H1708 H 0.42386 0.95006 0.88272 0.0
H1709 H 0.45015 0.95627 0.8864 0.0
H1710 H 0.49901 0.04966 0.90017 0.0
H1711 H 0.49983 0.04 0.87475 0.0
H1712 H 0.50687 0.03139 0.89736 0.0
H1713 H 0.57729 0.96923 0.88317 0.0
H1714 H 0.59083 0.94641 0.88614 0.0
H1715 H 0.56451 0.93359 0.87633 0.0
H1716 H 0.56981 0.92996 0.9028 0.0
H1717 H 0.51381 0.93232 0.89466 0.0
H1718 H 0.56794 0.99236 0.89834 0.0
H1719 H 0.48364 0.9437 0.86252 0.0
H1720 H 0.47732 0.94575 0.88878 0.0
H1721 H 0.48177 0.92578 0.8815 0.0
H1722 H 0.5664 0.02176 0.89278 0.0
H1723 H 0.5414 0.01915 0.89073 0.0
H1724 H 0.55331 0.01705 0.86783 0.0
H1725 H 0.50439 0.0105 0.75793 0.0
H1726 H 0.46357 0.01387 0.81199 0.0
H1727 H 0.46083 0.00796 0.84853 0.0
H1728 H 0.49274 0.98615 0.89846 0.0
H1729 H 0.53236 0.98101 0.84372 0.0
H1730 H 0.53579 0.98794 0.8073 0.0
H1731 H 0.41075 0.03286 0.89052 0.0
H1732 H 0.38754 0.01148 0.87862 0.0
H1733 H 0.41261 0.01812 0.86985 0.0
C1734 C 0.99571 0.56891 0.69201 0.0
C1735 C 0.9845 0.5722 0.7097 0.0
C1736 C 0.99565 0.56323 0.7412 0.0
C1737 C 0.97696 0.54754 0.74891 0.0
C1738 C 0.97657 0.53291 0.76194 0.0
C1739 C 0.99527 0.53401 0.76722 0.0
C1740 C 0.01421 0.55023 0.75993 0.0
C1741 C 0.01416 0.56487 0.74727 0.0
C1742 C 0.95616 0.5161 0.76982 0.0
C1743 C 0.03442 0.55179 0.76507 0.0
C1744 C 0.95102 0.40926 0.69087 0.0
C1745 C 0.96904 0.4146 0.70597 0.0
C1746 C 0.96963 0.43044 0.73933 0.0
C1747 C 0.9905 0.44617 0.74076 0.0
C1748 C 0.99699 0.46323 0.75397 0.0
C1749 C 0.98229 0.46449 0.76597 0.0
C1750 C 0.96137 0.4483 0.76506 0.0
C1751 C 0.95538 0.43131 0.75193 0.0
C1752 C 0.0195 0.48001 0.75497 0.0
C1753 C 0.94527 0.44915 0.77759 0.0
C1754 C 0.00388 0.43975 0.89642 0.0
C1755 C 0.02246 0.4545 0.88749 0.0
C1756 C 0.02403 0.47141 0.87772 0.0
C1757 C 0.00667 0.4735 0.87675 0.0
C1758 C 0.98808 0.45886 0.886 0.0
C1759 C 0.98697 0.44218 0.89573 0.0
C1760 C 0.04409 0.48685 0.86803 0.0
C1761 C 0.96928 0.46063 0.88523 0.0
C1762 C 0.04334 0.62774 0.894 0.0
C1763 C 0.03064 0.61022 0.90866 0.0
C1764 C 0.03265 0.58035 0.9 0.0
C1765 C 0.04742 0.5766 0.89238 0.0
C1766 C 0.04152 0.55849 0.88128 0.0
C1767 C 0.02029 0.54361 0.87815 0.0
C1768 C 0.00525 0.54692 0.88665 0.0
C1769 C 0.0116 0.56528 0.89752 0.0
C1770 C 0.05797 0.55534 0.87269 0.0
C1771 C 0.98251 0.53106 0.88419 0.0
C1772 C 0.99482 0.51753 0.77926 0.0
C1773 C 0.98946 0.49952 0.76845 0.0
C1774 C 0.98858 0.48321 0.77859 0.0
C1775 C 0.99334 0.48486 0.80015 0.0
C1776 C 0.99279 0.46881 0.81081 0.0
C1777 C 0.99736 0.47053 0.83206 0.0
C1778 C 0.00281 0.48845 0.84346 0.0
C1779 C 0.00754 0.49036 0.86505 0.0
C1780 C 0.01301 0.50839 0.87592 0.0
C1781 C 0.01386 0.52471 0.86577 0.0
C1782 C 0.00901 0.52304 0.84419 0.0
C1783 C 0.00953 0.53909 0.8335 0.0
C1784 C 0.00471 0.53727 0.81228 0.0
C1785 C 0.99946 0.51945 0.80087 0.0
C1786 C 0.99879 0.50306 0.81133 0.0
C1787 C 0.00353 0.50485 0.83301 0.0
C1788 C 0.01698 0.40678 0.88849 0.0
C1789 C 0.01556 0.41704 0.9084 0.0
O1790 O 0.99624 0.57707 0.72802 0.0
O1791 O 0.03932 0.59835 0.91022 0.0
O1792 O 0.00131 0.42284 0.90561 0.0
O1793 O 0.96277 0.41411 0.72619 0.0
H1794 H 0.96933 0.55777 0.7113 0.0
H1795 H 0.99775 0.55603 0.69562 0.0
H1796 H 0.0112 0.58278 0.68993 0.0
H1797 H 0.98654 0.56514 0.67719 0.0
H1798 H 0.96271 0.54678 0.74483 0.0
H1799 H 0.02851 0.57728 0.74141 0.0
H1800 H 0.95208 0.5014 0.76222 0.0
H1801 H 0.94346 0.51883 0.76651 0.0
H1802 H 0.95737 0.51458 0.78687 0.0
H1803 H 0.04759 0.56454 0.75703 0.0
H1804 H 0.03338 0.53733 0.76059 0.0
H1805 H 0.03765 0.55419 0.78211 0.0
H1806 H 0.98176 0.43022 0.70214 0.0
H1807 H 0.95571 0.40969 0.67452 0.0
H1808 H 0.94626 0.42051 0.69285 0.0
H1809 H 0.93753 0.39383 0.69385 0.0
H1810 H 0.00173 0.4451 0.73166 0.0
H1811 H 0.93936 0.4189 0.75094 0.0
H1812 H 0.02126 0.4941 0.74852 0.0
H1813 H 0.02926 0.47596 0.74607 0.0
H1814 H 0.02523 0.48345 0.77142 0.0
H1815 H 0.92954 0.43556 0.77467 0.0
H1816 H 0.94505 0.46302 0.77374 0.0
H1817 H 0.94926 0.45019 0.79445 0.0
H1818 H 0.03103 0.43066 0.91242 0.0
H1819 H 0.03571 0.45287 0.88782 0.0
H1820 H 0.97272 0.43073 0.90268 0.0
H1821 H 0.04166 0.48674 0.85093 0.0
H1822 H 0.05654 0.48371 0.87114 0.0
H1823 H 0.04925 0.50238 0.87414 0.0
H1824 H 0.95608 0.44812 0.89349 0.0
H1825 H 0.96442 0.46034 0.86877 0.0
H1826 H 0.97313 0.47544 0.89238 0.0
H1827 H 0.01472 0.60124 0.90174 0.0
H1828 H 0.03663 0.63745 0.89259 0.0
H1829 H 0.04318 0.62152 0.87827 0.0
H1830 H 0.05964 0.63731 0.89976 0.0
H1831 H 0.06363 0.58816 0.89477 0.0
H1832 H 0.0001 0.56764 0.90432 0.0
H1833 H 0.05552 0.55246 0.8556 0.0
H1834 H 0.05679 0.54171 0.8797 0.0
H1835 H 0.0738 0.56868 0.87588 0.0
H1836 H 0.9728 0.53541 0.89273 0.0
H1837 H 0.97941 0.51622 0.88994 0.0
H1838 H 0.97783 0.52883 0.86744 0.0
H1839 H 0.98582 0.49815 0.75187 0.0
H1840 H 0.98879 0.45471 0.80283 0.0
H1841 H 0.99661 0.45764 0.83943 0.0
H1842 H 0.01669 0.50974 0.89248 0.0
H1843 H 0.01361 0.55323 0.84143 0.0
H1844 H 0.00523 0.55006 0.80489 0.0
H1845 H 0.02818 0.40186 0.89092 0.0
H1846 H 0.02237 0.4176 0.8755 0.0
H1847 H 0.00167 0.39327 0.88387 0.0
C1848 C 0.54416 0.5823 0.70574 0.0
C1849 C 0.56018 0.59222 0.72374 0.0
C1850 C 0.54158 0.56835 0.75192 0.0
C1851 C 0.52706 0.57399 0.75534 0.0
C1852 C 0.51065 0.56286 0.76877 0.0
C1853 C 0.50878 0.54584 0.77894 0.0
C1854 C 0.52375 0.54055 0.77601 0.0
C1855 C 0.54002 0.55198 0.7626 0.0
C1856 C 0.49506 0.56901 0.77181 0.0
C1857 C 0.52225 0.52251 0.78663 0.0
C1858 C 0.39954 0.44942 0.6939 0.0
C1859 C 0.40603 0.44352 0.71396 0.0
C1860 C 0.41012 0.45982 0.74765 0.0
C1861 C 0.42488 0.45648 0.75683 0.0
C1862 C 0.43866 0.46982 0.77243 0.0
C1863 C 0.43774 0.48694 0.77877 0.0
C1864 C 0.42196 0.48955 0.7705 0.0
C1865 C 0.40808 0.47569 0.7552 0.0
C1866 C 0.45492 0.46622 0.78129 0.0
C1867 C 0.42055 0.50764 0.77686 0.0
C1868 C 0.39679 0.47411 0.9094 0.0
C1869 C 0.41089 0.46783 0.90668 0.0
C1870 C 0.42996 0.4807 0.89748 0.0
C1871 C 0.43491 0.50015 0.89084 0.0
C1872 C 0.42117 0.50687 0.89456 0.0
C1873 C 0.40234 0.49379 0.90401 0.0
C1874 C 0.44459 0.47336 0.89437 0.0
C1875 C 0.4261 0.52763 0.88798 0.0
C1876 C 0.59956 0.63066 0.9027 0.0
C1877 C 0.5761 0.62379 0.90634 0.0
C1878 C 0.54602 0.58921 0.90771 0.0
C1879 C 0.54123 0.5691 0.90795 0.0
C1880 C 0.52238 0.55312 0.89945 0.0
C1881 C 0.50788 0.55745 0.89095 0.0
C1882 C 0.51201 0.57759 0.89214 0.0
C1883 C 0.53109 0.5933 0.90046 0.0
C1884 C 0.51836 0.53179 0.89868 0.0
C1885 C 0.49658 0.5826 0.88386 0.0
C1886 C 0.4904 0.53267 0.7914 0.0
C1887 C 0.47289 0.5171 0.78084 0.0
C1888 C 0.4551 0.50354 0.79141 0.0
C1889 C 0.45456 0.50571 0.81322 0.0
C1890 C 0.43688 0.49251 0.82436 0.0
C1891 C 0.43651 0.49494 0.84583 0.0
C1892 C 0.45397 0.51042 0.85702 0.0
C1893 C 0.4538 0.51298 0.87886 0.0
C1894 C 0.47153 0.52832 0.88953 0.0
C1895 C 0.48949 0.54143 0.8789 0.0
C1896 C 0.48986 0.5393 0.85704 0.0
C1897 C 0.50762 0.5524 0.84585 0.0
C1898 C 0.50779 0.55036 0.82435 0.0
C1899 C 0.49031 0.53499 0.81322 0.0
C1900 C 0.47229 0.5215 0.82416 0.0
C1901 C 0.47204 0.52373 0.8461 0.0
C1902 C 0.344 0.43388 0.90815 0.0
C1903 C 0.36606 0.44057 0.91498 0.0
O1904 O 0.55718 0.57794 0.73838 0.0
O1905 O 0.56523 0.60428 0.91421 0.0
O1906 O 0.3777 0.46164 0.91701 0.0
O1907 O 0.39839 0.44858 0.73086 0.0
H1908 H 0.55881 0.60449 0.73126 0.0
H1909 H 0.52834 0.57625 0.71139 0.0
H1910 H 0.54471 0.5695 0.69838 0.0
H1911 H 0.54717 0.59373 0.69376 0.0
H1912 H 0.52827 0.58686 0.74747 0.0
H1913 H 0.55141 0.54788 0.75999 0.0
H1914 H 0.47976 0.55681 0.76536 0.0
H1915 H 0.49949 0.58349 0.76407 0.0
H1916 H 0.49332 0.57079 0.78869 0.0
H1917 H 0.53533 0.5206 0.78294 0.0
H1918 H 0.50758 0.50838 0.78173 0.0
H1919 H 0.52199 0.52436 0.80375 0.0
H1920 H 0.42324 0.45278 0.71449 0.0
H1921 H 0.40517 0.44512 0.68012 0.0
H1922 H 0.40639 0.46618 0.69395 0.0
H1923 H 0.38248 0.44186 0.69246 0.0
H1924 H 0.42598 0.44376 0.7514 0.0
H1925 H 0.39641 0.47793 0.74816 0.0
H1926 H 0.45649 0.46877 0.79844 0.0
H1927 H 0.47004 0.47722 0.77456 0.0
H1928 H 0.4513 0.45054 0.77766 0.0
H1929 H 0.40698 0.50712 0.76947 0.0
H1930 H 0.43479 0.52191 0.77241 0.0
H1931 H 0.41947 0.50822 0.79403 0.0
H1932 H 0.37212 0.43533 0.90235 0.0
H1933 H 0.40703 0.4529 0.91163 0.0
H1934 H 0.39149 0.4986 0.90654 0.0
H1935 H 0.44577 0.47114 0.87747 0.0
H1936 H 0.43942 0.45875 0.9022 0.0
H1937 H 0.46029 0.48502 0.90046 0.0
H1938 H 0.41369 0.53051 0.89186 0.0
H1939 H 0.42837 0.52903 0.87092 0.0
H1940 H 0.44075 0.5396 0.89577 0.0
H1941 H 0.56915 0.62424 0.89105 0.0
H1942 H 0.62505 0.66965 0.91275 0.0
H1943 H 0.5982 0.6246 0.88632 0.0
H1944 H 0.60177 0.61905 0.91081 0.0
H1945 H 0.55272 0.56608 0.91395 0.0
H1946 H 0.53443 0.60878 0.90105 0.0
H1947 H 0.51694 0.5266 0.8822 0.0
H1948 H 0.5035 0.52118 0.90611 0.0
H1949 H 0.53086 0.53081 0.90664 0.0
H1950 H 0.50102 0.59842 0.88812 0.0
H1951 H 0.48104 0.57182 0.88993 0.0
H1952 H 0.49542 0.58086 0.86662 0.0
H1953 H 0.4732 0.51531 0.76409 0.0
H1954 H 0.42309 0.48025 0.81656 0.0
H1955 H 0.42238 0.48444 0.85353 0.0
H1956 H 0.47129 0.53018 0.90626 0.0
H1957 H 0.5216 0.56445 0.85356 0.0
H1958 H 0.52184 0.56094 0.81655 0.0
H1959 H 0.33691 0.43898 0.91977 0.0
H1960 H 0.33435 0.41702 0.90627 0.0
H1961 H 0.34413 0.44065 0.89296 0.0
C1962 C 0.62495 0.74512 0.65785 0.0
C1963 C 0.63554 0.74324 0.63861 0.0
C1964 C 0.64408 0.77319 0.61785 0.0
C1965 C 0.62362 0.7669 0.612 0.0
C1966 C 0.61939 0.77884 0.59904 0.0
C1967 C 0.63592 0.79727 0.59146 0.0
C1968 C 0.65651 0.80359 0.59716 0.0
C1969 C 0.66029 0.79149 0.61039 0.0
C1970 C 0.59723 0.77181 0.59351 0.0
C1971 C 0.67451 0.82311 0.58926 0.0
C1972 C 0.60465 0.91091 0.61378 0.0
C1973 C 0.62244 0.91166 0.6262 0.0
C1974 C 0.6328 0.89205 0.60456 0.0
C1975 C 0.6488 0.89374 0.59276 0.0
C1976 C 0.64737 0.87657 0.58334 0.0
C1977 C 0.62919 0.8572 0.58544 0.0
C1978 C 0.61289 0.8553 0.59742 0.0
C1979 C 0.61491 0.87273 0.60701 0.0
C1980 C 0.66529 0.87917 0.57108 0.0
C1981 C 0.59327 0.83488 0.59989 0.0
C1982 C 0.60205 0.86501 0.45286 0.0
C1983 C 0.62213 0.87079 0.45939 0.0
C1984 C 0.62581 0.85718 0.46998 0.0
C1985 C 0.60897 0.83753 0.47453 0.0
C1986 C 0.58884 0.83136 0.4671 0.0
C1987 C 0.5857 0.84515 0.45606 0.0
C1988 C 0.64765 0.86402 0.47676 0.0
C1989 C 0.57056 0.81047 0.47142 0.0
C1990 C 0.60543 0.69898 0.46531 0.0
C1991 C 0.60997 0.71332 0.44718 0.0
C1992 C 0.62217 0.74771 0.46166 0.0
C1993 C 0.63934 0.76755 0.46342 0.0
C1994 C 0.6379 0.78338 0.47238 0.0
C1995 C 0.61874 0.77919 0.47986 0.0
C1996 C 0.60119 0.75919 0.47797 0.0
C1997 C 0.60308 0.7436 0.46899 0.0
C1998 C 0.65693 0.80454 0.47419 0.0
C1999 C 0.58054 0.75425 0.48583 0.0
C2000 C 0.63162 0.81005 0.57778 0.0
C2001 C 0.63151 0.8265 0.58692 0.0
C2002 C 0.62733 0.83902 0.57504 0.0
C2003 C 0.62266 0.83483 0.55349 0.0
C2004 C 0.61755 0.8466 0.54125 0.0
C2005 C 0.61378 0.84286 0.51991 0.0
C2006 C 0.61514 0.8273 0.50994 0.0
C2007 C 0.6123 0.824 0.4881 0.0
C2008 C 0.61335 0.80812 0.47878 0.0
C2009 C 0.61736 0.79548 0.4907 0.0
C2010 C 0.6206 0.79878 0.5125 0.0
C2011 C 0.62506 0.78658 0.52488 0.0
C2012 C 0.62858 0.79017 0.54626 0.0
C2013 C 0.6278 0.8061 0.5561 0.0
C2014 C 0.62325 0.81851 0.54393 0.0
C2015 C 0.61957 0.8148 0.52212 0.0
C2016 C 0.59152 0.90489 0.45016 0.0
C2017 C 0.6077 0.89889 0.44912 0.0
O2018 O 0.64894 0.76231 0.6307 0.0
O2019 O 0.62492 0.73315 0.45311 0.0
O2020 O 0.59793 0.87834 0.44379 0.0
O2021 O 0.63537 0.90949 0.61302 0.0
H2022 H 0.62343 0.73363 0.62662 0.0
H2023 H 0.63655 0.75531 0.66997 0.0
H2024 H 0.61535 0.75153 0.65369 0.0
H2025 H 0.61469 0.72986 0.66449 0.0
H2026 H 0.61079 0.75283 0.61757 0.0
H2027 H 0.67601 0.79627 0.61494 0.0
H2028 H 0.59423 0.78408 0.59732 0.0
H2029 H 0.58607 0.75787 0.60184 0.0
H2030 H 0.59438 0.76853 0.57651 0.0
H2031 H 0.68962 0.82513 0.59386 0.0
H2032 H 0.67399 0.83628 0.59554 0.0
H2033 H 0.6734 0.82329 0.57201 0.0
H2034 H 0.61593 0.89914 0.63757 0.0
H2035 H 0.59454 0.91298 0.62443 0.0
H2036 H 0.59506 0.89597 0.6055 0.0
H2037 H 0.61063 0.92302 0.60203 0.0
H2038 H 0.66255 0.90869 0.59101 0.0
H2039 H 0.60238 0.87109 0.61617 0.0
H2040 H 0.66081 0.87631 0.55428 0.0
H2041 H 0.66935 0.86792 0.57594 0.0
H2042 H 0.6792 0.89474 0.57308 0.0
H2043 H 0.5814 0.83615 0.60835 0.0
H2044 H 0.59681 0.82469 0.6086 0.0
H2045 H 0.58675 0.82758 0.58436 0.0
H2046 H 0.61463 0.90165 0.46514 0.0
H2047 H 0.63494 0.88594 0.45629 0.0
H2048 H 0.57031 0.84076 0.45066 0.0
H2049 H 0.64961 0.86722 0.4938 0.0
H2050 H 0.65922 0.87807 0.46885 0.0
H2051 H 0.65087 0.85181 0.47349 0.0
H2052 H 0.55577 0.80838 0.46546 0.0
H2053 H 0.56952 0.80793 0.48844 0.0
H2054 H 0.57269 0.79868 0.46399 0.0
H2055 H 0.59542 0.71247 0.44242 0.0
H2056 H 0.59369 0.68305 0.46038 0.0
H2057 H 0.59924 0.70339 0.4785 0.0
H2058 H 0.61965 0.69963 0.47091 0.0
H2059 H 0.654 0.77056 0.45779 0.0
H2060 H 0.58967 0.72828 0.46811 0.0
H2061 H 0.66052 0.80943 0.49084 0.0
H2062 H 0.654 0.81548 0.4662 0.0
H2063 H 0.67063 0.80536 0.46734 0.0
H2064 H 0.56808 0.73824 0.48214 0.0
H2065 H 0.57619 0.76462 0.47887 0.0
H2066 H 0.58169 0.75679 0.50298 0.0
H2067 H 0.63496 0.82975 0.60348 0.0
H2068 H 0.61646 0.8589 0.54802 0.0
H2069 H 0.60995 0.85246 0.51131 0.0
H2070 H 0.61127 0.80572 0.46202 0.0
H2071 H 0.62598 0.77416 0.51818 0.0
H2072 H 0.63208 0.78038 0.55496 0.0
H2073 H 0.58288 0.90164 0.43506 0.0
H2074 H 0.59905 0.92138 0.45421 0.0
H2075 H 0.58028 0.89607 0.46235 0.0
C2076 C 0.11733 0.72658 0.68072 0.0
C2077 C 0.11327 0.7348 0.66084 0.0
C2078 C 0.12952 0.74003 0.62742 0.0
C2079 C 0.12526 0.75441 0.61978 0.0
C2080 C 0.13733 0.76788 0.60434 0.0
C2081 C 0.15416 0.76709 0.59655 0.0
C2082 C 0.15773 0.75181 0.60332 0.0
C2083 C 0.14513 0.73825 0.61855 0.0
C2084 C 0.13258 0.78351 0.59698 0.0
C2085 C 0.17532 0.75037 0.59507 0.0
C2086 C 0.27632 0.92335 0.64262 0.0
C2087 C 0.26543 0.9007 0.64 0.0
C2088 C 0.24437 0.87462 0.61352 0.0
C2089 C 0.2499 0.86464 0.5993 0.0
C2090 C 0.23499 0.84572 0.59024 0.0
C2091 C 0.21381 0.83746 0.59429 0.0
C2092 C 0.20822 0.84738 0.60906 0.0
C2093 C 0.22367 0.86549 0.61898 0.0
C2094 C 0.24202 0.8351 0.57583 0.0
C2095 C 0.18592 0.83953 0.61375 0.0
C2096 C 0.22049 0.87132 0.45716 0.0
C2097 C 0.23004 0.86217 0.46707 0.0
C2098 C 0.21868 0.84504 0.4794 0.0
C2099 C 0.19749 0.83743 0.48262 0.0
C2100 C 0.18796 0.84693 0.47296 0.0
C2101 C 0.1995 0.86346 0.45997 0.0
C2102 C 0.22933 0.83486 0.48848 0.0
C2103 C 0.16549 0.83949 0.47607 0.0
C2104 C 0.07432 0.67429 0.45392 0.0
C2105 C 0.08156 0.69688 0.45562 0.0
C2106 C 0.11601 0.72688 0.46266 0.0
C2107 C 0.13689 0.73332 0.46434 0.0
C2108 C 0.15119 0.75164 0.47482 0.0
C2109 C 0.14437 0.76395 0.4835 0.0
C2110 C 0.12343 0.758 0.48104 0.0
C2111 C 0.10942 0.73948 0.47071 0.0
C2112 C 0.17348 0.75768 0.47698 0.0
C2113 C 0.1158 0.77109 0.48958 0.0
C2114 C 0.16915 0.78369 0.58322 0.0
C2115 C 0.18524 0.80121 0.59328 0.0
C2116 C 0.19751 0.81911 0.58245 0.0
C2117 C 0.19368 0.8195 0.56087 0.0
C2118 C 0.20417 0.83766 0.54976 0.0
C2119 C 0.20105 0.83766 0.52837 0.0
C2120 C 0.18747 0.81946 0.51721 0.0
C2121 C 0.1851 0.81905 0.49529 0.0
C2122 C 0.17105 0.80072 0.48482 0.0
C2123 C 0.15904 0.78277 0.49564 0.0
C2124 C 0.16124 0.78286 0.51754 0.0
C2125 C 0.14925 0.76511 0.52897 0.0
C2126 C 0.15157 0.76539 0.55053 0.0
C2127 C 0.1664 0.78327 0.56139 0.0
C2128 C 0.17871 0.80129 0.55018 0.0
C2129 C 0.1758 0.8012 0.52829 0.0
C2130 C 0.25841 0.91501 0.42668 0.0
C2131 C 0.24956 0.9042 0.44649 0.0
O2132 O 0.11929 0.72822 0.64375 0.0
O2133 O 0.10275 0.70847 0.45331 0.0
O2134 O 0.23047 0.88636 0.44327 0.0
O2135 O 0.25866 0.89404 0.61964 0.0
H2136 H 0.12318 0.75173 0.66253 0.0
H2137 H 0.13413 0.73266 0.68265 0.0
H2138 H 0.10906 0.70969 0.68012 0.0
H2139 H 0.11232 0.7315 0.69452 0.0
H2140 H 0.11273 0.75537 0.62611 0.0
H2141 H 0.14808 0.72687 0.62433 0.0
H2142 H 0.14529 0.79895 0.6021 0.0
H2143 H 0.11789 0.78094 0.60319 0.0
H2144 H 0.13152 0.78317 0.57972 0.0
H2145 H 0.17502 0.73664 0.60057 0.0
H2146 H 0.19022 0.76412 0.60019 0.0
H2147 H 0.17468 0.74997 0.57778 0.0
H2148 H 0.27357 0.89356 0.64693 0.0
H2149 H 0.29281 0.92844 0.64674 0.0
H2150 H 0.25751 0.92749 0.66292 0.0
H2151 H 0.27985 0.92986 0.62656 0.0
H2152 H 0.26596 0.87177 0.5952 0.0
H2153 H 0.21921 0.87294 0.63011 0.0
H2154 H 0.24173 0.83971 0.55961 0.0
H2155 H 0.2318 0.81827 0.57646 0.0
H2156 H 0.25811 0.83944 0.5798 0.0
H2157 H 0.1841 0.85104 0.62234 0.0
H2158 H 0.17981 0.82586 0.6235 0.0
H2159 H 0.17636 0.83506 0.59914 0.0
H2160 H 0.24959 0.91383 0.45957 0.0
H2161 H 0.24609 0.86764 0.46451 0.0
H2162 H 0.19218 0.87041 0.45198 0.0
H2163 H 0.23314 0.83928 0.5052 0.0
H2164 H 0.24396 0.83946 0.48058 0.0
H2165 H 0.21915 0.818 0.4873 0.0
H2166 H 0.16152 0.8507 0.4708 0.0
H2167 H 0.16164 0.83633 0.49272 0.0
H2168 H 0.15569 0.82505 0.46699 0.0
H2169 H 0.07778 0.69935 0.47161 0.0
H2170 H 0.05732 0.66468 0.45564 0.0
H2171 H 0.08189 0.67051 0.46648 0.0
H2172 H 0.07838 0.67055 0.43869 0.0
H2173 H 0.14187 0.72363 0.45785 0.0
H2174 H 0.09341 0.73497 0.46899 0.0
H2175 H 0.17817 0.75954 0.49371 0.0
H2176 H 0.1835 0.77261 0.46964 0.0
H2177 H 0.17625 0.74626 0.46963 0.0
H2178 H 0.09938 0.76505 0.48509 0.0
H2179 H 0.12541 0.78685 0.4839 0.0
H2180 H 0.11734 0.77192 0.50683 0.0
H2181 H 0.18771 0.80113 0.60995 0.0
H2182 H 0.21493 0.85213 0.55745 0.0
H2183 H 0.20962 0.85208 0.52065 0.0
H2184 H 0.16943 0.8004 0.46798 0.0
H2185 H 0.13786 0.75081 0.52138 0.0
H2186 H 0.14191 0.75133 0.55858 0.0
H2187 H 0.28542 0.91433 0.42397 0.0
H2188 H 0.2586 0.92965 0.42829 0.0
H2189 H 0.24553 0.90807 0.4145 0.0
C2190 C 0.13121 0.38243 0.66283 0.0
C2191 C 0.116 0.37532 0.64408 0.0
C2192 C 0.1353 0.36971 0.61684 0.0
C2193 C 0.15125 0.39012 0.61455 0.0
C2194 C 0.16782 0.39505 0.60153 0.0
C2195 C 0.16816 0.37933 0.59035 0.0
C2196 C 0.15161 0.35892 0.59194 0.0
C2197 C 0.13548 0.35441 0.60526 0.0
C2198 C 0.1851 0.41699 0.59985 0.0
C2199 C 0.1511 0.34178 0.57982 0.0
C2200 C 0.27615 0.38566 0.66205 0.0
C2201 C 0.26747 0.36718 0.64712 0.0
C2202 C 0.26073 0.37625 0.6135 0.0
C2203 C 0.24219 0.3593 0.606 0.0
C2204 C 0.22869 0.36172 0.59299 0.0
C2205 C 0.23376 0.38159 0.58776 0.0
C2206 C 0.25282 0.39871 0.59492 0.0
C2207 C 0.26627 0.39577 0.60748 0.0
C2208 C 0.20868 0.34302 0.58551 0.0
C2209 C 0.25864 0.42011 0.58991 0.0
C2210 C 0.26827 0.40037 0.45155 0.0
C2211 C 0.25163 0.38086 0.45605 0.0
C2212 C 0.23536 0.37847 0.46816 0.0
C2213 C 0.23576 0.39594 0.47583 0.0
C2214 C 0.25226 0.41559 0.47084 0.0
C2215 C 0.2682 0.41752 0.45856 0.0
C2216 C 0.21769 0.35731 0.47271 0.0
C2217 C 0.25309 0.43454 0.47857 0.0
C2218 C 0.11531 0.41733 0.4418 0.0
C2219 C 0.1179 0.40031 0.43279 0.0
C2220 C 0.13491 0.39009 0.45828 0.0
C2221 C 0.13272 0.37254 0.4668 0.0
C2222 C 0.1495 0.37287 0.47656 0.0
C2223 C 0.16873 0.39155 0.4788 0.0
C2224 C 0.17102 0.40945 0.47032 0.0
C2225 C 0.15415 0.40848 0.45989 0.0
C2226 C 0.14656 0.35321 0.48452 0.0
C2227 C 0.19121 0.42967 0.47246 0.0
C2228 C 0.18618 0.38387 0.57774 0.0
C2229 C 0.20212 0.38287 0.58754 0.0
C2230 C 0.21839 0.38442 0.57627 0.0
C2231 C 0.21896 0.38726 0.55453 0.0
C2232 C 0.23489 0.38857 0.54261 0.0
C2233 C 0.23509 0.39103 0.52116 0.0
C2234 C 0.21914 0.39185 0.51076 0.0
C2235 C 0.21886 0.39375 0.4889 0.0
C2236 C 0.20236 0.39374 0.479 0.0
C2237 C 0.18623 0.39238 0.49039 0.0
C2238 C 0.18662 0.39122 0.51234 0.0
C2239 C 0.17104 0.39055 0.52436 0.0
C2240 C 0.17095 0.38834 0.5458 0.0
C2241 C 0.18661 0.38699 0.55609 0.0
C2242 C 0.20295 0.38847 0.54441 0.0
C2243 C 0.20295 0.3906 0.5225 0.0
C2244 C 0.31492 0.40498 0.45169 0.0
C2245 C 0.29374 0.39208 0.44074 0.0
O2246 O 0.11953 0.36378 0.63007 0.0
O2247 O 0.11803 0.38868 0.44899 0.0
O2248 O 0.28426 0.40325 0.43993 0.0
O2249 O 0.27313 0.37395 0.62704 0.0
H2250 H 0.11775 0.38886 0.63615 0.0
H2251 H 0.14729 0.39285 0.65795 0.0
H2252 H 0.13047 0.36927 0.67053 0.0
H2253 H 0.12754 0.39084 0.67435 0.0
H2254 H 0.15101 0.40219 0.623 0.0
H2255 H 0.12294 0.33876 0.60693 0.0
H2256 H 0.19981 0.41879 0.60563 0.0
H2257 H 0.18223 0.42757 0.6089 0.0
H2258 H 0.18708 0.42138 0.58327 0.0
H2259 H 0.13683 0.3268 0.5824 0.0
H2260 H 0.16465 0.34082 0.58446 0.0
H2261 H 0.15213 0.3449 0.56293 0.0
H2262 H 0.25031 0.35833 0.64811 0.0
H2263 H 0.27156 0.38072 0.67825 0.0
H2264 H 0.27 0.39534 0.65751 0.0
H2265 H 0.29329 0.39495 0.66157 0.0
H2266 H 0.23821 0.34422 0.61059 0.0
H2267 H 0.28076 0.40872 0.61337 0.0
H2268 H 0.20506 0.34444 0.56903 0.0
H2269 H 0.19598 0.34139 0.59513 0.0
H2270 H 0.20916 0.32895 0.58692 0.0
H2271 H 0.27363 0.43181 0.59738 0.0
H2272 H 0.24645 0.4228 0.59518 0.0
H2273 H 0.25971 0.42206 0.57281 0.0
H2274 H 0.28473 0.37823 0.45014 0.0
H2275 H 0.25108 0.3675 0.44982 0.0
H2276 H 0.28094 0.43249 0.45466 0.0
H2277 H 0.21692 0.35503 0.48977 0.0
H2278 H 0.21929 0.34527 0.46502 0.0
H2279 H 0.20286 0.35551 0.46739 0.0
H2280 H 0.26737 0.44872 0.47397 0.0
H2281 H 0.25229 0.43449 0.49581 0.0
H2282 H 0.23951 0.43467 0.47222 0.0
H2283 H 0.13279 0.40758 0.42457 0.0
H2284 H 0.11682 0.4279 0.42941 0.0
H2285 H 0.1275 0.4264 0.45389 0.0
H2286 H 0.10008 0.4108 0.44918 0.0
H2287 H 0.11783 0.35842 0.46539 0.0
H2288 H 0.15598 0.4222 0.45346 0.0
H2289 H 0.14504 0.3529 0.50166 0.0
H2290 H 0.1601 0.35199 0.48102 0.0
H2291 H 0.13243 0.33966 0.47761 0.0
H2292 H 0.18967 0.44257 0.46756 0.0
H2293 H 0.20283 0.4293 0.46262 0.0
H2294 H 0.19717 0.43251 0.48883 0.0
H2295 H 0.2015 0.38016 0.60412 0.0
H2296 H 0.24738 0.3877 0.54973 0.0
H2297 H 0.24777 0.39199 0.51279 0.0
H2298 H 0.20203 0.39473 0.46219 0.0
H2299 H 0.15859 0.39154 0.51731 0.0
H2300 H 0.15842 0.38762 0.55422 0.0
H2301 H 0.32279 0.3963 0.4526 0.0
H2302 H 0.31303 0.40903 0.4678 0.0
H2303 H 0.32483 0.4193 0.44327 0.0
C2304 C 0.01 0.39126 0.07497 0.0
C2305 C 0.98949 0.37568 0.07013 0.0
C2306 C 0.01492 0.40398 0.09259 0.0
C2307 C 0.9996 0.40129 0.10642 0.0
H2308 H 0.02235 0.39399 0.0648 0.0
H2309 H 0.03086 0.4161 0.09534 0.0
S2310 S 0.94352 0.36256 0.10088 0.0
N2311 N 0.95369 0.35831 0.08046 0.0
N2312 N 0.96301 0.38189 0.11395 0.0
C2313 C 0.97902 0.38571 0.1018 0.0
C2314 C 0.97396 0.37297 0.08361 0.0
C2315 C 0.59053 0.58089 0.04784 0.0
C2316 C 0.61341 0.58499 0.03504 0.0
C2317 C 0.57625 0.55931 0.06457 0.0
C2318 C 0.58962 0.54526 0.07064 0.0
H2319 H 0.58513 0.59114 0.04518 0.0
H2320 H 0.56341 0.55737 0.07342 0.0
S2321 S 0.63882 0.54907 0.03915 0.0
N2322 N 0.63867 0.56893 0.02868 0.0
N2323 N 0.61927 0.53596 0.05551 0.0
C2324 C 0.60927 0.5459 0.0535 0.0
C2325 C 0.62201 0.56736 0.0374 0.0
C2326 C 0.38002 0.99965 0.07391 0.0
C2327 C 0.37923 0.01269 0.05933 0.0
C2328 C 0.39492 0.00724 0.09009 0.0
C2329 C 0.41003 0.02818 0.09211 0.0
H2330 H 0.36908 0.98336 0.07279 0.0
H2331 H 0.39481 0.99654 0.10091 0.0
S2332 S 0.4137 0.06903 0.05919 0.0
N2333 N 0.39398 0.0478 0.04885 0.0
N2334 N 0.42224 0.06203 0.07921 0.0
C2335 C 0.40892 0.04151 0.07818 0.0
C2336 C 0.39353 0.03378 0.06178 0.0
C2337 C 0.37963 0.01146 0.94649 0.0
C2338 C 0.3656 0.99158 0.95303 0.0
C2339 C 0.39193 0.01492 0.92924 0.0
C2340 C 0.39028 0.99862 0.91741 0.0
H2341 H 0.38169 0.02454 0.95518 0.0
H2342 H 0.40304 0.03053 0.92538 0.0
S2343 S 0.35566 0.9436 0.92784 0.0
N2344 N 0.35071 0.95532 0.94634 0.0
N2345 N 0.37351 0.96181 0.91361 0.0
C2346 C 0.37614 0.97864 0.92367 0.0
C2347 C 0.36383 0.97512 0.94146 0.0
C2348 C 0.01792 0.39171 0.95836 0.0
C2349 C 0.99708 0.37671 0.96143 0.0
C2350 C 0.02374 0.40438 0.94114 0.0
C2351 C 0.00896 0.40248 0.92631 0.0
H2352 H 0.02978 0.39407 0.96963 0.0
H2353 H 0.03991 0.41598 0.9396 0.0
S2354 S 0.95272 0.3638 0.92574 0.0
N2355 N 0.96186 0.3595 0.94725 0.0
N2356 N 0.97283 0.38309 0.91477 0.0
C2357 C 0.9882 0.38684 0.92866 0.0
C2358 C 0.98225 0.37408 0.94627 0.0
C2359 C 0.58466 0.63426 0.95685 0.0
C2360 C 0.60505 0.64027 0.9522 0.0
C2361 C 0.57079 0.63404 0.94165 0.0
C2362 C 0.57646 0.63958 0.92081 0.0
H2363 H 0.57865 0.62771 0.97182 0.0
H2364 H 0.55458 0.6263 0.94523 0.0
S2365 S 0.63034 0.65764 0.88802 0.0
N2366 N 0.63055 0.64964 0.91955 0.0
N2367 N 0.60411 0.66034 0.89286 0.0
C2368 C 0.59605 0.6555 0.9176 0.0
C2369 C 0.61222 0.64948 0.93337 0.0
C2370 C 0.01169 0.62744 0.95457 0.0
C2371 C 0.02836 0.63564 0.96914 0.0
C2372 C 0.01251 0.61908 0.93541 0.0
C2373 C 0.02998 0.61848 0.92999 0.0
H2374 H 0.9978 0.62741 0.95794 0.0
H2375 H 0.99934 0.61312 0.92467 0.0
S2376 S 0.07819 0.63864 0.96205 0.0
N2377 N 0.06318 0.64305 0.97648 0.0
N2378 N 0.06468 0.62743 0.9404 0.0
C2379 C 0.04687 0.62681 0.94426 0.0
C2380 C 0.04605 0.63529 0.96384 0.0
C2381 C 0.36061 0.42865 0.97299 0.0
C2382 C 0.36053 0.41038 0.97376 0.0
C2383 C 0.36314 0.43865 0.95422 0.0
C2384 C 0.36592 0.43093 0.93545 0.0
H2385 H 0.35804 0.43501 0.98688 0.0
H2386 H 0.36234 0.45225 0.95429 0.0
S2387 S 0.36818 0.38436 0.92896 0.0
N2388 N 0.36447 0.38553 0.95404 0.0
N2389 N 0.36915 0.40437 0.91882 0.0
C2390 C 0.3665 0.41305 0.93604 0.0
C2391 C 0.3639 0.40282 0.95515 0.0
C2392 C 0.59934 0.97165 0.95136 0.0
C2393 C 0.61641 0.99161 0.94956 0.0
C2394 C 0.58529 0.96163 0.93462 0.0
C2395 C 0.58804 0.97102 0.91528 0.0
H2396 H 0.59666 0.96379 0.9659 0.0
H2397 H 0.57227 0.94633 0.93674 0.0
S2398 S 0.63062 0.02297 0.90234 0.0
N2399 N 0.63534 0.02041 0.92692 0.0
N2400 N 0.60934 0.00135 0.89529 0.0
C2401 C 0.60513 0.99094 0.91327 0.0
C2402 C 0.6192 0.00128 0.93042 0.0
C2403 C 0.63658 0.04701 0.06003 0.0
C2404 C 0.63654 0.02915 0.0552 0.0
C2405 C 0.63029 0.04994 0.07943 0.0
C2406 C 0.62341 0.035 0.09473 0.0
H2407 H 0.64181 0.05905 0.04887 0.0
H2408 H 0.63109 0.06415 0.08256 0.0
S2409 S 0.62049 0.9856 0.09025 0.0
N2410 N 0.62912 0.99629 0.06761 0.0
N2411 N 0.61729 0.00189 0.10397 0.0
C2412 C 0.62325 0.01707 0.09016 0.0
C2413 C 0.62973 0.01409 0.07043 0.0
C2414 C 0.99865 0.62127 0.09087 0.0
C2415 C 0.98901 0.61868 0.07122 0.0
C2416 C 0.98802 0.60831 0.1072 0.0
C2417 C 0.96745 0.59199 0.10443 0.0
H2418 H 0.01445 0.63367 0.09381 0.0
H2419 H 0.99597 0.61116 0.12217 0.0
S2420 S 0.93567 0.57774 0.05553 0.0
N2421 N 0.95792 0.5982 0.04966 0.0
N2422 N 0.93814 0.57337 0.08017 0.0
C2423 C 0.95778 0.58891 0.08469 0.0
C2424 C 0.96849 0.60237 0.06815 0.0
C2425 C 0.38534 0.38375 0.09095 0.0
C2426 C 0.38633 0.37936 0.06986 0.0
C2427 C 0.39816 0.38269 0.10612 0.0
C2428 C 0.41274 0.3776 0.10074 0.0
H2429 H 0.37413 0.38743 0.09589 0.0
H2430 H 0.39648 0.38567 0.12225 0.0
S2431 S 0.42265 0.36638 0.04744 0.0
N2432 N 0.40367 0.3706 0.04421 0.0
N2433 N 0.42819 0.36919 0.07268 0.0
C2434 C 0.41436 0.37382 0.07961 0.0
C2435 C 0.40107 0.37457 0.06419 0.0
C2436 C 0.6112 0.69273 0.39314 0.0
C2437 C 0.63143 0.69662 0.39219 0.0
C2438 C 0.60434 0.69767 0.41101 0.0
C2439 C 0.61745 0.7069 0.42863 0.0
H2440 H 0.60058 0.68605 0.37986 0.0
H2441 H 0.58873 0.69462 0.41085 0.0
S2442 S 0.67141 0.71918 0.43482 0.0
N2443 N 0.6642 0.70934 0.41099 0.0
N2444 N 0.65127 0.71874 0.4445 0.0
C2445 C 0.63748 0.71024 0.42821 0.0
C2446 C 0.64448 0.70511 0.41002 0.0
C2447 C 0.29401 0.94291 0.42435 0.0
C2448 C 0.28434 0.92879 0.39976 0.0
C2449 C 0.28724 0.92965 0.44877 0.0
C2450 C 0.26668 0.90193 0.44624 0.0
H2451 H 0.30401 0.95932 0.42448 0.0
H2452 H 0.29141 0.93791 0.46355 0.0
S2453 S 0.24704 0.86601 0.39174 0.0
N2454 N 0.2611 0.88931 0.38144 0.0
N2455 N 0.24818 0.8669 0.41799 0.0
C2456 C 0.26143 0.88693 0.42161 0.0
C2457 C 0.26894 0.9013 0.39864 0.0
C2458 C 0.07036 0.37596 0.39484 0.0
C2459 C 0.06946 0.35821 0.38773 0.0
C2460 C 0.08577 0.38958 0.40913 0.0
C2461 C 0.10111 0.38608 0.41686 0.0
H2462 H 0.05884 0.37924 0.38957 0.0
H2463 H 0.08533 0.40277 0.41405 0.0
S2464 S 0.10686 0.34289 0.4012 0.0
N2465 N 0.08587 0.33845 0.38834 0.0
N2466 N 0.11522 0.36428 0.4147 0.0
C2467 C 0.10076 0.36873 0.40913 0.0
C2468 C 0.08485 0.35472 0.39482 0.0
C2469 C 0.04552 0.32729 0.2697 0.0
C2470 C 0.03653 0.30749 0.28888 0.0
C2471 C 0.05386 0.3239 0.24456 0.0
C2472 C 0.05639 0.30112 0.24231 0.0
H2473 H 0.04625 0.34136 0.27337 0.0
H2474 H 0.06102 0.33626 0.23377 0.0
S2475 S 0.03163 0.25161 0.28176 0.0
N2476 N 0.02785 0.26776 0.2961 0.0
N2477 N 0.04144 0.26094 0.25833 0.0
C2478 C 0.04191 0.27857 0.259 0.0
C2479 C 0.03414 0.28337 0.28316 0.0
C2480 C 0.67909 0.75417 0.29335 0.0
C2481 C 0.6905 0.74106 0.30528 0.0
C2482 C 0.69496 0.77778 0.2801 0.0
C2483 C 0.72209 0.7845 0.27607 0.0
H2484 H 0.66264 0.74786 0.29415 0.0
H2485 H 0.68818 0.78501 0.27171 0.0
S2486 S 0.75243 0.75952 0.30606 0.0
N2487 N 0.7281 0.74316 0.31362 0.0
N2488 N 0.75439 0.77881 0.2921 0.0
C2489 C 0.73498 0.77475 0.29292 0.0
C2490 C 0.71804 0.75166 0.30564 0.0
C2491 C 0.25217 0.9696 0.31144 0.0
C2492 C 0.26913 0.96873 0.30473 0.0
C2493 C 0.238 0.9694 0.29697 0.0
C2494 C 0.2405 0.9685 0.27537 0.0
H2495 H 0.2493 0.96943 0.32791 0.0
H2496 H 0.22466 0.96927 0.30269 0.0
S2497 S 0.2845 0.96941 0.25027 0.0
N2498 N 0.28892 0.96904 0.27546 0.0
N2499 N 0.26289 0.96946 0.24824 0.0
C2500 C 0.25836 0.9692 0.26864 0.0
C2501 C 0.27247 0.96902 0.28333 0.0
C2502 C 0.69624 0.95571 0.28907 0.0
C2503 C 0.70938 0.96183 0.30691 0.0
C2504 C 0.70274 0.95314 0.26964 0.0
C2505 C 0.7226 0.95649 0.26718 0.0
H2506 H 0.68095 0.95334 0.28996 0.0
H2507 H 0.6923 0.94903 0.25627 0.0
S2508 S 0.76291 0.97224 0.3089 0.0
N2509 N 0.74313 0.97064 0.32086 0.0
N2510 N 0.75532 0.96601 0.28428 0.0
C2511 C 0.73575 0.96216 0.28494 0.0
C2512 C 0.72912 0.9647 0.30479 0.0
C2513 C 0.03323 0.73961 0.29318 0.0
C2514 C 0.02709 0.74545 0.31115 0.0
C2515 C 0.03761 0.75058 0.27482 0.0
C2516 C 0.03617 0.76797 0.27362 0.0
H2517 H 0.03437 0.72621 0.29309 0.0
H2518 H 0.0418 0.74518 0.26131 0.0
S2519 S 0.02093 0.78995 0.31614 0.0
N2520 N 0.02004 0.77007 0.32655 0.0
N2521 N 0.02818 0.7906 0.29197 0.0
C2522 C 0.0303 0.77418 0.2915 0.0
C2523 C 0.02585 0.76301 0.31026 0.0
C2524 C 0.28115 0.32258 0.26045 0.0
C2525 C 0.27873 0.31663 0.28131 0.0
C2526 C 0.26912 0.30867 0.24437 0.0
C2527 C 0.25389 0.28839 0.24855 0.0
H2528 H 0.29293 0.33793 0.25639 0.0
H2529 H 0.27197 0.31379 0.22848 0.0
S2530 S 0.24013 0.26566 0.30077 0.0
N2531 N 0.25931 0.28937 0.30546 0.0
N2532 N 0.23617 0.26338 0.27527 0.0
C2533 C 0.25076 0.28244 0.26945 0.0
C2534 C 0.2633 0.29651 0.2858 0.0
C2535 C 0.29734 0.36097 0.39611 0.0
C2536 C 0.30397 0.37435 0.37932 0.0
C2537 C 0.29351 0.36662 0.41551 0.0
C2538 C 0.29609 0.38586 0.41897 0.0
H2539 H 0.29532 0.34605 0.39439 0.0
H2540 H 0.28885 0.35594 0.42805 0.0
S2541 S 0.31348 0.42676 0.38037 0.0
N2542 N 0.31297 0.40785 0.36753 0.0
N2543 N 0.30599 0.41848 0.40407 0.0
C2544 C 0.3026 0.39938 0.40231 0.0
C2545 C 0.3064 0.3936 0.38249 0.0
C2546 C 0.63298 0.92291 0.39769 0.0
C2547 C 0.65345 0.93764 0.40388 0.0
C2548 C 0.6186 0.91005 0.41217 0.0
C2549 C 0.62401 0.9117 0.43349 0.0
H2550 H 0.62796 0.92135 0.38153 0.0
H2551 H 0.60299 0.89902 0.40673 0.0
S2552 S 0.67569 0.94762 0.45771 0.0
N2553 N 0.67855 0.95276 0.4327 0.0
N2554 N 0.65138 0.92902 0.45999 0.0
C2555 C 0.64451 0.92617 0.43983 0.0
C2556 C 0.65926 0.93901 0.42502 0.0
C2557 C 0.06373 0.70474 0.40238 0.0
C2558 C 0.04811 0.70852 0.40733 0.0
C2559 C 0.07489 0.70175 0.41799 0.0
C2560 C 0.07063 0.70209 0.43916 0.0
H2561 H 0.06717 0.70377 0.38628 0.0
H2562 H 0.08659 0.69862 0.41345 0.0
S2563 S 0.0315 0.71172 0.46042 0.0
N2564 N 0.02938 0.71305 0.43496 0.0
N2565 N 0.04997 0.70687 0.46426 0.0
C2566 C 0.05532 0.70624 0.44434 0.0
C2567 C 0.0442 0.70964 0.42845 0.0
C2568 C 0.2752 0.03475 0.71571 0.0
C2569 C 0.29483 0.03711 0.71565 0.0
C2570 C 0.26824 0.03994 0.7333 0.0
C2571 C 0.28069 0.04794 0.75151 0.0
H2572 H 0.26491 0.02856 0.70214 0.0
H2573 H 0.25293 0.03766 0.73262 0.0
S2574 S 0.33351 0.05752 0.75946 0.0
N2575 N 0.32674 0.04815 0.73542 0.0
N2576 N 0.31368 0.05813 0.76846 0.0
C2577 C 0.3004 0.05048 0.7517 0.0
C2578 C 0.30747 0.04505 0.73379 0.0
C2579 C 0.973 0.25102 0.73072 0.0
C2580 C 0.96985 0.26714 0.72712 0.0
C2581 C 0.96631 0.23976 0.74887 0.0
C2582 C 0.9559 0.24391 0.7641 0.0
H2583 H 0.98085 0.2471 0.71947 0.0
H2584 H 0.96926 0.2276 0.75095 0.0
S2585 S 0.94359 0.28443 0.76223 0.0
N2586 N 0.95568 0.28679 0.7404 0.0
N2587 N 0.94279 0.26534 0.77443 0.0
C2588 C 0.95267 0.26004 0.76077 0.0
C2589 C 0.9597 0.27169 0.74232 0.0
C2590 C 0.72875 0.68595 0.7448 0.0
C2591 C 0.72781 0.6926 0.72478 0.0
C2592 C 0.74428 0.69878 0.75929 0.0
C2593 C 0.76 0.71863 0.75415 0.0
H2594 H 0.71737 0.67062 0.74934 0.0
H2595 H 0.74418 0.69287 0.77451 0.0
S2596 S 0.76351 0.74402 0.70442 0.0
N2597 N 0.74291 0.72086 0.70104 0.0
N2598 N 0.77262 0.74492 0.72821 0.0
C2599 C 0.75875 0.72579 0.73448 0.0
C2600 C 0.7426 0.71279 0.71979 0.0
C2601 C 0.69815 0.61838 0.624 0.0
C2602 C 0.70079 0.63765 0.62751 0.0
C2603 C 0.70433 0.61366 0.60552 0.0
C2604 C 0.71372 0.6281 0.58988 0.0
H2605 H 0.69115 0.60674 0.6356 0.0
H2606 H 0.70188 0.59858 0.60356 0.0
S2607 S 0.72426 0.68084 0.59137 0.0
N2608 N 0.71324 0.67127 0.6137 0.0
N2609 N 0.72527 0.6625 0.57906 0.0
C2610 C 0.71635 0.64742 0.5931 0.0
C2611 C 0.7098 0.65216 0.61187 0.0
C2612 C 0.37073 0.07316 0.62883 0.0
C2613 C 0.35175 0.05629 0.62164 0.0
C2614 C 0.38378 0.08848 0.6152 0.0
C2615 C 0.37835 0.08728 0.59393 0.0
H2616 H 0.37506 0.07502 0.64523 0.0
H2617 H 0.39787 0.10166 0.62146 0.0
S2618 S 0.33188 0.04432 0.56697 0.0
N2619 N 0.32922 0.03809 0.5917 0.0
N2620 N 0.35389 0.06645 0.56599 0.0
C2621 C 0.3601 0.06965 0.58638 0.0
C2622 C 0.34673 0.05431 0.60027 0.0
C2623 C 0.94331 0.27899 0.60922 0.0
C2624 C 0.94631 0.29056 0.62749 0.0
C2625 C 0.92797 0.27523 0.59435 0.0
C2626 C 0.91462 0.28244 0.59735 0.0
H2627 H 0.95289 0.27275 0.6063 0.0
H2628 H 0.92641 0.26634 0.58049 0.0
S2629 S 0.91694 0.31483 0.64172 0.0
N2630 N 0.93543 0.31032 0.64714 0.0
N2631 N 0.90636 0.30293 0.61923 0.0
C2632 C 0.91788 0.29461 0.61519 0.0
C2633 C 0.9337 0.29867 0.63027 0.0
C2634 C 0.35794 0.29298 0.62375 0.0
C2635 C 0.37181 0.29998 0.64104 0.0
C2636 C 0.36328 0.28856 0.60451 0.0
C2637 C 0.38269 0.2909 0.60172 0.0
H2638 H 0.34286 0.29107 0.62498 0.0
H2639 H 0.35223 0.28358 0.59158 0.0
S2640 S 0.4249 0.30928 0.64178 0.0
N2641 N 0.40599 0.3092 0.65399 0.0
N2642 N 0.41604 0.30113 0.61777 0.0
C2643 C 0.39672 0.29786 0.61886 0.0
C2644 C 0.39125 0.30225 0.63852 0.0
C2645 C 0.70915 0.09674 0.6266 0.0
C2646 C 0.70933 0.07883 0.62985 0.0
C2647 C 0.70714 0.1025 0.60652 0.0
C2648 C 0.70572 0.09085 0.58883 0.0
H2649 H 0.70945 0.10586 0.6397 0.0
H2650 H 0.70597 0.11581 0.60494 0.0
S2651 S 0.70721 0.0436 0.58862 0.0
N2652 N 0.70917 0.05014 0.6135 0.0
N2653 N 0.70567 0.06117 0.57578 0.0
C2654 C 0.70685 0.07345 0.59179 0.0
C2655 C 0.70867 0.06744 0.61224 0.0
C2656 C 0.93003 0.6419 0.62127 0.0
C2657 C 0.94557 0.66218 0.61744 0.0
C2658 C 0.91737 0.62859 0.60505 0.0
C2659 C 0.92 0.63493 0.58429 0.0
H2660 H 0.92776 0.63615 0.63692 0.0
H2661 H 0.90578 0.61305 0.6087 0.0
S2662 S 0.95808 0.68662 0.56597 0.0
N2663 N 0.96236 0.68817 0.5914 0.0
N2664 N 0.93896 0.663 0.56087 0.0
C2665 C 0.93517 0.65529 0.5803 0.0
C2666 C 0.94784 0.66894 0.59687 0.0
C2667 C 0.96342 0.70071 0.73556 0.0
C2668 C 0.97075 0.71436 0.71899 0.0
C2669 C 0.95988 0.70644 0.75507 0.0
C2670 C 0.96341 0.72602 0.75887 0.0
H2671 H 0.96073 0.68553 0.73362 0.0
H2672 H 0.95475 0.69555 0.76745 0.0
S2673 S 0.98245 0.76758 0.72088 0.0
N2674 N 0.98114 0.74841 0.70774 0.0
N2675 N 0.97464 0.75914 0.74445 0.0
C2676 C 0.97046 0.73977 0.74241 0.0
C2677 C 0.97401 0.73393 0.72248 0.0
C2678 C 0.29362 0.26108 0.72929 0.0
C2679 C 0.314 0.27551 0.736 0.0
C2680 C 0.27886 0.24792 0.74335 0.0
C2681 C 0.28378 0.24905 0.76476 0.0
H2682 H 0.28902 0.25993 0.71303 0.0
H2683 H 0.26336 0.23704 0.7375 0.0
S2684 S 0.33499 0.28427 0.79027 0.0
N2685 N 0.33845 0.28991 0.7654 0.0
N2686 N 0.31058 0.26574 0.79191 0.0
C2687 C 0.30416 0.26333 0.77162 0.0
C2688 C 0.31929 0.27641 0.75724 0.0
C2689 C 0.73066 0.03273 0.74029 0.0
C2690 C 0.73927 0.04806 0.72552 0.0
C2691 C 0.74326 0.02924 0.75348 0.0
C2692 C 0.76493 0.04061 0.75208 0.0
H2693 H 0.71405 0.02343 0.74173 0.0
H2694 H 0.73596 0.01726 0.7647 0.0
S2695 S 0.79477 0.08196 0.7148 0.0
N2696 N 0.77045 0.07467 0.70986 0.0
N2697 N 0.7943 0.06747 0.73375 0.0
C2698 C 0.7737 0.05586 0.73698 0.0
C2699 C 0.7608 0.05976 0.72396 0.0
C2700 C 0.07334 0.36543 0.03797 0.0
C2701 C 0.05531 0.34261 0.02279 0.0
C2702 C 0.09634 0.36803 0.04999 0.0
C2703 C 0.09718 0.34425 0.04908 0.0
H2704 H 0.07012 0.37738 0.04028 0.0
H2705 H 0.10613 0.38062 0.06063 0.0
S2706 S 0.06043 0.29246 0.01146 0.0
N2707 N 0.04789 0.30483 0.00749 0.0
N2708 N 0.08215 0.30622 0.02633 0.0
C2709 C 0.08241 0.32362 0.02908 0.0
C2710 C 0.06031 0.32253 0.01791 0.0
C2711 C 0.66222 0.72609 0.02328 0.0
C2712 C 0.65078 0.70064 0.03351 0.0
C2713 C 0.66172 0.74598 0.038 0.0
C2714 C 0.65282 0.73917 0.0653 0.0
H2715 H 0.66935 0.72944 0.00828 0.0
H2716 H 0.66977 0.76155 0.03287 0.0
S2717 S 0.62157 0.68094 0.08978 0.0
N2718 N 0.62862 0.67576 0.06692 0.0
N2719 N 0.62813 0.70545 0.0921 0.0
C2720 C 0.63616 0.71234 0.07339 0.0
C2721 C 0.63744 0.69392 0.05779 0.0
C2722 C 0.26442 0.93846 0.02637 0.0
C2723 C 0.2761 0.95897 0.02052 0.0
C2724 C 0.24434 0.92991 0.03354 0.0
C2725 C 0.23513 0.94156 0.03546 0.0
H2726 H 0.27093 0.92893 0.02582 0.0
H2727 H 0.23608 0.9141 0.038 0.0
S2728 S 0.25785 0.99513 0.01969 0.0
N2729 N 0.27606 0.99015 0.01523 0.0
N2730 N 0.23832 0.974 0.02892 0.0
C2731 C 0.24615 0.96174 0.02867 0.0
C2732 C 0.26662 0.97048 0.02124 0.0
C2733 C 0.33815 0.06717 0.98735 0.0
C2734 C 0.32646 0.05449 0.00361 0.0
C2735 C 0.33489 0.08227 0.97989 0.0
C2736 C 0.31949 0.08503 0.98808 0.0
H2737 H 0.34995 0.06545 0.98025 0.0
H2738 H 0.34445 0.09177 0.96752 0.0
S2739 S 0.28545 0.05677 0.0316 0.0
N2740 N 0.29951 0.04647 0.02835 0.0
N2741 N 0.29327 0.07467 0.0141 0.0
C2742 C 0.30806 0.07283 0.00467 0.0
C2743 C 0.31151 0.05759 0.01244 0.0
C2744 C 0.93254 0.26848 0.00596 0.0
C2745 C 0.95414 0.28155 0.00816 0.0
C2746 C 0.92353 0.24807 0.99959 0.0
C2747 C 0.93574 0.23991 0.99475 0.0
H2748 H 0.92242 0.27412 0.0087 0.0
H2749 H 0.90685 0.23876 0.99791 0.0
S2750 S 0.99272 0.26652 0.00118 0.0
N2751 N 0.98734 0.28398 0.00749 0.0
N2752 N 0.9703 0.24565 0.99513 0.0
C2753 C 0.95722 0.25235 0.99819 0.0
C2754 C 0.96645 0.27315 0.0049 0.0
C2755 C 0.71481 0.68566 0.98818 0.0
C2756 C 0.70445 0.66425 0.98766 0.0
C2757 C 0.73601 0.69769 0.98429 0.0
C2758 C 0.7476 0.68874 0.97989 0.0
H2759 H 0.70635 0.69314 0.9909 0.0
H2760 H 0.74333 0.71411 0.98436 0.0
S2761 S 0.72819 0.63337 0.9798 0.0
N2762 N 0.70765 0.63466 0.98436 0.0
N2763 N 0.74746 0.65717 0.97758 0.0
C2764 C 0.73758 0.66735 0.98056 0.0
C2765 C 0.71601 0.65515 0.98423 0.0
C2766 C 0.96274 0.68243 0.99004 0.0
C2767 C 0.95497 0.66929 0.00697 0.0
C2768 C 0.95336 0.69285 0.98302 0.0
C2769 C 0.93546 0.69008 0.99226 0.0
H2770 H 0.97676 0.68545 0.98273 0.0
H2771 H 0.96052 0.70346 0.97054 0.0
S2772 S 0.90826 0.65632 0.03623 0.0
N2773 N 0.92804 0.65356 0.03238 0.0
N2774 N 0.90992 0.67256 0.01871 0.0
C2775 C 0.92715 0.67641 0.00873 0.0
C2776 C 0.93697 0.66614 0.01617 0.0
C2777 C 0.32219 0.29824 0.97789 0.0
C2778 C 0.32267 0.29901 0.9998 0.0
C2779 C 0.31043 0.27975 0.96676 0.0
C2780 C 0.2988 0.2612 0.97705 0.0
H2781 H 0.33042 0.31209 0.96915 0.0
H2782 H 0.31006 0.28002 0.94991 0.0
S2783 S 0.29556 0.25457 0.0342 0.0
N2784 N 0.31114 0.27935 0.03141 0.0
N2785 N 0.28891 0.24462 0.01038 0.0
C2786 C 0.29954 0.26163 0.99893 0.0
C2787 C 0.31157 0.28049 0.01032 0.0
C2788 C 0.73479 0.06301 0.99397 0.0
C2789 C 0.71904 0.04242 0.99104 0.0
C2790 C 0.75566 0.06917 0.99294 0.0
C2791 C 0.76157 0.05507 0.98854 0.0
H2792 H 0.73103 0.07439 0.99763 0.0
H2793 H 0.76728 0.08512 0.99576 0.0
S2794 S 0.72627 0.99959 0.97815 0.0
N2795 N 0.71076 0.00802 0.98274 0.0
N2796 N 0.74995 0.01976 0.98029 0.0
C2797 C 0.74595 0.03453 0.98499 0.0
C2798 C 0.72472 0.02819 0.98636 0.0
C2799 C 0.68276 0.95271 0.00956 0.0
C2800 C 0.66881 0.95681 0.01913 0.0
C2801 C 0.69319 0.94526 0.02092 0.0
C2802 C 0.68989 0.94132 0.04225 0.0
H2803 H 0.68645 0.95614 0.99335 0.0
H2804 H 0.70445 0.94322 0.01306 0.0
S2805 S 0.65361 0.94774 0.07441 0.0
N2806 N 0.65119 0.955 0.05103 0.0
N2807 N 0.67081 0.94103 0.07231 0.0
C2808 C 0.67526 0.94444 0.05183 0.0
C2809 C 0.66467 0.95208 0.04028 0.0
C2810 C 0.03334 0.72638 0.03871 0.0
C2811 C 0.04765 0.72023 0.0364 0.0
C2812 C 0.03985 0.74698 0.04102 0.0
C2813 C 0.06091 0.76233 0.04079 0.0
H2814 H 0.01691 0.71518 0.03862 0.0
H2815 H 0.02826 0.75098 0.04255 0.0
S2816 S 0.10468 0.75441 0.03579 0.0
N2817 N 0.08393 0.73118 0.03474 0.0
N2818 N 0.09614 0.76998 0.03863 0.0
C2819 C 0.07543 0.75642 0.0389 0.0
C2820 C 0.06881 0.73538 0.03683 0.0
C2821 C 0.2676 0.34504 0.03342 0.0
C2822 C 0.28165 0.33867 0.03633 0.0
C2823 C 0.24628 0.33084 0.03191 0.0
C2824 C 0.23823 0.30981 0.03373 0.0
H2825 H 0.27314 0.361 0.03132 0.0
H2826 H 0.23603 0.33634 0.0289 0.0
S2827 S 0.26853 0.28559 0.04371 0.0
N2828 N 0.28608 0.31014 0.04228 0.0
N2829 N 0.24597 0.28353 0.04021 0.0
C2830 C 0.25211 0.30337 0.03769 0.0
C2831 C 0.27382 0.31778 0.03881 0.0
C2832 C 0.7371 0.7051 0.38459 0.0
C2833 C 0.72525 0.68858 0.36169 0.0
C2834 C 0.76003 0.70785 0.39701 0.0
C2835 C 0.7671 0.68948 0.38714 0.0
H2836 H 0.73039 0.71327 0.39098 0.0
H2837 H 0.76616 0.71619 0.41165 0.0
S2838 S 0.74554 0.65449 0.33207 0.0
N2839 N 0.72907 0.66284 0.33301 0.0
N2840 N 0.76366 0.66456 0.35147 0.0
C2841 C 0.75893 0.67719 0.36077 0.0
C2842 C 0.73653 0.67553 0.34974 0.0
C2843 C 0.33886 0.04524 0.39857 0.0
C2844 C 0.34791 0.04287 0.37335 0.0
C2845 C 0.35197 0.06943 0.4129 0.0
C2846 C 0.37182 0.09151 0.39779 0.0
H2847 H 0.32562 0.03216 0.40515 0.0
H2848 H 0.34592 0.07151 0.42718 0.0
S2849 S 0.39831 0.08851 0.34271 0.0
N2850 N 0.37893 0.0639 0.34398 0.0
N2851 N 0.39971 0.10257 0.36369 0.0
C2852 C 0.3847 0.08816 0.37519 0.0
C2853 C 0.37084 0.06387 0.36239 0.0
C2854 C 0.94994 0.27248 0.3681 0.0
C2855 C 0.96144 0.29315 0.36282 0.0
C2856 C 0.9292 0.26304 0.37346 0.0
C2857 C 0.91917 0.27399 0.37427 0.0
H2858 H 0.95692 0.26335 0.36786 0.0
H2859 H 0.92098 0.24699 0.37698 0.0
S2860 S 0.94196 0.32826 0.36114 0.0
N2861 N 0.96095 0.32414 0.35809 0.0
N2862 N 0.922 0.30639 0.36848 0.0
C2863 C 0.93035 0.29459 0.36876 0.0
C2864 C 0.95146 0.30418 0.36305 0.0
C2865 C 0.00227 0.39494 0.3356 0.0
C2866 C 0.0156 0.38901 0.32803 0.0
C2867 C 0.00346 0.4127 0.32882 0.0
C2868 C 0.018 0.42525 0.31419 0.0
H2869 H 0.99083 0.38584 0.34692 0.0
H2870 H 0.99304 0.41677 0.33528 0.0
S2871 S 0.05715 0.41709 0.29026 0.0
N2872 N 0.04416 0.39739 0.3054 0.0
N2873 N 0.04659 0.43092 0.29294 0.0
C2874 C 0.03157 0.4196 0.30662 0.0
C2875 C 0.03025 0.40142 0.31339 0.0
C2876 C 0.64148 0.62013 0.32696 0.0
C2877 C 0.63573 0.63138 0.31466 0.0
C2878 C 0.63521 0.60001 0.32149 0.0
C2879 C 0.6231 0.59036 0.30323 0.0
H2880 H 0.65051 0.62671 0.34127 0.0
H2881 H 0.63982 0.59217 0.33194 0.0
S2882 S 0.6055 0.61391 0.26473 0.0
N2883 N 0.61819 0.63187 0.28289 0.0
N2884 N 0.60678 0.59424 0.2723 0.0
C2885 C 0.61794 0.60181 0.29045 0.0
C2886 C 0.62409 0.6222 0.2962 0.0
C2887 C 0.37889 0.00056 0.32725 0.0
C2888 C 0.36506 0.97939 0.32857 0.0
C2889 C 0.3991 0.00857 0.32059 0.0
C2890 C 0.40629 0.99574 0.31499 0.0
H2891 H 0.37401 0.01107 0.33107 0.0
H2892 H 0.40917 0.02496 0.31969 0.0
S2893 S 0.3769 0.93931 0.31775 0.0
N2894 N 0.36042 0.94579 0.32501 0.0
N2895 N 0.39847 0.96088 0.31279 0.0
C2896 C 0.39285 0.97457 0.31696 0.0
C2897 C 0.37222 0.9664 0.32359 0.0
C2898 C 0.62161 0.9855 0.31898 0.0
C2899 C 0.61544 0.96614 0.32667 0.0
C2900 C 0.6071 0.99021 0.31211 0.0
C2901 C 0.58579 0.97563 0.31223 0.0
H2902 H 0.63781 0.99739 0.31869 0.0
H2903 H 0.61266 0.00551 0.30694 0.0
S2904 S 0.56135 0.92273 0.33083 0.0
N2905 N 0.5864 0.93227 0.33401 0.0
N2906 N 0.55915 0.94115 0.32091 0.0
C2907 C 0.57937 0.95618 0.31974 0.0
C2908 C 0.59415 0.9514 0.32689 0.0
C2909 C 0.03589 0.65369 0.30604 0.0
C2910 C 0.01018 0.64966 0.30382 0.0
C2911 C 0.04274 0.63865 0.29028 0.0
C2912 C 0.0205 0.61672 0.27571 0.0
H2913 H 0.0472 0.66508 0.31693 0.0
H2914 H 0.05733 0.63964 0.29275 0.0
S2915 S 0.96223 0.60797 0.26434 0.0
N2916 N 0.97171 0.62732 0.28212 0.0
N2917 N 0.97975 0.60195 0.25777 0.0
C2918 C 0.99637 0.61617 0.26889 0.0
C2919 C 0.99116 0.63169 0.28502 0.0
C2920 C 0.3971 0.40275 0.3175 0.0
C2921 C 0.38233 0.38186 0.31471 0.0
C2922 C 0.41827 0.41012 0.31673 0.0
C2923 C 0.42543 0.39694 0.31268 0.0
H2924 H 0.3923 0.41337 0.3211 0.0
H2925 H 0.42915 0.42624 0.31966 0.0
S2926 S 0.39277 0.34122 0.30187 0.0
N2927 N 0.37612 0.34825 0.30643 0.0
N2928 N 0.41589 0.36221 0.30413 0.0
C2929 C 0.41072 0.37615 0.30884 0.0
C2930 C 0.38919 0.36859 0.31008 0.0
C2931 C 0.35168 0.29455 0.34662 0.0
C2932 C 0.33748 0.29876 0.3554 0.0
C2933 C 0.36128 0.28662 0.35855 0.0
C2934 C 0.3569 0.2823 0.37969 0.0
H2935 H 0.35606 0.29811 0.33058 0.0
H2936 H 0.37263 0.28431 0.35127 0.0
S2937 S 0.31988 0.28924 0.40989 0.0
N2938 N 0.31874 0.29704 0.38637 0.0
N2939 N 0.33677 0.28206 0.40874 0.0
C2940 C 0.34221 0.28578 0.38852 0.0
C2941 C 0.33248 0.29396 0.37639 0.0
C2942 C 0.70246 0.0467 0.36916 0.0
C2943 C 0.71647 0.04004 0.36902 0.0
C2944 C 0.70932 0.06743 0.36822 0.0
C2945 C 0.73044 0.08231 0.36663 0.0
H2946 H 0.68599 0.03575 0.36966 0.0
H2947 H 0.69796 0.07182 0.36809 0.0
S2948 S 0.7735 0.07295 0.36663 0.0
N2949 N 0.75252 0.05005 0.36831 0.0
N2950 N 0.7654 0.089 0.36588 0.0
C2951 C 0.74467 0.07591 0.36711 0.0
C2952 C 0.73769 0.0548 0.36848 0.0
C2953 C 0.93216 0.6644 0.35852 0.0
C2954 C 0.94796 0.66147 0.36543 0.0
C2955 C 0.9114 0.64855 0.35893 0.0
C2956 C 0.90567 0.62939 0.36684 0.0
H2957 H 0.9359 0.67889 0.35224 0.0
H2958 H 0.89972 0.65132 0.35298 0.0
S2959 S 0.94142 0.61476 0.38854 0.0
N2960 N 0.95674 0.63844 0.38108 0.0
N2961 N 0.91762 0.60889 0.3829 0.0
C2962 C 0.9214 0.62654 0.37444 0.0
C2963 C 0.94257 0.64252 0.37348 0.0
C2964 C 0.39214 0.02948 0.70828 0.0
C2965 C 0.38137 0.01447 0.69249 0.0
C2966 C 0.41178 0.03452 0.71555 0.0
C2967 C 0.42133 0.02454 0.70757 0.0
H2968 H 0.38568 0.03793 0.71463 0.0
H2969 H 0.41978 0.04669 0.72715 0.0
S2970 S 0.39935 0.98336 0.66692 0.0
N2971 N 0.38146 0.98908 0.66974 0.0
N2972 N 0.41834 0.99858 0.68345 0.0
C2973 C 0.41052 0.00914 0.6922 0.0
C2974 C 0.39056 0.00405 0.68472 0.0
C2975 C 0.9985 0.39084 0.68497 0.0
C2976 C 0.98771 0.37097 0.6927 0.0
C2977 C 0.99281 0.40491 0.68996 0.0
C2978 C 0.97612 0.39972 0.70289 0.0
H2979 H 0.01127 0.39551 0.67468 0.0
H2980 H 0.00128 0.41986 0.68324 0.0
S2981 S 0.9426 0.34962 0.72706 0.0
N2982 N 0.9595 0.34685 0.7141 0.0
N2983 N 0.94869 0.37323 0.7232 0.0
C2984 C 0.9653 0.37997 0.71092 0.0
C2985 C 0.97117 0.36566 0.70596 0.0
C2986 C 0.61397 0.63157 0.7047 0.0
C2987 C 0.62279 0.61984 0.70066 0.0
C2988 C 0.59383 0.62256 0.71198 0.0
C2989 C 0.58175 0.6015 0.71543 0.0
H2990 H 0.62283 0.6479 0.70268 0.0
H2991 H 0.58774 0.63219 0.71517 0.0
S2992 S 0.59677 0.56371 0.70472 0.0
N2993 N 0.61734 0.58585 0.69905 0.0
N2994 N 0.57942 0.56889 0.71236 0.0
C2995 C 0.59008 0.58948 0.71051 0.0
C2996 C 0.61063 0.59867 0.70331 0.0
C2997 C 0.67496 0.73355 0.66519 0.0
C2998 C 0.6684 0.71354 0.65857 0.0
C2999 C 0.66482 0.74323 0.6581 0.0
C3000 C 0.64751 0.7332 0.64434 0.0
H3001 H 0.68785 0.74172 0.67619 0.0
H3002 H 0.67024 0.75854 0.66385 0.0
S3003 S 0.62456 0.68095 0.62169 0.0
N3004 N 0.64395 0.6843 0.63673 0.0
N3005 N 0.62471 0.70235 0.62381 0.0
C3006 C 0.64111 0.71338 0.63719 0.0
C3007 C 0.6516 0.7036 0.64418 0.0
C3008 C 0.28462 0.94025 0.67661 0.0
C3009 C 0.28057 0.9548 0.65723 0.0
C3010 C 0.26832 0.91267 0.67647 0.0
C3011 C 0.25094 0.90125 0.65276 0.0
H3012 H 0.2966 0.94807 0.68856 0.0
H3013 H 0.27157 0.9037 0.68682 0.0
S3014 S 0.23521 0.93188 0.61036 0.0
N3015 N 0.255 0.95198 0.62344 0.0
N3016 N 0.22951 0.90945 0.62027 0.0
C3017 C 0.24293 0.91589 0.63659 0.0
C3018 C 0.25967 0.9427 0.63814 0.0
C3019 C 0.06033 0.35761 0.65836 0.0
C3020 C 0.05189 0.33694 0.66285 0.0
C3021 C 0.08104 0.36999 0.65268 0.0
C3022 C 0.09402 0.36215 0.65142 0.0
H3023 H 0.05072 0.36409 0.65856 0.0
H3024 H 0.08681 0.38569 0.64885 0.0
S3025 S 0.08005 0.30972 0.66446 0.0
N3026 N 0.05858 0.3097 0.66752 0.0
N3027 N 0.09739 0.33291 0.65718 0.0
C3028 C 0.08599 0.34178 0.65701 0.0
C3029 C 0.06495 0.32919 0.66257 0.0
C3030 C 0.30196 0.34486 0.65247 0.0
C3031 C 0.29332 0.33165 0.66925 0.0
C3032 C 0.29336 0.35585 0.64497 0.0
C3033 C 0.27543 0.35363 0.65359 0.0
H3034 H 0.31607 0.34751 0.6457 0.0
H3035 H 0.30116 0.36654 0.6327 0.0
S3036 S 0.24612 0.31996 0.69688 0.0
N3037 N 0.26545 0.31637 0.69373 0.0
N3038 N 0.24897 0.33662 0.67931 0.0
C3039 C 0.26626 0.3399 0.66988 0.0
C3040 C 0.27522 0.32898 0.67774 0.0
C3041 C 0.64275 0.95158 0.67071 0.0
C3042 C 0.65671 0.96987 0.66094 0.0
C3043 C 0.63201 0.93299 0.6595 0.0
C3044 C 0.63488 0.93188 0.63808 0.0
H3045 H 0.63986 0.95158 0.68715 0.0
H3046 H 0.62125 0.91937 0.66766 0.0
S3047 S 0.66937 0.97529 0.60489 0.0
N3048 N 0.67267 0.98564 0.62837 0.0
N3049 N 0.65244 0.95073 0.60738 0.0
C3050 C 0.64878 0.95004 0.62807 0.0
C3051 C 0.65974 0.96897 0.63948 0.0
C3052 C 0.06438 0.73733 0.66037 0.0
C3053 C 0.04839 0.71681 0.65783 0.0
C3054 C 0.08514 0.74294 0.66099 0.0
C3055 C 0.09071 0.7283 0.65863 0.0
H3056 H 0.06083 0.74908 0.66265 0.0
H3057 H 0.09693 0.75886 0.66363 0.0
S3058 S 0.05465 0.67272 0.64955 0.0
N3059 N 0.03947 0.68188 0.65186 0.0
N3060 N 0.07851 0.69254 0.65222 0.0
C3061 C 0.07486 0.70782 0.65519 0.0
C3062 C 0.05372 0.70205 0.65499 0.0
C3063 C 0.95793 0.59934 0.68938 0.0
C3064 C 0.97345 0.62011 0.69144 0.0
C3065 C 0.96152 0.58415 0.69575 0.0
C3066 C 0.98076 0.5891 0.70444 0.0
H3067 H 0.94291 0.59473 0.68261 0.0
H3068 H 0.9492 0.56835 0.69357 0.0
S3069 S 0.02695 0.64116 0.71234 0.0
N3070 N 0.00906 0.64483 0.70241 0.0
N3071 N 0.01579 0.61624 0.7141 0.0
C3072 C 0.99647 0.60981 0.7065 0.0
C3073 C 0.99279 0.6253 0.70015 0.0
C3074 C 0.36931 0.38559 0.71047 0.0
C3075 C 0.38279 0.37831 0.70954 0.0
C3076 C 0.37689 0.40645 0.71273 0.0
C3077 C 0.39825 0.42093 0.71367 0.0
H3078 H 0.35274 0.37508 0.70927 0.0
H3079 H 0.36593 0.41135 0.71322 0.0
S3080 S 0.44005 0.40976 0.71278 0.0
N3081 N 0.41851 0.38715 0.71072 0.0
N3082 N 0.43278 0.42644 0.71435 0.0
C3083 C 0.41189 0.41383 0.7133 0.0
C3084 C 0.40416 0.39252 0.71138 0.0
C3085 C 0.62532 0.013 0.70714 0.0
C3086 C 0.63958 0.03417 0.7069 0.0
C3087 C 0.60412 0.00506 0.70873 0.0
C3088 C 0.59629 0.01795 0.70986 0.0
H3089 H 0.6305 0.00242 0.7055 0.0
H3090 H 0.59369 0.98866 0.70829 0.0
S3091 S 0.62717 0.07451 0.71144 0.0
N3092 N 0.64447 0.06792 0.70938 0.0
N3093 N 0.60454 0.05294 0.712 0.0
C3094 C 0.61043 0.03915 0.71059 0.0
C3095 C 0.63209 0.04727 0.70923 0.0
loop_
_geom_bond_atom_site_label_1
_geom_bond_atom_site_label_2
_geom_bond_distance
_geom_bond_site_symmetry_2
_ccdc_geom_bond_type
Zn0 O3 2.007 1_554 S
Zn0 O5 2.087 . S
Zn0 O10 2.046 1_554 S
Zn1 O2 1.962 1_455 S
Zn1 O4 1.986 . S
Zn1 O6 1.996 1_455 S
Zn1 O9 1.943 1_554 S
O2 Zn1 1.962 1_655 S
O2 C7 1.254 1_554 S
O3 Zn0 2.007 1_556 S
O3 C7 1.269 . S
O4 Zn1 1.986 . S
O4 C11 1.262 . S
O5 Zn0 2.087 . S
O5 C13 1.260 . S
O6 Zn1 1.996 1_655 S
O6 C13 1.257 . S
C7 O2 1.254 1_556 S
C7 O3 1.269 . S
C8 O9 1.249 . S
C8 O10 1.270 1_455 S
O9 Zn1 1.943 1_556 S
O9 C8 1.249 . S
O10 Zn0 2.046 1_556 S
O10 C8 1.270 1_655 S
C11 O4 1.262 . S
C11 O12 1.232 . S
O12 C11 1.232 . S
C13 O5 1.260 . S
C13 O6 1.257 . S
Zn14 O17 2.031 1_554 S
Zn14 O19 2.049 . S
Zn14 O24 2.067 1_554 S
Zn15 O16 1.962 . S
Zn15 O18 1.986 . S
Zn15 O20 1.996 . S
Zn15 O23 1.943 . S
O16 Zn15 1.962 . S
O16 C21 1.254 1_554 S
O17 Zn14 2.031 1_556 S
O17 C21 1.269 . S
O18 Zn15 1.986 . S
O18 C25 1.262 . S
O19 Zn14 2.049 . S
O19 C27 1.260 . S
O20 Zn15 1.996 . S
O20 C27 1.257 . S
C21 O16 1.254 1_556 S
C21 O17 1.269 . S
C22 O23 1.249 1_556 S
C22 O24 1.270 . S
O23 Zn15 1.943 . S
O23 C22 1.249 1_554 S
O24 Zn14 2.067 1_556 S
O24 C22 1.270 . S
C25 O18 1.262 . S
C25 O26 1.232 . S
O26 C25 1.232 . S
C27 O19 1.260 . S
C27 O20 1.257 . S
Zn28 O31 2.031 . S
Zn28 O33 2.049 1_554 S
Zn28 O38 2.037 1_565 S
Zn29 O30 1.962 1_545 S
Zn29 O32 1.986 1_554 S
Zn29 O34 1.996 1_544 S
Zn29 O37 1.943 . S
O30 Zn29 1.962 1_565 S
O30 C35 1.254 . S
O31 Zn28 2.031 . S
O31 C35 1.269 . S
O32 Zn29 1.986 1_556 S
O32 C39 1.262 . S
O33 Zn28 2.049 1_556 S
O33 C41 1.260 . S
O34 Zn29 1.996 1_566 S
O34 C41 1.257 . S
C35 O30 1.254 . S
C35 O31 1.269 . S
C36 O37 1.249 . S
C36 O38 1.326 . S
O37 Zn29 1.943 . S
O37 C36 1.249 . S
O38 Zn28 2.037 1_545 S
O38 C36 1.326 . S
C39 O32 1.262 . S
C39 O40 1.232 1_556 S
O40 C39 1.232 1_554 S
C41 O33 1.260 . S
C41 O34 1.257 . S
Zn42 O45 2.031 . S
Zn42 O47 2.049 1_554 S
Zn42 O52 2.067 . S
Zn43 O44 1.962 1_655 S
Zn43 O46 1.986 1_554 S
Zn43 O48 1.996 1_654 S
Zn43 O51 1.943 . S
O44 Zn43 1.962 1_455 S
O44 C49 1.254 . S
O45 Zn42 2.031 . S
O45 C49 1.269 . S
O46 Zn43 1.986 1_556 S
O46 C53 1.262 . S
O47 Zn42 2.049 1_556 S
O47 C55 1.260 . S
O48 Zn43 1.996 1_456 S
O48 C55 1.257 . S
C49 O44 1.254 . S
C49 O45 1.269 . S
C50 O51 1.249 . S
C50 O52 1.270 1_655 S
O51 Zn43 1.943 . S
O51 C50 1.249 . S
O52 Zn42 2.067 . S
O52 C50 1.270 1_455 S
C53 O46 1.262 . S
C53 O54 1.232 1_556 S
O54 C53 1.232 1_554 S
C55 O47 1.260 . S
C55 O48 1.257 . S
Zn56 O59 2.031 . S
Zn56 O61 2.049 1_554 S
Zn56 O66 2.067 . S
Zn57 O58 1.962 1_556 S
Zn57 O60 1.986 . S
Zn57 O62 1.996 . S
Zn57 O65 1.943 1_556 S
O58 Zn57 1.962 1_554 S
O58 C63 1.254 . S
O59 Zn56 2.031 . S
O59 C63 1.269 . S
O60 Zn57 1.986 . S
O60 C67 1.262 . S
O61 Zn56 2.049 1_556 S
O61 C69 1.260 . S
O62 Zn57 1.996 . S
O62 C69 1.257 . S
C63 O58 1.254 . S
C63 O59 1.269 . S
C64 O65 1.249 . S
C64 O66 1.270 . S
O65 Zn57 1.943 1_554 S
O65 C64 1.249 . S
O66 Zn56 2.067 . S
O66 C64 1.270 . S
C67 O60 1.262 . S
C67 O68 1.232 1_556 S
O68 C67 1.232 1_554 S
C69 O61 1.260 . S
C69 O62 1.257 . S
Zn70 O73 2.031 1_554 S
Zn70 O75 2.049 . S
Zn70 O80 2.067 1_554 S
Zn71 O72 1.962 1_565 S
Zn71 O74 1.986 . S
Zn71 O76 1.996 1_565 S
Zn71 O79 1.926 1_554 S
O72 Zn71 1.962 1_545 S
O72 C77 1.215 1_554 S
O73 Zn70 2.031 1_556 S
O73 C77 1.289 . S
O74 Zn71 1.986 . S
O74 C81 1.262 . S
O75 Zn70 2.049 . S
O75 C83 1.260 . S
O76 Zn71 1.996 1_545 S
O76 C83 1.257 . S
C77 O72 1.215 1_556 S
C77 O73 1.289 . S
C78 O79 1.262 . S
C78 O80 1.270 1_565 S
O79 Zn71 1.926 1_556 S
O79 C78 1.262 . S
O80 Zn70 2.067 1_556 S
O80 C78 1.270 1_545 S
C81 O74 1.262 . S
C81 O82 1.232 . S
O82 C81 1.232 . S
C83 O75 1.260 . S
C83 O76 1.257 . S
Zn84 O87 2.031 . S
Zn84 O89 2.049 . S
Zn84 O94 2.067 . S
Zn85 O86 1.962 . S
Zn85 O88 1.986 . S
Zn85 O90 1.996 . S
Zn85 O93 1.943 . S
O86 Zn85 1.962 . S
O86 C91 1.254 . S
O87 Zn84 2.031 . S
O87 C91 1.269 . S
O88 Zn85 1.986 . S
O88 C95 1.262 . S
O89 Zn84 2.049 . S
O89 C97 1.260 . S
O90 Zn85 1.996 . S
O90 C97 1.257 . S
C91 O86 1.254 . S
C91 O87 1.269 . S
C92 O93 1.249 . S
C92 O94 1.270 . S
O93 Zn85 1.943 . S
O93 C92 1.249 . S
O94 Zn84 2.067 . S
O94 C92 1.270 . S
C95 O88 1.262 . S
C95 O96 1.232 . S
O96 C95 1.232 . S
C97 O89 1.260 . S
C97 O90 1.257 . S
Zn98 O101 2.031 . S
Zn98 O103 2.049 . S
Zn98 O108 2.067 . S
Zn99 O100 1.962 . S
Zn99 O102 1.986 1_565 S
Zn99 O104 1.996 . S
Zn99 O107 1.943 . S
O100 Zn99 1.962 . S
O100 C105 1.254 . S
O101 Zn98 2.031 . S
O101 C105 1.269 . S
O102 Zn99 1.986 1_545 S
O102 C109 1.262 . S
O103 Zn98 2.049 . S
O103 C111 1.260 . S
O104 Zn99 1.996 . S
O104 C111 1.257 . S
C105 O100 1.254 . S
C105 O101 1.269 . S
C106 O107 1.249 . S
C106 O108 1.270 . S
O107 Zn99 1.943 . S
O107 C106 1.249 . S
O108 Zn98 2.067 . S
O108 C106 1.270 . S
C109 O102 1.262 . S
C109 O110 1.232 . S
O110 C109 1.232 . S
C111 O103 1.260 . S
C111 O104 1.257 . S
Zn112 O115 2.031 . S
Zn112 O117 2.049 . S
Zn112 O122 2.067 . S
Zn113 O114 1.962 1_455 S
Zn113 O116 1.986 . S
Zn113 O118 1.996 . S
Zn113 O121 1.943 . S
O114 Zn113 1.962 1_655 S
O114 C119 1.254 . S
O115 Zn112 2.031 . S
O115 C119 1.269 1_455 S
O116 Zn113 1.986 . S
O116 C123 1.262 . S
O117 Zn112 2.049 . S
O117 C125 1.260 . S
O118 Zn113 1.996 . S
O118 C125 1.257 . S
C119 O114 1.254 . S
C119 O115 1.269 1_655 S
C120 O121 1.249 . S
C120 O122 1.270 . S
O121 Zn113 1.943 . S
O121 C120 1.249 . S
O122 Zn112 2.067 . S
O122 C120 1.270 . S
C123 O116 1.262 . S
C123 O124 1.232 . S
O124 C123 1.232 . S
C125 O117 1.260 . S
C125 O118 1.257 . S
Zn126 O129 2.021 1_565 S
Zn126 O131 2.049 . S
Zn126 O136 2.067 . S
Zn127 O128 1.962 1_565 S
Zn127 O130 1.986 . S
Zn127 O132 1.996 . S
Zn127 O135 1.943 . S
O128 Zn127 1.962 1_545 S
O128 C133 1.254 . S
O129 Zn126 2.021 1_545 S
O129 C133 1.281 . S
O130 Zn127 1.986 . S
O130 C137 1.262 . S
O131 Zn126 2.049 . S
O131 C139 1.260 . S
O132 Zn127 1.996 . S
O132 C139 1.257 . S
C133 O128 1.254 . S
C133 O129 1.281 . S
C134 O135 1.249 . S
C134 O136 1.270 . S
O135 Zn127 1.943 . S
O135 C134 1.249 . S
O136 Zn126 2.067 . S
O136 C134 1.270 . S
C137 O130 1.262 . S
C137 O138 1.232 . S
O138 C137 1.232 . S
C139 O131 1.260 . S
C139 O132 1.257 . S
Zn140 O143 2.047 . S
Zn140 O145 2.049 . S
Zn140 O150 2.067 . S
Zn141 O142 1.962 1_455 S
Zn141 O144 1.986 . S
Zn141 O146 1.996 . S
Zn141 O149 1.943 . S
O142 Zn141 1.962 1_655 S
O142 C147 1.254 . S
O143 Zn140 2.047 . S
O143 C147 1.246 1_455 S
O144 Zn141 1.986 . S
O144 C151 1.262 . S
O145 Zn140 2.049 . S
O145 C153 1.260 . S
O146 Zn141 1.996 . S
O146 C153 1.257 . S
C147 O142 1.254 . S
C147 O143 1.246 1_655 S
C148 O149 1.249 . S
C148 O150 1.270 . S
O149 Zn141 1.943 . S
O149 C148 1.249 . S
O150 Zn140 2.067 . S
O150 C148 1.270 . S
C151 O144 1.262 . S
C151 O152 1.232 . S
O152 C151 1.232 . S
C153 O145 1.260 . S
C153 O146 1.257 . S
Zn154 O157 2.031 . S
Zn154 O159 2.049 . S
Zn154 O164 2.067 . S
Zn155 O156 1.962 . S
Zn155 O158 1.986 . S
Zn155 O160 1.996 . S
Zn155 O163 1.943 . S
O156 Zn155 1.962 . S
O156 C161 1.254 . S
O157 Zn154 2.031 . S
O157 C161 1.269 . S
O158 Zn155 1.986 . S
O158 C165 1.262 . S
O159 Zn154 2.049 . S
O159 C167 1.260 . S
O160 Zn155 1.996 . S
O160 C167 1.257 . S
C161 O156 1.254 . S
C161 O157 1.269 . S
C162 O163 1.249 . S
C162 O164 1.270 . S
O163 Zn155 1.943 . S
O163 C162 1.249 . S
O164 Zn154 2.067 . S
O164 C162 1.270 . S
C165 O158 1.262 . S
C165 O166 1.232 . S
O166 C165 1.232 . S
C167 O159 1.260 . S
C167 O160 1.257 . S
Zn168 O171 2.031 . S
Zn168 O173 2.049 . S
Zn168 O178 2.067 . S
Zn169 O170 1.962 1_545 S
Zn169 O172 1.986 . S
Zn169 O174 1.996 . S
Zn169 O177 1.943 . S
O170 Zn169 1.962 1_565 S
O170 C175 1.254 . S
O171 Zn168 2.031 . S
O171 C175 1.269 1_545 S
O172 Zn169 1.986 . S
O172 C179 1.262 . S
O173 Zn168 2.049 . S
O173 C181 1.260 . S
O174 Zn169 1.996 . S
O174 C181 1.257 . S
C175 O170 1.254 . S
C175 O171 1.269 1_565 S
C176 O177 1.249 . S
C176 O178 1.270 . S
O177 Zn169 1.943 . S
O177 C176 1.249 . S
O178 Zn168 2.067 . S
O178 C176 1.270 . S
C179 O172 1.262 . S
C179 O180 1.232 . S
O180 C179 1.232 . S
C181 O173 1.260 . S
C181 O174 1.257 . S
Zn182 O185 2.031 1_655 S
Zn182 O187 2.049 . S
Zn182 O192 2.067 . S
Zn183 O184 1.962 1_655 S
Zn183 O186 1.986 . S
Zn183 O188 1.996 . S
Zn183 O191 1.943 . S
O184 Zn183 1.962 1_455 S
O184 C189 1.254 . S
O185 Zn182 2.031 1_455 S
O185 C189 1.269 . S
O186 Zn183 1.986 . S
O186 C193 1.262 . S
O187 Zn182 2.049 . S
O187 C195 1.260 . S
O188 Zn183 1.996 . S
O188 C195 1.257 . S
C189 O184 1.254 . S
C189 O185 1.269 . S
C190 O191 1.249 . S
C190 O192 1.270 . S
O191 Zn183 1.943 . S
O191 C190 1.249 . S
O192 Zn182 2.067 . S
O192 C190 1.270 . S
C193 O186 1.262 . S
C193 O194 1.232 . S
O194 C193 1.232 . S
C195 O187 1.260 . S
C195 O188 1.257 . S
Zn196 O199 2.031 . S
Zn196 O201 2.049 . S
Zn196 O206 2.067 . S
Zn197 O198 1.962 . S
Zn197 O200 1.986 . S
Zn197 O202 1.996 . S
Zn197 O205 1.943 . S
O198 Zn197 1.962 . S
O198 C203 1.254 . S
O199 Zn196 2.031 . S
O199 C203 1.269 . S
O200 Zn197 1.986 . S
O200 C207 1.262 . S
O201 Zn196 2.049 . S
O201 C209 1.260 . S
O202 Zn197 1.996 . S
O202 C209 1.257 . S
C203 O198 1.254 . S
C203 O199 1.269 . S
C204 O205 1.249 . S
C204 O206 1.270 . S
O205 Zn197 1.943 . S
O205 C204 1.249 . S
O206 Zn196 2.067 . S
O206 C204 1.270 . S
C207 O200 1.262 . S
C207 O208 1.232 . S
O208 C207 1.232 . S
C209 O201 1.260 . S
C209 O202 1.257 . S
Zn210 O213 2.031 . S
Zn210 O215 2.049 . S
Zn210 O220 2.067 . S
Zn211 O212 1.962 . S
Zn211 O214 1.986 . S
Zn211 O216 1.996 . S
Zn211 O219 1.943 . S
O212 Zn211 1.962 . S
O212 C217 1.254 . S
O213 Zn210 2.031 . S
O213 C217 1.269 . S
O214 Zn211 1.986 . S
O214 C221 1.262 . S
O215 Zn210 2.049 . S
O215 C223 1.260 . S
O216 Zn211 1.996 . S
O216 C223 1.257 . S
C217 O212 1.254 . S
C217 O213 1.269 . S
C218 O219 1.249 . S
C218 O220 1.270 . S
O219 Zn211 1.943 . S
O219 C218 1.249 . S
O220 Zn210 2.067 . S
O220 C218 1.270 . S
C221 O214 1.262 . S
C221 O222 1.232 . S
O222 C221 1.232 . S
C223 O215 1.260 . S
C223 O216 1.257 . S
Zn224 O227 2.031 . S
Zn224 O229 2.049 . S
Zn224 O234 2.067 . S
Zn225 O226 1.962 . S
Zn225 O228 1.986 1_545 S
Zn225 O230 1.996 . S
Zn225 O233 1.943 . S
O226 Zn225 1.962 . S
O226 C231 1.254 . S
O227 Zn224 2.031 . S
O227 C231 1.269 . S
O228 Zn225 1.986 1_565 S
O228 C235 1.262 . S
O229 Zn224 2.049 . S
O229 C237 1.260 . S
O230 Zn225 1.996 . S
O230 C237 1.257 . S
C231 O226 1.254 . S
C231 O227 1.269 . S
C232 O233 1.249 . S
C232 O234 1.270 . S
O233 Zn225 1.943 . S
O233 C232 1.249 . S
O234 Zn224 2.067 . S
O234 C232 1.270 . S
C235 O228 1.262 . S
C235 O236 1.232 . S
O236 C235 1.232 . S
C237 O229 1.260 . S
C237 O230 1.257 . S
Zn238 O241 2.031 . S
Zn238 O243 2.049 . S
Zn238 O248 2.067 . S
Zn239 O240 1.962 1_655 S
Zn239 O242 1.986 . S
Zn239 O244 1.996 . S
Zn239 O247 1.943 . S
O240 Zn239 1.962 1_455 S
O240 C245 1.254 . S
O241 Zn238 2.031 . S
O241 C245 1.269 1_655 S
O242 Zn239 1.986 . S
O242 C249 1.262 . S
O243 Zn238 2.049 . S
O243 C251 1.260 . S
O244 Zn239 1.996 . S
O244 C251 1.257 . S
C245 O240 1.254 . S
C245 O241 1.269 1_455 S
C246 O247 1.249 . S
C246 O248 1.270 . S
O247 Zn239 1.943 . S
O247 C246 1.249 . S
O248 Zn238 2.067 . S
O248 C246 1.270 . S
C249 O242 1.262 . S
C249 O250 1.232 . S
O250 C249 1.232 . S
C251 O243 1.260 . S
C251 O244 1.257 . S
C252 C253 1.560 . S
C252 H313 0.959 . S
C252 H314 0.959 . S
C252 H315 0.960 . S
C253 C252 1.560 . S
C253 O308 1.426 . S
C253 H312 0.980 . S
C254 C255 1.407 . S
C254 C259 1.418 . S
C254 O308 1.334 . S
C255 C254 1.407 . S
C255 C256 1.360 . S
C255 H316 0.929 . S
C256 C255 1.360 . S
C256 C257 1.401 . S
C256 C260 1.527 . S
C257 C256 1.401 . S
C257 C258 1.405 . S
C257 C290 1.587 . S
C258 C257 1.405 . S
C258 C259 1.332 . S
C258 C261 1.496 . S
C259 C254 1.418 . S
C259 C258 1.332 . S
C259 H317 0.929 . S
C260 C256 1.527 . S
C260 H318 0.959 . S
C260 H319 0.961 . S
C260 H320 0.961 . S
C261 C258 1.496 . S
C261 H321 0.960 . S
C261 H322 0.960 . S
C261 H323 0.961 . S
C262 C263 1.517 . S
C262 H325 0.961 . S
C262 H326 0.960 . S
C262 H327 0.959 . S
C263 C262 1.517 . S
C263 O311 1.468 . S
C263 H324 0.980 . S
C264 C265 1.349 . S
C264 C269 1.367 . S
C264 O311 1.408 . S
C265 C264 1.349 . S
C265 C266 1.407 . S
C265 H328 0.930 . S
C266 C265 1.407 . S
C266 C267 1.449 . S
C266 C270 1.535 . S
C267 C266 1.449 . S
C267 C268 1.384 . S
C267 C292 1.553 . S
C268 C267 1.384 . S
C268 C269 1.364 . S
C268 C271 1.450 . S
C269 C264 1.367 . S
C269 C268 1.364 . S
C269 H329 0.931 . S
C270 C266 1.535 . S
C270 H330 0.959 . S
C270 H331 0.961 . S
C270 H332 0.959 . S
C271 C268 1.450 . S
C271 H333 0.960 . S
C271 H334 0.960 . S
C271 H335 0.960 . S
C272 C273 1.309 . S
C272 C277 1.304 . S
C272 O310 1.435 . S
C273 C272 1.309 . S
C273 C274 1.476 . S
C273 H337 0.930 . S
C274 C273 1.476 . S
C274 C275 1.400 . S
C274 C278 1.567 . S
C275 C274 1.400 . S
C275 C276 1.373 . S
C275 C297 1.432 . S
C276 C275 1.373 . S
C276 C277 1.339 . S
C276 C279 1.530 . S
C277 C272 1.304 . S
C277 C276 1.339 . S
C277 H338 0.930 . S
C278 C274 1.567 . S
C278 H339 0.961 . S
C278 H340 0.960 . S
C278 H341 0.958 . S
C279 C276 1.530 . S
C279 H342 0.961 . S
C279 H343 0.960 . S
C279 H344 0.960 . S
C280 C281 1.530 . S
C280 H346 0.961 . S
C280 H347 0.961 . S
C280 H348 0.959 . S
C281 C280 1.530 . S
C281 O309 1.412 . S
C281 H345 0.980 . S
C282 C283 1.288 . S
C282 C287 1.377 . S
C282 O309 1.393 . S
C283 C282 1.288 . S
C283 C284 1.369 . S
C283 H349 0.932 . S
C284 C283 1.369 . S
C284 C285 1.398 . S
C284 C288 1.527 . S
C285 C284 1.398 . S
C285 C286 1.380 . S
C285 C299 1.497 . S
C286 C285 1.380 . S
C286 C287 1.383 . S
C286 C289 1.603 . S
C287 C282 1.377 . S
C287 C286 1.383 . S
C287 H350 0.929 . S
C288 C284 1.527 . S
C288 H351 0.961 . S
C288 H352 0.959 . S
C288 H353 0.959 . S
C289 C286 1.603 . S
C289 H354 0.960 . S
C289 H355 0.962 . S
C289 H356 0.961 . S
C290 C257 1.587 . S
C290 C291 1.360 . S
C290 C303 1.412 . S
C291 C290 1.360 . S
C291 C292 1.365 . S
C291 H357 0.929 . S
C292 C267 1.553 . S
C292 C291 1.365 . S
C292 C293 1.404 . S
C293 C292 1.404 . S
C293 C294 1.395 . S
C293 C304 1.451 . S
C294 C293 1.395 . S
C294 C295 1.322 . S
C294 H358 0.930 . S
C295 C294 1.322 . S
C295 C296 1.459 . S
C295 H359 0.929 . S
C296 C295 1.459 . S
C296 C297 1.445 . S
C296 C305 1.395 . S
C297 C275 1.432 . S
C297 C296 1.445 . S
C297 C298 1.370 . S
C298 C297 1.370 . S
C298 C299 1.438 . S
C298 H360 0.930 . S
C299 C285 1.497 . S
C299 C298 1.438 . S
C299 C300 1.360 . S
C300 C299 1.360 . S
C300 C301 1.401 . S
C300 C305 1.446 . S
C301 C300 1.401 . S
C301 C302 1.347 . S
C301 H361 0.929 . S
C302 C301 1.347 . S
C302 C303 1.455 . S
C302 H362 0.930 . S
C303 C290 1.412 . S
C303 C302 1.455 . S
C303 C304 1.331 . S
C304 C293 1.451 . S
C304 C303 1.331 . S
C304 C305 1.497 . S
C305 C296 1.395 . S
C305 C300 1.446 . S
C305 C304 1.497 . S
C306 C307 1.582 . S
C306 H363 0.962 . S
C306 H364 0.959 . S
C306 H365 0.958 . S
C307 C306 1.582 . S
C307 O310 1.458 . S
C307 H336 0.980 . S
O308 C253 1.426 . S
O308 C254 1.334 . S
O309 C281 1.412 . S
O309 C282 1.393 . S
O310 C272 1.435 . S
O310 C307 1.458 . S
O311 C263 1.468 . S
O311 C264 1.408 . S
H312 C253 0.980 . S
H313 C252 0.959 . S
H314 C252 0.959 . S
H315 C252 0.960 . S
H316 C255 0.929 . S
H317 C259 0.929 . S
H318 C260 0.959 . S
H319 C260 0.961 . S
H320 C260 0.961 . S
H321 C261 0.960 . S
H322 C261 0.960 . S
H323 C261 0.961 . S
H324 C263 0.980 . S
H325 C262 0.961 . S
H326 C262 0.960 . S
H327 C262 0.959 . S
H328 C265 0.930 . S
H329 C269 0.931 . S
H330 C270 0.959 . S
H331 C270 0.961 . S
H332 C270 0.959 . S
H333 C271 0.960 . S
H334 C271 0.960 . S
H335 C271 0.960 . S
H336 C307 0.980 . S
H337 C273 0.930 . S
H338 C277 0.930 . S
H339 C278 0.961 . S
H340 C278 0.960 . S
H341 C278 0.958 . S
H342 C279 0.961 . S
H343 C279 0.960 . S
H344 C279 0.960 . S
H345 C281 0.980 . S
H346 C280 0.961 . S
H347 C280 0.961 . S
H348 C280 0.959 . S
H349 C283 0.932 . S
H350 C287 0.929 . S
H351 C288 0.961 . S
H352 C288 0.959 . S
H353 C288 0.959 . S
H354 C289 0.960 . S
H355 C289 0.962 . S
H356 C289 0.961 . S
H357 C291 0.929 . S
H358 C294 0.930 . S
H359 C295 0.929 . S
H360 C298 0.930 . S
H361 C301 0.929 . S
H362 C302 0.930 . S
H363 C306 0.962 . S
H364 C306 0.959 . S
H365 C306 0.958 . S
C366 C367 1.560 . S
C366 H427 0.959 . S
C366 H428 0.959 . S
C366 H429 0.960 . S
C367 C366 1.560 . S
C367 O422 1.426 . S
C367 H426 0.980 . S
C368 C369 1.407 . S
C368 C373 1.418 . S
C368 O422 1.334 . S
C369 C368 1.407 . S
C369 C370 1.360 . S
C369 H430 0.929 . S
C370 C369 1.360 . S
C370 C371 1.401 . S
C370 C374 1.527 . S
C371 C370 1.401 . S
C371 C372 1.405 . S
C371 C404 1.587 . S
C372 C371 1.405 . S
C372 C373 1.332 . S
C372 C375 1.496 . S
C373 C368 1.418 . S
C373 C372 1.332 . S
C373 H431 0.929 . S
C374 C370 1.527 . S
C374 H432 0.959 . S
C374 H433 0.961 . S
C374 H434 0.961 . S
C375 C372 1.496 . S
C375 H435 0.960 . S
C375 H436 0.960 . S
C375 H437 0.961 . S
C376 C377 1.517 . S
C376 H439 0.961 . S
C376 H440 0.960 . S
C376 H441 0.959 . S
C377 C376 1.517 . S
C377 O425 1.468 . S
C377 H438 0.980 . S
C378 C379 1.349 . S
C378 C383 1.367 . S
C378 O425 1.408 . S
C379 C378 1.349 . S
C379 C380 1.407 . S
C379 H442 0.930 . S
C380 C379 1.407 . S
C380 C381 1.449 . S
C380 C384 1.535 . S
C381 C380 1.449 . S
C381 C382 1.384 . S
C381 C406 1.553 . S
C382 C381 1.384 . S
C382 C383 1.364 . S
C382 C385 1.450 . S
C383 C378 1.367 . S
C383 C382 1.364 . S
C383 H443 0.931 . S
C384 C380 1.535 . S
C384 H444 0.959 . S
C384 H445 0.961 . S
C384 H446 0.959 . S
C385 C382 1.450 . S
C385 H447 0.960 . S
C385 H448 0.960 . S
C385 H449 0.960 . S
C386 C387 1.309 . S
C386 C391 1.304 . S
C386 O424 1.435 . S
C387 C386 1.309 . S
C387 C388 1.476 . S
C387 H451 0.930 . S
C388 C387 1.476 . S
C388 C389 1.400 . S
C388 C392 1.567 . S
C389 C388 1.400 . S
C389 C390 1.373 . S
C389 C411 1.432 . S
C390 C389 1.373 . S
C390 C391 1.339 . S
C390 C393 1.530 . S
C391 C386 1.304 . S
C391 C390 1.339 . S
C391 H452 0.930 . S
C392 C388 1.567 . S
C392 H453 0.961 . S
C392 H454 0.960 . S
C392 H455 0.958 . S
C393 C390 1.530 . S
C393 H456 0.961 . S
C393 H457 0.960 . S
C393 H458 0.960 . S
C394 C395 1.530 . S
C394 H460 0.961 . S
C394 H461 0.961 . S
C394 H462 0.959 . S
C395 C394 1.530 . S
C395 O423 1.412 . S
C395 H459 0.980 . S
C396 C397 1.288 . S
C396 C401 1.377 . S
C396 O423 1.393 . S
C397 C396 1.288 . S
C397 C398 1.369 . S
C397 H463 0.932 . S
C398 C397 1.369 . S
C398 C399 1.398 . S
C398 C402 1.527 . S
C399 C398 1.398 . S
C399 C400 1.380 . S
C399 C413 1.497 . S
C400 C399 1.380 . S
C400 C401 1.383 . S
C400 C403 1.603 . S
C401 C396 1.377 . S
C401 C400 1.383 . S
C401 H464 0.929 . S
C402 C398 1.527 . S
C402 H465 0.961 . S
C402 H466 0.959 . S
C402 H467 0.959 . S
C403 C400 1.603 . S
C403 H468 0.960 . S
C403 H469 0.962 . S
C403 H470 0.961 . S
C404 C371 1.587 . S
C404 C405 1.360 . S
C404 C417 1.412 . S
C405 C404 1.360 . S
C405 C406 1.365 . S
C405 H471 0.929 . S
C406 C381 1.553 . S
C406 C405 1.365 . S
C406 C407 1.404 . S
C407 C406 1.404 . S
C407 C408 1.395 . S
C407 C418 1.451 . S
C408 C407 1.395 . S
C408 C409 1.322 . S
C408 H472 0.930 . S
C409 C408 1.322 . S
C409 C410 1.459 . S
C409 H473 0.929 . S
C410 C409 1.459 . S
C410 C411 1.445 . S
C410 C419 1.395 . S
C411 C389 1.432 . S
C411 C410 1.445 . S
C411 C412 1.370 . S
C412 C411 1.370 . S
C412 C413 1.438 . S
C412 H474 0.930 . S
C413 C399 1.497 . S
C413 C412 1.438 . S
C413 C414 1.360 . S
C414 C413 1.360 . S
C414 C415 1.401 . S
C414 C419 1.446 . S
C415 C414 1.401 . S
C415 C416 1.347 . S
C415 H475 0.929 . S
C416 C415 1.347 . S
C416 C417 1.455 . S
C416 H476 0.930 . S
C417 C404 1.412 . S
C417 C416 1.455 . S
C417 C418 1.331 . S
C418 C407 1.451 . S
C418 C417 1.331 . S
C418 C419 1.497 . S
C419 C410 1.395 . S
C419 C414 1.446 . S
C419 C418 1.497 . S
C420 C421 1.582 . S
C420 H477 0.962 . S
C420 H478 0.959 . S
C420 H479 0.958 . S
C421 C420 1.582 . S
C421 O424 1.458 . S
C421 H450 0.980 . S
O422 C367 1.426 . S
O422 C368 1.334 . S
O423 C395 1.412 . S
O423 C396 1.393 . S
O424 C386 1.435 . S
O424 C421 1.458 . S
O425 C377 1.468 . S
O425 C378 1.408 . S
H426 C367 0.980 . S
H427 C366 0.959 . S
H428 C366 0.959 . S
H429 C366 0.960 . S
H430 C369 0.929 . S
H431 C373 0.929 . S
H432 C374 0.959 . S
H433 C374 0.961 . S
H434 C374 0.961 . S
H435 C375 0.960 . S
H436 C375 0.960 . S
H437 C375 0.961 . S
H438 C377 0.980 . S
H439 C376 0.961 . S
H440 C376 0.960 . S
H441 C376 0.959 . S
H442 C379 0.930 . S
H443 C383 0.931 . S
H444 C384 0.959 . S
H445 C384 0.961 . S
H446 C384 0.959 . S
H447 C385 0.960 . S
H448 C385 0.960 . S
H449 C385 0.960 . S
H450 C421 0.980 . S
H451 C387 0.930 . S
H452 C391 0.930 . S
H453 C392 0.961 . S
H454 C392 0.960 . S
H455 C392 0.958 . S
H456 C393 0.961 . S
H457 C393 0.960 . S
H458 C393 0.960 . S
H459 C395 0.980 . S
H460 C394 0.961 . S
H461 C394 0.961 . S
H462 C394 0.959 . S
H463 C397 0.932 . S
H464 C401 0.929 . S
H465 C402 0.961 . S
H466 C402 0.959 . S
H467 C402 0.959 . S
H468 C403 0.960 . S
H469 C403 0.962 . S
H470 C403 0.961 . S
H471 C405 0.929 . S
H472 C408 0.930 . S
H473 C409 0.929 . S
H474 C412 0.930 . S
H475 C415 0.929 . S
H476 C416 0.930 . S
H477 C420 0.962 . S
H478 C420 0.959 . S
H479 C420 0.958 . S
C480 C481 1.560 . S
C480 H541 0.959 . S
C480 H542 0.959 . S
C480 H543 0.960 . S
C481 C480 1.560 . S
C481 O536 1.426 . S
C481 H540 0.980 . S
C482 C483 1.407 . S
C482 C487 1.418 . S
C482 O536 1.334 . S
C483 C482 1.407 . S
C483 C484 1.360 . S
C483 H544 0.929 . S
C484 C483 1.360 . S
C484 C485 1.401 . S
C484 C488 1.527 . S
C485 C484 1.401 . S
C485 C486 1.405 . S
C485 C518 1.587 . S
C486 C485 1.405 . S
C486 C487 1.332 . S
C486 C489 1.496 . S
C487 C482 1.418 . S
C487 C486 1.332 . S
C487 H545 0.929 . S
C488 C484 1.527 . S
C488 H546 0.959 . S
C488 H547 0.961 . S
C488 H548 0.961 . S
C489 C486 1.496 . S
C489 H549 0.960 . S
C489 H550 0.960 . S
C489 H551 0.961 . S
C490 C491 1.517 . S
C490 H553 0.961 . S
C490 H554 0.960 . S
C490 H555 0.959 . S
C491 C490 1.517 . S
C491 O539 1.468 . S
C491 H552 0.980 . S
C492 C493 1.349 . S
C492 C497 1.367 . S
C492 O539 1.408 . S
C493 C492 1.349 . S
C493 C494 1.407 . S
C493 H556 0.930 . S
C494 C493 1.407 . S
C494 C495 1.449 . S
C494 C498 1.535 . S
C495 C494 1.449 . S
C495 C496 1.384 . S
C495 C520 1.553 . S
C496 C495 1.384 . S
C496 C497 1.364 . S
C496 C499 1.450 . S
C497 C492 1.367 . S
C497 C496 1.364 . S
C497 H557 0.931 . S
C498 C494 1.535 . S
C498 H558 0.959 . S
C498 H559 0.961 . S
C498 H560 0.959 . S
C499 C496 1.450 . S
C499 H561 0.960 . S
C499 H562 0.960 . S
C499 H563 0.960 . S
C500 C501 1.309 . S
C500 C505 1.304 . S
C500 O538 1.435 . S
C501 C500 1.309 . S
C501 C502 1.476 . S
C501 H565 0.930 . S
C502 C501 1.476 . S
C502 C503 1.400 . S
C502 C506 1.567 . S
C503 C502 1.400 . S
C503 C504 1.373 . S
C503 C525 1.432 . S
C504 C503 1.373 . S
C504 C505 1.339 . S
C504 C507 1.530 . S
C505 C500 1.304 . S
C505 C504 1.339 . S
C505 H566 0.930 . S
C506 C502 1.567 . S
C506 H567 0.961 . S
C506 H568 0.960 . S
C506 H569 0.958 . S
C507 C504 1.530 . S
C507 H570 0.961 . S
C507 H571 0.960 . S
C507 H572 0.960 . S
C508 C509 1.530 . S
C508 H574 0.961 . S
C508 H575 0.961 . S
C508 H576 0.959 . S
C509 C508 1.530 . S
C509 O537 1.412 . S
C509 H573 0.980 . S
C510 C511 1.288 . S
C510 C515 1.377 . S
C510 O537 1.393 . S
C511 C510 1.288 . S
C511 C512 1.369 . S
C511 H577 0.932 . S
C512 C511 1.369 . S
C512 C513 1.398 . S
C512 C516 1.527 . S
C513 C512 1.398 . S
C513 C514 1.380 . S
C513 C527 1.497 . S
C514 C513 1.380 . S
C514 C515 1.383 . S
C514 C517 1.603 . S
C515 C510 1.377 . S
C515 C514 1.383 . S
C515 H578 0.929 . S
C516 C512 1.527 . S
C516 H579 0.961 . S
C516 H580 0.959 . S
C516 H581 0.959 . S
C517 C514 1.603 . S
C517 H582 0.960 . S
C517 H583 0.962 . S
C517 H584 0.961 . S
C518 C485 1.587 . S
C518 C519 1.360 . S
C518 C531 1.412 . S
C519 C518 1.360 . S
C519 C520 1.365 . S
C519 H585 0.929 . S
C520 C495 1.553 . S
C520 C519 1.365 . S
C520 C521 1.404 . S
C521 C520 1.404 . S
C521 C522 1.395 . S
C521 C532 1.451 . S
C522 C521 1.395 . S
C522 C523 1.322 . S
C522 H586 0.930 . S
C523 C522 1.322 . S
C523 C524 1.459 . S
C523 H587 0.929 . S
C524 C523 1.459 . S
C524 C525 1.445 . S
C524 C533 1.395 . S
C525 C503 1.432 . S
C525 C524 1.445 . S
C525 C526 1.370 . S
C526 C525 1.370 . S
C526 C527 1.438 . S
C526 H588 0.930 . S
C527 C513 1.497 . S
C527 C526 1.438 . S
C527 C528 1.360 . S
C528 C527 1.360 . S
C528 C529 1.401 . S
C528 C533 1.446 . S
C529 C528 1.401 . S
C529 C530 1.347 . S
C529 H589 0.929 . S
C530 C529 1.347 . S
C530 C531 1.455 . S
C530 H590 0.930 . S
C531 C518 1.412 . S
C531 C530 1.455 . S
C531 C532 1.331 . S
C532 C521 1.451 . S
C532 C531 1.331 . S
C532 C533 1.497 . S
C533 C524 1.395 . S
C533 C528 1.446 . S
C533 C532 1.497 . S
C534 C535 1.582 . S
C534 H591 0.962 . S
C534 H592 0.959 . S
C534 H593 0.958 . S
C535 C534 1.582 . S
C535 O538 1.458 . S
C535 H564 0.980 . S
O536 C481 1.426 . S
O536 C482 1.334 . S
O537 C509 1.412 . S
O537 C510 1.393 . S
O538 C500 1.435 . S
O538 C535 1.458 . S
O539 C491 1.468 . S
O539 C492 1.408 . S
H540 C481 0.980 . S
H541 C480 0.959 . S
H542 C480 0.959 . S
H543 C480 0.960 . S
H544 C483 0.929 . S
H545 C487 0.929 . S
H546 C488 0.959 . S
H547 C488 0.961 . S
H548 C488 0.961 . S
H549 C489 0.960 . S
H550 C489 0.960 . S
H551 C489 0.961 . S
H552 C491 0.980 . S
H553 C490 0.961 . S
H554 C490 0.960 . S
H555 C490 0.959 . S
H556 C493 0.930 . S
H557 C497 0.931 . S
H558 C498 0.959 . S
H559 C498 0.961 . S
H560 C498 0.959 . S
H561 C499 0.960 . S
H562 C499 0.960 . S
H563 C499 0.960 . S
H564 C535 0.980 . S
H565 C501 0.930 . S
H566 C505 0.930 . S
H567 C506 0.961 . S
H568 C506 0.960 . S
H569 C506 0.958 . S
H570 C507 0.961 . S
H571 C507 0.960 . S
H572 C507 0.960 . S
H573 C509 0.980 . S
H574 C508 0.961 . S
H575 C508 0.961 . S
H576 C508 0.959 . S
H577 C511 0.932 . S
H578 C515 0.929 . S
H579 C516 0.961 . S
H580 C516 0.959 . S
H581 C516 0.959 . S
H582 C517 0.960 . S
H583 C517 0.962 . S
H584 C517 0.961 . S
H585 C519 0.929 . S
H586 C522 0.930 . S
H587 C523 0.929 . S
H588 C526 0.930 . S
H589 C529 0.929 . S
H590 C530 0.930 . S
H591 C534 0.962 . S
H592 C534 0.959 . S
H593 C534 0.958 . S
C594 C595 1.560 . S
C594 H655 0.959 . S
C594 H656 0.959 . S
C594 H657 0.960 . S
C595 C594 1.560 . S
C595 O650 1.426 . S
C595 H654 0.980 . S
C596 C597 1.407 . S
C596 C601 1.418 . S
C596 O650 1.334 . S
C597 C596 1.407 . S
C597 C598 1.360 . S
C597 H658 0.929 . S
C598 C597 1.360 . S
C598 C599 1.401 . S
C598 C602 1.527 . S
C599 C598 1.401 . S
C599 C600 1.405 . S
C599 C632 1.587 . S
C600 C599 1.405 . S
C600 C601 1.332 . S
C600 C603 1.496 . S
C601 C596 1.418 . S
C601 C600 1.332 . S
C601 H659 0.929 . S
C602 C598 1.527 . S
C602 H660 0.959 . S
C602 H661 0.961 . S
C602 H662 0.961 . S
C603 C600 1.496 . S
C603 H663 0.960 . S
C603 H664 0.960 . S
C603 H665 0.961 . S
C604 C605 1.517 . S
C604 H667 0.961 . S
C604 H668 0.960 . S
C604 H669 0.959 . S
C605 C604 1.517 . S
C605 O653 1.468 . S
C605 H666 0.980 . S
C606 C607 1.349 . S
C606 C611 1.367 . S
C606 O653 1.408 . S
C607 C606 1.349 . S
C607 C608 1.407 . S
C607 H670 0.930 . S
C608 C607 1.407 . S
C608 C609 1.449 . S
C608 C612 1.535 . S
C609 C608 1.449 . S
C609 C610 1.384 . S
C609 C634 1.553 . S
C610 C609 1.384 . S
C610 C611 1.364 . S
C610 C613 1.450 . S
C611 C606 1.367 . S
C611 C610 1.364 . S
C611 H671 0.931 . S
C612 C608 1.535 . S
C612 H672 0.959 . S
C612 H673 0.961 . S
C612 H674 0.959 . S
C613 C610 1.450 . S
C613 H675 0.960 . S
C613 H676 0.960 . S
C613 H677 0.960 . S
C614 C615 1.309 . S
C614 C619 1.304 . S
C614 O652 1.435 . S
C615 C614 1.309 . S
C615 C616 1.476 . S
C615 H679 0.930 . S
C616 C615 1.476 . S
C616 C617 1.400 . S
C616 C620 1.567 . S
C617 C616 1.400 . S
C617 C618 1.373 . S
C617 C639 1.432 . S
C618 C617 1.373 . S
C618 C619 1.339 . S
C618 C621 1.530 . S
C619 C614 1.304 . S
C619 C618 1.339 . S
C619 H680 0.930 . S
C620 C616 1.567 . S
C620 H681 0.961 . S
C620 H682 0.960 . S
C620 H683 0.958 . S
C621 C618 1.530 . S
C621 H684 0.961 . S
C621 H685 0.960 . S
C621 H686 0.960 . S
C622 C623 1.530 . S
C622 H688 0.961 . S
C622 H689 0.961 . S
C622 H690 0.959 . S
C623 C622 1.530 . S
C623 O651 1.412 . S
C623 H687 0.980 . S
C624 C625 1.288 . S
C624 C629 1.377 . S
C624 O651 1.393 . S
C625 C624 1.288 . S
C625 C626 1.369 . S
C625 H691 0.932 . S
C626 C625 1.369 . S
C626 C627 1.398 . S
C626 C630 1.527 . S
C627 C626 1.398 . S
C627 C628 1.380 . S
C627 C641 1.497 . S
C628 C627 1.380 . S
C628 C629 1.383 . S
C628 C631 1.603 . S
C629 C624 1.377 . S
C629 C628 1.383 . S
C629 H692 0.929 . S
C630 C626 1.527 . S
C630 H693 0.961 . S
C630 H694 0.959 . S
C630 H695 0.959 . S
C631 C628 1.603 . S
C631 H696 0.960 . S
C631 H697 0.962 . S
C631 H698 0.961 . S
C632 C599 1.587 . S
C632 C633 1.360 . S
C632 C645 1.412 . S
C633 C632 1.360 . S
C633 C634 1.365 . S
C633 H699 0.929 . S
C634 C609 1.553 . S
C634 C633 1.365 . S
C634 C635 1.404 . S
C635 C634 1.404 . S
C635 C636 1.395 . S
C635 C646 1.451 . S
C636 C635 1.395 . S
C636 C637 1.322 . S
C636 H700 0.930 . S
C637 C636 1.322 . S
C637 C638 1.459 . S
C637 H701 0.929 . S
C638 C637 1.459 . S
C638 C639 1.445 . S
C638 C647 1.395 . S
C639 C617 1.432 . S
C639 C638 1.445 . S
C639 C640 1.370 . S
C640 C639 1.370 . S
C640 C641 1.438 . S
C640 H702 0.930 . S
C641 C627 1.497 . S
C641 C640 1.438 . S
C641 C642 1.360 . S
C642 C641 1.360 . S
C642 C643 1.401 . S
C642 C647 1.446 . S
C643 C642 1.401 . S
C643 C644 1.347 . S
C643 H703 0.929 . S
C644 C643 1.347 . S
C644 C645 1.455 . S
C644 H704 0.930 . S
C645 C632 1.412 . S
C645 C644 1.455 . S
C645 C646 1.331 . S
C646 C635 1.451 . S
C646 C645 1.331 . S
C646 C647 1.497 . S
C647 C638 1.395 . S
C647 C642 1.446 . S
C647 C646 1.497 . S
C648 C649 1.582 . S
C648 H705 0.962 . S
C648 H706 0.959 . S
C648 H707 0.958 . S
C649 C648 1.582 . S
C649 O652 1.458 . S
C649 H678 0.980 . S
O650 C595 1.426 . S
O650 C596 1.334 . S
O651 C623 1.412 . S
O651 C624 1.393 . S
O652 C614 1.435 . S
O652 C649 1.458 . S
O653 C605 1.468 . S
O653 C606 1.408 . S
H654 C595 0.980 . S
H655 C594 0.959 . S
H656 C594 0.959 . S
H657 C594 0.960 . S
H658 C597 0.929 . S
H659 C601 0.929 . S
H660 C602 0.959 . S
H661 C602 0.961 . S
H662 C602 0.961 . S
H663 C603 0.960 . S
H664 C603 0.960 . S
H665 C603 0.961 . S
H666 C605 0.980 . S
H667 C604 0.961 . S
H668 C604 0.960 . S
H669 C604 0.959 . S
H670 C607 0.930 . S
H671 C611 0.931 . S
H672 C612 0.959 . S
H673 C612 0.961 . S
H674 C612 0.959 . S
H675 C613 0.960 . S
H676 C613 0.960 . S
H677 C613 0.960 . S
H678 C649 0.980 . S
H679 C615 0.930 . S
H680 C619 0.930 . S
H681 C620 0.961 . S
H682 C620 0.960 . S
H683 C620 0.958 . S
H684 C621 0.961 . S
H685 C621 0.960 . S
H686 C621 0.960 . S
H687 C623 0.980 . S
H688 C622 0.961 . S
H689 C622 0.961 . S
H690 C622 0.959 . S
H691 C625 0.932 . S
H692 C629 0.929 . S
H693 C630 0.961 . S
H694 C630 0.959 . S
H695 C630 0.959 . S
H696 C631 0.960 . S
H697 C631 0.962 . S
H698 C631 0.961 . S
H699 C633 0.929 . S
H700 C636 0.930 . S
H701 C637 0.929 . S
H702 C640 0.930 . S
H703 C643 0.929 . S
H704 C644 0.930 . S
H705 C648 0.962 . S
H706 C648 0.959 . S
H707 C648 0.958 . S
C708 C709 1.560 . S
C708 H769 0.959 . S
C708 H770 0.959 . S
C708 H771 0.960 . S
C709 C708 1.560 . S
C709 O764 1.426 . S
C709 H768 0.980 . S
C710 C711 1.407 . S
C710 C715 1.418 . S
C710 O764 1.334 . S
C711 C710 1.407 . S
C711 C712 1.360 . S
C711 H772 0.929 . S
C712 C711 1.360 . S
C712 C713 1.401 . S
C712 C716 1.527 . S
C713 C712 1.401 . S
C713 C714 1.405 . S
C713 C746 1.587 . S
C714 C713 1.405 . S
C714 C715 1.332 . S
C714 C717 1.496 . S
C715 C710 1.418 . S
C715 C714 1.332 . S
C715 H773 0.929 . S
C716 C712 1.527 . S
C716 H774 0.959 . S
C716 H775 0.961 . S
C716 H776 0.961 . S
C717 C714 1.496 . S
C717 H777 0.960 . S
C717 H778 0.960 . S
C717 H779 0.961 . S
C718 C719 1.517 . S
C718 H781 0.961 . S
C718 H782 0.960 . S
C718 H783 0.959 . S
C719 C718 1.517 . S
C719 O767 1.468 . S
C719 H780 0.980 . S
C720 C721 1.349 . S
C720 C725 1.367 . S
C720 O767 1.408 . S
C721 C720 1.349 . S
C721 C722 1.407 . S
C721 H784 0.930 . S
C722 C721 1.407 . S
C722 C723 1.449 . S
C722 C726 1.535 . S
C723 C722 1.449 . S
C723 C724 1.384 . S
C723 C748 1.553 . S
C724 C723 1.384 . S
C724 C725 1.364 . S
C724 C727 1.450 . S
C725 C720 1.367 . S
C725 C724 1.364 . S
C725 H785 0.931 . S
C726 C722 1.535 . S
C726 H786 0.959 . S
C726 H787 0.961 . S
C726 H788 0.959 . S
C727 C724 1.450 . S
C727 H789 0.960 . S
C727 H790 0.960 . S
C727 H791 0.960 . S
C728 C729 1.309 . S
C728 C733 1.304 . S
C728 O766 1.435 . S
C729 C728 1.309 . S
C729 C730 1.476 . S
C729 H793 0.930 . S
C730 C729 1.476 . S
C730 C731 1.400 . S
C730 C734 1.567 . S
C731 C730 1.400 . S
C731 C732 1.373 . S
C731 C753 1.432 . S
C732 C731 1.373 . S
C732 C733 1.339 . S
C732 C735 1.530 . S
C733 C728 1.304 . S
C733 C732 1.339 . S
C733 H794 0.930 . S
C734 C730 1.567 . S
C734 H795 0.961 . S
C734 H796 0.960 . S
C734 H797 0.958 . S
C735 C732 1.530 . S
C735 H798 0.961 . S
C735 H799 0.960 . S
C735 H800 0.960 . S
C736 C737 1.530 . S
C736 H802 0.961 . S
C736 H803 0.961 . S
C736 H804 0.959 . S
C737 C736 1.530 . S
C737 O765 1.412 . S
C737 H801 0.980 . S
C738 C739 1.288 . S
C738 C743 1.377 . S
C738 O765 1.393 . S
C739 C738 1.288 . S
C739 C740 1.369 . S
C739 H805 0.932 . S
C740 C739 1.369 . S
C740 C741 1.398 . S
C740 C744 1.527 . S
C741 C740 1.398 . S
C741 C742 1.380 . S
C741 C755 1.497 . S
C742 C741 1.380 . S
C742 C743 1.383 . S
C742 C745 1.603 . S
C743 C738 1.377 . S
C743 C742 1.383 . S
C743 H806 0.929 . S
C744 C740 1.527 . S
C744 H807 0.961 . S
C744 H808 0.959 . S
C744 H809 0.959 . S
C745 C742 1.603 . S
C745 H810 0.960 . S
C745 H811 0.962 . S
C745 H812 0.961 . S
C746 C713 1.587 . S
C746 C747 1.360 . S
C746 C759 1.412 . S
C747 C746 1.360 . S
C747 C748 1.365 . S
C747 H813 0.929 . S
C748 C723 1.553 . S
C748 C747 1.365 . S
C748 C749 1.404 . S
C749 C748 1.404 . S
C749 C750 1.395 . S
C749 C760 1.451 . S
C750 C749 1.395 . S
C750 C751 1.322 . S
C750 H814 0.930 . S
C751 C750 1.322 . S
C751 C752 1.459 . S
C751 H815 0.929 . S
C752 C751 1.459 . S
C752 C753 1.445 . S
C752 C761 1.395 . S
C753 C731 1.432 . S
C753 C752 1.445 . S
C753 C754 1.370 . S
C754 C753 1.370 . S
C754 C755 1.438 . S
C754 H816 0.930 . S
C755 C741 1.497 . S
C755 C754 1.438 . S
C755 C756 1.360 . S
C756 C755 1.360 . S
C756 C757 1.401 . S
C756 C761 1.446 . S
C757 C756 1.401 . S
C757 C758 1.347 . S
C757 H817 0.929 . S
C758 C757 1.347 . S
C758 C759 1.455 . S
C758 H818 0.930 . S
C759 C746 1.412 . S
C759 C758 1.455 . S
C759 C760 1.331 . S
C760 C749 1.451 . S
C760 C759 1.331 . S
C760 C761 1.497 . S
C761 C752 1.395 . S
C761 C756 1.446 . S
C761 C760 1.497 . S
C762 C763 1.582 . S
C762 H819 0.962 . S
C762 H820 0.959 . S
C762 H821 0.958 . S
C763 C762 1.582 . S
C763 O766 1.458 . S
C763 H792 0.980 . S
O764 C709 1.426 . S
O764 C710 1.334 . S
O765 C737 1.412 . S
O765 C738 1.393 . S
O766 C728 1.435 . S
O766 C763 1.458 . S
O767 C719 1.468 . S
O767 C720 1.408 . S
H768 C709 0.980 . S
H769 C708 0.959 . S
H770 C708 0.959 . S
H771 C708 0.960 . S
H772 C711 0.929 . S
H773 C715 0.929 . S
H774 C716 0.959 . S
H775 C716 0.961 . S
H776 C716 0.961 . S
H777 C717 0.960 . S
H778 C717 0.960 . S
H779 C717 0.961 . S
H780 C719 0.980 . S
H781 C718 0.961 . S
H782 C718 0.960 . S
H783 C718 0.959 . S
H784 C721 0.930 . S
H785 C725 0.931 . S
H786 C726 0.959 . S
H787 C726 0.961 . S
H788 C726 0.959 . S
H789 C727 0.960 . S
H790 C727 0.960 . S
H791 C727 0.960 . S
H792 C763 0.980 . S
H793 C729 0.930 . S
H794 C733 0.930 . S
H795 C734 0.961 . S
H796 C734 0.960 . S
H797 C734 0.958 . S
H798 C735 0.961 . S
H799 C735 0.960 . S
H800 C735 0.960 . S
H801 C737 0.980 . S
H802 C736 0.961 . S
H803 C736 0.961 . S
H804 C736 0.959 . S
H805 C739 0.932 . S
H806 C743 0.929 . S
H807 C744 0.961 . S
H808 C744 0.959 . S
H809 C744 0.959 . S
H810 C745 0.960 . S
H811 C745 0.962 . S
H812 C745 0.961 . S
H813 C747 0.929 . S
H814 C750 0.930 . S
H815 C751 0.929 . S
H816 C754 0.930 . S
H817 C757 0.929 . S
H818 C758 0.930 . S
H819 C762 0.962 . S
H820 C762 0.959 . S
H821 C762 0.958 . S
C822 C823 1.560 . S
C822 H883 0.959 . S
C822 H884 0.959 . S
C822 H885 0.960 . S
C823 C822 1.560 . S
C823 O878 1.426 . S
C823 H882 0.980 . S
C824 C825 1.407 . S
C824 C829 1.418 . S
C824 O878 1.334 . S
C825 C824 1.407 . S
C825 C826 1.360 . S
C825 H886 0.929 . S
C826 C825 1.360 . S
C826 C827 1.401 . S
C826 C830 1.527 . S
C827 C826 1.401 . S
C827 C828 1.405 . S
C827 C860 1.587 . S
C828 C827 1.405 . S
C828 C829 1.332 . S
C828 C831 1.496 . S
C829 C824 1.418 . S
C829 C828 1.332 . S
C829 H887 0.929 . S
C830 C826 1.527 . S
C830 H888 0.959 . S
C830 H889 0.961 . S
C830 H890 0.961 . S
C831 C828 1.496 . S
C831 H891 0.960 . S
C831 H892 0.960 . S
C831 H893 0.961 . S
C832 C833 1.517 . S
C832 H895 0.961 . S
C832 H896 0.960 . S
C832 H897 0.959 . S
C833 C832 1.517 . S
C833 O881 1.468 . S
C833 H894 0.980 . S
C834 C835 1.349 . S
C834 C839 1.367 . S
C834 O881 1.408 . S
C835 C834 1.349 . S
C835 C836 1.407 . S
C835 H898 0.930 . S
C836 C835 1.407 . S
C836 C837 1.449 . S
C836 C840 1.535 . S
C837 C836 1.449 . S
C837 C838 1.384 . S
C837 C862 1.553 . S
C838 C837 1.384 . S
C838 C839 1.364 . S
C838 C841 1.450 . S
C839 C834 1.367 . S
C839 C838 1.364 . S
C839 H899 0.931 . S
C840 C836 1.535 . S
C840 H900 0.959 . S
C840 H901 0.961 . S
C840 H902 0.959 . S
C841 C838 1.450 . S
C841 H903 0.960 . S
C841 H904 0.960 . S
C841 H905 0.960 . S
C842 C843 1.309 . S
C842 C847 1.304 . S
C842 O880 1.435 . S
C843 C842 1.309 . S
C843 C844 1.476 . S
C843 H907 0.930 . S
C844 C843 1.476 . S
C844 C845 1.400 . S
C844 C848 1.567 . S
C845 C844 1.400 . S
C845 C846 1.373 . S
C845 C867 1.432 . S
C846 C845 1.373 . S
C846 C847 1.339 . S
C846 C849 1.530 . S
C847 C842 1.304 . S
C847 C846 1.339 . S
C847 H908 0.930 . S
C848 C844 1.567 . S
C848 H909 0.961 . S
C848 H910 0.960 . S
C848 H911 0.958 . S
C849 C846 1.530 . S
C849 H912 0.961 . S
C849 H913 0.960 . S
C849 H914 0.960 . S
C850 C851 1.530 . S
C850 H916 0.961 . S
C850 H917 0.961 . S
C850 H918 0.959 . S
C851 C850 1.530 . S
C851 O879 1.412 . S
C851 H915 0.980 . S
C852 C853 1.288 . S
C852 C857 1.377 . S
C852 O879 1.393 . S
C853 C852 1.288 . S
C853 C854 1.369 . S
C853 H919 0.932 . S
C854 C853 1.369 . S
C854 C855 1.398 . S
C854 C858 1.527 . S
C855 C854 1.398 . S
C855 C856 1.380 . S
C855 C869 1.497 . S
C856 C855 1.380 . S
C856 C857 1.383 . S
C856 C859 1.603 . S
C857 C852 1.377 . S
C857 C856 1.383 . S
C857 H920 0.929 . S
C858 C854 1.527 . S
C858 H921 0.961 . S
C858 H922 0.959 . S
C858 H923 0.959 . S
C859 C856 1.603 . S
C859 H924 0.960 . S
C859 H925 0.962 . S
C859 H926 0.961 . S
C860 C827 1.587 . S
C860 C861 1.360 . S
C860 C873 1.412 . S
C861 C860 1.360 . S
C861 C862 1.365 . S
C861 H927 0.929 . S
C862 C837 1.553 . S
C862 C861 1.365 . S
C862 C863 1.404 . S
C863 C862 1.404 . S
C863 C864 1.395 . S
C863 C874 1.451 . S
C864 C863 1.395 . S
C864 C865 1.322 . S
C864 H928 0.930 . S
C865 C864 1.322 . S
C865 C866 1.459 . S
C865 H929 0.929 . S
C866 C865 1.459 . S
C866 C867 1.445 . S
C866 C875 1.395 . S
C867 C845 1.432 . S
C867 C866 1.445 . S
C867 C868 1.370 . S
C868 C867 1.370 . S
C868 C869 1.438 . S
C868 H930 0.930 . S
C869 C855 1.497 . S
C869 C868 1.438 . S
C869 C870 1.360 . S
C870 C869 1.360 . S
C870 C871 1.401 . S
C870 C875 1.446 . S
C871 C870 1.401 . S
C871 C872 1.347 . S
C871 H931 0.929 . S
C872 C871 1.347 . S
C872 C873 1.455 . S
C872 H932 0.930 . S
C873 C860 1.412 . S
C873 C872 1.455 . S
C873 C874 1.331 . S
C874 C863 1.451 . S
C874 C873 1.331 . S
C874 C875 1.497 . S
C875 C866 1.395 . S
C875 C870 1.446 . S
C875 C874 1.497 . S
C876 C877 1.582 . S
C876 H933 0.962 . S
C876 H934 0.959 . S
C876 H935 0.958 . S
C877 C876 1.582 . S
C877 O880 1.458 . S
C877 H906 0.980 . S
O878 C823 1.426 . S
O878 C824 1.334 . S
O879 C851 1.412 . S
O879 C852 1.393 . S
O880 C842 1.435 . S
O880 C877 1.458 . S
O881 C833 1.468 . S
O881 C834 1.408 . S
H882 C823 0.980 . S
H883 C822 0.959 . S
H884 C822 0.959 . S
H885 C822 0.960 . S
H886 C825 0.929 . S
H887 C829 0.929 . S
H888 C830 0.959 . S
H889 C830 0.961 . S
H890 C830 0.961 . S
H891 C831 0.960 . S
H892 C831 0.960 . S
H893 C831 0.961 . S
H894 C833 0.980 . S
H895 C832 0.961 . S
H896 C832 0.960 . S
H897 C832 0.959 . S
H898 C835 0.930 . S
H899 C839 0.931 . S
H900 C840 0.959 . S
H901 C840 0.961 . S
H902 C840 0.959 . S
H903 C841 0.960 . S
H904 C841 0.960 . S
H905 C841 0.960 . S
H906 C877 0.980 . S
H907 C843 0.930 . S
H908 C847 0.930 . S
H909 C848 0.961 . S
H910 C848 0.960 . S
H911 C848 0.958 . S
H912 C849 0.961 . S
H913 C849 0.960 . S
H914 C849 0.960 . S
H915 C851 0.980 . S
H916 C850 0.961 . S
H917 C850 0.961 . S
H918 C850 0.959 . S
H919 C853 0.932 . S
H920 C857 0.929 . S
H921 C858 0.961 . S
H922 C858 0.959 . S
H923 C858 0.959 . S
H924 C859 0.960 . S
H925 C859 0.962 . S
H926 C859 0.961 . S
H927 C861 0.929 . S
H928 C864 0.930 . S
H929 C865 0.929 . S
H930 C868 0.930 . S
H931 C871 0.929 . S
H932 C872 0.930 . S
H933 C876 0.962 . S
H934 C876 0.959 . S
H935 C876 0.958 . S
C936 C937 1.560 . S
C936 H997 0.959 . S
C936 H998 0.959 . S
C936 H999 0.960 . S
C937 C936 1.560 . S
C937 O992 1.426 . S
C937 H996 0.980 . S
C938 C939 1.407 . S
C938 C943 1.418 . S
C938 O992 1.334 . S
C939 C938 1.407 . S
C939 C940 1.360 . S
C939 H1000 0.929 . S
C940 C939 1.360 . S
C940 C941 1.401 . S
C940 C944 1.527 . S
C941 C940 1.401 . S
C941 C942 1.405 . S
C941 C974 1.587 . S
C942 C941 1.405 . S
C942 C943 1.332 . S
C942 C945 1.496 . S
C943 C938 1.418 . S
C943 C942 1.332 . S
C943 H1001 0.929 . S
C944 C940 1.527 . S
C944 H1002 0.959 . S
C944 H1003 0.961 . S
C944 H1004 0.961 . S
C945 C942 1.496 . S
C945 H1005 0.960 . S
C945 H1006 0.960 . S
C945 H1007 0.961 . S
C946 C947 1.517 . S
C946 H1009 0.961 . S
C946 H1010 0.960 . S
C946 H1011 0.959 . S
C947 C946 1.517 . S
C947 O995 1.468 . S
C947 H1008 0.980 . S
C948 C949 1.349 . S
C948 C953 1.367 . S
C948 O995 1.408 . S
C949 C948 1.349 . S
C949 C950 1.407 . S
C949 H1012 0.930 . S
C950 C949 1.407 . S
C950 C951 1.449 . S
C950 C954 1.535 . S
C951 C950 1.449 . S
C951 C952 1.384 . S
C951 C976 1.553 . S
C952 C951 1.384 . S
C952 C953 1.364 . S
C952 C955 1.450 . S
C953 C948 1.367 . S
C953 C952 1.364 . S
C953 H1013 0.931 . S
C954 C950 1.535 . S
C954 H1014 0.959 . S
C954 H1015 0.961 . S
C954 H1016 0.959 . S
C955 C952 1.450 . S
C955 H1017 0.960 . S
C955 H1018 0.960 . S
C955 H1019 0.960 . S
C956 C957 1.309 . S
C956 C961 1.304 . S
C956 O994 1.435 . S
C957 C956 1.309 . S
C957 C958 1.476 . S
C957 H1021 0.930 . S
C958 C957 1.476 . S
C958 C959 1.400 . S
C958 C962 1.567 . S
C959 C958 1.400 . S
C959 C960 1.373 . S
C959 C981 1.432 . S
C960 C959 1.373 . S
C960 C961 1.339 . S
C960 C963 1.530 . S
C961 C956 1.304 . S
C961 C960 1.339 . S
C961 H1022 0.930 . S
C962 C958 1.567 . S
C962 H1023 0.961 . S
C962 H1024 0.960 . S
C962 H1025 0.958 . S
C963 C960 1.530 . S
C963 H1026 0.961 . S
C963 H1027 0.960 . S
C963 H1028 0.960 . S
C964 C965 1.530 . S
C964 H1030 0.961 . S
C964 H1031 0.961 . S
C964 H1032 0.959 . S
C965 C964 1.530 . S
C965 O993 1.412 . S
C965 H1029 0.980 . S
C966 C967 1.288 . S
C966 C971 1.377 . S
C966 O993 1.393 . S
C967 C966 1.288 . S
C967 C968 1.369 . S
C967 H1033 0.932 . S
C968 C967 1.369 . S
C968 C969 1.398 . S
C968 C972 1.527 . S
C969 C968 1.398 . S
C969 C970 1.380 . S
C969 C983 1.497 . S
C970 C969 1.380 . S
C970 C971 1.383 . S
C970 C973 1.603 . S
C971 C966 1.377 . S
C971 C970 1.383 . S
C971 H1034 0.929 . S
C972 C968 1.527 . S
C972 H1035 0.961 . S
C972 H1036 0.959 . S
C972 H1037 0.959 . S
C973 C970 1.603 . S
C973 H1038 0.960 . S
C973 H1039 0.962 . S
C973 H1040 0.961 . S
C974 C941 1.587 . S
C974 C975 1.360 . S
C974 C987 1.412 . S
C975 C974 1.360 . S
C975 C976 1.365 . S
C975 H1041 0.929 . S
C976 C951 1.553 . S
C976 C975 1.365 . S
C976 C977 1.404 . S
C977 C976 1.404 . S
C977 C978 1.395 . S
C977 C988 1.451 . S
C978 C977 1.395 . S
C978 C979 1.322 . S
C978 H1042 0.930 . S
C979 C978 1.322 . S
C979 C980 1.459 . S
C979 H1043 0.929 . S
C980 C979 1.459 . S
C980 C981 1.445 . S
C980 C989 1.395 . S
C981 C959 1.432 . S
C981 C980 1.445 . S
C981 C982 1.370 . S
C982 C981 1.370 . S
C982 C983 1.438 . S
C982 H1044 0.930 . S
C983 C969 1.497 . S
C983 C982 1.438 . S
C983 C984 1.360 . S
C984 C983 1.360 . S
C984 C985 1.401 . S
C984 C989 1.446 . S
C985 C984 1.401 . S
C985 C986 1.347 . S
C985 H1045 0.929 . S
C986 C985 1.347 . S
C986 C987 1.455 . S
C986 H1046 0.930 . S
C987 C974 1.412 . S
C987 C986 1.455 . S
C987 C988 1.331 . S
C988 C977 1.451 . S
C988 C987 1.331 . S
C988 C989 1.497 . S
C989 C980 1.395 . S
C989 C984 1.446 . S
C989 C988 1.497 . S
C990 C991 1.582 . S
C990 H1047 0.962 . S
C990 H1048 0.959 . S
C990 H1049 0.958 . S
C991 C990 1.582 . S
C991 O994 1.458 . S
C991 H1020 0.980 . S
O992 C937 1.426 . S
O992 C938 1.334 . S
O993 C965 1.412 . S
O993 C966 1.393 . S
O994 C956 1.435 . S
O994 C991 1.458 . S
O995 C947 1.468 . S
O995 C948 1.408 . S
H996 C937 0.980 . S
H997 C936 0.959 . S
H998 C936 0.959 . S
H999 C936 0.960 . S
H1000 C939 0.929 . S
H1001 C943 0.929 . S
H1002 C944 0.959 . S
H1003 C944 0.961 . S
H1004 C944 0.961 . S
H1005 C945 0.960 . S
H1006 C945 0.960 . S
H1007 C945 0.961 . S
H1008 C947 0.980 . S
H1009 C946 0.961 . S
H1010 C946 0.960 . S
H1011 C946 0.959 . S
H1012 C949 0.930 . S
H1013 C953 0.931 . S
H1014 C954 0.959 . S
H1015 C954 0.961 . S
H1016 C954 0.959 . S
H1017 C955 0.960 . S
H1018 C955 0.960 . S
H1019 C955 0.960 . S
H1020 C991 0.980 . S
H1021 C957 0.930 . S
H1022 C961 0.930 . S
H1023 C962 0.961 . S
H1024 C962 0.960 . S
H1025 C962 0.958 . S
H1026 C963 0.961 . S
H1027 C963 0.960 . S
H1028 C963 0.960 . S
H1029 C965 0.980 . S
H1030 C964 0.961 . S
H1031 C964 0.961 . S
H1032 C964 0.959 . S
H1033 C967 0.932 . S
H1034 C971 0.929 . S
H1035 C972 0.961 . S
H1036 C972 0.959 . S
H1037 C972 0.959 . S
H1038 C973 0.960 . S
H1039 C973 0.962 . S
H1040 C973 0.961 . S
H1041 C975 0.929 . S
H1042 C978 0.930 . S
H1043 C979 0.929 . S
H1044 C982 0.930 . S
H1045 C985 0.929 . S
H1046 C986 0.930 . S
H1047 C990 0.962 . S
H1048 C990 0.959 . S
H1049 C990 0.958 . S
C1050 C1051 1.560 . S
C1050 H1111 0.959 . S
C1050 H1112 0.959 . S
C1050 H1113 0.960 . S
C1051 C1050 1.560 . S
C1051 O1106 1.426 . S
C1051 H1110 0.980 . S
C1052 C1053 1.407 . S
C1052 C1057 1.418 . S
C1052 O1106 1.334 . S
C1053 C1052 1.407 . S
C1053 C1054 1.360 . S
C1053 H1114 0.929 . S
C1054 C1053 1.360 . S
C1054 C1055 1.401 . S
C1054 C1058 1.527 . S
C1055 C1054 1.401 . S
C1055 C1056 1.405 . S
C1055 C1088 1.587 . S
C1056 C1055 1.405 . S
C1056 C1057 1.332 . S
C1056 C1059 1.496 . S
C1057 C1052 1.418 . S
C1057 C1056 1.332 . S
C1057 H1115 0.929 . S
C1058 C1054 1.527 . S
C1058 H1116 0.959 . S
C1058 H1117 0.961 . S
C1058 H1118 0.961 . S
C1059 C1056 1.496 . S
C1059 H1119 0.960 . S
C1059 H1120 0.960 . S
C1059 H1121 0.961 . S
C1060 C1061 1.517 . S
C1060 H1123 0.961 . S
C1060 H1124 0.960 . S
C1060 H1125 0.959 . S
C1061 C1060 1.517 . S
C1061 O1109 1.468 . S
C1061 H1122 0.980 . S
C1062 C1063 1.349 . S
C1062 C1067 1.367 . S
C1062 O1109 1.408 . S
C1063 C1062 1.349 . S
C1063 C1064 1.407 . S
C1063 H1126 0.930 . S
C1064 C1063 1.407 . S
C1064 C1065 1.449 . S
C1064 C1068 1.535 . S
C1065 C1064 1.449 . S
C1065 C1066 1.384 . S
C1065 C1090 1.553 . S
C1066 C1065 1.384 . S
C1066 C1067 1.364 . S
C1066 C1069 1.450 . S
C1067 C1062 1.367 . S
C1067 C1066 1.364 . S
C1067 H1127 0.931 . S
C1068 C1064 1.535 . S
C1068 H1128 0.959 . S
C1068 H1129 0.961 . S
C1068 H1130 0.959 . S
C1069 C1066 1.450 . S
C1069 H1131 0.960 . S
C1069 H1132 0.960 . S
C1069 H1133 0.960 . S
C1070 C1071 1.309 . S
C1070 C1075 1.304 . S
C1070 O1108 1.435 . S
C1071 C1070 1.309 . S
C1071 C1072 1.476 . S
C1071 H1135 0.930 . S
C1072 C1071 1.476 . S
C1072 C1073 1.400 . S
C1072 C1076 1.567 . S
C1073 C1072 1.400 . S
C1073 C1074 1.373 . S
C1073 C1095 1.432 . S
C1074 C1073 1.373 . S
C1074 C1075 1.339 . S
C1074 C1077 1.530 . S
C1075 C1070 1.304 . S
C1075 C1074 1.339 . S
C1075 H1136 0.930 . S
C1076 C1072 1.567 . S
C1076 H1137 0.961 . S
C1076 H1138 0.960 . S
C1076 H1139 0.958 . S
C1077 C1074 1.530 . S
C1077 H1140 0.961 . S
C1077 H1141 0.960 . S
C1077 H1142 0.960 . S
C1078 C1079 1.530 . S
C1078 H1144 0.961 . S
C1078 H1145 0.961 . S
C1078 H1146 0.959 . S
C1079 C1078 1.530 . S
C1079 O1107 1.412 . S
C1079 H1143 0.980 . S
C1080 C1081 1.288 . S
C1080 C1085 1.377 . S
C1080 O1107 1.393 . S
C1081 C1080 1.288 . S
C1081 C1082 1.369 . S
C1081 H1147 0.932 . S
C1082 C1081 1.369 . S
C1082 C1083 1.398 . S
C1082 C1086 1.527 . S
C1083 C1082 1.398 . S
C1083 C1084 1.380 . S
C1083 C1097 1.497 . S
C1084 C1083 1.380 . S
C1084 C1085 1.383 . S
C1084 C1087 1.603 . S
C1085 C1080 1.377 . S
C1085 C1084 1.383 . S
C1085 H1148 0.929 . S
C1086 C1082 1.527 . S
C1086 H1149 0.961 . S
C1086 H1150 0.959 . S
C1086 H1151 0.959 . S
C1087 C1084 1.603 . S
C1087 H1152 0.960 . S
C1087 H1153 0.962 . S
C1087 H1154 0.961 . S
C1088 C1055 1.587 . S
C1088 C1089 1.360 . S
C1088 C1101 1.412 . S
C1089 C1088 1.360 . S
C1089 C1090 1.365 . S
C1089 H1155 0.929 . S
C1090 C1065 1.553 . S
C1090 C1089 1.365 . S
C1090 C1091 1.404 . S
C1091 C1090 1.404 . S
C1091 C1092 1.395 . S
C1091 C1102 1.451 . S
C1092 C1091 1.395 . S
C1092 C1093 1.322 . S
C1092 H1156 0.930 . S
C1093 C1092 1.322 . S
C1093 C1094 1.459 . S
C1093 H1157 0.929 . S
C1094 C1093 1.459 . S
C1094 C1095 1.445 . S
C1094 C1103 1.395 . S
C1095 C1073 1.432 . S
C1095 C1094 1.445 . S
C1095 C1096 1.370 . S
C1096 C1095 1.370 . S
C1096 C1097 1.438 . S
C1096 H1158 0.930 . S
C1097 C1083 1.497 . S
C1097 C1096 1.438 . S
C1097 C1098 1.360 . S
C1098 C1097 1.360 . S
C1098 C1099 1.401 . S
C1098 C1103 1.446 . S
C1099 C1098 1.401 . S
C1099 C1100 1.347 . S
C1099 H1159 0.929 . S
C1100 C1099 1.347 . S
C1100 C1101 1.455 . S
C1100 H1160 0.930 . S
C1101 C1088 1.412 . S
C1101 C1100 1.455 . S
C1101 C1102 1.331 . S
C1102 C1091 1.451 . S
C1102 C1101 1.331 . S
C1102 C1103 1.497 . S
C1103 C1094 1.395 . S
C1103 C1098 1.446 . S
C1103 C1102 1.497 . S
C1104 C1105 1.582 . S
C1104 H1161 0.962 . S
C1104 H1162 0.959 . S
C1104 H1163 0.958 . S
C1105 C1104 1.582 . S
C1105 O1108 1.458 . S
C1105 H1134 0.980 . S
O1106 C1051 1.426 . S
O1106 C1052 1.334 . S
O1107 C1079 1.412 . S
O1107 C1080 1.393 . S
O1108 C1070 1.435 . S
O1108 C1105 1.458 . S
O1109 C1061 1.468 . S
O1109 C1062 1.408 . S
H1110 C1051 0.980 . S
H1111 C1050 0.959 . S
H1112 C1050 0.959 . S
H1113 C1050 0.960 . S
H1114 C1053 0.929 . S
H1115 C1057 0.929 . S
H1116 C1058 0.959 . S
H1117 C1058 0.961 . S
H1118 C1058 0.961 . S
H1119 C1059 0.960 . S
H1120 C1059 0.960 . S
H1121 C1059 0.961 . S
H1122 C1061 0.980 . S
H1123 C1060 0.961 . S
H1124 C1060 0.960 . S
H1125 C1060 0.959 . S
H1126 C1063 0.930 . S
H1127 C1067 0.931 . S
H1128 C1068 0.959 . S
H1129 C1068 0.961 . S
H1130 C1068 0.959 . S
H1131 C1069 0.960 . S
H1132 C1069 0.960 . S
H1133 C1069 0.960 . S
H1134 C1105 0.980 . S
H1135 C1071 0.930 . S
H1136 C1075 0.930 . S
H1137 C1076 0.961 . S
H1138 C1076 0.960 . S
H1139 C1076 0.958 . S
H1140 C1077 0.961 . S
H1141 C1077 0.960 . S
H1142 C1077 0.960 . S
H1143 C1079 0.980 . S
H1144 C1078 0.961 . S
H1145 C1078 0.961 . S
H1146 C1078 0.959 . S
H1147 C1081 0.932 . S
H1148 C1085 0.929 . S
H1149 C1086 0.961 . S
H1150 C1086 0.959 . S
H1151 C1086 0.959 . S
H1152 C1087 0.960 . S
H1153 C1087 0.962 . S
H1154 C1087 0.961 . S
H1155 C1089 0.929 . S
H1156 C1092 0.930 . S
H1157 C1093 0.929 . S
H1158 C1096 0.930 . S
H1159 C1099 0.929 . S
H1160 C1100 0.930 . S
H1161 C1104 0.962 . S
H1162 C1104 0.959 . S
H1163 C1104 0.958 . S
C1164 C1165 1.560 . S
C1164 H1225 0.959 . S
C1164 H1226 0.959 . S
C1164 H1227 0.960 . S
C1165 C1164 1.560 . S
C1165 O1220 1.426 . S
C1165 H1224 0.980 . S
C1166 C1167 1.407 . S
C1166 C1171 1.418 . S
C1166 O1220 1.334 . S
C1167 C1166 1.407 . S
C1167 C1168 1.360 . S
C1167 H1228 0.929 . S
C1168 C1167 1.360 . S
C1168 C1169 1.401 . S
C1168 C1172 1.527 . S
C1169 C1168 1.401 . S
C1169 C1170 1.405 . S
C1169 C1202 1.587 . S
C1170 C1169 1.405 . S
C1170 C1171 1.332 . S
C1170 C1173 1.496 . S
C1171 C1166 1.418 . S
C1171 C1170 1.332 . S
C1171 H1229 0.929 . S
C1172 C1168 1.527 . S
C1172 H1230 0.959 . S
C1172 H1231 0.961 . S
C1172 H1232 0.961 . S
C1173 C1170 1.496 . S
C1173 H1233 0.960 . S
C1173 H1234 0.960 . S
C1173 H1235 0.961 . S
C1174 C1175 1.517 . S
C1174 H1237 0.961 . S
C1174 H1238 0.960 . S
C1174 H1239 0.959 . S
C1175 C1174 1.517 . S
C1175 O1223 1.468 . S
C1175 H1236 0.980 . S
C1176 C1177 1.349 . S
C1176 C1181 1.367 . S
C1176 O1223 1.408 . S
C1177 C1176 1.349 . S
C1177 C1178 1.407 . S
C1177 H1240 0.930 . S
C1178 C1177 1.407 . S
C1178 C1179 1.449 . S
C1178 C1182 1.535 . S
C1179 C1178 1.449 . S
C1179 C1180 1.384 . S
C1179 C1204 1.553 . S
C1180 C1179 1.384 . S
C1180 C1181 1.364 . S
C1180 C1183 1.450 . S
C1181 C1176 1.367 . S
C1181 C1180 1.364 . S
C1181 H1241 0.931 . S
C1182 C1178 1.535 . S
C1182 H1242 0.959 . S
C1182 H1243 0.961 . S
C1182 H1244 0.959 . S
C1183 C1180 1.450 . S
C1183 H1245 0.960 . S
C1183 H1246 0.960 . S
C1183 H1247 0.960 . S
C1184 C1185 1.309 . S
C1184 C1189 1.304 . S
C1184 O1222 1.435 . S
C1185 C1184 1.309 . S
C1185 C1186 1.476 . S
C1185 H1249 0.930 . S
C1186 C1185 1.476 . S
C1186 C1187 1.400 . S
C1186 C1190 1.567 . S
C1187 C1186 1.400 . S
C1187 C1188 1.373 . S
C1187 C1209 1.432 . S
C1188 C1187 1.373 . S
C1188 C1189 1.339 . S
C1188 C1191 1.530 . S
C1189 C1184 1.304 . S
C1189 C1188 1.339 . S
C1189 H1250 0.930 . S
C1190 C1186 1.567 . S
C1190 H1251 0.961 . S
C1190 H1252 0.960 . S
C1190 H1253 0.958 . S
C1191 C1188 1.530 . S
C1191 H1254 0.961 . S
C1191 H1255 0.960 . S
C1191 H1256 0.960 . S
C1192 C1193 1.530 . S
C1192 H1258 0.961 . S
C1192 H1259 0.961 . S
C1192 H1260 0.959 . S
C1193 C1192 1.530 . S
C1193 O1221 1.412 . S
C1193 H1257 0.980 . S
C1194 C1195 1.288 . S
C1194 C1199 1.377 . S
C1194 O1221 1.393 . S
C1195 C1194 1.288 . S
C1195 C1196 1.369 . S
C1195 H1261 0.932 . S
C1196 C1195 1.369 . S
C1196 C1197 1.398 . S
C1196 C1200 1.527 . S
C1197 C1196 1.398 . S
C1197 C1198 1.380 . S
C1197 C1211 1.497 . S
C1198 C1197 1.380 . S
C1198 C1199 1.383 . S
C1198 C1201 1.603 . S
C1199 C1194 1.377 . S
C1199 C1198 1.383 . S
C1199 H1262 0.929 . S
C1200 C1196 1.527 . S
C1200 H1263 0.961 . S
C1200 H1264 0.959 . S
C1200 H1265 0.959 . S
C1201 C1198 1.603 . S
C1201 H1266 0.960 . S
C1201 H1267 0.962 . S
C1201 H1268 0.961 . S
C1202 C1169 1.587 . S
C1202 C1203 1.360 . S
C1202 C1215 1.412 . S
C1203 C1202 1.360 . S
C1203 C1204 1.365 . S
C1203 H1269 0.929 . S
C1204 C1179 1.553 . S
C1204 C1203 1.365 . S
C1204 C1205 1.404 . S
C1205 C1204 1.404 . S
C1205 C1206 1.395 . S
C1205 C1216 1.451 . S
C1206 C1205 1.395 . S
C1206 C1207 1.322 . S
C1206 H1270 0.930 . S
C1207 C1206 1.322 . S
C1207 C1208 1.459 . S
C1207 H1271 0.929 . S
C1208 C1207 1.459 . S
C1208 C1209 1.445 . S
C1208 C1217 1.395 . S
C1209 C1187 1.432 . S
C1209 C1208 1.445 . S
C1209 C1210 1.370 . S
C1210 C1209 1.370 . S
C1210 C1211 1.438 . S
C1210 H1272 0.930 . S
C1211 C1197 1.497 . S
C1211 C1210 1.438 . S
C1211 C1212 1.360 . S
C1212 C1211 1.360 . S
C1212 C1213 1.401 . S
C1212 C1217 1.446 . S
C1213 C1212 1.401 . S
C1213 C1214 1.347 . S
C1213 H1273 0.929 . S
C1214 C1213 1.347 . S
C1214 C1215 1.455 . S
C1214 H1274 0.930 . S
C1215 C1202 1.412 . S
C1215 C1214 1.455 . S
C1215 C1216 1.331 . S
C1216 C1205 1.451 . S
C1216 C1215 1.331 . S
C1216 C1217 1.497 . S
C1217 C1208 1.395 . S
C1217 C1212 1.446 . S
C1217 C1216 1.497 . S
C1218 C1219 1.582 . S
C1218 H1275 0.962 . S
C1218 H1276 0.959 . S
C1218 H1277 0.958 . S
C1219 C1218 1.582 . S
C1219 O1222 1.458 . S
C1219 H1248 0.980 . S
O1220 C1165 1.426 . S
O1220 C1166 1.334 . S
O1221 C1193 1.412 . S
O1221 C1194 1.393 . S
O1222 C1184 1.435 . S
O1222 C1219 1.458 . S
O1223 C1175 1.468 . S
O1223 C1176 1.408 . S
H1224 C1165 0.980 . S
H1225 C1164 0.959 . S
H1226 C1164 0.959 . S
H1227 C1164 0.960 . S
H1228 C1167 0.929 . S
H1229 C1171 0.929 . S
H1230 C1172 0.959 . S
H1231 C1172 0.961 . S
H1232 C1172 0.961 . S
H1233 C1173 0.960 . S
H1234 C1173 0.960 . S
H1235 C1173 0.961 . S
H1236 C1175 0.980 . S
H1237 C1174 0.961 . S
H1238 C1174 0.960 . S
H1239 C1174 0.959 . S
H1240 C1177 0.930 . S
H1241 C1181 0.931 . S
H1242 C1182 0.959 . S
H1243 C1182 0.961 . S
H1244 C1182 0.959 . S
H1245 C1183 0.960 . S
H1246 C1183 0.960 . S
H1247 C1183 0.960 . S
H1248 C1219 0.980 . S
H1249 C1185 0.930 . S
H1250 C1189 0.930 . S
H1251 C1190 0.961 . S
H1252 C1190 0.960 . S
H1253 C1190 0.958 . S
H1254 C1191 0.961 . S
H1255 C1191 0.960 . S
H1256 C1191 0.960 . S
H1257 C1193 0.980 . S
H1258 C1192 0.961 . S
H1259 C1192 0.961 . S
H1260 C1192 0.959 . S
H1261 C1195 0.932 . S
H1262 C1199 0.929 . S
H1263 C1200 0.961 . S
H1264 C1200 0.959 . S
H1265 C1200 0.959 . S
H1266 C1201 0.960 . S
H1267 C1201 0.962 . S
H1268 C1201 0.961 . S
H1269 C1203 0.929 . S
H1270 C1206 0.930 . S
H1271 C1207 0.929 . S
H1272 C1210 0.930 . S
H1273 C1213 0.929 . S
H1274 C1214 0.930 . S
H1275 C1218 0.962 . S
H1276 C1218 0.959 . S
H1277 C1218 0.958 . S
C1278 C1279 1.560 . S
C1278 H1339 0.959 . S
C1278 H1340 0.959 . S
C1278 H1341 0.960 . S
C1279 C1278 1.560 . S
C1279 O1334 1.426 . S
C1279 H1338 0.980 . S
C1280 C1281 1.407 1_455 S
C1280 C1285 1.418 . S
C1280 O1334 1.334 . S
C1281 C1280 1.407 1_655 S
C1281 C1282 1.360 . S
C1281 H1342 0.929 . S
C1282 C1281 1.360 . S
C1282 C1283 1.401 1_655 S
C1282 C1286 1.527 . S
C1283 C1282 1.401 1_455 S
C1283 C1284 1.405 . S
C1283 C1316 1.587 1_455 S
C1284 C1283 1.405 . S
C1284 C1285 1.332 . S
C1284 C1287 1.496 . S
C1285 C1280 1.418 . S
C1285 C1284 1.332 . S
C1285 H1343 0.929 . S
C1286 C1282 1.527 . S
C1286 H1344 0.959 . S
C1286 H1345 0.961 . S
C1286 H1346 0.961 . S
C1287 C1284 1.496 . S
C1287 H1347 0.960 . S
C1287 H1348 0.960 . S
C1287 H1349 0.961 . S
C1288 C1289 1.517 . S
C1288 H1351 0.961 . S
C1288 H1352 0.960 . S
C1288 H1353 0.959 . S
C1289 C1288 1.517 . S
C1289 O1337 1.468 . S
C1289 H1350 0.980 1_655 S
C1290 C1291 1.349 . S
C1290 C1295 1.367 . S
C1290 O1337 1.408 . S
C1291 C1290 1.349 . S
C1291 C1292 1.407 1_655 S
C1291 H1354 0.930 1_655 S
C1292 C1291 1.407 1_455 S
C1292 C1293 1.449 1_455 S
C1292 C1296 1.535 . S
C1293 C1292 1.449 1_655 S
C1293 C1294 1.384 . S
C1293 C1318 1.553 . S
C1294 C1293 1.384 . S
C1294 C1295 1.364 . S
C1294 C1297 1.450 . S
C1295 C1290 1.367 . S
C1295 C1294 1.364 . S
C1295 H1355 0.931 . S
C1296 C1292 1.535 . S
C1296 H1356 0.959 . S
C1296 H1357 0.961 . S
C1296 H1358 0.959 . S
C1297 C1294 1.450 . S
C1297 H1359 0.960 . S
C1297 H1360 0.960 . S
C1297 H1361 0.960 . S
C1298 C1299 1.309 . S
C1298 C1303 1.304 . S
C1298 O1336 1.435 . S
C1299 C1298 1.309 . S
C1299 C1300 1.472 . S
C1299 H1363 0.930 1_655 S
C1300 C1299 1.472 . S
C1300 C1301 1.398 . S
C1300 C1304 1.573 1_655 S
C1301 C1300 1.398 . S
C1301 C1302 1.373 . S
C1301 C1323 1.432 . S
C1302 C1301 1.373 . S
C1302 C1303 1.339 . S
C1302 C1305 1.530 . S
C1303 C1298 1.304 . S
C1303 C1302 1.339 . S
C1303 H1364 0.930 . S
C1304 C1300 1.573 1_455 S
C1304 H1365 0.961 . S
C1304 H1366 0.960 . S
C1304 H1367 0.958 . S
C1305 C1302 1.530 . S
C1305 H1368 0.961 . S
C1305 H1369 0.960 . S
C1305 H1370 0.960 . S
C1306 C1307 1.527 . S
C1306 H1372 0.961 . S
C1306 H1373 0.961 . S
C1306 H1374 0.959 . S
C1307 C1306 1.527 . S
C1307 O1335 1.411 . S
C1307 H1371 0.981 1_455 S
C1308 C1309 1.288 . S
C1308 C1313 1.377 1_455 S
C1308 O1335 1.393 . S
C1309 C1308 1.288 . S
C1309 C1310 1.369 . S
C1309 H1375 0.932 . S
C1310 C1309 1.369 . S
C1310 C1311 1.398 1_455 S
C1310 C1314 1.527 . S
C1311 C1310 1.398 1_655 S
C1311 C1312 1.380 . S
C1311 C1325 1.497 . S
C1312 C1311 1.380 . S
C1312 C1313 1.383 . S
C1312 C1315 1.603 . S
C1313 C1308 1.377 1_655 S
C1313 C1312 1.383 . S
C1313 H1376 0.929 . S
C1314 C1310 1.527 . S
C1314 H1377 0.961 . S
C1314 H1378 0.959 . S
C1314 H1379 0.959 . S
C1315 C1312 1.603 . S
C1315 H1380 0.960 . S
C1315 H1381 0.962 . S
C1315 H1382 0.961 . S
C1316 C1283 1.587 1_655 S
C1316 C1317 1.360 . S
C1316 C1329 1.412 . S
C1317 C1316 1.360 . S
C1317 C1318 1.365 . S
C1317 H1383 0.929 . S
C1318 C1293 1.553 . S
C1318 C1317 1.365 . S
C1318 C1319 1.404 . S
C1319 C1318 1.404 . S
C1319 C1320 1.395 . S
C1319 C1330 1.451 . S
C1320 C1319 1.395 . S
C1320 C1321 1.322 . S
C1320 H1384 0.930 . S
C1321 C1320 1.322 . S
C1321 C1322 1.459 . S
C1321 H1385 0.929 . S
C1322 C1321 1.459 . S
C1322 C1323 1.445 . S
C1322 C1331 1.395 . S
C1323 C1301 1.432 . S
C1323 C1322 1.445 . S
C1323 C1324 1.370 . S
C1324 C1323 1.370 . S
C1324 C1325 1.438 . S
C1324 H1386 0.930 . S
C1325 C1311 1.497 . S
C1325 C1324 1.438 . S
C1325 C1326 1.360 . S
C1326 C1325 1.360 . S
C1326 C1327 1.401 . S
C1326 C1331 1.446 . S
C1327 C1326 1.401 . S
C1327 C1328 1.347 . S
C1327 H1387 0.929 . S
C1328 C1327 1.347 . S
C1328 C1329 1.455 . S
C1328 H1388 0.930 . S
C1329 C1316 1.412 . S
C1329 C1328 1.455 . S
C1329 C1330 1.331 . S
C1330 C1319 1.451 . S
C1330 C1329 1.331 . S
C1330 C1331 1.497 . S
C1331 C1322 1.395 . S
C1331 C1326 1.446 . S
C1331 C1330 1.497 . S
C1332 C1333 1.582 . S
C1332 H1389 0.962 . S
C1332 H1390 0.959 . S
C1332 H1391 0.958 . S
C1333 C1332 1.582 . S
C1333 O1336 1.458 . S
C1333 H1362 0.980 . S
O1334 C1279 1.426 . S
O1334 C1280 1.334 . S
O1335 C1307 1.411 . S
O1335 C1308 1.393 . S
O1336 C1298 1.435 . S
O1336 C1333 1.458 . S
O1337 C1289 1.468 . S
O1337 C1290 1.408 . S
H1338 C1279 0.980 . S
H1339 C1278 0.959 . S
H1340 C1278 0.959 . S
H1341 C1278 0.960 . S
H1342 C1281 0.929 . S
H1343 C1285 0.929 . S
H1344 C1286 0.959 . S
H1345 C1286 0.961 . S
H1346 C1286 0.961 . S
H1347 C1287 0.960 . S
H1348 C1287 0.960 . S
H1349 C1287 0.961 . S
H1350 C1289 0.980 1_455 S
H1351 C1288 0.961 . S
H1352 C1288 0.960 . S
H1353 C1288 0.959 . S
H1354 C1291 0.930 1_455 S
H1355 C1295 0.931 . S
H1356 C1296 0.959 . S
H1357 C1296 0.961 . S
H1358 C1296 0.959 . S
H1359 C1297 0.960 . S
H1360 C1297 0.960 . S
H1361 C1297 0.960 . S
H1362 C1333 0.980 . S
H1363 C1299 0.930 1_455 S
H1364 C1303 0.930 . S
H1365 C1304 0.961 . S
H1366 C1304 0.960 . S
H1367 C1304 0.958 . S
H1368 C1305 0.961 . S
H1369 C1305 0.960 . S
H1370 C1305 0.960 . S
H1371 C1307 0.981 1_655 S
H1372 C1306 0.961 . S
H1373 C1306 0.961 . S
H1374 C1306 0.959 . S
H1375 C1309 0.932 . S
H1376 C1313 0.929 . S
H1377 C1314 0.961 . S
H1378 C1314 0.959 . S
H1379 C1314 0.959 . S
H1380 C1315 0.960 . S
H1381 C1315 0.962 . S
H1382 C1315 0.961 . S
H1383 C1317 0.929 . S
H1384 C1320 0.930 . S
H1385 C1321 0.929 . S
H1386 C1324 0.930 . S
H1387 C1327 0.929 . S
H1388 C1328 0.930 . S
H1389 C1332 0.962 . S
H1390 C1332 0.959 . S
H1391 C1332 0.958 . S
C1392 C1393 1.560 . S
C1392 H1453 0.959 . S
C1392 H1454 0.959 . S
C1392 H1455 0.960 . S
C1393 C1392 1.560 . S
C1393 O1448 1.426 . S
C1393 H1452 0.980 . S
C1394 C1395 1.407 . S
C1394 C1399 1.418 . S
C1394 O1448 1.334 . S
C1395 C1394 1.407 . S
C1395 C1396 1.360 . S
C1395 H1456 0.929 . S
C1396 C1395 1.360 . S
C1396 C1397 1.401 . S
C1396 C1400 1.527 . S
C1397 C1396 1.401 . S
C1397 C1398 1.405 . S
C1397 C1430 1.587 . S
C1398 C1397 1.405 . S
C1398 C1399 1.332 . S
C1398 C1401 1.496 . S
C1399 C1394 1.418 . S
C1399 C1398 1.332 . S
C1399 H1457 0.929 . S
C1400 C1396 1.527 . S
C1400 H1458 0.959 . S
C1400 H1459 0.961 . S
C1400 H1460 0.961 . S
C1401 C1398 1.496 . S
C1401 H1461 0.960 . S
C1401 H1462 0.960 . S
C1401 H1463 0.961 . S
C1402 C1403 1.517 . S
C1402 H1465 0.961 . S
C1402 H1466 0.960 . S
C1402 H1467 0.959 . S
C1403 C1402 1.517 . S
C1403 O1451 1.468 . S
C1403 H1464 0.980 . S
C1404 C1405 1.349 . S
C1404 C1409 1.367 . S
C1404 O1451 1.408 . S
C1405 C1404 1.349 . S
C1405 C1406 1.407 . S
C1405 H1468 0.930 . S
C1406 C1405 1.407 . S
C1406 C1407 1.449 . S
C1406 C1410 1.535 . S
C1407 C1406 1.449 . S
C1407 C1408 1.384 . S
C1407 C1432 1.553 . S
C1408 C1407 1.384 . S
C1408 C1409 1.364 . S
C1408 C1411 1.450 . S
C1409 C1404 1.367 . S
C1409 C1408 1.364 . S
C1409 H1469 0.931 . S
C1410 C1406 1.535 . S
C1410 H1470 0.959 . S
C1410 H1471 0.961 . S
C1410 H1472 0.959 . S
C1411 C1408 1.450 . S
C1411 H1473 0.960 . S
C1411 H1474 0.960 . S
C1411 H1475 0.960 . S
C1412 C1413 1.309 . S
C1412 C1417 1.304 . S
C1412 O1450 1.435 . S
C1413 C1412 1.309 . S
C1413 C1414 1.476 . S
C1413 H1477 0.930 . S
C1414 C1413 1.476 . S
C1414 C1415 1.400 . S
C1414 C1418 1.567 . S
C1415 C1414 1.400 . S
C1415 C1416 1.373 . S
C1415 C1437 1.432 . S
C1416 C1415 1.373 . S
C1416 C1417 1.339 . S
C1416 C1419 1.530 . S
C1417 C1412 1.304 . S
C1417 C1416 1.339 . S
C1417 H1478 0.930 . S
C1418 C1414 1.567 . S
C1418 H1479 0.961 . S
C1418 H1480 0.960 . S
C1418 H1481 0.958 . S
C1419 C1416 1.530 . S
C1419 H1482 0.961 . S
C1419 H1483 0.960 . S
C1419 H1484 0.960 . S
C1420 C1421 1.530 . S
C1420 H1486 0.961 . S
C1420 H1487 0.961 . S
C1420 H1488 0.959 . S
C1421 C1420 1.530 . S
C1421 O1449 1.412 . S
C1421 H1485 0.980 . S
C1422 C1423 1.288 . S
C1422 C1427 1.377 . S
C1422 O1449 1.393 . S
C1423 C1422 1.288 . S
C1423 C1424 1.369 . S
C1423 H1489 0.932 . S
C1424 C1423 1.369 . S
C1424 C1425 1.398 . S
C1424 C1428 1.527 . S
C1425 C1424 1.398 . S
C1425 C1426 1.380 . S
C1425 C1439 1.497 . S
C1426 C1425 1.380 . S
C1426 C1427 1.383 . S
C1426 C1429 1.603 . S
C1427 C1422 1.377 . S
C1427 C1426 1.383 . S
C1427 H1490 0.929 . S
C1428 C1424 1.527 . S
C1428 H1491 0.961 . S
C1428 H1492 0.959 . S
C1428 H1493 0.959 . S
C1429 C1426 1.603 . S
C1429 H1494 0.960 . S
C1429 H1495 0.962 . S
C1429 H1496 0.961 . S
C1430 C1397 1.587 . S
C1430 C1431 1.360 . S
C1430 C1443 1.412 . S
C1431 C1430 1.360 . S
C1431 C1432 1.365 . S
C1431 H1497 0.929 . S
C1432 C1407 1.553 . S
C1432 C1431 1.365 . S
C1432 C1433 1.404 . S
C1433 C1432 1.404 . S
C1433 C1434 1.395 . S
C1433 C1444 1.451 . S
C1434 C1433 1.395 . S
C1434 C1435 1.322 . S
C1434 H1498 0.930 . S
C1435 C1434 1.322 . S
C1435 C1436 1.459 . S
C1435 H1499 0.929 . S
C1436 C1435 1.459 . S
C1436 C1437 1.445 . S
C1436 C1445 1.395 . S
C1437 C1415 1.432 . S
C1437 C1436 1.445 . S
C1437 C1438 1.370 . S
C1438 C1437 1.370 . S
C1438 C1439 1.438 . S
C1438 H1500 0.930 . S
C1439 C1425 1.497 . S
C1439 C1438 1.438 . S
C1439 C1440 1.360 . S
C1440 C1439 1.360 . S
C1440 C1441 1.401 . S
C1440 C1445 1.446 . S
C1441 C1440 1.401 . S
C1441 C1442 1.347 . S
C1441 H1501 0.929 . S
C1442 C1441 1.347 . S
C1442 C1443 1.455 . S
C1442 H1502 0.930 . S
C1443 C1430 1.412 . S
C1443 C1442 1.455 . S
C1443 C1444 1.331 . S
C1444 C1433 1.451 . S
C1444 C1443 1.331 . S
C1444 C1445 1.497 . S
C1445 C1436 1.395 . S
C1445 C1440 1.446 . S
C1445 C1444 1.497 . S
C1446 C1447 1.582 . S
C1446 H1503 0.962 . S
C1446 H1504 0.959 . S
C1446 H1505 0.958 . S
C1447 C1446 1.582 . S
C1447 O1450 1.458 . S
C1447 H1476 0.980 . S
O1448 C1393 1.426 . S
O1448 C1394 1.334 . S
O1449 C1421 1.412 . S
O1449 C1422 1.393 . S
O1450 C1412 1.435 . S
O1450 C1447 1.458 . S
O1451 C1403 1.468 . S
O1451 C1404 1.408 . S
H1452 C1393 0.980 . S
H1453 C1392 0.959 . S
H1454 C1392 0.959 . S
H1455 C1392 0.960 . S
H1456 C1395 0.929 . S
H1457 C1399 0.929 . S
H1458 C1400 0.959 . S
H1459 C1400 0.961 . S
H1460 C1400 0.961 . S
H1461 C1401 0.960 . S
H1462 C1401 0.960 . S
H1463 C1401 0.961 . S
H1464 C1403 0.980 . S
H1465 C1402 0.961 . S
H1466 C1402 0.960 . S
H1467 C1402 0.959 . S
H1468 C1405 0.930 . S
H1469 C1409 0.931 . S
H1470 C1410 0.959 . S
H1471 C1410 0.961 . S
H1472 C1410 0.959 . S
H1473 C1411 0.960 . S
H1474 C1411 0.960 . S
H1475 C1411 0.960 . S
H1476 C1447 0.980 . S
H1477 C1413 0.930 . S
H1478 C1417 0.930 . S
H1479 C1418 0.961 . S
H1480 C1418 0.960 . S
H1481 C1418 0.958 . S
H1482 C1419 0.961 . S
H1483 C1419 0.960 . S
H1484 C1419 0.960 . S
H1485 C1421 0.980 . S
H1486 C1420 0.961 . S
H1487 C1420 0.961 . S
H1488 C1420 0.959 . S
H1489 C1423 0.932 . S
H1490 C1427 0.929 . S
H1491 C1428 0.961 . S
H1492 C1428 0.959 . S
H1493 C1428 0.959 . S
H1494 C1429 0.960 . S
H1495 C1429 0.962 . S
H1496 C1429 0.961 . S
H1497 C1431 0.929 . S
H1498 C1434 0.930 . S
H1499 C1435 0.929 . S
H1500 C1438 0.930 . S
H1501 C1441 0.929 . S
H1502 C1442 0.930 . S
H1503 C1446 0.962 . S
H1504 C1446 0.959 . S
H1505 C1446 0.958 . S
C1506 C1507 1.560 . S
C1506 H1567 0.959 . S
C1506 H1568 0.959 . S
C1506 H1569 0.960 . S
C1507 C1506 1.560 . S
C1507 O1562 1.426 . S
C1507 H1566 0.980 . S
C1508 C1509 1.407 1_565 S
C1508 C1513 1.418 . S
C1508 O1562 1.334 . S
C1509 C1508 1.407 1_545 S
C1509 C1510 1.360 . S
C1509 H1570 0.929 . S
C1510 C1509 1.360 . S
C1510 C1511 1.401 1_545 S
C1510 C1514 1.527 . S
C1511 C1510 1.401 1_565 S
C1511 C1512 1.405 . S
C1511 C1544 1.587 1_565 S
C1512 C1511 1.405 . S
C1512 C1513 1.332 . S
C1512 C1515 1.496 . S
C1513 C1508 1.418 . S
C1513 C1512 1.332 . S
C1513 H1571 0.929 . S
C1514 C1510 1.527 . S
C1514 H1572 0.959 . S
C1514 H1573 0.961 . S
C1514 H1574 0.961 . S
C1515 C1512 1.496 . S
C1515 H1575 0.960 . S
C1515 H1576 0.960 . S
C1515 H1577 0.961 . S
C1516 C1517 1.517 . S
C1516 H1579 0.961 1_545 S
C1516 H1580 0.960 . S
C1516 H1581 0.959 . S
C1517 C1516 1.517 . S
C1517 O1565 1.468 . S
C1517 H1578 0.980 1_545 S
C1518 C1519 1.348 1_545 S
C1518 C1523 1.367 . S
C1518 O1565 1.408 . S
C1519 C1518 1.348 1_565 S
C1519 C1520 1.407 . S
C1519 H1582 0.932 . S
C1520 C1519 1.407 . S
C1520 C1521 1.449 1_565 S
C1520 C1524 1.535 . S
C1521 C1520 1.449 1_545 S
C1521 C1522 1.384 . S
C1521 C1546 1.553 . S
C1522 C1521 1.384 . S
C1522 C1523 1.364 . S
C1522 C1525 1.450 . S
C1523 C1518 1.367 . S
C1523 C1522 1.364 . S
C1523 H1583 0.931 . S
C1524 C1520 1.535 . S
C1524 H1584 0.959 . S
C1524 H1585 0.961 . S
C1524 H1586 0.959 . S
C1525 C1522 1.450 . S
C1525 H1587 0.960 . S
C1525 H1588 0.960 . S
C1525 H1589 0.960 . S
C1526 C1527 1.309 . S
C1526 C1531 1.304 . S
C1526 O1564 1.435 . S
C1527 C1526 1.309 . S
C1527 C1528 1.476 1_545 S
C1527 H1591 0.930 1_545 S
C1528 C1527 1.476 1_565 S
C1528 C1529 1.400 1_565 S
C1528 C1532 1.567 . S
C1529 C1528 1.400 1_545 S
C1529 C1530 1.373 . S
C1529 C1551 1.432 . S
C1530 C1529 1.373 . S
C1530 C1531 1.339 . S
C1530 C1533 1.530 . S
C1531 C1526 1.304 . S
C1531 C1530 1.339 . S
C1531 H1592 0.930 . S
C1532 C1528 1.567 . S
C1532 H1593 0.961 . S
C1532 H1594 0.960 . S
C1532 H1595 0.958 . S
C1533 C1530 1.530 . S
C1533 H1596 0.961 . S
C1533 H1597 0.960 . S
C1533 H1598 0.960 . S
C1534 C1535 1.530 1_565 S
C1534 H1600 0.961 . S
C1534 H1601 0.961 . S
C1534 H1602 0.959 . S
C1535 C1534 1.530 1_545 S
C1535 O1563 1.412 1_545 S
C1535 H1599 0.980 . S
C1536 C1537 1.288 . S
C1536 C1541 1.377 1_565 S
C1536 O1563 1.393 . S
C1537 C1536 1.288 . S
C1537 C1538 1.369 . S
C1537 H1603 0.932 . S
C1538 C1537 1.369 . S
C1538 C1539 1.398 1_565 S
C1538 C1542 1.527 . S
C1539 C1538 1.398 1_545 S
C1539 C1540 1.380 . S
C1539 C1553 1.497 . S
C1540 C1539 1.380 . S
C1540 C1541 1.383 . S
C1540 C1543 1.603 . S
C1541 C1536 1.377 1_545 S
C1541 C1540 1.383 . S
C1541 H1604 0.929 . S
C1542 C1538 1.527 . S
C1542 H1605 0.961 . S
C1542 H1606 0.959 . S
C1542 H1607 0.959 . S
C1543 C1540 1.603 . S
C1543 H1608 0.960 . S
C1543 H1609 0.962 . S
C1543 H1610 0.961 . S
C1544 C1511 1.587 1_545 S
C1544 C1545 1.360 . S
C1544 C1557 1.412 . S
C1545 C1544 1.360 . S
C1545 C1546 1.365 . S
C1545 H1611 0.929 . S
C1546 C1521 1.553 . S
C1546 C1545 1.365 . S
C1546 C1547 1.404 . S
C1547 C1546 1.404 . S
C1547 C1548 1.395 . S
C1547 C1558 1.451 . S
C1548 C1547 1.395 . S
C1548 C1549 1.322 . S
C1548 H1612 0.930 . S
C1549 C1548 1.322 . S
C1549 C1550 1.459 . S
C1549 H1613 0.929 . S
C1550 C1549 1.459 . S
C1550 C1551 1.445 . S
C1550 C1559 1.395 . S
C1551 C1529 1.432 . S
C1551 C1550 1.445 . S
C1551 C1552 1.370 . S
C1552 C1551 1.370 . S
C1552 C1553 1.438 . S
C1552 H1614 0.930 . S
C1553 C1539 1.497 . S
C1553 C1552 1.438 . S
C1553 C1554 1.360 . S
C1554 C1553 1.360 . S
C1554 C1555 1.401 . S
C1554 C1559 1.446 . S
C1555 C1554 1.401 . S
C1555 C1556 1.347 . S
C1555 H1615 0.929 . S
C1556 C1555 1.347 . S
C1556 C1557 1.455 . S
C1556 H1616 0.930 . S
C1557 C1544 1.412 . S
C1557 C1556 1.455 . S
C1557 C1558 1.331 . S
C1558 C1547 1.451 . S
C1558 C1557 1.331 . S
C1558 C1559 1.497 . S
C1559 C1550 1.395 . S
C1559 C1554 1.446 . S
C1559 C1558 1.497 . S
C1560 C1561 1.582 . S
C1560 H1617 0.962 . S
C1560 H1618 0.959 . S
C1560 H1619 0.958 . S
C1561 C1560 1.582 . S
C1561 O1564 1.458 . S
C1561 H1590 0.980 . S
O1562 C1507 1.426 . S
O1562 C1508 1.334 . S
O1563 C1535 1.412 1_565 S
O1563 C1536 1.393 . S
O1564 C1526 1.435 . S
O1564 C1561 1.458 . S
O1565 C1517 1.468 . S
O1565 C1518 1.408 . S
H1566 C1507 0.980 . S
H1567 C1506 0.959 . S
H1568 C1506 0.959 . S
H1569 C1506 0.960 . S
H1570 C1509 0.929 . S
H1571 C1513 0.929 . S
H1572 C1514 0.959 . S
H1573 C1514 0.961 . S
H1574 C1514 0.961 . S
H1575 C1515 0.960 . S
H1576 C1515 0.960 . S
H1577 C1515 0.961 . S
H1578 C1517 0.980 1_565 S
H1579 C1516 0.961 1_565 S
H1580 C1516 0.960 . S
H1581 C1516 0.959 . S
H1582 C1519 0.932 . S
H1583 C1523 0.931 . S
H1584 C1524 0.959 . S
H1585 C1524 0.961 . S
H1586 C1524 0.959 . S
H1587 C1525 0.960 . S
H1588 C1525 0.960 . S
H1589 C1525 0.960 . S
H1590 C1561 0.980 . S
H1591 C1527 0.930 1_565 S
H1592 C1531 0.930 . S
H1593 C1532 0.961 . S
H1594 C1532 0.960 . S
H1595 C1532 0.958 . S
H1596 C1533 0.961 . S
H1597 C1533 0.960 . S
H1598 C1533 0.960 . S
H1599 C1535 0.980 . S
H1600 C1534 0.961 . S
H1601 C1534 0.961 . S
H1602 C1534 0.959 . S
H1603 C1537 0.932 . S
H1604 C1541 0.929 . S
H1605 C1542 0.961 . S
H1606 C1542 0.959 . S
H1607 C1542 0.959 . S
H1608 C1543 0.960 . S
H1609 C1543 0.962 . S
H1610 C1543 0.961 . S
H1611 C1545 0.929 . S
H1612 C1548 0.930 . S
H1613 C1549 0.929 . S
H1614 C1552 0.930 . S
H1615 C1555 0.929 . S
H1616 C1556 0.930 . S
H1617 C1560 0.962 . S
H1618 C1560 0.959 . S
H1619 C1560 0.958 . S
C1620 C1621 1.560 . S
C1620 H1681 0.959 . S
C1620 H1682 0.959 . S
C1620 H1683 0.960 . S
C1621 C1620 1.560 . S
C1621 O1676 1.426 . S
C1621 H1680 0.980 1_565 S
C1622 C1623 1.407 1_565 S
C1622 C1627 1.418 . S
C1622 O1676 1.334 . S
C1623 C1622 1.407 1_545 S
C1623 C1624 1.360 . S
C1623 H1684 0.929 . S
C1624 C1623 1.360 . S
C1624 C1625 1.401 . S
C1624 C1628 1.527 . S
C1625 C1624 1.401 . S
C1625 C1626 1.405 1_545 S
C1625 C1658 1.587 . S
C1626 C1625 1.405 1_565 S
C1626 C1627 1.332 . S
C1626 C1629 1.496 . S
C1627 C1622 1.418 . S
C1627 C1626 1.332 . S
C1627 H1685 0.929 . S
C1628 C1624 1.527 . S
C1628 H1686 0.959 . S
C1628 H1687 0.961 . S
C1628 H1688 0.961 . S
C1629 C1626 1.496 . S
C1629 H1689 0.960 . S
C1629 H1690 0.960 . S
C1629 H1691 0.961 . S
C1630 C1631 1.517 . S
C1630 H1693 0.961 . S
C1630 H1694 0.960 . S
C1630 H1695 0.959 . S
C1631 C1630 1.517 . S
C1631 O1679 1.468 . S
C1631 H1692 0.980 . S
C1632 C1633 1.349 . S
C1632 C1637 1.367 . S
C1632 O1679 1.408 . S
C1633 C1632 1.349 . S
C1633 C1634 1.407 . S
C1633 H1696 0.943 . S
C1634 C1633 1.407 . S
C1634 C1635 1.449 . S
C1634 C1638 1.535 1_545 S
C1635 C1634 1.449 . S
C1635 C1636 1.384 . S
C1635 C1660 1.553 . S
C1636 C1635 1.384 . S
C1636 C1637 1.364 . S
C1636 C1639 1.450 . S
C1637 C1632 1.367 . S
C1637 C1636 1.364 . S
C1637 H1697 0.931 . S
C1638 C1634 1.535 1_565 S
C1638 H1698 0.959 . S
C1638 H1699 0.961 . S
C1638 H1700 0.959 . S
C1639 C1636 1.450 . S
C1639 H1701 0.960 . S
C1639 H1702 0.960 . S
C1639 H1703 0.960 . S
C1640 C1641 1.309 1_545 S
C1640 C1645 1.304 . S
C1640 O1678 1.435 . S
C1641 C1640 1.309 1_565 S
C1641 C1642 1.476 . S
C1641 H1705 0.930 . S
C1642 C1641 1.476 . S
C1642 C1643 1.400 1_565 S
C1642 C1646 1.567 . S
C1643 C1642 1.400 1_545 S
C1643 C1644 1.373 . S
C1643 C1665 1.432 . S
C1644 C1643 1.373 . S
C1644 C1645 1.339 . S
C1644 C1647 1.530 . S
C1645 C1640 1.304 . S
C1645 C1644 1.339 . S
C1645 H1706 0.930 . S
C1646 C1642 1.567 . S
C1646 H1707 0.961 . S
C1646 H1708 0.960 . S
C1646 H1709 0.958 . S
C1647 C1644 1.530 . S
C1647 H1710 0.961 . S
C1647 H1711 0.960 . S
C1647 H1712 0.960 . S
C1648 C1649 1.530 . S
C1648 H1714 0.961 . S
C1648 H1715 0.961 . S
C1648 H1716 0.959 . S
C1649 C1648 1.530 . S
C1649 O1677 1.412 . S
C1649 H1713 0.980 . S
C1650 C1651 1.288 . S
C1650 C1655 1.377 1_565 S
C1650 O1677 1.393 . S
C1651 C1650 1.288 . S
C1651 C1652 1.369 . S
C1651 H1717 0.932 . S
C1652 C1651 1.369 . S
C1652 C1653 1.398 . S
C1652 C1656 1.527 . S
C1653 C1652 1.398 . S
C1653 C1654 1.380 1_565 S
C1653 C1667 1.497 1_565 S
C1654 C1653 1.380 1_545 S
C1654 C1655 1.383 . S
C1654 C1657 1.603 . S
C1655 C1650 1.377 1_545 S
C1655 C1654 1.383 . S
C1655 H1718 0.929 . S
C1656 C1652 1.527 . S
C1656 H1719 0.961 . S
C1656 H1720 0.959 . S
C1656 H1721 0.959 . S
C1657 C1654 1.603 . S
C1657 H1722 0.960 . S
C1657 H1723 0.962 . S
C1657 H1724 0.961 . S
C1658 C1625 1.587 . S
C1658 C1659 1.360 . S
C1658 C1671 1.412 . S
C1659 C1658 1.360 . S
C1659 C1660 1.365 . S
C1659 H1725 0.929 . S
C1660 C1635 1.553 . S
C1660 C1659 1.365 . S
C1660 C1661 1.404 . S
C1661 C1660 1.404 . S
C1661 C1662 1.395 . S
C1661 C1672 1.451 . S
C1662 C1661 1.395 . S
C1662 C1663 1.322 . S
C1662 H1726 0.930 . S
C1663 C1662 1.322 . S
C1663 C1664 1.459 . S
C1663 H1727 0.929 . S
C1664 C1663 1.459 . S
C1664 C1665 1.445 . S
C1664 C1673 1.395 . S
C1665 C1643 1.432 . S
C1665 C1664 1.445 . S
C1665 C1666 1.370 . S
C1666 C1665 1.370 . S
C1666 C1667 1.438 . S
C1666 H1728 0.930 . S
C1667 C1653 1.497 1_545 S
C1667 C1666 1.438 . S
C1667 C1668 1.360 . S
C1668 C1667 1.360 . S
C1668 C1669 1.401 . S
C1668 C1673 1.446 . S
C1669 C1668 1.401 . S
C1669 C1670 1.347 . S
C1669 H1729 0.933 . S
C1670 C1669 1.347 . S
C1670 C1671 1.455 . S
C1670 H1730 0.930 . S
C1671 C1658 1.412 . S
C1671 C1670 1.455 . S
C1671 C1672 1.331 . S
C1672 C1661 1.451 . S
C1672 C1671 1.331 . S
C1672 C1673 1.497 . S
C1673 C1664 1.395 . S
C1673 C1668 1.446 . S
C1673 C1672 1.497 . S
C1674 C1675 1.582 . S
C1674 H1731 0.962 . S
C1674 H1732 0.959 . S
C1674 H1733 0.958 . S
C1675 C1674 1.582 . S
C1675 O1678 1.458 . S
C1675 H1704 0.981 1_545 S
O1676 C1621 1.426 . S
O1676 C1622 1.334 . S
O1677 C1649 1.412 . S
O1677 C1650 1.393 . S
O1678 C1640 1.435 . S
O1678 C1675 1.458 . S
O1679 C1631 1.468 . S
O1679 C1632 1.408 . S
H1680 C1621 0.980 1_545 S
H1681 C1620 0.959 . S
H1682 C1620 0.959 . S
H1683 C1620 0.960 . S
H1684 C1623 0.929 . S
H1685 C1627 0.929 . S
H1686 C1628 0.959 . S
H1687 C1628 0.961 . S
H1688 C1628 0.961 . S
H1689 C1629 0.960 . S
H1690 C1629 0.960 . S
H1691 C1629 0.961 . S
H1692 C1631 0.980 . S
H1693 C1630 0.961 . S
H1694 C1630 0.960 . S
H1695 C1630 0.959 . S
H1696 C1633 0.943 . S
H1697 C1637 0.931 . S
H1698 C1638 0.959 . S
H1699 C1638 0.961 . S
H1700 C1638 0.959 . S
H1701 C1639 0.960 . S
H1702 C1639 0.960 . S
H1703 C1639 0.960 . S
H1704 C1675 0.981 1_565 S
H1705 C1641 0.930 . S
H1706 C1645 0.930 . S
H1707 C1646 0.961 . S
H1708 C1646 0.960 . S
H1709 C1646 0.958 . S
H1710 C1647 0.961 . S
H1711 C1647 0.960 . S
H1712 C1647 0.960 . S
H1713 C1649 0.980 . S
H1714 C1648 0.961 . S
H1715 C1648 0.961 . S
H1716 C1648 0.959 . S
H1717 C1651 0.932 . S
H1718 C1655 0.929 . S
H1719 C1656 0.961 . S
H1720 C1656 0.959 . S
H1721 C1656 0.959 . S
H1722 C1657 0.960 . S
H1723 C1657 0.962 . S
H1724 C1657 0.961 . S
H1725 C1659 0.929 . S
H1726 C1662 0.930 . S
H1727 C1663 0.929 . S
H1728 C1666 0.930 . S
H1729 C1669 0.933 . S
H1730 C1670 0.930 . S
H1731 C1674 0.962 . S
H1732 C1674 0.959 . S
H1733 C1674 0.958 . S
C1734 C1735 1.560 . S
C1734 H1795 0.959 . S
C1734 H1796 0.959 . S
C1734 H1797 0.960 . S
C1735 C1734 1.560 . S
C1735 O1790 1.426 . S
C1735 H1794 0.980 1_455 S
C1736 C1737 1.407 1_455 S
C1736 C1741 1.418 . S
C1736 O1790 1.334 . S
C1737 C1736 1.407 1_655 S
C1737 C1738 1.360 . S
C1737 H1798 0.929 . S
C1738 C1737 1.360 . S
C1738 C1739 1.401 . S
C1738 C1742 1.527 . S
C1739 C1738 1.401 . S
C1739 C1740 1.405 1_655 S
C1739 C1772 1.587 . S
C1740 C1739 1.405 1_455 S
C1740 C1741 1.332 . S
C1740 C1743 1.496 . S
C1741 C1736 1.418 . S
C1741 C1740 1.332 . S
C1741 H1799 0.929 . S
C1742 C1738 1.527 . S
C1742 H1800 0.959 . S
C1742 H1801 0.961 . S
C1742 H1802 0.961 . S
C1743 C1740 1.496 . S
C1743 H1803 0.960 . S
C1743 H1804 0.960 . S
C1743 H1805 0.961 . S
C1744 C1745 1.517 . S
C1744 H1807 0.961 . S
C1744 H1808 0.960 . S
C1744 H1809 0.959 . S
C1745 C1744 1.517 . S
C1745 O1793 1.468 . S
C1745 H1806 0.980 . S
C1746 C1747 1.349 . S
C1746 C1751 1.367 . S
C1746 O1793 1.408 . S
C1747 C1746 1.349 . S
C1747 C1748 1.407 . S
C1747 H1810 0.921 1_655 S
C1748 C1747 1.407 . S
C1748 C1749 1.449 . S
C1748 C1752 1.535 1_655 S
C1749 C1748 1.449 . S
C1749 C1750 1.384 . S
C1749 C1774 1.553 . S
C1750 C1749 1.384 . S
C1750 C1751 1.364 . S
C1750 C1753 1.450 . S
C1751 C1746 1.367 . S
C1751 C1750 1.364 . S
C1751 H1811 0.931 . S
C1752 C1748 1.535 1_455 S
C1752 H1812 0.959 . S
C1752 H1813 0.961 . S
C1752 H1814 0.959 . S
C1753 C1750 1.450 . S
C1753 H1815 0.960 . S
C1753 H1816 0.960 . S
C1753 H1817 0.960 . S
C1754 C1755 1.309 1_655 S
C1754 C1759 1.304 . S
C1754 O1792 1.435 . S
C1755 C1754 1.309 1_455 S
C1755 C1756 1.476 . S
C1755 H1819 0.930 . S
C1756 C1755 1.476 . S
C1756 C1757 1.400 1_455 S
C1756 C1760 1.567 . S
C1757 C1756 1.400 1_655 S
C1757 C1758 1.373 . S
C1757 C1779 1.432 . S
C1758 C1757 1.373 . S
C1758 C1759 1.339 . S
C1758 C1761 1.530 . S
C1759 C1754 1.304 . S
C1759 C1758 1.339 . S
C1759 H1820 0.930 . S
C1760 C1756 1.567 . S
C1760 H1821 0.961 . S
C1760 H1822 0.960 . S
C1760 H1823 0.958 . S
C1761 C1758 1.530 . S
C1761 H1824 0.961 . S
C1761 H1825 0.960 . S
C1761 H1826 0.960 . S
C1762 C1763 1.530 . S
C1762 H1828 0.961 . S
C1762 H1829 0.961 . S
C1762 H1830 0.959 . S
C1763 C1762 1.530 . S
C1763 O1791 1.412 . S
C1763 H1827 0.978 . S
C1764 C1765 1.288 . S
C1764 C1769 1.377 1_455 S
C1764 O1791 1.393 . S
C1765 C1764 1.288 . S
C1765 C1766 1.369 . S
C1765 H1831 0.932 . S
C1766 C1765 1.369 . S
C1766 C1767 1.398 . S
C1766 C1770 1.527 . S
C1767 C1766 1.398 . S
C1767 C1768 1.380 1_455 S
C1767 C1781 1.497 1_455 S
C1768 C1767 1.380 1_655 S
C1768 C1769 1.383 . S
C1768 C1771 1.603 . S
C1769 C1764 1.377 1_655 S
C1769 C1768 1.383 . S
C1769 H1832 0.929 . S
C1770 C1766 1.527 . S
C1770 H1833 0.961 . S
C1770 H1834 0.959 . S
C1770 H1835 0.959 . S
C1771 C1768 1.603 . S
C1771 H1836 0.960 . S
C1771 H1837 0.962 . S
C1771 H1838 0.961 . S
C1772 C1739 1.587 . S
C1772 C1773 1.360 . S
C1772 C1785 1.412 . S
C1773 C1772 1.360 . S
C1773 C1774 1.365 . S
C1773 H1839 0.929 . S
C1774 C1749 1.553 . S
C1774 C1773 1.365 . S
C1774 C1775 1.404 . S
C1775 C1774 1.404 . S
C1775 C1776 1.395 . S
C1775 C1786 1.451 . S
C1776 C1775 1.395 . S
C1776 C1777 1.322 . S
C1776 H1840 0.930 . S
C1777 C1776 1.322 . S
C1777 C1778 1.459 . S
C1777 H1841 0.929 . S
C1778 C1777 1.459 . S
C1778 C1779 1.445 . S
C1778 C1787 1.395 . S
C1779 C1757 1.432 . S
C1779 C1778 1.445 . S
C1779 C1780 1.370 . S
C1780 C1779 1.370 . S
C1780 C1781 1.438 . S
C1780 H1842 0.930 . S
C1781 C1767 1.497 1_655 S
C1781 C1780 1.438 . S
C1781 C1782 1.360 . S
C1782 C1781 1.360 . S
C1782 C1783 1.401 . S
C1782 C1787 1.446 . S
C1783 C1782 1.401 . S
C1783 C1784 1.347 . S
C1783 H1843 0.929 . S
C1784 C1783 1.347 . S
C1784 C1785 1.455 . S
C1784 H1844 0.930 . S
C1785 C1772 1.412 . S
C1785 C1784 1.455 . S
C1785 C1786 1.331 . S
C1786 C1775 1.451 . S
C1786 C1785 1.331 . S
C1786 C1787 1.497 . S
C1787 C1778 1.395 . S
C1787 C1782 1.446 . S
C1787 C1786 1.497 . S
C1788 C1789 1.582 1_655 S
C1788 H1845 0.962 1_655 S
C1788 H1846 0.959 . S
C1788 H1847 0.958 . S
C1789 C1788 1.582 1_455 S
C1789 O1792 1.458 1_455 S
C1789 H1818 0.980 . S
O1790 C1735 1.426 . S
O1790 C1736 1.334 . S
O1791 C1763 1.412 . S
O1791 C1764 1.393 . S
O1792 C1754 1.435 . S
O1792 C1789 1.458 1_655 S
O1793 C1745 1.468 . S
O1793 C1746 1.408 . S
H1794 C1735 0.980 1_655 S
H1795 C1734 0.959 . S
H1796 C1734 0.959 . S
H1797 C1734 0.960 . S
H1798 C1737 0.929 . S
H1799 C1741 0.929 . S
H1800 C1742 0.959 . S
H1801 C1742 0.961 . S
H1802 C1742 0.961 . S
H1803 C1743 0.960 . S
H1804 C1743 0.960 . S
H1805 C1743 0.961 . S
H1806 C1745 0.980 . S
H1807 C1744 0.961 . S
H1808 C1744 0.960 . S
H1809 C1744 0.959 . S
H1810 C1747 0.921 1_455 S
H1811 C1751 0.931 . S
H1812 C1752 0.959 . S
H1813 C1752 0.961 . S
H1814 C1752 0.959 . S
H1815 C1753 0.960 . S
H1816 C1753 0.960 . S
H1817 C1753 0.960 . S
H1818 C1789 0.980 . S
H1819 C1755 0.930 . S
H1820 C1759 0.930 . S
H1821 C1760 0.961 . S
H1822 C1760 0.960 . S
H1823 C1760 0.958 . S
H1824 C1761 0.961 . S
H1825 C1761 0.960 . S
H1826 C1761 0.960 . S
H1827 C1763 0.978 . S
H1828 C1762 0.961 . S
H1829 C1762 0.961 . S
H1830 C1762 0.959 . S
H1831 C1765 0.932 . S
H1832 C1769 0.929 . S
H1833 C1770 0.961 . S
H1834 C1770 0.959 . S
H1835 C1770 0.959 . S
H1836 C1771 0.960 . S
H1837 C1771 0.962 . S
H1838 C1771 0.961 . S
H1839 C1773 0.929 . S
H1840 C1776 0.930 . S
H1841 C1777 0.929 . S
H1842 C1780 0.930 . S
H1843 C1783 0.929 . S
H1844 C1784 0.930 . S
H1845 C1788 0.962 1_455 S
H1846 C1788 0.959 . S
H1847 C1788 0.958 . S
C1848 C1849 1.560 . S
C1848 H1909 0.959 . S
C1848 H1910 0.959 . S
C1848 H1911 0.960 . S
C1849 C1848 1.560 . S
C1849 O1904 1.426 . S
C1849 H1908 0.980 . S
C1850 C1851 1.407 . S
C1850 C1855 1.418 . S
C1850 O1904 1.334 . S
C1851 C1850 1.407 . S
C1851 C1852 1.360 . S
C1851 H1912 0.929 . S
C1852 C1851 1.360 . S
C1852 C1853 1.401 . S
C1852 C1856 1.527 . S
C1853 C1852 1.401 . S
C1853 C1854 1.405 . S
C1853 C1886 1.587 . S
C1854 C1853 1.405 . S
C1854 C1855 1.332 . S
C1854 C1857 1.496 . S
C1855 C1850 1.418 . S
C1855 C1854 1.332 . S
C1855 H1913 0.929 . S
C1856 C1852 1.527 . S
C1856 H1914 0.959 . S
C1856 H1915 0.961 . S
C1856 H1916 0.961 . S
C1857 C1854 1.496 . S
C1857 H1917 0.960 . S
C1857 H1918 0.960 . S
C1857 H1919 0.961 . S
C1858 C1859 1.517 . S
C1858 H1921 0.961 . S
C1858 H1922 0.960 . S
C1858 H1923 0.959 . S
C1859 C1858 1.517 . S
C1859 O1907 1.468 . S
C1859 H1920 0.980 . S
C1860 C1861 1.349 . S
C1860 C1865 1.367 . S
C1860 O1907 1.408 . S
C1861 C1860 1.349 . S
C1861 C1862 1.407 . S
C1861 H1924 0.930 . S
C1862 C1861 1.407 . S
C1862 C1863 1.449 . S
C1862 C1866 1.535 . S
C1863 C1862 1.449 . S
C1863 C1864 1.384 . S
C1863 C1888 1.553 . S
C1864 C1863 1.384 . S
C1864 C1865 1.364 . S
C1864 C1867 1.450 . S
C1865 C1860 1.367 . S
C1865 C1864 1.364 . S
C1865 H1925 0.931 . S
C1866 C1862 1.535 . S
C1866 H1926 0.959 . S
C1866 H1927 0.961 . S
C1866 H1928 0.959 . S
C1867 C1864 1.450 . S
C1867 H1929 0.960 . S
C1867 H1930 0.960 . S
C1867 H1931 0.960 . S
C1868 C1869 1.309 . S
C1868 C1873 1.304 . S
C1868 O1906 1.435 . S
C1869 C1868 1.309 . S
C1869 C1870 1.476 . S
C1869 H1933 0.930 . S
C1870 C1869 1.476 . S
C1870 C1871 1.400 . S
C1870 C1874 1.567 . S
C1871 C1870 1.400 . S
C1871 C1872 1.373 . S
C1871 C1893 1.432 . S
C1872 C1871 1.373 . S
C1872 C1873 1.339 . S
C1872 C1875 1.530 . S
C1873 C1868 1.304 . S
C1873 C1872 1.339 . S
C1873 H1934 0.930 . S
C1874 C1870 1.567 . S
C1874 H1935 0.961 . S
C1874 H1936 0.960 . S
C1874 H1937 0.958 . S
C1875 C1872 1.530 . S
C1875 H1938 0.961 . S
C1875 H1939 0.960 . S
C1875 H1940 0.960 . S
C1876 C1877 1.530 . S
C1876 H1942 0.961 . S
C1876 H1943 0.961 . S
C1876 H1944 0.959 . S
C1877 C1876 1.530 . S
C1877 O1905 1.412 . S
C1877 H1941 0.980 . S
C1878 C1879 1.288 . S
C1878 C1883 1.377 . S
C1878 O1905 1.393 . S
C1879 C1878 1.288 . S
C1879 C1880 1.369 . S
C1879 H1945 0.932 . S
C1880 C1879 1.369 . S
C1880 C1881 1.398 . S
C1880 C1884 1.527 . S
C1881 C1880 1.398 . S
C1881 C1882 1.380 . S
C1881 C1895 1.497 . S
C1882 C1881 1.380 . S
C1882 C1883 1.383 . S
C1882 C1885 1.603 . S
C1883 C1878 1.377 . S
C1883 C1882 1.383 . S
C1883 H1946 0.929 . S
C1884 C1880 1.527 . S
C1884 H1947 0.961 . S
C1884 H1948 0.959 . S
C1884 H1949 0.959 . S
C1885 C1882 1.603 . S
C1885 H1950 0.960 . S
C1885 H1951 0.962 . S
C1885 H1952 0.961 . S
C1886 C1853 1.587 . S
C1886 C1887 1.360 . S
C1886 C1899 1.412 . S
C1887 C1886 1.360 . S
C1887 C1888 1.365 . S
C1887 H1953 0.929 . S
C1888 C1863 1.553 . S
C1888 C1887 1.365 . S
C1888 C1889 1.404 . S
C1889 C1888 1.404 . S
C1889 C1890 1.395 . S
C1889 C1900 1.451 . S
C1890 C1889 1.395 . S
C1890 C1891 1.322 . S
C1890 H1954 0.930 . S
C1891 C1890 1.322 . S
C1891 C1892 1.459 . S
C1891 H1955 0.929 . S
C1892 C1891 1.459 . S
C1892 C1893 1.445 . S
C1892 C1901 1.395 . S
C1893 C1871 1.432 . S
C1893 C1892 1.445 . S
C1893 C1894 1.370 . S
C1894 C1893 1.370 . S
C1894 C1895 1.438 . S
C1894 H1956 0.930 . S
C1895 C1881 1.497 . S
C1895 C1894 1.438 . S
C1895 C1896 1.360 . S
C1896 C1895 1.360 . S
C1896 C1897 1.401 . S
C1896 C1901 1.446 . S
C1897 C1896 1.401 . S
C1897 C1898 1.347 . S
C1897 H1957 0.929 . S
C1898 C1897 1.347 . S
C1898 C1899 1.455 . S
C1898 H1958 0.930 . S
C1899 C1886 1.412 . S
C1899 C1898 1.455 . S
C1899 C1900 1.331 . S
C1900 C1889 1.451 . S
C1900 C1899 1.331 . S
C1900 C1901 1.497 . S
C1901 C1892 1.395 . S
C1901 C1896 1.446 . S
C1901 C1900 1.497 . S
C1902 C1903 1.582 . S
C1902 H1959 0.962 . S
C1902 H1960 0.959 . S
C1902 H1961 0.958 . S
C1903 C1902 1.582 . S
C1903 O1906 1.458 . S
C1903 H1932 0.980 . S
O1904 C1849 1.426 . S
O1904 C1850 1.334 . S
O1905 C1877 1.412 . S
O1905 C1878 1.393 . S
O1906 C1868 1.435 . S
O1906 C1903 1.458 . S
O1907 C1859 1.468 . S
O1907 C1860 1.408 . S
H1908 C1849 0.980 . S
H1909 C1848 0.959 . S
H1910 C1848 0.959 . S
H1911 C1848 0.960 . S
H1912 C1851 0.929 . S
H1913 C1855 0.929 . S
H1914 C1856 0.959 . S
H1915 C1856 0.961 . S
H1916 C1856 0.961 . S
H1917 C1857 0.960 . S
H1918 C1857 0.960 . S
H1919 C1857 0.961 . S
H1920 C1859 0.980 . S
H1921 C1858 0.961 . S
H1922 C1858 0.960 . S
H1923 C1858 0.959 . S
H1924 C1861 0.930 . S
H1925 C1865 0.931 . S
H1926 C1866 0.959 . S
H1927 C1866 0.961 . S
H1928 C1866 0.959 . S
H1929 C1867 0.960 . S
H1930 C1867 0.960 . S
H1931 C1867 0.960 . S
H1932 C1903 0.980 . S
H1933 C1869 0.930 . S
H1934 C1873 0.930 . S
H1935 C1874 0.961 . S
H1936 C1874 0.960 . S
H1937 C1874 0.958 . S
H1938 C1875 0.961 . S
H1939 C1875 0.960 . S
H1940 C1875 0.960 . S
H1941 C1877 0.980 . S
H1942 C1876 0.961 . S
H1943 C1876 0.961 . S
H1944 C1876 0.959 . S
H1945 C1879 0.932 . S
H1946 C1883 0.929 . S
H1947 C1884 0.961 . S
H1948 C1884 0.959 . S
H1949 C1884 0.959 . S
H1950 C1885 0.960 . S
H1951 C1885 0.962 . S
H1952 C1885 0.961 . S
H1953 C1887 0.929 . S
H1954 C1890 0.930 . S
H1955 C1891 0.929 . S
H1956 C1894 0.930 . S
H1957 C1897 0.929 . S
H1958 C1898 0.930 . S
H1959 C1902 0.962 . S
H1960 C1902 0.959 . S
H1961 C1902 0.958 . S
C1962 C1963 1.560 . S
C1962 H2023 0.959 . S
C1962 H2024 0.959 . S
C1962 H2025 0.960 . S
C1963 C1962 1.560 . S
C1963 O2018 1.426 . S
C1963 H2022 0.980 . S
C1964 C1965 1.407 . S
C1964 C1969 1.418 . S
C1964 O2018 1.334 . S
C1965 C1964 1.407 . S
C1965 C1966 1.360 . S
C1965 H2026 0.929 . S
C1966 C1965 1.360 . S
C1966 C1967 1.401 . S
C1966 C1970 1.527 . S
C1967 C1966 1.401 . S
C1967 C1968 1.405 . S
C1967 C2000 1.587 . S
C1968 C1967 1.405 . S
C1968 C1969 1.332 . S
C1968 C1971 1.496 . S
C1969 C1964 1.418 . S
C1969 C1968 1.332 . S
C1969 H2027 0.929 . S
C1970 C1966 1.527 . S
C1970 H2028 0.959 . S
C1970 H2029 0.961 . S
C1970 H2030 0.961 . S
C1971 C1968 1.496 . S
C1971 H2031 0.960 . S
C1971 H2032 0.960 . S
C1971 H2033 0.961 . S
C1972 C1973 1.517 . S
C1972 H2035 0.961 . S
C1972 H2036 0.960 . S
C1972 H2037 0.959 . S
C1973 C1972 1.517 . S
C1973 O2021 1.468 . S
C1973 H2034 0.980 . S
C1974 C1975 1.349 . S
C1974 C1979 1.367 . S
C1974 O2021 1.408 . S
C1975 C1974 1.349 . S
C1975 C1976 1.407 . S
C1975 H2038 0.930 . S
C1976 C1975 1.407 . S
C1976 C1977 1.449 . S
C1976 C1980 1.535 . S
C1977 C1976 1.449 . S
C1977 C1978 1.384 . S
C1977 C2002 1.553 . S
C1978 C1977 1.384 . S
C1978 C1979 1.364 . S
C1978 C1981 1.450 . S
C1979 C1974 1.367 . S
C1979 C1978 1.364 . S
C1979 H2039 0.931 . S
C1980 C1976 1.535 . S
C1980 H2040 0.959 . S
C1980 H2041 0.961 . S
C1980 H2042 0.959 . S
C1981 C1978 1.450 . S
C1981 H2043 0.960 . S
C1981 H2044 0.960 . S
C1981 H2045 0.960 . S
C1982 C1983 1.309 . S
C1982 C1987 1.304 . S
C1982 O2020 1.435 . S
C1983 C1982 1.309 . S
C1983 C1984 1.476 . S
C1983 H2047 0.930 . S
C1984 C1983 1.476 . S
C1984 C1985 1.400 . S
C1984 C1988 1.567 . S
C1985 C1984 1.400 . S
C1985 C1986 1.373 . S
C1985 C2007 1.432 . S
C1986 C1985 1.373 . S
C1986 C1987 1.339 . S
C1986 C1989 1.530 . S
C1987 C1982 1.304 . S
C1987 C1986 1.339 . S
C1987 H2048 0.930 . S
C1988 C1984 1.567 . S
C1988 H2049 0.961 . S
C1988 H2050 0.960 . S
C1988 H2051 0.958 . S
C1989 C1986 1.530 . S
C1989 H2052 0.961 . S
C1989 H2053 0.960 . S
C1989 H2054 0.960 . S
C1990 C1991 1.530 . S
C1990 H2056 0.961 . S
C1990 H2057 0.961 . S
C1990 H2058 0.959 . S
C1991 C1990 1.530 . S
C1991 O2019 1.412 . S
C1991 H2055 0.980 . S
C1992 C1993 1.288 . S
C1992 C1997 1.377 . S
C1992 O2019 1.393 . S
C1993 C1992 1.288 . S
C1993 C1994 1.369 . S
C1993 H2059 0.932 . S
C1994 C1993 1.369 . S
C1994 C1995 1.398 . S
C1994 C1998 1.527 . S
C1995 C1994 1.398 . S
C1995 C1996 1.380 . S
C1995 C2009 1.497 . S
C1996 C1995 1.380 . S
C1996 C1997 1.383 . S
C1996 C1999 1.603 . S
C1997 C1992 1.377 . S
C1997 C1996 1.383 . S
C1997 H2060 0.929 . S
C1998 C1994 1.527 . S
C1998 H2061 0.961 . S
C1998 H2062 0.959 . S
C1998 H2063 0.959 . S
C1999 C1996 1.603 . S
C1999 H2064 0.960 . S
C1999 H2065 0.962 . S
C1999 H2066 0.961 . S
C2000 C1967 1.587 . S
C2000 C2001 1.360 . S
C2000 C2013 1.412 . S
C2001 C2000 1.360 . S
C2001 C2002 1.365 . S
C2001 H2067 0.929 . S
C2002 C1977 1.553 . S
C2002 C2001 1.365 . S
C2002 C2003 1.404 . S
C2003 C2002 1.404 . S
C2003 C2004 1.395 . S
C2003 C2014 1.451 . S
C2004 C2003 1.395 . S
C2004 C2005 1.322 . S
C2004 H2068 0.930 . S
C2005 C2004 1.322 . S
C2005 C2006 1.459 . S
C2005 H2069 0.929 . S
C2006 C2005 1.459 . S
C2006 C2007 1.445 . S
C2006 C2015 1.395 . S
C2007 C1985 1.432 . S
C2007 C2006 1.445 . S
C2007 C2008 1.370 . S
C2008 C2007 1.370 . S
C2008 C2009 1.438 . S
C2008 H2070 0.930 . S
C2009 C1995 1.497 . S
C2009 C2008 1.438 . S
C2009 C2010 1.360 . S
C2010 C2009 1.360 . S
C2010 C2011 1.401 . S
C2010 C2015 1.446 . S
C2011 C2010 1.401 . S
C2011 C2012 1.347 . S
C2011 H2071 0.929 . S
C2012 C2011 1.347 . S
C2012 C2013 1.455 . S
C2012 H2072 0.930 . S
C2013 C2000 1.412 . S
C2013 C2012 1.455 . S
C2013 C2014 1.331 . S
C2014 C2003 1.451 . S
C2014 C2013 1.331 . S
C2014 C2015 1.497 . S
C2015 C2006 1.395 . S
C2015 C2010 1.446 . S
C2015 C2014 1.497 . S
C2016 C2017 1.582 . S
C2016 H2073 0.962 . S
C2016 H2074 0.959 . S
C2016 H2075 0.958 . S
C2017 C2016 1.582 . S
C2017 O2020 1.458 . S
C2017 H2046 0.980 . S
O2018 C1963 1.426 . S
O2018 C1964 1.334 . S
O2019 C1991 1.412 . S
O2019 C1992 1.393 . S
O2020 C1982 1.435 . S
O2020 C2017 1.458 . S
O2021 C1973 1.468 . S
O2021 C1974 1.408 . S
H2022 C1963 0.980 . S
H2023 C1962 0.959 . S
H2024 C1962 0.959 . S
H2025 C1962 0.960 . S
H2026 C1965 0.929 . S
H2027 C1969 0.929 . S
H2028 C1970 0.959 . S
H2029 C1970 0.961 . S
H2030 C1970 0.961 . S
H2031 C1971 0.960 . S
H2032 C1971 0.960 . S
H2033 C1971 0.961 . S
H2034 C1973 0.980 . S
H2035 C1972 0.961 . S
H2036 C1972 0.960 . S
H2037 C1972 0.959 . S
H2038 C1975 0.930 . S
H2039 C1979 0.931 . S
H2040 C1980 0.959 . S
H2041 C1980 0.961 . S
H2042 C1980 0.959 . S
H2043 C1981 0.960 . S
H2044 C1981 0.960 . S
H2045 C1981 0.960 . S
H2046 C2017 0.980 . S
H2047 C1983 0.930 . S
H2048 C1987 0.930 . S
H2049 C1988 0.961 . S
H2050 C1988 0.960 . S
H2051 C1988 0.958 . S
H2052 C1989 0.961 . S
H2053 C1989 0.960 . S
H2054 C1989 0.960 . S
H2055 C1991 0.980 . S
H2056 C1990 0.961 . S
H2057 C1990 0.961 . S
H2058 C1990 0.959 . S
H2059 C1993 0.932 . S
H2060 C1997 0.929 . S
H2061 C1998 0.961 . S
H2062 C1998 0.959 . S
H2063 C1998 0.959 . S
H2064 C1999 0.960 . S
H2065 C1999 0.962 . S
H2066 C1999 0.961 . S
H2067 C2001 0.929 . S
H2068 C2004 0.930 . S
H2069 C2005 0.929 . S
H2070 C2008 0.930 . S
H2071 C2011 0.929 . S
H2072 C2012 0.930 . S
H2073 C2016 0.962 . S
H2074 C2016 0.959 . S
H2075 C2016 0.958 . S
C2076 C2077 1.560 . S
C2076 H2137 0.959 . S
C2076 H2138 0.959 . S
C2076 H2139 0.960 . S
C2077 C2076 1.560 . S
C2077 O2132 1.426 . S
C2077 H2136 0.980 . S
C2078 C2079 1.407 . S
C2078 C2083 1.418 . S
C2078 O2132 1.334 . S
C2079 C2078 1.407 . S
C2079 C2080 1.360 . S
C2079 H2140 0.929 . S
C2080 C2079 1.360 . S
C2080 C2081 1.401 . S
C2080 C2084 1.527 . S
C2081 C2080 1.401 . S
C2081 C2082 1.405 . S
C2081 C2114 1.587 . S
C2082 C2081 1.405 . S
C2082 C2083 1.332 . S
C2082 C2085 1.496 . S
C2083 C2078 1.418 . S
C2083 C2082 1.332 . S
C2083 H2141 0.929 . S
C2084 C2080 1.527 . S
C2084 H2142 0.959 . S
C2084 H2143 0.961 . S
C2084 H2144 0.961 . S
C2085 C2082 1.496 . S
C2085 H2145 0.960 . S
C2085 H2146 0.960 . S
C2085 H2147 0.961 . S
C2086 C2087 1.517 . S
C2086 H2149 0.961 . S
C2086 H2150 0.960 . S
C2086 H2151 0.959 . S
C2087 C2086 1.517 . S
C2087 O2135 1.468 . S
C2087 H2148 0.980 . S
C2088 C2089 1.349 . S
C2088 C2093 1.367 . S
C2088 O2135 1.408 . S
C2089 C2088 1.349 . S
C2089 C2090 1.407 . S
C2089 H2152 0.930 . S
C2090 C2089 1.407 . S
C2090 C2091 1.449 . S
C2090 C2094 1.535 . S
C2091 C2090 1.449 . S
C2091 C2092 1.384 . S
C2091 C2116 1.553 . S
C2092 C2091 1.384 . S
C2092 C2093 1.364 . S
C2092 C2095 1.450 . S
C2093 C2088 1.367 . S
C2093 C2092 1.364 . S
C2093 H2153 0.931 . S
C2094 C2090 1.535 . S
C2094 H2154 0.959 . S
C2094 H2155 0.961 . S
C2094 H2156 0.959 . S
C2095 C2092 1.450 . S
C2095 H2157 0.960 . S
C2095 H2158 0.960 . S
C2095 H2159 0.960 . S
C2096 C2097 1.309 . S
C2096 C2101 1.304 . S
C2096 O2134 1.435 . S
C2097 C2096 1.309 . S
C2097 C2098 1.476 . S
C2097 H2161 0.930 . S
C2098 C2097 1.476 . S
C2098 C2099 1.400 . S
C2098 C2102 1.567 . S
C2099 C2098 1.400 . S
C2099 C2100 1.373 . S
C2099 C2121 1.432 . S
C2100 C2099 1.373 . S
C2100 C2101 1.339 . S
C2100 C2103 1.530 . S
C2101 C2096 1.304 . S
C2101 C2100 1.339 . S
C2101 H2162 0.930 . S
C2102 C2098 1.567 . S
C2102 H2163 0.961 . S
C2102 H2164 0.960 . S
C2102 H2165 0.958 . S
C2103 C2100 1.530 . S
C2103 H2166 0.961 . S
C2103 H2167 0.960 . S
C2103 H2168 0.960 . S
C2104 C2105 1.530 . S
C2104 H2170 0.961 . S
C2104 H2171 0.961 . S
C2104 H2172 0.959 . S
C2105 C2104 1.530 . S
C2105 O2133 1.412 . S
C2105 H2169 0.980 . S
C2106 C2107 1.288 . S
C2106 C2111 1.377 . S
C2106 O2133 1.393 . S
C2107 C2106 1.288 . S
C2107 C2108 1.369 . S
C2107 H2173 0.932 . S
C2108 C2107 1.369 . S
C2108 C2109 1.398 . S
C2108 C2112 1.527 . S
C2109 C2108 1.398 . S
C2109 C2110 1.380 . S
C2109 C2123 1.497 . S
C2110 C2109 1.380 . S
C2110 C2111 1.383 . S
C2110 C2113 1.603 . S
C2111 C2106 1.377 . S
C2111 C2110 1.383 . S
C2111 H2174 0.929 . S
C2112 C2108 1.527 . S
C2112 H2175 0.961 . S
C2112 H2176 0.959 . S
C2112 H2177 0.959 . S
C2113 C2110 1.603 . S
C2113 H2178 0.960 . S
C2113 H2179 0.962 . S
C2113 H2180 0.961 . S
C2114 C2081 1.587 . S
C2114 C2115 1.360 . S
C2114 C2127 1.412 . S
C2115 C2114 1.360 . S
C2115 C2116 1.365 . S
C2115 H2181 0.929 . S
C2116 C2091 1.553 . S
C2116 C2115 1.365 . S
C2116 C2117 1.404 . S
C2117 C2116 1.404 . S
C2117 C2118 1.395 . S
C2117 C2128 1.451 . S
C2118 C2117 1.395 . S
C2118 C2119 1.322 . S
C2118 H2182 0.930 . S
C2119 C2118 1.322 . S
C2119 C2120 1.459 . S
C2119 H2183 0.929 . S
C2120 C2119 1.459 . S
C2120 C2121 1.445 . S
C2120 C2129 1.395 . S
C2121 C2099 1.432 . S
C2121 C2120 1.445 . S
C2121 C2122 1.370 . S
C2122 C2121 1.370 . S
C2122 C2123 1.438 . S
C2122 H2184 0.930 . S
C2123 C2109 1.497 . S
C2123 C2122 1.438 . S
C2123 C2124 1.360 . S
C2124 C2123 1.360 . S
C2124 C2125 1.401 . S
C2124 C2129 1.446 . S
C2125 C2124 1.401 . S
C2125 C2126 1.347 . S
C2125 H2185 0.929 . S
C2126 C2125 1.347 . S
C2126 C2127 1.455 . S
C2126 H2186 0.930 . S
C2127 C2114 1.412 . S
C2127 C2126 1.455 . S
C2127 C2128 1.331 . S
C2128 C2117 1.451 . S
C2128 C2127 1.331 . S
C2128 C2129 1.497 . S
C2129 C2120 1.395 . S
C2129 C2124 1.446 . S
C2129 C2128 1.497 . S
C2130 C2131 1.582 . S
C2130 H2187 0.962 . S
C2130 H2188 0.959 . S
C2130 H2189 0.958 . S
C2131 C2130 1.582 . S
C2131 O2134 1.458 . S
C2131 H2160 0.980 . S
O2132 C2077 1.426 . S
O2132 C2078 1.334 . S
O2133 C2105 1.412 . S
O2133 C2106 1.393 . S
O2134 C2096 1.435 . S
O2134 C2131 1.458 . S
O2135 C2087 1.468 . S
O2135 C2088 1.408 . S
H2136 C2077 0.980 . S
H2137 C2076 0.959 . S
H2138 C2076 0.959 . S
H2139 C2076 0.960 . S
H2140 C2079 0.929 . S
H2141 C2083 0.929 . S
H2142 C2084 0.959 . S
H2143 C2084 0.961 . S
H2144 C2084 0.961 . S
H2145 C2085 0.960 . S
H2146 C2085 0.960 . S
H2147 C2085 0.961 . S
H2148 C2087 0.980 . S
H2149 C2086 0.961 . S
H2150 C2086 0.960 . S
H2151 C2086 0.959 . S
H2152 C2089 0.930 . S
H2153 C2093 0.931 . S
H2154 C2094 0.959 . S
H2155 C2094 0.961 . S
H2156 C2094 0.959 . S
H2157 C2095 0.960 . S
H2158 C2095 0.960 . S
H2159 C2095 0.960 . S
H2160 C2131 0.980 . S
H2161 C2097 0.930 . S
H2162 C2101 0.930 . S
H2163 C2102 0.961 . S
H2164 C2102 0.960 . S
H2165 C2102 0.958 . S
H2166 C2103 0.961 . S
H2167 C2103 0.960 . S
H2168 C2103 0.960 . S
H2169 C2105 0.980 . S
H2170 C2104 0.961 . S
H2171 C2104 0.961 . S
H2172 C2104 0.959 . S
H2173 C2107 0.932 . S
H2174 C2111 0.929 . S
H2175 C2112 0.961 . S
H2176 C2112 0.959 . S
H2177 C2112 0.959 . S
H2178 C2113 0.960 . S
H2179 C2113 0.962 . S
H2180 C2113 0.961 . S
H2181 C2115 0.929 . S
H2182 C2118 0.930 . S
H2183 C2119 0.929 . S
H2184 C2122 0.930 . S
H2185 C2125 0.929 . S
H2186 C2126 0.930 . S
H2187 C2130 0.962 . S
H2188 C2130 0.959 . S
H2189 C2130 0.958 . S
C2190 C2191 1.560 . S
C2190 H2251 0.959 . S
C2190 H2252 0.959 . S
C2190 H2253 0.960 . S
C2191 C2190 1.560 . S
C2191 O2246 1.426 . S
C2191 H2250 0.980 . S
C2192 C2193 1.407 . S
C2192 C2197 1.418 . S
C2192 O2246 1.334 . S
C2193 C2192 1.407 . S
C2193 C2194 1.360 . S
C2193 H2254 0.929 . S
C2194 C2193 1.360 . S
C2194 C2195 1.401 . S
C2194 C2198 1.527 . S
C2195 C2194 1.401 . S
C2195 C2196 1.405 . S
C2195 C2228 1.587 . S
C2196 C2195 1.405 . S
C2196 C2197 1.332 . S
C2196 C2199 1.496 . S
C2197 C2192 1.418 . S
C2197 C2196 1.332 . S
C2197 H2255 0.929 . S
C2198 C2194 1.527 . S
C2198 H2256 0.959 . S
C2198 H2257 0.961 . S
C2198 H2258 0.961 . S
C2199 C2196 1.496 . S
C2199 H2259 0.960 . S
C2199 H2260 0.960 . S
C2199 H2261 0.961 . S
C2200 C2201 1.517 . S
C2200 H2263 0.961 . S
C2200 H2264 0.960 . S
C2200 H2265 0.959 . S
C2201 C2200 1.517 . S
C2201 O2249 1.468 . S
C2201 H2262 0.980 . S
C2202 C2203 1.349 . S
C2202 C2207 1.367 . S
C2202 O2249 1.408 . S
C2203 C2202 1.349 . S
C2203 C2204 1.407 . S
C2203 H2266 0.930 . S
C2204 C2203 1.407 . S
C2204 C2205 1.449 . S
C2204 C2208 1.535 . S
C2205 C2204 1.449 . S
C2205 C2206 1.384 . S
C2205 C2230 1.553 . S
C2206 C2205 1.384 . S
C2206 C2207 1.364 . S
C2206 C2209 1.450 . S
C2207 C2202 1.367 . S
C2207 C2206 1.364 . S
C2207 H2267 0.931 . S
C2208 C2204 1.535 . S
C2208 H2268 0.959 . S
C2208 H2269 0.961 . S
C2208 H2270 0.959 . S
C2209 C2206 1.450 . S
C2209 H2271 0.960 . S
C2209 H2272 0.960 . S
C2209 H2273 0.960 . S
C2210 C2211 1.309 . S
C2210 C2215 1.304 . S
C2210 O2248 1.435 . S
C2211 C2210 1.309 . S
C2211 C2212 1.476 . S
C2211 H2275 0.930 . S
C2212 C2211 1.476 . S
C2212 C2213 1.400 . S
C2212 C2216 1.567 . S
C2213 C2212 1.400 . S
C2213 C2214 1.373 . S
C2213 C2235 1.432 . S
C2214 C2213 1.373 . S
C2214 C2215 1.339 . S
C2214 C2217 1.530 . S
C2215 C2210 1.304 . S
C2215 C2214 1.339 . S
C2215 H2276 0.930 . S
C2216 C2212 1.567 . S
C2216 H2277 0.961 . S
C2216 H2278 0.960 . S
C2216 H2279 0.958 . S
C2217 C2214 1.530 . S
C2217 H2280 0.961 . S
C2217 H2281 0.960 . S
C2217 H2282 0.960 . S
C2218 C2219 1.530 . S
C2218 H2284 0.961 . S
C2218 H2285 0.961 . S
C2218 H2286 0.959 . S
C2219 C2218 1.530 . S
C2219 O2247 1.412 . S
C2219 H2283 0.980 . S
C2220 C2221 1.288 . S
C2220 C2225 1.377 . S
C2220 O2247 1.393 . S
C2221 C2220 1.288 . S
C2221 C2222 1.369 . S
C2221 H2287 0.932 . S
C2222 C2221 1.369 . S
C2222 C2223 1.398 . S
C2222 C2226 1.527 . S
C2223 C2222 1.398 . S
C2223 C2224 1.380 . S
C2223 C2237 1.497 . S
C2224 C2223 1.380 . S
C2224 C2225 1.383 . S
C2224 C2227 1.603 . S
C2225 C2220 1.377 . S
C2225 C2224 1.383 . S
C2225 H2288 0.929 . S
C2226 C2222 1.527 . S
C2226 H2289 0.961 . S
C2226 H2290 0.959 . S
C2226 H2291 0.959 . S
C2227 C2224 1.603 . S
C2227 H2292 0.960 . S
C2227 H2293 0.962 . S
C2227 H2294 0.961 . S
C2228 C2195 1.587 . S
C2228 C2229 1.360 . S
C2228 C2241 1.412 . S
C2229 C2228 1.360 . S
C2229 C2230 1.365 . S
C2229 H2295 0.929 . S
C2230 C2205 1.553 . S
C2230 C2229 1.365 . S
C2230 C2231 1.404 . S
C2231 C2230 1.404 . S
C2231 C2232 1.395 . S
C2231 C2242 1.451 . S
C2232 C2231 1.395 . S
C2232 C2233 1.322 . S
C2232 H2296 0.930 . S
C2233 C2232 1.322 . S
C2233 C2234 1.459 . S
C2233 H2297 0.929 . S
C2234 C2233 1.459 . S
C2234 C2235 1.445 . S
C2234 C2243 1.395 . S
C2235 C2213 1.432 . S
C2235 C2234 1.445 . S
C2235 C2236 1.370 . S
C2236 C2235 1.370 . S
C2236 C2237 1.438 . S
C2236 H2298 0.930 . S
C2237 C2223 1.497 . S
C2237 C2236 1.438 . S
C2237 C2238 1.360 . S
C2238 C2237 1.360 . S
C2238 C2239 1.401 . S
C2238 C2243 1.446 . S
C2239 C2238 1.401 . S
C2239 C2240 1.347 . S
C2239 H2299 0.929 . S
C2240 C2239 1.347 . S
C2240 C2241 1.455 . S
C2240 H2300 0.930 . S
C2241 C2228 1.412 . S
C2241 C2240 1.455 . S
C2241 C2242 1.331 . S
C2242 C2231 1.451 . S
C2242 C2241 1.331 . S
C2242 C2243 1.497 . S
C2243 C2234 1.395 . S
C2243 C2238 1.446 . S
C2243 C2242 1.497 . S
C2244 C2245 1.582 . S
C2244 H2301 0.962 . S
C2244 H2302 0.959 . S
C2244 H2303 0.958 . S
C2245 C2244 1.582 . S
C2245 O2248 1.458 . S
C2245 H2274 0.980 . S
O2246 C2191 1.426 . S
O2246 C2192 1.334 . S
O2247 C2219 1.412 . S
O2247 C2220 1.393 . S
O2248 C2210 1.435 . S
O2248 C2245 1.458 . S
O2249 C2201 1.468 . S
O2249 C2202 1.408 . S
H2250 C2191 0.980 . S
H2251 C2190 0.959 . S
H2252 C2190 0.959 . S
H2253 C2190 0.960 . S
H2254 C2193 0.929 . S
H2255 C2197 0.929 . S
H2256 C2198 0.959 . S
H2257 C2198 0.961 . S
H2258 C2198 0.961 . S
H2259 C2199 0.960 . S
H2260 C2199 0.960 . S
H2261 C2199 0.961 . S
H2262 C2201 0.980 . S
H2263 C2200 0.961 . S
H2264 C2200 0.960 . S
H2265 C2200 0.959 . S
H2266 C2203 0.930 . S
H2267 C2207 0.931 . S
H2268 C2208 0.959 . S
H2269 C2208 0.961 . S
H2270 C2208 0.959 . S
H2271 C2209 0.960 . S
H2272 C2209 0.960 . S
H2273 C2209 0.960 . S
H2274 C2245 0.980 . S
H2275 C2211 0.930 . S
H2276 C2215 0.930 . S
H2277 C2216 0.961 . S
H2278 C2216 0.960 . S
H2279 C2216 0.958 . S
H2280 C2217 0.961 . S
H2281 C2217 0.960 . S
H2282 C2217 0.960 . S
H2283 C2219 0.980 . S
H2284 C2218 0.961 . S
H2285 C2218 0.961 . S
H2286 C2218 0.959 . S
H2287 C2221 0.932 . S
H2288 C2225 0.929 . S
H2289 C2226 0.961 . S
H2290 C2226 0.959 . S
H2291 C2226 0.959 . S
H2292 C2227 0.960 . S
H2293 C2227 0.962 . S
H2294 C2227 0.961 . S
H2295 C2229 0.929 . S
H2296 C2232 0.930 . S
H2297 C2233 0.929 . S
H2298 C2236 0.930 . S
H2299 C2239 0.929 . S
H2300 C2240 0.930 . S
H2301 C2244 0.962 . S
H2302 C2244 0.959 . S
H2303 C2244 0.958 . S
C2304 C2305 1.369 . S
C2304 C2306 1.419 . S
C2304 H2308 0.930 . S
C2305 C2304 1.369 . S
C2305 C2314 1.429 . S
C2306 C2304 1.419 . S
C2306 C2307 1.363 . S
C2306 H2309 0.929 . S
C2307 C2306 1.363 . S
C2307 C2313 1.428 . S
H2308 C2304 0.930 . S
H2309 C2306 0.929 . S
S2310 N2311 1.613 . S
S2310 N2312 1.610 . S
N2311 S2310 1.613 . S
N2311 C2314 1.350 1_455 S
N2312 S2310 1.610 . S
N2312 C2313 1.351 1_455 S
C2313 C2307 1.428 . S
C2313 N2312 1.351 1_655 S
C2313 C2314 1.434 . S
C2314 C2305 1.429 . S
C2314 N2311 1.350 1_655 S
C2314 C2313 1.434 . S
C2315 C2316 1.369 . S
C2315 C2317 1.419 . S
C2315 H2319 0.930 . S
C2316 C2315 1.369 . S
C2316 C2325 1.429 . S
C2317 C2315 1.419 . S
C2317 C2318 1.363 . S
C2317 H2320 0.929 . S
C2318 C2317 1.363 . S
C2318 C2324 1.428 . S
H2319 C2315 0.930 . S
H2320 C2317 0.929 . S
S2321 N2322 1.613 . S
S2321 N2323 1.610 . S
N2322 S2321 1.613 . S
N2322 C2325 1.350 . S
N2323 S2321 1.610 . S
N2323 C2324 1.351 . S
C2324 C2318 1.428 . S
C2324 N2323 1.351 . S
C2324 C2325 1.434 . S
C2325 C2316 1.429 . S
C2325 N2322 1.350 . S
C2325 C2324 1.434 . S
C2326 C2327 1.369 . S
C2326 C2328 1.419 1_545 S
C2326 H2330 0.930 1_545 S
C2327 C2326 1.369 . S
C2327 C2336 1.429 . S
C2328 C2326 1.419 1_565 S
C2328 C2329 1.363 1_565 S
C2328 H2331 0.929 . S
C2329 C2328 1.363 1_545 S
C2329 C2335 1.428 . S
H2330 C2326 0.930 1_565 S
H2331 C2328 0.929 . S
S2332 N2333 1.613 . S
S2332 N2334 1.610 . S
N2333 S2332 1.613 . S
N2333 C2336 1.350 . S
N2334 S2332 1.610 . S
N2334 C2335 1.351 . S
C2335 C2329 1.428 . S
C2335 N2334 1.351 . S
C2335 C2336 1.434 . S
C2336 C2327 1.429 . S
C2336 N2333 1.350 . S
C2336 C2335 1.434 . S
C2337 C2338 1.369 . S
C2337 C2339 1.419 . S
C2337 H2341 0.930 . S
C2338 C2337 1.369 . S
C2338 C2347 1.429 . S
C2339 C2337 1.419 . S
C2339 C2340 1.363 . S
C2339 H2342 0.929 . S
C2340 C2339 1.363 . S
C2340 C2346 1.428 . S
H2341 C2337 0.930 . S
H2342 C2339 0.929 . S
S2343 N2344 1.613 . S
S2343 N2345 1.610 . S
N2344 S2343 1.613 . S
N2344 C2347 1.350 1_545 S
N2345 S2343 1.610 . S
N2345 C2346 1.351 1_545 S
C2346 C2340 1.428 . S
C2346 N2345 1.351 1_565 S
C2346 C2347 1.434 . S
C2347 C2338 1.429 . S
C2347 N2344 1.350 1_565 S
C2347 C2346 1.434 . S
C2348 C2349 1.369 . S
C2348 C2350 1.419 . S
C2348 H2352 0.930 . S
C2349 C2348 1.369 . S
C2349 C2358 1.429 1_455 S
C2350 C2348 1.419 . S
C2350 C2351 1.363 . S
C2350 H2353 0.929 . S
C2351 C2350 1.363 . S
C2351 C2357 1.428 1_455 S
H2352 C2348 0.930 . S
H2353 C2350 0.929 . S
S2354 N2355 1.613 . S
S2354 N2356 1.610 . S
N2355 S2354 1.613 . S
N2355 C2358 1.350 . S
N2356 S2354 1.610 . S
N2356 C2357 1.351 . S
C2357 C2351 1.428 1_655 S
C2357 N2356 1.351 . S
C2357 C2358 1.434 . S
C2358 C2349 1.429 1_655 S
C2358 N2355 1.350 . S
C2358 C2357 1.434 . S
C2359 C2360 1.369 . S
C2359 C2361 1.419 . S
C2359 H2363 0.930 . S
C2360 C2359 1.369 . S
C2360 C2369 1.429 . S
C2361 C2359 1.419 . S
C2361 C2362 1.363 . S
C2361 H2364 0.929 . S
C2362 C2361 1.363 . S
C2362 C2368 1.428 . S
H2363 C2359 0.930 . S
H2364 C2361 0.929 . S
S2365 N2366 1.613 . S
S2365 N2367 1.610 . S
N2366 S2365 1.613 . S
N2366 C2369 1.350 . S
N2367 S2365 1.610 . S
N2367 C2368 1.351 . S
C2368 C2362 1.428 . S
C2368 N2367 1.351 . S
C2368 C2369 1.434 . S
C2369 C2360 1.429 . S
C2369 N2366 1.350 . S
C2369 C2368 1.434 . S
C2370 C2371 1.369 . S
C2370 C2372 1.419 1_455 S
C2370 H2374 0.930 1_455 S
C2371 C2370 1.369 . S
C2371 C2380 1.429 . S
C2372 C2370 1.419 1_655 S
C2372 C2373 1.363 1_655 S
C2372 H2375 0.929 . S
C2373 C2372 1.363 1_455 S
C2373 C2379 1.428 . S
H2374 C2370 0.930 1_655 S
H2375 C2372 0.929 . S
S2376 N2377 1.613 . S
S2376 N2378 1.610 . S
N2377 S2376 1.613 . S
N2377 C2380 1.350 . S
N2378 S2376 1.610 . S
N2378 C2379 1.351 . S
C2379 C2373 1.428 . S
C2379 N2378 1.351 . S
C2379 C2380 1.434 . S
C2380 C2371 1.429 . S
C2380 N2377 1.350 . S
C2380 C2379 1.434 . S
C2381 C2382 1.369 . S
C2381 C2383 1.419 . S
C2381 H2385 0.930 . S
C2382 C2381 1.369 . S
C2382 C2391 1.429 . S
C2383 C2381 1.419 . S
C2383 C2384 1.363 . S
C2383 H2386 0.929 . S
C2384 C2383 1.363 . S
C2384 C2390 1.428 . S
H2385 C2381 0.930 . S
H2386 C2383 0.929 . S
S2387 N2388 1.613 . S
S2387 N2389 1.610 . S
N2388 S2387 1.613 . S
N2388 C2391 1.350 . S
N2389 S2387 1.610 . S
N2389 C2390 1.351 . S
C2390 C2384 1.428 . S
C2390 N2389 1.351 . S
C2390 C2391 1.434 . S
C2391 C2382 1.429 . S
C2391 N2388 1.350 . S
C2391 C2390 1.434 . S
C2392 C2393 1.369 . S
C2392 C2394 1.419 . S
C2392 H2396 0.930 . S
C2393 C2392 1.369 . S
C2393 C2402 1.430 . S
C2394 C2392 1.419 . S
C2394 C2395 1.363 . S
C2394 H2397 0.929 . S
C2395 C2394 1.363 . S
C2395 C2401 1.428 1_565 S
H2396 C2392 0.930 . S
H2397 C2394 0.929 . S
S2398 N2399 1.613 . S
S2398 N2400 1.610 . S
N2399 S2398 1.613 . S
N2399 C2402 1.350 1_545 S
N2400 S2398 1.610 . S
N2400 C2401 1.351 . S
C2401 C2395 1.428 1_545 S
C2401 N2400 1.351 . S
C2401 C2402 1.431 1_545 S
C2402 C2393 1.430 . S
C2402 N2399 1.350 1_565 S
C2402 C2401 1.431 1_565 S
C2403 C2404 1.369 . S
C2403 C2405 1.419 . S
C2403 H2407 0.930 . S
C2404 C2403 1.369 . S
C2404 C2413 1.429 1_545 S
C2405 C2403 1.419 . S
C2405 C2406 1.363 . S
C2405 H2408 0.929 . S
C2406 C2405 1.363 . S
C2406 C2412 1.428 1_545 S
H2407 C2403 0.930 . S
H2408 C2405 0.929 . S
S2409 N2410 1.613 . S
S2409 N2411 1.610 . S
N2410 S2409 1.613 . S
N2410 C2413 1.350 . S
N2411 S2409 1.610 . S
N2411 C2412 1.351 . S
C2412 C2406 1.428 1_565 S
C2412 N2411 1.351 . S
C2412 C2413 1.434 . S
C2413 C2404 1.429 1_565 S
C2413 N2410 1.350 . S
C2413 C2412 1.434 . S
C2414 C2415 1.369 1_455 S
C2414 C2416 1.419 . S
C2414 H2418 0.930 . S
C2415 C2414 1.369 1_655 S
C2415 C2424 1.429 . S
C2416 C2414 1.419 . S
C2416 C2417 1.363 1_455 S
C2416 H2419 0.929 . S
C2417 C2416 1.363 1_655 S
C2417 C2423 1.428 . S
H2418 C2414 0.930 . S
H2419 C2416 0.929 . S
S2420 N2421 1.613 . S
S2420 N2422 1.610 . S
N2421 S2420 1.613 . S
N2421 C2424 1.350 . S
N2422 S2420 1.610 . S
N2422 C2423 1.351 . S
C2423 C2417 1.428 . S
C2423 N2422 1.351 . S
C2423 C2424 1.434 . S
C2424 C2415 1.429 . S
C2424 N2421 1.350 . S
C2424 C2423 1.434 . S
C2425 C2426 1.369 . S
C2425 C2427 1.419 . S
C2425 H2429 0.930 . S
C2426 C2425 1.369 . S
C2426 C2435 1.429 . S
C2427 C2425 1.419 . S
C2427 C2428 1.363 . S
C2427 H2430 0.929 . S
C2428 C2427 1.363 . S
C2428 C2434 1.428 . S
H2429 C2425 0.930 . S
H2430 C2427 0.929 . S
S2431 N2432 1.613 . S
S2431 N2433 1.610 . S
N2432 S2431 1.613 . S
N2432 C2435 1.350 . S
N2433 S2431 1.610 . S
N2433 C2434 1.351 . S
C2434 C2428 1.428 . S
C2434 N2433 1.351 . S
C2434 C2435 1.434 . S
C2435 C2426 1.429 . S
C2435 N2432 1.350 . S
C2435 C2434 1.434 . S
C2436 C2437 1.369 . S
C2436 C2438 1.419 . S
C2436 H2440 0.930 . S
C2437 C2436 1.369 . S
C2437 C2446 1.429 . S
C2438 C2436 1.419 . S
C2438 C2439 1.363 . S
C2438 H2441 0.929 . S
C2439 C2438 1.363 . S
C2439 C2445 1.428 . S
H2440 C2436 0.930 . S
H2441 C2438 0.929 . S
S2442 N2443 1.613 . S
S2442 N2444 1.610 . S
N2443 S2442 1.613 . S
N2443 C2446 1.350 . S
N2444 S2442 1.610 . S
N2444 C2445 1.351 . S
C2445 C2439 1.428 . S
C2445 N2444 1.351 . S
C2445 C2446 1.434 . S
C2446 C2437 1.429 . S
C2446 N2443 1.350 . S
C2446 C2445 1.434 . S
C2447 C2448 1.369 . S
C2447 C2449 1.419 . S
C2447 H2451 0.930 . S
C2448 C2447 1.369 . S
C2448 C2457 1.429 . S
C2449 C2447 1.419 . S
C2449 C2450 1.363 . S
C2449 H2452 0.929 . S
C2450 C2449 1.363 . S
C2450 C2456 1.428 . S
H2451 C2447 0.930 . S
H2452 C2449 0.929 . S
S2453 N2454 1.613 . S
S2453 N2455 1.610 . S
N2454 S2453 1.613 . S
N2454 C2457 1.350 . S
N2455 S2453 1.610 . S
N2455 C2456 1.351 . S
C2456 C2450 1.428 . S
C2456 N2455 1.351 . S
C2456 C2457 1.434 . S
C2457 C2448 1.429 . S
C2457 N2454 1.350 . S
C2457 C2456 1.434 . S
C2458 C2459 1.369 . S
C2458 C2460 1.419 . S
C2458 H2462 0.930 . S
C2459 C2458 1.369 . S
C2459 C2468 1.429 . S
C2460 C2458 1.419 . S
C2460 C2461 1.363 . S
C2460 H2463 0.929 . S
C2461 C2460 1.363 . S
C2461 C2467 1.428 . S
H2462 C2458 0.930 . S
H2463 C2460 0.929 . S
S2464 N2465 1.613 . S
S2464 N2466 1.610 . S
N2465 S2464 1.613 . S
N2465 C2468 1.350 . S
N2466 S2464 1.610 . S
N2466 C2467 1.351 . S
C2467 C2461 1.428 . S
C2467 N2466 1.351 . S
C2467 C2468 1.434 . S
C2468 C2459 1.429 . S
C2468 N2465 1.350 . S
C2468 C2467 1.434 . S
C2469 C2470 1.369 . S
C2469 C2471 1.419 . S
C2469 H2473 0.930 . S
C2470 C2469 1.369 . S
C2470 C2479 1.429 . S
C2471 C2469 1.419 . S
C2471 C2472 1.363 . S
C2471 H2474 0.929 . S
C2472 C2471 1.363 . S
C2472 C2478 1.428 . S
H2473 C2469 0.930 . S
H2474 C2471 0.929 . S
S2475 N2476 1.613 . S
S2475 N2477 1.610 . S
N2476 S2475 1.613 . S
N2476 C2479 1.350 . S
N2477 S2475 1.610 . S
N2477 C2478 1.351 . S
C2478 C2472 1.428 . S
C2478 N2477 1.351 . S
C2478 C2479 1.434 . S
C2479 C2470 1.429 . S
C2479 N2476 1.350 . S
C2479 C2478 1.434 . S
C2480 C2481 1.369 . S
C2480 C2482 1.419 . S
C2480 H2484 0.930 . S
C2481 C2480 1.369 . S
C2481 C2490 1.429 . S
C2482 C2480 1.419 . S
C2482 C2483 1.363 . S
C2482 H2485 0.929 . S
C2483 C2482 1.363 . S
C2483 C2489 1.428 . S
H2484 C2480 0.930 . S
H2485 C2482 0.929 . S
S2486 N2487 1.613 . S
S2486 N2488 1.610 . S
N2487 S2486 1.613 . S
N2487 C2490 1.350 . S
N2488 S2486 1.610 . S
N2488 C2489 1.351 . S
C2489 C2483 1.428 . S
C2489 N2488 1.351 . S
C2489 C2490 1.434 . S
C2490 C2481 1.429 . S
C2490 N2487 1.350 . S
C2490 C2489 1.434 . S
C2491 C2492 1.369 . S
C2491 C2493 1.419 . S
C2491 H2495 0.930 . S
C2492 C2491 1.369 . S
C2492 C2501 1.429 . S
C2493 C2491 1.419 . S
C2493 C2494 1.363 . S
C2493 H2496 0.929 . S
C2494 C2493 1.363 . S
C2494 C2500 1.428 . S
H2495 C2491 0.930 . S
H2496 C2493 0.929 . S
S2497 N2498 1.613 . S
S2497 N2499 1.610 . S
N2498 S2497 1.613 . S
N2498 C2501 1.350 . S
N2499 S2497 1.610 . S
N2499 C2500 1.351 . S
C2500 C2494 1.428 . S
C2500 N2499 1.351 . S
C2500 C2501 1.434 . S
C2501 C2492 1.429 . S
C2501 N2498 1.350 . S
C2501 C2500 1.434 . S
C2502 C2503 1.369 . S
C2502 C2504 1.419 . S
C2502 H2506 0.930 . S
C2503 C2502 1.369 . S
C2503 C2512 1.429 . S
C2504 C2502 1.419 . S
C2504 C2505 1.363 . S
C2504 H2507 0.929 . S
C2505 C2504 1.363 . S
C2505 C2511 1.428 . S
H2506 C2502 0.930 . S
H2507 C2504 0.929 . S
S2508 N2509 1.613 . S
S2508 N2510 1.610 . S
N2509 S2508 1.613 . S
N2509 C2512 1.350 . S
N2510 S2508 1.610 . S
N2510 C2511 1.351 . S
C2511 C2505 1.428 . S
C2511 N2510 1.351 . S
C2511 C2512 1.434 . S
C2512 C2503 1.429 . S
C2512 N2509 1.350 . S
C2512 C2511 1.434 . S
C2513 C2514 1.369 . S
C2513 C2515 1.419 . S
C2513 H2517 0.930 . S
C2514 C2513 1.369 . S
C2514 C2523 1.429 . S
C2515 C2513 1.419 . S
C2515 C2516 1.363 . S
C2515 H2518 0.929 . S
C2516 C2515 1.363 . S
C2516 C2522 1.428 . S
H2517 C2513 0.930 . S
H2518 C2515 0.929 . S
S2519 N2520 1.613 1_655 S
S2519 N2521 1.610 1_655 S
N2520 S2519 1.613 1_455 S
N2520 C2523 1.350 . S
N2521 S2519 1.610 1_455 S
N2521 C2522 1.351 . S
C2522 C2516 1.428 . S
C2522 N2521 1.351 . S
C2522 C2523 1.434 . S
C2523 C2514 1.429 . S
C2523 N2520 1.350 . S
C2523 C2522 1.434 . S
C2524 C2525 1.369 . S
C2524 C2526 1.419 . S
C2524 H2528 0.930 . S
C2525 C2524 1.369 . S
C2525 C2534 1.429 . S
C2526 C2524 1.419 . S
C2526 C2527 1.363 . S
C2526 H2529 0.929 . S
C2527 C2526 1.363 . S
C2527 C2533 1.428 . S
H2528 C2524 0.930 . S
H2529 C2526 0.929 . S
S2530 N2531 1.613 . S
S2530 N2532 1.610 . S
N2531 S2530 1.613 . S
N2531 C2534 1.350 . S
N2532 S2530 1.610 . S
N2532 C2533 1.351 . S
C2533 C2527 1.428 . S
C2533 N2532 1.351 . S
C2533 C2534 1.434 . S
C2534 C2525 1.429 . S
C2534 N2531 1.350 . S
C2534 C2533 1.434 . S
C2535 C2536 1.369 . S
C2535 C2537 1.419 . S
C2535 H2539 0.930 . S
C2536 C2535 1.369 . S
C2536 C2545 1.429 . S
C2537 C2535 1.419 . S
C2537 C2538 1.363 . S
C2537 H2540 0.929 . S
C2538 C2537 1.363 . S
C2538 C2544 1.428 . S
H2539 C2535 0.930 . S
H2540 C2537 0.929 . S
S2541 N2542 1.613 . S
S2541 N2543 1.610 . S
N2542 S2541 1.613 . S
N2542 C2545 1.350 . S
N2543 S2541 1.610 . S
N2543 C2544 1.351 . S
C2544 C2538 1.428 . S
C2544 N2543 1.351 . S
C2544 C2545 1.434 . S
C2545 C2536 1.429 . S
C2545 N2542 1.350 . S
C2545 C2544 1.434 . S
C2546 C2547 1.369 . S
C2546 C2548 1.419 . S
C2546 H2550 0.930 . S
C2547 C2546 1.369 . S
C2547 C2556 1.429 . S
C2548 C2546 1.419 . S
C2548 C2549 1.363 . S
C2548 H2551 0.929 . S
C2549 C2548 1.363 . S
C2549 C2555 1.428 . S
H2550 C2546 0.930 . S
H2551 C2548 0.929 . S
S2552 N2553 1.613 . S
S2552 N2554 1.610 . S
N2553 S2552 1.613 . S
N2553 C2556 1.350 . S
N2554 S2552 1.610 . S
N2554 C2555 1.351 . S
C2555 C2549 1.428 . S
C2555 N2554 1.351 . S
C2555 C2556 1.434 . S
C2556 C2547 1.429 . S
C2556 N2553 1.350 . S
C2556 C2555 1.434 . S
C2557 C2558 1.369 . S
C2557 C2559 1.419 . S
C2557 H2561 0.930 . S
C2558 C2557 1.369 . S
C2558 C2567 1.429 . S
C2559 C2557 1.419 . S
C2559 C2560 1.363 . S
C2559 H2562 0.929 . S
C2560 C2559 1.363 . S
C2560 C2566 1.428 . S
H2561 C2557 0.930 . S
H2562 C2559 0.929 . S
S2563 N2564 1.613 . S
S2563 N2565 1.610 . S
N2564 S2563 1.613 . S
N2564 C2567 1.350 . S
N2565 S2563 1.610 . S
N2565 C2566 1.351 . S
C2566 C2560 1.428 . S
C2566 N2565 1.351 . S
C2566 C2567 1.434 . S
C2567 C2558 1.429 . S
C2567 N2564 1.350 . S
C2567 C2566 1.434 . S
C2568 C2569 1.369 . S
C2568 C2570 1.419 . S
C2568 H2572 0.930 . S
C2569 C2568 1.369 . S
C2569 C2578 1.429 . S
C2570 C2568 1.419 . S
C2570 C2571 1.363 . S
C2570 H2573 0.929 . S
C2571 C2570 1.363 . S
C2571 C2577 1.428 . S
H2572 C2568 0.930 . S
H2573 C2570 0.929 . S
S2574 N2575 1.613 . S
S2574 N2576 1.610 . S
N2575 S2574 1.613 . S
N2575 C2578 1.350 . S
N2576 S2574 1.610 . S
N2576 C2577 1.351 . S
C2577 C2571 1.428 . S
C2577 N2576 1.351 . S
C2577 C2578 1.434 . S
C2578 C2569 1.429 . S
C2578 N2575 1.350 . S
C2578 C2577 1.434 . S
C2579 C2580 1.369 . S
C2579 C2581 1.419 . S
C2579 H2583 0.930 . S
C2580 C2579 1.369 . S
C2580 C2589 1.429 . S
C2581 C2579 1.419 . S
C2581 C2582 1.363 . S
C2581 H2584 0.929 . S
C2582 C2581 1.363 . S
C2582 C2588 1.428 . S
H2583 C2579 0.930 . S
H2584 C2581 0.929 . S
S2585 N2586 1.613 . S
S2585 N2587 1.610 . S
N2586 S2585 1.613 . S
N2586 C2589 1.350 . S
N2587 S2585 1.610 . S
N2587 C2588 1.351 . S
C2588 C2582 1.428 . S
C2588 N2587 1.351 . S
C2588 C2589 1.434 . S
C2589 C2580 1.429 . S
C2589 N2586 1.350 . S
C2589 C2588 1.434 . S
C2590 C2591 1.369 . S
C2590 C2592 1.419 . S
C2590 H2594 0.930 . S
C2591 C2590 1.369 . S
C2591 C2600 1.429 . S
C2592 C2590 1.419 . S
C2592 C2593 1.363 . S
C2592 H2595 0.929 . S
C2593 C2592 1.363 . S
C2593 C2599 1.428 . S
H2594 C2590 0.930 . S
H2595 C2592 0.929 . S
S2596 N2597 1.613 . S
S2596 N2598 1.610 . S
N2597 S2596 1.613 . S
N2597 C2600 1.350 . S
N2598 S2596 1.610 . S
N2598 C2599 1.351 . S
C2599 C2593 1.428 . S
C2599 N2598 1.351 . S
C2599 C2600 1.434 . S
C2600 C2591 1.429 . S
C2600 N2597 1.350 . S
C2600 C2599 1.434 . S
C2601 C2602 1.369 . S
C2601 C2603 1.419 . S
C2601 H2605 0.930 . S
C2602 C2601 1.369 . S
C2602 C2611 1.429 . S
C2603 C2601 1.419 . S
C2603 C2604 1.363 . S
C2603 H2606 0.929 . S
C2604 C2603 1.363 . S
C2604 C2610 1.428 . S
H2605 C2601 0.930 . S
H2606 C2603 0.929 . S
S2607 N2608 1.613 . S
S2607 N2609 1.610 . S
N2608 S2607 1.613 . S
N2608 C2611 1.350 . S
N2609 S2607 1.610 . S
N2609 C2610 1.351 . S
C2610 C2604 1.428 . S
C2610 N2609 1.351 . S
C2610 C2611 1.434 . S
C2611 C2602 1.429 . S
C2611 N2608 1.350 . S
C2611 C2610 1.434 . S
C2612 C2613 1.369 . S
C2612 C2614 1.419 . S
C2612 H2616 0.930 . S
C2613 C2612 1.369 . S
C2613 C2622 1.429 . S
C2614 C2612 1.419 . S
C2614 C2615 1.363 . S
C2614 H2617 0.929 . S
C2615 C2614 1.363 . S
C2615 C2621 1.428 . S
H2616 C2612 0.930 . S
H2617 C2614 0.929 . S
S2618 N2619 1.613 . S
S2618 N2620 1.610 . S
N2619 S2618 1.613 . S
N2619 C2622 1.350 . S
N2620 S2618 1.610 . S
N2620 C2621 1.351 . S
C2621 C2615 1.428 . S
C2621 N2620 1.351 . S
C2621 C2622 1.434 . S
C2622 C2613 1.429 . S
C2622 N2619 1.350 . S
C2622 C2621 1.434 . S
C2623 C2624 1.369 . S
C2623 C2625 1.419 . S
C2623 H2627 0.930 . S
C2624 C2623 1.369 . S
C2624 C2633 1.429 . S
C2625 C2623 1.419 . S
C2625 C2626 1.363 . S
C2625 H2628 0.929 . S
C2626 C2625 1.363 . S
C2626 C2632 1.428 . S
H2627 C2623 0.930 . S
H2628 C2625 0.929 . S
S2629 N2630 1.613 . S
S2629 N2631 1.610 . S
N2630 S2629 1.613 . S
N2630 C2633 1.350 . S
N2631 S2629 1.610 . S
N2631 C2632 1.351 . S
C2632 C2626 1.428 . S
C2632 N2631 1.351 . S
C2632 C2633 1.434 . S
C2633 C2624 1.429 . S
C2633 N2630 1.350 . S
C2633 C2632 1.434 . S
C2634 C2635 1.369 . S
C2634 C2636 1.419 . S
C2634 H2638 0.930 . S
C2635 C2634 1.369 . S
C2635 C2644 1.429 . S
C2636 C2634 1.419 . S
C2636 C2637 1.363 . S
C2636 H2639 0.929 . S
C2637 C2636 1.363 . S
C2637 C2643 1.428 . S
H2638 C2634 0.930 . S
H2639 C2636 0.929 . S
S2640 N2641 1.613 . S
S2640 N2642 1.610 . S
N2641 S2640 1.613 . S
N2641 C2644 1.350 . S
N2642 S2640 1.610 . S
N2642 C2643 1.351 . S
C2643 C2637 1.428 . S
C2643 N2642 1.351 . S
C2643 C2644 1.434 . S
C2644 C2635 1.429 . S
C2644 N2641 1.350 . S
C2644 C2643 1.434 . S
C2645 C2646 1.369 . S
C2645 C2647 1.419 . S
C2645 H2649 0.930 . S
C2646 C2645 1.369 . S
C2646 C2655 1.429 . S
C2647 C2645 1.419 . S
C2647 C2648 1.363 . S
C2647 H2650 0.929 . S
C2648 C2647 1.363 . S
C2648 C2654 1.428 . S
H2649 C2645 0.930 . S
H2650 C2647 0.929 . S
S2651 N2652 1.613 . S
S2651 N2653 1.610 . S
N2652 S2651 1.613 . S
N2652 C2655 1.350 . S
N2653 S2651 1.610 . S
N2653 C2654 1.351 . S
C2654 C2648 1.428 . S
C2654 N2653 1.351 . S
C2654 C2655 1.434 . S
C2655 C2646 1.429 . S
C2655 N2652 1.350 . S
C2655 C2654 1.434 . S
C2656 C2657 1.369 . S
C2656 C2658 1.419 . S
C2656 H2660 0.930 . S
C2657 C2656 1.369 . S
C2657 C2666 1.429 . S
C2658 C2656 1.419 . S
C2658 C2659 1.363 . S
C2658 H2661 0.929 . S
C2659 C2658 1.363 . S
C2659 C2665 1.428 . S
H2660 C2656 0.930 . S
H2661 C2658 0.929 . S
S2662 N2663 1.613 . S
S2662 N2664 1.610 . S
N2663 S2662 1.613 . S
N2663 C2666 1.350 . S
N2664 S2662 1.610 . S
N2664 C2665 1.351 . S
C2665 C2659 1.428 . S
C2665 N2664 1.351 . S
C2665 C2666 1.434 . S
C2666 C2657 1.429 . S
C2666 N2663 1.350 . S
C2666 C2665 1.434 . S
C2667 C2668 1.369 . S
C2667 C2669 1.419 . S
C2667 H2671 0.930 . S
C2668 C2667 1.369 . S
C2668 C2677 1.429 . S
C2669 C2667 1.419 . S
C2669 C2670 1.363 . S
C2669 H2672 0.929 . S
C2670 C2669 1.363 . S
C2670 C2676 1.428 . S
H2671 C2667 0.930 . S
H2672 C2669 0.929 . S
S2673 N2674 1.613 . S
S2673 N2675 1.610 . S
N2674 S2673 1.613 . S
N2674 C2677 1.350 . S
N2675 S2673 1.610 . S
N2675 C2676 1.351 . S
C2676 C2670 1.428 . S
C2676 N2675 1.351 . S
C2676 C2677 1.434 . S
C2677 C2668 1.429 . S
C2677 N2674 1.350 . S
C2677 C2676 1.434 . S
C2678 C2679 1.369 . S
C2678 C2680 1.419 . S
C2678 H2682 0.930 . S
C2679 C2678 1.369 . S
C2679 C2688 1.429 . S
C2680 C2678 1.419 . S
C2680 C2681 1.363 . S
C2680 H2683 0.929 . S
C2681 C2680 1.363 . S
C2681 C2687 1.428 . S
H2682 C2678 0.930 . S
H2683 C2680 0.929 . S
S2684 N2685 1.613 . S
S2684 N2686 1.610 . S
N2685 S2684 1.613 . S
N2685 C2688 1.350 . S
N2686 S2684 1.610 . S
N2686 C2687 1.351 . S
C2687 C2681 1.428 . S
C2687 N2686 1.351 . S
C2687 C2688 1.434 . S
C2688 C2679 1.429 . S
C2688 N2685 1.350 . S
C2688 C2687 1.434 . S
C2689 C2690 1.369 . S
C2689 C2691 1.419 . S
C2689 H2693 0.930 . S
C2690 C2689 1.369 . S
C2690 C2699 1.429 . S
C2691 C2689 1.419 . S
C2691 C2692 1.363 . S
C2691 H2694 0.929 . S
C2692 C2691 1.363 . S
C2692 C2698 1.428 . S
H2693 C2689 0.930 . S
H2694 C2691 0.929 . S
S2695 N2696 1.613 . S
S2695 N2697 1.610 . S
N2696 S2695 1.613 . S
N2696 C2699 1.350 . S
N2697 S2695 1.610 . S
N2697 C2698 1.351 . S
C2698 C2692 1.428 . S
C2698 N2697 1.351 . S
C2698 C2699 1.434 . S
C2699 C2690 1.429 . S
C2699 N2696 1.350 . S
C2699 C2698 1.434 . S
C2700 C2701 1.369 . S
C2700 C2702 1.419 . S
C2700 H2704 0.930 . S
C2701 C2700 1.369 . S
C2701 C2710 1.429 . S
C2702 C2700 1.419 . S
C2702 C2703 1.363 . S
C2702 H2705 0.929 . S
C2703 C2702 1.363 . S
C2703 C2709 1.428 . S
H2704 C2700 0.930 . S
H2705 C2702 0.929 . S
S2706 N2707 1.613 . S
S2706 N2708 1.610 . S
N2707 S2706 1.613 . S
N2707 C2710 1.350 . S
N2708 S2706 1.610 . S
N2708 C2709 1.351 . S
C2709 C2703 1.428 . S
C2709 N2708 1.351 . S
C2709 C2710 1.434 . S
C2710 C2701 1.429 . S
C2710 N2707 1.350 . S
C2710 C2709 1.434 . S
C2711 C2712 1.369 . S
C2711 C2713 1.419 . S
C2711 H2715 0.930 . S
C2712 C2711 1.369 . S
C2712 C2721 1.429 . S
C2713 C2711 1.419 . S
C2713 C2714 1.363 . S
C2713 H2716 0.929 . S
C2714 C2713 1.363 . S
C2714 C2720 1.428 . S
H2715 C2711 0.930 . S
H2716 C2713 0.929 . S
S2717 N2718 1.613 . S
S2717 N2719 1.610 . S
N2718 S2717 1.613 . S
N2718 C2721 1.350 . S
N2719 S2717 1.610 . S
N2719 C2720 1.351 . S
C2720 C2714 1.428 . S
C2720 N2719 1.351 . S
C2720 C2721 1.434 . S
C2721 C2712 1.429 . S
C2721 N2718 1.350 . S
C2721 C2720 1.434 . S
C2722 C2723 1.369 . S
C2722 C2724 1.419 . S
C2722 H2726 0.930 . S
C2723 C2722 1.369 . S
C2723 C2732 1.429 . S
C2724 C2722 1.419 . S
C2724 C2725 1.363 . S
C2724 H2727 0.929 . S
C2725 C2724 1.363 . S
C2725 C2731 1.428 . S
H2726 C2722 0.930 . S
H2727 C2724 0.929 . S
S2728 N2729 1.613 . S
S2728 N2730 1.610 1_545 S
N2729 S2728 1.613 . S
N2729 C2732 1.350 1_545 S
N2730 S2728 1.610 1_565 S
N2730 C2731 1.351 . S
C2731 C2725 1.428 . S
C2731 N2730 1.351 . S
C2731 C2732 1.434 . S
C2732 C2723 1.429 . S
C2732 N2729 1.350 1_565 S
C2732 C2731 1.434 . S
C2733 C2734 1.369 . S
C2733 C2735 1.419 . S
C2733 H2737 0.930 . S
C2734 C2733 1.369 . S
C2734 C2743 1.429 . S
C2735 C2733 1.419 . S
C2735 C2736 1.363 . S
C2735 H2738 0.929 . S
C2736 C2735 1.363 . S
C2736 C2742 1.428 . S
H2737 C2733 0.930 . S
H2738 C2735 0.929 . S
S2739 N2740 1.613 . S
S2739 N2741 1.570 1_554 S
N2740 S2739 1.613 . S
N2740 C2743 1.350 1_554 S
N2741 S2739 1.570 1_556 S
N2741 C2742 1.383 . S
C2742 C2736 1.428 . S
C2742 N2741 1.383 . S
C2742 C2743 1.434 . S
C2743 C2734 1.429 . S
C2743 N2740 1.350 1_556 S
C2743 C2742 1.434 . S
C2744 C2745 1.369 . S
C2744 C2746 1.419 . S
C2744 H2748 0.930 . S
C2745 C2744 1.369 . S
C2745 C2754 1.429 . S
C2746 C2744 1.419 . S
C2746 C2747 1.363 . S
C2746 H2749 0.929 . S
C2747 C2746 1.363 . S
C2747 C2753 1.428 . S
H2748 C2744 0.930 . S
H2749 C2746 0.929 . S
S2750 N2751 1.613 1_455 S
S2750 N2752 1.610 1_455 S
N2751 S2750 1.613 1_655 S
N2751 C2754 1.350 . S
N2752 S2750 1.610 1_655 S
N2752 C2753 1.351 . S
C2753 C2747 1.428 . S
C2753 N2752 1.351 . S
C2753 C2754 1.434 . S
C2754 C2745 1.429 . S
C2754 N2751 1.350 . S
C2754 C2753 1.434 . S
C2755 C2756 1.369 . S
C2755 C2757 1.419 . S
C2755 H2759 0.930 . S
C2756 C2755 1.369 . S
C2756 C2765 1.429 . S
C2757 C2755 1.419 . S
C2757 C2758 1.363 . S
C2757 H2760 0.929 . S
C2758 C2757 1.363 . S
C2758 C2764 1.428 . S
H2759 C2755 0.930 . S
H2760 C2757 0.929 . S
S2761 N2762 1.613 . S
S2761 N2763 1.610 1_554 S
N2762 S2761 1.613 . S
N2762 C2765 1.350 1_554 S
N2763 S2761 1.610 1_556 S
N2763 C2764 1.351 . S
C2764 C2758 1.428 . S
C2764 N2763 1.351 . S
C2764 C2765 1.434 . S
C2765 C2756 1.429 . S
C2765 N2762 1.350 1_556 S
C2765 C2764 1.434 . S
C2766 C2767 1.369 . S
C2766 C2768 1.419 . S
C2766 H2770 0.930 . S
C2767 C2766 1.369 . S
C2767 C2776 1.429 . S
C2768 C2766 1.419 . S
C2768 C2769 1.363 . S
C2768 H2771 0.929 . S
C2769 C2768 1.363 . S
C2769 C2775 1.428 . S
H2770 C2766 0.930 . S
H2771 C2768 0.929 . S
S2772 N2773 1.613 . S
S2772 N2774 1.610 . S
N2773 S2772 1.613 . S
N2773 C2776 1.350 . S
N2774 S2772 1.610 . S
N2774 C2775 1.351 . S
C2775 C2769 1.428 . S
C2775 N2774 1.351 . S
C2775 C2776 1.434 . S
C2776 C2767 1.429 . S
C2776 N2773 1.350 . S
C2776 C2775 1.434 . S
C2777 C2778 1.369 . S
C2777 C2779 1.419 . S
C2777 H2781 0.930 . S
C2778 C2777 1.369 . S
C2778 C2787 1.429 . S
C2779 C2777 1.419 . S
C2779 C2780 1.363 . S
C2779 H2782 0.929 . S
C2780 C2779 1.363 . S
C2780 C2786 1.428 . S
H2781 C2777 0.930 . S
H2782 C2779 0.929 . S
S2783 N2784 1.613 . S
S2783 N2785 1.610 1_554 S
N2784 S2783 1.613 . S
N2784 C2787 1.350 1_554 S
N2785 S2783 1.610 1_556 S
N2785 C2786 1.351 . S
C2786 C2780 1.428 . S
C2786 N2785 1.351 . S
C2786 C2787 1.434 . S
C2787 C2778 1.429 . S
C2787 N2784 1.350 1_556 S
C2787 C2786 1.434 . S
C2788 C2789 1.369 . S
C2788 C2790 1.419 . S
C2788 H2792 0.930 . S
C2789 C2788 1.369 . S
C2789 C2798 1.429 . S
C2790 C2788 1.419 . S
C2790 C2791 1.363 . S
C2790 H2793 0.929 . S
C2791 C2790 1.363 . S
C2791 C2797 1.428 . S
H2792 C2788 0.930 . S
H2793 C2790 0.929 . S
S2794 N2795 1.613 1_565 S
S2794 N2796 1.610 1_565 S
N2795 S2794 1.613 1_545 S
N2795 C2798 1.350 . S
N2796 S2794 1.610 1_545 S
N2796 C2797 1.351 . S
C2797 C2791 1.428 . S
C2797 N2796 1.351 . S
C2797 C2798 1.434 . S
C2798 C2789 1.429 . S
C2798 N2795 1.350 . S
C2798 C2797 1.434 . S
C2799 C2800 1.369 . S
C2799 C2801 1.419 . S
C2799 H2803 0.930 . S
C2800 C2799 1.369 . S
C2800 C2809 1.429 . S
C2801 C2799 1.419 . S
C2801 C2802 1.363 . S
C2801 H2804 0.929 . S
C2802 C2801 1.363 . S
C2802 C2808 1.428 . S
H2803 C2799 0.930 . S
H2804 C2801 0.929 . S
S2805 N2806 1.613 . S
S2805 N2807 1.610 . S
N2806 S2805 1.613 . S
N2806 C2809 1.350 . S
N2807 S2805 1.610 . S
N2807 C2808 1.351 . S
C2808 C2802 1.428 . S
C2808 N2807 1.351 . S
C2808 C2809 1.434 . S
C2809 C2800 1.429 . S
C2809 N2806 1.350 . S
C2809 C2808 1.434 . S
C2810 C2811 1.369 . S
C2810 C2812 1.419 . S
C2810 H2814 0.930 . S
C2811 C2810 1.369 . S
C2811 C2820 1.429 . S
C2812 C2810 1.419 . S
C2812 C2813 1.363 . S
C2812 H2815 0.929 . S
C2813 C2812 1.363 . S
C2813 C2819 1.428 . S
H2814 C2810 0.930 . S
H2815 C2812 0.929 . S
S2816 N2817 1.613 . S
S2816 N2818 1.610 . S
N2817 S2816 1.613 . S
N2817 C2820 1.350 . S
N2818 S2816 1.610 . S
N2818 C2819 1.351 . S
C2819 C2813 1.428 . S
C2819 N2818 1.351 . S
C2819 C2820 1.434 . S
C2820 C2811 1.429 . S
C2820 N2817 1.350 . S
C2820 C2819 1.434 . S
C2821 C2822 1.369 . S
C2821 C2823 1.419 . S
C2821 H2825 0.930 . S
C2822 C2821 1.369 . S
C2822 C2831 1.429 . S
C2823 C2821 1.419 . S
C2823 C2824 1.363 . S
C2823 H2826 0.929 . S
C2824 C2823 1.363 . S
C2824 C2830 1.428 . S
H2825 C2821 0.930 . S
H2826 C2823 0.929 . S
S2827 N2828 1.613 . S
S2827 N2829 1.610 . S
N2828 S2827 1.613 . S
N2828 C2831 1.350 . S
N2829 S2827 1.610 . S
N2829 C2830 1.351 . S
C2830 C2824 1.428 . S
C2830 N2829 1.351 . S
C2830 C2831 1.434 . S
C2831 C2822 1.429 . S
C2831 N2828 1.350 . S
C2831 C2830 1.434 . S
C2832 C2833 1.369 . S
C2832 C2834 1.419 . S
C2832 H2836 0.930 . S
C2833 C2832 1.369 . S
C2833 C2842 1.429 . S
C2834 C2832 1.419 . S
C2834 C2835 1.363 . S
C2834 H2837 0.929 . S
C2835 C2834 1.363 . S
C2835 C2841 1.428 . S
H2836 C2832 0.930 . S
H2837 C2834 0.929 . S
S2838 N2839 1.613 . S
S2838 N2840 1.610 . S
N2839 S2838 1.613 . S
N2839 C2842 1.350 . S
N2840 S2838 1.610 . S
N2840 C2841 1.351 . S
C2841 C2835 1.428 . S
C2841 N2840 1.351 . S
C2841 C2842 1.434 . S
C2842 C2833 1.429 . S
C2842 N2839 1.350 . S
C2842 C2841 1.434 . S
C2843 C2844 1.369 . S
C2843 C2845 1.419 . S
C2843 H2847 0.930 . S
C2844 C2843 1.369 . S
C2844 C2853 1.429 . S
C2845 C2843 1.419 . S
C2845 C2846 1.363 . S
C2845 H2848 0.929 . S
C2846 C2845 1.363 . S
C2846 C2852 1.428 . S
H2847 C2843 0.930 . S
H2848 C2845 0.929 . S
S2849 N2850 1.613 . S
S2849 N2851 1.610 . S
N2850 S2849 1.613 . S
N2850 C2853 1.350 . S
N2851 S2849 1.610 . S
N2851 C2852 1.351 . S
C2852 C2846 1.428 . S
C2852 N2851 1.351 . S
C2852 C2853 1.434 . S
C2853 C2844 1.429 . S
C2853 N2850 1.350 . S
C2853 C2852 1.434 . S
C2854 C2855 1.369 . S
C2854 C2856 1.419 . S
C2854 H2858 0.930 . S
C2855 C2854 1.369 . S
C2855 C2864 1.429 . S
C2856 C2854 1.419 . S
C2856 C2857 1.363 . S
C2856 H2859 0.929 . S
C2857 C2856 1.363 . S
C2857 C2863 1.428 . S
H2858 C2854 0.930 . S
H2859 C2856 0.929 . S
S2860 N2861 1.613 . S
S2860 N2862 1.610 . S
N2861 S2860 1.613 . S
N2861 C2864 1.350 . S
N2862 S2860 1.610 . S
N2862 C2863 1.351 . S
C2863 C2857 1.428 . S
C2863 N2862 1.351 . S
C2863 C2864 1.434 . S
C2864 C2855 1.429 . S
C2864 N2861 1.350 . S
C2864 C2863 1.434 . S
C2865 C2866 1.369 . S
C2865 C2867 1.419 1_455 S
C2865 H2869 0.930 1_455 S
C2866 C2865 1.369 . S
C2866 C2875 1.429 . S
C2867 C2865 1.419 1_655 S
C2867 C2868 1.363 1_655 S
C2867 H2870 0.929 . S
C2868 C2867 1.363 1_455 S
C2868 C2874 1.428 . S
H2869 C2865 0.930 1_655 S
H2870 C2867 0.929 . S
S2871 N2872 1.613 . S
S2871 N2873 1.610 . S
N2872 S2871 1.613 . S
N2872 C2875 1.350 . S
N2873 S2871 1.610 . S
N2873 C2874 1.351 . S
C2874 C2868 1.428 . S
C2874 N2873 1.351 . S
C2874 C2875 1.434 . S
C2875 C2866 1.429 . S
C2875 N2872 1.350 . S
C2875 C2874 1.434 . S
C2876 C2877 1.369 . S
C2876 C2878 1.419 . S
C2876 H2880 0.930 . S
C2877 C2876 1.369 . S
C2877 C2886 1.429 . S
C2878 C2876 1.419 . S
C2878 C2879 1.363 . S
C2878 H2881 0.929 . S
C2879 C2878 1.363 . S
C2879 C2885 1.428 . S
H2880 C2876 0.930 . S
H2881 C2878 0.929 . S
S2882 N2883 1.613 . S
S2882 N2884 1.610 . S
N2883 S2882 1.613 . S
N2883 C2886 1.350 . S
N2884 S2882 1.610 . S
N2884 C2885 1.351 . S
C2885 C2879 1.428 . S
C2885 N2884 1.351 . S
C2885 C2886 1.434 . S
C2886 C2877 1.429 . S
C2886 N2883 1.350 . S
C2886 C2885 1.434 . S
C2887 C2888 1.369 . S
C2887 C2889 1.419 . S
C2887 H2891 0.930 . S
C2888 C2887 1.369 . S
C2888 C2897 1.429 . S
C2889 C2887 1.419 . S
C2889 C2890 1.363 . S
C2889 H2892 0.929 . S
C2890 C2889 1.363 . S
C2890 C2896 1.428 . S
H2891 C2887 0.930 . S
H2892 C2889 0.929 . S
S2893 N2894 1.613 . S
S2893 N2895 1.610 . S
N2894 S2893 1.613 . S
N2894 C2897 1.350 . S
N2895 S2893 1.610 . S
N2895 C2896 1.351 . S
C2896 C2890 1.428 . S
C2896 N2895 1.351 . S
C2896 C2897 1.434 . S
C2897 C2888 1.429 . S
C2897 N2894 1.350 . S
C2897 C2896 1.434 . S
C2898 C2899 1.369 1_545 S
C2898 C2900 1.419 . S
C2898 H2902 0.930 . S
C2899 C2898 1.369 1_565 S
C2899 C2908 1.429 . S
C2900 C2898 1.419 . S
C2900 C2901 1.363 1_545 S
C2900 H2903 0.929 . S
C2901 C2900 1.363 1_565 S
C2901 C2907 1.428 . S
H2902 C2898 0.930 . S
H2903 C2900 0.929 . S
S2904 N2905 1.613 . S
S2904 N2906 1.610 . S
N2905 S2904 1.613 . S
N2905 C2908 1.350 . S
N2906 S2904 1.610 . S
N2906 C2907 1.351 . S
C2907 C2901 1.428 . S
C2907 N2906 1.351 . S
C2907 C2908 1.434 . S
C2908 C2899 1.429 . S
C2908 N2905 1.350 . S
C2908 C2907 1.434 . S
C2909 C2910 1.369 . S
C2909 C2911 1.419 . S
C2909 H2913 0.930 . S
C2910 C2909 1.369 . S
C2910 C2919 1.429 1_455 S
C2911 C2909 1.419 . S
C2911 C2912 1.363 . S
C2911 H2914 0.929 . S
C2912 C2911 1.363 . S
C2912 C2918 1.428 1_455 S
H2913 C2909 0.930 . S
H2914 C2911 0.929 . S
S2915 N2916 1.613 . S
S2915 N2917 1.610 . S
N2916 S2915 1.613 . S
N2916 C2919 1.350 . S
N2917 S2915 1.610 . S
N2917 C2918 1.351 . S
C2918 C2912 1.428 1_655 S
C2918 N2917 1.351 . S
C2918 C2919 1.434 . S
C2919 C2910 1.429 1_655 S
C2919 N2916 1.350 . S
C2919 C2918 1.434 . S
C2920 C2921 1.369 . S
C2920 C2922 1.419 . S
C2920 H2924 0.930 . S
C2921 C2920 1.369 . S
C2921 C2930 1.429 . S
C2922 C2920 1.419 . S
C2922 C2923 1.363 . S
C2922 H2925 0.929 . S
C2923 C2922 1.363 . S
C2923 C2929 1.428 . S
H2924 C2920 0.930 . S
H2925 C2922 0.929 . S
S2926 N2927 1.613 . S
S2926 N2928 1.610 . S
N2927 S2926 1.613 . S
N2927 C2930 1.350 . S
N2928 S2926 1.610 . S
N2928 C2929 1.351 . S
C2929 C2923 1.428 . S
C2929 N2928 1.351 . S
C2929 C2930 1.434 . S
C2930 C2921 1.429 . S
C2930 N2927 1.350 . S
C2930 C2929 1.434 . S
C2931 C2932 1.369 . S
C2931 C2933 1.419 . S
C2931 H2935 0.930 . S
C2932 C2931 1.369 . S
C2932 C2941 1.429 . S
C2933 C2931 1.419 . S
C2933 C2934 1.363 . S
C2933 H2936 0.929 . S
C2934 C2933 1.363 . S
C2934 C2940 1.428 . S
H2935 C2931 0.930 . S
H2936 C2933 0.929 . S
S2937 N2938 1.613 . S
S2937 N2939 1.610 . S
N2938 S2937 1.613 . S
N2938 C2941 1.350 . S
N2939 S2937 1.610 . S
N2939 C2940 1.351 . S
C2940 C2934 1.428 . S
C2940 N2939 1.351 . S
C2940 C2941 1.434 . S
C2941 C2932 1.429 . S
C2941 N2938 1.350 . S
C2941 C2940 1.434 . S
C2942 C2943 1.369 . S
C2942 C2944 1.419 . S
C2942 H2946 0.930 . S
C2943 C2942 1.369 . S
C2943 C2952 1.429 . S
C2944 C2942 1.419 . S
C2944 C2945 1.363 . S
C2944 H2947 0.929 . S
C2945 C2944 1.363 . S
C2945 C2951 1.428 . S
H2946 C2942 0.930 . S
H2947 C2944 0.929 . S
S2948 N2949 1.613 . S
S2948 N2950 1.610 . S
N2949 S2948 1.613 . S
N2949 C2952 1.350 . S
N2950 S2948 1.610 . S
N2950 C2951 1.351 . S
C2951 C2945 1.428 . S
C2951 N2950 1.351 . S
C2951 C2952 1.434 . S
C2952 C2943 1.429 . S
C2952 N2949 1.350 . S
C2952 C2951 1.434 . S
C2953 C2954 1.369 . S
C2953 C2955 1.419 . S
C2953 H2957 0.930 . S
C2954 C2953 1.369 . S
C2954 C2963 1.429 . S
C2955 C2953 1.419 . S
C2955 C2956 1.363 . S
C2955 H2958 0.929 . S
C2956 C2955 1.363 . S
C2956 C2962 1.428 . S
H2957 C2953 0.930 . S
H2958 C2955 0.929 . S
S2959 N2960 1.613 . S
S2959 N2961 1.610 . S
N2960 S2959 1.613 . S
N2960 C2963 1.350 . S
N2961 S2959 1.610 . S
N2961 C2962 1.351 . S
C2962 C2956 1.428 . S
C2962 N2961 1.351 . S
C2962 C2963 1.434 . S
C2963 C2954 1.429 . S
C2963 N2960 1.350 . S
C2963 C2962 1.434 . S
C2964 C2965 1.369 . S
C2964 C2966 1.419 . S
C2964 H2968 0.930 . S
C2965 C2964 1.369 . S
C2965 C2974 1.429 . S
C2966 C2964 1.419 . S
C2966 C2967 1.363 . S
C2966 H2969 0.929 . S
C2967 C2966 1.363 . S
C2967 C2973 1.428 . S
H2968 C2964 0.930 . S
H2969 C2966 0.929 . S
S2970 N2971 1.613 1_565 S
S2970 N2972 1.614 1_565 S
N2971 S2970 1.613 1_545 S
N2971 C2974 1.350 . S
N2972 S2970 1.614 1_545 S
N2972 C2973 1.385 . S
C2973 C2967 1.428 . S
C2973 N2972 1.385 . S
C2973 C2974 1.434 . S
C2974 C2965 1.429 . S
C2974 N2971 1.350 . S
C2974 C2973 1.434 . S
C2975 C2976 1.369 1_455 S
C2975 C2977 1.419 . S
C2975 H2979 0.930 . S
C2976 C2975 1.369 1_655 S
C2976 C2985 1.429 . S
C2977 C2975 1.419 . S
C2977 C2978 1.363 1_455 S
C2977 H2980 0.929 . S
C2978 C2977 1.363 1_655 S
C2978 C2984 1.428 . S
H2979 C2975 0.930 . S
H2980 C2977 0.929 . S
S2981 N2982 1.613 . S
S2981 N2983 1.610 . S
N2982 S2981 1.613 . S
N2982 C2985 1.350 . S
N2983 S2981 1.610 . S
N2983 C2984 1.351 . S
C2984 C2978 1.428 . S
C2984 N2983 1.351 . S
C2984 C2985 1.434 . S
C2985 C2976 1.429 . S
C2985 N2982 1.350 . S
C2985 C2984 1.434 . S
C2986 C2987 1.369 . S
C2986 C2988 1.419 . S
C2986 H2990 0.930 . S
C2987 C2986 1.369 . S
C2987 C2996 1.429 . S
C2988 C2986 1.419 . S
C2988 C2989 1.363 . S
C2988 H2991 0.929 . S
C2989 C2988 1.363 . S
C2989 C2995 1.428 . S
H2990 C2986 0.930 . S
H2991 C2988 0.929 . S
S2992 N2993 1.613 . S
S2992 N2994 1.610 . S
N2993 S2992 1.613 . S
N2993 C2996 1.350 . S
N2994 S2992 1.610 . S
N2994 C2995 1.351 . S
C2995 C2989 1.428 . S
C2995 N2994 1.351 . S
C2995 C2996 1.434 . S
C2996 C2987 1.429 . S
C2996 N2993 1.350 . S
C2996 C2995 1.434 . S
C2997 C2998 1.369 . S
C2997 C2999 1.419 . S
C2997 H3001 0.930 . S
C2998 C2997 1.369 . S
C2998 C3007 1.429 . S
C2999 C2997 1.419 . S
C2999 C3000 1.363 . S
C2999 H3002 0.929 . S
C3000 C2999 1.363 . S
C3000 C3006 1.428 . S
H3001 C2997 0.930 . S
H3002 C2999 0.929 . S
S3003 N3004 1.613 . S
S3003 N3005 1.610 . S
N3004 S3003 1.613 . S
N3004 C3007 1.350 . S
N3005 S3003 1.610 . S
N3005 C3006 1.351 . S
C3006 C3000 1.428 . S
C3006 N3005 1.351 . S
C3006 C3007 1.434 . S
C3007 C2998 1.429 . S
C3007 N3004 1.350 . S
C3007 C3006 1.434 . S
C3008 C3009 1.369 . S
C3008 C3010 1.419 . S
C3008 H3012 0.930 . S
C3009 C3008 1.369 . S
C3009 C3018 1.429 . S
C3010 C3008 1.419 . S
C3010 C3011 1.363 . S
C3010 H3013 0.929 . S
C3011 C3010 1.363 . S
C3011 C3017 1.428 . S
H3012 C3008 0.930 . S
H3013 C3010 0.929 . S
S3014 N3015 1.613 . S
S3014 N3016 1.610 . S
N3015 S3014 1.613 . S
N3015 C3018 1.350 . S
N3016 S3014 1.610 . S
N3016 C3017 1.351 . S
C3017 C3011 1.428 . S
C3017 N3016 1.351 . S
C3017 C3018 1.434 . S
C3018 C3009 1.429 . S
C3018 N3015 1.350 . S
C3018 C3017 1.434 . S
C3019 C3020 1.369 . S
C3019 C3021 1.419 . S
C3019 H3023 0.930 . S
C3020 C3019 1.369 . S
C3020 C3029 1.429 . S
C3021 C3019 1.419 . S
C3021 C3022 1.363 . S
C3021 H3024 0.929 . S
C3022 C3021 1.363 . S
C3022 C3028 1.428 . S
H3023 C3019 0.930 . S
H3024 C3021 0.929 . S
S3025 N3026 1.613 . S
S3025 N3027 1.610 . S
N3026 S3025 1.613 . S
N3026 C3029 1.350 . S
N3027 S3025 1.610 . S
N3027 C3028 1.351 . S
C3028 C3022 1.428 . S
C3028 N3027 1.351 . S
C3028 C3029 1.434 . S
C3029 C3020 1.429 . S
C3029 N3026 1.350 . S
C3029 C3028 1.434 . S
C3030 C3031 1.369 . S
C3030 C3032 1.419 . S
C3030 H3034 0.930 . S
C3031 C3030 1.369 . S
C3031 C3040 1.429 . S
C3032 C3030 1.419 . S
C3032 C3033 1.363 . S
C3032 H3035 0.929 . S
C3033 C3032 1.363 . S
C3033 C3039 1.428 . S
H3034 C3030 0.930 . S
H3035 C3032 0.929 . S
S3036 N3037 1.613 . S
S3036 N3038 1.610 . S
N3037 S3036 1.613 . S
N3037 C3040 1.350 . S
N3038 S3036 1.610 . S
N3038 C3039 1.351 . S
C3039 C3033 1.428 . S
C3039 N3038 1.351 . S
C3039 C3040 1.434 . S
C3040 C3031 1.429 . S
C3040 N3037 1.350 . S
C3040 C3039 1.434 . S
C3041 C3042 1.369 . S
C3041 C3043 1.419 . S
C3041 H3045 0.930 . S
C3042 C3041 1.369 . S
C3042 C3051 1.429 . S
C3043 C3041 1.419 . S
C3043 C3044 1.363 . S
C3043 H3046 0.929 . S
C3044 C3043 1.363 . S
C3044 C3050 1.428 . S
H3045 C3041 0.930 . S
H3046 C3043 0.929 . S
S3047 N3048 1.613 . S
S3047 N3049 1.610 . S
N3048 S3047 1.613 . S
N3048 C3051 1.350 . S
N3049 S3047 1.610 . S
N3049 C3050 1.351 . S
C3050 C3044 1.428 . S
C3050 N3049 1.351 . S
C3050 C3051 1.434 . S
C3051 C3042 1.429 . S
C3051 N3048 1.350 . S
C3051 C3050 1.434 . S
C3052 C3053 1.369 . S
C3052 C3054 1.419 . S
C3052 H3056 0.930 . S
C3053 C3052 1.369 . S
C3053 C3062 1.429 . S
C3054 C3052 1.419 . S
C3054 C3055 1.363 . S
C3054 H3057 0.929 . S
C3055 C3054 1.363 . S
C3055 C3061 1.428 . S
H3056 C3052 0.930 . S
H3057 C3054 0.929 . S
S3058 N3059 1.613 . S
S3058 N3060 1.610 . S
N3059 S3058 1.613 . S
N3059 C3062 1.350 . S
N3060 S3058 1.610 . S
N3060 C3061 1.351 . S
C3061 C3055 1.428 . S
C3061 N3060 1.351 . S
C3061 C3062 1.434 . S
C3062 C3053 1.429 . S
C3062 N3059 1.350 . S
C3062 C3061 1.434 . S
C3063 C3064 1.369 . S
C3063 C3065 1.419 . S
C3063 H3067 0.930 . S
C3064 C3063 1.369 . S
C3064 C3073 1.429 1_655 S
C3065 C3063 1.419 . S
C3065 C3066 1.363 . S
C3065 H3068 0.929 . S
C3066 C3065 1.363 . S
C3066 C3072 1.428 1_655 S
H3067 C3063 0.930 . S
H3068 C3065 0.929 . S
S3069 N3070 1.613 . S
S3069 N3071 1.610 . S
N3070 S3069 1.613 . S
N3070 C3073 1.350 . S
N3071 S3069 1.610 . S
N3071 C3072 1.351 . S
C3072 C3066 1.428 1_455 S
C3072 N3071 1.351 . S
C3072 C3073 1.434 . S
C3073 C3064 1.429 1_455 S
C3073 N3070 1.350 . S
C3073 C3072 1.434 . S
C3074 C3075 1.369 . S
C3074 C3076 1.419 . S
C3074 H3078 0.930 . S
C3075 C3074 1.369 . S
C3075 C3084 1.429 . S
C3076 C3074 1.419 . S
C3076 C3077 1.363 . S
C3076 H3079 0.929 . S
C3077 C3076 1.363 . S
C3077 C3083 1.428 . S
H3078 C3074 0.930 . S
H3079 C3076 0.929 . S
S3080 N3081 1.613 . S
S3080 N3082 1.610 . S
N3081 S3080 1.613 . S
N3081 C3084 1.350 . S
N3082 S3080 1.610 . S
N3082 C3083 1.351 . S
C3083 C3077 1.428 . S
C3083 N3082 1.351 . S
C3083 C3084 1.434 . S
C3084 C3075 1.429 . S
C3084 N3081 1.350 . S
C3084 C3083 1.434 . S
C3085 C3086 1.369 1_565 S
C3085 C3087 1.419 . S
C3085 H3089 0.930 . S
C3086 C3085 1.369 1_545 S
C3086 C3095 1.429 . S
C3087 C3085 1.419 . S
C3087 C3088 1.363 1_565 S
C3087 H3090 0.929 . S
C3088 C3087 1.363 1_545 S
C3088 C3094 1.428 . S
H3089 C3085 0.930 . S
H3090 C3087 0.929 . S
S3091 N3092 1.613 . S
S3091 N3093 1.610 . S
N3092 S3091 1.613 . S
N3092 C3095 1.350 . S
N3093 S3091 1.610 . S
N3093 C3094 1.351 . S
C3094 C3088 1.428 . S
C3094 N3093 1.351 . S
C3094 C3095 1.434 . S
C3095 C3086 1.429 . S
C3095 N3092 1.350 . S
C3095 C3094 1.434 . S
C2305 C13 1.326 . S
C2307 C1307 1.109 1_655 S
C2316 C27 1.438 . S
C2318 C1447 0.974 . S
C2329 C1535 1.166 . S
C2327 C36 1.251 . S
C2338 C41 1.402 . S
C2340 C1675 1.082 1_565 S
C2349 C8 1.369 . S
C2351 C1789 1.118 . S
C2360 C22 1.627 . S
C2362 C1877 1.181 . S
C2371 C55 1.354 . S
C2373 C1763 1.071 . S
C2384 C1903 1.218 . S
C2382 C69 1.372 . S
C2395 C1649 1.123 . S
C2393 C78 1.269 . S
C2404 C83 1.440 . S
C2406 C1561 1.024 . S
C2417 C1333 1.085 . S
C2415 C50 1.387 . S
C2426 C64 1.502 . S
C2428 C1421 1.387 . S
C2437 C97 1.680 . S
C2439 C1991 1.270 . S
C2448 C111 1.557 . S
C2450 C2131 1.053 . S
C2461 C2219 1.244 . S
C2459 C120 1.743 . S
C2470 C125 1.654 . S
C2472 C307 1.100 . S
C2481 C92 1.960 . S
C2483 C421 1.225 . S
C2492 C106 1.759 . S
C2494 C509 1.259 . S
C2503 C139 1.470 . S
C2505 C395 1.472 . S
C2514 C153 1.458 . S
C2516 C535 1.352 . S
C2527 C281 1.521 . S
C2525 C162 1.629 . S
C2538 C2245 1.561 . S
C2536 C167 1.655 . S
C2549 C2017 1.620 . S
C2547 C134 1.804 . S
C2560 C2105 1.549 . S
C2558 C148 1.648 . S
C2569 C181 1.594 . S
C2571 C623 1.172 . S
C2580 C195 1.551 . S
C2582 C763 1.015 . S
C2591 C204 1.761 . S
C2593 C851 1.278 . S
C2602 C209 1.758 . S
C2604 C991 1.183 . S
C2615 C1105 1.199 . S
C2613 C176 1.962 . S
C2626 C1193 1.295 . S
C2624 C190 1.792 . S
C2637 C1079 1.578 . S
C2635 C223 1.573 . S
C2648 C1219 1.392 . S
C2646 C237 1.478 . S
C2657 C246 1.595 . S
C2659 C965 1.498 . S
C2670 C877 1.462 . S
C2668 C251 1.547 . S
C2679 C218 1.817 . S
C2681 C649 1.643 . S
C2692 C737 1.530 . S
C2690 C232 1.617 . S
C2703 C263 0.941 . S
C2701 C11 1.776 . S
C2712 C25 1.613 . S
C2714 C377 0.833 . S
C2725 C481 1.210 . S
C2723 C35 1.773 . S
C2736 C595 1.228 . S
C2734 C39 1.686 . S
C2747 C719 1.016 . S
C2745 C7 1.878 . S
C2758 C823 1.179 . S
C2756 C21 1.762 . S
C2767 C53 1.908 . S
C2769 C833 1.635 . S
C2778 C67 1.734 . S
C2780 C605 1.525 . S
C2789 C77 1.941 . S
C2791 C709 1.744 . S
C2800 C81 1.846 . S
C2802 C367 1.834 . S
C2813 C491 1.695 . S
C2811 C49 2.035 . S
C2822 C63 1.909 . S
C2824 C253 1.745 . S
C2835 C947 0.934 . S
C2833 C95 1.691 . S
C2844 C109 1.676 . S
C2846 C1061 0.898 . S
C2855 C119 1.769 . S
C2857 C1165 1.268 . S
C2868 C1279 1.002 . S
C2866 C123 1.206 . S
C2877 C91 1.728 . S
C2879 C1403 0.943 . S
C2888 C105 1.247 . S
C2890 C1507 1.007 . S
C2899 C137 1.396 . S
C2901 C1517 0.933 1_565 S
C2910 C151 1.179 . S
C2912 C1289 0.821 1_455 S
C2923 C1393 1.578 . S
C2921 C161 1.758 . S
C2932 C165 1.793 . S
C2934 C1051 1.786 . S
C2943 C133 1.989 . S
C2945 C1175 1.654 . S
C2956 C937 1.790 . S
C2954 C147 1.970 . S
C2967 C1631 0.858 . S
C2965 C179 1.395 . S
C2976 C193 1.152 . S
C2978 C1745 0.763 . S
C2987 C203 1.620 . S
C2989 C1849 1.123 . S
C3000 C1963 1.230 . S
C2998 C207 1.629 . S
C3011 C2087 1.085 . S
C3009 C175 1.861 . S
C3020 C189 1.824 . S
C3022 C2191 1.276 . S
C3031 C221 1.830 . S
C3033 C2201 1.564 . S
C3042 C235 1.809 . S
C3044 C1973 1.556 . S
C3055 C2077 1.726 . S
C3053 C245 1.888 . S
C3066 C1735 1.062 1_655 S
C3064 C249 1.204 . S
C3077 C1859 1.517 . S
C3075 C217 1.865 . S
C3086 C231 1.320 . S
C3088 C1621 1.105 1_545 S
