# Generated by pormake.
# Topology apo, (3,6)-cn, num edge types: 1
# Building blocks:
#     Node 0, Type 0, BuildingBlock: PAMTOO_clean_linker_0, # of connection points: 3
#     Node 1, Type 0, BuildingBlock: PAMTOO_clean_linker_0, # of connection points: 3
#     Node 2, Type 0, BuildingBlock: PAMTOO_clean_linker_0, # of connection points: 3
#     Node 3, Type 0, BuildingBlock: PAMTOO_clean_linker_0, # of connection points: 3
#     Node 4, Type 0, BuildingBlock: PAMTOO_clean_linker_0, # of connection points: 3
#     Node 5, Type 0, BuildingBlock: PAMTOO_clean_linker_0, # of connection points: 3
#     Node 6, Type 0, BuildingBlock: PAMTOO_clean_linker_0, # of connection points: 3
#     Node 7, Type 0, BuildingBlock: PAMTOO_clean_linker_0, # of connection points: 3
#     Node 8, Type 1, BuildingBlock: MIDCAF_clean_sbu_0, # of connection points: 6
#     Node 9, Type 1, BuildingBlock: MIDCAF_clean_sbu_0, # of connection points: 6
#     Node 10, Type 1, BuildingBlock: MIDCAF_clean_sbu_0, # of connection points: 6
#     Node 11, Type 1, BuildingBlock: MIDCAF_clean_sbu_0, # of connection points: 6
#     Edge 12, Type (0, 1), BuildingBlock: ZUJKAS_clean_linker_0, # of connection points: 2
#     Edge 13, Type (0, 1), BuildingBlock: ZUJKAS_clean_linker_0, # of connection points: 2
#     Edge 14, Type (0, 1), BuildingBlock: ZUJKAS_clean_linker_0, # of connection points: 2
#     Edge 15, Type (0, 1), BuildingBlock: ZUJKAS_clean_linker_0, # of connection points: 2
#     Edge 16, Type (0, 1), BuildingBlock: ZUJKAS_clean_linker_0, # of connection points: 2
#     Edge 17, Type (0, 1), BuildingBlock: ZUJKAS_clean_linker_0, # of connection points: 2
#     Edge 18, Type (0, 1), BuildingBlock: ZUJKAS_clean_linker_0, # of connection points: 2
#     Edge 19, Type (0, 1), BuildingBlock: ZUJKAS_clean_linker_0, # of connection points: 2
#     Edge 20, Type (0, 1), BuildingBlock: ZUJKAS_clean_linker_0, # of connection points: 2
#     Edge 21, Type (0, 1), BuildingBlock: ZUJKAS_clean_linker_0, # of connection points: 2
#     Edge 22, Type (0, 1), BuildingBlock: ZUJKAS_clean_linker_0, # of connection points: 2
#     Edge 23, Type (0, 1), BuildingBlock: ZUJKAS_clean_linker_0, # of connection points: 2
#     Edge 24, Type (0, 1), BuildingBlock: ZUJKAS_clean_linker_0, # of connection points: 2
#     Edge 25, Type (0, 1), BuildingBlock: ZUJKAS_clean_linker_0, # of connection points: 2
#     Edge 26, Type (0, 1), BuildingBlock: ZUJKAS_clean_linker_0, # of connection points: 2
#     Edge 27, Type (0, 1), BuildingBlock: ZUJKAS_clean_linker_0, # of connection points: 2
#     Edge 28, Type (0, 1), BuildingBlock: ZUJKAS_clean_linker_0, # of connection points: 2
#     Edge 29, Type (0, 1), BuildingBlock: ZUJKAS_clean_linker_0, # of connection points: 2
#     Edge 30, Type (0, 1), BuildingBlock: ZUJKAS_clean_linker_0, # of connection points: 2
#     Edge 31, Type (0, 1), BuildingBlock: ZUJKAS_clean_linker_0, # of connection points: 2
#     Edge 32, Type (0, 1), BuildingBlock: ZUJKAS_clean_linker_0, # of connection points: 2
#     Edge 33, Type (0, 1), BuildingBlock: ZUJKAS_clean_linker_0, # of connection points: 2
#     Edge 34, Type (0, 1), BuildingBlock: ZUJKAS_clean_linker_0, # of connection points: 2
#     Edge 35, Type (0, 1), BuildingBlock: ZUJKAS_clean_linker_0, # of connection points: 2
# Relax obj value: 0.013
# Max RMSD: 0.061
# Mean RMSD: 0.057
data_MOF--net-apo--node1-MIDCAF_clean_sbu_0--node2-PAMTOO_clean_linker_0--edge1-ZUJKAS_clean_linker_0
_symmetry_space_group_name_H-M    P1
_symmetry_Int_Tables_number       1
_symmetry_cell_setting            triclinic
loop_
_symmetry_equiv_pos_as_xyz
'x, y, z'
_cell_length_a     47.231974
_cell_length_b     54.106719
_cell_length_c     44.753096
_cell_angle_alpha  89.918198
_cell_angle_beta   90.039769
_cell_angle_gamma 90.190215
loop_
_atom_site_label
_atom_site_type_symbol
_atom_site_fract_x
_atom_site_fract_y
_atom_site_fract_z
_atom_type_partial_charge
H0 H 0.38211 0.36486 0.42086 0.0
H1 H 0.34037 0.3443 0.33906 0.0
H2 H 0.31987 0.30641 0.42053 0.0
H3 H 0.32549 0.27446 0.36581 0.0
C4 C 0.31688 0.28772 0.34911 0.0
O5 O 0.30948 0.30945 0.36312 0.0
H6 H 0.33374 0.29141 0.33229 0.0
C7 C 0.36676 0.35356 0.40908 0.0
C8 C 0.35131 0.33546 0.42482 0.0
C9 C 0.36305 0.357 0.37819 0.0
C10 C 0.34388 0.34174 0.3628 0.0
C11 C 0.32857 0.32344 0.37805 0.0
C12 C 0.33228 0.3203 0.40895 0.0
H13 H 0.13997 0.14152 0.92197 0.0
H14 H 0.20313 0.19917 0.92098 0.0
H15 H 0.18306 0.16018 0.84022 0.0
H16 H 0.24192 0.16783 0.84908 0.0
C17 C 0.24214 0.18612 0.86045 0.0
O18 O 0.21481 0.19454 0.86396 0.0
H19 H 0.25217 0.18355 0.88276 0.0
C20 C 0.15525 0.15273 0.90994 0.0
C21 C 0.15949 0.14856 0.87927 0.0
C22 C 0.17068 0.17101 0.92532 0.0
C23 C 0.19089 0.18506 0.9096 0.0
C24 C 0.19514 0.18118 0.87894 0.0
C25 C 0.17924 0.16322 0.86381 0.0
H26 H 0.87677 0.13581 0.58654 0.0
H27 H 0.83543 0.15469 0.6691 0.0
H28 H 0.81541 0.19451 0.58889 0.0
H29 H 0.81873 0.22535 0.64324 0.0
C30 C 0.81117 0.21166 0.66003 0.0
O31 O 0.8044 0.18971 0.64601 0.0
H32 H 0.82843 0.20836 0.67651 0.0
C33 C 0.86158 0.14686 0.59877 0.0
C34 C 0.84647 0.16548 0.58376 0.0
C35 C 0.85799 0.14283 0.62958 0.0
C36 C 0.83893 0.15774 0.64545 0.0
C37 C 0.82367 0.17631 0.63076 0.0
C38 C 0.82752 0.18024 0.60004 0.0
H39 H 0.63953 0.36338 0.10114 0.0
H40 H 0.70702 0.31018 0.09635 0.0
H41 H 0.68671 0.34423 0.18013 0.0
H42 H 0.74573 0.34092 0.16973 0.0
C43 C 0.74711 0.32357 0.15648 0.0
O44 O 0.72047 0.31339 0.15309 0.0
H45 H 0.75599 0.32841 0.13417 0.0
C46 C 0.65564 0.35236 0.11207 0.0
C47 C 0.66066 0.35563 0.14278 0.0
C48 C 0.67204 0.33597 0.09496 0.0
C49 C 0.69404 0.32289 0.10901 0.0
C50 C 0.69924 0.32594 0.13967 0.0
C51 C 0.68247 0.34211 0.15647 0.0
H52 H 0.64584 0.63781 0.59535 0.0
H53 H 0.70913 0.69539 0.59403 0.0
H54 H 0.68981 0.65779 0.67607 0.0
H55 H 0.69691 0.70894 0.68397 0.0
C56 C 0.71255 0.71364 0.66626 0.0
O57 O 0.72053 0.69245 0.65134 0.0
H58 H 0.70229 0.72657 0.65023 0.0
C59 C 0.6615 0.64903 0.6068 0.0
C60 C 0.66577 0.64564 0.63761 0.0
C61 C 0.67717 0.66671 0.59064 0.0
C62 C 0.69695 0.68153 0.60594 0.0
C63 C 0.70147 0.67821 0.63669 0.0
C64 C 0.68622 0.66009 0.65231 0.0
H65 H 0.88375 0.86373 0.09402 0.0
H66 H 0.83961 0.84262 0.1743 0.0
H67 H 0.81795 0.80847 0.09087 0.0
H68 H 0.76857 0.82005 0.12899 0.0
C69 C 0.77901 0.81941 0.15126 0.0
O70 O 0.80632 0.81074 0.14816 0.0
H71 H 0.77953 0.83852 0.16048 0.0
C72 C 0.86791 0.85256 0.10524 0.0
C73 C 0.85151 0.83578 0.08851 0.0
C74 C 0.86392 0.85527 0.1362 0.0
C75 C 0.84312 0.84087 0.15047 0.0
C76 C 0.8266 0.82411 0.13412 0.0
C77 C 0.83097 0.82139 0.10329 0.0
H78 H 0.14935 0.86766 0.42143 0.0
H79 H 0.20771 0.80677 0.42055 0.0
H80 H 0.18655 0.84353 0.33853 0.0
H81 H 0.19276 0.79247 0.3308 0.0
C82 C 0.20853 0.78772 0.34835 0.0
O83 O 0.21732 0.80892 0.36279 0.0
H84 H 0.19821 0.77508 0.36473 0.0
C85 C 0.16306 0.85529 0.40912 0.0
C86 C 0.16553 0.85773 0.37792 0.0
C87 C 0.17811 0.83699 0.42472 0.0
C88 C 0.19591 0.82094 0.40884 0.0
C89 C 0.19916 0.82362 0.37785 0.0
C90 C 0.18409 0.84197 0.36253 0.0
H91 H 0.37364 0.63536 0.93144 0.0
H92 H 0.33344 0.65253 0.84757 0.0
H93 H 0.31136 0.69314 0.92645 0.0
H94 H 0.2632 0.67935 0.88739 0.0
C95 C 0.27401 0.67996 0.86533 0.0
O96 O 0.30169 0.68768 0.86904 0.0
H97 H 0.27378 0.66099 0.85572 0.0
C98 C 0.35843 0.64593 0.9186 0.0
C99 C 0.34267 0.66448 0.93288 0.0
C100 C 0.35547 0.6414 0.88783 0.0
C101 C 0.33644 0.65589 0.87122 0.0
C102 C 0.32047 0.67436 0.88518 0.0
C103 C 0.3238 0.67882 0.91588 0.0
Zn104 Zn 0.03514 0.12694 0.31014 0.0
Zn105 Zn 0.99054 0.127 0.20333 0.0
Zn106 Zn 0.01366 0.12793 0.25616 0.0
C107 C 0.0415 0.15264 0.19704 0.0
C108 C 0.99689 0.07813 0.21881 0.0
O109 O 0.98394 0.147 0.2872 0.0
O110 O 0.00663 0.14755 0.3305 0.0
C111 C 0.07488 0.15066 0.27351 0.0
O112 O 0.04368 0.14663 0.22486 0.0
O113 O 0.01941 0.14716 0.18259 0.0
O114 O 0.99015 0.09095 0.19635 0.0
O115 O 0.00576 0.08877 0.24286 0.0
O116 O 0.07176 0.14237 0.29968 0.0
O117 O 0.05515 0.14765 0.25388 0.0
O118 O 0.02124 0.08885 0.26983 0.0
O119 O 0.03505 0.09076 0.31699 0.0
C120 C 0.02934 0.07807 0.29411 0.0
O121 O 0.97259 0.14834 0.25829 0.0
O122 O 0.95418 0.14285 0.21335 0.0
C123 C 0.9853 0.1532 0.31499 0.0
C124 C 0.95229 0.15161 0.23938 0.0
Zn125 Zn 0.53306 0.37881 0.7104 0.0
Zn126 Zn 0.48891 0.36982 0.80934 0.0
Zn127 Zn 0.51244 0.37445 0.75905 0.0
C128 C 0.4841 0.4194 0.79432 0.0
C129 C 0.45859 0.33917 0.77296 0.0
O130 O 0.55278 0.35306 0.75965 0.0
O131 O 0.55573 0.34811 0.71091 0.0
C132 C 0.54018 0.42402 0.73385 0.0
O133 O 0.50203 0.41238 0.77437 0.0
O134 O 0.47278 0.4037 0.8115 0.0
O135 O 0.46313 0.34218 0.80046 0.0
O136 O 0.47324 0.35132 0.75352 0.0
O137 O 0.55356 0.41046 0.71589 0.0
O138 O 0.52049 0.41457 0.75029 0.0
O139 O 0.48235 0.35871 0.72546 0.0
O140 O 0.49794 0.37906 0.68602 0.0
C141 C 0.47931 0.36557 0.69802 0.0
O142 O 0.54441 0.3571 0.78935 0.0
O143 O 0.52285 0.36155 0.83289 0.0
C144 C 0.56411 0.34246 0.7368 0.0
C145 C 0.5444 0.35533 0.81811 0.0
Zn146 Zn 0.03692 0.87744 0.80823 0.0
Zn147 Zn 0.9915 0.87611 0.70218 0.0
Zn148 Zn 0.01399 0.8756 0.75536 0.0
C149 C 0.99694 0.92509 0.71749 0.0
C150 C 0.95258 0.85228 0.73928 0.0
O151 O 0.05512 0.85538 0.75293 0.0
O152 O 0.07316 0.86162 0.79788 0.0
C153 C 0.03062 0.92598 0.79206 0.0
O154 O 0.00574 0.91455 0.74165 0.0
O155 O 0.9908 0.91221 0.69491 0.0
O156 O 0.95522 0.86032 0.71295 0.0
O157 O 0.97262 0.85561 0.75849 0.0
O158 O 0.03728 0.91356 0.81486 0.0
O159 O 0.0218 0.91491 0.76826 0.0
O160 O 0.98461 0.85656 0.78712 0.0
O161 O 0.00867 0.85705 0.82956 0.0
C162 C 0.9869 0.85085 0.81502 0.0
O163 O 0.04383 0.85702 0.7238 0.0
O164 O 0.02 0.85599 0.68125 0.0
C165 C 0.07531 0.85248 0.77206 0.0
C166 C 0.04198 0.85085 0.69601 0.0
Zn167 Zn 0.5339 0.62913 0.20573 0.0
Zn168 Zn 0.48933 0.62599 0.31255 0.0
Zn169 Zn 0.51179 0.62901 0.25921 0.0
C170 C 0.53891 0.65337 0.31901 0.0
C171 C 0.4963 0.57782 0.295 0.0
O172 O 0.48168 0.64805 0.22846 0.0
O173 O 0.50507 0.64968 0.18566 0.0
C174 C 0.57263 0.65327 0.24294 0.0
O175 O 0.54104 0.64801 0.29103 0.0
O176 O 0.51741 0.64669 0.33369 0.0
O177 O 0.48992 0.58967 0.3183 0.0
O178 O 0.50461 0.5895 0.27141 0.0
O179 O 0.57008 0.64502 0.2167 0.0
O180 O 0.5527 0.64972 0.2622 0.0
O181 O 0.52054 0.59037 0.24471 0.0
O182 O 0.53473 0.59316 0.19775 0.0
C183 C 0.52906 0.58008 0.22035 0.0
O184 O 0.46996 0.64807 0.25725 0.0
O185 O 0.45254 0.64108 0.30235 0.0
C186 C 0.48336 0.65475 0.20084 0.0
C187 C 0.4498 0.65016 0.27652 0.0
H188 H 0.11027 0.87082 0.38715 0.0
H189 H 0.084 0.90434 0.36355 0.0
H190 H 0.156 0.92095 0.30773 0.0
H191 H 0.18288 0.888 0.33211 0.0
H192 H 0.13639 0.96133 0.33535 0.0
H193 H 0.04599 0.91247 0.28321 0.0
H194 H 0.04978 0.90478 0.32201 0.0
H195 H 0.07727 0.89651 0.29606 0.0
C196 C 0.12054 0.88156 0.36981 0.0
C197 C 0.1488 0.87681 0.36171 0.0
C198 C 0.10529 0.90047 0.35596 0.0
C199 C 0.11781 0.91491 0.33346 0.0
C200 C 0.14579 0.90987 0.32481 0.0
H201 H 0.04798 0.04839 0.24874 0.0
H202 H 0.06692 0.00635 0.25372 0.0
C203 C 0.1611 0.89097 0.33871 0.0
C204 C 0.10281 0.93689 0.32143 0.0
H205 H 0.04004 0.95632 0.29135 0.0
C206 C 0.11556 0.96014 0.32522 0.0
C207 C 0.07561 0.93539 0.30811 0.0
C208 C 0.06149 0.91091 0.30181 0.0
C209 C 0.10138 0.98192 0.31741 0.0
C210 C 0.07367 0.98047 0.30565 0.0
C211 C 0.06124 0.95729 0.30061 0.0
C212 C 0.05698 0.00316 0.30072 0.0
C213 C 0.11569 0.00651 0.32269 0.0
C214 C 0.04428 0.01475 0.32524 0.0
C215 C 0.03344 0.0386 0.32247 0.0
C216 C 0.03499 0.05123 0.29506 0.0
C217 C 0.04606 0.03895 0.26999 0.0
C218 C 0.05698 0.01501 0.27281 0.0
H219 H 0.13842 0.00444 0.32856 0.0
H220 H 0.11397 0.01833 0.30246 0.0
H221 H 0.10489 0.01625 0.34126 0.0
H222 H 0.04423 0.00587 0.34697 0.0
H223 H 0.02507 0.04763 0.34215 0.0
H224 H 0.36605 0.59519 0.90969 0.0
H225 H 0.39443 0.56259 0.88716 0.0
H226 H 0.41055 0.60904 0.81063 0.0
H227 H 0.38227 0.64206 0.83327 0.0
H228 H 0.39483 0.56103 0.79547 0.0
H229 H 0.48063 0.55969 0.87955 0.0
H230 H 0.44629 0.55747 0.89647 0.0
H231 H 0.45599 0.58503 0.87629 0.0
C232 C 0.37592 0.59866 0.88824 0.0
C233 C 0.37212 0.62136 0.87344 0.0
C234 C 0.39219 0.58 0.87541 0.0
C235 C 0.40516 0.58359 0.84754 0.0
C236 C 0.40096 0.60599 0.83231 0.0
H237 H 0.517 0.46126 0.79203 0.0
H238 H 0.50114 0.50424 0.79885 0.0
C239 C 0.38465 0.62476 0.84519 0.0
C240 C 0.422 0.56338 0.83405 0.0
H241 H 0.47504 0.5227 0.84997 0.0
C242 C 0.41272 0.55293 0.80707 0.0
C243 C 0.44574 0.55313 0.84881 0.0
C244 C 0.45795 0.56458 0.87672 0.0
C245 C 0.42522 0.53139 0.79568 0.0
C246 C 0.44725 0.51987 0.81194 0.0
C247 C 0.45793 0.53137 0.83768 0.0
C248 C 0.45698 0.49452 0.80479 0.0
C249 C 0.41418 0.52078 0.76677 0.0
C250 C 0.43752 0.47491 0.80604 0.0
C251 C 0.4465 0.45063 0.80203 0.0
C252 C 0.47513 0.44541 0.79662 0.0
C253 C 0.4947 0.46496 0.79524 0.0
C254 C 0.48569 0.4894 0.79939 0.0
H255 H 0.40493 0.53541 0.75236 0.0
H256 H 0.43119 0.51124 0.75418 0.0
H257 H 0.39721 0.50715 0.77177 0.0
H258 H 0.41543 0.47831 0.81099 0.0
H259 H 0.43103 0.43584 0.80347 0.0
H260 H 0.60859 0.63831 0.63527 0.0
H261 H 0.58093 0.60582 0.65988 0.0
H262 H 0.65706 0.57786 0.70097 0.0
H263 H 0.68465 0.61066 0.67694 0.0
H264 H 0.58527 0.55795 0.65138 0.0
H265 H 0.60456 0.57603 0.77112 0.0
H266 H 0.6133 0.59827 0.74245 0.0
H267 H 0.63717 0.57331 0.75096 0.0
C268 C 0.61935 0.62536 0.64982 0.0
C269 C 0.64878 0.62698 0.65417 0.0
C270 C 0.60352 0.60687 0.66396 0.0
C271 C 0.61678 0.58958 0.68271 0.0
C272 C 0.64615 0.59138 0.68738 0.0
H273 H 0.59241 0.44346 0.73977 0.0
H274 H 0.60669 0.48643 0.73154 0.0
C275 C 0.66196 0.61005 0.67348 0.0
C276 C 0.60043 0.56834 0.69501 0.0
H277 H 0.58871 0.53473 0.75858 0.0
C278 C 0.58552 0.55319 0.67493 0.0
C279 C 0.60063 0.56213 0.72577 0.0
C280 C 0.61453 0.57847 0.74883 0.0
C281 C 0.57221 0.53133 0.68444 0.0
C282 C 0.57368 0.5245 0.7149 0.0
C283 C 0.5876 0.54007 0.73524 0.0
C284 C 0.56403 0.4998 0.72503 0.0
C285 C 0.55797 0.51498 0.66159 0.0
C286 C 0.53519 0.49329 0.72508 0.0
C287 C 0.52698 0.46868 0.72995 0.0
C288 C 0.54754 0.45044 0.73489 0.0
C289 C 0.5762 0.45729 0.73626 0.0
C290 C 0.58435 0.48179 0.73162 0.0
H291 H 0.56141 0.52162 0.63837 0.0
H292 H 0.56601 0.49577 0.66342 0.0
H293 H 0.53484 0.51449 0.66592 0.0
H294 H 0.5192 0.50699 0.72007 0.0
H295 H 0.5048 0.46369 0.72831 0.0
H296 H 0.84514 0.88766 0.17874 0.0
H297 H 0.87157 0.92164 0.20182 0.0
H298 H 0.94675 0.89968 0.15435 0.0
H299 H 0.92069 0.86526 0.13173 0.0
H300 H 0.95566 0.91691 0.2167 0.0
H301 H 0.8924 0.98047 0.14522 0.0
H302 H 0.87252 0.9596 0.16848 0.0
H303 H 0.89376 0.94761 0.1386 0.0
C304 C 0.86746 0.88967 0.17377 0.0
C305 C 0.88072 0.87394 0.15308 0.0
C306 C 0.8825 0.90916 0.18688 0.0
C307 C 0.91101 0.91329 0.17953 0.0
C308 C 0.92474 0.8968 0.16028 0.0
H309 H 1.00273 0.04863 0.17044 0.0
H310 H 0.98519 0.00641 0.16455 0.0
C311 C 0.90974 0.87732 0.14714 0.0
C312 C 0.9256 0.93625 0.18911 0.0
H313 H 0.92602 0.99852 0.17712 0.0
C314 C 0.94913 0.93481 0.20828 0.0
C315 C 0.91718 0.95949 0.17774 0.0
C316 C 0.89273 0.96204 0.15619 0.0
C317 C 0.9645 0.95615 0.21633 0.0
C318 C 0.95605 0.97931 0.2048 0.0
C319 C 0.93239 0.98069 0.18592 0.0
C320 C 0.97194 0.00246 0.21056 0.0
C321 C 0.99005 0.95386 0.23635 0.0
C322 C 0.97114 0.01392 0.23869 0.0
C323 C 0.98121 0.03816 0.24211 0.0
C324 C 0.99212 0.05117 0.21743 0.0
C325 C 0.99443 0.03903 0.18983 0.0
C326 C 0.98447 0.01492 0.18645 0.0
H327 H 0.99608 0.93428 0.24018 0.0
H328 H 0.00837 0.96388 0.22651 0.0
H329 H 0.9854 0.96246 0.2583 0.0
H330 H 0.96115 0.00475 0.25747 0.0
H331 H 0.97873 0.04724 0.2635 0.0
H332 H 0.88599 0.14484 0.6833 0.0
H333 H 0.91339 0.11179 0.7074 0.0
H334 H 0.89346 0.06288 0.63434 0.0
H335 H 0.86597 0.09558 0.61033 0.0
H336 H 0.88497 0.04374 0.69643 0.0
H337 H 0.99172 0.08395 0.67418 0.0
H338 H 0.96474 0.10347 0.68993 0.0
H339 H 0.96108 0.09251 0.65236 0.0
C340 C 0.88732 0.12698 0.67252 0.0
C341 C 0.87396 0.12283 0.64484 0.0
C342 C 0.90312 0.10822 0.68619 0.0
C343 C 0.90561 0.08503 0.67248 0.0
C344 C 0.89189 0.08073 0.64517 0.0
H345 H 1.00072 0.95533 0.66924 0.0
H346 H 0.98155 0.99703 0.66431 0.0
C347 C 0.87632 0.09945 0.63142 0.0
C348 C 0.92234 0.06494 0.68633 0.0
H349 H 0.99003 0.04414 0.69533 0.0
C350 C 0.90794 0.04394 0.69676 0.0
C351 C 0.95226 0.06534 0.68649 0.0
C352 C 0.96857 0.08742 0.67507 0.0
C353 C 0.92269 0.02289 0.70633 0.0
C354 C 0.95265 0.02295 0.7056 0.0
C355 C 0.96708 0.04429 0.69614 0.0
C356 C 0.96889 0.99993 0.71061 0.0
C357 C 0.9061 1.00022 0.71552 0.0
C358 C 0.96918 0.98815 0.7386 0.0
C359 C 0.98018 0.96425 0.74147 0.0
C360 C 0.99109 0.95189 0.7164 0.0
C361 C 0.99242 0.96442 0.68892 0.0
C362 C 0.98156 0.98826 0.68609 0.0
H363 H 0.88308 0.00219 0.71105 0.0
H364 H 0.91395 0.98368 0.70346 0.0
H365 H 0.90902 0.99694 0.73981 0.0
H366 H 0.95967 0.99695 0.75783 0.0
H367 H 0.97853 0.95491 0.76282 0.0
H368 H 0.60361 0.3644 0.14018 0.0
H369 H 0.57795 0.39931 0.16179 0.0
H370 H 0.65431 0.42379 0.20564 0.0
H371 H 0.68033 0.38931 0.18353 0.0
H372 H 0.57056 0.4193 0.22301 0.0
H373 H 0.63197 0.47984 0.1458 0.0
H374 H 0.63053 0.44671 0.14147 0.0
H375 H 0.6525 0.46022 0.16989 0.0
C376 C 0.61489 0.37708 0.15466 0.0
C377 C 0.64412 0.37429 0.15976 0.0
C378 C 0.60013 0.39687 0.16721 0.0
C379 C 0.61431 0.41423 0.18503 0.0
C380 C 0.64304 0.41063 0.19177 0.0
H381 H 0.54807 0.5497 0.26498 0.0
H382 H 0.56556 0.50729 0.25944 0.0
C383 C 0.65784 0.39084 0.17924 0.0
C384 C 0.59996 0.43752 0.19346 0.0
H385 H 0.59946 0.4992 0.17767 0.0
C386 C 0.5769 0.43683 0.2133 0.0
C387 C 0.60811 0.46026 0.18038 0.0
C388 C 0.63197 0.46195 0.15802 0.0
C389 C 0.5618 0.45845 0.22042 0.0
C390 C 0.57008 0.48113 0.20731 0.0
C391 C 0.5932 0.48174 0.18767 0.0
C392 C 0.55474 0.50457 0.21255 0.0
C393 C 0.53674 0.45687 0.24122 0.0
C394 C 0.54239 0.51687 0.18823 0.0
C395 C 0.53246 0.54098 0.19133 0.0
C396 C 0.53463 0.55326 0.21887 0.0
C397 C 0.54565 0.5405 0.24365 0.0
C398 C 0.55565 0.51629 0.24051 0.0
H399 H 0.53 0.43746 0.24524 0.0
H400 H 0.54247 0.46526 0.26303 0.0
H401 H 0.51855 0.4674 0.23203 0.0
H402 H 0.54159 0.50818 0.16644 0.0
H403 H 0.52411 0.55038 0.17186 0.0
H404 H 0.39063 0.35489 0.32417 0.0
H405 H 0.41737 0.38818 0.29939 0.0
H406 H 0.39759 0.43734 0.37211 0.0
H407 H 0.37071 0.40449 0.3967 0.0
H408 H 0.38803 0.45621 0.31111 0.0
H409 H 0.49576 0.41732 0.32987 0.0
H410 H 0.46865 0.39767 0.31429 0.0
H411 H 0.46576 0.40791 0.35223 0.0
C412 C 0.39188 0.37286 0.33473 0.0
C413 C 0.37874 0.37704 0.36249 0.0
C414 C 0.40732 0.39175 0.32068 0.0
C415 C 0.40966 0.4151 0.3341 0.0
C416 C 0.39616 0.41939 0.36149 0.0
H417 H 0.50161 0.54579 0.34138 0.0
H418 H 0.48395 0.50333 0.34394 0.0
C419 C 0.38094 0.40057 0.37558 0.0
C420 C 0.42586 0.43544 0.3199 0.0
H421 H 0.49308 0.45758 0.31022 0.0
C422 C 0.41099 0.45638 0.3103 0.0
C423 C 0.45579 0.43552 0.31904 0.0
C424 C 0.47263 0.41351 0.32947 0.0
C425 C 0.42525 0.4779 0.3012 0.0
C426 C 0.45521 0.47838 0.3015 0.0
C427 C 0.47013 0.45704 0.30981 0.0
C428 C 0.47094 0.50191 0.29763 0.0
C429 C 0.40814 0.50048 0.29316 0.0
C430 C 0.47052 0.51482 0.27039 0.0
C431 C 0.48054 0.53918 0.2689 0.0
C432 C 0.4913 0.55085 0.29459 0.0
C433 C 0.49342 0.53725 0.32125 0.0
C434 C 0.48346 0.51297 0.32271 0.0
H435 H 0.3852 0.49791 0.29772 0.0
H436 H 0.41578 0.5168 0.3059 0.0
H437 H 0.41077 0.50457 0.26902 0.0
H438 H 0.46109 0.50652 0.25073 0.0
H439 H 0.47827 0.54934 0.24818 0.0
H440 H 0.13282 0.1498 0.82471 0.0
H441 H 0.10689 0.11599 0.80006 0.0
H442 H 0.12544 0.06799 0.87444 0.0
H443 H 0.15142 0.10141 0.89901 0.0
H444 H 0.13701 0.0494 0.81174 0.0
H445 H 0.02818 0.08537 0.83172 0.0
H446 H 0.05511 0.10594 0.81749 0.0
H447 H 0.05771 0.09447 0.85496 0.0
C448 C 0.13144 0.13199 0.8357 0.0
C449 C 0.14399 0.12829 0.86389 0.0
C450 C 0.11651 0.1128 0.82169 0.0
C451 C 0.11412 0.08962 0.83559 0.0
C452 C 0.12694 0.08581 0.86347 0.0
H453 H 0.02558 0.95657 0.83967 0.0
H454 H 0.0428 0.99905 0.84378 0.0
C455 C 0.14163 0.10496 0.87753 0.0
C456 C 0.09856 0.06899 0.82131 0.0
H457 H 0.03204 0.04531 0.8118 0.0
C458 C 0.11406 0.04863 0.81112 0.0
C459 C 0.06866 0.06814 0.82078 0.0
C460 C 0.05122 0.08954 0.83186 0.0
C461 C 0.10044 0.02694 0.80156 0.0
C462 C 0.0705 0.0257 0.80207 0.0
C463 C 0.05496 0.04644 0.81116 0.0
C464 C 0.05546 0.00192 0.79746 0.0
C465 C 0.11819 0.00498 0.79273 0.0
C466 C 0.05585 0.9898 0.76973 0.0
C467 C 0.04597 0.96544 0.76732 0.0
C468 C 0.03552 0.95296 0.79261 0.0
C469 C 0.03355 0.96574 0.81983 0.0
C470 C 0.04329 0.99003 0.82219 0.0
H471 H 0.14108 0.00803 0.79717 0.0
H472 H 0.1112 0.98821 0.80505 0.0
H473 H 0.11546 1.00136 0.7685 0.0
H474 H 0.06501 0.99876 0.75034 0.0
H475 H 0.04806 0.95592 0.74617 0.0
H476 H 0.11978 0.17397 0.95371 0.0
H477 H 0.11087 0.17656 1.00741 0.0
H478 H 0.20063 0.17969 0.02432 0.0
H479 H 0.20986 0.17687 0.97029 0.0
H480 H 0.14702 0.13798 0.05239 0.0
H481 H 0.14776 0.23961 0.07165 0.0
H482 H 0.13489 0.22775 0.03646 0.0
H483 H 0.1717 0.22507 0.04556 0.0
C484 C 0.13766 0.17529 0.96879 0.0
C485 C 0.16553 0.175 0.95776 0.0
C486 C 0.13253 0.1769 0.99943 0.0
C487 C 0.15509 0.17831 0.0197 0.0
C488 C 0.18297 0.17874 0.00891 0.0
H489 H 0.0985 0.14375 0.20296 0.0
H490 H 0.13494 0.15335 0.16541 0.0
C491 C 0.18817 0.17721 0.9781 0.0
C492 C 0.14892 0.17764 0.0521 0.0
H493 H 0.12766 0.21453 0.10958 0.0
C494 C 0.14351 0.15463 0.06534 0.0
C495 C 0.14432 0.19945 0.06861 0.0
C496 C 0.15 0.22448 0.05507 0.0
C497 C 0.13166 0.15285 0.09404 0.0
C498 C 0.12548 0.17476 0.11007 0.0
C499 C 0.13265 0.19776 0.09745 0.0
C500 C 0.10676 0.1742 0.13676 0.0
C501 C 0.1237 0.12761 0.10585 0.0
C502 C 0.07956 0.1843 0.13426 0.0
C503 C 0.059 0.17911 0.15571 0.0
C504 C 0.06522 0.16381 0.18021 0.0
C505 C 0.09319 0.15572 0.18438 0.0
C506 C 0.11391 0.16095 0.16277 0.0
H507 H 0.12648 0.11288 0.08883 0.0
H508 H 0.13727 0.12305 0.12532 0.0
H509 H 0.1013 0.12739 0.11338 0.0
H510 H 0.07355 0.19466 0.11452 0.0
H511 H 0.03763 0.1857 0.15203 0.0
H512 H 0.3566 0.37235 0.46608 0.0
H513 H 0.36833 0.36857 0.5189 0.0
H514 H 0.36503 0.28913 0.51183 0.0
H515 H 0.35451 0.29276 0.4583 0.0
H516 H 0.3421 0.34741 0.56724 0.0
H517 H 0.44441 0.30028 0.54367 0.0
H518 H 0.42364 0.31443 0.51453 0.0
H519 H 0.41299 0.28523 0.53013 0.0
C520 C 0.35852 0.35403 0.47564 0.0
C521 C 0.35522 0.33285 0.45774 0.0
C522 C 0.36494 0.3519 0.50598 0.0
C523 C 0.3681 0.32858 0.51928 0.0
C524 C 0.3633 0.30733 0.50193 0.0
H525 H 0.45526 0.31945 0.69392 0.0
H526 H 0.42169 0.30549 0.65518 0.0
C527 C 0.357 0.30944 0.47139 0.0
C528 C 0.37797 0.32703 0.5508 0.0
H529 H 0.43601 0.31254 0.59288 0.0
C530 C 0.36239 0.33935 0.57297 0.0
C531 C 0.40439 0.31639 0.5584 0.0
C532 C 0.42251 0.30347 0.53549 0.0
C533 C 0.37327 0.34259 0.60193 0.0
C534 C 0.40047 0.33341 0.60887 0.0
C535 C 0.4151 0.31948 0.58748 0.0
C536 C 0.41624 0.34181 0.6357 0.0
C537 C 0.35614 0.35676 0.62453 0.0
C538 C 0.42386 0.36682 0.63784 0.0
C539 C 0.44311 0.37465 0.65949 0.0
C540 C 0.45494 0.35771 0.67969 0.0
C541 C 0.44611 0.3329 0.67881 0.0
C542 C 0.42707 0.32493 0.65668 0.0
H543 H 0.33312 0.35552 0.61959 0.0
H544 H 0.36001 0.34982 0.64753 0.0
H545 H 0.36234 0.37655 0.62368 0.0
H546 H 0.41623 0.38008 0.62159 0.0
H547 H 0.44971 0.39385 0.65963 0.0
H548 H 0.62052 0.33229 0.06767 0.0
H549 H 0.61026 0.33246 0.0142 0.0
H550 H 0.6996 0.33341 0.9947 0.0
H551 H 0.71018 0.33368 0.04851 0.0
H552 H 0.63301 0.37273 0.97423 0.0
H553 H 0.66129 0.2769 0.94019 0.0
H554 H 0.65114 0.28406 0.97812 0.0
H555 H 0.68483 0.29411 0.96424 0.0
C556 C 0.63805 0.33247 0.05207 0.0
C557 C 0.66618 0.33323 0.0624 0.0
C558 C 0.63214 0.33244 0.02152 0.0
C559 C 0.65416 0.33294 1.00055 0.0
C560 C 0.68232 0.33281 0.01058 0.0
H561 H 0.59753 0.3754 0.81996 0.0
H562 H 0.63249 0.3687 0.85995 0.0
C563 C 0.6883 0.3329 0.04131 0.0
C564 C 0.64711 0.33533 0.96839 0.0
H565 H 0.63908 0.30201 0.90414 0.0
C566 C 0.63483 0.35748 0.95864 0.0
C567 C 0.64949 0.31533 0.94831 0.0
C568 C 0.66232 0.29114 0.95802 0.0
C569 C 0.62355 0.35981 0.92976 0.0
C570 C 0.62495 0.33949 0.90989 0.0
C571 C 0.63835 0.31764 0.91925 0.0
C572 C 0.60862 0.33945 0.88149 0.0
C573 C 0.60855 0.38346 0.92149 0.0
C574 C 0.5847 0.32414 0.87922 0.0
C575 C 0.56503 0.32779 0.85637 0.0
C576 C 0.56909 0.34659 0.83515 0.0
C577 C 0.59422 0.3605 0.8358 0.0
C578 C 0.614 0.35685 0.85878 0.0
H579 H 0.60565 0.39586 0.94102 0.0
H580 H 0.62116 0.39357 0.90448 0.0
H581 H 0.58742 0.37939 0.91174 0.0
H582 H 0.58008 0.31064 0.89647 0.0
H583 H 0.5456 0.31709 0.85653 0.0
H584 H 0.84895 0.13067 0.53972 0.0
H585 H 0.86351 0.13663 0.4877 0.0
H586 H 0.86955 0.21518 0.50221 0.0
H587 H 0.85507 0.20939 0.55447 0.0
H588 H 0.84197 0.1808 0.43754 0.0
H589 H 0.95249 0.17688 0.4814 0.0
H590 H 0.92438 0.16004 0.49972 0.0
H591 H 0.92535 0.19309 0.50175 0.0
C592 C 0.85297 0.14926 0.53173 0.0
C593 C 0.85118 0.16955 0.55127 0.0
C594 C 0.86101 0.15264 0.50196 0.0
C595 C 0.86746 0.17632 0.49118 0.0
C596 C 0.86434 0.19678 0.51011 0.0
H597 H 0.98594 0.19569 0.34659 0.0
H598 H 0.95209 0.20733 0.38533 0.0
C599 C 0.85611 0.19344 0.53993 0.0
C600 C 0.88131 0.17902 0.46171 0.0
H601 H 0.94662 0.17766 0.42964 0.0
C602 C 0.86485 0.18045 0.43565 0.0
C603 C 0.91109 0.17863 0.45948 0.0
C604 C 0.92957 0.17707 0.48696 0.0
C605 C 0.87759 0.18115 0.40718 0.0
C606 C 0.90747 0.17977 0.40489 0.0
C607 C 0.92375 0.17892 0.4312 0.0
C608 C 0.92275 0.17749 0.3759 0.0
C609 C 0.85893 0.18343 0.37998 0.0
C610 C 0.91668 0.15787 0.35626 0.0
C611 C 0.93568 0.15173 0.33342 0.0
C612 C 0.96128 0.16473 0.33047 0.0
C613 C 0.9662 0.18554 0.34838 0.0
C614 C 0.94693 0.19207 0.37063 0.0
H615 H 0.83894 0.19322 0.38538 0.0
H616 H 0.86981 0.19347 0.3616 0.0
H617 H 0.8532 0.16467 0.37195 0.0
H618 H 0.89858 0.14597 0.3601 0.0
H619 H 0.93173 0.13535 0.32014 0.0
H620 H 0.85562 0.79345 0.05498 0.0
H621 H 0.86999 0.79016 1.00237 0.0
H622 H 0.87287 0.86958 0.99565 0.0
H623 H 0.85828 0.87306 0.04789 0.0
H624 H 0.84793 0.8172 0.94291 0.0
H625 H 0.95667 0.83894 0.98342 0.0
H626 H 0.9295 0.82676 0.00776 0.0
H627 H 0.92864 0.8586 0.9965 0.0
C628 C 0.85864 0.81019 0.04207 0.0
C629 C 0.85625 0.83352 0.05573 0.0
C630 C 0.86681 0.80828 0.01204 0.0
C631 C 0.87257 0.82963 0.99524 0.0
C632 C 0.86856 0.85289 0.0083 0.0
H633 H 0.93163 0.86521 0.81809 0.0
H634 H 0.89935 0.85545 0.85947 0.0
C635 C 0.86047 0.85483 0.03821 0.0
C636 C 0.88629 0.82786 0.96556 0.0
H637 H 0.94987 0.83737 0.93142 0.0
C638 C 0.87026 0.8214 0.94028 0.0
C639 C 0.91542 0.83318 0.96233 0.0
C640 C 0.93374 0.83961 0.98889 0.0
C641 C 0.88266 0.82063 0.91162 0.0
C642 C 0.91169 0.82663 0.90836 0.0
C643 C 0.92765 0.83266 0.93385 0.0
C644 C 0.92643 0.8275 0.87899 0.0
C645 C 0.86473 0.8133 0.88519 0.0
C646 C 0.95177 0.81434 0.8754 0.0
C647 C 0.97031 0.82021 0.85218 0.0
C648 C 0.96367 0.83906 0.83181 0.0
C649 C 0.93699 0.85036 0.83332 0.0
C650 C 0.91854 0.84476 0.85698 0.0
H651 H 0.84564 0.80274 0.89222 0.0
H652 H 0.85756 0.83022 0.87341 0.0
H653 H 0.87702 0.80195 0.86915 0.0
H654 H 0.9583 0.80093 0.89201 0.0
H655 H 0.99084 0.81134 0.85151 0.0
H656 H 0.67082 0.7097 0.55862 0.0
H657 H 0.65591 0.71379 0.50623 0.0
H658 H 0.65693 0.63455 0.4968 0.0
H659 H 0.67205 0.63029 0.54883 0.0
H660 H 0.67893 0.68792 0.44528 0.0
H661 H 0.5713 0.66366 0.48705 0.0
H662 H 0.59831 0.67649 0.51109 0.0
H663 H 0.60024 0.64476 0.49971 0.0
C664 C 0.66858 0.6932 0.54515 0.0
C665 C 0.6722 0.66965 0.55798 0.0
C666 C 0.6601 0.69557 0.51525 0.0
C667 C 0.65529 0.67446 0.49776 0.0
C668 C 0.66056 0.65105 0.50997 0.0
H669 H 0.59452 0.63995 0.32118 0.0
H670 H 0.62716 0.64987 0.36218 0.0
C671 C 0.66894 0.64866 0.53977 0.0
C672 C 0.64111 0.67645 0.46834 0.0
H673 H 0.57724 0.66636 0.43505 0.0
C674 C 0.65665 0.68343 0.44292 0.0
C675 C 0.61205 0.67072 0.46549 0.0
C676 C 0.59431 0.66361 0.49223 0.0
C677 C 0.64381 0.68435 0.41448 0.0
C678 C 0.61485 0.67796 0.41157 0.0
C679 C 0.59939 0.6714 0.43721 0.0
C680 C 0.59972 0.67714 0.38242 0.0
C681 C 0.6612 0.69226 0.38789 0.0
C682 C 0.57402 0.68986 0.37937 0.0
C683 C 0.55527 0.68387 0.35637 0.0
C684 C 0.56206 0.66536 0.33569 0.0
C685 C 0.58903 0.65454 0.33667 0.0
C686 C 0.60769 0.66023 0.36011 0.0
H687 H 0.68013 0.70309 0.39478 0.0
H688 H 0.66862 0.67559 0.37583 0.0
H689 H 0.64843 0.70354 0.37213 0.0
H690 H 0.56742 0.70299 0.39622 0.0
H691 H 0.53453 0.69237 0.3561 0.0
H692 H 0.35102 0.70863 0.96162 0.0
H693 H 0.36566 0.71466 0.01382 0.0
H694 H 0.35881 0.63626 0.02938 0.0
H695 H 0.34413 0.63008 0.97745 0.0
H696 H 0.33902 0.68403 0.07907 0.0
H697 H 0.44817 0.67181 0.03391 0.0
H698 H 0.42119 0.68734 0.01243 0.0
H699 H 0.41909 0.65459 0.01798 0.0
C700 C 0.35185 0.69279 0.97641 0.0
C701 C 0.34676 0.66885 0.96539 0.0
C702 C 0.36016 0.69627 1.00619 0.0
C703 C 0.36319 0.6759 0.02536 0.0
C704 C 0.35638 0.65221 0.01494 0.0
H705 H 0.42895 0.63815 0.19777 0.0
H706 H 0.39532 0.64825 0.15788 0.0
C707 C 0.34825 0.6487 0.98523 0.0
C708 C 0.37766 0.67859 0.05451 0.0
H709 H 0.44319 0.67409 0.08576 0.0
C710 C 0.36183 0.68218 0.08068 0.0
C711 C 0.40734 0.67619 0.05637 0.0
C712 C 0.42516 0.67229 0.02878 0.0
C713 C 0.37509 0.68309 0.1089 0.0
C714 C 0.4048 0.67987 0.11082 0.0
C715 C 0.42048 0.67677 0.08441 0.0
C716 C 0.42044 0.67829 0.13965 0.0
C717 C 0.35724 0.68756 0.13626 0.0
C718 C 0.44525 0.69232 0.14352 0.0
C719 C 0.46468 0.68615 0.1658 0.0
C720 C 0.45939 0.66619 0.18505 0.0
C721 C 0.43325 0.65385 0.18341 0.0
C722 C 0.41399 0.65969 0.16062 0.0
H723 H 0.33755 0.69771 0.13055 0.0
H724 H 0.35099 0.66951 0.14608 0.0
H725 H 0.36908 0.6982 0.15342 0.0
H726 H 0.4507 0.70679 0.12776 0.0
H727 H 0.48479 0.69583 0.16659 0.0
H728 H 0.18681 0.87286 0.46622 0.0
H729 H 0.17588 0.87122 0.51963 0.0
H730 H 0.14898 0.7953 0.51013 0.0
H731 H 0.1612 0.79668 0.45693 0.0
H732 H 0.12604 0.8662 0.54118 0.0
H733 H 0.1894 0.78967 0.58773 0.0
H734 H 0.19628 0.80254 0.55121 0.0
H735 H 0.169 0.77953 0.55625 0.0
C736 C 0.17919 0.85568 0.47577 0.0
C737 C 0.17483 0.8349 0.45757 0.0
C738 C 0.17296 0.85472 0.50628 0.0
C739 C 0.16186 0.83305 0.51919 0.0
C740 C 0.15828 0.81202 0.50109 0.0
H741 H 0.04017 0.81534 0.65362 0.0
H742 H 0.0757 0.80837 0.61489 0.0
C743 C 0.16504 0.81285 0.47062 0.0
C744 C 0.15067 0.83358 0.55034 0.0
H745 H 0.148 0.80157 0.61638 0.0
C746 C 0.13142 0.85234 0.55775 0.0
C747 C 0.15753 0.81551 0.57216 0.0
C748 C 0.17942 0.79585 0.56652 0.0
C749 C 0.11806 0.85298 0.58569 0.0
C750 C 0.12383 0.83427 0.60685 0.0
C751 C 0.14365 0.81588 0.60003 0.0
C752 C 0.10694 0.83262 0.63464 0.0
C753 C 0.09688 0.87313 0.59208 0.0
C754 C 0.11344 0.8475 0.65944 0.0
C755 C 0.0932 0.85128 0.6819 0.0
C756 C 0.06619 0.84051 0.67942 0.0
C757 C 0.06086 0.82382 0.65605 0.0
C758 C 0.08113 0.8198 0.63393 0.0
H759 H 0.09525 0.88667 0.57348 0.0
H760 H 0.07566 0.86484 0.59595 0.0
H761 H 0.10302 0.88316 0.61272 0.0
H762 H 0.13321 0.85769 0.6602 0.0
H763 H 0.0977 0.86444 0.69952 0.0
H764 H 0.27358 0.26228 0.37545 0.0
H765 H 0.23245 0.24279 0.35147 0.0
H766 H 0.26092 0.2693 0.26562 0.0
H767 H 0.3022 0.28869 0.28961 0.0
H768 H 0.18919 0.26418 0.31521 0.0
H769 H 0.252 0.1937 0.2538 0.0
H770 H 0.26656 0.21125 0.28448 0.0
H771 H 0.262 0.22552 0.24858 0.0
C772 C 0.271 0.26388 0.35147 0.0
C773 C 0.29124 0.27652 0.33427 0.0
C774 C 0.24752 0.25285 0.33781 0.0
C775 C 0.24386 0.25429 0.3067 0.0
C776 C 0.26361 0.26759 0.28956 0.0
H777 H 0.08141 0.1928 0.2397 0.0
H778 H 0.12319 0.22022 0.23956 0.0
C779 C 0.2871 0.27867 0.30326 0.0
C780 C 0.21954 0.24141 0.29248 0.0
H781 H 0.20251 0.19119 0.24982 0.0
C782 C 0.19202 0.24847 0.30048 0.0
C783 C 0.22338 0.2209 0.27334 0.0
C784 C 0.25253 0.21217 0.26459 0.0
C785 C 0.16825 0.23493 0.29092 0.0
C786 C 0.17213 0.21391 0.2726 0.0
C787 C 0.19959 0.20749 0.26354 0.0
C788 C 0.14872 0.1961 0.2672 0.0
C789 C 0.13932 0.24229 0.30205 0.0
C790 C 0.14982 0.17301 0.28135 0.0
C791 C 0.12624 0.15748 0.28137 0.0
C792 C 0.1011 0.16459 0.267 0.0
C793 C 0.10061 0.18684 0.25078 0.0
C794 C 0.12433 0.20257 0.25094 0.0
H795 H 0.14039 0.25726 0.31898 0.0
H796 H 0.12636 0.24892 0.28298 0.0
H797 H 0.1283 0.22613 0.31207 0.0
H798 H 0.1684 0.16759 0.29395 0.0
H799 H 0.1272 0.14037 0.29395 0.0
H800 H 0.27559 0.22404 0.88042 0.0
H801 H 0.30607 0.2515 0.85103 0.0
H802 H 0.2768 0.21685 0.76984 0.0
H803 H 0.24657 0.18901 0.79945 0.0
H804 H 0.33372 0.21967 0.7714 0.0
H805 H 0.29015 0.31111 0.79961 0.0
H806 H 0.29756 0.29386 0.83291 0.0
H807 H 0.27113 0.28276 0.80709 0.0
C808 C 0.2755 0.2225 0.85629 0.0
C809 C 0.25914 0.20424 0.84216 0.0
C810 C 0.29268 0.23833 0.83947 0.0
C811 C 0.29346 0.2365 0.80815 0.0
C812 C 0.27645 0.21869 0.79394 0.0
H813 H 0.41279 0.347 0.7365 0.0
H814 H 0.36995 0.32091 0.73429 0.0
C815 C 0.25926 0.20281 0.81081 0.0
C816 C 0.31395 0.25171 0.7908 0.0
H817 H 0.33981 0.31048 0.78496 0.0
C818 C 0.33465 0.2396 0.77377 0.0
C819 C 0.31487 0.27779 0.79313 0.0
C820 C 0.29201 0.29213 0.80891 0.0
C821 C 0.3576 0.25261 0.76137 0.0
C822 C 0.36015 0.27831 0.76657 0.0
C823 C 0.3381 0.29073 0.78122 0.0
C824 C 0.38729 0.29171 0.76187 0.0
C825 C 0.37949 0.23854 0.74382 0.0
C826 C 0.4114 0.28369 0.77737 0.0
C827 C 0.43556 0.29847 0.77865 0.0
C828 C 0.43623 0.32155 0.76438 0.0
C829 C 0.41289 0.32902 0.74719 0.0
C830 C 0.38842 0.31424 0.74612 0.0
H831 H 0.36972 0.22256 0.73208 0.0
H832 H 0.3902 0.25054 0.72712 0.0
H833 H 0.39568 0.23115 0.75941 0.0
H834 H 0.4109 0.26676 0.79032 0.0
H835 H 0.4532 0.2925 0.79236 0.0
H836 H 0.80724 0.23134 0.71648 0.0
H837 H 0.76566 0.24995 0.74042 0.0
H838 H 0.7161 0.23503 0.66148 0.0
H839 H 0.75757 0.21659 0.63747 0.0
H840 H 0.73382 0.29089 0.71815 0.0
H841 H 0.66704 0.20717 0.73075 0.0
H842 H 0.70486 0.20575 0.72492 0.0
H843 H 0.68143 0.211 0.69389 0.0
C844 C 0.78734 0.23177 0.70444 0.0
C845 C 0.78539 0.22202 0.67539 0.0
C846 C 0.76367 0.24241 0.7181 0.0
C847 C 0.73767 0.24338 0.70297 0.0
C848 C 0.73578 0.23389 0.67384 0.0
H849 H 0.57769 0.30665 0.69733 0.0
H850 H 0.62014 0.28137 0.69627 0.0
C851 C 0.75945 0.22343 0.66012 0.0
C852 C 0.7128 0.25559 0.71668 0.0
H853 H 0.64319 0.24614 0.73377 0.0
C854 C 0.71412 0.2811 0.72218 0.0
C855 C 0.68724 0.24268 0.72205 0.0
C856 C 0.68504 0.21508 0.71789 0.0
C857 C 0.68995 0.29437 0.73085 0.0
C858 C 0.66395 0.28164 0.7347 0.0
C859 C 0.66311 0.25589 0.73086 0.0
C860 C 0.63676 0.29504 0.73819 0.0
C861 C 0.69202 0.3221 0.73384 0.0
C862 C 0.63141 0.31061 0.76268 0.0
C863 C 0.60695 0.32528 0.76329 0.0
C864 C 0.58757 0.32451 0.73948 0.0
C865 C 0.59232 0.30786 0.71593 0.0
C866 C 0.61657 0.29329 0.71533 0.0
H867 H 0.71252 0.32943 0.72542 0.0
H868 H 0.67459 0.33123 0.72139 0.0
H869 H 0.69006 0.32724 0.75773 0.0
H870 H 0.64651 0.31196 0.78083 0.0
H871 H 0.60399 0.33807 0.78149 0.0
H872 H 0.75005 0.31373 0.2165 0.0
H873 H 0.78294 0.2859 0.24265 0.0
H874 H 0.81935 0.26487 0.15811 0.0
H875 H 0.78669 0.29267 0.13206 0.0
H876 H 0.792 0.23431 0.23657 0.0
H877 H 0.88812 0.28806 0.20766 0.0
H878 H 0.85287 0.3006 0.20427 0.0
H879 H 0.86679 0.28076 0.17563 0.0
C880 C 0.76514 0.30313 0.20363 0.0
C881 C 0.7663 0.30565 0.17238 0.0
C882 C 0.78384 0.28727 0.21852 0.0
C883 C 0.804 0.27375 0.20237 0.0
C884 C 0.80442 0.27559 0.17106 0.0
H885 H 0.89908 0.14579 0.21819 0.0
H886 H 0.86125 0.1762 0.21847 0.0
C887 C 0.78572 0.29136 0.15619 0.0
C888 C 0.82463 0.25757 0.21794 0.0
H889 H 0.89545 0.24618 0.22347 0.0
C890 C 0.81463 0.23709 0.23415 0.0
C891 C 0.85415 0.26154 0.21547 0.0
C892 C 0.86617 0.28408 0.20009 0.0
C893 C 0.83342 0.21954 0.24609 0.0
C894 C 0.86288 0.22242 0.24133 0.0
C895 C 0.87288 0.24383 0.22699 0.0
C896 C 0.88333 0.20214 0.24705 0.0
C897 C 0.82151 0.19777 0.26305 0.0
C898 C 0.90829 0.20628 0.26352 0.0
C899 C 0.93014 0.18876 0.26335 0.0
C900 C 0.92742 0.16707 0.24635 0.0
C901 C 0.90173 0.16233 0.23153 0.0
C902 C 0.87995 0.17966 0.23187 0.0
H903 H 0.80124 0.20263 0.27412 0.0
H904 H 0.81711 0.18249 0.24718 0.0
H905 H 0.83661 0.19102 0.28024 0.0
H906 H 0.91145 0.22359 0.27519 0.0
H907 H 0.94985 0.19306 0.27458 0.0
H908 H 0.75029 0.69307 0.70568 0.0
H909 H 0.79038 0.71329 0.73108 0.0
H910 H 0.77112 0.78147 0.68548 0.0
H911 H 0.73124 0.76142 0.66023 0.0
H912 H 0.83792 0.73694 0.70501 0.0
H913 H 0.77616 0.80232 0.77371 0.0
H914 H 0.76046 0.77541 0.7564 0.0
H915 H 0.7663 0.80314 0.73499 0.0
C916 C 0.75479 0.71235 0.70108 0.0
C917 C 0.73788 0.72566 0.68085 0.0
C918 C 0.77754 0.72387 0.71564 0.0
C919 C 0.78341 0.74899 0.71057 0.0
C920 C 0.76662 0.76222 0.69022 0.0
H921 H 0.90023 0.8613 0.7181 0.0
H922 H 0.85919 0.83402 0.71989 0.0
C923 C 0.74401 0.7507 0.67559 0.0
C924 C 0.80775 0.76137 0.72538 0.0
H925 H 0.82515 0.81294 0.76535 0.0
C926 C 0.83523 0.75322 0.71882 0.0
C927 C 0.80412 0.78245 0.74361 0.0
C928 C 0.77515 0.79121 0.75287 0.0
C929 C 0.85915 0.76679 0.72793 0.0
C930 C 0.85543 0.78886 0.74445 0.0
C931 C 0.828 0.79603 0.75272 0.0
C932 C 0.87896 0.8068 0.74849 0.0
C933 C 0.88808 0.75843 0.71792 0.0
C934 C 0.90337 0.80115 0.76516 0.0
C935 C 0.92705 0.81692 0.76426 0.0
C936 C 0.92649 0.8384 0.74656 0.0
C937 C 0.90131 0.84477 0.73176 0.0
C938 C 0.8778 0.82921 0.73281 0.0
H939 H 0.88697 0.74251 0.70231 0.0
H940 H 0.8995 0.77383 0.7067 0.0
H941 H 0.90069 0.75279 0.7377 0.0
H942 H 0.90454 0.78409 0.77778 0.0
H943 H 0.94626 0.81152 0.77572 0.0
H944 H 0.74644 0.83205 0.19971 0.0
H945 H 0.7154 0.80522 0.2295 0.0
H946 H 0.74108 0.74247 0.17687 0.0
H947 H 0.77217 0.76926 0.1471 0.0
H948 H 0.6705 0.77815 0.20653 0.0
H949 H 0.74657 0.71589 0.26264 0.0
H950 H 0.75701 0.74509 0.24629 0.0
H951 H 0.75239 0.71824 0.2231 0.0
C952 C 0.74585 0.81244 0.19491 0.0
C953 C 0.76203 0.80261 0.17142 0.0
C954 C 0.72812 0.79716 0.21191 0.0
C955 C 0.72633 0.77176 0.20582 0.0
C956 C 0.7427 0.76188 0.18253 0.0
H957 H 0.62481 0.64769 0.2194 0.0
H958 H 0.66313 0.67783 0.21919 0.0
C959 C 0.76034 0.77718 0.16545 0.0
C960 C 0.70539 0.75597 0.22169 0.0
H961 H 0.69843 0.7013 0.25923 0.0
C962 C 0.67655 0.76161 0.21865 0.0
C963 C 0.71338 0.73449 0.23759 0.0
C964 C 0.74405 0.72816 0.24289 0.0
C965 C 0.65544 0.74543 0.22909 0.0
C966 C 0.66342 0.72322 0.24362 0.0
C967 C 0.6923 0.71833 0.24821 0.0
C968 C 0.64251 0.7032 0.24945 0.0
C969 C 0.62485 0.7514 0.22253 0.0
C970 C 0.61873 0.70673 0.26788 0.0
C971 C 0.59653 0.68939 0.26795 0.0
C972 C 0.59801 0.66833 0.24968 0.0
C973 C 0.62296 0.66387 0.23349 0.0
C974 C 0.64496 0.68108 0.23342 0.0
H975 H 0.62266 0.76731 0.20699 0.0
H976 H 0.61391 0.73519 0.21257 0.0
H977 H 0.6139 0.75614 0.24366 0.0
H978 H 0.61666 0.72346 0.28093 0.0
H979 H 0.5775 0.69336 0.28052 0.0
H980 H 0.24589 0.80744 0.30788 0.0
H981 H 0.28591 0.78691 0.28311 0.0
H982 H 0.26656 0.71954 0.33061 0.0
H983 H 0.22673 0.73992 0.35528 0.0
H984 H 0.33324 0.76438 0.31047 0.0
H985 H 0.27261 0.69679 0.24314 0.0
H986 H 0.25655 0.72387 0.25944 0.0
H987 H 0.26251 0.69672 0.2818 0.0
C988 C 0.2503 0.78825 0.31297 0.0
C989 C 0.23341 0.77529 0.33362 0.0
C990 C 0.27303 0.77655 0.29877 0.0
C991 C 0.27891 0.75159 0.30464 0.0
C992 C 0.26204 0.73866 0.32528 0.0
H993 H 0.39769 0.64038 0.29827 0.0
H994 H 0.35626 0.66699 0.29687 0.0
C995 C 0.23946 0.75036 0.33955 0.0
C996 C 0.30347 0.73917 0.2905 0.0
H997 H 0.32171 0.68725 0.25186 0.0
C998 C 0.33081 0.74783 0.29706 0.0
C999 C 0.30019 0.71771 0.27281 0.0
C1000 C 0.27136 0.70835 0.2636 0.0
C1001 C 0.35495 0.73449 0.28843 0.0
C1002 C 0.35159 0.71214 0.27234 0.0
C1003 C 0.32428 0.70438 0.26415 0.0
C1004 C 0.37548 0.69468 0.26838 0.0
C1005 C 0.38372 0.74348 0.29843 0.0
C1006 C 0.39975 0.70085 0.25172 0.0
C1007 C 0.42368 0.68551 0.25248 0.0
C1008 C 0.42351 0.66388 0.26991 0.0
C1009 C 0.3985 0.65703 0.2848 0.0
C1010 C 0.37475 0.6722 0.28396 0.0
H1011 H 0.38228 0.75935 0.31407 0.0
H1012 H 0.39552 0.72834 0.3096 0.0
H1013 H 0.39613 0.74946 0.27864 0.0
H1014 H 0.4006 0.71797 0.23917 0.0
H1015 H 0.44275 0.69134 0.24101 0.0
H1016 H 0.24117 0.66898 0.81641 0.0
H1017 H 0.21161 0.69713 0.78693 0.0
H1018 H 0.24018 0.75839 0.84077 0.0
H1019 H 0.26981 0.73027 0.87023 0.0
H1020 H 0.16801 0.72528 0.81044 0.0
H1021 H 0.24702 0.78583 0.75543 0.0
H1022 H 0.25605 0.75614 0.77128 0.0
H1023 H 0.25259 0.7828 0.79495 0.0
C1024 C 0.24156 0.68854 0.82153 0.0
C1025 C 0.25812 0.69756 0.84527 0.0
C1026 C 0.22466 0.70458 0.80471 0.0
C1027 C 0.22409 0.72993 0.81125 0.0
C1028 C 0.24086 0.73901 0.83477 0.0
H1029 H 0.1276 0.85727 0.79599 0.0
H1030 H 0.16475 0.82624 0.7972 0.0
C1031 C 0.25768 0.72296 0.85167 0.0
C1032 C 0.20391 0.74653 0.79561 0.0
H1033 H 0.19951 0.80152 0.75838 0.0
C1034 C 0.17484 0.7417 0.79848 0.0
C1035 C 0.21292 0.76787 0.77997 0.0
C1036 C 0.24386 0.77339 0.77493 0.0
C1037 C 0.15449 0.7585 0.78802 0.0
C1038 C 0.16349 0.7805 0.77359 0.0
C1039 C 0.1926 0.78464 0.7693 0.0
C1040 C 0.1434 0.80095 0.76724 0.0
C1041 C 0.12364 0.75334 0.7944 0.0
C1042 C 0.11965 0.79773 0.74862 0.0
C1043 C 0.09811 0.81556 0.748 0.0
C1044 C 0.10024 0.83683 0.76586 0.0
C1045 C 0.12524 0.84094 0.7822 0.0
C1046 C 0.14657 0.82322 0.78286 0.0
H1047 H 0.12073 0.73768 0.81021 0.0
H1048 H 0.11324 0.76992 0.80395 0.0
H1049 H 0.11266 0.74855 0.77325 0.0
H1050 H 0.11705 0.7809 0.73584 0.0
H1051 H 0.07905 0.81184 0.73531 0.0
loop_
_geom_bond_atom_site_label_1
_geom_bond_atom_site_label_2
_geom_bond_distance
_geom_bond_site_symmetry_2
_ccdc_geom_bond_type
H0 C7 0.929 . S
H1 C10 0.930 . S
H2 C12 0.929 . S
H3 C4 0.969 . S
C4 H3 0.969 . S
C4 O5 1.550 . S
C4 H6 0.973 . S
O5 C4 1.550 . S
O5 C11 1.412 . S
H6 C4 0.973 . S
C7 H0 0.929 . S
C7 C8 1.400 . S
C7 C9 1.364 . S
C8 C7 1.400 . S
C8 C12 1.377 . S
C9 C7 1.364 . S
C9 C10 1.374 . S
C10 H1 0.930 . S
C10 C9 1.374 . S
C10 C11 1.383 . S
C11 O5 1.412 . S
C11 C10 1.383 . S
C11 C12 1.394 . S
C12 H2 0.929 . S
C12 C8 1.377 . S
C12 C11 1.394 . S
H13 C20 0.929 . S
H14 C23 0.930 . S
H15 C25 0.929 . S
H16 C17 0.969 . S
C17 H16 0.969 . S
C17 O18 1.550 . S
C17 H19 0.973 . S
O18 C17 1.550 . S
O18 C24 1.412 . S
H19 C17 0.973 . S
C20 H13 0.929 . S
C20 C21 1.400 . S
C20 C22 1.364 . S
C21 C20 1.400 . S
C21 C25 1.377 . S
C22 C20 1.364 . S
C22 C23 1.374 . S
C23 H14 0.930 . S
C23 C22 1.374 . S
C23 C24 1.383 . S
C24 O18 1.412 . S
C24 C23 1.383 . S
C24 C25 1.394 . S
C25 H15 0.929 . S
C25 C21 1.377 . S
C25 C24 1.394 . S
H26 C33 0.929 . S
H27 C36 0.930 . S
H28 C38 0.929 . S
H29 C30 0.969 . S
C30 H29 0.969 . S
C30 O31 1.550 . S
C30 H32 0.973 . S
O31 C30 1.550 . S
O31 C37 1.412 . S
H32 C30 0.973 . S
C33 H26 0.929 . S
C33 C34 1.400 . S
C33 C35 1.364 . S
C34 C33 1.400 . S
C34 C38 1.377 . S
C35 C33 1.364 . S
C35 C36 1.374 . S
C36 H27 0.930 . S
C36 C35 1.374 . S
C36 C37 1.383 . S
C37 O31 1.412 . S
C37 C36 1.383 . S
C37 C38 1.394 . S
C38 H28 0.929 . S
C38 C34 1.377 . S
C38 C37 1.394 . S
H39 C46 0.929 . S
H40 C49 0.930 . S
H41 C51 0.929 . S
H42 C43 0.969 . S
C43 H42 0.969 . S
C43 O44 1.550 . S
C43 H45 0.973 . S
O44 C43 1.550 . S
O44 C50 1.412 . S
H45 C43 0.973 . S
C46 H39 0.929 . S
C46 C47 1.400 . S
C46 C48 1.364 . S
C47 C46 1.400 . S
C47 C51 1.377 . S
C48 C46 1.364 . S
C48 C49 1.374 . S
C49 H40 0.930 . S
C49 C48 1.374 . S
C49 C50 1.383 . S
C50 O44 1.412 . S
C50 C49 1.383 . S
C50 C51 1.394 . S
C51 H41 0.929 . S
C51 C47 1.377 . S
C51 C50 1.394 . S
H52 C59 0.929 . S
H53 C62 0.930 . S
H54 C64 0.929 . S
H55 C56 0.969 . S
C56 H55 0.969 . S
C56 O57 1.550 . S
C56 H58 0.973 . S
O57 C56 1.550 . S
O57 C63 1.412 . S
H58 C56 0.973 . S
C59 H52 0.929 . S
C59 C60 1.400 . S
C59 C61 1.364 . S
C60 C59 1.400 . S
C60 C64 1.377 . S
C61 C59 1.364 . S
C61 C62 1.374 . S
C62 H53 0.930 . S
C62 C61 1.374 . S
C62 C63 1.383 . S
C63 O57 1.412 . S
C63 C62 1.383 . S
C63 C64 1.394 . S
C64 H54 0.929 . S
C64 C60 1.377 . S
C64 C63 1.394 . S
H65 C72 0.929 . S
H66 C75 0.930 . S
H67 C77 0.929 . S
H68 C69 0.969 . S
C69 H68 0.969 . S
C69 O70 1.550 . S
C69 H71 0.973 . S
O70 C69 1.550 . S
O70 C76 1.412 . S
H71 C69 0.973 . S
C72 H65 0.929 . S
C72 C73 1.400 . S
C72 C74 1.364 . S
C73 C72 1.400 . S
C73 C77 1.377 . S
C74 C72 1.364 . S
C74 C75 1.374 . S
C75 H66 0.930 . S
C75 C74 1.374 . S
C75 C76 1.383 . S
C76 O70 1.412 . S
C76 C75 1.383 . S
C76 C77 1.394 . S
C77 H67 0.929 . S
C77 C73 1.377 . S
C77 C76 1.394 . S
H78 C85 0.929 . S
H79 C88 0.930 . S
H80 C90 0.929 . S
H81 C82 0.969 . S
C82 H81 0.969 . S
C82 O83 1.550 . S
C82 H84 0.973 . S
O83 C82 1.550 . S
O83 C89 1.412 . S
H84 C82 0.973 . S
C85 H78 0.929 . S
C85 C86 1.400 . S
C85 C87 1.364 . S
C86 C85 1.400 . S
C86 C90 1.377 . S
C87 C85 1.364 . S
C87 C88 1.374 . S
C88 H79 0.930 . S
C88 C87 1.374 . S
C88 C89 1.383 . S
C89 O83 1.412 . S
C89 C88 1.383 . S
C89 C90 1.394 . S
C90 H80 0.929 . S
C90 C86 1.377 . S
C90 C89 1.394 . S
H91 C98 0.929 . S
H92 C101 0.930 . S
H93 C103 0.929 . S
H94 C95 0.969 . S
C95 H94 0.969 . S
C95 O96 1.550 . S
C95 H97 0.973 . S
O96 C95 1.550 . S
O96 C102 1.412 . S
H97 C95 0.973 . S
C98 H91 0.929 . S
C98 C99 1.400 . S
C98 C100 1.364 . S
C99 C98 1.400 . S
C99 C103 1.377 . S
C100 C98 1.364 . S
C100 C101 1.374 . S
C101 H92 0.930 . S
C101 C100 1.374 . S
C101 C102 1.383 . S
C102 O96 1.412 . S
C102 C101 1.383 . S
C102 C103 1.394 . S
C103 H93 0.929 . S
C103 C99 1.377 . S
C103 C102 1.394 . S
Zn104 O110 1.920 . S
Zn104 O116 1.898 . S
Zn104 O119 1.905 . S
Zn105 O113 1.905 1_655 S
Zn105 O114 1.898 . S
Zn105 O122 1.920 . S
Zn106 O109 2.080 1_455 S
Zn106 O112 2.114 . S
Zn106 O115 2.120 1_455 S
Zn106 O117 2.120 . S
Zn106 O118 2.114 . S
Zn106 O121 2.080 1_455 S
C107 O112 1.166 . S
C107 O113 1.182 . S
C108 O114 1.167 . S
C108 O115 1.299 . S
O109 Zn106 2.080 1_655 S
O109 C123 1.305 . S
O110 Zn104 1.920 . S
O110 C123 1.234 1_455 S
C111 O116 1.167 . S
C111 O117 1.299 . S
O112 Zn106 2.114 . S
O112 C107 1.166 . S
O113 Zn105 1.905 1_455 S
O113 C107 1.182 . S
O114 Zn105 1.898 . S
O114 C108 1.167 . S
O115 Zn106 2.120 1_655 S
O115 C108 1.299 . S
O116 Zn104 1.898 . S
O116 C111 1.167 . S
O117 Zn106 2.120 . S
O117 C111 1.299 . S
O118 Zn106 2.114 . S
O118 C120 1.166 . S
O119 Zn104 1.905 . S
O119 C120 1.182 . S
C120 O118 1.166 . S
C120 O119 1.182 . S
O121 Zn106 2.080 1_655 S
O121 C124 1.305 . S
O122 Zn105 1.920 . S
O122 C124 1.234 . S
C123 O109 1.305 . S
C123 O110 1.234 1_655 S
C124 O121 1.305 . S
C124 O122 1.234 . S
Zn125 O131 1.920 . S
Zn125 O137 1.898 . S
Zn125 O140 1.905 . S
Zn126 O134 1.905 . S
Zn126 O135 1.898 . S
Zn126 O143 1.920 . S
Zn127 O130 2.080 . S
Zn127 O133 2.114 . S
Zn127 O136 2.120 . S
Zn127 O138 2.120 . S
Zn127 O139 2.114 . S
Zn127 O142 2.080 . S
C128 O133 1.166 . S
C128 O134 1.182 . S
C129 O135 1.167 . S
C129 O136 1.299 . S
O130 Zn127 2.080 . S
O130 C144 1.305 . S
O131 Zn125 1.920 . S
O131 C144 1.234 . S
C132 O137 1.167 . S
C132 O138 1.299 . S
O133 Zn127 2.114 . S
O133 C128 1.166 . S
O134 Zn126 1.905 . S
O134 C128 1.182 . S
O135 Zn126 1.898 . S
O135 C129 1.167 . S
O136 Zn127 2.120 . S
O136 C129 1.299 . S
O137 Zn125 1.898 . S
O137 C132 1.167 . S
O138 Zn127 2.120 . S
O138 C132 1.299 . S
O139 Zn127 2.114 . S
O139 C141 1.166 . S
O140 Zn125 1.905 . S
O140 C141 1.182 . S
C141 O139 1.166 . S
C141 O140 1.182 . S
O142 Zn127 2.080 . S
O142 C145 1.305 . S
O143 Zn126 1.920 . S
O143 C145 1.234 . S
C144 O130 1.305 . S
C144 O131 1.234 . S
C145 O142 1.305 . S
C145 O143 1.234 . S
Zn146 O152 1.920 . S
Zn146 O158 1.898 . S
Zn146 O161 1.905 . S
Zn147 O155 1.905 . S
Zn147 O156 1.898 . S
Zn147 O164 1.920 1_655 S
Zn148 O151 2.080 . S
Zn148 O154 2.114 1_455 S
Zn148 O157 2.120 1_455 S
Zn148 O159 2.120 . S
Zn148 O160 2.114 1_455 S
Zn148 O163 2.080 . S
C149 O154 1.166 . S
C149 O155 1.182 . S
C150 O156 1.167 . S
C150 O157 1.299 . S
O151 Zn148 2.080 . S
O151 C165 1.305 . S
O152 Zn146 1.920 . S
O152 C165 1.234 . S
C153 O158 1.167 . S
C153 O159 1.299 . S
O154 Zn148 2.114 1_655 S
O154 C149 1.166 . S
O155 Zn147 1.905 . S
O155 C149 1.182 . S
O156 Zn147 1.898 . S
O156 C150 1.167 . S
O157 Zn148 2.120 1_655 S
O157 C150 1.299 . S
O158 Zn146 1.898 . S
O158 C153 1.167 . S
O159 Zn148 2.120 . S
O159 C153 1.299 . S
O160 Zn148 2.114 1_655 S
O160 C162 1.166 . S
O161 Zn146 1.905 . S
O161 C162 1.182 1_455 S
C162 O160 1.166 . S
C162 O161 1.182 1_655 S
O163 Zn148 2.080 . S
O163 C166 1.305 . S
O164 Zn147 1.920 1_455 S
O164 C166 1.234 . S
C165 O151 1.305 . S
C165 O152 1.234 . S
C166 O163 1.305 . S
C166 O164 1.234 . S
Zn167 O173 1.920 . S
Zn167 O179 1.898 . S
Zn167 O182 1.905 . S
Zn168 O176 1.905 . S
Zn168 O177 1.898 . S
Zn168 O185 1.920 . S
Zn169 O172 2.080 . S
Zn169 O175 2.114 . S
Zn169 O178 2.120 . S
Zn169 O180 2.120 . S
Zn169 O181 2.114 . S
Zn169 O184 2.080 . S
C170 O175 1.166 . S
C170 O176 1.182 . S
C171 O177 1.167 . S
C171 O178 1.299 . S
O172 Zn169 2.080 . S
O172 C186 1.305 . S
O173 Zn167 1.920 . S
O173 C186 1.234 . S
C174 O179 1.167 . S
C174 O180 1.299 . S
O175 Zn169 2.114 . S
O175 C170 1.166 . S
O176 Zn168 1.905 . S
O176 C170 1.182 . S
O177 Zn168 1.898 . S
O177 C171 1.167 . S
O178 Zn169 2.120 . S
O178 C171 1.299 . S
O179 Zn167 1.898 . S
O179 C174 1.167 . S
O180 Zn169 2.120 . S
O180 C174 1.299 . S
O181 Zn169 2.114 . S
O181 C183 1.166 . S
O182 Zn167 1.905 . S
O182 C183 1.182 . S
C183 O181 1.166 . S
C183 O182 1.182 . S
O184 Zn169 2.080 . S
O184 C187 1.305 . S
O185 Zn168 1.920 . S
O185 C187 1.234 . S
C186 O172 1.305 . S
C186 O173 1.234 . S
C187 O184 1.305 . S
C187 O185 1.234 . S
H188 C196 0.929 . S
H189 C198 0.930 . S
H190 C200 0.930 . S
H191 C203 0.929 . S
H192 C206 0.930 . S
H193 C208 0.960 . S
H194 C208 0.960 . S
H195 C208 0.960 . S
C196 H188 0.929 . S
C196 C197 1.377 . S
C196 C198 1.384 . S
C197 C196 1.377 . S
C197 C203 1.390 . S
C198 H189 0.930 . S
C198 C196 1.384 . S
C198 C199 1.372 . S
C199 C198 1.372 . S
C199 C200 1.400 . S
C199 C204 1.490 . S
C200 H190 0.930 . S
C200 C199 1.400 . S
C200 C203 1.386 . S
H201 C217 0.930 . S
H202 C218 0.931 . S
C203 H191 0.929 . S
C203 C197 1.390 . S
C203 C200 1.386 . S
C204 C199 1.490 . S
C204 C206 1.395 . S
C204 C207 1.403 . S
H205 C211 0.930 . S
C206 H192 0.930 . S
C206 C204 1.395 . S
C206 C209 1.403 . S
C207 C204 1.403 . S
C207 C208 1.524 . S
C207 C211 1.400 . S
C208 H193 0.960 . S
C208 H194 0.960 . S
C208 H195 0.960 . S
C208 C207 1.524 . S
C209 C206 1.403 . S
C209 C210 1.392 . S
C209 C213 1.495 . S
C210 C209 1.392 . S
C210 C211 1.385 . S
C210 C212 1.478 1_565 S
C211 H205 0.930 . S
C211 C207 1.400 . S
C211 C210 1.385 . S
C212 C210 1.478 1_545 S
C212 C214 1.381 . S
C212 C218 1.383 . S
C213 C209 1.495 . S
C213 H219 0.959 . S
C213 H220 0.961 . S
C213 H221 0.960 . S
C214 C212 1.381 . S
C214 C215 1.394 . S
C214 H222 0.930 1_545 S
C215 C214 1.394 . S
C215 C216 1.383 . S
C215 H223 0.929 . S
C216 C215 1.383 . S
C216 C217 1.377 . S
C217 H201 0.930 . S
C217 C216 1.377 . S
C217 C218 1.379 . S
C218 H202 0.931 . S
C218 C212 1.383 . S
C218 C217 1.379 . S
H219 C213 0.959 . S
H220 C213 0.961 . S
H221 C213 0.960 . S
H222 C214 0.930 1_565 S
H223 C215 0.929 . S
H224 C232 0.929 . S
H225 C234 0.930 . S
H226 C236 0.930 . S
H227 C239 0.929 . S
H228 C242 0.930 . S
H229 C244 0.960 . S
H230 C244 0.960 . S
H231 C244 0.960 . S
C232 H224 0.929 . S
C232 C233 1.377 . S
C232 C234 1.384 . S
C233 C232 1.377 . S
C233 C239 1.390 . S
C234 H225 0.930 . S
C234 C232 1.384 . S
C234 C235 1.372 . S
C235 C234 1.372 . S
C235 C236 1.400 . S
C235 C240 1.490 . S
C236 H226 0.930 . S
C236 C235 1.400 . S
C236 C239 1.386 . S
H237 C253 0.930 . S
H238 C254 0.931 . S
C239 H227 0.929 . S
C239 C233 1.390 . S
C239 C236 1.386 . S
C240 C235 1.490 . S
C240 C242 1.395 . S
C240 C243 1.403 . S
H241 C247 0.930 . S
C242 H228 0.930 . S
C242 C240 1.395 . S
C242 C245 1.403 . S
C243 C240 1.403 . S
C243 C244 1.524 . S
C243 C247 1.400 . S
C244 H229 0.960 . S
C244 H230 0.960 . S
C244 H231 0.960 . S
C244 C243 1.524 . S
C245 C242 1.403 . S
C245 C246 1.392 . S
C245 C249 1.495 . S
C246 C245 1.392 . S
C246 C247 1.385 . S
C246 C248 1.478 . S
C247 H241 0.930 . S
C247 C243 1.400 . S
C247 C246 1.385 . S
C248 C246 1.478 . S
C248 C250 1.381 . S
C248 C254 1.383 . S
C249 C245 1.495 . S
C249 H255 0.959 . S
C249 H256 0.961 . S
C249 H257 0.960 . S
C250 C248 1.381 . S
C250 C251 1.394 . S
C250 H258 0.930 . S
C251 C250 1.394 . S
C251 C252 1.383 . S
C251 H259 0.929 . S
C252 C251 1.383 . S
C252 C253 1.377 . S
C253 H237 0.930 . S
C253 C252 1.377 . S
C253 C254 1.379 . S
C254 H238 0.931 . S
C254 C248 1.383 . S
C254 C253 1.379 . S
H255 C249 0.959 . S
H256 C249 0.961 . S
H257 C249 0.960 . S
H258 C250 0.930 . S
H259 C251 0.929 . S
H260 C268 0.929 . S
H261 C270 0.930 . S
H262 C272 0.930 . S
H263 C275 0.929 . S
H264 C278 0.930 . S
H265 C280 0.960 . S
H266 C280 0.960 . S
H267 C280 0.960 . S
C268 H260 0.929 . S
C268 C269 1.377 . S
C268 C270 1.384 . S
C269 C268 1.377 . S
C269 C275 1.390 . S
C270 H261 0.930 . S
C270 C268 1.384 . S
C270 C271 1.372 . S
C271 C270 1.372 . S
C271 C272 1.400 . S
C271 C276 1.490 . S
C272 H262 0.930 . S
C272 C271 1.400 . S
C272 C275 1.386 . S
H273 C289 0.930 . S
H274 C290 0.931 . S
C275 H263 0.929 . S
C275 C269 1.390 . S
C275 C272 1.386 . S
C276 C271 1.490 . S
C276 C278 1.395 . S
C276 C279 1.403 . S
H277 C283 0.930 . S
C278 H264 0.930 . S
C278 C276 1.395 . S
C278 C281 1.403 . S
C279 C276 1.403 . S
C279 C280 1.524 . S
C279 C283 1.400 . S
C280 H265 0.960 . S
C280 H266 0.960 . S
C280 H267 0.960 . S
C280 C279 1.524 . S
C281 C278 1.403 . S
C281 C282 1.392 . S
C281 C285 1.495 . S
C282 C281 1.392 . S
C282 C283 1.385 . S
C282 C284 1.478 . S
C283 H277 0.930 . S
C283 C279 1.400 . S
C283 C282 1.385 . S
C284 C282 1.478 . S
C284 C286 1.381 . S
C284 C290 1.383 . S
C285 C281 1.495 . S
C285 H291 0.959 . S
C285 H292 0.961 . S
C285 H293 0.960 . S
C286 C284 1.381 . S
C286 C287 1.394 . S
C286 H294 0.930 . S
C287 C286 1.394 . S
C287 C288 1.383 . S
C287 H295 0.929 . S
C288 C287 1.383 . S
C288 C289 1.377 . S
C289 H273 0.930 . S
C289 C288 1.377 . S
C289 C290 1.379 . S
C290 H274 0.931 . S
C290 C284 1.383 . S
C290 C289 1.379 . S
H291 C285 0.959 . S
H292 C285 0.961 . S
H293 C285 0.960 . S
H294 C286 0.930 . S
H295 C287 0.929 . S
H296 C304 0.929 . S
H297 C306 0.930 . S
H298 C308 0.930 . S
H299 C311 0.929 . S
H300 C314 0.930 . S
H301 C316 0.960 . S
H302 C316 0.960 . S
H303 C316 0.960 . S
C304 H296 0.929 . S
C304 C305 1.377 . S
C304 C306 1.384 . S
C305 C304 1.377 . S
C305 C311 1.390 . S
C306 H297 0.930 . S
C306 C304 1.384 . S
C306 C307 1.372 . S
C307 C306 1.372 . S
C307 C308 1.400 . S
C307 C312 1.490 . S
C308 H298 0.930 . S
C308 C307 1.400 . S
C308 C311 1.386 . S
H309 C325 0.922 1_455 S
H310 C326 0.931 1_565 S
C311 H299 0.929 . S
C311 C305 1.390 . S
C311 C308 1.386 . S
C312 C307 1.490 . S
C312 C314 1.395 . S
C312 C315 1.403 . S
H313 C319 0.930 . S
C314 H300 0.930 . S
C314 C312 1.395 . S
C314 C317 1.403 . S
C315 C312 1.403 . S
C315 C316 1.524 . S
C315 C319 1.400 . S
C316 H301 0.960 . S
C316 H302 0.960 . S
C316 H303 0.960 . S
C316 C315 1.524 . S
C317 C314 1.403 . S
C317 C318 1.392 . S
C317 C321 1.495 . S
C318 C317 1.392 . S
C318 C319 1.385 . S
C318 C320 1.478 1_565 S
C319 H313 0.930 . S
C319 C315 1.400 . S
C319 C318 1.385 . S
C320 C318 1.478 1_545 S
C320 C322 1.381 . S
C320 C326 1.383 . S
C321 C317 1.495 . S
C321 H327 0.959 . S
C321 H328 0.961 . S
C321 H329 0.960 . S
C322 C320 1.381 . S
C322 C323 1.394 . S
C322 H330 0.930 . S
C323 C322 1.394 . S
C323 C324 1.383 . S
C323 H331 0.929 . S
C324 C323 1.383 . S
C324 C325 1.377 . S
C325 H309 0.922 1_655 S
C325 C324 1.377 . S
C325 C326 1.379 . S
C326 H310 0.931 1_545 S
C326 C320 1.383 . S
C326 C325 1.379 . S
H327 C321 0.959 . S
H328 C321 0.961 . S
H329 C321 0.960 . S
H330 C322 0.930 . S
H331 C323 0.929 . S
H332 C340 0.929 . S
H333 C342 0.930 . S
H334 C344 0.930 . S
H335 C347 0.929 . S
H336 C350 0.930 . S
H337 C352 0.960 . S
H338 C352 0.960 . S
H339 C352 0.960 . S
C340 H332 0.929 . S
C340 C341 1.377 . S
C340 C342 1.384 . S
C341 C340 1.377 . S
C341 C347 1.390 . S
C342 H333 0.930 . S
C342 C340 1.384 . S
C342 C343 1.372 . S
C343 C342 1.372 . S
C343 C344 1.400 . S
C343 C348 1.490 . S
C344 H334 0.930 . S
C344 C343 1.400 . S
C344 C347 1.386 . S
H345 C361 0.930 . S
H346 C362 0.931 . S
C347 H335 0.929 . S
C347 C341 1.390 . S
C347 C344 1.386 . S
C348 C343 1.490 . S
C348 C350 1.395 . S
C348 C351 1.403 . S
H349 C355 0.930 . S
C350 H336 0.930 . S
C350 C348 1.395 . S
C350 C353 1.403 . S
C351 C348 1.403 . S
C351 C352 1.524 . S
C351 C355 1.400 . S
C352 H337 0.960 . S
C352 H338 0.960 . S
C352 H339 0.960 . S
C352 C351 1.524 . S
C353 C350 1.403 . S
C353 C354 1.392 . S
C353 C357 1.495 . S
C354 C353 1.392 . S
C354 C355 1.385 . S
C354 C356 1.478 1_545 S
C355 H349 0.930 . S
C355 C351 1.400 . S
C355 C354 1.385 . S
C356 C354 1.478 1_565 S
C356 C358 1.381 . S
C356 C362 1.383 . S
C357 C353 1.495 . S
C357 H363 0.959 . S
C357 H364 0.961 . S
C357 H365 0.960 . S
C358 C356 1.381 . S
C358 C359 1.394 . S
C358 H366 0.930 1_565 S
C359 C358 1.394 . S
C359 C360 1.383 . S
C359 H367 0.929 . S
C360 C359 1.383 . S
C360 C361 1.377 . S
C361 H345 0.930 . S
C361 C360 1.377 . S
C361 C362 1.379 . S
C362 H346 0.931 . S
C362 C356 1.383 . S
C362 C361 1.379 . S
H363 C357 0.959 . S
H364 C357 0.961 . S
H365 C357 0.960 . S
H366 C358 0.930 1_545 S
H367 C359 0.929 . S
H368 C376 0.929 . S
H369 C378 0.930 . S
H370 C380 0.930 . S
H371 C383 0.929 . S
H372 C386 0.930 . S
H373 C388 0.960 . S
H374 C388 0.960 . S
H375 C388 0.960 . S
C376 H368 0.929 . S
C376 C377 1.377 . S
C376 C378 1.384 . S
C377 C376 1.377 . S
C377 C383 1.390 . S
C378 H369 0.930 . S
C378 C376 1.384 . S
C378 C379 1.372 . S
C379 C378 1.372 . S
C379 C380 1.400 . S
C379 C384 1.490 . S
C380 H370 0.930 . S
C380 C379 1.400 . S
C380 C383 1.386 . S
H381 C397 0.930 . S
H382 C398 0.931 . S
C383 H371 0.929 . S
C383 C377 1.390 . S
C383 C380 1.386 . S
C384 C379 1.490 . S
C384 C386 1.395 . S
C384 C387 1.403 . S
H385 C391 0.930 . S
C386 H372 0.930 . S
C386 C384 1.395 . S
C386 C389 1.403 . S
C387 C384 1.403 . S
C387 C388 1.524 . S
C387 C391 1.400 . S
C388 H373 0.960 . S
C388 H374 0.960 . S
C388 H375 0.960 . S
C388 C387 1.524 . S
C389 C386 1.403 . S
C389 C390 1.392 . S
C389 C393 1.495 . S
C390 C389 1.392 . S
C390 C391 1.385 . S
C390 C392 1.478 . S
C391 H385 0.930 . S
C391 C387 1.400 . S
C391 C390 1.385 . S
C392 C390 1.478 . S
C392 C394 1.381 . S
C392 C398 1.383 . S
C393 C389 1.495 . S
C393 H399 0.959 . S
C393 H400 0.961 . S
C393 H401 0.960 . S
C394 C392 1.381 . S
C394 C395 1.394 . S
C394 H402 0.930 . S
C395 C394 1.394 . S
C395 C396 1.383 . S
C395 H403 0.929 . S
C396 C395 1.383 . S
C396 C397 1.377 . S
C397 H381 0.930 . S
C397 C396 1.377 . S
C397 C398 1.379 . S
C398 H382 0.931 . S
C398 C392 1.383 . S
C398 C397 1.379 . S
H399 C393 0.959 . S
H400 C393 0.961 . S
H401 C393 0.960 . S
H402 C394 0.930 . S
H403 C395 0.929 . S
H404 C412 0.929 . S
H405 C414 0.930 . S
H406 C416 0.930 . S
H407 C419 0.929 . S
H408 C422 0.930 . S
H409 C424 0.960 . S
H410 C424 0.960 . S
H411 C424 0.960 . S
C412 H404 0.929 . S
C412 C413 1.377 . S
C412 C414 1.384 . S
C413 C412 1.377 . S
C413 C419 1.390 . S
C414 H405 0.930 . S
C414 C412 1.384 . S
C414 C415 1.372 . S
C415 C414 1.372 . S
C415 C416 1.400 . S
C415 C420 1.490 . S
C416 H406 0.930 . S
C416 C415 1.400 . S
C416 C419 1.386 . S
H417 C433 0.930 . S
H418 C434 0.931 . S
C419 H407 0.929 . S
C419 C413 1.390 . S
C419 C416 1.386 . S
C420 C415 1.490 . S
C420 C422 1.395 . S
C420 C423 1.403 . S
H421 C427 0.930 . S
C422 H408 0.930 . S
C422 C420 1.395 . S
C422 C425 1.403 . S
C423 C420 1.403 . S
C423 C424 1.524 . S
C423 C427 1.400 . S
C424 H409 0.960 . S
C424 H410 0.960 . S
C424 H411 0.960 . S
C424 C423 1.524 . S
C425 C422 1.403 . S
C425 C426 1.392 . S
C425 C429 1.495 . S
C426 C425 1.392 . S
C426 C427 1.385 . S
C426 C428 1.478 . S
C427 H421 0.930 . S
C427 C423 1.400 . S
C427 C426 1.385 . S
C428 C426 1.478 . S
C428 C430 1.381 . S
C428 C434 1.383 . S
C429 C425 1.495 . S
C429 H435 0.959 . S
C429 H436 0.961 . S
C429 H437 0.960 . S
C430 C428 1.381 . S
C430 C431 1.394 . S
C430 H438 0.930 . S
C431 C430 1.394 . S
C431 C432 1.383 . S
C431 H439 0.929 . S
C432 C431 1.383 . S
C432 C433 1.377 . S
C433 H417 0.930 . S
C433 C432 1.377 . S
C433 C434 1.379 . S
C434 H418 0.931 . S
C434 C428 1.383 . S
C434 C433 1.379 . S
H435 C429 0.959 . S
H436 C429 0.961 . S
H437 C429 0.960 . S
H438 C430 0.930 . S
H439 C431 0.929 . S
H440 C448 0.929 . S
H441 C450 0.930 . S
H442 C452 0.930 . S
H443 C455 0.929 . S
H444 C458 0.930 . S
H445 C460 0.960 . S
H446 C460 0.960 . S
H447 C460 0.960 . S
C448 H440 0.929 . S
C448 C449 1.377 . S
C448 C450 1.384 . S
C449 C448 1.377 . S
C449 C455 1.390 . S
C450 H441 0.930 . S
C450 C448 1.384 . S
C450 C451 1.372 . S
C451 C450 1.372 . S
C451 C452 1.400 . S
C451 C456 1.490 . S
C452 H442 0.930 . S
C452 C451 1.400 . S
C452 C455 1.386 . S
H453 C469 0.930 . S
H454 C470 0.931 . S
C455 H443 0.929 . S
C455 C449 1.390 . S
C455 C452 1.386 . S
C456 C451 1.490 . S
C456 C458 1.395 . S
C456 C459 1.403 . S
H457 C463 0.930 . S
C458 H444 0.930 . S
C458 C456 1.395 . S
C458 C461 1.403 . S
C459 C456 1.403 . S
C459 C460 1.524 . S
C459 C463 1.400 . S
C460 H445 0.960 . S
C460 H446 0.960 . S
C460 H447 0.960 . S
C460 C459 1.524 . S
C461 C458 1.403 . S
C461 C462 1.392 . S
C461 C465 1.495 . S
C462 C461 1.392 . S
C462 C463 1.385 . S
C462 C464 1.478 1_545 S
C463 H457 0.930 . S
C463 C459 1.400 . S
C463 C462 1.385 . S
C464 C462 1.478 1_565 S
C464 C466 1.381 . S
C464 C470 1.383 . S
C465 C461 1.495 . S
C465 H471 0.959 . S
C465 H472 0.961 1_545 S
C465 H473 0.960 . S
C466 C464 1.381 . S
C466 C467 1.394 . S
C466 H474 0.930 1_565 S
C467 C466 1.394 . S
C467 C468 1.383 . S
C467 H475 0.929 . S
C468 C467 1.383 . S
C468 C469 1.377 . S
C469 H453 0.930 . S
C469 C468 1.377 . S
C469 C470 1.379 . S
C470 H454 0.931 . S
C470 C464 1.383 . S
C470 C469 1.379 . S
H471 C465 0.959 . S
H472 C465 0.961 1_565 S
H473 C465 0.960 . S
H474 C466 0.930 1_545 S
H475 C467 0.929 . S
H476 C484 0.929 . S
H477 C486 0.930 . S
H478 C488 0.930 1_554 S
H479 C491 0.929 . S
H480 C494 0.930 . S
H481 C496 0.960 . S
H482 C496 0.960 . S
H483 C496 0.960 . S
C484 H476 0.929 . S
C484 C485 1.377 . S
C484 C486 1.384 . S
C485 C484 1.377 . S
C485 C491 1.390 . S
C486 H477 0.930 . S
C486 C484 1.384 . S
C486 C487 1.372 . S
C487 C486 1.372 . S
C487 C488 1.400 . S
C487 C492 1.490 1_556 S
C488 H478 0.930 1_556 S
C488 C487 1.400 . S
C488 C491 1.386 . S
H489 C505 0.930 . S
H490 C506 0.931 . S
C491 H479 0.929 . S
C491 C485 1.390 . S
C491 C488 1.386 . S
C492 C487 1.490 1_554 S
C492 C494 1.395 . S
C492 C495 1.403 . S
H493 C499 0.930 . S
C494 H480 0.930 . S
C494 C492 1.395 . S
C494 C497 1.403 . S
C495 C492 1.403 . S
C495 C496 1.524 . S
C495 C499 1.400 . S
C496 H481 0.960 . S
C496 H482 0.960 . S
C496 H483 0.960 . S
C496 C495 1.524 . S
C497 C494 1.403 . S
C497 C498 1.392 . S
C497 C501 1.495 . S
C498 C497 1.392 . S
C498 C499 1.385 . S
C498 C500 1.478 . S
C499 H493 0.930 . S
C499 C495 1.400 . S
C499 C498 1.385 . S
C500 C498 1.478 . S
C500 C502 1.381 . S
C500 C506 1.383 . S
C501 C497 1.495 . S
C501 H507 0.959 . S
C501 H508 0.961 . S
C501 H509 0.960 . S
C502 C500 1.381 . S
C502 C503 1.394 . S
C502 H510 0.930 . S
C503 C502 1.394 . S
C503 C504 1.383 . S
C503 H511 0.929 . S
C504 C503 1.383 . S
C504 C505 1.377 . S
C505 H489 0.930 . S
C505 C504 1.377 . S
C505 C506 1.379 . S
C506 H490 0.931 . S
C506 C500 1.383 . S
C506 C505 1.379 . S
H507 C501 0.959 . S
H508 C501 0.961 . S
H509 C501 0.960 . S
H510 C502 0.930 . S
H511 C503 0.929 . S
H512 C520 0.929 . S
H513 C522 0.930 . S
H514 C524 0.930 . S
H515 C527 0.929 . S
H516 C530 0.930 . S
H517 C532 0.960 . S
H518 C532 0.960 . S
H519 C532 0.960 . S
C520 H512 0.929 . S
C520 C521 1.377 . S
C520 C522 1.384 . S
C521 C520 1.377 . S
C521 C527 1.390 . S
C522 H513 0.930 . S
C522 C520 1.384 . S
C522 C523 1.372 . S
C523 C522 1.372 . S
C523 C524 1.400 . S
C523 C528 1.490 . S
C524 H514 0.930 . S
C524 C523 1.400 . S
C524 C527 1.386 . S
H525 C541 0.930 . S
H526 C542 0.931 . S
C527 H515 0.929 . S
C527 C521 1.390 . S
C527 C524 1.386 . S
C528 C523 1.490 . S
C528 C530 1.395 . S
C528 C531 1.403 . S
H529 C535 0.930 . S
C530 H516 0.930 . S
C530 C528 1.395 . S
C530 C533 1.403 . S
C531 C528 1.403 . S
C531 C532 1.524 . S
C531 C535 1.400 . S
C532 H517 0.960 . S
C532 H518 0.960 . S
C532 H519 0.960 . S
C532 C531 1.524 . S
C533 C530 1.403 . S
C533 C534 1.392 . S
C533 C537 1.495 . S
C534 C533 1.392 . S
C534 C535 1.385 . S
C534 C536 1.478 . S
C535 H529 0.930 . S
C535 C531 1.400 . S
C535 C534 1.385 . S
C536 C534 1.478 . S
C536 C538 1.381 . S
C536 C542 1.383 . S
C537 C533 1.495 . S
C537 H543 0.959 . S
C537 H544 0.961 . S
C537 H545 0.960 . S
C538 C536 1.381 . S
C538 C539 1.394 . S
C538 H546 0.930 . S
C539 C538 1.394 . S
C539 C540 1.383 . S
C539 H547 0.929 . S
C540 C539 1.383 . S
C540 C541 1.377 . S
C541 H525 0.930 . S
C541 C540 1.377 . S
C541 C542 1.379 . S
C542 H526 0.931 . S
C542 C536 1.383 . S
C542 C541 1.379 . S
H543 C537 0.959 . S
H544 C537 0.961 . S
H545 C537 0.960 . S
H546 C538 0.930 . S
H547 C539 0.929 . S
H548 C556 0.929 . S
H549 C558 0.930 . S
H550 C560 0.930 1_556 S
H551 C563 0.929 . S
H552 C566 0.930 . S
H553 C568 0.960 . S
H554 C568 0.960 . S
H555 C568 0.960 . S
C556 H548 0.929 . S
C556 C557 1.377 . S
C556 C558 1.384 . S
C557 C556 1.377 . S
C557 C563 1.390 . S
C558 H549 0.930 . S
C558 C556 1.384 . S
C558 C559 1.372 . S
C559 C558 1.372 . S
C559 C560 1.400 . S
C559 C564 1.490 1_554 S
C560 H550 0.930 1_554 S
C560 C559 1.400 . S
C560 C563 1.386 . S
H561 C577 0.930 . S
H562 C578 0.931 . S
C563 H551 0.929 . S
C563 C557 1.390 . S
C563 C560 1.386 . S
C564 C559 1.490 1_556 S
C564 C566 1.395 . S
C564 C567 1.403 . S
H565 C571 0.930 . S
C566 H552 0.930 . S
C566 C564 1.395 . S
C566 C569 1.403 . S
C567 C564 1.403 . S
C567 C568 1.524 . S
C567 C571 1.400 . S
C568 H553 0.960 . S
C568 H554 0.960 . S
C568 H555 0.960 . S
C568 C567 1.524 . S
C569 C566 1.403 . S
C569 C570 1.392 . S
C569 C573 1.495 . S
C570 C569 1.392 . S
C570 C571 1.385 . S
C570 C572 1.478 . S
C571 H565 0.930 . S
C571 C567 1.400 . S
C571 C570 1.385 . S
C572 C570 1.478 . S
C572 C574 1.381 . S
C572 C578 1.383 . S
C573 C569 1.495 . S
C573 H579 0.959 . S
C573 H580 0.961 . S
C573 H581 0.960 . S
C574 C572 1.381 . S
C574 C575 1.394 . S
C574 H582 0.930 . S
C575 C574 1.394 . S
C575 C576 1.383 . S
C575 H583 0.929 . S
C576 C575 1.383 . S
C576 C577 1.377 . S
C577 H561 0.930 . S
C577 C576 1.377 . S
C577 C578 1.379 . S
C578 H562 0.931 . S
C578 C572 1.383 . S
C578 C577 1.379 . S
H579 C573 0.959 . S
H580 C573 0.961 . S
H581 C573 0.960 . S
H582 C574 0.930 . S
H583 C575 0.929 . S
H584 C592 0.929 . S
H585 C594 0.930 . S
H586 C596 0.930 . S
H587 C599 0.929 . S
H588 C602 0.930 . S
H589 C604 0.960 . S
H590 C604 0.960 . S
H591 C604 0.960 . S
C592 H584 0.929 . S
C592 C593 1.377 . S
C592 C594 1.384 . S
C593 C592 1.377 . S
C593 C599 1.390 . S
C594 H585 0.930 . S
C594 C592 1.384 . S
C594 C595 1.372 . S
C595 C594 1.372 . S
C595 C596 1.400 . S
C595 C600 1.490 . S
C596 H586 0.930 . S
C596 C595 1.400 . S
C596 C599 1.386 . S
H597 C613 0.930 . S
H598 C614 0.931 . S
C599 H587 0.929 . S
C599 C593 1.390 . S
C599 C596 1.386 . S
C600 C595 1.490 . S
C600 C602 1.395 . S
C600 C603 1.403 . S
H601 C607 0.930 . S
C602 H588 0.930 . S
C602 C600 1.395 . S
C602 C605 1.403 . S
C603 C600 1.403 . S
C603 C604 1.524 . S
C603 C607 1.400 . S
C604 H589 0.960 . S
C604 H590 0.960 . S
C604 H591 0.960 . S
C604 C603 1.524 . S
C605 C602 1.403 . S
C605 C606 1.392 . S
C605 C609 1.495 . S
C606 C605 1.392 . S
C606 C607 1.385 . S
C606 C608 1.478 . S
C607 H601 0.930 . S
C607 C603 1.400 . S
C607 C606 1.385 . S
C608 C606 1.478 . S
C608 C610 1.381 . S
C608 C614 1.383 . S
C609 C605 1.495 . S
C609 H615 0.959 . S
C609 H616 0.961 . S
C609 H617 0.960 . S
C610 C608 1.381 . S
C610 C611 1.394 . S
C610 H618 0.930 . S
C611 C610 1.394 . S
C611 C612 1.383 . S
C611 H619 0.929 . S
C612 C611 1.383 . S
C612 C613 1.377 . S
C613 H597 0.930 . S
C613 C612 1.377 . S
C613 C614 1.379 . S
C614 H598 0.931 . S
C614 C608 1.383 . S
C614 C613 1.379 . S
H615 C609 0.959 . S
H616 C609 0.961 . S
H617 C609 0.960 . S
H618 C610 0.930 . S
H619 C611 0.929 . S
H620 C628 0.929 . S
H621 C630 0.930 . S
H622 C632 0.924 1_556 S
H623 C635 0.929 . S
H624 C638 0.930 . S
H625 C640 0.960 . S
H626 C640 0.960 . S
H627 C640 0.960 . S
C628 H620 0.929 . S
C628 C629 1.377 . S
C628 C630 1.384 1_554 S
C629 C628 1.377 . S
C629 C635 1.390 . S
C630 H621 0.930 . S
C630 C628 1.384 1_556 S
C630 C631 1.372 . S
C631 C630 1.372 . S
C631 C632 1.400 1_556 S
C631 C636 1.490 . S
C632 H622 0.924 1_554 S
C632 C631 1.400 1_554 S
C632 C635 1.386 . S
H633 C649 0.930 . S
H634 C650 0.931 . S
C635 H623 0.929 . S
C635 C629 1.390 . S
C635 C632 1.386 . S
C636 C631 1.490 . S
C636 C638 1.395 . S
C636 C639 1.403 . S
H637 C643 0.930 . S
C638 H624 0.930 . S
C638 C636 1.395 . S
C638 C641 1.403 . S
C639 C636 1.403 . S
C639 C640 1.524 . S
C639 C643 1.400 . S
C640 H625 0.960 . S
C640 H626 0.960 . S
C640 H627 0.960 . S
C640 C639 1.524 . S
C641 C638 1.403 . S
C641 C642 1.392 . S
C641 C645 1.495 . S
C642 C641 1.392 . S
C642 C643 1.385 . S
C642 C644 1.478 . S
C643 H637 0.930 . S
C643 C639 1.400 . S
C643 C642 1.385 . S
C644 C642 1.478 . S
C644 C646 1.381 . S
C644 C650 1.383 . S
C645 C641 1.495 . S
C645 H651 0.959 . S
C645 H652 0.961 . S
C645 H653 0.960 . S
C646 C644 1.381 . S
C646 C647 1.394 . S
C646 H654 0.930 . S
C647 C646 1.394 . S
C647 C648 1.383 . S
C647 H655 0.929 . S
C648 C647 1.383 . S
C648 C649 1.377 . S
C649 H633 0.930 . S
C649 C648 1.377 . S
C649 C650 1.379 . S
C650 H634 0.931 . S
C650 C644 1.383 . S
C650 C649 1.379 . S
H651 C645 0.959 . S
H652 C645 0.961 . S
H653 C645 0.960 . S
H654 C646 0.930 . S
H655 C647 0.929 . S
H656 C664 0.929 . S
H657 C666 0.930 . S
H658 C668 0.930 . S
H659 C671 0.929 . S
H660 C674 0.930 . S
H661 C676 0.960 . S
H662 C676 0.960 . S
H663 C676 0.960 . S
C664 H656 0.929 . S
C664 C665 1.377 . S
C664 C666 1.384 . S
C665 C664 1.377 . S
C665 C671 1.390 . S
C666 H657 0.930 . S
C666 C664 1.384 . S
C666 C667 1.372 . S
C667 C666 1.372 . S
C667 C668 1.400 . S
C667 C672 1.490 . S
C668 H658 0.930 . S
C668 C667 1.400 . S
C668 C671 1.386 . S
H669 C685 0.930 . S
H670 C686 0.931 . S
C671 H659 0.929 . S
C671 C665 1.390 . S
C671 C668 1.386 . S
C672 C667 1.490 . S
C672 C674 1.395 . S
C672 C675 1.403 . S
H673 C679 0.930 . S
C674 H660 0.930 . S
C674 C672 1.395 . S
C674 C677 1.403 . S
C675 C672 1.403 . S
C675 C676 1.524 . S
C675 C679 1.400 . S
C676 H661 0.960 . S
C676 H662 0.960 . S
C676 H663 0.960 . S
C676 C675 1.524 . S
C677 C674 1.403 . S
C677 C678 1.392 . S
C677 C681 1.495 . S
C678 C677 1.392 . S
C678 C679 1.385 . S
C678 C680 1.478 . S
C679 H673 0.930 . S
C679 C675 1.400 . S
C679 C678 1.385 . S
C680 C678 1.478 . S
C680 C682 1.381 . S
C680 C686 1.383 . S
C681 C677 1.495 . S
C681 H687 0.959 . S
C681 H688 0.961 . S
C681 H689 0.960 . S
C682 C680 1.381 . S
C682 C683 1.394 . S
C682 H690 0.930 . S
C683 C682 1.394 . S
C683 C684 1.383 . S
C683 H691 0.929 . S
C684 C683 1.383 . S
C684 C685 1.377 . S
C685 H669 0.930 . S
C685 C684 1.377 . S
C685 C686 1.379 . S
C686 H670 0.931 . S
C686 C680 1.383 . S
C686 C685 1.379 . S
H687 C681 0.959 . S
H688 C681 0.961 . S
H689 C681 0.960 . S
H690 C682 0.930 . S
H691 C683 0.929 . S
H692 C700 0.929 . S
H693 C702 0.930 1_554 S
H694 C704 0.930 1_554 S
H695 C707 0.929 . S
H696 C710 0.930 . S
H697 C712 0.960 . S
H698 C712 0.960 . S
H699 C712 0.960 . S
C700 H692 0.929 . S
C700 C701 1.377 . S
C700 C702 1.384 . S
C701 C700 1.377 . S
C701 C707 1.390 . S
C702 H693 0.930 1_556 S
C702 C700 1.384 . S
C702 C703 1.372 1_556 S
C703 C702 1.372 1_554 S
C703 C704 1.400 1_554 S
C703 C708 1.490 . S
C704 H694 0.930 1_556 S
C704 C703 1.400 1_556 S
C704 C707 1.386 . S
H705 C721 0.930 . S
H706 C722 0.931 . S
C707 H695 0.929 . S
C707 C701 1.390 . S
C707 C704 1.386 . S
C708 C703 1.490 . S
C708 C710 1.395 . S
C708 C711 1.403 . S
H709 C715 0.930 . S
C710 H696 0.930 . S
C710 C708 1.395 . S
C710 C713 1.403 . S
C711 C708 1.403 . S
C711 C712 1.524 . S
C711 C715 1.400 . S
C712 H697 0.960 . S
C712 H698 0.960 . S
C712 H699 0.960 . S
C712 C711 1.524 . S
C713 C710 1.403 . S
C713 C714 1.392 . S
C713 C717 1.495 . S
C714 C713 1.392 . S
C714 C715 1.385 . S
C714 C716 1.478 . S
C715 H709 0.930 . S
C715 C711 1.400 . S
C715 C714 1.385 . S
C716 C714 1.478 . S
C716 C718 1.381 . S
C716 C722 1.383 . S
C717 C713 1.495 . S
C717 H723 0.959 . S
C717 H724 0.961 . S
C717 H725 0.960 . S
C718 C716 1.381 . S
C718 C719 1.394 . S
C718 H726 0.930 . S
C719 C718 1.394 . S
C719 C720 1.383 . S
C719 H727 0.929 . S
C720 C719 1.383 . S
C720 C721 1.377 . S
C721 H705 0.930 . S
C721 C720 1.377 . S
C721 C722 1.379 . S
C722 H706 0.931 . S
C722 C716 1.383 . S
C722 C721 1.379 . S
H723 C717 0.959 . S
H724 C717 0.961 . S
H725 C717 0.960 . S
H726 C718 0.930 . S
H727 C719 0.929 . S
H728 C736 0.929 . S
H729 C738 0.930 . S
H730 C740 0.930 . S
H731 C743 0.929 . S
H732 C746 0.930 . S
H733 C748 0.960 . S
H734 C748 0.960 . S
H735 C748 0.960 . S
C736 H728 0.929 . S
C736 C737 1.377 . S
C736 C738 1.384 . S
C737 C736 1.377 . S
C737 C743 1.390 . S
C738 H729 0.930 . S
C738 C736 1.384 . S
C738 C739 1.372 . S
C739 C738 1.372 . S
C739 C740 1.400 . S
C739 C744 1.490 . S
C740 H730 0.930 . S
C740 C739 1.400 . S
C740 C743 1.386 . S
H741 C757 0.930 . S
H742 C758 0.931 . S
C743 H731 0.929 . S
C743 C737 1.390 . S
C743 C740 1.386 . S
C744 C739 1.490 . S
C744 C746 1.395 . S
C744 C747 1.403 . S
H745 C751 0.930 . S
C746 H732 0.930 . S
C746 C744 1.395 . S
C746 C749 1.403 . S
C747 C744 1.403 . S
C747 C748 1.524 . S
C747 C751 1.400 . S
C748 H733 0.960 . S
C748 H734 0.960 . S
C748 H735 0.960 . S
C748 C747 1.524 . S
C749 C746 1.403 . S
C749 C750 1.392 . S
C749 C753 1.495 . S
C750 C749 1.392 . S
C750 C751 1.385 . S
C750 C752 1.478 . S
C751 H745 0.930 . S
C751 C747 1.400 . S
C751 C750 1.385 . S
C752 C750 1.478 . S
C752 C754 1.381 . S
C752 C758 1.383 . S
C753 C749 1.495 . S
C753 H759 0.959 . S
C753 H760 0.961 . S
C753 H761 0.960 . S
C754 C752 1.381 . S
C754 C755 1.394 . S
C754 H762 0.930 . S
C755 C754 1.394 . S
C755 C756 1.383 . S
C755 H763 0.929 . S
C756 C755 1.383 . S
C756 C757 1.377 . S
C757 H741 0.930 . S
C757 C756 1.377 . S
C757 C758 1.379 . S
C758 H742 0.931 . S
C758 C752 1.383 . S
C758 C757 1.379 . S
H759 C753 0.959 . S
H760 C753 0.961 . S
H761 C753 0.960 . S
H762 C754 0.930 . S
H763 C755 0.929 . S
H764 C772 0.929 . S
H765 C774 0.930 . S
H766 C776 0.930 . S
H767 C779 0.929 . S
H768 C782 0.930 . S
H769 C784 0.960 . S
H770 C784 0.960 . S
H771 C784 0.960 . S
C772 H764 0.929 . S
C772 C773 1.377 . S
C772 C774 1.384 . S
C773 C772 1.377 . S
C773 C779 1.390 . S
C774 H765 0.930 . S
C774 C772 1.384 . S
C774 C775 1.372 . S
C775 C774 1.372 . S
C775 C776 1.400 . S
C775 C780 1.490 . S
C776 H766 0.930 . S
C776 C775 1.400 . S
C776 C779 1.386 . S
H777 C793 0.930 . S
H778 C794 0.931 . S
C779 H767 0.929 . S
C779 C773 1.390 . S
C779 C776 1.386 . S
C780 C775 1.490 . S
C780 C782 1.395 . S
C780 C783 1.403 . S
H781 C787 0.930 . S
C782 H768 0.930 . S
C782 C780 1.395 . S
C782 C785 1.403 . S
C783 C780 1.403 . S
C783 C784 1.524 . S
C783 C787 1.400 . S
C784 H769 0.960 . S
C784 H770 0.960 . S
C784 H771 0.960 . S
C784 C783 1.524 . S
C785 C782 1.403 . S
C785 C786 1.392 . S
C785 C789 1.495 . S
C786 C785 1.392 . S
C786 C787 1.385 . S
C786 C788 1.478 . S
C787 H781 0.930 . S
C787 C783 1.400 . S
C787 C786 1.385 . S
C788 C786 1.478 . S
C788 C790 1.381 . S
C788 C794 1.383 . S
C789 C785 1.495 . S
C789 H795 0.959 . S
C789 H796 0.961 . S
C789 H797 0.960 . S
C790 C788 1.381 . S
C790 C791 1.394 . S
C790 H798 0.930 . S
C791 C790 1.394 . S
C791 C792 1.383 . S
C791 H799 0.929 . S
C792 C791 1.383 . S
C792 C793 1.377 . S
C793 H777 0.930 . S
C793 C792 1.377 . S
C793 C794 1.379 . S
C794 H778 0.931 . S
C794 C788 1.383 . S
C794 C793 1.379 . S
H795 C789 0.959 . S
H796 C789 0.961 . S
H797 C789 0.960 . S
H798 C790 0.930 . S
H799 C791 0.929 . S
H800 C808 0.929 . S
H801 C810 0.930 . S
H802 C812 0.930 . S
H803 C815 0.929 . S
H804 C818 0.930 . S
H805 C820 0.960 . S
H806 C820 0.960 . S
H807 C820 0.960 . S
C808 H800 0.929 . S
C808 C809 1.377 . S
C808 C810 1.384 . S
C809 C808 1.377 . S
C809 C815 1.390 . S
C810 H801 0.930 . S
C810 C808 1.384 . S
C810 C811 1.372 . S
C811 C810 1.372 . S
C811 C812 1.400 . S
C811 C816 1.490 . S
C812 H802 0.930 . S
C812 C811 1.400 . S
C812 C815 1.386 . S
H813 C829 0.930 . S
H814 C830 0.931 . S
C815 H803 0.929 . S
C815 C809 1.390 . S
C815 C812 1.386 . S
C816 C811 1.490 . S
C816 C818 1.395 . S
C816 C819 1.403 . S
H817 C823 0.930 . S
C818 H804 0.930 . S
C818 C816 1.395 . S
C818 C821 1.403 . S
C819 C816 1.403 . S
C819 C820 1.524 . S
C819 C823 1.400 . S
C820 H805 0.960 . S
C820 H806 0.960 . S
C820 H807 0.960 . S
C820 C819 1.524 . S
C821 C818 1.403 . S
C821 C822 1.392 . S
C821 C825 1.495 . S
C822 C821 1.392 . S
C822 C823 1.385 . S
C822 C824 1.478 . S
C823 H817 0.930 . S
C823 C819 1.400 . S
C823 C822 1.385 . S
C824 C822 1.478 . S
C824 C826 1.381 . S
C824 C830 1.383 . S
C825 C821 1.495 . S
C825 H831 0.959 . S
C825 H832 0.961 . S
C825 H833 0.960 . S
C826 C824 1.381 . S
C826 C827 1.394 . S
C826 H834 0.930 . S
C827 C826 1.394 . S
C827 C828 1.383 . S
C827 H835 0.929 . S
C828 C827 1.383 . S
C828 C829 1.377 . S
C829 H813 0.930 . S
C829 C828 1.377 . S
C829 C830 1.379 . S
C830 H814 0.931 . S
C830 C824 1.383 . S
C830 C829 1.379 . S
H831 C825 0.959 . S
H832 C825 0.961 . S
H833 C825 0.960 . S
H834 C826 0.930 . S
H835 C827 0.929 . S
H836 C844 0.929 . S
H837 C846 0.930 . S
H838 C848 0.930 . S
H839 C851 0.929 . S
H840 C854 0.930 . S
H841 C856 0.960 . S
H842 C856 0.960 . S
H843 C856 0.960 . S
C844 H836 0.929 . S
C844 C845 1.377 . S
C844 C846 1.384 . S
C845 C844 1.377 . S
C845 C851 1.390 . S
C846 H837 0.930 . S
C846 C844 1.384 . S
C846 C847 1.372 . S
C847 C846 1.372 . S
C847 C848 1.400 . S
C847 C852 1.490 . S
C848 H838 0.930 . S
C848 C847 1.400 . S
C848 C851 1.386 . S
H849 C865 0.930 . S
H850 C866 0.931 . S
C851 H839 0.929 . S
C851 C845 1.390 . S
C851 C848 1.386 . S
C852 C847 1.490 . S
C852 C854 1.395 . S
C852 C855 1.403 . S
H853 C859 0.930 . S
C854 H840 0.930 . S
C854 C852 1.395 . S
C854 C857 1.403 . S
C855 C852 1.403 . S
C855 C856 1.524 . S
C855 C859 1.400 . S
C856 H841 0.960 . S
C856 H842 0.960 . S
C856 H843 0.960 . S
C856 C855 1.524 . S
C857 C854 1.403 . S
C857 C858 1.392 . S
C857 C861 1.495 . S
C858 C857 1.392 . S
C858 C859 1.385 . S
C858 C860 1.478 . S
C859 H853 0.930 . S
C859 C855 1.400 . S
C859 C858 1.385 . S
C860 C858 1.478 . S
C860 C862 1.381 . S
C860 C866 1.383 . S
C861 C857 1.495 . S
C861 H867 0.959 . S
C861 H868 0.961 . S
C861 H869 0.960 . S
C862 C860 1.381 . S
C862 C863 1.394 . S
C862 H870 0.930 . S
C863 C862 1.394 . S
C863 C864 1.383 . S
C863 H871 0.929 . S
C864 C863 1.383 . S
C864 C865 1.377 . S
C865 H849 0.930 . S
C865 C864 1.377 . S
C865 C866 1.379 . S
C866 H850 0.931 . S
C866 C860 1.383 . S
C866 C865 1.379 . S
H867 C861 0.959 . S
H868 C861 0.961 . S
H869 C861 0.960 . S
H870 C862 0.930 . S
H871 C863 0.929 . S
H872 C880 0.929 . S
H873 C882 0.930 . S
H874 C884 0.930 . S
H875 C887 0.929 . S
H876 C890 0.930 . S
H877 C892 0.960 . S
H878 C892 0.960 . S
H879 C892 0.960 . S
C880 H872 0.929 . S
C880 C881 1.377 . S
C880 C882 1.384 . S
C881 C880 1.377 . S
C881 C887 1.390 . S
C882 H873 0.930 . S
C882 C880 1.384 . S
C882 C883 1.372 . S
C883 C882 1.372 . S
C883 C884 1.400 . S
C883 C888 1.490 . S
C884 H874 0.930 . S
C884 C883 1.400 . S
C884 C887 1.386 . S
H885 C901 0.930 . S
H886 C902 0.931 . S
C887 H875 0.929 . S
C887 C881 1.390 . S
C887 C884 1.386 . S
C888 C883 1.490 . S
C888 C890 1.395 . S
C888 C891 1.403 . S
H889 C895 0.930 . S
C890 H876 0.930 . S
C890 C888 1.395 . S
C890 C893 1.403 . S
C891 C888 1.403 . S
C891 C892 1.524 . S
C891 C895 1.400 . S
C892 H877 0.960 . S
C892 H878 0.960 . S
C892 H879 0.960 . S
C892 C891 1.524 . S
C893 C890 1.403 . S
C893 C894 1.392 . S
C893 C897 1.495 . S
C894 C893 1.392 . S
C894 C895 1.385 . S
C894 C896 1.478 . S
C895 H889 0.930 . S
C895 C891 1.400 . S
C895 C894 1.385 . S
C896 C894 1.478 . S
C896 C898 1.381 . S
C896 C902 1.383 . S
C897 C893 1.495 . S
C897 H903 0.959 . S
C897 H904 0.961 . S
C897 H905 0.960 . S
C898 C896 1.381 . S
C898 C899 1.394 . S
C898 H906 0.930 . S
C899 C898 1.394 . S
C899 C900 1.383 . S
C899 H907 0.929 . S
C900 C899 1.383 . S
C900 C901 1.377 . S
C901 H885 0.930 . S
C901 C900 1.377 . S
C901 C902 1.379 . S
C902 H886 0.931 . S
C902 C896 1.383 . S
C902 C901 1.379 . S
H903 C897 0.959 . S
H904 C897 0.961 . S
H905 C897 0.960 . S
H906 C898 0.930 . S
H907 C899 0.929 . S
H908 C916 0.929 . S
H909 C918 0.930 . S
H910 C920 0.930 . S
H911 C923 0.929 . S
H912 C926 0.930 . S
H913 C928 0.960 . S
H914 C928 0.960 . S
H915 C928 0.960 . S
C916 H908 0.929 . S
C916 C917 1.377 . S
C916 C918 1.384 . S
C917 C916 1.377 . S
C917 C923 1.390 . S
C918 H909 0.930 . S
C918 C916 1.384 . S
C918 C919 1.372 . S
C919 C918 1.372 . S
C919 C920 1.400 . S
C919 C924 1.490 . S
C920 H910 0.930 . S
C920 C919 1.400 . S
C920 C923 1.386 . S
H921 C937 0.930 . S
H922 C938 0.931 . S
C923 H911 0.929 . S
C923 C917 1.390 . S
C923 C920 1.386 . S
C924 C919 1.490 . S
C924 C926 1.395 . S
C924 C927 1.403 . S
H925 C931 0.930 . S
C926 H912 0.930 . S
C926 C924 1.395 . S
C926 C929 1.403 . S
C927 C924 1.403 . S
C927 C928 1.524 . S
C927 C931 1.400 . S
C928 H913 0.960 . S
C928 H914 0.960 . S
C928 H915 0.960 . S
C928 C927 1.524 . S
C929 C926 1.403 . S
C929 C930 1.392 . S
C929 C933 1.495 . S
C930 C929 1.392 . S
C930 C931 1.385 . S
C930 C932 1.478 . S
C931 H925 0.930 . S
C931 C927 1.400 . S
C931 C930 1.385 . S
C932 C930 1.478 . S
C932 C934 1.381 . S
C932 C938 1.383 . S
C933 C929 1.495 . S
C933 H939 0.959 . S
C933 H940 0.961 . S
C933 H941 0.960 . S
C934 C932 1.381 . S
C934 C935 1.394 . S
C934 H942 0.930 . S
C935 C934 1.394 . S
C935 C936 1.383 . S
C935 H943 0.929 . S
C936 C935 1.383 . S
C936 C937 1.377 . S
C937 H921 0.930 . S
C937 C936 1.377 . S
C937 C938 1.379 . S
C938 H922 0.931 . S
C938 C932 1.383 . S
C938 C937 1.379 . S
H939 C933 0.959 . S
H940 C933 0.961 . S
H941 C933 0.960 . S
H942 C934 0.930 . S
H943 C935 0.929 . S
H944 C952 0.929 . S
H945 C954 0.930 . S
H946 C956 0.930 . S
H947 C959 0.929 . S
H948 C962 0.930 . S
H949 C964 0.960 . S
H950 C964 0.960 . S
H951 C964 0.960 . S
C952 H944 0.929 . S
C952 C953 1.377 . S
C952 C954 1.384 . S
C953 C952 1.377 . S
C953 C959 1.390 . S
C954 H945 0.930 . S
C954 C952 1.384 . S
C954 C955 1.372 . S
C955 C954 1.372 . S
C955 C956 1.400 . S
C955 C960 1.490 . S
C956 H946 0.930 . S
C956 C955 1.400 . S
C956 C959 1.386 . S
H957 C973 0.930 . S
H958 C974 0.931 . S
C959 H947 0.929 . S
C959 C953 1.390 . S
C959 C956 1.386 . S
C960 C955 1.490 . S
C960 C962 1.395 . S
C960 C963 1.403 . S
H961 C967 0.930 . S
C962 H948 0.930 . S
C962 C960 1.395 . S
C962 C965 1.403 . S
C963 C960 1.403 . S
C963 C964 1.524 . S
C963 C967 1.400 . S
C964 H949 0.960 . S
C964 H950 0.960 . S
C964 H951 0.960 . S
C964 C963 1.524 . S
C965 C962 1.403 . S
C965 C966 1.392 . S
C965 C969 1.495 . S
C966 C965 1.392 . S
C966 C967 1.385 . S
C966 C968 1.478 . S
C967 H961 0.930 . S
C967 C963 1.400 . S
C967 C966 1.385 . S
C968 C966 1.478 . S
C968 C970 1.381 . S
C968 C974 1.383 . S
C969 C965 1.495 . S
C969 H975 0.959 . S
C969 H976 0.961 . S
C969 H977 0.960 . S
C970 C968 1.381 . S
C970 C971 1.394 . S
C970 H978 0.930 . S
C971 C970 1.394 . S
C971 C972 1.383 . S
C971 H979 0.929 . S
C972 C971 1.383 . S
C972 C973 1.377 . S
C973 H957 0.930 . S
C973 C972 1.377 . S
C973 C974 1.379 . S
C974 H958 0.931 . S
C974 C968 1.383 . S
C974 C973 1.379 . S
H975 C969 0.959 . S
H976 C969 0.961 . S
H977 C969 0.960 . S
H978 C970 0.930 . S
H979 C971 0.929 . S
H980 C988 0.929 . S
H981 C990 0.930 . S
H982 C992 0.930 . S
H983 C995 0.929 . S
H984 C998 0.930 . S
H985 C1000 0.960 . S
H986 C1000 0.960 . S
H987 C1000 0.960 . S
C988 H980 0.929 . S
C988 C989 1.377 . S
C988 C990 1.384 . S
C989 C988 1.377 . S
C989 C995 1.390 . S
C990 H981 0.930 . S
C990 C988 1.384 . S
C990 C991 1.372 . S
C991 C990 1.372 . S
C991 C992 1.400 . S
C991 C996 1.490 . S
C992 H982 0.930 . S
C992 C991 1.400 . S
C992 C995 1.386 . S
H993 C1009 0.930 . S
H994 C1010 0.931 . S
C995 H983 0.929 . S
C995 C989 1.390 . S
C995 C992 1.386 . S
C996 C991 1.490 . S
C996 C998 1.395 . S
C996 C999 1.403 . S
H997 C1003 0.930 . S
C998 H984 0.930 . S
C998 C996 1.395 . S
C998 C1001 1.403 . S
C999 C996 1.403 . S
C999 C1000 1.524 . S
C999 C1003 1.400 . S
C1000 H985 0.960 . S
C1000 H986 0.960 . S
C1000 H987 0.960 . S
C1000 C999 1.524 . S
C1001 C998 1.403 . S
C1001 C1002 1.392 . S
C1001 C1005 1.495 . S
C1002 C1001 1.392 . S
C1002 C1003 1.385 . S
C1002 C1004 1.478 . S
C1003 H997 0.930 . S
C1003 C999 1.400 . S
C1003 C1002 1.385 . S
C1004 C1002 1.478 . S
C1004 C1006 1.381 . S
C1004 C1010 1.383 . S
C1005 C1001 1.495 . S
C1005 H1011 0.959 . S
C1005 H1012 0.961 . S
C1005 H1013 0.960 . S
C1006 C1004 1.381 . S
C1006 C1007 1.394 . S
C1006 H1014 0.930 . S
C1007 C1006 1.394 . S
C1007 C1008 1.383 . S
C1007 H1015 0.929 . S
C1008 C1007 1.383 . S
C1008 C1009 1.377 . S
C1009 H993 0.930 . S
C1009 C1008 1.377 . S
C1009 C1010 1.379 . S
C1010 H994 0.931 . S
C1010 C1004 1.383 . S
C1010 C1009 1.379 . S
H1011 C1005 0.959 . S
H1012 C1005 0.961 . S
H1013 C1005 0.960 . S
H1014 C1006 0.930 . S
H1015 C1007 0.929 . S
H1016 C1024 0.929 . S
H1017 C1026 0.930 . S
H1018 C1028 0.930 . S
H1019 C1031 0.929 . S
H1020 C1034 0.930 . S
H1021 C1036 0.960 . S
H1022 C1036 0.960 . S
H1023 C1036 0.960 . S
C1024 H1016 0.929 . S
C1024 C1025 1.377 . S
C1024 C1026 1.384 . S
C1025 C1024 1.377 . S
C1025 C1031 1.390 . S
C1026 H1017 0.930 . S
C1026 C1024 1.384 . S
C1026 C1027 1.372 . S
C1027 C1026 1.372 . S
C1027 C1028 1.400 . S
C1027 C1032 1.490 . S
C1028 H1018 0.930 . S
C1028 C1027 1.400 . S
C1028 C1031 1.386 . S
H1029 C1045 0.930 . S
H1030 C1046 0.931 . S
C1031 H1019 0.929 . S
C1031 C1025 1.390 . S
C1031 C1028 1.386 . S
C1032 C1027 1.490 . S
C1032 C1034 1.395 . S
C1032 C1035 1.403 . S
H1033 C1039 0.930 . S
C1034 H1020 0.930 . S
C1034 C1032 1.395 . S
C1034 C1037 1.403 . S
C1035 C1032 1.403 . S
C1035 C1036 1.524 . S
C1035 C1039 1.400 . S
C1036 H1021 0.960 . S
C1036 H1022 0.960 . S
C1036 H1023 0.960 . S
C1036 C1035 1.524 . S
C1037 C1034 1.403 . S
C1037 C1038 1.392 . S
C1037 C1041 1.495 . S
C1038 C1037 1.392 . S
C1038 C1039 1.385 . S
C1038 C1040 1.478 . S
C1039 H1033 0.930 . S
C1039 C1035 1.400 . S
C1039 C1038 1.385 . S
C1040 C1038 1.478 . S
C1040 C1042 1.381 . S
C1040 C1046 1.383 . S
C1041 C1037 1.495 . S
C1041 H1047 0.959 . S
C1041 H1048 0.961 . S
C1041 H1049 0.960 . S
C1042 C1040 1.381 . S
C1042 C1043 1.394 . S
C1042 H1050 0.930 . S
C1043 C1042 1.394 . S
C1043 C1044 1.383 . S
C1043 H1051 0.929 . S
C1044 C1043 1.383 . S
C1044 C1045 1.377 . S
C1045 H1029 0.930 . S
C1045 C1044 1.377 . S
C1045 C1046 1.379 . S
C1046 H1030 0.931 . S
C1046 C1040 1.383 . S
C1046 C1045 1.379 . S
H1047 C1041 0.959 . S
H1048 C1041 0.961 . S
H1049 C1041 0.960 . S
H1050 C1042 0.930 . S
H1051 C1043 0.929 . S
C197 C86 1.335 . S
C216 C120 1.232 . S
C252 C128 1.395 . S
C233 C100 1.457 . S
C288 C132 1.218 . S
C269 C60 1.334 . S
C305 C74 1.457 . S
C324 C108 1.418 . S
C360 C149 1.416 . S
C341 C35 1.461 . S
C396 C183 1.286 . S
C377 C47 1.329 . S
C413 C9 1.460 . S
C432 C171 1.389 . S
C449 C21 1.331 . S
C468 C153 1.244 . S
C504 C107 1.342 . S
C485 C22 1.461 . S
C540 C141 1.337 . S
C521 C8 1.445 . S
C576 C145 1.327 . S
C557 C48 1.464 . S
C612 C123 1.356 . S
C593 C34 1.445 . S
C648 C162 1.357 . S
C629 C73 1.446 . S
C665 C61 1.461 . S
C684 C170 1.385 . S
C720 C186 1.352 . S
C701 C99 1.446 . S
C737 C87 1.465 . S
C756 C166 1.310 . S
C792 C111 1.430 . S
C773 C4 1.571 . S
C828 C129 1.328 . S
C809 C17 1.420 . S
C845 C30 1.558 . S
C864 C144 1.410 . S
C900 C124 1.315 . S
C881 C43 1.418 . S
C936 C150 1.312 . S
C917 C56 1.444 . S
C953 C69 1.549 . S
C972 C174 1.419 . S
C989 C82 1.434 . S
C1008 C187 1.308 . S
C1025 C95 1.546 . S
C1044 C165 1.424 . S
