# Generated by pormake.
# Topology nom, (4,4)-cn, num edge types: 1
# Building blocks:
#     Node 0, Type 0, BuildingBlock: KUFVIS_clean_linker_0, # of connection points: 4
#     Node 1, Type 0, BuildingBlock: KUFVIS_clean_linker_0, # of connection points: 4
#     Node 2, Type 0, BuildingBlock: KUFVIS_clean_linker_0, # of connection points: 4
#     Node 3, Type 0, BuildingBlock: KUFVIS_clean_linker_0, # of connection points: 4
#     Node 4, Type 0, BuildingBlock: KUFVIS_clean_linker_0, # of connection points: 4
#     Node 5, Type 0, BuildingBlock: KUFVIS_clean_linker_0, # of connection points: 4
#     Node 6, Type 1, BuildingBlock: QUQFOY_clean_sbu_1, # of connection points: 4
#     Node 7, Type 1, BuildingBlock: QUQFOY_clean_sbu_1, # of connection points: 4
#     Node 8, Type 1, BuildingBlock: QUQFOY_clean_sbu_1, # of connection points: 4
#     Node 9, Type 1, BuildingBlock: QUQFOY_clean_sbu_1, # of connection points: 4
#     Node 10, Type 1, BuildingBlock: QUQFOY_clean_sbu_1, # of connection points: 4
#     Node 11, Type 1, BuildingBlock: QUQFOY_clean_sbu_1, # of connection points: 4
#     Edge 12, Type (0, 1), BuildingBlock: CIFDUS_clean_linker_0, # of connection points: 2
#     Edge 13, Type (0, 1), BuildingBlock: CIFDUS_clean_linker_0, # of connection points: 2
#     Edge 14, Type (0, 1), BuildingBlock: CIFDUS_clean_linker_0, # of connection points: 2
#     Edge 15, Type (0, 1), BuildingBlock: CIFDUS_clean_linker_0, # of connection points: 2
#     Edge 16, Type (0, 1), BuildingBlock: CIFDUS_clean_linker_0, # of connection points: 2
#     Edge 17, Type (0, 1), BuildingBlock: CIFDUS_clean_linker_0, # of connection points: 2
#     Edge 18, Type (0, 1), BuildingBlock: CIFDUS_clean_linker_0, # of connection points: 2
#     Edge 19, Type (0, 1), BuildingBlock: CIFDUS_clean_linker_0, # of connection points: 2
#     Edge 20, Type (0, 1), BuildingBlock: CIFDUS_clean_linker_0, # of connection points: 2
#     Edge 21, Type (0, 1), BuildingBlock: CIFDUS_clean_linker_0, # of connection points: 2
#     Edge 22, Type (0, 1), BuildingBlock: CIFDUS_clean_linker_0, # of connection points: 2
#     Edge 23, Type (0, 1), BuildingBlock: CIFDUS_clean_linker_0, # of connection points: 2
#     Edge 24, Type (0, 1), BuildingBlock: CIFDUS_clean_linker_0, # of connection points: 2
#     Edge 25, Type (0, 1), BuildingBlock: CIFDUS_clean_linker_0, # of connection points: 2
#     Edge 26, Type (0, 1), BuildingBlock: CIFDUS_clean_linker_0, # of connection points: 2
#     Edge 27, Type (0, 1), BuildingBlock: CIFDUS_clean_linker_0, # of connection points: 2
#     Edge 28, Type (0, 1), BuildingBlock: CIFDUS_clean_linker_0, # of connection points: 2
#     Edge 29, Type (0, 1), BuildingBlock: CIFDUS_clean_linker_0, # of connection points: 2
#     Edge 30, Type (0, 1), BuildingBlock: CIFDUS_clean_linker_0, # of connection points: 2
#     Edge 31, Type (0, 1), BuildingBlock: CIFDUS_clean_linker_0, # of connection points: 2
#     Edge 32, Type (0, 1), BuildingBlock: CIFDUS_clean_linker_0, # of connection points: 2
#     Edge 33, Type (0, 1), BuildingBlock: CIFDUS_clean_linker_0, # of connection points: 2
#     Edge 34, Type (0, 1), BuildingBlock: CIFDUS_clean_linker_0, # of connection points: 2
#     Edge 35, Type (0, 1), BuildingBlock: CIFDUS_clean_linker_0, # of connection points: 2
# Relax obj value: 0.004
# Max RMSD: 0.087
# Mean RMSD: 0.068
data_MOF--net-nom--node1-QUQFOY_clean_sbu_1--node2-KUFVIS_clean_linker_0--edge1-CIFDUS_clean_linker_0
_symmetry_space_group_name_H-M    P1
_symmetry_Int_Tables_number       1
_symmetry_cell_setting            triclinic
loop_
_symmetry_equiv_pos_as_xyz
'x, y, z'
_cell_length_a     40.338466
_cell_length_b     40.529817
_cell_length_c     42.228897
_cell_angle_alpha  89.859235
_cell_angle_beta   89.749547
_cell_angle_gamma 119.10565
loop_
_atom_site_label
_atom_site_type_symbol
_atom_site_fract_x
_atom_site_fract_y
_atom_site_fract_z
_atom_type_partial_charge
H0 H 0.18863 0.61182 0.29837 0.0
H1 H 0.09641 0.58383 0.23499 0.0
H2 H 0.07512 0.54173 0.33171 0.0
H3 H 1.01994 0.54189 0.324 0.0
H4 H 0.9297 0.48304 0.25827 0.0
H5 H 1.04446 0.52916 0.22607 0.0
C6 C 0.15839 0.59668 0.29363 0.0
C7 C 0.13316 0.57743 0.3183 0.0
C8 C 0.14535 0.59834 0.26346 0.0
C9 C 0.10612 0.5806 0.25805 0.0
C10 C 0.0799 0.55909 0.28228 0.0
C11 C 0.09409 0.55761 0.31249 0.0
C12 C 1.03809 0.5382 0.27598 0.0
C13 C 1.01106 0.53114 0.30032 0.0
C14 C 0.97204 0.51031 0.29397 0.0
C15 C 0.95987 0.49774 0.26328 0.0
C16 C 0.98594 0.50545 0.23874 0.0
C17 C 1.02483 0.52492 0.24521 0.0
H18 H 0.61813 0.16542 0.46219 0.0
H19 H 0.5517 0.07584 0.39828 0.0
H20 H 0.56949 0.05126 0.49476 0.0
H21 H 0.51487 0.99932 0.48783 0.0
H22 H 0.47734 0.9079 0.4225 0.0
H23 H 0.54872 1.02059 0.38889 0.0
C24 C 0.60234 0.13541 0.45724 0.0
C25 C 0.59491 0.10953 0.48177 0.0
C26 C 0.58747 0.1234 0.42702 0.0
C27 C 0.56447 0.08459 0.42137 0.0
C28 C 0.55791 0.05759 0.44547 0.0
C29 C 0.5735 0.07078 0.47571 0.0
C30 C 0.53505 1.01599 0.43921 0.0
C31 C 0.51517 0.98989 0.46395 0.0
C32 C 0.49529 0.95099 0.45791 0.0
C33 C 0.49325 0.93801 0.42707 0.0
C34 C 0.51157 0.96311 0.40214 0.0
C35 C 0.53337 1.00183 0.40833 0.0
H36 H 0.59923 0.44034 0.58585 0.0
H37 H 0.53702 0.46957 0.65181 0.0
H38 H 0.5595 0.51583 0.55635 0.0
H39 H 0.5065 0.51866 0.56416 0.0
H40 H 0.47992 0.58174 0.63075 0.0
H41 H 0.53855 0.52394 0.66279 0.0
C42 C 0.58434 0.4559 0.59129 0.0
C43 C 0.57949 0.47714 0.56759 0.0
C44 C 0.56999 0.45392 0.62176 0.0
C45 C 0.54944 0.47285 0.62847 0.0
C46 C 0.54542 0.49595 0.60512 0.0
C47 C 0.5613 0.49814 0.57473 0.0
C48 C 0.52574 0.51841 0.6124 0.0
C49 C 0.50824 0.52874 0.58813 0.0
C50 C 0.49288 0.55251 0.59467 0.0
C51 C 0.49309 0.56449 0.62563 0.0
C52 C 0.50852 0.55334 0.65023 0.0
C53 C 0.52524 0.5308 0.64359 0.0
H54 H 0.19515 0.59988 0.75646 0.0
H55 H 0.10297 0.53749 0.82071 0.0
H56 H 0.08186 0.56307 0.72547 0.0
H57 H 1.02795 0.50857 0.73207 0.0
H58 H 0.9359 0.47378 0.79784 0.0
H59 H 1.04962 0.54004 0.83105 0.0
C60 C 0.16497 0.58616 0.76174 0.0
C61 C 0.13974 0.58227 0.73775 0.0
C62 C 0.15196 0.57085 0.7918 0.0
C63 C 0.11273 0.55097 0.79784 0.0
C64 C 0.08656 0.54825 0.77424 0.0
C65 C 0.10079 0.56466 0.74421 0.0
C66 C 1.04468 0.52775 0.7806 0.0
C67 C 1.01839 0.50922 0.75592 0.0
C68 C 0.97923 0.49089 0.76206 0.0
C69 C 0.96619 0.48908 0.79298 0.0
C70 C 0.99152 0.50574 0.81785 0.0
C71 C 1.03055 0.52614 0.81158 0.0
H72 H 0.50813 0.91173 -0.0367 0.0
H73 H 0.57393 1.00001 0.89696 0.0
H74 H 0.55271 1.02677 -0.00843 0.0
H75 H 0.61016 0.07719 -0.01641 0.0
H76 H 0.6451 0.16804 0.91707 0.0
H77 H 0.5734 0.05477 0.88586 0.0
C78 C 0.52311 0.94157 -0.04266 0.0
C79 C 0.529 0.96809 -0.01923 0.0
C80 C 0.53871 0.95287 0.92702 0.0
C81 C 0.56066 0.99157 0.92008 0.0
C82 C 0.56577 1.01901 0.94308 0.0
C83 C 0.54955 1.00664 -0.02658 0.0
C84 C 0.58817 0.06033 0.93581 0.0
C85 C 0.60891 0.08661 -0.04017 0.0
C86 C 0.6283 0.12548 -0.0467 0.0
C87 C 0.62899 0.13805 0.9224 0.0
C88 C 0.61028 0.11263 0.89802 0.0
C89 C 0.5889 0.07396 0.90483 0.0
H90 H 0.53207 0.64141 0.08535 0.0
H91 H 0.59197 0.6121 0.15331 0.0
H92 H 0.58402 0.57634 0.05557 0.0
H93 H 0.63875 0.57743 0.06721 0.0
H94 H 0.65907 0.50844 0.13247 0.0
H95 H 0.59014 0.5565 0.16177 0.0
C96 C 0.54831 0.62729 0.09098 0.0
C97 C 0.5576 0.60951 0.06703 0.0
C98 C 0.56033 0.6279 0.12198 0.0
C99 C 0.58215 0.61052 0.12927 0.0
C100 C 0.59096 0.59126 0.10552 0.0
C101 C 0.57858 0.59133 0.07428 0.0
C102 C 0.61131 0.56969 0.11332 0.0
C103 C 0.63377 0.56412 0.09029 0.0
C104 C 0.64978 0.54092 0.09688 0.0
C105 C 0.6451 0.52484 0.12696 0.0
C106 C 0.62454 0.53123 0.15053 0.0
C107 C 0.60727 0.55317 0.1436 0.0
O108 O 0.63678 0.39852 0.3929 0.0
Cd109 Cd 0.65442 0.38318 0.35225 0.0
Cd110 Cd 0.71133 0.45743 0.35835 0.0
O111 O 0.68438 0.45618 0.39994 0.0
O112 O 0.62077 0.32732 0.35061 0.0
O113 O 0.68291 0.35412 0.35633 0.0
C114 C 0.65045 0.32369 0.35474 0.0
C115 C 0.77641 0.47815 0.35713 0.0
C116 C 0.65279 0.42885 0.40884 0.0
C117 C 0.66103 0.43735 0.30116 0.0
O118 O 0.68658 0.46328 0.31777 0.0
O119 O 0.64627 0.40294 0.30961 0.0
O120 O 0.76357 0.50164 0.35943 0.0
O121 O 0.75207 0.44251 0.35623 0.0
O122 O 0.27051 0.61335 0.56384 0.0
Cd123 Cd 0.29929 0.62161 0.52176 0.0
Cd124 Cd 0.29986 0.69351 0.52896 0.0
O125 O 0.27147 0.66799 0.57016 0.0
O126 O 0.30683 0.57648 0.51949 0.0
O127 O 0.35443 0.63477 0.52229 0.0
C128 C 0.34282 0.59892 0.52141 0.0
C129 C 0.34251 0.75858 0.52874 0.0
C130 C 0.26176 0.63471 0.57959 0.0
C131 C 0.26088 0.64359 0.47198 0.0
O132 O 0.27045 0.67369 0.48748 0.0
O133 O 0.27022 0.61939 0.48119 0.0
O134 O 0.30643 0.74557 0.53099 0.0
O135 O 0.35474 0.73448 0.52776 0.0
O136 O 0.70983 0.2499 0.72718 0.0
Cd137 Cd 0.73026 0.28196 0.68633 0.0
Cd138 Cd 0.65592 0.27 0.6885 0.0
O139 O 0.6519 0.24248 0.73021 0.0
O140 O 0.78464 0.29451 0.68651 0.0
O141 O 0.76682 0.33798 0.68923 0.0
C142 C 0.79388 0.32958 0.68898 0.0
C143 C 0.64424 0.32087 0.68627 0.0
C144 C 0.67788 0.23669 0.74118 0.0
C145 C 0.67765 0.23842 0.63313 0.0
O146 O 0.65097 0.23999 0.64796 0.0
O147 O 0.71138 0.25516 0.64354 0.0
O148 O 0.61672 0.28657 0.68795 0.0
O149 O 0.67859 0.32621 0.68641 0.0
O150 O 0.48829 0.66799 0.89748 0.0
Cd151 Cd 0.47842 0.69166 0.85769 0.0
Cd152 Cd 0.4128 0.62444 0.85764 0.0
O153 O 0.43149 0.61761 0.90096 0.0
O154 O 0.51316 0.74744 0.85955 0.0
O155 O 0.45059 0.72104 0.86185 0.0
C156 C 0.4833 0.75123 0.86217 0.0
C157 C 0.35324 0.62027 0.85383 0.0
C158 C 0.46459 0.63807 0.91187 0.0
C159 C 0.4673 0.64038 0.80352 0.0
O160 O 0.43765 0.61578 0.81781 0.0
O161 O 0.48635 0.67357 0.81446 0.0
O162 O 0.35665 0.59027 0.85588 0.0
O163 O 0.38384 0.65265 0.85401 0.0
O164 O 0.85345 0.40171 -0.01183 0.0
Cd165 Cd 0.81979 0.38242 0.02839 0.0
Cd166 Cd 0.83388 0.45538 0.02779 0.0
O167 O 0.86201 0.45981 -0.01371 0.0
O168 O 0.79806 0.32648 0.02737 0.0
O169 O 0.76303 0.35463 0.02399 0.0
C170 C 0.76508 0.3238 0.02419 0.0
C171 C 0.7829 0.46699 0.03009 0.0
C172 C 0.86753 0.43394 -0.02517 0.0
C173 C 0.86289 0.43131 0.08308 0.0
O174 O 0.86277 0.45879 0.06865 0.0
O175 O 0.84555 0.39814 0.07186 0.0
O176 O 0.81738 0.49443 0.02883 0.0
O177 O 0.7775 0.43282 0.02937 0.0
O178 O 0.47955 0.84405 0.15 0.0
Cd179 Cd 0.47899 0.8152 0.19028 0.0
Cd180 Cd 0.4023 0.79573 0.18921 0.0
O181 O 0.41796 0.82357 0.14634 0.0
O182 O 0.52698 0.81241 0.18864 0.0
O183 O 0.47006 0.76189 0.18808 0.0
C184 C 0.50653 0.77619 0.18717 0.0
C185 C 0.34402 0.74015 0.19249 0.0
C186 C 0.45149 0.84302 0.13559 0.0
C187 C 0.45124 0.84279 0.24386 0.0
O188 O 0.41922 0.82752 0.23013 0.0
O189 O 0.47897 0.84011 0.23236 0.0
O190 O 0.34594 0.77271 0.19 0.0
O191 O 0.37548 0.73899 0.19244 0.0
H192 H 0.20588 0.59188 0.24453 0.0
H193 H 0.14936 0.65739 0.22922 0.0
H194 H 0.20554 0.70585 0.20143 0.0
H195 H 0.27384 0.73393 0.18989 0.0
H196 H 0.33104 0.66928 0.20775 0.0
H197 H 0.27145 0.616 0.226 0.0
C198 C 0.20562 0.61634 0.23431 0.0
C199 C 0.17384 0.62139 0.23909 0.0
C200 C 0.23837 0.64451 0.21943 0.0
C201 C 0.17349 0.65292 0.22566 0.0
C202 C 0.20577 0.68079 0.21015 0.0
C203 C 0.27317 0.70796 0.19728 0.0
C204 C 0.30701 0.70585 0.19804 0.0
C205 C 0.23891 0.67763 0.20821 0.0
C206 C 0.30552 0.67181 0.20722 0.0
C207 C 0.27146 0.64134 0.21773 0.0
H208 H 0.65499 0.18199 0.40924 0.0
H209 H 0.53493 0.13106 0.39181 0.0
H210 H 0.54482 0.18796 0.36342 0.0
H211 H 0.58626 0.25544 0.35159 0.0
H212 H 0.70604 0.30708 0.37157 0.0
H213 H 0.69768 0.24663 0.39076 0.0
C214 C 0.63115 0.18311 0.39852 0.0
C215 C 0.59426 0.15266 0.40284 0.0
C216 C 0.63695 0.21627 0.38322 0.0
C217 C 0.56358 0.15411 0.38867 0.0
C218 C 0.56921 0.18681 0.37278 0.0
C219 C 0.61068 0.25335 0.35962 0.0
C220 C 0.64663 0.28593 0.36066 0.0
C221 C 0.60555 0.21861 0.37115 0.0
C222 C 0.67801 0.28259 0.37077 0.0
C223 C 0.67324 0.24802 0.38184 0.0
H224 H 0.42576 0.51002 0.56552 0.0
H225 H 0.51932 0.62321 0.57164 0.0
H226 H 0.48213 0.64786 0.54498 0.0
H227 H 0.41968 0.63812 0.52842 0.0
H228 H 0.32506 0.52488 0.52447 0.0
H229 H 0.36582 0.49936 0.54132 0.0
C230 C 0.43832 0.53984 0.55982 0.0
C231 C 0.47514 0.56483 0.57021 0.0
C232 C 0.41624 0.55391 0.54553 0.0
C233 C 0.49108 0.60355 0.56345 0.0
C234 C 0.46968 0.61765 0.54856 0.0
C235 C 0.40815 0.60782 0.53062 0.0
C236 C 0.36922 0.58357 0.52573 0.0
C237 C 0.43167 0.59328 0.54081 0.0
C238 C 0.35483 0.54431 0.52843 0.0
C239 C 0.37812 0.52962 0.53813 0.0
H240 H 0.96266 0.42511 0.7337 0.0
H241 H 0.92996 0.51149 0.738 0.0
H242 H 0.87011 0.46993 0.71156 0.0
H243 H 0.82309 0.40565 0.69568 0.0
H244 H 0.855 0.3183 0.69363 0.0
H245 H 0.91898 0.36342 0.71037 0.0
C246 C 0.94301 0.43518 0.72761 0.0
C247 C 0.95057 0.47121 0.73739 0.0
C248 C 0.90807 0.41059 0.71354 0.0
C249 C 0.92469 0.48391 0.7302 0.0
C250 C 0.89033 0.46 0.71549 0.0
C251 C 0.84423 0.39665 0.69834 0.0
C252 C 0.834 0.3585 0.69397 0.0
C253 C 0.88099 0.4227 0.70838 0.0
C254 C 0.8619 0.3474 0.69721 0.0
C255 C 0.89859 0.3732 0.70681 0.0
H256 H 0.47304 0.89287 0.90893 0.0
H257 H 0.59416 0.94548 0.89584 0.0
H258 H 0.58726 0.88794 0.8709 0.0
H259 H 0.5475 0.81985 0.86062 0.0
H260 H 0.4264 0.76706 0.87577 0.0
H261 H 0.43252 0.82745 0.89207 0.0
C262 C 0.49778 0.89195 0.89984 0.0
C263 C 0.53405 0.92309 0.90436 0.0
C264 C 0.49364 0.85851 0.88653 0.0
C265 C 0.56596 0.92188 0.89241 0.0
C266 C 0.56202 0.88883 0.87855 0.0
C267 C 0.52238 0.82166 0.86706 0.0
C268 C 0.48661 0.78881 0.86753 0.0
C269 C 0.52614 0.85648 0.87672 0.0
C270 C 0.4543 0.79177 0.87551 0.0
C271 C 0.45777 0.82631 0.88487 0.0
H272 H 0.63827 0.47342 0.07619 0.0
H273 H 0.71457 0.59289 0.06715 0.0
H274 H 0.76194 0.58029 0.04152 0.0
H275 H 0.7849 0.53521 0.0299 0.0
H276 H 0.70865 0.41561 0.04105 0.0
H277 H 0.6579 0.42827 0.05746 0.0
C278 C 0.6649 0.49662 0.06774 0.0
C279 C 0.6732 0.53398 0.07362 0.0
C280 C 0.69221 0.4891 0.05402 0.0
C281 C 0.70761 0.56393 0.06264 0.0
C282 C 0.7348 0.55669 0.04837 0.0
C283 C 0.75701 0.51188 0.03543 0.0
C284 C 0.7508 0.47454 0.03483 0.0
C285 C 0.72799 0.51938 0.04523 0.0
C286 C 0.71435 0.44462 0.04164 0.0
C287 C 0.68529 0.45183 0.05108 0.0
H288 H 0.42518 0.92702 0.48208 0.0
H289 H 0.52182 0.90914 0.48681 0.0
H290 H 0.48338 0.84832 0.51338 0.0
H291 H 0.41996 0.79598 0.52663 0.0
H292 H 0.32284 0.8135 0.52046 0.0
H293 H 0.3636 0.87859 0.50354 0.0
C294 C 0.438 0.91042 0.49021 0.0
C295 C 0.47617 0.92243 0.48297 0.0
C296 C 0.41539 0.87497 0.50451 0.0
C297 C 0.49254 0.90049 0.49274 0.0
C298 C 0.47045 0.86554 0.50751 0.0
C299 C 0.40783 0.81426 0.52217 0.0
C300 C 0.36832 0.79961 0.52423 0.0
C301 C 0.43145 0.85174 0.51217 0.0
C302 C 0.35311 0.82384 0.51875 0.0
C303 C 0.3764 0.86115 0.50899 0.0
H304 H 0.63749 0.46568 0.64306 0.0
H305 H 0.51749 0.38928 0.65109 0.0
H306 H 0.53013 0.34168 0.67581 0.0
H307 H 0.57553 0.3187 0.68668 0.0
H308 H 0.69569 0.39503 0.67613 0.0
H309 H 0.68288 0.44583 0.66101 0.0
C310 C 0.61418 0.43903 0.65126 0.0
C311 C 0.57666 0.43081 0.64539 0.0
C312 C 0.62176 0.41154 0.66428 0.0
C313 C 0.54656 0.39624 0.65576 0.0
C314 C 0.55384 0.3689 0.66944 0.0
C315 C 0.59895 0.3466 0.68156 0.0
C316 C 0.63652 0.35283 0.68198 0.0
C317 C 0.59135 0.37568 0.67248 0.0
C318 C 0.66652 0.38929 0.67566 0.0
C319 C 0.65922 0.4184 0.66698 0.0
H320 H 0.21146 0.63464 0.81292 0.0
H321 H 0.15759 0.51351 0.82071 0.0
H322 H 0.21517 0.51834 0.84444 0.0
H323 H 0.28387 0.55674 0.85437 0.0
H324 H 0.33796 0.67798 0.84389 0.0
H325 H 0.27735 0.67346 0.8298 0.0
C326 C 0.21204 0.60942 0.8208 0.0
C327 C 0.18059 0.57379 0.81506 0.0
C328 C 0.24559 0.61245 0.83316 0.0
C329 C 0.18142 0.54121 0.8252 0.0
C330 C 0.21452 0.544 0.8383 0.0
C331 C 0.28229 0.58222 0.84944 0.0
C332 C 0.31558 0.6176 0.84959 0.0
C333 C 0.24732 0.5794 0.841 0.0
C334 C 0.31293 0.65036 0.84357 0.0
C335 C 0.27825 0.64782 0.83552 0.0
H336 H 0.62013 0.18524 -0.03008 0.0
H337 H 0.68628 0.1303 -0.01048 0.0
H338 H 0.73318 0.18657 0.01751 0.0
H339 H 0.75996 0.25447 0.02825 0.0
H340 H 0.69443 0.30983 0.00655 0.0
H341 H 0.64247 0.25024 -0.01226 0.0
C342 C 0.64433 0.18534 -0.01885 0.0
C343 C 0.65009 0.15402 -0.02242 0.0
C344 C 0.67154 0.21806 -0.00377 0.0
C345 C 0.6813 0.15412 -0.00781 0.0
C346 C 0.70827 0.18642 0.00781 0.0
C347 C 0.73406 0.25338 0.01989 0.0
C348 C 0.73136 0.28671 0.01821 0.0
C349 C 0.70448 0.21909 0.00871 0.0
C350 C 0.69741 0.2847 0.00779 0.0
C351 C 0.6677 0.25064 -0.00304 0.0
H352 H 0.60159 0.69983 0.14159 0.0
H353 H 0.49305 0.59989 0.15262 0.0
H354 H 0.46697 0.63697 0.17742 0.0
H355 H 0.47268 0.69924 0.18793 0.0
H356 H 0.58118 0.79957 0.17526 0.0
H357 H 0.60972 0.76114 0.15945 0.0
C358 C 0.57273 0.68613 0.15067 0.0
C359 C 0.5493 0.64731 0.14582 0.0
C360 C 0.55768 0.70787 0.16387 0.0
C361 C 0.51163 0.62972 0.15676 0.0
C362 C 0.49663 0.651 0.17049 0.0
C363 C 0.50269 0.71264 0.18219 0.0
C364 C 0.52455 0.75226 0.18224 0.0
C365 C 0.51896 0.69034 0.1729 0.0
C366 C 0.56354 0.76915 0.17513 0.0
C367 C 0.57995 0.74719 0.16604 0.0
H368 H 0.94764 0.55766 0.31492 0.0
H369 H 0.92829 0.44384 0.32379 0.0
H370 H 0.86609 0.42394 0.34794 0.0
H371 H 0.81343 0.43696 0.35796 0.0
H372 H 0.8322 0.55073 0.34736 0.0
H373 H 0.89824 0.57268 0.33275 0.0
C374 C 0.93038 0.52894 0.32346 0.0
C375 C 0.94247 0.50228 0.31809 0.0
C376 C 0.8941 0.51749 0.33621 0.0
C377 C 0.91963 0.46485 0.32832 0.0
C378 C 0.88389 0.45341 0.34166 0.0
C379 C 0.83213 0.46665 0.35296 0.0
C380 C 0.81765 0.49199 0.3532 0.0
C381 C 0.87014 0.47912 0.34436 0.0
C382 C 0.84244 0.53049 0.34706 0.0
C383 C 0.88028 0.54313 0.33866 0.0
H384 H 0.17189 0.64194 0.34971 0.0
H385 H 0.13031 0.52222 0.35759 0.0
H386 H 0.16675 0.53204 0.40655 0.0
H387 H 0.21391 0.57577 0.4448 0.0
H388 H 0.25475 0.69562 0.43568 0.0
H389 H 0.21547 0.68479 0.38908 0.0
C390 C 0.17045 0.61801 0.36251 0.0
C391 C 0.14875 0.5815 0.35039 0.0
C392 C 0.19182 0.62402 0.38993 0.0
C393 C 0.14674 0.55051 0.36688 0.0
C394 C 0.16784 0.55622 0.39455 0.0
C395 C 0.21427 0.59946 0.43249 0.0
C396 C 0.2375 0.63647 0.44343 0.0
C397 C 0.19117 0.59299 0.40587 0.0
C398 C 0.23722 0.66689 0.42765 0.0
C399 C 0.21472 0.66075 0.40106 0.0
H400 H 0.66478 0.16248 0.50062 0.0
H401 H 0.55109 0.08988 0.53494 0.0
H402 H 0.56693 0.12323 0.58555 0.0
H403 H 0.61142 0.17681 0.61787 0.0
H404 H 0.72542 0.24895 0.58373 0.0
H405 H 0.71106 0.21233 0.5349 0.0
C406 C 0.64375 0.15365 0.51945 0.0
C407 C 0.60684 0.12402 0.51417 0.0
C408 C 0.65287 0.17333 0.54813 0.0
C409 C 0.57979 0.11245 0.53867 0.0
C410 C 0.58869 0.13179 0.5674 0.0
C411 C 0.63306 0.18448 0.59969 0.0
C412 C 0.66918 0.21585 0.60403 0.0
C413 C 0.6248 0.16296 0.572 0.0
C414 C 0.69731 0.22504 0.58072 0.0
C415 C 0.68915 0.20411 0.55288 0.0
H416 H 0.53023 0.62364 0.67139 0.0
H417 H 0.47785 0.50732 0.70153 0.0
H418 H 0.46046 0.52401 0.75235 0.0
H419 H 0.4556 0.57108 0.78611 0.0
H420 H 0.50915 0.68759 0.75581 0.0
H421 H 0.53027 0.67142 0.70687 0.0
C422 C 0.51554 0.60213 0.68937 0.0
C423 C 0.50512 0.56437 0.68288 0.0
C424 C 0.50525 0.61186 0.71813 0.0
C425 C 0.48637 0.53663 0.70624 0.0
C426 C 0.47607 0.5461 0.73507 0.0
C427 C 0.47186 0.59286 0.76874 0.0
C428 C 0.48033 0.63035 0.77426 0.0
C429 C 0.48448 0.58347 0.7409 0.0
C430 C 0.5021 0.65849 0.75195 0.0
C431 C 0.51424 0.6493 0.72402 0.0
H432 H 0.94884 0.43882 0.84611 0.0
H433 H 0.9997 0.55862 0.86173 0.0
H434 H 0.96607 0.54691 0.91268 0.0
H435 H 0.91873 0.50225 -0.04943 0.0
H436 H 0.86876 0.3823 0.93447 0.0
H437 H 0.90545 0.39437 0.8856 0.0
C438 C 0.95278 0.46229 0.86093 0.0
C439 C 0.97627 0.49946 0.8504 0.0
C440 C 0.93323 0.45528 0.88973 0.0
C441 C 0.98173 0.5298 0.86965 0.0
C442 C 0.96232 0.52308 0.89853 0.0
C443 C 0.91591 0.47878 0.93635 0.0
C444 C 0.89072 0.44144 0.94587 0.0
C445 C 0.93737 0.48591 0.90844 0.0
C446 C 0.88783 0.41128 0.92756 0.0
C447 C 0.90878 0.41814 0.89964 0.0
H448 H 0.45999 0.91343 0.00086 0.0
H449 H 0.57207 0.9921 0.03379 0.0
H450 H 0.55727 0.96098 0.08559 0.0
H451 H 0.51489 0.90734 0.11929 0.0
H452 H 0.40255 0.82876 0.08666 0.0
H453 H 0.41508 0.86369 0.03673 0.0
C454 C 0.48085 0.92407 0.01964 0.0
C455 C 0.51709 0.95475 0.01361 0.0
C456 C 0.47237 0.90565 0.04907 0.0
C457 C 0.54389 0.96867 0.03805 0.0
C458 C 0.5356 0.95063 0.0675 0.0
C459 C 0.49315 0.89796 0.10125 0.0
C460 C 0.45814 0.8652 0.10628 0.0
C461 C 0.50038 0.91839 0.07289 0.0
C462 C 0.42983 0.85377 0.08313 0.0
C463 C 0.43697 0.87371 0.05464 0.0
H464 H 0.60677 0.46 0.16733 0.0
H465 H 0.64259 0.57073 0.20559 0.0
H466 H 0.65583 0.55079 0.25656 0.0
H467 H 0.66365 0.50399 0.28803 0.0
H468 H 0.62781 0.39316 0.24969 0.0
H469 H 0.6085 0.41113 0.20068 0.0
C470 C 0.61685 0.47949 0.18707 0.0
C471 C 0.62402 0.5168 0.18281 0.0
C472 C 0.62512 0.46807 0.21594 0.0
C473 C 0.63666 0.54179 0.20849 0.0
C474 C 0.64466 0.53054 0.23744 0.0
C475 C 0.65157 0.48377 0.26894 0.0
C476 C 0.64779 0.44756 0.27216 0.0
C477 C 0.64016 0.49415 0.24106 0.0
C478 C 0.63127 0.42132 0.24761 0.0
C479 C 0.62019 0.43155 0.21963 0.0
H480 H 0.44598 0.91755 0.37289 0.0
H481 H 0.56727 0.97448 0.35936 0.0
H482 H 0.55928 0.94241 0.30849 0.0
H483 H 0.51765 0.89526 0.26973 0.0
H484 H 0.39618 0.83899 0.28366 0.0
H485 H 0.40439 0.87354 0.33284 0.0
C486 C 0.47061 0.92306 0.35862 0.0
C487 C 0.50714 0.94796 0.36974 0.0
C488 C 0.46576 0.90436 0.3298 0.0
C489 C 0.5389 0.95546 0.35106 0.0
C490 C 0.53432 0.93693 0.32219 0.0
C491 C 0.49299 0.89054 0.28356 0.0
C492 C 0.45638 0.8643 0.27327 0.0
C493 C 0.49789 0.91079 0.31165 0.0
C494 C 0.42466 0.85894 0.29113 0.0
C495 C 0.42931 0.87867 0.31923 0.0
H496 H 0.56089 0.41497 0.53348 0.0
H497 H 0.6284 0.53621 0.53005 0.0
H498 H 0.65714 0.53213 0.47983 0.0
H499 H 0.6657 0.49333 0.43899 0.0
H500 H 0.59725 0.37187 0.44324 0.0
H501 H 0.56641 0.37671 0.49139 0.0
C502 C 0.58167 0.44048 0.5215 0.0
C503 C 0.59286 0.47579 0.53529 0.0
C504 C 0.59818 0.43779 0.49315 0.0
C505 C 0.61938 0.50877 0.51962 0.0
C506 C 0.63597 0.50638 0.49115 0.0
C507 C 0.64407 0.46796 0.45051 0.0
C508 C 0.63406 0.43227 0.43777 0.0
C509 C 0.62612 0.47095 0.47807 0.0
C510 C 0.60555 0.39965 0.45262 0.0
C511 C 0.58787 0.40237 0.48013 0.0
H512 H 0.17573 0.55327 0.70473 0.0
H513 H 0.1385 0.63628 0.69937 0.0
H514 H 0.17343 0.66034 0.64917 0.0
H515 H 0.21788 0.65975 0.60889 0.0
H516 H 0.25426 0.5758 0.61544 0.0
H517 H 0.2166 0.55025 0.66348 0.0
C518 C 0.17496 0.57634 0.69225 0.0
C519 C 0.15493 0.59322 0.7054 0.0
C520 C 0.19537 0.59011 0.66405 0.0
C521 C 0.1537 0.62289 0.68931 0.0
C522 C 0.1739 0.63677 0.6609 0.0
C523 C 0.21762 0.63596 0.62094 0.0
C524 C 0.23912 0.61992 0.60884 0.0
C525 C 0.19549 0.62106 0.64843 0.0
C526 C 0.23805 0.5887 0.62433 0.0
C527 C 0.21649 0.57402 0.65176 0.0
H528 H 0.67631 0.15365 0.86763 0.0
H529 H 0.55554 0.10561 0.85625 0.0
H530 H 0.56574 0.13978 0.80584 0.0
H531 H 0.60965 0.18693 0.76729 0.0
H532 H 0.73056 0.23438 0.77966 0.0
H533 H 0.71972 0.19708 0.82776 0.0
C534 C 0.65227 0.15039 0.85383 0.0
C535 C 0.6153 0.12753 0.86543 0.0
C536 C 0.65843 0.17042 0.82546 0.0
C537 C 0.58421 0.12302 0.84749 0.0
C538 C 0.5901 0.1428 0.81894 0.0
C539 C 0.63359 0.18912 0.78057 0.0
C540 C 0.67087 0.21372 0.77014 0.0
C541 C 0.62715 0.16726 0.80809 0.0
C542 C 0.70161 0.21579 0.78725 0.0
C543 C 0.69546 0.19445 0.81473 0.0
H544 H 0.4863 0.58583 0.04695 0.0
H545 H 0.60244 0.63792 0.01479 0.0
H546 H 0.5838 0.65112 -0.03689 0.0
H547 H 0.53497 0.65218 0.92891 0.0
H548 H 0.41847 0.5981 -0.03916 0.0
H549 H 0.43667 0.58142 0.011 0.0
C550 C 0.50731 0.59952 0.02835 0.0
C551 C 0.54559 0.6111 0.03441 0.0
C552 C 0.4964 0.60712 -0.00101 0.0
C553 C 0.57276 0.62861 0.01035 0.0
C554 C 0.56216 0.63645 -0.01899 0.0
C555 C 0.51363 0.63671 0.94688 0.0
C556 C 0.47557 0.62684 0.94151 0.0
C557 C 0.5242 0.62664 -0.02462 0.0
C558 C 0.44799 0.60612 -0.0354 0.0
C559 C 0.45835 0.59659 -0.00677 0.0
H560 H 0.9317 0.43754 0.21779 0.0
H561 H 1.00802 0.55145 0.18706 0.0
H562 H 0.97689 0.5383 0.13546 0.0
H563 H 0.92462 0.4959 0.10097 0.0
H564 H 0.84897 0.38155 0.13137 0.0
H565 H 0.88294 0.39342 0.1815 0.0
C566 C 0.94174 0.45924 0.19956 0.0
C567 C 0.97184 0.4954 0.20606 0.0
C568 C 0.92347 0.45159 0.17023 0.0
C569 C 0.98503 0.52332 0.18235 0.0
C570 C 0.967 0.51593 0.15304 0.0
C571 C 0.91562 0.47363 0.11861 0.0
C572 C 0.88406 0.43813 0.11283 0.0
C573 C 0.93561 0.48046 0.14706 0.0
C574 C 0.8731 0.40919 0.13547 0.0
C575 C 0.89249 0.41593 0.16407 0.0
loop_
_geom_bond_atom_site_label_1
_geom_bond_atom_site_label_2
_geom_bond_distance
_geom_bond_site_symmetry_2
_ccdc_geom_bond_type
H0 C6 0.930 . S
H1 C9 0.931 . S
H2 C11 0.931 . S
H3 C13 0.930 . S
H4 C15 0.930 . S
H5 C17 0.922 1_455 S
C6 H0 0.930 . S
C6 C7 1.380 . S
C6 C8 1.394 . S
C7 C6 1.380 . S
C7 C11 1.382 . S
C8 C6 1.394 . S
C8 C9 1.400 . S
C9 H1 0.931 . S
C9 C8 1.400 . S
C9 C10 1.375 . S
C10 C9 1.375 . S
C10 C11 1.415 . S
C10 C12 1.501 1_455 S
C11 H2 0.931 . S
C11 C7 1.382 . S
C11 C10 1.415 . S
C12 C10 1.501 1_655 S
C12 C13 1.384 . S
C12 C17 1.408 . S
C13 H3 0.930 . S
C13 C12 1.384 . S
C13 C14 1.389 . S
C14 C13 1.389 . S
C14 C15 1.405 . S
C15 H4 0.930 . S
C15 C14 1.405 . S
C15 C16 1.364 . S
C16 C15 1.364 . S
C16 C17 1.400 . S
C17 H5 0.922 1_655 S
C17 C12 1.408 . S
C17 C16 1.400 . S
H18 C24 0.930 . S
H19 C27 0.931 . S
H20 C29 0.931 . S
H21 C31 0.930 . S
H22 C33 0.930 . S
H23 C35 0.931 . S
C24 H18 0.930 . S
C24 C25 1.380 . S
C24 C26 1.394 . S
C25 C24 1.380 . S
C25 C29 1.382 . S
C26 C24 1.394 . S
C26 C27 1.400 . S
C27 H19 0.931 . S
C27 C26 1.400 . S
C27 C28 1.375 . S
C28 C27 1.375 . S
C28 C29 1.415 . S
C28 C30 1.501 1_545 S
C29 H20 0.931 . S
C29 C25 1.382 . S
C29 C28 1.415 . S
C30 C28 1.501 1_565 S
C30 C31 1.384 . S
C30 C35 1.408 . S
C31 H21 0.930 . S
C31 C30 1.384 . S
C31 C32 1.389 . S
C32 C31 1.389 . S
C32 C33 1.405 . S
C33 H22 0.930 . S
C33 C32 1.405 . S
C33 C34 1.364 . S
C34 C33 1.364 . S
C34 C35 1.400 . S
C35 H23 0.931 . S
C35 C30 1.408 . S
C35 C34 1.400 . S
H36 C42 0.930 . S
H37 C45 0.931 . S
H38 C47 0.931 . S
H39 C49 0.930 . S
H40 C51 0.930 . S
H41 C53 0.931 . S
C42 H36 0.930 . S
C42 C43 1.380 . S
C42 C44 1.394 . S
C43 C42 1.380 . S
C43 C47 1.382 . S
C44 C42 1.394 . S
C44 C45 1.400 . S
C45 H37 0.931 . S
C45 C44 1.400 . S
C45 C46 1.375 . S
C46 C45 1.375 . S
C46 C47 1.415 . S
C46 C48 1.501 . S
C47 H38 0.931 . S
C47 C43 1.382 . S
C47 C46 1.415 . S
C48 C46 1.501 . S
C48 C49 1.384 . S
C48 C53 1.408 . S
C49 H39 0.930 . S
C49 C48 1.384 . S
C49 C50 1.389 . S
C50 C49 1.389 . S
C50 C51 1.405 . S
C51 H40 0.930 . S
C51 C50 1.405 . S
C51 C52 1.364 . S
C52 C51 1.364 . S
C52 C53 1.400 . S
C53 H41 0.931 . S
C53 C48 1.408 . S
C53 C52 1.400 . S
H54 C60 0.930 . S
H55 C63 0.931 . S
H56 C65 0.931 . S
H57 C67 0.930 . S
H58 C69 0.930 . S
H59 C71 0.923 1_455 S
C60 H54 0.930 . S
C60 C61 1.380 . S
C60 C62 1.394 . S
C61 C60 1.380 . S
C61 C65 1.382 . S
C62 C60 1.394 . S
C62 C63 1.400 . S
C63 H55 0.931 . S
C63 C62 1.400 . S
C63 C64 1.375 . S
C64 C63 1.375 . S
C64 C65 1.415 . S
C64 C66 1.501 1_455 S
C65 H56 0.931 . S
C65 C61 1.382 . S
C65 C64 1.415 . S
C66 C64 1.501 1_655 S
C66 C67 1.384 . S
C66 C71 1.408 . S
C67 H57 0.930 . S
C67 C66 1.384 . S
C67 C68 1.389 . S
C68 C67 1.389 . S
C68 C69 1.405 . S
C69 H58 0.930 . S
C69 C68 1.405 . S
C69 C70 1.364 . S
C70 C69 1.364 . S
C70 C71 1.400 . S
C71 H59 0.923 1_655 S
C71 C66 1.408 . S
C71 C70 1.400 . S
H72 C78 0.930 . S
H73 C81 0.931 . S
H74 C83 0.931 . S
H75 C85 0.930 . S
H76 C87 0.930 . S
H77 C89 0.931 . S
C78 H72 0.930 . S
C78 C79 1.380 . S
C78 C80 1.394 1_554 S
C79 C78 1.380 . S
C79 C83 1.382 . S
C80 C78 1.394 1_556 S
C80 C81 1.400 . S
C81 H73 0.931 . S
C81 C80 1.400 . S
C81 C82 1.375 . S
C82 C81 1.375 . S
C82 C83 1.415 1_556 S
C82 C84 1.501 1_565 S
C83 H74 0.931 . S
C83 C79 1.382 . S
C83 C82 1.415 1_554 S
C84 C82 1.501 1_545 S
C84 C85 1.384 1_556 S
C84 C89 1.408 . S
C85 H75 0.930 . S
C85 C84 1.384 1_554 S
C85 C86 1.389 . S
C86 C85 1.389 . S
C86 C87 1.405 1_554 S
C87 H76 0.930 . S
C87 C86 1.405 1_556 S
C87 C88 1.364 . S
C88 C87 1.364 . S
C88 C89 1.400 . S
C89 H77 0.931 . S
C89 C84 1.408 . S
C89 C88 1.400 . S
H90 C96 0.930 . S
H91 C99 0.931 . S
H92 C101 0.931 . S
H93 C103 0.930 . S
H94 C105 0.930 . S
H95 C107 0.931 . S
C96 H90 0.930 . S
C96 C97 1.380 . S
C96 C98 1.394 . S
C97 C96 1.380 . S
C97 C101 1.382 . S
C98 C96 1.394 . S
C98 C99 1.400 . S
C99 H91 0.931 . S
C99 C98 1.400 . S
C99 C100 1.375 . S
C100 C99 1.375 . S
C100 C101 1.415 . S
C100 C102 1.501 . S
C101 H92 0.931 . S
C101 C97 1.382 . S
C101 C100 1.415 . S
C102 C100 1.501 . S
C102 C103 1.384 . S
C102 C107 1.408 . S
C103 H93 0.930 . S
C103 C102 1.384 . S
C103 C104 1.389 . S
C104 C103 1.389 . S
C104 C105 1.405 . S
C105 H94 0.930 . S
C105 C104 1.405 . S
C105 C106 1.364 . S
C106 C105 1.364 . S
C106 C107 1.400 . S
C107 H95 0.931 . S
C107 C102 1.408 . S
C107 C106 1.400 . S
O108 Cd109 2.223 . S
O108 C116 1.315 . S
Cd109 O108 2.223 . S
Cd109 O112 2.297 . S
Cd109 O113 2.439 . S
Cd109 O119 2.240 . S
Cd110 O111 2.240 . S
Cd110 O118 2.223 . S
Cd110 O120 2.297 . S
Cd110 O121 2.439 . S
O111 Cd110 2.240 . S
O111 C116 1.279 . S
O112 Cd109 2.297 . S
O112 C114 1.247 . S
O113 Cd109 2.439 . S
O113 C114 1.208 . S
C114 O112 1.247 . S
C114 O113 1.208 . S
C115 O120 1.247 . S
C115 O121 1.208 . S
C116 O108 1.315 . S
C116 O111 1.279 . S
C117 O118 1.315 . S
C117 O119 1.279 . S
O118 Cd110 2.223 . S
O118 C117 1.315 . S
O119 Cd109 2.240 . S
O119 C117 1.279 . S
O120 Cd110 2.297 . S
O120 C115 1.247 . S
O121 Cd110 2.439 . S
O121 C115 1.208 . S
O122 Cd123 2.223 . S
O122 C130 1.315 . S
Cd123 O122 2.223 . S
Cd123 O126 2.297 . S
Cd123 O127 2.439 . S
Cd123 O133 2.240 . S
Cd124 O125 2.240 . S
Cd124 O132 2.223 . S
Cd124 O134 2.297 . S
Cd124 O135 2.439 . S
O125 Cd124 2.240 . S
O125 C130 1.279 . S
O126 Cd123 2.297 . S
O126 C128 1.247 . S
O127 Cd123 2.439 . S
O127 C128 1.208 . S
C128 O126 1.247 . S
C128 O127 1.208 . S
C129 O134 1.247 . S
C129 O135 1.208 . S
C130 O122 1.315 . S
C130 O125 1.279 . S
C131 O132 1.315 . S
C131 O133 1.279 . S
O132 Cd124 2.223 . S
O132 C131 1.315 . S
O133 Cd123 2.240 . S
O133 C131 1.279 . S
O134 Cd124 2.297 . S
O134 C129 1.247 . S
O135 Cd124 2.439 . S
O135 C129 1.208 . S
O136 Cd137 2.223 . S
O136 C144 1.315 . S
Cd137 O136 2.223 . S
Cd137 O140 2.297 . S
Cd137 O141 2.439 . S
Cd137 O147 2.240 . S
Cd138 O139 2.240 . S
Cd138 O146 2.223 . S
Cd138 O148 2.297 . S
Cd138 O149 2.439 . S
O139 Cd138 2.240 . S
O139 C144 1.279 . S
O140 Cd137 2.297 . S
O140 C142 1.247 . S
O141 Cd137 2.439 . S
O141 C142 1.208 . S
C142 O140 1.247 . S
C142 O141 1.208 . S
C143 O148 1.247 . S
C143 O149 1.208 . S
C144 O136 1.315 . S
C144 O139 1.279 . S
C145 O146 1.315 . S
C145 O147 1.279 . S
O146 Cd138 2.223 . S
O146 C145 1.315 . S
O147 Cd137 2.240 . S
O147 C145 1.279 . S
O148 Cd138 2.297 . S
O148 C143 1.247 . S
O149 Cd138 2.439 . S
O149 C143 1.208 . S
O150 Cd151 2.223 . S
O150 C158 1.315 . S
Cd151 O150 2.223 . S
Cd151 O154 2.297 . S
Cd151 O155 2.439 . S
Cd151 O161 2.240 . S
Cd152 O153 2.240 . S
Cd152 O160 2.223 . S
Cd152 O162 2.297 . S
Cd152 O163 2.439 . S
O153 Cd152 2.240 . S
O153 C158 1.279 . S
O154 Cd151 2.297 . S
O154 C156 1.247 . S
O155 Cd151 2.439 . S
O155 C156 1.208 . S
C156 O154 1.247 . S
C156 O155 1.208 . S
C157 O162 1.247 . S
C157 O163 1.208 . S
C158 O150 1.315 . S
C158 O153 1.279 . S
C159 O160 1.315 . S
C159 O161 1.279 . S
O160 Cd152 2.223 . S
O160 C159 1.315 . S
O161 Cd151 2.240 . S
O161 C159 1.279 . S
O162 Cd152 2.297 . S
O162 C157 1.247 . S
O163 Cd152 2.439 . S
O163 C157 1.208 . S
O164 Cd165 2.223 . S
O164 C172 1.315 . S
Cd165 O164 2.223 . S
Cd165 O168 2.297 . S
Cd165 O169 2.439 . S
Cd165 O175 2.240 . S
Cd166 O167 2.240 . S
Cd166 O174 2.223 . S
Cd166 O176 2.297 . S
Cd166 O177 2.439 . S
O167 Cd166 2.240 . S
O167 C172 1.279 . S
O168 Cd165 2.297 . S
O168 C170 1.247 . S
O169 Cd165 2.439 . S
O169 C170 1.208 . S
C170 O168 1.247 . S
C170 O169 1.208 . S
C171 O176 1.247 . S
C171 O177 1.208 . S
C172 O164 1.315 . S
C172 O167 1.279 . S
C173 O174 1.315 . S
C173 O175 1.279 . S
O174 Cd166 2.223 . S
O174 C173 1.315 . S
O175 Cd165 2.240 . S
O175 C173 1.279 . S
O176 Cd166 2.297 . S
O176 C171 1.247 . S
O177 Cd166 2.439 . S
O177 C171 1.208 . S
O178 Cd179 2.223 . S
O178 C186 1.315 . S
Cd179 O178 2.223 . S
Cd179 O182 2.297 . S
Cd179 O183 2.439 . S
Cd179 O189 2.240 . S
Cd180 O181 2.240 . S
Cd180 O188 2.223 . S
Cd180 O190 2.297 . S
Cd180 O191 2.439 . S
O181 Cd180 2.240 . S
O181 C186 1.279 . S
O182 Cd179 2.297 . S
O182 C184 1.247 . S
O183 Cd179 2.439 . S
O183 C184 1.208 . S
C184 O182 1.247 . S
C184 O183 1.208 . S
C185 O190 1.247 . S
C185 O191 1.208 . S
C186 O178 1.315 . S
C186 O181 1.279 . S
C187 O188 1.315 . S
C187 O189 1.279 . S
O188 Cd180 2.223 . S
O188 C187 1.315 . S
O189 Cd179 2.240 . S
O189 C187 1.279 . S
O190 Cd180 2.297 . S
O190 C185 1.247 . S
O191 Cd180 2.439 . S
O191 C185 1.208 . S
H192 C198 0.930 . S
H193 C201 0.930 . S
H194 C202 0.930 . S
H195 C203 0.930 . S
H196 C206 0.930 . S
H197 C207 0.930 . S
C198 H192 0.930 . S
C198 C199 1.355 . S
C198 C200 1.415 . S
C199 C198 1.355 . S
C199 C201 1.419 . S
C200 C198 1.415 . S
C200 C205 1.425 . S
C200 C207 1.409 . S
C201 H193 0.930 . S
C201 C199 1.419 . S
C201 C202 1.362 . S
C202 H194 0.930 . S
C202 C201 1.362 . S
C202 C205 1.409 . S
C203 H195 0.930 . S
C203 C204 1.355 . S
C203 C205 1.415 . S
C204 C203 1.355 . S
C204 C206 1.419 . S
C205 C200 1.425 . S
C205 C202 1.409 . S
C205 C203 1.415 . S
C206 H196 0.930 . S
C206 C204 1.419 . S
C206 C207 1.362 . S
C207 H197 0.930 . S
C207 C200 1.409 . S
C207 C206 1.362 . S
H208 C214 0.930 . S
H209 C217 0.930 . S
H210 C218 0.930 . S
H211 C219 0.930 . S
H212 C222 0.930 . S
H213 C223 0.930 . S
C214 H208 0.930 . S
C214 C215 1.355 . S
C214 C216 1.415 . S
C215 C214 1.355 . S
C215 C217 1.419 . S
C216 C214 1.415 . S
C216 C221 1.425 . S
C216 C223 1.409 . S
C217 H209 0.930 . S
C217 C215 1.419 . S
C217 C218 1.362 . S
C218 H210 0.930 . S
C218 C217 1.362 . S
C218 C221 1.409 . S
C219 H211 0.930 . S
C219 C220 1.355 . S
C219 C221 1.415 . S
C220 C219 1.355 . S
C220 C222 1.419 . S
C221 C216 1.425 . S
C221 C218 1.409 . S
C221 C219 1.415 . S
C222 H212 0.930 . S
C222 C220 1.419 . S
C222 C223 1.362 . S
C223 H213 0.930 . S
C223 C216 1.409 . S
C223 C222 1.362 . S
H224 C230 0.930 . S
H225 C233 0.930 . S
H226 C234 0.930 . S
H227 C235 0.930 . S
H228 C238 0.930 . S
H229 C239 0.930 . S
C230 H224 0.930 . S
C230 C231 1.355 . S
C230 C232 1.415 . S
C231 C230 1.355 . S
C231 C233 1.419 . S
C232 C230 1.415 . S
C232 C237 1.425 . S
C232 C239 1.409 . S
C233 H225 0.930 . S
C233 C231 1.419 . S
C233 C234 1.362 . S
C234 H226 0.930 . S
C234 C233 1.362 . S
C234 C237 1.409 . S
C235 H227 0.930 . S
C235 C236 1.355 . S
C235 C237 1.415 . S
C236 C235 1.355 . S
C236 C238 1.419 . S
C237 C232 1.425 . S
C237 C234 1.409 . S
C237 C235 1.415 . S
C238 H228 0.930 . S
C238 C236 1.419 . S
C238 C239 1.362 . S
C239 H229 0.930 . S
C239 C232 1.409 . S
C239 C238 1.362 . S
H240 C246 0.930 . S
H241 C249 0.930 . S
H242 C250 0.930 . S
H243 C251 0.930 . S
H244 C254 0.930 . S
H245 C255 0.930 . S
C246 H240 0.930 . S
C246 C247 1.355 . S
C246 C248 1.415 . S
C247 C246 1.355 . S
C247 C249 1.419 . S
C248 C246 1.415 . S
C248 C253 1.425 . S
C248 C255 1.409 . S
C249 H241 0.930 . S
C249 C247 1.419 . S
C249 C250 1.362 . S
C250 H242 0.930 . S
C250 C249 1.362 . S
C250 C253 1.409 . S
C251 H243 0.930 . S
C251 C252 1.355 . S
C251 C253 1.415 . S
C252 C251 1.355 . S
C252 C254 1.419 . S
C253 C248 1.425 . S
C253 C250 1.409 . S
C253 C251 1.415 . S
C254 H244 0.930 . S
C254 C252 1.419 . S
C254 C255 1.362 . S
C255 H245 0.930 . S
C255 C248 1.409 . S
C255 C254 1.362 . S
H256 C262 0.930 . S
H257 C265 0.930 . S
H258 C266 0.930 . S
H259 C267 0.930 . S
H260 C270 0.930 . S
H261 C271 0.930 . S
C262 H256 0.930 . S
C262 C263 1.355 . S
C262 C264 1.415 . S
C263 C262 1.355 . S
C263 C265 1.419 . S
C264 C262 1.415 . S
C264 C269 1.425 . S
C264 C271 1.409 . S
C265 H257 0.930 . S
C265 C263 1.419 . S
C265 C266 1.362 . S
C266 H258 0.930 . S
C266 C265 1.362 . S
C266 C269 1.409 . S
C267 H259 0.930 . S
C267 C268 1.355 . S
C267 C269 1.415 . S
C268 C267 1.355 . S
C268 C270 1.419 . S
C269 C264 1.425 . S
C269 C266 1.409 . S
C269 C267 1.415 . S
C270 H260 0.930 . S
C270 C268 1.419 . S
C270 C271 1.362 . S
C271 H261 0.930 . S
C271 C264 1.409 . S
C271 C270 1.362 . S
H272 C278 0.930 . S
H273 C281 0.930 . S
H274 C282 0.930 . S
H275 C283 0.930 . S
H276 C286 0.930 . S
H277 C287 0.930 . S
C278 H272 0.930 . S
C278 C279 1.355 . S
C278 C280 1.415 . S
C279 C278 1.355 . S
C279 C281 1.419 . S
C280 C278 1.415 . S
C280 C285 1.425 . S
C280 C287 1.409 . S
C281 H273 0.930 . S
C281 C279 1.419 . S
C281 C282 1.362 . S
C282 H274 0.930 . S
C282 C281 1.362 . S
C282 C285 1.409 . S
C283 H275 0.930 . S
C283 C284 1.355 . S
C283 C285 1.415 . S
C284 C283 1.355 . S
C284 C286 1.419 . S
C285 C280 1.425 . S
C285 C282 1.409 . S
C285 C283 1.415 . S
C286 H276 0.930 . S
C286 C284 1.419 . S
C286 C287 1.362 . S
C287 H277 0.930 . S
C287 C280 1.409 . S
C287 C286 1.362 . S
H288 C294 0.930 . S
H289 C297 0.930 . S
H290 C298 0.930 . S
H291 C299 0.930 . S
H292 C302 0.930 . S
H293 C303 0.930 . S
C294 H288 0.930 . S
C294 C295 1.355 . S
C294 C296 1.415 . S
C295 C294 1.355 . S
C295 C297 1.419 . S
C296 C294 1.415 . S
C296 C301 1.425 . S
C296 C303 1.409 . S
C297 H289 0.930 . S
C297 C295 1.419 . S
C297 C298 1.362 . S
C298 H290 0.930 . S
C298 C297 1.362 . S
C298 C301 1.409 . S
C299 H291 0.930 . S
C299 C300 1.355 . S
C299 C301 1.415 . S
C300 C299 1.355 . S
C300 C302 1.419 . S
C301 C296 1.425 . S
C301 C298 1.409 . S
C301 C299 1.415 . S
C302 H292 0.930 . S
C302 C300 1.419 . S
C302 C303 1.362 . S
C303 H293 0.930 . S
C303 C296 1.409 . S
C303 C302 1.362 . S
H304 C310 0.930 . S
H305 C313 0.930 . S
H306 C314 0.930 . S
H307 C315 0.930 . S
H308 C318 0.930 . S
H309 C319 0.930 . S
C310 H304 0.930 . S
C310 C311 1.355 . S
C310 C312 1.415 . S
C311 C310 1.355 . S
C311 C313 1.419 . S
C312 C310 1.415 . S
C312 C317 1.425 . S
C312 C319 1.409 . S
C313 H305 0.930 . S
C313 C311 1.419 . S
C313 C314 1.362 . S
C314 H306 0.930 . S
C314 C313 1.362 . S
C314 C317 1.409 . S
C315 H307 0.930 . S
C315 C316 1.355 . S
C315 C317 1.415 . S
C316 C315 1.355 . S
C316 C318 1.419 . S
C317 C312 1.425 . S
C317 C314 1.409 . S
C317 C315 1.415 . S
C318 H308 0.930 . S
C318 C316 1.419 . S
C318 C319 1.362 . S
C319 H309 0.930 . S
C319 C312 1.409 . S
C319 C318 1.362 . S
H320 C326 0.930 . S
H321 C329 0.930 . S
H322 C330 0.930 . S
H323 C331 0.930 . S
H324 C334 0.930 . S
H325 C335 0.930 . S
C326 H320 0.930 . S
C326 C327 1.355 . S
C326 C328 1.415 . S
C327 C326 1.355 . S
C327 C329 1.419 . S
C328 C326 1.415 . S
C328 C333 1.425 . S
C328 C335 1.409 . S
C329 H321 0.930 . S
C329 C327 1.419 . S
C329 C330 1.362 . S
C330 H322 0.930 . S
C330 C329 1.362 . S
C330 C333 1.409 . S
C331 H323 0.930 . S
C331 C332 1.355 . S
C331 C333 1.415 . S
C332 C331 1.355 . S
C332 C334 1.419 . S
C333 C328 1.425 . S
C333 C330 1.409 . S
C333 C331 1.415 . S
C334 H324 0.930 . S
C334 C332 1.419 . S
C334 C335 1.362 . S
C335 H325 0.930 . S
C335 C328 1.409 . S
C335 C334 1.362 . S
H336 C342 0.930 . S
H337 C345 0.930 . S
H338 C346 0.930 . S
H339 C347 0.930 . S
H340 C350 0.930 . S
H341 C351 0.930 . S
C342 H336 0.930 . S
C342 C343 1.355 . S
C342 C344 1.415 . S
C343 C342 1.355 . S
C343 C345 1.419 . S
C344 C342 1.415 . S
C344 C349 1.425 . S
C344 C351 1.409 . S
C345 H337 0.930 . S
C345 C343 1.419 . S
C345 C346 1.362 . S
C346 H338 0.930 . S
C346 C345 1.362 . S
C346 C349 1.409 . S
C347 H339 0.930 . S
C347 C348 1.355 . S
C347 C349 1.415 . S
C348 C347 1.355 . S
C348 C350 1.419 . S
C349 C344 1.425 . S
C349 C346 1.409 . S
C349 C347 1.415 . S
C350 H340 0.930 . S
C350 C348 1.419 . S
C350 C351 1.362 . S
C351 H341 0.930 . S
C351 C344 1.409 . S
C351 C350 1.362 . S
H352 C358 0.930 . S
H353 C361 0.930 . S
H354 C362 0.930 . S
H355 C363 0.930 . S
H356 C366 0.930 . S
H357 C367 0.930 . S
C358 H352 0.930 . S
C358 C359 1.355 . S
C358 C360 1.415 . S
C359 C358 1.355 . S
C359 C361 1.419 . S
C360 C358 1.415 . S
C360 C365 1.425 . S
C360 C367 1.409 . S
C361 H353 0.930 . S
C361 C359 1.419 . S
C361 C362 1.362 . S
C362 H354 0.930 . S
C362 C361 1.362 . S
C362 C365 1.409 . S
C363 H355 0.930 . S
C363 C364 1.355 . S
C363 C365 1.415 . S
C364 C363 1.355 . S
C364 C366 1.419 . S
C365 C360 1.425 . S
C365 C362 1.409 . S
C365 C363 1.415 . S
C366 H356 0.930 . S
C366 C364 1.419 . S
C366 C367 1.362 . S
C367 H357 0.930 . S
C367 C360 1.409 . S
C367 C366 1.362 . S
H368 C374 0.930 . S
H369 C377 0.930 . S
H370 C378 0.930 . S
H371 C379 0.930 . S
H372 C382 0.930 . S
H373 C383 0.930 . S
C374 H368 0.930 . S
C374 C375 1.355 . S
C374 C376 1.415 . S
C375 C374 1.355 . S
C375 C377 1.419 . S
C376 C374 1.415 . S
C376 C381 1.425 . S
C376 C383 1.409 . S
C377 H369 0.930 . S
C377 C375 1.419 . S
C377 C378 1.362 . S
C378 H370 0.930 . S
C378 C377 1.362 . S
C378 C381 1.409 . S
C379 H371 0.930 . S
C379 C380 1.355 . S
C379 C381 1.415 . S
C380 C379 1.355 . S
C380 C382 1.419 . S
C381 C376 1.425 . S
C381 C378 1.409 . S
C381 C379 1.415 . S
C382 H372 0.930 . S
C382 C380 1.419 . S
C382 C383 1.362 . S
C383 H373 0.930 . S
C383 C376 1.409 . S
C383 C382 1.362 . S
H384 C390 0.930 . S
H385 C393 0.930 . S
H386 C394 0.930 . S
H387 C395 0.930 . S
H388 C398 0.930 . S
H389 C399 0.930 . S
C390 H384 0.930 . S
C390 C391 1.355 . S
C390 C392 1.415 . S
C391 C390 1.355 . S
C391 C393 1.419 . S
C392 C390 1.415 . S
C392 C397 1.425 . S
C392 C399 1.409 . S
C393 H385 0.930 . S
C393 C391 1.419 . S
C393 C394 1.362 . S
C394 H386 0.930 . S
C394 C393 1.362 . S
C394 C397 1.409 . S
C395 H387 0.930 . S
C395 C396 1.355 . S
C395 C397 1.415 . S
C396 C395 1.355 . S
C396 C398 1.419 . S
C397 C392 1.425 . S
C397 C394 1.409 . S
C397 C395 1.415 . S
C398 H388 0.930 . S
C398 C396 1.419 . S
C398 C399 1.362 . S
C399 H389 0.930 . S
C399 C392 1.409 . S
C399 C398 1.362 . S
H400 C406 0.930 . S
H401 C409 0.930 . S
H402 C410 0.930 . S
H403 C411 0.930 . S
H404 C414 0.930 . S
H405 C415 0.930 . S
C406 H400 0.930 . S
C406 C407 1.355 . S
C406 C408 1.415 . S
C407 C406 1.355 . S
C407 C409 1.419 . S
C408 C406 1.415 . S
C408 C413 1.425 . S
C408 C415 1.409 . S
C409 H401 0.930 . S
C409 C407 1.419 . S
C409 C410 1.362 . S
C410 H402 0.930 . S
C410 C409 1.362 . S
C410 C413 1.409 . S
C411 H403 0.930 . S
C411 C412 1.355 . S
C411 C413 1.415 . S
C412 C411 1.355 . S
C412 C414 1.419 . S
C413 C408 1.425 . S
C413 C410 1.409 . S
C413 C411 1.415 . S
C414 H404 0.930 . S
C414 C412 1.419 . S
C414 C415 1.362 . S
C415 H405 0.930 . S
C415 C408 1.409 . S
C415 C414 1.362 . S
H416 C422 0.930 . S
H417 C425 0.930 . S
H418 C426 0.930 . S
H419 C427 0.930 . S
H420 C430 0.930 . S
H421 C431 0.930 . S
C422 H416 0.930 . S
C422 C423 1.355 . S
C422 C424 1.415 . S
C423 C422 1.355 . S
C423 C425 1.419 . S
C424 C422 1.415 . S
C424 C429 1.425 . S
C424 C431 1.409 . S
C425 H417 0.930 . S
C425 C423 1.419 . S
C425 C426 1.362 . S
C426 H418 0.930 . S
C426 C425 1.362 . S
C426 C429 1.409 . S
C427 H419 0.930 . S
C427 C428 1.355 . S
C427 C429 1.415 . S
C428 C427 1.355 . S
C428 C430 1.419 . S
C429 C424 1.425 . S
C429 C426 1.409 . S
C429 C427 1.415 . S
C430 H420 0.930 . S
C430 C428 1.419 . S
C430 C431 1.362 . S
C431 H421 0.930 . S
C431 C424 1.409 . S
C431 C430 1.362 . S
H432 C438 0.930 . S
H433 C441 0.930 . S
H434 C442 0.930 . S
H435 C443 0.930 . S
H436 C446 0.930 . S
H437 C447 0.930 . S
C438 H432 0.930 . S
C438 C439 1.355 . S
C438 C440 1.415 . S
C439 C438 1.355 . S
C439 C441 1.419 . S
C440 C438 1.415 . S
C440 C445 1.425 . S
C440 C447 1.409 1_556 S
C441 H433 0.930 . S
C441 C439 1.419 . S
C441 C442 1.362 . S
C442 H434 0.930 . S
C442 C441 1.362 . S
C442 C445 1.409 . S
C443 H435 0.930 . S
C443 C444 1.355 1_556 S
C443 C445 1.415 . S
C444 C443 1.355 1_554 S
C444 C446 1.419 . S
C445 C440 1.425 . S
C445 C442 1.409 . S
C445 C443 1.415 . S
C446 H436 0.930 . S
C446 C444 1.419 . S
C446 C447 1.362 . S
C447 H437 0.930 . S
C447 C440 1.409 1_554 S
C447 C446 1.362 . S
H448 C454 0.930 . S
H449 C457 0.930 . S
H450 C458 0.930 . S
H451 C459 0.930 . S
H452 C462 0.930 . S
H453 C463 0.930 . S
C454 H448 0.930 . S
C454 C455 1.355 . S
C454 C456 1.415 . S
C455 C454 1.355 . S
C455 C457 1.419 . S
C456 C454 1.415 . S
C456 C461 1.425 . S
C456 C463 1.409 . S
C457 H449 0.930 . S
C457 C455 1.419 . S
C457 C458 1.362 . S
C458 H450 0.930 . S
C458 C457 1.362 . S
C458 C461 1.409 . S
C459 H451 0.930 . S
C459 C460 1.355 . S
C459 C461 1.415 . S
C460 C459 1.355 . S
C460 C462 1.419 . S
C461 C456 1.425 . S
C461 C458 1.409 . S
C461 C459 1.415 . S
C462 H452 0.930 . S
C462 C460 1.419 . S
C462 C463 1.362 . S
C463 H453 0.930 . S
C463 C456 1.409 . S
C463 C462 1.362 . S
H464 C470 0.930 . S
H465 C473 0.930 . S
H466 C474 0.930 . S
H467 C475 0.930 . S
H468 C478 0.930 . S
H469 C479 0.930 . S
C470 H464 0.930 . S
C470 C471 1.355 . S
C470 C472 1.415 . S
C471 C470 1.355 . S
C471 C473 1.419 . S
C472 C470 1.415 . S
C472 C477 1.425 . S
C472 C479 1.409 . S
C473 H465 0.930 . S
C473 C471 1.419 . S
C473 C474 1.362 . S
C474 H466 0.930 . S
C474 C473 1.362 . S
C474 C477 1.409 . S
C475 H467 0.930 . S
C475 C476 1.355 . S
C475 C477 1.415 . S
C476 C475 1.355 . S
C476 C478 1.419 . S
C477 C472 1.425 . S
C477 C474 1.409 . S
C477 C475 1.415 . S
C478 H468 0.930 . S
C478 C476 1.419 . S
C478 C479 1.362 . S
C479 H469 0.930 . S
C479 C472 1.409 . S
C479 C478 1.362 . S
H480 C486 0.930 . S
H481 C489 0.930 . S
H482 C490 0.930 . S
H483 C491 0.930 . S
H484 C494 0.930 . S
H485 C495 0.930 . S
C486 H480 0.930 . S
C486 C487 1.355 . S
C486 C488 1.415 . S
C487 C486 1.355 . S
C487 C489 1.419 . S
C488 C486 1.415 . S
C488 C493 1.425 . S
C488 C495 1.409 . S
C489 H481 0.930 . S
C489 C487 1.419 . S
C489 C490 1.362 . S
C490 H482 0.930 . S
C490 C489 1.362 . S
C490 C493 1.409 . S
C491 H483 0.930 . S
C491 C492 1.355 . S
C491 C493 1.415 . S
C492 C491 1.355 . S
C492 C494 1.419 . S
C493 C488 1.425 . S
C493 C490 1.409 . S
C493 C491 1.415 . S
C494 H484 0.930 . S
C494 C492 1.419 . S
C494 C495 1.362 . S
C495 H485 0.930 . S
C495 C488 1.409 . S
C495 C494 1.362 . S
H496 C502 0.930 . S
H497 C505 0.930 . S
H498 C506 0.930 . S
H499 C507 0.930 . S
H500 C510 0.930 . S
H501 C511 0.930 . S
C502 H496 0.930 . S
C502 C503 1.355 . S
C502 C504 1.415 . S
C503 C502 1.355 . S
C503 C505 1.419 . S
C504 C502 1.415 . S
C504 C509 1.425 . S
C504 C511 1.409 . S
C505 H497 0.930 . S
C505 C503 1.419 . S
C505 C506 1.362 . S
C506 H498 0.930 . S
C506 C505 1.362 . S
C506 C509 1.409 . S
C507 H499 0.930 . S
C507 C508 1.355 . S
C507 C509 1.415 . S
C508 C507 1.355 . S
C508 C510 1.419 . S
C509 C504 1.425 . S
C509 C506 1.409 . S
C509 C507 1.415 . S
C510 H500 0.930 . S
C510 C508 1.419 . S
C510 C511 1.362 . S
C511 H501 0.930 . S
C511 C504 1.409 . S
C511 C510 1.362 . S
H512 C518 0.930 . S
H513 C521 0.930 . S
H514 C522 0.930 . S
H515 C523 0.930 . S
H516 C526 0.930 . S
H517 C527 0.930 . S
C518 H512 0.930 . S
C518 C519 1.355 . S
C518 C520 1.415 . S
C519 C518 1.355 . S
C519 C521 1.419 . S
C520 C518 1.415 . S
C520 C525 1.425 . S
C520 C527 1.409 . S
C521 H513 0.930 . S
C521 C519 1.419 . S
C521 C522 1.362 . S
C522 H514 0.930 . S
C522 C521 1.362 . S
C522 C525 1.409 . S
C523 H515 0.930 . S
C523 C524 1.355 . S
C523 C525 1.415 . S
C524 C523 1.355 . S
C524 C526 1.419 . S
C525 C520 1.425 . S
C525 C522 1.409 . S
C525 C523 1.415 . S
C526 H516 0.930 . S
C526 C524 1.419 . S
C526 C527 1.362 . S
C527 H517 0.930 . S
C527 C520 1.409 . S
C527 C526 1.362 . S
H528 C534 0.930 . S
H529 C537 0.930 . S
H530 C538 0.930 . S
H531 C539 0.930 . S
H532 C542 0.930 . S
H533 C543 0.930 . S
C534 H528 0.930 . S
C534 C535 1.355 . S
C534 C536 1.415 . S
C535 C534 1.355 . S
C535 C537 1.419 . S
C536 C534 1.415 . S
C536 C541 1.425 . S
C536 C543 1.409 . S
C537 H529 0.930 . S
C537 C535 1.419 . S
C537 C538 1.362 . S
C538 H530 0.930 . S
C538 C537 1.362 . S
C538 C541 1.409 . S
C539 H531 0.930 . S
C539 C540 1.355 . S
C539 C541 1.415 . S
C540 C539 1.355 . S
C540 C542 1.419 . S
C541 C536 1.425 . S
C541 C538 1.409 . S
C541 C539 1.415 . S
C542 H532 0.930 . S
C542 C540 1.419 . S
C542 C543 1.362 . S
C543 H533 0.930 . S
C543 C536 1.409 . S
C543 C542 1.362 . S
H544 C550 0.930 . S
H545 C553 0.930 . S
H546 C554 0.930 1_556 S
H547 C555 0.930 . S
H548 C558 0.930 . S
H549 C559 0.930 . S
C550 H544 0.930 . S
C550 C551 1.355 . S
C550 C552 1.415 . S
C551 C550 1.355 . S
C551 C553 1.419 . S
C552 C550 1.415 . S
C552 C557 1.425 . S
C552 C559 1.409 . S
C553 H545 0.930 . S
C553 C551 1.419 . S
C553 C554 1.362 . S
C554 H546 0.930 1_554 S
C554 C553 1.362 . S
C554 C557 1.409 . S
C555 H547 0.930 . S
C555 C556 1.355 . S
C555 C557 1.415 1_556 S
C556 C555 1.355 . S
C556 C558 1.419 1_556 S
C557 C552 1.425 . S
C557 C554 1.409 . S
C557 C555 1.415 1_554 S
C558 H548 0.930 . S
C558 C556 1.419 1_554 S
C558 C559 1.362 . S
C559 H549 0.930 . S
C559 C552 1.409 . S
C559 C558 1.362 . S
H560 C566 0.930 . S
H561 C569 0.930 . S
H562 C570 0.930 . S
H563 C571 0.930 . S
H564 C574 0.930 . S
H565 C575 0.930 . S
C566 H560 0.930 . S
C566 C567 1.355 . S
C566 C568 1.415 . S
C567 C566 1.355 . S
C567 C569 1.419 . S
C568 C566 1.415 . S
C568 C573 1.425 . S
C568 C575 1.409 . S
C569 H561 0.930 . S
C569 C567 1.419 . S
C569 C570 1.362 . S
C570 H562 0.930 . S
C570 C569 1.362 . S
C570 C573 1.409 . S
C571 H563 0.930 . S
C571 C572 1.355 . S
C571 C573 1.415 . S
C572 C571 1.355 . S
C572 C574 1.419 . S
C573 C568 1.425 . S
C573 C570 1.409 . S
C573 C571 1.415 . S
C574 H564 0.930 . S
C574 C572 1.419 . S
C574 C575 1.362 . S
C575 H565 0.930 . S
C575 C568 1.409 . S
C575 C574 1.362 . S
C204 C185 1.497 . S
C199 C8 1.450 . S
C215 C26 1.416 . S
C220 C114 1.448 . S
C231 C50 1.468 . S
C236 C128 1.459 . S
C247 C68 1.471 . S
C252 C142 1.460 . S
C268 C156 1.481 . S
C263 C80 1.427 . S
C279 C104 1.457 . S
C284 C171 1.504 . S
C295 C32 1.495 . S
C300 C129 1.500 . S
C311 C44 1.430 . S
C316 C143 1.484 . S
C327 C62 1.480 . S
C332 C157 1.501 . S
C348 C170 1.490 . S
C343 C86 1.432 . S
C364 C184 1.458 . S
C359 C98 1.470 . S
C380 C115 1.446 . S
C375 C14 1.419 . S
C391 C7 1.502 . S
C396 C131 1.500 . S
C407 C25 1.497 . S
C412 C145 1.537 . S
C428 C159 1.526 . S
C423 C52 1.455 . S
C439 C70 1.454 . S
C444 C172 1.520 . S
C460 C186 1.525 . S
C455 C79 1.450 . S
C476 C117 1.529 . S
C471 C106 1.457 . S
C492 C187 1.493 . S
C487 C34 1.496 . S
C503 C43 1.447 . S
C508 C116 1.508 . S
C524 C130 1.509 . S
C519 C61 1.451 . S
C535 C88 1.491 . S
C540 C144 1.493 . S
C551 C97 1.515 . S
C556 C158 1.513 . S
C567 C16 1.510 . S
C572 C173 1.534 . S
