# Generated by pormake.
# Topology pts, (4,4)-cn, num edge types: 1
# Building blocks:
#     Node 0, Type 0, BuildingBlock: NAWXER_clean_linker_0, # of connection points: 4
#     Node 1, Type 0, BuildingBlock: NAWXER_clean_linker_0, # of connection points: 4
#     Node 2, Type 1, BuildingBlock: UXUYUI_clean_sbu_0, # of connection points: 4
#     Node 3, Type 1, BuildingBlock: UXUYUI_clean_sbu_0, # of connection points: 4
#     Edge 4, Type (0, 1), BuildingBlock: ZUJKAS_clean_linker_0, # of connection points: 2
#     Edge 5, Type (0, 1), BuildingBlock: ZUJKAS_clean_linker_0, # of connection points: 2
#     Edge 6, Type (0, 1), BuildingBlock: ZUJKAS_clean_linker_0, # of connection points: 2
#     Edge 7, Type (0, 1), BuildingBlock: ZUJKAS_clean_linker_0, # of connection points: 2
#     Edge 8, Type (0, 1), BuildingBlock: ZUJKAS_clean_linker_0, # of connection points: 2
#     Edge 9, Type (0, 1), BuildingBlock: ZUJKAS_clean_linker_0, # of connection points: 2
#     Edge 10, Type (0, 1), BuildingBlock: ZUJKAS_clean_linker_0, # of connection points: 2
#     Edge 11, Type (0, 1), BuildingBlock: ZUJKAS_clean_linker_0, # of connection points: 2
# Relax obj value: 0.000
# Max RMSD: 0.009
# Mean RMSD: 0.008
data_MOF--net-pts--node1-UXUYUI_clean_sbu_0--node2-NAWXER_clean_linker_0--edge1-ZUJKAS_clean_linker_0
_symmetry_space_group_name_H-M    P1
_symmetry_Int_Tables_number       1
_symmetry_cell_setting            triclinic
loop_
_symmetry_equiv_pos_as_xyz
'x, y, z'
_cell_length_a     42.642618
_cell_length_b     42.631341
_cell_length_c     61.508888
_cell_angle_alpha  89.995175
_cell_angle_beta   90.023063
_cell_angle_gamma 89.99391
loop_
_atom_site_label
_atom_site_type_symbol
_atom_site_fract_x
_atom_site_fract_y
_atom_site_fract_z
_atom_type_partial_charge
C0 C 0.60927 0.02079 0.96805 0.0
C1 C 0.61247 0.99859 0.95127 0.0
C2 C 0.58241 0.02128 0.98106 0.0
C3 C 0.55839 0.99919 0.97785 0.0
C4 C 0.58814 0.97683 0.94789 0.0
C5 C 0.56139 0.9772 0.961 0.0
C6 C 0.52932 0.99989 0.99105 0.0
C7 C 0.60701 0.97898 0.03852 0.0
C8 C 0.61195 0.00286 0.05396 0.0
C9 C 0.58027 0.97913 0.02536 0.0
C10 C 0.55799 0.00322 0.0273 0.0
C11 C 0.58944 0.02686 0.05588 0.0
C12 C 0.56263 0.02686 0.04281 0.0
C13 C 0.52916 0.0032 0.01392 0.0
C14 C 0.39447 0.97997 0.03736 0.0
C15 C 0.3899 0.00334 0.05319 0.0
C16 C 0.4214 0.98 0.02442 0.0
C17 C 0.44417 0.00354 0.02694 0.0
C18 C 0.4129 0.02667 0.05581 0.0
C19 C 0.43986 0.02663 0.0429 0.0
C20 C 0.47319 0.0034 0.01374 0.0
C21 C 0.39404 0.02227 0.96728 0.0
C22 C 0.3905 0.99976 0.95073 0.0
C23 C 0.42081 0.02247 0.98039 0.0
C24 C 0.44441 0.99985 0.97748 0.0
C25 C 0.4144 0.97744 0.94766 0.0
C26 C 0.4411 0.97758 0.96084 0.0
C27 C 0.47331 1.00016 0.99087 0.0
H28 H 0.62758 0.03779 0.97122 0.0
H29 H 0.5803 0.0392 0.99344 0.0
H30 H 0.58948 0.95982 0.93485 0.0
H31 H 0.54298 0.96024 0.95797 0.0
H32 H 0.62348 0.9598 0.03689 0.0
H33 H 0.57678 0.96017 0.01389 0.0
H34 H 0.59263 0.04584 0.06736 0.0
H35 H 0.54564 0.04558 0.04464 0.0
H36 H 0.37713 0.96175 0.03489 0.0
H37 H 0.42455 0.96147 0.01258 0.0
H38 H 0.41031 0.04469 0.06809 0.0
H39 H 0.45732 0.04476 0.04532 0.0
H40 H 0.37605 0.0397 0.97018 0.0
H41 H 0.42318 0.04052 0.99267 0.0
H42 H 0.41275 0.96015 0.93481 0.0
H43 H 0.45919 0.96019 0.95806 0.0
N44 N 0.50137 0.99834 0.98047 0.0
N45 N 0.50112 0.00501 0.02434 0.0
C46 C 0.02359 0.60904 0.53681 0.0
C47 C 1.00076 0.61325 0.55305 0.0
C48 C 0.02354 0.5821 0.52387 0.0
C49 C 1.00046 0.55896 0.52673 0.0
C50 C 0.97785 0.5899 0.556 0.0
C51 C 0.97783 0.56295 0.54305 0.0
C52 C 1.00074 0.5298 0.51364 0.0
C53 C 0.98045 0.60759 0.46619 0.0
C54 C 0.00426 0.61226 0.45068 0.0
C55 C 0.98045 0.5809 0.47939 0.0
C56 C 0.00431 0.55838 0.47741 0.0
C57 C 0.02805 0.58954 0.44873 0.0
C58 C 0.0279 0.56277 0.46184 0.0
C59 C 0.00405 0.52954 0.49079 0.0
C60 C 0.98124 0.39428 0.46787 0.0
C61 C 0.00384 0.3903 0.45145 0.0
C62 C 0.98128 0.42119 0.48084 0.0
C63 C 0.00421 0.44447 0.47788 0.0
C64 C 0.02653 0.41382 0.44837 0.0
C65 C 0.02661 0.44068 0.46139 0.0
C66 C 0.00405 0.47356 0.49105 0.0
C67 C 0.02383 0.39498 0.53778 0.0
C68 C 1.00105 0.39109 0.5541 0.0
C69 C 0.02382 0.42174 0.52466 0.0
C70 C 1.00077 0.44496 0.52737 0.0
C71 C 0.97826 0.41459 0.55695 0.0
C72 C 0.97823 0.4413 0.54379 0.0
C73 C 1.00086 0.47379 0.51393 0.0
H74 H 0.04147 0.62663 0.53404 0.0
H75 H 0.04182 0.57919 0.51182 0.0
H76 H 0.96026 0.59216 0.5686 0.0
H77 H 0.96006 0.54522 0.54576 0.0
H78 H 0.96141 0.62422 0.46785 0.0
H79 H 0.96153 0.5776 0.49091 0.0
H80 H 0.04698 0.59252 0.43719 0.0
H81 H 0.04644 0.54559 0.45997 0.0
H82 H 0.96308 0.37689 0.47038 0.0
H83 H 0.96308 0.42401 0.49297 0.0
H84 H 0.04443 0.41136 0.43599 0.0
H85 H 0.04436 0.45844 0.45868 0.0
H86 H 0.04207 0.37763 0.53545 0.0
H87 H 0.0421 0.42447 0.51259 0.0
H88 H 0.96023 0.41219 0.56924 0.0
H89 H 0.96038 0.45903 0.5463 0.0
N90 N 0.99912 0.50191 0.5243 0.0
N91 N 0.00573 0.50146 0.48041 0.0
Li92 Li 0.00234 0.02969 0.26751 0.0
Li93 Li 1.00061 0.97235 0.26597 0.0
Li94 Li 0.02959 0.00272 0.23717 0.0
Li95 Li 0.9722 1.00078 0.23854 0.0
C96 C 0.06465 0.01012 0.27927 0.0
N97 N 0.11851 0.0307 0.29989 0.0
C98 C 0.07303 0.99801 0.2996 0.0
C99 C 0.0841 0.03221 0.26927 0.0
C100 C 0.10021 0.00886 0.30982 0.0
C101 C 0.11112 0.04244 0.27999 0.0
C102 C 0.94929 0.9884 0.28735 0.0
C103 C 0.91653 0.94714 0.30164 0.0
N104 N 0.919 0.95995 0.32182 0.0
C105 C 0.9513 1.0013 0.30819 0.0
C106 C 0.93155 0.96125 0.28399 0.0
C107 C 0.93587 0.98653 0.32542 0.0
C108 C 0.98723 0.09165 0.27977 0.0
N109 N 0.00255 0.06531 0.28629 0.0
C110 C 0.01741 0.08995 0.31965 0.0
C111 C 0.01718 0.06389 0.30591 0.0
C112 C 0.00227 0.11771 0.3132 0.0
C113 C 0.98696 0.11831 0.29297 0.0
H114 H 0.97522 0.09194 0.26429 0.0
H115 H 0.0284 0.04244 0.31102 0.0
C116 C 0.99814 0.90689 0.27465 0.0
N117 N 1.00126 0.93573 0.2838 0.0
C118 C 0.99774 0.88006 0.2877 0.0
C119 C 0.00423 0.91312 0.3193 0.0
C120 C 0.00435 0.93927 0.30565 0.0
C121 C 1.00079 0.88295 0.31039 0.0
H122 H 0.99581 0.9047 0.25723 0.0
H123 H 0.00668 0.96249 0.31252 0.0
C124 C 0.00973 0.06511 0.22557 0.0
N125 N 0.03012 0.11926 0.20523 0.0
C126 C 0.99713 0.07398 0.20549 0.0
C127 C 0.03225 0.08419 0.23547 0.0
C128 C 0.00788 0.10131 0.19541 0.0
C129 C 0.04236 0.11136 0.22489 0.0
C130 C 0.98886 0.94986 0.21687 0.0
C131 C 0.00194 0.95268 0.19613 0.0
C132 C 0.96198 0.93159 0.21983 0.0
C133 C 0.98762 0.9375 0.17861 0.0
C134 C 0.94832 0.91683 0.20189 0.0
N135 N 0.96131 0.92008 0.18182 0.0
C136 C 0.09099 0.98622 0.22482 0.0
C137 C 0.06498 0.01907 0.1995 0.0
C138 C 0.11786 0.98574 0.21184 0.0
N139 N 0.06541 0.00301 0.21859 0.0
C140 C 0.09133 0.01929 0.18604 0.0
C141 C 0.1183 0.00255 0.19219 0.0
H142 H 0.09055 0.97334 0.23996 0.0
H143 H 0.04407 0.03136 0.19452 0.0
C144 C 0.90683 0.99783 0.22969 0.0
N145 N 0.93567 1.00134 0.22062 0.0
C146 C 0.88007 0.9973 0.21658 0.0
C147 C 0.91316 0.0045 0.18509 0.0
C148 C 0.93925 0.00475 0.19879 0.0
C149 C 0.88301 1.00063 0.19392 0.0
H150 H 0.9046 0.99529 0.24709 0.0
H151 H 0.96246 0.00743 0.19199 0.0
O152 O 0.03809 0.99962 0.26904 0.0
O153 O 0.9647 0.00223 0.27035 0.0
O154 O 0.9994 0.03837 0.23565 0.0
O155 O 0.00224 0.96501 0.23415 0.0
H156 H 0.05866 0.98053 0.30748 0.0
H157 H 0.07878 0.04103 0.25325 0.0
H158 H 0.10678 0.99986 0.32562 0.0
H159 H 0.1263 0.05958 0.27241 0.0
H160 H 0.90295 0.92598 0.2993 0.0
H161 H 0.96476 0.02237 0.31108 0.0
H162 H 0.92971 0.95097 0.26798 0.0
H163 H 0.93737 0.99616 0.34166 0.0
H164 H 0.02958 0.08845 0.33507 0.0
H165 H 0.97452 0.13902 0.28752 0.0
H166 H 0.99465 0.85736 0.2801 0.0
H167 H 0.00712 0.91655 0.33662 0.0
H168 H 0.97933 0.05989 0.19771 0.0
H169 H 0.04145 0.07847 0.25132 0.0
H170 H 0.99848 0.10828 0.1798 0.0
H171 H 0.05981 0.12627 0.23239 0.0
H172 H 0.02279 0.9666 0.19354 0.0
H173 H 0.95157 0.92911 0.23575 0.0
H174 H 0.9974 0.93962 0.16245 0.0
H175 H 0.92737 0.90284 0.20392 0.0
H176 H 0.13818 0.97266 0.21726 0.0
H177 H 0.09041 0.03202 0.17082 0.0
H178 H 0.85738 0.99388 0.22412 0.0
H179 H 0.91662 0.00762 0.16779 0.0
Li180 Li 0.97293 0.00224 0.76741 0.0
Li181 Li 0.03039 1.00022 0.76626 0.0
Li182 Li 1.00049 0.02966 0.73739 0.0
Li183 Li 0.00212 0.97228 0.73845 0.0
C184 C 0.99299 0.0642 0.77979 0.0
N185 N 0.97274 0.11769 0.80099 0.0
C186 C 0.0059 0.07256 0.79987 0.0
C187 C 0.97019 0.08341 0.77034 0.0
C188 C 0.99523 0.09957 0.81039 0.0
C189 C 0.96017 0.11026 0.78134 0.0
C190 C 0.01324 0.94863 0.78733 0.0
C191 C 0.05313 0.91452 0.80199 0.0
N192 N 0.03998 0.91731 0.82203 0.0
C193 C 0.99996 0.95095 0.80804 0.0
C194 C 0.03988 0.93006 0.78422 0.0
C195 C 0.01387 0.93499 0.82539 0.0
C196 C 0.91144 0.98561 0.77954 0.0
N197 N 0.93702 0.00231 0.78589 0.0
C198 C 0.91114 0.018 0.8186 0.0
C199 C 0.93745 0.01805 0.80511 0.0
C200 C 0.88424 1.00124 0.81238 0.0
C201 C 0.88464 0.98478 0.79259 0.0
H202 H 0.91187 0.97299 0.76429 0.0
H203 H 0.95837 0.03025 0.81018 0.0
C204 C 0.09573 0.99841 0.77521 0.0
N205 N 0.06677 1.00054 0.78431 0.0
C206 C 0.12247 0.99809 0.78833 0.0
C207 C 0.08909 0.00245 0.81993 0.0
C208 C 0.06304 0.00271 0.8062 0.0
C209 C 0.11935 1.00008 0.81105 0.0
H210 H 0.09808 0.99692 0.75775 0.0
H211 H 0.03975 0.00455 0.81301 0.0
C212 C 0.93858 0.0103 0.72487 0.0
N213 N 0.88554 0.0312 0.7034 0.0
C214 C 0.93111 0.99863 0.70426 0.0
C215 C 0.91865 0.03211 0.73472 0.0
C216 C 0.90433 0.00964 0.69362 0.0
C217 C 0.89207 0.0425 0.72358 0.0
C218 C 0.05418 0.9887 0.71768 0.0
C219 C 0.05298 0.00198 0.69692 0.0
C220 C 0.07188 0.96156 0.72115 0.0
C221 C 0.06914 0.98757 0.67987 0.0
C222 C 0.08767 0.94782 0.70367 0.0
N223 N 0.08596 0.96099 0.68357 0.0
C224 C 0.01495 0.09214 0.72584 0.0
C225 C 0.98673 0.06411 0.69895 0.0
C226 C 0.01533 0.11894 0.71278 0.0
N227 N 1.00043 0.06559 0.71888 0.0
C228 C 0.98663 0.0903 0.68532 0.0
C229 C 1.00096 0.11826 0.69222 0.0
H230 H 0.0263 0.09249 0.74157 0.0
H231 H 0.97619 0.0425 0.69348 0.0
C232 C 0.00294 0.90693 0.72951 0.0
N233 N 1.0015 0.93593 0.72039 0.0
C234 C 0.00326 0.88018 0.71638 0.0
C235 C 1.00033 0.91367 0.68473 0.0
C236 C 0.99999 0.93971 0.69847 0.0
C237 C 0.00207 0.88337 0.69365 0.0
H238 H 0.00395 0.90455 0.74699 0.0
H239 H 0.99872 0.96303 0.69164 0.0
O240 O 0.0032 0.03775 0.76931 0.0
O241 O 1.00022 0.96447 0.77021 0.0
O242 O 0.96473 0.99966 0.73552 0.0
O243 O 0.03809 0.0022 0.73449 0.0
H244 H 0.02388 0.05831 0.80733 0.0
H245 H 0.96071 0.07802 0.75451 0.0
H246 H 0.00487 0.10616 0.826 0.0
H247 H 0.9425 0.12528 0.77419 0.0
H248 H 0.07389 0.90027 0.79984 0.0
H249 H 0.97927 0.96507 0.81074 0.0
H250 H 0.05037 0.92787 0.7683 0.0
H251 H 0.00395 0.93673 0.84153 0.0
H252 H 0.91206 0.03046 0.83393 0.0
H253 H 0.86434 0.97169 0.78714 0.0
H254 H 0.1453 0.99593 0.78078 0.0
H255 H 0.08555 0.00451 0.83731 0.0
H256 H 0.9459 0.9814 0.69649 0.0
H257 H 0.92332 0.04061 0.75093 0.0
H258 H 0.89846 1.00099 0.67759 0.0
H259 H 0.87652 0.05944 0.73102 0.0
H260 H 0.03958 0.02308 0.69396 0.0
H261 H 0.07318 0.95104 0.73711 0.0
H262 H 0.06827 0.9975 0.6637 0.0
H263 H 0.10124 0.92666 0.7061 0.0
H264 H 0.02716 0.1398 0.71858 0.0
H265 H 0.9752 0.08873 0.66963 0.0
H266 H 0.00491 0.8573 0.72394 0.0
H267 H 0.99891 0.91724 0.66733 0.0
H268 H 0.36225 0.95299 0.07305 0.0
H269 H 0.31556 0.95287 0.09622 0.0
H270 H 0.30717 0.05306 0.08859 0.0
H271 H 0.35342 0.05333 0.06502 0.0
H272 H 0.3068 0.98707 0.13581 0.0
H273 H 0.21905 0.01931 0.07283 0.0
H274 H 0.2576 0.00471 0.06611 0.0
H275 H 0.25256 0.04476 0.07448 0.0
C276 C 0.35023 0.97494 0.07607 0.0
C277 C 0.36145 0.00316 0.06712 0.0
C278 C 0.3237 0.97485 0.08942 0.0
C279 C 0.30775 0.00289 0.09389 0.0
C280 C 0.3189 0.0311 0.08506 0.0
H281 H 0.1443 0.05213 0.17043 0.0
H282 H 0.19068 0.05191 0.14702 0.0
C283 C 0.34549 0.03125 0.07178 0.0
C284 C 0.27989 0.00272 0.10825 0.0
H285 H 0.20135 0.01811 0.10932 0.0
C286 C 0.28369 0.99371 0.13003 0.0
C287 C 0.24987 0.01152 0.10064 0.0
C288 C 0.24431 0.02039 0.0772 0.0
C289 C 0.2583 0.9938 0.14456 0.0
C290 C 0.22821 0.0025 0.13693 0.0
C291 C 0.22444 0.01148 0.11512 0.0
C292 C 0.20031 0.00246 0.1513 0.0
C293 C 0.26407 0.98531 0.16804 0.0
C294 C 0.19014 0.97465 0.16127 0.0
C295 C 0.16364 0.97469 0.17464 0.0
C296 C 0.14661 0.00251 0.17811 0.0
C297 C 0.15671 0.03026 0.16792 0.0
C298 C 0.18327 0.03021 0.15461 0.0
H299 H 0.28924 0.98756 0.17245 0.0
H300 H 0.25006 1.0004 0.17909 0.0
H301 H 0.25702 0.96057 0.17077 0.0
H302 H 0.20249 0.95282 0.1585 0.0
H303 H 0.15615 0.95282 0.18193 0.0
H304 H 0.99116 0.38816 0.59803 0.0
H305 H 0.99158 0.3416 0.62128 0.0
H306 H 0.01185 0.28363 0.56559 0.0
H307 H 0.01131 0.33005 0.54218 0.0
H308 H 0.95411 0.28786 0.61858 0.0
H309 H 0.08021 0.25844 0.60904 0.0
H310 H 0.06423 0.29603 0.60129 0.0
H311 H 0.0592 0.26253 0.58389 0.0
C312 C 0.99553 0.36549 0.5907 0.0
C313 C 1.0013 0.36283 0.56825 0.0
C314 C 0.99591 0.33894 0.60403 0.0
C315 C 0.00222 0.30926 0.59521 0.0
C316 C 0.00765 0.30643 0.5728 0.0
H317 H 0.01093 0.1209 0.64827 0.0
H318 H 0.01027 0.1673 0.62485 0.0
C319 C 0.00732 0.33297 0.55945 0.0
C320 C 0.00237 0.28118 0.60943 0.0
H321 H 0.04861 0.22118 0.6275 0.0
C322 C 0.97479 0.27334 0.62062 0.0
C323 C 0.0294 0.26229 0.61201 0.0
C324 C 0.06005 0.27032 0.60109 0.0
C325 C 0.97334 0.24678 0.63408 0.0
C326 C 1.00036 0.2279 0.63665 0.0
C327 C 0.02794 0.23571 0.62545 0.0
C328 C 1.00051 0.1999 0.65093 0.0
C329 C 0.94273 0.23879 0.64506 0.0
C330 C 0.99558 0.20294 0.67338 0.0
C331 C 0.99579 0.17647 0.68679 0.0
C332 C 1.00104 0.14646 0.678 0.0
C333 C 0.00632 0.14359 0.65551 0.0
C334 C 0.00616 0.17009 0.64212 0.0
H335 H 0.92256 0.25083 0.63725 0.0
H336 H 0.93845 0.2131 0.64476 0.0
H337 H 0.94375 0.24638 0.66231 0.0
H338 H 0.99169 0.22581 0.68055 0.0
H339 H 0.99144 0.17947 0.70402 0.0
H340 H 0.61588 0.01866 0.09709 0.0
H341 H 0.66242 0.01889 0.12023 0.0
H342 H 0.71818 0.9848 0.06674 0.0
H343 H 0.67212 0.98605 0.04314 0.0
H344 H 0.69986 0.97078 0.13237 0.0
H345 H 0.76972 0.05869 0.08686 0.0
H346 H 0.72853 0.05237 0.08176 0.0
H347 H 0.75733 0.0262 0.07043 0.0
C348 C 0.63813 0.01175 0.0901 0.0
C349 C 0.64024 0.00259 0.06816 0.0
C350 C 0.66468 0.01164 0.10342 0.0
C351 C 0.69389 0.00237 0.09514 0.0
C352 C 0.69604 0.99273 0.07337 0.0
H353 H 0.8771 0.9739 0.15354 0.0
H354 H 0.83112 0.97414 0.12975 0.0
C355 C 0.66954 0.99303 0.05997 0.0
C356 C 0.72189 0.00204 0.10948 0.0
H357 H 0.79623 0.03091 0.11493 0.0
C358 C 0.72086 0.98405 0.12861 0.0
C359 C 0.74928 0.01941 0.10456 0.0
C360 C 0.75127 0.0405 0.0849 0.0
C361 C 0.74663 0.98265 0.14279 0.0
C362 C 0.77402 0.99979 0.13775 0.0
C363 C 0.77516 0.0177 0.11864 0.0
C364 C 0.8017 0.99965 0.15225 0.0
C365 C 0.74461 0.96251 0.16291 0.0
C366 C 0.80037 0.01419 0.17267 0.0
C367 C 0.8267 0.01447 0.18621 0.0
C368 C 0.85487 1.00015 0.17958 0.0
C369 C 0.856 0.98556 0.15906 0.0
C370 C 0.8297 0.98548 0.14548 0.0
H371 H 0.72428 0.94623 0.16235 0.0
H372 H 0.76642 0.94859 0.165 0.0
H373 H 0.74199 0.97783 0.17738 0.0
H374 H 0.77905 0.02565 0.17802 0.0
H375 H 0.82511 0.02639 0.20172 0.0
H376 H 0.95075 0.64851 0.56665 0.0
H377 H 0.95152 0.69452 0.59043 0.0
H378 H 0.05227 0.68852 0.59472 0.0
H379 H 0.05167 0.64195 0.57149 0.0
H380 H 0.02289 0.6969 0.63492 0.0
H381 H 0.98036 0.78333 0.57416 0.0
H382 H 0.95569 0.74947 0.57721 0.0
H383 H 0.99471 0.745 0.56663 0.0
C384 C 0.97307 0.65688 0.57273 0.0
C385 C 1.00116 0.64161 0.56711 0.0
C386 C 0.97348 0.68338 0.58613 0.0
C387 C 0.00199 0.69518 0.59406 0.0
C388 C 0.03004 0.6799 0.58862 0.0
H389 H 0.03397 0.87579 0.65538 0.0
H390 H 0.03433 0.82987 0.63154 0.0
C391 C 0.02966 0.65343 0.57522 0.0
C392 C 0.00254 0.72302 0.60848 0.0
H393 H 0.98371 0.8008 0.61076 0.0
C394 C 0.0144 0.71965 0.62964 0.0
C395 C 0.99179 0.75273 0.60144 0.0
C396 C 0.98017 0.75805 0.57856 0.0
C397 C 0.01537 0.74512 0.64409 0.0
C398 C 0.00375 0.77459 0.63727 0.0
C399 C 0.99234 0.77809 0.616 0.0
C400 C 0.00353 0.80223 0.65188 0.0
C401 C 0.02927 0.74038 0.66642 0.0
C402 C 0.98583 0.80201 0.6711 0.0
C403 C 0.98547 0.82826 0.68473 0.0
C404 C 0.00264 0.85532 0.67929 0.0
C405 C 0.0202 0.85548 0.65992 0.0
C406 C 0.02055 0.82922 0.64633 0.0
H407 H 0.04415 0.719 0.66716 0.0
H408 H 0.04364 0.76092 0.67132 0.0
H409 H 0.01003 0.73763 0.67841 0.0
H410 H 0.97199 0.78165 0.67545 0.0
H411 H 0.97128 0.82756 0.69932 0.0
H412 H 0.35725 0.94917 0.93571 0.0
H413 H 0.31153 0.94939 0.91167 0.0
H414 H 0.31366 0.05045 0.90983 0.0
H415 H 0.35973 0.05052 0.93354 0.0
H416 H 0.25309 0.02358 0.91783 0.0
H417 H 0.31216 0.97144 0.84587 0.0
H418 H 0.31685 0.94998 0.87082 0.0
H419 H 0.3336 0.98846 0.86827 0.0
C420 C 0.34824 0.97145 0.93001 0.0
C421 C 0.36228 0.99983 0.93649 0.0
C422 C 0.32208 0.97152 0.9163 0.0
C423 C 0.3095 0.99992 0.90879 0.0
C424 C 0.3231 0.02828 0.91545 0.0
H425 H 0.17565 0.02961 0.80448 0.0
H426 H 0.22157 0.02961 0.82834 0.0
C427 C 0.34931 0.02826 0.9291 0.0
C428 C 0.28191 1.00008 0.89417 0.0
H429 H 0.257 0.97772 0.84373 0.0
C430 C 0.25391 0.0136 0.90162 0.0
C431 C 0.28323 0.98735 0.87296 0.0
C432 C 0.31311 0.9737 0.86385 0.0
C433 C 0.22696 0.01431 0.8885 0.0
C434 C 0.22805 1.00085 0.8675 0.0
C435 C 0.2562 0.98777 0.85992 0.0
C436 C 0.20029 1.00043 0.85303 0.0
C437 C 0.19768 0.02984 0.89709 0.0
C438 C 0.17331 0.98361 0.85887 0.0
C439 C 0.1471 0.98338 0.84522 0.0
C440 C 0.14743 0.99989 0.8254 0.0
C441 C 0.17471 0.01638 0.81949 0.0
C442 C 0.20091 0.01655 0.83315 0.0
H443 H 0.2028 0.04536 0.91116 0.0
H444 H 0.18606 0.04391 0.88421 0.0
H445 H 0.18097 0.01151 0.90255 0.0
H446 H 0.1726 0.97048 0.87394 0.0
H447 H 0.12671 0.96996 0.85007 0.0
H448 H 0.01285 0.38723 0.40745 0.0
H449 H 0.01216 0.34058 0.3843 0.0
H450 H 0.99339 0.28274 0.44033 0.0
H451 H 0.99414 0.32928 0.46363 0.0
H452 H 0.04985 0.2873 0.38651 0.0
H453 H 0.92434 0.25673 0.39784 0.0
H454 H 0.94022 0.29442 0.40545 0.0
H455 H 0.94602 0.26089 0.42271 0.0
C456 C 0.00874 0.36456 0.41488 0.0
C457 C 0.00346 0.36197 0.43738 0.0
C458 C 0.00821 0.33796 0.40161 0.0
C459 C 0.00225 0.30828 0.41055 0.0
C460 C 0.99731 0.30552 0.43303 0.0
H461 H 0.99412 0.11987 0.35733 0.0
H462 H 0.99507 0.16614 0.3809 0.0
C463 C 0.99777 0.33213 0.44631 0.0
C464 C 0.00195 0.28016 0.39638 0.0
H465 H 0.95575 0.21974 0.37896 0.0
C466 C 0.02925 0.27259 0.38478 0.0
C467 C 0.97503 0.26101 0.39419 0.0
C468 C 0.94463 0.26875 0.40554 0.0
C469 C 0.03053 0.24607 0.37128 0.0
C470 C 0.00362 0.22694 0.36909 0.0
C471 C 0.97634 0.23446 0.38072 0.0
C472 C 0.00329 0.19904 0.35474 0.0
C473 C 0.06084 0.23841 0.35979 0.0
C474 C 0.00725 0.2023 0.33221 0.0
C475 C 0.00685 0.17592 0.31872 0.0
C476 C 0.00238 0.14579 0.32751 0.0
C477 C 0.99809 0.14269 0.35009 0.0
C478 C 0.99842 0.16909 0.36356 0.0
H479 H 0.08115 0.25068 0.36727 0.0
H480 H 0.06542 0.21276 0.36004 0.0
H481 H 0.05915 0.24596 0.34257 0.0
H482 H 0.01053 0.22528 0.32505 0.0
H483 H 0.01044 0.1791 0.30143 0.0
H484 H 0.64489 0.04915 0.93523 0.0
H485 H 0.69125 0.04872 0.91184 0.0
H486 H 0.69013 0.94764 0.91128 0.0
H487 H 0.64429 0.94769 0.93518 0.0
H488 H 0.75159 0.01601 0.9206 0.0
H489 H 0.69062 0.97599 0.84554 0.0
H490 H 0.67 0.99372 0.86807 0.0
H491 H 0.68326 0.95386 0.86993 0.0
C492 C 0.65467 0.02678 0.93037 0.0
C493 C 0.64077 0.99844 0.9371 0.0
C494 C 0.68104 0.02662 0.91689 0.0
C495 C 0.69382 0.99817 0.90969 0.0
C496 C 0.68026 0.96984 0.91643 0.0
H497 H 0.84737 0.95091 0.82284 0.0
H498 H 0.80157 0.95009 0.84684 0.0
C499 C 0.654 0.96995 0.93002 0.0
C500 C 0.72163 0.99814 0.89532 0.0
H501 H 0.74568 0.9811 0.84375 0.0
C502 C 0.75037 0.00846 0.90378 0.0
C503 C 0.71985 0.98809 0.87347 0.0
C504 C 0.68928 0.97746 0.86356 0.0
C505 C 0.77762 0.00862 0.89098 0.0
C506 C 0.77581 0.99897 0.86898 0.0
C507 C 0.74701 0.98853 0.86059 0.0
C508 C 0.80347 0.99964 0.85438 0.0
C509 C 0.80821 0.01843 0.90129 0.0
C510 C 0.81941 0.02785 0.85037 0.0
C511 C 0.8456 0.02837 0.83672 0.0
C512 C 0.85611 1.00073 0.82659 0.0
C513 C 0.83971 0.97262 0.83028 0.0
C514 C 0.81363 0.97209 0.84405 0.0
H515 H 0.80741 0.01625 0.91928 0.0
H516 H 0.82804 0.00411 0.89509 0.0
H517 H 0.81289 0.04338 0.89731 0.0
H518 H 0.81148 0.04955 0.85768 0.0
H519 H 0.8574 0.05049 0.83388 0.0
H520 H 0.01986 0.61586 0.40749 0.0
H521 H 0.02011 0.66225 0.38421 0.0
H522 H 0.98659 0.71851 0.43763 0.0
H523 H 0.98785 0.67261 0.46137 0.0
H524 H 0.97211 0.69965 0.37206 0.0
H525 H 0.06026 0.76985 0.41711 0.0
H526 H 0.05391 0.72871 0.42241 0.0
H527 H 0.02788 0.75767 0.4337 0.0
C528 C 0.0131 0.6382 0.41445 0.0
C529 C 0.00409 0.64048 0.4364 0.0
C530 C 0.01299 0.66465 0.40104 0.0
C531 C 0.00387 0.69397 0.40926 0.0
C532 C 0.9944 0.69629 0.43105 0.0
H533 H 0.97379 0.87664 0.35065 0.0
H534 H 0.97445 0.83064 0.37441 0.0
C535 C 0.99472 0.66989 0.44453 0.0
C536 C 0.00346 0.72186 0.39482 0.0
H537 H 0.03209 0.79628 0.38915 0.0
C538 C 0.98537 0.7207 0.37575 0.0
C539 C 0.02082 0.74932 0.39963 0.0
C540 C 0.04206 0.75144 0.41921 0.0
C541 C 0.9838 0.74641 0.36152 0.0
C542 C 1.00087 0.77388 0.36648 0.0
C543 C 0.01893 0.77514 0.38551 0.0
C544 C 1.00045 0.80155 0.35198 0.0
C545 C 0.96358 0.74427 0.34145 0.0
C546 C 0.01512 0.8004 0.3316 0.0
C547 C 0.01517 0.82675 0.31807 0.0
C548 C 1.00048 0.85476 0.32467 0.0
C549 C 0.98574 0.85568 0.34515 0.0
C550 C 0.9859 0.82937 0.35871 0.0
H551 H 0.94757 0.72371 0.34197 0.0
H552 H 0.94936 0.76591 0.33949 0.0
H553 H 0.97882 0.74198 0.32692 0.0
H554 H 0.02685 0.77921 0.32627 0.0
H555 H 0.02721 0.82532 0.30261 0.0
loop_
_geom_bond_atom_site_label_1
_geom_bond_atom_site_label_2
_geom_bond_distance
_geom_bond_site_symmetry_2
_ccdc_geom_bond_type
C0 C1 1.367 1_545 S
C0 C2 1.384 . S
C0 H28 0.931 . S
C1 C0 1.367 1_565 S
C1 C4 1.401 . S
C2 C0 1.384 . S
C2 C3 1.381 1_545 S
C2 H29 0.930 . S
C3 C2 1.381 1_565 S
C3 C5 1.381 . S
C3 C6 1.487 . S
C4 C1 1.401 . S
C4 C5 1.387 . S
C4 H30 0.930 . S
C5 C3 1.381 . S
C5 C4 1.387 . S
C5 H31 0.931 . S
C6 C3 1.487 . S
C6 C13 1.399 1_566 S
C6 N44 1.343 . S
C7 C8 1.361 1_565 S
C7 C9 1.384 . S
C7 H32 0.931 . S
C8 C7 1.361 1_545 S
C8 C11 1.406 . S
C9 C7 1.384 . S
C9 C10 1.381 1_565 S
C9 H33 0.930 . S
C10 C9 1.381 1_545 S
C10 C12 1.381 . S
C10 C13 1.487 . S
C11 C8 1.406 . S
C11 C12 1.387 . S
C11 H34 0.930 . S
C12 C10 1.381 . S
C12 C11 1.387 . S
C12 H35 0.931 . S
C13 C6 1.399 1_544 S
C13 C10 1.487 . S
C13 N45 1.343 . S
C14 C15 1.361 1_565 S
C14 C16 1.384 . S
C14 H36 0.931 . S
C15 C14 1.361 1_545 S
C15 C18 1.406 . S
C16 C14 1.384 . S
C16 C17 1.381 1_565 S
C16 H37 0.930 . S
C17 C16 1.381 1_545 S
C17 C19 1.381 . S
C17 C20 1.487 . S
C18 C15 1.406 . S
C18 C19 1.387 . S
C18 H38 0.930 . S
C19 C17 1.381 . S
C19 C18 1.387 . S
C19 H39 0.931 . S
C20 C17 1.487 . S
C20 C27 1.399 1_544 S
C20 N45 1.343 . S
C21 C22 1.367 1_545 S
C21 C23 1.384 . S
C21 H40 0.931 . S
C22 C21 1.367 1_565 S
C22 C25 1.401 . S
C23 C21 1.384 . S
C23 C24 1.381 1_545 S
C23 H41 0.930 . S
C24 C23 1.381 1_565 S
C24 C26 1.381 . S
C24 C27 1.487 . S
C25 C22 1.401 . S
C25 C26 1.387 . S
C25 H42 0.930 . S
C26 C24 1.381 . S
C26 C25 1.387 . S
C26 H43 0.931 . S
C27 C20 1.399 1_566 S
C27 C24 1.487 . S
C27 N44 1.343 . S
H28 C0 0.931 . S
H29 C2 0.930 . S
H30 C4 0.930 . S
H31 C5 0.931 . S
H32 C7 0.931 . S
H33 C9 0.930 . S
H34 C11 0.930 . S
H35 C12 0.931 . S
H36 C14 0.931 . S
H37 C16 0.930 . S
H38 C18 0.930 . S
H39 C19 0.931 . S
H40 C21 0.931 . S
H41 C23 0.930 . S
H42 C25 0.930 . S
H43 C26 0.931 . S
N44 C6 1.343 . S
N44 C27 1.343 . S
N45 C13 1.343 . S
N45 C20 1.343 . S
C46 C47 1.367 1_455 S
C46 C48 1.384 . S
C46 H74 0.931 . S
C47 C46 1.367 1_655 S
C47 C50 1.401 . S
C48 C46 1.384 . S
C48 C49 1.381 1_455 S
C48 H75 0.930 . S
C49 C48 1.381 1_655 S
C49 C51 1.381 . S
C49 C52 1.487 . S
C50 C47 1.401 . S
C50 C51 1.387 . S
C50 H76 0.930 . S
C51 C49 1.381 . S
C51 C50 1.387 . S
C51 H77 0.931 . S
C52 C49 1.487 . S
C52 C59 1.399 1_655 S
C52 N90 1.343 . S
C53 C54 1.361 1_655 S
C53 C55 1.384 . S
C53 H78 0.931 . S
C54 C53 1.361 1_455 S
C54 C57 1.406 . S
C55 C53 1.384 . S
C55 C56 1.381 1_655 S
C55 H79 0.930 . S
C56 C55 1.381 1_455 S
C56 C58 1.381 . S
C56 C59 1.487 . S
C57 C54 1.406 . S
C57 C58 1.387 . S
C57 H80 0.930 . S
C58 C56 1.381 . S
C58 C57 1.387 . S
C58 H81 0.931 . S
C59 C52 1.399 1_455 S
C59 C56 1.487 . S
C59 N91 1.343 . S
C60 C61 1.361 1_655 S
C60 C62 1.384 . S
C60 H82 0.931 . S
C61 C60 1.361 1_455 S
C61 C64 1.406 . S
C62 C60 1.384 . S
C62 C63 1.381 1_655 S
C62 H83 0.930 . S
C63 C62 1.381 1_455 S
C63 C65 1.381 . S
C63 C66 1.487 . S
C64 C61 1.406 . S
C64 C65 1.387 . S
C64 H84 0.930 . S
C65 C63 1.381 . S
C65 C64 1.387 . S
C65 H85 0.931 . S
C66 C63 1.487 . S
C66 C73 1.399 1_455 S
C66 N91 1.343 . S
C67 C68 1.367 1_455 S
C67 C69 1.384 . S
C67 H86 0.931 . S
C68 C67 1.367 1_655 S
C68 C71 1.401 . S
C69 C67 1.384 . S
C69 C70 1.381 1_455 S
C69 H87 0.930 . S
C70 C69 1.381 1_655 S
C70 C72 1.381 . S
C70 C73 1.487 . S
C71 C68 1.401 . S
C71 C72 1.387 . S
C71 H88 0.930 . S
C72 C70 1.381 . S
C72 C71 1.387 . S
C72 H89 0.931 . S
C73 C66 1.399 1_655 S
C73 C70 1.487 . S
C73 N90 1.343 . S
H74 C46 0.931 . S
H75 C48 0.930 . S
H76 C50 0.930 . S
H77 C51 0.931 . S
H78 C53 0.931 . S
H79 C55 0.930 . S
H80 C57 0.930 . S
H81 C58 0.931 . S
H82 C60 0.931 . S
H83 C62 0.930 . S
H84 C64 0.930 . S
H85 C65 0.931 . S
H86 C67 0.931 . S
H87 C69 0.930 . S
H88 C71 0.930 . S
H89 C72 0.931 . S
N90 C52 1.343 . S
N90 C73 1.343 . S
N91 C59 1.343 . S
N91 C66 1.343 . S
Li92 N109 1.990 . S
Li92 O152 1.956 1_545 S
Li92 O153 1.970 1_455 S
Li92 O154 1.961 1_455 S
Li93 N117 1.990 . S
Li93 O152 1.970 1_655 S
Li93 O153 1.956 1_565 S
Li93 O155 1.961 1_655 S
Li94 N139 1.990 . S
Li94 O152 1.961 1_545 S
Li94 O154 1.956 1_455 S
Li94 O155 1.970 1_545 S
Li95 N145 1.990 . S
Li95 O153 1.961 1_565 S
Li95 O154 1.970 1_565 S
Li95 O155 1.956 1_655 S
C96 C98 1.348 1_545 S
C96 C99 1.356 . S
C96 O152 1.325 1_545 S
N97 C100 1.314 1_545 S
N97 C101 1.279 . S
C98 C96 1.348 1_565 S
C98 C100 1.353 . S
C98 H156 0.929 . S
C99 C96 1.356 . S
C99 C101 1.358 . S
C99 H157 0.930 . S
C100 N97 1.314 1_565 S
C100 C98 1.353 . S
C100 H158 0.930 . S
C101 N97 1.279 . S
C101 C99 1.358 . S
C101 H159 0.930 . S
C102 C105 1.348 . S
C102 C106 1.356 1_545 S
C102 O153 1.325 . S
C103 N104 1.279 . S
C103 C106 1.358 . S
C103 H160 0.930 . S
N104 C103 1.279 . S
N104 C107 1.314 1_565 S
C105 C102 1.348 . S
C105 C107 1.353 . S
C105 H161 0.929 . S
C106 C102 1.356 1_565 S
C106 C103 1.358 . S
C106 H162 0.930 . S
C107 N104 1.314 1_545 S
C107 C105 1.353 . S
C107 H163 0.930 . S
C108 N109 1.314 1_655 S
C108 C113 1.353 . S
C108 H114 0.930 . S
N109 Li92 1.990 . S
N109 C108 1.314 1_455 S
N109 C111 1.279 . S
C110 C111 1.358 . S
C110 C112 1.356 . S
C110 H164 0.930 . S
C111 N109 1.279 . S
C111 C110 1.358 . S
C111 H115 0.930 . S
C112 C110 1.356 . S
C112 C113 1.348 1_455 S
C113 C108 1.353 . S
C113 C112 1.348 1_655 S
C113 H165 0.929 . S
H114 C108 0.930 . S
H115 C111 0.930 . S
C116 N117 1.314 1_455 S
C116 C118 1.353 . S
C116 H122 0.930 . S
N117 Li93 1.990 . S
N117 C116 1.314 1_655 S
N117 C120 1.279 . S
C118 C116 1.353 . S
C118 C121 1.348 . S
C118 H166 0.929 . S
C119 C120 1.358 . S
C119 C121 1.356 1_655 S
C119 H167 0.930 . S
C120 N117 1.279 . S
C120 C119 1.358 . S
C120 H123 0.930 . S
C121 C118 1.348 . S
C121 C119 1.356 1_455 S
H122 C116 0.930 . S
H123 C120 0.930 . S
C124 C126 1.348 1_455 S
C124 C127 1.356 . S
C124 O154 1.325 1_455 S
N125 C128 1.314 1_455 S
N125 C129 1.279 . S
C126 C124 1.348 1_655 S
C126 C128 1.353 . S
C126 H168 0.929 . S
C127 C124 1.356 . S
C127 C129 1.358 . S
C127 H169 0.930 . S
C128 N125 1.314 1_655 S
C128 C126 1.353 . S
C128 H170 0.930 . S
C129 N125 1.279 . S
C129 C127 1.358 . S
C129 H171 0.930 . S
C130 C131 1.348 . S
C130 C132 1.356 1_455 S
C130 O155 1.325 . S
C131 C130 1.348 . S
C131 C133 1.353 . S
C131 H172 0.929 . S
C132 C130 1.356 1_655 S
C132 C134 1.358 . S
C132 H173 0.930 . S
C133 C131 1.353 . S
C133 N135 1.314 1_455 S
C133 H174 0.930 . S
C134 C132 1.358 . S
C134 N135 1.279 . S
C134 H175 0.930 . S
N135 C133 1.314 1_655 S
N135 C134 1.279 . S
C136 C138 1.353 . S
C136 N139 1.314 1_565 S
C136 H142 0.930 . S
C137 N139 1.279 . S
C137 C140 1.358 . S
C137 H143 0.930 . S
C138 C136 1.353 . S
C138 C141 1.348 1_565 S
C138 H176 0.929 . S
N139 Li94 1.990 . S
N139 C136 1.314 1_545 S
N139 C137 1.279 . S
C140 C137 1.358 . S
C140 C141 1.356 . S
C140 H177 0.930 . S
C141 C138 1.348 1_545 S
C141 C140 1.356 . S
H142 C136 0.930 . S
H143 C137 0.930 . S
C144 N145 1.314 1_545 S
C144 C146 1.353 . S
C144 H150 0.930 . S
N145 Li95 1.990 . S
N145 C144 1.314 1_565 S
N145 C148 1.279 . S
C146 C144 1.353 . S
C146 C149 1.348 . S
C146 H178 0.929 . S
C147 C148 1.358 . S
C147 C149 1.356 1_565 S
C147 H179 0.930 . S
C148 N145 1.279 . S
C148 C147 1.358 . S
C148 H151 0.930 . S
C149 C146 1.348 . S
C149 C147 1.356 1_545 S
H150 C144 0.930 . S
H151 C148 0.930 . S
O152 Li92 1.956 1_565 S
O152 Li93 1.970 1_455 S
O152 Li94 1.961 1_565 S
O152 C96 1.325 1_565 S
O153 Li92 1.970 1_655 S
O153 Li93 1.956 1_545 S
O153 Li95 1.961 1_545 S
O153 C102 1.325 . S
O154 Li92 1.961 1_655 S
O154 Li94 1.956 1_655 S
O154 Li95 1.970 1_545 S
O154 C124 1.325 1_655 S
O155 Li93 1.961 1_455 S
O155 Li94 1.970 1_565 S
O155 Li95 1.956 1_455 S
O155 C130 1.325 . S
H156 C98 0.929 . S
H157 C99 0.930 . S
H158 C100 0.930 . S
H159 C101 0.930 . S
H160 C103 0.930 . S
H161 C105 0.929 . S
H162 C106 0.930 . S
H163 C107 0.930 . S
H164 C110 0.930 . S
H165 C113 0.929 . S
H166 C118 0.929 . S
H167 C119 0.930 . S
H168 C126 0.929 . S
H169 C127 0.930 . S
H170 C128 0.930 . S
H171 C129 0.930 . S
H172 C131 0.929 . S
H173 C132 0.930 . S
H174 C133 0.930 . S
H175 C134 0.930 . S
H176 C138 0.929 . S
H177 C140 0.930 . S
H178 C146 0.929 . S
H179 C147 0.930 . S
Li180 N197 1.990 . S
Li180 O240 1.956 1_655 S
Li180 O241 1.970 1_545 S
Li180 O242 1.961 1_545 S
Li181 N205 1.990 . S
Li181 O240 1.970 1_565 S
Li181 O241 1.956 1_455 S
Li181 O243 1.961 1_565 S
Li182 N227 1.990 . S
Li182 O240 1.961 1_655 S
Li182 O242 1.956 1_545 S
Li182 O243 1.970 1_655 S
Li183 N233 1.990 . S
Li183 O241 1.961 1_455 S
Li183 O242 1.970 1_455 S
Li183 O243 1.956 1_565 S
C184 C186 1.348 . S
C184 C187 1.356 1_455 S
C184 O240 1.325 . S
N185 C188 1.314 1_655 S
N185 C189 1.279 . S
C186 C184 1.348 . S
C186 C188 1.353 . S
C186 H244 0.929 . S
C187 C184 1.356 1_655 S
C187 C189 1.358 . S
C187 H245 0.930 . S
C188 N185 1.314 1_455 S
C188 C186 1.353 . S
C188 H246 0.930 . S
C189 N185 1.279 . S
C189 C187 1.358 . S
C189 H247 0.930 . S
C190 C193 1.348 1_455 S
C190 C194 1.356 . S
C190 O241 1.325 1_455 S
C191 N192 1.279 . S
C191 C194 1.358 . S
C191 H248 0.930 . S
N192 C191 1.279 . S
N192 C195 1.314 1_455 S
C193 C190 1.348 1_655 S
C193 C195 1.353 . S
C193 H249 0.929 . S
C194 C190 1.356 . S
C194 C191 1.358 . S
C194 H250 0.930 . S
C195 N192 1.314 1_655 S
C195 C193 1.353 . S
C195 H251 0.930 . S
C196 N197 1.314 1_565 S
C196 C201 1.353 . S
C196 H202 0.930 . S
N197 Li180 1.990 . S
N197 C196 1.314 1_545 S
N197 C199 1.279 . S
C198 C199 1.358 . S
C198 C200 1.356 . S
C198 H252 0.930 . S
C199 N197 1.279 . S
C199 C198 1.358 . S
C199 H203 0.930 . S
C200 C198 1.356 . S
C200 C201 1.348 1_545 S
C201 C196 1.353 . S
C201 C200 1.348 1_565 S
C201 H253 0.929 . S
H202 C196 0.930 . S
H203 C199 0.930 . S
C204 N205 1.314 1_545 S
C204 C206 1.353 . S
C204 H210 0.930 . S
N205 Li181 1.990 . S
N205 C204 1.314 1_565 S
N205 C208 1.279 . S
C206 C204 1.353 . S
C206 C209 1.348 . S
C206 H254 0.929 . S
C207 C208 1.358 . S
C207 C209 1.356 1_565 S
C207 H255 0.930 . S
C208 N205 1.279 . S
C208 C207 1.358 . S
C208 H211 0.930 . S
C209 C206 1.348 . S
C209 C207 1.356 1_545 S
H210 C204 0.930 . S
H211 C208 0.930 . S
C212 C214 1.348 1_545 S
C212 C215 1.356 . S
C212 O242 1.325 1_545 S
N213 C216 1.314 1_545 S
N213 C217 1.279 . S
C214 C212 1.348 1_565 S
C214 C216 1.353 . S
C214 H256 0.929 . S
C215 C212 1.356 . S
C215 C217 1.358 . S
C215 H257 0.930 . S
C216 N213 1.314 1_565 S
C216 C214 1.353 . S
C216 H258 0.930 . S
C217 N213 1.279 . S
C217 C215 1.358 . S
C217 H259 0.930 . S
C218 C219 1.348 . S
C218 C220 1.356 1_545 S
C218 O243 1.325 . S
C219 C218 1.348 . S
C219 C221 1.353 . S
C219 H260 0.929 . S
C220 C218 1.356 1_565 S
C220 C222 1.358 . S
C220 H261 0.930 . S
C221 C219 1.353 . S
C221 N223 1.314 1_545 S
C221 H262 0.930 . S
C222 C220 1.358 . S
C222 N223 1.279 . S
C222 H263 0.930 . S
N223 C221 1.314 1_565 S
N223 C222 1.279 . S
C224 C226 1.353 . S
C224 N227 1.314 1_455 S
C224 H230 0.930 . S
C225 N227 1.279 . S
C225 C228 1.358 . S
C225 H231 0.930 . S
C226 C224 1.353 . S
C226 C229 1.348 . S
C226 H264 0.929 . S
N227 Li182 1.990 . S
N227 C224 1.314 1_655 S
N227 C225 1.279 . S
C228 C225 1.358 . S
C228 C229 1.356 1_655 S
C228 H265 0.930 . S
C229 C226 1.348 . S
C229 C228 1.356 1_455 S
H230 C224 0.930 . S
H231 C225 0.930 . S
C232 N233 1.314 1_655 S
C232 C234 1.353 . S
C232 H238 0.930 . S
N233 Li183 1.990 . S
N233 C232 1.314 1_455 S
N233 C236 1.279 . S
C234 C232 1.353 . S
C234 C237 1.348 1_655 S
C234 H266 0.929 . S
C235 C236 1.358 . S
C235 C237 1.356 . S
C235 H267 0.930 . S
C236 N233 1.279 . S
C236 C235 1.358 . S
C236 H239 0.930 . S
C237 C234 1.348 1_455 S
C237 C235 1.356 . S
H238 C232 0.930 . S
H239 C236 0.930 . S
O240 Li180 1.956 1_455 S
O240 Li181 1.970 1_545 S
O240 Li182 1.961 1_455 S
O240 C184 1.325 . S
O241 Li180 1.970 1_565 S
O241 Li181 1.956 1_655 S
O241 Li183 1.961 1_655 S
O241 C190 1.325 1_655 S
O242 Li180 1.961 1_565 S
O242 Li182 1.956 1_565 S
O242 Li183 1.970 1_655 S
O242 C212 1.325 1_565 S
O243 Li181 1.961 1_545 S
O243 Li182 1.970 1_455 S
O243 Li183 1.956 1_545 S
O243 C218 1.325 . S
H244 C186 0.929 . S
H245 C187 0.930 . S
H246 C188 0.930 . S
H247 C189 0.930 . S
H248 C191 0.930 . S
H249 C193 0.929 . S
H250 C194 0.930 . S
H251 C195 0.930 . S
H252 C198 0.930 . S
H253 C201 0.929 . S
H254 C206 0.929 . S
H255 C207 0.930 . S
H256 C214 0.929 . S
H257 C215 0.930 . S
H258 C216 0.930 . S
H259 C217 0.930 . S
H260 C219 0.929 . S
H261 C220 0.930 . S
H262 C221 0.930 . S
H263 C222 0.930 . S
H264 C226 0.929 . S
H265 C228 0.930 . S
H266 C234 0.929 . S
H267 C235 0.930 . S
H268 C276 0.929 . S
H269 C278 0.930 . S
H270 C280 0.930 . S
H271 C283 0.929 . S
H272 C286 0.930 . S
H273 C288 0.960 . S
H274 C288 0.960 . S
H275 C288 0.960 1_545 S
C276 H268 0.929 . S
C276 C277 1.387 . S
C276 C278 1.384 . S
C277 C276 1.387 . S
C277 C283 1.380 1_565 S
C278 H269 0.930 . S
C278 C276 1.384 . S
C278 C279 1.372 . S
C279 C278 1.372 . S
C279 C280 1.400 1_565 S
C279 C284 1.490 . S
C280 H270 0.930 . S
C280 C279 1.400 1_545 S
C280 C283 1.386 . S
H281 C297 0.930 . S
H282 C298 0.931 . S
C283 H271 0.929 . S
C283 C277 1.380 1_545 S
C283 C280 1.386 . S
C284 C279 1.490 . S
C284 C286 1.395 . S
C284 C287 1.403 . S
H285 C291 0.930 . S
C286 H272 0.930 . S
C286 C284 1.395 . S
C286 C289 1.403 . S
C287 C284 1.403 . S
C287 C288 1.524 . S
C287 C291 1.400 . S
C288 H273 0.960 . S
C288 H274 0.960 . S
C288 H275 0.960 1_565 S
C288 C287 1.524 . S
C289 C286 1.403 . S
C289 C290 1.392 . S
C289 C293 1.495 . S
C290 C289 1.392 . S
C290 C291 1.385 . S
C290 C292 1.478 . S
C291 H285 0.930 . S
C291 C287 1.400 . S
C291 C290 1.385 . S
C292 C290 1.478 . S
C292 C294 1.395 . S
C292 C298 1.369 1_565 S
C293 C289 1.495 . S
C293 H299 0.959 . S
C293 H300 0.961 1_565 S
C293 H301 0.960 . S
C294 C292 1.395 . S
C294 C295 1.394 . S
C294 H302 0.930 . S
C295 C294 1.394 . S
C295 C296 1.392 . S
C295 H303 0.929 . S
C296 C295 1.392 . S
C296 C297 1.368 1_565 S
C297 H281 0.930 . S
C297 C296 1.368 1_545 S
C297 C298 1.379 . S
C298 H282 0.931 . S
C298 C292 1.369 1_545 S
C298 C297 1.379 . S
H299 C293 0.959 . S
H300 C293 0.961 1_545 S
H301 C293 0.960 . S
H302 C294 0.930 . S
H303 C295 0.929 . S
H304 C312 0.929 . S
H305 C314 0.930 . S
H306 C316 0.930 . S
H307 C319 0.929 . S
H308 C322 0.930 . S
H309 C324 0.960 . S
H310 C324 0.960 . S
H311 C324 0.960 . S
C312 H304 0.929 . S
C312 C313 1.381 . S
C312 C314 1.384 . S
C313 C312 1.381 . S
C313 C319 1.386 1_455 S
C314 H305 0.930 . S
C314 C312 1.384 . S
C314 C315 1.379 . S
C315 C314 1.379 . S
C315 C316 1.394 1_455 S
C315 C320 1.490 . S
C316 H306 0.930 . S
C316 C315 1.394 1_655 S
C316 C319 1.386 . S
H317 C333 0.930 . S
H318 C334 0.931 . S
C319 H307 0.929 . S
C319 C313 1.386 1_655 S
C319 C316 1.386 . S
C320 C315 1.490 . S
C320 C322 1.392 1_455 S
C320 C323 1.405 . S
H321 C327 0.930 . S
C322 H308 0.930 . S
C322 C320 1.392 1_655 S
C322 C325 1.403 . S
C323 C320 1.405 . S
C323 C324 1.524 . S
C323 C327 1.400 . S
C324 H309 0.960 . S
C324 H310 0.960 . S
C324 H311 0.960 . S
C324 C323 1.524 . S
C325 C322 1.403 . S
C325 C326 1.392 . S
C325 C329 1.495 . S
C326 C325 1.392 . S
C326 C327 1.385 1_655 S
C326 C328 1.478 . S
C327 H321 0.930 . S
C327 C323 1.400 . S
C327 C326 1.385 1_455 S
C328 C326 1.478 . S
C328 C330 1.381 1_655 S
C328 C334 1.383 . S
C329 C325 1.495 . S
C329 H335 0.959 . S
C329 H336 0.961 . S
C329 H337 0.960 . S
C330 C328 1.381 1_455 S
C330 C331 1.394 . S
C330 H338 0.930 . S
C331 C330 1.394 . S
C331 C332 1.383 1_455 S
C331 H339 0.929 . S
C332 C331 1.383 1_655 S
C332 C333 1.377 . S
C333 H317 0.930 . S
C333 C332 1.377 . S
C333 C334 1.379 . S
C334 H318 0.931 . S
C334 C328 1.383 . S
C334 C333 1.379 . S
H335 C329 0.959 . S
H336 C329 0.961 . S
H337 C329 0.960 . S
H338 C330 0.930 . S
H339 C331 0.929 . S
H340 C348 0.929 . S
H341 C350 0.930 . S
H342 C352 0.930 . S
H343 C355 0.929 . S
H344 C358 0.930 . S
H345 C360 0.960 . S
H346 C360 0.960 . S
H347 C360 0.960 . S
C348 H340 0.929 . S
C348 C349 1.391 . S
C348 C350 1.384 . S
C349 C348 1.391 . S
C349 C355 1.377 1_545 S
C350 H341 0.930 . S
C350 C348 1.384 . S
C350 C351 1.372 . S
C351 C350 1.372 . S
C351 C352 1.400 1_545 S
C351 C356 1.490 . S
C352 H342 0.930 . S
C352 C351 1.400 1_565 S
C352 C355 1.386 . S
H353 C369 0.930 . S
H354 C370 0.931 . S
C355 H343 0.929 . S
C355 C349 1.377 1_565 S
C355 C352 1.386 . S
C356 C351 1.490 . S
C356 C358 1.395 1_545 S
C356 C359 1.403 . S
H357 C363 0.930 . S
C358 H344 0.930 . S
C358 C356 1.395 1_565 S
C358 C361 1.403 . S
C359 C356 1.403 . S
C359 C360 1.524 . S
C359 C363 1.400 . S
C360 H345 0.960 . S
C360 H346 0.960 . S
C360 H347 0.960 . S
C360 C359 1.524 . S
C361 C358 1.403 . S
C361 C362 1.396 . S
C361 C365 1.495 . S
C362 C361 1.396 . S
C362 C363 1.381 1_565 S
C362 C364 1.478 . S
C363 H357 0.930 . S
C363 C359 1.400 . S
C363 C362 1.381 1_545 S
C364 C362 1.478 . S
C364 C366 1.381 1_565 S
C364 C370 1.383 . S
C365 C361 1.495 . S
C365 H371 0.959 . S
C365 H372 0.961 . S
C365 H373 0.960 . S
C366 C364 1.381 1_545 S
C366 C367 1.394 . S
C366 H374 0.930 . S
C367 C366 1.394 . S
C367 C368 1.382 1_545 S
C367 H375 0.929 . S
C368 C367 1.382 1_565 S
C368 C369 1.378 . S
C369 H353 0.930 . S
C369 C368 1.378 . S
C369 C370 1.379 . S
C370 H354 0.931 . S
C370 C364 1.383 . S
C370 C369 1.379 . S
H371 C365 0.959 . S
H372 C365 0.961 . S
H373 C365 0.960 . S
H374 C366 0.930 . S
H375 C367 0.929 . S
H376 C384 0.929 . S
H377 C386 0.930 . S
H378 C388 0.930 . S
H379 C391 0.929 . S
H380 C394 0.930 . S
H381 C396 0.960 . S
H382 C396 0.960 . S
H383 C396 0.960 1_455 S
C384 H376 0.929 . S
C384 C385 1.387 . S
C384 C386 1.384 . S
C385 C384 1.387 . S
C385 C391 1.381 1_655 S
C386 H377 0.930 . S
C386 C384 1.384 . S
C386 C387 1.372 . S
C387 C386 1.372 . S
C387 C388 1.400 1_655 S
C387 C392 1.490 . S
C388 H378 0.930 . S
C388 C387 1.400 1_455 S
C388 C391 1.386 . S
H389 C405 0.930 . S
H390 C406 0.931 . S
C391 H379 0.929 . S
C391 C385 1.381 1_455 S
C391 C388 1.386 . S
C392 C387 1.490 . S
C392 C394 1.395 1_655 S
C392 C395 1.403 . S
H393 C399 0.930 . S
C394 H380 0.930 . S
C394 C392 1.395 1_455 S
C394 C397 1.403 . S
C395 C392 1.403 . S
C395 C396 1.524 . S
C395 C399 1.400 . S
C396 H381 0.960 . S
C396 H382 0.960 . S
C396 H383 0.960 1_655 S
C396 C395 1.524 . S
C397 C394 1.403 . S
C397 C398 1.391 1_455 S
C397 C401 1.495 . S
C398 C397 1.391 1_655 S
C398 C399 1.387 . S
C398 C400 1.477 1_655 S
C399 H393 0.930 . S
C399 C395 1.400 . S
C399 C398 1.387 . S
C400 C398 1.477 1_455 S
C400 C402 1.371 1_455 S
C400 C406 1.393 . S
C401 C397 1.495 . S
C401 H407 0.959 . S
C401 H408 0.961 . S
C401 H409 0.960 1_455 S
C402 C400 1.371 1_655 S
C402 C403 1.394 . S
C402 H410 0.930 . S
C403 C402 1.394 . S
C403 C404 1.381 . S
C403 H411 0.929 . S
C404 C403 1.381 . S
C404 C405 1.379 1_655 S
C405 H389 0.930 . S
C405 C404 1.379 1_455 S
C405 C406 1.379 . S
C406 H390 0.931 . S
C406 C400 1.393 . S
C406 C405 1.379 . S
H407 C401 0.959 . S
H408 C401 0.961 . S
H409 C401 0.960 1_655 S
H410 C402 0.930 . S
H411 C403 0.929 . S
H412 C420 0.929 . S
H413 C422 0.930 . S
H414 C424 0.930 . S
H415 C427 0.929 . S
H416 C430 0.930 . S
H417 C432 0.960 . S
H418 C432 0.960 . S
H419 C432 0.960 1_545 S
C420 H412 0.929 . S
C420 C421 1.384 . S
C420 C422 1.384 . S
C421 C420 1.384 . S
C421 C427 1.383 1_565 S
C422 H413 0.930 . S
C422 C420 1.384 . S
C422 C423 1.372 . S
C423 C422 1.372 . S
C423 C424 1.400 1_565 S
C423 C428 1.490 . S
C424 H414 0.930 . S
C424 C423 1.400 1_545 S
C424 C427 1.386 . S
H425 C441 0.930 . S
H426 C442 0.931 . S
C427 H415 0.929 . S
C427 C421 1.383 1_545 S
C427 C424 1.386 . S
C428 C423 1.490 . S
C428 C430 1.395 1_565 S
C428 C431 1.403 . S
H429 C435 0.930 . S
C430 H416 0.930 . S
C430 C428 1.395 1_545 S
C430 C433 1.403 . S
C431 C428 1.403 . S
C431 C432 1.524 . S
C431 C435 1.400 . S
C432 H417 0.960 . S
C432 H418 0.960 . S
C432 H419 0.960 1_565 S
C432 C431 1.524 . S
C433 C430 1.403 . S
C433 C434 1.392 1_545 S
C433 C437 1.497 . S
C434 C433 1.392 1_565 S
C434 C435 1.385 . S
C434 C436 1.477 1_565 S
C435 H429 0.930 . S
C435 C431 1.400 . S
C435 C434 1.385 . S
C436 C434 1.477 1_545 S
C436 C438 1.357 1_545 S
C436 C442 1.407 . S
C437 C433 1.497 . S
C437 H443 0.959 . S
C437 H444 0.961 . S
C437 H445 0.960 1_545 S
C438 C436 1.357 1_565 S
C438 C439 1.394 . S
C438 H446 0.930 . S
C439 C438 1.394 . S
C439 C440 1.383 1_565 S
C439 H447 0.929 . S
C440 C439 1.383 1_545 S
C440 C441 1.377 . S
C441 H425 0.930 . S
C441 C440 1.377 . S
C441 C442 1.379 . S
C442 H426 0.931 . S
C442 C436 1.407 . S
C442 C441 1.379 . S
H443 C437 0.959 . S
H444 C437 0.961 . S
H445 C437 0.960 1_565 S
H446 C438 0.930 . S
H447 C439 0.929 . S
H448 C456 0.929 . S
H449 C458 0.930 . S
H450 C460 0.930 . S
H451 C463 0.929 . S
H452 C466 0.930 . S
H453 C468 0.960 . S
H454 C468 0.960 . S
H455 C468 0.960 . S
C456 H448 0.929 . S
C456 C457 1.376 1_455 S
C456 C458 1.384 . S
C457 C456 1.376 1_655 S
C457 C463 1.391 . S
C458 H449 0.930 . S
C458 C456 1.384 . S
C458 C459 1.374 . S
C459 C458 1.374 . S
C459 C460 1.398 1_455 S
C459 C464 1.490 . S
C460 H450 0.930 . S
C460 C459 1.398 1_655 S
C460 C463 1.386 . S
H461 C477 0.930 . S
H462 C478 0.931 . S
C463 H451 0.929 . S
C463 C457 1.391 . S
C463 C460 1.386 . S
C464 C459 1.490 . S
C464 C466 1.395 . S
C464 C467 1.403 1_455 S
H465 C471 0.930 . S
C466 H452 0.930 . S
C466 C464 1.395 . S
C466 C469 1.403 . S
C467 C464 1.403 1_655 S
C467 C468 1.524 . S
C467 C471 1.400 . S
C468 H453 0.960 . S
C468 H454 0.960 . S
C468 H455 0.960 . S
C468 C467 1.524 . S
C469 C466 1.403 . S
C469 C470 1.392 . S
C469 C473 1.495 . S
C470 C469 1.392 . S
C470 C471 1.385 1_455 S
C470 C472 1.478 . S
C471 H465 0.930 . S
C471 C467 1.400 . S
C471 C470 1.385 1_655 S
C472 C470 1.478 . S
C472 C474 1.381 . S
C472 C478 1.383 1_455 S
C473 C469 1.495 . S
C473 H479 0.959 . S
C473 H480 0.961 . S
C473 H481 0.960 . S
C474 C472 1.381 . S
C474 C475 1.394 . S
C474 H482 0.930 . S
C475 C474 1.394 . S
C475 C476 1.383 . S
C475 H483 0.929 . S
C476 C475 1.383 . S
C476 C477 1.377 1_455 S
C477 H461 0.930 . S
C477 C476 1.377 1_655 S
C477 C478 1.379 . S
C478 H462 0.931 . S
C478 C472 1.383 1_655 S
C478 C477 1.379 . S
H479 C473 0.959 . S
H480 C473 0.961 . S
H481 C473 0.960 . S
H482 C474 0.930 . S
H483 C475 0.929 . S
H484 C492 0.929 . S
H485 C494 0.930 . S
H486 C496 0.930 . S
H487 C499 0.929 . S
H488 C502 0.930 . S
H489 C504 0.960 . S
H490 C504 0.960 1_545 S
H491 C504 0.960 . S
C492 H484 0.929 . S
C492 C493 1.390 . S
C492 C494 1.384 . S
C493 C492 1.390 . S
C493 C499 1.377 1_545 S
C494 H485 0.930 . S
C494 C492 1.384 . S
C494 C495 1.372 . S
C495 C494 1.372 . S
C495 C496 1.400 1_545 S
C495 C500 1.490 . S
C496 H486 0.930 . S
C496 C495 1.400 1_565 S
C496 C499 1.386 . S
H497 C513 0.930 . S
H498 C514 0.931 . S
C499 H487 0.929 . S
C499 C493 1.377 1_565 S
C499 C496 1.386 . S
C500 C495 1.490 . S
C500 C502 1.395 . S
C500 C503 1.403 1_545 S
H501 C507 0.930 . S
C502 H488 0.930 . S
C502 C500 1.395 . S
C502 C505 1.403 . S
C503 C500 1.403 1_565 S
C503 C504 1.524 . S
C503 C507 1.400 . S
C504 H489 0.960 . S
C504 H490 0.960 1_565 S
C504 H491 0.960 . S
C504 C503 1.524 . S
C505 C502 1.403 . S
C505 C506 1.392 . S
C505 C509 1.495 . S
C506 C505 1.392 . S
C506 C507 1.385 1_545 S
C506 C508 1.478 . S
C507 H501 0.930 . S
C507 C503 1.400 . S
C507 C506 1.385 1_565 S
C508 C506 1.478 . S
C508 C510 1.400 . S
C508 C514 1.363 1_545 S
C509 C505 1.495 . S
C509 H515 0.959 . S
C509 H516 0.961 1_545 S
C509 H517 0.960 . S
C510 C508 1.400 . S
C510 C511 1.394 . S
C510 H518 0.930 . S
C511 C510 1.394 . S
C511 C512 1.371 1_545 S
C511 H519 0.929 . S
C512 C511 1.371 1_565 S
C512 C513 1.389 . S
C513 H497 0.930 . S
C513 C512 1.389 . S
C513 C514 1.379 . S
C514 H498 0.931 . S
C514 C508 1.363 1_565 S
C514 C513 1.379 . S
H515 C509 0.959 . S
H516 C509 0.961 1_565 S
H517 C509 0.960 . S
H518 C510 0.930 . S
H519 C511 0.929 . S
H520 C528 0.929 . S
H521 C530 0.930 . S
H522 C532 0.930 . S
H523 C535 0.929 . S
H524 C538 0.930 . S
H525 C540 0.960 . S
H526 C540 0.960 . S
H527 C540 0.962 . S
C528 H520 0.929 . S
C528 C529 1.392 . S
C528 C530 1.384 . S
C529 C528 1.392 . S
C529 C535 1.376 1_455 S
C530 H521 0.930 . S
C530 C528 1.384 . S
C530 C531 1.372 . S
C531 C530 1.372 . S
C531 C532 1.400 1_455 S
C531 C536 1.490 . S
C532 H522 0.930 . S
C532 C531 1.400 1_655 S
C532 C535 1.386 . S
H533 C549 0.930 . S
H534 C550 0.931 . S
C535 H523 0.929 . S
C535 C529 1.376 1_655 S
C535 C532 1.386 . S
C536 C531 1.490 . S
C536 C538 1.395 1_455 S
C536 C539 1.403 . S
H537 C543 0.930 . S
C538 H524 0.930 . S
C538 C536 1.395 1_655 S
C538 C541 1.403 . S
C539 C536 1.403 . S
C539 C540 1.524 . S
C539 C543 1.400 . S
C540 H525 0.960 . S
C540 H526 0.960 . S
C540 H527 0.962 . S
C540 C539 1.524 . S
C541 C538 1.403 . S
C541 C542 1.393 1_655 S
C541 C545 1.495 . S
C542 C541 1.393 1_455 S
C542 C543 1.385 . S
C542 C544 1.477 1_455 S
C543 H537 0.930 . S
C543 C539 1.400 . S
C543 C542 1.385 . S
C544 C542 1.477 1_655 S
C544 C546 1.363 1_655 S
C544 C550 1.401 . S
C545 C541 1.495 . S
C545 H551 0.959 . S
C545 H552 0.961 . S
C545 H553 0.960 1_655 S
C546 C544 1.363 1_455 S
C546 C547 1.394 . S
C546 H554 0.930 . S
C547 C546 1.394 . S
C547 C548 1.382 . S
C547 H555 0.929 . S
C548 C547 1.382 . S
C548 C549 1.378 1_455 S
C549 H533 0.930 . S
C549 C548 1.378 1_655 S
C549 C550 1.379 . S
C550 H534 0.931 . S
C550 C544 1.401 . S
C550 C549 1.379 . S
H551 C545 0.959 . S
H552 C545 0.961 . S
H553 C545 0.960 1_455 S
H554 C546 0.930 . S
H555 C547 0.929 . S
C296 C141 1.487 1_565 S
C277 C15 1.482 1_565 S
C332 C229 1.485 1_655 S
C313 C68 1.486 1_455 S
C368 C149 1.486 1_565 S
C349 C8 1.487 . S
C404 C237 1.487 1_655 S
C385 C47 1.491 . S
C440 C209 1.487 . S
C421 C22 1.491 . S
C476 C112 1.485 . S
C457 C61 1.487 1_655 S
C512 C200 1.486 1_565 S
C493 C1 1.495 1_545 S
C529 C54 1.488 . S
C548 C121 1.489 . S
