# Generated by pormake.
# Topology rtl, (3,6)-cn, num edge types: 1
# Building blocks:
#     Node 0, Type 0, BuildingBlock: BETDIP_clean_linker_0, # of connection points: 3
#     Node 1, Type 0, BuildingBlock: BETDIP_clean_linker_0, # of connection points: 3
#     Node 2, Type 0, BuildingBlock: BETDIP_clean_linker_0, # of connection points: 3
#     Node 3, Type 0, BuildingBlock: BETDIP_clean_linker_0, # of connection points: 3
#     Node 4, Type 1, BuildingBlock: KUMBUR_clean_sbu_1, # of connection points: 6
#     Node 5, Type 1, BuildingBlock: KUMBUR_clean_sbu_1, # of connection points: 6
#     Edge 6, Type (0, 1), BuildingBlock: XIVTED_clean_linker_0, # of connection points: 2
#     Edge 7, Type (0, 1), BuildingBlock: XIVTED_clean_linker_0, # of connection points: 2
#     Edge 8, Type (0, 1), BuildingBlock: XIVTED_clean_linker_0, # of connection points: 2
#     Edge 9, Type (0, 1), BuildingBlock: XIVTED_clean_linker_0, # of connection points: 2
#     Edge 10, Type (0, 1), BuildingBlock: XIVTED_clean_linker_0, # of connection points: 2
#     Edge 11, Type (0, 1), BuildingBlock: XIVTED_clean_linker_0, # of connection points: 2
#     Edge 12, Type (0, 1), BuildingBlock: XIVTED_clean_linker_0, # of connection points: 2
#     Edge 13, Type (0, 1), BuildingBlock: XIVTED_clean_linker_0, # of connection points: 2
#     Edge 14, Type (0, 1), BuildingBlock: XIVTED_clean_linker_0, # of connection points: 2
#     Edge 15, Type (0, 1), BuildingBlock: XIVTED_clean_linker_0, # of connection points: 2
#     Edge 16, Type (0, 1), BuildingBlock: XIVTED_clean_linker_0, # of connection points: 2
#     Edge 17, Type (0, 1), BuildingBlock: XIVTED_clean_linker_0, # of connection points: 2
# Relax obj value: 0.052
# Max RMSD: 0.219
# Mean RMSD: 0.160
data_MOF--net-rtl--node1-KUMBUR_clean_sbu_1--node2-BETDIP_clean_linker_0--edge1-XIVTED_clean_linker_0
_symmetry_space_group_name_H-M    P1
_symmetry_Int_Tables_number       1
_symmetry_cell_setting            triclinic
loop_
_symmetry_equiv_pos_as_xyz
'x, y, z'
_cell_length_a     35.530228
_cell_length_b     35.656732
_cell_length_c     27.258783
_cell_angle_alpha  78.134533
_cell_angle_beta   100.16189
_cell_angle_gamma 91.163716
loop_
_atom_site_label
_atom_site_type_symbol
_atom_site_fract_x
_atom_site_fract_y
_atom_site_fract_z
_atom_type_partial_charge
H0 H 0.21995 0.82269 0.94203 0.0
H1 H 0.23481 0.81342 0.10439 0.0
H2 H 0.15718 0.89788 0.00392 0.0
H3 H 0.28391 0.77513 0.10824 0.0
C4 C 0.28342 0.76663 0.07217 0.0
C5 C 0.21296 0.83238 0.97458 0.0
C6 C 0.18664 0.86266 0.96709 0.0
C7 C 0.23107 0.81476 0.02358 0.0
C8 C 0.22185 0.82706 0.06612 0.0
C9 C 0.19549 0.85749 0.05916 0.0
C10 C 0.17831 0.87518 0.00952 0.0
N11 N 0.25802 0.7848 0.02765 0.0
H12 H 0.70879 0.72015 0.72565 0.0
H13 H 0.7094 0.71262 0.57007 0.0
H14 H 0.62832 0.64861 0.65194 0.0
H15 H 0.77293 0.72234 0.5942 0.0
C16 C 0.77196 0.74544 0.61449 0.0
C17 C 0.69715 0.70866 0.69239 0.0
C18 C 0.66587 0.68381 0.69362 0.0
C19 C 0.71362 0.71866 0.6483 0.0
C20 C 0.69807 0.70398 0.60495 0.0
C21 C 0.66713 0.67885 0.60582 0.0
C22 C 0.65134 0.669 0.65032 0.0
N23 N 0.74511 0.74411 0.64791 0.0
H24 H 0.79772 0.22021 0.97202 0.0
H25 H 0.79977 0.20425 0.13353 0.0
H26 H 0.88359 0.14746 0.07841 0.0
H27 H 0.73607 0.21546 0.10735 0.0
C28 C 0.73511 0.23876 0.07445 0.0
C29 C 0.81038 0.20697 0.01071 0.0
C30 C 0.8432 0.18334 0.02007 0.0
C31 C 0.7938 0.21392 0.05121 0.0
C32 C 0.81096 0.19778 0.10173 0.0
C33 C 0.84384 0.17442 0.11154 0.0
C34 C 0.85919 0.16687 0.07062 0.0
N35 N 0.76098 0.23853 0.04018 0.0
H36 H 0.32234 0.29206 0.37761 0.0
H37 H 0.31681 0.30129 0.53116 0.0
H38 H 0.39764 0.36774 0.45104 0.0
H39 H 0.29886 0.24008 0.53812 0.0
C40 C 0.2802 0.2398 0.50207 0.0
C41 C 0.33272 0.30414 0.41077 0.0
C42 C 0.36186 0.33143 0.40917 0.0
C43 C 0.31755 0.29162 0.45549 0.0
C44 C 0.33026 0.30848 0.49788 0.0
C45 C 0.35897 0.33622 0.49663 0.0
C46 C 0.37515 0.34674 0.45242 0.0
N47 N 0.28885 0.26302 0.4564 0.0
Tb48 Tb 0.03938 0.97387 0.50905 0.0
C49 C 0.95222 0.12026 0.48569 0.0
N50 N 0.98407 0.10725 0.52027 0.0
C51 C 0.01349 0.16827 0.49848 0.0
C52 C 0.95067 0.15702 0.45398 0.0
C53 C 0.01324 0.13186 0.52967 0.0
C54 C 0.98243 0.18058 0.45961 0.0
C55 C 0.88544 0.11114 0.45249 0.0
C56 C 0.92 0.09779 0.48492 0.0
C57 C 0.88432 0.14683 0.41881 0.0
C58 C 0.91693 0.16969 0.41944 0.0
Tb59 Tb 0.98064 0.04588 0.56604 0.0
N60 N 0.9224 0.06304 0.51704 0.0
C61 C 0.85302 0.08832 0.45536 0.0
C62 C 0.89054 0.04152 0.52203 0.0
C63 C 0.85548 0.05359 0.49078 0.0
H64 H 0.0362 0.12396 0.56172 0.0
H65 H 0.83042 0.03613 0.49401 0.0
H66 H 0.01015 0.88785 0.55508 0.0
H67 H 0.18346 0.02844 0.51523 0.0
H68 H 0.89235 0.01482 0.54961 0.0
H69 H 0.82589 0.09753 0.43107 0.0
H70 H 0.11578 0.0238 0.47706 0.0
H71 H 0.03727 0.18711 0.50515 0.0
H72 H 0.85821 0.15736 0.39294 0.0
H73 H 0.91536 0.19764 0.3943 0.0
H74 H 0.03557 0.83092 0.62056 0.0
H75 H 0.98243 0.20902 0.436 0.0
H76 H 0.21177 0.98132 0.59239 0.0
N77 N 0.06086 0.91974 0.56733 0.0
C78 C 0.09781 0.91934 0.59098 0.0
C79 C 0.05328 0.85575 0.61291 0.0
C80 C 0.11356 0.88777 0.62866 0.0
C81 C 0.03892 0.88798 0.57601 0.0
C82 C 0.09058 0.85588 0.63998 0.0
N83 N 0.10405 0.97836 0.53631 0.0
C84 C 0.12703 1.00461 0.5125 0.0
C85 C 0.15903 0.95044 0.59743 0.0
C86 C 0.12 0.95022 0.57565 0.0
C87 C 0.18165 0.98002 0.57678 0.0
C88 C 0.16576 0.0067 0.53331 0.0
H89 H 0.1016 0.83097 0.66867 0.0
H90 H 0.16435 0.86516 0.68252 0.0
H91 H 0.20431 0.92009 0.65502 0.0
O92 O 0.07134 0.95272 0.46204 0.0
O93 O 0.03323 0.96242 0.58954 0.0
O94 O 0.03543 0.0216 0.60963 0.0
O95 O 0.01096 0.94408 0.4547 0.0
O96 O 0.05333 0.03544 0.49357 0.0
O97 O 0.04159 0.05726 0.56379 0.0
O98 O 0.96225 0.0277 0.63651 0.0
O99 O 0.95955 0.02913 0.49303 0.0
O100 O 0.01311 0.02589 0.45868 0.0
O101 O 0.96428 0.08732 0.60317 0.0
O102 O 0.96076 0.98632 0.57852 0.0
O103 O 0.98053 0.95642 0.51795 0.0
C104 C 0.0439 0.98487 0.62176 0.0
C105 C 0.03742 0.95481 0.37934 0.0
C106 C 0.0606 0.95473 0.30009 0.0
C107 C 0.03272 0.9828 0.27441 0.0
C108 C 0.00975 0.98273 0.35279 0.0
C109 C 0.00747 0.99658 0.30064 0.0
C110 C 0.06263 0.9407 0.35274 0.0
C111 C 0.06062 0.05855 0.52607 0.0
C112 C 0.04126 0.94133 0.43492 0.0
C113 C 0.1518 0.88884 0.65284 0.0
C114 C 0.1745 0.92019 0.63729 0.0
C115 C 0.97725 0.0362 0.45395 0.0
C116 C 0.97924 0.0707 0.69159 0.0
C117 C 0.97747 0.09269 0.77035 0.0
C118 C 0.0178 0.0924 0.77996 0.0
C119 C 0.01931 0.07074 0.70196 0.0
C120 C 0.95841 0.08139 0.7259 0.0
C121 C 0.03844 0.08122 0.74617 0.0
C122 C 0.95861 0.9588 0.552 0.0
C123 C 0.95912 0.06247 0.64322 0.0
H124 H 0.03012 0.9938 0.23382 0.0
H125 H 0.98993 0.99394 0.37228 0.0
H126 H 0.98606 0.01811 0.2805 0.0
H127 H 0.08428 0.91946 0.37323 0.0
H128 H 0.03359 0.10169 0.81298 0.0
H129 H 0.03578 0.06353 0.67535 0.0
H130 H 0.92745 0.08114 0.71758 0.0
H131 H 0.06939 0.08145 0.75376 0.0
Tb132 Tb 0.47014 0.49386 0.99807 0.0
C133 C 0.63539 0.54618 0.08798 0.0
N134 N 0.6159 0.5145 0.10554 0.0
C135 C 0.67342 0.47635 0.12365 0.0
C136 C 0.67481 0.54406 0.08705 0.0
C137 C 0.63431 0.47988 0.12384 0.0
C138 C 0.69376 0.50855 0.10511 0.0
C139 C 0.63431 0.61402 0.04981 0.0
C140 C 0.6154 0.58069 0.06952 0.0
C141 C 0.67369 0.61216 0.04923 0.0
C142 C 0.69387 0.57728 0.06776 0.0
Tb143 Tb 0.55251 0.52419 0.10433 0.0
N144 N 0.57695 0.581 0.0686 0.0
C145 C 0.61295 0.64806 0.03072 0.0
C146 C 0.55627 0.61442 0.05175 0.0
C147 C 0.57383 0.64829 0.032 0.0
H148 H 0.61909 0.45517 0.13983 0.0
H149 H 0.5572 0.67462 0.01805 0.0
H150 H 0.39276 0.53804 0.01166 0.0
H151 H 0.50138 0.34292 0.01343 0.0
H152 H 0.52637 0.61536 0.05366 0.0
H153 H 0.62639 0.67431 0.01517 0.0
H154 H 0.50947 0.41188 0.98453 0.0
H155 H 0.6879 0.44885 0.13816 0.0
H156 H 0.68873 0.63747 0.03417 0.0
H157 H 0.72418 0.57624 0.06674 0.0
H158 H 0.33178 0.51998 0.04147 0.0
H159 H 0.72405 0.50571 0.10501 0.0
H160 H 0.44743 0.31948 0.05699 0.0
N161 N 0.41333 0.48059 0.02566 0.0
C162 C 0.40575 0.44284 0.04049 0.0
C163 C 0.35242 0.49803 0.04163 0.0
C164 C 0.37154 0.43124 0.05822 0.0
C165 C 0.38697 0.5082 0.02494 0.0
C166 C 0.34478 0.4594 0.0587 0.0
N167 N 0.4648 0.42837 0.01933 0.0
C168 C 0.48764 0.40254 0.00702 0.0
C169 C 0.42573 0.37651 0.05314 0.0
C170 C 0.43277 0.41596 0.03841 0.0
C171 C 0.45176 0.35003 0.04616 0.0
C172 C 0.48237 0.36314 0.02188 0.0
H173 H 0.31812 0.45163 0.07197 0.0
H174 H 0.3393 0.38255 0.08918 0.0
H175 H 0.38663 0.33459 0.08442 0.0
O176 O 0.4657 0.47634 0.92637 0.0
O177 O 0.46058 0.48842 0.0772 0.0
O178 O 0.5193 0.47326 0.12787 0.0
O179 O 0.42535 0.5163 0.93995 0.0
O180 O 0.52893 0.47036 0.00885 0.0
O181 O 0.55104 0.46491 0.09496 0.0
O182 O 0.54345 0.55689 0.15713 0.0
O183 O 0.56325 0.53556 0.02558 0.0
O184 O 0.50436 0.54341 0.97225 0.0
O185 O 0.58686 0.51256 0.1772 0.0
O186 O 0.49623 0.55264 0.09027 0.0
O187 O 0.46783 0.55331 0.00668 0.0
C188 C 0.48188 0.47023 0.11944 0.0
C189 C 0.4136 0.50359 0.85541 0.0
C190 C 0.3982 0.48643 0.77192 0.0
C191 C 0.37288 0.51809 0.75522 0.0
C192 C 0.388 0.535 0.83758 0.0
C193 C 0.36779 0.54208 0.78792 0.0
C194 C 0.41843 0.47902 0.82243 0.0
C195 C 0.55143 0.45422 0.05168 0.0
C196 C 0.43537 0.49795 0.90793 0.0
C197 C 0.36522 0.39206 0.07491 0.0
C198 C 0.39228 0.36476 0.07246 0.0
C199 C 0.54146 0.5487 0.9813 0.0
C200 C 0.55851 0.52676 0.24333 0.0
C201 C 0.56187 0.53795 0.32929 0.0
C202 C 0.53626 0.50779 0.33891 0.0
C203 C 0.53313 0.49677 0.25351 0.0
C204 C 0.57286 0.54717 0.28119 0.0
C205 C 0.5221 0.48731 0.30119 0.0
C206 C 0.47104 0.56629 0.04905 0.0
C207 C 0.56948 0.53825 0.19305 0.0
H208 H 0.35666 0.52411 0.71681 0.0
H209 H 0.38374 0.55446 0.86193 0.0
H210 H 0.34818 0.56634 0.77465 0.0
H211 H 0.43813 0.45477 0.83561 0.0
H212 H 0.52752 0.4998 0.37571 0.0
H213 H 0.52179 0.48093 0.22461 0.0
H214 H 0.59199 0.57079 0.27275 0.0
H215 H 0.50247 0.46409 0.30888 0.0
H216 H 0.22819 0.22375 0.42073 0.0
H217 H 0.10634 0.08492 0.60244 0.0
H218 H 0.257 0.19679 0.58464 0.0
H219 H 0.08671 0.09469 0.4396 0.0
H220 H 0.15906 0.12957 0.59539 0.0
H221 H 0.17395 0.17999 0.4254 0.0
C222 C 0.2231 0.20866 0.45764 0.0
C223 C 0.24709 0.21382 0.50245 0.0
C224 C 0.14332 0.12201 0.56109 0.0
C225 C 0.1852 0.16401 0.50807 0.0
C226 C 0.1131 0.09663 0.56512 0.0
C227 C 0.09225 0.08603 0.52155 0.0
C228 C 0.15274 0.13725 0.51306 0.0
C229 C 0.10233 0.10194 0.47416 0.0
C230 C 0.19219 0.18366 0.46029 0.0
C231 C 0.2392 0.19357 0.54921 0.0
N232 N 0.13186 0.12681 0.47113 0.0
N233 N 0.20897 0.16969 0.55081 0.0
H234 H 0.33726 0.72818 0.14863 0.0
H235 H 0.41901 0.60764 0.97099 0.0
H236 H 0.2932 0.73842 0.98842 0.0
H237 H 0.46228 0.59573 0.13185 0.0
H238 H 0.37366 0.65658 0.97635 0.0
H239 H 0.38399 0.6802 0.14317 0.0
C240 C 0.33744 0.72028 0.11236 0.0
C241 C 0.31136 0.73728 0.06903 0.0
C242 C 0.39313 0.64332 0.01046 0.0
C243 C 0.36468 0.68257 0.06229 0.0
C244 C 0.41911 0.61535 0.00743 0.0
C245 C 0.44449 0.59732 0.05107 0.0
C246 C 0.39249 0.6535 0.05745 0.0
C247 C 0.4433 0.60874 0.09716 0.0
C248 C 0.3641 0.69296 0.10921 0.0
C249 C 0.31276 0.72609 0.02288 0.0
N250 N 0.4177 0.63598 0.09915 0.0
N251 N 0.33896 0.69947 0.02076 0.0
H252 H 0.82348 0.754 0.55125 0.0
H253 H 0.91008 0.94932 0.62187 0.0
H254 H 0.78255 0.80888 0.65918 0.0
H255 H 0.94145 0.89859 0.50359 0.0
H256 H 0.86437 0.89798 0.63782 0.0
H257 H 0.86829 0.80613 0.53563 0.0
C258 C 0.82403 0.77708 0.57175 0.0
C259 C 0.79932 0.77712 0.60653 0.0
C260 C 0.88124 0.89815 0.60835 0.0
C261 C 0.85058 0.83712 0.58884 0.0
C262 C 0.9074 0.92751 0.59912 0.0
C263 C 0.92993 0.92838 0.56136 0.0
C264 C 0.87758 0.86927 0.57978 0.0
C265 C 0.925 0.89918 0.53327 0.0
C266 C 0.84956 0.8069 0.56275 0.0
C267 C 0.80113 0.80772 0.63203 0.0
N268 N 0.89952 0.87087 0.54315 0.0
N269 N 0.82637 0.83651 0.6227 0.0
H270 H 0.71915 0.30147 0.99472 0.0
H271 H 0.57331 0.39432 0.13043 0.0
H272 H 0.68656 0.2473 0.13736 0.0
H273 H 0.58657 0.43962 0.97521 0.0
H274 H 0.61672 0.34146 0.13385 0.0
H275 H 0.6727 0.35343 0.98672 0.0
C276 C 0.70215 0.30045 0.02424 0.0
C277 C 0.70668 0.27012 0.06689 0.0
C278 C 0.61014 0.3628 0.09889 0.0
C279 C 0.65382 0.32936 0.0581 0.0
C280 C 0.58545 0.39309 0.097 0.0
C281 C 0.57658 0.42148 0.05258 0.0
C282 C 0.62643 0.36084 0.05611 0.0
C283 C 0.59273 0.41824 0.01018 0.0
C284 C 0.67562 0.33006 0.01961 0.0
C285 C 0.68393 0.2702 0.10393 0.0
N286 N 0.61714 0.38856 0.01307 0.0
N287 N 0.65866 0.29939 0.09881 0.0
H288 H 0.1755 0.81383 0.14595 0.0
H289 H 0.09912 0.99659 0.22954 0.0
H290 H 0.18956 0.931 0.07167 0.0
H291 H 0.08295 0.88034 0.30571 0.0
H292 H 0.13846 0.97264 0.17748 0.0
H293 H 0.14843 0.837 0.21134 0.0
C294 C 0.17352 0.8444 0.14394 0.0
C295 C 0.18438 0.87055 0.10305 0.0
C296 C 0.12657 0.95228 0.20576 0.0
C297 C 0.1531 0.89724 0.17716 0.0
C298 C 0.10393 0.96597 0.23535 0.0
C299 C 0.08731 0.9404 0.27156 0.0
C300 C 0.13255 0.91262 0.21201 0.0
C301 C 0.09523 0.90105 0.27822 0.0
C302 C 0.15785 0.85761 0.18104 0.0
C303 C 0.18095 0.90985 0.10208 0.0
N304 N 0.11696 0.88831 0.24833 0.0
N305 N 0.16536 0.92195 0.13824 0.0
H306 H 0.70228 0.65625 0.79173 0.0
H307 H 0.50649 0.59619 0.89333 0.0
H308 H 0.59019 0.68237 0.70079 0.0
H309 H 0.61782 0.55449 0.97574 0.0
H310 H 0.53706 0.63446 0.82653 0.0
H311 H 0.67227 0.62676 0.86459 0.0
C312 C 0.67139 0.65641 0.78742 0.0
C313 C 0.64867 0.67148 0.74012 0.0
C314 C 0.55483 0.61712 0.85941 0.0
C315 C 0.61415 0.63744 0.82283 0.0
C316 C 0.53736 0.59512 0.89751 0.0
C317 C 0.55958 0.57218 0.94046 0.0
C318 C 0.59486 0.6162 0.86412 0.0
C319 C 0.59952 0.57215 0.94378 0.0
C320 C 0.65426 0.63929 0.82881 0.0
C321 C 0.60874 0.67065 0.73646 0.0
N322 N 0.61585 0.59376 0.90615 0.0
N323 N 0.59279 0.65371 0.77708 0.0
H324 H 0.9199 0.17412 0.15077 0.0
H325 H 0.9013 0.03395 0.41459 0.0
H326 H 0.81138 0.13672 0.19189 0.0
H327 H 1.00719 0.0846 0.38007 0.0
H328 H 0.8676 0.07064 0.33319 0.0
H329 H 0.95218 0.14145 0.23481 0.0
C330 C 0.90287 0.1591 0.1777 0.0
C331 C 0.86295 0.15782 0.16427 0.0
C332 C 0.89818 0.07382 0.34343 0.0
C333 C 0.89973 0.1202 0.26065 0.0
C334 C 0.91736 0.05298 0.38986 0.0
C335 C 0.95688 0.05677 0.40417 0.0
C336 C 0.91886 0.09821 0.31083 0.0
C337 C 0.97662 0.08099 0.3704 0.0
C338 C 0.9213 0.14051 0.22572 0.0
C339 C 0.84221 0.13846 0.20082 0.0
N340 N 0.95739 0.10084 0.3253 0.0
N341 N 0.86088 0.12008 0.24727 0.0
H342 H 0.36849 0.30545 0.59981 0.0
H343 H 0.41346 0.50899 0.67613 0.0
H344 H 0.37572 0.41199 0.493 0.0
H345 H 0.39202 0.40814 0.78471 0.0
H346 H 0.40962 0.47056 0.61112 0.0
H347 H 0.38487 0.33965 0.66993 0.0
C348 C 0.37357 0.33595 0.59101 0.0
C349 C 0.37067 0.35578 0.5402 0.0
C350 C 0.40606 0.4566 0.64921 0.0
C351 C 0.38997 0.39491 0.62036 0.0
C352 C 0.40838 0.47855 0.68635 0.0
C353 C 0.40262 0.46175 0.73561 0.0
C354 C 0.39759 0.41749 0.66113 0.0
C355 C 0.39661 0.42212 0.7471 0.0
C356 C 0.38316 0.35537 0.63111 0.0
C357 C 0.37817 0.39521 0.53135 0.0
N358 N 0.39374 0.40133 0.70988 0.0
N359 N 0.38731 0.41337 0.57088 0.0
H360 H 0.70714 0.65167 0.54252 0.0
H361 H 0.52262 0.56474 0.39339 0.0
H362 H 0.5922 0.66656 0.56744 0.0
H363 H 0.63522 0.56169 0.35533 0.0
H364 H 0.54787 0.60138 0.4582 0.0
H365 H 0.6815 0.61923 0.47329 0.0
C366 C 0.67648 0.64854 0.53308 0.0
C367 C 0.65183 0.66169 0.56112 0.0
C368 C 0.56706 0.59279 0.43561 0.0
C369 C 0.62233 0.62393 0.48245 0.0
C370 C 0.55271 0.57162 0.39886 0.0
C371 C 0.57686 0.56005 0.36898 0.0
C372 C 0.60594 0.6023 0.44282 0.0
C373 C 0.61549 0.57031 0.37719 0.0
C374 C 0.66188 0.62976 0.49376 0.0
C375 C 0.61237 0.65631 0.54753 0.0
N376 N 0.62886 0.59071 0.41344 0.0
N377 N 0.5989 0.63769 0.5094 0.0
H378 H 0.80836 0.17012 0.92628 0.0
H379 H 0.99607 0.08189 0.87452 0.0
H380 H 0.91951 0.17774 0.01783 0.0
H381 H 0.90888 0.13319 0.74812 0.0
H382 H 0.96281 0.10729 0.93171 0.0
H383 H 0.83973 0.14909 0.86277 0.0
C384 C 0.83926 0.16784 0.93283 0.0
C385 C 0.86124 0.17506 0.97802 0.0
C386 C 0.95103 0.11298 0.89139 0.0
C387 C 0.8969 0.15013 0.90646 0.0
C388 C 0.97009 0.09863 0.85855 0.0
C389 C 0.95572 0.10576 0.80602 0.0
C390 C 0.91686 0.13406 0.87202 0.0
C391 C 0.921 0.12658 0.78826 0.0
C392 C 0.85705 0.15564 0.89675 0.0
C393 C 0.90123 0.17139 0.98445 0.0
N394 N 0.90268 0.13996 0.82123 0.0
N395 N 0.91766 0.15869 0.94952 0.0
H396 H 0.32359 0.36259 0.31355 0.0
H397 H 0.51342 0.40995 0.19348 0.0
H398 H 0.43691 0.33327 0.39883 0.0
H399 H 0.40892 0.47627 0.13732 0.0
H400 H 0.48336 0.37175 0.26114 0.0
H401 H 0.35191 0.39369 0.23963 0.0
C402 C 0.35437 0.36211 0.31632 0.0
C403 C 0.37801 0.34547 0.36223 0.0
C404 C 0.4669 0.39444 0.23366 0.0
C405 C 0.41047 0.3809 0.27835 0.0
C406 C 0.48403 0.41629 0.19513 0.0
C407 C 0.46348 0.44615 0.1594 0.0
C408 C 0.42879 0.40218 0.23622 0.0
C409 C 0.42548 0.453 0.16331 0.0
C410 C 0.37049 0.3801 0.27441 0.0
C411 C 0.41775 0.34596 0.36413 0.0
N412 N 0.40929 0.43114 0.20094 0.0
N413 N 0.43274 0.36342 0.32284 0.0
H414 H 0.15301 0.82711 0.89103 0.0
H415 H 0.09343 0.02046 0.68583 0.0
H416 H 0.17549 0.93917 0.92522 0.0
H417 H 0.04125 0.91158 0.67484 0.0
H418 H 0.1293 0.99112 0.76999 0.0
H419 H 0.11864 0.85733 0.8066 0.0
C420 C 0.15095 0.85809 0.88057 0.0
C421 C 0.16703 0.88069 0.91514 0.0
C422 C 0.11002 0.97368 0.74905 0.0
C423 C 0.12761 0.91543 0.81888 0.0
C424 C 0.08944 0.99042 0.70122 0.0
C425 C 0.06473 0.96822 0.67318 0.0
C426 C 0.10597 0.93445 0.76865 0.0
C427 C 0.06074 0.92943 0.69469 0.0
C428 C 0.1311 0.87531 0.8326 0.0
C429 C 0.16317 0.92072 0.89984 0.0
N430 N 0.08133 0.91369 0.74098 0.0
N431 N 0.14392 0.93685 0.85276 0.0
loop_
_geom_bond_atom_site_label_1
_geom_bond_atom_site_label_2
_geom_bond_distance
_geom_bond_site_symmetry_2
_ccdc_geom_bond_type
H0 C5 0.930 . S
H1 C8 0.930 . S
H2 C10 0.930 . S
H3 C4 1.016 . S
C4 H3 1.016 . S
C4 N11 1.286 . S
C5 H0 0.930 . S
C5 C6 1.397 . S
C5 C7 1.361 1_556 S
C6 C5 1.397 . S
C6 C10 1.390 1_556 S
C7 C5 1.361 1_554 S
C7 C8 1.393 . S
C7 N11 1.413 . S
C8 H1 0.930 . S
C8 C7 1.393 . S
C8 C9 1.399 . S
C9 C8 1.399 . S
C9 C10 1.381 . S
C10 H2 0.930 . S
C10 C6 1.390 1_554 S
C10 C9 1.381 . S
N11 C4 1.286 . S
N11 C7 1.413 . S
H12 C17 0.930 . S
H13 C20 0.930 . S
H14 C22 0.930 . S
H15 C16 1.016 . S
C16 H15 1.016 . S
C16 N23 1.286 . S
C17 H12 0.930 . S
C17 C18 1.397 . S
C17 C19 1.361 . S
C18 C17 1.397 . S
C18 C22 1.390 . S
C19 C17 1.361 . S
C19 C20 1.393 . S
C19 N23 1.413 . S
C20 H13 0.930 . S
C20 C19 1.393 . S
C20 C21 1.399 . S
C21 C20 1.399 . S
C21 C22 1.381 . S
C22 H14 0.930 . S
C22 C18 1.390 . S
C22 C21 1.381 . S
N23 C16 1.286 . S
N23 C19 1.413 . S
H24 C29 0.930 1_556 S
H25 C32 0.930 . S
H26 C34 0.930 . S
H27 C28 1.016 . S
C28 H27 1.016 . S
C28 N35 1.286 . S
C29 H24 0.930 1_554 S
C29 C30 1.397 . S
C29 C31 1.361 . S
C30 C29 1.397 . S
C30 C34 1.390 . S
C31 C29 1.361 . S
C31 C32 1.393 . S
C31 N35 1.413 . S
C32 H25 0.930 . S
C32 C31 1.393 . S
C32 C33 1.399 . S
C33 C32 1.399 . S
C33 C34 1.381 . S
C34 H26 0.930 . S
C34 C30 1.390 . S
C34 C33 1.381 . S
N35 C28 1.286 . S
N35 C31 1.413 . S
H36 C41 0.930 . S
H37 C44 0.930 . S
H38 C46 0.930 . S
H39 C40 1.016 . S
C40 H39 1.016 . S
C40 N47 1.286 . S
C41 H36 0.930 . S
C41 C42 1.397 . S
C41 C43 1.361 . S
C42 C41 1.397 . S
C42 C46 1.390 . S
C43 C41 1.361 . S
C43 C44 1.393 . S
C43 N47 1.413 . S
C44 H37 0.930 . S
C44 C43 1.393 . S
C44 C45 1.399 . S
C45 C44 1.399 . S
C45 C46 1.381 . S
C46 H38 0.930 . S
C46 C42 1.390 . S
C46 C45 1.381 . S
N47 C40 1.286 . S
N47 C43 1.413 . S
Tb48 N77 2.617 . S
Tb48 N83 2.572 . S
Tb48 O92 2.465 . S
Tb48 O93 2.387 . S
Tb48 O95 2.428 . S
Tb48 O96 2.308 1_565 S
Tb48 O100 2.349 1_465 S
Tb48 O103 2.393 1_455 S
Tb48 C112 2.802 . S
C49 N50 1.379 . S
C49 C52 1.416 . S
C49 C56 1.424 . S
N50 C49 1.379 . S
N50 C53 1.334 1_655 S
N50 Tb59 2.617 . S
C51 C53 1.390 . S
C51 C54 1.339 1_455 S
C51 H71 0.930 . S
C52 C49 1.416 . S
C52 C54 1.416 . S
C52 C58 1.448 . S
C53 N50 1.334 1_455 S
C53 C51 1.390 . S
C53 H64 0.930 . S
C54 C51 1.339 1_655 S
C54 C52 1.416 . S
C54 H75 0.930 . S
C55 C56 1.413 . S
C55 C57 1.427 . S
C55 C61 1.416 . S
C56 C49 1.424 . S
C56 C55 1.413 . S
C56 N60 1.361 . S
C57 C55 1.427 . S
C57 C58 1.328 . S
C57 H72 0.929 . S
C58 C52 1.448 . S
C58 C57 1.328 . S
C58 H73 0.930 . S
Tb59 N50 2.617 . S
Tb59 N60 2.572 . S
Tb59 O94 2.349 1_655 S
Tb59 O97 2.393 1_655 S
Tb59 O98 2.465 . S
Tb59 O99 2.387 . S
Tb59 O101 2.428 . S
Tb59 O102 2.308 1_545 S
Tb59 C123 2.802 . S
N60 C56 1.361 . S
N60 Tb59 2.572 . S
N60 C62 1.340 . S
C61 C55 1.416 . S
C61 C63 1.332 . S
C61 H69 0.931 . S
C62 N60 1.340 . S
C62 C63 1.407 . S
C62 H68 0.930 . S
C63 C61 1.332 . S
C63 C62 1.407 . S
C63 H65 0.929 . S
H64 C53 0.930 . S
H65 C63 0.929 . S
H66 C81 0.930 1_655 S
H67 C88 0.929 . S
H68 C62 0.930 . S
H69 C61 0.931 . S
H70 C84 0.930 . S
H71 C51 0.930 . S
H72 C57 0.929 . S
H73 C58 0.930 . S
H74 C79 0.930 1_655 S
H75 C54 0.930 . S
H76 C87 0.931 . S
N77 Tb48 2.617 . S
N77 C78 1.379 . S
N77 C81 1.334 . S
C78 N77 1.379 . S
C78 C80 1.416 . S
C78 C86 1.424 . S
C79 H74 0.930 1_455 S
C79 C81 1.390 . S
C79 C82 1.339 . S
C80 C78 1.416 . S
C80 C82 1.416 . S
C80 C113 1.448 . S
C81 H66 0.930 1_455 S
C81 N77 1.334 . S
C81 C79 1.390 . S
C82 C79 1.339 . S
C82 C80 1.416 . S
C82 H89 0.930 . S
N83 Tb48 2.572 . S
N83 C84 1.340 . S
N83 C86 1.361 . S
C84 H70 0.930 . S
C84 N83 1.340 . S
C84 C88 1.407 . S
C85 C86 1.413 . S
C85 C87 1.416 . S
C85 C114 1.427 . S
C86 C78 1.424 . S
C86 N83 1.361 . S
C86 C85 1.413 . S
C87 H76 0.931 . S
C87 C85 1.416 . S
C87 C88 1.332 . S
C88 H67 0.929 . S
C88 C84 1.407 . S
C88 C87 1.332 . S
H89 C82 0.930 . S
H90 C113 0.930 . S
H91 C114 0.929 . S
O92 Tb48 2.465 . S
O92 C112 1.264 . S
O93 Tb48 2.387 . S
O93 C104 1.264 . S
O94 Tb59 2.349 1_455 S
O94 C104 1.243 1_545 S
O95 Tb48 2.428 . S
O95 C112 1.256 . S
O96 Tb48 2.308 1_545 S
O96 C111 1.266 . S
O97 Tb59 2.393 1_455 S
O97 C111 1.248 . S
O98 Tb59 2.465 . S
O98 C123 1.264 . S
O99 Tb59 2.387 . S
O99 C115 1.264 . S
O100 Tb48 2.349 1_645 S
O100 C115 1.243 . S
O101 Tb59 2.428 . S
O101 C123 1.256 . S
O102 Tb59 2.308 1_565 S
O102 C122 1.266 . S
O103 Tb48 2.393 1_655 S
O103 C122 1.248 . S
C104 O93 1.264 . S
C104 O94 1.243 1_565 S
C105 C108 1.399 . S
C105 C110 1.383 . S
C105 C112 1.496 . S
C106 C107 1.399 . S
C106 C110 1.389 . S
C107 C106 1.399 . S
C107 C109 1.380 . S
C107 H124 0.929 . S
C108 C105 1.399 . S
C108 C109 1.392 . S
C108 H125 0.929 . S
C109 C107 1.380 . S
C109 C108 1.392 . S
C109 H126 0.929 . S
C110 C105 1.383 . S
C110 C106 1.389 . S
C110 H127 0.931 . S
C111 O96 1.266 . S
C111 O97 1.248 . S
C112 Tb48 2.802 . S
C112 O92 1.264 . S
C112 O95 1.256 . S
C112 C105 1.496 . S
C113 C80 1.448 . S
C113 H90 0.930 . S
C113 C114 1.328 . S
C114 C85 1.427 . S
C114 H91 0.929 . S
C114 C113 1.328 . S
C115 O99 1.264 . S
C115 O100 1.243 . S
C116 C119 1.399 . S
C116 C120 1.383 . S
C116 C123 1.496 . S
C117 C118 1.399 . S
C117 C120 1.389 . S
C118 C117 1.399 . S
C118 C121 1.380 . S
C118 H128 0.929 . S
C119 C116 1.399 . S
C119 C121 1.392 . S
C119 H129 0.929 . S
C120 C116 1.383 . S
C120 C117 1.389 . S
C120 H130 0.931 . S
C121 C118 1.380 . S
C121 C119 1.392 . S
C121 H131 0.929 . S
C122 O102 1.266 . S
C122 O103 1.248 . S
C123 Tb59 2.802 . S
C123 O98 1.264 . S
C123 O101 1.256 . S
C123 C116 1.496 . S
H124 C107 0.929 . S
H125 C108 0.929 . S
H126 C109 0.929 . S
H127 C110 0.931 . S
H128 C118 0.929 . S
H129 C119 0.929 . S
H130 C120 0.931 . S
H131 C121 0.929 . S
Tb132 N161 2.617 1_556 S
Tb132 N167 2.572 1_556 S
Tb132 O176 2.464 . S
Tb132 O177 2.388 1_556 S
Tb132 O179 2.427 . S
Tb132 O180 2.308 1_556 S
Tb132 O184 2.348 . S
Tb132 O187 2.393 1_556 S
Tb132 C196 2.801 . S
C133 N134 1.379 . S
C133 C136 1.416 . S
C133 C140 1.424 . S
N134 C133 1.379 . S
N134 C137 1.334 . S
N134 Tb143 2.617 . S
C135 C137 1.390 . S
C135 C138 1.339 . S
C135 H155 0.930 . S
C136 C133 1.416 . S
C136 C138 1.416 . S
C136 C142 1.448 . S
C137 N134 1.334 . S
C137 C135 1.390 . S
C137 H148 0.930 . S
C138 C135 1.339 . S
C138 C136 1.416 . S
C138 H159 0.930 . S
C139 C140 1.413 . S
C139 C141 1.427 . S
C139 C145 1.416 . S
C140 C133 1.424 . S
C140 C139 1.413 . S
C140 N144 1.361 . S
C141 C139 1.427 . S
C141 C142 1.328 . S
C141 H156 0.929 . S
C142 C136 1.448 . S
C142 C141 1.328 . S
C142 H157 0.930 . S
Tb143 N134 2.617 . S
Tb143 N144 2.572 . S
Tb143 O178 2.349 . S
Tb143 O181 2.393 . S
Tb143 O182 2.465 . S
Tb143 O183 2.387 . S
Tb143 O185 2.428 . S
Tb143 O186 2.308 . S
Tb143 C207 2.802 . S
N144 C140 1.361 . S
N144 Tb143 2.572 . S
N144 C146 1.340 . S
C145 C139 1.416 . S
C145 C147 1.332 . S
C145 H153 0.931 . S
C146 N144 1.340 . S
C146 C147 1.407 . S
C146 H152 0.930 . S
C147 C145 1.332 . S
C147 C146 1.407 . S
C147 H149 0.929 . S
H148 C137 0.930 . S
H149 C147 0.929 . S
H150 C165 0.930 . S
H151 C172 0.929 . S
H152 C146 0.930 . S
H153 C145 0.931 . S
H154 C168 0.930 . S
H155 C135 0.930 . S
H156 C141 0.929 . S
H157 C142 0.930 . S
H158 C163 0.930 . S
H159 C138 0.930 . S
H160 C171 0.931 . S
N161 Tb132 2.617 1_554 S
N161 C162 1.379 . S
N161 C165 1.334 1_554 S
C162 N161 1.379 . S
C162 C164 1.416 . S
C162 C170 1.424 . S
C163 H158 0.930 . S
C163 C165 1.392 . S
C163 C166 1.337 1_556 S
C164 C162 1.416 . S
C164 C166 1.416 . S
C164 C197 1.448 . S
C165 H150 0.930 . S
C165 N161 1.334 1_556 S
C165 C163 1.392 . S
C166 C163 1.337 1_554 S
C166 C164 1.416 . S
C166 H173 0.930 . S
N167 Tb132 2.572 1_554 S
N167 C168 1.340 . S
N167 C170 1.361 . S
C168 H154 0.930 . S
C168 N167 1.340 . S
C168 C172 1.407 . S
C169 C170 1.413 . S
C169 C171 1.416 . S
C169 C198 1.427 . S
C170 C162 1.424 . S
C170 N167 1.361 . S
C170 C169 1.413 . S
C171 H160 0.931 . S
C171 C169 1.416 . S
C171 C172 1.332 . S
C172 H151 0.929 . S
C172 C168 1.407 . S
C172 C171 1.332 . S
H173 C166 0.930 . S
H174 C197 0.930 . S
H175 C198 0.929 . S
O176 Tb132 2.464 . S
O176 C196 1.264 . S
O177 Tb132 2.388 1_554 S
O177 C188 1.264 . S
O178 Tb143 2.349 . S
O178 C188 1.243 . S
O179 Tb132 2.427 . S
O179 C196 1.256 . S
O180 Tb132 2.308 1_554 S
O180 C195 1.266 . S
O181 Tb143 2.393 . S
O181 C195 1.248 . S
O182 Tb143 2.465 . S
O182 C207 1.264 . S
O183 Tb143 2.387 . S
O183 C199 1.264 1_554 S
O184 Tb132 2.348 . S
O184 C199 1.243 . S
O185 Tb143 2.428 . S
O185 C207 1.256 . S
O186 Tb143 2.308 . S
O186 C206 1.266 . S
O187 Tb132 2.393 1_554 S
O187 C206 1.248 . S
C188 O177 1.264 . S
C188 O178 1.243 . S
C189 C192 1.399 . S
C189 C194 1.383 . S
C189 C196 1.496 . S
C190 C191 1.399 . S
C190 C194 1.389 . S
C191 C190 1.399 . S
C191 C193 1.380 . S
C191 H208 0.929 . S
C192 C189 1.399 . S
C192 C193 1.392 . S
C192 H209 0.929 . S
C193 C191 1.380 . S
C193 C192 1.392 . S
C193 H210 0.929 . S
C194 C189 1.383 . S
C194 C190 1.389 . S
C194 H211 0.931 . S
C195 O180 1.266 . S
C195 O181 1.248 . S
C196 Tb132 2.801 . S
C196 O176 1.264 . S
C196 O179 1.256 . S
C196 C189 1.496 . S
C197 C164 1.448 . S
C197 H174 0.930 . S
C197 C198 1.328 . S
C198 C169 1.427 . S
C198 H175 0.929 . S
C198 C197 1.328 . S
C199 O183 1.264 1_556 S
C199 O184 1.243 . S
C200 C203 1.399 . S
C200 C204 1.383 . S
C200 C207 1.496 . S
C201 C202 1.399 . S
C201 C204 1.389 . S
C202 C201 1.399 . S
C202 C205 1.380 . S
C202 H212 0.929 . S
C203 C200 1.399 . S
C203 C205 1.392 . S
C203 H213 0.929 . S
C204 C200 1.383 . S
C204 C201 1.389 . S
C204 H214 0.931 . S
C205 C202 1.380 . S
C205 C203 1.392 . S
C205 H215 0.929 . S
C206 O186 1.266 . S
C206 O187 1.248 . S
C207 Tb143 2.802 . S
C207 O182 1.264 . S
C207 O185 1.256 . S
C207 C200 1.496 . S
H208 C191 0.929 . S
H209 C192 0.929 . S
H210 C193 0.929 . S
H211 C194 0.931 . S
H212 C202 0.929 . S
H213 C203 0.929 . S
H214 C204 0.931 . S
H215 C205 0.929 . S
H216 C222 0.930 . S
H217 C226 0.930 . S
H218 C231 0.929 . S
H219 C229 0.929 . S
H220 C224 0.929 . S
H221 C230 0.929 . S
C222 H216 0.930 . S
C222 C223 1.367 . S
C222 C230 1.378 . S
C223 C222 1.367 . S
C223 C231 1.433 . S
C224 H220 0.929 . S
C224 C226 1.378 . S
C224 C228 1.350 . S
C225 C228 1.463 . S
C225 C230 1.350 . S
C225 N233 1.427 . S
C226 H217 0.930 . S
C226 C224 1.378 . S
C226 C227 1.367 . S
C227 C226 1.367 . S
C227 C229 1.433 . S
C228 C224 1.350 . S
C228 C225 1.463 . S
C228 N232 1.427 . S
C229 H219 0.929 . S
C229 C227 1.433 . S
C229 N232 1.384 . S
C230 H221 0.929 . S
C230 C222 1.378 . S
C230 C225 1.350 . S
C231 H218 0.929 . S
C231 C223 1.433 . S
C231 N233 1.384 . S
N232 C228 1.427 . S
N232 C229 1.384 . S
N233 C225 1.427 . S
N233 C231 1.384 . S
H234 C240 0.930 . S
H235 C244 0.930 1_556 S
H236 C249 0.929 1_556 S
H237 C247 0.929 . S
H238 C242 0.929 1_556 S
H239 C248 0.929 . S
C240 H234 0.930 . S
C240 C241 1.367 . S
C240 C248 1.378 . S
C241 C240 1.367 . S
C241 C249 1.433 . S
C242 H238 0.929 1_554 S
C242 C244 1.378 . S
C242 C246 1.350 . S
C243 C246 1.463 . S
C243 C248 1.350 . S
C243 N251 1.427 . S
C244 H235 0.930 1_554 S
C244 C242 1.378 . S
C244 C245 1.367 . S
C245 C244 1.367 . S
C245 C247 1.433 . S
C246 C242 1.350 . S
C246 C243 1.463 . S
C246 N250 1.427 . S
C247 H237 0.929 . S
C247 C245 1.433 . S
C247 N250 1.384 . S
C248 H239 0.929 . S
C248 C240 1.378 . S
C248 C243 1.350 . S
C249 H236 0.929 1_554 S
C249 C241 1.433 . S
C249 N251 1.384 . S
N250 C246 1.427 . S
N250 C247 1.384 . S
N251 C243 1.427 . S
N251 C249 1.384 . S
H252 C258 0.930 . S
H253 C262 0.930 . S
H254 C267 0.929 . S
H255 C265 0.929 . S
H256 C260 0.929 . S
H257 C266 0.929 . S
C258 H252 0.930 . S
C258 C259 1.367 . S
C258 C266 1.378 . S
C259 C258 1.367 . S
C259 C267 1.433 . S
C260 H256 0.929 . S
C260 C262 1.378 . S
C260 C264 1.350 . S
C261 C264 1.463 . S
C261 C266 1.350 . S
C261 N269 1.427 . S
C262 H253 0.930 . S
C262 C260 1.378 . S
C262 C263 1.367 . S
C263 C262 1.367 . S
C263 C265 1.433 . S
C264 C260 1.350 . S
C264 C261 1.463 . S
C264 N268 1.427 . S
C265 H255 0.929 . S
C265 C263 1.433 . S
C265 N268 1.384 . S
C266 H257 0.929 . S
C266 C258 1.378 . S
C266 C261 1.350 . S
C267 H254 0.929 . S
C267 C259 1.433 . S
C267 N269 1.384 . S
N268 C264 1.427 . S
N268 C265 1.384 . S
N269 C261 1.427 . S
N269 C267 1.384 . S
H270 C276 0.930 . S
H271 C280 0.930 . S
H272 C285 0.929 . S
H273 C283 0.929 . S
H274 C278 0.929 . S
H275 C284 0.929 . S
C276 H270 0.930 . S
C276 C277 1.367 . S
C276 C284 1.378 . S
C277 C276 1.367 . S
C277 C285 1.433 . S
C278 H274 0.929 . S
C278 C280 1.378 . S
C278 C282 1.350 . S
C279 C282 1.463 . S
C279 C284 1.350 . S
C279 N287 1.427 . S
C280 H271 0.930 . S
C280 C278 1.378 . S
C280 C281 1.367 . S
C281 C280 1.367 . S
C281 C283 1.433 . S
C282 C278 1.350 . S
C282 C279 1.463 . S
C282 N286 1.427 . S
C283 H273 0.929 . S
C283 C281 1.433 . S
C283 N286 1.384 . S
C284 H275 0.929 . S
C284 C276 1.378 . S
C284 C279 1.350 . S
C285 H272 0.929 . S
C285 C277 1.433 . S
C285 N287 1.384 . S
N286 C282 1.427 . S
N286 C283 1.384 . S
N287 C279 1.427 . S
N287 C285 1.384 . S
H288 C294 0.930 . S
H289 C298 0.901 1_545 S
H290 C303 0.929 . S
H291 C301 0.929 . S
H292 C296 0.929 . S
H293 C302 0.929 . S
C294 H288 0.930 . S
C294 C295 1.367 . S
C294 C302 1.378 . S
C295 C294 1.367 . S
C295 C303 1.433 . S
C296 H292 0.929 . S
C296 C298 1.378 . S
C296 C300 1.350 . S
C297 C300 1.463 . S
C297 C302 1.350 . S
C297 N305 1.427 . S
C298 H289 0.901 1_565 S
C298 C296 1.378 . S
C298 C299 1.367 . S
C299 C298 1.367 . S
C299 C301 1.433 . S
C300 C296 1.350 . S
C300 C297 1.463 . S
C300 N304 1.427 . S
C301 H291 0.929 . S
C301 C299 1.433 . S
C301 N304 1.384 . S
C302 H293 0.929 . S
C302 C294 1.378 . S
C302 C297 1.350 . S
C303 H290 0.929 . S
C303 C295 1.433 . S
C303 N305 1.384 . S
N304 C300 1.427 . S
N304 C301 1.384 . S
N305 C297 1.427 . S
N305 C303 1.384 . S
H306 C312 0.930 . S
H307 C316 0.930 . S
H308 C321 0.929 . S
H309 C319 0.929 . S
H310 C314 0.929 . S
H311 C320 0.929 . S
C312 H306 0.930 . S
C312 C313 1.367 . S
C312 C320 1.378 . S
C313 C312 1.367 . S
C313 C321 1.433 . S
C314 H310 0.929 . S
C314 C316 1.378 . S
C314 C318 1.350 . S
C315 C318 1.463 . S
C315 C320 1.350 . S
C315 N323 1.427 . S
C316 H307 0.930 . S
C316 C314 1.378 . S
C316 C317 1.367 . S
C317 C316 1.367 . S
C317 C319 1.433 . S
C318 C314 1.350 . S
C318 C315 1.463 . S
C318 N322 1.427 . S
C319 H309 0.929 . S
C319 C317 1.433 . S
C319 N322 1.384 . S
C320 H311 0.929 . S
C320 C312 1.378 . S
C320 C315 1.350 . S
C321 H308 0.929 . S
C321 C313 1.433 . S
C321 N323 1.384 . S
N322 C318 1.427 . S
N322 C319 1.384 . S
N323 C315 1.427 . S
N323 C321 1.384 . S
H324 C330 0.930 . S
H325 C334 0.930 . S
H326 C339 0.929 . S
H327 C337 0.929 . S
H328 C332 0.929 . S
H329 C338 0.929 . S
C330 H324 0.930 . S
C330 C331 1.367 . S
C330 C338 1.378 . S
C331 C330 1.367 . S
C331 C339 1.433 . S
C332 H328 0.929 . S
C332 C334 1.378 . S
C332 C336 1.350 . S
C333 C336 1.463 . S
C333 C338 1.350 . S
C333 N341 1.427 . S
C334 H325 0.930 . S
C334 C332 1.378 . S
C334 C335 1.367 . S
C335 C334 1.367 . S
C335 C337 1.433 . S
C336 C332 1.350 . S
C336 C333 1.463 . S
C336 N340 1.427 . S
C337 H327 0.929 . S
C337 C335 1.433 . S
C337 N340 1.384 . S
C338 H329 0.929 . S
C338 C330 1.378 . S
C338 C333 1.350 . S
C339 H326 0.929 . S
C339 C331 1.433 . S
C339 N341 1.384 . S
N340 C336 1.427 . S
N340 C337 1.384 . S
N341 C333 1.427 . S
N341 C339 1.384 . S
H342 C348 0.930 . S
H343 C352 0.930 . S
H344 C357 0.929 . S
H345 C355 0.929 . S
H346 C350 0.929 . S
H347 C356 0.929 . S
C348 H342 0.930 . S
C348 C349 1.367 . S
C348 C356 1.378 . S
C349 C348 1.367 . S
C349 C357 1.433 . S
C350 H346 0.929 . S
C350 C352 1.378 . S
C350 C354 1.350 . S
C351 C354 1.463 . S
C351 C356 1.350 . S
C351 N359 1.427 . S
C352 H343 0.930 . S
C352 C350 1.378 . S
C352 C353 1.367 . S
C353 C352 1.367 . S
C353 C355 1.433 . S
C354 C350 1.350 . S
C354 C351 1.463 . S
C354 N358 1.427 . S
C355 H345 0.929 . S
C355 C353 1.433 . S
C355 N358 1.384 . S
C356 H347 0.929 . S
C356 C348 1.378 . S
C356 C351 1.350 . S
C357 H344 0.929 . S
C357 C349 1.433 . S
C357 N359 1.384 . S
N358 C354 1.427 . S
N358 C355 1.384 . S
N359 C351 1.427 . S
N359 C357 1.384 . S
H360 C366 0.930 . S
H361 C370 0.930 . S
H362 C375 0.929 . S
H363 C373 0.929 . S
H364 C368 0.929 . S
H365 C374 0.929 . S
C366 H360 0.930 . S
C366 C367 1.367 . S
C366 C374 1.378 . S
C367 C366 1.367 . S
C367 C375 1.433 . S
C368 H364 0.929 . S
C368 C370 1.378 . S
C368 C372 1.350 . S
C369 C372 1.463 . S
C369 C374 1.350 . S
C369 N377 1.427 . S
C370 H361 0.930 . S
C370 C368 1.378 . S
C370 C371 1.367 . S
C371 C370 1.367 . S
C371 C373 1.433 . S
C372 C368 1.350 . S
C372 C369 1.463 . S
C372 N376 1.427 . S
C373 H363 0.929 . S
C373 C371 1.433 . S
C373 N376 1.384 . S
C374 H365 0.929 . S
C374 C366 1.378 . S
C374 C369 1.350 . S
C375 H362 0.929 . S
C375 C367 1.433 . S
C375 N377 1.384 . S
N376 C372 1.427 . S
N376 C373 1.384 . S
N377 C369 1.427 . S
N377 C375 1.384 . S
H378 C384 0.930 . S
H379 C388 0.930 . S
H380 C393 0.929 1_554 S
H381 C391 0.929 . S
H382 C386 0.929 . S
H383 C392 0.929 . S
C384 H378 0.930 . S
C384 C385 1.367 . S
C384 C392 1.378 . S
C385 C384 1.367 . S
C385 C393 1.433 . S
C386 H382 0.929 . S
C386 C388 1.378 . S
C386 C390 1.350 . S
C387 C390 1.463 . S
C387 C392 1.350 . S
C387 N395 1.427 . S
C388 H379 0.930 . S
C388 C386 1.378 . S
C388 C389 1.367 . S
C389 C388 1.367 . S
C389 C391 1.433 . S
C390 C386 1.350 . S
C390 C387 1.463 . S
C390 N394 1.427 . S
C391 H381 0.929 . S
C391 C389 1.433 . S
C391 N394 1.384 . S
C392 H383 0.929 . S
C392 C384 1.378 . S
C392 C387 1.350 . S
C393 H380 0.929 1_556 S
C393 C385 1.433 . S
C393 N395 1.384 . S
N394 C390 1.427 . S
N394 C391 1.384 . S
N395 C387 1.427 . S
N395 C393 1.384 . S
H396 C402 0.930 . S
H397 C406 0.930 . S
H398 C411 0.929 . S
H399 C409 0.929 . S
H400 C404 0.929 . S
H401 C410 0.929 . S
C402 H396 0.930 . S
C402 C403 1.367 . S
C402 C410 1.378 . S
C403 C402 1.367 . S
C403 C411 1.433 . S
C404 H400 0.929 . S
C404 C406 1.378 . S
C404 C408 1.350 . S
C405 C408 1.463 . S
C405 C410 1.350 . S
C405 N413 1.427 . S
C406 H397 0.930 . S
C406 C404 1.378 . S
C406 C407 1.367 . S
C407 C406 1.367 . S
C407 C409 1.433 . S
C408 C404 1.350 . S
C408 C405 1.463 . S
C408 N412 1.427 . S
C409 H399 0.929 . S
C409 C407 1.433 . S
C409 N412 1.384 . S
C410 H401 0.929 . S
C410 C402 1.378 . S
C410 C405 1.350 . S
C411 H398 0.929 . S
C411 C403 1.433 . S
C411 N413 1.384 . S
N412 C408 1.427 . S
N412 C409 1.384 . S
N413 C405 1.427 . S
N413 C411 1.384 . S
H414 C420 0.930 . S
H415 C424 0.930 1_545 S
H416 C429 0.929 . S
H417 C427 0.929 . S
H418 C422 0.929 . S
H419 C428 0.929 . S
C420 H414 0.930 . S
C420 C421 1.367 . S
C420 C428 1.378 . S
C421 C420 1.367 . S
C421 C429 1.433 . S
C422 H418 0.929 . S
C422 C424 1.378 . S
C422 C426 1.350 . S
C423 C426 1.463 . S
C423 C428 1.350 . S
C423 N431 1.427 . S
C424 H415 0.930 1_565 S
C424 C422 1.378 . S
C424 C425 1.367 . S
C425 C424 1.367 . S
C425 C427 1.433 . S
C426 C422 1.350 . S
C426 C423 1.463 . S
C426 N430 1.427 . S
C427 H417 0.929 . S
C427 C425 1.433 . S
C427 N430 1.384 . S
C428 H419 0.929 . S
C428 C420 1.378 . S
C428 C423 1.350 . S
C429 H416 0.929 . S
C429 C421 1.433 . S
C429 N431 1.384 . S
N430 C426 1.427 . S
N430 C427 1.384 . S
N431 C423 1.427 . S
N431 C429 1.384 . S
C227 C111 1.648 . S
C223 C40 1.664 . S
C241 C4 1.661 . S
C245 C206 1.643 . S
C259 C16 1.654 . S
C263 C122 1.673 . S
C277 C28 1.628 . S
C281 C195 1.628 . S
C299 C106 1.449 . S
C295 C9 1.607 . S
C317 C199 1.709 . S
C313 C18 1.707 . S
C331 C33 1.634 . S
C335 C115 1.653 . S
C349 C45 1.608 . S
C353 C190 1.436 . S
C371 C201 1.406 . S
C367 C21 1.571 . S
C389 C117 1.383 . S
C385 C30 1.566 1_556 S
C407 C188 1.641 . S
C403 C42 1.626 . S
C421 C6 1.574 . S
C425 C104 1.595 . S
