# Generated by pormake.
# Topology zzz, (3,6)-cn, num edge types: 1
# Building blocks:
#     Node 0, Type 0, BuildingBlock: CUQRIR_clean_linker_1, # of connection points: 3
#     Node 1, Type 0, BuildingBlock: CUQRIR_clean_linker_1, # of connection points: 3
#     Node 2, Type 0, BuildingBlock: CUQRIR_clean_linker_1, # of connection points: 3
#     Node 3, Type 0, BuildingBlock: CUQRIR_clean_linker_1, # of connection points: 3
#     Node 4, Type 0, BuildingBlock: CUQRIR_clean_linker_1, # of connection points: 3
#     Node 5, Type 0, BuildingBlock: CUQRIR_clean_linker_1, # of connection points: 3
#     Node 6, Type 0, BuildingBlock: CUQRIR_clean_linker_1, # of connection points: 3
#     Node 7, Type 0, BuildingBlock: CUQRIR_clean_linker_1, # of connection points: 3
#     Node 8, Type 1, BuildingBlock: NUHQIS_clean_sbu_0, # of connection points: 6
#     Node 9, Type 1, BuildingBlock: NUHQIS_clean_sbu_0, # of connection points: 6
#     Node 10, Type 1, BuildingBlock: NUHQIS_clean_sbu_0, # of connection points: 6
#     Node 11, Type 1, BuildingBlock: NUHQIS_clean_sbu_0, # of connection points: 6
#     Edge 12, Type (0, 1), BuildingBlock: KIFKEQ_clean_linker_1, # of connection points: 2
#     Edge 13, Type (0, 1), BuildingBlock: KIFKEQ_clean_linker_1, # of connection points: 2
#     Edge 14, Type (0, 1), BuildingBlock: KIFKEQ_clean_linker_1, # of connection points: 2
#     Edge 15, Type (0, 1), BuildingBlock: KIFKEQ_clean_linker_1, # of connection points: 2
#     Edge 16, Type (0, 1), BuildingBlock: KIFKEQ_clean_linker_1, # of connection points: 2
#     Edge 17, Type (0, 1), BuildingBlock: KIFKEQ_clean_linker_1, # of connection points: 2
#     Edge 18, Type (0, 1), BuildingBlock: KIFKEQ_clean_linker_1, # of connection points: 2
#     Edge 19, Type (0, 1), BuildingBlock: KIFKEQ_clean_linker_1, # of connection points: 2
#     Edge 20, Type (0, 1), BuildingBlock: KIFKEQ_clean_linker_1, # of connection points: 2
#     Edge 21, Type (0, 1), BuildingBlock: KIFKEQ_clean_linker_1, # of connection points: 2
#     Edge 22, Type (0, 1), BuildingBlock: KIFKEQ_clean_linker_1, # of connection points: 2
#     Edge 23, Type (0, 1), BuildingBlock: KIFKEQ_clean_linker_1, # of connection points: 2
#     Edge 24, Type (0, 1), BuildingBlock: KIFKEQ_clean_linker_1, # of connection points: 2
#     Edge 25, Type (0, 1), BuildingBlock: KIFKEQ_clean_linker_1, # of connection points: 2
#     Edge 26, Type (0, 1), BuildingBlock: KIFKEQ_clean_linker_1, # of connection points: 2
#     Edge 27, Type (0, 1), BuildingBlock: KIFKEQ_clean_linker_1, # of connection points: 2
#     Edge 28, Type (0, 1), BuildingBlock: KIFKEQ_clean_linker_1, # of connection points: 2
#     Edge 29, Type (0, 1), BuildingBlock: KIFKEQ_clean_linker_1, # of connection points: 2
#     Edge 30, Type (0, 1), BuildingBlock: KIFKEQ_clean_linker_1, # of connection points: 2
#     Edge 31, Type (0, 1), BuildingBlock: KIFKEQ_clean_linker_1, # of connection points: 2
#     Edge 32, Type (0, 1), BuildingBlock: KIFKEQ_clean_linker_1, # of connection points: 2
#     Edge 33, Type (0, 1), BuildingBlock: KIFKEQ_clean_linker_1, # of connection points: 2
#     Edge 34, Type (0, 1), BuildingBlock: KIFKEQ_clean_linker_1, # of connection points: 2
#     Edge 35, Type (0, 1), BuildingBlock: KIFKEQ_clean_linker_1, # of connection points: 2
# Relax obj value: 0.287
# Max RMSD: 0.161
# Mean RMSD: 0.136
data_MOF--net-zzz--node1-NUHQIS_clean_sbu_0--node2-CUQRIR_clean_linker_1--edge1-KIFKEQ_clean_linker_1
_symmetry_space_group_name_H-M    P1
_symmetry_Int_Tables_number       1
_symmetry_cell_setting            triclinic
loop_
_symmetry_equiv_pos_as_xyz
'x, y, z'
_cell_length_a     49.51795
_cell_length_b     49.530653
_cell_length_c     12.835374
_cell_angle_alpha  89.857788
_cell_angle_beta   89.950196
_cell_angle_gamma 90.083257
loop_
_atom_site_label
_atom_site_type_symbol
_atom_site_fract_x
_atom_site_fract_y
_atom_site_fract_z
_atom_type_partial_charge
C0 C 0.75701 0.53151 0.38033 0.0
N1 N 0.77774 0.5163 0.41829 0.0
N2 N 0.73671 0.51554 0.3427 0.0
C3 C 0.75702 0.56173 0.37661 0.0
C4 C 0.7462 0.49015 0.35831 0.0
N5 N 0.77089 0.49062 0.40386 0.0
C6 C 0.73195 0.46492 0.32264 0.0
H7 H 0.76869 0.5701 0.44291 0.0
H8 H 0.73606 0.56963 0.37796 0.0
H9 H 0.76683 0.56841 0.30318 0.0
H10 H 0.72605 0.46707 0.23963 0.0
H11 H 0.71323 0.4621 0.36879 0.0
H12 H 0.74451 0.4466 0.33268 0.0
C13 C 1.00768 0.75108 0.39666 0.0
N14 N 0.02363 0.77128 0.43425 0.0
N15 N 0.02288 0.73022 0.35956 0.0
C16 C 0.97753 0.7525 0.38965 0.0
C17 C 0.04857 0.73882 0.37457 0.0
N18 N 0.04908 0.76359 0.41929 0.0
C19 C 0.07314 0.72394 0.33674 0.0
H20 H 0.96863 0.73194 0.38744 0.0
H21 H 0.97196 0.76327 0.31688 0.0
H22 H 0.9692 0.76397 0.45651 0.0
H23 H 0.07391 0.72501 0.25041 0.0
H24 H 0.07181 0.70233 0.35901 0.0
H25 H 0.09197 0.73267 0.36929 0.0
C26 C 0.79024 1.01408 0.40157 0.0
N27 N 0.76883 0.02924 0.4335 0.0
N28 N 0.81008 0.02992 0.35906 0.0
C29 C 0.79134 0.9839 0.40864 0.0
C30 C 0.79956 0.05518 0.36554 0.0
N31 N 0.77476 0.05474 0.41036 0.0
C32 C 0.81292 0.08014 0.32188 0.0
H33 H 0.77999 0.97668 0.47793 0.0
H34 H 0.81257 0.97682 0.41244 0.0
H35 H 0.78173 0.97522 0.3382 0.0
H36 H 0.82047 0.07612 0.24197 0.0
H37 H 0.83048 0.08555 0.37114 0.0
H38 H 0.7992 0.09778 0.32047 0.0
C39 C 0.51717 0.78861 0.40761 0.0
N40 N 0.50125 0.76641 0.42297 0.0
N41 N 0.50416 0.80756 0.34886 0.0
C42 C 0.54555 0.79154 0.44633 0.0
C43 C 0.48008 0.79585 0.32818 0.0
N44 N 0.47826 0.77111 0.37263 0.0
C45 C 0.45972 0.80712 0.25282 0.0
H46 H 0.54822 0.7805 0.52094 0.0
H47 H 0.55074 0.81317 0.45671 0.0
H48 H 0.55955 0.78284 0.38786 0.0
H49 H 0.4659 0.80174 0.17238 0.0
H50 H 0.45891 0.82946 0.25835 0.0
H51 H 0.43934 0.7986 0.26787 0.0
C52 C 0.28915 0.51258 0.15553 0.0
N53 N 0.26888 0.52749 0.11261 0.0
N54 N 0.30984 0.52872 0.18843 0.0
C55 C 0.28801 0.48262 0.17125 0.0
C56 C 0.30108 0.55394 0.16499 0.0
N57 N 0.27638 0.55323 0.11947 0.0
C58 C 0.31577 0.57938 0.19488 0.0
H59 H 0.27742 0.47829 0.24566 0.0
H60 H 0.30867 0.47403 0.17562 0.0
H61 H 0.27652 0.47292 0.10723 0.0
H62 H 0.33693 0.57855 0.16681 0.0
H63 H 0.31634 0.58097 0.28108 0.0
H64 H 0.30596 0.5976 0.16181 0.0
C65 C 0.02455 0.28387 0.16552 0.0
N66 N 1.00791 0.2624 0.14636 0.0
N67 N 1.0115 0.30333 0.22158 0.0
C68 C 0.05335 0.28584 0.13065 0.0
C69 C 0.98661 0.29271 0.23648 0.0
N70 N 0.98439 0.26816 0.19119 0.0
C71 C 0.96549 0.30508 0.30594 0.0
H72 H 0.06641 0.2761 0.18999 0.0
H73 H 0.05959 0.30728 0.12275 0.0
H74 H 0.05622 0.27517 0.05553 0.0
H75 H 0.94598 0.29411 0.3014 0.0
H76 H 0.96218 0.32647 0.28375 0.0
H77 H 0.97282 0.30478 0.38761 0.0
C78 C 0.25561 1.01739 0.16462 0.0
N79 N 0.27764 1.00152 0.1458 0.0
N80 N 0.2368 1.00391 0.22297 0.0
C81 C 0.25237 0.04579 0.12626 0.0
C82 C 0.24841 0.97957 0.23971 0.0
N83 N 0.27289 0.97806 0.19307 0.0
C84 C 0.23679 0.9582 0.31056 0.0
H85 H 0.26166 0.05973 0.18351 0.0
H86 H 0.23067 0.05099 0.11853 0.0
H87 H 0.26278 0.04853 0.05036 0.0
H88 H 0.21835 0.94966 0.27432 0.0
H89 H 0.23076 0.96742 0.38578 0.0
H90 H 0.25117 0.94149 0.32533 0.0
C91 C 0.51352 0.25422 0.16559 0.0
N92 N 0.52889 0.27488 0.12784 0.0
N93 N 0.52933 0.23389 0.20375 0.0
C94 C 0.48328 0.25435 0.16895 0.0
C95 C 0.5548 0.24328 0.18864 0.0
N96 N 0.55453 0.26796 0.14285 0.0
C97 C 0.5799 0.22898 0.22526 0.0
H98 H 0.47664 0.2642 0.24214 0.0
H99 H 0.47523 0.23343 0.16782 0.0
H100 H 0.47502 0.26603 0.10236 0.0
H101 H 0.58251 0.21007 0.18035 0.0
H102 H 0.57769 0.22337 0.30862 0.0
H103 H 0.59834 0.24138 0.21455 0.0
Tb104 Tb 0.03829 1.01109 0.86284 0.0
Eu105 Eu 0.99938 0.0267 0.66837 0.0
C106 C 0.06376 0.02321 0.64243 0.0
C107 C 0.02088 0.07346 0.82649 0.0
C108 C 0.07605 0.97928 0.08808 0.0
C109 C 0.1101 0.9532 0.1795 0.0
C110 C 0.1032 0.97411 0.11156 0.0
C111 C 0.05576 0.96377 0.1356 0.0
C112 C 0.06264 0.94303 0.20446 0.0
C113 C 0.08992 0.93733 0.22624 0.0
C114 C 0.06964 1.0008 0.01339 0.0
O115 O 0.99704 1.00028 0.91384 0.0
O116 O 0.97441 0.03128 0.81528 0.0
O117 O 0.99879 0.98102 0.6725 0.0
O118 O 0.03422 0.97179 0.78228 0.0
C119 C 0.97545 1.01527 0.89698 0.0
O120 O 0.9605 0.02227 0.59026 0.0
O121 O 0.993 0.04455 0.51522 0.0
O122 O 0.04048 1.01697 0.6001 0.0
O123 O 0.065 0.02842 0.74278 0.0
O124 O 0.02955 0.05409 0.88871 0.0
O125 O 1.01144 0.06798 0.73261 0.0
C126 C 1.01613 0.96388 0.71297 0.0
O127 O 0.07543 0.99596 0.91629 0.0
O128 O 0.04635 1.01273 0.02316 0.0
C129 C 0.94863 0.05663 0.4686 0.0
C130 C 0.91761 0.10003 0.39285 0.0
C131 C 0.91175 0.08838 0.49056 0.0
C132 C 0.92731 0.06696 0.52862 0.0
C133 C 0.9528 0.06646 0.36761 0.0
C134 C 0.93759 0.08798 0.33018 0.0
C135 C 0.96784 0.03674 0.50986 0.0
H136 H 0.13125 0.94922 0.19445 0.0
H137 H 0.11913 0.98602 0.07597 0.0
H138 H 0.03466 0.96735 0.11823 0.0
H139 H 0.04661 0.93078 0.23731 0.0
H140 H 0.89622 0.09683 0.54011 0.0
H141 H 0.92344 0.05936 0.60641 0.0
H142 H 0.96889 0.05843 0.31951 0.0
H143 H 0.94307 0.09637 0.25512 0.0
Tb144 Tb 0.52779 0.03718 0.86133 0.0
Eu145 Eu 0.51385 0.998 0.66376 0.0
C146 C 0.51563 0.0625 0.64046 0.0
C147 C 0.46603 1.01795 0.82234 0.0
C148 C 0.55764 0.07617 0.08689 0.0
C149 C 0.58232 0.11087 0.18013 0.0
C150 C 0.56194 0.10342 0.1109 0.0
C151 C 0.57346 0.05629 0.13505 0.0
C152 C 0.59376 0.06372 0.20476 0.0
C153 C 0.59865 0.09113 0.22691 0.0
C154 C 0.53675 0.06923 0.01065 0.0
O155 O 0.53724 0.99628 0.91914 0.0
O156 O 0.51112 0.97146 0.80691 0.0
O157 O 0.55944 0.99924 0.66763 0.0
O158 O 0.5678 0.03323 0.78501 0.0
C159 C 0.52472 0.9736 0.89448 0.0
O160 O 0.52029 0.96005 0.58157 0.0
O161 O 0.49574 0.99149 0.51125 0.0
O162 O 0.52241 0.03953 0.59734 0.0
O163 O 0.51031 0.06348 0.74077 0.0
O164 O 0.48481 0.02805 0.88375 0.0
O165 O 0.47209 1.00783 0.73002 0.0
C166 C 0.57619 1.01615 0.71279 0.0
O167 O 0.5423 0.07466 0.91371 0.0
O168 O 0.52496 0.04587 0.02086 0.0
C169 C 0.48604 0.94672 0.46267 0.0
C170 C 0.44328 0.91442 0.38974 0.0
C171 C 0.45477 0.90951 0.48838 0.0
C172 C 0.47582 0.92576 0.52512 0.0
C173 C 0.47665 0.94975 0.3606 0.0
C174 C 0.45546 0.93384 0.32442 0.0
C175 C 0.50502 0.96692 0.50303 0.0
H176 H 0.58559 0.13211 0.19574 0.0
H177 H 0.54977 0.11901 0.07469 0.0
H178 H 0.57052 0.03512 0.11722 0.0
H179 H 0.60638 0.04803 0.2377 0.0
H180 H 0.44633 0.89434 0.53987 0.0
H181 H 0.48313 0.92278 0.60383 0.0
H182 H 0.48464 0.96555 0.3107 0.0
H183 H 0.44728 0.93855 0.24836 0.0
Tb184 Tb 0.50169 0.52793 0.8778 0.0
Eu185 Eu 0.54061 0.51382 0.67944 0.0
C186 C 0.47593 0.51615 0.65402 0.0
C187 C 0.51956 0.46615 0.83739 0.0
C188 C 0.45103 0.55626 0.06707 0.0
C189 C 0.41721 0.59029 0.02943 0.0
C190 C 0.43321 0.56864 0.99684 0.0
C191 C 0.45102 0.56415 0.17156 0.0
C192 C 0.43545 0.58597 0.20376 0.0
C193 C 0.41941 0.60031 0.13181 0.0
C194 C 0.4715 0.53688 0.03271 0.0
O195 O 0.54215 0.52078 0.94378 0.0
O196 O 0.56766 0.53215 0.8027 0.0
O197 O 0.5304 0.55797 0.65853 0.0
O198 O 0.51032 0.5687 0.81482 0.0
C199 C 0.5656 0.52762 0.90313 0.0
O200 O 0.57907 0.49899 0.61922 0.0
O201 O 0.54966 0.51629 0.51354 0.0
O202 O 0.49814 0.50347 0.62588 0.0
O203 O 0.4751 0.5303 0.7409 0.0
O204 O 0.50295 0.4837 0.87993 0.0
O205 O 0.53666 0.47332 0.76342 0.0
C206 C 0.51999 0.57584 0.72257 0.0
O207 O 0.46511 0.52087 0.95616 0.0
O208 O 0.49591 0.54648 0.0228 0.0
C209 C 0.57994 0.48381 0.44536 0.0
C210 C 0.59473 0.4431 0.30378 0.0
C211 C 0.61456 0.45903 0.35211 0.0
C212 C 0.6072 0.47916 0.42243 0.0
C213 C 0.55998 0.46852 0.39532 0.0
C214 C 0.56731 0.44834 0.32504 0.0
C215 C 0.57304 0.50445 0.52262 0.0
H216 H 0.40453 0.60027 0.97254 0.0
H217 H 0.43266 0.56253 0.91587 0.0
H218 H 0.46443 0.55453 0.22707 0.0
H219 H 0.43802 0.59289 0.28302 0.0
H220 H 0.63581 0.4556 0.33706 0.0
H221 H 0.62285 0.49089 0.46028 0.0
H222 H 0.53879 0.4717 0.4123 0.0
H223 H 0.5515 0.43607 0.2911 0.0
Tb224 Tb 1.01536 0.50152 0.85876 0.0
Eu225 Eu 0.03198 0.54138 0.66569 0.0
C226 C 0.03137 0.47635 0.63773 0.0
C227 C 0.07764 0.51796 0.82085 0.0
C228 C 0.98525 0.46304 0.08643 0.0
C229 C 0.96163 0.42962 0.1908 0.0
C230 C 0.98154 0.4362 0.11805 0.0
C231 C 0.96939 0.48345 0.1305 0.0
C232 C 0.94955 0.47691 0.20373 0.0
C233 C 0.94519 0.44985 0.23346 0.0
C234 C 1.0056 0.46902 1.00674 0.0
O235 O 1.00334 0.54145 0.91835 0.0
O236 O 0.02886 0.56778 0.80881 0.0
O237 O 0.98631 0.54332 0.67275 0.0
O238 O 0.97663 0.50641 0.77501 0.0
C239 C 1.01447 0.56489 0.89422 0.0
O240 O 0.05191 0.57801 0.60983 0.0
O241 O 0.02762 0.55433 0.50393 0.0
O242 O 0.02849 0.49995 0.59203 0.0
O243 O 0.03247 0.47443 0.74009 0.0
O244 O 0.05785 0.51214 0.88578 0.0
O245 O 0.07249 0.52539 0.72407 0.0
C246 C 0.969 0.52541 0.70878 0.0
O247 O 0.99852 0.46485 0.91051 0.0
O248 O 0.01912 0.4914 0.01686 0.0
C249 C 0.06245 0.58123 0.43135 0.0
C250 C 0.10185 0.59428 0.28128 0.0
C251 C 0.08566 0.61459 0.32516 0.0
C252 C 0.06625 0.60808 0.40004 0.0
C253 C 0.07773 0.56073 0.38507 0.0
C254 C 0.09728 0.5672 0.31051 0.0
C255 C 0.0431 0.57542 0.51485 0.0
H256 H 0.95872 0.40865 0.21217 0.0
H257 H 0.99377 0.42023 0.08497 0.0
H258 H 0.97194 0.50431 0.10674 0.0
H259 H 0.93683 0.49292 0.23342 0.0
H260 H 0.08854 0.63557 0.30388 0.0
H261 H 0.05464 0.62414 0.4356 0.0
H262 H 0.07513 0.53988 0.40878 0.0
H263 H 0.10973 0.55112 0.27975 0.0
H264 H 0.18759 0.98361 0.18046 0.0
H265 H 0.2282 0.04229 0.37056 0.0
H266 H 0.14602 0.99043 0.27894 0.0
H267 H 0.18622 0.04998 0.46867 0.0
H268 H 0.11675 0.03151 0.7027 0.0
H269 H 0.15754 0.0303 0.59558 0.0
H270 H 0.10868 1.01605 0.3225 0.0
H271 H 0.06819 1.01646 0.43007 0.0
C272 C 0.18731 0.99862 0.24165 0.0
C273 C 0.21113 1.01265 0.26665 0.0
C274 C 0.16337 1.00259 0.29856 0.0
C275 C 0.16228 0.02069 0.38313 0.0
C276 C 0.18602 0.03553 0.40555 0.0
C277 C 0.21007 0.03155 0.34816 0.0
C278 C 0.11466 0.02825 0.6197 0.0
C279 C 0.0889 0.024 0.5759 0.0
C280 C 0.13821 0.02773 0.55759 0.0
C281 C 0.1369 0.023 0.44919 0.0
C282 C 0.11099 0.01928 0.4054 0.0
C283 C 0.08751 0.0197 0.46748 0.0
H284 H 0.54298 0.18303 0.15047 0.0
H285 H 0.49991 0.22851 0.38196 0.0
H286 H 0.538 0.14229 0.25472 0.0
H287 H 0.49344 0.18729 0.48556 0.0
H288 H 0.51294 0.11568 0.70377 0.0
H289 H 0.51338 0.15642 0.59659 0.0
H290 H 0.5143 0.10708 0.31917 0.0
H291 H 0.51527 0.06668 0.42673 0.0
C292 C 0.532 0.18415 0.2233 0.0
C293 C 0.52197 0.20908 0.25793 0.0
C294 C 0.52892 0.1606 0.28338 0.0
C295 C 0.5155 0.16093 0.38044 0.0
C296 C 0.50444 0.18588 0.41292 0.0
C297 C 0.50769 0.20958 0.35267 0.0
C298 C 0.51314 0.11354 0.61983 0.0
C299 C 0.51419 0.08767 0.57458 0.0
C300 C 0.51321 0.13707 0.55765 0.0
C301 C 0.51398 0.13564 0.44769 0.0
C302 C 0.51434 0.10959 0.40288 0.0
C303 C 0.51467 0.08613 0.46503 0.0
H304 H 0.31151 0.50905 0.38558 0.0
H305 H 0.36214 0.53491 0.13185 0.0
H306 H 0.35147 0.50422 0.4975 0.0
H307 H 0.40221 0.53039 0.24271 0.0
H308 H 0.47192 0.49914 0.44948 0.0
H309 H 0.43229 0.49965 0.33561 0.0
H310 H 0.38445 0.5326 0.58592 0.0
H311 H 0.42399 0.53213 0.69938 0.0
C312 C 0.33129 0.5132 0.35331 0.0
C313 C 0.33368 0.52209 0.24964 0.0
C314 C 0.35425 0.5108 0.4177 0.0
C315 C 0.38037 0.51706 0.38013 0.0
C316 C 0.38269 0.52513 0.27495 0.0
C317 C 0.3597 0.52775 0.21108 0.0
C318 C 0.45294 0.50635 0.48064 0.0
C319 C 0.4514 0.51551 0.58445 0.0
C320 C 0.43012 0.50681 0.41482 0.0
C321 C 0.40483 0.51607 0.45085 0.0
C322 C 0.40329 0.52494 0.55505 0.0
C323 C 0.42616 0.52482 0.62034 0.0
H324 H 0.99791 0.35378 0.16335 0.0
H325 H 0.0449 0.30962 0.38735 0.0
H326 H 1.00545 0.39544 0.26044 0.0
H327 H 0.05315 0.35144 0.48495 0.0
H328 H 0.03346 0.42318 0.70259 0.0
H329 H 0.03238 0.3823 0.59739 0.0
H330 H 0.03181 0.43094 0.31756 0.0
H331 H 0.03203 0.47174 0.4232 0.0
C332 C 1.01064 0.35324 0.2319 0.0
C333 C 0.0212 0.32848 0.26652 0.0
C334 C 1.01491 0.3772 0.28831 0.0
C335 C 0.02974 0.3773 0.3822 0.0
C336 C 0.04121 0.3525 0.4145 0.0
C337 C 0.03695 0.32847 0.3576 0.0
C338 C 0.03332 0.42524 0.61857 0.0
C339 C 0.03283 0.45108 0.57226 0.0
C340 C 0.03287 0.40158 0.55758 0.0
C341 C 0.03197 0.40278 0.44765 0.0
C342 C 0.03204 0.42873 0.40146 0.0
C343 C 0.03239 0.45237 0.4625 0.0
H344 H 0.81692 0.99434 0.19918 0.0
H345 H 0.86032 0.04938 0.39741 0.0
H346 H 0.85796 0.98805 0.09285 0.0
H347 H 0.90063 0.04421 0.28832 0.0
H348 H 0.94 0.05616 0.93814 0.0
H349 H 0.90146 0.05645 0.05787 0.0
H350 H 0.91793 0.97392 0.14275 0.0
H351 H 0.95746 0.97386 0.02547 0.0
C352 C 0.8353 1.00466 0.22134 0.0
C353 C 0.83517 0.02254 0.30662 0.0
C354 C 0.85877 1.00122 0.16001 0.0
C355 C 0.88255 1.01585 0.18159 0.0
C356 C 0.88266 0.03286 0.2691 0.0
C357 C 0.85948 0.03588 0.33134 0.0
C358 C 0.93554 0.03801 0.98224 0.0
C359 C 0.95197 1.01495 0.97151 0.0
C360 C 0.91341 0.03823 0.05106 0.0
C361 C 0.90646 1.01517 0.10936 0.0
C362 C 0.92266 0.99197 0.09852 0.0
C363 C 0.94537 0.99199 0.0316 0.0
H364 H 0.49788 0.85932 0.41119 0.0
H365 H 0.53099 0.81034 0.16659 0.0
H366 H 0.50578 0.9001 0.30607 0.0
H367 H 0.53892 0.85084 0.06043 0.0
H368 H 0.51202 0.92107 0.84937 0.0
H369 H 0.5109 0.88207 0.96471 0.0
H370 H 0.5373 0.93186 0.22066 0.0
H371 H 0.53848 0.97126 0.10403 0.0
C372 C 0.50771 0.85745 0.33617 0.0
C373 C 0.51443 0.83171 0.29806 0.0
C374 C 0.51206 0.8808 0.27529 0.0
C375 C 0.5227 0.87902 0.17349 0.0
C376 C 0.53033 0.85321 0.13746 0.0
C377 C 0.52623 0.82996 0.19879 0.0
C378 C 0.5178 0.92384 0.93001 0.0
C379 C 0.52547 0.94954 0.96654 0.0
C380 C 0.51733 0.90125 0.99648 0.0
C381 C 0.52422 0.90345 0.10265 0.0
C382 C 0.53181 0.9292 0.13969 0.0
C383 C 0.53265 0.95185 0.07247 0.0
H384 H 0.68588 0.50121 0.39618 0.0
H385 H 0.73098 0.54514 0.1648 0.0
H386 H 0.64515 0.50565 0.29198 0.0
H387 H 0.68973 0.55113 0.06162 0.0
H388 H 0.61892 0.53131 0.84261 0.0
H389 H 0.65931 0.5312 0.95049 0.0
H390 H 0.60934 0.5281 0.22668 0.0
H391 H 0.56914 0.52683 0.11788 0.0
C392 C 0.68693 0.51225 0.3234 0.0
C393 C 0.7118 0.52266 0.2888 0.0
C394 C 0.66335 0.51503 0.2634 0.0
C395 C 0.66353 0.52852 0.16644 0.0
C396 C 0.68839 0.54001 0.1341 0.0
C397 C 0.71213 0.53705 0.19418 0.0
C398 C 0.6165 0.53069 0.92645 0.0
C399 C 0.59049 0.52901 0.97076 0.0
C400 C 0.63989 0.53084 0.98912 0.0
C401 C 0.63824 0.52964 0.09896 0.0
C402 C 0.61205 0.52849 0.14305 0.0
C403 C 0.58869 0.52798 0.08023 0.0
H404 H 1.00453 0.72893 0.16121 0.0
H405 H 0.02524 0.67796 0.42051 0.0
H406 H 0.99917 0.68899 0.05018 0.0
H407 H 0.01988 0.63781 0.3106 0.0
H408 H 0.0288 0.61735 0.8536 0.0
H409 H 0.02712 0.65637 0.9674 0.0
H410 H 0.99225 0.60723 0.21109 0.0
H411 H 0.99427 0.5677 0.09635 0.0
C412 C 1.00729 0.70906 0.19492 0.0
C413 C 1.01495 0.70658 0.29984 0.0
C414 C 1.00462 0.68608 0.13109 0.0
C415 C 1.00947 0.65982 0.1703 0.0
C416 C 1.01593 0.65744 0.27696 0.0
C417 C 1.01889 0.68046 0.34037 0.0
C418 C 0.02057 0.6147 0.93115 0.0
C419 C 1.01163 0.58906 0.96485 0.0
C420 C 0.01941 0.63735 0.99673 0.0
C421 C 1.00938 0.6354 0.09926 0.0
C422 C 1.00028 0.60976 0.13319 0.0
C423 C 1.00126 0.587 0.06691 0.0
H424 H 0.98917 0.23636 0.3561 0.0
H425 H 0.93709 0.25526 0.09805 0.0
H426 H 0.95885 0.2002 0.41007 0.0
H427 H 0.90618 0.21847 0.15068 0.0
H428 H 0.9052 0.12068 0.19884 0.0
H429 H 0.91198 0.16782 0.15146 0.0
H430 H 0.91319 0.18941 0.47696 0.0
H431 H 0.90843 0.1424 0.52474 0.0
C432 C 0.97086 0.23276 0.31211 0.0
C433 C 0.96533 0.248 0.2231 0.0
C434 C 0.9533 0.2124 0.3433 0.0
C435 C 0.92984 0.20675 0.28543 0.0
C436 C 0.92399 0.22254 0.19701 0.0
C437 C 0.94158 0.24331 0.1666 0.0
C438 C 0.9061 0.13558 0.26036 0.0
C439 C 0.90787 0.12754 0.36544 0.0
C440 C 0.90965 0.16269 0.23306 0.0
C441 C 0.91434 0.18201 0.31082 0.0
C442 C 0.91051 0.17468 0.41555 0.0
C443 C 0.9075 0.14759 0.44286 0.0
H444 H 0.30641 0.98533 0.35097 0.0
H445 H 0.28581 0.93017 0.1051 0.0
H446 H 0.34349 0.95617 0.40433 0.0
H447 H 0.32357 0.90047 0.15698 0.0
H448 H 0.42213 0.90098 0.19751 0.0
H449 H 0.37484 0.9074 0.15166 0.0
H450 H 0.35398 0.91057 0.47783 0.0
H451 H 0.40104 0.90611 0.524 0.0
C452 C 0.30988 0.96664 0.30948 0.0
C453 C 0.29381 0.95983 0.22421 0.0
C454 C 0.33077 0.94976 0.34034 0.0
C455 C 0.33614 0.92575 0.28582 0.0
C456 C 0.31969 0.91871 0.20079 0.0
C457 C 0.29835 0.9356 0.17085 0.0
C458 C 0.40736 0.90224 0.25961 0.0
C459 C 0.41565 0.9046 0.36417 0.0
C460 C 0.38019 0.90559 0.23319 0.0
C461 C 0.36103 0.91065 0.31138 0.0
C462 C 0.36859 0.90752 0.41606 0.0
C463 C 0.39572 0.90469 0.44243 0.0
H464 H 0.5821 0.28599 0.30707 0.0
H465 H 0.57432 0.29418 0.97456 0.0
H466 H 0.60552 0.32891 0.31545 0.0
H467 H 0.59721 0.3381 0.98195 0.0
H468 H 0.63562 0.40753 0.34313 0.0
H469 H 0.64023 0.36232 0.27254 0.0
H470 H 0.57497 0.37823 0.05804 0.0
H471 H 0.57103 0.42386 0.12552 0.0
C472 C 0.5868 0.29643 0.23504 0.0
C473 C 0.57631 0.28714 0.14049 0.0
C474 C 0.60015 0.32112 0.23946 0.0
C475 C 0.60286 0.33714 0.14936 0.0
C476 C 0.59518 0.3263 0.05268 0.0
C477 C 0.58218 0.30126 0.04831 0.0
C478 C 0.62304 0.40188 0.27773 0.0
C479 C 0.60237 0.41901 0.24203 0.0
C480 C 0.62565 0.37588 0.23761 0.0
C481 C 0.60751 0.36649 0.16187 0.0
C482 C 0.58919 0.38477 0.11684 0.0
C483 C 0.58664 0.41083 0.15663 0.0
H484 H 0.24937 0.56967 0.94798 0.0
H485 H 0.25985 0.58476 0.2755 0.0
H486 H 0.20551 0.59251 0.95278 0.0
H487 H 0.21683 0.60784 0.28137 0.0
H488 H 0.12069 0.56854 0.10676 0.0
H489 H 0.16594 0.57227 0.0347 0.0
H490 H 0.18224 0.64006 0.23631 0.0
H491 H 0.13725 0.6359 0.31046 0.0
C492 C 0.24283 0.57914 0.0196 0.0
C493 C 0.25757 0.57524 0.11173 0.0
C494 C 0.21775 0.59206 0.02264 0.0
C495 C 0.2074 0.60155 0.11782 0.0
C496 C 0.22412 0.60098 0.20643 0.0
C497 C 0.24894 0.58783 0.20338 0.0
C498 C 0.13371 0.58465 0.1339 0.0
C499 C 0.12569 0.60135 0.21659 0.0
C500 C 0.1596 0.58701 0.09172 0.0
C501 C 0.17799 0.60596 0.13218 0.0
C502 C 0.16871 0.6249 0.20515 0.0
C503 C 0.14282 0.62257 0.24728 0.0
H504 H 0.07025 0.79143 0.58072 0.0
H505 H 0.0763 0.77909 0.24967 0.0
H506 H 0.09312 0.83514 0.56233 0.0
H507 H 0.09974 0.82175 0.23059 0.0
H508 H 0.06617 0.91915 0.40612 0.0
H509 H 0.07016 0.8741 0.48004 0.0
H510 H 0.13436 0.85594 0.26324 0.0
H511 H 0.1298 0.9007 0.18689 0.0
C512 C 0.0777 0.79755 0.50494 0.0
C513 C 0.07121 0.78237 0.41626 0.0
C514 C 0.09072 0.82247 0.49429 0.0
C515 C 0.09783 0.8321 0.39484 0.0
C516 C 0.09474 0.81494 0.30851 0.0
C517 C 0.08138 0.79036 0.31916 0.0
C518 C 0.08154 0.90574 0.37576 0.0
C519 C 0.0971 0.91318 0.2887 0.0
C520 C 0.08412 0.88003 0.41917 0.0
C521 C 0.10223 0.86128 0.37591 0.0
C522 C 0.11999 0.86987 0.29711 0.0
C523 C 0.1174 0.89557 0.25363 0.0
H524 H 0.74714 0.07653 0.57082 0.0
H525 H 0.75621 0.07819 0.23728 0.0
H526 H 0.70264 0.09791 0.55445 0.0
H527 H 0.71283 0.10045 0.22012 0.0
H528 H 0.63429 0.13178 0.18509 0.0
H529 H 0.67943 0.13689 0.25705 0.0
H530 H 0.66313 0.07261 0.47631 0.0
H531 H 0.61767 0.06796 0.40649 0.0
C532 C 0.74011 0.08275 0.49463 0.0
C533 C 0.75473 0.07565 0.40514 0.0
C534 C 0.71478 0.09492 0.4852 0.0
C535 C 0.70421 0.10067 0.38605 0.0
C536 C 0.72051 0.09661 0.29775 0.0
C537 C 0.74544 0.08395 0.30724 0.0
C538 C 0.63987 0.11952 0.25165 0.0
C539 C 0.6227 0.09896 0.28841 0.0
C540 C 0.66577 0.12245 0.29263 0.0
C541 C 0.67493 0.10482 0.37071 0.0
C542 C 0.65664 0.0865 0.41606 0.0
C543 C 0.63073 0.08356 0.37506 0.0
H544 H 0.42909 0.75559 0.44371 0.0
H545 H 0.48995 0.73963 0.2127 0.0
H546 H 0.40179 0.71761 0.37678 0.0
H547 H 0.46338 0.70219 0.14528 0.0
H548 H 0.41719 0.64425 1.00159 0.0
H549 H 0.42115 0.69072 0.05533 0.0
H550 H 0.40818 0.66718 0.37543 0.0
H551 H 0.4019 0.62053 0.32101 0.0
C552 C 0.43631 0.74401 0.37797 0.0
C553 C 0.46141 0.74999 0.33285 0.0
C554 C 0.42083 0.7225 0.33958 0.0
C555 C 0.43021 0.70722 0.25465 0.0
C556 C 0.45515 0.71396 0.20881 0.0
C557 C 0.47056 0.73508 0.24773 0.0
C558 C 0.41359 0.64884 0.08279 0.0
C559 C 0.41054 0.62825 0.1577 0.0
C560 C 0.41621 0.67565 0.1137 0.0
C561 C 0.41631 0.68231 0.21994 0.0
C562 C 0.40875 0.66256 0.29302 0.0
C563 C 0.40553 0.63572 0.2618 0.0
H564 H 0.78884 0.46294 0.23979 0.0
H565 H 0.79729 0.47107 0.57198 0.0
H566 H 0.8317 0.43945 0.23102 0.0
H567 H 0.84132 0.44847 0.56379 0.0
H568 H 0.90996 0.40817 0.20416 0.0
H569 H 0.86495 0.40396 0.27845 0.0
H570 H 0.88116 0.47168 0.48033 0.0
H571 H 0.92646 0.47552 0.40809 0.0
C572 C 0.79933 0.45836 0.31168 0.0
C573 C 0.79013 0.46895 0.40623 0.0
C574 C 0.82397 0.44498 0.307 0.0
C575 C 0.84006 0.44244 0.39671 0.0
C576 C 0.82939 0.45031 0.49344 0.0
C577 C 0.80433 0.46322 0.49819 0.0
C578 C 0.90441 0.42142 0.26762 0.0
C579 C 0.92145 0.44269 0.29828 0.0
C580 C 0.87857 0.419 0.30997 0.0
C581 C 0.86936 0.43786 0.38327 0.0
C582 C 0.88764 0.4569 0.42361 0.0
C583 C 0.91348 0.45935 0.38119 0.0
H584 H 0.9786 0.24131 0.98918 0.0
H585 H 0.04845 0.2257 0.17857 0.0
H586 H 0.98249 0.1967 0.91037 0.0
H587 H 0.05343 0.1812 0.09671 0.0
H588 H 1.00486 0.12088 0.72787 0.0
H589 H 1.00423 0.1668 0.79746 0.0
H590 H 0.03565 0.13727 0.08989 0.0
H591 H 0.03697 0.09177 0.01943 0.0
C592 C 0.99511 0.22839 0.01284 0.0
C593 C 1.0132 0.23726 0.09019 0.0
C594 C 0.99755 0.2027 0.96685 0.0
C595 C 1.01829 0.1847 0.99622 0.0
C596 C 0.03688 0.19396 0.07215 0.0
C597 C 0.03436 0.21977 0.11835 0.0
C598 C 1.01181 0.12415 0.80682 0.0
C599 C 0.021 0.10219 0.86718 0.0
C600 C 1.01128 0.15067 0.84752 0.0
C601 C 0.01986 0.15635 0.9504 0.0
C602 C 0.02926 0.13432 0.01011 0.0
C603 C 0.02983 0.10788 0.96944 0.0
H604 H 0.29927 0.97191 0.99071 0.0
H605 H 0.31291 0.04367 0.1711 0.0
H606 H 0.34366 0.97668 0.91008 0.0
H607 H 0.35713 0.04951 0.08722 0.0
H608 H 0.41923 0.99961 0.72521 0.0
H609 H 0.37319 0.99823 0.79448 0.0
H610 H 0.40141 0.03303 0.08268 0.0
H611 H 0.44693 0.0351 0.01253 0.0
C612 C 0.31168 0.98905 0.01182 0.0
C613 C 0.30237 1.00739 0.08739 0.0
C614 C 0.33724 0.99197 0.96481 0.0
C615 C 0.35464 1.01348 0.99129 0.0
C616 C 0.34486 0.03237 0.06503 0.0
C617 C 0.31919 0.02935 0.11233 0.0
C618 C 0.41562 1.00713 0.80312 0.0
C619 C 0.43722 1.0175 0.86242 0.0
C620 C 0.38904 1.00619 0.84365 0.0
C621 C 0.38298 1.01551 0.94525 0.0
C622 C 0.40465 0.02605 1.00382 0.0
C623 C 0.43111 0.02705 0.96334 0.0
H624 H 0.51715 0.28853 0.92899 0.0
H625 H 0.52503 0.32133 0.23699 0.0
H626 H 0.51413 0.3344 0.85627 0.0
H627 H 0.52208 0.36727 0.16585 0.0
H628 H 0.49391 0.44645 0.01189 0.0
H629 H 0.49318 0.40062 0.08116 0.0
H630 H 0.54337 0.37412 0.82648 0.0
H631 H 0.54413 0.42027 0.75662 0.0
C632 C 0.51727 0.30561 0.98145 0.0
C633 C 0.52048 0.30126 0.08906 0.0
C634 C 0.51609 0.33198 0.93977 0.0
C635 C 0.51792 0.3549 1.00462 0.0
C636 C 0.52016 0.35038 0.11299 0.0
C637 C 0.52161 0.32401 0.1543 0.0
C638 C 0.50475 0.43094 0.96981 0.0
C639 C 0.51897 0.43742 0.87765 0.0
C640 C 0.50445 0.40449 0.01034 0.0
C641 C 0.5181 0.38328 0.95984 0.0
C642 C 0.53224 0.38966 0.86726 0.0
C643 C 0.53282 0.41628 0.82725 0.0
H644 H 0.22197 0.52936 0.22024 0.0
H645 H 0.25523 0.50899 0.92151 0.0
H646 H 0.17629 0.52611 0.14928 0.0
H647 H 0.20953 0.50497 0.84908 0.0
H648 H 0.12595 0.53113 0.72138 0.0
H649 H 0.17178 0.53031 0.79299 0.0
H650 H 0.14031 0.50081 0.08573 0.0
H651 H 0.09486 0.50232 0.01543 0.0
C652 C 0.21939 0.5231 0.14009 0.0
C653 C 0.24226 0.51877 0.07732 0.0
C654 C 0.19309 0.52138 0.09857 0.0
C655 C 0.18865 0.51538 0.99223 0.0
C656 C 0.21171 0.51006 0.93058 0.0
C657 C 0.23803 0.51177 0.97247 0.0
C658 C 0.12879 0.52439 0.80093 0.0
C659 C 0.1063 0.51681 0.86183 0.0
C660 C 0.15528 0.52373 0.84226 0.0
C661 C 0.16032 0.51543 0.94607 0.0
C662 C 0.13773 0.50772 1.00631 0.0
C663 C 0.11137 0.50842 0.96522 0.0
H664 H 1.01411 0.78586 0.6336 0.0
H665 H 1.01905 0.81747 0.32219 0.0
H666 H 1.01183 0.832 0.70328 0.0
H667 H 1.01666 0.86371 0.39036 0.0
H668 H 0.98899 0.94327 0.54399 0.0
H669 H 0.98819 0.89723 0.47753 0.0
H670 H 0.04119 0.87209 0.72576 0.0
H671 H 0.0421 0.91849 0.79262 0.0
C672 C 1.01377 0.80274 0.57986 0.0
C673 C 1.01593 0.79794 0.47217 0.0
C674 C 1.01299 0.82927 0.61974 0.0
C675 C 1.01412 0.85196 0.55303 0.0
C676 C 1.01534 0.847 0.44471 0.0
C677 C 1.01646 0.82045 0.40513 0.0
C678 C 1.00045 0.92802 0.58528 0.0
C679 C 1.0155 0.93497 0.67476 0.0
C680 C 1.00011 0.90144 0.54629 0.0
C681 C 1.01452 0.88053 0.59583 0.0
C682 C 0.02949 0.88738 0.68577 0.0
C683 C 0.03014 0.91415 0.72409 0.0
H684 H 0.75475 0.02076 0.63479 0.0
H685 H 0.7229 0.02147 0.32363 0.0
H686 H 0.70873 1.01707 0.70571 0.0
H687 H 0.67685 1.01789 0.39287 0.0
H688 H 0.59819 0.98907 0.54643 0.0
H689 H 0.64434 0.98944 0.48154 0.0
H690 H 0.66734 0.04399 0.72745 0.0
H691 H 0.62075 0.04359 0.79325 0.0
C692 C 0.7379 0.01917 0.58149 0.0
C693 C 0.7426 0.02052 0.47344 0.0
C694 C 0.71139 1.01762 0.62201 0.0
C695 C 0.68865 1.01721 0.55565 0.0
C696 C 0.69357 1.0177 0.44716 0.0
C697 C 0.72005 0.01949 0.40694 0.0
C698 C 0.61296 1.00112 0.58766 0.0
C699 C 0.60531 1.01621 0.67616 0.0
C700 C 0.63965 1.00146 0.5495 0.0
C701 C 0.66002 1.0167 0.59859 0.0
C702 C 0.65251 0.03167 0.68775 0.0
C703 C 0.62562 0.03156 0.72548 0.0
H704 H 0.47022 0.74216 0.56836 0.0
H705 H 0.54459 0.73264 0.3992 0.0
H706 H 0.47549 0.69721 0.64421 0.0
H707 H 0.55081 0.68792 0.47815 0.0
H708 H 0.53784 0.59716 0.53674 0.0
H709 H 0.535 0.6432 0.47248 0.0
H710 H 0.49737 0.66765 0.76066 0.0
H711 H 0.4996 0.62105 0.82421 0.0
C712 C 0.48802 0.73055 0.54885 0.0
C713 C 0.50703 0.7412 0.47813 0.0
C714 C 0.4912 0.70469 0.59303 0.0
C715 C 0.5136 0.68835 0.5681 0.0
C716 C 0.53304 0.6994 0.49898 0.0
C717 C 0.52978 0.72536 0.45463 0.0
C718 C 0.529 0.61225 0.58721 0.0
C719 C 0.51895 0.60494 0.68638 0.0
C720 C 0.52756 0.639 0.55017 0.0
C721 C 0.51602 0.65974 0.61059 0.0
C722 C 0.50613 0.6525 0.71039 0.0
C723 C 0.50757 0.62562 0.74756 0.0
H724 H 0.79123 0.527 0.61803 0.0
H725 H 0.82429 0.52156 0.30927 0.0
H726 H 0.83706 0.53002 0.69088 0.0
H727 H 0.87021 0.52481 0.38063 0.0
H728 H 0.92334 0.4991 0.78448 0.0
H729 H 0.87719 0.50011 0.71495 0.0
H730 H 0.9031 0.5543 0.47109 0.0
H731 H 0.94895 0.55351 0.54059 0.0
C732 C 0.80834 0.52746 0.56547 0.0
C733 C 0.80404 0.52487 0.45759 0.0
C734 C 0.83469 0.52866 0.6072 0.0
C735 C 0.85769 0.5276 0.5422 0.0
C736 C 0.85323 0.52608 0.43364 0.0
C737 C 0.82687 0.52449 0.39223 0.0
C738 C 0.91922 0.51139 0.71645 0.0
C739 C 0.9402 0.52635 0.66921 0.0
C740 C 0.89259 0.51209 0.67662 0.0
C741 C 0.88605 0.52739 0.58704 0.0
C742 C 0.9071 0.54216 0.53961 0.0
C743 C 0.93355 0.54182 0.58028 0.0
loop_
_geom_bond_atom_site_label_1
_geom_bond_atom_site_label_2
_geom_bond_distance
_geom_bond_site_symmetry_2
_ccdc_geom_bond_type
C0 N1 1.317 . S
C0 N2 1.348 . S
C0 C3 1.485 . S
N1 C0 1.317 . S
N1 N5 1.370 . S
N2 C0 1.348 . S
N2 C4 1.346 . S
C3 C0 1.485 . S
C3 H7 0.960 . S
C3 H8 0.961 . S
C3 H9 0.960 . S
C4 N2 1.346 . S
C4 N5 1.307 . S
C4 C6 1.486 . S
N5 N1 1.370 . S
N5 C4 1.307 . S
C6 C4 1.486 . S
C6 H10 0.960 . S
C6 H11 0.960 . S
C6 H12 0.959 . S
H7 C3 0.960 . S
H8 C3 0.961 . S
H9 C3 0.960 . S
H10 C6 0.960 . S
H11 C6 0.960 . S
H12 C6 0.959 . S
C13 N14 1.317 . S
C13 N15 1.350 . S
C13 C16 1.485 . S
N14 C13 1.317 . S
N14 N18 1.371 . S
N15 C13 1.350 . S
N15 C17 1.345 1_655 S
C16 C13 1.485 . S
C16 H20 0.960 1_655 S
C16 H21 0.961 . S
C16 H22 0.960 . S
C17 N15 1.345 1_455 S
C17 N18 1.307 1_455 S
C17 C19 1.486 . S
N18 N14 1.371 . S
N18 C17 1.307 1_655 S
C19 C17 1.486 . S
C19 H23 0.922 1_455 S
C19 H24 0.991 . S
C19 H25 0.967 . S
H20 C16 0.960 1_455 S
H21 C16 0.961 . S
H22 C16 0.960 . S
H23 C19 0.922 1_655 S
H24 C19 0.991 . S
H25 C19 0.967 . S
C26 N27 1.317 . S
C26 N28 1.350 . S
C26 C29 1.485 . S
N27 C26 1.317 . S
N27 N31 1.371 . S
N28 C26 1.350 . S
N28 C30 1.345 1_565 S
C29 C26 1.485 . S
C29 H33 0.960 1_565 S
C29 H34 0.961 . S
C29 H35 0.960 . S
C30 N28 1.345 1_545 S
C30 N31 1.307 1_545 S
C30 C32 1.486 . S
N31 N27 1.371 . S
N31 C30 1.307 1_565 S
C32 C30 1.486 . S
C32 H36 0.922 1_545 S
C32 H37 0.991 . S
C32 H38 0.967 . S
H33 C29 0.960 1_545 S
H34 C29 0.961 . S
H35 C29 0.960 . S
H36 C32 0.922 1_565 S
H37 C32 0.991 . S
H38 C32 0.967 . S
C39 N40 1.317 . S
C39 N41 1.348 . S
C39 C42 1.485 . S
N40 C39 1.317 . S
N40 N44 1.370 . S
N41 C39 1.348 . S
N41 C43 1.346 . S
C42 C39 1.485 . S
C42 H46 0.960 . S
C42 H47 0.961 . S
C42 H48 0.960 . S
C43 N41 1.346 . S
C43 N44 1.307 . S
C43 C45 1.486 . S
N44 N40 1.370 . S
N44 C43 1.307 . S
C45 C43 1.486 . S
C45 H49 0.960 . S
C45 H50 0.960 . S
C45 H51 0.959 . S
H46 C42 0.960 . S
H47 C42 0.961 . S
H48 C42 0.960 . S
H49 C45 0.960 . S
H50 C45 0.960 . S
H51 C45 0.959 . S
C52 N53 1.317 . S
C52 N54 1.348 1_556 S
C52 C55 1.485 . S
N53 C52 1.317 . S
N53 N57 1.370 1_556 S
N54 C52 1.348 1_554 S
N54 C56 1.346 . S
C55 C52 1.485 . S
C55 H59 0.960 . S
C55 H60 0.961 . S
C55 H61 0.960 . S
C56 N54 1.346 . S
C56 N57 1.307 . S
C56 C58 1.486 . S
N57 N53 1.370 1_554 S
N57 C56 1.307 . S
C58 C56 1.486 . S
C58 H62 0.960 . S
C58 H63 0.960 . S
C58 H64 0.959 . S
H59 C55 0.960 . S
H60 C55 0.961 . S
H61 C55 0.960 . S
H62 C58 0.960 . S
H63 C58 0.960 . S
H64 C58 0.959 . S
C65 N66 1.317 . S
C65 N67 1.350 1_556 S
C65 C68 1.485 . S
N66 C65 1.317 . S
N66 N70 1.370 1_556 S
N67 C65 1.350 1_554 S
N67 C69 1.345 1_655 S
C68 C65 1.485 . S
C68 H72 0.960 1_655 S
C68 H73 0.961 . S
C68 H74 0.960 . S
C69 N67 1.345 1_455 S
C69 N70 1.307 1_455 S
C69 C71 1.486 . S
N70 N66 1.370 1_554 S
N70 C69 1.307 1_655 S
C71 C69 1.486 . S
C71 H75 0.960 1_455 S
C71 H76 0.960 . S
C71 H77 0.959 . S
H72 C68 0.960 1_455 S
H73 C68 0.961 . S
H74 C68 0.960 . S
H75 C71 0.960 1_655 S
H76 C71 0.960 . S
H77 C71 0.959 . S
C78 N79 1.317 . S
C78 N80 1.350 1_556 S
C78 C81 1.485 . S
N79 C78 1.317 . S
N79 N83 1.370 1_556 S
N80 C78 1.350 1_554 S
N80 C82 1.345 1_565 S
C81 C78 1.485 . S
C81 H85 0.960 1_565 S
C81 H86 0.961 . S
C81 H87 0.960 . S
C82 N80 1.345 1_545 S
C82 N83 1.307 1_545 S
C82 C84 1.487 . S
N83 N79 1.370 1_554 S
N83 C82 1.307 1_565 S
C84 C82 1.487 . S
C84 H88 0.960 1_545 S
C84 H89 0.960 . S
C84 H90 0.959 . S
H85 C81 0.960 1_545 S
H86 C81 0.961 . S
H87 C81 0.960 . S
H88 C84 0.960 1_565 S
H89 C84 0.960 . S
H90 C84 0.959 . S
C91 N92 1.317 . S
C91 N93 1.348 1_556 S
C91 C94 1.485 . S
N92 C91 1.317 . S
N92 N96 1.370 1_556 S
N93 C91 1.348 1_554 S
N93 C95 1.346 . S
C94 C91 1.485 . S
C94 H98 0.960 . S
C94 H99 0.961 . S
C94 H100 0.960 . S
C95 N93 1.346 . S
C95 N96 1.307 . S
C95 C97 1.486 . S
N96 N92 1.370 1_554 S
N96 C95 1.307 . S
C97 C95 1.486 . S
C97 H101 0.960 . S
C97 H102 0.960 . S
C97 H103 0.959 . S
H98 C94 0.960 . S
H99 C94 0.961 . S
H100 C94 0.960 . S
H101 C97 0.960 . S
H102 C97 0.960 . S
H103 C97 0.959 . S
Tb104 C114 2.825 . S
Tb104 O115 2.347 1_455 S
Tb104 O118 2.366 . S
Tb104 O123 2.418 . S
Tb104 O124 2.384 1_565 S
Tb104 O127 2.479 . S
Tb104 O128 2.471 . S
Eu105 O116 2.418 . S
Eu105 O117 2.384 1_545 S
Eu105 O120 2.479 . S
Eu105 O121 2.471 . S
Eu105 O122 2.347 1_655 S
Eu105 O125 2.366 . S
Eu105 C135 2.825 . S
C106 O122 1.259 1_565 S
C106 O123 1.265 . S
C107 O124 1.255 . S
C107 O125 1.265 1_455 S
C108 C110 1.380 . S
C108 C111 1.374 . S
C108 C114 1.507 1_554 S
C109 C110 1.384 . S
C109 C113 1.387 . S
C109 H136 0.930 . S
C110 C108 1.380 . S
C110 C109 1.384 . S
C110 H137 0.931 . S
C111 C108 1.374 . S
C111 C112 1.390 . S
C111 H138 0.930 1_455 S
C112 C111 1.390 . S
C112 C113 1.391 . S
C112 H139 0.930 1_455 S
C113 C109 1.387 . S
C113 C112 1.391 . S
C114 Tb104 2.825 . S
C114 C108 1.507 1_556 S
C114 O127 1.238 . S
C114 O128 1.247 . S
O115 Tb104 2.347 1_655 S
O115 C119 1.259 1_565 S
O116 Eu105 2.418 . S
O116 C119 1.265 . S
O117 Eu105 2.384 1_565 S
O117 C126 1.255 . S
O118 Tb104 2.366 . S
O118 C126 1.265 1_455 S
C119 O115 1.259 1_545 S
C119 O116 1.265 . S
O120 Eu105 2.479 . S
O120 C135 1.238 . S
O121 Eu105 2.471 . S
O121 C135 1.247 . S
O122 Eu105 2.347 1_455 S
O122 C106 1.259 1_545 S
O123 Tb104 2.418 . S
O123 C106 1.265 . S
O124 Tb104 2.384 1_545 S
O124 C107 1.255 . S
O125 Eu105 2.366 . S
O125 C107 1.265 1_655 S
C126 O117 1.255 . S
C126 O118 1.265 1_655 S
O127 Tb104 2.479 . S
O127 C114 1.238 . S
O128 Tb104 2.471 . S
O128 C114 1.247 . S
C129 C132 1.380 . S
C129 C133 1.374 . S
C129 C135 1.507 . S
C130 C131 1.387 . S
C130 C134 1.391 . S
C131 C130 1.387 . S
C131 C132 1.384 . S
C131 H140 0.930 . S
C132 C129 1.380 . S
C132 C131 1.384 . S
C132 H141 0.931 . S
C133 C129 1.374 . S
C133 C134 1.390 . S
C133 H142 0.930 1_655 S
C134 C130 1.391 . S
C134 C133 1.390 . S
C134 H143 0.930 1_655 S
C135 Eu105 2.825 . S
C135 O120 1.238 . S
C135 O121 1.247 . S
C135 C129 1.507 . S
H136 C109 0.930 . S
H137 C110 0.931 . S
H138 C111 0.930 1_655 S
H139 C112 0.930 1_655 S
H140 C131 0.930 . S
H141 C132 0.931 . S
H142 C133 0.930 1_455 S
H143 C134 0.930 1_455 S
Tb144 C154 2.825 . S
Tb144 O155 2.347 1_545 S
Tb144 O158 2.366 . S
Tb144 O163 2.418 . S
Tb144 O164 2.384 . S
Tb144 O167 2.479 . S
Tb144 O168 2.471 . S
Eu145 O156 2.418 . S
Eu145 O157 2.384 . S
Eu145 O160 2.479 . S
Eu145 O161 2.471 . S
Eu145 O162 2.347 1_565 S
Eu145 O165 2.366 . S
Eu145 C175 2.825 . S
C146 O162 1.259 . S
C146 O163 1.265 . S
C147 O164 1.255 . S
C147 O165 1.265 1_545 S
C148 C150 1.380 . S
C148 C151 1.374 . S
C148 C154 1.507 1_554 S
C149 C150 1.384 . S
C149 C153 1.387 . S
C149 H176 0.930 . S
C150 C148 1.380 . S
C150 C149 1.384 . S
C150 H177 0.931 . S
C151 C148 1.374 . S
C151 C152 1.390 . S
C151 H178 0.930 1_545 S
C152 C151 1.390 . S
C152 C153 1.391 . S
C152 H179 0.930 1_545 S
C153 C149 1.387 . S
C153 C152 1.391 . S
C154 Tb144 2.825 . S
C154 C148 1.507 1_556 S
C154 O167 1.238 . S
C154 O168 1.247 . S
O155 Tb144 2.347 1_565 S
O155 C159 1.259 . S
O156 Eu145 2.418 . S
O156 C159 1.265 . S
O157 Eu145 2.384 . S
O157 C166 1.255 . S
O158 Tb144 2.366 . S
O158 C166 1.265 1_545 S
C159 O155 1.259 . S
C159 O156 1.265 . S
O160 Eu145 2.479 . S
O160 C175 1.238 . S
O161 Eu145 2.471 . S
O161 C175 1.247 . S
O162 Eu145 2.347 1_545 S
O162 C146 1.259 . S
O163 Tb144 2.418 . S
O163 C146 1.265 . S
O164 Tb144 2.384 . S
O164 C147 1.255 . S
O165 Eu145 2.366 . S
O165 C147 1.265 1_565 S
C166 O157 1.255 . S
C166 O158 1.265 1_565 S
O167 Tb144 2.479 . S
O167 C154 1.238 . S
O168 Tb144 2.471 . S
O168 C154 1.247 . S
C169 C172 1.380 . S
C169 C173 1.374 . S
C169 C175 1.507 . S
C170 C171 1.387 . S
C170 C174 1.391 . S
C171 C170 1.387 . S
C171 C172 1.384 . S
C171 H180 0.930 . S
C172 C169 1.380 . S
C172 C171 1.384 . S
C172 H181 0.931 . S
C173 C169 1.374 . S
C173 C174 1.390 . S
C173 H182 0.930 1_565 S
C174 C170 1.391 . S
C174 C173 1.390 . S
C174 H183 0.930 1_565 S
C175 Eu145 2.825 . S
C175 O160 1.238 . S
C175 O161 1.247 . S
C175 C169 1.507 . S
H176 C149 0.930 . S
H177 C150 0.931 . S
H178 C151 0.930 1_565 S
H179 C152 0.930 1_565 S
H180 C171 0.930 . S
H181 C172 0.931 . S
H182 C173 0.930 1_545 S
H183 C174 0.930 1_545 S
Tb184 C194 2.825 . S
Tb184 O195 2.347 . S
Tb184 O198 2.366 . S
Tb184 O203 2.418 . S
Tb184 O204 2.384 . S
Tb184 O207 2.479 . S
Tb184 O208 2.471 . S
Eu185 O196 2.418 . S
Eu185 O197 2.384 . S
Eu185 O200 2.479 . S
Eu185 O201 2.471 . S
Eu185 O202 2.347 . S
Eu185 O205 2.366 . S
Eu185 C215 2.825 . S
C186 O202 1.259 . S
C186 O203 1.265 . S
C187 O204 1.255 . S
C187 O205 1.265 . S
C188 C190 1.380 . S
C188 C191 1.374 . S
C188 C194 1.507 1_554 S
C189 C190 1.384 . S
C189 C193 1.387 . S
C189 H216 0.930 . S
C190 C188 1.380 . S
C190 C189 1.384 . S
C190 H217 0.931 . S
C191 C188 1.374 . S
C191 C192 1.390 . S
C191 H218 0.930 . S
C192 C191 1.390 . S
C192 C193 1.391 . S
C192 H219 0.930 . S
C193 C189 1.387 . S
C193 C192 1.391 . S
C194 Tb184 2.825 . S
C194 C188 1.507 1_556 S
C194 O207 1.238 . S
C194 O208 1.247 . S
O195 Tb184 2.347 . S
O195 C199 1.259 . S
O196 Eu185 2.418 . S
O196 C199 1.265 . S
O197 Eu185 2.384 . S
O197 C206 1.255 . S
O198 Tb184 2.366 . S
O198 C206 1.265 . S
C199 O195 1.259 . S
C199 O196 1.265 . S
O200 Eu185 2.479 . S
O200 C215 1.238 . S
O201 Eu185 2.471 . S
O201 C215 1.247 . S
O202 Eu185 2.347 . S
O202 C186 1.259 . S
O203 Tb184 2.418 . S
O203 C186 1.265 . S
O204 Tb184 2.384 . S
O204 C187 1.255 . S
O205 Eu185 2.366 . S
O205 C187 1.265 . S
C206 O197 1.255 . S
C206 O198 1.265 . S
O207 Tb184 2.479 . S
O207 C194 1.238 . S
O208 Tb184 2.471 . S
O208 C194 1.247 . S
C209 C212 1.380 . S
C209 C213 1.374 . S
C209 C215 1.507 . S
C210 C211 1.387 . S
C210 C214 1.391 . S
C211 C210 1.387 . S
C211 C212 1.384 . S
C211 H220 0.930 . S
C212 C209 1.380 . S
C212 C211 1.384 . S
C212 H221 0.931 . S
C213 C209 1.374 . S
C213 C214 1.390 . S
C213 H222 0.930 . S
C214 C210 1.391 . S
C214 C213 1.390 . S
C214 H223 0.930 . S
C215 Eu185 2.825 . S
C215 O200 1.238 . S
C215 O201 1.247 . S
C215 C209 1.507 . S
H216 C189 0.930 . S
H217 C190 0.931 . S
H218 C191 0.930 . S
H219 C192 0.930 . S
H220 C211 0.930 . S
H221 C212 0.931 . S
H222 C213 0.930 . S
H223 C214 0.930 . S
Tb224 C234 2.825 . S
Tb224 O235 2.347 . S
Tb224 O238 2.366 . S
Tb224 O243 2.418 . S
Tb224 O244 2.384 1_655 S
Tb224 O247 2.479 . S
Tb224 O248 2.471 . S
Eu225 O236 2.418 . S
Eu225 O237 2.384 1_455 S
Eu225 O240 2.479 . S
Eu225 O241 2.471 . S
Eu225 O242 2.347 . S
Eu225 O245 2.366 . S
Eu225 C255 2.825 . S
C226 O242 1.259 1_655 S
C226 O243 1.265 . S
C227 O244 1.255 . S
C227 O245 1.265 . S
C228 C230 1.380 . S
C228 C231 1.374 . S
C228 C234 1.507 1_554 S
C229 C230 1.384 . S
C229 C233 1.387 . S
C229 H256 0.930 . S
C230 C228 1.380 . S
C230 C229 1.384 . S
C230 H257 0.931 . S
C231 C228 1.374 . S
C231 C232 1.390 . S
C231 H258 0.930 . S
C232 C231 1.390 . S
C232 C233 1.391 . S
C232 H259 0.930 . S
C233 C229 1.387 . S
C233 C232 1.391 . S
C234 Tb224 2.825 . S
C234 C228 1.507 1_556 S
C234 O247 1.238 . S
C234 O248 1.247 . S
O235 Tb224 2.347 . S
O235 C239 1.259 1_655 S
O236 Eu225 2.418 . S
O236 C239 1.265 . S
O237 Eu225 2.384 1_655 S
O237 C246 1.255 . S
O238 Tb224 2.366 . S
O238 C246 1.265 . S
C239 O235 1.259 1_455 S
C239 O236 1.265 . S
O240 Eu225 2.479 . S
O240 C255 1.238 . S
O241 Eu225 2.471 . S
O241 C255 1.247 . S
O242 Eu225 2.347 . S
O242 C226 1.259 1_455 S
O243 Tb224 2.418 . S
O243 C226 1.265 . S
O244 Tb224 2.384 1_455 S
O244 C227 1.255 . S
O245 Eu225 2.366 . S
O245 C227 1.265 . S
C246 O237 1.255 . S
C246 O238 1.265 . S
O247 Tb224 2.479 . S
O247 C234 1.238 . S
O248 Tb224 2.471 . S
O248 C234 1.247 . S
C249 C252 1.380 . S
C249 C253 1.374 . S
C249 C255 1.507 . S
C250 C251 1.387 . S
C250 C254 1.391 . S
C251 C250 1.387 . S
C251 C252 1.384 . S
C251 H260 0.930 . S
C252 C249 1.380 . S
C252 C251 1.384 . S
C252 H261 0.931 . S
C253 C249 1.374 . S
C253 C254 1.390 . S
C253 H262 0.930 . S
C254 C250 1.391 . S
C254 C253 1.390 . S
C254 H263 0.930 . S
C255 Eu225 2.825 . S
C255 O240 1.238 . S
C255 O241 1.247 . S
C255 C249 1.507 . S
H256 C229 0.930 . S
H257 C230 0.931 . S
H258 C231 0.930 . S
H259 C232 0.930 . S
H260 C251 0.930 . S
H261 C252 0.931 . S
H262 C253 0.930 . S
H263 C254 0.930 . S
H264 C272 0.950 . S
H265 C277 0.950 . S
H266 C274 0.950 . S
H267 C276 0.950 . S
H268 C278 0.950 . S
H269 C280 0.950 . S
H270 C282 0.950 . S
H271 C283 0.950 . S
C272 H264 0.950 . S
C272 C273 1.397 . S
C272 C274 1.391 . S
C273 C272 1.397 . S
C273 C277 1.383 1_565 S
C274 H266 0.950 . S
C274 C272 1.391 . S
C274 C275 1.404 . S
C275 C274 1.404 . S
C275 C276 1.395 1_565 S
C275 C281 1.490 1_565 S
C276 H267 0.950 . S
C276 C275 1.395 1_545 S
C276 C277 1.391 . S
C277 H265 0.950 . S
C277 C273 1.383 1_545 S
C277 C276 1.391 . S
C278 H268 0.950 . S
C278 C279 1.400 . S
C278 C280 1.391 . S
C279 C278 1.400 . S
C279 C283 1.380 1_545 S
C280 H269 0.950 . S
C280 C278 1.391 . S
C280 C281 1.408 . S
C281 C275 1.490 1_545 S
C281 C280 1.408 . S
C281 C282 1.392 1_545 S
C282 H270 0.950 . S
C282 C281 1.392 1_565 S
C282 C283 1.391 . S
C283 H271 0.950 . S
C283 C279 1.380 1_565 S
C283 C282 1.391 . S
H284 C292 0.950 . S
H285 C297 0.950 . S
H286 C294 0.950 . S
H287 C296 0.950 . S
H288 C298 0.950 . S
H289 C300 0.950 . S
H290 C302 0.950 . S
H291 C303 0.950 . S
C292 H284 0.950 . S
C292 C293 1.386 . S
C292 C294 1.391 . S
C293 C292 1.386 . S
C293 C297 1.393 . S
C294 H286 0.950 . S
C294 C292 1.391 . S
C294 C295 1.400 . S
C295 C294 1.400 . S
C295 C296 1.398 . S
C295 C301 1.491 . S
C296 H287 0.950 . S
C296 C295 1.398 . S
C296 C297 1.391 . S
C297 H285 0.950 . S
C297 C293 1.393 . S
C297 C296 1.391 . S
C298 H288 0.950 . S
C298 C299 1.386 . S
C298 C300 1.391 . S
C299 C298 1.386 . S
C299 C303 1.393 . S
C300 H289 0.950 . S
C300 C298 1.391 . S
C300 C301 1.400 . S
C301 C295 1.491 . S
C301 C300 1.400 . S
C301 C302 1.398 . S
C302 H290 0.950 . S
C302 C301 1.398 . S
C302 C303 1.391 . S
C303 H291 0.950 . S
C303 C299 1.393 . S
C303 C302 1.391 . S
H304 C312 0.950 . S
H305 C317 0.950 . S
H306 C314 0.950 . S
H307 C316 0.950 . S
H308 C318 0.950 . S
H309 C320 0.950 . S
H310 C322 0.950 . S
H311 C323 0.950 . S
C312 H304 0.950 . S
C312 C313 1.386 . S
C312 C314 1.391 . S
C313 C312 1.386 . S
C313 C317 1.393 . S
C314 H306 0.950 . S
C314 C312 1.391 . S
C314 C315 1.400 . S
C315 C314 1.400 . S
C315 C316 1.398 . S
C315 C321 1.491 . S
C316 H307 0.950 . S
C316 C315 1.398 . S
C316 C317 1.391 . S
C317 H305 0.950 . S
C317 C313 1.393 . S
C317 C316 1.391 . S
C318 H308 0.950 . S
C318 C319 1.386 . S
C318 C320 1.391 . S
C319 C318 1.386 . S
C319 C323 1.393 . S
C320 H309 0.950 . S
C320 C318 1.391 . S
C320 C321 1.400 . S
C321 C315 1.491 . S
C321 C320 1.400 . S
C321 C322 1.398 . S
C322 H310 0.950 . S
C322 C321 1.398 . S
C322 C323 1.391 . S
C323 H311 0.950 . S
C323 C319 1.393 . S
C323 C322 1.391 . S
H324 C332 0.950 . S
H325 C337 0.950 . S
H326 C334 0.950 . S
H327 C336 0.950 . S
H328 C338 0.950 . S
H329 C340 0.950 . S
H330 C342 0.950 . S
H331 C343 0.950 . S
C332 H324 0.950 . S
C332 C333 1.385 . S
C332 C334 1.391 . S
C333 C332 1.385 . S
C333 C337 1.394 1_655 S
C334 H326 0.950 . S
C334 C332 1.391 . S
C334 C335 1.391 1_655 S
C335 C334 1.391 1_455 S
C335 C336 1.407 . S
C335 C341 1.490 . S
C336 H327 0.950 . S
C336 C335 1.407 . S
C336 C337 1.391 . S
C337 H325 0.950 . S
C337 C333 1.394 1_455 S
C337 C336 1.391 . S
C338 H328 0.950 . S
C338 C339 1.386 . S
C338 C340 1.391 . S
C339 C338 1.386 . S
C339 C343 1.393 1_455 S
C340 H329 0.950 . S
C340 C338 1.391 . S
C340 C341 1.428 . S
C341 C335 1.490 . S
C341 C340 1.428 . S
C341 C342 1.372 1_455 S
C342 H330 0.950 . S
C342 C341 1.372 1_655 S
C342 C343 1.391 . S
C343 H331 0.950 . S
C343 C339 1.393 1_655 S
C343 C342 1.391 . S
H344 C352 0.950 . S
H345 C357 0.950 . S
H346 C354 0.950 . S
H347 C356 0.950 . S
H348 C358 0.950 . S
H349 C360 0.950 . S
H350 C362 0.950 . S
H351 C363 0.950 . S
C352 H344 0.950 . S
C352 C353 1.388 . S
C352 C354 1.391 . S
C353 C352 1.388 . S
C353 C357 1.390 1_565 S
C354 H346 0.950 . S
C354 C352 1.391 . S
C354 C355 1.398 . S
C355 C354 1.398 . S
C355 C356 1.400 1_565 S
C355 C361 1.491 1_565 S
C356 H347 0.950 . S
C356 C355 1.400 1_545 S
C356 C357 1.391 . S
C357 H345 0.950 . S
C357 C353 1.390 1_545 S
C357 C356 1.391 . S
C358 H348 0.950 . S
C358 C359 1.396 . S
C358 C360 1.391 1_556 S
C359 C358 1.396 . S
C359 C363 1.383 1_546 S
C360 H349 0.950 . S
C360 C358 1.391 1_554 S
C360 C361 1.406 . S
C361 C355 1.491 1_545 S
C361 C360 1.406 . S
C361 C362 1.393 1_545 S
C362 H350 0.950 . S
C362 C361 1.393 1_565 S
C362 C363 1.391 . S
C363 H351 0.950 . S
C363 C359 1.383 1_564 S
C363 C362 1.391 . S
H364 C372 0.950 . S
H365 C377 0.950 . S
H366 C374 0.950 . S
H367 C376 0.950 . S
H368 C378 0.950 . S
H369 C380 0.950 . S
H370 C382 0.950 . S
H371 C383 0.950 . S
C372 H364 0.950 . S
C372 C373 1.386 . S
C372 C374 1.391 . S
C373 C372 1.386 . S
C373 C377 1.393 . S
C374 H366 0.950 . S
C374 C372 1.391 . S
C374 C375 1.400 . S
C375 C374 1.400 . S
C375 C376 1.398 . S
C375 C381 1.491 . S
C376 H367 0.950 . S
C376 C375 1.398 . S
C376 C377 1.391 . S
C377 H365 0.950 . S
C377 C373 1.393 . S
C377 C376 1.391 . S
C378 H368 0.950 . S
C378 C379 1.386 . S
C378 C380 1.391 1_556 S
C379 C378 1.386 . S
C379 C383 1.393 1_556 S
C380 H369 0.950 . S
C380 C378 1.391 1_554 S
C380 C381 1.400 . S
C381 C375 1.491 . S
C381 C380 1.400 . S
C381 C382 1.398 . S
C382 H370 0.950 . S
C382 C381 1.398 . S
C382 C383 1.391 . S
C383 H371 0.950 . S
C383 C379 1.393 1_554 S
C383 C382 1.391 . S
H384 C392 0.950 . S
H385 C397 0.950 . S
H386 C394 0.950 . S
H387 C396 0.950 . S
H388 C398 0.950 . S
H389 C400 0.950 . S
H390 C402 0.950 . S
H391 C403 0.950 . S
C392 H384 0.950 . S
C392 C393 1.386 . S
C392 C394 1.391 . S
C393 C392 1.386 . S
C393 C397 1.393 . S
C394 H386 0.950 . S
C394 C392 1.391 . S
C394 C395 1.400 . S
C395 C394 1.400 . S
C395 C396 1.398 . S
C395 C401 1.491 . S
C396 H387 0.950 . S
C396 C395 1.398 . S
C396 C397 1.391 . S
C397 H385 0.950 . S
C397 C393 1.393 . S
C397 C396 1.391 . S
C398 H388 0.950 . S
C398 C399 1.386 . S
C398 C400 1.391 1_556 S
C399 C398 1.386 . S
C399 C403 1.393 1_556 S
C400 H389 0.950 . S
C400 C398 1.391 1_554 S
C400 C401 1.400 . S
C401 C395 1.491 . S
C401 C400 1.400 . S
C401 C402 1.398 . S
C402 H390 0.950 . S
C402 C401 1.398 . S
C402 C403 1.391 . S
C403 H391 0.950 . S
C403 C399 1.393 1_554 S
C403 C402 1.391 . S
H404 C412 0.950 . S
H405 C417 0.950 . S
H406 C414 0.950 . S
H407 C416 0.950 . S
H408 C418 0.950 . S
H409 C420 0.950 . S
H410 C422 0.950 . S
H411 C423 0.950 . S
C412 H404 0.950 . S
C412 C413 1.406 . S
C412 C414 1.391 . S
C413 C412 1.406 . S
C413 C417 1.374 1_655 S
C414 H406 0.950 . S
C414 C412 1.391 . S
C414 C415 1.423 . S
C415 C414 1.423 . S
C415 C416 1.377 1_655 S
C415 C421 1.491 . S
C416 H407 0.950 . S
C416 C415 1.377 1_455 S
C416 C417 1.391 . S
C417 H405 0.950 . S
C417 C413 1.374 1_455 S
C417 C416 1.391 . S
C418 H408 0.950 . S
C418 C419 1.372 1_455 S
C418 C420 1.391 1_556 S
C419 C418 1.372 1_655 S
C419 C423 1.406 1_556 S
C420 H409 0.950 . S
C420 C418 1.391 1_554 S
C420 C421 1.390 1_455 S
C421 C415 1.491 . S
C421 C420 1.390 1_655 S
C421 C422 1.409 . S
C422 H410 0.950 . S
C422 C421 1.409 . S
C422 C423 1.391 . S
C423 H411 0.950 . S
C423 C419 1.406 1_554 S
C423 C422 1.391 . S
H424 C432 0.950 . S
H425 C437 0.950 1_556 S
H426 C434 0.950 1_455 S
H427 C436 0.950 . S
H428 C438 0.950 . S
H429 C440 0.950 . S
H430 C442 0.950 . S
H431 C443 0.950 . S
C432 H424 0.950 . S
C432 C433 1.386 . S
C432 C434 1.391 1_455 S
C433 C432 1.386 . S
C433 C437 1.393 1_455 S
C434 H426 0.950 1_655 S
C434 C432 1.391 1_655 S
C434 C435 1.400 . S
C435 C434 1.400 . S
C435 C436 1.398 . S
C435 C441 1.491 . S
C436 H427 0.950 . S
C436 C435 1.398 . S
C436 C437 1.391 . S
C437 H425 0.950 1_554 S
C437 C433 1.393 1_655 S
C437 C436 1.391 . S
C438 H428 0.950 . S
C438 C439 1.386 . S
C438 C440 1.391 . S
C439 C438 1.386 . S
C439 C443 1.393 . S
C440 H429 0.950 . S
C440 C438 1.391 . S
C440 C441 1.400 . S
C441 C435 1.491 . S
C441 C440 1.400 . S
C441 C442 1.398 . S
C442 H430 0.950 . S
C442 C441 1.398 . S
C442 C443 1.391 . S
C443 H431 0.950 . S
C443 C439 1.393 . S
C443 C442 1.391 . S
H444 C452 0.950 . S
H445 C457 0.950 . S
H446 C454 0.950 . S
H447 C456 0.950 . S
H448 C458 0.950 . S
H449 C460 0.950 . S
H450 C462 0.950 1_545 S
H451 C463 0.950 . S
C452 H444 0.950 . S
C452 C453 1.386 . S
C452 C454 1.391 . S
C453 C452 1.386 . S
C453 C457 1.393 1_545 S
C454 H446 0.950 . S
C454 C452 1.391 . S
C454 C455 1.400 1_545 S
C455 C454 1.400 1_565 S
C455 C456 1.398 . S
C455 C461 1.491 . S
C456 H447 0.950 . S
C456 C455 1.398 . S
C456 C457 1.391 . S
C457 H445 0.950 . S
C457 C453 1.393 1_565 S
C457 C456 1.391 . S
C458 H448 0.950 . S
C458 C459 1.386 . S
C458 C460 1.391 . S
C459 C458 1.386 . S
C459 C463 1.393 . S
C460 H449 0.950 . S
C460 C458 1.391 . S
C460 C461 1.400 . S
C461 C455 1.491 . S
C461 C460 1.400 . S
C461 C462 1.398 . S
C462 H450 0.950 1_565 S
C462 C461 1.398 . S
C462 C463 1.391 . S
C463 H451 0.950 . S
C463 C459 1.393 . S
C463 C462 1.391 . S
H464 C472 0.950 . S
H465 C477 0.950 . S
H466 C474 0.950 . S
H467 C476 0.950 . S
H468 C478 0.950 . S
H469 C480 0.950 . S
H470 C482 0.950 . S
H471 C483 0.950 . S
C472 H464 0.950 . S
C472 C473 1.386 . S
C472 C474 1.391 . S
C473 C472 1.386 . S
C473 C477 1.393 . S
C474 H466 0.950 . S
C474 C472 1.391 . S
C474 C475 1.400 . S
C475 C474 1.400 . S
C475 C476 1.398 . S
C475 C481 1.491 . S
C476 H467 0.950 . S
C476 C475 1.398 . S
C476 C477 1.391 . S
C477 H465 0.950 . S
C477 C473 1.393 . S
C477 C476 1.391 . S
C478 H468 0.950 . S
C478 C479 1.386 . S
C478 C480 1.391 . S
C479 C478 1.386 . S
C479 C483 1.393 . S
C480 H469 0.950 . S
C480 C478 1.391 . S
C480 C481 1.400 . S
C481 C475 1.491 . S
C481 C480 1.400 . S
C481 C482 1.398 . S
C482 H470 0.950 . S
C482 C481 1.398 . S
C482 C483 1.391 . S
C483 H471 0.950 . S
C483 C479 1.393 . S
C483 C482 1.391 . S
H484 C492 0.950 . S
H485 C497 0.950 . S
H486 C494 0.950 . S
H487 C496 0.950 . S
H488 C498 0.950 . S
H489 C500 0.950 . S
H490 C502 0.950 . S
H491 C503 0.950 . S
C492 H484 0.950 . S
C492 C493 1.386 . S
C492 C494 1.391 . S
C493 C492 1.386 . S
C493 C497 1.393 . S
C494 H486 0.950 . S
C494 C492 1.391 . S
C494 C495 1.400 . S
C495 C494 1.400 . S
C495 C496 1.398 . S
C495 C501 1.491 . S
C496 H487 0.950 . S
C496 C495 1.398 . S
C496 C497 1.391 . S
C497 H485 0.950 . S
C497 C493 1.393 . S
C497 C496 1.391 . S
C498 H488 0.950 . S
C498 C499 1.386 . S
C498 C500 1.391 . S
C499 C498 1.386 . S
C499 C503 1.393 . S
C500 H489 0.950 . S
C500 C498 1.391 . S
C500 C501 1.400 . S
C501 C495 1.491 . S
C501 C500 1.400 . S
C501 C502 1.398 . S
C502 H490 0.950 . S
C502 C501 1.398 . S
C502 C503 1.391 . S
C503 H491 0.950 . S
C503 C499 1.393 . S
C503 C502 1.391 . S
H504 C512 0.950 . S
H505 C517 0.950 . S
H506 C514 0.950 . S
H507 C516 0.950 . S
H508 C518 0.950 . S
H509 C520 0.950 . S
H510 C522 0.950 . S
H511 C523 0.950 . S
C512 H504 0.950 . S
C512 C513 1.386 1_455 S
C512 C514 1.391 . S
C513 C512 1.386 1_655 S
C513 C517 1.393 . S
C514 H506 0.950 . S
C514 C512 1.391 . S
C514 C515 1.400 . S
C515 C514 1.400 . S
C515 C516 1.398 . S
C515 C521 1.491 . S
C516 H507 0.950 . S
C516 C515 1.398 . S
C516 C517 1.391 1_455 S
C517 H505 0.950 . S
C517 C513 1.393 . S
C517 C516 1.391 1_655 S
C518 H508 0.950 . S
C518 C519 1.386 . S
C518 C520 1.391 . S
C519 C518 1.386 . S
C519 C523 1.393 . S
C520 H509 0.950 . S
C520 C518 1.391 . S
C520 C521 1.400 . S
C521 C515 1.491 . S
C521 C520 1.400 . S
C521 C522 1.398 . S
C522 H510 0.950 . S
C522 C521 1.398 . S
C522 C523 1.391 . S
C523 H511 0.950 . S
C523 C519 1.393 . S
C523 C522 1.391 . S
H524 C532 0.950 . S
H525 C537 0.950 . S
H526 C534 0.950 . S
H527 C536 0.950 . S
H528 C538 0.950 1_565 S
H529 C540 0.950 1_565 S
H530 C542 0.950 . S
H531 C543 0.950 . S
C532 H524 0.950 . S
C532 C533 1.386 1_545 S
C532 C534 1.391 . S
C533 C532 1.386 1_565 S
C533 C537 1.393 . S
C534 H526 0.950 . S
C534 C532 1.391 . S
C534 C535 1.400 . S
C535 C534 1.400 . S
C535 C536 1.398 1_545 S
C535 C541 1.491 . S
C536 H527 0.950 . S
C536 C535 1.398 1_565 S
C536 C537 1.391 . S
C537 H525 0.950 . S
C537 C533 1.393 . S
C537 C536 1.391 . S
C538 H528 0.950 1_545 S
C538 C539 1.386 . S
C538 C540 1.391 . S
C539 C538 1.386 . S
C539 C543 1.393 . S
C540 H529 0.950 1_545 S
C540 C538 1.391 . S
C540 C541 1.400 . S
C541 C535 1.491 . S
C541 C540 1.400 . S
C541 C542 1.398 . S
C542 H530 0.950 . S
C542 C541 1.398 . S
C542 C543 1.391 . S
C543 H531 0.950 . S
C543 C539 1.393 . S
C543 C542 1.391 . S
H544 C552 0.950 . S
H545 C557 0.950 . S
H546 C554 0.950 . S
H547 C556 0.950 . S
H548 C558 0.950 . S
H549 C560 0.950 . S
H550 C562 0.950 . S
H551 C563 0.950 . S
C552 H544 0.950 . S
C552 C553 1.386 . S
C552 C554 1.391 . S
C553 C552 1.386 . S
C553 C557 1.393 . S
C554 H546 0.950 . S
C554 C552 1.391 . S
C554 C555 1.400 . S
C555 C554 1.400 . S
C555 C556 1.398 . S
C555 C561 1.491 . S
C556 H547 0.950 . S
C556 C555 1.398 . S
C556 C557 1.391 . S
C557 H545 0.950 . S
C557 C553 1.393 . S
C557 C556 1.391 . S
C558 H548 0.950 . S
C558 C559 1.386 . S
C558 C560 1.391 . S
C559 C558 1.386 . S
C559 C563 1.393 . S
C560 H549 0.950 . S
C560 C558 1.391 . S
C560 C561 1.400 . S
C561 C555 1.491 . S
C561 C560 1.400 . S
C561 C562 1.398 . S
C562 H550 0.950 . S
C562 C561 1.398 . S
C562 C563 1.391 . S
C563 H551 0.950 . S
C563 C559 1.393 . S
C563 C562 1.391 . S
H564 C572 0.950 . S
H565 C577 0.950 . S
H566 C574 0.950 . S
H567 C576 0.950 . S
H568 C578 0.950 . S
H569 C580 0.950 . S
H570 C582 0.950 . S
H571 C583 0.950 . S
C572 H564 0.950 . S
C572 C573 1.386 . S
C572 C574 1.391 . S
C573 C572 1.386 . S
C573 C577 1.393 . S
C574 H566 0.950 . S
C574 C572 1.391 . S
C574 C575 1.400 . S
C575 C574 1.400 . S
C575 C576 1.398 . S
C575 C581 1.491 . S
C576 H567 0.950 . S
C576 C575 1.398 . S
C576 C577 1.391 . S
C577 H565 0.950 . S
C577 C573 1.393 . S
C577 C576 1.391 . S
C578 H568 0.950 . S
C578 C579 1.386 . S
C578 C580 1.391 . S
C579 C578 1.386 . S
C579 C583 1.393 . S
C580 H569 0.950 . S
C580 C578 1.391 . S
C580 C581 1.400 . S
C581 C575 1.491 . S
C581 C580 1.400 . S
C581 C582 1.398 . S
C582 H570 0.950 . S
C582 C581 1.398 . S
C582 C583 1.391 . S
C583 H571 0.950 . S
C583 C579 1.393 . S
C583 C582 1.391 . S
H584 C592 0.950 . S
H585 C597 0.950 . S
H586 C594 0.950 1_554 S
H587 C596 0.950 . S
H588 C598 0.950 . S
H589 C600 0.950 . S
H590 C602 0.950 1_554 S
H591 C603 0.950 . S
C592 H584 0.950 . S
C592 C593 1.365 1_654 S
C592 C594 1.391 1_554 S
C593 C592 1.365 1_456 S
C593 C597 1.416 . S
C594 H586 0.950 1_556 S
C594 C592 1.391 1_556 S
C594 C595 1.400 1_655 S
C595 C594 1.400 1_455 S
C595 C596 1.398 . S
C595 C601 1.491 . S
C596 H587 0.950 . S
C596 C595 1.398 . S
C596 C597 1.391 . S
C597 H585 0.950 . S
C597 C593 1.416 . S
C597 C596 1.391 . S
C598 H588 0.950 . S
C598 C599 1.386 . S
C598 C600 1.391 . S
C599 C598 1.386 . S
C599 C603 1.393 1_455 S
C600 H589 0.950 . S
C600 C598 1.391 . S
C600 C601 1.400 . S
C601 C595 1.491 . S
C601 C600 1.400 . S
C601 C602 1.398 1_455 S
C602 H590 0.950 1_556 S
C602 C601 1.398 1_655 S
C602 C603 1.391 . S
C603 H591 0.950 . S
C603 C599 1.393 1_655 S
C603 C602 1.391 . S
H604 C612 0.950 . S
H605 C617 0.950 . S
H606 C614 0.950 1_554 S
H607 C616 0.950 . S
H608 C618 0.950 . S
H609 C620 0.950 . S
H610 C622 0.950 1_554 S
H611 C623 0.951 1_554 S
C612 H604 0.950 . S
C612 C613 1.371 1_564 S
C612 C614 1.391 1_554 S
C613 C612 1.371 1_546 S
C613 C617 1.410 . S
C614 H606 0.950 1_556 S
C614 C612 1.391 1_556 S
C614 C615 1.400 1_565 S
C615 C614 1.400 1_545 S
C615 C616 1.398 . S
C615 C621 1.491 . S
C616 H607 0.950 . S
C616 C615 1.398 . S
C616 C617 1.391 . S
C617 H605 0.950 . S
C617 C613 1.410 . S
C617 C616 1.391 . S
C618 H608 0.950 . S
C618 C619 1.386 . S
C618 C620 1.391 . S
C619 C618 1.386 . S
C619 C623 1.385 1_545 S
C620 H609 0.950 . S
C620 C618 1.391 . S
C620 C621 1.400 . S
C621 C615 1.491 . S
C621 C620 1.400 . S
C621 C622 1.398 1_545 S
C622 H610 0.950 1_556 S
C622 C621 1.398 1_565 S
C622 C623 1.392 . S
C623 H611 0.951 1_556 S
C623 C619 1.385 1_565 S
C623 C622 1.392 . S
H624 C632 0.950 1_554 S
H625 C637 0.950 . S
H626 C634 0.950 1_554 S
H627 C636 0.950 . S
H628 C638 0.950 . S
H629 C640 0.950 . S
H630 C642 0.950 1_554 S
H631 C643 0.950 . S
C632 H624 0.950 1_556 S
C632 C633 1.386 . S
C632 C634 1.391 . S
C633 C632 1.386 . S
C633 C637 1.393 . S
C634 H626 0.950 1_556 S
C634 C632 1.391 . S
C634 C635 1.400 . S
C635 C634 1.400 . S
C635 C636 1.398 . S
C635 C641 1.491 . S
C636 H627 0.950 . S
C636 C635 1.398 . S
C636 C637 1.391 . S
C637 H625 0.950 . S
C637 C633 1.393 . S
C637 C636 1.391 . S
C638 H628 0.950 . S
C638 C639 1.386 . S
C638 C640 1.391 . S
C639 C638 1.386 . S
C639 C643 1.393 . S
C640 H629 0.950 . S
C640 C638 1.391 . S
C640 C641 1.400 . S
C641 C635 1.491 . S
C641 C640 1.400 . S
C641 C642 1.398 . S
C642 H630 0.950 1_556 S
C642 C641 1.398 . S
C642 C643 1.391 . S
C643 H631 0.950 . S
C643 C639 1.393 . S
C643 C642 1.391 . S
H644 C652 0.950 . S
H645 C657 0.950 . S
H646 C654 0.950 . S
H647 C656 0.950 1_554 S
H648 C658 0.950 . S
H649 C660 0.950 1_554 S
H650 C662 0.950 . S
H651 C663 0.950 . S
C652 H644 0.950 . S
C652 C653 1.386 . S
C652 C654 1.391 . S
C653 C652 1.386 . S
C653 C657 1.393 1_556 S
C654 H646 0.950 . S
C654 C652 1.391 . S
C654 C655 1.400 . S
C655 C654 1.400 . S
C655 C656 1.398 . S
C655 C661 1.491 . S
C656 H647 0.950 1_556 S
C656 C655 1.398 . S
C656 C657 1.391 1_556 S
C657 H645 0.950 . S
C657 C653 1.393 1_554 S
C657 C656 1.391 1_554 S
C658 H648 0.950 . S
C658 C659 1.386 . S
C658 C660 1.391 . S
C659 C658 1.386 . S
C659 C663 1.393 . S
C660 H649 0.950 1_556 S
C660 C658 1.391 . S
C660 C661 1.400 . S
C661 C655 1.491 . S
C661 C660 1.400 . S
C661 C662 1.398 . S
C662 H650 0.950 . S
C662 C661 1.398 . S
C662 C663 1.391 . S
C663 H651 0.950 . S
C663 C659 1.393 . S
C663 C662 1.391 . S
H664 C672 0.950 . S
H665 C677 0.950 . S
H666 C674 0.950 . S
H667 C676 0.950 . S
H668 C678 0.950 . S
H669 C680 0.950 . S
H670 C682 0.950 . S
H671 C683 0.950 . S
C672 H664 0.950 . S
C672 C673 1.386 1_455 S
C672 C674 1.391 . S
C673 C672 1.386 1_655 S
C673 C677 1.393 . S
C674 H666 0.950 . S
C674 C672 1.391 . S
C674 C675 1.400 1_455 S
C675 C674 1.400 1_655 S
C675 C676 1.398 . S
C675 C681 1.491 . S
C676 H667 0.950 . S
C676 C675 1.398 . S
C676 C677 1.391 . S
C677 H665 0.950 . S
C677 C673 1.393 . S
C677 C676 1.391 . S
C678 H668 0.950 . S
C678 C679 1.386 . S
C678 C680 1.391 . S
C679 C678 1.386 . S
C679 C683 1.393 1_655 S
C680 H669 0.950 . S
C680 C678 1.391 . S
C680 C681 1.400 . S
C681 C675 1.491 . S
C681 C680 1.400 . S
C681 C682 1.398 1_655 S
C682 H670 0.950 . S
C682 C681 1.398 1_455 S
C682 C683 1.391 . S
C683 H671 0.950 . S
C683 C679 1.393 1_455 S
C683 C682 1.391 . S
H684 C692 0.950 . S
H685 C697 0.950 . S
H686 C694 0.950 . S
H687 C696 0.950 . S
H688 C698 0.950 . S
H689 C700 0.950 . S
H690 C702 0.950 . S
H691 C703 0.950 . S
C692 H684 0.950 . S
C692 C693 1.386 1_545 S
C692 C694 1.391 . S
C693 C692 1.386 1_565 S
C693 C697 1.393 . S
C694 H686 0.950 . S
C694 C692 1.391 . S
C694 C695 1.400 1_545 S
C695 C694 1.400 1_565 S
C695 C696 1.398 . S
C695 C701 1.491 . S
C696 H687 0.950 . S
C696 C695 1.398 . S
C696 C697 1.391 . S
C697 H685 0.950 . S
C697 C693 1.393 . S
C697 C696 1.391 . S
C698 H688 0.950 . S
C698 C699 1.386 . S
C698 C700 1.391 . S
C699 C698 1.386 . S
C699 C703 1.393 1_565 S
C700 H689 0.950 . S
C700 C698 1.391 . S
C700 C701 1.400 . S
C701 C695 1.491 . S
C701 C700 1.400 . S
C701 C702 1.398 1_565 S
C702 H690 0.950 . S
C702 C701 1.398 1_545 S
C702 C703 1.391 . S
C703 H691 0.950 . S
C703 C699 1.393 1_545 S
C703 C702 1.391 . S
H704 C712 0.950 . S
H705 C717 0.950 . S
H706 C714 0.950 . S
H707 C716 0.950 . S
H708 C718 0.950 . S
H709 C720 0.950 . S
H710 C722 0.950 . S
H711 C723 0.950 . S
C712 H704 0.950 . S
C712 C713 1.386 . S
C712 C714 1.391 . S
C713 C712 1.386 . S
C713 C717 1.393 . S
C714 H706 0.950 . S
C714 C712 1.391 . S
C714 C715 1.400 . S
C715 C714 1.400 . S
C715 C716 1.398 . S
C715 C721 1.491 . S
C716 H707 0.950 . S
C716 C715 1.398 . S
C716 C717 1.391 . S
C717 H705 0.950 . S
C717 C713 1.393 . S
C717 C716 1.391 . S
C718 H708 0.950 . S
C718 C719 1.386 . S
C718 C720 1.391 . S
C719 C718 1.386 . S
C719 C723 1.393 . S
C720 H709 0.950 . S
C720 C718 1.391 . S
C720 C721 1.400 . S
C721 C715 1.491 . S
C721 C720 1.400 . S
C721 C722 1.398 . S
C722 H710 0.950 . S
C722 C721 1.398 . S
C722 C723 1.391 . S
C723 H711 0.950 . S
C723 C719 1.393 . S
C723 C722 1.391 . S
H724 C732 0.950 . S
H725 C737 0.950 . S
H726 C734 0.950 . S
H727 C736 0.950 . S
H728 C738 0.950 . S
H729 C740 0.950 . S
H730 C742 0.950 . S
H731 C743 0.950 . S
C732 H724 0.950 . S
C732 C733 1.386 . S
C732 C734 1.391 . S
C733 C732 1.386 . S
C733 C737 1.393 . S
C734 H726 0.950 . S
C734 C732 1.391 . S
C734 C735 1.400 . S
C735 C734 1.400 . S
C735 C736 1.398 . S
C735 C741 1.491 . S
C736 H727 0.950 . S
C736 C735 1.398 . S
C736 C737 1.391 . S
C737 H725 0.950 . S
C737 C733 1.393 . S
C737 C736 1.391 . S
C738 H728 0.950 . S
C738 C739 1.386 . S
C738 C740 1.391 . S
C739 C738 1.386 . S
C739 C743 1.393 . S
C740 H729 0.950 . S
C740 C738 1.391 . S
C740 C741 1.400 . S
C741 C735 1.491 . S
C741 C740 1.400 . S
C741 C742 1.398 . S
C742 H730 0.950 . S
C742 C741 1.398 . S
C742 C743 1.391 . S
C743 H731 0.950 . S
C743 C739 1.393 . S
C743 C742 1.391 . S
C273 N80 1.878 . S
C279 C106 1.965 1_545 S
C299 C146 1.984 . S
C293 N93 1.890 . S
C319 C186 1.985 . S
C313 N54 1.918 . S
C339 C226 1.979 1_455 S
C333 N67 1.884 . S
C359 C119 1.970 . S
C353 N28 1.879 . S
C373 N41 1.905 . S
C379 C159 1.979 . S
C393 N2 1.906 . S
C399 C199 1.984 . S
C413 N15 1.885 . S
C419 C239 1.977 1_655 S
C439 C130 0.382 . S
C433 N70 0.373 1_455 S
C459 C170 0.400 . S
C453 N83 0.396 1_545 S
C479 C210 0.445 . S
C473 N96 0.434 . S
C493 N57 0.411 . S
C499 C250 0.411 . S
C513 N18 0.425 . S
C519 C113 0.437 . S
C539 C153 0.410 . S
C533 N31 0.400 . S
C559 C193 0.410 . S
C553 N44 0.404 . S
C573 N5 0.395 . S
C579 C233 0.403 . S
C593 N66 2.179 1_455 S
C599 C107 2.275 . S
C613 N79 2.143 1_545 S
C619 C147 2.245 . S
C639 C187 2.230 . S
C633 N92 2.133 . S
C659 C227 2.257 . S
C653 N53 2.150 . S
C673 N14 2.160 . S
C679 C126 2.282 . S
C699 C166 2.242 . S
C693 N27 2.125 . S
C719 C206 2.224 . S
C713 N40 2.105 . S
C733 N1 2.149 . S
C739 C246 2.261 . S
