# Generated by pormake.
# Topology anh, (6,3)-cn, num edge types: 1
# Building blocks:
#     Node 0, Type 0, BuildingBlock: BETGAK_clean_sbu_0, # of connection points: 6
#     Node 1, Type 0, BuildingBlock: BETGAK_clean_sbu_0, # of connection points: 6
#     Node 2, Type 0, BuildingBlock: BETGAK_clean_sbu_0, # of connection points: 6
#     Node 3, Type 1, BuildingBlock: KAKCAD_clean_linker_0, # of connection points: 3
#     Node 4, Type 1, BuildingBlock: KAKCAD_clean_linker_0, # of connection points: 3
#     Node 5, Type 1, BuildingBlock: KAKCAD_clean_linker_0, # of connection points: 3
#     Node 6, Type 1, BuildingBlock: KAKCAD_clean_linker_0, # of connection points: 3
#     Node 7, Type 1, BuildingBlock: KAKCAD_clean_linker_0, # of connection points: 3
#     Node 8, Type 1, BuildingBlock: KAKCAD_clean_linker_0, # of connection points: 3
#     Edge 9, Type (0, 1), BuildingBlock: UVAHIK_clean_linker_0, # of connection points: 2
#     Edge 10, Type (0, 1), BuildingBlock: UVAHIK_clean_linker_0, # of connection points: 2
#     Edge 11, Type (0, 1), BuildingBlock: UVAHIK_clean_linker_0, # of connection points: 2
#     Edge 12, Type (0, 1), BuildingBlock: UVAHIK_clean_linker_0, # of connection points: 2
#     Edge 13, Type (0, 1), BuildingBlock: UVAHIK_clean_linker_0, # of connection points: 2
#     Edge 14, Type (0, 1), BuildingBlock: UVAHIK_clean_linker_0, # of connection points: 2
#     Edge 15, Type (0, 1), BuildingBlock: UVAHIK_clean_linker_0, # of connection points: 2
#     Edge 16, Type (0, 1), BuildingBlock: UVAHIK_clean_linker_0, # of connection points: 2
#     Edge 17, Type (0, 1), BuildingBlock: UVAHIK_clean_linker_0, # of connection points: 2
#     Edge 18, Type (0, 1), BuildingBlock: UVAHIK_clean_linker_0, # of connection points: 2
#     Edge 19, Type (0, 1), BuildingBlock: UVAHIK_clean_linker_0, # of connection points: 2
#     Edge 20, Type (0, 1), BuildingBlock: UVAHIK_clean_linker_0, # of connection points: 2
#     Edge 21, Type (0, 1), BuildingBlock: UVAHIK_clean_linker_0, # of connection points: 2
#     Edge 22, Type (0, 1), BuildingBlock: UVAHIK_clean_linker_0, # of connection points: 2
#     Edge 23, Type (0, 1), BuildingBlock: UVAHIK_clean_linker_0, # of connection points: 2
#     Edge 24, Type (0, 1), BuildingBlock: UVAHIK_clean_linker_0, # of connection points: 2
#     Edge 25, Type (0, 1), BuildingBlock: UVAHIK_clean_linker_0, # of connection points: 2
#     Edge 26, Type (0, 1), BuildingBlock: UVAHIK_clean_linker_0, # of connection points: 2
# Relax obj value: 0.165
# Max RMSD: 0.197
# Mean RMSD: 0.149
data_MOF--net-anh--node1-BETGAK_clean_sbu_0--node2-KAKCAD_clean_linker_0--edge1-UVAHIK_clean_linker_0
_symmetry_space_group_name_H-M    P1
_symmetry_Int_Tables_number       1
_symmetry_cell_setting            triclinic
loop_
_symmetry_equiv_pos_as_xyz
'x, y, z'
_cell_length_a     45.724255
_cell_length_b     52.391349
_cell_length_c     82.141467
_cell_angle_alpha  92.369061
_cell_angle_beta   89.665111
_cell_angle_gamma 126.9484
loop_
_atom_site_label
_atom_site_type_symbol
_atom_site_fract_x
_atom_site_fract_y
_atom_site_fract_z
_atom_type_partial_charge
La0 La 0.07756 0.51245 0.14895 0.0
La1 La 1.03579 0.53656 0.16056 0.0
C2 C 0.12277 0.50812 0.13438 0.0
C3 C 0.16173 0.52556 0.1385 0.0
C4 C 0.17444 0.53857 0.15443 0.0
C5 C 0.21104 0.55408 0.15882 0.0
C6 C 0.23563 0.55735 0.14726 0.0
C7 C 0.22331 0.54569 0.13111 0.0
C8 C 0.18642 0.52973 0.12676 0.0
C9 C 0.06813 0.51046 0.18059 0.0
C10 C 0.11933 0.58796 0.15777 0.0
C11 C 0.99203 0.54182 0.17611 0.0
C12 C 0.95471 0.51726 0.18161 0.0
C13 C 0.92784 0.49312 0.17065 0.0
C14 C 0.89391 0.46787 0.17621 0.0
C15 C 0.88599 0.46629 0.19284 0.0
C16 C 0.91246 0.49084 0.20379 0.0
C17 C 0.94668 0.51606 0.19822 0.0
C18 C 0.04724 0.539 0.12906 0.0
C19 C 0.99485 0.46157 0.15233 0.0
O20 O 0.10047 0.48812 0.14524 0.0
O21 O 0.11339 0.52578 0.12946 0.0
O22 O 0.0708 0.49062 0.17211 0.0
O23 O 0.07436 0.53205 0.17162 0.0
O24 O 0.11996 0.56473 0.15119 0.0
O25 O 0.08915 0.58223 0.1638 0.0
O26 O 0.99628 0.5449 0.16034 0.0
O27 O 1.01772 0.54193 0.18309 0.0
O28 O 1.04686 0.5603 0.1375 0.0
O29 O 1.03913 0.51682 0.13802 0.0
O30 O 0.99585 0.48409 0.16092 0.0
O31 O 1.02325 0.46846 0.14388 0.0
H32 H 0.15585 0.53613 0.16359 0.0
H33 H 0.22003 0.56299 0.17131 0.0
H34 H 0.24187 0.54775 0.12206 0.0
H35 H 0.17709 0.52018 0.11438 0.0
H36 H 0.93322 0.49327 0.15778 0.0
H37 H 0.87368 0.44967 0.16744 0.0
H38 H 0.90686 0.49029 0.21665 0.0
H39 H 0.96711 0.53432 0.2069 0.0
La40 La 0.59161 0.01695 0.48751 0.0
La41 La 0.54264 0.03574 0.48167 0.0
C42 C 0.62093 0.99238 0.49793 0.0
C43 C 0.61059 0.96025 0.50052 0.0
C44 C 0.6349 0.95345 0.49591 0.0
C45 C 0.62629 0.92342 0.49833 0.0
C46 C 0.5932 0.89955 0.50551 0.0
C47 C 0.5687 0.90632 0.51005 0.0
C48 C 0.57723 0.93638 0.5075 0.0
C49 C 0.58719 0.02856 0.45717 0.0
C50 C 0.50541 0.96329 0.48115 0.0
C51 C 0.51428 0.06153 0.47181 0.0
C52 C 0.52211 0.0929 0.47518 0.0
C53 C 0.54883 0.11456 0.48693 0.0
C54 C 0.55532 0.1439 0.49055 0.0
C55 C 0.53501 0.15204 0.48257 0.0
C56 C 0.50845 0.1303 0.47069 0.0
C57 C 0.50212 0.101 0.46702 0.0
C58 C 0.5486 0.02576 0.51224 0.0
C59 C 0.62957 0.08982 0.48709 0.0
O60 O 0.62194 0.99943 0.48276 0.0
O61 O 0.60624 1.00246 0.50736 0.0
O62 O 0.6167 0.03552 0.46408 0.0
O63 O 0.561 0.01396 0.46683 0.0
O64 O 0.5362 0.97109 0.48797 0.0
O65 O 0.50356 0.98524 0.47504 0.0
O66 O 0.50243 0.04301 0.48417 0.0
O67 O 0.53928 0.06168 0.46387 0.0
O68 O 0.51915 0.01948 0.50571 0.0
O69 O 0.57384 0.03936 0.50215 0.0
O70 O 0.59751 0.08194 0.48201 0.0
O71 O 0.63319 0.06807 0.49193 0.0
H72 H 0.66076 0.97153 0.49051 0.0
H73 H 0.64593 0.91911 0.49489 0.0
H74 H 0.54284 0.88831 0.51546 0.0
H75 H 0.55785 0.94095 0.51105 0.0
H76 H 0.56426 0.10855 0.49349 0.0
H77 H 0.5756 0.15985 0.49991 0.0
H78 H 0.49261 0.13598 0.46421 0.0
H79 H 0.48138 0.08454 0.45792 0.0
La80 La 0.60242 0.55447 0.84824 0.0
La81 La 0.55226 0.48392 0.85217 0.0
C82 C 0.63305 0.61029 0.8388 0.0
C83 C 0.62319 0.63175 0.83556 0.0
C84 C 0.64765 0.66415 0.84051 0.0
C85 C 0.63946 0.68529 0.83749 0.0
C86 C 0.60662 0.67445 0.82936 0.0
C87 C 0.58198 0.64186 0.82448 0.0
C88 C 0.59011 0.62064 0.82761 0.0
C89 C 0.59625 0.53644 0.87822 0.0
C90 C 0.51576 0.51871 0.85244 0.0
C91 C 0.52282 0.4279 0.86102 0.0
C92 C 0.52986 0.40428 0.85765 0.0
C93 C 0.55583 0.41003 0.84618 0.0
C94 C 0.56158 0.38705 0.84261 0.0
C95 C 0.54133 0.35781 0.85039 0.0
C96 C 0.51559 0.35237 0.86202 0.0
C97 C 0.50996 0.37544 0.86562 0.0
C98 C 0.5588 0.50145 0.82201 0.0
C99 C 0.63978 0.52025 0.84882 0.0
O100 O 0.63238 0.6037 0.85404 0.0
O101 O 0.61924 0.58511 0.8289 0.0
O102 O 0.62625 0.56094 0.87246 0.0
O103 O 0.57081 0.52436 0.86771 0.0
O104 O 0.54726 0.54333 0.84668 0.0
O105 O 0.51303 0.49389 0.85791 0.0
O106 O 0.5114 0.4346 0.84851 0.0
O107 O 0.54818 0.45369 0.86959 0.0
O108 O 0.52919 0.47669 0.82777 0.0
O109 O 0.58411 0.51382 0.83262 0.0
O110 O 0.607 0.49412 0.85244 0.0
O111 O 0.64414 0.5467 0.84505 0.0
H112 H 0.67331 0.67319 0.84665 0.0
H113 H 0.6592 0.71029 0.84122 0.0
H114 H 0.5563 0.63273 0.81834 0.0
H115 H 0.57065 0.59566 0.82377 0.0
H116 H 0.57129 0.43211 0.83982 0.0
H117 H 0.58126 0.39189 0.83346 0.0
H118 H 0.49987 0.3303 0.86838 0.0
H119 H 0.48985 0.37066 0.87452 0.0
C120 C 0.57828 0.05771 0.27424 0.0
C121 C 0.56933 0.03124 0.28271 0.0
C122 C 0.57786 0.05668 0.25721 0.0
C123 C 0.56905 0.0293 0.24825 0.0
C124 C 0.5604 1.00291 0.25682 0.0
C125 C 0.56026 1.00379 0.27385 0.0
C126 C 0.56855 0.02819 0.23006 0.0
C127 C 0.59395 0.05567 0.22156 0.0
C128 C 0.59292 0.05525 0.20443 0.0
C129 C 0.56642 0.02642 0.19568 0.0
C130 C 0.54125 0.99849 0.204 0.0
C131 C 0.54235 0.99973 0.22112 0.0
C132 C 0.51293 0.96778 0.19515 0.0
C133 C 0.48902 0.9659 0.18365 0.0
C134 C 0.50757 0.93953 0.19935 0.0
C135 C 0.4781 0.90988 0.19269 0.0
C136 C 0.45307 0.90773 0.18177 0.0
C137 C 0.6198 0.08523 0.19598 0.0
C138 C 0.62828 0.11444 0.20217 0.0
C139 C 0.63866 0.08535 0.18236 0.0
C140 C 0.66632 0.11422 0.17549 0.0
C141 C 0.67554 0.14356 0.18204 0.0
C142 C 0.65578 0.14317 0.19533 0.0
C143 C 0.45918 0.93611 0.1771 0.0
H144 H 0.58505 0.07906 0.28081 0.0
H145 H 0.58393 0.07722 0.25109 0.0
H146 H 0.55417 0.98164 0.2504 0.0
H147 H 0.5537 0.98319 0.28011 0.0
H148 H 0.61514 0.07748 0.2283 0.0
H149 H 0.52194 0.97851 0.22747 0.0
H150 H 0.56529 0.0257 0.18248 0.0
H151 H 0.49244 0.98731 0.18028 0.0
H152 H 0.5257 0.94033 0.20815 0.0
H153 H 0.47403 0.8885 0.19665 0.0
H154 H 0.61396 0.11517 0.21252 0.0
H155 H 0.63287 0.06325 0.17734 0.0
H156 H 0.44052 0.93522 0.16861 0.0
H157 H 0.6623 0.16522 0.20085 0.0
H158 H 0.68069 0.11359 0.16514 0.0
C159 C 0.55562 0.53575 0.64 0.0
C160 C 0.58075 0.53353 0.64831 0.0
C161 C 0.55495 0.53561 0.623 0.0
C162 C 0.57935 0.53317 0.61388 0.0
C163 C 0.6047 0.53121 0.62218 0.0
C164 C 0.60546 0.53146 0.63921 0.0
C165 C 0.5781 0.53243 0.59577 0.0
C166 C 0.57372 0.55304 0.58769 0.0
C167 C 0.572 0.55229 0.5706 0.0
C168 C 0.5748 0.53055 0.56148 0.0
C169 C 0.57896 0.5095 0.56936 0.0
C170 C 0.58068 0.51075 0.5865 0.0
C171 C 0.58029 0.48536 0.55991 0.0
C172 C 0.55578 0.46722 0.54674 0.0
C173 C 0.60474 0.47898 0.56462 0.0
C174 C 0.60384 0.45434 0.55677 0.0
C175 C 0.57845 0.43541 0.544 0.0
C176 C 0.56749 0.57458 0.56249 0.0
C177 C 0.54102 0.57832 0.56791 0.0
C178 C 0.59085 0.59358 0.55003 0.0
C179 C 0.5888 0.61684 0.54362 0.0
C180 C 0.56309 0.62136 0.54944 0.0
C181 C 0.53871 0.60128 0.56141 0.0
C182 C 0.55486 0.44251 0.53887 0.0
H183 H 0.53647 0.53769 0.64666 0.0
H184 H 0.53488 0.53688 0.61697 0.0
H185 H 0.6241 0.52962 0.6155 0.0
H186 H 0.62494 0.52943 0.64523 0.0
H187 H 0.57241 0.57028 0.59474 0.0
H188 H 0.58279 0.49402 0.59269 0.0
H189 H 0.57351 0.5299 0.54828 0.0
H190 H 0.53633 0.47131 0.54291 0.0
H191 H 0.62443 0.4929 0.57452 0.0
H192 H 0.62293 0.44997 0.5608 0.0
H193 H 0.52228 0.56363 0.57733 0.0
H194 H 0.61168 0.59133 0.54571 0.0
H195 H 0.53476 0.42823 0.52916 0.0
H196 H 0.51796 0.60346 0.5659 0.0
H197 H 0.60825 0.63202 0.53453 0.0
C198 C 0.11306 0.55329 0.94629 0.0
C199 C 0.0815 0.53038 0.95472 0.0
C200 C 0.11315 0.55164 0.92923 0.0
C201 C 0.08152 0.52731 0.92028 0.0
C202 C 0.05 0.50442 0.92872 0.0
C203 C 0.05006 0.50583 0.94575 0.0
C204 C 0.08106 0.52592 0.90219 0.0
C205 C 0.10921 0.52843 0.89364 0.0
C206 C 0.10857 0.52611 0.87652 0.0
C207 C 0.07894 0.52185 0.86779 0.0
C208 C 0.05037 0.51966 0.87637 0.0
C209 C 0.05203 0.52161 0.89349 0.0
C210 C 1.01794 0.51525 0.8684 0.0
C211 C 1.02191 0.53895 0.85896 0.0
C212 C 0.98242 0.49026 0.87319 0.0
C213 C 0.95221 0.48992 0.86957 0.0
C214 C 0.95627 0.51459 0.86101 0.0
C215 C 0.13936 0.52772 0.86867 0.0
C216 C 0.17552 0.55556 0.87106 0.0
C217 C 0.1342 0.49991 0.86227 0.0
C218 C 0.1644 0.49961 0.85907 0.0
C219 C 0.20073 0.52715 0.86223 0.0
C220 C 0.20562 0.55537 0.86779 0.0
C221 C 0.99145 0.53857 0.85526 0.0
H222 H 0.13775 0.57235 0.95289 0.0
H223 H 0.13775 0.56968 0.92303 0.0
H224 H 1.02532 0.48527 0.92214 0.0
H225 H 1.02525 0.48799 0.9519 0.0
H226 H 0.13141 0.53131 0.90041 0.0
H227 H 1.03067 0.5203 0.90018 0.0
H228 H 0.07804 0.52009 0.85459 0.0
H229 H 0.04888 0.55887 0.85533 0.0
H230 H 0.97829 0.47168 0.88054 0.0
H231 H 0.92566 0.4706 0.8739 0.0
H232 H 0.18052 0.57726 0.87623 0.0
H233 H 0.10677 0.47782 0.86071 0.0
H234 H 0.99588 0.55804 0.84866 0.0
H235 H 0.23284 0.57735 0.87004 0.0
H236 H 0.15907 0.47726 0.85494 0.0
C237 C 1.0268 0.50763 0.36436 0.0
C238 C 0.05701 0.51372 0.35587 0.0
C239 C 1.02703 0.50854 0.38139 0.0
C240 C 0.05776 0.51617 0.39022 0.0
C241 C 0.08799 0.52231 0.38174 0.0
C242 C 0.08747 0.52078 0.36471 0.0
C243 C 0.05866 0.51856 0.40826 0.0
C244 C 1.03037 0.49335 0.41709 0.0
C245 C 1.03077 0.49555 0.43423 0.0
C246 C 0.06008 0.52381 0.44252 0.0
C247 C 0.08821 0.54971 0.43372 0.0
C248 C 0.08751 0.54647 0.41662 0.0
C249 C 0.11785 0.58086 0.44196 0.0
C250 C 0.12812 0.60952 0.43546 0.0
C251 C 0.13736 0.58248 0.45563 0.0
C252 C 0.16741 0.6122 0.46223 0.0
C253 C 0.1783 0.64086 0.45538 0.0
C254 C 1.00006 0.46814 0.44313 0.0
C255 C 0.96381 0.45227 0.43745 0.0
C256 C 1.00664 0.45618 0.45649 0.0
C257 C 0.9777 0.42814 0.46356 0.0
C258 C 0.94154 0.41165 0.45748 0.0
C259 C 0.93499 0.42443 0.4445 0.0
C260 C 0.15792 0.63904 0.44203 0.0
H261 H 1.00295 0.50199 0.35779 0.0
H262 H 1.0035 0.5039 0.38769 0.0
H263 H 0.11194 0.52817 0.38831 0.0
H264 H 0.11116 0.52572 0.35842 0.0
H265 H 1.0083 0.47165 0.41055 0.0
H266 H 0.10924 0.56601 0.40971 0.0
H267 H 0.06021 0.52608 0.4557 0.0
H268 H 0.11337 0.60914 0.42507 0.0
H269 H 0.13013 0.5608 0.46089 0.0
H270 H 0.18224 0.61272 0.47263 0.0
H271 H 0.95775 0.46106 0.42729 0.0
H272 H 1.03429 0.46783 0.4611 0.0
H273 H 0.16562 0.66045 0.43627 0.0
H274 H 0.90767 0.41231 0.43936 0.0
H275 H 0.98368 0.41918 0.47365 0.0
C276 C 0.55073 0.99091 0.69396 0.0
C277 C 0.57547 0.01951 0.68608 0.0
C278 C 0.55054 0.9905 0.71096 0.0
C279 C 0.57501 0.0187 0.7205 0.0
C280 C 0.59967 0.04733 0.71265 0.0
C281 C 0.59995 0.04772 0.69564 0.0
C282 C 0.57492 0.01818 0.73858 0.0
C283 C 0.57222 0.99348 0.74631 0.0
C284 C 0.57222 0.99274 0.76339 0.0
C285 C 0.57494 0.01716 0.77281 0.0
C286 C 0.57737 0.04201 0.76526 0.0
C287 C 0.57743 0.04229 0.74814 0.0
C288 C 0.57882 0.06731 0.77507 0.0
C289 C 0.55567 0.05946 0.78834 0.0
C290 C 0.60209 0.09935 0.77069 0.0
C291 C 0.60147 0.1228 0.77904 0.0
C292 C 0.57757 0.11484 0.792 0.0
C293 C 0.5698 0.96645 0.77116 0.0
C294 C 0.54401 0.93465 0.76535 0.0
C295 C 0.59444 0.97301 0.78373 0.0
C296 C 0.5942 0.94837 0.78992 0.0
C297 C 0.56911 0.91661 0.78375 0.0
C298 C 0.54355 0.91003 0.77161 0.0
C299 C 0.55501 0.08295 0.79669 0.0
H300 H 0.53105 0.96886 0.687 0.0
H301 H 0.53085 0.96815 0.71666 0.0
H302 H 0.61919 0.06936 0.71966 0.0
H303 H 0.61974 0.07008 0.68998 0.0
H304 H 0.57104 0.97515 0.73901 0.0
H305 H 0.57834 0.06084 0.74219 0.0
H306 H 0.57501 0.01672 0.78599 0.0
H307 H 0.53723 0.03498 0.79196 0.0
H308 H 0.62057 0.10627 0.76065 0.0
H309 H 0.61899 0.14703 0.77499 0.0
H310 H 0.52431 0.92883 0.75583 0.0
H311 H 0.6148 0.99734 0.78835 0.0
H312 H 0.5366 0.07606 0.80674 0.0
H313 H 0.52324 0.88582 0.76684 0.0
H314 H 0.61453 0.95442 0.79914 0.0
C315 C 0.54482 0.42132 0.05133 0.0
C316 C 0.56307 0.45162 0.04477 0.0
C317 C 0.53883 0.41775 0.0681 0.0
C318 C 0.55051 0.44435 0.07852 0.0
C319 C 0.56953 0.4747 0.07201 0.0
C320 C 0.57585 0.47831 0.05534 0.0
C321 C 0.5412 0.44055 0.096 0.0
C322 C 0.54901 0.42411 0.10599 0.0
C323 C 0.54129 0.42172 0.12275 0.0
C324 C 0.52509 0.43574 0.12917 0.0
C325 C 0.51834 0.4532 0.11949 0.0
C326 C 0.52572 0.45479 0.10282 0.0
C327 C 0.50606 0.47157 0.12704 0.0
C328 C 0.48282 0.46016 0.14046 0.0
C329 C 0.5191 0.50161 0.12137 0.0
C330 C 0.50887 0.51952 0.12876 0.0
C331 C 0.48608 0.50835 0.14233 0.0
C332 C 0.55236 0.40679 0.13388 0.0
C333 C 0.5545 0.3822 0.12827 0.0
C334 C 0.56194 0.41781 0.15031 0.0
C335 C 0.57329 0.40489 0.16072 0.0
C336 C 0.57758 0.38174 0.15491 0.0
C337 C 0.56743 0.37016 0.13858 0.0
C338 C 0.47345 0.4785 0.14816 0.0
H339 H 0.53489 0.40037 0.04347 0.0
H340 H 0.52402 0.3941 0.07284 0.0
H341 H 0.57908 0.49564 0.07981 0.0
H342 H 0.58968 0.50191 0.05065 0.0
H343 H 0.56256 0.41453 0.10076 0.0
H344 H 0.51944 0.46718 0.09503 0.0
H345 H 0.51869 0.43396 0.14194 0.0
H346 H 0.47168 0.43697 0.14508 0.0
H347 H 0.53766 0.51165 0.1113 0.0
H348 H 0.51857 0.54196 0.1236 0.0
H349 H 0.54673 0.37246 0.11585 0.0
H350 H 0.56188 0.43723 0.15526 0.0
H351 H 0.45628 0.46914 0.1587 0.0
H352 H 0.57055 0.35254 0.13352 0.0
H353 H 0.57963 0.41387 0.17329 0.0
C354 C 0.30367 0.59398 0.14431 0.0
C355 C 0.27289 0.56954 0.15248 0.0
C356 C 0.33833 0.60246 0.14814 0.0
C357 C 0.38658 0.58212 0.17589 0.0
H358 H 0.43653 0.58908 0.13614 0.0
C359 C 0.43872 0.51105 0.15614 0.0
C360 C 0.474 0.52697 0.14975 0.0
C361 C 0.42562 0.52807 0.16128 0.0
C362 C 0.42356 0.588 0.14744 0.0
H363 H 0.25389 0.53564 0.1714 0.0
H364 H 0.31331 0.54874 0.17743 0.0
H365 H 0.391 0.59873 0.13578 0.0
H366 H 0.52411 0.5739 0.1451 0.0
H367 H 0.49974 0.60317 0.15292 0.0
H368 H 0.41644 0.56739 0.18684 0.0
C369 C 0.3117 0.5626 0.16857 0.0
C370 C 0.39741 0.59365 0.1473 0.0
C371 C 0.27737 0.55474 0.16501 0.0
C372 C 0.49643 0.56062 0.14946 0.0
C373 C 0.48284 0.57754 0.15418 0.0
C374 C 0.41204 0.57559 0.17587 0.0
C375 C 0.34257 0.58592 0.15986 0.0
C376 C 0.3771 0.58907 0.1613 0.0
C377 C 0.4471 0.56125 0.15982 0.0
C378 C 0.42945 0.57716 0.16145 0.0
H379 H 0.30076 0.60597 0.13473 0.0
H380 H 0.3615 0.62108 0.14144 0.0
H381 H 0.37255 0.57952 0.18706 0.0
H382 H 0.42024 0.48525 0.15636 0.0
H383 H 0.39765 0.51499 0.16532 0.0
C384 C 0.69767 0.13279 0.48898 0.0
C385 C 0.66207 0.12389 0.48699 0.0
C386 C 0.7283 0.16465 0.48754 0.0
C387 C 0.75522 0.2397 0.46954 0.0
H388 H 0.84425 0.27855 0.49548 0.0
C389 C 0.87577 0.37289 0.46546 0.0
C390 C 0.91083 0.38047 0.46396 0.0
C391 C 0.84601 0.34245 0.46981 0.0
C392 C 0.81965 0.26795 0.48807 0.0
H393 H 0.63087 0.14189 0.48255 0.0
H394 H 0.68392 0.19723 0.4805 0.0
H395 H 0.79112 0.22391 0.50031 0.0
H396 H 0.94209 0.36198 0.46642 0.0
H397 H 0.89017 0.30894 0.47419 0.0
H398 H 0.78362 0.28364 0.45733 0.0
C399 C 0.68837 0.17957 0.48273 0.0
C400 C 0.78918 0.23659 0.49082 0.0
C401 C 0.65784 0.14776 0.48404 0.0
C402 C 0.91561 0.35716 0.46762 0.0
C403 C 0.8858 0.32668 0.47204 0.0
C404 C 0.78552 0.27103 0.46688 0.0
C405 C 0.72406 0.18841 0.48417 0.0
C406 C 0.75653 0.22202 0.48157 0.0
C407 C 0.85049 0.31876 0.47286 0.0
C408 C 0.81814 0.28558 0.47609 0.0
H409 H 0.70196 0.11501 0.49119 0.0
H410 H 0.75529 0.17042 0.48857 0.0
H411 H 0.73096 0.22915 0.4619 0.0
H412 H 0.87117 0.39042 0.46307 0.0
H413 H 0.81934 0.33737 0.47066 0.0
C414 C 0.60596 0.72087 0.83749 0.0
C415 C 0.59871 0.69735 0.82572 0.0
C416 C 0.60032 0.74345 0.83381 0.0
C417 C 0.55388 0.76054 0.80394 0.0
H418 H 0.62595 0.84829 0.81986 0.0
C419 C 0.56431 0.8666 0.77832 0.0
C420 C 0.57038 0.89061 0.78943 0.0
C421 C 0.56593 0.84238 0.78347 0.0
C422 C 0.60535 0.82383 0.81549 0.0
H423 H 0.57971 0.67905 0.80088 0.0
H424 H 0.5703 0.71865 0.79436 0.0
H425 H 0.63192 0.80709 0.82743 0.0
H426 H 0.58257 0.90757 0.8148 0.0
H427 H 0.58594 0.86548 0.82373 0.0
H428 H 0.52781 0.77755 0.79171 0.0
C429 C 0.57968 0.71932 0.80656 0.0
C430 C 0.6087 0.80015 0.81985 0.0
C431 C 0.58512 0.69661 0.81028 0.0
C432 C 0.57822 0.88976 0.80586 0.0
C433 C 0.58008 0.8656 0.81099 0.0
C434 C 0.55066 0.78426 0.79951 0.0
C435 C 0.58748 0.74321 0.81824 0.0
C436 C 0.58313 0.76821 0.81406 0.0
C437 C 0.57393 0.84163 0.79985 0.0
C438 C 0.57649 0.81621 0.80514 0.0
H439 H 0.61594 0.72177 0.84959 0.0
H440 H 0.60594 0.76107 0.84322 0.0
H441 H 0.53329 0.73614 0.79949 0.0
H442 H 0.55902 0.86681 0.76551 0.0
H443 H 0.56169 0.8246 0.77452 0.0
C444 C 0.83215 0.40846 0.19242 0.0
C445 C 0.84908 0.44011 0.19827 0.0
C446 C 0.79465 0.38511 0.19433 0.0
C447 C 0.71784 0.35796 0.18384 0.0
H448 H 0.66098 0.36799 0.21492 0.0
C449 C 0.62273 0.39447 0.17703 0.0
C450 C 0.59561 0.37215 0.16549 0.0
C451 C 0.64237 0.38719 0.18595 0.0
C452 C 0.67611 0.36412 0.20629 0.0
H453 H 0.84116 0.4715 0.2121 0.0
H454 H 0.77593 0.43139 0.21509 0.0
H455 H 0.7209 0.38316 0.22318 0.0
H456 H 0.56697 0.32373 0.15503 0.0
H457 H 0.60351 0.31197 0.16996 0.0
H458 H 0.6742 0.34112 0.16665 0.0
C459 C 0.79127 0.42407 0.20926 0.0
C460 C 0.71052 0.37302 0.21096 0.0
C461 C 0.82877 0.44728 0.20747 0.0
C462 C 0.58803 0.34181 0.16355 0.0
C463 C 0.60852 0.33481 0.17225 0.0
C464 C 0.68329 0.34875 0.17924 0.0
C465 C 0.77338 0.39315 0.20195 0.0
C466 C 0.73296 0.37247 0.19938 0.0
C467 C 0.63624 0.3577 0.18335 0.0
C468 C 0.66346 0.35412 0.19006 0.0
H469 H 0.84751 0.40221 0.18557 0.0
H470 H 0.78194 0.36137 0.18888 0.0
H471 H 0.73413 0.35704 0.17456 0.0
H472 H 0.6305 0.41843 0.17866 0.0
H473 H 0.66429 0.40567 0.19407 0.0
C474 C 0.43837 0.9213 0.47539 0.0
C475 C 0.4726 0.92932 0.48007 0.0
C476 C 0.40719 0.88943 0.47458 0.0
C477 C 0.37688 0.80685 0.46943 0.0
H478 H 0.28582 0.78551 0.48658 0.0
C479 C 0.24379 0.67664 0.46589 0.0
C480 C 0.21147 0.67261 0.46154 0.0
C481 C 0.27591 0.70711 0.47009 0.0
C482 C 0.31089 0.79102 0.48158 0.0
H483 H 0.50083 0.90992 0.4875 0.0
H484 H 0.44629 0.85412 0.48588 0.0
H485 H 0.34143 0.84025 0.48974 0.0
H486 H 0.18734 0.69746 0.45906 0.0
H487 H 0.24321 0.75033 0.46583 0.0
H488 H 0.34624 0.75792 0.46079 0.0
C489 C 0.4437 0.87263 0.48286 0.0
C490 C 0.34281 0.82244 0.48344 0.0
C491 C 0.47491 0.90461 0.48384 0.0
C492 C 0.21181 0.69966 0.46208 0.0
C493 C 0.24387 0.73005 0.46619 0.0
C494 C 0.34485 0.77543 0.46743 0.0
C495 C 0.40944 0.8647 0.4783 0.0
C496 C 0.37609 0.83083 0.47721 0.0
C497 C 0.27655 0.73432 0.47004 0.0
C498 C 0.31127 0.76716 0.47329 0.0
H499 H 0.43552 0.93967 0.47242 0.0
H500 H 0.38131 0.88411 0.47083 0.0
H501 H 0.40202 0.8126 0.46438 0.0
H502 H 0.24466 0.65642 0.46552 0.0
H503 H 0.30035 0.70934 0.47322 0.0
C504 C 0.51596 0.30046 0.84422 0.0
C505 C 0.54637 0.33282 0.84607 0.0
C506 C 0.5205 0.27707 0.8396 0.0
C507 C 0.58534 0.26691 0.81915 0.0
H508 H 0.52597 0.18347 0.83771 0.0
C509 C 0.60693 0.17092 0.80329 0.0
C510 C 0.57523 0.13951 0.80011 0.0
C511 C 0.60446 0.19453 0.80999 0.0
C512 C 0.54256 0.20657 0.83231 0.0
H513 H 0.60553 0.36578 0.84496 0.0
H514 H 0.61347 0.32496 0.83694 0.0
H515 H 0.51983 0.22467 0.84739 0.0
H516 H 0.51604 0.10837 0.80159 0.0
H517 H 0.51176 0.14947 0.81331 0.0
H518 H 0.60787 0.24877 0.80399 0.0
C519 C 0.58603 0.31774 0.83879 0.0
C520 C 0.53903 0.23019 0.83786 0.0
C521 C 0.58148 0.34115 0.8434 0.0
C522 C 0.54107 0.13217 0.80411 0.0
C523 C 0.5386 0.15577 0.81082 0.0
C524 C 0.5889 0.24331 0.81362 0.0
C525 C 0.55557 0.28542 0.83674 0.0
C526 C 0.56022 0.2606 0.83127 0.0
C527 C 0.57023 0.18733 0.81369 0.0
C528 C 0.56739 0.21278 0.82006 0.0
H529 H 0.48849 0.29326 0.84593 0.0
H530 H 0.49639 0.2525 0.83788 0.0
H531 H 0.60168 0.28987 0.81362 0.0
H532 H 0.63373 0.1773 0.8006 0.0
H533 H 0.62942 0.21846 0.8123 0.0
C534 C 0.57133 0.85408 0.52366 0.0
C535 C 0.58497 0.86809 0.50859 0.0
C536 C 0.56598 0.82558 0.52697 0.0
C537 C 0.59589 0.77622 0.51365 0.0
H538 H 0.5162 0.71326 0.54037 0.0
C539 C 0.56942 0.65626 0.52725 0.0
C540 C 0.56263 0.64772 0.54362 0.0
C541 C 0.56993 0.68164 0.52204 0.0
C542 C 0.5387 0.73071 0.53295 0.0
H543 H 0.60217 0.86245 0.48493 0.0
H544 H 0.59226 0.81247 0.49057 0.0
H545 H 0.52037 0.75988 0.53282 0.0
H546 H 0.55159 0.65975 0.56733 0.0
H547 H 0.55187 0.70343 0.55817 0.0
H548 H 0.61415 0.74695 0.5138 0.0
C549 C 0.58658 0.82389 0.50001 0.0
C550 C 0.54116 0.75749 0.52866 0.0
C551 C 0.59216 0.85249 0.49675 0.0
C552 C 0.5561 0.66508 0.55457 0.0
C553 C 0.55634 0.69023 0.54933 0.0
C554 C 0.59327 0.74932 0.51786 0.0
C555 C 0.57388 0.81025 0.51525 0.0
C556 C 0.57004 0.78081 0.5191 0.0
C557 C 0.56342 0.69891 0.53303 0.0
C558 C 0.56489 0.72645 0.52771 0.0
H559 H 0.56595 0.86571 0.5331 0.0
H560 H 0.55669 0.8161 0.53892 0.0
H561 H 0.61884 0.79387 0.5065 0.0
H562 H 0.57408 0.6432 0.51842 0.0
H563 H 0.57511 0.68757 0.50935 0.0
C564 C 0.70823 0.54776 0.84761 0.0
C565 C 0.67228 0.5196 0.84895 0.0
C566 C 0.73869 0.54727 0.84833 0.0
C567 C 0.76648 0.49588 0.86097 0.0
H568 H 0.8548 0.55698 0.83794 0.0
C569 C 0.89981 0.50754 0.87185 0.0
C570 C 0.92429 0.51588 0.85902 0.0
C571 C 0.86974 0.5083 0.87023 0.0
C572 C 0.83034 0.53943 0.84436 0.0
H573 H 0.64078 0.46856 0.85182 0.0
H574 H 0.69322 0.46745 0.85257 0.0
H575 H 0.80175 0.55695 0.83538 0.0
H576 H 0.93564 0.53183 0.83433 0.0
H577 H 0.88295 0.53257 0.83134 0.0
H578 H 0.79445 0.47759 0.86949 0.0
C579 C 0.69827 0.49029 0.85139 0.0
C580 C 0.79978 0.53972 0.84308 0.0
C581 C 0.66787 0.49085 0.85082 0.0
C582 C 0.91771 0.52539 0.84454 0.0
C583 C 0.88733 0.5259 0.84286 0.0
C584 C 0.79689 0.49545 0.86216 0.0
C585 C 0.7344 0.51853 0.85029 0.0
C586 C 0.76721 0.51802 0.85142 0.0
C587 C 0.86259 0.51721 0.85567 0.0
C588 C 0.8296 0.51734 0.85398 0.0
H589 H 0.71299 0.57046 0.84627 0.0
H590 H 0.76573 0.56972 0.84767 0.0
H591 H 0.74249 0.47895 0.86782 0.0
H592 H 0.90418 0.50083 0.88336 0.0
H593 H 0.85238 0.50227 0.88062 0.0
C594 C 0.1537 0.64697 0.16374 0.0
C595 C 0.15388 0.621 0.15892 0.0
C596 C 0.18633 0.67811 0.16481 0.0
C597 C 0.28595 0.72288 0.17021 0.0
H598 H 0.29016 0.79346 0.15398 0.0
C599 C 0.42133 0.85067 0.17166 0.0
C600 C 0.41953 0.87583 0.17625 0.0
C601 C 0.38938 0.81988 0.16803 0.0
C602 C 0.28941 0.7741 0.15873 0.0
H603 H 0.18869 0.60751 0.15144 0.0
H604 H 0.24552 0.66177 0.15341 0.0
H605 H 0.23347 0.73918 0.15094 0.0
H606 H 0.38273 0.88845 0.1804 0.0
H607 H 0.32701 0.83478 0.17429 0.0
H608 H 0.34147 0.75766 0.17835 0.0
C609 C 0.22013 0.65802 0.1564 0.0
C610 C 0.25689 0.74297 0.15697 0.0
C611 C 0.18748 0.62692 0.15519 0.0
C612 C 0.38509 0.86969 0.17668 0.0
C613 C 0.35311 0.83885 0.17317 0.0
C614 C 0.31838 0.75401 0.17208 0.0
C615 C 0.21995 0.68399 0.16122 0.0
C616 C 0.25474 0.71702 0.16274 0.0
C617 C 0.35476 0.8134 0.16903 0.0
C618 C 0.32054 0.78009 0.16643 0.0
H619 H 0.12833 0.64331 0.16667 0.0
H620 H 0.18531 0.69756 0.16873 0.0
H621 H 0.28506 0.70347 0.17499 0.0
H622 H 0.4475 0.85474 0.17102 0.0
H623 H 0.39184 0.8011 0.16454 0.0
C624 C 0.57633 0.21106 0.48989 0.0
C625 C 0.54083 0.18266 0.487 0.0
C626 C 0.58167 0.23951 0.49479 0.0
C627 C 0.53555 0.27861 0.49692 0.0
H628 H 0.60861 0.33218 0.53093 0.0
C629 C 0.57014 0.40049 0.51964 0.0
C630 C 0.57568 0.4076 0.53655 0.0
C631 C 0.56711 0.37403 0.5128 0.0
C632 C 0.58795 0.31743 0.52148 0.0
H633 H 0.48311 0.16198 0.48695 0.0
H634 H 0.49238 0.21148 0.49559 0.0
H635 H 0.60051 0.28413 0.52044 0.0
H636 H 0.58152 0.39192 0.55953 0.0
H637 H 0.57615 0.34593 0.54766 0.0
H638 H 0.52222 0.31144 0.49836 0.0
C639 C 0.51617 0.21194 0.4938 0.0
C640 C 0.58362 0.29005 0.51531 0.0
C641 C 0.51084 0.18352 0.48886 0.0
C642 C 0.57802 0.38756 0.54643 0.0
C643 C 0.57494 0.36115 0.53961 0.0
C644 C 0.53987 0.30602 0.50311 0.0
C645 C 0.55164 0.24026 0.49697 0.0
C646 C 0.55719 0.27014 0.50303 0.0
C647 C 0.56949 0.35403 0.52271 0.0
C648 C 0.56591 0.32562 0.51557 0.0
H649 H 0.60005 0.21134 0.48833 0.0
H650 H 0.6094 0.26097 0.49684 0.0
H651 H 0.51522 0.26405 0.48733 0.0
H652 H 0.56859 0.41561 0.51167 0.0
H653 H 0.56336 0.36949 0.49972 0.0
C654 C 0.48595 0.54617 0.84807 0.0
C655 C 0.48336 0.51951 0.85315 0.0
C656 C 0.45565 0.54692 0.8487 0.0
C657 C 0.35298 0.49411 0.85181 0.0
H658 H 0.3683 0.5739 0.86322 0.0
C659 C 0.23392 0.50661 0.84856 0.0
C660 C 0.2332 0.52624 0.86059 0.0
C661 C 0.26409 0.50568 0.84733 0.0
C662 C 0.36327 0.55126 0.86011 0.0
H663 H 0.44601 0.47259 0.86289 0.0
H664 H 0.39359 0.47395 0.86409 0.0
H665 H 0.42048 0.57236 0.86206 0.0
H666 H 0.26437 0.55964 0.8811 0.0
H667 H 0.31637 0.55821 0.87886 0.0
H668 H 0.29565 0.47291 0.85014 0.0
C669 C 0.41898 0.49428 0.85942 0.0
C670 C 0.3935 0.55047 0.85924 0.0
C671 C 0.44932 0.49358 0.85884 0.0
C672 C 0.26382 0.54477 0.87136 0.0
C673 C 0.29393 0.54391 0.8701 0.0
C674 C 0.32273 0.49494 0.85261 0.0
C675 C 0.42153 0.52098 0.85438 0.0
C676 C 0.38899 0.52185 0.85513 0.0
C677 C 0.29474 0.52437 0.85807 0.0
C678 C 0.32725 0.52351 0.85685 0.0
H679 H 0.51148 0.56663 0.84355 0.0
H680 H 0.45895 0.5678 0.84447 0.0
H681 H 0.34805 0.47161 0.84841 0.0
H682 H 0.21135 0.49218 0.83987 0.0
H683 H 0.26355 0.49059 0.83774 0.0
C684 C 0.96215 0.40216 0.14911 0.0
C685 C 0.96116 0.42816 0.15245 0.0
C686 C 0.93064 0.37072 0.15067 0.0
C687 C 0.84054 0.32574 0.17093 0.0
H688 H 0.81895 0.25448 0.14307 0.0
C689 C 0.70435 0.20023 0.17483 0.0
C690 C 0.70657 0.17466 0.17564 0.0
C691 C 0.73468 0.23042 0.17052 0.0
C692 C 0.82476 0.27414 0.151 0.0
H693 H 0.92598 0.44142 0.15909 0.0
H694 H 0.87107 0.38708 0.1613 0.0
H695 H 0.87318 0.3086 0.13819 0.0
H696 H 0.74237 0.16078 0.17197 0.0
H697 H 0.79518 0.21345 0.16423 0.0
H698 H 0.79208 0.2914 0.18364 0.0
C699 C 0.8963 0.39073 0.1581 0.0
C700 C 0.85591 0.30517 0.14824 0.0
C701 C 0.92779 0.422 0.15674 0.0
C702 C 0.7395 0.17978 0.17132 0.0
C703 C 0.76984 0.21001 0.16691 0.0
C704 C 0.80936 0.29485 0.17358 0.0
C705 C 0.89738 0.36461 0.15544 0.0
C706 C 0.86421 0.33142 0.15817 0.0
C707 C 0.76799 0.23584 0.16681 0.0
C708 C 0.80104 0.26867 0.16366 0.0
H709 H 0.98753 0.40614 0.14583 0.0
H710 H 0.93269 0.3513 0.14864 0.0
H711 H 0.84636 0.34511 0.1791 0.0
H712 H 0.67923 0.19704 0.17771 0.0
H713 H 0.73214 0.24967 0.17025 0.0
C714 C 0.04698 0.51222 0.10316 0.0
C715 C 0.05325 0.5392 0.11138 0.0
C716 C 0.05162 0.51189 0.08634 0.0
C717 C 0.09767 0.56371 0.05189 0.0
H718 H 1.02085 0.48944 0.02582 0.0
C719 C 0.09475 0.56124 0.98133 0.0
C720 C 0.08104 0.53216 0.9728 0.0
C721 C 0.09269 0.56255 0.99832 0.0
C722 C 1.0429 0.51017 0.0329 0.0
H723 H 0.07004 0.5872 0.10863 0.0
H724 H 0.07851 0.58676 0.07916 0.0
H725 H 1.01525 0.49094 0.05527 0.0
H726 H 0.05567 0.48192 0.97539 0.0
H727 H 0.05289 0.48426 0.005 0.0
H728 H 0.12566 0.58279 0.02959 0.0
C729 C 0.06994 0.56588 0.08573 0.0
C730 C 1.03957 0.51105 0.0498 0.0
C731 C 0.06492 0.56607 0.10255 0.0
C732 C 0.06597 0.50458 0.98163 0.0
C733 C 0.06425 0.50594 0.9986 0.0
C734 C 0.1012 0.56271 0.03498 0.0
C735 C 0.063 0.53865 0.07742 0.0
C736 C 0.06686 0.53783 0.05948 0.0
C737 C 0.07719 0.53486 0.00719 0.0
C738 C 0.07382 0.53593 0.02524 0.0
H739 H 1.03811 0.49122 0.10969 0.0
H740 H 1.04647 0.49072 0.08031 0.0
H741 H 0.11933 0.58453 0.05907 0.0
H742 H 0.10617 0.58282 0.97483 0.0
H743 H 0.10244 0.58515 0.00443 0.0
C744 C 0.61526 0.0529 0.43086 0.0
C745 C 0.58376 0.0318 0.4397 0.0
C746 C 0.61282 0.05461 0.41406 0.0
C747 C 0.54653 0.02979 0.37952 0.0
H748 H 0.62598 0.04304 0.35407 0.0
C749 C 0.54004 0.00748 0.30925 0.0
C750 C 0.56988 0.03238 0.30076 0.0
C751 C 0.54082 0.00845 0.3263 0.0
C752 C 0.60373 0.03955 0.36104 0.0
H753 H 0.52487 0.99642 0.43815 0.0
H754 H 0.52057 0.99828 0.40866 0.0
H755 H 0.62871 0.04258 0.3836 0.0
H756 H 0.62391 0.07765 0.30332 0.0
H757 H 0.6256 0.07899 0.33315 0.0
H758 H 0.52107 0.0255 0.35666 0.0
C759 C 0.54716 0.01419 0.41467 0.0
C760 C 0.60533 0.03948 0.378 0.0
C761 C 0.54957 0.01295 0.43156 0.0
C762 C 0.60049 0.05825 0.30959 0.0
C763 C 0.60153 0.05893 0.32661 0.0
C764 C 0.54468 0.02932 0.3625 0.0
C765 C 0.57886 0.03475 0.40564 0.0
C766 C 0.57688 0.03481 0.38752 0.0
C767 C 0.57172 0.03403 0.33511 0.0
C768 C 0.57337 0.03438 0.35313 0.0
H769 H 0.6419 0.06799 0.43693 0.0
H770 H 0.63772 0.07142 0.40769 0.0
H771 H 0.52433 0.02657 0.38638 0.0
H772 H 0.51605 0.98737 0.3027 0.0
H773 H 0.5176 0.98888 0.33258 0.0
C774 C 0.53243 0.49307 0.79424 0.0
C775 C 0.5634 0.50878 0.80463 0.0
C776 C 0.53613 0.4978 0.77755 0.0
C777 C 0.59964 0.5511 0.74606 0.0
H778 H 0.53655 0.4753 0.71774 0.0
C779 C 0.61338 0.54963 0.67562 0.0
C780 C 0.58049 0.5325 0.66638 0.0
C781 C 0.61288 0.54811 0.69261 0.0
C782 C 0.55412 0.49675 0.72547 0.0
H783 H 0.62256 0.54248 0.80589 0.0
H784 H 0.62921 0.55061 0.77652 0.0
H785 H 0.53311 0.47067 0.74714 0.0
H786 H 0.52132 0.50023 0.66773 0.0
H787 H 0.52044 0.49787 0.69728 0.0
H788 H 0.62069 0.5771 0.72424 0.0
C789 C 0.60199 0.5348 0.78132 0.0
C790 C 0.55214 0.49412 0.74234 0.0
C791 C 0.59823 0.53011 0.79811 0.0
C792 C 0.54713 0.51396 0.67449 0.0
C793 C 0.54664 0.51233 0.69142 0.0
C794 C 0.6017 0.55372 0.72912 0.0
C795 C 0.57095 0.51823 0.77082 0.0
C796 C 0.57451 0.52129 0.75286 0.0
C797 C 0.57948 0.52923 0.70068 0.0
C798 C 0.57862 0.5266 0.71865 0.0
H799 H 0.50521 0.47675 0.79898 0.0
H800 H 0.51161 0.48525 0.76989 0.0
H801 H 0.61709 0.57251 0.75383 0.0
H802 H 0.63952 0.56436 0.66974 0.0
H803 H 0.63865 0.56125 0.69939 0.0
C804 C 0.58825 0.03738 0.53657 0.0
C805 C 0.5533 0.023 0.52966 0.0
C806 C 0.59254 0.03594 0.55328 0.0
C807 C 0.54213 0.99146 0.58958 0.0
H808 H 0.61824 0.06954 0.61362 0.0
C809 C 0.58028 0.04546 0.6601 0.0
C810 C 0.57554 0.01991 0.66797 0.0
C811 C 0.57965 0.04555 0.64309 0.0
C812 C 0.59681 0.04756 0.60708 0.0
H813 H 0.49544 0.99533 0.5346 0.0
H814 H 0.50285 0.99283 0.56375 0.0
H815 H 0.61289 0.06952 0.58406 0.0
H816 H 0.56734 0.97478 0.66404 0.0
H817 H 0.56587 0.97481 0.63437 0.0
H818 H 0.5255 0.96967 0.61262 0.0
C819 C 0.52693 0.00504 0.5563 0.0
C820 C 0.594 0.04747 0.59013 0.0
C821 C 0.52269 0.00664 0.53964 0.0
C822 C 0.57044 0.99457 0.65839 0.0
C823 C 0.56967 0.9946 0.64139 0.0
C824 C 0.54506 0.99151 0.60651 0.0
C825 C 0.56193 0.01992 0.56335 0.0
C826 C 0.56637 0.0195 0.58121 0.0
C827 C 0.57413 0.02003 0.63354 0.0
C828 C 0.57219 0.01965 0.61547 0.0
H829 H 0.61231 0.05018 0.52912 0.0
H830 H 0.61981 0.04738 0.55833 0.0
H831 H 0.52076 0.96946 0.58304 0.0
H832 H 0.5837 0.06513 0.66707 0.0
H833 H 0.58263 0.06527 0.63742 0.0
C834 C 0.62279 0.54025 0.90545 0.0
C835 C 0.59232 0.52503 0.89477 0.0
C836 C 0.61921 0.5296 0.92117 0.0
C837 C 0.55003 0.48256 0.95241 0.0
H838 H 0.62806 0.48434 0.97223 0.0
C839 C 0.6004 0.48117 0.02059 0.0
C840 C 0.56724 0.45548 0.02692 0.0
C841 C 0.60327 0.48669 0.00396 0.0
C842 C 0.60611 0.48382 0.96687 0.0
H843 H 0.53422 0.48679 0.89204 0.0
H844 H 0.52802 0.46761 0.91935 0.0
H845 H 0.6331 0.49957 0.9441 0.0
H846 H 0.51132 0.41504 0.02072 0.0
H847 H 0.51638 0.42463 0.99161 0.0
H848 H 0.5231 0.4668 0.9752 0.0
C849 C 0.55462 0.4881 0.91573 0.0
C850 C 0.60903 0.49265 0.95077 0.0
C851 C 0.55819 0.49891 0.90004 0.0
C852 C 0.53731 0.43487 0.01618 0.0
C853 C 0.54009 0.44055 0.99956 0.0
C854 C 0.54702 0.47352 0.96846 0.0
C855 C 0.58508 0.50338 0.92652 0.0
C856 C 0.58121 0.49248 0.94339 0.0
C857 C 0.57295 0.46678 0.99331 0.0
C858 C 0.57519 0.47436 0.97592 0.0
H859 H 0.64941 0.56052 0.90169 0.0
H860 H 0.64312 0.54231 0.92922 0.0
H861 H 0.52834 0.4826 0.94724 0.0
H862 H 0.62399 0.49731 0.02856 0.0
H863 H 0.62888 0.50722 0.99954 0.0
C864 C 0.06878 0.53629 0.20711 0.0
C865 C 0.06605 0.51117 0.19851 0.0
C866 C 0.0669 0.53667 0.22412 0.0
C867 C 0.08604 0.51027 0.25991 0.0
H868 H 1.01593 0.51751 0.28193 0.0
C869 C 0.06538 0.49483 0.32901 0.0
C870 C 0.057 0.51308 0.33784 0.0
C871 C 0.06578 0.4945 0.31199 0.0
C872 C 1.03615 0.51603 0.27605 0.0
H873 H 0.05985 0.4671 0.20089 0.0
H874 H 0.05773 0.46834 0.23064 0.0
H875 H 1.0188 0.51823 0.25226 0.0
H876 H 1.04293 0.54561 0.33594 0.0
H877 H 1.0451 0.54622 0.30628 0.0
H878 H 0.10449 0.5092 0.2835 0.0
C879 C 0.0608 0.48744 0.22421 0.0
C880 C 1.03758 0.51628 0.25903 0.0
C881 C 0.06195 0.48672 0.20721 0.0
C882 C 0.04912 0.53108 0.32937 0.0
C883 C 0.05018 0.53125 0.31236 0.0
C884 C 0.08511 0.51062 0.27691 0.0
C885 C 0.06318 0.51236 0.23281 0.0
C886 C 0.06232 0.51312 0.25083 0.0
C887 C 0.05852 0.51294 0.30341 0.0
C888 C 0.05993 0.51322 0.28524 0.0
H889 H 0.07281 0.55581 0.20074 0.0
H890 H 0.06918 0.55632 0.23052 0.0
H891 H 0.10566 0.50818 0.25384 0.0
H892 H 0.07117 0.48048 0.33528 0.0
H893 H 0.07147 0.47949 0.3056 0.0
loop_
_geom_bond_atom_site_label_1
_geom_bond_atom_site_label_2
_geom_bond_distance
_geom_bond_site_symmetry_2
_ccdc_geom_bond_type
La0 C2 2.928 . S
La0 O20 2.521 . S
La0 O21 2.628 . S
La0 O22 2.554 . S
La0 O23 2.757 . S
La0 O24 2.470 . S
La0 O29 2.482 . S
La0 O31 2.503 1_455 S
La1 C11 2.928 . S
La1 O23 2.482 1_655 S
La1 O25 2.503 1_655 S
La1 O26 2.521 . S
La1 O27 2.628 . S
La1 O28 2.554 1_655 S
La1 O29 2.757 1_655 S
La1 O30 2.470 . S
C2 La0 2.928 . S
C2 C3 1.503 . S
C2 O20 1.261 . S
C2 O21 1.243 . S
C3 C2 1.503 . S
C3 C4 1.394 . S
C3 C8 1.373 . S
C4 C3 1.394 . S
C4 C5 1.380 . S
C4 H32 0.930 . S
C5 C4 1.380 . S
C5 C6 1.376 . S
C5 H33 0.930 . S
C6 C5 1.376 . S
C6 C7 1.370 . S
C7 C6 1.370 . S
C7 C8 1.396 . S
C7 H34 0.929 . S
C8 C3 1.373 . S
C8 C7 1.396 . S
C8 H35 0.929 . S
C9 O22 1.240 . S
C9 O23 1.289 . S
C10 O24 1.258 . S
C10 O25 1.256 . S
C11 La1 2.928 . S
C11 C12 1.503 . S
C11 O26 1.261 . S
C11 O27 1.243 . S
C12 C11 1.503 . S
C12 C13 1.394 . S
C12 C17 1.373 . S
C13 C12 1.394 . S
C13 C14 1.380 . S
C13 H36 0.930 . S
C14 C13 1.380 . S
C14 C15 1.376 . S
C14 H37 0.930 . S
C15 C14 1.376 . S
C15 C16 1.370 . S
C16 C15 1.370 . S
C16 C17 1.396 . S
C16 H38 0.929 . S
C17 C12 1.373 . S
C17 C16 1.396 . S
C17 H39 0.929 . S
C18 O28 1.240 . S
C18 O29 1.289 . S
C19 O30 1.258 . S
C19 O31 1.256 . S
O20 La0 2.521 . S
O20 C2 1.261 . S
O21 La0 2.628 . S
O21 C2 1.243 . S
O22 La0 2.554 . S
O22 C9 1.240 . S
O23 La0 2.757 . S
O23 La1 2.482 1_455 S
O23 C9 1.289 . S
O24 La0 2.470 . S
O24 C10 1.258 . S
O25 La1 2.503 1_455 S
O25 C10 1.256 . S
O26 La1 2.521 . S
O26 C11 1.261 . S
O27 La1 2.628 . S
O27 C11 1.243 . S
O28 La1 2.554 1_455 S
O28 C18 1.240 . S
O29 La0 2.482 . S
O29 La1 2.757 1_455 S
O29 C18 1.289 . S
O30 La1 2.470 . S
O30 C19 1.258 . S
O31 La0 2.503 1_655 S
O31 C19 1.256 . S
H32 C4 0.930 . S
H33 C5 0.930 . S
H34 C7 0.929 . S
H35 C8 0.929 . S
H36 C13 0.930 . S
H37 C14 0.930 . S
H38 C16 0.929 . S
H39 C17 0.929 . S
La40 C42 2.928 . S
La40 O60 2.521 . S
La40 O61 2.628 . S
La40 O62 2.554 . S
La40 O63 2.757 1_565 S
La40 O64 2.470 . S
La40 O69 2.468 1_565 S
La40 O71 2.503 1_565 S
La41 C51 2.928 . S
La41 O63 2.482 . S
La41 O65 2.503 1_545 S
La41 O66 2.521 . S
La41 O67 2.628 . S
La41 O68 2.554 . S
La41 O69 2.780 . S
La41 O70 2.470 . S
C42 La40 2.928 . S
C42 C43 1.503 . S
C42 O60 1.261 . S
C42 O61 1.243 . S
C43 C42 1.503 . S
C43 C44 1.394 . S
C43 C48 1.373 . S
C44 C43 1.394 . S
C44 C45 1.380 . S
C44 H72 0.930 . S
C45 C44 1.380 . S
C45 C46 1.376 . S
C45 H73 0.930 . S
C46 C45 1.376 . S
C46 C47 1.370 . S
C47 C46 1.370 . S
C47 C48 1.396 . S
C47 H74 0.929 . S
C48 C43 1.373 . S
C48 C47 1.396 . S
C48 H75 0.929 . S
C49 O62 1.240 1_545 S
C49 O63 1.289 . S
C50 O64 1.258 . S
C50 O65 1.256 . S
C51 La41 2.928 . S
C51 C52 1.503 . S
C51 O66 1.261 . S
C51 O67 1.243 . S
C52 C51 1.503 . S
C52 C53 1.394 . S
C52 C57 1.373 . S
C53 C52 1.394 . S
C53 C54 1.380 . S
C53 H76 0.930 . S
C54 C53 1.380 . S
C54 C55 1.376 . S
C54 H77 0.930 . S
C55 C54 1.376 . S
C55 C56 1.370 . S
C56 C55 1.370 . S
C56 C57 1.396 . S
C56 H78 0.929 . S
C57 C52 1.373 . S
C57 C56 1.396 . S
C57 H79 0.929 . S
C58 O68 1.240 . S
C58 O69 1.303 . S
C59 O70 1.258 . S
C59 O71 1.256 . S
O60 La40 2.521 . S
O60 C42 1.261 . S
O61 La40 2.628 . S
O61 C42 1.243 . S
O62 La40 2.554 . S
O62 C49 1.240 1_565 S
O63 La40 2.757 1_545 S
O63 La41 2.482 . S
O63 C49 1.289 . S
O64 La40 2.470 . S
O64 C50 1.258 . S
O65 La41 2.503 1_565 S
O65 C50 1.256 . S
O66 La41 2.521 . S
O66 C51 1.261 . S
O67 La41 2.628 . S
O67 C51 1.243 . S
O68 La41 2.554 . S
O68 C58 1.240 . S
O69 La40 2.468 1_545 S
O69 La41 2.780 . S
O69 C58 1.303 . S
O70 La41 2.470 . S
O70 C59 1.258 . S
O71 La40 2.503 1_545 S
O71 C59 1.256 . S
H72 C44 0.930 . S
H73 C45 0.930 . S
H74 C47 0.929 . S
H75 C48 0.929 . S
H76 C53 0.930 . S
H77 C54 0.930 . S
H78 C56 0.929 . S
H79 C57 0.929 . S
La80 C82 2.928 . S
La80 O100 2.521 . S
La80 O101 2.628 . S
La80 O102 2.554 . S
La80 O103 2.757 . S
La80 O104 2.470 . S
La80 O109 2.482 . S
La80 O111 2.503 . S
La81 C91 2.928 . S
La81 O103 2.482 . S
La81 O105 2.503 . S
La81 O106 2.521 . S
La81 O107 2.628 . S
La81 O108 2.554 . S
La81 O109 2.757 . S
La81 O110 2.470 . S
C82 La80 2.928 . S
C82 C83 1.503 . S
C82 O100 1.261 . S
C82 O101 1.243 . S
C83 C82 1.503 . S
C83 C84 1.394 . S
C83 C88 1.373 . S
C84 C83 1.394 . S
C84 C85 1.380 . S
C84 H112 0.930 . S
C85 C84 1.380 . S
C85 C86 1.376 . S
C85 H113 0.930 . S
C86 C85 1.376 . S
C86 C87 1.370 . S
C87 C86 1.370 . S
C87 C88 1.396 . S
C87 H114 0.929 . S
C88 C83 1.373 . S
C88 C87 1.396 . S
C88 H115 0.929 . S
C89 O102 1.240 . S
C89 O103 1.289 . S
C90 O104 1.258 . S
C90 O105 1.256 . S
C91 La81 2.928 . S
C91 C92 1.503 . S
C91 O106 1.261 . S
C91 O107 1.243 . S
C92 C91 1.503 . S
C92 C93 1.394 . S
C92 C97 1.373 . S
C93 C92 1.394 . S
C93 C94 1.380 . S
C93 H116 0.930 . S
C94 C93 1.380 . S
C94 C95 1.376 . S
C94 H117 0.930 . S
C95 C94 1.376 . S
C95 C96 1.370 . S
C96 C95 1.370 . S
C96 C97 1.396 . S
C96 H118 0.929 . S
C97 C92 1.373 . S
C97 C96 1.396 . S
C97 H119 0.929 . S
C98 O108 1.240 . S
C98 O109 1.289 . S
C99 O110 1.258 . S
C99 O111 1.256 . S
O100 La80 2.521 . S
O100 C82 1.261 . S
O101 La80 2.628 . S
O101 C82 1.243 . S
O102 La80 2.554 . S
O102 C89 1.240 . S
O103 La80 2.757 . S
O103 La81 2.482 . S
O103 C89 1.289 . S
O104 La80 2.470 . S
O104 C90 1.258 . S
O105 La81 2.503 . S
O105 C90 1.256 . S
O106 La81 2.521 . S
O106 C91 1.261 . S
O107 La81 2.628 . S
O107 C91 1.243 . S
O108 La81 2.554 . S
O108 C98 1.240 . S
O109 La80 2.482 . S
O109 La81 2.757 . S
O109 C98 1.289 . S
O110 La81 2.470 . S
O110 C99 1.258 . S
O111 La80 2.503 . S
O111 C99 1.256 . S
H112 C84 0.930 . S
H113 C85 0.930 . S
H114 C87 0.929 . S
H115 C88 0.929 . S
H116 C93 0.930 . S
H117 C94 0.930 . S
H118 C96 0.929 . S
H119 C97 0.929 . S
C120 C121 1.386 . S
C120 C122 1.397 . S
C120 H144 0.931 . S
C121 C120 1.386 . S
C121 C125 1.397 1_545 S
C122 C120 1.397 . S
C122 C123 1.384 . S
C122 H145 0.930 . S
C123 C122 1.384 . S
C123 C124 1.377 1_545 S
C123 C126 1.481 . S
C124 C123 1.377 1_565 S
C124 C125 1.389 . S
C124 H146 0.929 . S
C125 C121 1.397 1_565 S
C125 C124 1.389 . S
C125 H147 0.931 . S
C126 C123 1.481 . S
C126 C127 1.387 . S
C126 C131 1.390 1_545 S
C127 C126 1.387 . S
C127 C128 1.401 . S
C127 H148 0.930 . S
C128 C127 1.401 . S
C128 C129 1.376 . S
C128 C137 1.511 . S
C129 C128 1.376 . S
C129 C130 1.392 1_545 S
C129 H150 0.931 . S
C130 C129 1.392 1_565 S
C130 C131 1.361 . S
C130 C132 1.500 . S
C131 C126 1.390 1_565 S
C131 C130 1.361 . S
C131 H149 0.931 . S
C132 C130 1.500 . S
C132 C133 1.371 . S
C132 C134 1.365 . S
C133 C132 1.371 . S
C133 C143 1.386 . S
C133 H151 0.931 . S
C134 C132 1.365 . S
C134 C135 1.409 . S
C134 H152 0.929 . S
C135 C134 1.409 . S
C135 C136 1.380 . S
C135 H153 0.930 . S
C136 C135 1.380 . S
C136 C143 1.357 . S
C137 C128 1.511 . S
C137 C138 1.341 . S
C137 C139 1.371 . S
C138 C137 1.341 . S
C138 C142 1.394 . S
C138 H154 0.930 . S
C139 C137 1.371 . S
C139 C140 1.392 . S
C139 H155 0.931 . S
C140 C139 1.392 . S
C140 C141 1.331 . S
C140 H158 0.932 . S
C141 C140 1.331 . S
C141 C142 1.336 . S
C142 C138 1.394 . S
C142 C141 1.336 . S
C142 H157 0.929 . S
C143 C133 1.386 . S
C143 C136 1.357 . S
C143 H156 0.928 . S
H144 C120 0.931 . S
H145 C122 0.930 . S
H146 C124 0.929 . S
H147 C125 0.931 . S
H148 C127 0.930 . S
H149 C131 0.931 . S
H150 C129 0.931 . S
H151 C133 0.931 . S
H152 C134 0.929 . S
H153 C135 0.930 . S
H154 C138 0.930 . S
H155 C139 0.931 . S
H156 C143 0.928 . S
H157 C142 0.929 . S
H158 C140 0.932 . S
C159 C160 1.386 . S
C159 C161 1.397 . S
C159 H183 0.931 . S
C160 C159 1.386 . S
C160 C164 1.397 . S
C161 C159 1.397 . S
C161 C162 1.384 . S
C161 H184 0.930 . S
C162 C161 1.384 . S
C162 C163 1.377 . S
C162 C165 1.481 . S
C163 C162 1.377 . S
C163 C164 1.389 . S
C163 H185 0.929 . S
C164 C160 1.397 . S
C164 C163 1.389 . S
C164 H186 0.931 . S
C165 C162 1.481 . S
C165 C166 1.387 . S
C165 C170 1.390 . S
C166 C165 1.387 . S
C166 C167 1.401 . S
C166 H187 0.930 . S
C167 C166 1.401 . S
C167 C168 1.376 . S
C167 C176 1.511 . S
C168 C167 1.376 . S
C168 C169 1.392 . S
C168 H189 0.931 . S
C169 C168 1.392 . S
C169 C170 1.361 . S
C169 C171 1.500 . S
C170 C165 1.390 . S
C170 C169 1.361 . S
C170 H188 0.931 . S
C171 C169 1.500 . S
C171 C172 1.371 . S
C171 C173 1.365 . S
C172 C171 1.371 . S
C172 C182 1.386 . S
C172 H190 0.931 . S
C173 C171 1.365 . S
C173 C174 1.409 . S
C173 H191 0.929 . S
C174 C173 1.409 . S
C174 C175 1.380 . S
C174 H192 0.930 . S
C175 C174 1.380 . S
C175 C182 1.357 . S
C176 C167 1.511 . S
C176 C177 1.341 . S
C176 C178 1.371 . S
C177 C176 1.341 . S
C177 C181 1.394 . S
C177 H193 0.930 . S
C178 C176 1.371 . S
C178 C179 1.392 . S
C178 H194 0.931 . S
C179 C178 1.392 . S
C179 C180 1.331 . S
C179 H197 0.932 . S
C180 C179 1.331 . S
C180 C181 1.336 . S
C181 C177 1.394 . S
C181 C180 1.336 . S
C181 H196 0.929 . S
C182 C172 1.386 . S
C182 C175 1.357 . S
C182 H195 0.928 . S
H183 C159 0.931 . S
H184 C161 0.930 . S
H185 C163 0.929 . S
H186 C164 0.931 . S
H187 C166 0.930 . S
H188 C170 0.931 . S
H189 C168 0.931 . S
H190 C172 0.931 . S
H191 C173 0.929 . S
H192 C174 0.930 . S
H193 C177 0.930 . S
H194 C178 0.931 . S
H195 C182 0.928 . S
H196 C181 0.929 . S
H197 C179 0.932 . S
C198 C199 1.386 . S
C198 C200 1.397 . S
C198 H222 0.931 . S
C199 C198 1.386 . S
C199 C203 1.397 . S
C200 C198 1.397 . S
C200 C201 1.384 . S
C200 H223 0.930 . S
C201 C200 1.384 . S
C201 C202 1.377 . S
C201 C204 1.481 . S
C202 C201 1.377 . S
C202 C203 1.389 . S
C202 H224 0.929 1_455 S
C203 C199 1.397 . S
C203 C202 1.389 . S
C203 H225 0.931 1_455 S
C204 C201 1.481 . S
C204 C205 1.387 . S
C204 C209 1.390 . S
C205 C204 1.387 . S
C205 C206 1.401 . S
C205 H226 0.930 . S
C206 C205 1.401 . S
C206 C207 1.376 . S
C206 C215 1.511 . S
C207 C206 1.376 . S
C207 C208 1.392 . S
C207 H228 0.931 . S
C208 C207 1.392 . S
C208 C209 1.361 . S
C208 C210 1.500 1_455 S
C209 C204 1.390 . S
C209 C208 1.361 . S
C209 H227 0.931 . S
C210 C208 1.500 1_655 S
C210 C211 1.372 1_655 S
C210 C212 1.365 . S
C211 C210 1.372 1_455 S
C211 C221 1.379 1_455 S
C211 H229 0.938 . S
C212 C210 1.365 . S
C212 C213 1.409 . S
C212 H230 0.929 . S
C213 C212 1.409 . S
C213 C214 1.380 . S
C213 H231 0.930 . S
C214 C213 1.380 . S
C214 C221 1.357 . S
C215 C206 1.511 . S
C215 C216 1.341 . S
C215 C217 1.371 . S
C216 C215 1.341 . S
C216 C220 1.394 . S
C216 H232 0.930 . S
C217 C215 1.371 . S
C217 C218 1.392 . S
C217 H233 0.931 . S
C218 C217 1.392 . S
C218 C219 1.331 . S
C218 H236 0.932 . S
C219 C218 1.331 . S
C219 C220 1.336 . S
C220 C216 1.394 . S
C220 C219 1.336 . S
C220 H235 0.929 . S
C221 C211 1.379 1_655 S
C221 C214 1.357 . S
C221 H234 0.928 . S
H222 C198 0.931 . S
H223 C200 0.930 . S
H224 C202 0.929 1_655 S
H225 C203 0.931 1_655 S
H226 C205 0.930 . S
H227 C209 0.931 . S
H228 C207 0.931 . S
H229 C211 0.938 . S
H230 C212 0.929 . S
H231 C213 0.930 . S
H232 C216 0.930 . S
H233 C217 0.931 . S
H234 C221 0.928 . S
H235 C220 0.929 . S
H236 C218 0.932 . S
C237 C238 1.403 . S
C237 C239 1.397 . S
C237 H261 0.931 . S
C238 C237 1.403 . S
C238 C242 1.381 1_655 S
C239 C237 1.397 . S
C239 C240 1.384 . S
C239 H262 0.930 . S
C240 C239 1.384 . S
C240 C241 1.377 1_655 S
C240 C243 1.481 . S
C241 C240 1.377 1_455 S
C241 C242 1.389 . S
C241 H263 0.929 . S
C242 C238 1.381 1_455 S
C242 C241 1.389 . S
C242 H264 0.931 . S
C243 C240 1.481 . S
C243 C244 1.387 . S
C243 C248 1.390 1_655 S
C244 C243 1.387 . S
C244 C245 1.401 . S
C244 H265 0.930 . S
C245 C244 1.401 . S
C245 C246 1.387 . S
C245 C254 1.511 . S
C246 C245 1.387 . S
C246 C247 1.381 1_655 S
C246 H267 0.931 . S
C247 C246 1.381 1_455 S
C247 C248 1.361 . S
C247 C249 1.500 . S
C248 C243 1.390 1_455 S
C248 C247 1.361 . S
C248 H266 0.931 . S
C249 C247 1.500 . S
C249 C250 1.371 . S
C249 C251 1.365 . S
C250 C249 1.371 . S
C250 C260 1.386 . S
C250 H268 0.931 . S
C251 C249 1.365 . S
C251 C252 1.409 . S
C251 H269 0.929 . S
C252 C251 1.409 . S
C252 C253 1.380 . S
C252 H270 0.930 . S
C253 C252 1.380 . S
C253 C260 1.357 . S
C254 C245 1.511 . S
C254 C255 1.341 . S
C254 C256 1.371 . S
C255 C254 1.341 . S
C255 C259 1.394 . S
C255 H271 0.930 . S
C256 C254 1.371 . S
C256 C257 1.392 . S
C256 H272 0.931 . S
C257 C256 1.392 . S
C257 C258 1.331 . S
C257 H275 0.932 . S
C258 C257 1.331 . S
C258 C259 1.336 . S
C259 C255 1.394 . S
C259 C258 1.336 . S
C259 H274 0.929 . S
C260 C250 1.386 . S
C260 C253 1.357 . S
C260 H273 0.928 . S
H261 C237 0.931 . S
H262 C239 0.930 . S
H263 C241 0.929 . S
H264 C242 0.931 . S
H265 C244 0.930 . S
H266 C248 0.931 . S
H267 C246 0.931 . S
H268 C250 0.931 . S
H269 C251 0.929 . S
H270 C252 0.930 . S
H271 C255 0.930 . S
H272 C256 0.931 . S
H273 C260 0.928 . S
H274 C259 0.929 . S
H275 C257 0.932 . S
C276 C277 1.386 . S
C276 C278 1.397 . S
C276 H300 0.931 . S
C277 C276 1.386 . S
C277 C281 1.397 1_565 S
C278 C276 1.397 . S
C278 C279 1.375 1_565 S
C278 H301 0.930 . S
C279 C278 1.375 1_545 S
C279 C280 1.387 . S
C279 C282 1.480 . S
C280 C279 1.387 . S
C280 C281 1.389 . S
C280 H302 0.929 . S
C281 C277 1.397 1_545 S
C281 C280 1.389 . S
C281 H303 0.931 . S
C282 C279 1.480 . S
C282 C283 1.387 1_545 S
C282 C287 1.390 . S
C283 C282 1.387 1_565 S
C283 C284 1.401 . S
C283 H304 0.930 . S
C284 C283 1.401 . S
C284 C285 1.376 1_565 S
C284 C293 1.511 . S
C285 C284 1.376 1_545 S
C285 C286 1.392 . S
C285 H306 0.931 . S
C286 C285 1.392 . S
C286 C287 1.361 . S
C286 C288 1.500 . S
C287 C282 1.390 . S
C287 C286 1.361 . S
C287 H305 0.931 . S
C288 C286 1.500 . S
C288 C289 1.371 . S
C288 C290 1.365 . S
C289 C288 1.371 . S
C289 C299 1.386 . S
C289 H307 0.931 . S
C290 C288 1.365 . S
C290 C291 1.409 . S
C290 H308 0.929 . S
C291 C290 1.409 . S
C291 C292 1.380 . S
C291 H309 0.930 . S
C292 C291 1.380 . S
C292 C299 1.357 . S
C293 C284 1.511 . S
C293 C294 1.341 . S
C293 C295 1.371 . S
C294 C293 1.341 . S
C294 C298 1.394 . S
C294 H310 0.930 . S
C295 C293 1.371 . S
C295 C296 1.392 . S
C295 H311 0.931 . S
C296 C295 1.392 . S
C296 C297 1.331 . S
C296 H314 0.932 . S
C297 C296 1.331 . S
C297 C298 1.336 . S
C298 C294 1.394 . S
C298 C297 1.336 . S
C298 H313 0.929 . S
C299 C289 1.386 . S
C299 C292 1.357 . S
C299 H312 0.928 . S
H300 C276 0.931 . S
H301 C278 0.930 . S
H302 C280 0.929 . S
H303 C281 0.931 . S
H304 C283 0.930 . S
H305 C287 0.931 . S
H306 C285 0.931 . S
H307 C289 0.931 . S
H308 C290 0.929 . S
H309 C291 0.930 . S
H310 C294 0.930 . S
H311 C295 0.931 . S
H312 C299 0.928 . S
H313 C298 0.929 . S
H314 C296 0.932 . S
C315 C316 1.386 . S
C315 C317 1.397 . S
C315 H339 0.931 . S
C316 C315 1.386 . S
C316 C320 1.397 . S
C317 C315 1.397 . S
C317 C318 1.384 . S
C317 H340 0.930 . S
C318 C317 1.384 . S
C318 C319 1.377 . S
C318 C321 1.481 . S
C319 C318 1.377 . S
C319 C320 1.389 . S
C319 H341 0.929 . S
C320 C316 1.397 . S
C320 C319 1.389 . S
C320 H342 0.931 . S
C321 C318 1.481 . S
C321 C322 1.387 . S
C321 C326 1.390 . S
C322 C321 1.387 . S
C322 C323 1.401 . S
C322 H343 0.930 . S
C323 C322 1.401 . S
C323 C324 1.376 . S
C323 C332 1.511 . S
C324 C323 1.376 . S
C324 C325 1.392 . S
C324 H345 0.931 . S
C325 C324 1.392 . S
C325 C326 1.361 . S
C325 C327 1.500 . S
C326 C321 1.390 . S
C326 C325 1.361 . S
C326 H344 0.931 . S
C327 C325 1.500 . S
C327 C328 1.371 . S
C327 C329 1.365 . S
C328 C327 1.371 . S
C328 C338 1.386 . S
C328 H346 0.931 . S
C329 C327 1.365 . S
C329 C330 1.409 . S
C329 H347 0.929 . S
C330 C329 1.409 . S
C330 C331 1.380 . S
C330 H348 0.930 . S
C331 C330 1.380 . S
C331 C338 1.357 . S
C332 C323 1.511 . S
C332 C333 1.341 . S
C332 C334 1.371 . S
C333 C332 1.341 . S
C333 C337 1.394 . S
C333 H349 0.930 . S
C334 C332 1.371 . S
C334 C335 1.392 . S
C334 H350 0.931 . S
C335 C334 1.392 . S
C335 C336 1.331 . S
C335 H353 0.932 . S
C336 C335 1.331 . S
C336 C337 1.336 . S
C337 C333 1.394 . S
C337 C336 1.336 . S
C337 H352 0.929 . S
C338 C328 1.386 . S
C338 C331 1.357 . S
C338 H351 0.928 . S
H339 C315 0.931 . S
H340 C317 0.930 . S
H341 C319 0.929 . S
H342 C320 0.931 . S
H343 C322 0.930 . S
H344 C326 0.931 . S
H345 C324 0.931 . S
H346 C328 0.931 . S
H347 C329 0.929 . S
H348 C330 0.930 . S
H349 C333 0.930 . S
H350 C334 0.931 . S
H351 C338 0.928 . S
H352 C337 0.929 . S
H353 C335 0.932 . S
C354 C355 1.349 . S
C354 C356 1.327 . S
C354 H379 0.950 . S
C355 C354 1.349 . S
C355 C371 1.349 . S
C356 C354 1.327 . S
C356 C375 1.429 . S
C356 H380 0.950 . S
C357 C374 1.574 . S
C357 C376 1.368 . S
C357 H381 0.949 . S
H358 C362 0.949 . S
C359 C360 1.349 . S
C359 C361 1.327 . S
C359 H382 0.950 . S
C360 C359 1.349 . S
C360 C372 1.349 . S
C361 C359 1.327 . S
C361 C377 1.429 . S
C361 H383 0.950 . S
C362 H358 0.949 . S
C362 C370 1.574 . S
C362 C378 1.368 . S
H363 C371 0.950 . S
H364 C369 0.950 . S
H365 C370 0.949 . S
H366 C372 0.950 . S
H367 C373 0.950 . S
H368 C374 0.949 . S
C369 H364 0.950 . S
C369 C371 1.327 . S
C369 C375 1.429 . S
C370 C362 1.574 . S
C370 H365 0.949 . S
C370 C376 1.368 . S
C371 C355 1.349 . S
C371 H363 0.950 . S
C371 C369 1.327 . S
C372 C360 1.349 . S
C372 H366 0.950 . S
C372 C373 1.327 . S
C373 H367 0.950 . S
C373 C372 1.327 . S
C373 C377 1.429 . S
C374 C357 1.574 . S
C374 H368 0.949 . S
C374 C378 1.368 . S
C375 C356 1.429 . S
C375 C369 1.429 . S
C375 C376 1.523 . S
C376 C357 1.368 . S
C376 C370 1.368 . S
C376 C375 1.523 . S
C377 C361 1.429 . S
C377 C373 1.429 . S
C377 C378 1.523 . S
C378 C362 1.368 . S
C378 C374 1.368 . S
C378 C377 1.523 . S
H379 C354 0.950 . S
H380 C356 0.950 . S
H381 C357 0.949 . S
H382 C359 0.950 . S
H383 C361 0.950 . S
C384 C385 1.349 . S
C384 C386 1.327 . S
C384 H409 0.950 . S
C385 C384 1.349 . S
C385 C401 1.349 . S
C386 C384 1.327 . S
C386 C405 1.429 . S
C386 H410 0.950 . S
C387 C404 1.574 . S
C387 C406 1.368 . S
C387 H411 0.949 . S
H388 C392 0.949 . S
C389 C390 1.349 . S
C389 C391 1.327 . S
C389 H412 0.950 . S
C390 C389 1.349 . S
C390 C402 1.349 . S
C391 C389 1.327 . S
C391 C407 1.429 . S
C391 H413 0.950 . S
C392 H388 0.949 . S
C392 C400 1.574 . S
C392 C408 1.368 . S
H393 C401 0.950 . S
H394 C399 0.950 . S
H395 C400 0.949 . S
H396 C402 0.950 . S
H397 C403 0.950 . S
H398 C404 0.949 . S
C399 H394 0.950 . S
C399 C401 1.327 . S
C399 C405 1.429 . S
C400 C392 1.574 . S
C400 H395 0.949 . S
C400 C406 1.368 . S
C401 C385 1.349 . S
C401 H393 0.950 . S
C401 C399 1.327 . S
C402 C390 1.349 . S
C402 H396 0.950 . S
C402 C403 1.327 . S
C403 H397 0.950 . S
C403 C402 1.327 . S
C403 C407 1.429 . S
C404 C387 1.574 . S
C404 H398 0.949 . S
C404 C408 1.368 . S
C405 C386 1.429 . S
C405 C399 1.429 . S
C405 C406 1.523 . S
C406 C387 1.368 . S
C406 C400 1.368 . S
C406 C405 1.523 . S
C407 C391 1.429 . S
C407 C403 1.429 . S
C407 C408 1.523 . S
C408 C392 1.368 . S
C408 C404 1.368 . S
C408 C407 1.523 . S
H409 C384 0.950 . S
H410 C386 0.950 . S
H411 C387 0.949 . S
H412 C389 0.950 . S
H413 C391 0.950 . S
C414 C415 1.349 . S
C414 C416 1.327 . S
C414 H439 0.950 . S
C415 C414 1.349 . S
C415 C431 1.349 . S
C416 C414 1.327 . S
C416 C435 1.429 . S
C416 H440 0.950 . S
C417 C434 1.574 . S
C417 C436 1.368 . S
C417 H441 0.949 . S
H418 C422 0.949 . S
C419 C420 1.349 . S
C419 C421 1.327 . S
C419 H442 0.950 . S
C420 C419 1.349 . S
C420 C432 1.349 . S
C421 C419 1.327 . S
C421 C437 1.429 . S
C421 H443 0.950 . S
C422 H418 0.949 . S
C422 C430 1.574 . S
C422 C438 1.368 . S
H423 C431 0.950 . S
H424 C429 0.950 . S
H425 C430 0.949 . S
H426 C432 0.950 . S
H427 C433 0.950 . S
H428 C434 0.949 . S
C429 H424 0.950 . S
C429 C431 1.327 . S
C429 C435 1.429 . S
C430 C422 1.574 . S
C430 H425 0.949 . S
C430 C436 1.368 . S
C431 C415 1.349 . S
C431 H423 0.950 . S
C431 C429 1.327 . S
C432 C420 1.349 . S
C432 H426 0.950 . S
C432 C433 1.327 . S
C433 H427 0.950 . S
C433 C432 1.327 . S
C433 C437 1.429 . S
C434 C417 1.574 . S
C434 H428 0.949 . S
C434 C438 1.368 . S
C435 C416 1.429 . S
C435 C429 1.429 . S
C435 C436 1.523 . S
C436 C417 1.368 . S
C436 C430 1.368 . S
C436 C435 1.523 . S
C437 C421 1.429 . S
C437 C433 1.429 . S
C437 C438 1.523 . S
C438 C422 1.368 . S
C438 C434 1.368 . S
C438 C437 1.523 . S
H439 C414 0.950 . S
H440 C416 0.950 . S
H441 C417 0.949 . S
H442 C419 0.950 . S
H443 C421 0.950 . S
C444 C445 1.349 . S
C444 C446 1.327 . S
C444 H469 0.950 . S
C445 C444 1.349 . S
C445 C461 1.349 . S
C446 C444 1.327 . S
C446 C465 1.429 . S
C446 H470 0.950 . S
C447 C464 1.574 . S
C447 C466 1.368 . S
C447 H471 0.949 . S
H448 C452 0.949 . S
C449 C450 1.349 . S
C449 C451 1.327 . S
C449 H472 0.950 . S
C450 C449 1.349 . S
C450 C462 1.349 . S
C451 C449 1.327 . S
C451 C467 1.429 . S
C451 H473 0.950 . S
C452 H448 0.949 . S
C452 C460 1.574 . S
C452 C468 1.368 . S
H453 C461 0.950 . S
H454 C459 0.950 . S
H455 C460 0.949 . S
H456 C462 0.950 . S
H457 C463 0.950 . S
H458 C464 0.949 . S
C459 H454 0.950 . S
C459 C461 1.327 . S
C459 C465 1.429 . S
C460 C452 1.574 . S
C460 H455 0.949 . S
C460 C466 1.368 . S
C461 C445 1.349 . S
C461 H453 0.950 . S
C461 C459 1.327 . S
C462 C450 1.349 . S
C462 H456 0.950 . S
C462 C463 1.327 . S
C463 H457 0.950 . S
C463 C462 1.327 . S
C463 C467 1.429 . S
C464 C447 1.574 . S
C464 H458 0.949 . S
C464 C468 1.368 . S
C465 C446 1.429 . S
C465 C459 1.429 . S
C465 C466 1.523 . S
C466 C447 1.368 . S
C466 C460 1.368 . S
C466 C465 1.523 . S
C467 C451 1.429 . S
C467 C463 1.429 . S
C467 C468 1.523 . S
C468 C452 1.368 . S
C468 C464 1.368 . S
C468 C467 1.523 . S
H469 C444 0.950 . S
H470 C446 0.950 . S
H471 C447 0.949 . S
H472 C449 0.950 . S
H473 C451 0.950 . S
C474 C475 1.349 . S
C474 C476 1.327 . S
C474 H499 0.950 . S
C475 C474 1.349 . S
C475 C491 1.349 . S
C476 C474 1.327 . S
C476 C495 1.429 . S
C476 H500 0.950 . S
C477 C494 1.574 . S
C477 C496 1.368 . S
C477 H501 0.949 . S
H478 C482 0.949 . S
C479 C480 1.349 . S
C479 C481 1.327 . S
C479 H502 0.950 . S
C480 C479 1.349 . S
C480 C492 1.349 . S
C481 C479 1.327 . S
C481 C497 1.429 . S
C481 H503 0.950 . S
C482 H478 0.949 . S
C482 C490 1.574 . S
C482 C498 1.368 . S
H483 C491 0.950 . S
H484 C489 0.950 . S
H485 C490 0.949 . S
H486 C492 0.950 . S
H487 C493 0.950 . S
H488 C494 0.949 . S
C489 H484 0.950 . S
C489 C491 1.327 . S
C489 C495 1.429 . S
C490 C482 1.574 . S
C490 H485 0.949 . S
C490 C496 1.368 . S
C491 C475 1.349 . S
C491 H483 0.950 . S
C491 C489 1.327 . S
C492 C480 1.349 . S
C492 H486 0.950 . S
C492 C493 1.327 . S
C493 H487 0.950 . S
C493 C492 1.327 . S
C493 C497 1.429 . S
C494 C477 1.574 . S
C494 H488 0.949 . S
C494 C498 1.368 . S
C495 C476 1.429 . S
C495 C489 1.429 . S
C495 C496 1.523 . S
C496 C477 1.368 . S
C496 C490 1.368 . S
C496 C495 1.523 . S
C497 C481 1.429 . S
C497 C493 1.429 . S
C497 C498 1.523 . S
C498 C482 1.368 . S
C498 C494 1.368 . S
C498 C497 1.523 . S
H499 C474 0.950 . S
H500 C476 0.950 . S
H501 C477 0.949 . S
H502 C479 0.950 . S
H503 C481 0.950 . S
C504 C505 1.349 . S
C504 C506 1.327 . S
C504 H529 0.950 . S
C505 C504 1.349 . S
C505 C521 1.349 . S
C506 C504 1.327 . S
C506 C525 1.429 . S
C506 H530 0.950 . S
C507 C524 1.574 . S
C507 C526 1.368 . S
C507 H531 0.949 . S
H508 C512 0.949 . S
C509 C510 1.349 . S
C509 C511 1.327 . S
C509 H532 0.950 . S
C510 C509 1.349 . S
C510 C522 1.349 . S
C511 C509 1.327 . S
C511 C527 1.429 . S
C511 H533 0.950 . S
C512 H508 0.949 . S
C512 C520 1.574 . S
C512 C528 1.368 . S
H513 C521 0.950 . S
H514 C519 0.950 . S
H515 C520 0.949 . S
H516 C522 0.950 . S
H517 C523 0.950 . S
H518 C524 0.949 . S
C519 H514 0.950 . S
C519 C521 1.327 . S
C519 C525 1.429 . S
C520 C512 1.574 . S
C520 H515 0.949 . S
C520 C526 1.368 . S
C521 C505 1.349 . S
C521 H513 0.950 . S
C521 C519 1.327 . S
C522 C510 1.349 . S
C522 H516 0.950 . S
C522 C523 1.327 . S
C523 H517 0.950 . S
C523 C522 1.327 . S
C523 C527 1.429 . S
C524 C507 1.574 . S
C524 H518 0.949 . S
C524 C528 1.368 . S
C525 C506 1.429 . S
C525 C519 1.429 . S
C525 C526 1.523 . S
C526 C507 1.368 . S
C526 C520 1.368 . S
C526 C525 1.523 . S
C527 C511 1.429 . S
C527 C523 1.429 . S
C527 C528 1.523 . S
C528 C512 1.368 . S
C528 C524 1.368 . S
C528 C527 1.523 . S
H529 C504 0.950 . S
H530 C506 0.950 . S
H531 C507 0.949 . S
H532 C509 0.950 . S
H533 C511 0.950 . S
C534 C535 1.349 . S
C534 C536 1.327 . S
C534 H559 0.950 . S
C535 C534 1.349 . S
C535 C551 1.349 . S
C536 C534 1.327 . S
C536 C555 1.429 . S
C536 H560 0.950 . S
C537 C554 1.574 . S
C537 C556 1.368 . S
C537 H561 0.949 . S
H538 C542 0.949 . S
C539 C540 1.349 . S
C539 C541 1.327 . S
C539 H562 0.950 . S
C540 C539 1.349 . S
C540 C552 1.349 . S
C541 C539 1.327 . S
C541 C557 1.429 . S
C541 H563 0.950 . S
C542 H538 0.949 . S
C542 C550 1.574 . S
C542 C558 1.368 . S
H543 C551 0.950 . S
H544 C549 0.950 . S
H545 C550 0.949 . S
H546 C552 0.950 . S
H547 C553 0.950 . S
H548 C554 0.949 . S
C549 H544 0.950 . S
C549 C551 1.327 . S
C549 C555 1.429 . S
C550 C542 1.574 . S
C550 H545 0.949 . S
C550 C556 1.368 . S
C551 C535 1.349 . S
C551 H543 0.950 . S
C551 C549 1.327 . S
C552 C540 1.349 . S
C552 H546 0.950 . S
C552 C553 1.327 . S
C553 H547 0.950 . S
C553 C552 1.327 . S
C553 C557 1.429 . S
C554 C537 1.574 . S
C554 H548 0.949 . S
C554 C558 1.368 . S
C555 C536 1.429 . S
C555 C549 1.429 . S
C555 C556 1.523 . S
C556 C537 1.368 . S
C556 C550 1.368 . S
C556 C555 1.523 . S
C557 C541 1.429 . S
C557 C553 1.429 . S
C557 C558 1.523 . S
C558 C542 1.368 . S
C558 C554 1.368 . S
C558 C557 1.523 . S
H559 C534 0.950 . S
H560 C536 0.950 . S
H561 C537 0.949 . S
H562 C539 0.950 . S
H563 C541 0.950 . S
C564 C565 1.349 . S
C564 C566 1.327 . S
C564 H589 0.950 . S
C565 C564 1.349 . S
C565 C581 1.349 . S
C566 C564 1.327 . S
C566 C585 1.429 . S
C566 H590 0.950 . S
C567 C584 1.574 . S
C567 C586 1.368 . S
C567 H591 0.949 . S
H568 C572 0.949 . S
C569 C570 1.349 . S
C569 C571 1.327 . S
C569 H592 0.950 . S
C570 C569 1.349 . S
C570 C582 1.349 . S
C571 C569 1.327 . S
C571 C587 1.429 . S
C571 H593 0.950 . S
C572 H568 0.949 . S
C572 C580 1.574 . S
C572 C588 1.368 . S
H573 C581 0.950 . S
H574 C579 0.950 . S
H575 C580 0.949 . S
H576 C582 0.950 . S
H577 C583 0.950 . S
H578 C584 0.949 . S
C579 H574 0.950 . S
C579 C581 1.327 . S
C579 C585 1.429 . S
C580 C572 1.574 . S
C580 H575 0.949 . S
C580 C586 1.368 . S
C581 C565 1.349 . S
C581 H573 0.950 . S
C581 C579 1.327 . S
C582 C570 1.349 . S
C582 H576 0.950 . S
C582 C583 1.327 . S
C583 H577 0.950 . S
C583 C582 1.327 . S
C583 C587 1.429 . S
C584 C567 1.574 . S
C584 H578 0.949 . S
C584 C588 1.368 . S
C585 C566 1.429 . S
C585 C579 1.429 . S
C585 C586 1.523 . S
C586 C567 1.368 . S
C586 C580 1.368 . S
C586 C585 1.523 . S
C587 C571 1.429 . S
C587 C583 1.429 . S
C587 C588 1.523 . S
C588 C572 1.368 . S
C588 C584 1.368 . S
C588 C587 1.523 . S
H589 C564 0.950 . S
H590 C566 0.950 . S
H591 C567 0.949 . S
H592 C569 0.950 . S
H593 C571 0.950 . S
C594 C595 1.349 . S
C594 C596 1.327 . S
C594 H619 0.950 . S
C595 C594 1.349 . S
C595 C611 1.349 . S
C596 C594 1.327 . S
C596 C615 1.429 . S
C596 H620 0.950 . S
C597 C614 1.574 . S
C597 C616 1.368 . S
C597 H621 0.949 . S
H598 C602 0.949 . S
C599 C600 1.349 . S
C599 C601 1.327 . S
C599 H622 0.950 . S
C600 C599 1.349 . S
C600 C612 1.349 . S
C601 C599 1.327 . S
C601 C617 1.429 . S
C601 H623 0.950 . S
C602 H598 0.949 . S
C602 C610 1.574 . S
C602 C618 1.368 . S
H603 C611 0.950 . S
H604 C609 0.950 . S
H605 C610 0.949 . S
H606 C612 0.950 . S
H607 C613 0.950 . S
H608 C614 0.949 . S
C609 H604 0.950 . S
C609 C611 1.327 . S
C609 C615 1.429 . S
C610 C602 1.574 . S
C610 H605 0.949 . S
C610 C616 1.368 . S
C611 C595 1.349 . S
C611 H603 0.950 . S
C611 C609 1.327 . S
C612 C600 1.349 . S
C612 H606 0.950 . S
C612 C613 1.327 . S
C613 H607 0.950 . S
C613 C612 1.327 . S
C613 C617 1.429 . S
C614 C597 1.574 . S
C614 H608 0.949 . S
C614 C618 1.368 . S
C615 C596 1.429 . S
C615 C609 1.429 . S
C615 C616 1.523 . S
C616 C597 1.368 . S
C616 C610 1.368 . S
C616 C615 1.523 . S
C617 C601 1.429 . S
C617 C613 1.429 . S
C617 C618 1.523 . S
C618 C602 1.368 . S
C618 C614 1.368 . S
C618 C617 1.523 . S
H619 C594 0.950 . S
H620 C596 0.950 . S
H621 C597 0.949 . S
H622 C599 0.950 . S
H623 C601 0.950 . S
C624 C625 1.349 . S
C624 C626 1.327 . S
C624 H649 0.950 . S
C625 C624 1.349 . S
C625 C641 1.349 . S
C626 C624 1.327 . S
C626 C645 1.429 . S
C626 H650 0.950 . S
C627 C644 1.574 . S
C627 C646 1.368 . S
C627 H651 0.949 . S
H628 C632 0.949 . S
C629 C630 1.349 . S
C629 C631 1.327 . S
C629 H652 0.950 . S
C630 C629 1.349 . S
C630 C642 1.349 . S
C631 C629 1.327 . S
C631 C647 1.429 . S
C631 H653 0.950 . S
C632 H628 0.949 . S
C632 C640 1.574 . S
C632 C648 1.368 . S
H633 C641 0.950 . S
H634 C639 0.950 . S
H635 C640 0.949 . S
H636 C642 0.950 . S
H637 C643 0.950 . S
H638 C644 0.949 . S
C639 H634 0.950 . S
C639 C641 1.327 . S
C639 C645 1.429 . S
C640 C632 1.574 . S
C640 H635 0.949 . S
C640 C646 1.368 . S
C641 C625 1.349 . S
C641 H633 0.950 . S
C641 C639 1.327 . S
C642 C630 1.349 . S
C642 H636 0.950 . S
C642 C643 1.327 . S
C643 H637 0.950 . S
C643 C642 1.327 . S
C643 C647 1.429 . S
C644 C627 1.574 . S
C644 H638 0.949 . S
C644 C648 1.368 . S
C645 C626 1.429 . S
C645 C639 1.429 . S
C645 C646 1.523 . S
C646 C627 1.368 . S
C646 C640 1.368 . S
C646 C645 1.523 . S
C647 C631 1.429 . S
C647 C643 1.429 . S
C647 C648 1.523 . S
C648 C632 1.368 . S
C648 C644 1.368 . S
C648 C647 1.523 . S
H649 C624 0.950 . S
H650 C626 0.950 . S
H651 C627 0.949 . S
H652 C629 0.950 . S
H653 C631 0.950 . S
C654 C655 1.349 . S
C654 C656 1.327 . S
C654 H679 0.950 . S
C655 C654 1.349 . S
C655 C671 1.349 . S
C656 C654 1.327 . S
C656 C675 1.429 . S
C656 H680 0.950 . S
C657 C674 1.574 . S
C657 C676 1.368 . S
C657 H681 0.949 . S
H658 C662 0.949 . S
C659 C660 1.349 . S
C659 C661 1.327 . S
C659 H682 0.950 . S
C660 C659 1.349 . S
C660 C672 1.349 . S
C661 C659 1.327 . S
C661 C677 1.429 . S
C661 H683 0.950 . S
C662 H658 0.949 . S
C662 C670 1.574 . S
C662 C678 1.368 . S
H663 C671 0.950 . S
H664 C669 0.950 . S
H665 C670 0.949 . S
H666 C672 0.950 . S
H667 C673 0.950 . S
H668 C674 0.949 . S
C669 H664 0.950 . S
C669 C671 1.327 . S
C669 C675 1.429 . S
C670 C662 1.574 . S
C670 H665 0.949 . S
C670 C676 1.368 . S
C671 C655 1.349 . S
C671 H663 0.950 . S
C671 C669 1.327 . S
C672 C660 1.349 . S
C672 H666 0.950 . S
C672 C673 1.327 . S
C673 H667 0.950 . S
C673 C672 1.327 . S
C673 C677 1.429 . S
C674 C657 1.574 . S
C674 H668 0.949 . S
C674 C678 1.368 . S
C675 C656 1.429 . S
C675 C669 1.429 . S
C675 C676 1.523 . S
C676 C657 1.368 . S
C676 C670 1.368 . S
C676 C675 1.523 . S
C677 C661 1.429 . S
C677 C673 1.429 . S
C677 C678 1.523 . S
C678 C662 1.368 . S
C678 C674 1.368 . S
C678 C677 1.523 . S
H679 C654 0.950 . S
H680 C656 0.950 . S
H681 C657 0.949 . S
H682 C659 0.950 . S
H683 C661 0.950 . S
C684 C685 1.349 . S
C684 C686 1.327 . S
C684 H709 0.950 . S
C685 C684 1.349 . S
C685 C701 1.349 . S
C686 C684 1.327 . S
C686 C705 1.429 . S
C686 H710 0.950 . S
C687 C704 1.574 . S
C687 C706 1.368 . S
C687 H711 0.949 . S
H688 C692 0.949 . S
C689 C690 1.349 . S
C689 C691 1.327 . S
C689 H712 0.950 . S
C690 C689 1.349 . S
C690 C702 1.349 . S
C691 C689 1.327 . S
C691 C707 1.429 . S
C691 H713 0.950 . S
C692 H688 0.949 . S
C692 C700 1.574 . S
C692 C708 1.368 . S
H693 C701 0.950 . S
H694 C699 0.950 . S
H695 C700 0.949 . S
H696 C702 0.950 . S
H697 C703 0.950 . S
H698 C704 0.949 . S
C699 H694 0.950 . S
C699 C701 1.327 . S
C699 C705 1.429 . S
C700 C692 1.574 . S
C700 H695 0.949 . S
C700 C706 1.368 . S
C701 C685 1.349 . S
C701 H693 0.950 . S
C701 C699 1.327 . S
C702 C690 1.349 . S
C702 H696 0.950 . S
C702 C703 1.327 . S
C703 H697 0.950 . S
C703 C702 1.327 . S
C703 C707 1.429 . S
C704 C687 1.574 . S
C704 H698 0.949 . S
C704 C708 1.368 . S
C705 C686 1.429 . S
C705 C699 1.429 . S
C705 C706 1.523 . S
C706 C687 1.368 . S
C706 C700 1.368 . S
C706 C705 1.523 . S
C707 C691 1.429 . S
C707 C703 1.429 . S
C707 C708 1.523 . S
C708 C692 1.368 . S
C708 C704 1.368 . S
C708 C707 1.523 . S
H709 C684 0.950 . S
H710 C686 0.950 . S
H711 C687 0.949 . S
H712 C689 0.950 . S
H713 C691 0.950 . S
C714 C715 1.344 1_655 S
C714 C716 1.327 1_655 S
C714 H739 0.955 . S
C715 C714 1.344 1_455 S
C715 C731 1.349 . S
C716 C714 1.327 1_455 S
C716 C735 1.431 . S
C716 H740 0.947 1_455 S
C717 C734 1.574 . S
C717 C736 1.368 . S
C717 H741 0.949 . S
H718 C722 0.949 1_655 S
C719 C720 1.349 . S
C719 C721 1.327 1_556 S
C719 H742 0.950 . S
C720 C719 1.349 . S
C720 C732 1.349 . S
C721 C719 1.327 1_554 S
C721 C737 1.429 . S
C721 H743 0.950 . S
C722 H718 0.949 1_455 S
C722 C730 1.574 . S
C722 C738 1.368 . S
H723 C731 0.950 . S
H724 C729 0.950 . S
H725 C730 0.949 1_655 S
H726 C732 0.950 1_655 S
H727 C733 0.950 1_655 S
H728 C734 0.949 . S
C729 H724 0.950 . S
C729 C731 1.327 . S
C729 C735 1.429 . S
C730 C722 1.574 . S
C730 H725 0.949 1_455 S
C730 C736 1.368 . S
C731 C715 1.349 . S
C731 H723 0.950 . S
C731 C729 1.327 . S
C732 C720 1.349 . S
C732 H726 0.950 1_455 S
C732 C733 1.327 1_556 S
C733 H727 0.950 1_455 S
C733 C732 1.327 1_554 S
C733 C737 1.429 . S
C734 C717 1.574 . S
C734 H728 0.949 . S
C734 C738 1.368 . S
C735 C716 1.431 . S
C735 C729 1.429 . S
C735 C736 1.523 . S
C736 C717 1.368 . S
C736 C730 1.368 . S
C736 C735 1.523 . S
C737 C721 1.429 . S
C737 C733 1.429 . S
C737 C738 1.523 . S
C738 C722 1.368 . S
C738 C734 1.368 . S
C738 C737 1.523 . S
H739 C714 0.955 . S
H740 C716 0.947 1_655 S
H741 C717 0.949 . S
H742 C719 0.950 . S
H743 C721 0.950 . S
C744 C745 1.349 . S
C744 C746 1.327 . S
C744 H769 0.950 . S
C745 C744 1.349 . S
C745 C761 1.349 1_545 S
C746 C744 1.327 . S
C746 C765 1.429 . S
C746 H770 0.950 . S
C747 C764 1.574 . S
C747 C766 1.368 1_565 S
C747 H771 0.949 . S
H748 C752 0.949 . S
C749 C750 1.349 1_565 S
C749 C751 1.327 . S
C749 H772 0.950 . S
C750 C749 1.349 1_545 S
C750 C762 1.349 . S
C751 C749 1.327 . S
C751 C767 1.429 1_565 S
C751 H773 0.950 . S
C752 H748 0.949 . S
C752 C760 1.574 . S
C752 C768 1.368 . S
H753 C761 0.950 . S
H754 C759 0.950 . S
H755 C760 0.949 . S
H756 C762 0.950 . S
H757 C763 0.950 . S
H758 C764 0.949 . S
C759 H754 0.950 . S
C759 C761 1.327 . S
C759 C765 1.429 1_565 S
C760 C752 1.574 . S
C760 H755 0.949 . S
C760 C766 1.368 . S
C761 C745 1.349 1_565 S
C761 H753 0.950 . S
C761 C759 1.327 . S
C762 C750 1.349 . S
C762 H756 0.950 . S
C762 C763 1.327 . S
C763 H757 0.950 . S
C763 C762 1.327 . S
C763 C767 1.429 . S
C764 C747 1.574 . S
C764 H758 0.949 . S
C764 C768 1.368 1_565 S
C765 C746 1.429 . S
C765 C759 1.429 1_545 S
C765 C766 1.523 . S
C766 C747 1.368 1_545 S
C766 C760 1.368 . S
C766 C765 1.523 . S
C767 C751 1.429 1_545 S
C767 C763 1.429 . S
C767 C768 1.523 . S
C768 C752 1.368 . S
C768 C764 1.368 1_545 S
C768 C767 1.523 . S
H769 C744 0.950 . S
H770 C746 0.950 . S
H771 C747 0.949 . S
H772 C749 0.950 . S
H773 C751 0.950 . S
C774 C775 1.349 . S
C774 C776 1.327 . S
C774 H799 0.950 . S
C775 C774 1.349 . S
C775 C791 1.349 . S
C776 C774 1.327 . S
C776 C795 1.429 . S
C776 H800 0.950 . S
C777 C794 1.574 . S
C777 C796 1.368 . S
C777 H801 0.949 . S
H778 C782 0.949 . S
C779 C780 1.349 . S
C779 C781 1.327 . S
C779 H802 0.950 . S
C780 C779 1.349 . S
C780 C792 1.349 . S
C781 C779 1.327 . S
C781 C797 1.429 . S
C781 H803 0.950 . S
C782 H778 0.949 . S
C782 C790 1.574 . S
C782 C798 1.368 . S
H783 C791 0.950 . S
H784 C789 0.950 . S
H785 C790 0.949 . S
H786 C792 0.950 . S
H787 C793 0.950 . S
H788 C794 0.949 . S
C789 H784 0.950 . S
C789 C791 1.327 . S
C789 C795 1.429 . S
C790 C782 1.574 . S
C790 H785 0.949 . S
C790 C796 1.368 . S
C791 C775 1.349 . S
C791 H783 0.950 . S
C791 C789 1.327 . S
C792 C780 1.349 . S
C792 H786 0.950 . S
C792 C793 1.327 . S
C793 H787 0.950 . S
C793 C792 1.327 . S
C793 C797 1.429 . S
C794 C777 1.574 . S
C794 H788 0.949 . S
C794 C798 1.368 . S
C795 C776 1.429 . S
C795 C789 1.429 . S
C795 C796 1.523 . S
C796 C777 1.368 . S
C796 C790 1.368 . S
C796 C795 1.523 . S
C797 C781 1.429 . S
C797 C793 1.429 . S
C797 C798 1.523 . S
C798 C782 1.368 . S
C798 C794 1.368 . S
C798 C797 1.523 . S
H799 C774 0.950 . S
H800 C776 0.950 . S
H801 C777 0.949 . S
H802 C779 0.950 . S
H803 C781 0.950 . S
C804 C805 1.349 1_565 S
C804 C806 1.327 . S
C804 H829 0.950 . S
C805 C804 1.349 1_545 S
C805 C821 1.349 . S
C806 C804 1.327 . S
C806 C825 1.429 1_565 S
C806 H830 0.950 . S
C807 C824 1.574 . S
C807 C826 1.368 . S
C807 H831 0.949 . S
H808 C812 0.949 . S
C809 C810 1.316 1_545 S
C809 C811 1.327 . S
C809 H832 0.950 . S
C810 C809 1.316 1_565 S
C810 C822 1.380 . S
C811 C809 1.327 . S
C811 C827 1.429 . S
C811 H833 0.950 . S
C812 H808 0.949 . S
C812 C820 1.574 . S
C812 C828 1.368 1_565 S
H813 C821 0.950 . S
H814 C819 0.950 . S
H815 C820 0.949 . S
H816 C822 0.950 . S
H817 C823 0.950 . S
H818 C824 0.949 . S
C819 H814 0.950 . S
C819 C821 1.327 . S
C819 C825 1.429 . S
C820 C812 1.574 . S
C820 H815 0.949 . S
C820 C826 1.368 1_565 S
C821 C805 1.349 . S
C821 H813 0.950 . S
C821 C819 1.327 . S
C822 C810 1.380 . S
C822 H816 0.950 . S
C822 C823 1.327 . S
C823 H817 0.950 . S
C823 C822 1.327 . S
C823 C827 1.429 1_565 S
C824 C807 1.574 . S
C824 H818 0.949 . S
C824 C828 1.368 . S
C825 C806 1.429 1_545 S
C825 C819 1.429 . S
C825 C826 1.523 . S
C826 C807 1.368 . S
C826 C820 1.368 1_545 S
C826 C825 1.523 . S
C827 C811 1.429 . S
C827 C823 1.429 1_545 S
C827 C828 1.523 . S
C828 C812 1.368 1_545 S
C828 C824 1.368 . S
C828 C827 1.523 . S
H829 C804 0.950 . S
H830 C806 0.950 . S
H831 C807 0.949 . S
H832 C809 0.950 . S
H833 C811 0.950 . S
C834 C835 1.349 . S
C834 C836 1.327 . S
C834 H859 0.950 . S
C835 C834 1.349 . S
C835 C851 1.349 . S
C836 C834 1.327 . S
C836 C855 1.429 . S
C836 H860 0.950 . S
C837 C854 1.574 . S
C837 C856 1.368 . S
C837 H861 0.949 . S
H838 C842 0.949 . S
C839 C840 1.349 . S
C839 C841 1.327 1_554 S
C839 H862 0.950 . S
C840 C839 1.349 . S
C840 C852 1.349 . S
C841 C839 1.327 1_556 S
C841 C857 1.429 . S
C841 H863 0.950 . S
C842 H838 0.949 . S
C842 C850 1.574 . S
C842 C858 1.368 . S
H843 C851 0.950 . S
H844 C849 0.950 . S
H845 C850 0.949 . S
H846 C852 0.950 . S
H847 C853 0.950 . S
H848 C854 0.949 . S
C849 H844 0.950 . S
C849 C851 1.327 . S
C849 C855 1.429 . S
C850 C842 1.574 . S
C850 H845 0.949 . S
C850 C856 1.368 . S
C851 C835 1.349 . S
C851 H843 0.950 . S
C851 C849 1.327 . S
C852 C840 1.349 . S
C852 H846 0.950 . S
C852 C853 1.327 1_554 S
C853 H847 0.950 . S
C853 C852 1.327 1_556 S
C853 C857 1.429 . S
C854 C837 1.574 . S
C854 H848 0.949 . S
C854 C858 1.368 . S
C855 C836 1.429 . S
C855 C849 1.429 . S
C855 C856 1.523 . S
C856 C837 1.368 . S
C856 C850 1.368 . S
C856 C855 1.523 . S
C857 C841 1.429 . S
C857 C853 1.429 . S
C857 C858 1.523 . S
C858 C842 1.368 . S
C858 C854 1.368 . S
C858 C857 1.523 . S
H859 C834 0.950 . S
H860 C836 0.950 . S
H861 C837 0.949 . S
H862 C839 0.950 . S
H863 C841 0.950 . S
C864 C865 1.349 . S
C864 C866 1.327 . S
C864 H889 0.950 . S
C865 C864 1.349 . S
C865 C881 1.349 . S
C866 C864 1.327 . S
C866 C885 1.429 . S
C866 H890 0.950 . S
C867 C884 1.574 . S
C867 C886 1.368 . S
C867 H891 0.949 . S
H868 C872 0.949 . S
C869 C870 1.368 . S
C869 C871 1.327 . S
C869 H892 0.950 . S
C870 C869 1.368 . S
C870 C882 1.345 . S
C871 C869 1.327 . S
C871 C887 1.429 . S
C871 H893 0.950 . S
C872 H868 0.949 . S
C872 C880 1.574 . S
C872 C888 1.368 . S
H873 C881 0.950 . S
H874 C879 0.950 . S
H875 C880 0.949 . S
H876 C882 0.918 1_655 S
H877 C883 0.950 . S
H878 C884 0.949 . S
C879 H874 0.950 . S
C879 C881 1.327 . S
C879 C885 1.429 . S
C880 C872 1.574 . S
C880 H875 0.949 . S
C880 C886 1.368 . S
C881 C865 1.349 . S
C881 H873 0.950 . S
C881 C879 1.327 . S
C882 C870 1.345 . S
C882 H876 0.918 1_455 S
C882 C883 1.328 . S
C883 H877 0.950 . S
C883 C882 1.328 . S
C883 C887 1.429 . S
C884 C867 1.574 . S
C884 H878 0.949 . S
C884 C888 1.368 . S
C885 C866 1.429 . S
C885 C879 1.429 . S
C885 C886 1.523 . S
C886 C867 1.368 . S
C886 C880 1.368 . S
C886 C885 1.523 . S
C887 C871 1.429 . S
C887 C883 1.429 . S
C887 C888 1.523 . S
C888 C872 1.368 . S
C888 C884 1.368 . S
C888 C887 1.523 . S
H889 C864 0.950 . S
H890 C866 0.950 . S
H891 C867 0.949 . S
H892 C869 0.950 . S
H893 C871 0.950 . S
C355 C6 0.434 . S
C360 C331 0.416 . S
C385 C59 1.859 . S
C390 C258 1.836 . S
C415 C86 1.147 . S
C420 C297 1.150 . S
C445 C15 0.307 . S
C450 C336 0.205 . S
C480 C253 1.922 . S
C475 C50 1.940 . S
C510 C292 1.245 . S
C505 C95 1.245 . S
C535 C46 1.146 . S
C540 C180 1.147 . S
C565 C99 3.078 . S
C570 C214 3.041 . S
C595 C10 1.966 . S
C600 C136 1.956 . S
C630 C175 1.228 . S
C625 C55 1.223 . S
C660 C219 2.918 . S
C655 C90 2.923 . S
C685 C19 1.850 . S
C690 C141 1.832 . S
C720 C199 1.765 . S
C715 C18 1.691 . S
C745 C49 1.330 . S
C750 C121 1.380 . S
C775 C98 1.449 . S
C780 C160 1.508 . S
C810 C277 1.492 . S
C805 C58 1.439 . S
C840 C316 1.108 . S
C835 C89 1.085 . S
C865 C9 1.326 . S
C870 C238 1.369 1_455 S
