# Generated by pormake.
# Topology pts, (4,4)-cn, num edge types: 1
# Building blocks:
#     Node 0, Type 0, BuildingBlock: MIFKUJ_clean_linker_1, # of connection points: 4
#     Node 1, Type 0, BuildingBlock: MIFKUJ_clean_linker_1, # of connection points: 4
#     Node 2, Type 1, BuildingBlock: UXUYUI_clean_sbu_0, # of connection points: 4
#     Node 3, Type 1, BuildingBlock: UXUYUI_clean_sbu_0, # of connection points: 4
#     Edge 4, Type (0, 1), BuildingBlock: XIVTED_clean_linker_0, # of connection points: 2
#     Edge 5, Type (0, 1), BuildingBlock: XIVTED_clean_linker_0, # of connection points: 2
#     Edge 6, Type (0, 1), BuildingBlock: XIVTED_clean_linker_0, # of connection points: 2
#     Edge 7, Type (0, 1), BuildingBlock: XIVTED_clean_linker_0, # of connection points: 2
#     Edge 8, Type (0, 1), BuildingBlock: XIVTED_clean_linker_0, # of connection points: 2
#     Edge 9, Type (0, 1), BuildingBlock: XIVTED_clean_linker_0, # of connection points: 2
#     Edge 10, Type (0, 1), BuildingBlock: XIVTED_clean_linker_0, # of connection points: 2
#     Edge 11, Type (0, 1), BuildingBlock: XIVTED_clean_linker_0, # of connection points: 2
# Relax obj value: 0.001
# Max RMSD: 0.016
# Mean RMSD: 0.014
data_MOF--net-pts--node1-UXUYUI_clean_sbu_0--node2-MIFKUJ_clean_linker_1--edge1-XIVTED_clean_linker_0
_symmetry_space_group_name_H-M    P1
_symmetry_Int_Tables_number       1
_symmetry_cell_setting            triclinic
loop_
_symmetry_equiv_pos_as_xyz
'x, y, z'
_cell_length_a     36.227908
_cell_length_b     36.243471
_cell_length_c     49.725178
_cell_angle_alpha  90.023879
_cell_angle_beta   89.999024
_cell_angle_gamma 89.993589
loop_
_atom_site_label
_atom_site_type_symbol
_atom_site_fract_x
_atom_site_fract_y
_atom_site_fract_z
_atom_type_partial_charge
H0 H 0.56573 0.95547 0.0514 0.0
H1 H 0.62217 0.95604 0.07843 0.0
H2 H 0.65264 0.06071 0.04326 0.0
H3 H 0.59579 0.06029 0.01667 0.0
H4 H 0.50843 0.00413 0.05162 0.0
H5 H 0.59679 0.95882 0.98731 0.0
H6 H 0.65371 0.95927 0.96084 0.0
H7 H 0.62142 0.06311 0.92522 0.0
H8 H 0.56491 0.06285 0.95218 0.0
H9 H 0.45092 0.06125 0.95197 0.0
H10 H 0.39439 0.06077 0.92523 0.0
H11 H 0.36458 0.95555 0.95997 0.0
H12 H 0.42091 0.95667 0.98705 0.0
H13 H 0.50835 0.01348 0.95211 0.0
H14 H 0.4161 0.05483 0.01316 0.0
H15 H 0.35931 0.05382 0.03925 0.0
H16 H 0.39977 0.95934 0.08352 0.0
H17 H 0.45508 0.95871 0.05574 0.0
C18 C 0.5767 0.00769 0.0319 0.0
C19 C 0.5846 0.97852 0.04953 0.0
C20 C 0.61697 0.97876 0.0648 0.0
C21 C 0.6419 0.00839 0.06293 0.0
C22 C 0.63385 0.03765 0.0453 0.0
C23 C 0.60155 0.03729 0.02994 0.0
C24 C 0.54204 0.00753 0.01605 0.0
C25 C 0.5083 0.00555 0.02982 0.0
C26 C 0.54206 0.01057 0.9877 0.0
C27 C 0.57677 0.01097 0.97189 0.0
C28 C 0.60215 0.98184 0.97398 0.0
C29 C 0.63451 0.98197 0.95867 0.0
C30 C 0.64208 0.01124 0.94094 0.0
C31 C 0.61661 0.0404 0.93893 0.0
C32 C 0.58419 0.04017 0.95416 0.0
C33 C 0.44001 0.00913 0.97161 0.0
C34 C 0.43218 0.03808 0.95379 0.0
C35 C 0.39991 0.03767 0.93844 0.0
C36 C 0.37491 0.00807 0.94038 0.0
C37 C 0.38289 0.97904 0.95826 0.0
C38 C 0.41515 0.97955 0.97369 0.0
C39 C 0.47452 0.00965 0.98765 0.0
C40 C 0.50831 0.01188 0.9739 0.0
C41 C 0.47444 0.0068 0.01607 0.0
C42 C 0.43971 0.0064 0.03205 0.0
C43 C 0.41239 0.03335 0.02804 0.0
C44 C 0.38008 0.03312 0.04339 0.0
C45 C 0.3747 0.00651 0.06365 0.0
C46 C 0.40239 0.97984 0.06781 0.0
C47 C 0.43437 0.97969 0.05212 0.0
H48 H 0.06463 0.4511 0.45336 0.0
H49 H 0.06612 0.39475 0.42641 0.0
H50 H 0.95949 0.36364 0.45828 0.0
H51 H 0.95876 0.41964 0.48566 0.0
H52 H 0.01384 0.50784 0.45221 0.0
H53 H 0.0599 0.41945 0.51679 0.0
H54 H 0.05944 0.36249 0.54322 0.0
H55 H 0.95428 0.39353 0.57746 0.0
H56 H 0.95458 0.45004 0.55057 0.0
H57 H 0.95867 0.56003 0.55595 0.0
H58 H 0.95886 0.61553 0.58396 0.0
H59 H 0.05458 0.65571 0.5414 0.0
H60 H 0.05538 0.59946 0.51412 0.0
H61 H 0.00406 0.50681 0.55167 0.0
H62 H 0.9595 0.59769 0.48992 0.0
H63 H 0.95926 0.65463 0.46376 0.0
H64 H 0.05765 0.61858 0.42206 0.0
H65 H 0.05893 0.56285 0.44945 0.0
C66 C 0.01173 0.43941 0.47162 0.0
C67 C 0.04164 0.43205 0.45455 0.0
C68 C 0.04233 0.39989 0.43905 0.0
C69 C 0.01288 0.3746 0.44009 0.0
C70 C 0.98293 0.38213 0.45728 0.0
C71 C 0.98238 0.41421 0.47289 0.0
C72 C 0.01086 0.47392 0.48761 0.0
C73 C 0.01219 0.50777 0.474 0.0
C74 C 0.00753 0.47362 0.51592 0.0
C75 C 0.00712 0.43881 0.53156 0.0
C76 C 0.0366 0.41378 0.5298 0.0
C77 C 0.03645 0.38142 0.54508 0.0
C78 C 0.00681 0.37351 0.56242 0.0
C79 C 0.97729 0.39861 0.56405 0.0
C80 C 0.97754 0.43102 0.54886 0.0
C81 C 0.00674 0.57563 0.53265 0.0
C82 C 0.97985 0.58064 0.55269 0.0
C83 C 0.97994 0.61234 0.56868 0.0
C84 C 0.00666 0.63986 0.56473 0.0
C85 C 0.03343 0.63505 0.5446 0.0
C86 C 0.03377 0.603 0.52894 0.0
C87 C 0.0071 0.5412 0.51634 0.0
C88 C 0.00563 0.5072 0.52988 0.0
C89 C 0.00998 0.54147 0.4879 0.0
C90 C 0.00953 0.57616 0.47196 0.0
C91 C 0.98135 0.60233 0.47544 0.0
C92 C 0.98099 0.63472 0.46018 0.0
C93 C 0.00847 0.64136 0.44075 0.0
C94 C 0.03642 0.61484 0.43714 0.0
C95 C 0.03697 0.58269 0.4526 0.0
Li96 Li 0.00965 0.0416 0.2694 0.0
Li97 Li 0.00702 0.97393 0.2703 0.0
Li98 Li 0.04232 0.00854 0.23426 0.0
Li99 Li 0.97447 0.00696 0.23366 0.0
C100 C 0.07234 0.02049 0.29387 0.0
N101 N 0.11397 0.05046 0.33498 0.0
C102 C 0.07013 0.00583 0.31981 0.0
C103 C 0.0961 0.05003 0.28874 0.0
C104 C 0.09131 0.02146 0.34035 0.0
C105 C 0.11679 0.06491 0.30982 0.0
C106 C 0.93539 0.99681 0.28691 0.0
C107 C 0.88316 0.95584 0.2904 0.0
N108 N 0.87475 0.97076 0.31475 0.0
C109 C 0.92601 0.01202 0.31182 0.0
C110 C 0.91363 0.96873 0.27599 0.0
C111 C 0.89534 0.99835 0.32564 0.0
C112 C 0.0093 0.11827 0.2804 0.0
N113 N 0.00966 0.08423 0.29183 0.0
C114 C 0.01027 0.11078 0.33585 0.0
C115 C 0.0097 0.07998 0.31899 0.0
C116 C 0.01026 0.14641 0.32466 0.0
C117 C 0.00959 0.14986 0.29649 0.0
H118 H 0.00851 0.12094 0.25877 0.0
H119 H 0.00933 0.0526 0.32758 0.0
C120 C 0.02494 0.9007 0.2838 0.0
N121 N 0.00692 0.93127 0.29267 0.0
C122 C 0.02587 0.86879 0.29954 0.0
C123 C 0.98991 0.9005 0.33334 0.0
C124 C 0.98999 0.93188 0.31708 0.0
C125 C 0.008 0.86841 0.3246 0.0
H126 H 0.03861 0.90113 0.26446 0.0
H127 H 0.97699 0.95684 0.32414 0.0
C128 C 0.02139 0.07262 0.21025 0.0
N129 N 0.05051 0.11627 0.16996 0.0
C130 C 0.00408 0.07439 0.18516 0.0
C131 C 0.05323 0.09342 0.21496 0.0
C132 C 0.0193 0.09654 0.16502 0.0
C133 C 0.06761 0.1152 0.19429 0.0
C134 C 0.99848 0.93598 0.21525 0.0
C135 C 0.01318 0.93133 0.18948 0.0
C136 C 0.97309 0.91033 0.22514 0.0
C137 C 0.0015 0.90158 0.17376 0.0
C138 C 0.96213 0.88092 0.20882 0.0
N139 N 0.9764 0.87722 0.18367 0.0
C140 C 0.11844 1.00027 0.22363 0.0
C141 C 0.08214 0.01329 0.18512 0.0
C142 C 0.15046 0.99929 0.20798 0.0
N143 N 0.08521 0.00743 0.21204 0.0
C144 C 0.11349 0.01328 0.16882 0.0
C145 C 0.14817 0.00618 0.18026 0.0
H146 H 0.12006 0.99524 0.24503 0.0
H147 H 0.05531 0.01784 0.17626 0.0
C148 C 0.90007 0.0221 0.22057 0.0
N149 N 0.93191 0.0071 0.21108 0.0
C150 C 0.86834 0.02249 0.2046 0.0
C151 C 0.90298 0.99276 0.16916 0.0
C152 C 0.93403 0.99309 0.18577 0.0
C153 C 0.86951 0.00747 0.17856 0.0
H154 H 0.89928 0.03373 0.24059 0.0
H155 H 0.95995 0.98267 0.17827 0.0
O156 O 0.05153 0.00581 0.27357 0.0
O157 O 0.96549 0.00975 0.27322 0.0
O158 O 0.00703 0.05086 0.23013 0.0
O159 O 0.00972 0.96494 0.23091 0.0
H160 H 0.05204 0.98284 0.32409 0.0
H161 H 0.0985 0.06135 0.26872 0.0
H162 H 0.0897 0.01056 0.36056 0.0
H163 H 0.13514 0.08792 0.30617 0.0
H164 H 0.86612 0.93407 0.28219 0.0
H165 H 0.94234 0.03399 0.32047 0.0
H166 H 0.91991 0.95731 0.25646 0.0
H167 H 0.8879 0.00971 0.34502 0.0
H168 H 0.01114 0.10665 0.3574 0.0
H169 H 0.00875 0.17668 0.28692 0.0
H170 H 0.04002 0.84455 0.29204 0.0
H171 H 0.97643 0.90156 0.35277 0.0
H172 H 0.97927 0.05871 0.18124 0.0
H173 H 0.06675 0.09264 0.23432 0.0
H174 H 0.00631 0.09803 0.14547 0.0
H175 H 0.09237 0.13126 0.19761 0.0
H176 H 0.03317 0.95066 0.1816 0.0
H177 H 0.96225 0.91278 0.2453 0.0
H178 H 0.01243 0.89784 0.1537 0.0
H179 H 0.94241 0.86093 0.21621 0.0
H180 H 0.17679 0.99373 0.21749 0.0
H181 H 0.11061 0.01817 0.14743 0.0
H182 H 0.84308 0.034 0.21268 0.0
H183 H 0.90532 0.98167 0.149 0.0
Li184 Li 0.975 0.00881 0.77045 0.0
Li185 Li 0.04244 0.0062 0.76907 0.0
Li186 Li 0.00774 0.04177 0.73384 0.0
Li187 Li 0.00926 0.97387 0.73398 0.0
C188 C 0.99609 0.08065 0.78623 0.0
N189 N 0.96656 0.14143 0.81204 0.0
C190 C 0.00976 0.09164 0.81127 0.0
C191 C 0.9678 0.10093 0.77415 0.0
C192 C 0.99435 0.12233 0.82406 0.0
C193 C 0.95314 0.13148 0.78754 0.0
C194 C 0.02316 0.94426 0.79342 0.0
C195 C 0.06896 0.90066 0.80851 0.0
N196 N 0.05681 0.90496 0.83421 0.0
C197 C 0.01089 0.94801 0.81993 0.0
C198 C 0.0522 0.92018 0.78759 0.0
C199 C 0.02835 0.92797 0.84028 0.0
C200 C 0.9013 0.99212 0.78384 0.0
N201 N 0.93248 0.00876 0.79302 0.0
C202 C 0.90256 0.02458 0.83429 0.0
C203 C 0.9338 0.02441 0.81785 0.0
C204 C 0.86975 0.00809 0.82521 0.0
C205 C 0.86943 0.99155 0.79965 0.0
H206 H 0.90116 0.97938 0.76417 0.0
H207 H 0.95922 0.03635 0.82508 0.0
C208 C 0.11914 0.00185 0.77976 0.0
N209 N 0.08537 0.00591 0.79127 0.0
C210 C 0.15091 0.0016 0.79563 0.0
C211 C 0.11264 0.01008 0.83496 0.0
C212 C 0.0816 0.0101 0.81829 0.0
C213 C 0.14797 0.00586 0.82366 0.0
H214 H 0.12149 0.99899 0.75823 0.0
H215 H 0.05443 0.01356 0.82692 0.0
C216 C 0.93675 0.01718 0.71506 0.0
N217 N 0.87812 0.03777 0.68278 0.0
C218 C 0.93312 0.00251 0.68919 0.0
C219 C 0.91009 0.04175 0.72469 0.0
C220 C 0.90344 0.01343 0.67312 0.0
C221 C 0.88078 0.05197 0.70803 0.0
C222 C 0.07271 0.99552 0.70933 0.0
C223 C 0.07482 0.01447 0.68489 0.0
C224 C 0.09255 0.96277 0.71272 0.0
C225 C 0.0964 1.00003 0.66411 0.0
C226 C 0.11379 0.94922 0.69145 0.0
N227 N 0.11524 0.96796 0.66778 0.0
C228 C 0.02368 0.11602 0.72098 0.0
C229 C 0.99347 0.08294 0.68628 0.0
C230 C 0.02438 0.14787 0.70517 0.0
N231 N 0.00796 0.08455 0.71147 0.0
C232 C 0.99346 0.11412 0.66982 0.0
C233 C 0.00894 0.14721 0.67925 0.0
H234 H 0.03565 0.1164 0.7409 0.0
H235 H 0.9825 0.0573 0.67873 0.0
C236 C 1.00062 0.89796 0.72286 0.0
N237 N 0.00793 0.93122 0.71147 0.0
C238 C 0.99965 0.86606 0.70708 0.0
C239 C 0.0139 0.90325 0.66814 0.0
C240 C 0.01396 0.93444 0.68459 0.0
C241 C 0.00662 0.86833 0.67928 0.0
H242 H 0.99533 0.89622 0.74423 0.0
H243 H 0.01898 0.96127 0.67588 0.0
O244 O 0.0107 0.05046 0.77356 0.0
O245 O 0.00685 0.96414 0.77329 0.0
O246 O 0.96563 0.00663 0.73108 0.0
O247 O 0.05153 0.00917 0.72984 0.0
H248 H 0.03191 0.07654 0.82081 0.0
H249 H 0.9576 0.09348 0.7545 0.0
H250 H 0.00451 0.13098 0.84352 0.0
H251 H 0.93119 0.14737 0.77842 0.0
H252 H 0.09161 0.88208 0.80431 0.0
H253 H 0.98838 0.96644 0.82477 0.0
H254 H 0.06174 0.91666 0.76716 0.0
H255 H 0.01932 0.93079 0.86092 0.0
H256 H 0.90427 0.03696 0.85408 0.0
H257 H 0.84469 0.9787 0.79179 0.0
H258 H 0.17747 0.99782 0.78603 0.0
H259 H 0.10901 0.014 0.85638 0.0
H260 H 0.95318 0.98315 0.68149 0.0
H261 H 0.91166 0.0525 0.74492 0.0
H262 H 0.90052 0.00253 0.65298 0.0
H263 H 0.86005 0.07105 0.71522 0.0
H264 H 0.05993 0.04 0.68197 0.0
H265 H 0.09135 0.94784 0.7315 0.0
H266 H 0.09817 0.01433 0.64507 0.0
H267 H 0.12908 0.92378 0.69375 0.0
H268 H 0.03648 0.17283 0.71328 0.0
H269 H 0.98204 0.11214 0.64974 0.0
H270 H 0.99306 0.84004 0.7166 0.0
H271 H 0.01994 0.90658 0.64696 0.0
H272 H 0.33468 0.06654 0.08127 0.0
H273 H 0.20168 0.95313 0.17774 0.0
H274 H 0.33689 0.94741 0.08514 0.0
H275 H 0.17072 0.05844 0.14428 0.0
H276 H 0.25684 0.95297 0.14907 0.0
H277 H 0.27923 0.06639 0.1091 0.0
C278 C 0.32349 0.0403 0.0877 0.0
C279 C 0.34073 0.0069 0.08063 0.0
C280 C 0.23791 0.97605 0.14801 0.0
C281 C 0.27768 0.00681 0.11329 0.0
C282 C 0.20665 0.97626 0.16443 0.0
C283 C 0.18172 0.00582 0.16328 0.0
C284 C 0.24459 0.00595 0.13073 0.0
C285 C 0.18919 0.03502 0.14558 0.0
C286 C 0.2919 0.04033 0.10376 0.0
C287 C 0.32517 0.97392 0.09035 0.0
N288 N 0.22012 0.03449 0.13011 0.0
N289 N 0.2947 0.97473 0.10628 0.0
H290 H 0.94937 0.32613 0.57213 0.0
H291 H 0.06498 0.19719 0.67221 0.0
H292 H 0.06439 0.3436 0.59076 0.0
H293 H 0.95346 0.1735 0.64705 0.0
H294 H 0.06468 0.25211 0.64369 0.0
H295 H 0.94977 0.27113 0.60056 0.0
C296 C 0.97469 0.31844 0.58227 0.0
C297 C 0.00689 0.33952 0.57908 0.0
C298 C 0.04029 0.23487 0.64437 0.0
C299 C 0.00761 0.27647 0.61158 0.0
C300 C 0.04036 0.20364 0.6608 0.0
C301 C 0.00919 0.1807 0.66204 0.0
C302 C 0.00875 0.2434 0.62916 0.0
C303 C 0.97825 0.19015 0.64649 0.0
C304 C 0.97495 0.28693 0.59839 0.0
C305 C 0.03904 0.32796 0.59241 0.0
N306 N 0.97878 0.2208 0.63076 0.0
N307 N 0.03855 0.2973 0.60814 0.0
H308 H 0.67141 0.06661 0.09077 0.0
H309 H 0.84441 0.95181 0.14605 0.0
H310 H 0.68975 0.95148 0.07311 0.0
H311 H 0.8186 0.06268 0.17155 0.0
H312 H 0.78959 0.95217 0.11741 0.0
H313 H 0.72707 0.06675 0.11857 0.0
C314 C 0.68729 0.04141 0.0926 0.0
C315 C 0.6759 0.00897 0.07959 0.0
C316 C 0.79588 0.97641 0.12929 0.0
C317 C 0.73951 0.00885 0.11157 0.0
C318 C 0.82729 0.9763 0.14553 0.0
C319 C 0.83612 0.00727 0.16123 0.0
C320 C 0.77315 0.0078 0.12859 0.0
C321 C 0.81264 0.03805 0.16003 0.0
C322 C 0.71893 0.04144 0.10862 0.0
C323 C 0.69727 0.97699 0.08301 0.0
N324 N 0.7823 0.03757 0.14395 0.0
N325 N 0.72806 0.97776 0.09861 0.0
H326 H 0.00378 0.64348 0.61953 0.0
H327 H 0.98435 0.8617 0.62646 0.0
H328 H 0.00983 0.71198 0.54877 0.0
H329 H 0.02799 0.79761 0.69251 0.0
H330 H 0.98527 0.80643 0.59845 0.0
H331 H 0.00378 0.69915 0.64758 0.0
C332 C 0.00498 0.67029 0.60994 0.0
C333 C 0.00682 0.67327 0.58185 0.0
C334 C 0.99467 0.8046 0.61908 0.0
C335 C 0.00656 0.73682 0.61368 0.0
C336 C 0.99439 0.83621 0.63512 0.0
C337 C 0.00628 0.83463 0.66203 0.0
C338 C 0.00631 0.77093 0.63006 0.0
C339 C 0.01797 0.8003 0.67211 0.0
C340 C 0.00518 0.70195 0.62592 0.0
C341 C 0.00863 0.70859 0.57039 0.0
N342 N 0.01753 0.76983 0.65617 0.0
N343 N 0.00818 0.73906 0.58635 0.0
H344 H 0.30535 0.98452 0.95445 0.0
H345 H 0.21513 0.0375 0.81275 0.0
H346 H 0.36689 0.0299 0.88786 0.0
H347 H 0.1575 0.97567 0.87394 0.0
H348 H 0.27013 0.03761 0.841 0.0
H349 H 0.25008 0.98353 0.92625 0.0
C350 C 0.30735 0.99409 0.93388 0.0
C351 C 0.34093 0.00735 0.92357 0.0
C352 C 0.24548 0.02396 0.84825 0.0
C353 C 0.27754 0.00675 0.89127 0.0
C354 C 0.21406 0.0237 0.83204 0.0
C355 C 0.18156 0.00639 0.84087 0.0
C356 C 0.24452 0.00695 0.8736 0.0
C357 C 0.18174 0.98971 0.86639 0.0
C358 C 0.2757 0.99368 0.91783 0.0
C359 C 0.34157 0.01998 0.89686 0.0
N360 N 0.2127 0.99041 0.88184 0.0
N361 N 0.3104 0.01939 0.88169 0.0
H362 H 0.0379 0.36721 0.38822 0.0
H363 H 0.97512 0.15691 0.37312 0.0
H364 H 0.9883 0.30492 0.45282 0.0
H365 H 0.04645 0.21208 0.31632 0.0
H366 H 0.97645 0.21185 0.40152 0.0
H367 H 0.03806 0.31166 0.36051 0.0
C368 C 0.0273 0.34182 0.39671 0.0
C369 C 0.01316 0.34085 0.42301 0.0
C370 C 0.99185 0.21188 0.38286 0.0
C371 C 0.01265 0.27714 0.39107 0.0
C372 C 0.99129 0.18042 0.36666 0.0
C373 C 0.01074 0.17971 0.34221 0.0
C374 C 0.01179 0.24306 0.37454 0.0
C375 C 0.03055 0.21143 0.33474 0.0
C376 C 0.02722 0.31013 0.38078 0.0
C377 C 0.99903 0.30721 0.43258 0.0
N378 N 0.0305 0.24178 0.3508 0.0
N379 N 0.99908 0.27675 0.41662 0.0
H380 H 0.68875 0.06901 0.93035 0.0
H381 H 0.82058 0.9516 0.8333 0.0
H382 H 0.67295 0.95325 0.91358 0.0
H383 H 0.84236 0.06438 0.85623 0.0
H384 H 0.76532 0.95223 0.86148 0.0
H385 H 0.74412 0.06839 0.90224 0.0
C386 C 0.69686 0.04348 0.92068 0.0
C387 C 0.67616 0.01113 0.92432 0.0
C388 C 0.7822 0.97684 0.86039 0.0
C389 C 0.73965 0.01017 0.8922 0.0
C390 C 0.81365 0.97657 0.84416 0.0
C391 C 0.83615 0.008 0.84237 0.0
C392 C 0.77301 0.00883 0.87487 0.0
C393 C 0.82607 0.03939 0.85723 0.0
C394 C 0.72859 0.0431 0.90474 0.0
C395 C 0.68829 0.97873 0.91158 0.0
N396 N 0.79522 0.03903 0.87279 0.0
N397 N 0.71914 0.97911 0.89604 0.0
H398 H 0.94817 0.67783 0.42008 0.0
H399 H 0.06667 0.82344 0.33605 0.0
H400 H 0.06724 0.6829 0.42311 0.0
H401 H 0.95043 0.83715 0.35203 0.0
H402 H 0.06685 0.76835 0.36452 0.0
H403 H 0.94792 0.73334 0.3923 0.0
C404 C 0.97427 0.69069 0.41514 0.0
C405 C 0.0078 0.67548 0.42406 0.0
C406 C 0.04132 0.78346 0.36183 0.0
C407 C 0.00763 0.73875 0.39167 0.0
C408 C 0.04116 0.81473 0.34545 0.0
C409 C 0.00848 0.83487 0.34169 0.0
C410 C 0.00848 0.77198 0.3743 0.0
C411 C 0.97629 0.8226 0.35461 0.0
C412 C 0.97408 0.72231 0.39911 0.0
C413 C 0.04073 0.69312 0.4164 0.0
N414 N 0.97705 0.79186 0.37024 0.0
N415 N 0.03981 0.72369 0.4006 0.0
loop_
_geom_bond_atom_site_label_1
_geom_bond_atom_site_label_2
_geom_bond_distance
_geom_bond_site_symmetry_2
_ccdc_geom_bond_type
H0 C19 0.949 . S
H1 C20 0.950 . S
H2 C22 0.950 . S
H3 C23 0.950 . S
H4 C25 0.945 1_565 S
H5 C28 0.950 . S
H6 C29 0.950 . S
H7 C31 0.951 . S
H8 C32 0.949 . S
H9 C34 0.949 . S
H10 C35 0.950 . S
H11 C37 0.950 . S
H12 C38 0.950 . S
H13 C40 0.950 . S
H14 C43 0.950 . S
H15 C44 0.950 . S
H16 C46 0.951 . S
H17 C47 0.949 . S
C18 C19 1.376 1_545 S
C18 C23 1.386 . S
C18 C24 1.483 . S
C19 H0 0.949 . S
C19 C18 1.376 1_565 S
C19 C20 1.397 . S
C20 H1 0.950 . S
C20 C19 1.397 . S
C20 C21 1.391 1_565 S
C21 C20 1.391 1_545 S
C21 C22 1.405 . S
C22 H2 0.950 . S
C22 C21 1.405 . S
C22 C23 1.367 . S
C23 H3 0.950 . S
C23 C18 1.386 . S
C23 C22 1.367 . S
C24 C18 1.483 . S
C24 C25 1.385 . S
C24 C26 1.403 1_554 S
C25 H4 0.945 1_545 S
C25 C24 1.385 . S
C25 C41 1.414 . S
C26 C24 1.403 1_556 S
C26 C27 1.489 . S
C26 C40 1.411 . S
C27 C26 1.489 . S
C27 C28 1.383 1_545 S
C27 C32 1.382 . S
C28 H5 0.950 . S
C28 C27 1.383 1_565 S
C28 C29 1.395 . S
C29 H6 0.950 . S
C29 C28 1.395 . S
C29 C30 1.288 1_565 S
C30 C29 1.288 1_545 S
C30 C31 1.392 . S
C31 H7 0.951 . S
C31 C30 1.392 . S
C31 C32 1.392 . S
C32 H8 0.949 . S
C32 C27 1.382 . S
C32 C31 1.392 . S
C33 C34 1.376 . S
C33 C38 1.386 1_545 S
C33 C39 1.483 . S
C34 H9 0.949 . S
C34 C33 1.376 . S
C34 C35 1.397 . S
C35 H10 0.950 . S
C35 C34 1.397 . S
C35 C36 1.391 . S
C36 C35 1.391 . S
C36 C37 1.405 1_545 S
C37 H11 0.950 . S
C37 C36 1.405 1_565 S
C37 C38 1.367 . S
C38 H12 0.950 . S
C38 C33 1.386 1_565 S
C38 C37 1.367 . S
C39 C33 1.483 . S
C39 C40 1.382 . S
C39 C41 1.403 1_556 S
C40 H13 0.950 . S
C40 C26 1.411 . S
C40 C39 1.382 . S
C41 C25 1.414 . S
C41 C39 1.403 1_554 S
C41 C42 1.489 . S
C42 C41 1.489 . S
C42 C43 1.383 . S
C42 C47 1.382 1_545 S
C43 H14 0.950 . S
C43 C42 1.383 . S
C43 C44 1.395 . S
C44 H15 0.950 . S
C44 C43 1.395 . S
C44 C45 1.288 . S
C45 C44 1.288 . S
C45 C46 1.392 1_545 S
C46 H16 0.951 . S
C46 C45 1.392 1_565 S
C46 C47 1.392 . S
C47 H17 0.949 . S
C47 C42 1.382 1_565 S
C47 C46 1.392 . S
H48 C67 0.949 . S
H49 C68 0.950 . S
H50 C70 0.950 . S
H51 C71 0.950 . S
H52 C73 0.950 . S
H53 C76 0.950 . S
H54 C77 0.950 . S
H55 C79 0.951 . S
H56 C80 0.949 . S
H57 C82 0.949 . S
H58 C83 0.950 . S
H59 C85 0.950 . S
H60 C86 0.950 . S
H61 C88 0.946 1_655 S
H62 C91 0.950 . S
H63 C92 0.950 . S
H64 C94 0.951 . S
H65 C95 0.949 . S
C66 C67 1.376 . S
C66 C71 1.386 1_455 S
C66 C72 1.483 . S
C67 H48 0.949 . S
C67 C66 1.376 . S
C67 C68 1.397 . S
C68 H49 0.950 . S
C68 C67 1.397 . S
C68 C69 1.391 . S
C69 C68 1.391 . S
C69 C70 1.405 1_455 S
C70 H50 0.950 . S
C70 C69 1.405 1_655 S
C70 C71 1.367 . S
C71 H51 0.950 . S
C71 C66 1.386 1_655 S
C71 C70 1.367 . S
C72 C66 1.483 . S
C72 C73 1.382 . S
C72 C74 1.403 . S
C73 H52 0.950 . S
C73 C72 1.382 . S
C73 C89 1.411 . S
C74 C72 1.403 . S
C74 C75 1.489 . S
C74 C88 1.414 . S
C75 C74 1.489 . S
C75 C76 1.383 . S
C75 C80 1.382 1_455 S
C76 H53 0.950 . S
C76 C75 1.383 . S
C76 C77 1.395 . S
C77 H54 0.950 . S
C77 C76 1.395 . S
C77 C78 1.288 . S
C78 C77 1.288 . S
C78 C79 1.392 1_455 S
C79 H55 0.951 . S
C79 C78 1.392 1_655 S
C79 C80 1.392 . S
C80 H56 0.949 . S
C80 C75 1.382 1_655 S
C80 C79 1.392 . S
C81 C82 1.376 1_455 S
C81 C86 1.386 . S
C81 C87 1.483 . S
C82 H57 0.949 . S
C82 C81 1.376 1_655 S
C82 C83 1.397 . S
C83 H58 0.950 . S
C83 C82 1.397 . S
C83 C84 1.391 1_655 S
C84 C83 1.391 1_455 S
C84 C85 1.405 . S
C85 H59 0.950 . S
C85 C84 1.405 . S
C85 C86 1.367 . S
C86 H60 0.950 . S
C86 C81 1.386 . S
C86 C85 1.367 . S
C87 C81 1.483 . S
C87 C88 1.384 . S
C87 C89 1.403 . S
C88 H61 0.946 1_455 S
C88 C74 1.414 . S
C88 C87 1.384 . S
C89 C73 1.411 . S
C89 C87 1.403 . S
C89 C90 1.489 . S
C90 C89 1.489 . S
C90 C91 1.383 1_455 S
C90 C95 1.382 . S
C91 H62 0.950 . S
C91 C90 1.383 1_655 S
C91 C92 1.395 . S
C92 H63 0.950 . S
C92 C91 1.395 . S
C92 C93 1.288 1_655 S
C93 C92 1.288 1_455 S
C93 C94 1.392 . S
C94 H64 0.951 . S
C94 C93 1.392 . S
C94 C95 1.392 . S
C95 H65 0.949 . S
C95 C90 1.382 . S
C95 C94 1.392 . S
Li96 N113 1.990 . S
Li96 O156 1.956 . S
Li96 O157 1.970 1_455 S
Li96 O158 1.961 . S
Li97 N121 1.990 . S
Li97 O156 1.970 1_565 S
Li97 O157 1.956 1_465 S
Li97 O159 1.961 . S
Li98 N143 1.990 . S
Li98 O156 1.961 . S
Li98 O158 1.956 . S
Li98 O159 1.970 1_545 S
Li99 N149 1.990 . S
Li99 O157 1.961 . S
Li99 O158 1.970 1_655 S
Li99 O159 1.956 1_645 S
C100 C102 1.348 1_545 S
C100 C103 1.356 . S
C100 O156 1.325 . S
N101 C104 1.314 1_545 S
N101 C105 1.279 . S
C102 C100 1.348 1_565 S
C102 C104 1.353 . S
C102 H160 0.929 . S
C103 C100 1.356 . S
C103 C105 1.358 . S
C103 H161 0.930 . S
C104 N101 1.314 1_565 S
C104 C102 1.353 . S
C104 H162 0.930 . S
C105 N101 1.279 . S
C105 C103 1.358 . S
C105 H163 0.930 . S
C106 C109 1.348 . S
C106 C110 1.356 1_545 S
C106 O157 1.325 . S
C107 N108 1.279 1_565 S
C107 C110 1.358 . S
C107 H164 0.930 . S
N108 C107 1.279 1_545 S
N108 C111 1.314 . S
C109 C106 1.348 . S
C109 C111 1.353 . S
C109 H165 0.929 . S
C110 C106 1.356 1_565 S
C110 C107 1.358 . S
C110 H166 0.930 . S
C111 N108 1.314 . S
C111 C109 1.353 . S
C111 H167 0.930 . S
C112 N113 1.314 1_655 S
C112 C117 1.353 . S
C112 H118 0.930 . S
N113 Li96 1.990 . S
N113 C112 1.314 1_455 S
N113 C115 1.279 . S
C114 C115 1.358 . S
C114 C116 1.356 . S
C114 H168 0.930 . S
C115 N113 1.279 . S
C115 C114 1.358 . S
C115 H119 0.930 . S
C116 C114 1.356 . S
C116 C117 1.348 1_455 S
C117 C112 1.353 . S
C117 C116 1.348 1_655 S
C117 H169 0.929 . S
H118 C112 0.930 . S
H119 C115 0.930 . S
C120 N121 1.314 . S
C120 C122 1.353 . S
C120 H126 0.930 . S
N121 Li97 1.990 . S
N121 C120 1.314 . S
N121 C124 1.279 1_455 S
C122 C120 1.353 . S
C122 C125 1.348 . S
C122 H170 0.929 . S
C123 C124 1.358 . S
C123 C125 1.356 1_655 S
C123 H171 0.930 . S
C124 N121 1.279 1_655 S
C124 C123 1.358 . S
C124 H127 0.930 . S
C125 C122 1.348 . S
C125 C123 1.356 1_455 S
H126 C120 0.930 . S
H127 C124 0.930 . S
C128 C130 1.348 1_455 S
C128 C131 1.356 . S
C128 O158 1.325 . S
N129 C132 1.314 1_455 S
N129 C133 1.279 . S
C130 C128 1.348 1_655 S
C130 C132 1.353 . S
C130 H172 0.929 . S
C131 C128 1.356 . S
C131 C133 1.358 . S
C131 H173 0.930 . S
C132 N129 1.314 1_655 S
C132 C130 1.353 . S
C132 H174 0.930 . S
C133 N129 1.279 . S
C133 C131 1.358 . S
C133 H175 0.930 . S
C134 C135 1.348 . S
C134 C136 1.356 1_455 S
C134 O159 1.325 . S
C135 C134 1.348 . S
C135 C137 1.353 . S
C135 H176 0.929 . S
C136 C134 1.356 1_655 S
C136 C138 1.358 . S
C136 H177 0.930 . S
C137 C135 1.353 . S
C137 N139 1.314 . S
C137 H178 0.930 . S
C138 C136 1.358 . S
C138 N139 1.279 1_655 S
C138 H179 0.930 . S
N139 C137 1.314 . S
N139 C138 1.279 1_455 S
C140 C142 1.353 . S
C140 N143 1.314 1_565 S
C140 H146 0.930 . S
C141 N143 1.279 . S
C141 C144 1.358 . S
C141 H147 0.930 . S
C142 C140 1.353 . S
C142 C145 1.348 1_565 S
C142 H180 0.929 . S
N143 Li98 1.990 . S
N143 C140 1.314 1_545 S
N143 C141 1.279 . S
C144 C141 1.358 . S
C144 C145 1.356 . S
C144 H181 0.930 . S
C145 C142 1.348 1_545 S
C145 C144 1.356 . S
H146 C140 0.930 . S
H147 C141 0.930 . S
C148 N149 1.314 . S
C148 C150 1.353 . S
C148 H154 0.930 . S
N149 Li99 1.990 . S
N149 C148 1.314 . S
N149 C152 1.279 1_545 S
C150 C148 1.353 . S
C150 C153 1.348 . S
C150 H182 0.929 . S
C151 C152 1.358 . S
C151 C153 1.356 1_565 S
C151 H183 0.930 . S
C152 N149 1.279 1_565 S
C152 C151 1.358 . S
C152 H155 0.930 . S
C153 C150 1.348 . S
C153 C151 1.356 1_545 S
H154 C148 0.930 . S
H155 C152 0.930 . S
O156 Li96 1.956 . S
O156 Li97 1.970 1_545 S
O156 Li98 1.961 . S
O156 C100 1.325 . S
O157 Li96 1.970 1_655 S
O157 Li97 1.956 1_645 S
O157 Li99 1.961 . S
O157 C106 1.325 . S
O158 Li96 1.961 . S
O158 Li98 1.956 . S
O158 Li99 1.970 1_455 S
O158 C128 1.325 . S
O159 Li97 1.961 . S
O159 Li98 1.970 1_565 S
O159 Li99 1.956 1_465 S
O159 C134 1.325 . S
H160 C102 0.929 . S
H161 C103 0.930 . S
H162 C104 0.930 . S
H163 C105 0.930 . S
H164 C107 0.930 . S
H165 C109 0.929 . S
H166 C110 0.930 . S
H167 C111 0.930 . S
H168 C114 0.930 . S
H169 C117 0.929 . S
H170 C122 0.929 . S
H171 C123 0.930 . S
H172 C130 0.929 . S
H173 C131 0.930 . S
H174 C132 0.930 . S
H175 C133 0.930 . S
H176 C135 0.929 . S
H177 C136 0.930 . S
H178 C137 0.930 . S
H179 C138 0.930 . S
H180 C142 0.929 . S
H181 C144 0.930 . S
H182 C150 0.929 . S
H183 C151 0.930 . S
Li184 N201 1.990 . S
Li184 O244 1.956 1_655 S
Li184 O245 1.970 1_645 S
Li184 O246 1.961 . S
Li185 N209 1.990 . S
Li185 O244 1.970 . S
Li185 O245 1.956 1_545 S
Li185 O247 1.961 . S
Li186 N231 1.990 . S
Li186 O244 1.961 . S
Li186 O246 1.956 1_455 S
Li186 O247 1.970 . S
Li187 N237 1.990 . S
Li187 O245 1.961 . S
Li187 O246 1.970 1_465 S
Li187 O247 1.956 1_565 S
C188 C190 1.348 . S
C188 C191 1.356 1_455 S
C188 O244 1.325 . S
N189 C192 1.314 . S
N189 C193 1.279 1_455 S
C190 C188 1.348 . S
C190 C192 1.353 . S
C190 H248 0.929 . S
C191 C188 1.356 1_655 S
C191 C193 1.358 . S
C191 H249 0.930 . S
C192 N189 1.314 . S
C192 C190 1.353 . S
C192 H250 0.930 . S
C193 N189 1.279 1_655 S
C193 C191 1.358 . S
C193 H251 0.930 . S
C194 C197 1.348 1_455 S
C194 C198 1.356 . S
C194 O245 1.325 . S
C195 N196 1.279 . S
C195 C198 1.358 . S
C195 H252 0.930 . S
N196 C195 1.279 . S
N196 C199 1.314 1_455 S
C197 C194 1.348 1_655 S
C197 C199 1.353 . S
C197 H253 0.929 . S
C198 C194 1.356 . S
C198 C195 1.358 . S
C198 H254 0.930 . S
C199 N196 1.314 1_655 S
C199 C197 1.353 . S
C199 H255 0.930 . S
C200 N201 1.314 1_565 S
C200 C205 1.353 . S
C200 H206 0.930 . S
N201 Li184 1.990 . S
N201 C200 1.314 1_545 S
N201 C203 1.279 . S
C202 C203 1.358 . S
C202 C204 1.356 . S
C202 H256 0.930 . S
C203 N201 1.279 . S
C203 C202 1.358 . S
C203 H207 0.930 . S
C204 C202 1.356 . S
C204 C205 1.348 1_545 S
C205 C200 1.353 . S
C205 C204 1.348 1_565 S
C205 H257 0.929 . S
H206 C200 0.930 . S
H207 C203 0.930 . S
C208 N209 1.314 . S
C208 C210 1.353 . S
C208 H214 0.930 . S
N209 Li185 1.990 . S
N209 C208 1.314 . S
N209 C212 1.279 1_545 S
C210 C208 1.353 . S
C210 C213 1.348 . S
C210 H258 0.929 . S
C211 C212 1.358 . S
C211 C213 1.356 1_565 S
C211 H259 0.930 . S
C212 N209 1.279 1_565 S
C212 C211 1.358 . S
C212 H215 0.930 . S
C213 C210 1.348 . S
C213 C211 1.356 1_545 S
H214 C208 0.930 . S
H215 C212 0.930 . S
C216 C218 1.348 1_545 S
C216 C219 1.356 . S
C216 O246 1.325 . S
N217 C220 1.314 1_545 S
N217 C221 1.279 . S
C218 C216 1.348 1_565 S
C218 C220 1.353 . S
C218 H260 0.929 . S
C219 C216 1.356 . S
C219 C221 1.358 . S
C219 H261 0.930 . S
C220 N217 1.314 1_565 S
C220 C218 1.353 . S
C220 H262 0.930 . S
C221 N217 1.279 . S
C221 C219 1.358 . S
C221 H263 0.930 . S
C222 C223 1.348 . S
C222 C224 1.356 1_545 S
C222 O247 1.325 . S
C223 C222 1.348 . S
C223 C225 1.353 . S
C223 H264 0.929 . S
C224 C222 1.356 1_565 S
C224 C226 1.358 . S
C224 H265 0.930 . S
C225 C223 1.353 . S
C225 N227 1.314 . S
C225 H266 0.930 . S
C226 C224 1.358 . S
C226 N227 1.279 1_565 S
C226 H267 0.930 . S
N227 C225 1.314 . S
N227 C226 1.279 1_545 S
C228 C230 1.353 . S
C228 N231 1.314 . S
C228 H234 0.930 . S
C229 N231 1.279 1_655 S
C229 C232 1.358 . S
C229 H235 0.930 . S
C230 C228 1.353 . S
C230 C233 1.348 . S
C230 H268 0.929 . S
N231 Li186 1.990 . S
N231 C228 1.314 . S
N231 C229 1.279 1_455 S
C232 C229 1.358 . S
C232 C233 1.356 1_655 S
C232 H269 0.930 . S
C233 C230 1.348 . S
C233 C232 1.356 1_455 S
H234 C228 0.930 . S
H235 C229 0.930 . S
C236 N237 1.314 1_655 S
C236 C238 1.353 . S
C236 H242 0.930 . S
N237 Li187 1.990 . S
N237 C236 1.314 1_455 S
N237 C240 1.279 . S
C238 C236 1.353 . S
C238 C241 1.348 1_655 S
C238 H270 0.929 . S
C239 C240 1.358 . S
C239 C241 1.356 . S
C239 H271 0.930 . S
C240 N237 1.279 . S
C240 C239 1.358 . S
C240 H243 0.930 . S
C241 C238 1.348 1_455 S
C241 C239 1.356 . S
H242 C236 0.930 . S
H243 C240 0.930 . S
O244 Li184 1.956 1_455 S
O244 Li185 1.970 . S
O244 Li186 1.961 . S
O244 C188 1.325 . S
O245 Li184 1.970 1_465 S
O245 Li185 1.956 1_565 S
O245 Li187 1.961 . S
O245 C194 1.325 . S
O246 Li184 1.961 . S
O246 Li186 1.956 1_655 S
O246 Li187 1.970 1_645 S
O246 C216 1.325 . S
O247 Li185 1.961 . S
O247 Li186 1.970 . S
O247 Li187 1.956 1_545 S
O247 C222 1.325 . S
H248 C190 0.929 . S
H249 C191 0.930 . S
H250 C192 0.930 . S
H251 C193 0.930 . S
H252 C195 0.930 . S
H253 C197 0.929 . S
H254 C198 0.930 . S
H255 C199 0.930 . S
H256 C202 0.930 . S
H257 C205 0.929 . S
H258 C210 0.929 . S
H259 C211 0.930 . S
H260 C218 0.929 . S
H261 C219 0.930 . S
H262 C220 0.930 . S
H263 C221 0.930 . S
H264 C223 0.929 . S
H265 C224 0.930 . S
H266 C225 0.930 . S
H267 C226 0.930 . S
H268 C230 0.929 . S
H269 C232 0.930 . S
H270 C238 0.929 . S
H271 C239 0.930 . S
H272 C278 0.930 . S
H273 C282 0.930 . S
H274 C287 0.929 . S
H275 C285 0.929 . S
H276 C280 0.929 . S
H277 C286 0.929 . S
C278 H272 0.930 . S
C278 C279 1.367 . S
C278 C286 1.378 . S
C279 C278 1.367 . S
C279 C287 1.433 1_545 S
C280 H276 0.929 . S
C280 C282 1.378 . S
C280 C284 1.350 1_565 S
C281 C284 1.463 . S
C281 C286 1.350 . S
C281 N289 1.427 1_545 S
C282 H273 0.930 . S
C282 C280 1.378 . S
C282 C283 1.367 1_565 S
C283 C282 1.367 1_545 S
C283 C285 1.433 . S
C284 C280 1.350 1_545 S
C284 C281 1.463 . S
C284 N288 1.427 . S
C285 H275 0.929 . S
C285 C283 1.433 . S
C285 N288 1.384 . S
C286 H277 0.929 . S
C286 C278 1.378 . S
C286 C281 1.350 . S
C287 H274 0.929 . S
C287 C279 1.433 1_565 S
C287 N289 1.384 . S
N288 C284 1.427 . S
N288 C285 1.384 . S
N289 C281 1.427 1_565 S
N289 C287 1.384 . S
H290 C296 0.930 . S
H291 C300 0.930 . S
H292 C305 0.929 . S
H293 C303 0.929 . S
H294 C298 0.929 . S
H295 C304 0.929 . S
C296 H290 0.930 . S
C296 C297 1.367 1_655 S
C296 C304 1.378 . S
C297 C296 1.367 1_455 S
C297 C305 1.433 . S
C298 H294 0.929 . S
C298 C300 1.378 . S
C298 C302 1.350 . S
C299 C302 1.463 . S
C299 C304 1.350 1_455 S
C299 N307 1.427 . S
C300 H291 0.930 . S
C300 C298 1.378 . S
C300 C301 1.367 . S
C301 C300 1.367 . S
C301 C303 1.433 1_455 S
C302 C298 1.350 . S
C302 C299 1.463 . S
C302 N306 1.427 1_455 S
C303 H293 0.929 . S
C303 C301 1.433 1_655 S
C303 N306 1.384 . S
C304 H295 0.929 . S
C304 C296 1.378 . S
C304 C299 1.350 1_655 S
C305 H292 0.929 . S
C305 C297 1.433 . S
C305 N307 1.384 . S
N306 C302 1.427 1_655 S
N306 C303 1.384 . S
N307 C299 1.427 . S
N307 C305 1.384 . S
H308 C314 0.930 . S
H309 C318 0.930 . S
H310 C323 0.929 . S
H311 C321 0.929 . S
H312 C316 0.929 . S
H313 C322 0.929 . S
C314 H308 0.930 . S
C314 C315 1.367 . S
C314 C322 1.378 . S
C315 C314 1.367 . S
C315 C323 1.433 1_545 S
C316 H312 0.929 . S
C316 C318 1.378 . S
C316 C320 1.350 1_565 S
C317 C320 1.463 . S
C317 C322 1.350 . S
C317 N325 1.427 1_545 S
C318 H309 0.930 . S
C318 C316 1.378 . S
C318 C319 1.367 1_565 S
C319 C318 1.367 1_545 S
C319 C321 1.433 . S
C320 C316 1.350 1_545 S
C320 C317 1.463 . S
C320 N324 1.427 . S
C321 H311 0.929 . S
C321 C319 1.433 . S
C321 N324 1.384 . S
C322 H313 0.929 . S
C322 C314 1.378 . S
C322 C317 1.350 . S
C323 H310 0.929 . S
C323 C315 1.433 1_565 S
C323 N325 1.384 . S
N324 C320 1.427 . S
N324 C321 1.384 . S
N325 C317 1.427 1_565 S
N325 C323 1.384 . S
H326 C332 0.930 . S
H327 C336 0.930 . S
H328 C341 0.929 . S
H329 C339 0.929 . S
H330 C334 0.929 . S
H331 C340 0.929 . S
C332 H326 0.930 . S
C332 C333 1.367 1_655 S
C332 C340 1.378 . S
C333 C332 1.367 1_455 S
C333 C341 1.433 . S
C334 H330 0.929 . S
C334 C336 1.378 . S
C334 C338 1.350 . S
C335 C338 1.463 . S
C335 C340 1.350 1_455 S
C335 N343 1.427 . S
C336 H327 0.930 . S
C336 C334 1.378 . S
C336 C337 1.367 . S
C337 C336 1.367 . S
C337 C339 1.433 1_455 S
C338 C334 1.350 . S
C338 C335 1.463 . S
C338 N342 1.427 1_455 S
C339 H329 0.929 . S
C339 C337 1.433 1_655 S
C339 N342 1.384 . S
C340 H331 0.929 . S
C340 C332 1.378 . S
C340 C335 1.350 1_655 S
C341 H328 0.929 . S
C341 C333 1.433 . S
C341 N343 1.384 . S
N342 C338 1.427 1_655 S
N342 C339 1.384 . S
N343 C335 1.427 . S
N343 C341 1.384 . S
H344 C350 0.930 . S
H345 C354 0.930 . S
H346 C359 0.929 . S
H347 C357 0.929 . S
H348 C352 0.929 . S
H349 C358 0.929 . S
C350 H344 0.930 . S
C350 C351 1.367 1_565 S
C350 C358 1.378 . S
C351 C350 1.367 1_545 S
C351 C359 1.433 . S
C352 H348 0.929 . S
C352 C354 1.378 . S
C352 C356 1.350 . S
C353 C356 1.463 . S
C353 C358 1.350 1_545 S
C353 N361 1.427 . S
C354 H345 0.930 . S
C354 C352 1.378 . S
C354 C355 1.367 . S
C355 C354 1.367 . S
C355 C357 1.433 1_545 S
C356 C352 1.350 . S
C356 C353 1.463 . S
C356 N360 1.427 1_545 S
C357 H347 0.929 . S
C357 C355 1.433 1_565 S
C357 N360 1.384 . S
C358 H349 0.929 . S
C358 C350 1.378 . S
C358 C353 1.350 1_565 S
C359 H346 0.929 . S
C359 C351 1.433 . S
C359 N361 1.384 . S
N360 C356 1.427 1_565 S
N360 C357 1.384 . S
N361 C353 1.427 . S
N361 C359 1.384 . S
H362 C368 0.930 . S
H363 C372 0.930 . S
H364 C377 0.929 . S
H365 C375 0.929 . S
H366 C370 0.929 . S
H367 C376 0.929 . S
C368 H362 0.930 . S
C368 C369 1.367 . S
C368 C376 1.378 . S
C369 C368 1.367 . S
C369 C377 1.433 1_455 S
C370 H366 0.929 . S
C370 C372 1.378 . S
C370 C374 1.350 1_655 S
C371 C374 1.463 . S
C371 C376 1.350 . S
C371 N379 1.427 1_455 S
C372 H363 0.930 . S
C372 C370 1.378 . S
C372 C373 1.367 1_655 S
C373 C372 1.367 1_455 S
C373 C375 1.433 . S
C374 C370 1.350 1_455 S
C374 C371 1.463 . S
C374 N378 1.427 . S
C375 H365 0.929 . S
C375 C373 1.433 . S
C375 N378 1.384 . S
C376 H367 0.929 . S
C376 C368 1.378 . S
C376 C371 1.350 . S
C377 H364 0.929 . S
C377 C369 1.433 1_655 S
C377 N379 1.384 . S
N378 C374 1.427 . S
N378 C375 1.384 . S
N379 C371 1.427 1_655 S
N379 C377 1.384 . S
H380 C386 0.930 . S
H381 C390 0.930 . S
H382 C395 0.929 . S
H383 C393 0.929 . S
H384 C388 0.929 . S
H385 C394 0.929 . S
C386 H380 0.930 . S
C386 C387 1.367 . S
C386 C394 1.378 . S
C387 C386 1.367 . S
C387 C395 1.433 1_545 S
C388 H384 0.929 . S
C388 C390 1.378 . S
C388 C392 1.350 1_565 S
C389 C392 1.463 . S
C389 C394 1.350 . S
C389 N397 1.427 1_545 S
C390 H381 0.930 . S
C390 C388 1.378 . S
C390 C391 1.367 1_565 S
C391 C390 1.367 1_545 S
C391 C393 1.433 . S
C392 C388 1.350 1_545 S
C392 C389 1.463 . S
C392 N396 1.427 . S
C393 H383 0.929 . S
C393 C391 1.433 . S
C393 N396 1.384 . S
C394 H385 0.929 . S
C394 C386 1.378 . S
C394 C389 1.350 . S
C395 H382 0.929 . S
C395 C387 1.433 1_565 S
C395 N397 1.384 . S
N396 C392 1.427 . S
N396 C393 1.384 . S
N397 C389 1.427 1_565 S
N397 C395 1.384 . S
H398 C404 0.930 . S
H399 C408 0.930 . S
H400 C413 0.929 . S
H401 C411 0.929 . S
H402 C406 0.929 . S
H403 C412 0.929 . S
C404 H398 0.930 . S
C404 C405 1.367 1_655 S
C404 C412 1.378 . S
C405 C404 1.367 1_455 S
C405 C413 1.433 . S
C406 H402 0.929 . S
C406 C408 1.378 . S
C406 C410 1.350 . S
C407 C410 1.463 . S
C407 C412 1.350 1_455 S
C407 N415 1.427 . S
C408 H399 0.930 . S
C408 C406 1.378 . S
C408 C409 1.367 . S
C409 C408 1.367 . S
C409 C411 1.433 1_455 S
C410 C406 1.350 . S
C410 C407 1.463 . S
C410 N414 1.427 1_455 S
C411 H401 0.929 . S
C411 C409 1.433 1_655 S
C411 N414 1.384 . S
C412 H403 0.929 . S
C412 C404 1.378 . S
C412 C407 1.350 1_655 S
C413 H400 0.929 . S
C413 C405 1.433 . S
C413 N415 1.384 . S
N414 C410 1.427 1_655 S
N414 C411 1.384 . S
N415 C407 1.427 . S
N415 C413 1.384 . S
C283 C145 1.515 . S
C279 C45 1.512 . S
C301 C233 1.515 . S
C297 C78 1.508 . S
C319 C153 1.514 . S
C315 C21 1.514 . S
C337 C241 1.515 . S
C333 C84 1.514 . S
C355 C213 1.515 . S
C351 C36 1.513 . S
C373 C116 1.515 . S
C369 C69 1.514 . S
C391 C204 1.515 . S
C387 C30 1.508 . S
C405 C93 1.512 . S
C409 C125 1.515 . S
