# Generated by pormake.
# Topology eea, (3,6)-cn, num edge types: 1
# Building blocks:
#     Node 0, Type 0, BuildingBlock: ESEHIV_clean_linker_0, # of connection points: 3
#     Node 1, Type 0, BuildingBlock: ESEHIV_clean_linker_0, # of connection points: 3
#     Node 2, Type 0, BuildingBlock: ESEHIV_clean_linker_0, # of connection points: 3
#     Node 3, Type 0, BuildingBlock: ESEHIV_clean_linker_0, # of connection points: 3
#     Node 4, Type 0, BuildingBlock: ESEHIV_clean_linker_0, # of connection points: 3
#     Node 5, Type 0, BuildingBlock: ESEHIV_clean_linker_0, # of connection points: 3
#     Node 6, Type 0, BuildingBlock: ESEHIV_clean_linker_0, # of connection points: 3
#     Node 7, Type 0, BuildingBlock: ESEHIV_clean_linker_0, # of connection points: 3
#     Node 8, Type 0, BuildingBlock: ESEHIV_clean_linker_0, # of connection points: 3
#     Node 9, Type 0, BuildingBlock: ESEHIV_clean_linker_0, # of connection points: 3
#     Node 10, Type 0, BuildingBlock: ESEHIV_clean_linker_0, # of connection points: 3
#     Node 11, Type 0, BuildingBlock: ESEHIV_clean_linker_0, # of connection points: 3
#     Node 12, Type 0, BuildingBlock: ESEHIV_clean_linker_0, # of connection points: 3
#     Node 13, Type 0, BuildingBlock: ESEHIV_clean_linker_0, # of connection points: 3
#     Node 14, Type 0, BuildingBlock: ESEHIV_clean_linker_0, # of connection points: 3
#     Node 15, Type 0, BuildingBlock: ESEHIV_clean_linker_0, # of connection points: 3
#     Node 16, Type 0, BuildingBlock: ESEHIV_clean_linker_0, # of connection points: 3
#     Node 17, Type 0, BuildingBlock: ESEHIV_clean_linker_0, # of connection points: 3
#     Node 18, Type 1, BuildingBlock: KUMBOL_clean_sbu_0, # of connection points: 6
#     Node 19, Type 1, BuildingBlock: KUMBOL_clean_sbu_0, # of connection points: 6
#     Node 20, Type 1, BuildingBlock: KUMBOL_clean_sbu_0, # of connection points: 6
#     Node 21, Type 1, BuildingBlock: KUMBOL_clean_sbu_0, # of connection points: 6
#     Node 22, Type 1, BuildingBlock: KUMBOL_clean_sbu_0, # of connection points: 6
#     Node 23, Type 1, BuildingBlock: KUMBOL_clean_sbu_0, # of connection points: 6
#     Node 24, Type 1, BuildingBlock: KUMBOL_clean_sbu_0, # of connection points: 6
#     Node 25, Type 1, BuildingBlock: KUMBOL_clean_sbu_0, # of connection points: 6
#     Node 26, Type 1, BuildingBlock: KUMBOL_clean_sbu_0, # of connection points: 6
#     Edge 27, Type (0, 1), BuildingBlock: MIFKUJ_clean_linker_0, # of connection points: 2
#     Edge 28, Type (0, 1), BuildingBlock: MIFKUJ_clean_linker_0, # of connection points: 2
#     Edge 29, Type (0, 1), BuildingBlock: MIFKUJ_clean_linker_0, # of connection points: 2
#     Edge 30, Type (0, 1), BuildingBlock: MIFKUJ_clean_linker_0, # of connection points: 2
#     Edge 31, Type (0, 1), BuildingBlock: MIFKUJ_clean_linker_0, # of connection points: 2
#     Edge 32, Type (0, 1), BuildingBlock: MIFKUJ_clean_linker_0, # of connection points: 2
#     Edge 33, Type (0, 1), BuildingBlock: MIFKUJ_clean_linker_0, # of connection points: 2
#     Edge 34, Type (0, 1), BuildingBlock: MIFKUJ_clean_linker_0, # of connection points: 2
#     Edge 35, Type (0, 1), BuildingBlock: MIFKUJ_clean_linker_0, # of connection points: 2
#     Edge 36, Type (0, 1), BuildingBlock: MIFKUJ_clean_linker_0, # of connection points: 2
#     Edge 37, Type (0, 1), BuildingBlock: MIFKUJ_clean_linker_0, # of connection points: 2
#     Edge 38, Type (0, 1), BuildingBlock: MIFKUJ_clean_linker_0, # of connection points: 2
#     Edge 39, Type (0, 1), BuildingBlock: MIFKUJ_clean_linker_0, # of connection points: 2
#     Edge 40, Type (0, 1), BuildingBlock: MIFKUJ_clean_linker_0, # of connection points: 2
#     Edge 41, Type (0, 1), BuildingBlock: MIFKUJ_clean_linker_0, # of connection points: 2
#     Edge 42, Type (0, 1), BuildingBlock: MIFKUJ_clean_linker_0, # of connection points: 2
#     Edge 43, Type (0, 1), BuildingBlock: MIFKUJ_clean_linker_0, # of connection points: 2
#     Edge 44, Type (0, 1), BuildingBlock: MIFKUJ_clean_linker_0, # of connection points: 2
#     Edge 45, Type (0, 1), BuildingBlock: MIFKUJ_clean_linker_0, # of connection points: 2
#     Edge 46, Type (0, 1), BuildingBlock: MIFKUJ_clean_linker_0, # of connection points: 2
#     Edge 47, Type (0, 1), BuildingBlock: MIFKUJ_clean_linker_0, # of connection points: 2
#     Edge 48, Type (0, 1), BuildingBlock: MIFKUJ_clean_linker_0, # of connection points: 2
#     Edge 49, Type (0, 1), BuildingBlock: MIFKUJ_clean_linker_0, # of connection points: 2
#     Edge 50, Type (0, 1), BuildingBlock: MIFKUJ_clean_linker_0, # of connection points: 2
#     Edge 51, Type (0, 1), BuildingBlock: MIFKUJ_clean_linker_0, # of connection points: 2
#     Edge 52, Type (0, 1), BuildingBlock: MIFKUJ_clean_linker_0, # of connection points: 2
#     Edge 53, Type (0, 1), BuildingBlock: MIFKUJ_clean_linker_0, # of connection points: 2
#     Edge 54, Type (0, 1), BuildingBlock: MIFKUJ_clean_linker_0, # of connection points: 2
#     Edge 55, Type (0, 1), BuildingBlock: MIFKUJ_clean_linker_0, # of connection points: 2
#     Edge 56, Type (0, 1), BuildingBlock: MIFKUJ_clean_linker_0, # of connection points: 2
#     Edge 57, Type (0, 1), BuildingBlock: MIFKUJ_clean_linker_0, # of connection points: 2
#     Edge 58, Type (0, 1), BuildingBlock: MIFKUJ_clean_linker_0, # of connection points: 2
#     Edge 59, Type (0, 1), BuildingBlock: MIFKUJ_clean_linker_0, # of connection points: 2
#     Edge 60, Type (0, 1), BuildingBlock: MIFKUJ_clean_linker_0, # of connection points: 2
#     Edge 61, Type (0, 1), BuildingBlock: MIFKUJ_clean_linker_0, # of connection points: 2
#     Edge 62, Type (0, 1), BuildingBlock: MIFKUJ_clean_linker_0, # of connection points: 2
#     Edge 63, Type (0, 1), BuildingBlock: MIFKUJ_clean_linker_0, # of connection points: 2
#     Edge 64, Type (0, 1), BuildingBlock: MIFKUJ_clean_linker_0, # of connection points: 2
#     Edge 65, Type (0, 1), BuildingBlock: MIFKUJ_clean_linker_0, # of connection points: 2
#     Edge 66, Type (0, 1), BuildingBlock: MIFKUJ_clean_linker_0, # of connection points: 2
#     Edge 67, Type (0, 1), BuildingBlock: MIFKUJ_clean_linker_0, # of connection points: 2
#     Edge 68, Type (0, 1), BuildingBlock: MIFKUJ_clean_linker_0, # of connection points: 2
#     Edge 69, Type (0, 1), BuildingBlock: MIFKUJ_clean_linker_0, # of connection points: 2
#     Edge 70, Type (0, 1), BuildingBlock: MIFKUJ_clean_linker_0, # of connection points: 2
#     Edge 71, Type (0, 1), BuildingBlock: MIFKUJ_clean_linker_0, # of connection points: 2
#     Edge 72, Type (0, 1), BuildingBlock: MIFKUJ_clean_linker_0, # of connection points: 2
#     Edge 73, Type (0, 1), BuildingBlock: MIFKUJ_clean_linker_0, # of connection points: 2
#     Edge 74, Type (0, 1), BuildingBlock: MIFKUJ_clean_linker_0, # of connection points: 2
#     Edge 75, Type (0, 1), BuildingBlock: MIFKUJ_clean_linker_0, # of connection points: 2
#     Edge 76, Type (0, 1), BuildingBlock: MIFKUJ_clean_linker_0, # of connection points: 2
#     Edge 77, Type (0, 1), BuildingBlock: MIFKUJ_clean_linker_0, # of connection points: 2
#     Edge 78, Type (0, 1), BuildingBlock: MIFKUJ_clean_linker_0, # of connection points: 2
#     Edge 79, Type (0, 1), BuildingBlock: MIFKUJ_clean_linker_0, # of connection points: 2
#     Edge 80, Type (0, 1), BuildingBlock: MIFKUJ_clean_linker_0, # of connection points: 2
# Relax obj value: 0.009
# Max RMSD: 0.094
# Mean RMSD: 0.061
data_MOF--net-eea--node1-KUMBOL_clean_sbu_0--node2-ESEHIV_clean_linker_0--edge1-MIFKUJ_clean_linker_0
_symmetry_space_group_name_H-M    P1
_symmetry_Int_Tables_number       1
_symmetry_cell_setting            triclinic
loop_
_symmetry_equiv_pos_as_xyz
'x, y, z'
_cell_length_a     63.389751
_cell_length_b     64.621608
_cell_length_c     89.859228
_cell_angle_alpha  90.204798
_cell_angle_beta   90.115958
_cell_angle_gamma 119.9951
loop_
_atom_site_label
_atom_site_type_symbol
_atom_site_fract_x
_atom_site_fract_y
_atom_site_fract_z
_atom_type_partial_charge
H0 H 0.24413 0.15391 0.44207 0.0
H1 H 0.24512 0.08779 0.44232 0.0
H2 H 0.21667 0.10639 0.40441 0.0
C3 C 0.23996 0.1372 0.43675 0.0
C4 C 0.22974 0.13198 0.4224 0.0
C5 C 0.24579 0.12144 0.44398 0.0
C6 C 0.2408 0.1001 0.43679 0.0
C7 C 0.23045 0.09458 0.42248 0.0
C8 C 0.22504 0.11067 0.41536 0.0
H9 H 0.85696 0.09222 0.44095 0.0
H10 H 0.92323 0.16014 0.43886 0.0
H11 H 0.9027 0.11047 0.40234 0.0
C12 C 0.87312 0.10488 0.43498 0.0
C13 C 0.87771 0.09869 0.42082 0.0
C14 C 0.88937 0.127 0.44164 0.0
C15 C 0.91066 0.14296 0.43393 0.0
C16 C 0.91577 0.13702 0.41982 0.0
C17 C 0.89922 0.11482 0.41339 0.0
H18 H 0.85347 0.76875 0.43826 0.0
H19 H 0.92111 0.76842 0.43716 0.0
H20 H 0.89785 0.79185 0.39889 0.0
C21 C 0.86982 0.7722 0.43239 0.0
C22 C 0.87356 0.78095 0.41773 0.0
C23 C 0.88682 0.76755 0.4395 0.0
C24 C 0.90783 0.77174 0.4317 0.0
C25 C 0.91219 0.78082 0.4171 0.0
C26 C 0.89499 0.7855 0.41026 0.0
H27 H 0.08164 0.22562 0.57182 0.0
H28 H 0.15118 0.22909 0.57238 0.0
H29 H 0.10499 0.20409 0.61093 0.0
C30 C 0.09511 0.22293 0.57758 0.0
C31 C 0.09054 0.21408 0.59224 0.0
C32 C 0.11694 0.22842 0.5703 0.0
C33 C 0.13433 0.2249 0.5779 0.0
C34 C 0.13029 0.21617 0.59258 0.0
C35 C 0.10829 0.2108 0.59964 0.0
H36 H 0.76882 0.91659 0.56697 0.0
H37 H 0.76848 0.85003 0.56876 0.0
H38 H 0.79575 0.8987 0.60596 0.0
C39 C 0.7732 0.90458 0.57285 0.0
C40 C 0.78313 0.9104 0.58726 0.0
C41 C 0.7677 0.88275 0.56621 0.0
C42 C 0.77245 0.86673 0.57401 0.0
C43 C 0.78282 0.87243 0.58833 0.0
C44 C 0.78805 0.8943 0.59485 0.0
H45 H 0.07895 0.84644 0.56796 0.0
H46 H 0.14624 0.91355 0.56907 0.0
H47 H 0.09897 0.89097 0.60707 0.0
C48 C 0.09161 0.86274 0.57376 0.0
C49 C 0.08607 0.86695 0.58822 0.0
C50 C 0.11343 0.87934 0.56679 0.0
C51 C 0.12973 0.90035 0.5745 0.0
C52 C 0.1247 0.90479 0.58902 0.0
C53 C 0.10275 0.88802 0.59574 0.0
H54 H 0.916 0.49223 0.77235 0.0
H55 H 0.9164 0.42595 0.77407 0.0
H56 H 0.88961 0.44386 0.73504 0.0
C57 C 0.91246 0.47567 0.7671 0.0
C58 C 0.90206 0.46987 0.75281 0.0
C59 C 0.91767 0.45991 0.77485 0.0
C60 C 0.91241 0.43817 0.76814 0.0
C61 C 0.90213 0.43216 0.75381 0.0
C62 C 0.89698 0.4481 0.74624 0.0
H63 H 0.52422 0.4243 0.77239 0.0
H64 H 0.59261 0.4904 0.77208 0.0
H65 H 0.57174 0.44285 0.73452 0.0
C66 C 0.54107 0.43649 0.76685 0.0
C67 C 0.5458 0.43072 0.75258 0.0
C68 C 0.55781 0.4579 0.77406 0.0
C69 C 0.57968 0.47365 0.76681 0.0
C70 C 0.5845 0.46843 0.75245 0.0
C71 C 0.56757 0.447 0.74544 0.0
H72 H 0.52046 0.10523 0.77186 0.0
H73 H 0.58921 0.107 0.77207 0.0
H74 H 0.56725 0.13152 0.7337 0.0
C75 C 0.53716 0.10905 0.76629 0.0
C76 C 0.54165 0.11869 0.75185 0.0
C77 C 0.55423 0.1049 0.77377 0.0
C78 C 0.57622 0.11067 0.76656 0.0
C79 C 0.5811 0.12017 0.75205 0.0
C80 C 0.5637 0.1242 0.74484 0.0
H81 H 0.75031 0.56154 0.9061 0.0
H82 H 0.81583 0.55707 0.9045 0.0
H83 H 0.77359 0.53871 0.94464 0.0
C84 C 0.76335 0.55782 0.9115 0.0
C85 C 0.75936 0.54975 0.92633 0.0
C86 C 0.78358 0.56042 0.90343 0.0
C87 C 0.79992 0.55472 0.91044 0.0
C88 C 0.79655 0.54704 0.92532 0.0
C89 C 0.77622 0.54459 0.93317 0.0
H90 H 0.42798 0.24682 0.90191 0.0
H91 H 0.42652 0.17954 0.90257 0.0
H92 H 0.45541 0.22756 0.93996 0.0
C93 C 0.43148 0.23408 0.9076 0.0
C94 C 0.44243 0.2398 0.92175 0.0
C95 C 0.42547 0.2123 0.90061 0.0
C96 C 0.43103 0.19635 0.90787 0.0
C97 C 0.44221 0.20188 0.92198 0.0
C98 C 0.44767 0.22358 0.92885 0.0
H99 H 0.74434 0.17505 0.90361 0.0
H100 H 0.8119 0.2417 0.90251 0.0
H101 H 0.76644 0.22258 0.94134 0.0
C102 C 0.75749 0.1916 0.90898 0.0
C103 C 0.75304 0.19668 0.9235 0.0
C104 C 0.77846 0.20796 0.9012 0.0
C105 C 0.79521 0.22952 0.90821 0.0
C106 C 0.79112 0.23508 0.92269 0.0
C107 C 0.76985 0.21855 0.93019 0.0
H108 H 0.56896 0.81811 0.11009 0.0
H109 H 0.57097 0.75256 0.11072 0.0
H110 H 0.54163 0.76999 0.07273 0.0
C111 C 0.56548 0.80165 0.10472 0.0
C112 C 0.55457 0.7959 0.09056 0.0
C113 C 0.57158 0.7862 0.11209 0.0
C114 C 0.56624 0.76455 0.10518 0.0
C115 C 0.55512 0.75838 0.09107 0.0
C116 C 0.54937 0.77419 0.08385 0.0
H117 H 0.18693 0.75903 0.10505 0.0
H118 H 0.25292 0.82704 0.1026 0.0
H119 H 0.23331 0.77627 0.06678 0.0
C120 C 0.20331 0.77136 0.09914 0.0
C121 C 0.20808 0.76484 0.08513 0.0
C122 C 0.21939 0.79369 0.10559 0.0
C123 C 0.2405 0.80972 0.09778 0.0
C124 C 0.24562 0.80359 0.08374 0.0
C125 C 0.22939 0.78108 0.07757 0.0
H126 H 0.1914 0.44196 0.10799 0.0
H127 H 0.2596 0.44257 0.10773 0.0
H128 H 0.23769 0.46726 0.0695 0.0
C129 C 0.20816 0.44595 0.10243 0.0
C130 C 0.21254 0.45542 0.08793 0.0
C131 C 0.22498 0.44121 0.10973 0.0
C132 C 0.24643 0.44598 0.10221 0.0
C133 C 0.25133 0.45557 0.08774 0.0
C134 C 0.23438 0.46048 0.08078 0.0
H135 H 0.4209 0.90195 0.24004 0.0
H136 H 0.48668 0.89816 0.2396 0.0
H137 H 0.44027 0.87402 0.27792 0.0
C138 C 0.43293 0.89686 0.24541 0.0
C139 C 0.42766 0.88736 0.25994 0.0
C140 C 0.45413 0.90078 0.23792 0.0
C141 C 0.47029 0.89515 0.24522 0.0
C142 C 0.46565 0.88585 0.25974 0.0
C143 C 0.44423 0.88189 0.26693 0.0
H144 H 0.10114 0.58151 0.23413 0.0
H145 H 0.10206 0.51545 0.23443 0.0
H146 H 0.12941 0.5629 0.27216 0.0
C147 C 0.10554 0.56927 0.23968 0.0
C148 C 0.11626 0.57498 0.2539 0.0
C149 C 0.10014 0.54773 0.23265 0.0
C150 C 0.10578 0.53191 0.23992 0.0
C151 C 0.1166 0.53737 0.25411 0.0
C152 C 0.12181 0.55896 0.26101 0.0
H153 H 0.40735 0.51414 0.23578 0.0
H154 H 0.4768 0.57904 0.23472 0.0
H155 H 0.43396 0.55894 0.27471 0.0
C156 C 0.42132 0.53016 0.24124 0.0
C157 C 0.41825 0.53458 0.25619 0.0
C158 C 0.4424 0.54612 0.23337 0.0
C159 C 0.46027 0.56692 0.24059 0.0
C160 C 0.4575 0.57172 0.25552 0.0
C161 C 0.43649 0.5553 0.26326 0.0
Gd162 Gd 0.51295 0.01638 0.02299 0.0
Gd163 Gd 0.48942 0.98332 0.98725 0.0
C164 C 0.41453 0.91621 0.98336 0.0
C165 C 0.42508 0.88542 0.97864 0.0
C166 C 0.45688 0.92694 0.98145 0.0
C167 C 0.43952 0.93352 0.98379 0.0
C168 C 0.4499 0.9029 0.97855 0.0
C169 C 0.40743 0.89207 0.98106 0.0
C170 C 0.39746 0.92375 0.98495 0.0
C171 C 0.40547 0.94808 0.98643 0.0
N172 N 0.44705 0.95699 0.98594 0.0
C173 C 0.43046 0.96457 0.9867 0.0
H174 H 0.43632 0.98327 0.98796 0.0
C175 C 0.49833 0.93909 0.97754 0.0
N176 N 0.48063 0.94429 0.98139 0.0
C177 C 0.49234 0.91548 0.97466 0.0
C178 C 0.46804 0.89725 0.97533 0.0
H179 H 0.51716 0.95308 0.97709 0.0
H180 H 0.38833 0.87848 0.98082 0.0
H181 H 0.56607 0.01645 0.02216 0.0
H182 H 0.37809 0.91101 0.98475 0.0
H183 H 0.39242 0.95416 0.98744 0.0
H184 H 0.41935 0.86681 0.97657 0.0
H185 H 0.48536 0.04661 0.03341 0.0
H186 H 0.62432 0.08875 0.02502 0.0
H187 H 0.60996 0.04558 0.02246 0.0
H188 H 0.58314 0.13295 0.03348 0.0
H189 H 0.50647 0.91136 0.97194 0.0
H190 H 0.46343 0.87898 0.97306 0.0
H191 H 0.61412 0.1213 0.029 0.0
H192 H 0.49607 0.08834 0.03858 0.0
N193 N 0.55535 0.04275 0.02416 0.0
C194 C 0.60496 0.07601 0.02491 0.0
C195 C 0.59693 0.05166 0.02351 0.0
C196 C 0.5879 0.08355 0.02659 0.0
C197 C 0.56291 0.06623 0.02628 0.0
C198 C 0.57193 0.03516 0.02336 0.0
N199 N 0.52185 0.05542 0.02895 0.0
C200 C 0.54558 0.07279 0.02876 0.0
C201 C 0.51018 0.08423 0.03578 0.0
C202 C 0.53447 0.10247 0.035 0.0
C203 C 0.50418 0.06062 0.0329 0.0
C204 C 0.55258 0.09684 0.03165 0.0
H205 H 0.53908 0.12074 0.03726 0.0
O206 O 0.49566 0.01011 0.04467 0.0
O207 O 0.48235 0.98613 0.01112 0.0
O208 O 0.47917 0.01207 0.99078 0.0
O209 O 0.50825 0.04047 0.00692 0.0
O210 O 0.47302 0.00407 0.02627 0.0
O211 O 0.52571 0.00371 0.0414 0.0
O212 O 0.50793 0.99079 0.96594 0.0
O213 O 0.51996 0.01373 0.99909 0.0
O214 O 0.52322 0.98766 0.01933 0.0
O215 O 0.49383 0.95916 1.00339 0.0
O216 O 0.52932 0.99542 0.98422 0.0
O217 O 0.47608 0.99455 0.96836 0.0
C218 C 0.46449 0.98626 0.01714 0.0
C219 C 0.57738 0.11433 0.03142 0.0
C220 C 0.59502 0.1077 0.02887 0.0
C221 C 0.51035 0.00404 0.0509 0.0
C222 C 0.52027 0.01474 0.06558 0.0
C223 C 0.53822 0.03888 0.06674 0.0
C224 C 0.51178 0.00077 0.07856 0.0
C225 C 0.52142 0.0108 0.09268 0.0
C226 C 0.54763 0.04901 0.08063 0.0
C227 C 0.53935 0.03517 0.09349 0.0
C228 C 0.49144 0.03403 0.99639 0.0
C229 C 0.53783 0.01345 0.99319 0.0
C230 C 0.4926 0.99557 0.95928 0.0
C231 C 0.48424 0.98483 0.94441 0.0
C232 C 0.4687 0.96014 0.94285 0.0
C233 C 0.4923 0.9993 0.93161 0.0
C234 C 0.48488 0.98915 0.91725 0.0
C235 C 0.46136 0.94994 0.92874 0.0
C236 C 0.46939 0.96423 0.91605 0.0
C237 C 0.51075 0.96564 0.01385 0.0
H238 H 0.54493 0.04987 0.05691 0.0
H239 H 0.49796 0.98209 0.07762 0.0
H240 H 0.5614 0.06771 0.08145 0.0
H241 H 0.54682 0.04371 0.10411 0.0
H242 H 0.46236 0.94876 0.95254 0.0
H243 H 0.50409 0.01842 0.93287 0.0
H244 H 0.44949 0.93082 0.92762 0.0
H245 H 0.46369 0.95564 0.90526 0.0
Gd246 Gd 0.98386 0.48742 0.02242 0.0
Gd247 Gd 0.02117 0.5058 0.98847 0.0
C248 C 0.09316 0.50579 0.98631 0.0
C249 C 0.12246 0.54792 0.98297 0.0
C250 C 0.07926 0.53444 0.98505 0.0
C251 C 0.07422 0.51122 0.98691 0.0
C252 C 0.10334 0.55297 0.98258 0.0
C253 C 0.11737 0.52435 0.98481 0.0
C254 C 0.08711 0.48182 0.98652 0.0
C255 C 0.06267 0.46395 0.98702 0.0
N256 N 0.05059 0.4937 0.98804 0.0
C257 C 0.04454 0.47023 0.98757 0.0
H258 H 0.02576 0.45619 0.98788 0.0
C259 C 0.06383 0.56014 0.97965 0.0
N260 N 0.06028 0.53849 0.98422 0.0
C261 C 0.0874 0.5792 0.97729 0.0
C262 C 0.1073 0.57571 0.97903 0.0
H263 H 0.04846 0.56289 0.97829 0.0
H264 H 0.13219 0.52054 0.98451 0.0
H265 H 0.98449 0.5399 0.02425 0.0
H266 H 0.10111 0.47695 0.98572 0.0
H267 H 0.0577 0.44533 0.98685 0.0
H268 H 0.14113 0.56195 0.98127 0.0
H269 H 0.95195 0.42975 0.0307 0.0
H270 H 0.91112 0.52548 0.02624 0.0
H271 H 0.95534 0.55427 0.02578 0.0
H272 H 0.8647 0.44034 0.02996 0.0
H273 H 0.09019 0.59652 0.97411 0.0
H274 H 0.12552 0.59042 0.97706 0.0
H275 H 0.8776 0.48306 0.02806 0.0
H276 H 0.90897 0.39842 0.03444 0.0
N277 N 0.95725 0.50303 0.02323 0.0
C278 C 0.92388 0.51899 0.02542 0.0
C279 C 0.94881 0.53528 0.02525 0.0
C280 C 0.91575 0.4945 0.02521 0.0
C281 C 0.93309 0.48696 0.02407 0.0
C282 C 0.96533 0.52696 0.02436 0.0
N283 N 0.94336 0.4568 0.02568 0.0
C284 C 0.92588 0.46302 0.02526 0.0
C285 C 0.91343 0.41647 0.03174 0.0
C286 C 0.89507 0.42232 0.03065 0.0
C287 C 0.93768 0.43418 0.02958 0.0
C288 C 0.90121 0.44593 0.02771 0.0
H289 H 0.87638 0.40872 0.03276 0.0
O290 O 0.98604 0.47168 0.04326 0.0
O291 O 0.01818 0.49332 0.01188 0.0
O292 O 0.99363 0.46597 0.98805 0.0
O293 O 0.9631 0.45862 0.00532 0.0
O294 O 0.9989 0.46245 0.02408 0.0
O295 O 0.99186 0.50771 0.04299 0.0
O296 O 0.01539 0.51836 0.96728 0.0
O297 O 0.98689 0.49955 0.99912 0.0
O298 O 0.0133 0.52669 0.02358 0.0
O299 O 0.04242 0.53518 0.00504 0.0
O300 O 0.00484 0.5299 0.98654 0.0
O301 O 0.01512 0.48476 0.9684 0.0
C302 C 0.0187 0.4752 0.01673 0.0
C303 C 0.88374 0.4532 0.02812 0.0
C304 C 0.89105 0.47749 0.02697 0.0
C305 C 0.98982 0.49018 0.05116 0.0
C306 C 0.97556 0.48533 0.06485 0.0
C307 C 0.95013 0.47479 0.06445 0.0
C308 C 0.98773 0.49134 0.07857 0.0
C309 C 0.97464 0.48668 0.09193 0.0
C310 C 0.93699 0.47004 0.07766 0.0
C311 C 0.94913 0.47587 0.09136 0.0
C312 C 0.97165 0.45241 0.99375 0.0
C313 C 0.98556 0.51718 0.99432 0.0
C314 C 0.01434 0.50056 0.95981 0.0
C315 C 0.02893 0.50673 0.94618 0.0
C316 C 0.05415 0.51578 0.94676 0.0
C317 C 0.0174 0.50362 0.93237 0.0
C318 C 0.03096 0.50968 0.91914 0.0
C319 C 0.06777 0.52202 0.93369 0.0
C320 C 0.0563 0.51907 0.91993 0.0
C321 C 0.03467 0.54074 0.01725 0.0
H322 H 0.94044 0.47021 0.054 0.0
H323 H 0.0074 0.49937 0.07885 0.0
H324 H 0.91736 0.46188 0.07728 0.0
H325 H 0.93861 0.47224 0.10147 0.0
H326 H 0.0633 0.51793 0.95725 0.0
H327 H 0.99789 0.49666 0.93195 0.0
H328 H 0.08724 0.52903 0.93422 0.0
H329 H 0.06715 0.52369 0.9099 0.0
Gd330 Gd 0.49301 0.50926 0.98706 0.0
Gd331 Gd 0.51365 0.49491 0.02186 0.0
C332 C 0.58617 0.4968 0.02735 0.0
C333 C 0.57324 0.45477 0.03051 0.0
C334 C 0.54322 0.46732 0.02716 0.0
C335 C 0.5616 0.4908 0.02591 0.0
C336 C 0.54877 0.44904 0.02969 0.0
C337 C 0.59191 0.47862 0.02939 0.0
C338 C 0.60418 0.52093 0.0271 0.0
C339 C 0.59746 0.53836 0.02562 0.0
N340 N 0.55541 0.5079 0.02397 0.0
C341 C 0.57286 0.53151 0.02418 0.0
H342 H 0.56799 0.54519 0.02306 0.0
C343 C 0.50104 0.43993 0.02921 0.0
N344 N 0.51982 0.4625 0.02654 0.0
C345 C 0.50561 0.42115 0.0316 0.0
C346 C 0.52957 0.42566 0.03168 0.0
H347 H 0.48245 0.43625 0.02911 0.0
H348 H 0.6107 0.48287 0.03038 0.0
H349 H 0.4388 0.45871 0.98634 0.0
H350 H 0.62323 0.52627 0.0284 0.0
H351 H 0.61114 0.5571 0.02565 0.0
H352 H 0.57789 0.44097 0.03235 0.0
H353 H 0.52356 0.56776 0.97955 0.0
H354 H 0.38305 0.47718 0.9822 0.0
H355 H 0.39544 0.44652 0.98451 0.0
H356 H 0.42771 0.56239 0.97789 0.0
H357 H 0.49065 0.40325 0.03344 0.0
H358 H 0.53306 0.41109 0.0336 0.0
H359 H 0.39519 0.52044 0.98025 0.0
H360 H 0.51493 0.60061 0.97554 0.0
N361 N 0.4511 0.49595 0.98552 0.0
C362 C 0.40215 0.48262 0.98319 0.0
C363 C 0.40907 0.46529 0.98441 0.0
C364 C 0.42003 0.50677 0.98278 0.0
C365 C 0.44468 0.51294 0.98382 0.0
C366 C 0.43376 0.4723 0.98542 0.0
N367 N 0.48636 0.54142 0.9826 0.0
C368 C 0.4629 0.53644 0.98237 0.0
C369 C 0.50012 0.58266 0.9775 0.0
C370 C 0.4761 0.57798 0.97778 0.0
C371 C 0.50494 0.564 0.97973 0.0
C372 C 0.45709 0.55458 0.98001 0.0
H373 H 0.4724 0.59243 0.97596 0.0
O374 O 0.51079 0.52145 0.96567 0.0
O375 O 0.52273 0.50659 0.99841 0.0
O376 O 0.52568 0.53443 0.0199 0.0
O377 O 0.49713 0.53617 0.00439 0.0
O378 O 0.53341 0.53536 0.98464 0.0
O379 O 0.47931 0.486 0.96768 0.0
O380 O 0.49481 0.48312 0.04295 0.0
O381 O 0.48401 0.49773 0.01052 0.0
O382 O 0.48136 0.4698 0.98892 0.0
O383 O 0.50984 0.46812 0.00454 0.0
O384 O 0.47328 0.46868 0.024 0.0
O385 O 0.52736 0.5179 0.04137 0.0
C386 C 0.54121 0.52454 0.9931 0.0
C387 C 0.43256 0.5487 0.97959 0.0
C388 C 0.41405 0.52482 0.98094 0.0
C389 C 0.49525 0.50196 0.95871 0.0
C390 C 0.48595 0.50515 0.94441 0.0
C391 C 0.46895 0.51296 0.94394 0.0
C392 C 0.49433 0.50044 0.93105 0.0
C393 C 0.48578 0.50351 0.91719 0.0
C394 C 0.46044 0.51612 0.93029 0.0
C395 C 0.46877 0.51149 0.91701 0.0
C396 C 0.51372 0.5451 0.01509 0.0
C397 C 0.46548 0.47971 0.01574 0.0
C398 C 0.51055 0.50228 0.05009 0.0
C399 C 0.51856 0.49844 0.06464 0.0
C400 C 0.53446 0.48934 0.0657 0.0
C401 C 0.50946 0.50321 0.07766 0.0
C402 C 0.51591 0.49858 0.09175 0.0
C403 C 0.54106 0.48486 0.07964 0.0
C404 C 0.53179 0.48933 0.09259 0.0
C405 C 0.49321 0.4591 0.99387 0.0
H406 H 0.4623 0.51665 0.95409 0.0
H407 H 0.50727 0.49413 0.93148 0.0
H408 H 0.44739 0.52228 0.93 0.0
H409 H 0.46211 0.51446 0.90659 0.0
H410 H 0.54163 0.48559 0.0558 0.0
H411 H 0.49696 0.51002 0.07681 0.0
H412 H 0.55334 0.47781 0.0804 0.0
H413 H 0.53723 0.48577 0.10328 0.0
Gd414 Gd 0.18129 0.35013 0.35712 0.0
Gd415 Gd 0.15796 0.31641 0.32165 0.0
C416 C 0.08429 0.24788 0.31803 0.0
C417 C 0.09616 0.21794 0.31375 0.0
C418 C 0.12699 0.25986 0.31625 0.0
C419 C 0.10907 0.26576 0.31842 0.0
C420 C 0.12077 0.23595 0.31363 0.0
C421 C 0.07794 0.2239 0.31596 0.0
C422 C 0.06664 0.25472 0.31947 0.0
C423 C 0.0739 0.27892 0.32079 0.0
N424 N 0.11587 0.2891 0.32039 0.0
C425 C 0.09873 0.29599 0.32103 0.0
H426 H 0.10406 0.31459 0.32216 0.0
C427 C 0.16875 0.27312 0.31255 0.0
N428 N 0.15054 0.2777 0.31617 0.0
C429 C 0.16351 0.24967 0.30993 0.0
C430 C 0.13944 0.23095 0.31064 0.0
H431 H 0.18741 0.28748 0.31209 0.0
H432 H 0.05901 0.20989 0.31576 0.0
H433 H 0.2351 0.35173 0.35519 0.0
H434 H 0.0474 0.24154 0.3193 0.0
H435 H 0.0604 0.28444 0.32168 0.0
H436 H 0.091 0.19942 0.31188 0.0
H437 H 0.15273 0.37922 0.36804 0.0
H438 H 0.29209 0.42466 0.35751 0.0
H439 H 0.27874 0.38172 0.35481 0.0
H440 H 0.24933 0.46703 0.3671 0.0
H441 H 0.17803 0.24606 0.30734 0.0
H442 H 0.13542 0.2128 0.30858 0.0
H443 H 0.28093 0.45642 0.362 0.0
H444 H 0.16256 0.42067 0.37325 0.0
N445 N 0.22352 0.37731 0.35775 0.0
C446 C 0.27284 0.41153 0.35772 0.0
C447 C 0.26538 0.38732 0.35622 0.0
C448 C 0.25539 0.41846 0.35984 0.0
C449 C 0.23056 0.40066 0.35992 0.0
C450 C 0.24054 0.37033 0.35646 0.0
N451 N 0.18933 0.38887 0.36314 0.0
C452 C 0.21288 0.40664 0.36271 0.0
C453 C 0.17688 0.41699 0.37024 0.0
C454 C 0.20095 0.43564 0.36922 0.0
C455 C 0.17139 0.39353 0.36733 0.0
C456 C 0.21937 0.43056 0.3656 0.0
H457 H 0.20517 0.45379 0.3715 0.0
O458 O 0.16299 0.34174 0.37851 0.0
O459 O 0.15084 0.31943 0.34545 0.0
O460 O 0.14699 0.34473 0.3249 0.0
O461 O 0.17557 0.37357 0.34111 0.0
O462 O 0.14128 0.33746 0.36041 0.0
O463 O 0.19596 0.34001 0.37586 0.0
O464 O 0.17652 0.32432 0.30038 0.0
O465 O 0.18816 0.3475 0.33319 0.0
O466 O 0.19233 0.32197 0.35346 0.0
O467 O 0.1625 0.29277 0.33811 0.0
O468 O 0.19808 0.32951 0.3185 0.0
O469 O 0.14336 0.3259 0.30257 0.0
C470 C 0.13288 0.31948 0.35141 0.0
C471 C 0.24398 0.44851 0.36505 0.0
C472 C 0.26197 0.44247 0.36215 0.0
C473 C 0.1791 0.33796 0.38504 0.0
C474 C 0.18707 0.34863 0.39995 0.0
C475 C 0.20289 0.37326 0.4016 0.0
C476 C 0.17799 0.33418 0.41271 0.0
C477 C 0.18438 0.34438 0.42709 0.0
C478 C 0.20947 0.38343 0.41579 0.0
C479 C 0.20024 0.36918 0.42843 0.0
C480 C 0.15895 0.36677 0.33043 0.0
C481 C 0.20631 0.34789 0.32718 0.0
C482 C 0.16038 0.32778 0.29359 0.0
C483 C 0.15268 0.31669 0.27877 0.0
C484 C 0.13761 0.29191 0.27728 0.0
C485 C 0.16152 0.33093 0.26594 0.0
C486 C 0.15582 0.32042 0.25164 0.0
C487 C 0.13159 0.28141 0.26317 0.0
C488 C 0.14069 0.29549 0.25044 0.0
C489 C 0.1797 0.29971 0.34841 0.0
H490 H 0.21002 0.38462 0.39194 0.0
H491 H 0.16556 0.31516 0.41144 0.0
H492 H 0.22169 0.40247 0.41699 0.0
H493 H 0.20571 0.37754 0.4393 0.0
H494 H 0.13068 0.2807 0.28701 0.0
H495 H 0.17324 0.35006 0.26711 0.0
H496 H 0.11995 0.26226 0.26208 0.0
H497 H 0.13569 0.28686 0.23963 0.0
Gd498 Gd 0.65029 0.82629 0.35538 0.0
Gd499 Gd 0.68909 0.84127 0.32219 0.0
C500 C 0.7576 0.83513 0.31935 0.0
C501 C 0.7895 0.87672 0.31758 0.0
C502 C 0.74707 0.86634 0.31948 0.0
C503 C 0.74006 0.8424 0.32031 0.0
C504 C 0.77183 0.88377 0.31786 0.0
C505 C 0.78239 0.85243 0.31827 0.0
C506 C 0.74965 0.81068 0.31905 0.0
C507 C 0.72476 0.79418 0.31963 0.0
N508 N 0.71595 0.82614 0.3213 0.0
C509 C 0.70807 0.80225 0.32065 0.0
H510 H 0.68892 0.78925 0.32103 0.0
C511 C 0.73527 0.89556 0.31695 0.0
N512 N 0.7295 0.87246 0.31945 0.0
C513 C 0.7596 0.91355 0.31552 0.0
C514 C 0.778 0.90766 0.31613 0.0
H515 H 0.72109 0.90018 0.31648 0.0
H516 H 0.79615 0.84719 0.31766 0.0
H517 H 0.64943 0.87799 0.35537 0.0
H518 H 0.76253 0.8044 0.31798 0.0
H519 H 0.71832 0.77522 0.31918 0.0
H520 H 0.80864 0.88985 0.31644 0.0
H521 H 0.61898 0.76832 0.3639 0.0
H522 H 0.57526 0.86167 0.354 0.0
H523 H 0.61931 0.89135 0.35429 0.0
H524 H 0.53035 0.77649 0.35929 0.0
H525 H 0.76414 0.9319 0.31391 0.0
H526 H 0.79683 0.9216 0.3149 0.0
H527 H 0.54214 0.81868 0.35571 0.0
H528 H 0.57611 0.73644 0.36688 0.0
N529 N 0.62288 0.84094 0.3553 0.0
C530 C 0.58844 0.85566 0.3545 0.0
C531 C 0.61327 0.87247 0.3547 0.0
C532 C 0.58091 0.83134 0.35543 0.0
C533 C 0.59882 0.82448 0.35593 0.0
C534 C 0.63033 0.86477 0.35533 0.0
N535 N 0.61004 0.79519 0.35894 0.0
C536 C 0.59217 0.80082 0.35786 0.0
C537 C 0.58037 0.75446 0.36428 0.0
C538 C 0.56167 0.75975 0.36248 0.0
C539 C 0.60461 0.77255 0.36262 0.0
C540 C 0.56746 0.78324 0.35942 0.0
H541 H 0.54291 0.74571 0.36377 0.0
O542 O 0.65366 0.8131 0.3769 0.0
O543 O 0.68346 0.8286 0.34546 0.0
O544 O 0.65912 0.80194 0.32234 0.0
O545 O 0.62822 0.79912 0.3378 0.0
O546 O 0.66283 0.79929 0.35845 0.0
O547 O 0.65874 0.84879 0.37495 0.0
O548 O 0.68735 0.85602 0.30087 0.0
O549 O 0.65581 0.83847 0.33201 0.0
O550 O 0.67975 0.86567 0.35473 0.0
O551 O 0.71109 0.86718 0.34046 0.0
O552 O 0.67627 0.86807 0.31921 0.0
O553 O 0.68029 0.81955 0.3022 0.0
C554 C 0.68254 0.81012 0.35078 0.0
C555 C 0.54946 0.78977 0.35828 0.0
C556 C 0.55617 0.81379 0.35625 0.0
C557 C 0.65747 0.83236 0.38389 0.0
C558 C 0.64398 0.8288 0.39774 0.0
C559 C 0.61949 0.82287 0.3977 0.0
C560 C 0.65613 0.83161 0.41126 0.0
C561 C 0.64419 0.82905 0.42488 0.0
C562 C 0.60733 0.81993 0.41116 0.0
C563 C 0.61957 0.82307 0.42468 0.0
C564 C 0.63616 0.7908 0.327 0.0
C565 C 0.65637 0.85673 0.32666 0.0
C566 C 0.68278 0.83677 0.29353 0.0
C567 C 0.69667 0.84035 0.27982 0.0
C568 C 0.72134 0.84691 0.28023 0.0
C569 C 0.68489 0.83706 0.26609 0.0
C570 C 0.69758 0.84019 0.2527 0.0
C571 C 0.7341 0.85012 0.267 0.0
C572 C 0.72234 0.84677 0.2533 0.0
C573 C 0.70299 0.87612 0.35078 0.0
H574 H 0.60986 0.82064 0.38734 0.0
H575 H 0.67496 0.83578 0.4111 0.0
H576 H 0.58843 0.81545 0.41111 0.0
H577 H 0.60989 0.82128 0.43494 0.0
H578 H 0.73069 0.8495 0.29071 0.0
H579 H 0.66571 0.83169 0.26585 0.0
H580 H 0.75317 0.85523 0.26737 0.0
H581 H 0.73266 0.84955 0.24318 0.0
Gd582 Gd 0.15742 0.84079 0.31969 0.0
Gd583 Gd 0.1795 0.82711 0.35433 0.0
C584 C 0.25387 0.83292 0.35951 0.0
C585 C 0.243 0.79136 0.36239 0.0
C586 C 0.21145 0.8019 0.35914 0.0
C587 C 0.22899 0.82575 0.35806 0.0
C588 C 0.2182 0.78444 0.36154 0.0
C589 C 0.2608 0.81557 0.36142 0.0
C590 C 0.27097 0.85734 0.35941 0.0
C591 C 0.26308 0.87391 0.358 0.0
N592 N 0.22166 0.84204 0.35622 0.0
C593 C 0.23823 0.86592 0.35652 0.0
H594 H 0.23245 0.87897 0.35547 0.0
C595 C 0.16969 0.77295 0.36112 0.0
N596 N 0.1877 0.79592 0.35854 0.0
C597 C 0.17546 0.75495 0.36338 0.0
C598 C 0.19982 0.76065 0.36343 0.0
H599 H 0.15082 0.76841 0.36105 0.0
H600 H 0.27985 0.82072 0.36243 0.0
H601 H 0.10431 0.78858 0.31961 0.0
H602 H 0.29021 0.86357 0.36076 0.0
H603 H 0.27607 0.89286 0.35813 0.0
H604 H 0.24857 0.7782 0.36414 0.0
H605 H 0.18416 0.89791 0.30945 0.0
H606 H 0.0459 0.80366 0.3196 0.0
H607 H 0.0604 0.77454 0.32015 0.0
H608 H 0.08664 0.8886 0.31315 0.0
H609 H 0.16113 0.73673 0.36516 0.0
H610 H 0.20423 0.74668 0.36526 0.0
H611 H 0.05589 0.84638 0.31719 0.0
H612 H 0.17321 0.92926 0.30554 0.0
N613 N 0.11492 0.82548 0.31919 0.0
C614 C 0.06527 0.80996 0.31935 0.0
C615 C 0.07338 0.79348 0.31962 0.0
C616 C 0.08224 0.83435 0.31825 0.0
C617 C 0.10724 0.8416 0.31807 0.0
C618 C 0.09839 0.80157 0.3193 0.0
N619 N 0.14812 0.87115 0.31499 0.0
C620 C 0.12444 0.86525 0.31591 0.0
C621 C 0.15931 0.91135 0.30854 0.0
C622 C 0.13516 0.90587 0.31027 0.0
C623 C 0.16545 0.89358 0.31072 0.0
C624 C 0.11728 0.88246 0.31373 0.0
H625 H 0.13043 0.91963 0.30851 0.0
O626 O 0.1749 0.85307 0.29821 0.0
O627 O 0.18783 0.83915 0.33091 0.0
O628 O 0.18959 0.86608 0.35335 0.0
O629 O 0.16363 0.86958 0.33619 0.0
O630 O 0.19756 0.86765 0.31702 0.0
O631 O 0.14382 0.81749 0.30032 0.0
O632 O 0.16148 0.81354 0.37551 0.0
O633 O 0.14942 0.82943 0.34328 0.0
O634 O 0.1472 0.80168 0.32147 0.0
O635 O 0.17653 0.80103 0.33678 0.0
O636 O 0.1394 0.80015 0.35654 0.0
O637 O 0.19198 0.84974 0.374 0.0
C638 C 0.20595 0.85735 0.3255 0.0
C639 C 0.0925 0.87559 0.31461 0.0
C640 C 0.075 0.85156 0.3169 0.0
C641 C 0.15939 0.83358 0.29127 0.0
C642 C 0.14951 0.83677 0.2772 0.0
C643 C 0.13179 0.84368 0.2772 0.0
C644 C 0.15803 0.83299 0.2636 0.0
C645 C 0.14889 0.83608 0.24998 0.0
C646 C 0.12273 0.8469 0.26378 0.0
C647 C 0.1312 0.84318 0.25026 0.0
C648 C 0.17893 0.87743 0.34761 0.0
C649 C 0.13125 0.81118 0.34856 0.0
C650 C 0.17616 0.83313 0.38271 0.0
C651 C 0.18534 0.83024 0.3971 0.0
C652 C 0.20214 0.8222 0.3979 0.0
C653 C 0.17709 0.83564 0.41025 0.0
C654 C 0.18555 0.83303 0.42424 0.0
C655 C 0.2106 0.81954 0.4117 0.0
C656 C 0.2024 0.82488 0.4248 0.0
C657 C 0.15977 0.79162 0.32622 0.0
H658 H 0.12497 0.84658 0.28754 0.0
H659 H 0.17151 0.82734 0.26367 0.0
H660 H 0.10913 0.85236 0.26385 0.0
H661 H 0.12408 0.84615 0.24003 0.0
H662 H 0.20868 0.81799 0.3879 0.0
H663 H 0.16435 0.84216 0.40954 0.0
H664 H 0.22351 0.81323 0.41227 0.0
H665 H 0.20902 0.82234 0.43536 0.0
Gd666 Gd 0.84821 0.68402 0.69028 0.0
Gd667 Gd 0.82607 0.65302 0.65404 0.0
C668 C 0.7517 0.58518 0.65052 0.0
C669 C 0.76282 0.55507 0.64481 0.0
C670 C 0.79416 0.59674 0.64771 0.0
C671 C 0.77658 0.60282 0.65068 0.0
C672 C 0.7875 0.57289 0.64442 0.0
C673 C 0.74495 0.5612 0.64788 0.0
C674 C 0.73436 0.59225 0.65269 0.0
C675 C 0.742 0.61647 0.65442 0.0
N676 N 0.78378 0.62616 0.65311 0.0
C677 C 0.76689 0.63331 0.65439 0.0
H678 H 0.77247 0.65192 0.65584 0.0
C679 C 0.83557 0.60978 0.64283 0.0
N680 N 0.81777 0.61441 0.64738 0.0
C681 C 0.8299 0.58638 0.63954 0.0
C682 C 0.80579 0.5678 0.64051 0.0
H683 H 0.85425 0.62408 0.64217 0.0
H684 H 0.72594 0.54736 0.64786 0.0
H685 H 0.90254 0.68712 0.68849 0.0
H686 H 0.71507 0.57924 0.65272 0.0
H687 H 0.72873 0.62219 0.65583 0.0
H688 H 0.75734 0.5366 0.64246 0.0
H689 H 0.8171 0.71121 0.70024 0.0
H690 H 0.9576 0.75794 0.70003 0.0
H691 H 0.94571 0.71671 0.6926 0.0
H692 H 0.91268 0.79801 0.70973 0.0
H693 H 0.84413 0.5827 0.63627 0.0
H694 H 0.80144 0.5497 0.63791 0.0
H695 H 0.94519 0.78836 0.70612 0.0
H696 H 0.82546 0.75122 0.70805 0.0
N697 N 0.89004 0.71166 0.69259 0.0
C698 C 0.93869 0.74528 0.69772 0.0
C699 C 0.93199 0.72193 0.69369 0.0
C700 C 0.92079 0.75174 0.69926 0.0
C701 C 0.89627 0.73426 0.69665 0.0
C702 C 0.90743 0.70518 0.69135 0.0
N703 N 0.85451 0.72172 0.69756 0.0
C704 C 0.87793 0.7395 0.69911 0.0
C705 C 0.84039 0.74819 0.70555 0.0
C706 C 0.86442 0.76683 0.70686 0.0
C707 C 0.83574 0.72552 0.70112 0.0
C708 C 0.88355 0.76253 0.70389 0.0
H709 H 0.86799 0.7843 0.71049 0.0
O710 O 0.8293 0.67417 0.71149 0.0
O711 O 0.81832 0.65352 0.67805 0.0
O712 O 0.81534 0.6813 0.65827 0.0
O713 O 0.8441 0.70906 0.67479 0.0
O714 O 0.80812 0.67088 0.69307 0.0
O715 O 0.86222 0.67239 0.70862 0.0
O716 O 0.84392 0.66088 0.63248 0.0
O717 O 0.85615 0.68334 0.6663 0.0
O718 O 0.86023 0.65677 0.68577 0.0
O719 O 0.83181 0.6287 0.66922 0.0
O720 O 0.86626 0.6664 0.65089 0.0
O721 O 0.81197 0.66428 0.63558 0.0
C722 C 0.80009 0.65305 0.68399 0.0
C723 C 0.90798 0.78024 0.70602 0.0
C724 C 0.92653 0.77478 0.70386 0.0
C725 C 0.84524 0.66993 0.71783 0.0
C726 C 0.85305 0.67981 0.73295 0.0
C727 C 0.86973 0.70416 0.73506 0.0
C728 C 0.8431 0.66493 0.74545 0.0
C729 C 0.84938 0.67441 0.76 0.0
C730 C 0.87625 0.71362 0.7494 0.0
C731 C 0.86612 0.69895 0.76178 0.0
C732 C 0.82736 0.703 0.66425 0.0
C733 C 0.87437 0.68388 0.66027 0.0
C734 C 0.82808 0.66526 0.62615 0.0
C735 C 0.81892 0.65403 0.61147 0.0
C736 C 0.80096 0.62986 0.61042 0.0
C737 C 0.82861 0.66737 0.59835 0.0
C738 C 0.8206 0.6565 0.58423 0.0
C739 C 0.79284 0.61905 0.59652 0.0
C740 C 0.80257 0.63219 0.58353 0.0
C741 C 0.84892 0.63523 0.67953 0.0
H742 H 0.87762 0.71585 0.72564 0.0
H743 H 0.83017 0.64615 0.74384 0.0
H744 H 0.88917 0.73245 0.75094 0.0
H745 H 0.87162 0.70677 0.77279 0.0
H746 H 0.79327 0.61935 0.62034 0.0
H747 H 0.84265 0.686 0.59915 0.0
H748 H 0.77894 0.60039 0.59581 0.0
H749 H 0.79576 0.62335 0.57289 0.0
Gd750 Gd 0.31522 0.16107 0.68922 0.0
Gd751 Gd 0.3539 0.17067 0.65625 0.0
C752 C 0.42166 0.16288 0.65886 0.0
C753 C 0.45408 0.20332 0.65373 0.0
C754 C 0.41182 0.19384 0.65379 0.0
C755 C 0.4044 0.17044 0.65732 0.0
C756 C 0.43667 0.21041 0.65149 0.0
C757 C 0.44658 0.17958 0.65744 0.0
C758 C 0.41332 0.13865 0.66136 0.0
C759 C 0.38831 0.12255 0.66168 0.0
N760 N 0.38017 0.15479 0.65846 0.0
C761 C 0.37191 0.13091 0.65997 0.0
H762 H 0.35268 0.1182 0.66033 0.0
C763 C 0.40054 0.22172 0.64573 0.0
N764 N 0.3945 0.19996 0.65155 0.0
C765 C 0.42496 0.23885 0.64334 0.0
C766 C 0.44316 0.23331 0.64648 0.0
H767 H 0.38651 0.22609 0.64335 0.0
H768 H 0.46013 0.17418 0.65876 0.0
H769 H 0.31718 0.21391 0.68614 0.0
H770 H 0.42598 0.13213 0.66269 0.0
H771 H 0.38164 0.10369 0.66331 0.0
H772 H 0.4733 0.21585 0.6522 0.0
H773 H 0.28168 0.10392 0.69918 0.0
H774 H 0.24408 0.20067 0.68365 0.0
H775 H 0.28849 0.22891 0.68357 0.0
H776 H 0.19588 0.1162 0.69149 0.0
H777 H 0.42971 0.25631 0.63911 0.0
H778 H 0.46205 0.24656 0.64457 0.0
H779 H 0.2096 0.15848 0.6864 0.0
H780 H 0.23815 0.07353 0.70211 0.0
N781 N 0.28939 0.17737 0.68737 0.0
C782 C 0.2566 0.19396 0.68483 0.0
C783 C 0.28166 0.20995 0.68481 0.0
C784 C 0.24802 0.16955 0.68676 0.0
C785 C 0.2651 0.16174 0.68814 0.0
C786 C 0.29789 0.20134 0.68629 0.0
N787 N 0.27441 0.13138 0.69275 0.0
C788 C 0.25736 0.13798 0.6909 0.0
C789 C 0.2433 0.09157 0.69889 0.0
C790 C 0.22543 0.09777 0.69629 0.0
C791 C 0.26788 0.10879 0.69727 0.0
C792 C 0.23236 0.12131 0.69245 0.0
H793 H 0.2064 0.08442 0.69758 0.0
O794 O 0.31733 0.14936 0.71148 0.0
O795 O 0.34828 0.16214 0.68028 0.0
O796 O 0.32368 0.13181 0.65876 0.0
O797 O 0.29283 0.1324 0.67249 0.0
O798 O 0.32769 0.13464 0.69467 0.0
O799 O 0.32284 0.18499 0.708 0.0
O800 O 0.349 0.18036 0.63394 0.0
O801 O 0.32125 0.17027 0.66533 0.0
O802 O 0.34611 0.19967 0.68781 0.0
O803 O 0.37623 0.20149 0.6718 0.0
O804 O 0.34185 0.1974 0.65077 0.0
O805 O 0.34612 0.14597 0.63785 0.0
C806 C 0.34755 0.14476 0.68707 0.0
C807 C 0.2152 0.12879 0.6905 0.0
C808 C 0.22301 0.15286 0.68762 0.0
C809 C 0.32104 0.16917 0.71767 0.0
C810 C 0.30695 0.16663 0.73114 0.0
C811 C 0.28256 0.16098 0.73035 0.0
C812 C 0.31818 0.16961 0.74504 0.0
C813 C 0.30519 0.16688 0.75825 0.0
C814 C 0.26951 0.15827 0.7434 0.0
C815 C 0.28069 0.16116 0.75728 0.0
C816 C 0.30056 0.12214 0.66287 0.0
C817 C 0.32227 0.18787 0.65864 0.0
C818 C 0.34638 0.16083 0.62798 0.0
C819 C 0.36047 0.16393 0.61444 0.0
C820 C 0.38513 0.17048 0.61511 0.0
C821 C 0.34911 0.16097 0.60059 0.0
C822 C 0.36226 0.16473 0.58732 0.0
C823 C 0.39835 0.17425 0.60202 0.0
C824 C 0.38707 0.17148 0.5882 0.0
C825 C 0.36859 0.21047 0.6824 0.0
H826 H 0.27364 0.15865 0.71971 0.0
H827 H 0.33717 0.17434 0.74552 0.0
H828 H 0.25065 0.15382 0.74275 0.0
H829 H 0.27007 0.15865 0.76723 0.0
H830 H 0.39414 0.17274 0.6257 0.0
H831 H 0.32992 0.15552 0.60021 0.0
H832 H 0.41743 0.17946 0.60259 0.0
H833 H 0.39785 0.17489 0.57822 0.0
Gd834 Gd 0.82474 0.17625 0.65428 0.0
Gd835 Gd 0.84679 0.16078 0.68829 0.0
C836 C 0.91889 0.16078 0.68758 0.0
C837 C 0.90555 0.11881 0.69146 0.0
C838 C 0.87612 0.13247 0.69122 0.0
C839 C 0.89449 0.1555 0.68854 0.0
C840 C 0.88148 0.11396 0.6932 0.0
C841 C 0.92424 0.14219 0.68863 0.0
C842 C 0.93721 0.18464 0.68606 0.0
C843 C 0.93103 0.20257 0.68617 0.0
N844 N 0.88862 0.17297 0.68772 0.0
C845 C 0.90656 0.19642 0.68724 0.0
H846 H 0.9021 0.21048 0.68717 0.0
C847 C 0.83506 0.107 0.69794 0.0
N848 N 0.85316 0.12852 0.6929 0.0
C849 C 0.83943 0.08801 0.70003 0.0
C850 C 0.86264 0.09138 0.69737 0.0
H851 H 0.81705 0.10428 0.69991 0.0
H852 H 0.94283 0.14583 0.68772 0.0
H853 H 0.77002 0.12593 0.65417 0.0
H854 H 0.95617 0.18945 0.68522 0.0
H855 H 0.9451 0.22114 0.68533 0.0
H856 H 0.91001 0.10476 0.69274 0.0
H857 H 0.85519 0.23455 0.64652 0.0
H858 H 0.71483 0.14556 0.65483 0.0
H859 H 0.72669 0.11443 0.65489 0.0
H860 H 0.76018 0.23082 0.65005 0.0
H861 H 0.82487 0.07079 0.70363 0.0
H862 H 0.866 0.07667 0.69902 0.0
H863 H 0.72752 0.18908 0.65315 0.0
H864 H 0.84685 0.26789 0.64385 0.0
N865 N 0.78281 0.16331 0.65403 0.0
C866 C 0.73393 0.15073 0.65448 0.0
C867 C 0.74055 0.13312 0.65448 0.0
C868 C 0.75202 0.1748 0.65361 0.0
C869 C 0.77661 0.18057 0.65328 0.0
C870 C 0.7652 0.13974 0.65405 0.0
N871 N 0.81824 0.20867 0.65078 0.0
C872 C 0.79492 0.204 0.65158 0.0
C873 C 0.83208 0.25001 0.64607 0.0
C874 C 0.80828 0.2457 0.64754 0.0
C875 C 0.83673 0.23112 0.64753 0.0
C876 C 0.78927 0.22241 0.65013 0.0
H877 H 0.80471 0.26035 0.64637 0.0
O878 O 0.84226 0.18921 0.63289 0.0
O879 O 0.85393 0.17158 0.66456 0.0
O880 O 0.8598 0.20058 0.68651 0.0
O881 O 0.83106 0.20348 0.67185 0.0
O882 O 0.86518 0.20112 0.65129 0.0
O883 O 0.80966 0.1544 0.63444 0.0
O884 O 0.82827 0.15138 0.70957 0.0
O885 O 0.8173 0.16475 0.67781 0.0
O886 O 0.81263 0.13671 0.6549 0.0
O887 O 0.83716 0.13081 0.67203 0.0
O888 O 0.80643 0.13557 0.69134 0.0
O889 O 0.8641 0.18255 0.70797 0.0
C890 C 0.8725 0.18902 0.65892 0.0
C891 C 0.76489 0.21691 0.651 0.0
C892 C 0.74629 0.19314 0.65276 0.0
C893 C 0.82604 0.17039 0.62567 0.0
C894 C 0.81728 0.17482 0.61156 0.0
C895 C 0.80029 0.18266 0.61139 0.0
C896 C 0.82612 0.17113 0.59805 0.0
C897 C 0.81788 0.17504 0.58434 0.0
C898 C 0.79214 0.18672 0.59786 0.0
C899 C 0.8008 0.18291 0.58443 0.0
C900 C 0.8483 0.21194 0.68216 0.0
C901 C 0.79879 0.14702 0.68331 0.0
C902 C 0.84627 0.16873 0.71676 0.0
C903 C 0.85275 0.16221 0.731 0.0
C904 C 0.86469 0.14892 0.73136 0.0
C905 C 0.84571 0.16829 0.74439 0.0
C906 C 0.85005 0.16071 0.75821 0.0
C907 C 0.86908 0.14132 0.74492 0.0
C908 C 0.86166 0.14694 0.75822 0.0
C909 C 0.82169 0.12391 0.6607 0.0
H910 H 0.79334 0.18561 0.62168 0.0
H911 H 0.83909 0.16484 0.59825 0.0
H912 H 0.77906 0.19283 0.59778 0.0
H913 H 0.79432 0.1864 0.5741 0.0
H914 H 0.87036 0.14419 0.72118 0.0
H915 H 0.83691 0.17896 0.74395 0.0
H916 H 0.87801 0.13077 0.74512 0.0
H917 H 0.86474 0.14011 0.76848 0.0
H918 H 0.26282 0.85126 0.07938 0.0
H919 H 0.29883 0.87949 0.06534 0.0
H920 H 0.31419 0.82314 0.05497 0.0
H921 H 0.27829 0.79485 0.06914 0.0
H922 H 0.35497 0.86443 0.06434 0.0
H923 H 0.29099 0.84206 0.02863 0.0
H924 H 0.25144 0.83538 0.01932 0.0
H925 H 0.27514 0.90976 0.02561 0.0
H926 H 0.31472 0.91683 0.03518 0.0
H927 H 0.45168 0.93888 0.01646 0.0
H928 H 0.41304 0.90486 0.02446 0.0
H929 H 0.3851 0.95235 0.03343 0.0
H930 H 0.42333 0.98618 0.02478 0.0
H931 H 0.34991 0.91205 0.02273 0.0
H932 H 0.41135 0.93388 0.06097 0.0
H933 H 0.45011 0.94088 0.07197 0.0
H934 H 0.43087 0.86848 0.06204 0.0
H935 H 0.39213 0.86112 0.05082 0.0
C936 C 0.27395 0.84492 0.07419 0.0
C937 C 0.2677 0.82082 0.07537 0.0
C938 C 0.2944 0.86101 0.06605 0.0
C939 C 0.30906 0.85336 0.05896 0.0
C940 C 0.30307 0.8294 0.06028 0.0
C941 C 0.28249 0.81324 0.06832 0.0
C942 C 0.33094 0.87056 0.05047 0.0
C943 C 0.35384 0.87454 0.05507 0.0
C944 C 0.3295 0.88409 0.03856 0.0
C945 C 0.30576 0.87992 0.03274 0.0
C946 C 0.2877 0.85696 0.02814 0.0
C947 C 0.26529 0.85311 0.0228 0.0
C948 C 0.26076 0.87212 0.0219 0.0
C949 C 0.27866 0.89504 0.02632 0.0
C950 C 0.3011 0.89898 0.03169 0.0
C951 C 0.43704 0.94194 0.01969 0.0
C952 C 0.44033 0.96512 0.01977 0.0
C953 C 0.41504 0.92252 0.02447 0.0
C954 C 0.39624 0.92605 0.02982 0.0
C955 C 0.39927 0.94911 0.02936 0.0
C956 C 0.42113 0.96844 0.02446 0.0
C957 C 0.37404 0.90624 0.03677 0.0
C958 C 0.35105 0.90176 0.03189 0.0
C959 C 0.3754 0.8924 0.04854 0.0
C960 C 0.39896 0.89701 0.05494 0.0
C961 C 0.4155 0.91952 0.061 0.0
C962 C 0.43743 0.92354 0.0673 0.0
C963 C 0.4429 0.90512 0.0677 0.0
C964 C 0.42658 0.88271 0.06171 0.0
C965 C 0.40464 0.87861 0.05539 0.0
H966 H 0.45968 0.9081 0.07276 0.0
H967 H 0.24339 0.86911 0.01776 0.0
H968 H 0.21928 0.49392 0.07128 0.0
H969 H 0.18833 0.49904 0.05797 0.0
H970 H 0.13254 0.43002 0.07327 0.0
H971 H 0.1633 0.42477 0.08651 0.0
H972 H 0.12886 0.43609 0.04324 0.0
H973 H 0.13837 0.48001 0.08858 0.0
H974 H 0.16111 0.51086 0.10764 0.0
H975 H 0.18335 0.56568 0.07462 0.0
H976 H 0.16103 0.53511 0.0553 0.0
H977 H 0.02087 0.43636 0.02538 0.0
H978 H 0.05526 0.43454 0.0359 0.0
H979 H 0.10171 0.51003 0.02801 0.0
H980 H 0.06644 0.51217 0.0187 0.0
H981 H 0.11285 0.50255 0.05303 0.0
H982 H 0.1085 0.46073 0.00749 0.0
H983 H 0.08898 0.43107 0.98721 0.0
H984 H 0.06008 0.37432 0.01917 0.0
H985 H 0.07962 0.40368 0.03954 0.0
C986 C 0.20041 0.47984 0.0718 0.0
C987 C 0.19379 0.45897 0.08003 0.0
C988 C 0.18271 0.48286 0.06427 0.0
C989 C 0.15802 0.46499 0.06468 0.0
C990 C 0.15142 0.4441 0.07281 0.0
C991 C 0.16903 0.44119 0.08046 0.0
C992 C 0.13906 0.46763 0.05636 0.0
C993 C 0.12521 0.45052 0.04548 0.0
C994 C 0.13478 0.48687 0.05886 0.0
C995 C 0.14827 0.50524 0.07046 0.0
C996 C 0.14831 0.49862 0.08535 0.0
C997 C 0.16108 0.51606 0.09621 0.0
C998 C 0.17373 0.54021 0.09234 0.0
C999 C 0.17359 0.54696 0.0776 0.0
C1000 C 0.16087 0.52959 0.06669 0.0
C1001 C 0.03851 0.45253 0.02568 0.0
C1002 C 0.04099 0.47429 0.02086 0.0
C1003 C 0.05838 0.45143 0.03156 0.0
C1004 C 0.0816 0.47198 0.03247 0.0
C1005 C 0.08419 0.49378 0.0274 0.0
C1006 C 0.06406 0.49498 0.02186 0.0
C1007 C 0.10242 0.47093 0.03979 0.0
C1008 C 0.11661 0.48827 0.05058 0.0
C1009 C 0.10732 0.45207 0.03706 0.0
C1010 C 0.09512 0.43439 0.02497 0.0
C1011 C 0.09771 0.44194 0.01013 0.0
C1012 C 0.08679 0.42519 0.99865 0.0
C1013 C 0.07312 0.40085 1.00191 0.0
C1014 C 0.07058 0.39319 0.01666 0.0
C1015 C 0.08167 0.40986 0.02816 0.0
H1016 H 0.06462 0.38793 0.99301 0.0
H1017 H 0.18359 0.55368 0.10076 0.0
H1018 H 0.58456 0.73864 0.09015 0.0
H1019 H 0.57684 0.70201 0.0775 0.0
H1020 H 0.50745 0.69089 0.06199 0.0
H1021 H 0.51461 0.72707 0.07515 0.0
H1022 H 0.50355 0.64961 0.07107 0.0
H1023 H 0.55643 0.71366 0.039 0.0
H1024 H 0.59283 0.75173 0.03231 0.0
H1025 H 0.6387 0.72288 0.0439 0.0
H1026 H 0.60257 0.68472 0.05088 0.0
H1027 H 0.48659 0.56713 0.01323 0.0
H1028 H 0.49355 0.60325 0.02628 0.0
H1029 H 0.55855 0.61007 0.04643 0.0
H1030 H 0.55178 0.5739 0.03344 0.0
H1031 H 0.56417 0.65321 0.03473 0.0
H1032 H 0.51061 0.58938 0.06753 0.0
H1033 H 0.47374 0.55105 0.07328 0.0
H1034 H 0.42872 0.57945 0.05883 0.0
H1035 H 0.46532 0.61794 0.05302 0.0
C1036 C 0.56749 0.72824 0.08424 0.0
C1037 C 0.55021 0.73581 0.08363 0.0
C1038 C 0.56321 0.70742 0.07688 0.0
C1039 C 0.54172 0.6939 0.06862 0.0
C1040 C 0.5242 0.70111 0.06825 0.0
C1041 C 0.52842 0.7219 0.07566 0.0
C1042 C 0.53774 0.67246 0.0602 0.0
C1043 C 0.51667 0.65047 0.063 0.0
C1044 C 0.55503 0.6735 0.04981 0.0
C1045 C 0.5768 0.69641 0.0456 0.0
C1046 C 0.57429 0.7155 0.04024 0.0
C1047 C 0.59487 0.73708 0.03638 0.0
C1048 C 0.61807 0.73974 0.03772 0.0
C1049 C 0.62072 0.7208 0.04289 0.0
C1050 C 0.60019 0.69919 0.04679 0.0
C1051 C 0.50249 0.57639 0.02033 0.0
C1052 C 0.51865 0.56765 0.02231 0.0
C1053 C 0.50634 0.59694 0.02785 0.0
C1054 C 0.52643 0.60913 0.0374 0.0
C1055 C 0.54291 0.60082 0.03912 0.0
C1056 C 0.53897 0.58014 0.03172 0.0
C1057 C 0.53014 0.6305 0.04569 0.0
C1058 C 0.55112 0.65243 0.04283 0.0
C1059 C 0.51273 0.62943 0.05593 0.0
C1060 C 0.49069 0.60647 0.05974 0.0
C1061 C 0.49283 0.58741 0.06554 0.0
C1062 C 0.47199 0.56567 0.06884 0.0
C1063 C 0.44889 0.56279 0.06641 0.0
C1064 C 0.4466 0.58171 0.06076 0.0
C1065 C 0.46739 0.60351 0.0575 0.0
H1066 H 0.43278 0.54592 0.0689 0.0
H1067 H 0.63398 0.75647 0.03471 0.0
H1068 H 0.81821 0.2794 0.91003 0.0
H1069 H 0.84959 0.31617 0.92182 0.0
H1070 H 0.83634 0.27974 0.9638 0.0
H1071 H 0.80559 0.2426 0.95204 0.0
H1072 H 0.84002 0.32581 0.96544 0.0
H1073 H 0.8836 0.2884 0.94514 0.0
H1074 H 0.89516 0.27023 0.92488 0.0
H1075 H 0.92428 0.33535 0.89999 0.0
H1076 H 0.91255 0.3538 0.92003 0.0
H1077 H 0.94163 0.40922 0.00651 0.0
H1078 H 0.91205 0.37227 0.99408 0.0
H1079 H 0.93548 0.40681 0.95145 0.0
H1080 H 0.96541 0.44379 0.96397 0.0
H1081 H 0.92615 0.36223 0.94938 0.0
H1082 H 0.88641 0.40142 0.96954 0.0
H1083 H 0.87542 0.42092 0.98913 0.0
H1084 H 0.83661 0.35443 0.01245 0.0
H1085 H 0.84888 0.33481 0.99353 0.0
C1086 C 0.82208 0.27906 0.92174 0.0
C1087 C 0.80937 0.25788 0.93003 0.0
C1088 C 0.83993 0.30018 0.92848 0.0
C1089 C 0.84536 0.30063 0.94366 0.0
C1090 C 0.83235 0.27977 0.95207 0.0
C1091 C 0.81467 0.25857 0.94532 0.0
C1092 C 0.865 0.32272 0.9507 0.0
C1093 C 0.85891 0.33365 0.9621 0.0
C1094 C 0.88948 0.33331 0.94593 0.0
C1095 C 0.89698 0.3224 0.93402 0.0
C1096 C 0.89232 0.29879 0.93531 0.0
C1097 C 0.89892 0.28845 0.92387 0.0
C1098 C 0.91038 0.3016 0.91113 0.0
C1099 C 0.91537 0.32517 0.90985 0.0
C1100 C 0.90877 0.33558 0.92125 0.0
C1101 C 0.94034 0.40898 0.99453 0.0
C1102 C 0.95534 0.4295 0.98624 0.0
C1103 C 0.92356 0.3878 0.9874 0.0
C1104 C 0.92112 0.38688 0.97183 0.0
C1105 C 0.93693 0.40709 0.96347 0.0
C1106 C 0.95398 0.4282 0.97063 0.0
C1107 C 0.90131 0.36526 0.96437 0.0
C1108 C 0.90731 0.35446 0.9528 0.0
C1109 C 0.87664 0.35501 0.96884 0.0
C1110 C 0.86878 0.36664 0.98013 0.0
C1111 C 0.87576 0.39096 0.97891 0.0
C1112 C 0.8693 0.40206 0.98992 0.0
C1113 C 0.85502 0.38886 1.00192 0.0
C1114 C 0.84758 0.36461 1.0031 0.0
C1115 C 0.85446 0.35352 0.99229 0.0
H1116 H 0.84973 0.39742 0.01031 0.0
H1117 H 0.91544 0.29355 0.90228 0.0
H1118 H 0.72799 0.51219 0.94386 0.0
H1119 H 0.69188 0.50706 0.95709 0.0
H1120 H 0.70522 0.5752 0.94076 0.0
H1121 H 0.74135 0.58046 0.92756 0.0
H1122 H 0.69437 0.56942 0.97084 0.0
H1123 H 0.66124 0.52494 0.92541 0.0
H1124 H 0.65412 0.49437 0.90648 0.0
H1125 H 0.62129 0.4394 0.93946 0.0
H1126 H 0.62854 0.46971 0.95864 0.0
H1127 H 0.58242 0.56452 0.98512 0.0
H1128 H 0.62032 0.5681 0.97614 0.0
H1129 H 0.593 0.49352 0.98559 0.0
H1130 H 0.55424 0.48961 0.99353 0.0
H1131 H 0.61188 0.50113 0.96032 0.0
H1132 H 0.64724 0.544 0.00602 0.0
H1133 H 0.65661 0.57378 0.02602 0.0
H1134 H 0.68577 0.63015 0.99379 0.0
H1135 H 0.67688 0.6007 0.9737 0.0
C1136 C 0.72331 0.52615 0.94316 0.0
C1137 C 0.73757 0.54672 0.93462 0.0
C1138 C 0.70255 0.52311 0.95064 0.0
C1139 C 0.69567 0.54066 0.94985 0.0
C1140 C 0.71009 0.56138 0.94152 0.0
C1141 C 0.73067 0.5643 0.93391 0.0
C1142 C 0.67356 0.53757 0.95775 0.0
C1143 C 0.67628 0.5546 0.96845 0.0
C1144 C 0.65003 0.51785 0.955 0.0
C1145 C 0.64569 0.49962 0.94349 0.0
C1146 C 0.65271 0.50636 0.92865 0.0
C1147 C 0.64861 0.48908 0.91787 0.0
C1148 C 0.63733 0.46497 0.92177 0.0
C1149 C 0.63007 0.45809 0.93646 0.0
C1150 C 0.63416 0.47531 0.94728 0.0
C1151 C 0.58468 0.54898 0.98555 0.0
C1152 C 0.56546 0.52691 0.99036 0.0
C1153 C 0.60655 0.55108 0.98053 0.0
C1154 C 0.61006 0.53124 0.9804 0.0
C1155 C 0.59102 0.50923 0.98559 0.0
C1156 C 0.56888 0.50703 0.99035 0.0
C1157 C 0.63253 0.53303 0.97355 0.0
C1158 C 0.62992 0.51582 0.96293 0.0
C1159 C 0.65626 0.55245 0.97649 0.0
C1160 C 0.66106 0.57015 0.98841 0.0
C1161 C 0.6554 0.56273 1.00324 0.0
C1162 C 0.66075 0.57955 0.01457 0.0
C1163 C 0.67157 0.60381 0.01116 0.0
C1164 C 0.6773 0.61134 0.99642 0.0
C1165 C 0.67224 0.59462 0.98507 0.0
H1166 H 0.67561 0.61679 0.01994 0.0
H1167 H 0.63415 0.45161 0.91341 0.0
H1168 H 0.48309 0.2124 0.93808 0.0
H1169 H 0.49168 0.18487 0.95177 0.0
H1170 H 0.42334 0.12552 0.93679 0.0
H1171 H 0.41408 0.1531 0.92362 0.0
H1172 H 0.42987 0.12137 0.96552 0.0
H1173 H 0.47817 0.1375 0.92149 0.0
H1174 H 0.50852 0.16256 0.90273 0.0
H1175 H 0.564 0.19219 0.93652 0.0
H1176 H 0.5339 0.16752 0.95552 0.0
H1177 H 0.45281 0.02651 0.97905 0.0
H1178 H 0.44519 0.05645 0.96782 0.0
H1179 H 0.51036 0.11258 0.98846 0.0
H1180 H 0.51827 0.08267 0.99977 0.0
H1181 H 0.50652 0.11966 0.95806 0.0
H1182 H 0.45759 0.1011 1.00186 0.0
H1183 H 0.42688 0.07451 0.01996 0.0
H1184 H 0.372 0.04794 0.98577 0.0
H1185 H 0.40248 0.07412 0.9674 0.0
C1186 C 0.46979 0.19351 0.93778 0.0
C1187 C 0.44788 0.18496 0.92975 0.0
C1188 C 0.47485 0.17776 0.94549 0.0
C1189 C 0.45828 0.1531 0.94517 0.0
C1190 C 0.43642 0.14448 0.93716 0.0
C1191 C 0.43127 0.16025 0.9295 0.0
C1192 C 0.46359 0.13632 0.95338 0.0
C1193 C 0.4465 0.12081 0.96375 0.0
C1194 C 0.48558 0.13599 0.95135 0.0
C1195 C 0.50372 0.15085 0.93995 0.0
C1196 C 0.4968 0.14951 0.92494 0.0
C1197 C 0.51396 0.16361 0.91426 0.0
C1198 C 0.53816 0.17901 0.91844 0.0
C1199 C 0.54525 0.18028 0.93331 0.0
C1200 C 0.52815 0.16623 0.94403 0.0
C1201 C 0.46549 0.0452 0.98131 0.0
C1202 C 0.48613 0.05219 0.99035 0.0
C1203 C 0.46104 0.06228 0.97491 0.0
C1204 C 0.47713 0.08669 0.97739 0.0
C1205 C 0.49771 0.0938 0.98645 0.0
C1206 C 0.5021 0.07668 0.99297 0.0
C1207 C 0.47274 0.10468 0.97007 0.0
C1208 C 0.48998 0.12037 0.95987 0.0
C1209 C 0.45082 0.10505 0.97216 0.0
C1210 C 0.43238 0.08945 0.98322 0.0
C1211 C 0.43902 0.08947 0.99817 0.0
C1212 C 0.42164 0.07448 0.00849 0.0
C1213 C 0.39752 0.05951 0.00402 0.0
C1214 C 0.3907 0.05954 0.98922 0.0
C1215 C 0.40801 0.07447 0.97885 0.0
H1216 H 0.38409 0.04791 0.01202 0.0
H1217 H 0.55142 0.18991 0.91016 0.0
H1218 H 0.72218 0.20497 0.94063 0.0
H1219 H 0.68638 0.17579 0.95442 0.0
H1220 H 0.69845 0.11928 0.93896 0.0
H1221 H 0.73416 0.14833 0.92513 0.0
H1222 H 0.65193 0.10603 0.93655 0.0
H1223 H 0.71286 0.14227 0.9749 0.0
H1224 H 0.74424 0.1755 0.98988 0.0
H1225 H 0.69136 0.19427 0.00424 0.0
H1226 H 0.65973 0.16134 0.98916 0.0
H1227 H 0.57867 0.01339 0.98504 0.0
H1228 H 0.61626 0.04697 0.97539 0.0
H1229 H 0.58862 0.09459 0.98452 0.0
H1230 H 0.55065 0.06088 0.99379 0.0
H1231 H 0.64169 0.11368 0.99069 0.0
H1232 H 0.58076 0.07691 0.95249 0.0
H1233 H 0.54931 0.04274 0.93821 0.0
H1234 H 0.60267 0.02473 0.92373 0.0
H1235 H 0.63439 0.05851 0.93826 0.0
C1236 C 0.7173 0.18635 0.94026 0.0
C1237 C 0.73105 0.17899 0.93178 0.0
C1238 C 0.69683 0.16968 0.94816 0.0
C1239 C 0.68983 0.14533 0.94789 0.0
C1240 C 0.70344 0.13794 0.93934 0.0
C1241 C 0.72382 0.15457 0.93139 0.0
C1242 C 0.66809 0.1274 0.95623 0.0
C1243 C 0.6499 0.10764 0.94841 0.0
C1244 C 0.665 0.12973 0.97167 0.0
C1245 C 0.68399 0.14951 0.98075 0.0
C1246 C 0.70797 0.15361 0.98114 0.0
C1247 C 0.72579 0.17237 0.98968 0.0
C1248 C 0.71982 0.18703 0.99797 0.0
C1249 C 0.69598 0.18292 0.99779 0.0
C1250 C 0.67809 0.16421 0.98925 0.0
C1251 C 0.58085 0.03112 0.98529 0.0
C1252 C 0.56188 0.03458 0.99032 0.0
C1253 C 0.60229 0.05026 0.97979 0.0
C1254 C 0.60512 0.0732 0.97917 0.0
C1255 C 0.5868 0.07702 0.98497 0.0
C1256 C 0.56516 0.05776 0.99032 0.0
C1257 C 0.62598 0.09237 0.97099 0.0
C1258 C 0.64384 0.11227 0.97882 0.0
C1259 C 0.62884 0.09021 0.95556 0.0
C1260 C 0.6099 0.07009 0.94661 0.0
C1261 C 0.58575 0.06553 0.94639 0.0
C1262 C 0.56787 0.04624 0.93823 0.0
C1263 C 0.57396 0.03152 0.93009 0.0
C1264 C 0.59797 0.03612 0.93007 0.0
C1265 C 0.61591 0.05533 0.93827 0.0
H1266 H 0.56009 0.01658 0.92378 0.0
H1267 H 0.73364 0.20154 0.00458 0.0
H1268 H 0.82122 0.56603 0.95136 0.0
H1269 H 0.85201 0.55892 0.96319 0.0
H1270 H 0.8431 0.50953 0.92809 0.0
H1271 H 0.81283 0.51716 0.91596 0.0
H1272 H 0.84206 0.49451 0.96098 0.0
H1273 H 0.88923 0.5543 0.92434 0.0
H1274 H 0.90365 0.59278 0.91161 0.0
H1275 H 0.93297 0.63033 0.95279 0.0
H1276 H 0.91835 0.59202 0.96583 0.0
H1277 H 0.94254 0.47952 0.98413 0.0
H1278 H 0.90873 0.48157 0.97267 0.0
H1279 H 0.94239 0.55613 0.98519 0.0
H1280 H 0.97765 0.55461 0.99451 0.0
H1281 H 0.92935 0.55659 0.96129 0.0
H1282 H 0.86901 0.49731 0.99884 0.0
H1283 H 0.84457 0.45859 0.01159 0.0
H1284 H 0.83809 0.42114 0.97082 0.0
H1285 H 0.86119 0.45954 0.95765 0.0
C1286 C 0.8258 0.55361 0.9462 0.0
C1287 C 0.81463 0.54213 0.93275 0.0
C1288 C 0.84342 0.54962 0.95293 0.0
C1289 C 0.84986 0.53371 0.94651 0.0
C1290 C 0.8384 0.52187 0.93323 0.0
C1291 C 0.82119 0.52629 0.9263 0.0
C1292 C 0.86862 0.52957 0.95368 0.0
C1293 C 0.86124 0.508 0.96106 0.0
C1294 C 0.89349 0.54725 0.95393 0.0
C1295 C 0.90245 0.57029 0.94609 0.0
C1296 C 0.89853 0.57075 0.93071 0.0
C1297 C 0.90679 0.59253 0.92343 0.0
C1298 C 0.91916 0.61399 0.93139 0.0
C1299 C 0.92335 0.6137 0.94665 0.0
C1300 C 0.9151 0.59196 0.95398 0.0
C1301 C 0.94241 0.49621 0.98461 0.0
C1302 C 0.96261 0.51687 0.99041 0.0
C1303 C 0.92274 0.49737 0.97819 0.0
C1304 C 0.92225 0.51899 0.97802 0.0
C1305 C 0.94202 0.53921 0.98471 0.0
C1306 C 0.9622 0.53835 0.99029 0.0
C1307 C 0.90298 0.52167 0.96968 0.0
C1308 C 0.91025 0.54302 0.96171 0.0
C1309 C 0.87786 0.50388 0.96914 0.0
C1310 C 0.86738 0.4812 0.9774 0.0
C1311 C 0.8628 0.4808 0.99269 0.0
C1312 C 0.84898 0.45895 0.99995 0.0
C1313 C 0.84025 0.43748 0.9921 0.0
C1314 C 0.84502 0.43778 0.97692 0.0
C1315 C 0.85831 0.45954 0.96953 0.0
H1316 H 0.82958 0.42063 0.99776 0.0
H1317 H 0.92555 0.63083 0.92574 0.0
H1318 H 0.41423 0.26086 0.9228 0.0
H1319 H 0.4235 0.29821 0.93519 0.0
H1320 H 0.49228 0.3073 0.95028 0.0
H1321 H 0.48331 0.27009 0.93774 0.0
H1322 H 0.46812 0.31596 0.97246 0.0
H1323 H 0.49099 0.33978 0.92181 0.0
H1324 H 0.48508 0.33791 0.89461 0.0
H1325 H 0.42588 0.35165 0.89994 0.0
H1326 H 0.43122 0.35326 0.92721 0.0
H1327 H 0.52008 0.43681 0.9957 0.0
H1328 H 0.51179 0.39959 0.98363 0.0
H1329 H 0.44556 0.39196 0.96479 0.0
H1330 H 0.45411 0.42958 0.97645 0.0
H1331 H 0.46919 0.38257 0.94452 0.0
H1332 H 0.44559 0.35797 0.99516 0.0
H1333 H 0.45183 0.36053 0.02235 0.0
H1334 H 0.51225 0.34862 0.01709 0.0
H1335 H 0.50651 0.34621 0.98984 0.0
C1336 C 0.43146 0.27094 0.9286 0.0
C1337 C 0.44809 0.26256 0.92922 0.0
C1338 C 0.43668 0.29223 0.93572 0.0
C1339 C 0.45866 0.3056 0.94354 0.0
C1340 C 0.4752 0.2972 0.94432 0.0
C1341 C 0.47001 0.27592 0.93718 0.0
C1342 C 0.46435 0.32835 0.95093 0.0
C1343 C 0.46866 0.33066 0.96633 0.0
C1344 C 0.46456 0.3473 0.94296 0.0
C1345 C 0.46136 0.3464 0.92656 0.0
C1346 C 0.47659 0.3422 0.91719 0.0
C1347 C 0.47336 0.34123 0.90176 0.0
C1348 C 0.45508 0.3446 0.89555 0.0
C1349 C 0.44002 0.34901 0.90477 0.0
C1350 C 0.44315 0.34998 0.92021 0.0
C1351 C 0.50365 0.42713 0.98907 0.0
C1352 C 0.48769 0.43609 0.98708 0.0
C1353 C 0.4989 0.40581 0.98221 0.0
C1354 C 0.47787 0.3928 0.97346 0.0
C1355 C 0.46189 0.4017 0.97149 0.0
C1356 C 0.46678 0.42317 0.9782 0.0
C1357 C 0.47274 0.37015 0.9661 0.0
C1358 C 0.4686 0.36787 0.95067 0.0
C1359 C 0.47261 0.35122 0.97405 0.0
C1360 C 0.47572 0.35208 0.99046 0.0
C1361 C 0.46026 0.35598 0.9998 0.0
C1362 C 0.46369 0.35738 0.01522 0.0
C1363 C 0.48245 0.35478 0.02144 0.0
C1364 C 0.49773 0.35064 0.01226 0.0
C1365 C 0.49436 0.3492 0.99682 0.0
H1366 H 0.48513 0.35597 0.03338 0.0
H1367 H 0.45262 0.34384 0.8836 0.0
H1368 H 0.18244 0.72137 0.09898 0.0
H1369 H 0.15231 0.68325 0.08804 0.0
H1370 H 0.16452 0.71634 0.0449 0.0
H1371 H 0.19368 0.75484 0.05591 0.0
H1372 H 0.11793 0.68873 0.0489 0.0
H1373 H 0.18762 0.67918 0.05507 0.0
H1374 H 0.22144 0.67891 0.06849 0.0
H1375 H 0.17051 0.62456 0.09776 0.0
H1376 H 0.13637 0.62476 0.08465 0.0
H1377 H 0.06498 0.58371 0.00434 0.0
H1378 H 0.09381 0.62113 0.01661 0.0
H1379 H 0.07021 0.58742 0.05941 0.0
H1380 H 0.04147 0.54967 0.04706 0.0
H1381 H 0.12151 0.6145 0.05629 0.0
H1382 H 0.05168 0.62376 0.04882 0.0
H1383 H 0.01866 0.62356 0.03416 0.0
H1384 H 0.07135 0.67847 0.00592 0.0
H1385 H 0.10471 0.67873 0.02027 0.0
C1386 C 0.17859 0.72063 0.08718 0.0
C1387 C 0.19054 0.74127 0.07835 0.0
C1388 C 0.16154 0.6987 0.0809 0.0
C1389 C 0.15632 0.69678 0.06559 0.0
C1390 C 0.16826 0.71731 0.05673 0.0
C1391 C 0.18516 0.7393 0.06303 0.0
C1392 C 0.13804 0.67352 0.05885 0.0
C1393 C 0.11894 0.6726 0.05037 0.0
C1394 C 0.13895 0.65226 0.06103 0.0
C1395 C 0.15945 0.65218 0.06898 0.0
C1396 C 0.18364 0.66732 0.06445 0.0
C1397 C 0.20287 0.66715 0.07199 0.0
C1398 C 0.19813 0.65178 0.08399 0.0
C1399 C 0.17415 0.6365 0.08847 0.0
C1400 C 0.15485 0.63662 0.08099 0.0
C1401 C 0.06616 0.58414 0.01632 0.0
C1402 C 0.05125 0.56368 0.0247 0.0
C1403 C 0.08244 0.60563 0.02335 0.0
C1404 C 0.08412 0.60706 0.03893 0.0
C1405 C 0.0692 0.58667 0.04737 0.0
C1406 C 0.05271 0.5652 0.04032 0.0
C1407 C 0.10164 0.62987 0.04632 0.0
C1408 C 0.12055 0.63068 0.0549 0.0
C1409 C 0.10072 0.65107 0.04411 0.0
C1410 C 0.08069 0.65112 0.03555 0.0
C1411 C 0.05623 0.63567 0.03942 0.0
C1412 C 0.03745 0.63556 0.03117 0.0
C1413 C 0.04291 0.65095 0.01909 0.0
C1414 C 0.06716 0.66653 0.01526 0.0
C1415 C 0.08601 0.66669 0.02346 0.0
H1416 H 0.02834 0.65084 0.01272 0.0
H1417 H 0.21305 0.65166 0.08981 0.0
H1418 H 0.26957 0.42521 0.08564 0.0
H1419 H 0.30567 0.43112 0.07215 0.0
H1420 H 0.31987 0.50064 0.05811 0.0
H1421 H 0.28362 0.49478 0.07159 0.0
H1422 H 0.31493 0.43842 0.04201 0.0
H1423 H 0.38337 0.53692 0.05624 0.0
H1424 H 0.39264 0.56578 0.07676 0.0
H1425 H 0.3611 0.50826 0.10813 0.0
H1426 H 0.35176 0.4791 0.08784 0.0
H1427 H 0.45365 0.51554 0.01639 0.0
H1428 H 0.41605 0.51265 0.02586 0.0
H1429 H 0.38751 0.43766 0.03456 0.0
H1430 H 0.42423 0.44027 0.02422 0.0
H1431 H 0.39885 0.50453 0.05204 0.0
H1432 H 0.3305 0.40624 0.03785 0.0
H1433 H 0.31999 0.37706 0.0174 0.0
H1434 H 0.34995 0.43409 0.98567 0.0
H1435 H 0.36094 0.46366 0.00601 0.0
C1436 C 0.28048 0.44186 0.0798 0.0
C1437 C 0.2737 0.45954 0.07973 0.0
C1438 C 0.30107 0.44517 0.07202 0.0
C1439 C 0.31563 0.46638 0.06417 0.0
C1440 C 0.30908 0.4842 0.06418 0.0
C1441 C 0.28826 0.48076 0.07181 0.0
C1442 C 0.33712 0.46937 0.05557 0.0
C1443 C 0.33331 0.45277 0.04429 0.0
C1444 C 0.36106 0.48844 0.05822 0.0
C1445 C 0.36656 0.50583 0.07049 0.0
C1446 C 0.37838 0.53045 0.06752 0.0
C1447 C 0.38364 0.54685 0.07911 0.0
C1448 C 0.37733 0.53885 0.09372 0.0
C1449 C 0.3658 0.51442 0.09679 0.0
C1450 C 0.36047 0.49795 0.08525 0.0
C1451 C 0.43895 0.49827 0.01976 0.0
C1452 C 0.44171 0.47799 0.01919 0.0
C1453 C 0.41751 0.49666 0.02538 0.0
C1454 C 0.39849 0.47482 0.03079 0.0
C1455 C 0.40128 0.45457 0.03005 0.0
C1456 C 0.42247 0.45611 0.02422 0.0
C1457 C 0.37676 0.4735 0.03838 0.0
C1458 C 0.38047 0.49035 0.04956 0.0
C1459 C 0.35265 0.45467 0.03562 0.0
C1460 C 0.34678 0.43713 0.02342 0.0
C1461 C 0.33494 0.41254 0.02651 0.0
C1462 C 0.32898 0.39596 0.01496 0.0
C1463 C 0.33449 0.40375 1.00025 0.0
C1464 C 0.34598 0.42814 0.99708 0.0
C1465 C 0.35222 0.44482 0.00861 0.0
H1466 H 0.32975 0.39089 0.99131 0.0
H1467 H 0.3815 0.55158 0.10267 0.0
H1468 H 0.51366 0.78592 0.07462 0.0
H1469 H 0.50561 0.81402 0.06101 0.0
H1470 H 0.57552 0.87226 0.07484 0.0
H1471 H 0.58369 0.84431 0.08842 0.0
H1472 H 0.54067 0.88389 0.07774 0.0
H1473 H 0.5667 0.84904 0.03983 0.0
H1474 H 0.56576 0.81607 0.02539 0.0
H1475 H 0.49244 0.79304 0.01141 0.0
H1476 H 0.49283 0.82569 0.02596 0.0
H1477 H 0.55119 0.97314 0.02911 0.0
H1478 H 0.55813 0.9434 0.04126 0.0
H1479 H 0.48841 0.88732 0.02537 0.0
H1480 H 0.48167 0.91702 0.01271 0.0
H1481 H 0.52154 0.87368 0.02372 0.0
H1482 H 0.49709 0.91098 0.06085 0.0
H1483 H 0.49938 0.9448 0.07504 0.0
H1484 H 0.57095 0.96393 0.09056 0.0
H1485 H 0.56935 0.93056 0.07622 0.0
C1486 C 0.52736 0.8047 0.07469 0.0
C1487 C 0.54932 0.8129 0.08258 0.0
C1488 C 0.52273 0.82073 0.06692 0.0
C1489 C 0.54007 0.8452 0.0668 0.0
C1490 C 0.56186 0.85346 0.07482 0.0
C1491 C 0.56647 0.83748 0.08261 0.0
C1492 C 0.53559 0.86227 0.05831 0.0
C1493 C 0.53675 0.88182 0.06589 0.0
C1494 C 0.52994 0.85923 0.04292 0.0
C1495 C 0.52971 0.83966 0.03411 0.0
C1496 C 0.55031 0.83683 0.03377 0.0
C1497 C 0.54989 0.81822 0.02555 0.0
C1498 C 0.52903 0.80243 0.01752 0.0
C1499 C 0.50857 0.80526 0.01766 0.0
C1500 C 0.50889 0.82383 0.02588 0.0
C1501 C 0.53739 0.95447 0.02809 0.0
C1502 C 0.51578 0.94744 0.02007 0.0
C1503 C 0.54135 0.93749 0.0351 0.0
C1504 C 0.52353 0.91319 0.03453 0.0
C1505 C 0.50234 0.906 0.02604 0.0
C1506 C 0.49851 0.92299 0.01881 0.0
C1507 C 0.5268 0.89544 0.04313 0.0
C1508 C 0.52536 0.87572 0.03557 0.0
C1509 C 0.53231 0.8984 0.05855 0.0
C1510 C 0.53315 0.91832 0.06736 0.0
C1511 C 0.51337 0.92247 0.06722 0.0
C1512 C 0.51455 0.94157 0.07529 0.0
C1513 C 0.53528 0.9565 0.08369 0.0
C1514 C 0.5549 0.95236 0.08404 0.0
C1515 C 0.55387 0.93335 0.07594 0.0
H1516 H 0.53615 0.97125 0.08994 0.0
H1517 H 0.52874 0.78804 0.01116 0.0
H1518 H 0.93365 0.1849 0.41592 0.0
H1519 H 0.96971 0.21305 0.40189 0.0
H1520 H 0.98419 0.15633 0.3909 0.0
H1521 H 0.94813 0.12805 0.405 0.0
H1522 H 0.02599 0.19871 0.40014 0.0
H1523 H 0.96051 0.17417 0.36507 0.0
H1524 H 0.92036 0.16657 0.35632 0.0
H1525 H 0.94303 0.24082 0.3621 0.0
H1526 H 0.98322 0.2488 0.37111 0.0
H1527 H 0.12044 0.27219 0.35093 0.0
H1528 H 0.0821 0.23811 0.35921 0.0
H1529 H 0.05368 0.28523 0.36812 0.0
H1530 H 0.09157 0.3191 0.3591 0.0
H1531 H 0.01834 0.24419 0.3581 0.0
H1532 H 0.08077 0.26829 0.39595 0.0
H1533 H 0.12129 0.27748 0.40511 0.0
H1534 H 0.1046 0.20591 0.39482 0.0
H1535 H 0.06403 0.19636 0.38549 0.0
C1536 C 0.94461 0.17846 0.41062 0.0
C1537 C 0.93802 0.15424 0.41157 0.0
C1538 C 0.96512 0.19452 0.40252 0.0
C1539 C 0.97954 0.18675 0.39524 0.0
C1540 C 0.97329 0.16269 0.39639 0.0
C1541 C 0.95262 0.14655 0.40437 0.0
C1542 C 1.00107 0.20383 0.38643 0.0
C1543 C 0.02429 0.20836 0.39079 0.0
C1544 C 0.99891 0.21675 0.37439 0.0
C1545 C 0.97482 0.21204 0.36888 0.0
C1546 C 0.95688 0.18884 0.36459 0.0
C1547 C 0.93412 0.18447 0.35956 0.0
C1548 C 0.92913 0.20319 0.35869 0.0
C1549 C 0.94691 0.22633 0.3628 0.0
C1550 C 0.9697 0.23079 0.36785 0.0
C1551 C 0.10574 0.27514 0.35419 0.0
C1552 C 0.10883 0.29824 0.35415 0.0
C1553 C 0.08391 0.25569 0.35912 0.0
C1554 C 0.0651 0.25912 0.36459 0.0
C1555 C 0.06787 0.28206 0.36398 0.0
C1556 C 0.08954 0.30142 0.35887 0.0
C1557 C 0.04332 0.23939 0.37195 0.0
C1558 C 0.02004 0.23436 0.36734 0.0
C1559 C 0.04543 0.22622 0.38388 0.0
C1560 C 0.06947 0.23167 0.38992 0.0
C1561 C 0.08578 0.25453 0.39562 0.0
C1562 C 0.10874 0.25981 0.40084 0.0
C1563 C 0.11554 0.24231 0.40051 0.0
C1564 C 0.09932 0.21945 0.39505 0.0
C1565 C 0.07632 0.21408 0.38983 0.0
H1566 H 0.13335 0.24644 0.40451 0.0
H1567 H 0.91149 0.19977 0.35479 0.0
H1568 H 0.88022 0.8188 0.40046 0.0
H1569 H 0.84903 0.8243 0.38783 0.0
H1570 H 0.79307 0.75685 0.40506 0.0
H1571 H 0.8241 0.75115 0.41756 0.0
H1572 H 0.7864 0.76157 0.37545 0.0
H1573 H 0.80213 0.8085 0.42005 0.0
H1574 H 0.82761 0.83974 0.4383 0.0
H1575 H 0.8499 0.89325 0.4044 0.0
H1576 H 0.82481 0.86226 0.38589 0.0
H1577 H 0.68129 0.76956 0.35959 0.0
H1578 H 0.71447 0.76493 0.3695 0.0
H1579 H 0.76516 0.83911 0.36018 0.0
H1580 H 0.7314 0.8442 0.35167 0.0
H1581 H 0.77613 0.83162 0.38505 0.0
H1582 H 0.76586 0.78571 0.33999 0.0
H1583 H 0.74316 0.75503 0.32068 0.0
H1584 H 0.71269 0.70099 0.35435 0.0
H1585 H 0.7355 0.73135 0.37374 0.0
C1586 C 0.86128 0.80511 0.40152 0.0
C1587 C 0.85469 0.78458 0.41009 0.0
C1588 C 0.84344 0.80835 0.39438 0.0
C1589 C 0.81862 0.79108 0.39558 0.0
C1590 C 0.81205 0.77047 0.40399 0.0
C1591 C 0.82982 0.76732 0.41123 0.0
C1592 C 0.79949 0.79423 0.38792 0.0
C1593 C 0.784 0.77679 0.37765 0.0
C1594 C 0.79672 0.81438 0.39043 0.0
C1595 C 0.81181 0.83302 0.40155 0.0
C1596 C 0.81264 0.8269 0.41645 0.0
C1597 C 0.82698 0.84457 0.42685 0.0
C1598 C 0.84042 0.86846 0.42251 0.0
C1599 C 0.83951 0.87473 0.40775 0.0
C1600 C 0.82523 0.85713 0.3973 0.0
C1601 C 0.69959 0.78479 0.35944 0.0
C1602 C 0.70374 0.80709 0.35443 0.0
C1603 C 0.71874 0.78207 0.36496 0.0
C1604 C 0.74277 0.80146 0.36531 0.0
C1605 C 0.74697 0.82371 0.36002 0.0
C1606 C 0.72764 0.82658 0.3549 0.0
C1607 C 0.76296 0.79902 0.37234 0.0
C1608 C 0.7786 0.81652 0.38263 0.0
C1609 C 0.76609 0.77903 0.36974 0.0
C1610 C 0.75199 0.76081 0.35824 0.0
C1611 C 0.75406 0.76731 0.34321 0.0
C1612 C 0.74131 0.74999 0.33228 0.0
C1613 C 0.72629 0.72612 0.33631 0.0
C1614 C 0.72424 0.71949 0.35125 0.0
C1615 C 0.73718 0.73673 0.3622 0.0
H1616 H 0.71635 0.71275 0.32784 0.0
H1617 H 0.8515 0.88211 0.43058 0.0
H1618 H 0.239 0.08844 0.39346 0.0
H1619 H 0.22976 0.0512 0.38091 0.0
H1620 H 0.20137 0.01267 0.4219 0.0
H1621 H 0.2104 0.04986 0.43451 0.0
H1622 H 0.23061 0.99934 0.40771 0.0
H1623 H 0.16303 0.01001 0.39506 0.0
H1624 H 0.14331 0.03191 0.38549 0.0
H1625 H 0.17546 0.03737 0.34263 0.0
H1626 H 0.19567 0.01578 0.35201 0.0
H1627 H 0.17417 0.88323 0.37687 0.0
H1628 H 0.18188 0.91975 0.38976 0.0
H1629 H 0.20288 0.95795 0.34813 0.0
H1630 H 0.194 0.921 0.33516 0.0
H1631 H 0.17717 0.97145 0.36304 0.0
H1632 H 0.24527 0.96115 0.37572 0.0
H1633 H 0.26462 0.93885 0.38524 0.0
H1634 H 0.23181 0.93277 0.42796 0.0
H1635 H 0.21201 0.95478 0.41864 0.0
C1636 C 0.23061 0.07201 0.39977 0.0
C1637 C 0.2253 0.07205 0.41495 0.0
C1638 C 0.2254 0.05077 0.3926 0.0
C1639 C 0.21464 0.02916 0.40045 0.0
C1640 C 0.20969 0.02918 0.41565 0.0
C1641 C 0.21492 0.05043 0.42284 0.0
C1642 C 0.20847 0.00651 0.39275 0.0
C1643 C 0.2187 0.99306 0.39804 0.0
C1644 C 0.19333 0.99864 0.37998 0.0
C1645 C 0.18105 0.01148 0.37428 0.0
C1646 C 0.16605 0.01604 0.38363 0.0
C1647 C 0.15475 0.02837 0.37823 0.0
C1648 C 0.15818 0.03608 0.36347 0.0
C1649 C 0.17285 0.03141 0.35406 0.0
C1650 C 0.18421 0.01911 0.35941 0.0
C1651 C 0.18043 0.89948 0.37052 0.0
C1652 C 0.18356 0.8995 0.35508 0.0
C1653 C 0.18495 0.92035 0.37788 0.0
C1654 C 0.19351 0.94178 0.36998 0.0
C1655 C 0.19633 0.94166 0.35447 0.0
C1656 C 0.19123 0.9206 0.34705 0.0
C1657 C 0.19948 0.96429 0.37788 0.0
C1658 C 0.18916 0.97772 0.37266 0.0
C1659 C 0.21462 0.97218 0.3907 0.0
C1660 C 0.227 0.95945 0.39644 0.0
C1661 C 0.24211 0.95498 0.38713 0.0
C1662 C 0.25315 0.94239 0.39249 0.0
C1663 C 0.2494 0.93436 0.40719 0.0
C1664 C 0.23468 0.93899 0.41658 0.0
C1665 C 0.22357 0.95155 0.41127 0.0
H1666 H 0.25793 0.92458 0.41131 0.0
H1667 H 0.14942 0.04563 0.35932 0.0
H1668 H 0.47613 0.57672 0.28374 0.0
H1669 H 0.50679 0.61346 0.29607 0.0
H1670 H 0.51304 0.65348 0.2564 0.0
H1671 H 0.48205 0.61697 0.24414 0.0
H1672 H 0.5541 0.64513 0.29001 0.0
H1673 H 0.52153 0.70801 0.26667 0.0
H1674 H 0.48342 0.70591 0.25825 0.0
H1675 H 0.4419 0.64459 0.28582 0.0
H1676 H 0.47975 0.64654 0.29456 0.0
H1677 H 0.64456 0.7658 0.30522 0.0
H1678 H 0.61479 0.72855 0.29309 0.0
H1679 H 0.55781 0.72651 0.32034 0.0
H1680 H 0.58706 0.76427 0.33184 0.0
H1681 H 0.54149 0.7148 0.29383 0.0
H1682 H 0.58455 0.69042 0.32689 0.0
H1683 H 0.62098 0.69163 0.33765 0.0
H1684 H 0.63813 0.67348 0.2951 0.0
H1685 H 0.60197 0.67248 0.28404 0.0
C1686 C 0.48392 0.59337 0.27768 0.0
C1687 C 0.47653 0.59392 0.26297 0.0
C1688 C 0.5016 0.61432 0.2847 0.0
C1689 C 0.51211 0.63626 0.27721 0.0
C1690 C 0.50504 0.6368 0.26246 0.0
C1691 C 0.48743 0.61588 0.25542 0.0
C1692 C 0.53006 0.65869 0.2849 0.0
C1693 C 0.55138 0.66038 0.29084 0.0
C1694 C 0.52634 0.67847 0.28622 0.0
C1695 C 0.50347 0.67728 0.28113 0.0
C1696 C 0.50427 0.69413 0.27096 0.0
C1697 C 0.48271 0.69296 0.26613 0.0
C1698 C 0.46025 0.67508 0.27145 0.0
C1699 C 0.4593 0.65837 0.28166 0.0
C1700 C 0.4808 0.65948 0.28654 0.0
C1701 C 0.6257 0.75743 0.30865 0.0
C1702 C 0.61835 0.76791 0.31974 0.0
C1703 C 0.60869 0.73601 0.30175 0.0
C1704 C 0.58405 0.7244 0.30596 0.0
C1705 C 0.57669 0.73498 0.31691 0.0
C1706 C 0.59357 0.75652 0.32364 0.0
C1707 C 0.56576 0.70143 0.29885 0.0
C1708 C 0.54433 0.69962 0.29299 0.0
C1709 C 0.56915 0.68138 0.29793 0.0
C1710 C 0.59067 0.68157 0.30461 0.0
C1711 C 0.59616 0.68681 0.31981 0.0
C1712 C 0.61676 0.68745 0.32597 0.0
C1713 C 0.6319 0.68269 0.31706 0.0
C1714 C 0.62641 0.67718 0.30198 0.0
C1715 C 0.60585 0.67655 0.29577 0.0
H1716 H 0.64785 0.68323 0.32184 0.0
H1717 H 0.44359 0.6742 0.26769 0.0
H1718 H 0.42146 0.89225 0.28989 0.0
H1719 H 0.38465 0.88508 0.30275 0.0
H1720 H 0.34604 0.86833 0.26088 0.0
H1721 H 0.38224 0.87362 0.24806 0.0
H1722 H 0.3597 0.90538 0.30297 0.0
H1723 H 0.28571 0.83183 0.26505 0.0
H1724 H 0.28011 0.79802 0.24936 0.0
H1725 H 0.33388 0.79201 0.27515 0.0
H1726 H 0.33957 0.82556 0.29111 0.0
H1727 H 0.24631 0.89762 0.31677 0.0
H1728 H 0.28444 0.90193 0.30764 0.0
H1729 H 0.25939 0.82818 0.31837 0.0
H1730 H 0.2203 0.82339 0.32621 0.0
H1731 H 0.27839 0.83453 0.29377 0.0
H1732 H 0.31308 0.88129 0.33825 0.0
H1733 H 0.32148 0.91224 0.35728 0.0
H1734 H 0.34853 0.96613 0.32345 0.0
H1735 H 0.34059 0.9355 0.30433 0.0
C1736 C 0.40505 0.88652 0.28338 0.0
C1737 C 0.40505 0.88338 0.26785 0.0
C1738 C 0.38397 0.8827 0.29079 0.0
C1739 C 0.36225 0.87583 0.2829 0.0
C1740 C 0.36227 0.87308 0.26736 0.0
C1741 C 0.38325 0.87653 0.25997 0.0
C1742 C 0.3399 0.87217 0.2909 0.0
C1743 C 0.34196 0.8898 0.30095 0.0
C1744 C 0.31664 0.85169 0.28864 0.0
C1745 C 0.31323 0.83137 0.27917 0.0
C1746 C 0.29627 0.82324 0.2674 0.0
C1747 C 0.2931 0.80413 0.25846 0.0
C1748 C 0.30669 0.79293 0.26123 0.0
C1749 C 0.32343 0.80076 0.27298 0.0
C1750 C 0.32666 0.81984 0.28197 0.0
C1751 C 0.24911 0.88243 0.31742 0.0
C1752 C 0.23042 0.86033 0.3226 0.0
C1753 C 0.27113 0.88496 0.31231 0.0
C1754 C 0.27539 0.86557 0.31253 0.0
C1755 C 0.25686 0.84355 0.31806 0.0
C1756 C 0.23453 0.84087 0.32281 0.0
C1757 C 0.29815 0.86778 0.30585 0.0
C1758 C 0.29615 0.84998 0.29591 0.0
C1759 C 0.32163 0.88771 0.30859 0.0
C1760 C 0.32589 0.9061 0.31991 0.0
C1761 C 0.32056 0.89971 0.33492 0.0
C1762 C 0.32536 0.9172 0.3457 0.0
C1763 C 0.3353 0.94109 0.34156 0.0
C1764 C 0.34073 0.9476 0.32664 0.0
C1765 C 0.33621 0.93021 0.31584 0.0
H1766 H 0.33893 0.95459 0.34992 0.0
H1767 H 0.30422 0.77815 0.25428 0.0
H1768 H 0.08743 0.48894 0.25599 0.0
H1769 H 0.09557 0.46082 0.2694 0.0
H1770 H 0.16528 0.5189 0.28364 0.0
H1771 H 0.15754 0.54712 0.2699 0.0
H1772 H 0.16817 0.47995 0.27443 0.0
H1773 H 0.11855 0.49605 0.30737 0.0
H1774 H 0.0829 0.49955 0.31446 0.0
H1775 H 0.0356 0.42497 0.30508 0.0
H1776 H 0.07096 0.4211 0.29772 0.0
H1777 H 0.18734 0.41536 0.33214 0.0
H1778 H 0.18075 0.44511 0.31943 0.0
H1779 H 0.11325 0.38891 0.30111 0.0
H1780 H 0.11974 0.35902 0.31362 0.0
H1781 H 0.11021 0.42791 0.31306 0.0
H1782 H 0.15878 0.41192 0.27907 0.0
H1783 H 0.19376 0.40806 0.2709 0.0
H1784 H 0.24248 0.48173 0.28192 0.0
H1785 H 0.20776 0.48598 0.29027 0.0
C1786 C 0.10462 0.4957 0.26182 0.0
C1787 C 0.12183 0.52025 0.26193 0.0
C1788 C 0.10915 0.47965 0.26958 0.0
C1789 C 0.13089 0.48785 0.27766 0.0
C1790 C 0.14834 0.51226 0.27753 0.0
C1791 C 0.14382 0.52835 0.26978 0.0
C1792 C 0.13524 0.47093 0.28636 0.0
C1793 C 0.15572 0.46884 0.28304 0.0
C1794 C 0.11868 0.4561 0.29736 0.0
C1795 C 0.09739 0.45834 0.30187 0.0
C1796 C 0.10053 0.48044 0.30671 0.0
C1797 C 0.08038 0.48248 0.31079 0.0
C1798 C 0.057 0.46251 0.31018 0.0
C1799 C 0.05373 0.44043 0.30553 0.0
C1800 C 0.07382 0.4383 0.30142 0.0
C1801 C 0.17097 0.40933 0.32553 0.0
C1802 C 0.15406 0.38484 0.32385 0.0
C1803 C 0.16733 0.42634 0.31821 0.0
C1804 C 0.14663 0.41911 0.30926 0.0
C1805 C 0.12936 0.39477 0.30796 0.0
C1806 C 0.13313 0.37774 0.31509 0.0
C1807 C 0.14307 0.43692 0.30109 0.0
C1808 C 0.12273 0.43915 0.30451 0.0
C1809 C 0.15972 0.45182 0.29017 0.0
C1810 C 0.18069 0.4492 0.28546 0.0
C1811 C 0.17698 0.42722 0.27991 0.0
C1812 C 0.19676 0.42498 0.27521 0.0
C1813 C 0.22034 0.44462 0.27594 0.0
C1814 C 0.2242 0.46653 0.28138 0.0
C1815 C 0.20447 0.46888 0.28608 0.0
H1816 H 0.23563 0.44291 0.27222 0.0
H1817 H 0.04142 0.46413 0.31335 0.0
H1818 H 0.37077 0.51592 0.24763 0.0
H1819 H 0.33417 0.48774 0.26122 0.0
H1820 H 0.37917 0.48559 0.29663 0.0
H1821 H 0.41567 0.51459 0.28333 0.0
H1822 H 0.31629 0.44506 0.26835 0.0
H1823 H 0.35055 0.47162 0.32968 0.0
H1824 H 0.37764 0.50795 0.34413 0.0
H1825 H 0.36825 0.55116 0.31154 0.0
H1826 H 0.34084 0.51508 0.29701 0.0
H1827 H 0.24726 0.35023 0.31661 0.0
H1828 H 0.28267 0.38487 0.30579 0.0
H1829 H 0.25257 0.42949 0.31769 0.0
H1830 H 0.2167 0.39473 0.32802 0.0
H1831 H 0.30448 0.45149 0.3224 0.0
H1832 H 0.24481 0.41442 0.28524 0.0
H1833 H 0.21372 0.38268 0.26938 0.0
H1834 H 0.26728 0.36692 0.25217 0.0
H1835 H 0.29882 0.39866 0.268 0.0
C1836 C 0.37278 0.50949 0.25835 0.0
C1837 C 0.39603 0.51749 0.26446 0.0
C1838 C 0.35186 0.49336 0.26613 0.0
C1839 C 0.35373 0.48464 0.2801 0.0
C1840 C 0.37705 0.49245 0.2861 0.0
C1841 C 0.39795 0.50893 0.27845 0.0
C1842 C 0.33138 0.46669 0.28809 0.0
C1843 C 0.31383 0.4466 0.28016 0.0
C1844 C 0.3275 0.46884 0.30344 0.0
C1845 C 0.34384 0.49064 0.31218 0.0
C1846 C 0.35419 0.48886 0.32562 0.0
C1847 C 0.36962 0.50942 0.33382 0.0
C1848 C 0.37473 0.53186 0.32873 0.0
C1849 C 0.36436 0.53378 0.31544 0.0
C1850 C 0.3489 0.51328 0.30721 0.0
C1851 C 0.24841 0.36752 0.31716 0.0
C1852 C 0.22934 0.36979 0.32336 0.0
C1853 C 0.26859 0.38725 0.31095 0.0
C1854 C 0.27016 0.40969 0.31087 0.0
C1855 C 0.25175 0.41234 0.3177 0.0
C1856 C 0.23131 0.39246 0.3237 0.0
C1857 C 0.29022 0.42981 0.3027 0.0
C1858 C 0.30718 0.45017 0.31059 0.0
C1859 C 0.29309 0.42843 0.28719 0.0
C1860 C 0.27414 0.40878 0.27795 0.0
C1861 C 0.24994 0.40404 0.2782 0.0
C1862 C 0.23223 0.38607 0.26918 0.0
C1863 C 0.23844 0.37266 0.25983 0.0
C1864 C 0.26246 0.37728 0.25946 0.0
C1865 C 0.28029 0.3953 0.26843 0.0
H1866 H 0.22469 0.3588 0.25282 0.0
H1867 H 0.38669 0.54775 0.33508 0.0
H1868 H 0.48966 0.86391 0.24827 0.0
H1869 H 0.51967 0.85652 0.26061 0.0
H1870 H 0.51231 0.88891 0.30087 0.0
H1871 H 0.48205 0.89605 0.28861 0.0
H1872 H 0.56246 0.8844 0.27101 0.0
H1873 H 0.52463 0.86535 0.3315 0.0
H1874 H 0.48499 0.84716 0.34428 0.0
H1875 H 0.44954 0.80577 0.30519 0.0
H1876 H 0.48899 0.82343 0.29224 0.0
H1877 H 0.65529 0.89683 0.31945 0.0
H1878 H 0.62102 0.89988 0.30934 0.0
H1879 H 0.57461 0.82359 0.31331 0.0
H1880 H 0.60888 0.8205 0.32334 0.0
H1881 H 0.55 0.84662 0.32063 0.0
H1882 H 0.59863 0.84646 0.28047 0.0
H1883 H 0.63651 0.85923 0.26641 0.0
H1884 H 0.64651 0.92976 0.26223 0.0
H1885 H 0.60886 0.9175 0.27647 0.0
C1886 C 0.49442 0.86946 0.25975 0.0
C1887 C 0.48338 0.88057 0.26743 0.0
C1888 C 0.5116 0.8652 0.26682 0.0
C1889 C 0.51825 0.87194 0.28176 0.0
C1890 C 0.50724 0.88304 0.28945 0.0
C1891 C 0.4899 0.88715 0.28242 0.0
C1892 C 0.53721 0.86803 0.28908 0.0
C1893 C 0.55964 0.87615 0.28186 0.0
C1894 C 0.53357 0.85677 0.30313 0.0
C1895 C 0.50975 0.84596 0.31084 0.0
C1896 C 0.50839 0.85233 0.32564 0.0
C1897 C 0.48595 0.84211 0.33292 0.0
C1898 C 0.46475 0.8254 0.32553 0.0
C1899 C 0.46596 0.8188 0.31087 0.0
C1900 C 0.48835 0.82894 0.30355 0.0
C1901 C 0.63767 0.88076 0.31835 0.0
C1902 C 0.63472 0.85849 0.32237 0.0
C1903 C 0.61812 0.8825 0.31254 0.0
C1904 C 0.59525 0.86194 0.3104 0.0
C1905 C 0.59203 0.83972 0.31487 0.0
C1906 C 0.61164 0.83798 0.32066 0.0
C1907 C 0.57525 0.86353 0.30268 0.0
C1908 C 0.55271 0.85495 0.3098 0.0
C1909 C 0.57848 0.87369 0.28834 0.0
C1910 C 0.60103 0.88112 0.27966 0.0
C1911 C 0.609 0.86474 0.27664 0.0
C1912 C 0.63041 0.87188 0.26863 0.0
C1913 C 0.64393 0.89531 0.26345 0.0
C1914 C 0.63603 0.91163 0.26626 0.0
C1915 C 0.61464 0.90459 0.27429 0.0
H1916 H 0.6605 0.9008 0.25725 0.0
H1917 H 0.44739 0.81752 0.33118 0.0
H1918 H 0.08654 0.59428 0.2552 0.0
H1919 H 0.09442 0.63112 0.26771 0.0
H1920 H 0.16431 0.64279 0.28258 0.0
H1921 H 0.15666 0.60603 0.26995 0.0
H1922 H 0.13953 0.65036 0.30481 0.0
H1923 H 0.16125 0.67444 0.25405 0.0
H1924 H 0.15487 0.67217 0.22688 0.0
H1925 H 0.0939 0.68311 0.23258 0.0
H1926 H 0.0997 0.6851 0.25981 0.0
H1927 H 0.18807 0.77084 0.32773 0.0
H1928 H 0.18079 0.73393 0.31571 0.0
H1929 H 0.11327 0.72387 0.29739 0.0
H1930 H 0.12078 0.76118 0.30902 0.0
H1931 H 0.13744 0.71546 0.27693 0.0
H1932 H 0.115 0.69068 0.32763 0.0
H1933 H 0.12137 0.69329 0.35481 0.0
H1934 H 0.18333 0.68387 0.34932 0.0
H1935 H 0.17746 0.68142 0.32208 0.0
C1936 C 0.10371 0.60483 0.26098 0.0
C1937 C 0.12106 0.59734 0.2615 0.0
C1938 C 0.10814 0.62581 0.26817 0.0
C1939 C 0.13005 0.63978 0.27594 0.0
C1940 C 0.14728 0.63223 0.27665 0.0
C1941 C 0.14286 0.61123 0.26946 0.0
C1942 C 0.13495 0.66227 0.28331 0.0
C1943 C 0.13939 0.66474 0.2987 0.0
C1944 C 0.13422 0.68077 0.27537 0.0
C1945 C 0.13077 0.67969 0.25898 0.0
C1946 C 0.14636 0.67617 0.24952 0.0
C1947 C 0.14287 0.67497 0.2341 0.0
C1948 C 0.12396 0.67743 0.22801 0.0
C1949 C 0.10853 0.68117 0.23731 0.0
C1950 C 0.11192 0.68236 0.25274 0.0
C1951 C 0.17157 0.76069 0.32123 0.0
C1952 C 0.15492 0.76886 0.31938 0.0
C1953 C 0.1674 0.73955 0.3144 0.0
C1954 C 0.1463 0.72595 0.30582 0.0
C1955 C 0.12966 0.73407 0.30397 0.0
C1956 C 0.13395 0.75537 0.31065 0.0
C1957 C 0.14184 0.70353 0.29848 0.0
C1958 C 0.13754 0.70108 0.28307 0.0
C1959 C 0.14261 0.68503 0.30642 0.0
C1960 C 0.14589 0.68604 0.32281 0.0
C1961 C 0.13004 0.68926 0.33222 0.0
C1962 C 0.13354 0.69067 0.34763 0.0
C1963 C 0.15276 0.68877 0.35379 0.0
C1964 C 0.16845 0.68534 0.34454 0.0
C1965 C 0.16502 0.68388 0.32911 0.0
H1966 H 0.15549 0.68996 0.36572 0.0
H1967 H 0.12129 0.6765 0.21607 0.0
H1968 H 0.88669 0.06753 0.40492 0.0
H1969 H 0.85701 0.02978 0.39318 0.0
H1970 H 0.79843 0.03979 0.40884 0.0
H1971 H 0.82797 0.07754 0.42055 0.0
H1972 H 0.78811 0.99496 0.41331 0.0
H1973 H 0.81663 0.04959 0.37243 0.0
H1974 H 0.84739 0.07998 0.35585 0.0
H1975 H 0.8713 0.03097 0.343 0.0
H1976 H 0.8409 0.00039 0.35968 0.0
H1977 H 0.69348 0.90523 0.36839 0.0
H1978 H 0.72284 0.9425 0.38067 0.0
H1979 H 0.78195 0.93517 0.36286 0.0
H1980 H 0.75275 0.89826 0.35027 0.0
H1981 H 0.79204 0.97883 0.3597 0.0
H1982 H 0.76219 0.92362 0.40076 0.0
H1983 H 0.73258 0.89458 0.41846 0.0
H1984 H 0.71096 0.94527 0.43141 0.0
H1985 H 0.74016 0.97449 0.41365 0.0
C1986 C 0.8675 0.0618 0.40576 0.0
C1987 C 0.85974 0.0756 0.41369 0.0
C1988 C 0.85054 0.04019 0.39905 0.0
C1989 C 0.82545 0.03201 0.4 0.0
C1990 C 0.81766 0.04567 0.40799 0.0
C1991 C 0.83459 0.06723 0.41472 0.0
C1992 C 0.80728 0.00915 0.39278 0.0
C1993 C 0.78875 0.99151 0.40154 0.0
C1994 C 0.80842 0.00446 0.3775 0.0
C1995 C 0.82665 0.02278 0.36742 0.0
C1996 C 0.82858 0.04536 0.36616 0.0
C1997 C 0.84593 0.06261 0.35673 0.0
C1998 C 0.86133 0.05743 0.34841 0.0
C1999 C 0.85938 0.03497 0.34947 0.0
C2000 C 0.84208 0.01766 0.3589 0.0
C2001 C 0.71273 0.91152 0.3671 0.0
C2002 C 0.72073 0.89876 0.35828 0.0
C2003 C 0.72953 0.93279 0.37423 0.0
C2004 C 0.7547 0.94157 0.37291 0.0
C2005 C 0.76268 0.92883 0.36409 0.0
C2006 C 0.74592 0.9077 0.35686 0.0
C2007 C 0.77278 0.96442 0.38024 0.0
C2008 C 0.79133 0.98215 0.37148 0.0
C2009 C 0.77155 0.9692 0.39554 0.0
C2010 C 0.75323 0.95118 0.40574 0.0
C2011 C 0.75091 0.92847 0.40723 0.0
C2012 C 0.73423 0.91199 0.41732 0.0
C2013 C 0.71989 0.91808 0.42604 0.0
C2014 C 0.72207 0.94058 0.42464 0.0
C2015 C 0.73867 0.95709 0.41456 0.0
H2016 H 0.70715 0.90546 0.43395 0.0
H2017 H 0.87475 0.07081 0.34112 0.0
H2018 H 0.94302 0.81944 0.40006 0.0
H2019 H 0.97992 0.8264 0.38708 0.0
H2020 H 0.96857 0.75843 0.40247 0.0
H2021 H 0.93202 0.75166 0.41568 0.0
H2022 H 0.01406 0.78947 0.40545 0.0
H2023 H 0.95663 0.76928 0.36544 0.0
H2024 H 0.92659 0.77277 0.34977 0.0
H2025 H 0.98052 0.84442 0.33815 0.0
H2026 H 0.01081 0.84148 0.35392 0.0
H2027 H 0.08994 0.77126 0.35653 0.0
H2028 H 0.05258 0.76815 0.36657 0.0
H2029 H 0.08189 0.84367 0.35992 0.0
H2030 H 0.11971 0.84699 0.35027 0.0
H2031 H 0.02902 0.81172 0.35212 0.0
H2032 H 0.08668 0.8304 0.39203 0.0
H2033 H 0.11645 0.82475 0.40653 0.0
H2034 H 0.06085 0.75344 0.41753 0.0
H2035 H 0.03083 0.75852 0.40283 0.0
C2036 C 0.9483 0.80591 0.40059 0.0
C2037 C 0.93452 0.78499 0.40894 0.0
C2038 C 0.96942 0.80988 0.39312 0.0
C2039 C 0.97705 0.79284 0.39359 0.0
C2040 C 0.96325 0.77194 0.40192 0.0
C2041 C 0.94231 0.76809 0.40951 0.0
C2042 C 0.99959 0.79684 0.38571 0.0
C2043 C 0.01708 0.7941 0.39375 0.0
C2044 C 0.00408 0.80344 0.37049 0.0
C2045 C 0.9859 0.80526 0.36101 0.0
C2046 C 0.96202 0.78586 0.35965 0.0
C2047 C 0.94496 0.78772 0.35073 0.0
C2048 C 0.95162 0.80883 0.34301 0.0
C2049 C 0.97538 0.8281 0.34416 0.0
C2050 C 0.9925 0.82634 0.35308 0.0
C2051 C 0.08826 0.78713 0.35699 0.0
C2052 C 0.1076 0.80928 0.3524 0.0
C2053 C 0.06693 0.78534 0.36272 0.0
C2054 C 0.06446 0.80568 0.36403 0.0
C2055 C 0.08335 0.82772 0.35893 0.0
C2056 C 0.10491 0.82958 0.35336 0.0
C2057 C 0.043 0.80403 0.37186 0.0
C2058 C 0.02586 0.80724 0.36384 0.0
C2059 C 0.03868 0.79766 0.38706 0.0
C2060 C 0.05655 0.79477 0.39621 0.0
C2061 C 0.08084 0.81345 0.39745 0.0
C2062 C 0.09776 0.81036 0.40571 0.0
C2063 C 0.09056 0.78872 0.41292 0.0
C2064 C 0.0664 0.77018 0.41192 0.0
C2065 C 0.04942 0.77316 0.40363 0.0
H2066 H 0.10368 0.78631 0.41928 0.0
H2067 H 0.93839 0.81023 0.3361 0.0
H2068 H 0.2418 0.14828 0.39403 0.0
H2069 H 0.2331 0.17642 0.38108 0.0
H2070 H 0.19596 0.18127 0.42001 0.0
H2071 H 0.20526 0.15361 0.43313 0.0
H2072 H 0.19356 0.17549 0.37272 0.0
H2073 H 0.20266 0.23637 0.42281 0.0
H2074 H 0.22508 0.2501 0.4466 0.0
H2075 H 0.28151 0.23854 0.42937 0.0
H2076 H 0.25962 0.22507 0.40542 0.0
H2077 H 0.14853 0.25189 0.35124 0.0
H2078 H 0.15644 0.22287 0.3637 0.0
H2079 H 0.23086 0.27809 0.37184 0.0
H2080 H 0.22256 0.30736 0.3602 0.0
H2081 H 0.21517 0.25384 0.39528 0.0
H2082 H 0.21334 0.23253 0.34384 0.0
H2083 H 0.1957 0.22153 0.3186 0.0
H2084 H 0.13383 0.1586 0.33582 0.0
H2085 H 0.15108 0.16928 0.36119 0.0
C2086 C 0.23175 0.15535 0.3998 0.0
C2087 C 0.22429 0.14891 0.41459 0.0
C2088 C 0.22675 0.17138 0.39239 0.0
C2089 C 0.21408 0.18115 0.3996 0.0
C2090 C 0.20619 0.17434 0.41431 0.0
C2091 C 0.21148 0.15855 0.42179 0.0
C2092 C 0.2094 0.19865 0.39176 0.0
C2093 C 0.1983 0.19263 0.37765 0.0
C2094 C 0.21592 0.22119 0.39807 0.0
C2095 C 0.22934 0.22945 0.41239 0.0
C2096 C 0.21989 0.23683 0.42409 0.0
C2097 C 0.2325 0.24456 0.4376 0.0
C2098 C 0.25466 0.2451 0.43951 0.0
C2099 C 0.2643 0.23801 0.4279 0.0
C2100 C 0.25178 0.2303 0.41436 0.0
C2101 C 0.16661 0.25775 0.35561 0.0
C2102 C 0.18496 0.28183 0.35477 0.0
C2103 C 0.17115 0.24114 0.36268 0.0
C2104 C 0.19436 0.24818 0.36857 0.0
C2105 C 0.21278 0.27221 0.36747 0.0
C2106 C 0.20807 0.28891 0.36075 0.0
C2107 C 0.19943 0.23076 0.37619 0.0
C2108 C 0.21045 0.23672 0.39032 0.0
C2109 C 0.19359 0.20853 0.36968 0.0
C2110 C 0.18341 0.2018 0.35441 0.0
C2111 C 0.19593 0.21639 0.34224 0.0
C2112 C 0.186 0.21021 0.32792 0.0
C2113 C 0.16361 0.18944 0.32561 0.0
C2114 C 0.15116 0.17471 0.33762 0.0
C2115 C 0.16104 0.18077 0.35197 0.0
H2116 H 0.15592 0.18473 0.31452 0.0
H2117 H 0.26438 0.25107 0.44998 0.0
H2118 H 0.58816 0.4894 0.72565 0.0
H2119 H 0.62526 0.51811 0.71272 0.0
H2120 H 0.66874 0.51356 0.74825 0.0
H2121 H 0.63149 0.48595 0.76157 0.0
H2122 H 0.68839 0.55616 0.74139 0.0
H2123 H 0.66086 0.48631 0.71176 0.0
H2124 H 0.63218 0.45129 0.69684 0.0
H2125 H 0.62573 0.49734 0.66509 0.0
H2126 H 0.65411 0.53264 0.67993 0.0
H2127 H 0.78932 0.60613 0.68279 0.0
H2128 H 0.75276 0.5713 0.69262 0.0
H2129 H 0.72298 0.61635 0.70412 0.0
H2130 H 0.75898 0.65095 0.69383 0.0
H2131 H 0.69996 0.55049 0.68721 0.0
H2132 H 0.70855 0.60418 0.74129 0.0
H2133 H 0.74092 0.63456 0.75741 0.0
H2134 H 0.79081 0.61271 0.74176 0.0
H2135 H 0.75889 0.58244 0.72556 0.0
C2136 C 0.6057 0.49457 0.73064 0.0
C2137 C 0.60706 0.48552 0.74457 0.0
C2138 C 0.62692 0.51082 0.7232 0.0
C2139 C 0.65 0.51775 0.72929 0.0
C2140 C 0.65127 0.50858 0.74325 0.0
C2141 C 0.63001 0.49279 0.75086 0.0
C2142 C 0.67272 0.53525 0.72144 0.0
C2143 C 0.69078 0.55473 0.72955 0.0
C2144 C 0.6765 0.53329 0.70603 0.0
C2145 C 0.65946 0.51211 0.69704 0.0
C2146 C 0.6532 0.48896 0.70165 0.0
C2147 C 0.63701 0.46906 0.6932 0.0
C2148 C 0.62709 0.47208 0.68004 0.0
C2149 C 0.6334 0.49502 0.67529 0.0
C2150 C 0.64956 0.51499 0.68371 0.0
C2151 C 0.77461 0.60843 0.68692 0.0
C2152 C 0.7768 0.63119 0.68734 0.0
C2153 C 0.75381 0.58856 0.69263 0.0
C2154 C 0.7353 0.59134 0.69921 0.0
C2155 C 0.73712 0.61387 0.69915 0.0
C2156 C 0.75764 0.63358 0.69324 0.0
C2157 C 0.71483 0.57132 0.70715 0.0
C2158 C 0.69732 0.55159 0.69905 0.0
C2159 C 0.71197 0.57244 0.72268 0.0
C2160 C 0.73141 0.59128 0.73206 0.0
C2161 C 0.72649 0.606 0.74124 0.0
C2162 C 0.74479 0.62325 0.75037 0.0
C2163 C 0.76802 0.62577 0.75051 0.0
C2164 C 0.77298 0.61105 0.74151 0.0
C2165 C 0.75481 0.59391 0.73231 0.0
H2166 H 0.78211 0.63899 0.75767 0.0
H2167 H 0.61456 0.45665 0.67351 0.0
H2168 H 0.49235 0.08849 0.75034 0.0
H2169 H 0.46175 0.09509 0.73807 0.0
H2170 H 0.51807 0.16441 0.72354 0.0
H2171 H 0.54887 0.15797 0.73594 0.0
H2172 H 0.47748 0.16532 0.73495 0.0
H2173 H 0.49388 0.12042 0.699 0.0
H2174 H 0.49898 0.08715 0.68991 0.0
H2175 H 0.42466 0.03719 0.70095 0.0
H2176 H 0.4192 0.07014 0.71031 0.0
H2177 H 0.39544 0.18061 0.68813 0.0
H2178 H 0.43046 0.17801 0.69715 0.0
H2179 H 0.3829 0.10373 0.70789 0.0
H2180 H 0.34814 0.10601 0.69796 0.0
H2181 H 0.4222 0.10807 0.6968 0.0
H2182 H 0.40662 0.15222 0.7348 0.0
H2183 H 0.40087 0.18532 0.74355 0.0
H2184 H 0.47284 0.23626 0.72883 0.0
H2185 H 0.47894 0.20345 0.71989 0.0
C2186 C 0.49825 0.1052 0.7446 0.0
C2187 C 0.5231 0.12269 0.74413 0.0
C2188 C 0.48073 0.1089 0.7375 0.0
C2189 C 0.48758 0.13019 0.72978 0.0
C2190 C 0.51233 0.14782 0.7294 0.0
C2191 C 0.52994 0.14404 0.7364 0.0
C2192 C 0.46879 0.13384 0.72209 0.0
C2193 C 0.4656 0.15299 0.72646 0.0
C2194 C 0.45302 0.1176 0.71116 0.0
C2195 C 0.4562 0.09774 0.70548 0.0
C2196 C 0.47868 0.10232 0.6996 0.0
C2197 C 0.48162 0.08352 0.69438 0.0
C2198 C 0.46217 0.06006 0.69489 0.0
C2199 C 0.43971 0.05537 0.70058 0.0
C2200 C 0.43668 0.0741 0.70583 0.0
C2201 C 0.39255 0.16363 0.69214 0.0
C2202 C 0.36914 0.14334 0.69199 0.0
C2203 C 0.41256 0.16223 0.69753 0.0
C2204 C 0.40943 0.14074 0.70346 0.0
C2205 C 0.38595 0.12052 0.70336 0.0
C2206 C 0.36604 0.12183 0.69774 0.0
C2207 C 0.43036 0.13918 0.70992 0.0
C2208 C 0.43406 0.12045 0.70528 0.0
C2209 C 0.44646 0.15572 0.72068 0.0
C2210 C 0.44314 0.1754 0.72656 0.0
C2211 C 0.42119 0.17049 0.73341 0.0
C2212 C 0.41787 0.18919 0.73839 0.0
C2213 C 0.43643 0.21287 0.73666 0.0
C2214 C 0.45846 0.2179 0.73011 0.0
C2215 C 0.46188 0.19926 0.72512 0.0
H2216 H 0.43375 0.22734 0.74039 0.0
H2217 H 0.46449 0.04553 0.69084 0.0
H2218 H 0.86174 0.40111 0.73783 0.0
H2219 H 0.85353 0.36384 0.72579 0.0
H2220 H 0.92225 0.374 0.74192 0.0
H2221 H 0.93097 0.41176 0.75358 0.0
H2222 H 0.91501 0.36007 0.71326 0.0
H2223 H 0.86943 0.33413 0.75842 0.0
H2224 H 0.84019 0.33156 0.77739 0.0
H2225 H 0.78255 0.30195 0.74495 0.0
H2226 H 0.81153 0.30466 0.72571 0.0
H2227 H 0.88815 0.24027 0.69947 0.0
H2228 H 0.89795 0.27796 0.71169 0.0
H2229 H 0.83278 0.27324 0.69328 0.0
H2230 H 0.82275 0.23559 0.68109 0.0
H2231 H 0.83887 0.28407 0.72359 0.0
H2232 H 0.88513 0.31065 0.6784 0.0
H2233 H 0.91453 0.31256 0.65976 0.0
H2234 H 0.97122 0.3404 0.69284 0.0
H2235 H 0.94204 0.33829 0.71175 0.0
C2236 C 0.87519 0.39551 0.73872 0.0
C2237 C 0.89697 0.40934 0.74669 0.0
C2238 C 0.87038 0.3741 0.73195 0.0
C2239 C 0.88716 0.36602 0.73312 0.0
C2240 C 0.90902 0.37988 0.74094 0.0
C2241 C 0.91387 0.40132 0.74771 0.0
C2242 C 0.88193 0.34318 0.72607 0.0
C2243 C 0.89854 0.34339 0.71568 0.0
C2244 C 0.86021 0.32151 0.72904 0.0
C2245 C 0.84271 0.31982 0.74059 0.0
C2246 C 0.85056 0.32725 0.75529 0.0
C2247 C 0.83402 0.32574 0.7661 0.0
C2248 C 0.80954 0.31665 0.76237 0.0
C2249 C 0.80153 0.30901 0.74782 0.0
C2250 C 0.818 0.31051 0.73696 0.0
C2251 C 0.87594 0.24728 0.69798 0.0
C2252 C 0.85476 0.23502 0.68923 0.0
C2253 C 0.8816 0.26883 0.70494 0.0
C2254 C 0.86613 0.27838 0.70331 0.0
C2255 C 0.84493 0.26613 0.69465 0.0
C2256 C 0.83935 0.24471 0.68762 0.0
C2257 C 0.87188 0.30104 0.71076 0.0
C2258 C 0.85537 0.30077 0.72122 0.0
C2259 C 0.89371 0.3226 0.7079 0.0
C2260 C 0.91134 0.32408 0.69652 0.0
C2261 C 0.90382 0.31699 0.68173 0.0
C2262 C 0.92045 0.31814 0.67111 0.0
C2263 C 0.94472 0.32654 0.67512 0.0
C2264 C 0.95241 0.33387 0.68975 0.0
C2265 C 0.93584 0.33272 0.70042 0.0
H2266 H 0.95757 0.32742 0.66688 0.0
H2267 H 0.79676 0.31549 0.77075 0.0
H2268 H 0.11553 0.9338 0.60702 0.0
H2269 H 0.14505 0.96988 0.62034 0.0
H2270 H 0.20385 0.96208 0.60251 0.0
H2271 H 0.17442 0.92549 0.58965 0.0
H2272 H 0.21172 0.97399 0.63117 0.0
H2273 H 0.18946 0.00284 0.58817 0.0
H2274 H 0.16132 0.00633 0.57074 0.0
H2275 H 0.13542 0.03264 0.60607 0.0
H2276 H 0.1632 0.02899 0.62377 0.0
H2277 H 0.30895 0.09198 0.64555 0.0
H2278 H 0.27874 0.05459 0.63376 0.0
H2279 H 0.22089 0.06244 0.6531 0.0
H2280 H 0.25087 0.10005 0.66465 0.0
H2281 H 0.21223 0.05035 0.62411 0.0
H2282 H 0.23551 0.02233 0.667 0.0
H2283 H 0.26435 0.01944 0.68413 0.0
H2284 H 0.28895 0.99206 0.64869 0.0
H2285 H 0.26048 0.99511 0.63128 0.0
C2286 C 0.13473 0.93961 0.60605 0.0
C2287 C 0.14259 0.92678 0.59718 0.0
C2288 C 0.15161 0.96039 0.61356 0.0
C2289 C 0.17672 0.96891 0.61227 0.0
C2290 C 0.18459 0.95594 0.60363 0.0
C2291 C 0.16773 0.93513 0.59615 0.0
C2292 C 0.19481 0.99135 0.61988 0.0
C2293 C 0.212 0.99075 0.62948 0.0
C2294 C 0.19491 0.01314 0.61794 0.0
C2295 C 0.17823 0.0154 0.60732 0.0
C2296 C 0.17763 0.00918 0.59225 0.0
C2297 C 0.16177 0.01123 0.58232 0.0
C2298 C 0.14654 0.01964 0.5873 0.0
C2299 C 0.1472 0.02609 0.60223 0.0
C2300 C 0.16301 0.02405 0.61221 0.0
C2301 C 0.28981 0.08572 0.64737 0.0
C2302 C 0.28238 0.09895 0.65619 0.0
C2303 C 0.27255 0.06427 0.64066 0.0
C2304 C 0.24753 0.05556 0.64267 0.0
C2305 C 0.24008 0.06876 0.65143 0.0
C2306 C 0.2573 0.09019 0.65813 0.0
C2307 C 0.22912 0.03298 0.63537 0.0
C2308 C 0.21188 0.03357 0.62582 0.0
C2309 C 0.22904 0.01121 0.63733 0.0
C2310 C 0.24602 0.00915 0.6478 0.0
C2311 C 0.24719 0.01585 0.66283 0.0
C2312 C 0.26346 0.01416 0.67259 0.0
C2313 C 0.27852 0.00563 0.66749 0.0
C2314 C 0.27729 0.9987 0.65262 0.0
C2315 C 0.26108 0.00038 0.6428 0.0
H2316 H 0.2911 0.00434 0.67507 0.0
H2317 H 0.13428 0.02121 0.5796 0.0
H2318 H 0.08432 0.22578 0.62067 0.0
H2319 H 0.0464 0.21773 0.63272 0.0
H2320 H 0.00612 0.18118 0.59314 0.0
H2321 H 0.0441 0.18974 0.58095 0.0
H2322 H 0.98952 0.20734 0.60214 0.0
H2323 H 0.00546 0.15151 0.62667 0.0
H2324 H 0.02911 0.13725 0.64075 0.0
H2325 H 0.03483 0.18212 0.6777 0.0
H2326 H 0.01152 0.19692 0.66375 0.0
H2327 H 0.88015 0.15073 0.65625 0.0
H2328 H 0.91628 0.15113 0.64602 0.0
H2329 H 0.95095 0.22742 0.64024 0.0
H2330 H 0.91516 0.22713 0.65066 0.0
H2331 H 0.96681 0.17556 0.65339 0.0
H2332 H 0.9756 0.23974 0.60574 0.0
H2333 H 0.94881 0.24919 0.59082 0.0
H2334 H 0.88863 0.17859 0.59824 0.0
H2335 H 0.91512 0.16862 0.61302 0.0
C2336 C 0.06735 0.21582 0.61459 0.0
C2337 C 0.06729 0.20842 0.59983 0.0
C2338 C 0.04559 0.21113 0.62152 0.0
C2339 C 0.02314 0.19852 0.61397 0.0
C2340 C 0.02308 0.19098 0.59926 0.0
C2341 C 0.04485 0.19591 0.59227 0.0
C2342 C 0.9999 0.19408 0.62114 0.0
C2343 C 0.98466 0.20032 0.61333 0.0
C2344 C 0.99295 0.18438 0.63565 0.0
C2345 C 0.00694 0.1755 0.6441 0.0
C2346 C 0.01193 0.15848 0.63775 0.0
C2347 C 0.02525 0.15028 0.64572 0.0
C2348 C 0.03352 0.15882 0.6601 0.0
C2349 C 0.02844 0.17554 0.66655 0.0
C2350 C 0.01516 0.18383 0.65862 0.0
C2351 C 0.89572 0.16764 0.65313 0.0
C2352 C 0.89501 0.18899 0.65447 0.0
C2353 C 0.91633 0.16783 0.64724 0.0
C2354 C 0.93629 0.1893 0.64226 0.0
C2355 C 0.93574 0.21064 0.64391 0.0
C2356 C 0.9153 0.21047 0.64988 0.0
C2357 C 0.95717 0.1895 0.6345 0.0
C2358 C 0.97183 0.18248 0.64219 0.0
C2359 C 0.96328 0.19781 0.61972 0.0
C2360 C 0.94732 0.20354 0.61061 0.0
C2361 C 0.95669 0.2262 0.60413 0.0
C2362 C 0.94154 0.23165 0.5957 0.0
C2363 C 0.91702 0.21453 0.59362 0.0
C2364 C 0.9076 0.19187 0.5999 0.0
C2365 C 0.92267 0.18633 0.60833 0.0
H2366 H 0.90535 0.21884 0.58712 0.0
H2367 H 0.04383 0.15245 0.66625 0.0
H2368 H 0.82253 0.88291 0.6057 0.0
H2369 H 0.83002 0.85533 0.62015 0.0
H2370 H 0.76275 0.79606 0.60379 0.0
H2371 H 0.75449 0.8237 0.58989 0.0
H2372 H 0.76726 0.79145 0.63263 0.0
H2373 H 0.81885 0.80856 0.59002 0.0
H2374 H 0.85057 0.83404 0.57206 0.0
H2375 H 0.90341 0.86319 0.60736 0.0
H2376 H 0.87192 0.83809 0.62558 0.0
H2377 H 0.78943 0.69615 0.64647 0.0
H2378 H 0.78227 0.72654 0.6355 0.0
H2379 H 0.84609 0.78176 0.65782 0.0
H2380 H 0.85353 0.7514 0.66888 0.0
H2381 H 0.84444 0.79 0.6275 0.0
H2382 H 0.79219 0.7698 0.66982 0.0
H2383 H 0.76009 0.74255 0.68701 0.0
H2384 H 0.70786 0.71748 0.65131 0.0
H2385 H 0.73974 0.74431 0.63383 0.0
C2386 C 0.80919 0.86403 0.60528 0.0
C2387 C 0.78788 0.85552 0.59663 0.0
C2388 C 0.81364 0.84825 0.61343 0.0
C2389 C 0.79709 0.8236 0.61292 0.0
C2390 C 0.77581 0.81502 0.60432 0.0
C2391 C 0.77124 0.83082 0.59625 0.0
C2392 C 0.80187 0.80675 0.62146 0.0
C2393 C 0.78402 0.79096 0.63138 0.0
C2394 C 0.824 0.80651 0.62011 0.0
C2395 C 0.84297 0.82164 0.60918 0.0
C2396 C 0.83719 0.82055 0.59397 0.0
C2397 C 0.85514 0.83489 0.58374 0.0
C2398 C 0.87898 0.85027 0.58857 0.0
C2399 C 0.88493 0.8513 0.60364 0.0
C2400 C 0.86705 0.837 0.61392 0.0
C2401 C 0.80187 0.71472 0.64917 0.0
C2402 C 0.82207 0.72135 0.65855 0.0
C2403 C 0.79768 0.73206 0.64293 0.0
C2404 C 0.81357 0.75635 0.64592 0.0
C2405 C 0.8336 0.76307 0.65541 0.0
C2406 C 0.83774 0.7457 0.66177 0.0
C2407 C 0.80976 0.77465 0.63853 0.0
C2408 C 0.82777 0.79067 0.62882 0.0
C2409 C 0.78771 0.77495 0.63997 0.0
C2410 C 0.76842 0.75895 0.65049 0.0
C2411 C 0.7739 0.75835 0.6656 0.0
C2412 C 0.75573 0.743 0.67541 0.0
C2413 C 0.73196 0.72826 0.67025 0.0
C2414 C 0.72629 0.72889 0.65528 0.0
C2415 C 0.74439 0.7442 0.64543 0.0
H2416 H 0.71792 0.71638 0.67785 0.0
H2417 H 0.89285 0.86136 0.58064 0.0
H2418 H 0.06597 0.81832 0.58901 0.0
H2419 H 0.02944 0.78933 0.60224 0.0
H2420 H 0.01789 0.84624 0.61757 0.0
H2421 H 0.05459 0.87535 0.60447 0.0
H2422 H 0.01254 0.8182 0.63975 0.0
H2423 H 0.98124 0.80553 0.5903 0.0
H2424 H 0.98011 0.79791 0.56333 0.0
H2425 H 0.97449 0.73 0.5718 0.0
H2426 H 0.97599 0.73737 0.59884 0.0
H2427 H 0.88727 0.73141 0.66243 0.0
H2428 H 0.92441 0.76543 0.65251 0.0
H2429 H 0.95228 0.71856 0.64166 0.0
H2430 H 0.91542 0.68466 0.65171 0.0
H2431 H 0.94713 0.74344 0.61702 0.0
H2432 H 1.00012 0.77161 0.66495 0.0
H2433 H 0.0075 0.7849 0.69122 0.0
H2434 H 0.96997 0.82403 0.68444 0.0
H2435 H 0.96282 0.81128 0.65807 0.0
C2436 C 0.05545 0.82462 0.59502 0.0
C2437 C 0.06318 0.84915 0.59568 0.0
C2438 C 0.03453 0.80802 0.60258 0.0
C2439 C 0.02067 0.81552 0.61079 0.0
C2440 C 0.02824 0.83999 0.61133 0.0
C2441 C 0.04926 0.85661 0.60386 0.0
C2442 C 0.999 0.79799 0.61938 0.0
C2443 C 0.99805 0.80207 0.63466 0.0
C2444 C 0.98012 0.77674 0.61288 0.0
C2445 C 0.97899 0.77213 0.59662 0.0
C2446 C 0.97998 0.78906 0.58642 0.0
C2447 C 0.97929 0.7848 0.57112 0.0
C2448 C 0.97739 0.76355 0.56586 0.0
C2449 C 0.97606 0.74648 0.5759 0.0
C2450 C 0.9768 0.75069 0.59122 0.0
C2451 C 0.90171 0.72854 0.65848 0.0
C2452 C 0.8985 0.70537 0.6579 0.0
C2453 C 0.92294 0.74801 0.65277 0.0
C2454 C 0.94112 0.74453 0.6463 0.0
C2455 C 0.93852 0.72167 0.64659 0.0
C2456 C 0.91747 0.70232 0.65235 0.0
C2457 C 0.961 0.76359 0.63735 0.0
C2458 C 0.96155 0.75974 0.62199 0.0
C2459 C 0.97931 0.78519 0.64366 0.0
C2460 C 0.98061 0.79022 0.65973 0.0
C2461 C 0.99317 0.78277 0.66917 0.0
C2462 C 0.99759 0.79045 0.68399 0.0
C2463 C 0.98931 0.80539 0.68947 0.0
C2464 C 0.97642 0.81252 0.68017 0.0
C2465 C 0.97219 0.80508 0.6653 0.0
H2466 H 0.99275 0.81132 0.70095 0.0
H2467 H 0.97678 0.76026 0.554 0.0
H2468 H 0.12369 0.17831 0.6098 0.0
H2469 H 0.15486 0.17243 0.62201 0.0
H2470 H 0.21075 0.24057 0.6055 0.0
H2471 H 0.17972 0.24637 0.59317 0.0
H2472 H 0.22466 0.20929 0.60167 0.0
H2473 H 0.19092 0.23056 0.64278 0.0
H2474 H 0.15863 0.22733 0.6595 0.0
H2475 H 0.14162 0.1565 0.67178 0.0
H2476 H 0.17358 0.15916 0.65495 0.0
H2477 H 0.32295 0.22758 0.64853 0.0
H2478 H 0.28904 0.23103 0.63814 0.0
H2479 H 0.23994 0.15651 0.64714 0.0
H2480 H 0.27396 0.15278 0.65701 0.0
H2481 H 0.22179 0.18892 0.65509 0.0
H2482 H 0.25632 0.16836 0.61422 0.0
H2483 H 0.28925 0.17223 0.59783 0.0
H2484 H 0.30535 0.24276 0.58549 0.0
H2485 H 0.27281 0.2395 0.60204 0.0
C2486 C 0.1426 0.19215 0.6089 0.0
C2487 C 0.14916 0.21282 0.60047 0.0
C2488 C 0.16045 0.18878 0.6159 0.0
C2489 C 0.18528 0.20615 0.61484 0.0
C2490 C 0.19181 0.22682 0.60649 0.0
C2491 C 0.17401 0.23012 0.5994 0.0
C2492 C 0.20455 0.20266 0.6221 0.0
C2493 C 0.22411 0.20515 0.6134 0.0
C2494 C 0.20369 0.1966 0.63734 0.0
C2495 C 0.18444 0.19495 0.64745 0.0
C2496 C 0.18014 0.21421 0.64893 0.0
C2497 C 0.16192 0.2125 0.65845 0.0
C2498 C 0.14802 0.19169 0.66665 0.0
C2499 C 0.15236 0.17258 0.66539 0.0
C2500 C 0.17053 0.17418 0.65586 0.0
C2501 C 0.30487 0.212 0.64843 0.0
C2502 C 0.30103 0.19007 0.65393 0.0
C2503 C 0.28553 0.21398 0.64248 0.0
C2504 C 0.26195 0.19403 0.64188 0.0
C2505 C 0.25795 0.17216 0.64759 0.0
C2506 C 0.2774 0.1701 0.65333 0.0
C2507 C 0.24181 0.1959 0.63468 0.0
C2508 C 0.22218 0.19305 0.64337 0.0
C2509 C 0.24262 0.20173 0.61944 0.0
C2510 C 0.26228 0.20378 0.60951 0.0
C2511 C 0.26705 0.18481 0.60815 0.0
C2512 C 0.28562 0.18686 0.5988 0.0
C2513 C 0.29941 0.20775 0.59065 0.0
C2514 C 0.29467 0.2266 0.59183 0.0
C2515 C 0.27616 0.22466 0.60119 0.0
H2516 H 0.31374 0.20929 0.58339 0.0
H2517 H 0.13393 0.1904 0.67402 0.0
H2518 H 0.77402 0.91643 0.61621 0.0
H2519 H 0.78068 0.95299 0.62837 0.0
H2520 H 0.80748 0.99144 0.5872 0.0
H2521 H 0.80196 0.95505 0.57508 0.0
H2522 H 0.83484 0.01773 0.61015 0.0
H2523 H 0.74968 0.97324 0.59893 0.0
H2524 H 0.70833 0.93809 0.59845 0.0
H2525 H 0.70664 0.93772 0.64622 0.0
H2526 H 0.74815 0.97268 0.64699 0.0
H2527 H 0.81969 0.11589 0.63105 0.0
H2528 H 0.8122 0.07917 0.61838 0.0
H2529 H 0.80168 0.04436 0.6608 0.0
H2530 H 0.80925 0.08112 0.67351 0.0
H2531 H 0.76593 0.01702 0.6368 0.0
H2532 H 0.85197 0.06195 0.64751 0.0
H2533 H 0.89187 0.09902 0.64744 0.0
H2534 H 0.8909 0.09967 0.59969 0.0
H2535 H 0.85061 0.06293 0.59946 0.0
C2536 C 0.7817 0.93272 0.60977 0.0
C2537 C 0.78747 0.93281 0.59465 0.0
C2538 C 0.78523 0.95356 0.6167 0.0
C2539 C 0.79423 0.97485 0.60863 0.0
C2540 C 0.80041 0.97516 0.59361 0.0
C2541 C 0.79703 0.95431 0.58667 0.0
C2542 C 0.79683 0.99665 0.61588 0.0
C2543 C 0.81969 0.01763 0.6158 0.0
C2544 C 0.77712 0.99646 0.62343 0.0
C2545 C 0.75213 0.97545 0.62301 0.0
C2546 C 0.74057 0.96555 0.60933 0.0
C2547 C 0.71709 0.94568 0.60901 0.0
C2548 C 0.70489 0.93564 0.6223 0.0
C2549 C 0.71613 0.94549 0.63594 0.0
C2550 C 0.73962 0.96535 0.63632 0.0
C2551 C 0.8155 0.1003 0.63765 0.0
C2552 C 0.81531 0.10128 0.65325 0.0
C2553 C 0.81133 0.07944 0.63042 0.0
C2554 C 0.80657 0.05924 0.63871 0.0
C2555 C 0.80542 0.05988 0.65427 0.0
C2556 C 0.81 0.08088 0.66151 0.0
C2557 C 0.80385 0.03779 0.63112 0.0
C2558 C 0.78101 0.01698 0.63112 0.0
C2559 C 0.82348 0.03821 0.62342 0.0
C2560 C 0.84813 0.05979 0.62347 0.0
C2561 C 0.86016 0.07009 0.63699 0.0
C2562 C 0.88284 0.09106 0.637 0.0
C2563 C 0.89386 0.10175 0.62356 0.0
C2564 C 0.88227 0.09141 0.61008 0.0
C2565 C 0.85951 0.07051 0.61 0.0
H2566 H 0.9114 0.11801 0.62359 0.0
H2567 H 0.6867 0.92026 0.62202 0.0
H2568 H 0.51752 0.38671 0.76542 0.0
H2569 H 0.48756 0.34964 0.75344 0.0
H2570 H 0.50473 0.3849 0.71086 0.0
H2571 H 0.53343 0.42253 0.72292 0.0
H2572 H 0.45858 0.35832 0.71243 0.0
H2573 H 0.52492 0.34516 0.72272 0.0
H2574 H 0.55612 0.34254 0.73769 0.0
H2575 H 0.50026 0.28776 0.76451 0.0
H2576 H 0.46872 0.29033 0.74986 0.0
H2577 H 0.40367 0.25082 0.66879 0.0
H2578 H 0.43405 0.28815 0.68071 0.0
H2579 H 0.40428 0.25883 0.72373 0.0
H2580 H 0.37379 0.2215 0.71181 0.0
H2581 H 0.45673 0.28175 0.72157 0.0
H2582 H 0.39073 0.29623 0.71073 0.0
H2583 H 0.36037 0.29798 0.6944 0.0
H2584 H 0.41765 0.34991 0.66696 0.0
H2585 H 0.44836 0.34817 0.683 0.0
C2586 C 0.51474 0.38675 0.75353 0.0
C2587 C 0.528 0.40778 0.74518 0.0
C2588 C 0.49782 0.36535 0.74664 0.0
C2589 C 0.49412 0.36426 0.73117 0.0
C2590 C 0.5073 0.38519 0.72279 0.0
C2591 C 0.52396 0.40669 0.72971 0.0
C2592 C 0.47607 0.3415 0.72377 0.0
C2593 C 0.4585 0.3417 0.71429 0.0
C2594 C 0.47551 0.31957 0.72635 0.0
C2595 C 0.49446 0.31817 0.73529 0.0
C2596 C 0.51929 0.33273 0.7319 0.0
C2597 C 0.53704 0.33123 0.74032 0.0
C2598 C 0.53019 0.31506 0.75208 0.0
C2599 C 0.50555 0.30033 0.75543 0.0
C2600 C 0.48773 0.3018 0.74707 0.0
C2601 C 0.40374 0.25228 0.68076 0.0
C2602 C 0.38649 0.23329 0.68937 0.0
C2603 C 0.42097 0.27364 0.68756 0.0
C2604 C 0.42135 0.27621 0.70309 0.0
C2605 C 0.40425 0.25717 0.71173 0.0
C2606 C 0.38678 0.23598 0.70491 0.0
C2607 C 0.43956 0.29881 0.71034 0.0
C2608 C 0.45704 0.2985 0.71976 0.0
C2609 C 0.44026 0.32065 0.70756 0.0
C2610 C 0.42183 0.32188 0.69798 0.0
C2611 C 0.39685 0.30786 0.70114 0.0
C2612 C 0.37957 0.30888 0.69195 0.0
C2613 C 0.38707 0.324 0.67963 0.0
C2614 C 0.41187 0.33818 0.6765 0.0
C2615 C 0.42922 0.3372 0.68564 0.0
H2616 H 0.37367 0.32477 0.67253 0.0
H2617 H 0.54396 0.3139 0.75857 0.0
H2618 H 0.62759 0.1418 0.76343 0.0
H2619 H 0.66505 0.14961 0.75085 0.0
H2620 H 0.62411 0.11745 0.71066 0.0
H2621 H 0.58673 0.10999 0.72312 0.0
H2622 H 0.68009 0.12288 0.74018 0.0
H2623 H 0.6591 0.14087 0.67984 0.0
H2624 H 0.63746 0.15891 0.66743 0.0
H2625 H 0.64545 0.20044 0.70663 0.0
H2626 H 0.66745 0.18295 0.7192 0.0
H2627 H 0.75637 0.10775 0.69051 0.0
H2628 H 0.71993 0.10587 0.70112 0.0
H2629 H 0.75262 0.1822 0.69645 0.0
H2630 H 0.78928 0.18415 0.68598 0.0
H2631 H 0.70376 0.15942 0.69012 0.0
H2632 H 0.75497 0.16045 0.72862 0.0
H2633 H 0.78053 0.14862 0.74277 0.0
H2634 H 0.71832 0.07945 0.75057 0.0
H2635 H 0.69248 0.09057 0.73601 0.0
C2636 C 0.62657 0.1364 0.75191 0.0
C2637 C 0.6041 0.12534 0.7443 0.0
C2638 C 0.64805 0.14091 0.74469 0.0
C2639 C 0.64765 0.13441 0.72969 0.0
C2640 C 0.62518 0.1232 0.7221 0.0
C2641 C 0.60373 0.11889 0.72927 0.0
C2642 C 0.67054 0.1386 0.72216 0.0
C2643 C 0.68516 0.13085 0.72923 0.0
C2644 C 0.67779 0.14965 0.70802 0.0
C2645 C 0.66468 0.16036 0.70052 0.0
C2646 C 0.6563 0.1539 0.6858 0.0
C2647 C 0.64397 0.16403 0.67874 0.0
C2648 C 0.64 0.18074 0.68626 0.0
C2649 C 0.64844 0.18742 0.70084 0.0
C2650 C 0.66081 0.17738 0.70795 0.0
C2651 C 0.7556 0.12407 0.6915 0.0
C2652 C 0.77557 0.14603 0.68723 0.0
C2653 C 0.73481 0.123 0.69762 0.0
C2654 C 0.73359 0.14392 0.69978 0.0
C2655 C 0.75309 0.1658 0.69491 0.0
C2656 C 0.77402 0.16689 0.68884 0.0
C2657 C 0.71264 0.14295 0.70796 0.0
C2658 C 0.69851 0.15137 0.70104 0.0
C2659 C 0.70627 0.13324 0.72247 0.0
C2660 C 0.72181 0.12628 0.73106 0.0
C2661 C 0.74677 0.1426 0.73318 0.0
C2662 C 0.76131 0.13604 0.74131 0.0
C2663 C 0.75106 0.11331 0.74759 0.0
C2664 C 0.72625 0.09705 0.74568 0.0
C2665 C 0.71165 0.10346 0.73746 0.0
H2666 H 0.76234 0.10832 0.75395 0.0
H2667 H 0.63044 0.18855 0.68077 0.0
H2668 H 0.861 0.45921 0.73693 0.0
H2669 H 0.85228 0.48681 0.72332 0.0
H2670 H 0.922 0.54581 0.73674 0.0
H2671 H 0.93082 0.5183 0.75039 0.0
H2672 H 0.88666 0.55672 0.73992 0.0
H2673 H 0.91282 0.5225 0.70166 0.0
H2674 H 0.91231 0.48979 0.68716 0.0
H2675 H 0.83835 0.46517 0.67391 0.0
H2676 H 0.8383 0.49757 0.6885 0.0
H2677 H 0.89146 0.64419 0.69258 0.0
H2678 H 0.90114 0.61523 0.70316 0.0
H2679 H 0.83105 0.55762 0.68899 0.0
H2680 H 0.82158 0.58657 0.67782 0.0
H2681 H 0.86578 0.54549 0.68611 0.0
H2682 H 0.84009 0.58038 0.72447 0.0
H2683 H 0.84219 0.615 0.73749 0.0
H2684 H 0.91627 0.63906 0.7502 0.0
H2685 H 0.91475 0.60478 0.73701 0.0
C2686 C 0.87454 0.47805 0.73688 0.0
C2687 C 0.89663 0.4866 0.74468 0.0
C2688 C 0.86953 0.49378 0.72912 0.0
C2689 C 0.88661 0.51832 0.72889 0.0
C2690 C 0.90856 0.52694 0.73679 0.0
C2691 C 0.91355 0.51123 0.74461 0.0
C2692 C 0.88157 0.53505 0.72048 0.0
C2693 C 0.88236 0.5544 0.72812 0.0
C2694 C 0.87545 0.53173 0.70515 0.0
C2695 C 0.87548 0.51232 0.6963 0.0
C2696 C 0.89638 0.51001 0.69575 0.0
C2697 C 0.89621 0.49154 0.6875 0.0
C2698 C 0.87529 0.47537 0.67965 0.0
C2699 C 0.85453 0.47769 0.68001 0.0
C2700 C 0.8546 0.49611 0.68826 0.0
C2701 C 0.87819 0.62535 0.69158 0.0
C2702 C 0.85562 0.61763 0.6846 0.0
C2703 C 0.88374 0.60882 0.69765 0.0
C2704 C 0.86655 0.58433 0.6972 0.0
C2705 C 0.84449 0.57647 0.68954 0.0
C2706 C 0.83909 0.59301 0.68321 0.0
C2707 C 0.87103 0.56716 0.70554 0.0
C2708 C 0.87003 0.54772 0.69791 0.0
C2709 C 0.87695 0.57037 0.7209 0.0
C2710 C 0.87737 0.59011 0.72965 0.0
C2711 C 0.85683 0.59305 0.73004 0.0
C2712 C 0.85794 0.61266 0.73742 0.0
C2713 C 0.8794 0.6293 0.74461 0.0
C2714 C 0.89969 0.62619 0.74459 0.0
C2715 C 0.8987 0.60666 0.73718 0.0
H2716 H 0.88035 0.64461 0.75018 0.0
H2717 H 0.87519 0.46109 0.67327 0.0
H2718 H 0.42258 0.89034 0.2143 0.0
H2719 H 0.43188 0.90722 0.18921 0.0
H2720 H 0.50749 0.95097 0.20152 0.0
H2721 H 0.49821 0.93476 0.22669 0.0
H2722 H 0.49282 0.97656 0.18625 0.0
H2723 H 0.48664 0.89978 0.17988 0.0
H2724 H 0.46673 0.85588 0.18134 0.0
H2725 H 0.40859 0.84892 0.15328 0.0
H2726 H 0.428 0.89281 0.15182 0.0
H2727 H 0.54911 0.01235 0.11656 0.0
H2728 H 0.53539 0.99195 0.14035 0.0
H2729 H 0.46125 0.95538 0.12438 0.0
H2730 H 0.47483 0.9761 0.10046 0.0
H2731 H 0.47224 0.92566 0.14103 0.0
H2732 H 0.47931 0.00246 0.14665 0.0
H2733 H 0.49953 0.04635 0.145 0.0
H2734 H 0.55606 0.05319 0.17451 0.0
H2735 H 0.53636 0.00931 0.17616 0.0
C2736 C 0.44116 0.9037 0.21171 0.0
C2737 C 0.45965 0.91107 0.22256 0.0
C2738 C 0.44651 0.91317 0.19728 0.0
C2739 C 0.47048 0.9302 0.19334 0.0
C2740 C 0.48888 0.9378 0.20421 0.0
C2741 C 0.48356 0.92833 0.2186 0.0
C2742 C 0.47647 0.94044 0.178 0.0
C2743 C 0.48854 0.96538 0.1764 0.0
C2744 C 0.47031 0.92595 0.16503 0.0
C2745 C 0.45863 0.89957 0.16588 0.0
C2746 C 0.4695 0.88889 0.17413 0.0
C2747 C 0.45833 0.86401 0.17494 0.0
C2748 C 0.43637 0.84962 0.16745 0.0
C2749 C 0.42557 0.86008 0.1591 0.0
C2750 C 0.43666 0.88496 0.15827 0.0
C2751 C 0.52984 8e-05 0.11807 0.0
C2752 C 0.51305 0.99631 0.10663 0.0
C2753 C 0.52203 0.98832 0.1317 0.0
C2754 C 0.49722 0.97246 0.13431 0.0
C2755 C 0.48048 0.96764 0.12268 0.0
C2756 C 0.4883 0.97948 0.10898 0.0
C2757 C 0.48892 0.96173 0.14936 0.0
C2758 C 0.4764 0.93677 0.1509 0.0
C2759 C 0.49464 0.97617 0.16231 0.0
C2760 C 0.50647 0.00258 0.16143 0.0
C2761 C 0.49615 0.01332 0.1527 0.0
C2762 C 0.50751 0.0382 0.15178 0.0
C2763 C 0.5291 0.05255 0.15962 0.0
C2764 C 0.53935 0.04205 0.16843 0.0
C2765 C 0.52808 0.01717 0.16938 0.0
H2766 H 0.53786 0.07181 0.15889 0.0
H2767 H 0.42775 0.83036 0.16808 0.0
H2768 H 0.06192 0.50495 0.22365 0.0
H2769 H 0.04153 0.49486 0.19942 0.0
H2770 H 0.09062 0.56634 0.18403 0.0
H2771 H 0.11103 0.57658 0.20831 0.0
H2772 H 0.04498 0.55283 0.1764 0.0
H2773 H 0.09683 0.51908 0.17269 0.0
H2774 H 0.11486 0.49472 0.18048 0.0
H2775 H 0.04444 0.43137 0.17845 0.0
H2776 H 0.02591 0.45541 0.17086 0.0
H2777 H 0.01559 0.52841 0.09948 0.0
H2778 H 0.03739 0.53883 0.12329 0.0
H2779 H 0.98489 0.47004 0.14086 0.0
H2780 H 0.96313 0.45939 0.11699 0.0
H2781 H 0.03294 0.48255 0.14701 0.0
H2782 H 0.98147 0.51735 0.15088 0.0
H2783 H 0.96432 0.5423 0.1427 0.0
H2784 H 0.03563 0.60455 0.14384 0.0
H2785 H 0.05326 0.57989 0.15184 0.0
C2786 C 0.06853 0.51843 0.21504 0.0
C2787 C 0.08812 0.54152 0.21784 0.0
C2788 C 0.05687 0.51265 0.20121 0.0
C2789 C 0.06474 0.52977 0.18986 0.0
C2790 C 0.08425 0.55287 0.19264 0.0
C2791 C 0.09585 0.5587 0.2065 0.0
C2792 C 0.05227 0.52367 0.1752 0.0
C2793 C 0.04267 0.53767 0.16987 0.0
C2794 C 0.04886 0.50362 0.16682 0.0
C2795 C 0.05995 0.48909 0.17134 0.0
C2796 C 0.08515 0.49998 0.17402 0.0
C2797 C 0.09547 0.48622 0.17838 0.0
C2798 C 0.0808 0.46152 0.18 0.0
C2799 C 0.05578 0.45051 0.17722 0.0
C2800 C 0.04536 0.46419 0.17287 0.0
C2801 C 0.00877 0.51547 0.1084 0.0
C2802 C 0.98765 0.4931 0.10641 0.0
C2803 C 0.02114 0.5215 0.12201 0.0
C2804 C 0.01263 0.50525 0.13384 0.0
C2805 C 0.99169 0.48282 0.13185 0.0
C2806 C 0.9792 0.47684 0.11828 0.0
C2807 C 0.02563 0.51165 0.14829 0.0
C2808 C 0.03532 0.49772 0.15355 0.0
C2809 C 0.02929 0.53186 0.15656 0.0
C2810 C 0.01871 0.54673 0.15181 0.0
C2811 C 0.99352 0.53633 0.14927 0.0
C2812 C 0.98371 0.55042 0.14469 0.0
C2813 C 0.99889 0.57498 0.14271 0.0
C2814 C 0.0239 0.58551 0.14536 0.0
C2815 C 0.03381 0.57149 0.14993 0.0
H2816 H 0.99125 0.58587 0.13917 0.0
H2817 H 0.08882 0.4509 0.18337 0.0
H2818 H 0.4338 0.50326 0.22193 0.0
H2819 H 0.44322 0.49503 0.19698 0.0
H2820 H 0.46996 0.56844 0.18475 0.0
H2821 H 0.46014 0.57673 0.20964 0.0
H2822 H 0.44312 0.53637 0.16181 0.0
H2823 H 0.50956 0.55232 0.19477 0.0
H2824 H 0.52837 0.54699 0.21739 0.0
H2825 H 0.50179 0.47355 0.20562 0.0
H2826 H 0.4825 0.47836 0.18302 0.0
H2827 H 0.51337 0.53842 0.09914 0.0
H2828 H 0.49849 0.54637 0.12236 0.0
H2829 H 0.4805 0.47664 0.13853 0.0
H2830 H 0.49603 0.46897 0.11553 0.0
H2831 H 0.50247 0.50767 0.15935 0.0
H2832 H 0.43615 0.49133 0.12619 0.0
H2833 H 0.41816 0.49673 0.10318 0.0
H2834 H 0.44426 0.57009 0.11484 0.0
H2835 H 0.46262 0.56521 0.13787 0.0
C2836 C 0.44127 0.51757 0.21386 0.0
C2837 C 0.44635 0.5407 0.21782 0.0
C2838 C 0.44678 0.51287 0.19962 0.0
C2839 C 0.45753 0.53118 0.18904 0.0
C2840 C 0.46172 0.55405 0.19274 0.0
C2841 C 0.45629 0.5588 0.20701 0.0
C2842 C 0.4658 0.52677 0.1745 0.0
C2843 C 0.45626 0.5303 0.16123 0.0
C2844 C 0.48267 0.51853 0.17375 0.0
C2845 C 0.49439 0.51564 0.18728 0.0
C2846 C 0.50757 0.53498 0.19706 0.0
C2847 C 0.51834 0.53206 0.20987 0.0
C2848 C 0.51622 0.50993 0.21296 0.0
C2849 C 0.50338 0.49068 0.20322 0.0
C2850 C 0.49254 0.49349 0.19041 0.0
C2851 C 0.50604 0.52474 0.10762 0.0
C2852 C 0.50593 0.5031 0.10554 0.0
C2853 C 0.49744 0.52925 0.12087 0.0
C2854 C 0.48805 0.512 0.13219 0.0
C2855 C 0.48768 0.49027 0.13002 0.0
C2856 C 0.49659 0.48591 0.11687 0.0
C2857 C 0.47954 0.51684 0.14655 0.0
C2858 C 0.48918 0.51356 0.15984 0.0
C2859 C 0.46269 0.52519 0.14727 0.0
C2860 C 0.45096 0.52796 0.13369 0.0
C2861 C 0.43812 0.50864 0.12383 0.0
C2862 C 0.42786 0.5116 0.11079 0.0
C2863 C 0.43018 0.53376 0.10753 0.0
C2864 C 0.44254 0.55295 0.11738 0.0
C2865 C 0.45283 0.55008 0.13044 0.0
H2866 H 0.42242 0.53607 0.09737 0.0
H2867 H 0.52458 0.5077 0.22289 0.0
H2868 H 0.90472 0.43134 0.79939 0.0
H2869 H 0.92359 0.44153 0.8241 0.0
H2870 H 0.9741 0.51285 0.80911 0.0
H2871 H 0.95559 0.50262 0.78428 0.0
H2872 H 0.99667 0.49281 0.82443 0.0
H2873 H 0.92783 0.50376 0.83114 0.0
H2874 H 0.88444 0.49222 0.83016 0.0
H2875 H 0.86686 0.43376 0.8597 0.0
H2876 H 0.91012 0.44474 0.86069 0.0
H2877 H 0.04484 0.54044 0.89567 0.0
H2878 H 0.025 0.53352 0.87132 0.0
H2879 H 0.96972 0.46323 0.88527 0.0
H2880 H 0.98929 0.47022 0.9097 0.0
H2881 H 0.94967 0.4843 0.87033 0.0
H2882 H 0.01749 0.47169 0.86285 0.0
H2883 H 0.06062 0.48225 0.86376 0.0
H2884 H 0.0798 0.54255 0.83554 0.0
H2885 H 0.0368 0.53253 0.83463 0.0
C2886 C 0.9199 0.44916 0.80135 0.0
C2887 C 0.9287 0.46619 0.78992 0.0
C2888 C 0.93052 0.45501 0.81549 0.0
C2889 C 0.95008 0.47801 0.81845 0.0
C2890 C 0.95895 0.49503 0.80705 0.0
C2891 C 0.94828 0.48922 0.79292 0.0
C2892 C 0.96169 0.48408 0.83334 0.0
C2893 C 0.98651 0.49132 0.83445 0.0
C2894 C 0.94823 0.48155 0.84642 0.0
C2895 C 0.9222 0.47495 0.84588 0.0
C2896 C 0.91469 0.48832 0.83733 0.0
C2897 C 0.89012 0.48191 0.83679 0.0
C2898 C 0.87289 0.46224 0.84483 0.0
C2899 C 0.88022 0.44897 0.85346 0.0
C2900 C 0.90477 0.4553 0.85403 0.0
C2901 C 0.02849 0.5235 0.89351 0.0
C2902 C 0.01866 0.50581 0.90453 0.0
C2903 C 0.01718 0.51956 0.87961 0.0
C2904 C 0.99607 0.49772 0.87641 0.0
C2905 C 0.98598 0.48021 0.88751 0.0
C2906 C 0.99716 0.48423 0.90145 0.0
C2907 C 0.98467 0.49293 0.86144 0.0
C2908 C 0.95988 0.4859 0.8603 0.0
C2909 C 0.99812 0.49551 0.84833 0.0
C2910 C 0.02396 0.50149 0.8488 0.0
C2911 C 0.03093 0.4873 0.85693 0.0
C2912 C 0.05535 0.49318 0.85743 0.0
C2913 C 0.07295 0.5131 0.84974 0.0
C2914 C 0.06615 0.52715 0.8415 0.0
C2915 C 0.04176 0.52137 0.84098 0.0
H2916 H 0.09185 0.51762 0.85015 0.0
H2917 H 0.85388 0.4573 0.8444 0.0
H2918 H 0.58843 0.47779 0.79812 0.0
H2919 H 0.57848 0.48695 0.82271 0.0
H2920 H 0.50417 0.46007 0.80853 0.0
H2921 H 0.51417 0.45174 0.78384 0.0
H2922 H 0.51993 0.50034 0.82367 0.0
H2923 H 0.52113 0.42709 0.83079 0.0
H2924 H 0.5391 0.40094 0.83013 0.0
H2925 H 0.5965 0.449 0.85947 0.0
H2926 H 0.57904 0.47562 0.86014 0.0
H2927 H 0.45914 0.48172 0.8921 0.0
H2928 H 0.47371 0.47543 0.86833 0.0
H2929 H 0.54662 0.50729 0.88614 0.0
H2930 H 0.53223 0.51397 0.90999 0.0
H2931 H 0.53458 0.467 0.86964 0.0
H2932 H 0.53198 0.5392 0.86344 0.0
H2933 H 0.51346 0.56486 0.86431 0.0
H2934 H 0.45831 0.51839 0.83324 0.0
H2935 H 0.4763 0.49225 0.83235 0.0
C2936 C 0.57003 0.47405 0.8002 0.0
C2937 C 0.55206 0.46386 0.78901 0.0
C2938 C 0.5643 0.47907 0.81432 0.0
C2939 C 0.54048 0.4739 0.81757 0.0
C2940 C 0.52265 0.46413 0.80634 0.0
C2941 C 0.52836 0.45915 0.79225 0.0
C2942 C 0.53396 0.4787 0.8326 0.0
C2943 C 0.52292 0.49283 0.83369 0.0
C2944 C 0.53843 0.46947 0.84576 0.0
C2945 C 0.54893 0.45348 0.84538 0.0
C2946 C 0.53769 0.43218 0.837 0.0
C2947 C 0.54777 0.41726 0.83664 0.0
C2948 C 0.56897 0.42334 0.84471 0.0
C2949 C 0.5801 0.44434 0.8532 0.0
C2950 C 0.57012 0.45934 0.85358 0.0
C2951 C 0.47832 0.48758 0.89096 0.0
C2952 C 0.49454 0.49859 0.90295 0.0
C2953 C 0.48661 0.48389 0.87736 0.0
C2954 C 0.51133 0.4912 0.87537 0.0
C2955 C 0.52747 0.50155 0.88741 0.0
C2956 C 0.51919 0.50528 0.90105 0.0
C2957 C 0.52022 0.4883 0.86064 0.0
C2958 C 0.53174 0.4746 0.85961 0.0
C2959 C 0.51616 0.49788 0.84751 0.0
C2960 C 0.50538 0.51366 0.84793 0.0
C2961 C 0.5158 0.53436 0.85688 0.0
C2962 C 0.50541 0.549 0.85736 0.0
C2963 C 0.48469 0.54323 0.84886 0.0
C2964 C 0.47435 0.52283 0.83983 0.0
C2965 C 0.48465 0.5081 0.83932 0.0
H2966 H 0.47667 0.55459 0.84925 0.0
H2967 H 0.57673 0.41176 0.84443 0.0
H2968 H 0.51104 0.06833 0.7842 0.0
H2969 H 0.50156 0.05175 0.80925 0.0
H2970 H 0.57545 0.10042 0.8231 0.0
H2971 H 0.5851 0.11712 0.79794 0.0
H2972 H 0.56043 0.05722 0.83455 0.0
H2973 H 0.52844 0.11009 0.83273 0.0
H2974 H 0.50472 0.12757 0.82252 0.0
H2975 H 0.43879 0.06009 0.82689 0.0
H2976 H 0.46216 0.0421 0.83694 0.0
H2977 H 0.53008 0.02796 0.91121 0.0
H2978 H 0.54385 0.05072 0.88807 0.0
H2979 H 0.47258 0.00659 0.86878 0.0
H2980 H 0.45846 0.98451 0.89199 0.0
H2981 H 0.48921 0.05141 0.8612 0.0
H2982 H 0.52236 0.99818 0.86134 0.0
H2983 H 0.54643 0.98129 0.8719 0.0
H2984 H 0.61076 0.05062 0.87117 0.0
H2985 H 0.58699 0.06797 0.86076 0.0
C2986 C 0.52527 0.07568 0.79258 0.0
C2987 C 0.54879 0.09427 0.78903 0.0
C2988 C 0.51981 0.06614 0.80695 0.0
C2989 C 0.53764 0.07507 0.81822 0.0
C2990 C 0.56132 0.09323 0.81465 0.0
C2991 C 0.56684 0.10275 0.80023 0.0
C2992 C 0.53142 0.0654 0.83369 0.0
C2993 C 0.54509 0.05631 0.84046 0.0
C2994 C 0.51125 0.06391 0.84144 0.0
C2995 C 0.49709 0.0747 0.83548 0.0
C2996 C 0.5089 0.09893 0.83142 0.0
C2997 C 0.49552 0.10894 0.82567 0.0
C2998 C 0.47027 0.09494 0.82403 0.0
C2999 C 0.45835 0.07091 0.82816 0.0
C3000 C 0.47165 0.0608 0.8339 0.0
C3001 C 0.51723 0.02329 0.90213 0.0
C3002 C 0.4932 0.00413 0.90349 0.0
C3003 C 0.52522 0.03619 0.88881 0.0
C3004 C 0.50941 0.03015 0.8765 0.0
C3005 C 0.48523 0.01157 0.87802 0.0
C3006 C 0.47723 0.99876 0.89131 0.0
C3007 C 0.51789 0.04276 0.86193 0.0
C3008 C 0.50465 0.05246 0.85533 0.0
C3009 C 0.5385 0.04488 0.85438 0.0
C3010 C 0.55286 0.0344 0.86041 0.0
C3011 C 0.54162 0.00984 0.86351 0.0
C3012 C 0.5552 0.00018 0.86946 0.0
C3013 C 0.58009 0.01489 0.87225 0.0
C3014 C 0.59147 0.03926 0.86903 0.0
C3015 C 0.57796 0.04901 0.86309 0.0
H3016 H 0.59057 0.00739 0.87687 0.0
H3017 H 0.45994 0.10272 0.81957 0.0
H3018 H 0.1355 0.21534 0.54685 0.0
H3019 H 0.14473 0.23209 0.52177 0.0
H3020 H 0.11906 0.28044 0.53362 0.0
H3021 H 0.10939 0.26341 0.55865 0.0
H3022 H 0.10411 0.26429 0.50668 0.0
H3023 H 0.1814 0.29797 0.53176 0.0
H3024 H 0.21428 0.2972 0.54602 0.0
H3025 H 0.22353 0.25709 0.51099 0.0
H3026 H 0.19046 0.25734 0.4966 0.0
H3027 H 0.16487 0.35361 0.45158 0.0
H3028 H 0.15118 0.33082 0.47469 0.0
H3029 H 0.1682 0.27889 0.45683 0.0
H3030 H 0.18191 0.30169 0.43356 0.0
H3031 H 0.18672 0.29449 0.48575 0.0
H3032 H 0.11079 0.26359 0.46 0.0
H3033 H 0.07865 0.2658 0.44582 0.0
H3034 H 0.06766 0.30238 0.48234 0.0
H3035 H 0.10003 0.30072 0.49666 0.0
C3036 C 0.13188 0.22959 0.54413 0.0
C3037 C 0.12183 0.23811 0.55482 0.0
C3038 C 0.13721 0.23921 0.52976 0.0
C3039 C 0.13302 0.25789 0.52578 0.0
C3040 C 0.12251 0.26608 0.53635 0.0
C3041 C 0.11695 0.2563 0.55068 0.0
C3042 C 0.13981 0.26908 0.51069 0.0
C3043 C 0.12227 0.27111 0.50221 0.0
C3044 C 0.16333 0.27755 0.50458 0.0
C3045 C 0.18328 0.27746 0.51318 0.0
C3046 C 0.19033 0.28884 0.52715 0.0
C3047 C 0.20902 0.28852 0.53525 0.0
C3048 C 0.22094 0.27705 0.52944 0.0
C3049 C 0.21425 0.26593 0.51549 0.0
C3050 C 0.19554 0.26617 0.50735 0.0
C3051 C 0.16563 0.33729 0.45254 0.0
C3052 C 0.17456 0.32951 0.44074 0.0
C3053 C 0.15767 0.3242 0.46574 0.0
C3054 C 0.15857 0.30308 0.46751 0.0
C3055 C 0.16731 0.29512 0.45572 0.0
C3056 C 0.17499 0.30808 0.4424 0.0
C3057 C 0.15109 0.28985 0.48188 0.0
C3058 C 0.16852 0.2875 0.49022 0.0
C3059 C 0.12755 0.28127 0.4879 0.0
C3060 C 0.108 0.28222 0.47935 0.0
C3061 C 0.10167 0.27229 0.46496 0.0
C3062 C 0.08338 0.27341 0.45691 0.0
C3063 C 0.07115 0.28427 0.46316 0.0
C3064 C 0.07716 0.29399 0.4775 0.0
C3065 C 0.09547 0.29295 0.4856 0.0
H3066 H 0.05699 0.28511 0.45691 0.0
H3067 H 0.23541 0.27682 0.53572 0.0
H3068 H 0.72567 0.84274 0.55819 0.0
H3069 H 0.70578 0.83305 0.53378 0.0
H3070 H 0.76471 0.89859 0.51614 0.0
H3071 H 0.78394 0.9088 0.54079 0.0
H3072 H 0.72525 0.8939 0.50609 0.0
H3073 H 0.75686 0.84089 0.50853 0.0
H3074 H 0.76452 0.81013 0.51917 0.0
H3075 H 0.68782 0.75953 0.51843 0.0
H3076 H 0.67965 0.7901 0.50798 0.0
H3077 H 0.69148 0.86281 0.43079 0.0
H3078 H 0.71364 0.87064 0.45421 0.0
H3079 H 0.64992 0.8134 0.47492 0.0
H3080 H 0.62772 0.80491 0.45129 0.0
H3081 H 0.69292 0.814 0.48264 0.0
H3082 H 0.66339 0.8705 0.48033 0.0
H3083 H 0.65872 0.90174 0.46758 0.0
H3084 H 0.73646 0.94663 0.46584 0.0
H3085 H 0.74158 0.91556 0.4785 0.0
C3086 C 0.73438 0.85494 0.54904 0.0
C3087 C 0.75632 0.87644 0.55128 0.0
C3088 C 0.72311 0.84937 0.53508 0.0
C3089 C 0.73393 0.86487 0.52299 0.0
C3090 C 0.75597 0.88632 0.52525 0.0
C3091 C 0.76698 0.89213 0.5393 0.0
C3092 C 0.72186 0.85909 0.50813 0.0
C3093 C 0.71854 0.87652 0.50091 0.0
C3094 C 0.71281 0.83634 0.50134 0.0
C3095 C 0.71763 0.81787 0.5076 0.0
C3096 C 0.74161 0.82326 0.51074 0.0
C3097 C 0.74604 0.80585 0.51672 0.0
C3098 C 0.72667 0.78291 0.51951 0.0
C3099 C 0.70281 0.77732 0.51628 0.0
C3100 C 0.69827 0.79468 0.51032 0.0
C3101 C 0.68219 0.85169 0.44025 0.0
C3102 C 0.65772 0.83336 0.43916 0.0
C3103 C 0.69488 0.8563 0.45367 0.0
C3104 C 0.68332 0.8428 0.46634 0.0
C3105 C 0.65911 0.82409 0.46526 0.0
C3106 C 0.64639 0.81944 0.4518 0.0
C3107 C 0.69629 0.84871 0.48082 0.0
C3108 C 0.69975 0.83133 0.48791 0.0
C3109 C 0.70595 0.87164 0.48734 0.0
C3110 C 0.70286 0.89069 0.4803 0.0
C3111 C 0.67948 0.88704 0.47722 0.0
C3112 C 0.67675 0.9047 0.47001 0.0
C3113 C 0.69728 0.92615 0.4659 0.0
C3114 C 0.72058 0.93002 0.46906 0.0
C3115 C 0.7234 0.91242 0.47628 0.0
H3116 H 0.69513 0.93977 0.46028 0.0
H3117 H 0.73014 0.76945 0.52414 0.0
H3118 H 0.08295 0.86041 0.54258 0.0
H3119 H 0.09326 0.85315 0.51759 0.0
H3120 H 0.16786 0.88097 0.53141 0.0
H3121 H 0.15768 0.88794 0.55642 0.0
H3122 H 0.16478 0.8987 0.50441 0.0
H3123 H 0.1295 0.82139 0.52814 0.0
H3124 H 0.09725 0.78662 0.5414 0.0
H3125 H 0.04759 0.77329 0.50524 0.0
H3126 H 0.07947 0.8082 0.49185 0.0
H3127 H 0.21227 0.85614 0.44904 0.0
H3128 H 0.19788 0.86449 0.47223 0.0
H3129 H 0.12502 0.83199 0.45422 0.0
H3130 H 0.13919 0.82288 0.43111 0.0
H3131 H 0.12443 0.81738 0.48216 0.0
H3132 H 0.15934 0.89216 0.45747 0.0
H3133 H 0.19071 0.92689 0.44376 0.0
H3134 H 0.23966 0.94557 0.48094 0.0
H3135 H 0.2087 0.91071 0.4948 0.0
C3136 C 0.1015 0.86476 0.54035 0.0
C3137 C 0.11947 0.87476 0.55154 0.0
C3138 C 0.10738 0.86069 0.52603 0.0
C3139 C 0.13132 0.86643 0.52264 0.0
C3140 C 0.1493 0.87653 0.53374 0.0
C3141 C 0.14344 0.88056 0.54804 0.0
C3142 C 0.13773 0.86174 0.50758 0.0
C3143 C 0.15613 0.88089 0.4996 0.0
C3144 C 0.12588 0.83864 0.50108 0.0
C3145 C 0.10678 0.81755 0.50907 0.0
C3146 C 0.11164 0.81115 0.52307 0.0
C3147 C 0.09344 0.7914 0.5306 0.0
C3148 C 0.07036 0.7778 0.52419 0.0
C3149 C 0.06546 0.78387 0.51021 0.0
C3150 C 0.08359 0.80362 0.50264 0.0
C3151 C 0.19315 0.8506 0.45003 0.0
C3152 C 0.17688 0.83877 0.4382 0.0
C3153 C 0.18499 0.85562 0.46325 0.0
C3154 C 0.16041 0.84911 0.46493 0.0
C3155 C 0.14408 0.83726 0.45317 0.0
C3156 C 0.15225 0.83223 0.43992 0.0
C3157 C 0.1518 0.85428 0.47909 0.0
C3158 C 0.13297 0.83524 0.4869 0.0
C3159 C 0.16311 0.87753 0.48537 0.0
C3160 C 0.18174 0.89868 0.47713 0.0
C3161 C 0.17685 0.90356 0.46269 0.0
C3162 C 0.19455 0.92329 0.45489 0.0
C3163 C 0.21718 0.9384 0.46146 0.0
C3164 C 0.22213 0.93384 0.47586 0.0
C3165 C 0.2045 0.91411 0.4837 0.0
H3166 H 0.23086 0.95366 0.4554 0.0
H3167 H 0.05629 0.76252 0.53004 0.0
H3168 H 0.56417 0.75724 0.13613 0.0
H3169 H 0.58567 0.76822 0.15996 0.0
H3170 H 0.62777 0.84147 0.14561 0.0
H3171 H 0.60739 0.83038 0.12144 0.0
H3172 H 0.65635 0.8295 0.15877 0.0
H3173 H 0.57962 0.82253 0.17066 0.0
H3174 H 0.53484 0.80306 0.17173 0.0
H3175 H 0.53204 0.74648 0.19811 0.0
H3176 H 0.5768 0.76545 0.19703 0.0
H3177 H 0.66539 0.85466 0.24441 0.0
H3178 H 0.64395 0.84753 0.22062 0.0
H3179 H 0.6794 0.80967 0.2045 0.0
H3180 H 0.70085 0.8167 0.22825 0.0
H3181 H 0.61208 0.80746 0.20679 0.0
H3182 H 0.69012 0.81941 0.1676 0.0
H3183 H 0.735 0.84259 0.16664 0.0
H3184 H 0.73531 0.89633 0.19503 0.0
H3185 H 0.69044 0.87365 0.19599 0.0
C3186 C 0.57817 0.77564 0.13797 0.0
C3187 C 0.584 0.79292 0.12684 0.0
C3188 C 0.59024 0.78196 0.15169 0.0
C3189 C 0.60811 0.80575 0.15467 0.0
C3190 C 0.61398 0.82302 0.14359 0.0
C3191 C 0.6021 0.81668 0.12982 0.0
C3192 C 0.62107 0.81254 0.1692 0.0
C3193 C 0.64665 0.8247 0.16926 0.0
C3194 C 0.60847 0.80672 0.18292 0.0
C3195 C 0.58155 0.79532 0.18366 0.0
C3196 C 0.56944 0.80585 0.1766 0.0
C3197 C 0.54406 0.79492 0.17722 0.0
C3198 C 0.5306 0.77352 0.18495 0.0
C3199 C 0.54249 0.76304 0.19211 0.0
C3200 C 0.56787 0.77389 0.19152 0.0
C3201 C 0.66854 0.84472 0.23582 0.0
C3202 C 0.68488 0.8363 0.23819 0.0
C3203 C 0.65631 0.8407 0.22223 0.0
C3204 C 0.66025 0.82827 0.21074 0.0
C3205 C 0.67642 0.81969 0.21312 0.0
C3206 C 0.6887 0.82376 0.22668 0.0
C3207 C 0.64729 0.82402 0.19631 0.0
C3208 C 0.62174 0.81231 0.19629 0.0
C3209 C 0.65992 0.83078 0.18263 0.0
C3210 C 0.68692 0.84469 0.18198 0.0
C3211 C 0.69976 0.83622 0.17359 0.0
C3212 C 0.7252 0.84926 0.17305 0.0
C3213 C 0.738 0.87088 0.18081 0.0
C3214 C 0.72538 0.87954 0.18907 0.0
C3215 C 0.69995 0.86658 0.18963 0.0
H3216 H 0.7577 0.88094 0.18039 0.0
H3217 H 0.51095 0.76508 0.18542 0.0
H3218 H 0.25084 0.81567 0.12897 0.0
H3219 H 0.24128 0.82482 0.15369 0.0
H3220 H 0.166 0.79479 0.14067 0.0
H3221 H 0.17555 0.7863 0.11587 0.0
H3222 H 0.18124 0.83548 0.15579 0.0
H3223 H 0.1853 0.76356 0.16222 0.0
H3224 H 0.20451 0.73853 0.16099 0.0
H3225 H 0.26218 0.78774 0.18976 0.0
H3226 H 0.24347 0.81324 0.19099 0.0
H3227 H 0.12203 0.81436 0.22495 0.0
H3228 H 0.13652 0.80923 0.20084 0.0
H3229 H 0.20996 0.84283 0.21796 0.0
H3230 H 0.19564 0.84835 0.24215 0.0
H3231 H 0.1988 0.80312 0.20118 0.0
H3232 H 0.19341 0.8739 0.19583 0.0
H3233 H 0.1738 0.89855 0.19726 0.0
H3234 H 0.1185 0.85138 0.1665 0.0
H3235 H 0.13758 0.82623 0.16506 0.0
C3236 C 0.23231 0.81127 0.13133 0.0
C3237 C 0.21393 0.80011 0.12047 0.0
C3238 C 0.22682 0.8163 0.14551 0.0
C3239 C 0.20284 0.8102 0.14912 0.0
C3240 C 0.18461 0.79957 0.13818 0.0
C3241 C 0.19006 0.79455 0.12404 0.0
C3242 C 0.19656 0.8147 0.16428 0.0
C3243 C 0.18487 0.8282 0.16569 0.0
C3244 C 0.20188 0.80577 0.17728 0.0
C3245 C 0.21313 0.79045 0.17656 0.0
C3246 C 0.20219 0.76915 0.16818 0.0
C3247 C 0.21297 0.75485 0.1675 0.0
C3248 C 0.2346 0.76158 0.17525 0.0
C3249 C 0.24546 0.78258 0.18374 0.0
C3250 C 0.23477 0.79695 0.18443 0.0
C3251 C 0.14131 0.82087 0.22359 0.0
C3252 C 0.15769 0.832 0.23549 0.0
C3253 C 0.14956 0.81785 0.20979 0.0
C3254 C 0.17439 0.82596 0.20752 0.0
C3255 C 0.19073 0.83648 0.21946 0.0
C3256 C 0.18248 0.83954 0.23329 0.0
C3257 C 0.18316 0.82357 0.19263 0.0
C3258 C 0.19533 0.81053 0.19128 0.0
C3259 C 0.17828 0.8329 0.17967 0.0
C3260 C 0.16682 0.84806 0.18044 0.0
C3261 C 0.17696 0.86868 0.18946 0.0
C3262 C 0.16596 0.88276 0.19026 0.0
C3263 C 0.14489 0.8765 0.182 0.0
C3264 C 0.13481 0.85619 0.1729 0.0
C3265 C 0.14573 0.84202 0.17207 0.0
H3266 H 0.13639 0.88743 0.18263 0.0
H3267 H 0.24291 0.75048 0.17472 0.0
H3268 H 0.23227 0.40555 0.12048 0.0
H3269 H 0.22285 0.38759 0.14522 0.0
H3270 H 0.19623 0.43458 0.1584 0.0
H3271 H 0.20607 0.45302 0.1337 0.0
H3272 H 0.22385 0.42949 0.18083 0.0
H3273 H 0.15656 0.37836 0.14879 0.0
H3274 H 0.13732 0.35381 0.12641 0.0
H3275 H 0.16613 0.30821 0.13769 0.0
H3276 H 0.18584 0.3327 0.16004 0.0
H3277 H 0.15789 0.36283 0.24483 0.0
H3278 H 0.17136 0.38522 0.22152 0.0
H3279 H 0.18991 0.33393 0.20433 0.0
H3280 H 0.17593 0.31128 0.22742 0.0
H3281 H 0.16638 0.34227 0.18403 0.0
H3282 H 0.23364 0.39239 0.21598 0.0
H3283 H 0.25297 0.41622 0.23859 0.0
H3284 H 0.22537 0.46302 0.22794 0.0
H3285 H 0.20563 0.43932 0.20532 0.0
C3286 C 0.2247 0.41231 0.12867 0.0
C3287 C 0.21985 0.43071 0.12502 0.0
C3288 C 0.21917 0.4019 0.14282 0.0
C3289 C 0.20861 0.40956 0.15368 0.0
C3290 C 0.20433 0.42833 0.15023 0.0
C3291 C 0.20975 0.43869 0.13604 0.0
C3292 C 0.20115 0.39726 0.16838 0.0
C3293 C 0.21108 0.41047 0.18156 0.0
C3294 C 0.18485 0.37235 0.16938 0.0
C3295 C 0.17285 0.35749 0.15601 0.0
C3296 C 0.15894 0.3632 0.14644 0.0
C3297 C 0.14793 0.34928 0.13377 0.0
C3298 C 0.15055 0.3295 0.13061 0.0
C3299 C 0.16414 0.32356 0.14014 0.0
C3300 C 0.17521 0.33744 0.15282 0.0
C3301 C 0.16509 0.35649 0.23613 0.0
C3302 C 0.16566 0.33516 0.23795 0.0
C3303 C 0.17285 0.36934 0.22279 0.0
C3304 C 0.18185 0.36142 0.21109 0.0
C3305 C 0.18292 0.3404 0.21308 0.0
C3306 C 0.17491 0.32744 0.22631 0.0
C3307 C 0.18928 0.37436 0.19657 0.0
C3308 C 0.17924 0.36129 0.18338 0.0
C3309 C 0.20564 0.39932 0.19561 0.0
C3310 C 0.218 0.41397 0.209 0.0
C3311 C 0.2316 0.40771 0.21848 0.0
C3312 C 0.24262 0.42118 0.23131 0.0
C3313 C 0.24034 0.44108 0.23472 0.0
C3314 C 0.2271 0.44759 0.22528 0.0
C3315 C 0.21603 0.43417 0.21244 0.0
H3316 H 0.2489 0.4515 0.24464 0.0
H3317 H 0.14202 0.31874 0.12079 0.0
H3318 H 0.79887 0.54476 0.8795 0.0
H3319 H 0.80715 0.56056 0.85416 0.0
H3320 H 0.78641 0.61247 0.86652 0.0
H3321 H 0.77803 0.5967 0.89185 0.0
H3322 H 0.76861 0.59466 0.83962 0.0
H3323 H 0.84685 0.62712 0.86366 0.0
H3324 H 0.87945 0.62523 0.87755 0.0
H3325 H 0.88548 0.58312 0.84253 0.0
H3326 H 0.85266 0.58447 0.82853 0.0
H3327 H 0.83098 0.68414 0.78484 0.0
H3328 H 0.81679 0.66089 0.80776 0.0
H3329 H 0.82963 0.60691 0.78864 0.0
H3330 H 0.84354 0.63 0.76555 0.0
H3331 H 0.85023 0.62268 0.8177 0.0
H3332 H 0.77389 0.59253 0.79288 0.0
H3333 H 0.74202 0.59529 0.77877 0.0
H3334 H 0.73313 0.63388 0.8149 0.0
H3335 H 0.76513 0.63152 0.82921 0.0
C3336 C 0.79617 0.55961 0.87685 0.0
C3337 C 0.78789 0.56951 0.88779 0.0
C3338 C 0.80088 0.56863 0.86233 0.0
C3339 C 0.79773 0.58796 0.8584 0.0
C3340 C 0.78897 0.59753 0.86921 0.0
C3341 C 0.78414 0.58845 0.88371 0.0
C3342 C 0.80408 0.5986 0.84318 0.0
C3343 C 0.78653 0.60096 0.83491 0.0
C3344 C 0.82727 0.60636 0.83678 0.0
C3345 C 0.84713 0.60568 0.84512 0.0
C3346 C 0.85501 0.61731 0.85897 0.0
C3347 C 0.87354 0.61636 0.86686 0.0
C3348 C 0.88448 0.604 0.86094 0.0
C3349 C 0.87696 0.59264 0.84711 0.0
C3350 C 0.85841 0.59351 0.83919 0.0
C3351 C 0.8307 0.66727 0.78547 0.0
C3352 C 0.83871 0.65909 0.7734 0.0
C3353 C 0.82247 0.65394 0.79856 0.0
C3354 C 0.82222 0.63219 0.79995 0.0
C3355 C 0.82975 0.6237 0.78784 0.0
C3356 C 0.83762 0.63687 0.77462 0.0
C3357 C 0.81486 0.61889 0.81427 0.0
C3358 C 0.83223 0.61613 0.82238 0.0
C3359 C 0.79157 0.61082 0.82052 0.0
C3360 C 0.77207 0.61203 0.81207 0.0
C3361 C 0.76526 0.60176 0.79778 0.0
C3362 C 0.74716 0.60322 0.78975 0.0
C3363 C 0.73563 0.61485 0.7959 0.0
C3364 C 0.7421 0.62491 0.81014 0.0
C3365 C 0.76019 0.62347 0.81824 0.0
H3366 H 0.72165 0.61601 0.78965 0.0
H3367 H 0.89882 0.60328 0.86707 0.0
H3368 H 0.38928 0.22039 0.89095 0.0
H3369 H 0.36942 0.21116 0.86665 0.0
H3370 H 0.41271 0.18016 0.85266 0.0
H3371 H 0.43361 0.19046 0.87678 0.0
H3372 H 0.41042 0.20679 0.83114 0.0
H3373 H 0.35231 0.14491 0.86217 0.0
H3374 H 0.32614 0.12748 0.88414 0.0
H3375 H 0.28744 0.16425 0.87335 0.0
H3376 H 0.31362 0.18218 0.85143 0.0
H3377 H 0.33682 0.15176 0.76676 0.0
H3378 H 0.35755 0.1581 0.79072 0.0
H3379 H 0.32148 0.19521 0.80706 0.0
H3380 H 0.30094 0.18927 0.78306 0.0
H3381 H 0.32025 0.16297 0.82713 0.0
H3382 H 0.38043 0.226 0.79639 0.0
H3383 H 0.40688 0.24266 0.77444 0.0
H3384 H 0.44142 0.20168 0.78452 0.0
H3385 H 0.41497 0.18456 0.80645 0.0
C3386 C 0.39481 0.21185 0.88267 0.0
C3387 C 0.41308 0.20619 0.88584 0.0
C3388 C 0.3832 0.2063 0.86882 0.0
C3389 C 0.38928 0.19461 0.8579 0.0
C3390 C 0.40762 0.18906 0.86095 0.0
C3391 C 0.41939 0.19476 0.8748 0.0
C3392 C 0.37667 0.18854 0.84323 0.0
C3393 C 0.39071 0.19685 0.83025 0.0
C3394 C 0.35093 0.17587 0.84207 0.0
C3395 C 0.33508 0.16505 0.85522 0.0
C3396 C 0.33834 0.14942 0.86454 0.0
C3397 C 0.32348 0.13943 0.87698 0.0
C3398 C 0.30517 0.1448 0.88016 0.0
C3399 C 0.30165 0.16013 0.87088 0.0
C3400 C 0.31647 0.17019 0.85844 0.0
C3401 C 0.33345 0.16147 0.7754 0.0
C3402 C 0.31728 0.17011 0.77296 0.0
C3403 C 0.34528 0.16502 0.7891 0.0
C3404 C 0.34123 0.17733 0.80061 0.0
C3405 C 0.32483 0.18563 0.79832 0.0
C3406 C 0.31303 0.18213 0.78461 0.0
C3407 C 0.35399 0.18151 0.8151 0.0
C3408 C 0.33996 0.17278 0.82804 0.0
C3409 C 0.37972 0.1936 0.8162 0.0
C3410 C 0.39557 0.20384 0.80299 0.0
C3411 C 0.39352 0.22039 0.79386 0.0
C3412 C 0.40854 0.22994 0.78143 0.0
C3413 C 0.4258 0.22321 0.77809 0.0
C3414 C 0.42804 0.20688 0.78713 0.0
C3415 C 0.41307 0.19726 0.79957 0.0
H3416 H 0.43751 0.23075 0.76853 0.0
H3417 H 0.29369 0.13704 0.88979 0.0
H3418 H 0.77202 0.16544 0.89027 0.0
H3419 H 0.78233 0.15742 0.86547 0.0
H3420 H 0.80601 0.23003 0.85266 0.0
H3421 H 0.7957 0.23816 0.87737 0.0
H3422 H 0.76811 0.15918 0.83723 0.0
H3423 H 0.85657 0.2503 0.83129 0.0
H3424 H 0.88761 0.28195 0.84739 0.0
H3425 H 0.87286 0.2306 0.88182 0.0
H3426 H 0.84202 0.19861 0.86585 0.0
H3427 H 0.81013 0.16616 0.76344 0.0
H3428 H 0.7975 0.17558 0.78684 0.0
H3429 H 0.85823 0.17651 0.80924 0.0
H3430 H 0.87232 0.16939 0.78567 0.0
H3431 H 0.8533 0.20989 0.82016 0.0
H3432 H 0.79606 0.12669 0.80977 0.0
H3433 H 0.76611 0.09361 0.79401 0.0
H3434 H 0.72008 0.12476 0.79382 0.0
H3435 H 0.74989 0.15817 0.80944 0.0
C3436 C 0.7791 0.17961 0.88211 0.0
C3437 C 0.78325 0.20252 0.88586 0.0
C3438 C 0.78501 0.175 0.86794 0.0
C3439 C 0.79524 0.19319 0.85726 0.0
C3440 C 0.79854 0.21581 0.86079 0.0
C3441 C 0.79271 0.22046 0.87495 0.0
C3442 C 0.8035 0.18887 0.84268 0.0
C3443 C 0.78673 0.17026 0.83348 0.0
C3444 C 0.82786 0.20311 0.83785 0.0
C3445 C 0.84681 0.22212 0.84742 0.0
C3446 C 0.86004 0.24575 0.84227 0.0
C3447 C 0.87759 0.26375 0.85138 0.0
C3448 C 0.88214 0.2583 0.86564 0.0
C3449 C 0.86926 0.23481 0.87079 0.0
C3450 C 0.85173 0.21675 0.86172 0.0
C3451 C 0.82116 0.16882 0.77323 0.0
C3452 C 0.84223 0.16674 0.77252 0.0
C3453 C 0.81362 0.17384 0.78673 0.0
C3454 C 0.82652 0.1762 0.79996 0.0
C3455 C 0.84779 0.1746 0.79925 0.0
C3456 C 0.85565 0.17014 0.78572 0.0
C3457 C 0.81793 0.18016 0.81458 0.0
C3458 C 0.83465 0.19878 0.82383 0.0
C3459 C 0.79365 0.16557 0.81957 0.0
C3460 C 0.77528 0.14501 0.81068 0.0
C3461 C 0.77956 0.12649 0.80635 0.0
C3462 C 0.76262 0.1077 0.79743 0.0
C3463 C 0.74124 0.10712 0.79288 0.0
C3464 C 0.73666 0.12524 0.79734 0.0
C3465 C 0.75355 0.14409 0.80625 0.0
H3466 H 0.7282 0.09262 0.78592 0.0
H3467 H 0.89568 0.27227 0.87269 0.0
H3468 H 0.28371 0.11616 0.45358 0.0
H3469 H 0.30206 0.12433 0.47836 0.0
H3470 H 0.2533 0.1487 0.49287 0.0
H3471 H 0.23462 0.14036 0.46804 0.0
H3472 H 0.30012 0.17799 0.50274 0.0
H3473 H 0.24195 0.09442 0.50262 0.0
H3474 H 0.22152 0.05312 0.49293 0.0
H3475 H 0.28836 0.05179 0.49669 0.0
H3476 H 0.30931 0.09323 0.50619 0.0
H3477 H 0.32793 0.17682 0.57948 0.0
H3478 H 0.30675 0.16984 0.55569 0.0
H3479 H 0.3484 0.13929 0.53793 0.0
H3480 H 0.36866 0.14493 0.56194 0.0
H3481 H 0.30233 0.11277 0.53041 0.0
H3482 H 0.36098 0.19728 0.52922 0.0
H3483 H 0.38125 0.23854 0.53899 0.0
H3484 H 0.3132 0.23792 0.53796 0.0
H3485 H 0.29248 0.19655 0.52832 0.0
C3486 C 0.27674 0.12308 0.46207 0.0
C3487 C 0.25751 0.12735 0.4589 0.0
C3488 C 0.2873 0.12781 0.4762 0.0
C3489 C 0.27879 0.13679 0.4875 0.0
C3490 C 0.26008 0.14172 0.4843 0.0
C3491 C 0.24947 0.13699 0.47012 0.0
C3492 C 0.28932 0.14065 0.50268 0.0
C3493 C 0.30031 0.16368 0.5089 0.0
C3494 C 0.28983 0.12202 0.5106 0.0
C3495 C 0.27725 0.09701 0.505 0.0
C3496 C 0.25234 0.08539 0.50128 0.0
C3497 C 0.24066 0.06194 0.49583 0.0
C3498 C 0.25365 0.04986 0.49417 0.0
C3499 C 0.27833 0.06118 0.49797 0.0
C3500 C 0.29011 0.08464 0.5034 0.0
C3501 C 0.33244 0.16839 0.57057 0.0
C3502 C 0.35003 0.16143 0.57265 0.0
C3503 C 0.3205 0.16468 0.5569 0.0
C3504 C 0.3262 0.15432 0.54495 0.0
C3505 C 0.34376 0.14739 0.54698 0.0
C3506 C 0.35553 0.15088 0.56068 0.0
C3507 C 0.31363 0.15025 0.53038 0.0
C3508 C 0.30213 0.12711 0.52428 0.0
C3509 C 0.31265 0.16878 0.5226 0.0
C3510 C 0.32516 0.19376 0.52817 0.0
C3511 C 0.35033 0.20591 0.53115 0.0
C3512 C 0.36189 0.22932 0.53665 0.0
C3513 C 0.34851 0.24082 0.53913 0.0
C3514 C 0.32354 0.22898 0.53605 0.0
C3515 C 0.31188 0.20556 0.53055 0.0
H3516 H 0.35749 0.25894 0.54341 0.0
H3517 H 0.24457 0.03171 0.48995 0.0
H3518 H 0.84518 0.11848 0.45213 0.0
H3519 H 0.83574 0.12811 0.47658 0.0
H3520 H 0.91139 0.16051 0.48928 0.0
H3521 H 0.92085 0.14999 0.46495 0.0
H3522 H 0.88306 0.13418 0.51155 0.0
H3523 H 0.88592 0.19488 0.48024 0.0
H3524 H 0.8763 0.2115 0.4583 0.0
H3525 H 0.80059 0.17426 0.47009 0.0
H3526 H 0.8097 0.15713 0.492 0.0
H3527 H 0.86466 0.18728 0.57688 0.0
H3528 H 0.87932 0.18095 0.55306 0.0
H3529 H 0.80604 0.14674 0.53555 0.0
H3530 H 0.79139 0.1532 0.55926 0.0
H3531 H 0.83683 0.17719 0.51591 0.0
H3532 H 0.83475 0.11483 0.54676 0.0
H3533 H 0.84551 0.0994 0.56884 0.0
H3534 H 0.92138 0.14172 0.55806 0.0
H3535 H 0.91109 0.15762 0.536 0.0
C3536 C 0.85982 0.12744 0.46014 0.0
C3537 C 0.88381 0.13343 0.45652 0.0
C3538 C 0.85443 0.1332 0.4741 0.0
C3539 C 0.87289 0.14536 0.48475 0.0
C3540 C 0.89683 0.15123 0.48124 0.0
C3541 C 0.90225 0.14539 0.46727 0.0
C3542 C 0.86702 0.15173 0.49953 0.0
C3543 C 0.87328 0.14391 0.5125 0.0
C3544 C 0.85404 0.16422 0.50084 0.0
C3545 C 0.84848 0.17457 0.4877 0.0
C3546 C 0.86719 0.19009 0.4781 0.0
C3547 C 0.86183 0.19963 0.46567 0.0
C3548 C 0.83784 0.1939 0.46279 0.0
C3549 C 0.81916 0.17867 0.47234 0.0
C3550 C 0.82442 0.16906 0.48477 0.0
C3551 C 0.85166 0.17823 0.56799 0.0
C3552 C 0.82686 0.17078 0.56998 0.0
C3553 C 0.86006 0.17461 0.55437 0.0
C3554 C 0.84377 0.16316 0.5425 0.0
C3555 C 0.81901 0.15569 0.54449 0.0
C3556 C 0.81065 0.15944 0.55806 0.0
C3557 C 0.85235 0.15917 0.52791 0.0
C3558 C 0.84669 0.16754 0.51496 0.0
C3559 C 0.86602 0.14735 0.52665 0.0
C3560 C 0.87216 0.13757 0.53981 0.0
C3561 C 0.85373 0.12095 0.54915 0.0
C3562 C 0.85975 0.1121 0.56165 0.0
C3563 C 0.88411 0.11962 0.56486 0.0
C3564 C 0.90252 0.13594 0.55556 0.0
C3565 C 0.89661 0.14485 0.54305 0.0
H3566 H 0.88874 0.11274 0.57452 0.0
H3567 H 0.83373 0.2013 0.45316 0.0
H3568 H 0.89142 0.73037 0.45026 0.0
H3569 H 0.88258 0.71359 0.4754 0.0
H3570 H 0.86331 0.76607 0.48891 0.0
H3571 H 0.87209 0.78292 0.46375 0.0
H3572 H 0.89277 0.75872 0.51028 0.0
H3573 H 0.81928 0.71308 0.48151 0.0
H3574 H 0.79522 0.68876 0.46006 0.0
H3575 H 0.81548 0.63609 0.47011 0.0
H3576 H 0.83997 0.6603 0.4915 0.0
H3577 H 0.82904 0.70137 0.57717 0.0
H3578 H 0.84259 0.72205 0.55328 0.0
H3579 H 0.84881 0.66312 0.53568 0.0
H3580 H 0.83493 0.64233 0.55939 0.0
H3581 H 0.82649 0.6748 0.51634 0.0
H3582 H 0.89889 0.71859 0.54531 0.0
H3583 H 0.92351 0.74219 0.56678 0.0
H3584 H 0.90774 0.79785 0.55636 0.0
H3585 H 0.8824 0.77427 0.53506 0.0
C3586 C 0.88553 0.73849 0.45862 0.0
C3587 C 0.88236 0.75793 0.45497 0.0
C3588 C 0.8804 0.72883 0.47297 0.0
C3589 C 0.87218 0.7385 0.48405 0.0
C3590 C 0.86964 0.75832 0.48057 0.0
C3591 C 0.87448 0.76781 0.46615 0.0
C3592 C 0.86524 0.72726 0.49904 0.0
C3593 C 0.8781 0.74047 0.51167 0.0
C3594 C 0.84649 0.70326 0.50081 0.0
C3595 C 0.83165 0.68862 0.48801 0.0
C3596 C 0.81877 0.69641 0.47907 0.0
C3597 C 0.80502 0.68263 0.46694 0.0
C3598 C 0.80387 0.66093 0.4637 0.0
C3599 C 0.81642 0.65293 0.47262 0.0
C3600 C 0.83022 0.66666 0.48475 0.0
C3601 C 0.83362 0.693 0.56826 0.0
C3602 C 0.83078 0.67014 0.57018 0.0
C3603 C 0.84139 0.70484 0.55458 0.0
C3604 C 0.84688 0.69426 0.5426 0.0
C3605 C 0.84456 0.67167 0.54465 0.0
C3606 C 0.83661 0.65977 0.55824 0.0
C3607 C 0.85411 0.70613 0.52773 0.0
C3608 C 0.84124 0.69305 0.51506 0.0
C3609 C 0.87304 0.73015 0.52596 0.0
C3610 C 0.8885 0.74452 0.53867 0.0
C3611 C 0.90049 0.73577 0.54766 0.0
C3612 C 0.91461 0.74916 0.5598 0.0
C3613 C 0.91721 0.77151 0.56294 0.0
C3614 C 0.90569 0.78052 0.55393 0.0
C3615 C 0.89141 0.76713 0.54183 0.0
H3616 H 0.92815 0.78185 0.57234 0.0
H3617 H 0.79322 0.65028 0.4543 0.0
loop_
_geom_bond_atom_site_label_1
_geom_bond_atom_site_label_2
_geom_bond_distance
_geom_bond_site_symmetry_2
_ccdc_geom_bond_type
H0 C3 0.931 . S
H1 C6 0.928 . S
H2 C8 0.930 . S
C3 H0 0.931 . S
C3 C4 1.413 . S
C3 C5 1.360 . S
C4 C3 1.413 . S
C4 C8 1.429 . S
C5 C3 1.360 . S
C5 C6 1.372 . S
C6 H1 0.928 . S
C6 C5 1.372 . S
C6 C7 1.404 . S
C7 C6 1.404 . S
C7 C8 1.391 . S
C8 H2 0.930 . S
C8 C4 1.429 . S
C8 C7 1.391 . S
H9 C12 0.931 . S
H10 C15 0.928 . S
H11 C17 0.930 . S
C12 H9 0.931 . S
C12 C13 1.413 . S
C12 C14 1.360 . S
C13 C12 1.413 . S
C13 C17 1.429 . S
C14 C12 1.360 . S
C14 C15 1.372 . S
C15 H10 0.928 . S
C15 C14 1.372 . S
C15 C16 1.404 . S
C16 C15 1.404 . S
C16 C17 1.391 . S
C17 H11 0.930 . S
C17 C13 1.429 . S
C17 C16 1.391 . S
H18 C21 0.931 . S
H19 C24 0.928 . S
H20 C26 0.930 . S
C21 H18 0.931 . S
C21 C22 1.413 . S
C21 C23 1.360 . S
C22 C21 1.413 . S
C22 C26 1.429 . S
C23 C21 1.360 . S
C23 C24 1.372 . S
C24 H19 0.928 . S
C24 C23 1.372 . S
C24 C25 1.404 . S
C25 C24 1.404 . S
C25 C26 1.391 . S
C26 H20 0.930 . S
C26 C22 1.429 . S
C26 C25 1.391 . S
H27 C30 0.931 . S
H28 C33 0.928 . S
H29 C35 0.930 . S
C30 H27 0.931 . S
C30 C31 1.413 . S
C30 C32 1.360 . S
C31 C30 1.413 . S
C31 C35 1.429 . S
C32 C30 1.360 . S
C32 C33 1.372 . S
C33 H28 0.928 . S
C33 C32 1.372 . S
C33 C34 1.404 . S
C34 C33 1.404 . S
C34 C35 1.391 . S
C35 H29 0.930 . S
C35 C31 1.429 . S
C35 C34 1.391 . S
H36 C39 0.931 . S
H37 C42 0.928 . S
H38 C44 0.930 . S
C39 H36 0.931 . S
C39 C40 1.413 . S
C39 C41 1.360 . S
C40 C39 1.413 . S
C40 C44 1.429 . S
C41 C39 1.360 . S
C41 C42 1.372 . S
C42 H37 0.928 . S
C42 C41 1.372 . S
C42 C43 1.404 . S
C43 C42 1.404 . S
C43 C44 1.391 . S
C44 H38 0.930 . S
C44 C40 1.429 . S
C44 C43 1.391 . S
H45 C48 0.931 . S
H46 C51 0.928 . S
H47 C53 0.930 . S
C48 H45 0.931 . S
C48 C49 1.413 . S
C48 C50 1.360 . S
C49 C48 1.413 . S
C49 C53 1.429 . S
C50 C48 1.360 . S
C50 C51 1.372 . S
C51 H46 0.928 . S
C51 C50 1.372 . S
C51 C52 1.404 . S
C52 C51 1.404 . S
C52 C53 1.391 . S
C53 H47 0.930 . S
C53 C49 1.429 . S
C53 C52 1.391 . S
H54 C57 0.931 . S
H55 C60 0.928 . S
H56 C62 0.930 . S
C57 H54 0.931 . S
C57 C58 1.413 . S
C57 C59 1.360 . S
C58 C57 1.413 . S
C58 C62 1.429 . S
C59 C57 1.360 . S
C59 C60 1.372 . S
C60 H55 0.928 . S
C60 C59 1.372 . S
C60 C61 1.404 . S
C61 C60 1.404 . S
C61 C62 1.391 . S
C62 H56 0.930 . S
C62 C58 1.429 . S
C62 C61 1.391 . S
H63 C66 0.931 . S
H64 C69 0.928 . S
H65 C71 0.930 . S
C66 H63 0.931 . S
C66 C67 1.413 . S
C66 C68 1.360 . S
C67 C66 1.413 . S
C67 C71 1.429 . S
C68 C66 1.360 . S
C68 C69 1.372 . S
C69 H64 0.928 . S
C69 C68 1.372 . S
C69 C70 1.404 . S
C70 C69 1.404 . S
C70 C71 1.391 . S
C71 H65 0.930 . S
C71 C67 1.429 . S
C71 C70 1.391 . S
H72 C75 0.931 . S
H73 C78 0.928 . S
H74 C80 0.930 . S
C75 H72 0.931 . S
C75 C76 1.413 . S
C75 C77 1.360 . S
C76 C75 1.413 . S
C76 C80 1.429 . S
C77 C75 1.360 . S
C77 C78 1.372 . S
C78 H73 0.928 . S
C78 C77 1.372 . S
C78 C79 1.404 . S
C79 C78 1.404 . S
C79 C80 1.391 . S
C80 H74 0.930 . S
C80 C76 1.429 . S
C80 C79 1.391 . S
H81 C84 0.931 . S
H82 C87 0.928 . S
H83 C89 0.930 . S
C84 H81 0.931 . S
C84 C85 1.413 . S
C84 C86 1.360 . S
C85 C84 1.413 . S
C85 C89 1.429 . S
C86 C84 1.360 . S
C86 C87 1.372 . S
C87 H82 0.928 . S
C87 C86 1.372 . S
C87 C88 1.404 . S
C88 C87 1.404 . S
C88 C89 1.391 . S
C89 H83 0.930 . S
C89 C85 1.429 . S
C89 C88 1.391 . S
H90 C93 0.931 . S
H91 C96 0.928 . S
H92 C98 0.930 . S
C93 H90 0.931 . S
C93 C94 1.413 . S
C93 C95 1.360 . S
C94 C93 1.413 . S
C94 C98 1.429 . S
C95 C93 1.360 . S
C95 C96 1.372 . S
C96 H91 0.928 . S
C96 C95 1.372 . S
C96 C97 1.404 . S
C97 C96 1.404 . S
C97 C98 1.391 . S
C98 H92 0.930 . S
C98 C94 1.429 . S
C98 C97 1.391 . S
H99 C102 0.931 . S
H100 C105 0.928 . S
H101 C107 0.930 . S
C102 H99 0.931 . S
C102 C103 1.413 . S
C102 C104 1.360 . S
C103 C102 1.413 . S
C103 C107 1.429 . S
C104 C102 1.360 . S
C104 C105 1.372 . S
C105 H100 0.928 . S
C105 C104 1.372 . S
C105 C106 1.404 . S
C106 C105 1.404 . S
C106 C107 1.391 . S
C107 H101 0.930 . S
C107 C103 1.429 . S
C107 C106 1.391 . S
H108 C111 0.931 . S
H109 C114 0.928 . S
H110 C116 0.930 . S
C111 H108 0.931 . S
C111 C112 1.413 . S
C111 C113 1.360 . S
C112 C111 1.413 . S
C112 C116 1.429 . S
C113 C111 1.360 . S
C113 C114 1.372 . S
C114 H109 0.928 . S
C114 C113 1.372 . S
C114 C115 1.404 . S
C115 C114 1.404 . S
C115 C116 1.391 . S
C116 H110 0.930 . S
C116 C112 1.429 . S
C116 C115 1.391 . S
H117 C120 0.931 . S
H118 C123 0.928 . S
H119 C125 0.930 . S
C120 H117 0.931 . S
C120 C121 1.413 . S
C120 C122 1.360 . S
C121 C120 1.413 . S
C121 C125 1.429 . S
C122 C120 1.360 . S
C122 C123 1.372 . S
C123 H118 0.928 . S
C123 C122 1.372 . S
C123 C124 1.404 . S
C124 C123 1.404 . S
C124 C125 1.391 . S
C125 H119 0.930 . S
C125 C121 1.429 . S
C125 C124 1.391 . S
H126 C129 0.931 . S
H127 C132 0.928 . S
H128 C134 0.930 . S
C129 H126 0.931 . S
C129 C130 1.413 . S
C129 C131 1.360 . S
C130 C129 1.413 . S
C130 C134 1.429 . S
C131 C129 1.360 . S
C131 C132 1.372 . S
C132 H127 0.928 . S
C132 C131 1.372 . S
C132 C133 1.404 . S
C133 C132 1.404 . S
C133 C134 1.391 . S
C134 H128 0.930 . S
C134 C130 1.429 . S
C134 C133 1.391 . S
H135 C138 0.931 . S
H136 C141 0.928 . S
H137 C143 0.930 . S
C138 H135 0.931 . S
C138 C139 1.413 . S
C138 C140 1.360 . S
C139 C138 1.413 . S
C139 C143 1.429 . S
C140 C138 1.360 . S
C140 C141 1.372 . S
C141 H136 0.928 . S
C141 C140 1.372 . S
C141 C142 1.404 . S
C142 C141 1.404 . S
C142 C143 1.391 . S
C143 H137 0.930 . S
C143 C139 1.429 . S
C143 C142 1.391 . S
H144 C147 0.931 . S
H145 C150 0.928 . S
H146 C152 0.930 . S
C147 H144 0.931 . S
C147 C148 1.413 . S
C147 C149 1.360 . S
C148 C147 1.413 . S
C148 C152 1.429 . S
C149 C147 1.360 . S
C149 C150 1.372 . S
C150 H145 0.928 . S
C150 C149 1.372 . S
C150 C151 1.404 . S
C151 C150 1.404 . S
C151 C152 1.391 . S
C152 H146 0.930 . S
C152 C148 1.429 . S
C152 C151 1.391 . S
H153 C156 0.931 . S
H154 C159 0.928 . S
H155 C161 0.930 . S
C156 H153 0.931 . S
C156 C157 1.413 . S
C156 C158 1.360 . S
C157 C156 1.413 . S
C157 C161 1.429 . S
C158 C156 1.360 . S
C158 C159 1.372 . S
C159 H154 0.928 . S
C159 C158 1.372 . S
C159 C160 1.404 . S
C160 C159 1.404 . S
C160 C161 1.391 . S
C161 H155 0.930 . S
C161 C157 1.429 . S
C161 C160 1.391 . S
Gd162 N193 2.661 . S
Gd162 N199 2.601 . S
Gd162 O206 2.545 . S
Gd162 O207 2.606 1_545 S
Gd162 O209 2.429 . S
Gd162 O210 2.545 1_545 S
Gd162 O211 2.412 . S
Gd162 O213 2.362 1_554 S
Gd162 O214 2.324 1_545 S
Gd162 C221 2.828 . S
Gd163 N172 2.661 . S
Gd163 N176 2.601 . S
Gd163 O207 2.362 1_556 S
Gd163 O208 2.324 1_565 S
Gd163 O212 2.545 . S
Gd163 O213 2.606 1_565 S
Gd163 O215 2.429 . S
Gd163 O216 2.545 1_565 S
Gd163 O217 2.412 . S
Gd163 C230 2.828 . S
C164 C167 1.417 . S
C164 C169 1.431 . S
C164 C170 1.412 . S
C165 C168 1.437 . S
C165 C169 1.317 . S
C165 H184 0.929 . S
C166 C167 1.426 . S
C166 C168 1.413 . S
C166 N176 1.359 . S
C167 C164 1.417 . S
C167 C166 1.426 . S
C167 N172 1.350 . S
C168 C165 1.437 . S
C168 C166 1.413 . S
C168 C178 1.391 . S
C169 C164 1.431 . S
C169 C165 1.317 . S
C169 H180 0.930 . S
C170 C164 1.412 . S
C170 C171 1.355 . S
C170 H182 0.930 . S
C171 C170 1.355 . S
C171 C173 1.402 . S
C171 H183 0.930 . S
N172 Gd163 2.661 . S
N172 C167 1.350 . S
N172 C173 1.307 . S
C173 C171 1.402 . S
C173 N172 1.307 . S
C173 H174 0.930 . S
H174 C173 0.930 . S
C175 N176 1.334 . S
C175 C177 1.394 . S
C175 H179 0.930 . S
N176 Gd163 2.601 . S
N176 C166 1.359 . S
N176 C175 1.334 . S
C177 C175 1.394 . S
C177 C178 1.359 . S
C177 H189 0.930 . S
C178 C168 1.391 . S
C178 C177 1.359 . S
C178 H190 0.929 . S
H179 C175 0.930 . S
H180 C169 0.930 . S
H181 C198 0.930 . S
H182 C170 0.930 . S
H183 C171 0.930 . S
H184 C165 0.929 . S
H185 C203 0.930 . S
H186 C194 0.930 . S
H187 C195 0.930 . S
H188 C219 0.929 . S
H189 C177 0.930 . S
H190 C178 0.929 . S
H191 C220 0.930 . S
H192 C201 0.930 . S
N193 Gd162 2.661 . S
N193 C197 1.350 . S
N193 C198 1.307 . S
C194 H186 0.930 . S
C194 C195 1.355 . S
C194 C196 1.412 . S
C195 H187 0.930 . S
C195 C194 1.355 . S
C195 C198 1.402 . S
C196 C194 1.412 . S
C196 C197 1.417 . S
C196 C220 1.431 . S
C197 N193 1.350 . S
C197 C196 1.417 . S
C197 C200 1.426 . S
C198 H181 0.930 . S
C198 N193 1.307 . S
C198 C195 1.402 . S
N199 Gd162 2.601 . S
N199 C200 1.359 . S
N199 C203 1.334 . S
C200 C197 1.426 . S
C200 N199 1.359 . S
C200 C204 1.413 . S
C201 H192 0.930 . S
C201 C202 1.359 . S
C201 C203 1.394 . S
C202 C201 1.359 . S
C202 C204 1.391 . S
C202 H205 0.929 . S
C203 H185 0.930 . S
C203 N199 1.334 . S
C203 C201 1.394 . S
C204 C200 1.413 . S
C204 C202 1.391 . S
C204 C219 1.437 . S
H205 C202 0.929 . S
O206 Gd162 2.545 . S
O206 C221 1.258 . S
O207 Gd162 2.606 1_565 S
O207 Gd163 2.362 1_554 S
O207 C218 1.284 . S
O208 Gd163 2.324 1_545 S
O208 C228 1.254 . S
O209 Gd162 2.429 . S
O209 C228 1.268 1_554 S
O210 Gd162 2.545 1_565 S
O210 C218 1.250 . S
O211 Gd162 2.412 . S
O211 C221 1.252 . S
O212 Gd163 2.545 . S
O212 C230 1.258 . S
O213 Gd162 2.362 1_556 S
O213 Gd163 2.606 1_545 S
O213 C229 1.284 . S
O214 Gd162 2.324 1_565 S
O214 C237 1.254 . S
O215 Gd163 2.429 . S
O215 C237 1.268 1_556 S
O216 Gd163 2.545 1_545 S
O216 C229 1.250 . S
O217 Gd163 2.412 . S
O217 C230 1.252 . S
C218 O207 1.284 . S
C218 O210 1.250 . S
C219 H188 0.929 . S
C219 C204 1.437 . S
C219 C220 1.317 . S
C220 H191 0.930 . S
C220 C196 1.431 . S
C220 C219 1.317 . S
C221 Gd162 2.828 . S
C221 O206 1.258 . S
C221 O211 1.252 . S
C221 C222 1.497 . S
C222 C221 1.497 . S
C222 C223 1.395 . S
C222 C224 1.380 1_545 S
C223 C222 1.395 . S
C223 C226 1.398 . S
C223 H238 0.930 . S
C224 C222 1.380 1_565 S
C224 C225 1.391 . S
C224 H239 0.930 . S
C225 C224 1.391 . S
C225 C227 1.387 1_565 S
C226 C223 1.398 . S
C226 C227 1.380 . S
C226 H240 0.930 . S
C227 C225 1.387 1_545 S
C227 C226 1.380 . S
C227 H241 0.930 . S
C228 O208 1.254 . S
C228 O209 1.268 1_556 S
C229 O213 1.284 . S
C229 O216 1.250 . S
C230 Gd163 2.828 . S
C230 O212 1.258 . S
C230 O217 1.252 . S
C230 C231 1.497 . S
C231 C230 1.497 . S
C231 C232 1.395 . S
C231 C233 1.380 1_565 S
C232 C231 1.395 . S
C232 C235 1.398 . S
C232 H242 0.930 . S
C233 C231 1.380 1_545 S
C233 C234 1.391 . S
C233 H243 0.930 . S
C234 C233 1.391 . S
C234 C236 1.387 1_545 S
C235 C232 1.398 . S
C235 C236 1.380 . S
C235 H244 0.930 . S
C236 C234 1.387 1_565 S
C236 C235 1.380 . S
C236 H245 0.930 . S
C237 O214 1.254 . S
C237 O215 1.268 1_554 S
H238 C223 0.930 . S
H239 C224 0.930 . S
H240 C226 0.930 . S
H241 C227 0.930 . S
H242 C232 0.930 . S
H243 C233 0.930 . S
H244 C235 0.930 . S
H245 C236 0.930 . S
Gd246 N277 2.661 . S
Gd246 N283 2.601 . S
Gd246 O290 2.545 . S
Gd246 O291 2.606 1_655 S
Gd246 O293 2.429 . S
Gd246 O294 2.545 1_655 S
Gd246 O295 2.412 . S
Gd246 O297 2.362 1_554 S
Gd246 O298 2.324 1_655 S
Gd246 C305 2.828 . S
Gd247 N256 2.661 . S
Gd247 N260 2.601 . S
Gd247 O291 2.362 1_556 S
Gd247 O292 2.324 1_455 S
Gd247 O296 2.545 . S
Gd247 O297 2.606 1_455 S
Gd247 O299 2.429 . S
Gd247 O300 2.545 1_455 S
Gd247 O301 2.412 . S
Gd247 C314 2.828 . S
C248 C251 1.417 . S
C248 C253 1.431 . S
C248 C254 1.412 . S
C249 C252 1.437 . S
C249 C253 1.317 . S
C249 H268 0.929 . S
C250 C251 1.426 . S
C250 C252 1.413 . S
C250 N260 1.359 . S
C251 C248 1.417 . S
C251 C250 1.426 . S
C251 N256 1.350 . S
C252 C249 1.437 . S
C252 C250 1.413 . S
C252 C262 1.391 . S
C253 C248 1.431 . S
C253 C249 1.317 . S
C253 H264 0.930 . S
C254 C248 1.412 . S
C254 C255 1.355 . S
C254 H266 0.930 . S
C255 C254 1.355 . S
C255 C257 1.402 . S
C255 H267 0.930 . S
N256 Gd247 2.661 . S
N256 C251 1.350 . S
N256 C257 1.307 . S
C257 C255 1.402 . S
C257 N256 1.307 . S
C257 H258 0.930 . S
H258 C257 0.930 . S
C259 N260 1.334 . S
C259 C261 1.394 . S
C259 H263 0.930 . S
N260 Gd247 2.601 . S
N260 C250 1.359 . S
N260 C259 1.334 . S
C261 C259 1.394 . S
C261 C262 1.359 . S
C261 H273 0.930 . S
C262 C252 1.391 . S
C262 C261 1.359 . S
C262 H274 0.929 . S
H263 C259 0.930 . S
H264 C253 0.930 . S
H265 C282 0.930 . S
H266 C254 0.930 . S
H267 C255 0.930 . S
H268 C249 0.929 . S
H269 C287 0.930 . S
H270 C278 0.930 . S
H271 C279 0.930 . S
H272 C303 0.929 . S
H273 C261 0.930 . S
H274 C262 0.929 . S
H275 C304 0.930 . S
H276 C285 0.930 . S
N277 Gd246 2.661 . S
N277 C281 1.350 . S
N277 C282 1.307 . S
C278 H270 0.930 . S
C278 C279 1.355 . S
C278 C280 1.412 . S
C279 H271 0.930 . S
C279 C278 1.355 . S
C279 C282 1.402 . S
C280 C278 1.412 . S
C280 C281 1.417 . S
C280 C304 1.431 . S
C281 N277 1.350 . S
C281 C280 1.417 . S
C281 C284 1.426 . S
C282 H265 0.930 . S
C282 N277 1.307 . S
C282 C279 1.402 . S
N283 Gd246 2.601 . S
N283 C284 1.359 . S
N283 C287 1.334 . S
C284 C281 1.426 . S
C284 N283 1.359 . S
C284 C288 1.413 . S
C285 H276 0.930 . S
C285 C286 1.359 . S
C285 C287 1.394 . S
C286 C285 1.359 . S
C286 C288 1.391 . S
C286 H289 0.929 . S
C287 H269 0.930 . S
C287 N283 1.334 . S
C287 C285 1.394 . S
C288 C284 1.413 . S
C288 C286 1.391 . S
C288 C303 1.437 . S
H289 C286 0.929 . S
O290 Gd246 2.545 . S
O290 C305 1.258 . S
O291 Gd246 2.606 1_455 S
O291 Gd247 2.362 1_554 S
O291 C302 1.284 . S
O292 Gd247 2.324 1_655 S
O292 C312 1.254 . S
O293 Gd246 2.429 . S
O293 C312 1.268 1_554 S
O294 Gd246 2.545 1_455 S
O294 C302 1.250 . S
O295 Gd246 2.412 . S
O295 C305 1.252 . S
O296 Gd247 2.545 . S
O296 C314 1.258 . S
O297 Gd246 2.362 1_556 S
O297 Gd247 2.606 1_655 S
O297 C313 1.284 . S
O298 Gd246 2.324 1_455 S
O298 C321 1.254 . S
O299 Gd247 2.429 . S
O299 C321 1.268 1_556 S
O300 Gd247 2.545 1_655 S
O300 C313 1.250 . S
O301 Gd247 2.412 . S
O301 C314 1.252 . S
C302 O291 1.284 . S
C302 O294 1.250 . S
C303 H272 0.929 . S
C303 C288 1.437 . S
C303 C304 1.317 . S
C304 H275 0.930 . S
C304 C280 1.431 . S
C304 C303 1.317 . S
C305 Gd246 2.828 . S
C305 O290 1.258 . S
C305 O295 1.252 . S
C305 C306 1.497 . S
C306 C305 1.497 . S
C306 C307 1.395 . S
C306 C308 1.380 1_655 S
C307 C306 1.395 . S
C307 C310 1.398 . S
C307 H322 0.930 . S
C308 C306 1.380 1_455 S
C308 C309 1.391 . S
C308 H323 0.930 . S
C309 C308 1.391 . S
C309 C311 1.387 1_455 S
C310 C307 1.398 . S
C310 C311 1.380 . S
C310 H324 0.930 . S
C311 C309 1.387 1_655 S
C311 C310 1.380 . S
C311 H325 0.930 . S
C312 O292 1.254 . S
C312 O293 1.268 1_556 S
C313 O297 1.284 . S
C313 O300 1.250 . S
C314 Gd247 2.828 . S
C314 O296 1.258 . S
C314 O301 1.252 . S
C314 C315 1.497 . S
C315 C314 1.497 . S
C315 C316 1.395 . S
C315 C317 1.380 1_455 S
C316 C315 1.395 . S
C316 C319 1.398 . S
C316 H326 0.930 . S
C317 C315 1.380 1_655 S
C317 C318 1.391 . S
C317 H327 0.930 . S
C318 C317 1.391 . S
C318 C320 1.387 1_655 S
C319 C316 1.398 . S
C319 C320 1.380 . S
C319 H328 0.930 . S
C320 C318 1.387 1_455 S
C320 C319 1.380 . S
C320 H329 0.930 . S
C321 O298 1.254 . S
C321 O299 1.268 1_554 S
H322 C307 0.930 . S
H323 C308 0.930 . S
H324 C310 0.930 . S
H325 C311 0.930 . S
H326 C316 0.930 . S
H327 C317 0.930 . S
H328 C319 0.930 . S
H329 C320 0.930 . S
Gd330 N361 2.661 . S
Gd330 N367 2.601 . S
Gd330 O374 2.545 . S
Gd330 O375 2.606 . S
Gd330 O377 2.429 . S
Gd330 O378 2.545 . S
Gd330 O379 2.412 . S
Gd330 O381 2.362 1_556 S
Gd330 O382 2.324 . S
Gd330 C389 2.828 . S
Gd331 N340 2.661 . S
Gd331 N344 2.601 . S
Gd331 O375 2.362 1_554 S
Gd331 O376 2.324 . S
Gd331 O380 2.545 . S
Gd331 O381 2.606 . S
Gd331 O383 2.429 . S
Gd331 O384 2.545 . S
Gd331 O385 2.412 . S
Gd331 C398 2.828 . S
C332 C335 1.417 . S
C332 C337 1.431 . S
C332 C338 1.412 . S
C333 C336 1.437 . S
C333 C337 1.317 . S
C333 H352 0.929 . S
C334 C335 1.426 . S
C334 C336 1.413 . S
C334 N344 1.359 . S
C335 C332 1.417 . S
C335 C334 1.426 . S
C335 N340 1.350 . S
C336 C333 1.437 . S
C336 C334 1.413 . S
C336 C346 1.391 . S
C337 C332 1.431 . S
C337 C333 1.317 . S
C337 H348 0.930 . S
C338 C332 1.412 . S
C338 C339 1.355 . S
C338 H350 0.930 . S
C339 C338 1.355 . S
C339 C341 1.402 . S
C339 H351 0.930 . S
N340 Gd331 2.661 . S
N340 C335 1.350 . S
N340 C341 1.307 . S
C341 C339 1.402 . S
C341 N340 1.307 . S
C341 H342 0.930 . S
H342 C341 0.930 . S
C343 N344 1.334 . S
C343 C345 1.394 . S
C343 H347 0.930 . S
N344 Gd331 2.601 . S
N344 C334 1.359 . S
N344 C343 1.334 . S
C345 C343 1.394 . S
C345 C346 1.359 . S
C345 H357 0.930 . S
C346 C336 1.391 . S
C346 C345 1.359 . S
C346 H358 0.929 . S
H347 C343 0.930 . S
H348 C337 0.930 . S
H349 C366 0.930 . S
H350 C338 0.930 . S
H351 C339 0.930 . S
H352 C333 0.929 . S
H353 C371 0.930 . S
H354 C362 0.930 . S
H355 C363 0.930 . S
H356 C387 0.929 . S
H357 C345 0.930 . S
H358 C346 0.929 . S
H359 C388 0.930 . S
H360 C369 0.930 . S
N361 Gd330 2.661 . S
N361 C365 1.350 . S
N361 C366 1.307 . S
C362 H354 0.930 . S
C362 C363 1.355 . S
C362 C364 1.412 . S
C363 H355 0.930 . S
C363 C362 1.355 . S
C363 C366 1.402 . S
C364 C362 1.412 . S
C364 C365 1.417 . S
C364 C388 1.431 . S
C365 N361 1.350 . S
C365 C364 1.417 . S
C365 C368 1.426 . S
C366 H349 0.930 . S
C366 N361 1.307 . S
C366 C363 1.402 . S
N367 Gd330 2.601 . S
N367 C368 1.359 . S
N367 C371 1.334 . S
C368 C365 1.426 . S
C368 N367 1.359 . S
C368 C372 1.413 . S
C369 H360 0.930 . S
C369 C370 1.359 . S
C369 C371 1.394 . S
C370 C369 1.359 . S
C370 C372 1.391 . S
C370 H373 0.929 . S
C371 H353 0.930 . S
C371 N367 1.334 . S
C371 C369 1.394 . S
C372 C368 1.413 . S
C372 C370 1.391 . S
C372 C387 1.437 . S
H373 C370 0.929 . S
O374 Gd330 2.545 . S
O374 C389 1.258 . S
O375 Gd330 2.606 . S
O375 Gd331 2.362 1_556 S
O375 C386 1.284 . S
O376 Gd331 2.324 . S
O376 C396 1.254 . S
O377 Gd330 2.429 . S
O377 C396 1.268 1_556 S
O378 Gd330 2.545 . S
O378 C386 1.250 . S
O379 Gd330 2.412 . S
O379 C389 1.252 . S
O380 Gd331 2.545 . S
O380 C398 1.258 . S
O381 Gd330 2.362 1_554 S
O381 Gd331 2.606 . S
O381 C397 1.284 . S
O382 Gd330 2.324 . S
O382 C405 1.254 . S
O383 Gd331 2.429 . S
O383 C405 1.268 1_554 S
O384 Gd331 2.545 . S
O384 C397 1.250 . S
O385 Gd331 2.412 . S
O385 C398 1.252 . S
C386 O375 1.284 . S
C386 O378 1.250 . S
C387 H356 0.929 . S
C387 C372 1.437 . S
C387 C388 1.317 . S
C388 H359 0.930 . S
C388 C364 1.431 . S
C388 C387 1.317 . S
C389 Gd330 2.828 . S
C389 O374 1.258 . S
C389 O379 1.252 . S
C389 C390 1.497 . S
C390 C389 1.497 . S
C390 C391 1.395 . S
C390 C392 1.380 . S
C391 C390 1.395 . S
C391 C394 1.398 . S
C391 H406 0.930 . S
C392 C390 1.380 . S
C392 C393 1.391 . S
C392 H407 0.930 . S
C393 C392 1.391 . S
C393 C395 1.387 . S
C394 C391 1.398 . S
C394 C395 1.380 . S
C394 H408 0.930 . S
C395 C393 1.387 . S
C395 C394 1.380 . S
C395 H409 0.930 . S
C396 O376 1.254 . S
C396 O377 1.268 1_554 S
C397 O381 1.284 . S
C397 O384 1.250 . S
C398 Gd331 2.828 . S
C398 O380 1.258 . S
C398 O385 1.252 . S
C398 C399 1.497 . S
C399 C398 1.497 . S
C399 C400 1.395 . S
C399 C401 1.380 . S
C400 C399 1.395 . S
C400 C403 1.398 . S
C400 H410 0.930 . S
C401 C399 1.380 . S
C401 C402 1.391 . S
C401 H411 0.930 . S
C402 C401 1.391 . S
C402 C404 1.387 . S
C403 C400 1.398 . S
C403 C404 1.380 . S
C403 H412 0.930 . S
C404 C402 1.387 . S
C404 C403 1.380 . S
C404 H413 0.930 . S
C405 O382 1.254 . S
C405 O383 1.268 1_556 S
H406 C391 0.930 . S
H407 C392 0.930 . S
H408 C394 0.930 . S
H409 C395 0.930 . S
H410 C400 0.930 . S
H411 C401 0.930 . S
H412 C403 0.930 . S
H413 C404 0.930 . S
Gd414 N445 2.661 . S
Gd414 N451 2.601 . S
Gd414 O458 2.545 . S
Gd414 O459 2.606 . S
Gd414 O461 2.429 . S
Gd414 O462 2.545 . S
Gd414 O463 2.412 . S
Gd414 O465 2.362 . S
Gd414 O466 2.324 . S
Gd414 C473 2.828 . S
Gd415 N424 2.661 . S
Gd415 N428 2.601 . S
Gd415 O459 2.362 . S
Gd415 O460 2.324 . S
Gd415 O464 2.545 . S
Gd415 O465 2.606 . S
Gd415 O467 2.429 . S
Gd415 O468 2.545 . S
Gd415 O469 2.412 . S
Gd415 C482 2.828 . S
C416 C419 1.417 . S
C416 C421 1.431 . S
C416 C422 1.412 . S
C417 C420 1.437 . S
C417 C421 1.317 . S
C417 H436 0.929 . S
C418 C419 1.426 . S
C418 C420 1.413 . S
C418 N428 1.359 . S
C419 C416 1.417 . S
C419 C418 1.426 . S
C419 N424 1.350 . S
C420 C417 1.437 . S
C420 C418 1.413 . S
C420 C430 1.391 . S
C421 C416 1.431 . S
C421 C417 1.317 . S
C421 H432 0.930 . S
C422 C416 1.412 . S
C422 C423 1.355 . S
C422 H434 0.930 . S
C423 C422 1.355 . S
C423 C425 1.402 . S
C423 H435 0.930 . S
N424 Gd415 2.661 . S
N424 C419 1.350 . S
N424 C425 1.307 . S
C425 C423 1.402 . S
C425 N424 1.307 . S
C425 H426 0.930 . S
H426 C425 0.930 . S
C427 N428 1.334 . S
C427 C429 1.394 . S
C427 H431 0.930 . S
N428 Gd415 2.601 . S
N428 C418 1.359 . S
N428 C427 1.334 . S
C429 C427 1.394 . S
C429 C430 1.359 . S
C429 H441 0.930 . S
C430 C420 1.391 . S
C430 C429 1.359 . S
C430 H442 0.929 . S
H431 C427 0.930 . S
H432 C421 0.930 . S
H433 C450 0.930 . S
H434 C422 0.930 . S
H435 C423 0.930 . S
H436 C417 0.929 . S
H437 C455 0.930 . S
H438 C446 0.930 . S
H439 C447 0.930 . S
H440 C471 0.929 . S
H441 C429 0.930 . S
H442 C430 0.929 . S
H443 C472 0.930 . S
H444 C453 0.930 . S
N445 Gd414 2.661 . S
N445 C449 1.350 . S
N445 C450 1.307 . S
C446 H438 0.930 . S
C446 C447 1.355 . S
C446 C448 1.412 . S
C447 H439 0.930 . S
C447 C446 1.355 . S
C447 C450 1.402 . S
C448 C446 1.412 . S
C448 C449 1.417 . S
C448 C472 1.431 . S
C449 N445 1.350 . S
C449 C448 1.417 . S
C449 C452 1.426 . S
C450 H433 0.930 . S
C450 N445 1.307 . S
C450 C447 1.402 . S
N451 Gd414 2.601 . S
N451 C452 1.359 . S
N451 C455 1.334 . S
C452 C449 1.426 . S
C452 N451 1.359 . S
C452 C456 1.413 . S
C453 H444 0.930 . S
C453 C454 1.359 . S
C453 C455 1.394 . S
C454 C453 1.359 . S
C454 C456 1.391 . S
C454 H457 0.929 . S
C455 H437 0.930 . S
C455 N451 1.334 . S
C455 C453 1.394 . S
C456 C452 1.413 . S
C456 C454 1.391 . S
C456 C471 1.437 . S
H457 C454 0.929 . S
O458 Gd414 2.545 . S
O458 C473 1.258 . S
O459 Gd414 2.606 . S
O459 Gd415 2.362 . S
O459 C470 1.284 . S
O460 Gd415 2.324 . S
O460 C480 1.254 . S
O461 Gd414 2.429 . S
O461 C480 1.268 . S
O462 Gd414 2.545 . S
O462 C470 1.250 . S
O463 Gd414 2.412 . S
O463 C473 1.252 . S
O464 Gd415 2.545 . S
O464 C482 1.258 . S
O465 Gd414 2.362 . S
O465 Gd415 2.606 . S
O465 C481 1.284 . S
O466 Gd414 2.324 . S
O466 C489 1.254 . S
O467 Gd415 2.429 . S
O467 C489 1.268 . S
O468 Gd415 2.545 . S
O468 C481 1.250 . S
O469 Gd415 2.412 . S
O469 C482 1.252 . S
C470 O459 1.284 . S
C470 O462 1.250 . S
C471 H440 0.929 . S
C471 C456 1.437 . S
C471 C472 1.317 . S
C472 H443 0.930 . S
C472 C448 1.431 . S
C472 C471 1.317 . S
C473 Gd414 2.828 . S
C473 O458 1.258 . S
C473 O463 1.252 . S
C473 C474 1.497 . S
C474 C473 1.497 . S
C474 C475 1.395 . S
C474 C476 1.380 . S
C475 C474 1.395 . S
C475 C478 1.398 . S
C475 H490 0.930 . S
C476 C474 1.380 . S
C476 C477 1.391 . S
C476 H491 0.930 . S
C477 C476 1.391 . S
C477 C479 1.387 . S
C478 C475 1.398 . S
C478 C479 1.380 . S
C478 H492 0.930 . S
C479 C477 1.387 . S
C479 C478 1.380 . S
C479 H493 0.930 . S
C480 O460 1.254 . S
C480 O461 1.268 . S
C481 O465 1.284 . S
C481 O468 1.250 . S
C482 Gd415 2.828 . S
C482 O464 1.258 . S
C482 O469 1.252 . S
C482 C483 1.497 . S
C483 C482 1.497 . S
C483 C484 1.395 . S
C483 C485 1.380 . S
C484 C483 1.395 . S
C484 C487 1.398 . S
C484 H494 0.930 . S
C485 C483 1.380 . S
C485 C486 1.391 . S
C485 H495 0.930 . S
C486 C485 1.391 . S
C486 C488 1.387 . S
C487 C484 1.398 . S
C487 C488 1.380 . S
C487 H496 0.930 . S
C488 C486 1.387 . S
C488 C487 1.380 . S
C488 H497 0.930 . S
C489 O466 1.254 . S
C489 O467 1.268 . S
H490 C475 0.930 . S
H491 C476 0.930 . S
H492 C478 0.930 . S
H493 C479 0.930 . S
H494 C484 0.930 . S
H495 C485 0.930 . S
H496 C487 0.930 . S
H497 C488 0.930 . S
Gd498 N529 2.661 . S
Gd498 N535 2.601 . S
Gd498 O542 2.545 . S
Gd498 O543 2.606 . S
Gd498 O545 2.429 . S
Gd498 O546 2.545 . S
Gd498 O547 2.412 . S
Gd498 O549 2.362 . S
Gd498 O550 2.324 . S
Gd498 C557 2.828 . S
Gd499 N508 2.661 . S
Gd499 N512 2.601 . S
Gd499 O543 2.362 . S
Gd499 O544 2.324 . S
Gd499 O548 2.545 . S
Gd499 O549 2.606 . S
Gd499 O551 2.429 . S
Gd499 O552 2.545 . S
Gd499 O553 2.412 . S
Gd499 C566 2.828 . S
C500 C503 1.417 . S
C500 C505 1.431 . S
C500 C506 1.412 . S
C501 C504 1.437 . S
C501 C505 1.317 . S
C501 H520 0.929 . S
C502 C503 1.426 . S
C502 C504 1.413 . S
C502 N512 1.359 . S
C503 C500 1.417 . S
C503 C502 1.426 . S
C503 N508 1.350 . S
C504 C501 1.437 . S
C504 C502 1.413 . S
C504 C514 1.391 . S
C505 C500 1.431 . S
C505 C501 1.317 . S
C505 H516 0.930 . S
C506 C500 1.412 . S
C506 C507 1.355 . S
C506 H518 0.930 . S
C507 C506 1.355 . S
C507 C509 1.402 . S
C507 H519 0.930 . S
N508 Gd499 2.661 . S
N508 C503 1.350 . S
N508 C509 1.307 . S
C509 C507 1.402 . S
C509 N508 1.307 . S
C509 H510 0.930 . S
H510 C509 0.930 . S
C511 N512 1.334 . S
C511 C513 1.394 . S
C511 H515 0.930 . S
N512 Gd499 2.601 . S
N512 C502 1.359 . S
N512 C511 1.334 . S
C513 C511 1.394 . S
C513 C514 1.359 . S
C513 H525 0.930 . S
C514 C504 1.391 . S
C514 C513 1.359 . S
C514 H526 0.929 . S
H515 C511 0.930 . S
H516 C505 0.930 . S
H517 C534 0.930 . S
H518 C506 0.930 . S
H519 C507 0.930 . S
H520 C501 0.929 . S
H521 C539 0.930 . S
H522 C530 0.930 . S
H523 C531 0.930 . S
H524 C555 0.929 . S
H525 C513 0.930 . S
H526 C514 0.929 . S
H527 C556 0.930 . S
H528 C537 0.930 . S
N529 Gd498 2.661 . S
N529 C533 1.350 . S
N529 C534 1.307 . S
C530 H522 0.930 . S
C530 C531 1.355 . S
C530 C532 1.412 . S
C531 H523 0.930 . S
C531 C530 1.355 . S
C531 C534 1.402 . S
C532 C530 1.412 . S
C532 C533 1.417 . S
C532 C556 1.431 . S
C533 N529 1.350 . S
C533 C532 1.417 . S
C533 C536 1.426 . S
C534 H517 0.930 . S
C534 N529 1.307 . S
C534 C531 1.402 . S
N535 Gd498 2.601 . S
N535 C536 1.359 . S
N535 C539 1.334 . S
C536 C533 1.426 . S
C536 N535 1.359 . S
C536 C540 1.413 . S
C537 H528 0.930 . S
C537 C538 1.359 . S
C537 C539 1.394 . S
C538 C537 1.359 . S
C538 C540 1.391 . S
C538 H541 0.929 . S
C539 H521 0.930 . S
C539 N535 1.334 . S
C539 C537 1.394 . S
C540 C536 1.413 . S
C540 C538 1.391 . S
C540 C555 1.437 . S
H541 C538 0.929 . S
O542 Gd498 2.545 . S
O542 C557 1.258 . S
O543 Gd498 2.606 . S
O543 Gd499 2.362 . S
O543 C554 1.284 . S
O544 Gd499 2.324 . S
O544 C564 1.254 . S
O545 Gd498 2.429 . S
O545 C564 1.268 . S
O546 Gd498 2.545 . S
O546 C554 1.250 . S
O547 Gd498 2.412 . S
O547 C557 1.252 . S
O548 Gd499 2.545 . S
O548 C566 1.258 . S
O549 Gd498 2.362 . S
O549 Gd499 2.606 . S
O549 C565 1.284 . S
O550 Gd498 2.324 . S
O550 C573 1.254 . S
O551 Gd499 2.429 . S
O551 C573 1.268 . S
O552 Gd499 2.545 . S
O552 C565 1.250 . S
O553 Gd499 2.412 . S
O553 C566 1.252 . S
C554 O543 1.284 . S
C554 O546 1.250 . S
C555 H524 0.929 . S
C555 C540 1.437 . S
C555 C556 1.317 . S
C556 H527 0.930 . S
C556 C532 1.431 . S
C556 C555 1.317 . S
C557 Gd498 2.828 . S
C557 O542 1.258 . S
C557 O547 1.252 . S
C557 C558 1.497 . S
C558 C557 1.497 . S
C558 C559 1.395 . S
C558 C560 1.380 . S
C559 C558 1.395 . S
C559 C562 1.398 . S
C559 H574 0.930 . S
C560 C558 1.380 . S
C560 C561 1.391 . S
C560 H575 0.930 . S
C561 C560 1.391 . S
C561 C563 1.387 . S
C562 C559 1.398 . S
C562 C563 1.380 . S
C562 H576 0.930 . S
C563 C561 1.387 . S
C563 C562 1.380 . S
C563 H577 0.930 . S
C564 O544 1.254 . S
C564 O545 1.268 . S
C565 O549 1.284 . S
C565 O552 1.250 . S
C566 Gd499 2.828 . S
C566 O548 1.258 . S
C566 O553 1.252 . S
C566 C567 1.497 . S
C567 C566 1.497 . S
C567 C568 1.395 . S
C567 C569 1.380 . S
C568 C567 1.395 . S
C568 C571 1.398 . S
C568 H578 0.930 . S
C569 C567 1.380 . S
C569 C570 1.391 . S
C569 H579 0.930 . S
C570 C569 1.391 . S
C570 C572 1.387 . S
C571 C568 1.398 . S
C571 C572 1.380 . S
C571 H580 0.930 . S
C572 C570 1.387 . S
C572 C571 1.380 . S
C572 H581 0.930 . S
C573 O550 1.254 . S
C573 O551 1.268 . S
H574 C559 0.930 . S
H575 C560 0.930 . S
H576 C562 0.930 . S
H577 C563 0.930 . S
H578 C568 0.930 . S
H579 C569 0.930 . S
H580 C571 0.930 . S
H581 C572 0.930 . S
Gd582 N613 2.661 . S
Gd582 N619 2.601 . S
Gd582 O626 2.545 . S
Gd582 O627 2.606 . S
Gd582 O629 2.429 . S
Gd582 O630 2.545 . S
Gd582 O631 2.412 . S
Gd582 O633 2.362 . S
Gd582 O634 2.324 . S
Gd582 C641 2.828 . S
Gd583 N592 2.661 . S
Gd583 N596 2.601 . S
Gd583 O627 2.362 . S
Gd583 O628 2.324 . S
Gd583 O632 2.545 . S
Gd583 O633 2.606 . S
Gd583 O635 2.429 . S
Gd583 O636 2.545 . S
Gd583 O637 2.412 . S
Gd583 C650 2.828 . S
C584 C587 1.417 . S
C584 C589 1.431 . S
C584 C590 1.412 . S
C585 C588 1.437 . S
C585 C589 1.317 . S
C585 H604 0.929 . S
C586 C587 1.426 . S
C586 C588 1.413 . S
C586 N596 1.359 . S
C587 C584 1.417 . S
C587 C586 1.426 . S
C587 N592 1.350 . S
C588 C585 1.437 . S
C588 C586 1.413 . S
C588 C598 1.391 . S
C589 C584 1.431 . S
C589 C585 1.317 . S
C589 H600 0.930 . S
C590 C584 1.412 . S
C590 C591 1.355 . S
C590 H602 0.930 . S
C591 C590 1.355 . S
C591 C593 1.402 . S
C591 H603 0.930 . S
N592 Gd583 2.661 . S
N592 C587 1.350 . S
N592 C593 1.307 . S
C593 C591 1.402 . S
C593 N592 1.307 . S
C593 H594 0.930 . S
H594 C593 0.930 . S
C595 N596 1.334 . S
C595 C597 1.394 . S
C595 H599 0.930 . S
N596 Gd583 2.601 . S
N596 C586 1.359 . S
N596 C595 1.334 . S
C597 C595 1.394 . S
C597 C598 1.359 . S
C597 H609 0.930 . S
C598 C588 1.391 . S
C598 C597 1.359 . S
C598 H610 0.929 . S
H599 C595 0.930 . S
H600 C589 0.930 . S
H601 C618 0.930 . S
H602 C590 0.930 . S
H603 C591 0.930 . S
H604 C585 0.929 . S
H605 C623 0.930 . S
H606 C614 0.930 . S
H607 C615 0.930 . S
H608 C639 0.929 . S
H609 C597 0.930 . S
H610 C598 0.929 . S
H611 C640 0.930 . S
H612 C621 0.930 . S
N613 Gd582 2.661 . S
N613 C617 1.350 . S
N613 C618 1.307 . S
C614 H606 0.930 . S
C614 C615 1.355 . S
C614 C616 1.412 . S
C615 H607 0.930 . S
C615 C614 1.355 . S
C615 C618 1.402 . S
C616 C614 1.412 . S
C616 C617 1.417 . S
C616 C640 1.431 . S
C617 N613 1.350 . S
C617 C616 1.417 . S
C617 C620 1.426 . S
C618 H601 0.930 . S
C618 N613 1.307 . S
C618 C615 1.402 . S
N619 Gd582 2.601 . S
N619 C620 1.359 . S
N619 C623 1.334 . S
C620 C617 1.426 . S
C620 N619 1.359 . S
C620 C624 1.413 . S
C621 H612 0.930 . S
C621 C622 1.359 . S
C621 C623 1.394 . S
C622 C621 1.359 . S
C622 C624 1.391 . S
C622 H625 0.929 . S
C623 H605 0.930 . S
C623 N619 1.334 . S
C623 C621 1.394 . S
C624 C620 1.413 . S
C624 C622 1.391 . S
C624 C639 1.437 . S
H625 C622 0.929 . S
O626 Gd582 2.545 . S
O626 C641 1.258 . S
O627 Gd582 2.606 . S
O627 Gd583 2.362 . S
O627 C638 1.284 . S
O628 Gd583 2.324 . S
O628 C648 1.254 . S
O629 Gd582 2.429 . S
O629 C648 1.268 . S
O630 Gd582 2.545 . S
O630 C638 1.250 . S
O631 Gd582 2.412 . S
O631 C641 1.252 . S
O632 Gd583 2.545 . S
O632 C650 1.258 . S
O633 Gd582 2.362 . S
O633 Gd583 2.606 . S
O633 C649 1.284 . S
O634 Gd582 2.324 . S
O634 C657 1.254 . S
O635 Gd583 2.429 . S
O635 C657 1.268 . S
O636 Gd583 2.545 . S
O636 C649 1.250 . S
O637 Gd583 2.412 . S
O637 C650 1.252 . S
C638 O627 1.284 . S
C638 O630 1.250 . S
C639 H608 0.929 . S
C639 C624 1.437 . S
C639 C640 1.317 . S
C640 H611 0.930 . S
C640 C616 1.431 . S
C640 C639 1.317 . S
C641 Gd582 2.828 . S
C641 O626 1.258 . S
C641 O631 1.252 . S
C641 C642 1.497 . S
C642 C641 1.497 . S
C642 C643 1.395 . S
C642 C644 1.380 . S
C643 C642 1.395 . S
C643 C646 1.398 . S
C643 H658 0.930 . S
C644 C642 1.380 . S
C644 C645 1.391 . S
C644 H659 0.930 . S
C645 C644 1.391 . S
C645 C647 1.387 . S
C646 C643 1.398 . S
C646 C647 1.380 . S
C646 H660 0.930 . S
C647 C645 1.387 . S
C647 C646 1.380 . S
C647 H661 0.930 . S
C648 O628 1.254 . S
C648 O629 1.268 . S
C649 O633 1.284 . S
C649 O636 1.250 . S
C650 Gd583 2.828 . S
C650 O632 1.258 . S
C650 O637 1.252 . S
C650 C651 1.497 . S
C651 C650 1.497 . S
C651 C652 1.395 . S
C651 C653 1.380 . S
C652 C651 1.395 . S
C652 C655 1.398 . S
C652 H662 0.930 . S
C653 C651 1.380 . S
C653 C654 1.391 . S
C653 H663 0.930 . S
C654 C653 1.391 . S
C654 C656 1.387 . S
C655 C652 1.398 . S
C655 C656 1.380 . S
C655 H664 0.930 . S
C656 C654 1.387 . S
C656 C655 1.380 . S
C656 H665 0.930 . S
C657 O634 1.254 . S
C657 O635 1.268 . S
H658 C643 0.930 . S
H659 C644 0.930 . S
H660 C646 0.930 . S
H661 C647 0.930 . S
H662 C652 0.930 . S
H663 C653 0.930 . S
H664 C655 0.930 . S
H665 C656 0.930 . S
Gd666 N697 2.661 . S
Gd666 N703 2.601 . S
Gd666 O710 2.545 . S
Gd666 O711 2.606 . S
Gd666 O713 2.429 . S
Gd666 O714 2.545 . S
Gd666 O715 2.412 . S
Gd666 O717 2.362 . S
Gd666 O718 2.324 . S
Gd666 C725 2.828 . S
Gd667 N676 2.661 . S
Gd667 N680 2.601 . S
Gd667 O711 2.362 . S
Gd667 O712 2.324 . S
Gd667 O716 2.545 . S
Gd667 O717 2.606 . S
Gd667 O719 2.429 . S
Gd667 O720 2.545 . S
Gd667 O721 2.412 . S
Gd667 C734 2.828 . S
C668 C671 1.417 . S
C668 C673 1.431 . S
C668 C674 1.412 . S
C669 C672 1.437 . S
C669 C673 1.317 . S
C669 H688 0.929 . S
C670 C671 1.426 . S
C670 C672 1.413 . S
C670 N680 1.359 . S
C671 C668 1.417 . S
C671 C670 1.426 . S
C671 N676 1.350 . S
C672 C669 1.437 . S
C672 C670 1.413 . S
C672 C682 1.391 . S
C673 C668 1.431 . S
C673 C669 1.317 . S
C673 H684 0.930 . S
C674 C668 1.412 . S
C674 C675 1.355 . S
C674 H686 0.930 . S
C675 C674 1.355 . S
C675 C677 1.402 . S
C675 H687 0.930 . S
N676 Gd667 2.661 . S
N676 C671 1.350 . S
N676 C677 1.307 . S
C677 C675 1.402 . S
C677 N676 1.307 . S
C677 H678 0.930 . S
H678 C677 0.930 . S
C679 N680 1.334 . S
C679 C681 1.394 . S
C679 H683 0.930 . S
N680 Gd667 2.601 . S
N680 C670 1.359 . S
N680 C679 1.334 . S
C681 C679 1.394 . S
C681 C682 1.359 . S
C681 H693 0.930 . S
C682 C672 1.391 . S
C682 C681 1.359 . S
C682 H694 0.929 . S
H683 C679 0.930 . S
H684 C673 0.930 . S
H685 C702 0.930 . S
H686 C674 0.930 . S
H687 C675 0.930 . S
H688 C669 0.929 . S
H689 C707 0.930 . S
H690 C698 0.930 . S
H691 C699 0.930 . S
H692 C723 0.929 . S
H693 C681 0.930 . S
H694 C682 0.929 . S
H695 C724 0.930 . S
H696 C705 0.930 . S
N697 Gd666 2.661 . S
N697 C701 1.350 . S
N697 C702 1.307 . S
C698 H690 0.930 . S
C698 C699 1.355 . S
C698 C700 1.412 . S
C699 H691 0.930 . S
C699 C698 1.355 . S
C699 C702 1.402 . S
C700 C698 1.412 . S
C700 C701 1.417 . S
C700 C724 1.431 . S
C701 N697 1.350 . S
C701 C700 1.417 . S
C701 C704 1.426 . S
C702 H685 0.930 . S
C702 N697 1.307 . S
C702 C699 1.402 . S
N703 Gd666 2.601 . S
N703 C704 1.359 . S
N703 C707 1.334 . S
C704 C701 1.426 . S
C704 N703 1.359 . S
C704 C708 1.413 . S
C705 H696 0.930 . S
C705 C706 1.359 . S
C705 C707 1.394 . S
C706 C705 1.359 . S
C706 C708 1.391 . S
C706 H709 0.929 . S
C707 H689 0.930 . S
C707 N703 1.334 . S
C707 C705 1.394 . S
C708 C704 1.413 . S
C708 C706 1.391 . S
C708 C723 1.437 . S
H709 C706 0.929 . S
O710 Gd666 2.545 . S
O710 C725 1.258 . S
O711 Gd666 2.606 . S
O711 Gd667 2.362 . S
O711 C722 1.284 . S
O712 Gd667 2.324 . S
O712 C732 1.254 . S
O713 Gd666 2.429 . S
O713 C732 1.268 . S
O714 Gd666 2.545 . S
O714 C722 1.250 . S
O715 Gd666 2.412 . S
O715 C725 1.252 . S
O716 Gd667 2.545 . S
O716 C734 1.258 . S
O717 Gd666 2.362 . S
O717 Gd667 2.606 . S
O717 C733 1.284 . S
O718 Gd666 2.324 . S
O718 C741 1.254 . S
O719 Gd667 2.429 . S
O719 C741 1.268 . S
O720 Gd667 2.545 . S
O720 C733 1.250 . S
O721 Gd667 2.412 . S
O721 C734 1.252 . S
C722 O711 1.284 . S
C722 O714 1.250 . S
C723 H692 0.929 . S
C723 C708 1.437 . S
C723 C724 1.317 . S
C724 H695 0.930 . S
C724 C700 1.431 . S
C724 C723 1.317 . S
C725 Gd666 2.828 . S
C725 O710 1.258 . S
C725 O715 1.252 . S
C725 C726 1.497 . S
C726 C725 1.497 . S
C726 C727 1.395 . S
C726 C728 1.380 . S
C727 C726 1.395 . S
C727 C730 1.398 . S
C727 H742 0.930 . S
C728 C726 1.380 . S
C728 C729 1.391 . S
C728 H743 0.930 . S
C729 C728 1.391 . S
C729 C731 1.387 . S
C730 C727 1.398 . S
C730 C731 1.380 . S
C730 H744 0.930 . S
C731 C729 1.387 . S
C731 C730 1.380 . S
C731 H745 0.930 . S
C732 O712 1.254 . S
C732 O713 1.268 . S
C733 O717 1.284 . S
C733 O720 1.250 . S
C734 Gd667 2.828 . S
C734 O716 1.258 . S
C734 O721 1.252 . S
C734 C735 1.497 . S
C735 C734 1.497 . S
C735 C736 1.395 . S
C735 C737 1.380 . S
C736 C735 1.395 . S
C736 C739 1.398 . S
C736 H746 0.930 . S
C737 C735 1.380 . S
C737 C738 1.391 . S
C737 H747 0.930 . S
C738 C737 1.391 . S
C738 C740 1.387 . S
C739 C736 1.398 . S
C739 C740 1.380 . S
C739 H748 0.930 . S
C740 C738 1.387 . S
C740 C739 1.380 . S
C740 H749 0.930 . S
C741 O718 1.254 . S
C741 O719 1.268 . S
H742 C727 0.930 . S
H743 C728 0.930 . S
H744 C730 0.930 . S
H745 C731 0.930 . S
H746 C736 0.930 . S
H747 C737 0.930 . S
H748 C739 0.930 . S
H749 C740 0.930 . S
Gd750 N781 2.661 . S
Gd750 N787 2.601 . S
Gd750 O794 2.545 . S
Gd750 O795 2.606 . S
Gd750 O797 2.429 . S
Gd750 O798 2.545 . S
Gd750 O799 2.412 . S
Gd750 O801 2.362 . S
Gd750 O802 2.324 . S
Gd750 C809 2.828 . S
Gd751 N760 2.661 . S
Gd751 N764 2.601 . S
Gd751 O795 2.362 . S
Gd751 O796 2.324 . S
Gd751 O800 2.545 . S
Gd751 O801 2.606 . S
Gd751 O803 2.429 . S
Gd751 O804 2.545 . S
Gd751 O805 2.412 . S
Gd751 C818 2.828 . S
C752 C755 1.417 . S
C752 C757 1.431 . S
C752 C758 1.412 . S
C753 C756 1.437 . S
C753 C757 1.317 . S
C753 H772 0.929 . S
C754 C755 1.426 . S
C754 C756 1.413 . S
C754 N764 1.359 . S
C755 C752 1.417 . S
C755 C754 1.426 . S
C755 N760 1.350 . S
C756 C753 1.437 . S
C756 C754 1.413 . S
C756 C766 1.391 . S
C757 C752 1.431 . S
C757 C753 1.317 . S
C757 H768 0.930 . S
C758 C752 1.412 . S
C758 C759 1.355 . S
C758 H770 0.930 . S
C759 C758 1.355 . S
C759 C761 1.402 . S
C759 H771 0.930 . S
N760 Gd751 2.661 . S
N760 C755 1.350 . S
N760 C761 1.307 . S
C761 C759 1.402 . S
C761 N760 1.307 . S
C761 H762 0.930 . S
H762 C761 0.930 . S
C763 N764 1.334 . S
C763 C765 1.394 . S
C763 H767 0.930 . S
N764 Gd751 2.601 . S
N764 C754 1.359 . S
N764 C763 1.334 . S
C765 C763 1.394 . S
C765 C766 1.359 . S
C765 H777 0.930 . S
C766 C756 1.391 . S
C766 C765 1.359 . S
C766 H778 0.929 . S
H767 C763 0.930 . S
H768 C757 0.930 . S
H769 C786 0.930 . S
H770 C758 0.930 . S
H771 C759 0.930 . S
H772 C753 0.929 . S
H773 C791 0.930 . S
H774 C782 0.930 . S
H775 C783 0.930 . S
H776 C807 0.929 . S
H777 C765 0.930 . S
H778 C766 0.929 . S
H779 C808 0.930 . S
H780 C789 0.930 . S
N781 Gd750 2.661 . S
N781 C785 1.350 . S
N781 C786 1.307 . S
C782 H774 0.930 . S
C782 C783 1.355 . S
C782 C784 1.412 . S
C783 H775 0.930 . S
C783 C782 1.355 . S
C783 C786 1.402 . S
C784 C782 1.412 . S
C784 C785 1.417 . S
C784 C808 1.431 . S
C785 N781 1.350 . S
C785 C784 1.417 . S
C785 C788 1.426 . S
C786 H769 0.930 . S
C786 N781 1.307 . S
C786 C783 1.402 . S
N787 Gd750 2.601 . S
N787 C788 1.359 . S
N787 C791 1.334 . S
C788 C785 1.426 . S
C788 N787 1.359 . S
C788 C792 1.413 . S
C789 H780 0.930 . S
C789 C790 1.359 . S
C789 C791 1.394 . S
C790 C789 1.359 . S
C790 C792 1.391 . S
C790 H793 0.929 . S
C791 H773 0.930 . S
C791 N787 1.334 . S
C791 C789 1.394 . S
C792 C788 1.413 . S
C792 C790 1.391 . S
C792 C807 1.437 . S
H793 C790 0.929 . S
O794 Gd750 2.545 . S
O794 C809 1.258 . S
O795 Gd750 2.606 . S
O795 Gd751 2.362 . S
O795 C806 1.284 . S
O796 Gd751 2.324 . S
O796 C816 1.254 . S
O797 Gd750 2.429 . S
O797 C816 1.268 . S
O798 Gd750 2.545 . S
O798 C806 1.250 . S
O799 Gd750 2.412 . S
O799 C809 1.252 . S
O800 Gd751 2.545 . S
O800 C818 1.258 . S
O801 Gd750 2.362 . S
O801 Gd751 2.606 . S
O801 C817 1.284 . S
O802 Gd750 2.324 . S
O802 C825 1.254 . S
O803 Gd751 2.429 . S
O803 C825 1.268 . S
O804 Gd751 2.545 . S
O804 C817 1.250 . S
O805 Gd751 2.412 . S
O805 C818 1.252 . S
C806 O795 1.284 . S
C806 O798 1.250 . S
C807 H776 0.929 . S
C807 C792 1.437 . S
C807 C808 1.317 . S
C808 H779 0.930 . S
C808 C784 1.431 . S
C808 C807 1.317 . S
C809 Gd750 2.828 . S
C809 O794 1.258 . S
C809 O799 1.252 . S
C809 C810 1.497 . S
C810 C809 1.497 . S
C810 C811 1.395 . S
C810 C812 1.380 . S
C811 C810 1.395 . S
C811 C814 1.398 . S
C811 H826 0.930 . S
C812 C810 1.380 . S
C812 C813 1.391 . S
C812 H827 0.930 . S
C813 C812 1.391 . S
C813 C815 1.387 . S
C814 C811 1.398 . S
C814 C815 1.380 . S
C814 H828 0.930 . S
C815 C813 1.387 . S
C815 C814 1.380 . S
C815 H829 0.930 . S
C816 O796 1.254 . S
C816 O797 1.268 . S
C817 O801 1.284 . S
C817 O804 1.250 . S
C818 Gd751 2.828 . S
C818 O800 1.258 . S
C818 O805 1.252 . S
C818 C819 1.497 . S
C819 C818 1.497 . S
C819 C820 1.395 . S
C819 C821 1.380 . S
C820 C819 1.395 . S
C820 C823 1.398 . S
C820 H830 0.930 . S
C821 C819 1.380 . S
C821 C822 1.391 . S
C821 H831 0.930 . S
C822 C821 1.391 . S
C822 C824 1.387 . S
C823 C820 1.398 . S
C823 C824 1.380 . S
C823 H832 0.930 . S
C824 C822 1.387 . S
C824 C823 1.380 . S
C824 H833 0.930 . S
C825 O802 1.254 . S
C825 O803 1.268 . S
H826 C811 0.930 . S
H827 C812 0.930 . S
H828 C814 0.930 . S
H829 C815 0.930 . S
H830 C820 0.930 . S
H831 C821 0.930 . S
H832 C823 0.930 . S
H833 C824 0.930 . S
Gd834 N865 2.661 . S
Gd834 N871 2.601 . S
Gd834 O878 2.545 . S
Gd834 O879 2.606 . S
Gd834 O881 2.429 . S
Gd834 O882 2.545 . S
Gd834 O883 2.412 . S
Gd834 O885 2.362 . S
Gd834 O886 2.324 . S
Gd834 C893 2.828 . S
Gd835 N844 2.661 . S
Gd835 N848 2.601 . S
Gd835 O879 2.362 . S
Gd835 O880 2.324 . S
Gd835 O884 2.545 . S
Gd835 O885 2.606 . S
Gd835 O887 2.429 . S
Gd835 O888 2.545 . S
Gd835 O889 2.412 . S
Gd835 C902 2.828 . S
C836 C839 1.417 . S
C836 C841 1.431 . S
C836 C842 1.412 . S
C837 C840 1.437 . S
C837 C841 1.317 . S
C837 H856 0.929 . S
C838 C839 1.426 . S
C838 C840 1.413 . S
C838 N848 1.359 . S
C839 C836 1.417 . S
C839 C838 1.426 . S
C839 N844 1.350 . S
C840 C837 1.437 . S
C840 C838 1.413 . S
C840 C850 1.391 . S
C841 C836 1.431 . S
C841 C837 1.317 . S
C841 H852 0.930 . S
C842 C836 1.412 . S
C842 C843 1.355 . S
C842 H854 0.930 . S
C843 C842 1.355 . S
C843 C845 1.402 . S
C843 H855 0.930 . S
N844 Gd835 2.661 . S
N844 C839 1.350 . S
N844 C845 1.307 . S
C845 C843 1.402 . S
C845 N844 1.307 . S
C845 H846 0.930 . S
H846 C845 0.930 . S
C847 N848 1.334 . S
C847 C849 1.394 . S
C847 H851 0.930 . S
N848 Gd835 2.601 . S
N848 C838 1.359 . S
N848 C847 1.334 . S
C849 C847 1.394 . S
C849 C850 1.359 . S
C849 H861 0.930 . S
C850 C840 1.391 . S
C850 C849 1.359 . S
C850 H862 0.929 . S
H851 C847 0.930 . S
H852 C841 0.930 . S
H853 C870 0.930 . S
H854 C842 0.930 . S
H855 C843 0.930 . S
H856 C837 0.929 . S
H857 C875 0.930 . S
H858 C866 0.930 . S
H859 C867 0.930 . S
H860 C891 0.929 . S
H861 C849 0.930 . S
H862 C850 0.929 . S
H863 C892 0.930 . S
H864 C873 0.930 . S
N865 Gd834 2.661 . S
N865 C869 1.350 . S
N865 C870 1.307 . S
C866 H858 0.930 . S
C866 C867 1.355 . S
C866 C868 1.412 . S
C867 H859 0.930 . S
C867 C866 1.355 . S
C867 C870 1.402 . S
C868 C866 1.412 . S
C868 C869 1.417 . S
C868 C892 1.431 . S
C869 N865 1.350 . S
C869 C868 1.417 . S
C869 C872 1.426 . S
C870 H853 0.930 . S
C870 N865 1.307 . S
C870 C867 1.402 . S
N871 Gd834 2.601 . S
N871 C872 1.359 . S
N871 C875 1.334 . S
C872 C869 1.426 . S
C872 N871 1.359 . S
C872 C876 1.413 . S
C873 H864 0.930 . S
C873 C874 1.359 . S
C873 C875 1.394 . S
C874 C873 1.359 . S
C874 C876 1.391 . S
C874 H877 0.929 . S
C875 H857 0.930 . S
C875 N871 1.334 . S
C875 C873 1.394 . S
C876 C872 1.413 . S
C876 C874 1.391 . S
C876 C891 1.437 . S
H877 C874 0.929 . S
O878 Gd834 2.545 . S
O878 C893 1.258 . S
O879 Gd834 2.606 . S
O879 Gd835 2.362 . S
O879 C890 1.284 . S
O880 Gd835 2.324 . S
O880 C900 1.254 . S
O881 Gd834 2.429 . S
O881 C900 1.268 . S
O882 Gd834 2.545 . S
O882 C890 1.250 . S
O883 Gd834 2.412 . S
O883 C893 1.252 . S
O884 Gd835 2.545 . S
O884 C902 1.258 . S
O885 Gd834 2.362 . S
O885 Gd835 2.606 . S
O885 C901 1.284 . S
O886 Gd834 2.324 . S
O886 C909 1.254 . S
O887 Gd835 2.429 . S
O887 C909 1.268 . S
O888 Gd835 2.545 . S
O888 C901 1.250 . S
O889 Gd835 2.412 . S
O889 C902 1.252 . S
C890 O879 1.284 . S
C890 O882 1.250 . S
C891 H860 0.929 . S
C891 C876 1.437 . S
C891 C892 1.317 . S
C892 H863 0.930 . S
C892 C868 1.431 . S
C892 C891 1.317 . S
C893 Gd834 2.828 . S
C893 O878 1.258 . S
C893 O883 1.252 . S
C893 C894 1.497 . S
C894 C893 1.497 . S
C894 C895 1.395 . S
C894 C896 1.380 . S
C895 C894 1.395 . S
C895 C898 1.398 . S
C895 H910 0.930 . S
C896 C894 1.380 . S
C896 C897 1.391 . S
C896 H911 0.930 . S
C897 C896 1.391 . S
C897 C899 1.387 . S
C898 C895 1.398 . S
C898 C899 1.380 . S
C898 H912 0.930 . S
C899 C897 1.387 . S
C899 C898 1.380 . S
C899 H913 0.930 . S
C900 O880 1.254 . S
C900 O881 1.268 . S
C901 O885 1.284 . S
C901 O888 1.250 . S
C902 Gd835 2.828 . S
C902 O884 1.258 . S
C902 O889 1.252 . S
C902 C903 1.497 . S
C903 C902 1.497 . S
C903 C904 1.395 . S
C903 C905 1.380 . S
C904 C903 1.395 . S
C904 C907 1.398 . S
C904 H914 0.930 . S
C905 C903 1.380 . S
C905 C906 1.391 . S
C905 H915 0.930 . S
C906 C905 1.391 . S
C906 C908 1.387 . S
C907 C904 1.398 . S
C907 C908 1.380 . S
C907 H916 0.930 . S
C908 C906 1.387 . S
C908 C907 1.380 . S
C908 H917 0.930 . S
C909 O886 1.254 . S
C909 O887 1.268 . S
H910 C895 0.930 . S
H911 C896 0.930 . S
H912 C898 0.930 . S
H913 C899 0.930 . S
H914 C904 0.930 . S
H915 C905 0.930 . S
H916 C907 0.930 . S
H917 C908 0.930 . S
H918 C936 0.951 . S
H919 C938 0.951 . S
H920 C940 0.950 . S
H921 C941 0.950 . S
H922 C943 0.950 . S
H923 C946 0.950 . S
H924 C947 0.950 . S
H925 C949 0.950 . S
H926 C950 0.950 . S
H927 C951 0.951 . S
H928 C953 0.951 . S
H929 C955 0.950 . S
H930 C956 0.950 . S
H931 C958 0.950 . S
H932 C961 0.950 . S
H933 C962 0.950 . S
H934 C964 0.950 . S
H935 C965 0.950 . S
C936 H918 0.951 . S
C936 C937 1.366 . S
C936 C938 1.388 . S
C937 C936 1.366 . S
C937 C941 1.385 . S
C938 H919 0.951 . S
C938 C936 1.388 . S
C938 C939 1.366 . S
C939 C938 1.366 . S
C939 C940 1.414 . S
C939 C942 1.499 . S
C940 H920 0.950 . S
C940 C939 1.414 . S
C940 C941 1.374 . S
C941 H921 0.950 . S
C941 C937 1.385 . S
C941 C940 1.374 . S
C942 C939 1.499 . S
C942 C943 1.373 . S
C942 C944 1.389 . S
C943 H922 0.950 . S
C943 C942 1.373 . S
C943 C959 1.377 . S
C944 C942 1.389 . S
C944 C945 1.524 . S
C944 C958 1.377 . S
C945 C944 1.524 . S
C945 C946 1.397 . S
C945 C950 1.363 . S
C946 H923 0.950 . S
C946 C945 1.397 . S
C946 C947 1.334 . S
C947 H924 0.950 . S
C947 C946 1.334 . S
C947 C948 1.287 . S
C948 C947 1.287 . S
C948 C949 1.524 . S
C948 H967 0.913 . S
C949 H925 0.950 . S
C949 C948 1.524 . S
C949 C950 1.415 . S
C950 H926 0.950 . S
C950 C945 1.363 . S
C950 C949 1.415 . S
C951 H927 0.951 . S
C951 C952 1.366 . S
C951 C953 1.388 . S
C952 C951 1.366 . S
C952 C956 1.385 . S
C953 H928 0.951 . S
C953 C951 1.388 . S
C953 C954 1.366 . S
C954 C953 1.366 . S
C954 C955 1.414 . S
C954 C957 1.499 . S
C955 H929 0.950 . S
C955 C954 1.414 . S
C955 C956 1.374 . S
C956 H930 0.950 . S
C956 C952 1.385 . S
C956 C955 1.374 . S
C957 C954 1.499 . S
C957 C958 1.373 . S
C957 C959 1.389 . S
C958 H931 0.950 . S
C958 C944 1.377 . S
C958 C957 1.373 . S
C959 C943 1.377 . S
C959 C957 1.389 . S
C959 C960 1.524 . S
C960 C959 1.524 . S
C960 C961 1.397 . S
C960 C965 1.363 . S
C961 H932 0.950 . S
C961 C960 1.397 . S
C961 C962 1.334 . S
C962 H933 0.950 . S
C962 C961 1.334 . S
C962 C963 1.287 . S
C963 C962 1.287 . S
C963 C964 1.524 . S
C963 H966 0.999 . S
C964 H934 0.950 . S
C964 C963 1.524 . S
C964 C965 1.415 . S
C965 H935 0.950 . S
C965 C960 1.363 . S
C965 C964 1.415 . S
H966 C963 0.999 . S
H967 C948 0.913 . S
H968 C986 0.951 . S
H969 C988 0.951 . S
H970 C990 0.950 . S
H971 C991 0.950 . S
H972 C993 0.950 . S
H973 C996 0.950 . S
H974 C997 0.950 . S
H975 C999 0.950 . S
H976 C1000 0.950 . S
H977 C1001 0.951 . S
H978 C1003 0.951 . S
H979 C1005 0.950 . S
H980 C1006 0.950 . S
H981 C1008 0.950 . S
H982 C1011 0.950 . S
H983 C1012 0.950 . S
H984 C1014 0.950 . S
H985 C1015 0.950 . S
C986 H968 0.951 . S
C986 C987 1.366 . S
C986 C988 1.388 . S
C987 C986 1.366 . S
C987 C991 1.385 . S
C988 H969 0.951 . S
C988 C986 1.388 . S
C988 C989 1.366 . S
C989 C988 1.366 . S
C989 C990 1.414 . S
C989 C992 1.499 . S
C990 H970 0.950 . S
C990 C989 1.414 . S
C990 C991 1.374 . S
C991 H971 0.950 . S
C991 C987 1.385 . S
C991 C990 1.374 . S
C992 C989 1.499 . S
C992 C993 1.373 . S
C992 C994 1.389 . S
C993 H972 0.950 . S
C993 C992 1.373 . S
C993 C1009 1.377 . S
C994 C992 1.389 . S
C994 C995 1.524 . S
C994 C1008 1.377 . S
C995 C994 1.524 . S
C995 C996 1.397 . S
C995 C1000 1.363 . S
C996 H973 0.950 . S
C996 C995 1.397 . S
C996 C997 1.334 . S
C997 H974 0.950 . S
C997 C996 1.334 . S
C997 C998 1.287 . S
C998 C997 1.287 . S
C998 C999 1.524 . S
C998 H1017 0.913 . S
C999 H975 0.950 . S
C999 C998 1.524 . S
C999 C1000 1.415 . S
C1000 H976 0.950 . S
C1000 C995 1.363 . S
C1000 C999 1.415 . S
C1001 H977 0.951 . S
C1001 C1002 1.366 . S
C1001 C1003 1.388 . S
C1002 C1001 1.366 . S
C1002 C1006 1.385 . S
C1003 H978 0.951 . S
C1003 C1001 1.388 . S
C1003 C1004 1.366 . S
C1004 C1003 1.366 . S
C1004 C1005 1.414 . S
C1004 C1007 1.499 . S
C1005 H979 0.950 . S
C1005 C1004 1.414 . S
C1005 C1006 1.374 . S
C1006 H980 0.950 . S
C1006 C1002 1.385 . S
C1006 C1005 1.374 . S
C1007 C1004 1.499 . S
C1007 C1008 1.373 . S
C1007 C1009 1.389 . S
C1008 H981 0.950 . S
C1008 C994 1.377 . S
C1008 C1007 1.373 . S
C1009 C993 1.377 . S
C1009 C1007 1.389 . S
C1009 C1010 1.524 . S
C1010 C1009 1.524 . S
C1010 C1011 1.397 . S
C1010 C1015 1.363 . S
C1011 H982 0.950 . S
C1011 C1010 1.397 . S
C1011 C1012 1.334 1_554 S
C1012 H983 0.950 . S
C1012 C1011 1.334 1_556 S
C1012 C1013 1.287 . S
C1013 C1012 1.287 . S
C1013 C1014 1.524 1_556 S
C1013 H1016 0.999 . S
C1014 H984 0.950 . S
C1014 C1013 1.524 1_554 S
C1014 C1015 1.415 . S
C1015 H985 0.950 . S
C1015 C1010 1.363 . S
C1015 C1014 1.415 . S
H1016 C1013 0.999 . S
H1017 C998 0.913 . S
H1018 C1036 0.951 . S
H1019 C1038 0.951 . S
H1020 C1040 0.950 . S
H1021 C1041 0.950 . S
H1022 C1043 0.950 . S
H1023 C1046 0.950 . S
H1024 C1047 0.950 . S
H1025 C1049 0.950 . S
H1026 C1050 0.950 . S
H1027 C1051 0.951 . S
H1028 C1053 0.951 . S
H1029 C1055 0.950 . S
H1030 C1056 0.950 . S
H1031 C1058 0.950 . S
H1032 C1061 0.950 . S
H1033 C1062 0.950 . S
H1034 C1064 0.950 . S
H1035 C1065 0.950 . S
C1036 H1018 0.951 . S
C1036 C1037 1.366 . S
C1036 C1038 1.388 . S
C1037 C1036 1.366 . S
C1037 C1041 1.385 . S
C1038 H1019 0.951 . S
C1038 C1036 1.388 . S
C1038 C1039 1.366 . S
C1039 C1038 1.366 . S
C1039 C1040 1.414 . S
C1039 C1042 1.499 . S
C1040 H1020 0.950 . S
C1040 C1039 1.414 . S
C1040 C1041 1.374 . S
C1041 H1021 0.950 . S
C1041 C1037 1.385 . S
C1041 C1040 1.374 . S
C1042 C1039 1.499 . S
C1042 C1043 1.373 . S
C1042 C1044 1.389 . S
C1043 H1022 0.950 . S
C1043 C1042 1.373 . S
C1043 C1059 1.377 . S
C1044 C1042 1.389 . S
C1044 C1045 1.524 . S
C1044 C1058 1.377 . S
C1045 C1044 1.524 . S
C1045 C1046 1.397 . S
C1045 C1050 1.363 . S
C1046 H1023 0.950 . S
C1046 C1045 1.397 . S
C1046 C1047 1.334 . S
C1047 H1024 0.950 . S
C1047 C1046 1.334 . S
C1047 C1048 1.287 . S
C1048 C1047 1.287 . S
C1048 C1049 1.524 . S
C1048 H1067 0.913 . S
C1049 H1025 0.950 . S
C1049 C1048 1.524 . S
C1049 C1050 1.415 . S
C1050 H1026 0.950 . S
C1050 C1045 1.363 . S
C1050 C1049 1.415 . S
C1051 H1027 0.951 . S
C1051 C1052 1.366 . S
C1051 C1053 1.388 . S
C1052 C1051 1.366 . S
C1052 C1056 1.385 . S
C1053 H1028 0.951 . S
C1053 C1051 1.388 . S
C1053 C1054 1.366 . S
C1054 C1053 1.366 . S
C1054 C1055 1.414 . S
C1054 C1057 1.499 . S
C1055 H1029 0.950 . S
C1055 C1054 1.414 . S
C1055 C1056 1.374 . S
C1056 H1030 0.950 . S
C1056 C1052 1.385 . S
C1056 C1055 1.374 . S
C1057 C1054 1.499 . S
C1057 C1058 1.373 . S
C1057 C1059 1.389 . S
C1058 H1031 0.950 . S
C1058 C1044 1.377 . S
C1058 C1057 1.373 . S
C1059 C1043 1.377 . S
C1059 C1057 1.389 . S
C1059 C1060 1.524 . S
C1060 C1059 1.524 . S
C1060 C1061 1.397 . S
C1060 C1065 1.363 . S
C1061 H1032 0.950 . S
C1061 C1060 1.397 . S
C1061 C1062 1.334 . S
C1062 H1033 0.950 . S
C1062 C1061 1.334 . S
C1062 C1063 1.287 . S
C1063 C1062 1.287 . S
C1063 C1064 1.524 . S
C1063 H1066 0.999 . S
C1064 H1034 0.950 . S
C1064 C1063 1.524 . S
C1064 C1065 1.415 . S
C1065 H1035 0.950 . S
C1065 C1060 1.363 . S
C1065 C1064 1.415 . S
H1066 C1063 0.999 . S
H1067 C1048 0.913 . S
H1068 C1086 0.951 . S
H1069 C1088 0.951 . S
H1070 C1090 0.950 . S
H1071 C1091 0.950 . S
H1072 C1093 0.950 . S
H1073 C1096 0.950 . S
H1074 C1097 0.950 . S
H1075 C1099 0.950 . S
H1076 C1100 0.950 . S
H1077 C1101 0.951 1_554 S
H1078 C1103 0.951 . S
H1079 C1105 0.950 . S
H1080 C1106 0.950 . S
H1081 C1108 0.950 . S
H1082 C1111 0.950 . S
H1083 C1112 0.950 . S
H1084 C1114 0.950 . S
H1085 C1115 0.950 . S
C1086 H1068 0.951 . S
C1086 C1087 1.366 . S
C1086 C1088 1.388 . S
C1087 C1086 1.366 . S
C1087 C1091 1.385 . S
C1088 H1069 0.951 . S
C1088 C1086 1.388 . S
C1088 C1089 1.366 . S
C1089 C1088 1.366 . S
C1089 C1090 1.414 . S
C1089 C1092 1.499 . S
C1090 H1070 0.950 . S
C1090 C1089 1.414 . S
C1090 C1091 1.374 . S
C1091 H1071 0.950 . S
C1091 C1087 1.385 . S
C1091 C1090 1.374 . S
C1092 C1089 1.499 . S
C1092 C1093 1.373 . S
C1092 C1094 1.389 . S
C1093 H1072 0.950 . S
C1093 C1092 1.373 . S
C1093 C1109 1.377 . S
C1094 C1092 1.389 . S
C1094 C1095 1.524 . S
C1094 C1108 1.377 . S
C1095 C1094 1.524 . S
C1095 C1096 1.397 . S
C1095 C1100 1.363 . S
C1096 H1073 0.950 . S
C1096 C1095 1.397 . S
C1096 C1097 1.334 . S
C1097 H1074 0.950 . S
C1097 C1096 1.334 . S
C1097 C1098 1.287 . S
C1098 C1097 1.287 . S
C1098 C1099 1.524 . S
C1098 H1117 0.913 . S
C1099 H1075 0.950 . S
C1099 C1098 1.524 . S
C1099 C1100 1.415 . S
C1100 H1076 0.950 . S
C1100 C1095 1.363 . S
C1100 C1099 1.415 . S
C1101 H1077 0.951 1_556 S
C1101 C1102 1.366 . S
C1101 C1103 1.388 . S
C1102 C1101 1.366 . S
C1102 C1106 1.385 . S
C1103 H1078 0.951 . S
C1103 C1101 1.388 . S
C1103 C1104 1.366 . S
C1104 C1103 1.366 . S
C1104 C1105 1.414 . S
C1104 C1107 1.499 . S
C1105 H1079 0.950 . S
C1105 C1104 1.414 . S
C1105 C1106 1.374 . S
C1106 H1080 0.950 . S
C1106 C1102 1.385 . S
C1106 C1105 1.374 . S
C1107 C1104 1.499 . S
C1107 C1108 1.373 . S
C1107 C1109 1.389 . S
C1108 H1081 0.950 . S
C1108 C1094 1.377 . S
C1108 C1107 1.373 . S
C1109 C1093 1.377 . S
C1109 C1107 1.389 . S
C1109 C1110 1.524 . S
C1110 C1109 1.524 . S
C1110 C1111 1.397 . S
C1110 C1115 1.363 . S
C1111 H1082 0.950 . S
C1111 C1110 1.397 . S
C1111 C1112 1.334 . S
C1112 H1083 0.950 . S
C1112 C1111 1.334 . S
C1112 C1113 1.287 . S
C1113 C1112 1.287 . S
C1113 C1114 1.524 . S
C1113 H1116 0.999 . S
C1114 H1084 0.950 . S
C1114 C1113 1.524 . S
C1114 C1115 1.415 . S
C1115 H1085 0.950 . S
C1115 C1110 1.363 . S
C1115 C1114 1.415 . S
H1116 C1113 0.999 . S
H1117 C1098 0.913 . S
H1118 C1136 0.951 . S
H1119 C1138 0.951 . S
H1120 C1140 0.950 . S
H1121 C1141 0.950 . S
H1122 C1143 0.950 . S
H1123 C1146 0.950 . S
H1124 C1147 0.950 . S
H1125 C1149 0.950 . S
H1126 C1150 0.950 . S
H1127 C1151 0.951 . S
H1128 C1153 0.951 . S
H1129 C1155 0.950 . S
H1130 C1156 0.950 . S
H1131 C1158 0.950 . S
H1132 C1161 0.950 . S
H1133 C1162 0.950 . S
H1134 C1164 0.950 . S
H1135 C1165 0.950 . S
C1136 H1118 0.951 . S
C1136 C1137 1.366 . S
C1136 C1138 1.388 . S
C1137 C1136 1.366 . S
C1137 C1141 1.385 . S
C1138 H1119 0.951 . S
C1138 C1136 1.388 . S
C1138 C1139 1.366 . S
C1139 C1138 1.366 . S
C1139 C1140 1.414 . S
C1139 C1142 1.499 . S
C1140 H1120 0.950 . S
C1140 C1139 1.414 . S
C1140 C1141 1.374 . S
C1141 H1121 0.950 . S
C1141 C1137 1.385 . S
C1141 C1140 1.374 . S
C1142 C1139 1.499 . S
C1142 C1143 1.373 . S
C1142 C1144 1.389 . S
C1143 H1122 0.950 . S
C1143 C1142 1.373 . S
C1143 C1159 1.377 . S
C1144 C1142 1.389 . S
C1144 C1145 1.524 . S
C1144 C1158 1.377 . S
C1145 C1144 1.524 . S
C1145 C1146 1.397 . S
C1145 C1150 1.363 . S
C1146 H1123 0.950 . S
C1146 C1145 1.397 . S
C1146 C1147 1.334 . S
C1147 H1124 0.950 . S
C1147 C1146 1.334 . S
C1147 C1148 1.287 . S
C1148 C1147 1.287 . S
C1148 C1149 1.524 . S
C1148 H1167 0.913 . S
C1149 H1125 0.950 . S
C1149 C1148 1.524 . S
C1149 C1150 1.415 . S
C1150 H1126 0.950 . S
C1150 C1145 1.363 . S
C1150 C1149 1.415 . S
C1151 H1127 0.951 . S
C1151 C1152 1.366 . S
C1151 C1153 1.388 . S
C1152 C1151 1.366 . S
C1152 C1156 1.385 . S
C1153 H1128 0.951 . S
C1153 C1151 1.388 . S
C1153 C1154 1.366 . S
C1154 C1153 1.366 . S
C1154 C1155 1.414 . S
C1154 C1157 1.499 . S
C1155 H1129 0.950 . S
C1155 C1154 1.414 . S
C1155 C1156 1.374 . S
C1156 H1130 0.950 . S
C1156 C1152 1.385 . S
C1156 C1155 1.374 . S
C1157 C1154 1.499 . S
C1157 C1158 1.373 . S
C1157 C1159 1.389 . S
C1158 H1131 0.950 . S
C1158 C1144 1.377 . S
C1158 C1157 1.373 . S
C1159 C1143 1.377 . S
C1159 C1157 1.389 . S
C1159 C1160 1.524 . S
C1160 C1159 1.524 . S
C1160 C1161 1.397 . S
C1160 C1165 1.363 . S
C1161 H1132 0.950 . S
C1161 C1160 1.397 . S
C1161 C1162 1.334 . S
C1162 H1133 0.950 . S
C1162 C1161 1.334 . S
C1162 C1163 1.287 . S
C1163 C1162 1.287 . S
C1163 C1164 1.524 . S
C1163 H1166 0.999 . S
C1164 H1134 0.950 . S
C1164 C1163 1.524 . S
C1164 C1165 1.415 . S
C1165 H1135 0.950 . S
C1165 C1160 1.363 . S
C1165 C1164 1.415 . S
H1166 C1163 0.999 . S
H1167 C1148 0.913 . S
H1168 C1186 0.951 . S
H1169 C1188 0.951 . S
H1170 C1190 0.950 . S
H1171 C1191 0.950 . S
H1172 C1193 0.950 . S
H1173 C1196 0.950 . S
H1174 C1197 0.950 . S
H1175 C1199 0.950 . S
H1176 C1200 0.950 . S
H1177 C1201 0.951 . S
H1178 C1203 0.951 . S
H1179 C1205 0.950 . S
H1180 C1206 0.950 . S
H1181 C1208 0.950 . S
H1182 C1211 0.950 . S
H1183 C1212 0.950 . S
H1184 C1214 0.950 . S
H1185 C1215 0.950 . S
C1186 H1168 0.951 . S
C1186 C1187 1.366 . S
C1186 C1188 1.388 . S
C1187 C1186 1.366 . S
C1187 C1191 1.385 . S
C1188 H1169 0.951 . S
C1188 C1186 1.388 . S
C1188 C1189 1.366 . S
C1189 C1188 1.366 . S
C1189 C1190 1.414 . S
C1189 C1192 1.499 . S
C1190 H1170 0.950 . S
C1190 C1189 1.414 . S
C1190 C1191 1.374 . S
C1191 H1171 0.950 . S
C1191 C1187 1.385 . S
C1191 C1190 1.374 . S
C1192 C1189 1.499 . S
C1192 C1193 1.373 . S
C1192 C1194 1.389 . S
C1193 H1172 0.950 . S
C1193 C1192 1.373 . S
C1193 C1209 1.377 . S
C1194 C1192 1.389 . S
C1194 C1195 1.524 . S
C1194 C1208 1.377 . S
C1195 C1194 1.524 . S
C1195 C1196 1.397 . S
C1195 C1200 1.363 . S
C1196 H1173 0.950 . S
C1196 C1195 1.397 . S
C1196 C1197 1.334 . S
C1197 H1174 0.950 . S
C1197 C1196 1.334 . S
C1197 C1198 1.287 . S
C1198 C1197 1.287 . S
C1198 C1199 1.524 . S
C1198 H1217 0.913 . S
C1199 H1175 0.950 . S
C1199 C1198 1.524 . S
C1199 C1200 1.415 . S
C1200 H1176 0.950 . S
C1200 C1195 1.363 . S
C1200 C1199 1.415 . S
C1201 H1177 0.951 . S
C1201 C1202 1.366 . S
C1201 C1203 1.388 . S
C1202 C1201 1.366 . S
C1202 C1206 1.385 . S
C1203 H1178 0.951 . S
C1203 C1201 1.388 . S
C1203 C1204 1.366 . S
C1204 C1203 1.366 . S
C1204 C1205 1.414 . S
C1204 C1207 1.499 . S
C1205 H1179 0.950 . S
C1205 C1204 1.414 . S
C1205 C1206 1.374 . S
C1206 H1180 0.950 . S
C1206 C1202 1.385 . S
C1206 C1205 1.374 . S
C1207 C1204 1.499 . S
C1207 C1208 1.373 . S
C1207 C1209 1.389 . S
C1208 H1181 0.950 . S
C1208 C1194 1.377 . S
C1208 C1207 1.373 . S
C1209 C1193 1.377 . S
C1209 C1207 1.389 . S
C1209 C1210 1.524 . S
C1210 C1209 1.524 . S
C1210 C1211 1.397 . S
C1210 C1215 1.363 . S
C1211 H1182 0.950 . S
C1211 C1210 1.397 . S
C1211 C1212 1.334 1_556 S
C1212 H1183 0.950 . S
C1212 C1211 1.334 1_554 S
C1212 C1213 1.287 . S
C1213 C1212 1.287 . S
C1213 C1214 1.524 1_554 S
C1213 H1216 0.999 . S
C1214 H1184 0.950 . S
C1214 C1213 1.524 1_556 S
C1214 C1215 1.415 . S
C1215 H1185 0.950 . S
C1215 C1210 1.363 . S
C1215 C1214 1.415 . S
H1216 C1213 0.999 . S
H1217 C1198 0.913 . S
H1218 C1236 0.951 . S
H1219 C1238 0.951 . S
H1220 C1240 0.950 . S
H1221 C1241 0.950 . S
H1222 C1243 0.950 . S
H1223 C1246 0.950 . S
H1224 C1247 0.950 . S
H1225 C1249 0.950 . S
H1226 C1250 0.950 . S
H1227 C1251 0.951 . S
H1228 C1253 0.951 . S
H1229 C1255 0.950 . S
H1230 C1256 0.950 . S
H1231 C1258 0.950 . S
H1232 C1261 0.950 . S
H1233 C1262 0.950 . S
H1234 C1264 0.950 . S
H1235 C1265 0.950 . S
C1236 H1218 0.951 . S
C1236 C1237 1.366 . S
C1236 C1238 1.388 . S
C1237 C1236 1.366 . S
C1237 C1241 1.385 . S
C1238 H1219 0.951 . S
C1238 C1236 1.388 . S
C1238 C1239 1.366 . S
C1239 C1238 1.366 . S
C1239 C1240 1.414 . S
C1239 C1242 1.499 . S
C1240 H1220 0.950 . S
C1240 C1239 1.414 . S
C1240 C1241 1.374 . S
C1241 H1221 0.950 . S
C1241 C1237 1.385 . S
C1241 C1240 1.374 . S
C1242 C1239 1.499 . S
C1242 C1243 1.373 . S
C1242 C1244 1.389 . S
C1243 H1222 0.950 . S
C1243 C1242 1.373 . S
C1243 C1259 1.377 . S
C1244 C1242 1.389 . S
C1244 C1245 1.524 . S
C1244 C1258 1.377 . S
C1245 C1244 1.524 . S
C1245 C1246 1.397 . S
C1245 C1250 1.363 . S
C1246 H1223 0.950 . S
C1246 C1245 1.397 . S
C1246 C1247 1.334 . S
C1247 H1224 0.950 . S
C1247 C1246 1.334 . S
C1247 C1248 1.287 . S
C1248 C1247 1.287 . S
C1248 C1249 1.524 . S
C1248 H1267 0.894 1_556 S
C1249 H1225 0.950 . S
C1249 C1248 1.524 . S
C1249 C1250 1.415 . S
C1250 H1226 0.950 . S
C1250 C1245 1.363 . S
C1250 C1249 1.415 . S
C1251 H1227 0.951 . S
C1251 C1252 1.366 . S
C1251 C1253 1.388 . S
C1252 C1251 1.366 . S
C1252 C1256 1.385 . S
C1253 H1228 0.951 . S
C1253 C1251 1.388 . S
C1253 C1254 1.366 . S
C1254 C1253 1.366 . S
C1254 C1255 1.414 . S
C1254 C1257 1.499 . S
C1255 H1229 0.950 . S
C1255 C1254 1.414 . S
C1255 C1256 1.374 . S
C1256 H1230 0.950 . S
C1256 C1252 1.385 . S
C1256 C1255 1.374 . S
C1257 C1254 1.499 . S
C1257 C1258 1.373 . S
C1257 C1259 1.389 . S
C1258 H1231 0.950 . S
C1258 C1244 1.377 . S
C1258 C1257 1.373 . S
C1259 C1243 1.377 . S
C1259 C1257 1.389 . S
C1259 C1260 1.524 . S
C1260 C1259 1.524 . S
C1260 C1261 1.397 . S
C1260 C1265 1.363 . S
C1261 H1232 0.950 . S
C1261 C1260 1.397 . S
C1261 C1262 1.334 . S
C1262 H1233 0.950 . S
C1262 C1261 1.334 . S
C1262 C1263 1.287 . S
C1263 C1262 1.287 . S
C1263 C1264 1.524 . S
C1263 H1266 0.999 . S
C1264 H1234 0.950 . S
C1264 C1263 1.524 . S
C1264 C1265 1.415 . S
C1265 H1235 0.950 . S
C1265 C1260 1.363 . S
C1265 C1264 1.415 . S
H1266 C1263 0.999 . S
H1267 C1248 0.894 1_554 S
H1268 C1286 0.951 . S
H1269 C1288 0.951 . S
H1270 C1290 0.950 . S
H1271 C1291 0.950 . S
H1272 C1293 0.950 . S
H1273 C1296 0.950 . S
H1274 C1297 0.950 . S
H1275 C1299 0.950 . S
H1276 C1300 0.950 . S
H1277 C1301 0.951 . S
H1278 C1303 0.951 . S
H1279 C1305 0.950 . S
H1280 C1306 0.950 . S
H1281 C1308 0.950 . S
H1282 C1311 0.950 . S
H1283 C1312 0.950 1_554 S
H1284 C1314 0.950 . S
H1285 C1315 0.950 . S
C1286 H1268 0.951 . S
C1286 C1287 1.366 . S
C1286 C1288 1.388 . S
C1287 C1286 1.366 . S
C1287 C1291 1.385 . S
C1288 H1269 0.951 . S
C1288 C1286 1.388 . S
C1288 C1289 1.366 . S
C1289 C1288 1.366 . S
C1289 C1290 1.414 . S
C1289 C1292 1.499 . S
C1290 H1270 0.950 . S
C1290 C1289 1.414 . S
C1290 C1291 1.374 . S
C1291 H1271 0.950 . S
C1291 C1287 1.385 . S
C1291 C1290 1.374 . S
C1292 C1289 1.499 . S
C1292 C1293 1.373 . S
C1292 C1294 1.389 . S
C1293 H1272 0.950 . S
C1293 C1292 1.373 . S
C1293 C1309 1.377 . S
C1294 C1292 1.389 . S
C1294 C1295 1.524 . S
C1294 C1308 1.377 . S
C1295 C1294 1.524 . S
C1295 C1296 1.397 . S
C1295 C1300 1.363 . S
C1296 H1273 0.950 . S
C1296 C1295 1.397 . S
C1296 C1297 1.334 . S
C1297 H1274 0.950 . S
C1297 C1296 1.334 . S
C1297 C1298 1.287 . S
C1298 C1297 1.287 . S
C1298 C1299 1.524 . S
C1298 H1317 0.913 . S
C1299 H1275 0.950 . S
C1299 C1298 1.524 . S
C1299 C1300 1.415 . S
C1300 H1276 0.950 . S
C1300 C1295 1.363 . S
C1300 C1299 1.415 . S
C1301 H1277 0.951 . S
C1301 C1302 1.366 . S
C1301 C1303 1.388 . S
C1302 C1301 1.366 . S
C1302 C1306 1.385 . S
C1303 H1278 0.951 . S
C1303 C1301 1.388 . S
C1303 C1304 1.366 . S
C1304 C1303 1.366 . S
C1304 C1305 1.414 . S
C1304 C1307 1.499 . S
C1305 H1279 0.950 . S
C1305 C1304 1.414 . S
C1305 C1306 1.374 . S
C1306 H1280 0.950 . S
C1306 C1302 1.385 . S
C1306 C1305 1.374 . S
C1307 C1304 1.499 . S
C1307 C1308 1.373 . S
C1307 C1309 1.389 . S
C1308 H1281 0.950 . S
C1308 C1294 1.377 . S
C1308 C1307 1.373 . S
C1309 C1293 1.377 . S
C1309 C1307 1.389 . S
C1309 C1310 1.524 . S
C1310 C1309 1.524 . S
C1310 C1311 1.397 . S
C1310 C1315 1.363 . S
C1311 H1282 0.950 . S
C1311 C1310 1.397 . S
C1311 C1312 1.334 . S
C1312 H1283 0.950 1_556 S
C1312 C1311 1.334 . S
C1312 C1313 1.287 . S
C1313 C1312 1.287 . S
C1313 C1314 1.524 . S
C1313 H1316 0.999 . S
C1314 H1284 0.950 . S
C1314 C1313 1.524 . S
C1314 C1315 1.415 . S
C1315 H1285 0.950 . S
C1315 C1310 1.363 . S
C1315 C1314 1.415 . S
H1316 C1313 0.999 . S
H1317 C1298 0.913 . S
H1318 C1336 0.951 . S
H1319 C1338 0.951 . S
H1320 C1340 0.950 . S
H1321 C1341 0.950 . S
H1322 C1343 0.950 . S
H1323 C1346 0.950 . S
H1324 C1347 0.950 . S
H1325 C1349 0.950 . S
H1326 C1350 0.950 . S
H1327 C1351 0.951 . S
H1328 C1353 0.951 . S
H1329 C1355 0.950 . S
H1330 C1356 0.950 . S
H1331 C1358 0.950 . S
H1332 C1361 0.940 1_556 S
H1333 C1362 0.950 . S
H1334 C1364 0.950 . S
H1335 C1365 0.950 . S
C1336 H1318 0.951 . S
C1336 C1337 1.366 . S
C1336 C1338 1.388 . S
C1337 C1336 1.366 . S
C1337 C1341 1.385 . S
C1338 H1319 0.951 . S
C1338 C1336 1.388 . S
C1338 C1339 1.366 . S
C1339 C1338 1.366 . S
C1339 C1340 1.414 . S
C1339 C1342 1.499 . S
C1340 H1320 0.950 . S
C1340 C1339 1.414 . S
C1340 C1341 1.374 . S
C1341 H1321 0.950 . S
C1341 C1337 1.385 . S
C1341 C1340 1.374 . S
C1342 C1339 1.499 . S
C1342 C1343 1.373 . S
C1342 C1344 1.389 . S
C1343 H1322 0.950 . S
C1343 C1342 1.373 . S
C1343 C1359 1.377 . S
C1344 C1342 1.389 . S
C1344 C1345 1.524 . S
C1344 C1358 1.377 . S
C1345 C1344 1.524 . S
C1345 C1346 1.397 . S
C1345 C1350 1.363 . S
C1346 H1323 0.950 . S
C1346 C1345 1.397 . S
C1346 C1347 1.334 . S
C1347 H1324 0.950 . S
C1347 C1346 1.334 . S
C1347 C1348 1.287 . S
C1348 C1347 1.287 . S
C1348 C1349 1.524 . S
C1348 H1367 0.913 . S
C1349 H1325 0.950 . S
C1349 C1348 1.524 . S
C1349 C1350 1.415 . S
C1350 H1326 0.950 . S
C1350 C1345 1.363 . S
C1350 C1349 1.415 . S
C1351 H1327 0.951 . S
C1351 C1352 1.366 . S
C1351 C1353 1.388 . S
C1352 C1351 1.366 . S
C1352 C1356 1.385 . S
C1353 H1328 0.951 . S
C1353 C1351 1.388 . S
C1353 C1354 1.366 . S
C1354 C1353 1.366 . S
C1354 C1355 1.414 . S
C1354 C1357 1.499 . S
C1355 H1329 0.950 . S
C1355 C1354 1.414 . S
C1355 C1356 1.374 . S
C1356 H1330 0.950 . S
C1356 C1352 1.385 . S
C1356 C1355 1.374 . S
C1357 C1354 1.499 . S
C1357 C1358 1.373 . S
C1357 C1359 1.389 . S
C1358 H1331 0.950 . S
C1358 C1344 1.377 . S
C1358 C1357 1.373 . S
C1359 C1343 1.377 . S
C1359 C1357 1.389 . S
C1359 C1360 1.524 . S
C1360 C1359 1.524 . S
C1360 C1361 1.365 1_556 S
C1360 C1365 1.363 . S
C1361 H1332 0.940 1_554 S
C1361 C1360 1.365 1_554 S
C1361 C1362 1.376 . S
C1362 H1333 0.950 . S
C1362 C1361 1.376 . S
C1362 C1363 1.287 . S
C1363 C1362 1.287 . S
C1363 C1364 1.524 . S
C1363 H1366 0.999 . S
C1364 H1334 0.950 . S
C1364 C1363 1.524 . S
C1364 C1365 1.415 1_554 S
C1365 H1335 0.950 . S
C1365 C1360 1.363 . S
C1365 C1364 1.415 1_556 S
H1366 C1363 0.999 . S
H1367 C1348 0.913 . S
H1368 C1386 0.951 . S
H1369 C1388 0.951 . S
H1370 C1390 0.950 . S
H1371 C1391 0.950 . S
H1372 C1393 0.950 . S
H1373 C1396 0.950 . S
H1374 C1397 0.950 . S
H1375 C1399 0.950 . S
H1376 C1400 0.950 . S
H1377 C1401 0.997 . S
H1378 C1403 0.951 . S
H1379 C1405 0.950 . S
H1380 C1406 0.950 . S
H1381 C1408 0.950 . S
H1382 C1411 0.950 . S
H1383 C1412 0.950 . S
H1384 C1414 0.950 . S
H1385 C1415 0.950 . S
C1386 H1368 0.951 . S
C1386 C1387 1.366 . S
C1386 C1388 1.388 . S
C1387 C1386 1.366 . S
C1387 C1391 1.385 . S
C1388 H1369 0.951 . S
C1388 C1386 1.388 . S
C1388 C1389 1.366 . S
C1389 C1388 1.366 . S
C1389 C1390 1.414 . S
C1389 C1392 1.499 . S
C1390 H1370 0.950 . S
C1390 C1389 1.414 . S
C1390 C1391 1.374 . S
C1391 H1371 0.950 . S
C1391 C1387 1.385 . S
C1391 C1390 1.374 . S
C1392 C1389 1.499 . S
C1392 C1393 1.373 . S
C1392 C1394 1.389 . S
C1393 H1372 0.950 . S
C1393 C1392 1.373 . S
C1393 C1409 1.377 . S
C1394 C1392 1.389 . S
C1394 C1395 1.524 . S
C1394 C1408 1.377 . S
C1395 C1394 1.524 . S
C1395 C1396 1.397 . S
C1395 C1400 1.363 . S
C1396 H1373 0.950 . S
C1396 C1395 1.397 . S
C1396 C1397 1.334 . S
C1397 H1374 0.950 . S
C1397 C1396 1.334 . S
C1397 C1398 1.287 . S
C1398 C1397 1.287 . S
C1398 C1399 1.524 . S
C1398 H1417 0.913 . S
C1399 H1375 0.950 . S
C1399 C1398 1.524 . S
C1399 C1400 1.415 . S
C1400 H1376 0.950 . S
C1400 C1395 1.363 . S
C1400 C1399 1.415 . S
C1401 H1377 0.997 . S
C1401 C1402 1.366 . S
C1401 C1403 1.388 . S
C1402 C1401 1.366 . S
C1402 C1406 1.385 . S
C1403 H1378 0.951 . S
C1403 C1401 1.388 . S
C1403 C1404 1.366 . S
C1404 C1403 1.366 . S
C1404 C1405 1.414 . S
C1404 C1407 1.499 . S
C1405 H1379 0.950 . S
C1405 C1404 1.414 . S
C1405 C1406 1.374 . S
C1406 H1380 0.950 . S
C1406 C1402 1.385 . S
C1406 C1405 1.374 . S
C1407 C1404 1.499 . S
C1407 C1408 1.373 . S
C1407 C1409 1.389 . S
C1408 H1381 0.950 . S
C1408 C1394 1.377 . S
C1408 C1407 1.373 . S
C1409 C1393 1.377 . S
C1409 C1407 1.389 . S
C1409 C1410 1.524 . S
C1410 C1409 1.524 . S
C1410 C1411 1.397 . S
C1410 C1415 1.363 . S
C1411 H1382 0.950 . S
C1411 C1410 1.397 . S
C1411 C1412 1.334 . S
C1412 H1383 0.950 . S
C1412 C1411 1.334 . S
C1412 C1413 1.287 . S
C1413 C1412 1.287 . S
C1413 C1414 1.524 . S
C1413 H1416 0.999 . S
C1414 H1384 0.950 . S
C1414 C1413 1.524 . S
C1414 C1415 1.415 . S
C1415 H1385 0.950 . S
C1415 C1410 1.363 . S
C1415 C1414 1.415 . S
H1416 C1413 0.999 . S
H1417 C1398 0.913 . S
H1418 C1436 0.951 . S
H1419 C1438 0.951 . S
H1420 C1440 0.950 . S
H1421 C1441 0.950 . S
H1422 C1443 0.950 . S
H1423 C1446 0.950 . S
H1424 C1447 0.950 . S
H1425 C1449 0.950 . S
H1426 C1450 0.950 . S
H1427 C1451 0.964 . S
H1428 C1453 0.951 . S
H1429 C1455 0.950 . S
H1430 C1456 0.950 . S
H1431 C1458 0.950 . S
H1432 C1461 0.950 . S
H1433 C1462 0.950 . S
H1434 C1464 0.950 . S
H1435 C1465 0.950 . S
C1436 H1418 0.951 . S
C1436 C1437 1.366 . S
C1436 C1438 1.388 . S
C1437 C1436 1.366 . S
C1437 C1441 1.385 . S
C1438 H1419 0.951 . S
C1438 C1436 1.388 . S
C1438 C1439 1.366 . S
C1439 C1438 1.366 . S
C1439 C1440 1.414 . S
C1439 C1442 1.499 . S
C1440 H1420 0.950 . S
C1440 C1439 1.414 . S
C1440 C1441 1.374 . S
C1441 H1421 0.950 . S
C1441 C1437 1.385 . S
C1441 C1440 1.374 . S
C1442 C1439 1.499 . S
C1442 C1443 1.373 . S
C1442 C1444 1.389 . S
C1443 H1422 0.950 . S
C1443 C1442 1.373 . S
C1443 C1459 1.377 . S
C1444 C1442 1.389 . S
C1444 C1445 1.524 . S
C1444 C1458 1.377 . S
C1445 C1444 1.524 . S
C1445 C1446 1.397 . S
C1445 C1450 1.363 . S
C1446 H1423 0.950 . S
C1446 C1445 1.397 . S
C1446 C1447 1.334 . S
C1447 H1424 0.950 . S
C1447 C1446 1.334 . S
C1447 C1448 1.287 . S
C1448 C1447 1.287 . S
C1448 C1449 1.524 . S
C1448 H1467 0.913 . S
C1449 H1425 0.950 . S
C1449 C1448 1.524 . S
C1449 C1450 1.415 . S
C1450 H1426 0.950 . S
C1450 C1445 1.363 . S
C1450 C1449 1.415 . S
C1451 H1427 0.964 . S
C1451 C1452 1.366 . S
C1451 C1453 1.388 . S
C1452 C1451 1.366 . S
C1452 C1456 1.385 . S
C1453 H1428 0.951 . S
C1453 C1451 1.388 . S
C1453 C1454 1.366 . S
C1454 C1453 1.366 . S
C1454 C1455 1.414 . S
C1454 C1457 1.499 . S
C1455 H1429 0.950 . S
C1455 C1454 1.414 . S
C1455 C1456 1.374 . S
C1456 H1430 0.950 . S
C1456 C1452 1.385 . S
C1456 C1455 1.374 . S
C1457 C1454 1.499 . S
C1457 C1458 1.373 . S
C1457 C1459 1.389 . S
C1458 H1431 0.950 . S
C1458 C1444 1.377 . S
C1458 C1457 1.373 . S
C1459 C1443 1.377 . S
C1459 C1457 1.389 . S
C1459 C1460 1.524 . S
C1460 C1459 1.524 . S
C1460 C1461 1.397 . S
C1460 C1465 1.363 . S
C1461 H1432 0.950 . S
C1461 C1460 1.397 . S
C1461 C1462 1.334 . S
C1462 H1433 0.950 . S
C1462 C1461 1.334 . S
C1462 C1463 1.287 1_554 S
C1463 C1462 1.287 1_556 S
C1463 C1464 1.524 . S
C1463 H1466 0.999 . S
C1464 H1434 0.950 . S
C1464 C1463 1.524 . S
C1464 C1465 1.415 1_556 S
C1465 H1435 0.950 . S
C1465 C1460 1.363 . S
C1465 C1464 1.415 1_554 S
H1466 C1463 0.999 . S
H1467 C1448 0.913 . S
H1468 C1486 0.951 . S
H1469 C1488 0.951 . S
H1470 C1490 0.950 . S
H1471 C1491 0.950 . S
H1472 C1493 0.950 . S
H1473 C1496 0.950 . S
H1474 C1497 0.950 . S
H1475 C1499 0.950 . S
H1476 C1500 0.950 . S
H1477 C1501 0.951 . S
H1478 C1503 0.951 . S
H1479 C1505 0.950 . S
H1480 C1506 0.950 . S
H1481 C1508 0.950 . S
H1482 C1511 0.950 . S
H1483 C1512 0.950 . S
H1484 C1514 0.950 . S
H1485 C1515 0.950 . S
C1486 H1468 0.951 . S
C1486 C1487 1.366 . S
C1486 C1488 1.388 . S
C1487 C1486 1.366 . S
C1487 C1491 1.385 . S
C1488 H1469 0.951 . S
C1488 C1486 1.388 . S
C1488 C1489 1.366 . S
C1489 C1488 1.366 . S
C1489 C1490 1.414 . S
C1489 C1492 1.499 . S
C1490 H1470 0.950 . S
C1490 C1489 1.414 . S
C1490 C1491 1.374 . S
C1491 H1471 0.950 . S
C1491 C1487 1.385 . S
C1491 C1490 1.374 . S
C1492 C1489 1.499 . S
C1492 C1493 1.373 . S
C1492 C1494 1.389 . S
C1493 H1472 0.950 . S
C1493 C1492 1.373 . S
C1493 C1509 1.377 . S
C1494 C1492 1.389 . S
C1494 C1495 1.524 . S
C1494 C1508 1.377 . S
C1495 C1494 1.524 . S
C1495 C1496 1.397 . S
C1495 C1500 1.363 . S
C1496 H1473 0.950 . S
C1496 C1495 1.397 . S
C1496 C1497 1.334 . S
C1497 H1474 0.950 . S
C1497 C1496 1.334 . S
C1497 C1498 1.287 . S
C1498 C1497 1.287 . S
C1498 C1499 1.524 . S
C1498 H1517 0.913 . S
C1499 H1475 0.950 . S
C1499 C1498 1.524 . S
C1499 C1500 1.415 . S
C1500 H1476 0.950 . S
C1500 C1495 1.363 . S
C1500 C1499 1.415 . S
C1501 H1477 0.951 . S
C1501 C1502 1.366 . S
C1501 C1503 1.388 . S
C1502 C1501 1.366 . S
C1502 C1506 1.385 . S
C1503 H1478 0.951 . S
C1503 C1501 1.388 . S
C1503 C1504 1.366 . S
C1504 C1503 1.366 . S
C1504 C1505 1.414 . S
C1504 C1507 1.499 . S
C1505 H1479 0.950 . S
C1505 C1504 1.414 . S
C1505 C1506 1.374 . S
C1506 H1480 0.950 . S
C1506 C1502 1.385 . S
C1506 C1505 1.374 . S
C1507 C1504 1.499 . S
C1507 C1508 1.373 . S
C1507 C1509 1.389 . S
C1508 H1481 0.950 . S
C1508 C1494 1.377 . S
C1508 C1507 1.373 . S
C1509 C1493 1.377 . S
C1509 C1507 1.389 . S
C1509 C1510 1.524 . S
C1510 C1509 1.524 . S
C1510 C1511 1.397 . S
C1510 C1515 1.363 . S
C1511 H1482 0.950 . S
C1511 C1510 1.397 . S
C1511 C1512 1.334 . S
C1512 H1483 0.950 . S
C1512 C1511 1.334 . S
C1512 C1513 1.287 . S
C1513 C1512 1.287 . S
C1513 C1514 1.524 . S
C1513 H1516 0.999 . S
C1514 H1484 0.950 . S
C1514 C1513 1.524 . S
C1514 C1515 1.415 . S
C1515 H1485 0.950 . S
C1515 C1510 1.363 . S
C1515 C1514 1.415 . S
H1516 C1513 0.999 . S
H1517 C1498 0.913 . S
H1518 C1536 0.951 . S
H1519 C1538 0.951 . S
H1520 C1540 0.950 . S
H1521 C1541 0.950 . S
H1522 C1543 0.950 . S
H1523 C1546 0.950 . S
H1524 C1547 0.950 . S
H1525 C1549 0.950 . S
H1526 C1550 0.950 . S
H1527 C1551 0.951 . S
H1528 C1553 0.951 . S
H1529 C1555 0.950 . S
H1530 C1556 0.950 . S
H1531 C1558 0.950 . S
H1532 C1561 0.950 . S
H1533 C1562 0.950 . S
H1534 C1564 0.950 . S
H1535 C1565 0.950 . S
C1536 H1518 0.951 . S
C1536 C1537 1.366 . S
C1536 C1538 1.388 . S
C1537 C1536 1.366 . S
C1537 C1541 1.385 . S
C1538 H1519 0.951 . S
C1538 C1536 1.388 . S
C1538 C1539 1.366 . S
C1539 C1538 1.366 . S
C1539 C1540 1.414 . S
C1539 C1542 1.499 . S
C1540 H1520 0.950 . S
C1540 C1539 1.414 . S
C1540 C1541 1.374 . S
C1541 H1521 0.950 . S
C1541 C1537 1.385 . S
C1541 C1540 1.374 . S
C1542 C1539 1.499 . S
C1542 C1543 1.373 1_655 S
C1542 C1544 1.389 . S
C1543 H1522 0.950 . S
C1543 C1542 1.373 1_455 S
C1543 C1559 1.377 . S
C1544 C1542 1.389 . S
C1544 C1545 1.524 . S
C1544 C1558 1.377 1_655 S
C1545 C1544 1.524 . S
C1545 C1546 1.397 . S
C1545 C1550 1.363 . S
C1546 H1523 0.950 . S
C1546 C1545 1.397 . S
C1546 C1547 1.334 . S
C1547 H1524 0.950 . S
C1547 C1546 1.334 . S
C1547 C1548 1.287 . S
C1548 C1547 1.287 . S
C1548 C1549 1.524 . S
C1548 H1567 0.913 . S
C1549 H1525 0.950 . S
C1549 C1548 1.524 . S
C1549 C1550 1.415 . S
C1550 H1526 0.950 . S
C1550 C1545 1.363 . S
C1550 C1549 1.415 . S
C1551 H1527 0.951 . S
C1551 C1552 1.366 . S
C1551 C1553 1.388 . S
C1552 C1551 1.366 . S
C1552 C1556 1.385 . S
C1553 H1528 0.951 . S
C1553 C1551 1.388 . S
C1553 C1554 1.366 . S
C1554 C1553 1.366 . S
C1554 C1555 1.414 . S
C1554 C1557 1.499 . S
C1555 H1529 0.950 . S
C1555 C1554 1.414 . S
C1555 C1556 1.374 . S
C1556 H1530 0.950 . S
C1556 C1552 1.385 . S
C1556 C1555 1.374 . S
C1557 C1554 1.499 . S
C1557 C1558 1.373 . S
C1557 C1559 1.389 . S
C1558 H1531 0.950 . S
C1558 C1544 1.377 1_455 S
C1558 C1557 1.373 . S
C1559 C1543 1.377 . S
C1559 C1557 1.389 . S
C1559 C1560 1.524 . S
C1560 C1559 1.524 . S
C1560 C1561 1.397 . S
C1560 C1565 1.363 . S
C1561 H1532 0.950 . S
C1561 C1560 1.397 . S
C1561 C1562 1.334 . S
C1562 H1533 0.950 . S
C1562 C1561 1.334 . S
C1562 C1563 1.287 . S
C1563 C1562 1.287 . S
C1563 C1564 1.524 . S
C1563 H1566 0.999 . S
C1564 H1534 0.950 . S
C1564 C1563 1.524 . S
C1564 C1565 1.415 . S
C1565 H1535 0.950 . S
C1565 C1560 1.363 . S
C1565 C1564 1.415 . S
H1566 C1563 0.999 . S
H1567 C1548 0.913 . S
H1568 C1586 0.951 . S
H1569 C1588 0.951 . S
H1570 C1590 0.950 . S
H1571 C1591 0.950 . S
H1572 C1593 0.950 . S
H1573 C1596 0.950 . S
H1574 C1597 0.950 . S
H1575 C1599 0.950 . S
H1576 C1600 0.950 . S
H1577 C1601 0.951 . S
H1578 C1603 0.951 . S
H1579 C1605 0.950 . S
H1580 C1606 0.950 . S
H1581 C1608 0.950 . S
H1582 C1611 0.950 . S
H1583 C1612 0.950 . S
H1584 C1614 0.950 . S
H1585 C1615 0.950 . S
C1586 H1568 0.951 . S
C1586 C1587 1.366 . S
C1586 C1588 1.388 . S
C1587 C1586 1.366 . S
C1587 C1591 1.385 . S
C1588 H1569 0.951 . S
C1588 C1586 1.388 . S
C1588 C1589 1.366 . S
C1589 C1588 1.366 . S
C1589 C1590 1.414 . S
C1589 C1592 1.499 . S
C1590 H1570 0.950 . S
C1590 C1589 1.414 . S
C1590 C1591 1.374 . S
C1591 H1571 0.950 . S
C1591 C1587 1.385 . S
C1591 C1590 1.374 . S
C1592 C1589 1.499 . S
C1592 C1593 1.373 . S
C1592 C1594 1.389 . S
C1593 H1572 0.950 . S
C1593 C1592 1.373 . S
C1593 C1609 1.377 . S
C1594 C1592 1.389 . S
C1594 C1595 1.524 . S
C1594 C1608 1.377 . S
C1595 C1594 1.524 . S
C1595 C1596 1.397 . S
C1595 C1600 1.363 . S
C1596 H1573 0.950 . S
C1596 C1595 1.397 . S
C1596 C1597 1.334 . S
C1597 H1574 0.950 . S
C1597 C1596 1.334 . S
C1597 C1598 1.287 . S
C1598 C1597 1.287 . S
C1598 C1599 1.524 . S
C1598 H1617 0.913 . S
C1599 H1575 0.950 . S
C1599 C1598 1.524 . S
C1599 C1600 1.415 . S
C1600 H1576 0.950 . S
C1600 C1595 1.363 . S
C1600 C1599 1.415 . S
C1601 H1577 0.951 . S
C1601 C1602 1.366 . S
C1601 C1603 1.388 . S
C1602 C1601 1.366 . S
C1602 C1606 1.385 . S
C1603 H1578 0.951 . S
C1603 C1601 1.388 . S
C1603 C1604 1.366 . S
C1604 C1603 1.366 . S
C1604 C1605 1.414 . S
C1604 C1607 1.499 . S
C1605 H1579 0.950 . S
C1605 C1604 1.414 . S
C1605 C1606 1.374 . S
C1606 H1580 0.950 . S
C1606 C1602 1.385 . S
C1606 C1605 1.374 . S
C1607 C1604 1.499 . S
C1607 C1608 1.373 . S
C1607 C1609 1.389 . S
C1608 H1581 0.950 . S
C1608 C1594 1.377 . S
C1608 C1607 1.373 . S
C1609 C1593 1.377 . S
C1609 C1607 1.389 . S
C1609 C1610 1.524 . S
C1610 C1609 1.524 . S
C1610 C1611 1.397 . S
C1610 C1615 1.363 . S
C1611 H1582 0.950 . S
C1611 C1610 1.397 . S
C1611 C1612 1.334 . S
C1612 H1583 0.950 . S
C1612 C1611 1.334 . S
C1612 C1613 1.287 . S
C1613 C1612 1.287 . S
C1613 C1614 1.524 . S
C1613 H1616 0.999 . S
C1614 H1584 0.950 . S
C1614 C1613 1.524 . S
C1614 C1615 1.415 . S
C1615 H1585 0.950 . S
C1615 C1610 1.363 . S
C1615 C1614 1.415 . S
H1616 C1613 0.999 . S
H1617 C1598 0.913 . S
H1618 C1636 0.951 . S
H1619 C1638 0.951 . S
H1620 C1640 0.950 . S
H1621 C1641 0.950 . S
H1622 C1643 0.950 1_545 S
H1623 C1646 0.950 . S
H1624 C1647 0.950 . S
H1625 C1649 0.950 . S
H1626 C1650 0.950 . S
H1627 C1651 0.951 . S
H1628 C1653 0.951 . S
H1629 C1655 0.950 . S
H1630 C1656 0.950 . S
H1631 C1658 0.950 . S
H1632 C1661 0.950 . S
H1633 C1662 0.950 . S
H1634 C1664 0.950 . S
H1635 C1665 0.950 . S
C1636 H1618 0.951 . S
C1636 C1637 1.366 . S
C1636 C1638 1.388 . S
C1637 C1636 1.366 . S
C1637 C1641 1.385 . S
C1638 H1619 0.951 . S
C1638 C1636 1.388 . S
C1638 C1639 1.366 . S
C1639 C1638 1.366 . S
C1639 C1640 1.414 . S
C1639 C1642 1.499 . S
C1640 H1620 0.950 . S
C1640 C1639 1.414 . S
C1640 C1641 1.374 . S
C1641 H1621 0.950 . S
C1641 C1637 1.385 . S
C1641 C1640 1.374 . S
C1642 C1639 1.499 . S
C1642 C1643 1.373 1_545 S
C1642 C1644 1.389 . S
C1643 H1622 0.950 1_565 S
C1643 C1642 1.373 1_565 S
C1643 C1659 1.377 . S
C1644 C1642 1.389 . S
C1644 C1645 1.524 . S
C1644 C1658 1.377 1_545 S
C1645 C1644 1.524 . S
C1645 C1646 1.397 . S
C1645 C1650 1.363 . S
C1646 H1623 0.950 . S
C1646 C1645 1.397 . S
C1646 C1647 1.334 . S
C1647 H1624 0.950 . S
C1647 C1646 1.334 . S
C1647 C1648 1.287 . S
C1648 C1647 1.287 . S
C1648 C1649 1.524 . S
C1648 H1667 0.913 . S
C1649 H1625 0.950 . S
C1649 C1648 1.524 . S
C1649 C1650 1.415 . S
C1650 H1626 0.950 . S
C1650 C1645 1.363 . S
C1650 C1649 1.415 . S
C1651 H1627 0.951 . S
C1651 C1652 1.366 . S
C1651 C1653 1.388 . S
C1652 C1651 1.366 . S
C1652 C1656 1.385 . S
C1653 H1628 0.951 . S
C1653 C1651 1.388 . S
C1653 C1654 1.366 . S
C1654 C1653 1.366 . S
C1654 C1655 1.414 . S
C1654 C1657 1.499 . S
C1655 H1629 0.950 . S
C1655 C1654 1.414 . S
C1655 C1656 1.374 . S
C1656 H1630 0.950 . S
C1656 C1652 1.385 . S
C1656 C1655 1.374 . S
C1657 C1654 1.499 . S
C1657 C1658 1.373 . S
C1657 C1659 1.389 . S
C1658 H1631 0.950 . S
C1658 C1644 1.377 1_565 S
C1658 C1657 1.373 . S
C1659 C1643 1.377 . S
C1659 C1657 1.389 . S
C1659 C1660 1.524 . S
C1660 C1659 1.524 . S
C1660 C1661 1.397 . S
C1660 C1665 1.363 . S
C1661 H1632 0.950 . S
C1661 C1660 1.397 . S
C1661 C1662 1.334 . S
C1662 H1633 0.950 . S
C1662 C1661 1.334 . S
C1662 C1663 1.287 . S
C1663 C1662 1.287 . S
C1663 C1664 1.524 . S
C1663 H1666 0.999 . S
C1664 H1634 0.950 . S
C1664 C1663 1.524 . S
C1664 C1665 1.415 . S
C1665 H1635 0.950 . S
C1665 C1660 1.363 . S
C1665 C1664 1.415 . S
H1666 C1663 0.999 . S
H1667 C1648 0.913 . S
H1668 C1686 0.951 . S
H1669 C1688 0.951 . S
H1670 C1690 0.950 . S
H1671 C1691 0.950 . S
H1672 C1693 0.950 . S
H1673 C1696 0.950 . S
H1674 C1697 0.950 . S
H1675 C1699 0.950 . S
H1676 C1700 0.950 . S
H1677 C1701 0.951 . S
H1678 C1703 0.951 . S
H1679 C1705 0.950 . S
H1680 C1706 0.950 . S
H1681 C1708 0.950 . S
H1682 C1711 0.950 . S
H1683 C1712 0.950 . S
H1684 C1714 0.950 . S
H1685 C1715 0.950 . S
C1686 H1668 0.951 . S
C1686 C1687 1.366 . S
C1686 C1688 1.388 . S
C1687 C1686 1.366 . S
C1687 C1691 1.385 . S
C1688 H1669 0.951 . S
C1688 C1686 1.388 . S
C1688 C1689 1.366 . S
C1689 C1688 1.366 . S
C1689 C1690 1.414 . S
C1689 C1692 1.499 . S
C1690 H1670 0.950 . S
C1690 C1689 1.414 . S
C1690 C1691 1.374 . S
C1691 H1671 0.950 . S
C1691 C1687 1.385 . S
C1691 C1690 1.374 . S
C1692 C1689 1.499 . S
C1692 C1693 1.373 . S
C1692 C1694 1.389 . S
C1693 H1672 0.950 . S
C1693 C1692 1.373 . S
C1693 C1709 1.377 . S
C1694 C1692 1.389 . S
C1694 C1695 1.524 . S
C1694 C1708 1.377 . S
C1695 C1694 1.524 . S
C1695 C1696 1.397 . S
C1695 C1700 1.363 . S
C1696 H1673 0.950 . S
C1696 C1695 1.397 . S
C1696 C1697 1.334 . S
C1697 H1674 0.950 . S
C1697 C1696 1.334 . S
C1697 C1698 1.287 . S
C1698 C1697 1.287 . S
C1698 C1699 1.524 . S
C1698 H1717 0.913 . S
C1699 H1675 0.950 . S
C1699 C1698 1.524 . S
C1699 C1700 1.415 . S
C1700 H1676 0.950 . S
C1700 C1695 1.363 . S
C1700 C1699 1.415 . S
C1701 H1677 0.951 . S
C1701 C1702 1.366 . S
C1701 C1703 1.388 . S
C1702 C1701 1.366 . S
C1702 C1706 1.385 . S
C1703 H1678 0.951 . S
C1703 C1701 1.388 . S
C1703 C1704 1.366 . S
C1704 C1703 1.366 . S
C1704 C1705 1.414 . S
C1704 C1707 1.499 . S
C1705 H1679 0.950 . S
C1705 C1704 1.414 . S
C1705 C1706 1.374 . S
C1706 H1680 0.950 . S
C1706 C1702 1.385 . S
C1706 C1705 1.374 . S
C1707 C1704 1.499 . S
C1707 C1708 1.373 . S
C1707 C1709 1.389 . S
C1708 H1681 0.950 . S
C1708 C1694 1.377 . S
C1708 C1707 1.373 . S
C1709 C1693 1.377 . S
C1709 C1707 1.389 . S
C1709 C1710 1.524 . S
C1710 C1709 1.524 . S
C1710 C1711 1.397 . S
C1710 C1715 1.363 . S
C1711 H1682 0.950 . S
C1711 C1710 1.397 . S
C1711 C1712 1.334 . S
C1712 H1683 0.950 . S
C1712 C1711 1.334 . S
C1712 C1713 1.287 . S
C1713 C1712 1.287 . S
C1713 C1714 1.524 . S
C1713 H1716 0.999 . S
C1714 H1684 0.950 . S
C1714 C1713 1.524 . S
C1714 C1715 1.415 . S
C1715 H1685 0.950 . S
C1715 C1710 1.363 . S
C1715 C1714 1.415 . S
H1716 C1713 0.999 . S
H1717 C1698 0.913 . S
H1718 C1736 0.951 . S
H1719 C1738 0.951 . S
H1720 C1740 0.950 . S
H1721 C1741 0.950 . S
H1722 C1743 0.950 . S
H1723 C1746 0.950 . S
H1724 C1747 0.950 . S
H1725 C1749 0.950 . S
H1726 C1750 0.950 . S
H1727 C1751 0.951 . S
H1728 C1753 0.951 . S
H1729 C1755 0.950 . S
H1730 C1756 0.950 . S
H1731 C1758 0.950 . S
H1732 C1761 0.950 . S
H1733 C1762 0.950 . S
H1734 C1764 0.950 . S
H1735 C1765 0.950 . S
C1736 H1718 0.951 . S
C1736 C1737 1.366 . S
C1736 C1738 1.388 . S
C1737 C1736 1.366 . S
C1737 C1741 1.385 . S
C1738 H1719 0.951 . S
C1738 C1736 1.388 . S
C1738 C1739 1.366 . S
C1739 C1738 1.366 . S
C1739 C1740 1.414 . S
C1739 C1742 1.499 . S
C1740 H1720 0.950 . S
C1740 C1739 1.414 . S
C1740 C1741 1.374 . S
C1741 H1721 0.950 . S
C1741 C1737 1.385 . S
C1741 C1740 1.374 . S
C1742 C1739 1.499 . S
C1742 C1743 1.373 . S
C1742 C1744 1.389 . S
C1743 H1722 0.950 . S
C1743 C1742 1.373 . S
C1743 C1759 1.377 . S
C1744 C1742 1.389 . S
C1744 C1745 1.524 . S
C1744 C1758 1.377 . S
C1745 C1744 1.524 . S
C1745 C1746 1.397 . S
C1745 C1750 1.363 . S
C1746 H1723 0.950 . S
C1746 C1745 1.397 . S
C1746 C1747 1.334 . S
C1747 H1724 0.950 . S
C1747 C1746 1.334 . S
C1747 C1748 1.287 . S
C1748 C1747 1.287 . S
C1748 C1749 1.524 . S
C1748 H1767 0.913 . S
C1749 H1725 0.950 . S
C1749 C1748 1.524 . S
C1749 C1750 1.415 . S
C1750 H1726 0.950 . S
C1750 C1745 1.363 . S
C1750 C1749 1.415 . S
C1751 H1727 0.951 . S
C1751 C1752 1.366 . S
C1751 C1753 1.388 . S
C1752 C1751 1.366 . S
C1752 C1756 1.385 . S
C1753 H1728 0.951 . S
C1753 C1751 1.388 . S
C1753 C1754 1.366 . S
C1754 C1753 1.366 . S
C1754 C1755 1.414 . S
C1754 C1757 1.499 . S
C1755 H1729 0.950 . S
C1755 C1754 1.414 . S
C1755 C1756 1.374 . S
C1756 H1730 0.950 . S
C1756 C1752 1.385 . S
C1756 C1755 1.374 . S
C1757 C1754 1.499 . S
C1757 C1758 1.373 . S
C1757 C1759 1.389 . S
C1758 H1731 0.950 . S
C1758 C1744 1.377 . S
C1758 C1757 1.373 . S
C1759 C1743 1.377 . S
C1759 C1757 1.389 . S
C1759 C1760 1.524 . S
C1760 C1759 1.524 . S
C1760 C1761 1.397 . S
C1760 C1765 1.363 . S
C1761 H1732 0.950 . S
C1761 C1760 1.397 . S
C1761 C1762 1.334 . S
C1762 H1733 0.950 . S
C1762 C1761 1.334 . S
C1762 C1763 1.287 . S
C1763 C1762 1.287 . S
C1763 C1764 1.524 . S
C1763 H1766 0.999 . S
C1764 H1734 0.950 . S
C1764 C1763 1.524 . S
C1764 C1765 1.415 . S
C1765 H1735 0.950 . S
C1765 C1760 1.363 . S
C1765 C1764 1.415 . S
H1766 C1763 0.999 . S
H1767 C1748 0.913 . S
H1768 C1786 0.951 . S
H1769 C1788 0.951 . S
H1770 C1790 0.950 . S
H1771 C1791 0.950 . S
H1772 C1793 0.950 . S
H1773 C1796 0.950 . S
H1774 C1797 0.950 . S
H1775 C1799 0.950 . S
H1776 C1800 0.950 . S
H1777 C1801 0.951 . S
H1778 C1803 0.951 . S
H1779 C1805 0.950 . S
H1780 C1806 0.950 . S
H1781 C1808 0.950 . S
H1782 C1811 0.950 . S
H1783 C1812 0.950 . S
H1784 C1814 0.950 . S
H1785 C1815 0.950 . S
C1786 H1768 0.951 . S
C1786 C1787 1.366 . S
C1786 C1788 1.388 . S
C1787 C1786 1.366 . S
C1787 C1791 1.385 . S
C1788 H1769 0.951 . S
C1788 C1786 1.388 . S
C1788 C1789 1.366 . S
C1789 C1788 1.366 . S
C1789 C1790 1.414 . S
C1789 C1792 1.499 . S
C1790 H1770 0.950 . S
C1790 C1789 1.414 . S
C1790 C1791 1.374 . S
C1791 H1771 0.950 . S
C1791 C1787 1.385 . S
C1791 C1790 1.374 . S
C1792 C1789 1.499 . S
C1792 C1793 1.373 . S
C1792 C1794 1.389 . S
C1793 H1772 0.950 . S
C1793 C1792 1.373 . S
C1793 C1809 1.377 . S
C1794 C1792 1.389 . S
C1794 C1795 1.524 . S
C1794 C1808 1.377 . S
C1795 C1794 1.524 . S
C1795 C1796 1.397 . S
C1795 C1800 1.363 . S
C1796 H1773 0.950 . S
C1796 C1795 1.397 . S
C1796 C1797 1.334 . S
C1797 H1774 0.950 . S
C1797 C1796 1.334 . S
C1797 C1798 1.287 . S
C1798 C1797 1.287 . S
C1798 C1799 1.524 . S
C1798 H1817 0.913 . S
C1799 H1775 0.950 . S
C1799 C1798 1.524 . S
C1799 C1800 1.415 . S
C1800 H1776 0.950 . S
C1800 C1795 1.363 . S
C1800 C1799 1.415 . S
C1801 H1777 0.951 . S
C1801 C1802 1.366 . S
C1801 C1803 1.388 . S
C1802 C1801 1.366 . S
C1802 C1806 1.385 . S
C1803 H1778 0.951 . S
C1803 C1801 1.388 . S
C1803 C1804 1.366 . S
C1804 C1803 1.366 . S
C1804 C1805 1.414 . S
C1804 C1807 1.499 . S
C1805 H1779 0.950 . S
C1805 C1804 1.414 . S
C1805 C1806 1.374 . S
C1806 H1780 0.950 . S
C1806 C1802 1.385 . S
C1806 C1805 1.374 . S
C1807 C1804 1.499 . S
C1807 C1808 1.373 . S
C1807 C1809 1.389 . S
C1808 H1781 0.950 . S
C1808 C1794 1.377 . S
C1808 C1807 1.373 . S
C1809 C1793 1.377 . S
C1809 C1807 1.389 . S
C1809 C1810 1.524 . S
C1810 C1809 1.524 . S
C1810 C1811 1.397 . S
C1810 C1815 1.363 . S
C1811 H1782 0.950 . S
C1811 C1810 1.397 . S
C1811 C1812 1.334 . S
C1812 H1783 0.950 . S
C1812 C1811 1.334 . S
C1812 C1813 1.287 . S
C1813 C1812 1.287 . S
C1813 C1814 1.524 . S
C1813 H1816 0.999 . S
C1814 H1784 0.950 . S
C1814 C1813 1.524 . S
C1814 C1815 1.415 . S
C1815 H1785 0.950 . S
C1815 C1810 1.363 . S
C1815 C1814 1.415 . S
H1816 C1813 0.999 . S
H1817 C1798 0.913 . S
H1818 C1836 0.951 . S
H1819 C1838 0.951 . S
H1820 C1840 0.950 . S
H1821 C1841 0.950 . S
H1822 C1843 0.950 . S
H1823 C1846 0.950 . S
H1824 C1847 0.950 . S
H1825 C1849 0.950 . S
H1826 C1850 0.950 . S
H1827 C1851 0.951 . S
H1828 C1853 0.951 . S
H1829 C1855 0.950 . S
H1830 C1856 0.950 . S
H1831 C1858 0.950 . S
H1832 C1861 0.950 . S
H1833 C1862 0.950 . S
H1834 C1864 0.950 . S
H1835 C1865 0.950 . S
C1836 H1818 0.951 . S
C1836 C1837 1.366 . S
C1836 C1838 1.388 . S
C1837 C1836 1.366 . S
C1837 C1841 1.385 . S
C1838 H1819 0.951 . S
C1838 C1836 1.388 . S
C1838 C1839 1.366 . S
C1839 C1838 1.366 . S
C1839 C1840 1.414 . S
C1839 C1842 1.499 . S
C1840 H1820 0.950 . S
C1840 C1839 1.414 . S
C1840 C1841 1.374 . S
C1841 H1821 0.950 . S
C1841 C1837 1.385 . S
C1841 C1840 1.374 . S
C1842 C1839 1.499 . S
C1842 C1843 1.373 . S
C1842 C1844 1.389 . S
C1843 H1822 0.950 . S
C1843 C1842 1.373 . S
C1843 C1859 1.377 . S
C1844 C1842 1.389 . S
C1844 C1845 1.524 . S
C1844 C1858 1.377 . S
C1845 C1844 1.524 . S
C1845 C1846 1.397 . S
C1845 C1850 1.363 . S
C1846 H1823 0.950 . S
C1846 C1845 1.397 . S
C1846 C1847 1.334 . S
C1847 H1824 0.950 . S
C1847 C1846 1.334 . S
C1847 C1848 1.287 . S
C1848 C1847 1.287 . S
C1848 C1849 1.524 . S
C1848 H1867 0.913 . S
C1849 H1825 0.950 . S
C1849 C1848 1.524 . S
C1849 C1850 1.415 . S
C1850 H1826 0.950 . S
C1850 C1845 1.363 . S
C1850 C1849 1.415 . S
C1851 H1827 0.951 . S
C1851 C1852 1.366 . S
C1851 C1853 1.388 . S
C1852 C1851 1.366 . S
C1852 C1856 1.385 . S
C1853 H1828 0.951 . S
C1853 C1851 1.388 . S
C1853 C1854 1.366 . S
C1854 C1853 1.366 . S
C1854 C1855 1.414 . S
C1854 C1857 1.499 . S
C1855 H1829 0.950 . S
C1855 C1854 1.414 . S
C1855 C1856 1.374 . S
C1856 H1830 0.950 . S
C1856 C1852 1.385 . S
C1856 C1855 1.374 . S
C1857 C1854 1.499 . S
C1857 C1858 1.373 . S
C1857 C1859 1.389 . S
C1858 H1831 0.950 . S
C1858 C1844 1.377 . S
C1858 C1857 1.373 . S
C1859 C1843 1.377 . S
C1859 C1857 1.389 . S
C1859 C1860 1.524 . S
C1860 C1859 1.524 . S
C1860 C1861 1.397 . S
C1860 C1865 1.363 . S
C1861 H1832 0.950 . S
C1861 C1860 1.397 . S
C1861 C1862 1.334 . S
C1862 H1833 0.950 . S
C1862 C1861 1.334 . S
C1862 C1863 1.287 . S
C1863 C1862 1.287 . S
C1863 C1864 1.524 . S
C1863 H1866 0.999 . S
C1864 H1834 0.950 . S
C1864 C1863 1.524 . S
C1864 C1865 1.415 . S
C1865 H1835 0.950 . S
C1865 C1860 1.363 . S
C1865 C1864 1.415 . S
H1866 C1863 0.999 . S
H1867 C1848 0.913 . S
H1868 C1886 0.951 . S
H1869 C1888 0.951 . S
H1870 C1890 0.950 . S
H1871 C1891 0.950 . S
H1872 C1893 0.950 . S
H1873 C1896 0.950 . S
H1874 C1897 0.950 . S
H1875 C1899 0.950 . S
H1876 C1900 0.950 . S
H1877 C1901 0.951 . S
H1878 C1903 0.951 . S
H1879 C1905 0.950 . S
H1880 C1906 0.950 . S
H1881 C1908 0.950 . S
H1882 C1911 0.950 . S
H1883 C1912 0.950 . S
H1884 C1914 0.950 . S
H1885 C1915 0.950 . S
C1886 H1868 0.951 . S
C1886 C1887 1.366 . S
C1886 C1888 1.388 . S
C1887 C1886 1.366 . S
C1887 C1891 1.385 . S
C1888 H1869 0.951 . S
C1888 C1886 1.388 . S
C1888 C1889 1.366 . S
C1889 C1888 1.366 . S
C1889 C1890 1.414 . S
C1889 C1892 1.499 . S
C1890 H1870 0.950 . S
C1890 C1889 1.414 . S
C1890 C1891 1.374 . S
C1891 H1871 0.950 . S
C1891 C1887 1.385 . S
C1891 C1890 1.374 . S
C1892 C1889 1.499 . S
C1892 C1893 1.373 . S
C1892 C1894 1.389 . S
C1893 H1872 0.950 . S
C1893 C1892 1.373 . S
C1893 C1909 1.377 . S
C1894 C1892 1.389 . S
C1894 C1895 1.524 . S
C1894 C1908 1.377 . S
C1895 C1894 1.524 . S
C1895 C1896 1.397 . S
C1895 C1900 1.363 . S
C1896 H1873 0.950 . S
C1896 C1895 1.397 . S
C1896 C1897 1.334 . S
C1897 H1874 0.950 . S
C1897 C1896 1.334 . S
C1897 C1898 1.287 . S
C1898 C1897 1.287 . S
C1898 C1899 1.524 . S
C1898 H1917 0.913 . S
C1899 H1875 0.950 . S
C1899 C1898 1.524 . S
C1899 C1900 1.415 . S
C1900 H1876 0.950 . S
C1900 C1895 1.363 . S
C1900 C1899 1.415 . S
C1901 H1877 0.951 . S
C1901 C1902 1.366 . S
C1901 C1903 1.388 . S
C1902 C1901 1.366 . S
C1902 C1906 1.385 . S
C1903 H1878 0.951 . S
C1903 C1901 1.388 . S
C1903 C1904 1.366 . S
C1904 C1903 1.366 . S
C1904 C1905 1.414 . S
C1904 C1907 1.499 . S
C1905 H1879 0.950 . S
C1905 C1904 1.414 . S
C1905 C1906 1.374 . S
C1906 H1880 0.950 . S
C1906 C1902 1.385 . S
C1906 C1905 1.374 . S
C1907 C1904 1.499 . S
C1907 C1908 1.373 . S
C1907 C1909 1.389 . S
C1908 H1881 0.950 . S
C1908 C1894 1.377 . S
C1908 C1907 1.373 . S
C1909 C1893 1.377 . S
C1909 C1907 1.389 . S
C1909 C1910 1.524 . S
C1910 C1909 1.524 . S
C1910 C1911 1.397 . S
C1910 C1915 1.363 . S
C1911 H1882 0.950 . S
C1911 C1910 1.397 . S
C1911 C1912 1.334 . S
C1912 H1883 0.950 . S
C1912 C1911 1.334 . S
C1912 C1913 1.287 . S
C1913 C1912 1.287 . S
C1913 C1914 1.524 . S
C1913 H1916 0.999 . S
C1914 H1884 0.950 . S
C1914 C1913 1.524 . S
C1914 C1915 1.415 . S
C1915 H1885 0.950 . S
C1915 C1910 1.363 . S
C1915 C1914 1.415 . S
H1916 C1913 0.999 . S
H1917 C1898 0.913 . S
H1918 C1936 0.951 . S
H1919 C1938 0.951 . S
H1920 C1940 0.950 . S
H1921 C1941 0.950 . S
H1922 C1943 0.950 . S
H1923 C1946 0.950 . S
H1924 C1947 0.950 . S
H1925 C1949 0.950 . S
H1926 C1950 0.950 . S
H1927 C1951 0.951 . S
H1928 C1953 0.951 . S
H1929 C1955 0.950 . S
H1930 C1956 0.950 . S
H1931 C1958 0.950 . S
H1932 C1961 0.950 . S
H1933 C1962 0.950 . S
H1934 C1964 0.950 . S
H1935 C1965 0.950 . S
C1936 H1918 0.951 . S
C1936 C1937 1.366 . S
C1936 C1938 1.388 . S
C1937 C1936 1.366 . S
C1937 C1941 1.385 . S
C1938 H1919 0.951 . S
C1938 C1936 1.388 . S
C1938 C1939 1.366 . S
C1939 C1938 1.366 . S
C1939 C1940 1.414 . S
C1939 C1942 1.499 . S
C1940 H1920 0.950 . S
C1940 C1939 1.414 . S
C1940 C1941 1.374 . S
C1941 H1921 0.950 . S
C1941 C1937 1.385 . S
C1941 C1940 1.374 . S
C1942 C1939 1.499 . S
C1942 C1943 1.373 . S
C1942 C1944 1.389 . S
C1943 H1922 0.950 . S
C1943 C1942 1.373 . S
C1943 C1959 1.377 . S
C1944 C1942 1.389 . S
C1944 C1945 1.524 . S
C1944 C1958 1.377 . S
C1945 C1944 1.524 . S
C1945 C1946 1.397 . S
C1945 C1950 1.363 . S
C1946 H1923 0.950 . S
C1946 C1945 1.397 . S
C1946 C1947 1.334 . S
C1947 H1924 0.950 . S
C1947 C1946 1.334 . S
C1947 C1948 1.287 . S
C1948 C1947 1.287 . S
C1948 C1949 1.524 . S
C1948 H1967 0.913 . S
C1949 H1925 0.950 . S
C1949 C1948 1.524 . S
C1949 C1950 1.415 . S
C1950 H1926 0.950 . S
C1950 C1945 1.363 . S
C1950 C1949 1.415 . S
C1951 H1927 0.951 . S
C1951 C1952 1.366 . S
C1951 C1953 1.388 . S
C1952 C1951 1.366 . S
C1952 C1956 1.385 . S
C1953 H1928 0.951 . S
C1953 C1951 1.388 . S
C1953 C1954 1.366 . S
C1954 C1953 1.366 . S
C1954 C1955 1.414 . S
C1954 C1957 1.499 . S
C1955 H1929 0.950 . S
C1955 C1954 1.414 . S
C1955 C1956 1.374 . S
C1956 H1930 0.950 . S
C1956 C1952 1.385 . S
C1956 C1955 1.374 . S
C1957 C1954 1.499 . S
C1957 C1958 1.373 . S
C1957 C1959 1.389 . S
C1958 H1931 0.950 . S
C1958 C1944 1.377 . S
C1958 C1957 1.373 . S
C1959 C1943 1.377 . S
C1959 C1957 1.389 . S
C1959 C1960 1.524 . S
C1960 C1959 1.524 . S
C1960 C1961 1.397 . S
C1960 C1965 1.363 . S
C1961 H1932 0.950 . S
C1961 C1960 1.397 . S
C1961 C1962 1.334 . S
C1962 H1933 0.950 . S
C1962 C1961 1.334 . S
C1962 C1963 1.287 . S
C1963 C1962 1.287 . S
C1963 C1964 1.524 . S
C1963 H1966 0.999 . S
C1964 H1934 0.950 . S
C1964 C1963 1.524 . S
C1964 C1965 1.415 . S
C1965 H1935 0.950 . S
C1965 C1960 1.363 . S
C1965 C1964 1.415 . S
H1966 C1963 0.999 . S
H1967 C1948 0.913 . S
H1968 C1986 0.951 . S
H1969 C1988 0.951 . S
H1970 C1990 0.950 . S
H1971 C1991 0.950 . S
H1972 C1993 0.950 1_545 S
H1973 C1996 0.950 . S
H1974 C1997 0.950 . S
H1975 C1999 0.950 . S
H1976 C2000 0.950 1_565 S
H1977 C2001 0.951 . S
H1978 C2003 0.951 . S
H1979 C2005 0.950 . S
H1980 C2006 0.950 . S
H1981 C2008 0.950 . S
H1982 C2011 0.950 . S
H1983 C2012 0.950 . S
H1984 C2014 0.950 . S
H1985 C2015 0.950 . S
C1986 H1968 0.951 . S
C1986 C1987 1.366 . S
C1986 C1988 1.388 . S
C1987 C1986 1.366 . S
C1987 C1991 1.385 . S
C1988 H1969 0.951 . S
C1988 C1986 1.388 . S
C1988 C1989 1.366 . S
C1989 C1988 1.366 . S
C1989 C1990 1.414 . S
C1989 C1992 1.499 . S
C1990 H1970 0.950 . S
C1990 C1989 1.414 . S
C1990 C1991 1.374 . S
C1991 H1971 0.950 . S
C1991 C1987 1.385 . S
C1991 C1990 1.374 . S
C1992 C1989 1.499 . S
C1992 C1993 1.373 1_545 S
C1992 C1994 1.389 . S
C1993 H1972 0.950 1_565 S
C1993 C1992 1.373 1_565 S
C1993 C2009 1.377 . S
C1994 C1992 1.389 . S
C1994 C1995 1.524 . S
C1994 C2008 1.377 1_545 S
C1995 C1994 1.524 . S
C1995 C1996 1.397 . S
C1995 C2000 1.363 . S
C1996 H1973 0.950 . S
C1996 C1995 1.397 . S
C1996 C1997 1.334 . S
C1997 H1974 0.950 . S
C1997 C1996 1.334 . S
C1997 C1998 1.287 . S
C1998 C1997 1.287 . S
C1998 C1999 1.524 . S
C1998 H2017 0.913 . S
C1999 H1975 0.950 . S
C1999 C1998 1.524 . S
C1999 C2000 1.415 . S
C2000 H1976 0.950 1_545 S
C2000 C1995 1.363 . S
C2000 C1999 1.415 . S
C2001 H1977 0.951 . S
C2001 C2002 1.366 . S
C2001 C2003 1.388 . S
C2002 C2001 1.366 . S
C2002 C2006 1.385 . S
C2003 H1978 0.951 . S
C2003 C2001 1.388 . S
C2003 C2004 1.366 . S
C2004 C2003 1.366 . S
C2004 C2005 1.414 . S
C2004 C2007 1.499 . S
C2005 H1979 0.950 . S
C2005 C2004 1.414 . S
C2005 C2006 1.374 . S
C2006 H1980 0.950 . S
C2006 C2002 1.385 . S
C2006 C2005 1.374 . S
C2007 C2004 1.499 . S
C2007 C2008 1.373 . S
C2007 C2009 1.389 . S
C2008 H1981 0.950 . S
C2008 C1994 1.377 1_565 S
C2008 C2007 1.373 . S
C2009 C1993 1.377 . S
C2009 C2007 1.389 . S
C2009 C2010 1.524 . S
C2010 C2009 1.524 . S
C2010 C2011 1.397 . S
C2010 C2015 1.363 . S
C2011 H1982 0.950 . S
C2011 C2010 1.397 . S
C2011 C2012 1.334 . S
C2012 H1983 0.950 . S
C2012 C2011 1.334 . S
C2012 C2013 1.287 . S
C2013 C2012 1.287 . S
C2013 C2014 1.524 . S
C2013 H2016 0.999 . S
C2014 H1984 0.950 . S
C2014 C2013 1.524 . S
C2014 C2015 1.415 . S
C2015 H1985 0.950 . S
C2015 C2010 1.363 . S
C2015 C2014 1.415 . S
H2016 C2013 0.999 . S
H2017 C1998 0.913 . S
H2018 C2036 0.951 . S
H2019 C2038 0.951 . S
H2020 C2040 0.950 . S
H2021 C2041 0.950 . S
H2022 C2043 0.950 . S
H2023 C2046 0.950 . S
H2024 C2047 0.950 . S
H2025 C2049 0.950 . S
H2026 C2050 0.968 . S
H2027 C2051 0.951 . S
H2028 C2053 0.951 . S
H2029 C2055 0.950 . S
H2030 C2056 0.950 . S
H2031 C2058 0.950 . S
H2032 C2061 0.950 . S
H2033 C2062 0.950 . S
H2034 C2064 0.950 . S
H2035 C2065 0.950 . S
C2036 H2018 0.951 . S
C2036 C2037 1.366 . S
C2036 C2038 1.388 . S
C2037 C2036 1.366 . S
C2037 C2041 1.385 . S
C2038 H2019 0.951 . S
C2038 C2036 1.388 . S
C2038 C2039 1.366 . S
C2039 C2038 1.366 . S
C2039 C2040 1.414 . S
C2039 C2042 1.499 . S
C2040 H2020 0.950 . S
C2040 C2039 1.414 . S
C2040 C2041 1.374 . S
C2041 H2021 0.950 . S
C2041 C2037 1.385 . S
C2041 C2040 1.374 . S
C2042 C2039 1.499 . S
C2042 C2043 1.373 1_655 S
C2042 C2044 1.389 . S
C2043 H2022 0.950 . S
C2043 C2042 1.373 1_455 S
C2043 C2059 1.377 . S
C2044 C2042 1.389 . S
C2044 C2045 1.525 . S
C2044 C2058 1.375 1_655 S
C2045 C2044 1.525 . S
C2045 C2046 1.397 . S
C2045 C2050 1.363 . S
C2046 H2023 0.950 . S
C2046 C2045 1.397 . S
C2046 C2047 1.334 . S
C2047 H2024 0.950 . S
C2047 C2046 1.334 . S
C2047 C2048 1.287 . S
C2048 C2047 1.287 . S
C2048 C2049 1.524 . S
C2048 H2067 0.913 . S
C2049 H2025 0.950 . S
C2049 C2048 1.524 . S
C2049 C2050 1.415 . S
C2050 H2026 0.968 . S
C2050 C2045 1.363 . S
C2050 C2049 1.415 . S
C2051 H2027 0.951 . S
C2051 C2052 1.366 . S
C2051 C2053 1.388 . S
C2052 C2051 1.366 . S
C2052 C2056 1.385 . S
C2053 H2028 0.951 . S
C2053 C2051 1.388 . S
C2053 C2054 1.366 . S
C2054 C2053 1.366 . S
C2054 C2055 1.414 . S
C2054 C2057 1.499 . S
C2055 H2029 0.950 . S
C2055 C2054 1.414 . S
C2055 C2056 1.374 . S
C2056 H2030 0.950 . S
C2056 C2052 1.385 . S
C2056 C2055 1.374 . S
C2057 C2054 1.499 . S
C2057 C2058 1.373 . S
C2057 C2059 1.389 . S
C2058 H2031 0.950 . S
C2058 C2044 1.375 1_455 S
C2058 C2057 1.373 . S
C2059 C2043 1.377 . S
C2059 C2057 1.389 . S
C2059 C2060 1.524 . S
C2060 C2059 1.524 . S
C2060 C2061 1.397 . S
C2060 C2065 1.363 . S
C2061 H2032 0.950 . S
C2061 C2060 1.397 . S
C2061 C2062 1.334 . S
C2062 H2033 0.950 . S
C2062 C2061 1.334 . S
C2062 C2063 1.287 . S
C2063 C2062 1.287 . S
C2063 C2064 1.524 . S
C2063 H2066 0.999 . S
C2064 H2034 0.950 . S
C2064 C2063 1.524 . S
C2064 C2065 1.415 . S
C2065 H2035 0.950 . S
C2065 C2060 1.363 . S
C2065 C2064 1.415 . S
H2066 C2063 0.999 . S
H2067 C2048 0.913 . S
H2068 C2086 0.951 . S
H2069 C2088 0.951 . S
H2070 C2090 0.950 . S
H2071 C2091 0.950 . S
H2072 C2093 0.950 . S
H2073 C2096 0.950 . S
H2074 C2097 0.950 . S
H2075 C2099 0.950 . S
H2076 C2100 0.950 . S
H2077 C2101 0.951 . S
H2078 C2103 0.951 . S
H2079 C2105 0.950 . S
H2080 C2106 0.950 . S
H2081 C2108 0.950 . S
H2082 C2111 0.950 . S
H2083 C2112 0.950 . S
H2084 C2114 0.950 . S
H2085 C2115 0.950 . S
C2086 H2068 0.951 . S
C2086 C2087 1.366 . S
C2086 C2088 1.388 . S
C2087 C2086 1.366 . S
C2087 C2091 1.385 . S
C2088 H2069 0.951 . S
C2088 C2086 1.388 . S
C2088 C2089 1.366 . S
C2089 C2088 1.366 . S
C2089 C2090 1.414 . S
C2089 C2092 1.499 . S
C2090 H2070 0.950 . S
C2090 C2089 1.414 . S
C2090 C2091 1.374 . S
C2091 H2071 0.950 . S
C2091 C2087 1.385 . S
C2091 C2090 1.374 . S
C2092 C2089 1.499 . S
C2092 C2093 1.373 . S
C2092 C2094 1.389 . S
C2093 H2072 0.950 . S
C2093 C2092 1.373 . S
C2093 C2109 1.377 . S
C2094 C2092 1.389 . S
C2094 C2095 1.524 . S
C2094 C2108 1.377 . S
C2095 C2094 1.524 . S
C2095 C2096 1.397 . S
C2095 C2100 1.363 . S
C2096 H2073 0.950 . S
C2096 C2095 1.397 . S
C2096 C2097 1.334 . S
C2097 H2074 0.950 . S
C2097 C2096 1.334 . S
C2097 C2098 1.287 . S
C2098 C2097 1.287 . S
C2098 C2099 1.524 . S
C2098 H2117 0.913 . S
C2099 H2075 0.950 . S
C2099 C2098 1.524 . S
C2099 C2100 1.415 . S
C2100 H2076 0.950 . S
C2100 C2095 1.363 . S
C2100 C2099 1.415 . S
C2101 H2077 0.951 . S
C2101 C2102 1.366 . S
C2101 C2103 1.388 . S
C2102 C2101 1.366 . S
C2102 C2106 1.385 . S
C2103 H2078 0.951 . S
C2103 C2101 1.388 . S
C2103 C2104 1.366 . S
C2104 C2103 1.366 . S
C2104 C2105 1.414 . S
C2104 C2107 1.499 . S
C2105 H2079 0.950 . S
C2105 C2104 1.414 . S
C2105 C2106 1.374 . S
C2106 H2080 0.950 . S
C2106 C2102 1.385 . S
C2106 C2105 1.374 . S
C2107 C2104 1.499 . S
C2107 C2108 1.373 . S
C2107 C2109 1.389 . S
C2108 H2081 0.950 . S
C2108 C2094 1.377 . S
C2108 C2107 1.373 . S
C2109 C2093 1.377 . S
C2109 C2107 1.389 . S
C2109 C2110 1.524 . S
C2110 C2109 1.524 . S
C2110 C2111 1.397 . S
C2110 C2115 1.363 . S
C2111 H2082 0.950 . S
C2111 C2110 1.397 . S
C2111 C2112 1.334 . S
C2112 H2083 0.950 . S
C2112 C2111 1.334 . S
C2112 C2113 1.287 . S
C2113 C2112 1.287 . S
C2113 C2114 1.524 . S
C2113 H2116 0.999 . S
C2114 H2084 0.950 . S
C2114 C2113 1.524 . S
C2114 C2115 1.415 . S
C2115 H2085 0.950 . S
C2115 C2110 1.363 . S
C2115 C2114 1.415 . S
H2116 C2113 0.999 . S
H2117 C2098 0.913 . S
H2118 C2136 0.951 . S
H2119 C2138 0.951 . S
H2120 C2140 0.950 . S
H2121 C2141 0.950 . S
H2122 C2143 0.950 . S
H2123 C2146 0.950 . S
H2124 C2147 0.950 . S
H2125 C2149 0.950 . S
H2126 C2150 0.950 . S
H2127 C2151 0.951 . S
H2128 C2153 0.951 . S
H2129 C2155 0.950 . S
H2130 C2156 0.950 . S
H2131 C2158 0.950 . S
H2132 C2161 0.950 . S
H2133 C2162 0.950 . S
H2134 C2164 0.950 . S
H2135 C2165 0.950 . S
C2136 H2118 0.951 . S
C2136 C2137 1.366 . S
C2136 C2138 1.388 . S
C2137 C2136 1.366 . S
C2137 C2141 1.385 . S
C2138 H2119 0.951 . S
C2138 C2136 1.388 . S
C2138 C2139 1.366 . S
C2139 C2138 1.366 . S
C2139 C2140 1.414 . S
C2139 C2142 1.499 . S
C2140 H2120 0.950 . S
C2140 C2139 1.414 . S
C2140 C2141 1.374 . S
C2141 H2121 0.950 . S
C2141 C2137 1.385 . S
C2141 C2140 1.374 . S
C2142 C2139 1.499 . S
C2142 C2143 1.373 . S
C2142 C2144 1.389 . S
C2143 H2122 0.950 . S
C2143 C2142 1.373 . S
C2143 C2159 1.377 . S
C2144 C2142 1.389 . S
C2144 C2145 1.524 . S
C2144 C2158 1.377 . S
C2145 C2144 1.524 . S
C2145 C2146 1.397 . S
C2145 C2150 1.363 . S
C2146 H2123 0.950 . S
C2146 C2145 1.397 . S
C2146 C2147 1.334 . S
C2147 H2124 0.950 . S
C2147 C2146 1.334 . S
C2147 C2148 1.287 . S
C2148 C2147 1.287 . S
C2148 C2149 1.524 . S
C2148 H2167 0.913 . S
C2149 H2125 0.950 . S
C2149 C2148 1.524 . S
C2149 C2150 1.415 . S
C2150 H2126 0.950 . S
C2150 C2145 1.363 . S
C2150 C2149 1.415 . S
C2151 H2127 0.951 . S
C2151 C2152 1.366 . S
C2151 C2153 1.388 . S
C2152 C2151 1.366 . S
C2152 C2156 1.385 . S
C2153 H2128 0.951 . S
C2153 C2151 1.388 . S
C2153 C2154 1.366 . S
C2154 C2153 1.366 . S
C2154 C2155 1.414 . S
C2154 C2157 1.499 . S
C2155 H2129 0.950 . S
C2155 C2154 1.414 . S
C2155 C2156 1.374 . S
C2156 H2130 0.950 . S
C2156 C2152 1.385 . S
C2156 C2155 1.374 . S
C2157 C2154 1.499 . S
C2157 C2158 1.373 . S
C2157 C2159 1.389 . S
C2158 H2131 0.950 . S
C2158 C2144 1.377 . S
C2158 C2157 1.373 . S
C2159 C2143 1.377 . S
C2159 C2157 1.389 . S
C2159 C2160 1.524 . S
C2160 C2159 1.524 . S
C2160 C2161 1.397 . S
C2160 C2165 1.363 . S
C2161 H2132 0.950 . S
C2161 C2160 1.397 . S
C2161 C2162 1.334 . S
C2162 H2133 0.950 . S
C2162 C2161 1.334 . S
C2162 C2163 1.287 . S
C2163 C2162 1.287 . S
C2163 C2164 1.524 . S
C2163 H2166 0.999 . S
C2164 H2134 0.950 . S
C2164 C2163 1.524 . S
C2164 C2165 1.415 . S
C2165 H2135 0.950 . S
C2165 C2160 1.363 . S
C2165 C2164 1.415 . S
H2166 C2163 0.999 . S
H2167 C2148 0.913 . S
H2168 C2186 0.951 . S
H2169 C2188 0.951 . S
H2170 C2190 0.950 . S
H2171 C2191 0.950 . S
H2172 C2193 0.950 . S
H2173 C2196 0.950 . S
H2174 C2197 0.950 . S
H2175 C2199 0.950 . S
H2176 C2200 0.950 . S
H2177 C2201 0.951 . S
H2178 C2203 0.951 . S
H2179 C2205 0.950 . S
H2180 C2206 0.950 . S
H2181 C2208 0.950 . S
H2182 C2211 0.950 . S
H2183 C2212 0.950 . S
H2184 C2214 0.950 . S
H2185 C2215 0.950 . S
C2186 H2168 0.951 . S
C2186 C2187 1.366 . S
C2186 C2188 1.388 . S
C2187 C2186 1.366 . S
C2187 C2191 1.385 . S
C2188 H2169 0.951 . S
C2188 C2186 1.388 . S
C2188 C2189 1.366 . S
C2189 C2188 1.366 . S
C2189 C2190 1.414 . S
C2189 C2192 1.499 . S
C2190 H2170 0.950 . S
C2190 C2189 1.414 . S
C2190 C2191 1.374 . S
C2191 H2171 0.950 . S
C2191 C2187 1.385 . S
C2191 C2190 1.374 . S
C2192 C2189 1.499 . S
C2192 C2193 1.373 . S
C2192 C2194 1.389 . S
C2193 H2172 0.950 . S
C2193 C2192 1.373 . S
C2193 C2209 1.377 . S
C2194 C2192 1.389 . S
C2194 C2195 1.524 . S
C2194 C2208 1.377 . S
C2195 C2194 1.524 . S
C2195 C2196 1.397 . S
C2195 C2200 1.363 . S
C2196 H2173 0.950 . S
C2196 C2195 1.397 . S
C2196 C2197 1.334 . S
C2197 H2174 0.950 . S
C2197 C2196 1.334 . S
C2197 C2198 1.287 . S
C2198 C2197 1.287 . S
C2198 C2199 1.524 . S
C2198 H2217 0.913 . S
C2199 H2175 0.950 . S
C2199 C2198 1.524 . S
C2199 C2200 1.415 . S
C2200 H2176 0.950 . S
C2200 C2195 1.363 . S
C2200 C2199 1.415 . S
C2201 H2177 0.951 . S
C2201 C2202 1.366 . S
C2201 C2203 1.388 . S
C2202 C2201 1.366 . S
C2202 C2206 1.385 . S
C2203 H2178 0.951 . S
C2203 C2201 1.388 . S
C2203 C2204 1.366 . S
C2204 C2203 1.366 . S
C2204 C2205 1.414 . S
C2204 C2207 1.499 . S
C2205 H2179 0.950 . S
C2205 C2204 1.414 . S
C2205 C2206 1.374 . S
C2206 H2180 0.950 . S
C2206 C2202 1.385 . S
C2206 C2205 1.374 . S
C2207 C2204 1.499 . S
C2207 C2208 1.373 . S
C2207 C2209 1.389 . S
C2208 H2181 0.950 . S
C2208 C2194 1.377 . S
C2208 C2207 1.373 . S
C2209 C2193 1.377 . S
C2209 C2207 1.389 . S
C2209 C2210 1.524 . S
C2210 C2209 1.524 . S
C2210 C2211 1.397 . S
C2210 C2215 1.363 . S
C2211 H2182 0.950 . S
C2211 C2210 1.397 . S
C2211 C2212 1.334 . S
C2212 H2183 0.950 . S
C2212 C2211 1.334 . S
C2212 C2213 1.287 . S
C2213 C2212 1.287 . S
C2213 C2214 1.524 . S
C2213 H2216 0.999 . S
C2214 H2184 0.950 . S
C2214 C2213 1.524 . S
C2214 C2215 1.415 . S
C2215 H2185 0.950 . S
C2215 C2210 1.363 . S
C2215 C2214 1.415 . S
H2216 C2213 0.999 . S
H2217 C2198 0.913 . S
H2218 C2236 0.951 . S
H2219 C2238 0.951 . S
H2220 C2240 0.950 . S
H2221 C2241 0.950 . S
H2222 C2243 0.950 . S
H2223 C2246 0.950 . S
H2224 C2247 0.950 . S
H2225 C2249 0.950 . S
H2226 C2250 0.950 . S
H2227 C2251 0.951 . S
H2228 C2253 0.951 . S
H2229 C2255 0.950 . S
H2230 C2256 0.950 . S
H2231 C2258 0.950 . S
H2232 C2261 0.950 . S
H2233 C2262 0.950 . S
H2234 C2264 0.950 . S
H2235 C2265 0.950 . S
C2236 H2218 0.951 . S
C2236 C2237 1.366 . S
C2236 C2238 1.388 . S
C2237 C2236 1.366 . S
C2237 C2241 1.385 . S
C2238 H2219 0.951 . S
C2238 C2236 1.388 . S
C2238 C2239 1.366 . S
C2239 C2238 1.366 . S
C2239 C2240 1.414 . S
C2239 C2242 1.499 . S
C2240 H2220 0.950 . S
C2240 C2239 1.414 . S
C2240 C2241 1.374 . S
C2241 H2221 0.950 . S
C2241 C2237 1.385 . S
C2241 C2240 1.374 . S
C2242 C2239 1.499 . S
C2242 C2243 1.373 . S
C2242 C2244 1.389 . S
C2243 H2222 0.950 . S
C2243 C2242 1.373 . S
C2243 C2259 1.377 . S
C2244 C2242 1.389 . S
C2244 C2245 1.524 . S
C2244 C2258 1.377 . S
C2245 C2244 1.524 . S
C2245 C2246 1.397 . S
C2245 C2250 1.363 . S
C2246 H2223 0.950 . S
C2246 C2245 1.397 . S
C2246 C2247 1.334 . S
C2247 H2224 0.950 . S
C2247 C2246 1.334 . S
C2247 C2248 1.287 . S
C2248 C2247 1.287 . S
C2248 C2249 1.524 . S
C2248 H2267 0.913 . S
C2249 H2225 0.950 . S
C2249 C2248 1.524 . S
C2249 C2250 1.415 . S
C2250 H2226 0.950 . S
C2250 C2245 1.363 . S
C2250 C2249 1.415 . S
C2251 H2227 0.951 . S
C2251 C2252 1.366 . S
C2251 C2253 1.388 . S
C2252 C2251 1.366 . S
C2252 C2256 1.385 . S
C2253 H2228 0.951 . S
C2253 C2251 1.388 . S
C2253 C2254 1.366 . S
C2254 C2253 1.366 . S
C2254 C2255 1.414 . S
C2254 C2257 1.499 . S
C2255 H2229 0.950 . S
C2255 C2254 1.414 . S
C2255 C2256 1.374 . S
C2256 H2230 0.950 . S
C2256 C2252 1.385 . S
C2256 C2255 1.374 . S
C2257 C2254 1.499 . S
C2257 C2258 1.373 . S
C2257 C2259 1.389 . S
C2258 H2231 0.950 . S
C2258 C2244 1.377 . S
C2258 C2257 1.373 . S
C2259 C2243 1.377 . S
C2259 C2257 1.389 . S
C2259 C2260 1.524 . S
C2260 C2259 1.524 . S
C2260 C2261 1.397 . S
C2260 C2265 1.363 . S
C2261 H2232 0.950 . S
C2261 C2260 1.397 . S
C2261 C2262 1.334 . S
C2262 H2233 0.950 . S
C2262 C2261 1.334 . S
C2262 C2263 1.287 . S
C2263 C2262 1.287 . S
C2263 C2264 1.524 . S
C2263 H2266 0.999 . S
C2264 H2234 0.950 . S
C2264 C2263 1.524 . S
C2264 C2265 1.415 . S
C2265 H2235 0.950 . S
C2265 C2260 1.363 . S
C2265 C2264 1.415 . S
H2266 C2263 0.999 . S
H2267 C2248 0.913 . S
H2268 C2286 0.951 . S
H2269 C2288 0.951 . S
H2270 C2290 0.950 . S
H2271 C2291 0.950 . S
H2272 C2293 0.950 . S
H2273 C2296 0.950 . S
H2274 C2297 0.950 . S
H2275 C2299 0.946 . S
H2276 C2300 0.950 . S
H2277 C2301 0.951 . S
H2278 C2303 0.951 . S
H2279 C2305 0.950 . S
H2280 C2306 0.950 . S
H2281 C2308 0.950 . S
H2282 C2311 0.950 . S
H2283 C2312 0.950 . S
H2284 C2314 0.950 . S
H2285 C2315 0.950 . S
C2286 H2268 0.951 . S
C2286 C2287 1.366 . S
C2286 C2288 1.388 . S
C2287 C2286 1.366 . S
C2287 C2291 1.385 . S
C2288 H2269 0.951 . S
C2288 C2286 1.388 . S
C2288 C2289 1.366 . S
C2289 C2288 1.366 . S
C2289 C2290 1.414 . S
C2289 C2292 1.499 . S
C2290 H2270 0.950 . S
C2290 C2289 1.414 . S
C2290 C2291 1.374 . S
C2291 H2271 0.950 . S
C2291 C2287 1.385 . S
C2291 C2290 1.374 . S
C2292 C2289 1.499 . S
C2292 C2293 1.373 . S
C2292 C2294 1.389 1_565 S
C2293 H2272 0.950 . S
C2293 C2292 1.373 . S
C2293 C2309 1.377 1_565 S
C2294 C2292 1.389 1_545 S
C2294 C2295 1.524 . S
C2294 C2308 1.377 . S
C2295 C2294 1.524 . S
C2295 C2296 1.397 1_545 S
C2295 C2300 1.363 . S
C2296 H2273 0.950 . S
C2296 C2295 1.397 1_565 S
C2296 C2297 1.334 . S
C2297 H2274 0.950 . S
C2297 C2296 1.334 . S
C2297 C2298 1.287 . S
C2298 C2297 1.287 . S
C2298 C2299 1.524 . S
C2298 H2317 0.913 . S
C2299 H2275 0.946 . S
C2299 C2298 1.524 . S
C2299 C2300 1.421 1_565 S
C2300 H2276 0.950 . S
C2300 C2295 1.363 . S
C2300 C2299 1.421 1_545 S
C2301 H2277 0.951 . S
C2301 C2302 1.366 . S
C2301 C2303 1.388 . S
C2302 C2301 1.366 . S
C2302 C2306 1.385 . S
C2303 H2278 0.951 . S
C2303 C2301 1.388 . S
C2303 C2304 1.366 . S
C2304 C2303 1.366 . S
C2304 C2305 1.414 . S
C2304 C2307 1.499 . S
C2305 H2279 0.950 . S
C2305 C2304 1.414 . S
C2305 C2306 1.374 . S
C2306 H2280 0.950 . S
C2306 C2302 1.385 . S
C2306 C2305 1.374 . S
C2307 C2304 1.499 . S
C2307 C2308 1.373 . S
C2307 C2309 1.389 . S
C2308 H2281 0.950 . S
C2308 C2294 1.377 . S
C2308 C2307 1.373 . S
C2309 C2293 1.377 1_545 S
C2309 C2307 1.389 . S
C2309 C2310 1.524 . S
C2310 C2309 1.524 . S
C2310 C2311 1.397 . S
C2310 C2315 1.363 . S
C2311 H2282 0.950 . S
C2311 C2310 1.397 . S
C2311 C2312 1.334 . S
C2312 H2283 0.950 . S
C2312 C2311 1.334 . S
C2312 C2313 1.287 . S
C2313 C2312 1.287 . S
C2313 C2314 1.524 . S
C2313 H2316 0.999 . S
C2314 H2284 0.950 . S
C2314 C2313 1.524 . S
C2314 C2315 1.415 . S
C2315 H2285 0.950 . S
C2315 C2310 1.363 . S
C2315 C2314 1.415 . S
H2316 C2313 0.999 . S
H2317 C2298 0.913 . S
H2318 C2336 0.951 . S
H2319 C2338 0.951 . S
H2320 C2340 0.950 . S
H2321 C2341 0.950 . S
H2322 C2343 0.950 . S
H2323 C2346 0.950 . S
H2324 C2347 0.950 . S
H2325 C2349 0.950 . S
H2326 C2350 0.950 . S
H2327 C2351 0.951 . S
H2328 C2353 0.951 . S
H2329 C2355 0.950 . S
H2330 C2356 0.950 . S
H2331 C2358 0.950 . S
H2332 C2361 0.950 . S
H2333 C2362 0.950 . S
H2334 C2364 0.950 . S
H2335 C2365 0.950 . S
C2336 H2318 0.951 . S
C2336 C2337 1.366 . S
C2336 C2338 1.388 . S
C2337 C2336 1.366 . S
C2337 C2341 1.385 . S
C2338 H2319 0.951 . S
C2338 C2336 1.388 . S
C2338 C2339 1.366 . S
C2339 C2338 1.366 . S
C2339 C2340 1.414 . S
C2339 C2342 1.499 . S
C2340 H2320 0.950 . S
C2340 C2339 1.414 . S
C2340 C2341 1.374 . S
C2341 H2321 0.950 . S
C2341 C2337 1.385 . S
C2341 C2340 1.374 . S
C2342 C2339 1.499 . S
C2342 C2343 1.373 1_455 S
C2342 C2344 1.389 1_455 S
C2343 H2322 0.950 . S
C2343 C2342 1.373 1_655 S
C2343 C2359 1.377 . S
C2344 C2342 1.389 1_655 S
C2344 C2345 1.523 1_655 S
C2344 C2358 1.378 . S
C2345 C2344 1.523 1_455 S
C2345 C2346 1.397 . S
C2345 C2350 1.363 . S
C2346 H2323 0.950 . S
C2346 C2345 1.397 . S
C2346 C2347 1.334 . S
C2347 H2324 0.950 . S
C2347 C2346 1.334 . S
C2347 C2348 1.287 . S
C2348 C2347 1.287 . S
C2348 C2349 1.524 . S
C2348 H2367 0.913 . S
C2349 H2325 0.950 . S
C2349 C2348 1.524 . S
C2349 C2350 1.415 . S
C2350 H2326 0.950 . S
C2350 C2345 1.363 . S
C2350 C2349 1.415 . S
C2351 H2327 0.951 . S
C2351 C2352 1.366 . S
C2351 C2353 1.388 . S
C2352 C2351 1.366 . S
C2352 C2356 1.385 . S
C2353 H2328 0.951 . S
C2353 C2351 1.388 . S
C2353 C2354 1.366 . S
C2354 C2353 1.366 . S
C2354 C2355 1.414 . S
C2354 C2357 1.499 . S
C2355 H2329 0.950 . S
C2355 C2354 1.414 . S
C2355 C2356 1.374 . S
C2356 H2330 0.950 . S
C2356 C2352 1.385 . S
C2356 C2355 1.374 . S
C2357 C2354 1.499 . S
C2357 C2358 1.373 . S
C2357 C2359 1.389 . S
C2358 H2331 0.950 . S
C2358 C2344 1.378 . S
C2358 C2357 1.373 . S
C2359 C2343 1.377 . S
C2359 C2357 1.389 . S
C2359 C2360 1.524 . S
C2360 C2359 1.524 . S
C2360 C2361 1.397 . S
C2360 C2365 1.363 . S
C2361 H2332 0.950 . S
C2361 C2360 1.397 . S
C2361 C2362 1.334 . S
C2362 H2333 0.950 . S
C2362 C2361 1.334 . S
C2362 C2363 1.287 . S
C2363 C2362 1.287 . S
C2363 C2364 1.524 . S
C2363 H2366 0.999 . S
C2364 H2334 0.950 . S
C2364 C2363 1.524 . S
C2364 C2365 1.415 . S
C2365 H2335 0.950 . S
C2365 C2360 1.363 . S
C2365 C2364 1.415 . S
H2366 C2363 0.999 . S
H2367 C2348 0.913 . S
H2368 C2386 0.951 . S
H2369 C2388 0.951 . S
H2370 C2390 0.950 . S
H2371 C2391 0.950 . S
H2372 C2393 0.950 . S
H2373 C2396 0.950 . S
H2374 C2397 0.950 . S
H2375 C2399 0.950 . S
H2376 C2400 0.950 . S
H2377 C2401 0.951 . S
H2378 C2403 0.951 . S
H2379 C2405 0.950 . S
H2380 C2406 0.950 . S
H2381 C2408 0.950 . S
H2382 C2411 0.950 . S
H2383 C2412 0.950 . S
H2384 C2414 0.950 . S
H2385 C2415 0.950 . S
C2386 H2368 0.951 . S
C2386 C2387 1.366 . S
C2386 C2388 1.388 . S
C2387 C2386 1.366 . S
C2387 C2391 1.385 . S
C2388 H2369 0.951 . S
C2388 C2386 1.388 . S
C2388 C2389 1.366 . S
C2389 C2388 1.366 . S
C2389 C2390 1.414 . S
C2389 C2392 1.499 . S
C2390 H2370 0.950 . S
C2390 C2389 1.414 . S
C2390 C2391 1.374 . S
C2391 H2371 0.950 . S
C2391 C2387 1.385 . S
C2391 C2390 1.374 . S
C2392 C2389 1.499 . S
C2392 C2393 1.373 . S
C2392 C2394 1.389 . S
C2393 H2372 0.950 . S
C2393 C2392 1.373 . S
C2393 C2409 1.377 . S
C2394 C2392 1.389 . S
C2394 C2395 1.524 . S
C2394 C2408 1.377 . S
C2395 C2394 1.524 . S
C2395 C2396 1.397 . S
C2395 C2400 1.363 . S
C2396 H2373 0.950 . S
C2396 C2395 1.397 . S
C2396 C2397 1.334 . S
C2397 H2374 0.950 . S
C2397 C2396 1.334 . S
C2397 C2398 1.287 . S
C2398 C2397 1.287 . S
C2398 C2399 1.524 . S
C2398 H2417 0.913 . S
C2399 H2375 0.950 . S
C2399 C2398 1.524 . S
C2399 C2400 1.415 . S
C2400 H2376 0.950 . S
C2400 C2395 1.363 . S
C2400 C2399 1.415 . S
C2401 H2377 0.951 . S
C2401 C2402 1.366 . S
C2401 C2403 1.388 . S
C2402 C2401 1.366 . S
C2402 C2406 1.385 . S
C2403 H2378 0.951 . S
C2403 C2401 1.388 . S
C2403 C2404 1.366 . S
C2404 C2403 1.366 . S
C2404 C2405 1.414 . S
C2404 C2407 1.499 . S
C2405 H2379 0.950 . S
C2405 C2404 1.414 . S
C2405 C2406 1.374 . S
C2406 H2380 0.950 . S
C2406 C2402 1.385 . S
C2406 C2405 1.374 . S
C2407 C2404 1.499 . S
C2407 C2408 1.373 . S
C2407 C2409 1.389 . S
C2408 H2381 0.950 . S
C2408 C2394 1.377 . S
C2408 C2407 1.373 . S
C2409 C2393 1.377 . S
C2409 C2407 1.389 . S
C2409 C2410 1.524 . S
C2410 C2409 1.524 . S
C2410 C2411 1.397 . S
C2410 C2415 1.363 . S
C2411 H2382 0.950 . S
C2411 C2410 1.397 . S
C2411 C2412 1.334 . S
C2412 H2383 0.950 . S
C2412 C2411 1.334 . S
C2412 C2413 1.287 . S
C2413 C2412 1.287 . S
C2413 C2414 1.524 . S
C2413 H2416 0.999 . S
C2414 H2384 0.950 . S
C2414 C2413 1.524 . S
C2414 C2415 1.415 . S
C2415 H2385 0.950 . S
C2415 C2410 1.363 . S
C2415 C2414 1.415 . S
H2416 C2413 0.999 . S
H2417 C2398 0.913 . S
H2418 C2436 0.951 . S
H2419 C2438 0.951 . S
H2420 C2440 0.950 . S
H2421 C2441 0.950 . S
H2422 C2443 0.950 1_455 S
H2423 C2446 0.950 . S
H2424 C2447 0.950 . S
H2425 C2449 0.950 . S
H2426 C2450 0.951 1_655 S
H2427 C2451 0.951 . S
H2428 C2453 0.951 . S
H2429 C2455 0.950 . S
H2430 C2456 0.950 . S
H2431 C2458 0.950 . S
H2432 C2461 0.950 . S
H2433 C2462 0.950 . S
H2434 C2464 0.950 . S
H2435 C2465 0.950 . S
C2436 H2418 0.951 . S
C2436 C2437 1.366 . S
C2436 C2438 1.388 . S
C2437 C2436 1.366 . S
C2437 C2441 1.385 . S
C2438 H2419 0.951 . S
C2438 C2436 1.388 . S
C2438 C2439 1.366 . S
C2439 C2438 1.366 . S
C2439 C2440 1.414 . S
C2439 C2442 1.499 . S
C2440 H2420 0.950 . S
C2440 C2439 1.414 . S
C2440 C2441 1.374 . S
C2441 H2421 0.950 . S
C2441 C2437 1.385 . S
C2441 C2440 1.374 . S
C2442 C2439 1.499 . S
C2442 C2443 1.373 1_455 S
C2442 C2444 1.389 1_455 S
C2443 H2422 0.950 1_655 S
C2443 C2442 1.373 1_655 S
C2443 C2459 1.377 . S
C2444 C2442 1.389 1_655 S
C2444 C2445 1.524 1_655 S
C2444 C2458 1.377 . S
C2445 C2444 1.524 1_455 S
C2445 C2446 1.397 . S
C2445 C2450 1.363 . S
C2446 H2423 0.950 . S
C2446 C2445 1.397 . S
C2446 C2447 1.334 . S
C2447 H2424 0.950 . S
C2447 C2446 1.334 . S
C2447 C2448 1.287 . S
C2448 C2447 1.287 . S
C2448 C2449 1.524 . S
C2448 H2467 0.913 . S
C2449 H2425 0.950 . S
C2449 C2448 1.524 . S
C2449 C2450 1.415 . S
C2450 H2426 0.951 1_455 S
C2450 C2445 1.363 . S
C2450 C2449 1.415 . S
C2451 H2427 0.951 . S
C2451 C2452 1.366 . S
C2451 C2453 1.388 . S
C2452 C2451 1.366 . S
C2452 C2456 1.385 . S
C2453 H2428 0.951 . S
C2453 C2451 1.388 . S
C2453 C2454 1.366 . S
C2454 C2453 1.366 . S
C2454 C2455 1.414 . S
C2454 C2457 1.499 . S
C2455 H2429 0.950 . S
C2455 C2454 1.414 . S
C2455 C2456 1.374 . S
C2456 H2430 0.950 . S
C2456 C2452 1.385 . S
C2456 C2455 1.374 . S
C2457 C2454 1.499 . S
C2457 C2458 1.373 . S
C2457 C2459 1.389 . S
C2458 H2431 0.950 . S
C2458 C2444 1.377 . S
C2458 C2457 1.373 . S
C2459 C2443 1.377 . S
C2459 C2457 1.389 . S
C2459 C2460 1.524 . S
C2460 C2459 1.524 . S
C2460 C2461 1.397 . S
C2460 C2465 1.363 . S
C2461 H2432 0.950 . S
C2461 C2460 1.397 . S
C2461 C2462 1.334 . S
C2462 H2433 0.950 . S
C2462 C2461 1.334 . S
C2462 C2463 1.287 . S
C2463 C2462 1.287 . S
C2463 C2464 1.524 . S
C2463 H2466 0.999 . S
C2464 H2434 0.950 . S
C2464 C2463 1.524 . S
C2464 C2465 1.415 . S
C2465 H2435 0.950 . S
C2465 C2460 1.363 . S
C2465 C2464 1.415 . S
H2466 C2463 0.999 . S
H2467 C2448 0.913 . S
H2468 C2486 0.951 . S
H2469 C2488 0.951 . S
H2470 C2490 0.950 . S
H2471 C2491 0.950 . S
H2472 C2493 0.950 . S
H2473 C2496 0.950 . S
H2474 C2497 0.950 . S
H2475 C2499 0.950 . S
H2476 C2500 0.950 . S
H2477 C2501 0.951 . S
H2478 C2503 0.951 . S
H2479 C2505 0.950 . S
H2480 C2506 0.950 . S
H2481 C2508 0.950 . S
H2482 C2511 0.950 . S
H2483 C2512 0.950 . S
H2484 C2514 0.950 . S
H2485 C2515 0.950 . S
C2486 H2468 0.951 . S
C2486 C2487 1.366 . S
C2486 C2488 1.388 . S
C2487 C2486 1.366 . S
C2487 C2491 1.385 . S
C2488 H2469 0.951 . S
C2488 C2486 1.388 . S
C2488 C2489 1.366 . S
C2489 C2488 1.366 . S
C2489 C2490 1.414 . S
C2489 C2492 1.499 . S
C2490 H2470 0.950 . S
C2490 C2489 1.414 . S
C2490 C2491 1.374 . S
C2491 H2471 0.950 . S
C2491 C2487 1.385 . S
C2491 C2490 1.374 . S
C2492 C2489 1.499 . S
C2492 C2493 1.373 . S
C2492 C2494 1.389 . S
C2493 H2472 0.950 . S
C2493 C2492 1.373 . S
C2493 C2509 1.377 . S
C2494 C2492 1.389 . S
C2494 C2495 1.524 . S
C2494 C2508 1.377 . S
C2495 C2494 1.524 . S
C2495 C2496 1.397 . S
C2495 C2500 1.363 . S
C2496 H2473 0.950 . S
C2496 C2495 1.397 . S
C2496 C2497 1.334 . S
C2497 H2474 0.950 . S
C2497 C2496 1.334 . S
C2497 C2498 1.287 . S
C2498 C2497 1.287 . S
C2498 C2499 1.524 . S
C2498 H2517 0.913 . S
C2499 H2475 0.950 . S
C2499 C2498 1.524 . S
C2499 C2500 1.415 . S
C2500 H2476 0.950 . S
C2500 C2495 1.363 . S
C2500 C2499 1.415 . S
C2501 H2477 0.951 . S
C2501 C2502 1.366 . S
C2501 C2503 1.388 . S
C2502 C2501 1.366 . S
C2502 C2506 1.385 . S
C2503 H2478 0.951 . S
C2503 C2501 1.388 . S
C2503 C2504 1.366 . S
C2504 C2503 1.366 . S
C2504 C2505 1.414 . S
C2504 C2507 1.499 . S
C2505 H2479 0.950 . S
C2505 C2504 1.414 . S
C2505 C2506 1.374 . S
C2506 H2480 0.950 . S
C2506 C2502 1.385 . S
C2506 C2505 1.374 . S
C2507 C2504 1.499 . S
C2507 C2508 1.373 . S
C2507 C2509 1.389 . S
C2508 H2481 0.950 . S
C2508 C2494 1.377 . S
C2508 C2507 1.373 . S
C2509 C2493 1.377 . S
C2509 C2507 1.389 . S
C2509 C2510 1.524 . S
C2510 C2509 1.524 . S
C2510 C2511 1.397 . S
C2510 C2515 1.363 . S
C2511 H2482 0.950 . S
C2511 C2510 1.397 . S
C2511 C2512 1.334 . S
C2512 H2483 0.950 . S
C2512 C2511 1.334 . S
C2512 C2513 1.287 . S
C2513 C2512 1.287 . S
C2513 C2514 1.524 . S
C2513 H2516 0.999 . S
C2514 H2484 0.950 . S
C2514 C2513 1.524 . S
C2514 C2515 1.415 . S
C2515 H2485 0.950 . S
C2515 C2510 1.363 . S
C2515 C2514 1.415 . S
H2516 C2513 0.999 . S
H2517 C2498 0.913 . S
H2518 C2536 0.951 . S
H2519 C2538 0.951 . S
H2520 C2540 0.950 . S
H2521 C2541 0.950 . S
H2522 C2543 0.977 . S
H2523 C2546 0.950 . S
H2524 C2547 0.950 . S
H2525 C2549 0.950 . S
H2526 C2550 0.950 . S
H2527 C2551 0.951 . S
H2528 C2553 0.951 . S
H2529 C2555 0.950 . S
H2530 C2556 0.950 . S
H2531 C2558 0.950 . S
H2532 C2561 0.950 . S
H2533 C2562 0.950 . S
H2534 C2564 0.950 . S
H2535 C2565 0.950 . S
C2536 H2518 0.951 . S
C2536 C2537 1.366 . S
C2536 C2538 1.388 . S
C2537 C2536 1.366 . S
C2537 C2541 1.385 . S
C2538 H2519 0.951 . S
C2538 C2536 1.388 . S
C2538 C2539 1.366 . S
C2539 C2538 1.366 . S
C2539 C2540 1.414 . S
C2539 C2542 1.499 . S
C2540 H2520 0.950 . S
C2540 C2539 1.414 . S
C2540 C2541 1.374 . S
C2541 H2521 0.950 . S
C2541 C2537 1.385 . S
C2541 C2540 1.374 . S
C2542 C2539 1.499 . S
C2542 C2543 1.373 1_565 S
C2542 C2544 1.389 . S
C2543 H2522 0.977 . S
C2543 C2542 1.373 1_545 S
C2543 C2559 1.377 . S
C2544 C2542 1.389 . S
C2544 C2545 1.524 . S
C2544 C2558 1.377 1_565 S
C2545 C2544 1.524 . S
C2545 C2546 1.397 . S
C2545 C2550 1.363 . S
C2546 H2523 0.950 . S
C2546 C2545 1.397 . S
C2546 C2547 1.334 . S
C2547 H2524 0.950 . S
C2547 C2546 1.334 . S
C2547 C2548 1.287 . S
C2548 C2547 1.287 . S
C2548 C2549 1.524 . S
C2548 H2567 0.913 . S
C2549 H2525 0.950 . S
C2549 C2548 1.524 . S
C2549 C2550 1.415 . S
C2550 H2526 0.950 . S
C2550 C2545 1.363 . S
C2550 C2549 1.415 . S
C2551 H2527 0.951 . S
C2551 C2552 1.366 . S
C2551 C2553 1.388 . S
C2552 C2551 1.366 . S
C2552 C2556 1.385 . S
C2553 H2528 0.951 . S
C2553 C2551 1.388 . S
C2553 C2554 1.366 . S
C2554 C2553 1.366 . S
C2554 C2555 1.414 . S
C2554 C2557 1.499 . S
C2555 H2529 0.950 . S
C2555 C2554 1.414 . S
C2555 C2556 1.374 . S
C2556 H2530 0.950 . S
C2556 C2552 1.385 . S
C2556 C2555 1.374 . S
C2557 C2554 1.499 . S
C2557 C2558 1.373 . S
C2557 C2559 1.389 . S
C2558 H2531 0.950 . S
C2558 C2544 1.377 1_545 S
C2558 C2557 1.373 . S
C2559 C2543 1.377 . S
C2559 C2557 1.389 . S
C2559 C2560 1.524 . S
C2560 C2559 1.524 . S
C2560 C2561 1.397 . S
C2560 C2565 1.363 . S
C2561 H2532 0.950 . S
C2561 C2560 1.397 . S
C2561 C2562 1.334 . S
C2562 H2533 0.950 . S
C2562 C2561 1.334 . S
C2562 C2563 1.287 . S
C2563 C2562 1.287 . S
C2563 C2564 1.524 . S
C2563 H2566 0.999 . S
C2564 H2534 0.950 . S
C2564 C2563 1.524 . S
C2564 C2565 1.415 . S
C2565 H2535 0.950 . S
C2565 C2560 1.363 . S
C2565 C2564 1.415 . S
H2566 C2563 0.999 . S
H2567 C2548 0.913 . S
H2568 C2586 0.951 . S
H2569 C2588 0.951 . S
H2570 C2590 0.950 . S
H2571 C2591 0.950 . S
H2572 C2593 0.950 . S
H2573 C2596 0.950 . S
H2574 C2597 0.950 . S
H2575 C2599 0.950 . S
H2576 C2600 0.950 . S
H2577 C2601 0.951 . S
H2578 C2603 0.951 . S
H2579 C2605 0.950 . S
H2580 C2606 0.950 . S
H2581 C2608 0.950 . S
H2582 C2611 0.950 . S
H2583 C2612 0.950 . S
H2584 C2614 0.950 . S
H2585 C2615 0.950 . S
C2586 H2568 0.951 . S
C2586 C2587 1.366 . S
C2586 C2588 1.388 . S
C2587 C2586 1.366 . S
C2587 C2591 1.385 . S
C2588 H2569 0.951 . S
C2588 C2586 1.388 . S
C2588 C2589 1.366 . S
C2589 C2588 1.366 . S
C2589 C2590 1.414 . S
C2589 C2592 1.499 . S
C2590 H2570 0.950 . S
C2590 C2589 1.414 . S
C2590 C2591 1.374 . S
C2591 H2571 0.950 . S
C2591 C2587 1.385 . S
C2591 C2590 1.374 . S
C2592 C2589 1.499 . S
C2592 C2593 1.373 . S
C2592 C2594 1.389 . S
C2593 H2572 0.950 . S
C2593 C2592 1.373 . S
C2593 C2609 1.377 . S
C2594 C2592 1.389 . S
C2594 C2595 1.524 . S
C2594 C2608 1.377 . S
C2595 C2594 1.524 . S
C2595 C2596 1.397 . S
C2595 C2600 1.363 . S
C2596 H2573 0.950 . S
C2596 C2595 1.397 . S
C2596 C2597 1.334 . S
C2597 H2574 0.950 . S
C2597 C2596 1.334 . S
C2597 C2598 1.287 . S
C2598 C2597 1.287 . S
C2598 C2599 1.524 . S
C2598 H2617 0.913 . S
C2599 H2575 0.950 . S
C2599 C2598 1.524 . S
C2599 C2600 1.415 . S
C2600 H2576 0.950 . S
C2600 C2595 1.363 . S
C2600 C2599 1.415 . S
C2601 H2577 0.951 . S
C2601 C2602 1.366 . S
C2601 C2603 1.388 . S
C2602 C2601 1.366 . S
C2602 C2606 1.385 . S
C2603 H2578 0.951 . S
C2603 C2601 1.388 . S
C2603 C2604 1.366 . S
C2604 C2603 1.366 . S
C2604 C2605 1.414 . S
C2604 C2607 1.499 . S
C2605 H2579 0.950 . S
C2605 C2604 1.414 . S
C2605 C2606 1.374 . S
C2606 H2580 0.950 . S
C2606 C2602 1.385 . S
C2606 C2605 1.374 . S
C2607 C2604 1.499 . S
C2607 C2608 1.373 . S
C2607 C2609 1.389 . S
C2608 H2581 0.950 . S
C2608 C2594 1.377 . S
C2608 C2607 1.373 . S
C2609 C2593 1.377 . S
C2609 C2607 1.389 . S
C2609 C2610 1.524 . S
C2610 C2609 1.524 . S
C2610 C2611 1.397 . S
C2610 C2615 1.363 . S
C2611 H2582 0.950 . S
C2611 C2610 1.397 . S
C2611 C2612 1.334 . S
C2612 H2583 0.950 . S
C2612 C2611 1.334 . S
C2612 C2613 1.287 . S
C2613 C2612 1.287 . S
C2613 C2614 1.524 . S
C2613 H2616 0.999 . S
C2614 H2584 0.950 . S
C2614 C2613 1.524 . S
C2614 C2615 1.415 . S
C2615 H2585 0.950 . S
C2615 C2610 1.363 . S
C2615 C2614 1.415 . S
H2616 C2613 0.999 . S
H2617 C2598 0.913 . S
H2618 C2636 0.951 . S
H2619 C2638 0.951 . S
H2620 C2640 0.950 . S
H2621 C2641 0.950 . S
H2622 C2643 0.950 . S
H2623 C2646 0.950 . S
H2624 C2647 0.950 . S
H2625 C2649 0.950 . S
H2626 C2650 0.950 . S
H2627 C2651 0.951 . S
H2628 C2653 0.951 . S
H2629 C2655 0.950 . S
H2630 C2656 0.950 . S
H2631 C2658 0.950 . S
H2632 C2661 0.950 . S
H2633 C2662 0.950 . S
H2634 C2664 0.950 . S
H2635 C2665 0.950 . S
C2636 H2618 0.951 . S
C2636 C2637 1.366 . S
C2636 C2638 1.388 . S
C2637 C2636 1.366 . S
C2637 C2641 1.385 . S
C2638 H2619 0.951 . S
C2638 C2636 1.388 . S
C2638 C2639 1.366 . S
C2639 C2638 1.366 . S
C2639 C2640 1.414 . S
C2639 C2642 1.499 . S
C2640 H2620 0.950 . S
C2640 C2639 1.414 . S
C2640 C2641 1.374 . S
C2641 H2621 0.950 . S
C2641 C2637 1.385 . S
C2641 C2640 1.374 . S
C2642 C2639 1.499 . S
C2642 C2643 1.373 . S
C2642 C2644 1.389 . S
C2643 H2622 0.950 . S
C2643 C2642 1.373 . S
C2643 C2659 1.377 . S
C2644 C2642 1.389 . S
C2644 C2645 1.524 . S
C2644 C2658 1.377 . S
C2645 C2644 1.524 . S
C2645 C2646 1.397 . S
C2645 C2650 1.363 . S
C2646 H2623 0.950 . S
C2646 C2645 1.397 . S
C2646 C2647 1.334 . S
C2647 H2624 0.950 . S
C2647 C2646 1.334 . S
C2647 C2648 1.287 . S
C2648 C2647 1.287 . S
C2648 C2649 1.524 . S
C2648 H2667 0.913 . S
C2649 H2625 0.950 . S
C2649 C2648 1.524 . S
C2649 C2650 1.415 . S
C2650 H2626 0.950 . S
C2650 C2645 1.363 . S
C2650 C2649 1.415 . S
C2651 H2627 0.951 . S
C2651 C2652 1.366 . S
C2651 C2653 1.388 . S
C2652 C2651 1.366 . S
C2652 C2656 1.385 . S
C2653 H2628 0.951 . S
C2653 C2651 1.388 . S
C2653 C2654 1.366 . S
C2654 C2653 1.366 . S
C2654 C2655 1.414 . S
C2654 C2657 1.499 . S
C2655 H2629 0.950 . S
C2655 C2654 1.414 . S
C2655 C2656 1.374 . S
C2656 H2630 0.950 . S
C2656 C2652 1.385 . S
C2656 C2655 1.374 . S
C2657 C2654 1.499 . S
C2657 C2658 1.373 . S
C2657 C2659 1.389 . S
C2658 H2631 0.950 . S
C2658 C2644 1.377 . S
C2658 C2657 1.373 . S
C2659 C2643 1.377 . S
C2659 C2657 1.389 . S
C2659 C2660 1.524 . S
C2660 C2659 1.524 . S
C2660 C2661 1.397 . S
C2660 C2665 1.363 . S
C2661 H2632 0.950 . S
C2661 C2660 1.397 . S
C2661 C2662 1.334 . S
C2662 H2633 0.950 . S
C2662 C2661 1.334 . S
C2662 C2663 1.287 . S
C2663 C2662 1.287 . S
C2663 C2664 1.524 . S
C2663 H2666 0.999 . S
C2664 H2634 0.950 . S
C2664 C2663 1.524 . S
C2664 C2665 1.415 . S
C2665 H2635 0.950 . S
C2665 C2660 1.363 . S
C2665 C2664 1.415 . S
H2666 C2663 0.999 . S
H2667 C2648 0.913 . S
H2668 C2686 0.951 . S
H2669 C2688 0.951 . S
H2670 C2690 0.950 . S
H2671 C2691 0.950 . S
H2672 C2693 0.950 . S
H2673 C2696 0.950 . S
H2674 C2697 0.950 . S
H2675 C2699 0.950 . S
H2676 C2700 0.950 . S
H2677 C2701 0.951 . S
H2678 C2703 0.951 . S
H2679 C2705 0.950 . S
H2680 C2706 0.950 . S
H2681 C2708 0.950 . S
H2682 C2711 0.950 . S
H2683 C2712 0.950 . S
H2684 C2714 0.950 . S
H2685 C2715 0.950 . S
C2686 H2668 0.951 . S
C2686 C2687 1.366 . S
C2686 C2688 1.388 . S
C2687 C2686 1.366 . S
C2687 C2691 1.385 . S
C2688 H2669 0.951 . S
C2688 C2686 1.388 . S
C2688 C2689 1.366 . S
C2689 C2688 1.366 . S
C2689 C2690 1.414 . S
C2689 C2692 1.499 . S
C2690 H2670 0.950 . S
C2690 C2689 1.414 . S
C2690 C2691 1.374 . S
C2691 H2671 0.950 . S
C2691 C2687 1.385 . S
C2691 C2690 1.374 . S
C2692 C2689 1.499 . S
C2692 C2693 1.373 . S
C2692 C2694 1.389 . S
C2693 H2672 0.950 . S
C2693 C2692 1.373 . S
C2693 C2709 1.377 . S
C2694 C2692 1.389 . S
C2694 C2695 1.524 . S
C2694 C2708 1.377 . S
C2695 C2694 1.524 . S
C2695 C2696 1.397 . S
C2695 C2700 1.363 . S
C2696 H2673 0.950 . S
C2696 C2695 1.397 . S
C2696 C2697 1.334 . S
C2697 H2674 0.950 . S
C2697 C2696 1.334 . S
C2697 C2698 1.287 . S
C2698 C2697 1.287 . S
C2698 C2699 1.524 . S
C2698 H2717 0.913 . S
C2699 H2675 0.950 . S
C2699 C2698 1.524 . S
C2699 C2700 1.415 . S
C2700 H2676 0.950 . S
C2700 C2695 1.363 . S
C2700 C2699 1.415 . S
C2701 H2677 0.951 . S
C2701 C2702 1.366 . S
C2701 C2703 1.388 . S
C2702 C2701 1.366 . S
C2702 C2706 1.385 . S
C2703 H2678 0.951 . S
C2703 C2701 1.388 . S
C2703 C2704 1.366 . S
C2704 C2703 1.366 . S
C2704 C2705 1.414 . S
C2704 C2707 1.499 . S
C2705 H2679 0.950 . S
C2705 C2704 1.414 . S
C2705 C2706 1.374 . S
C2706 H2680 0.950 . S
C2706 C2702 1.385 . S
C2706 C2705 1.374 . S
C2707 C2704 1.499 . S
C2707 C2708 1.373 . S
C2707 C2709 1.389 . S
C2708 H2681 0.950 . S
C2708 C2694 1.377 . S
C2708 C2707 1.373 . S
C2709 C2693 1.377 . S
C2709 C2707 1.389 . S
C2709 C2710 1.524 . S
C2710 C2709 1.524 . S
C2710 C2711 1.397 . S
C2710 C2715 1.363 . S
C2711 H2682 0.950 . S
C2711 C2710 1.397 . S
C2711 C2712 1.334 . S
C2712 H2683 0.950 . S
C2712 C2711 1.334 . S
C2712 C2713 1.287 . S
C2713 C2712 1.287 . S
C2713 C2714 1.524 . S
C2713 H2716 0.999 . S
C2714 H2684 0.950 . S
C2714 C2713 1.524 . S
C2714 C2715 1.415 . S
C2715 H2685 0.950 . S
C2715 C2710 1.363 . S
C2715 C2714 1.415 . S
H2716 C2713 0.999 . S
H2717 C2698 0.913 . S
H2718 C2736 0.951 . S
H2719 C2738 0.951 . S
H2720 C2740 0.950 . S
H2721 C2741 0.950 . S
H2722 C2743 0.950 . S
H2723 C2746 0.950 . S
H2724 C2747 0.950 . S
H2725 C2749 0.950 . S
H2726 C2750 0.950 . S
H2727 C2751 0.951 1_545 S
H2728 C2753 0.951 . S
H2729 C2755 0.950 . S
H2730 C2756 0.950 . S
H2731 C2758 0.950 . S
H2732 C2761 0.950 . S
H2733 C2762 0.939 . S
H2734 C2764 0.950 . S
H2735 C2765 0.950 . S
C2736 H2718 0.951 . S
C2736 C2737 1.366 . S
C2736 C2738 1.388 . S
C2737 C2736 1.366 . S
C2737 C2741 1.385 . S
C2738 H2719 0.951 . S
C2738 C2736 1.388 . S
C2738 C2739 1.366 . S
C2739 C2738 1.366 . S
C2739 C2740 1.414 . S
C2739 C2742 1.499 . S
C2740 H2720 0.950 . S
C2740 C2739 1.414 . S
C2740 C2741 1.374 . S
C2741 H2721 0.950 . S
C2741 C2737 1.385 . S
C2741 C2740 1.374 . S
C2742 C2739 1.499 . S
C2742 C2743 1.373 . S
C2742 C2744 1.389 . S
C2743 H2722 0.950 . S
C2743 C2742 1.373 . S
C2743 C2759 1.377 . S
C2744 C2742 1.389 . S
C2744 C2745 1.524 . S
C2744 C2758 1.377 . S
C2745 C2744 1.524 . S
C2745 C2746 1.397 . S
C2745 C2750 1.363 . S
C2746 H2723 0.950 . S
C2746 C2745 1.397 . S
C2746 C2747 1.334 . S
C2747 H2724 0.950 . S
C2747 C2746 1.334 . S
C2747 C2748 1.287 . S
C2748 C2747 1.287 . S
C2748 C2749 1.524 . S
C2748 H2767 0.913 . S
C2749 H2725 0.950 . S
C2749 C2748 1.524 . S
C2749 C2750 1.415 . S
C2750 H2726 0.950 . S
C2750 C2745 1.363 . S
C2750 C2749 1.415 . S
C2751 H2727 0.951 1_565 S
C2751 C2752 1.366 . S
C2751 C2753 1.388 . S
C2752 C2751 1.366 . S
C2752 C2756 1.385 . S
C2753 H2728 0.951 . S
C2753 C2751 1.388 . S
C2753 C2754 1.366 . S
C2754 C2753 1.366 . S
C2754 C2755 1.414 . S
C2754 C2757 1.499 . S
C2755 H2729 0.950 . S
C2755 C2754 1.414 . S
C2755 C2756 1.374 . S
C2756 H2730 0.950 . S
C2756 C2752 1.385 . S
C2756 C2755 1.374 . S
C2757 C2754 1.499 . S
C2757 C2758 1.373 . S
C2757 C2759 1.389 . S
C2758 H2731 0.950 . S
C2758 C2744 1.377 . S
C2758 C2757 1.373 . S
C2759 C2743 1.377 . S
C2759 C2757 1.389 . S
C2759 C2760 1.524 . S
C2760 C2759 1.524 . S
C2760 C2761 1.397 . S
C2760 C2765 1.363 1_565 S
C2761 H2732 0.950 . S
C2761 C2760 1.397 . S
C2761 C2762 1.380 . S
C2762 H2733 0.939 . S
C2762 C2761 1.380 . S
C2762 C2763 1.253 1_565 S
C2763 C2762 1.253 1_545 S
C2763 C2764 1.524 . S
C2763 H2766 0.999 . S
C2764 H2734 0.950 . S
C2764 C2763 1.524 . S
C2764 C2765 1.415 . S
C2765 H2735 0.950 . S
C2765 C2760 1.363 1_545 S
C2765 C2764 1.415 . S
H2766 C2763 0.999 . S
H2767 C2748 0.913 . S
H2768 C2786 0.951 . S
H2769 C2788 0.951 . S
H2770 C2790 0.950 . S
H2771 C2791 0.950 . S
H2772 C2793 0.950 . S
H2773 C2796 0.950 . S
H2774 C2797 0.950 . S
H2775 C2799 0.950 . S
H2776 C2800 0.950 . S
H2777 C2801 0.951 . S
H2778 C2803 0.951 . S
H2779 C2805 0.950 . S
H2780 C2806 0.950 . S
H2781 C2808 0.950 . S
H2782 C2811 0.950 . S
H2783 C2812 0.950 . S
H2784 C2814 0.950 . S
H2785 C2815 0.950 . S
C2786 H2768 0.951 . S
C2786 C2787 1.366 . S
C2786 C2788 1.388 . S
C2787 C2786 1.366 . S
C2787 C2791 1.385 . S
C2788 H2769 0.951 . S
C2788 C2786 1.388 . S
C2788 C2789 1.366 . S
C2789 C2788 1.366 . S
C2789 C2790 1.414 . S
C2789 C2792 1.499 . S
C2790 H2770 0.950 . S
C2790 C2789 1.414 . S
C2790 C2791 1.374 . S
C2791 H2771 0.950 . S
C2791 C2787 1.385 . S
C2791 C2790 1.374 . S
C2792 C2789 1.499 . S
C2792 C2793 1.373 . S
C2792 C2794 1.389 . S
C2793 H2772 0.950 . S
C2793 C2792 1.373 . S
C2793 C2809 1.377 . S
C2794 C2792 1.389 . S
C2794 C2795 1.524 . S
C2794 C2808 1.377 . S
C2795 C2794 1.524 . S
C2795 C2796 1.397 . S
C2795 C2800 1.363 . S
C2796 H2773 0.950 . S
C2796 C2795 1.397 . S
C2796 C2797 1.334 . S
C2797 H2774 0.950 . S
C2797 C2796 1.334 . S
C2797 C2798 1.287 . S
C2798 C2797 1.287 . S
C2798 C2799 1.524 . S
C2798 H2817 0.913 . S
C2799 H2775 0.950 . S
C2799 C2798 1.524 . S
C2799 C2800 1.415 . S
C2800 H2776 0.950 . S
C2800 C2795 1.363 . S
C2800 C2799 1.415 . S
C2801 H2777 0.951 . S
C2801 C2802 1.366 . S
C2801 C2803 1.388 . S
C2802 C2801 1.366 . S
C2802 C2806 1.385 . S
C2803 H2778 0.951 . S
C2803 C2801 1.388 . S
C2803 C2804 1.366 . S
C2804 C2803 1.366 . S
C2804 C2805 1.414 . S
C2804 C2807 1.499 . S
C2805 H2779 0.950 . S
C2805 C2804 1.414 . S
C2805 C2806 1.374 . S
C2806 H2780 0.950 . S
C2806 C2802 1.385 . S
C2806 C2805 1.374 . S
C2807 C2804 1.499 . S
C2807 C2808 1.373 . S
C2807 C2809 1.389 . S
C2808 H2781 0.950 . S
C2808 C2794 1.377 . S
C2808 C2807 1.373 . S
C2809 C2793 1.377 . S
C2809 C2807 1.389 . S
C2809 C2810 1.524 . S
C2810 C2809 1.524 . S
C2810 C2811 1.397 1_455 S
C2810 C2815 1.363 . S
C2811 H2782 0.950 . S
C2811 C2810 1.397 1_655 S
C2811 C2812 1.334 . S
C2812 H2783 0.950 . S
C2812 C2811 1.334 . S
C2812 C2813 1.287 . S
C2813 C2812 1.287 . S
C2813 C2814 1.524 . S
C2813 H2816 0.999 . S
C2814 H2784 0.950 . S
C2814 C2813 1.524 . S
C2814 C2815 1.415 1_655 S
C2815 H2785 0.950 . S
C2815 C2810 1.363 . S
C2815 C2814 1.415 1_455 S
H2816 C2813 0.999 . S
H2817 C2798 0.913 . S
H2818 C2836 0.951 . S
H2819 C2838 0.951 . S
H2820 C2840 0.950 . S
H2821 C2841 0.950 . S
H2822 C2843 0.950 . S
H2823 C2846 0.950 . S
H2824 C2847 0.950 . S
H2825 C2849 0.950 . S
H2826 C2850 0.950 . S
H2827 C2851 0.951 . S
H2828 C2853 0.951 . S
H2829 C2855 0.950 . S
H2830 C2856 0.950 . S
H2831 C2858 0.950 . S
H2832 C2861 0.950 . S
H2833 C2862 0.950 . S
H2834 C2864 0.950 . S
H2835 C2865 0.950 . S
C2836 H2818 0.951 . S
C2836 C2837 1.366 . S
C2836 C2838 1.388 . S
C2837 C2836 1.366 . S
C2837 C2841 1.385 . S
C2838 H2819 0.951 . S
C2838 C2836 1.388 . S
C2838 C2839 1.366 . S
C2839 C2838 1.366 . S
C2839 C2840 1.414 . S
C2839 C2842 1.499 . S
C2840 H2820 0.950 . S
C2840 C2839 1.414 . S
C2840 C2841 1.374 . S
C2841 H2821 0.950 . S
C2841 C2837 1.385 . S
C2841 C2840 1.374 . S
C2842 C2839 1.499 . S
C2842 C2843 1.373 . S
C2842 C2844 1.389 . S
C2843 H2822 0.950 . S
C2843 C2842 1.373 . S
C2843 C2859 1.377 . S
C2844 C2842 1.389 . S
C2844 C2845 1.524 . S
C2844 C2858 1.377 . S
C2845 C2844 1.524 . S
C2845 C2846 1.397 . S
C2845 C2850 1.363 . S
C2846 H2823 0.950 . S
C2846 C2845 1.397 . S
C2846 C2847 1.334 . S
C2847 H2824 0.950 . S
C2847 C2846 1.334 . S
C2847 C2848 1.287 . S
C2848 C2847 1.287 . S
C2848 C2849 1.524 . S
C2848 H2867 0.913 . S
C2849 H2825 0.950 . S
C2849 C2848 1.524 . S
C2849 C2850 1.415 . S
C2850 H2826 0.950 . S
C2850 C2845 1.363 . S
C2850 C2849 1.415 . S
C2851 H2827 0.951 . S
C2851 C2852 1.366 . S
C2851 C2853 1.388 . S
C2852 C2851 1.366 . S
C2852 C2856 1.385 . S
C2853 H2828 0.951 . S
C2853 C2851 1.388 . S
C2853 C2854 1.366 . S
C2854 C2853 1.366 . S
C2854 C2855 1.414 . S
C2854 C2857 1.499 . S
C2855 H2829 0.950 . S
C2855 C2854 1.414 . S
C2855 C2856 1.374 . S
C2856 H2830 0.950 . S
C2856 C2852 1.385 . S
C2856 C2855 1.374 . S
C2857 C2854 1.499 . S
C2857 C2858 1.373 . S
C2857 C2859 1.389 . S
C2858 H2831 0.950 . S
C2858 C2844 1.377 . S
C2858 C2857 1.373 . S
C2859 C2843 1.377 . S
C2859 C2857 1.389 . S
C2859 C2860 1.524 . S
C2860 C2859 1.524 . S
C2860 C2861 1.397 . S
C2860 C2865 1.363 . S
C2861 H2832 0.950 . S
C2861 C2860 1.397 . S
C2861 C2862 1.334 . S
C2862 H2833 0.950 . S
C2862 C2861 1.334 . S
C2862 C2863 1.287 . S
C2863 C2862 1.287 . S
C2863 C2864 1.524 . S
C2863 H2866 0.999 . S
C2864 H2834 0.950 . S
C2864 C2863 1.524 . S
C2864 C2865 1.415 . S
C2865 H2835 0.950 . S
C2865 C2860 1.363 . S
C2865 C2864 1.415 . S
H2866 C2863 0.999 . S
H2867 C2848 0.913 . S
H2868 C2886 0.951 . S
H2869 C2888 0.951 . S
H2870 C2890 0.950 . S
H2871 C2891 0.950 . S
H2872 C2893 0.950 . S
H2873 C2896 0.950 . S
H2874 C2897 0.950 . S
H2875 C2899 0.950 . S
H2876 C2900 0.950 . S
H2877 C2901 0.951 . S
H2878 C2903 0.951 . S
H2879 C2905 0.950 . S
H2880 C2906 0.950 . S
H2881 C2908 0.950 . S
H2882 C2911 0.950 . S
H2883 C2912 0.950 . S
H2884 C2914 0.950 . S
H2885 C2915 0.950 . S
C2886 H2868 0.951 . S
C2886 C2887 1.366 . S
C2886 C2888 1.388 . S
C2887 C2886 1.366 . S
C2887 C2891 1.385 . S
C2888 H2869 0.951 . S
C2888 C2886 1.388 . S
C2888 C2889 1.366 . S
C2889 C2888 1.366 . S
C2889 C2890 1.414 . S
C2889 C2892 1.499 . S
C2890 H2870 0.950 . S
C2890 C2889 1.414 . S
C2890 C2891 1.374 . S
C2891 H2871 0.950 . S
C2891 C2887 1.385 . S
C2891 C2890 1.374 . S
C2892 C2889 1.499 . S
C2892 C2893 1.373 . S
C2892 C2894 1.389 . S
C2893 H2872 0.950 . S
C2893 C2892 1.373 . S
C2893 C2909 1.377 . S
C2894 C2892 1.389 . S
C2894 C2895 1.524 . S
C2894 C2908 1.377 . S
C2895 C2894 1.524 . S
C2895 C2896 1.397 . S
C2895 C2900 1.363 . S
C2896 H2873 0.950 . S
C2896 C2895 1.397 . S
C2896 C2897 1.334 . S
C2897 H2874 0.950 . S
C2897 C2896 1.334 . S
C2897 C2898 1.287 . S
C2898 C2897 1.287 . S
C2898 C2899 1.524 . S
C2898 H2917 0.913 . S
C2899 H2875 0.950 . S
C2899 C2898 1.524 . S
C2899 C2900 1.415 . S
C2900 H2876 0.950 . S
C2900 C2895 1.363 . S
C2900 C2899 1.415 . S
C2901 H2877 0.951 . S
C2901 C2902 1.366 . S
C2901 C2903 1.388 . S
C2902 C2901 1.366 . S
C2902 C2906 1.385 . S
C2903 H2878 0.951 . S
C2903 C2901 1.388 . S
C2903 C2904 1.366 . S
C2904 C2903 1.366 . S
C2904 C2905 1.414 . S
C2904 C2907 1.499 . S
C2905 H2879 0.950 . S
C2905 C2904 1.414 . S
C2905 C2906 1.374 . S
C2906 H2880 0.950 . S
C2906 C2902 1.385 . S
C2906 C2905 1.374 . S
C2907 C2904 1.499 . S
C2907 C2908 1.373 . S
C2907 C2909 1.389 . S
C2908 H2881 0.950 . S
C2908 C2894 1.377 . S
C2908 C2907 1.373 . S
C2909 C2893 1.377 . S
C2909 C2907 1.389 . S
C2909 C2910 1.524 1_655 S
C2910 C2909 1.524 1_455 S
C2910 C2911 1.397 . S
C2910 C2915 1.363 . S
C2911 H2882 0.950 . S
C2911 C2910 1.397 . S
C2911 C2912 1.334 . S
C2912 H2883 0.950 . S
C2912 C2911 1.334 . S
C2912 C2913 1.287 . S
C2913 C2912 1.287 . S
C2913 C2914 1.524 . S
C2913 H2916 0.999 . S
C2914 H2884 0.950 . S
C2914 C2913 1.524 . S
C2914 C2915 1.415 . S
C2915 H2885 0.950 . S
C2915 C2910 1.363 . S
C2915 C2914 1.415 . S
H2916 C2913 0.999 . S
H2917 C2898 0.913 . S
H2918 C2936 0.951 . S
H2919 C2938 0.951 . S
H2920 C2940 0.950 . S
H2921 C2941 0.950 . S
H2922 C2943 0.950 . S
H2923 C2946 0.950 . S
H2924 C2947 0.950 . S
H2925 C2949 0.950 . S
H2926 C2950 0.950 . S
H2927 C2951 0.951 . S
H2928 C2953 0.951 . S
H2929 C2955 0.950 . S
H2930 C2956 0.950 . S
H2931 C2958 0.950 . S
H2932 C2961 0.950 . S
H2933 C2962 0.950 . S
H2934 C2964 0.950 . S
H2935 C2965 0.950 . S
C2936 H2918 0.951 . S
C2936 C2937 1.366 . S
C2936 C2938 1.388 . S
C2937 C2936 1.366 . S
C2937 C2941 1.385 . S
C2938 H2919 0.951 . S
C2938 C2936 1.388 . S
C2938 C2939 1.366 . S
C2939 C2938 1.366 . S
C2939 C2940 1.414 . S
C2939 C2942 1.499 . S
C2940 H2920 0.950 . S
C2940 C2939 1.414 . S
C2940 C2941 1.374 . S
C2941 H2921 0.950 . S
C2941 C2937 1.385 . S
C2941 C2940 1.374 . S
C2942 C2939 1.499 . S
C2942 C2943 1.373 . S
C2942 C2944 1.389 . S
C2943 H2922 0.950 . S
C2943 C2942 1.373 . S
C2943 C2959 1.377 . S
C2944 C2942 1.389 . S
C2944 C2945 1.524 . S
C2944 C2958 1.377 . S
C2945 C2944 1.524 . S
C2945 C2946 1.397 . S
C2945 C2950 1.363 . S
C2946 H2923 0.950 . S
C2946 C2945 1.397 . S
C2946 C2947 1.334 . S
C2947 H2924 0.950 . S
C2947 C2946 1.334 . S
C2947 C2948 1.287 . S
C2948 C2947 1.287 . S
C2948 C2949 1.524 . S
C2948 H2967 0.913 . S
C2949 H2925 0.950 . S
C2949 C2948 1.524 . S
C2949 C2950 1.415 . S
C2950 H2926 0.950 . S
C2950 C2945 1.363 . S
C2950 C2949 1.415 . S
C2951 H2927 0.951 . S
C2951 C2952 1.366 . S
C2951 C2953 1.388 . S
C2952 C2951 1.366 . S
C2952 C2956 1.385 . S
C2953 H2928 0.951 . S
C2953 C2951 1.388 . S
C2953 C2954 1.366 . S
C2954 C2953 1.366 . S
C2954 C2955 1.414 . S
C2954 C2957 1.499 . S
C2955 H2929 0.950 . S
C2955 C2954 1.414 . S
C2955 C2956 1.374 . S
C2956 H2930 0.950 . S
C2956 C2952 1.385 . S
C2956 C2955 1.374 . S
C2957 C2954 1.499 . S
C2957 C2958 1.373 . S
C2957 C2959 1.389 . S
C2958 H2931 0.950 . S
C2958 C2944 1.377 . S
C2958 C2957 1.373 . S
C2959 C2943 1.377 . S
C2959 C2957 1.389 . S
C2959 C2960 1.524 . S
C2960 C2959 1.524 . S
C2960 C2961 1.397 . S
C2960 C2965 1.363 . S
C2961 H2932 0.950 . S
C2961 C2960 1.397 . S
C2961 C2962 1.334 . S
C2962 H2933 0.950 . S
C2962 C2961 1.334 . S
C2962 C2963 1.287 . S
C2963 C2962 1.287 . S
C2963 C2964 1.524 . S
C2963 H2966 0.999 . S
C2964 H2934 0.950 . S
C2964 C2963 1.524 . S
C2964 C2965 1.415 . S
C2965 H2935 0.950 . S
C2965 C2960 1.363 . S
C2965 C2964 1.415 . S
H2966 C2963 0.999 . S
H2967 C2948 0.913 . S
H2968 C2986 0.951 . S
H2969 C2988 0.951 . S
H2970 C2990 0.950 . S
H2971 C2991 0.950 . S
H2972 C2993 0.950 . S
H2973 C2996 0.950 . S
H2974 C2997 0.950 . S
H2975 C2999 0.950 . S
H2976 C3000 0.950 . S
H2977 C3001 0.951 . S
H2978 C3003 0.951 . S
H2979 C3005 0.950 . S
H2980 C3006 0.945 1_565 S
H2981 C3008 0.950 . S
H2982 C3011 0.950 . S
H2983 C3012 0.950 . S
H2984 C3014 0.950 . S
H2985 C3015 0.950 . S
C2986 H2968 0.951 . S
C2986 C2987 1.366 . S
C2986 C2988 1.388 . S
C2987 C2986 1.366 . S
C2987 C2991 1.385 . S
C2988 H2969 0.951 . S
C2988 C2986 1.388 . S
C2988 C2989 1.366 . S
C2989 C2988 1.366 . S
C2989 C2990 1.414 . S
C2989 C2992 1.499 . S
C2990 H2970 0.950 . S
C2990 C2989 1.414 . S
C2990 C2991 1.374 . S
C2991 H2971 0.950 . S
C2991 C2987 1.385 . S
C2991 C2990 1.374 . S
C2992 C2989 1.499 . S
C2992 C2993 1.373 . S
C2992 C2994 1.389 . S
C2993 H2972 0.950 . S
C2993 C2992 1.373 . S
C2993 C3009 1.377 . S
C2994 C2992 1.389 . S
C2994 C2995 1.524 . S
C2994 C3008 1.377 . S
C2995 C2994 1.524 . S
C2995 C2996 1.397 . S
C2995 C3000 1.363 . S
C2996 H2973 0.950 . S
C2996 C2995 1.397 . S
C2996 C2997 1.334 . S
C2997 H2974 0.950 . S
C2997 C2996 1.334 . S
C2997 C2998 1.287 . S
C2998 C2997 1.287 . S
C2998 C2999 1.524 . S
C2998 H3017 0.913 . S
C2999 H2975 0.950 . S
C2999 C2998 1.524 . S
C2999 C3000 1.415 . S
C3000 H2976 0.950 . S
C3000 C2995 1.363 . S
C3000 C2999 1.415 . S
C3001 H2977 0.951 . S
C3001 C3002 1.366 . S
C3001 C3003 1.388 . S
C3002 C3001 1.366 . S
C3002 C3006 1.385 . S
C3003 H2978 0.951 . S
C3003 C3001 1.388 . S
C3003 C3004 1.366 . S
C3004 C3003 1.366 . S
C3004 C3005 1.414 . S
C3004 C3007 1.499 . S
C3005 H2979 0.950 . S
C3005 C3004 1.414 . S
C3005 C3006 1.374 . S
C3006 H2980 0.945 1_545 S
C3006 C3002 1.385 . S
C3006 C3005 1.374 . S
C3007 C3004 1.499 . S
C3007 C3008 1.373 . S
C3007 C3009 1.389 . S
C3008 H2981 0.950 . S
C3008 C2994 1.377 . S
C3008 C3007 1.373 . S
C3009 C2993 1.377 . S
C3009 C3007 1.389 . S
C3009 C3010 1.524 . S
C3010 C3009 1.524 . S
C3010 C3011 1.397 . S
C3010 C3015 1.363 . S
C3011 H2982 0.950 . S
C3011 C3010 1.397 . S
C3011 C3012 1.334 . S
C3012 H2983 0.950 . S
C3012 C3011 1.334 . S
C3012 C3013 1.287 . S
C3013 C3012 1.287 . S
C3013 C3014 1.524 . S
C3013 H3016 0.999 . S
C3014 H2984 0.950 . S
C3014 C3013 1.524 . S
C3014 C3015 1.415 . S
C3015 H2985 0.950 . S
C3015 C3010 1.363 . S
C3015 C3014 1.415 . S
H3016 C3013 0.999 . S
H3017 C2998 0.913 . S
H3018 C3036 0.951 . S
H3019 C3038 0.951 . S
H3020 C3040 0.950 . S
H3021 C3041 0.950 . S
H3022 C3043 0.950 . S
H3023 C3046 0.950 . S
H3024 C3047 0.950 . S
H3025 C3049 0.950 . S
H3026 C3050 0.950 . S
H3027 C3051 0.951 . S
H3028 C3053 0.951 . S
H3029 C3055 0.950 . S
H3030 C3056 0.950 . S
H3031 C3058 0.950 . S
H3032 C3061 0.950 . S
H3033 C3062 0.950 . S
H3034 C3064 0.950 . S
H3035 C3065 0.950 . S
C3036 H3018 0.951 . S
C3036 C3037 1.366 . S
C3036 C3038 1.388 . S
C3037 C3036 1.366 . S
C3037 C3041 1.385 . S
C3038 H3019 0.951 . S
C3038 C3036 1.388 . S
C3038 C3039 1.366 . S
C3039 C3038 1.366 . S
C3039 C3040 1.414 . S
C3039 C3042 1.499 . S
C3040 H3020 0.950 . S
C3040 C3039 1.414 . S
C3040 C3041 1.374 . S
C3041 H3021 0.950 . S
C3041 C3037 1.385 . S
C3041 C3040 1.374 . S
C3042 C3039 1.499 . S
C3042 C3043 1.373 . S
C3042 C3044 1.389 . S
C3043 H3022 0.950 . S
C3043 C3042 1.373 . S
C3043 C3059 1.377 . S
C3044 C3042 1.389 . S
C3044 C3045 1.524 . S
C3044 C3058 1.377 . S
C3045 C3044 1.524 . S
C3045 C3046 1.397 . S
C3045 C3050 1.363 . S
C3046 H3023 0.950 . S
C3046 C3045 1.397 . S
C3046 C3047 1.334 . S
C3047 H3024 0.950 . S
C3047 C3046 1.334 . S
C3047 C3048 1.287 . S
C3048 C3047 1.287 . S
C3048 C3049 1.524 . S
C3048 H3067 0.913 . S
C3049 H3025 0.950 . S
C3049 C3048 1.524 . S
C3049 C3050 1.415 . S
C3050 H3026 0.950 . S
C3050 C3045 1.363 . S
C3050 C3049 1.415 . S
C3051 H3027 0.951 . S
C3051 C3052 1.366 . S
C3051 C3053 1.388 . S
C3052 C3051 1.366 . S
C3052 C3056 1.385 . S
C3053 H3028 0.951 . S
C3053 C3051 1.388 . S
C3053 C3054 1.366 . S
C3054 C3053 1.366 . S
C3054 C3055 1.414 . S
C3054 C3057 1.499 . S
C3055 H3029 0.950 . S
C3055 C3054 1.414 . S
C3055 C3056 1.374 . S
C3056 H3030 0.950 . S
C3056 C3052 1.385 . S
C3056 C3055 1.374 . S
C3057 C3054 1.499 . S
C3057 C3058 1.373 . S
C3057 C3059 1.389 . S
C3058 H3031 0.950 . S
C3058 C3044 1.377 . S
C3058 C3057 1.373 . S
C3059 C3043 1.377 . S
C3059 C3057 1.389 . S
C3059 C3060 1.524 . S
C3060 C3059 1.524 . S
C3060 C3061 1.397 . S
C3060 C3065 1.363 . S
C3061 H3032 0.950 . S
C3061 C3060 1.397 . S
C3061 C3062 1.334 . S
C3062 H3033 0.950 . S
C3062 C3061 1.334 . S
C3062 C3063 1.287 . S
C3063 C3062 1.287 . S
C3063 C3064 1.524 . S
C3063 H3066 0.999 . S
C3064 H3034 0.950 . S
C3064 C3063 1.524 . S
C3064 C3065 1.415 . S
C3065 H3035 0.950 . S
C3065 C3060 1.363 . S
C3065 C3064 1.415 . S
H3066 C3063 0.999 . S
H3067 C3048 0.913 . S
H3068 C3086 0.951 . S
H3069 C3088 0.951 . S
H3070 C3090 0.950 . S
H3071 C3091 0.950 . S
H3072 C3093 0.950 . S
H3073 C3096 0.950 . S
H3074 C3097 0.950 . S
H3075 C3099 0.950 . S
H3076 C3100 0.950 . S
H3077 C3101 0.951 . S
H3078 C3103 0.951 . S
H3079 C3105 0.950 . S
H3080 C3106 0.950 . S
H3081 C3108 0.950 . S
H3082 C3111 0.950 . S
H3083 C3112 0.950 . S
H3084 C3114 0.950 . S
H3085 C3115 0.950 . S
C3086 H3068 0.951 . S
C3086 C3087 1.366 . S
C3086 C3088 1.388 . S
C3087 C3086 1.366 . S
C3087 C3091 1.385 . S
C3088 H3069 0.951 . S
C3088 C3086 1.388 . S
C3088 C3089 1.366 . S
C3089 C3088 1.366 . S
C3089 C3090 1.414 . S
C3089 C3092 1.499 . S
C3090 H3070 0.950 . S
C3090 C3089 1.414 . S
C3090 C3091 1.374 . S
C3091 H3071 0.950 . S
C3091 C3087 1.385 . S
C3091 C3090 1.374 . S
C3092 C3089 1.499 . S
C3092 C3093 1.373 . S
C3092 C3094 1.389 . S
C3093 H3072 0.950 . S
C3093 C3092 1.373 . S
C3093 C3109 1.377 . S
C3094 C3092 1.389 . S
C3094 C3095 1.524 . S
C3094 C3108 1.377 . S
C3095 C3094 1.524 . S
C3095 C3096 1.397 . S
C3095 C3100 1.363 . S
C3096 H3073 0.950 . S
C3096 C3095 1.397 . S
C3096 C3097 1.334 . S
C3097 H3074 0.950 . S
C3097 C3096 1.334 . S
C3097 C3098 1.287 . S
C3098 C3097 1.287 . S
C3098 C3099 1.524 . S
C3098 H3117 0.913 . S
C3099 H3075 0.950 . S
C3099 C3098 1.524 . S
C3099 C3100 1.415 . S
C3100 H3076 0.950 . S
C3100 C3095 1.363 . S
C3100 C3099 1.415 . S
C3101 H3077 0.951 . S
C3101 C3102 1.366 . S
C3101 C3103 1.388 . S
C3102 C3101 1.366 . S
C3102 C3106 1.385 . S
C3103 H3078 0.951 . S
C3103 C3101 1.388 . S
C3103 C3104 1.366 . S
C3104 C3103 1.366 . S
C3104 C3105 1.414 . S
C3104 C3107 1.499 . S
C3105 H3079 0.950 . S
C3105 C3104 1.414 . S
C3105 C3106 1.374 . S
C3106 H3080 0.950 . S
C3106 C3102 1.385 . S
C3106 C3105 1.374 . S
C3107 C3104 1.499 . S
C3107 C3108 1.373 . S
C3107 C3109 1.389 . S
C3108 H3081 0.950 . S
C3108 C3094 1.377 . S
C3108 C3107 1.373 . S
C3109 C3093 1.377 . S
C3109 C3107 1.389 . S
C3109 C3110 1.524 . S
C3110 C3109 1.524 . S
C3110 C3111 1.397 . S
C3110 C3115 1.363 . S
C3111 H3082 0.950 . S
C3111 C3110 1.397 . S
C3111 C3112 1.334 . S
C3112 H3083 0.950 . S
C3112 C3111 1.334 . S
C3112 C3113 1.287 . S
C3113 C3112 1.287 . S
C3113 C3114 1.524 . S
C3113 H3116 0.999 . S
C3114 H3084 0.950 . S
C3114 C3113 1.524 . S
C3114 C3115 1.415 . S
C3115 H3085 0.950 . S
C3115 C3110 1.363 . S
C3115 C3114 1.415 . S
H3116 C3113 0.999 . S
H3117 C3098 0.913 . S
H3118 C3136 0.951 . S
H3119 C3138 0.951 . S
H3120 C3140 0.950 . S
H3121 C3141 0.950 . S
H3122 C3143 0.950 . S
H3123 C3146 0.950 . S
H3124 C3147 0.950 . S
H3125 C3149 0.950 . S
H3126 C3150 0.950 . S
H3127 C3151 0.951 . S
H3128 C3153 0.951 . S
H3129 C3155 0.950 . S
H3130 C3156 0.950 . S
H3131 C3158 0.950 . S
H3132 C3161 0.950 . S
H3133 C3162 0.950 . S
H3134 C3164 0.950 . S
H3135 C3165 0.950 . S
C3136 H3118 0.951 . S
C3136 C3137 1.366 . S
C3136 C3138 1.388 . S
C3137 C3136 1.366 . S
C3137 C3141 1.385 . S
C3138 H3119 0.951 . S
C3138 C3136 1.388 . S
C3138 C3139 1.366 . S
C3139 C3138 1.366 . S
C3139 C3140 1.414 . S
C3139 C3142 1.499 . S
C3140 H3120 0.950 . S
C3140 C3139 1.414 . S
C3140 C3141 1.374 . S
C3141 H3121 0.950 . S
C3141 C3137 1.385 . S
C3141 C3140 1.374 . S
C3142 C3139 1.499 . S
C3142 C3143 1.373 . S
C3142 C3144 1.389 . S
C3143 H3122 0.950 . S
C3143 C3142 1.373 . S
C3143 C3159 1.377 . S
C3144 C3142 1.389 . S
C3144 C3145 1.524 . S
C3144 C3158 1.377 . S
C3145 C3144 1.524 . S
C3145 C3146 1.397 . S
C3145 C3150 1.363 . S
C3146 H3123 0.950 . S
C3146 C3145 1.397 . S
C3146 C3147 1.334 . S
C3147 H3124 0.950 . S
C3147 C3146 1.334 . S
C3147 C3148 1.287 . S
C3148 C3147 1.287 . S
C3148 C3149 1.524 . S
C3148 H3167 0.913 . S
C3149 H3125 0.950 . S
C3149 C3148 1.524 . S
C3149 C3150 1.415 . S
C3150 H3126 0.950 . S
C3150 C3145 1.363 . S
C3150 C3149 1.415 . S
C3151 H3127 0.951 . S
C3151 C3152 1.366 . S
C3151 C3153 1.388 . S
C3152 C3151 1.366 . S
C3152 C3156 1.385 . S
C3153 H3128 0.951 . S
C3153 C3151 1.388 . S
C3153 C3154 1.366 . S
C3154 C3153 1.366 . S
C3154 C3155 1.414 . S
C3154 C3157 1.499 . S
C3155 H3129 0.950 . S
C3155 C3154 1.414 . S
C3155 C3156 1.374 . S
C3156 H3130 0.950 . S
C3156 C3152 1.385 . S
C3156 C3155 1.374 . S
C3157 C3154 1.499 . S
C3157 C3158 1.373 . S
C3157 C3159 1.389 . S
C3158 H3131 0.950 . S
C3158 C3144 1.377 . S
C3158 C3157 1.373 . S
C3159 C3143 1.377 . S
C3159 C3157 1.389 . S
C3159 C3160 1.524 . S
C3160 C3159 1.524 . S
C3160 C3161 1.397 . S
C3160 C3165 1.363 . S
C3161 H3132 0.950 . S
C3161 C3160 1.397 . S
C3161 C3162 1.334 . S
C3162 H3133 0.950 . S
C3162 C3161 1.334 . S
C3162 C3163 1.287 . S
C3163 C3162 1.287 . S
C3163 C3164 1.524 . S
C3163 H3166 0.999 . S
C3164 H3134 0.950 . S
C3164 C3163 1.524 . S
C3164 C3165 1.415 . S
C3165 H3135 0.950 . S
C3165 C3160 1.363 . S
C3165 C3164 1.415 . S
H3166 C3163 0.999 . S
H3167 C3148 0.913 . S
H3168 C3186 0.951 . S
H3169 C3188 0.951 . S
H3170 C3190 0.950 . S
H3171 C3191 0.950 . S
H3172 C3193 0.950 . S
H3173 C3196 0.950 . S
H3174 C3197 0.950 . S
H3175 C3199 0.950 . S
H3176 C3200 0.950 . S
H3177 C3201 0.951 . S
H3178 C3203 0.951 . S
H3179 C3205 0.950 . S
H3180 C3206 0.950 . S
H3181 C3208 0.950 . S
H3182 C3211 0.950 . S
H3183 C3212 0.950 . S
H3184 C3214 0.950 . S
H3185 C3215 0.950 . S
C3186 H3168 0.951 . S
C3186 C3187 1.366 . S
C3186 C3188 1.388 . S
C3187 C3186 1.366 . S
C3187 C3191 1.385 . S
C3188 H3169 0.951 . S
C3188 C3186 1.388 . S
C3188 C3189 1.366 . S
C3189 C3188 1.366 . S
C3189 C3190 1.414 . S
C3189 C3192 1.499 . S
C3190 H3170 0.950 . S
C3190 C3189 1.414 . S
C3190 C3191 1.374 . S
C3191 H3171 0.950 . S
C3191 C3187 1.385 . S
C3191 C3190 1.374 . S
C3192 C3189 1.499 . S
C3192 C3193 1.373 . S
C3192 C3194 1.389 . S
C3193 H3172 0.950 . S
C3193 C3192 1.373 . S
C3193 C3209 1.377 . S
C3194 C3192 1.389 . S
C3194 C3195 1.524 . S
C3194 C3208 1.377 . S
C3195 C3194 1.524 . S
C3195 C3196 1.397 . S
C3195 C3200 1.363 . S
C3196 H3173 0.950 . S
C3196 C3195 1.397 . S
C3196 C3197 1.334 . S
C3197 H3174 0.950 . S
C3197 C3196 1.334 . S
C3197 C3198 1.287 . S
C3198 C3197 1.287 . S
C3198 C3199 1.524 . S
C3198 H3217 0.913 . S
C3199 H3175 0.950 . S
C3199 C3198 1.524 . S
C3199 C3200 1.415 . S
C3200 H3176 0.950 . S
C3200 C3195 1.363 . S
C3200 C3199 1.415 . S
C3201 H3177 0.951 . S
C3201 C3202 1.366 . S
C3201 C3203 1.388 . S
C3202 C3201 1.366 . S
C3202 C3206 1.385 . S
C3203 H3178 0.951 . S
C3203 C3201 1.388 . S
C3203 C3204 1.366 . S
C3204 C3203 1.366 . S
C3204 C3205 1.414 . S
C3204 C3207 1.499 . S
C3205 H3179 0.950 . S
C3205 C3204 1.414 . S
C3205 C3206 1.374 . S
C3206 H3180 0.950 . S
C3206 C3202 1.385 . S
C3206 C3205 1.374 . S
C3207 C3204 1.499 . S
C3207 C3208 1.373 . S
C3207 C3209 1.389 . S
C3208 H3181 0.950 . S
C3208 C3194 1.377 . S
C3208 C3207 1.373 . S
C3209 C3193 1.377 . S
C3209 C3207 1.389 . S
C3209 C3210 1.524 . S
C3210 C3209 1.524 . S
C3210 C3211 1.397 . S
C3210 C3215 1.363 . S
C3211 H3182 0.950 . S
C3211 C3210 1.397 . S
C3211 C3212 1.334 . S
C3212 H3183 0.950 . S
C3212 C3211 1.334 . S
C3212 C3213 1.287 . S
C3213 C3212 1.287 . S
C3213 C3214 1.524 . S
C3213 H3216 0.999 . S
C3214 H3184 0.950 . S
C3214 C3213 1.524 . S
C3214 C3215 1.415 . S
C3215 H3185 0.950 . S
C3215 C3210 1.363 . S
C3215 C3214 1.415 . S
H3216 C3213 0.999 . S
H3217 C3198 0.913 . S
H3218 C3236 0.951 . S
H3219 C3238 0.951 . S
H3220 C3240 0.950 . S
H3221 C3241 0.950 . S
H3222 C3243 0.950 . S
H3223 C3246 0.950 . S
H3224 C3247 0.950 . S
H3225 C3249 0.950 . S
H3226 C3250 0.950 . S
H3227 C3251 0.951 . S
H3228 C3253 0.951 . S
H3229 C3255 0.950 . S
H3230 C3256 0.950 . S
H3231 C3258 0.950 . S
H3232 C3261 0.950 . S
H3233 C3262 0.950 . S
H3234 C3264 0.950 . S
H3235 C3265 0.950 . S
C3236 H3218 0.951 . S
C3236 C3237 1.366 . S
C3236 C3238 1.388 . S
C3237 C3236 1.366 . S
C3237 C3241 1.385 . S
C3238 H3219 0.951 . S
C3238 C3236 1.388 . S
C3238 C3239 1.366 . S
C3239 C3238 1.366 . S
C3239 C3240 1.414 . S
C3239 C3242 1.499 . S
C3240 H3220 0.950 . S
C3240 C3239 1.414 . S
C3240 C3241 1.374 . S
C3241 H3221 0.950 . S
C3241 C3237 1.385 . S
C3241 C3240 1.374 . S
C3242 C3239 1.499 . S
C3242 C3243 1.373 . S
C3242 C3244 1.389 . S
C3243 H3222 0.950 . S
C3243 C3242 1.373 . S
C3243 C3259 1.377 . S
C3244 C3242 1.389 . S
C3244 C3245 1.524 . S
C3244 C3258 1.377 . S
C3245 C3244 1.524 . S
C3245 C3246 1.397 . S
C3245 C3250 1.363 . S
C3246 H3223 0.950 . S
C3246 C3245 1.397 . S
C3246 C3247 1.334 . S
C3247 H3224 0.950 . S
C3247 C3246 1.334 . S
C3247 C3248 1.287 . S
C3248 C3247 1.287 . S
C3248 C3249 1.524 . S
C3248 H3267 0.913 . S
C3249 H3225 0.950 . S
C3249 C3248 1.524 . S
C3249 C3250 1.415 . S
C3250 H3226 0.950 . S
C3250 C3245 1.363 . S
C3250 C3249 1.415 . S
C3251 H3227 0.951 . S
C3251 C3252 1.366 . S
C3251 C3253 1.388 . S
C3252 C3251 1.366 . S
C3252 C3256 1.385 . S
C3253 H3228 0.951 . S
C3253 C3251 1.388 . S
C3253 C3254 1.366 . S
C3254 C3253 1.366 . S
C3254 C3255 1.414 . S
C3254 C3257 1.499 . S
C3255 H3229 0.950 . S
C3255 C3254 1.414 . S
C3255 C3256 1.374 . S
C3256 H3230 0.950 . S
C3256 C3252 1.385 . S
C3256 C3255 1.374 . S
C3257 C3254 1.499 . S
C3257 C3258 1.373 . S
C3257 C3259 1.389 . S
C3258 H3231 0.950 . S
C3258 C3244 1.377 . S
C3258 C3257 1.373 . S
C3259 C3243 1.377 . S
C3259 C3257 1.389 . S
C3259 C3260 1.524 . S
C3260 C3259 1.524 . S
C3260 C3261 1.397 . S
C3260 C3265 1.363 . S
C3261 H3232 0.950 . S
C3261 C3260 1.397 . S
C3261 C3262 1.334 . S
C3262 H3233 0.950 . S
C3262 C3261 1.334 . S
C3262 C3263 1.287 . S
C3263 C3262 1.287 . S
C3263 C3264 1.524 . S
C3263 H3266 0.999 . S
C3264 H3234 0.950 . S
C3264 C3263 1.524 . S
C3264 C3265 1.415 . S
C3265 H3235 0.950 . S
C3265 C3260 1.363 . S
C3265 C3264 1.415 . S
H3266 C3263 0.999 . S
H3267 C3248 0.913 . S
H3268 C3286 0.951 . S
H3269 C3288 0.951 . S
H3270 C3290 0.950 . S
H3271 C3291 0.950 . S
H3272 C3293 0.950 . S
H3273 C3296 0.950 . S
H3274 C3297 0.950 . S
H3275 C3299 0.950 . S
H3276 C3300 0.950 . S
H3277 C3301 0.951 . S
H3278 C3303 0.951 . S
H3279 C3305 0.950 . S
H3280 C3306 0.950 . S
H3281 C3308 0.950 . S
H3282 C3311 0.950 . S
H3283 C3312 0.950 . S
H3284 C3314 0.950 . S
H3285 C3315 0.950 . S
C3286 H3268 0.951 . S
C3286 C3287 1.366 . S
C3286 C3288 1.388 . S
C3287 C3286 1.366 . S
C3287 C3291 1.385 . S
C3288 H3269 0.951 . S
C3288 C3286 1.388 . S
C3288 C3289 1.366 . S
C3289 C3288 1.366 . S
C3289 C3290 1.414 . S
C3289 C3292 1.499 . S
C3290 H3270 0.950 . S
C3290 C3289 1.414 . S
C3290 C3291 1.374 . S
C3291 H3271 0.950 . S
C3291 C3287 1.385 . S
C3291 C3290 1.374 . S
C3292 C3289 1.499 . S
C3292 C3293 1.373 . S
C3292 C3294 1.389 . S
C3293 H3272 0.950 . S
C3293 C3292 1.373 . S
C3293 C3309 1.377 . S
C3294 C3292 1.389 . S
C3294 C3295 1.524 . S
C3294 C3308 1.377 . S
C3295 C3294 1.524 . S
C3295 C3296 1.397 . S
C3295 C3300 1.363 . S
C3296 H3273 0.950 . S
C3296 C3295 1.397 . S
C3296 C3297 1.334 . S
C3297 H3274 0.950 . S
C3297 C3296 1.334 . S
C3297 C3298 1.287 . S
C3298 C3297 1.287 . S
C3298 C3299 1.524 . S
C3298 H3317 0.913 . S
C3299 H3275 0.950 . S
C3299 C3298 1.524 . S
C3299 C3300 1.415 . S
C3300 H3276 0.950 . S
C3300 C3295 1.363 . S
C3300 C3299 1.415 . S
C3301 H3277 0.951 . S
C3301 C3302 1.366 . S
C3301 C3303 1.388 . S
C3302 C3301 1.366 . S
C3302 C3306 1.385 . S
C3303 H3278 0.951 . S
C3303 C3301 1.388 . S
C3303 C3304 1.366 . S
C3304 C3303 1.366 . S
C3304 C3305 1.414 . S
C3304 C3307 1.499 . S
C3305 H3279 0.950 . S
C3305 C3304 1.414 . S
C3305 C3306 1.374 . S
C3306 H3280 0.950 . S
C3306 C3302 1.385 . S
C3306 C3305 1.374 . S
C3307 C3304 1.499 . S
C3307 C3308 1.373 . S
C3307 C3309 1.389 . S
C3308 H3281 0.950 . S
C3308 C3294 1.377 . S
C3308 C3307 1.373 . S
C3309 C3293 1.377 . S
C3309 C3307 1.389 . S
C3309 C3310 1.524 . S
C3310 C3309 1.524 . S
C3310 C3311 1.397 . S
C3310 C3315 1.363 . S
C3311 H3282 0.950 . S
C3311 C3310 1.397 . S
C3311 C3312 1.334 . S
C3312 H3283 0.950 . S
C3312 C3311 1.334 . S
C3312 C3313 1.287 . S
C3313 C3312 1.287 . S
C3313 C3314 1.524 . S
C3313 H3316 0.999 . S
C3314 H3284 0.950 . S
C3314 C3313 1.524 . S
C3314 C3315 1.415 . S
C3315 H3285 0.950 . S
C3315 C3310 1.363 . S
C3315 C3314 1.415 . S
H3316 C3313 0.999 . S
H3317 C3298 0.913 . S
H3318 C3336 0.951 . S
H3319 C3338 0.951 . S
H3320 C3340 0.950 . S
H3321 C3341 0.950 . S
H3322 C3343 0.950 . S
H3323 C3346 0.950 . S
H3324 C3347 0.950 . S
H3325 C3349 0.950 . S
H3326 C3350 0.950 . S
H3327 C3351 0.951 . S
H3328 C3353 0.951 . S
H3329 C3355 0.950 . S
H3330 C3356 0.950 . S
H3331 C3358 0.950 . S
H3332 C3361 0.950 . S
H3333 C3362 0.950 . S
H3334 C3364 0.950 . S
H3335 C3365 0.950 . S
C3336 H3318 0.951 . S
C3336 C3337 1.366 . S
C3336 C3338 1.388 . S
C3337 C3336 1.366 . S
C3337 C3341 1.385 . S
C3338 H3319 0.951 . S
C3338 C3336 1.388 . S
C3338 C3339 1.366 . S
C3339 C3338 1.366 . S
C3339 C3340 1.414 . S
C3339 C3342 1.499 . S
C3340 H3320 0.950 . S
C3340 C3339 1.414 . S
C3340 C3341 1.374 . S
C3341 H3321 0.950 . S
C3341 C3337 1.385 . S
C3341 C3340 1.374 . S
C3342 C3339 1.499 . S
C3342 C3343 1.373 . S
C3342 C3344 1.389 . S
C3343 H3322 0.950 . S
C3343 C3342 1.373 . S
C3343 C3359 1.377 . S
C3344 C3342 1.389 . S
C3344 C3345 1.524 . S
C3344 C3358 1.377 . S
C3345 C3344 1.524 . S
C3345 C3346 1.397 . S
C3345 C3350 1.363 . S
C3346 H3323 0.950 . S
C3346 C3345 1.397 . S
C3346 C3347 1.334 . S
C3347 H3324 0.950 . S
C3347 C3346 1.334 . S
C3347 C3348 1.287 . S
C3348 C3347 1.287 . S
C3348 C3349 1.524 . S
C3348 H3367 0.913 . S
C3349 H3325 0.950 . S
C3349 C3348 1.524 . S
C3349 C3350 1.415 . S
C3350 H3326 0.950 . S
C3350 C3345 1.363 . S
C3350 C3349 1.415 . S
C3351 H3327 0.951 . S
C3351 C3352 1.366 . S
C3351 C3353 1.388 . S
C3352 C3351 1.366 . S
C3352 C3356 1.385 . S
C3353 H3328 0.951 . S
C3353 C3351 1.388 . S
C3353 C3354 1.366 . S
C3354 C3353 1.366 . S
C3354 C3355 1.414 . S
C3354 C3357 1.499 . S
C3355 H3329 0.950 . S
C3355 C3354 1.414 . S
C3355 C3356 1.374 . S
C3356 H3330 0.950 . S
C3356 C3352 1.385 . S
C3356 C3355 1.374 . S
C3357 C3354 1.499 . S
C3357 C3358 1.373 . S
C3357 C3359 1.389 . S
C3358 H3331 0.950 . S
C3358 C3344 1.377 . S
C3358 C3357 1.373 . S
C3359 C3343 1.377 . S
C3359 C3357 1.389 . S
C3359 C3360 1.524 . S
C3360 C3359 1.524 . S
C3360 C3361 1.397 . S
C3360 C3365 1.363 . S
C3361 H3332 0.950 . S
C3361 C3360 1.397 . S
C3361 C3362 1.334 . S
C3362 H3333 0.950 . S
C3362 C3361 1.334 . S
C3362 C3363 1.287 . S
C3363 C3362 1.287 . S
C3363 C3364 1.524 . S
C3363 H3366 0.999 . S
C3364 H3334 0.950 . S
C3364 C3363 1.524 . S
C3364 C3365 1.415 . S
C3365 H3335 0.950 . S
C3365 C3360 1.363 . S
C3365 C3364 1.415 . S
H3366 C3363 0.999 . S
H3367 C3348 0.913 . S
H3368 C3386 0.951 . S
H3369 C3388 0.951 . S
H3370 C3390 0.950 . S
H3371 C3391 0.950 . S
H3372 C3393 0.950 . S
H3373 C3396 0.950 . S
H3374 C3397 0.950 . S
H3375 C3399 0.950 . S
H3376 C3400 0.950 . S
H3377 C3401 0.951 . S
H3378 C3403 0.951 . S
H3379 C3405 0.950 . S
H3380 C3406 0.950 . S
H3381 C3408 0.950 . S
H3382 C3411 0.950 . S
H3383 C3412 0.950 . S
H3384 C3414 0.950 . S
H3385 C3415 0.950 . S
C3386 H3368 0.951 . S
C3386 C3387 1.366 . S
C3386 C3388 1.388 . S
C3387 C3386 1.366 . S
C3387 C3391 1.385 . S
C3388 H3369 0.951 . S
C3388 C3386 1.388 . S
C3388 C3389 1.366 . S
C3389 C3388 1.366 . S
C3389 C3390 1.414 . S
C3389 C3392 1.499 . S
C3390 H3370 0.950 . S
C3390 C3389 1.414 . S
C3390 C3391 1.374 . S
C3391 H3371 0.950 . S
C3391 C3387 1.385 . S
C3391 C3390 1.374 . S
C3392 C3389 1.499 . S
C3392 C3393 1.373 . S
C3392 C3394 1.389 . S
C3393 H3372 0.950 . S
C3393 C3392 1.373 . S
C3393 C3409 1.377 . S
C3394 C3392 1.389 . S
C3394 C3395 1.524 . S
C3394 C3408 1.377 . S
C3395 C3394 1.524 . S
C3395 C3396 1.397 . S
C3395 C3400 1.363 . S
C3396 H3373 0.950 . S
C3396 C3395 1.397 . S
C3396 C3397 1.334 . S
C3397 H3374 0.950 . S
C3397 C3396 1.334 . S
C3397 C3398 1.287 . S
C3398 C3397 1.287 . S
C3398 C3399 1.524 . S
C3398 H3417 0.913 . S
C3399 H3375 0.950 . S
C3399 C3398 1.524 . S
C3399 C3400 1.415 . S
C3400 H3376 0.950 . S
C3400 C3395 1.363 . S
C3400 C3399 1.415 . S
C3401 H3377 0.951 . S
C3401 C3402 1.366 . S
C3401 C3403 1.388 . S
C3402 C3401 1.366 . S
C3402 C3406 1.385 . S
C3403 H3378 0.951 . S
C3403 C3401 1.388 . S
C3403 C3404 1.366 . S
C3404 C3403 1.366 . S
C3404 C3405 1.414 . S
C3404 C3407 1.499 . S
C3405 H3379 0.950 . S
C3405 C3404 1.414 . S
C3405 C3406 1.374 . S
C3406 H3380 0.950 . S
C3406 C3402 1.385 . S
C3406 C3405 1.374 . S
C3407 C3404 1.499 . S
C3407 C3408 1.373 . S
C3407 C3409 1.389 . S
C3408 H3381 0.950 . S
C3408 C3394 1.377 . S
C3408 C3407 1.373 . S
C3409 C3393 1.377 . S
C3409 C3407 1.389 . S
C3409 C3410 1.524 . S
C3410 C3409 1.524 . S
C3410 C3411 1.397 . S
C3410 C3415 1.363 . S
C3411 H3382 0.950 . S
C3411 C3410 1.397 . S
C3411 C3412 1.334 . S
C3412 H3383 0.950 . S
C3412 C3411 1.334 . S
C3412 C3413 1.287 . S
C3413 C3412 1.287 . S
C3413 C3414 1.524 . S
C3413 H3416 0.999 . S
C3414 H3384 0.950 . S
C3414 C3413 1.524 . S
C3414 C3415 1.415 . S
C3415 H3385 0.950 . S
C3415 C3410 1.363 . S
C3415 C3414 1.415 . S
H3416 C3413 0.999 . S
H3417 C3398 0.913 . S
H3418 C3436 0.951 . S
H3419 C3438 0.951 . S
H3420 C3440 0.950 . S
H3421 C3441 0.950 . S
H3422 C3443 0.950 . S
H3423 C3446 0.950 . S
H3424 C3447 0.950 . S
H3425 C3449 0.950 . S
H3426 C3450 0.950 . S
H3427 C3451 0.951 . S
H3428 C3453 0.951 . S
H3429 C3455 0.950 . S
H3430 C3456 0.950 . S
H3431 C3458 0.950 . S
H3432 C3461 0.950 . S
H3433 C3462 0.950 . S
H3434 C3464 0.950 . S
H3435 C3465 0.950 . S
C3436 H3418 0.951 . S
C3436 C3437 1.366 . S
C3436 C3438 1.388 . S
C3437 C3436 1.366 . S
C3437 C3441 1.385 . S
C3438 H3419 0.951 . S
C3438 C3436 1.388 . S
C3438 C3439 1.366 . S
C3439 C3438 1.366 . S
C3439 C3440 1.414 . S
C3439 C3442 1.499 . S
C3440 H3420 0.950 . S
C3440 C3439 1.414 . S
C3440 C3441 1.374 . S
C3441 H3421 0.950 . S
C3441 C3437 1.385 . S
C3441 C3440 1.374 . S
C3442 C3439 1.499 . S
C3442 C3443 1.373 . S
C3442 C3444 1.389 . S
C3443 H3422 0.950 . S
C3443 C3442 1.373 . S
C3443 C3459 1.377 . S
C3444 C3442 1.389 . S
C3444 C3445 1.524 . S
C3444 C3458 1.377 . S
C3445 C3444 1.524 . S
C3445 C3446 1.397 . S
C3445 C3450 1.363 . S
C3446 H3423 0.950 . S
C3446 C3445 1.397 . S
C3446 C3447 1.334 . S
C3447 H3424 0.950 . S
C3447 C3446 1.334 . S
C3447 C3448 1.287 . S
C3448 C3447 1.287 . S
C3448 C3449 1.524 . S
C3448 H3467 0.913 . S
C3449 H3425 0.950 . S
C3449 C3448 1.524 . S
C3449 C3450 1.415 . S
C3450 H3426 0.950 . S
C3450 C3445 1.363 . S
C3450 C3449 1.415 . S
C3451 H3427 0.951 . S
C3451 C3452 1.366 . S
C3451 C3453 1.388 . S
C3452 C3451 1.366 . S
C3452 C3456 1.385 . S
C3453 H3428 0.951 . S
C3453 C3451 1.388 . S
C3453 C3454 1.366 . S
C3454 C3453 1.366 . S
C3454 C3455 1.414 . S
C3454 C3457 1.499 . S
C3455 H3429 0.950 . S
C3455 C3454 1.414 . S
C3455 C3456 1.374 . S
C3456 H3430 0.950 . S
C3456 C3452 1.385 . S
C3456 C3455 1.374 . S
C3457 C3454 1.499 . S
C3457 C3458 1.373 . S
C3457 C3459 1.389 . S
C3458 H3431 0.950 . S
C3458 C3444 1.377 . S
C3458 C3457 1.373 . S
C3459 C3443 1.377 . S
C3459 C3457 1.389 . S
C3459 C3460 1.524 . S
C3460 C3459 1.524 . S
C3460 C3461 1.397 . S
C3460 C3465 1.363 . S
C3461 H3432 0.950 . S
C3461 C3460 1.397 . S
C3461 C3462 1.334 . S
C3462 H3433 0.950 . S
C3462 C3461 1.334 . S
C3462 C3463 1.287 . S
C3463 C3462 1.287 . S
C3463 C3464 1.524 . S
C3463 H3466 0.999 . S
C3464 H3434 0.950 . S
C3464 C3463 1.524 . S
C3464 C3465 1.415 . S
C3465 H3435 0.950 . S
C3465 C3460 1.363 . S
C3465 C3464 1.415 . S
H3466 C3463 0.999 . S
H3467 C3448 0.913 . S
H3468 C3486 0.951 . S
H3469 C3488 0.951 . S
H3470 C3490 0.950 . S
H3471 C3491 0.950 . S
H3472 C3493 0.950 . S
H3473 C3496 0.950 . S
H3474 C3497 0.950 . S
H3475 C3499 0.950 . S
H3476 C3500 0.950 . S
H3477 C3501 0.951 . S
H3478 C3503 0.951 . S
H3479 C3505 0.950 . S
H3480 C3506 0.950 . S
H3481 C3508 0.950 . S
H3482 C3511 0.950 . S
H3483 C3512 0.950 . S
H3484 C3514 0.950 . S
H3485 C3515 0.950 . S
C3486 H3468 0.951 . S
C3486 C3487 1.366 . S
C3486 C3488 1.388 . S
C3487 C3486 1.366 . S
C3487 C3491 1.385 . S
C3488 H3469 0.951 . S
C3488 C3486 1.388 . S
C3488 C3489 1.366 . S
C3489 C3488 1.366 . S
C3489 C3490 1.414 . S
C3489 C3492 1.499 . S
C3490 H3470 0.950 . S
C3490 C3489 1.414 . S
C3490 C3491 1.374 . S
C3491 H3471 0.950 . S
C3491 C3487 1.385 . S
C3491 C3490 1.374 . S
C3492 C3489 1.499 . S
C3492 C3493 1.373 . S
C3492 C3494 1.389 . S
C3493 H3472 0.950 . S
C3493 C3492 1.373 . S
C3493 C3509 1.377 . S
C3494 C3492 1.389 . S
C3494 C3495 1.524 . S
C3494 C3508 1.377 . S
C3495 C3494 1.524 . S
C3495 C3496 1.397 . S
C3495 C3500 1.363 . S
C3496 H3473 0.950 . S
C3496 C3495 1.397 . S
C3496 C3497 1.334 . S
C3497 H3474 0.950 . S
C3497 C3496 1.334 . S
C3497 C3498 1.287 . S
C3498 C3497 1.287 . S
C3498 C3499 1.524 . S
C3498 H3517 0.913 . S
C3499 H3475 0.950 . S
C3499 C3498 1.524 . S
C3499 C3500 1.415 . S
C3500 H3476 0.950 . S
C3500 C3495 1.363 . S
C3500 C3499 1.415 . S
C3501 H3477 0.951 . S
C3501 C3502 1.366 . S
C3501 C3503 1.388 . S
C3502 C3501 1.366 . S
C3502 C3506 1.385 . S
C3503 H3478 0.951 . S
C3503 C3501 1.388 . S
C3503 C3504 1.366 . S
C3504 C3503 1.366 . S
C3504 C3505 1.414 . S
C3504 C3507 1.499 . S
C3505 H3479 0.950 . S
C3505 C3504 1.414 . S
C3505 C3506 1.374 . S
C3506 H3480 0.950 . S
C3506 C3502 1.385 . S
C3506 C3505 1.374 . S
C3507 C3504 1.499 . S
C3507 C3508 1.373 . S
C3507 C3509 1.389 . S
C3508 H3481 0.950 . S
C3508 C3494 1.377 . S
C3508 C3507 1.373 . S
C3509 C3493 1.377 . S
C3509 C3507 1.389 . S
C3509 C3510 1.524 . S
C3510 C3509 1.524 . S
C3510 C3511 1.397 . S
C3510 C3515 1.363 . S
C3511 H3482 0.950 . S
C3511 C3510 1.397 . S
C3511 C3512 1.334 . S
C3512 H3483 0.950 . S
C3512 C3511 1.334 . S
C3512 C3513 1.287 . S
C3513 C3512 1.287 . S
C3513 C3514 1.524 . S
C3513 H3516 0.999 . S
C3514 H3484 0.950 . S
C3514 C3513 1.524 . S
C3514 C3515 1.415 . S
C3515 H3485 0.950 . S
C3515 C3510 1.363 . S
C3515 C3514 1.415 . S
H3516 C3513 0.999 . S
H3517 C3498 0.913 . S
H3518 C3536 0.951 . S
H3519 C3538 0.951 . S
H3520 C3540 0.950 . S
H3521 C3541 0.950 . S
H3522 C3543 0.950 . S
H3523 C3546 0.950 . S
H3524 C3547 0.950 . S
H3525 C3549 0.950 . S
H3526 C3550 0.950 . S
H3527 C3551 0.951 . S
H3528 C3553 0.951 . S
H3529 C3555 0.950 . S
H3530 C3556 0.950 . S
H3531 C3558 0.950 . S
H3532 C3561 0.950 . S
H3533 C3562 0.950 . S
H3534 C3564 0.950 . S
H3535 C3565 0.950 . S
C3536 H3518 0.951 . S
C3536 C3537 1.366 . S
C3536 C3538 1.388 . S
C3537 C3536 1.366 . S
C3537 C3541 1.385 . S
C3538 H3519 0.951 . S
C3538 C3536 1.388 . S
C3538 C3539 1.366 . S
C3539 C3538 1.366 . S
C3539 C3540 1.414 . S
C3539 C3542 1.499 . S
C3540 H3520 0.950 . S
C3540 C3539 1.414 . S
C3540 C3541 1.374 . S
C3541 H3521 0.950 . S
C3541 C3537 1.385 . S
C3541 C3540 1.374 . S
C3542 C3539 1.499 . S
C3542 C3543 1.373 . S
C3542 C3544 1.389 . S
C3543 H3522 0.950 . S
C3543 C3542 1.373 . S
C3543 C3559 1.377 . S
C3544 C3542 1.389 . S
C3544 C3545 1.524 . S
C3544 C3558 1.377 . S
C3545 C3544 1.524 . S
C3545 C3546 1.397 . S
C3545 C3550 1.363 . S
C3546 H3523 0.950 . S
C3546 C3545 1.397 . S
C3546 C3547 1.334 . S
C3547 H3524 0.950 . S
C3547 C3546 1.334 . S
C3547 C3548 1.287 . S
C3548 C3547 1.287 . S
C3548 C3549 1.524 . S
C3548 H3567 0.913 . S
C3549 H3525 0.950 . S
C3549 C3548 1.524 . S
C3549 C3550 1.415 . S
C3550 H3526 0.950 . S
C3550 C3545 1.363 . S
C3550 C3549 1.415 . S
C3551 H3527 0.951 . S
C3551 C3552 1.366 . S
C3551 C3553 1.388 . S
C3552 C3551 1.366 . S
C3552 C3556 1.385 . S
C3553 H3528 0.951 . S
C3553 C3551 1.388 . S
C3553 C3554 1.366 . S
C3554 C3553 1.366 . S
C3554 C3555 1.414 . S
C3554 C3557 1.499 . S
C3555 H3529 0.950 . S
C3555 C3554 1.414 . S
C3555 C3556 1.374 . S
C3556 H3530 0.950 . S
C3556 C3552 1.385 . S
C3556 C3555 1.374 . S
C3557 C3554 1.499 . S
C3557 C3558 1.373 . S
C3557 C3559 1.389 . S
C3558 H3531 0.950 . S
C3558 C3544 1.377 . S
C3558 C3557 1.373 . S
C3559 C3543 1.377 . S
C3559 C3557 1.389 . S
C3559 C3560 1.524 . S
C3560 C3559 1.524 . S
C3560 C3561 1.397 . S
C3560 C3565 1.363 . S
C3561 H3532 0.950 . S
C3561 C3560 1.397 . S
C3561 C3562 1.334 . S
C3562 H3533 0.950 . S
C3562 C3561 1.334 . S
C3562 C3563 1.287 . S
C3563 C3562 1.287 . S
C3563 C3564 1.524 . S
C3563 H3566 0.999 . S
C3564 H3534 0.950 . S
C3564 C3563 1.524 . S
C3564 C3565 1.415 . S
C3565 H3535 0.950 . S
C3565 C3560 1.363 . S
C3565 C3564 1.415 . S
H3566 C3563 0.999 . S
H3567 C3548 0.913 . S
H3568 C3586 0.951 . S
H3569 C3588 0.951 . S
H3570 C3590 0.950 . S
H3571 C3591 0.950 . S
H3572 C3593 0.950 . S
H3573 C3596 0.950 . S
H3574 C3597 0.950 . S
H3575 C3599 0.950 . S
H3576 C3600 0.950 . S
H3577 C3601 0.951 . S
H3578 C3603 0.951 . S
H3579 C3605 0.950 . S
H3580 C3606 0.950 . S
H3581 C3608 0.950 . S
H3582 C3611 0.950 . S
H3583 C3612 0.950 . S
H3584 C3614 0.950 . S
H3585 C3615 0.950 . S
C3586 H3568 0.951 . S
C3586 C3587 1.366 . S
C3586 C3588 1.388 . S
C3587 C3586 1.366 . S
C3587 C3591 1.385 . S
C3588 H3569 0.951 . S
C3588 C3586 1.388 . S
C3588 C3589 1.366 . S
C3589 C3588 1.366 . S
C3589 C3590 1.414 . S
C3589 C3592 1.499 . S
C3590 H3570 0.950 . S
C3590 C3589 1.414 . S
C3590 C3591 1.374 . S
C3591 H3571 0.950 . S
C3591 C3587 1.385 . S
C3591 C3590 1.374 . S
C3592 C3589 1.499 . S
C3592 C3593 1.373 . S
C3592 C3594 1.389 . S
C3593 H3572 0.950 . S
C3593 C3592 1.373 . S
C3593 C3609 1.377 . S
C3594 C3592 1.389 . S
C3594 C3595 1.524 . S
C3594 C3608 1.377 . S
C3595 C3594 1.524 . S
C3595 C3596 1.397 . S
C3595 C3600 1.363 . S
C3596 H3573 0.950 . S
C3596 C3595 1.397 . S
C3596 C3597 1.334 . S
C3597 H3574 0.950 . S
C3597 C3596 1.334 . S
C3597 C3598 1.287 . S
C3598 C3597 1.287 . S
C3598 C3599 1.524 . S
C3598 H3617 0.913 . S
C3599 H3575 0.950 . S
C3599 C3598 1.524 . S
C3599 C3600 1.415 . S
C3600 H3576 0.950 . S
C3600 C3595 1.363 . S
C3600 C3599 1.415 . S
C3601 H3577 0.951 . S
C3601 C3602 1.366 . S
C3601 C3603 1.388 . S
C3602 C3601 1.366 . S
C3602 C3606 1.385 . S
C3603 H3578 0.951 . S
C3603 C3601 1.388 . S
C3603 C3604 1.366 . S
C3604 C3603 1.366 . S
C3604 C3605 1.414 . S
C3604 C3607 1.499 . S
C3605 H3579 0.950 . S
C3605 C3604 1.414 . S
C3605 C3606 1.374 . S
C3606 H3580 0.950 . S
C3606 C3602 1.385 . S
C3606 C3605 1.374 . S
C3607 C3604 1.499 . S
C3607 C3608 1.373 . S
C3607 C3609 1.389 . S
C3608 H3581 0.950 . S
C3608 C3594 1.377 . S
C3608 C3607 1.373 . S
C3609 C3593 1.377 . S
C3609 C3607 1.389 . S
C3609 C3610 1.524 . S
C3610 C3609 1.524 . S
C3610 C3611 1.397 . S
C3610 C3615 1.363 . S
C3611 H3582 0.950 . S
C3611 C3610 1.397 . S
C3611 C3612 1.334 . S
C3612 H3583 0.950 . S
C3612 C3611 1.334 . S
C3612 C3613 1.287 . S
C3613 C3612 1.287 . S
C3613 C3614 1.524 . S
C3613 H3616 0.999 . S
C3614 H3584 0.950 . S
C3614 C3613 1.524 . S
C3614 C3615 1.415 . S
C3615 H3585 0.950 . S
C3615 C3610 1.363 . S
C3615 C3614 1.415 . S
H3616 C3613 0.999 . S
H3617 C3598 0.913 . S
C937 C124 1.405 . S
C952 C218 1.328 . S
C987 C130 1.466 . S
C1002 C302 1.392 . S
C1037 C115 1.441 . S
C1052 C396 1.406 . S
C1087 C106 1.411 . S
C1102 C312 1.378 . S
C1152 C386 1.330 . S
C1137 C85 1.406 . S
C1187 C97 1.367 . S
C1202 C228 1.335 . S
C1252 C229 1.355 . S
C1237 C103 1.433 . S
C1302 C313 1.363 . S
C1287 C88 1.437 . S
C1337 C94 1.440 . S
C1352 C405 1.406 . S
C1387 C121 1.410 . S
C1402 C321 1.378 . S
C1437 C133 1.376 . S
C1452 C397 1.302 . S
C1502 C237 1.362 . S
C1487 C112 1.395 . S
C1552 C470 1.328 . S
C1537 C16 1.405 . S
C1587 C22 1.466 . S
C1602 C554 1.392 . S
C1637 C7 1.441 . S
C1652 C648 1.407 . S
C1687 C160 1.412 . S
C1702 C564 1.379 . S
C1737 C139 1.406 . S
C1752 C638 1.330 . S
C1787 C151 1.367 . S
C1802 C480 1.334 . S
C1837 C157 1.434 . S
C1852 C481 1.355 . S
C1887 C142 1.437 . S
C1902 C565 1.365 . S
C1952 C657 1.405 . S
C1937 C148 1.439 . S
C1987 C13 1.410 . S
C2002 C573 1.377 . S
C2052 C649 1.303 . S
C2037 C25 1.376 . S
C2087 C4 1.395 . S
C2102 C489 1.361 . S
C2152 C722 1.329 . S
C2137 C70 1.405 . S
C2187 C76 1.466 . S
C2202 C806 1.392 . S
C2252 C900 1.407 . S
C2237 C61 1.441 . S
C2302 C816 1.379 . S
C2287 C52 1.411 . S
C2352 C890 1.331 . S
C2337 C31 1.406 . S
C2387 C43 1.367 . S
C2402 C732 1.335 . S
C2437 C49 1.434 . S
C2452 C733 1.354 . S
C2487 C34 1.437 . S
C2502 C817 1.365 . S
C2552 C909 1.405 . S
C2537 C40 1.439 . S
C2587 C67 1.410 . S
C2602 C825 1.378 . S
C2637 C79 1.376 . S
C2652 C901 1.302 . S
C2687 C58 1.395 . S
C2702 C741 1.362 . S
C2737 C140 1.452 . S
C2752 C225 1.334 . S
C2802 C309 1.355 . S
C2787 C149 1.492 . S
C2837 C158 1.487 . S
C2852 C402 1.355 . S
C2887 C59 1.515 . S
C2902 C318 1.376 . S
C2937 C68 1.464 . S
C2952 C393 1.336 . S
C3002 C234 1.334 . S
C2987 C77 1.451 . S
C3037 C32 1.451 . S
C3052 C477 1.333 . S
C3087 C41 1.492 . S
C3102 C561 1.355 . S
C3137 C50 1.487 . S
C3152 C654 1.355 . S
C3187 C113 1.515 . S
C3202 C570 1.376 . S
C3252 C645 1.336 . S
C3237 C122 1.464 . S
C3287 C131 1.452 . S
C3302 C486 1.332 . S
C3337 C86 1.451 . S
C3352 C729 1.333 . S
C3387 C95 1.492 . S
C3402 C813 1.354 . S
C3452 C906 1.355 . S
C3437 C104 1.487 . S
C3487 C5 1.515 . S
C3502 C822 1.376 . S
C3537 C14 1.464 . S
C3552 C897 1.334 . S
C3587 C23 1.452 . S
C3602 C738 1.333 . S
