# Generated by pormake.
# Topology zzz, (3,6)-cn, num edge types: 1
# Building blocks:
#     Node 0, Type 0, BuildingBlock: ESEHIV_clean_linker_0, # of connection points: 3
#     Node 1, Type 0, BuildingBlock: ESEHIV_clean_linker_0, # of connection points: 3
#     Node 2, Type 0, BuildingBlock: ESEHIV_clean_linker_0, # of connection points: 3
#     Node 3, Type 0, BuildingBlock: ESEHIV_clean_linker_0, # of connection points: 3
#     Node 4, Type 0, BuildingBlock: ESEHIV_clean_linker_0, # of connection points: 3
#     Node 5, Type 0, BuildingBlock: ESEHIV_clean_linker_0, # of connection points: 3
#     Node 6, Type 0, BuildingBlock: ESEHIV_clean_linker_0, # of connection points: 3
#     Node 7, Type 0, BuildingBlock: ESEHIV_clean_linker_0, # of connection points: 3
#     Node 8, Type 1, BuildingBlock: MIFKUJ_clean_sbu_0, # of connection points: 6
#     Node 9, Type 1, BuildingBlock: MIFKUJ_clean_sbu_0, # of connection points: 6
#     Node 10, Type 1, BuildingBlock: MIFKUJ_clean_sbu_0, # of connection points: 6
#     Node 11, Type 1, BuildingBlock: MIFKUJ_clean_sbu_0, # of connection points: 6
#     Edge 12, Type (0, 1), BuildingBlock: OJICUG_clean_linker_0, # of connection points: 2
#     Edge 13, Type (0, 1), BuildingBlock: OJICUG_clean_linker_0, # of connection points: 2
#     Edge 14, Type (0, 1), BuildingBlock: OJICUG_clean_linker_0, # of connection points: 2
#     Edge 15, Type (0, 1), BuildingBlock: OJICUG_clean_linker_0, # of connection points: 2
#     Edge 16, Type (0, 1), BuildingBlock: OJICUG_clean_linker_0, # of connection points: 2
#     Edge 17, Type (0, 1), BuildingBlock: OJICUG_clean_linker_0, # of connection points: 2
#     Edge 18, Type (0, 1), BuildingBlock: OJICUG_clean_linker_0, # of connection points: 2
#     Edge 19, Type (0, 1), BuildingBlock: OJICUG_clean_linker_0, # of connection points: 2
#     Edge 20, Type (0, 1), BuildingBlock: OJICUG_clean_linker_0, # of connection points: 2
#     Edge 21, Type (0, 1), BuildingBlock: OJICUG_clean_linker_0, # of connection points: 2
#     Edge 22, Type (0, 1), BuildingBlock: OJICUG_clean_linker_0, # of connection points: 2
#     Edge 23, Type (0, 1), BuildingBlock: OJICUG_clean_linker_0, # of connection points: 2
#     Edge 24, Type (0, 1), BuildingBlock: OJICUG_clean_linker_0, # of connection points: 2
#     Edge 25, Type (0, 1), BuildingBlock: OJICUG_clean_linker_0, # of connection points: 2
#     Edge 26, Type (0, 1), BuildingBlock: OJICUG_clean_linker_0, # of connection points: 2
#     Edge 27, Type (0, 1), BuildingBlock: OJICUG_clean_linker_0, # of connection points: 2
#     Edge 28, Type (0, 1), BuildingBlock: OJICUG_clean_linker_0, # of connection points: 2
#     Edge 29, Type (0, 1), BuildingBlock: OJICUG_clean_linker_0, # of connection points: 2
#     Edge 30, Type (0, 1), BuildingBlock: OJICUG_clean_linker_0, # of connection points: 2
#     Edge 31, Type (0, 1), BuildingBlock: OJICUG_clean_linker_0, # of connection points: 2
#     Edge 32, Type (0, 1), BuildingBlock: OJICUG_clean_linker_0, # of connection points: 2
#     Edge 33, Type (0, 1), BuildingBlock: OJICUG_clean_linker_0, # of connection points: 2
#     Edge 34, Type (0, 1), BuildingBlock: OJICUG_clean_linker_0, # of connection points: 2
#     Edge 35, Type (0, 1), BuildingBlock: OJICUG_clean_linker_0, # of connection points: 2
# Relax obj value: 0.349
# Max RMSD: 0.197
# Mean RMSD: 0.192
data_MOF--net-zzz--node1-MIFKUJ_clean_sbu_0--node2-ESEHIV_clean_linker_0--edge1-OJICUG_clean_linker_0
_symmetry_space_group_name_H-M    P1
_symmetry_Int_Tables_number       1
_symmetry_cell_setting            triclinic
loop_
_symmetry_equiv_pos_as_xyz
'x, y, z'
_cell_length_a     31.092459
_cell_length_b     30.86398
_cell_length_c     12.166777
_cell_angle_alpha  89.546817
_cell_angle_beta   89.910658
_cell_angle_gamma 89.92436
loop_
_atom_site_label
_atom_site_type_symbol
_atom_site_fract_x
_atom_site_fract_y
_atom_site_fract_z
_atom_type_partial_charge
H0 H 0.78935 0.44434 0.22057 0.0
H1 H 0.71025 0.44399 0.93269 0.0
H2 H 0.66088 0.49555 0.236 0.0
C3 C 0.7582 0.449 0.18203 0.0
C4 C 0.72516 0.46838 0.24261 0.0
C5 C 0.75377 0.44169 0.0698 0.0
C6 C 0.71389 0.4494 0.02021 0.0
C7 C 0.68017 0.4686 0.07913 0.0
C8 C 0.68581 0.4786 0.1912 0.0
H9 H 0.0426 0.84001 0.08155 0.0
H10 H 0.04351 0.75581 0.80313 0.0
H11 H 0.00824 0.70602 0.12395 0.0
C12 C 0.03689 0.8083 0.04644 0.0
C13 C 0.02416 0.77415 0.11517 0.0
C14 C 0.04422 0.80187 0.93459 0.0
C15 C 0.03843 0.76054 0.89041 0.0
C16 C 0.02495 0.72566 0.95727 0.0
C17 C 0.01786 0.73262 0.07077 0.0
H18 H 0.6977 0.01735 0.10188 0.0
H19 H 0.79803 0.03347 0.86389 0.0
H20 H 0.82898 0.99213 0.19456 0.0
C21 C 0.73172 0.0176 0.08147 0.0
C22 C 0.76148 1.00432 0.16082 0.0
C23 C 0.74442 0.02752 0.97451 0.0
C24 C 0.78815 0.02661 0.94781 0.0
C25 C 0.81903 0.01437 0.02641 0.0
C26 C 0.80566 1.00267 0.1339 0.0
H27 H 0.44304 0.69823 0.20208 0.0
H28 H 0.50739 0.82032 0.1611 0.0
H29 H 0.44903 0.75785 0.88315 0.0
C30 C 0.45165 0.72557 0.14988 0.0
C31 C 0.44483 0.72296 0.03677 0.0
C32 C 0.47607 0.75917 0.19425 0.0
C33 C 0.48798 0.79453 0.12729 0.0
C34 C 0.47611 0.79531 0.01508 0.0
C35 C 0.45515 0.75898 0.97064 0.0
H36 H 0.21519 0.57063 0.01898 0.0
H37 H 0.3137 0.58088 0.26363 0.0
H38 H 0.3374 0.50928 0.96713 0.0
C39 C 0.24817 0.56574 0.04524 0.0
C40 C 0.27567 0.54178 0.97764 0.0
C41 C 0.26072 0.57809 0.15064 0.0
C42 C 0.30341 0.57109 0.18234 0.0
C43 C 0.33085 0.54536 0.11873 0.0
C44 C 0.31701 0.53036 0.01538 0.0
H45 H 0.93287 0.22036 0.98483 0.0
H46 H 0.93046 0.28339 0.29907 0.0
H47 H 0.99933 0.34047 0.02825 0.0
C48 C 0.94096 0.24728 0.0375 0.0
C49 C 0.96806 0.2796 -0.00423 0.0
C50 C 0.92904 0.24652 0.14851 0.0
C51 C 0.93842 0.28318 0.21248 0.0
C52 C 0.96186 0.31837 0.16883 0.0
C53 C 0.97831 0.31551 0.06085 0.0
H54 H 0.30551 0.96926 0.09651 0.0
H55 H 0.20515 0.96119 0.33763 0.0
H56 H 0.1777 0.01056 0.01264 0.0
C57 C 0.27169 0.97146 0.11809 0.0
C58 C 0.24301 0.98866 0.04086 0.0
C59 C 0.25878 0.9629 0.2259 0.0
C60 C 0.2152 0.96694 0.25331 0.0
C61 C 0.18552 0.98374 0.17712 0.0
C62 C 0.19966 0.9954 0.07033 0.0
H63 H 0.56265 0.30801 -0.00128 0.0
H64 H 0.49479 0.18774 0.03624 0.0
H65 H 0.55386 0.24773 0.31664 0.0
C66 C 0.55293 0.28094 0.05048 0.0
C67 C 0.5595 0.28307 0.16378 0.0
C68 C 0.52762 0.24826 0.00506 0.0
C69 C 0.51469 0.21295 0.07098 0.0
C70 C 0.52638 0.21142 0.18329 0.0
C71 C 0.54797 0.24712 0.22901 0.0
Zn72 Zn 0.99375 0.08809 0.58803 0.0
Zn73 Zn 0.0233 0.96097 0.58677 0.0
C74 C 0.01057 0.17773 0.63855 0.0
O75 O 0.99657 0.18353 0.53769 0.0
C76 C 0.0417 0.87511 0.49039 0.0
O77 O 0.08203 0.88518 0.50873 0.0
O78 O 0.9436 0.11159 0.50318 0.0
O79 O 0.03922 0.06938 0.47936 0.0
O80 O 0.0105 1.00502 0.46915 0.0
C81 C 0.9303 0.09695 0.41224 0.0
O82 O 0.94473 0.05938 0.37804 0.0
O83 O 0.01482 0.13926 0.67593 0.0
C84 C 0.10984 0.94802 0.69197 0.0
O85 O 0.15088 0.95743 0.70032 0.0
O86 O 0.08608 0.97066 0.62878 0.0
O87 O 0.98204 0.97089 0.71548 0.0
O88 O 0.97309 0.0416 0.69429 0.0
O89 O 0.01237 0.90159 0.51893 0.0
C90 C 0.03921 0.03173 0.43802 0.0
C91 C 0.96561 0.0066 0.74709 0.0
Zn92 Zn 0.45829 0.01775 0.64618 0.0
Zn93 Zn 0.54395 0.98612 0.54667 0.0
C94 C 0.37723 1.00252 0.74179 0.0
O95 O 0.38898 0.96423 0.70603 0.0
C96 C 0.62582 0.9987 0.45305 0.0
O97 O 0.6151 0.03742 0.48799 0.0
O98 O 0.43245 0.9844 0.52136 0.0
O99 O 0.48802 0.07016 0.57726 0.0
O100 O 0.51268 0.02793 0.44659 0.0
C101 C 0.4033 0.0083 0.48012 0.0
O102 O 0.40202 0.04945 0.50703 0.0
O103 O 0.40371 0.03399 0.73272 0.0
C104 C 0.59931 0.99169 0.71239 0.0
O105 O 0.59878 0.95083 0.68277 0.0
O106 O 0.57136 0.01741 0.67259 0.0
O107 O 0.51256 0.93454 0.61549 0.0
O108 O 0.49096 0.97781 0.74718 0.0
O109 O 0.59816 0.96822 0.46065 0.0
C110 C 0.50131 0.0653 0.47891 0.0
C111 C 0.50058 0.94 0.71476 0.0
Zn112 Zn 0.49297 0.45358 0.61388 0.0
Zn113 Zn 0.51499 0.55541 0.58356 0.0
C114 C 0.50486 0.3655 0.67661 0.0
O115 O 0.54395 0.37764 0.64988 0.0
C116 C 0.50186 0.64417 0.52603 0.0
O117 O 0.46318 0.63204 0.55642 0.0
O118 O 0.54047 0.44154 0.50477 0.0
O119 O 0.44517 0.48422 0.52723 0.0
O120 O 0.49182 0.528 0.44727 0.0
C121 C 0.52493 0.42374 0.4201 0.0
O122 O 0.48312 0.41834 0.41377 0.0
O123 O 0.47442 0.39313 0.66834 0.0
C124 C 0.48306 0.58327 0.77917 0.0
O125 O 0.5248 0.5893 0.78457 0.0
O126 O 0.46748 0.56573 0.69413 0.0
O127 O 0.56353 0.52484 0.66594 0.0
O128 O 0.51767 0.48113 0.74918 0.0
O129 O 0.53235 0.61646 0.53083 0.0
C130 C 0.45614 0.50811 0.4458 0.0
C131 C 0.5535 0.50084 0.74789 0.0
Zn132 Zn 0.06395 0.52035 0.56872 0.0
Zn133 Zn 0.93183 0.49761 0.64242 0.0
C134 C 0.14492 0.53316 0.67176 0.0
O135 O 0.1366 0.57211 0.63311 0.0
C136 C 0.84503 0.48063 0.57014 0.0
O137 O 0.85282 0.44401 0.62201 0.0
O138 O 0.08785 0.56144 0.45583 0.0
O139 O 0.04147 0.46974 0.48043 0.0
O140 O 0.97467 0.47142 0.53804 0.0
C141 C 0.11631 0.54037 0.40396 0.0
O142 O 0.11924 0.49833 0.42022 0.0
O143 O 0.11647 0.50367 0.6621 0.0
C144 C 0.91572 0.46192 0.85745 0.0
O145 O 0.93517 0.49672 0.89352 0.0
O146 O 0.9192 0.45249 0.75676 0.0
O147 O 0.9518 0.5524 0.71872 0.0
O148 O 0.0185 0.54955 0.6605 0.0
O149 O 0.87473 0.50903 0.56404 0.0
C150 C 0.0031 0.45605 0.47414 0.0
C151 C 0.98969 0.56781 0.71819 0.0
C152 C 0.11492 0.96415 0.26289 0.0
C153 C 0.14264 0.99601 0.21993 0.0
H154 H 0.05966 0.95057 0.36297 0.0
C155 C 0.13397 0.03973 0.24154 0.0
H156 H 0.12143 0.93014 0.24886 0.0
C157 C 0.09976 0.05126 0.31032 0.0
C158 C 0.07315 0.01933 0.3579 0.0
H159 H 0.15543 0.06479 0.21135 0.0
H160 H 0.09498 0.0852 0.32877 0.0
C161 C 0.08006 0.97578 0.32972 0.0
C162 C 0.49994 0.18002 0.36311 0.0
C163 C 0.51509 0.17375 0.25512 0.0
H164 H 0.48369 0.15098 0.51835 0.0
C165 C 0.52289 0.1313 0.21963 0.0
H166 H 0.4929 0.21228 0.39261 0.0
C167 C 0.51756 0.09616 0.29177 0.0
C168 C 0.50404 0.10257 0.40109 0.0
H169 H 0.53482 0.12538 0.13739 0.0
H170 H 0.52499 0.06399 0.26225 0.0
C171 C 0.4945 0.14487 0.43523 0.0
C172 C 0.36574 0.49142 0.24101 0.0
C173 C 0.36958 0.52876 0.17482 0.0
H174 H 0.38967 0.45582 0.38036 0.0
C175 C 0.40433 0.55673 0.19153 0.0
H176 H 0.33829 0.47016 0.23182 0.0
C177 C 0.43368 0.54868 0.27623 0.0
C178 C 0.42805 0.51308 0.34804 0.0
H179 H 0.40675 0.58656 0.14467 0.0
H180 H 0.45915 0.57196 0.28973 0.0
C181 C 0.39458 0.48374 0.32734 0.0
C182 C 0.94013 0.37285 0.31119 0.0
C183 C 0.97196 0.35571 0.24137 0.0
H184 H 0.92478 0.41766 0.43913 0.0
C185 C 0.01382 0.3726 0.24708 0.0
H186 H 0.90745 0.36078 0.30815 0.0
C187 C 0.0238 0.40517 0.32238 0.0
C188 C 0.99214 0.42173 0.3937 0.0
H189 H 0.03921 0.35978 0.19567 0.0
H190 H 0.05653 0.41705 0.32533 0.0
C191 C 0.95006 0.40545 0.38633 0.0
C192 C 0.88093 0.97121 0.95533 0.0
C193 C 0.86415 0.0114 0.98797 0.0
H194 H 0.9266 0.93793 0.85365 0.0
C195 C 0.88515 0.04945 0.95405 0.0
H196 H 0.86469 0.94148 0.97854 0.0
C197 C 0.91999 0.0476 0.88139 0.0
C198 C 0.93454 0.0076 0.84049 0.0
H199 H 0.87241 0.08083 0.97685 0.0
H200 H 0.93385 0.07778 0.85231 0.0
C201 C 0.91602 0.96929 0.88262 0.0
C202 C 0.47901 0.87526 0.97595 0.0
C203 C 0.4869 0.83266 0.94179 0.0
H204 H 0.47679 0.94235 0.9312 0.0
C205 C 0.50193 0.82587 0.83388 0.0
H206 H 0.46719 0.88158 0.05808 0.0
C207 C 0.50717 0.86065 0.76057 0.0
C208 C 0.49767 0.90309 0.7935 0.0
H209 H 0.50911 0.7935 0.8054 0.0
H210 H 0.51796 0.85415 0.67762 0.0
C211 C 0.48423 0.91004 0.90267 0.0
C212 C 0.60619 0.45661 0.00701 0.0
C213 C 0.64253 0.48315 0.01498 0.0
H214 H 0.54931 0.44145 0.91614 0.0
C215 C 0.64754 0.51785 0.94066 0.0
H216 H 0.60247 0.42894 0.06143 0.0
C217 C 0.61792 0.52454 0.85587 0.0
C218 C 0.58262 0.49665 0.84392 0.0
H219 H 0.67594 0.53813 0.9441 0.0
H220 H 0.62352 0.55062 0.79752 0.0
C221 C 0.57624 0.46351 0.92276 0.0
C222 C 0.04808 0.66595 0.83112 0.0
C223 C 0.01775 0.68273 0.90559 0.0
H224 H 0.06316 0.61672 0.714 0.0
C225 C 0.97895 0.66033 0.92165 0.0
H226 H 0.07838 0.68242 0.81739 0.0
C227 C 0.97001 0.62286 0.86147 0.0
C228 C 0.99988 0.6067 0.78472 0.0
H229 H 0.95482 0.6727 0.97758 0.0
H230 H 0.93941 0.60684 0.87421 0.0
C231 C 0.03935 0.62831 0.7718 0.0
C232 C 0.89392 0.20438 0.30368 0.0
C233 C 0.91529 0.20478 0.20152 0.0
H234 H 0.88166 0.16887 0.45246 0.0
C235 C 0.93017 0.16486 0.15963 0.0
H236 H 0.88008 0.23364 0.33712 0.0
C237 C 0.92884 0.12729 0.22364 0.0
C238 C 0.91408 0.12902 0.33226 0.0
H239 H 0.94702 0.16275 0.08212 0.0
H240 H 0.94435 0.09841 0.19247 0.0
C241 C 0.89399 0.167 0.36928 0.0
C242 C 0.33198 0.94199 0.29584 0.0
C243 C 0.29225 0.96309 0.31209 0.0
H244 H 0.39925 0.94017 0.33674 0.0
C245 C 0.28863 0.99378 0.39608 0.0
H246 H 0.33552 0.918 0.23193 0.0
C247 C 0.32484 0.00685 0.45338 0.0
C248 C 0.36526 0.98914 0.42907 0.0
H249 H 0.25875 0.01092 0.4105 0.0
H250 H 0.32145 0.03238 0.51348 0.0
C251 C 0.36839 0.95486 0.35467 0.0
C252 C 0.58621 0.32962 0.31928 0.0
C253 C 0.56705 0.32606 0.215 0.0
H254 H 0.58927 0.36622 0.46797 0.0
C255 C 0.5463 0.36277 0.16983 0.0
H256 H 0.60349 0.30257 0.35539 0.0
C257 C 0.53882 0.39909 0.23358 0.0
C258 C 0.5517 0.39943 0.3434 0.0
H259 H 0.53087 0.36198 0.09022 0.0
H260 H 0.51814 0.42448 0.20129 0.0
C261 C 0.57863 0.36635 0.3833 0.0
C262 C 0.18672 0.60253 0.20824 0.0
C263 C 0.22691 0.58404 0.23539 0.0
H264 H 0.11868 0.60251 0.24127 0.0
C265 C 0.23061 0.56013 0.33381 0.0
H266 H 0.18301 0.62196 0.13434 0.0
C267 C 0.19424 0.54924 0.39353 0.0
C268 C 0.1536 0.56247 0.35733 0.0
H269 H 0.26059 0.54509 0.35844 0.0
H270 H 0.19763 0.52739 0.46318 0.0
C271 C 0.14997 0.59152 0.26897 0.0
C272 C 0.09582 0.83393 0.79877 0.0
C273 C 0.05939 0.83851 0.86606 0.0
H274 H 0.141 0.86584 0.69206 0.0
C275 C 0.03965 0.87933 0.87496 0.0
H276 H 0.11207 0.80299 0.79227 0.0
C277 C 0.0563 0.91499 0.81836 0.0
C278 C 0.09247 0.91035 0.75101 0.0
H279 H 0.0118 0.88382 0.92731 0.0
H280 H 0.04206 0.94653 0.83072 0.0
C281 C 0.11258 0.8698 0.74266 0.0
C282 C 0.714 0.99964 0.80185 0.0
C283 C 0.71104 0.02904 0.88868 0.0
H284 H 0.68026 0.96457 0.67899 0.0
C285 C 0.67211 0.05137 0.90636 0.0
H286 H 0.74341 0.98176 0.78675 0.0
C287 C 0.6356 0.0412 0.84479 0.0
C288 C 0.63783 0.00828 0.76646 0.0
H289 H 0.66922 0.07434 0.97286 0.0
H290 H 0.60526 0.05682 0.86337 0.0
C291 C 0.67762 0.98915 0.74177 0.0
C292 C 0.46203 0.6442 0.03005 0.0
C293 C 0.43886 0.67963 0.9863 0.0
H294 H 0.49262 0.5838 -0.00266 0.0
C295 C 0.41875 0.67495 0.88353 0.0
H296 H 0.47829 0.64602 0.10846 0.0
C297 C 0.4273 0.63845 0.81937 0.0
C298 C 0.45624 0.6068 0.85752 0.0
H299 H 0.39984 0.7011 0.84853 0.0
H300 H 0.4156 0.63781 0.73566 0.0
C301 C 0.47043 0.60809 0.96627 0.0
C302 C 0.82899 0.41406 0.03811 0.0
C303 C 0.7932 0.43848 0.00233 0.0
H304 H 0.89705 0.40268 0.02041 0.0
C305 C 0.79813 0.4676 0.91403 0.0
H306 H 0.82605 0.39152 0.1064 0.0
C307 C 0.83825 0.47428 0.86734 0.0
C308 C 0.87416 0.45153 0.90627 0.0
H309 H 0.77175 0.48784 0.88621 0.0
H310 H 0.84159 0.49866 0.80334 0.0
C311 C 0.86947 0.42062 0.99016 0.0
C312 C 0.96999 0.27478 0.79212 0.0
C313 C 0.991 0.26916 0.89314 0.0
H314 H 0.96089 0.25047 0.62946 0.0
C315 C 0.0253 0.23958 0.9006 0.0
H316 H 0.94283 0.29666 0.78535 0.0
C317 C 0.03456 0.21194 0.81327 0.0
C318 C 0.01035 0.21429 0.71621 0.0
H319 H 0.04135 0.23414 0.97853 0.0
H320 H 0.05823 0.18653 0.82491 0.0
C321 C 0.98008 0.24792 0.70348 0.0
C322 C 0.28971 0.03914 0.93683 0.0
C323 C 0.26235 1.0028 0.93563 0.0
H324 H 0.34832 0.06758 0.87679 0.0
C325 C 0.26819 0.97162 0.85395 0.0
H326 H 0.28632 0.06319 0.00069 0.0
C327 C 0.30399 0.9737 0.78446 0.0
C328 C 0.33463 0.00698 0.79564 0.0
H329 H 0.24805 0.943 0.85241 0.0
H330 H 0.30936 0.94734 0.72778 0.0
C331 C 0.32567 0.04124 0.86729 0.0
C332 C 0.47212 0.28503 0.89482 0.0
C333 C 0.50897 0.25846 0.89631 0.0
H334 H 0.44177 0.34097 0.82309 0.0
C335 C 0.53688 0.2597 0.80575 0.0
H336 H 0.45043 0.28508 0.96464 0.0
C337 C 0.53219 0.29193 0.72528 0.0
C338 C 0.49952 0.32335 0.73428 0.0
H339 H 0.56572 0.23995 0.80546 0.0
H340 H 0.55688 0.29501 0.66275 0.0
C341 C 0.4675 0.31754 0.81449 0.0
C342 C 0.22584 0.49299 0.88062 0.0
C343 C 0.25672 0.52625 0.87418 0.0
H344 H 0.16539 0.4691 0.82131 0.0
C345 C 0.25522 0.55539 0.78542 0.0
H346 H 0.22593 0.47067 0.94981 0.0
C347 C 0.22023 0.55513 0.7136 0.0
C348 C 0.18624 0.5256 0.72918 0.0
H349 H 0.2782 0.58169 0.77969 0.0
H350 H 0.2182 0.58029 0.65121 0.0
C351 C 0.19077 0.4926 0.80834 0.0
C352 C 0.05877 0.78178 0.29658 0.0
C353 C 0.02107 0.78393 0.23355 0.0
H354 H 0.09485 0.80906 0.42877 0.0
C355 C 0.98678 0.80974 0.27037 0.0
H356 H 0.08596 0.76283 0.26849 0.0
C357 C 0.99187 0.83657 0.36173 0.0
C358 C 0.03162 0.83844 0.41658 0.0
H359 H 0.95776 0.81262 0.22166 0.0
H360 H 0.96611 0.8587 0.38254 0.0
C361 C 0.06405 0.80885 0.3873 0.0
C362 C 0.73668 0.02529 0.34479 0.0
C363 C 0.7429 0.99211 0.26848 0.0
H364 H 0.69435 0.05338 0.46306 0.0
C365 C 0.71529 0.95593 0.27211 0.0
H366 H 0.75703 0.05376 0.34281 0.0
C367 C 0.67841 0.95617 0.33858 0.0
C368 C 0.66895 0.99246 0.40305 0.0
H369 H 0.71904 0.93022 0.2127 0.0
H370 H 0.65559 0.92984 0.33187 0.0
C371 C 0.7 0.02549 0.41145 0.0
C372 C 0.53253 0.72406 0.30462 0.0
C373 C 0.4952 0.74993 0.30295 0.0
H374 H 0.56408 0.66907 0.37755 0.0
C375 C 0.46762 0.74874 0.39417 0.0
H376 H 0.55399 0.724 0.23433 0.0
C377 C 0.47319 0.7171 0.47579 0.0
C378 C 0.50633 0.68617 0.46707 0.0
H379 H 0.43845 0.76798 0.39438 0.0
H380 H 0.44878 0.71399 0.53902 0.0
C381 C 0.53798 0.69209 0.38595 0.0
C382 C 0.73987 0.4512 0.43643 0.0
C383 C 0.73736 0.48282 0.35338 0.0
H384 H 0.77624 0.4258 0.57115 0.0
C385 C 0.76414 0.51942 0.35976 0.0
H386 H 0.72 0.42243 0.43246 0.0
C387 C 0.79752 0.52078 0.43676 0.0
C388 C 0.80401 0.4858 0.50941 0.0
H389 H 0.76321 0.54392 0.29547 0.0
H390 H 0.82038 0.54718 0.43249 0.0
C391 C 0.77289 0.45271 0.5141 0.0
loop_
_geom_bond_atom_site_label_1
_geom_bond_atom_site_label_2
_geom_bond_distance
_geom_bond_site_symmetry_2
_ccdc_geom_bond_type
H0 C3 0.931 . S
H1 C6 0.928 . S
H2 C8 0.930 . S
C3 H0 0.931 . S
C3 C4 1.413 . S
C3 C5 1.360 1_554 S
C4 C3 1.413 . S
C4 C8 1.429 . S
C5 C3 1.360 1_556 S
C5 C6 1.372 . S
C6 H1 0.928 . S
C6 C5 1.372 . S
C6 C7 1.404 1_556 S
C7 C6 1.404 1_554 S
C7 C8 1.391 . S
C8 H2 0.930 . S
C8 C4 1.429 . S
C8 C7 1.391 . S
H9 C12 0.931 . S
H10 C15 0.928 . S
H11 C17 0.930 . S
C12 H9 0.931 . S
C12 C13 1.413 . S
C12 C14 1.360 1_554 S
C13 C12 1.413 . S
C13 C17 1.429 . S
C14 C12 1.360 1_556 S
C14 C15 1.372 . S
C15 H10 0.928 . S
C15 C14 1.372 . S
C15 C16 1.404 1_556 S
C16 C15 1.404 1_554 S
C16 C17 1.391 . S
C17 H11 0.930 . S
C17 C13 1.429 . S
C17 C16 1.391 . S
H18 C21 0.931 . S
H19 C24 0.928 . S
H20 C26 0.930 . S
C21 H18 0.931 . S
C21 C22 1.413 . S
C21 C23 1.360 1_554 S
C22 C21 1.413 . S
C22 C26 1.429 . S
C23 C21 1.360 1_556 S
C23 C24 1.372 . S
C24 H19 0.928 . S
C24 C23 1.372 . S
C24 C25 1.404 1_556 S
C25 C24 1.404 1_554 S
C25 C26 1.391 . S
C26 H20 0.930 . S
C26 C22 1.429 . S
C26 C25 1.391 . S
H27 C30 0.931 . S
H28 C33 0.928 . S
H29 C35 0.930 . S
C30 H27 0.931 . S
C30 C31 1.413 1_554 S
C30 C32 1.360 . S
C31 C30 1.413 1_556 S
C31 C35 1.429 . S
C32 C30 1.360 . S
C32 C33 1.372 . S
C33 H28 0.928 . S
C33 C32 1.372 . S
C33 C34 1.404 . S
C34 C33 1.404 . S
C34 C35 1.391 1_554 S
C35 H29 0.930 . S
C35 C31 1.429 . S
C35 C34 1.391 1_556 S
H36 C39 0.931 . S
H37 C42 0.928 . S
H38 C44 0.930 . S
C39 H36 0.931 . S
C39 C40 1.413 . S
C39 C41 1.360 . S
C40 C39 1.413 . S
C40 C44 1.429 . S
C41 C39 1.360 . S
C41 C42 1.372 . S
C42 H37 0.928 . S
C42 C41 1.372 . S
C42 C43 1.404 . S
C43 C42 1.404 . S
C43 C44 1.391 . S
C44 H38 0.930 . S
C44 C40 1.429 . S
C44 C43 1.391 . S
H45 C48 0.931 . S
H46 C51 0.928 . S
H47 C53 0.930 . S
C48 H45 0.931 . S
C48 C49 1.413 . S
C48 C50 1.360 . S
C49 C48 1.413 . S
C49 C53 1.429 . S
C50 C48 1.360 . S
C50 C51 1.372 . S
C51 H46 0.928 . S
C51 C50 1.372 . S
C51 C52 1.404 . S
C52 C51 1.404 . S
C52 C53 1.391 . S
C53 H47 0.930 . S
C53 C49 1.429 . S
C53 C52 1.391 . S
H54 C57 0.931 . S
H55 C60 0.928 . S
H56 C62 0.930 . S
C57 H54 0.931 . S
C57 C58 1.413 . S
C57 C59 1.360 . S
C58 C57 1.413 . S
C58 C62 1.429 . S
C59 C57 1.360 . S
C59 C60 1.372 . S
C60 H55 0.928 . S
C60 C59 1.372 . S
C60 C61 1.404 . S
C61 C60 1.404 . S
C61 C62 1.391 . S
C62 H56 0.930 . S
C62 C58 1.429 . S
C62 C61 1.391 . S
H63 C66 0.931 . S
H64 C69 0.928 . S
H65 C71 0.930 . S
C66 H63 0.931 . S
C66 C67 1.413 . S
C66 C68 1.360 . S
C67 C66 1.413 . S
C67 C71 1.429 . S
C68 C66 1.360 . S
C68 C69 1.372 . S
C69 H64 0.928 . S
C69 C68 1.372 . S
C69 C70 1.404 . S
C70 C69 1.404 . S
C70 C71 1.391 . S
C71 H65 0.930 . S
C71 C67 1.429 . S
C71 C70 1.391 . S
Zn72 O78 1.969 . S
Zn72 O79 1.965 1_655 S
Zn72 O83 2.024 1_655 S
Zn72 O88 1.969 . S
Zn73 O80 1.969 . S
Zn73 O86 1.969 . S
Zn73 O87 1.965 1_455 S
Zn73 O89 2.024 1_455 S
C74 O75 1.229 1_455 S
C74 O83 1.058 . S
O75 C74 1.229 1_655 S
C76 O77 1.229 1_655 S
C76 O89 1.058 . S
O77 C76 1.229 1_455 S
O78 Zn72 1.969 . S
O78 C81 1.267 . S
O79 Zn72 1.965 1_455 S
O79 C90 1.270 . S
O80 Zn73 1.969 . S
O80 C90 1.243 1_565 S
C81 O78 1.267 . S
C81 O82 1.228 1_655 S
O82 C81 1.228 1_455 S
O83 Zn72 2.024 1_455 S
O83 C74 1.058 . S
C84 O85 1.228 1_455 S
C84 O86 1.267 . S
O85 C84 1.228 1_655 S
O86 Zn73 1.969 . S
O86 C84 1.267 . S
O87 Zn73 1.965 1_655 S
O87 C91 1.260 1_565 S
O88 Zn72 1.969 . S
O88 C91 1.258 . S
O89 Zn73 2.024 1_655 S
O89 C76 1.058 . S
C90 O79 1.270 . S
C90 O80 1.243 1_545 S
C91 O87 1.260 1_545 S
C91 O88 1.258 . S
Zn92 O98 1.969 1_545 S
Zn92 O99 1.965 . S
Zn92 O103 2.024 . S
Zn92 O108 1.969 1_545 S
Zn93 O100 1.969 . S
Zn93 O106 1.969 . S
Zn93 O107 1.965 1_545 S
Zn93 O109 2.024 1_545 S
C94 O95 1.229 1_545 S
C94 O103 1.058 . S
O95 C94 1.229 1_565 S
C96 O97 1.229 1_565 S
C96 O109 1.058 . S
O97 C96 1.229 1_545 S
O98 Zn92 1.969 1_565 S
O98 C101 1.267 . S
O99 Zn92 1.965 . S
O99 C110 1.260 . S
O100 Zn93 1.969 . S
O100 C110 1.258 . S
C101 O98 1.267 . S
C101 O102 1.228 1_565 S
O102 C101 1.228 1_545 S
O103 Zn92 2.024 . S
O103 C94 1.058 . S
C104 O105 1.228 1_545 S
C104 O106 1.267 . S
O105 C104 1.228 1_565 S
O106 Zn93 1.969 . S
O106 C104 1.267 . S
O107 Zn93 1.965 1_565 S
O107 C111 1.260 . S
O108 Zn92 1.969 1_565 S
O108 C111 1.258 . S
O109 Zn93 2.024 1_565 S
O109 C96 1.058 . S
C110 O99 1.260 . S
C110 O100 1.258 . S
C111 O107 1.260 . S
C111 O108 1.258 . S
Zn112 O118 1.969 . S
Zn112 O119 1.965 . S
Zn112 O123 2.024 . S
Zn112 O128 1.969 . S
Zn113 O120 1.969 . S
Zn113 O126 1.969 . S
Zn113 O127 1.965 . S
Zn113 O129 2.024 . S
C114 O115 1.229 . S
C114 O123 1.058 . S
O115 C114 1.229 . S
C116 O117 1.229 . S
C116 O129 1.058 . S
O117 C116 1.229 . S
O118 Zn112 1.969 . S
O118 C121 1.267 . S
O119 Zn112 1.965 . S
O119 C130 1.260 . S
O120 Zn113 1.969 . S
O120 C130 1.258 . S
C121 O118 1.267 . S
C121 O122 1.228 . S
O122 C121 1.228 . S
O123 Zn112 2.024 . S
O123 C114 1.058 . S
C124 O125 1.228 . S
C124 O126 1.267 . S
O125 C124 1.228 . S
O126 Zn113 1.969 . S
O126 C124 1.267 . S
O127 Zn113 1.965 . S
O127 C131 1.260 . S
O128 Zn112 1.969 . S
O128 C131 1.258 . S
O129 Zn113 2.024 . S
O129 C116 1.058 . S
C130 O119 1.260 . S
C130 O120 1.258 . S
C131 O127 1.260 . S
C131 O128 1.258 . S
Zn132 O138 1.969 . S
Zn132 O139 1.965 . S
Zn132 O143 2.024 . S
Zn132 O148 1.969 . S
Zn133 O140 1.969 . S
Zn133 O146 1.969 . S
Zn133 O147 1.965 . S
Zn133 O149 2.024 . S
C134 O135 1.229 . S
C134 O143 1.058 . S
O135 C134 1.229 . S
C136 O137 1.229 . S
C136 O149 1.058 . S
O137 C136 1.229 . S
O138 Zn132 1.969 . S
O138 C141 1.267 . S
O139 Zn132 1.965 . S
O139 C150 1.242 1_455 S
O140 Zn133 1.969 . S
O140 C150 1.284 . S
C141 O138 1.267 . S
C141 O142 1.228 . S
O142 C141 1.228 . S
O143 Zn132 2.024 . S
O143 C134 1.058 . S
C144 O145 1.228 . S
C144 O146 1.267 . S
O145 C144 1.228 . S
O146 Zn133 1.969 . S
O146 C144 1.267 . S
O147 Zn133 1.965 . S
O147 C151 1.260 1_655 S
O148 Zn132 1.969 . S
O148 C151 1.258 . S
O149 Zn133 2.024 . S
O149 C136 1.058 . S
C150 O139 1.242 1_655 S
C150 O140 1.284 . S
C151 O147 1.260 1_455 S
C151 O148 1.258 . S
C152 C153 1.387 1_565 S
C152 H156 0.950 . S
C152 C161 1.390 . S
C153 C152 1.387 1_545 S
C153 C155 1.387 . S
H154 C161 0.950 . S
C155 C153 1.387 . S
C155 C157 1.390 . S
C155 H159 0.950 . S
H156 C152 0.950 . S
C157 C155 1.390 . S
C157 C158 1.387 . S
C157 H160 0.950 . S
C158 C157 1.387 . S
C158 C161 1.387 1_545 S
H159 C155 0.950 . S
H160 C157 0.950 . S
C161 C152 1.390 . S
C161 H154 0.950 . S
C161 C158 1.387 1_565 S
C162 C163 1.387 . S
C162 H166 0.950 . S
C162 C171 1.390 . S
C163 C162 1.387 . S
C163 C165 1.387 . S
H164 C171 0.950 . S
C165 C163 1.387 . S
C165 C167 1.390 . S
C165 H169 0.950 . S
H166 C162 0.950 . S
C167 C165 1.390 . S
C167 C168 1.387 . S
C167 H170 0.950 . S
C168 C167 1.387 . S
C168 C171 1.387 . S
H169 C165 0.950 . S
H170 C167 0.950 . S
C171 C162 1.390 . S
C171 H164 0.950 . S
C171 C168 1.387 . S
C172 C173 1.387 . S
C172 H176 0.950 . S
C172 C181 1.390 . S
C173 C172 1.387 . S
C173 C175 1.387 . S
H174 C181 0.950 . S
C175 C173 1.387 . S
C175 C177 1.390 . S
C175 H179 0.950 . S
H176 C172 0.950 . S
C177 C175 1.390 . S
C177 C178 1.387 . S
C177 H180 0.950 . S
C178 C177 1.387 . S
C178 C181 1.387 . S
H179 C175 0.950 . S
H180 C177 0.950 . S
C181 C172 1.390 . S
C181 H174 0.950 . S
C181 C178 1.387 . S
C182 C183 1.387 . S
C182 H186 0.950 1_455 S
C182 C191 1.390 1_455 S
C183 C182 1.387 . S
C183 C185 1.387 . S
H184 C191 0.950 . S
C185 C183 1.387 . S
C185 C187 1.390 . S
C185 H189 0.950 . S
H186 C182 0.950 1_655 S
C187 C185 1.390 . S
C187 C188 1.387 . S
C187 H190 0.950 . S
C188 C187 1.387 . S
C188 C191 1.387 1_455 S
H189 C185 0.950 . S
H190 C187 0.950 . S
C191 C182 1.390 1_655 S
C191 H184 0.950 . S
C191 C188 1.387 1_655 S
C192 C193 1.387 . S
C192 H196 0.950 . S
C192 C201 1.390 . S
C193 C192 1.387 . S
C193 C195 1.387 1_565 S
H194 C201 0.950 . S
C195 C193 1.387 1_545 S
C195 C197 1.390 . S
C195 H199 0.950 . S
H196 C192 0.950 . S
C197 C195 1.390 . S
C197 C198 1.387 1_545 S
C197 H200 0.950 . S
C198 C197 1.387 1_565 S
C198 C201 1.387 . S
H199 C195 0.950 . S
H200 C197 0.950 . S
C201 C192 1.390 . S
C201 H194 0.950 . S
C201 C198 1.387 . S
C202 C203 1.387 . S
C202 H206 0.950 . S
C202 C211 1.390 . S
C203 C202 1.387 . S
C203 C205 1.387 . S
H204 C211 0.950 . S
C205 C203 1.387 . S
C205 C207 1.390 . S
C205 H209 0.950 1_556 S
H206 C202 0.950 . S
C207 C205 1.390 . S
C207 C208 1.387 . S
C207 H210 0.950 . S
C208 C207 1.387 . S
C208 C211 1.387 . S
H209 C205 0.950 1_554 S
H210 C207 0.950 . S
C211 C202 1.390 . S
C211 H204 0.950 . S
C211 C208 1.387 . S
C212 C213 1.387 . S
C212 H216 0.950 . S
C212 C221 1.390 . S
C213 C212 1.387 . S
C213 C215 1.387 . S
H214 C221 0.950 . S
C215 C213 1.387 . S
C215 C217 1.390 . S
C215 H219 0.950 . S
H216 C212 0.950 . S
C217 C215 1.390 . S
C217 C218 1.387 . S
C217 H220 0.950 . S
C218 C217 1.387 . S
C218 C221 1.387 . S
H219 C215 0.950 . S
H220 C217 0.950 . S
C221 C212 1.390 . S
C221 H214 0.950 . S
C221 C218 1.387 . S
C222 C223 1.387 1_455 S
C222 H226 0.950 . S
C222 C231 1.390 . S
C223 C222 1.387 1_655 S
C223 C225 1.387 . S
H224 C231 0.950 . S
C225 C223 1.387 . S
C225 C227 1.390 . S
C225 H229 0.950 . S
H226 C222 0.950 . S
C227 C225 1.390 . S
C227 C228 1.387 . S
C227 H230 0.950 . S
C228 C227 1.387 . S
C228 C231 1.387 1_655 S
H229 C225 0.950 . S
H230 C227 0.950 . S
C231 C222 1.390 . S
C231 H224 0.950 . S
C231 C228 1.387 1_455 S
C232 C233 1.387 1_655 S
C232 H236 0.950 . S
C232 C241 1.390 . S
C233 C232 1.387 1_455 S
C233 C235 1.387 . S
H234 C241 0.950 . S
C235 C233 1.387 . S
C235 C237 1.390 . S
C235 H239 0.950 . S
H236 C232 0.950 . S
C237 C235 1.390 . S
C237 C238 1.387 1_455 S
C237 H240 0.950 . S
C238 C237 1.387 1_655 S
C238 C241 1.387 . S
H239 C235 0.950 . S
H240 C237 0.950 . S
C241 C232 1.390 . S
C241 H234 0.950 . S
C241 C238 1.387 . S
C242 C243 1.387 . S
C242 H246 0.950 1_545 S
C242 C251 1.390 1_545 S
C243 C242 1.387 . S
C243 C245 1.387 . S
H244 C251 0.950 . S
C245 C243 1.387 . S
C245 C247 1.390 . S
C245 H249 0.950 . S
H246 C242 0.950 1_565 S
C247 C245 1.390 . S
C247 C248 1.387 1_545 S
C247 H250 0.950 . S
C248 C247 1.387 1_565 S
C248 C251 1.387 . S
H249 C245 0.950 . S
H250 C247 0.950 . S
C251 C242 1.390 1_565 S
C251 H244 0.950 . S
C251 C248 1.387 . S
C252 C253 1.387 . S
C252 H256 0.950 . S
C252 C261 1.390 . S
C253 C252 1.387 . S
C253 C255 1.387 . S
H254 C261 0.950 . S
C255 C253 1.387 . S
C255 C257 1.390 . S
C255 H259 0.950 . S
H256 C252 0.950 . S
C257 C255 1.390 . S
C257 C258 1.387 . S
C257 H260 0.950 . S
C258 C257 1.387 . S
C258 C261 1.387 . S
H259 C255 0.950 . S
H260 C257 0.950 . S
C261 C252 1.390 . S
C261 H254 0.950 . S
C261 C258 1.387 . S
C262 C263 1.387 . S
C262 H266 0.950 . S
C262 C271 1.390 . S
C263 C262 1.387 . S
C263 C265 1.387 . S
H264 C271 0.950 . S
C265 C263 1.387 . S
C265 C267 1.390 . S
C265 H269 0.950 . S
H266 C262 0.950 . S
C267 C265 1.390 . S
C267 C268 1.387 . S
C267 H270 0.950 . S
C268 C267 1.387 . S
C268 C271 1.387 . S
H269 C265 0.950 . S
H270 C267 0.950 . S
C271 C262 1.390 . S
C271 H264 0.950 . S
C271 C268 1.387 . S
C272 C273 1.387 1_455 S
C272 H276 0.950 1_556 S
C272 C281 1.390 . S
C273 C272 1.387 1_655 S
C273 C275 1.387 . S
H274 C281 0.950 . S
C275 C273 1.387 . S
C275 C277 1.390 . S
C275 H279 0.950 . S
H276 C272 0.950 1_554 S
C277 C275 1.390 . S
C277 C278 1.387 1_655 S
C277 H280 0.950 . S
C278 C277 1.387 1_455 S
C278 C281 1.387 . S
H279 C275 0.950 . S
H280 C277 0.950 . S
C281 C272 1.390 . S
C281 H274 0.950 . S
C281 C278 1.387 . S
C282 C283 1.387 . S
C282 H286 0.950 . S
C282 C291 1.390 . S
C283 C282 1.387 . S
C283 C285 1.387 1_565 S
H284 C291 0.950 . S
C285 C283 1.387 1_545 S
C285 C287 1.390 . S
C285 H289 0.950 1_556 S
H286 C282 0.950 . S
C287 C285 1.390 . S
C287 C288 1.387 . S
C287 H290 0.950 . S
C288 C287 1.387 . S
C288 C291 1.387 1_545 S
H289 C285 0.950 1_554 S
H290 C287 0.950 . S
C291 C282 1.390 . S
C291 H284 0.950 . S
C291 C288 1.387 1_565 S
C292 C293 1.387 . S
C292 H296 0.950 . S
C292 C301 1.390 . S
C293 C292 1.387 . S
C293 C295 1.387 . S
H294 C301 0.950 . S
C295 C293 1.387 . S
C295 C297 1.390 . S
C295 H299 0.950 . S
H296 C292 0.950 . S
C297 C295 1.390 . S
C297 C298 1.387 . S
C297 H300 0.950 . S
C298 C297 1.387 . S
C298 C301 1.387 . S
H299 C295 0.950 . S
H300 C297 0.950 . S
C301 C292 1.390 . S
C301 H294 0.950 . S
C301 C298 1.387 . S
C302 C303 1.387 . S
C302 H306 0.946 1_556 S
C302 C311 1.390 . S
C303 C302 1.387 . S
C303 C305 1.387 . S
H304 C311 0.950 . S
C305 C303 1.387 . S
C305 C307 1.390 . S
C305 H309 0.950 . S
H306 C302 0.946 1_554 S
C307 C305 1.390 . S
C307 C308 1.387 . S
C307 H310 0.950 . S
C308 C307 1.387 . S
C308 C311 1.387 . S
H309 C305 0.950 . S
H310 C307 0.950 . S
C311 C302 1.390 . S
C311 H304 0.950 . S
C311 C308 1.387 . S
C312 C313 1.387 1_655 S
C312 H316 0.950 . S
C312 C321 1.390 . S
C313 C312 1.387 1_455 S
C313 C315 1.387 . S
H314 C321 0.950 . S
C315 C313 1.387 . S
C315 C317 1.390 . S
C315 H319 0.950 . S
H316 C312 0.950 . S
C317 C315 1.390 . S
C317 C318 1.387 . S
C317 H320 0.950 . S
C318 C317 1.387 . S
C318 C321 1.387 1_455 S
H319 C315 0.950 . S
H320 C317 0.950 . S
C321 C312 1.390 . S
C321 H314 0.950 . S
C321 C318 1.387 1_655 S
C322 C323 1.387 . S
C322 H326 0.950 . S
C322 C331 1.390 . S
C323 C322 1.387 . S
C323 C325 1.387 1_545 S
H324 C331 0.950 . S
C325 C323 1.387 1_565 S
C325 C327 1.390 . S
C325 H329 0.950 . S
H326 C322 0.950 . S
C327 C325 1.390 . S
C327 C328 1.387 1_565 S
C327 H330 0.950 . S
C328 C327 1.387 1_545 S
C328 C331 1.387 . S
H329 C325 0.950 . S
H330 C327 0.950 . S
C331 C322 1.390 . S
C331 H324 0.950 . S
C331 C328 1.387 . S
C332 C333 1.387 . S
C332 H336 0.950 . S
C332 C341 1.390 . S
C333 C332 1.387 . S
C333 C335 1.387 . S
H334 C341 0.950 . S
C335 C333 1.387 . S
C335 C337 1.390 . S
C335 H339 0.950 . S
H336 C332 0.950 . S
C337 C335 1.390 . S
C337 C338 1.387 . S
C337 H340 0.950 . S
C338 C337 1.387 . S
C338 C341 1.387 . S
H339 C335 0.950 . S
H340 C337 0.950 . S
C341 C332 1.390 . S
C341 H334 0.950 . S
C341 C338 1.387 . S
C342 C343 1.387 . S
C342 H346 0.950 . S
C342 C351 1.390 . S
C343 C342 1.387 . S
C343 C345 1.387 . S
H344 C351 0.950 . S
C345 C343 1.387 . S
C345 C347 1.390 . S
C345 H349 0.950 . S
H346 C342 0.950 . S
C347 C345 1.390 . S
C347 C348 1.387 . S
C347 H350 0.950 . S
C348 C347 1.387 . S
C348 C351 1.387 . S
H349 C345 0.950 . S
H350 C347 0.950 . S
C351 C342 1.390 . S
C351 H344 0.950 . S
C351 C348 1.387 . S
C352 C353 1.387 . S
C352 H356 0.950 1_655 S
C352 C361 1.390 . S
C353 C352 1.387 . S
C353 C355 1.387 . S
H354 C361 0.950 1_455 S
C355 C353 1.387 . S
C355 C357 1.390 . S
C355 H359 0.950 . S
H356 C352 0.950 1_455 S
C357 C355 1.390 . S
C357 C358 1.387 . S
C357 H360 0.950 . S
C358 C357 1.387 . S
C358 C361 1.387 . S
H359 C355 0.950 . S
H360 C357 0.950 . S
C361 C352 1.390 . S
C361 H354 0.950 1_655 S
C361 C358 1.387 . S
C362 C363 1.387 1_545 S
C362 H366 0.950 . S
C362 C371 1.390 . S
C363 C362 1.387 1_565 S
C363 C365 1.387 . S
H364 C371 0.950 . S
C365 C363 1.387 . S
C365 C367 1.390 . S
C365 H369 0.950 . S
H366 C362 0.950 . S
C367 C365 1.390 . S
C367 C368 1.387 . S
C367 H370 0.950 . S
C368 C367 1.387 . S
C368 C371 1.387 1_565 S
H369 C365 0.950 . S
H370 C367 0.950 . S
C371 C362 1.390 . S
C371 H364 0.950 . S
C371 C368 1.387 1_545 S
C372 C373 1.387 . S
C372 H376 0.950 . S
C372 C381 1.390 . S
C373 C372 1.387 . S
C373 C375 1.387 . S
H374 C381 0.950 . S
C375 C373 1.387 . S
C375 C377 1.390 . S
C375 H379 0.950 . S
H376 C372 0.950 . S
C377 C375 1.390 . S
C377 C378 1.387 . S
C377 H380 0.950 . S
C378 C377 1.387 . S
C378 C381 1.387 . S
H379 C375 0.950 . S
H380 C377 0.950 . S
C381 C372 1.390 . S
C381 H374 0.950 . S
C381 C378 1.387 . S
C382 C383 1.387 . S
C382 H386 0.950 . S
C382 C391 1.390 . S
C383 C382 1.387 . S
C383 C385 1.387 . S
H384 C391 0.950 . S
C385 C383 1.387 . S
C385 C387 1.390 . S
C385 H389 0.950 . S
H386 C382 0.950 . S
C387 C385 1.390 . S
C387 C388 1.387 . S
C387 H390 0.950 . S
C388 C387 1.387 . S
C388 C391 1.387 . S
H389 C385 0.950 . S
H390 C387 0.950 . S
C391 C382 1.390 . S
C391 H384 0.950 . S
C391 C388 1.387 . S
C153 C61 1.486 . S
C158 C90 1.507 . S
C168 C110 1.502 . S
C163 C70 1.496 . S
C178 C130 1.500 . S
C173 C43 1.482 . S
C188 C150 1.498 1_455 S
C183 C52 1.488 . S
C198 C91 1.503 1_565 S
C193 C25 1.489 1_556 S
C203 C34 1.495 1_556 S
C208 C111 1.502 . S
C213 C7 1.484 1_556 S
C218 C131 1.499 . S
C223 C16 1.487 1_556 S
C228 C151 1.502 1_655 S
C238 C81 0.947 . S
C233 C50 0.998 . S
C248 C101 0.943 . S
C243 C59 0.996 . S
C258 C121 0.948 . S
C253 C67 1.001 . S
C263 C41 0.997 . S
C268 C141 0.945 . S
C273 C14 1.001 . S
C278 C84 0.946 . S
C288 C104 0.944 . S
C283 C23 1.001 . S
C298 C124 0.946 . S
C293 C31 0.998 . S
C303 C5 1.001 . S
C308 C144 0.946 . S
C313 C49 1.589 1_556 S
C318 C74 1.540 . S
C323 C58 1.591 1_556 S
C328 C94 1.542 . S
C338 C114 1.543 . S
C333 C68 1.591 1_556 S
C348 C134 1.542 . S
C343 C40 1.591 1_556 S
C353 C13 1.592 . S
C358 C76 1.544 . S
C368 C96 1.542 . S
C363 C22 1.591 . S
C378 C116 1.541 . S
C373 C32 1.588 . S
C383 C4 1.591 . S
C388 C136 1.542 . S
