# Generated by pormake.
# Topology zzz, (3,6)-cn, num edge types: 1
# Building blocks:
#     Node 0, Type 0, BuildingBlock: BETDIP_clean_linker_0, # of connection points: 3
#     Node 1, Type 0, BuildingBlock: BETDIP_clean_linker_0, # of connection points: 3
#     Node 2, Type 0, BuildingBlock: BETDIP_clean_linker_0, # of connection points: 3
#     Node 3, Type 0, BuildingBlock: BETDIP_clean_linker_0, # of connection points: 3
#     Node 4, Type 0, BuildingBlock: BETDIP_clean_linker_0, # of connection points: 3
#     Node 5, Type 0, BuildingBlock: BETDIP_clean_linker_0, # of connection points: 3
#     Node 6, Type 0, BuildingBlock: BETDIP_clean_linker_0, # of connection points: 3
#     Node 7, Type 0, BuildingBlock: BETDIP_clean_linker_0, # of connection points: 3
#     Node 8, Type 1, BuildingBlock: KUMBOL_clean_sbu_1, # of connection points: 6
#     Node 9, Type 1, BuildingBlock: KUMBOL_clean_sbu_1, # of connection points: 6
#     Node 10, Type 1, BuildingBlock: KUMBOL_clean_sbu_1, # of connection points: 6
#     Node 11, Type 1, BuildingBlock: KUMBOL_clean_sbu_1, # of connection points: 6
#     Edge 12, Type (0, 1), BuildingBlock: ZUJKAS_clean_linker_0, # of connection points: 2
#     Edge 13, Type (0, 1), BuildingBlock: ZUJKAS_clean_linker_0, # of connection points: 2
#     Edge 14, Type (0, 1), BuildingBlock: ZUJKAS_clean_linker_0, # of connection points: 2
#     Edge 15, Type (0, 1), BuildingBlock: ZUJKAS_clean_linker_0, # of connection points: 2
#     Edge 16, Type (0, 1), BuildingBlock: ZUJKAS_clean_linker_0, # of connection points: 2
#     Edge 17, Type (0, 1), BuildingBlock: ZUJKAS_clean_linker_0, # of connection points: 2
#     Edge 18, Type (0, 1), BuildingBlock: ZUJKAS_clean_linker_0, # of connection points: 2
#     Edge 19, Type (0, 1), BuildingBlock: ZUJKAS_clean_linker_0, # of connection points: 2
#     Edge 20, Type (0, 1), BuildingBlock: ZUJKAS_clean_linker_0, # of connection points: 2
#     Edge 21, Type (0, 1), BuildingBlock: ZUJKAS_clean_linker_0, # of connection points: 2
#     Edge 22, Type (0, 1), BuildingBlock: ZUJKAS_clean_linker_0, # of connection points: 2
#     Edge 23, Type (0, 1), BuildingBlock: ZUJKAS_clean_linker_0, # of connection points: 2
#     Edge 24, Type (0, 1), BuildingBlock: ZUJKAS_clean_linker_0, # of connection points: 2
#     Edge 25, Type (0, 1), BuildingBlock: ZUJKAS_clean_linker_0, # of connection points: 2
#     Edge 26, Type (0, 1), BuildingBlock: ZUJKAS_clean_linker_0, # of connection points: 2
#     Edge 27, Type (0, 1), BuildingBlock: ZUJKAS_clean_linker_0, # of connection points: 2
#     Edge 28, Type (0, 1), BuildingBlock: ZUJKAS_clean_linker_0, # of connection points: 2
#     Edge 29, Type (0, 1), BuildingBlock: ZUJKAS_clean_linker_0, # of connection points: 2
#     Edge 30, Type (0, 1), BuildingBlock: ZUJKAS_clean_linker_0, # of connection points: 2
#     Edge 31, Type (0, 1), BuildingBlock: ZUJKAS_clean_linker_0, # of connection points: 2
#     Edge 32, Type (0, 1), BuildingBlock: ZUJKAS_clean_linker_0, # of connection points: 2
#     Edge 33, Type (0, 1), BuildingBlock: ZUJKAS_clean_linker_0, # of connection points: 2
#     Edge 34, Type (0, 1), BuildingBlock: ZUJKAS_clean_linker_0, # of connection points: 2
#     Edge 35, Type (0, 1), BuildingBlock: ZUJKAS_clean_linker_0, # of connection points: 2
# Relax obj value: 0.148
# Max RMSD: 0.091
# Mean RMSD: 0.077
data_MOF--net-zzz--node1-KUMBOL_clean_sbu_1--node2-BETDIP_clean_linker_0--edge1-ZUJKAS_clean_linker_0
_symmetry_space_group_name_H-M    P1
_symmetry_Int_Tables_number       1
_symmetry_cell_setting            triclinic
loop_
_symmetry_equiv_pos_as_xyz
'x, y, z'
_cell_length_a     64.89908
_cell_length_b     64.710462
_cell_length_c     20.250545
_cell_angle_alpha  89.858228
_cell_angle_beta   90.016563
_cell_angle_gamma 90.263954
loop_
_atom_site_label
_atom_site_type_symbol
_atom_site_fract_x
_atom_site_fract_y
_atom_site_fract_z
_atom_type_partial_charge
H0 H 0.76236 0.54537 0.30592 0.0
H1 H 0.75627 0.56813 0.10659 0.0
H2 H 0.81536 0.5689 0.20173 0.0
H3 H 0.72478 0.5831 0.1811 0.0
C4 C 0.7207 0.56679 0.17918 0.0
C5 C 0.76914 0.55224 0.26216 0.0
C6 C 0.79041 0.55734 0.26119 0.0
C7 C 0.75658 0.55678 0.20673 0.0
C8 C 0.76566 0.56534 0.14994 0.0
C9 C 0.78682 0.56958 0.14754 0.0
C10 C 0.7989 0.56594 0.20367 0.0
N11 N 0.73499 0.55231 0.2063 0.0
H12 H 1.00786 0.77193 0.29966 0.0
H13 H 0.98355 0.76717 0.10207 0.0
H14 H 0.98281 0.82548 0.20236 0.0
H15 H 0.96949 0.73472 0.17668 0.0
C16 C 0.98574 0.73088 0.17239 0.0
C17 C 1.00057 0.779 0.2572 0.0
C18 C 0.99514 0.8002 0.25881 0.0
C19 C 0.99572 0.76682 0.2011 0.0
C20 C 0.98658 0.77625 0.14596 0.0
C21 C 0.98201 0.79736 0.14586 0.0
C22 C 0.98596 0.80904 0.20274 0.0
N23 N 1.0004 0.74527 0.19845 0.0
H24 H 0.7844 0.01916 0.3003 0.0
H25 H 0.78448 0.97923 0.12955 0.0
H26 H 0.73098 0.98249 0.25301 0.0
H27 H 0.81956 0.9739 0.18413 0.0
C28 C 0.82264 0.99022 0.17544 0.0
C29 C 0.77684 1.00776 0.26948 0.0
C30 C 0.75646 1.00137 0.28396 0.0
C31 C 0.78748 0.99904 0.21517 0.0
C32 C 0.77707 0.98496 0.17376 0.0
C33 C 0.75682 0.97888 0.18768 0.0
C34 C 0.74691 0.98675 0.24341 0.0
N35 N 0.80824 1.00491 0.20033 0.0
H36 H 0.53061 0.78074 0.28684 0.0
H37 H 0.55798 0.78644 0.09366 0.0
H38 H 0.56145 0.72888 0.19869 0.0
H39 H 0.56803 0.82047 0.16741 0.0
C40 C 0.5516 0.82283 0.16017 0.0
C41 C 0.53925 0.77409 0.24643 0.0
C42 C 0.54621 0.7534 0.25059 0.0
C43 C 0.54417 0.78635 0.19041 0.0
C44 C 0.55497 0.7774 0.13776 0.0
C45 C 0.56106 0.75669 0.14007 0.0
C46 C 0.55708 0.74503 0.19714 0.0
N47 N 0.53779 0.8074 0.18506 0.0
H48 H 0.27298 0.51575 0.9957 0.0
H49 H 0.28382 0.49687 0.1968 0.0
H50 H 0.22431 0.48736 0.10951 0.0
H51 H 0.29788 0.53771 0.17007 0.0
C52 C 0.30895 0.52753 0.14652 0.0
C53 C 0.26759 0.50849 0.04076 0.0
C54 C 0.247 0.50116 0.0452 0.0
C55 C 0.28098 0.50687 0.09583 0.0
C56 C 0.27365 0.49795 0.15445 0.0
C57 C 0.25335 0.49082 0.15963 0.0
C58 C 0.24028 0.49215 0.10467 0.0
N59 N 0.30159 0.51467 0.09425 0.0
H60 H 0.02953 0.28392 0.98948 0.0
H61 H 0.07192 0.29192 0.15188 0.0
H62 H 0.07527 0.23777 0.03149 0.0
H63 H 0.03814 0.3004 0.19589 0.0
C64 C 0.03703 0.31334 0.16164 0.0
C65 C 0.04275 0.27878 0.01759 0.0
C66 C 0.05244 0.25982 1.00155 0.0
C67 C 0.04983 0.29061 0.07209 0.0
C68 C 0.06657 0.28327 0.1094 0.0
C69 C 0.07558 0.26416 0.09575 0.0
C70 C 0.0689 0.25298 0.04061 0.0
N71 N 0.03951 0.30904 0.09277 0.0
H72 H 0.26514 0.03292 0.9797 0.0
H73 H 0.26254 0.0563 0.17867 0.0
H74 H 0.31805 0.06291 0.06492 0.0
H75 H 0.2474 1.01726 0.174 0.0
C76 C 0.23526 0.02521 0.14713 0.0
C77 C 0.27232 0.04104 0.02042 0.0
C78 C 0.29286 0.04825 0.01467 0.0
C79 C 0.26133 0.04388 0.0801 0.0
C80 C 0.27096 0.05407 0.13305 0.0
C81 C 0.29133 0.06116 0.12803 0.0
C82 C 0.30199 0.05832 0.06849 0.0
N83 N 0.24086 0.03612 0.08836 0.0
H84 H 0.50849 0.26767 0.97247 0.0
H85 H 0.48358 0.25585 0.16621 0.0
H86 H 0.47297 0.31428 0.07211 0.0
H87 H 0.52758 0.24498 0.14927 0.0
C88 C 0.518 0.23316 0.12645 0.0
C89 C 0.49926 0.27255 0.01409 0.0
C90 C 0.49047 0.29259 0.01464 0.0
C91 C 0.49653 0.25912 0.06891 0.0
C92 C 0.48522 0.26588 0.12354 0.0
C93 C 0.47657 0.28561 0.12471 0.0
C94 C 0.47888 0.29864 0.0698 0.0
N95 N 0.50559 0.23908 0.07133 0.0
C96 C 0.06103 0.05935 0.7891 0.0
C97 C 0.04038 0.06411 0.8875 0.0
C98 C 0.04486 0.05306 0.82931 0.0
C99 C 0.05179 0.08196 0.90294 0.0
C100 C 0.07315 0.07668 0.80594 0.0
C101 C 0.06819 0.08819 0.86241 0.0
N102 N 0.06494 0.04843 0.73333 0.0
C103 C 0.08176 0.05282 0.69522 0.0
C104 C 0.08989 0.08191 0.76543 0.0
C105 C 0.09435 0.06977 0.71027 0.0
Gd106 Gd 1.00263 0.03605 0.57373 0.0
Gd107 Gd 0.04334 0.02016 0.712 0.0
N108 N 0.0342 0.03562 0.81324 0.0
C109 C 0.02498 0.05652 0.92951 0.0
C110 C 0.02054 0.02721 0.85717 0.0
C111 C 0.01531 0.03778 0.91489 0.0
H112 H 1.01389 1.01214 0.84885 0.0
H113 H 1.00408 0.03126 0.94862 0.0
H114 H 0.0257 0.01952 0.43652 0.0
H115 H 0.08517 0.0434 0.65264 0.0
H116 H 0.01946 0.99391 0.34793 0.0
H117 H 0.02105 0.06457 0.97462 0.0
H118 H 0.04839 0.09077 0.94701 0.0
H119 H 0.95665 0.04363 0.64661 0.0
H120 H 0.09956 0.09513 0.77668 0.0
H121 H 0.10744 0.0735 0.67928 0.0
H122 H 0.95225 0.96648 0.39731 0.0
H123 H 0.07711 0.10176 0.87561 0.0
H124 H 0.91464 0.99779 0.57438 0.0
H125 H 0.92243 0.02685 0.64977 0.0
N126 N 0.96877 0.02296 0.57511 0.0
C127 C 0.96442 1.00788 0.53071 0.0
C128 C 0.9537 0.03042 0.61547 0.0
C129 C 0.92984 1.0048 0.5739 0.0
C130 C 0.93418 0.02118 0.61656 0.0
C131 C 0.94488 0.99827 0.52912 0.0
H132 H 0.92596 0.97524 0.48016 0.0
N133 N 0.99752 1.01301 0.4859 0.0
C134 C 0.97916 1.00294 0.48408 0.0
C135 C 0.98976 0.98472 0.38589 0.0
C136 C 0.97487 0.98828 0.43454 0.0
C137 C 1.01156 1.01065 0.43624 0.0
C138 C 1.00806 0.99619 0.3862 0.0
O139 O 0.03994 0.05292 0.67059 0.0
O140 O 1.00546 0.05629 0.66366 0.0
O141 O 1.01403 0.0631 0.52368 0.0
O142 O 0.98115 0.0552 0.51663 0.0
O143 O 1.01024 1.00975 0.73183 0.0
O144 O 0.99177 0.03547 0.68047 0.0
O145 O 0.0161 1.00371 0.56738 0.0
O146 O 0.02354 0.99374 0.67417 0.0
O147 O 0.05738 1.00398 0.79435 0.0
O148 O 0.0712 1.00234 0.69763 0.0
O149 O 0.03638 0.0396 0.54463 0.0
O150 O 0.05511 1.01657 0.60802 0.0
C151 C 0.02335 0.06405 0.68024 0.0
C152 C 0.99324 0.02064 0.72484 0.0
C153 C 0.9932 0.08632 0.4588 0.0
C154 C 1.0083 0.11644 0.40461 0.0
C155 C 0.97131 0.11051 0.40023 0.0
C156 C 0.97358 0.09245 0.4375 0.0
C157 C 0.98855 0.12254 0.38408 0.0
C158 C 1.01047 0.09831 0.44177 0.0
C159 C 0.99596 0.06791 0.50051 0.0
C160 C 0.95576 0.97798 0.43449 0.0
C161 C 0.94081 0.98295 0.48174 0.0
H162 H 0.98707 0.97354 0.34705 0.0
C163 C 0.01875 0.98934 0.61259 0.0
C164 C 0.053 0.02846 0.55573 0.0
C165 C 0.07327 0.97289 0.76411 0.0
C166 C 0.05722 0.9387 0.76989 0.0
C167 C 0.09451 0.94271 0.78031 0.0
C168 C 0.09269 0.96405 0.77307 0.0
C169 C 0.07696 0.93013 0.7795 0.0
C170 C 0.05571 0.96022 0.76104 0.0
C171 C 0.07137 0.99534 0.75778 0.0
H172 H 0.95615 0.11524 0.38403 0.0
H173 H 0.96003 0.08344 0.45011 0.0
H174 H 0.98648 0.13645 0.35499 0.0
H175 H 0.02567 0.0938 0.45853 0.0
H176 H 0.10954 0.93592 0.78798 0.0
H177 H 0.10639 0.97367 0.77489 0.0
H178 H 0.07897 0.91378 0.78864 0.0
H179 H 0.0409 0.96731 0.75246 0.0
C180 C 0.51287 0.95863 0.60796 0.0
C181 C 0.47777 0.95014 0.63858 0.0
C182 C 0.49255 0.96454 0.61594 0.0
C183 C 0.48403 0.93016 0.6568 0.0
C184 C 0.51901 0.93824 0.6222 0.0
C185 C 0.50461 0.9242 0.6485 0.0
N186 N 0.5265 0.97265 0.58356 0.0
C187 C 0.54596 0.96689 0.56606 0.0
C188 C 0.53932 0.93248 0.60811 0.0
C189 C 0.55275 0.94678 0.57887 0.0
Gd190 Gd 0.53116 0.04519 0.70823 0.0
Gd191 Gd 0.51417 1.00622 0.56623 0.0
N192 N 0.48697 0.98385 0.59665 0.0
C193 C 0.45703 0.95598 0.63953 0.0
C194 C 0.46661 0.98885 0.59142 0.0
C195 C 0.45139 0.97527 0.61446 0.0
H196 H 0.46198 1.00326 0.56903 0.0
H197 H 0.43531 0.97957 0.612 0.0
H198 H 0.5749 0.06588 0.65412 0.0
H199 H 0.55633 0.97802 0.54384 0.0
H200 H 0.58751 0.09933 0.60931 0.0
H201 H 0.4452 0.94538 0.65662 0.0
H202 H 0.47294 0.91897 0.67517 0.0
H203 H 0.48683 0.05652 0.78897 0.0
H204 H 0.54464 0.91695 0.61826 0.0
H205 H 0.56834 0.94236 0.56652 0.0
H206 H 0.52828 0.1436 0.6202 0.0
H207 H 0.5091 0.90856 0.66086 0.0
H208 H 0.46851 0.11738 0.73205 0.0
H209 H 0.46139 0.08461 0.79123 0.0
N210 N 0.507 0.07203 0.72214 0.0
C211 C 0.51191 0.09046 0.69383 0.0
C212 C 0.48964 0.07024 0.75992 0.0
C213 C 0.47947 0.10483 0.72925 0.0
C214 C 0.47537 0.08635 0.76259 0.0
C215 C 0.49821 0.1073 0.69596 0.0
H216 H 0.49361 0.1393 0.66774 0.0
N217 N 0.54437 0.07661 0.66845 0.0
C218 C 0.53136 0.09294 0.66712 0.0
C219 C 0.5581 0.11438 0.61961 0.0
C220 C 0.53774 0.11221 0.64159 0.0
C221 C 0.56451 0.07884 0.65033 0.0
C222 C 0.57164 0.0977 0.62501 0.0
O223 O 0.53231 0.99499 0.6561 0.0
O224 O 0.51857 1.01402 0.73884 0.0
O225 O 0.55835 0.03936 0.76725 0.0
O226 O 0.53394 0.05829 0.80664 0.0
O227 O 0.48851 0.0257 0.61154 0.0
O228 O 0.49971 0.0297 0.7184 0.0
O229 O 0.53256 0.05478 0.6 0.0
O230 O 0.50381 0.03948 0.55848 0.0
O231 O 0.4997 0.99242 0.48034 0.0
O232 O 0.52735 1.0107 0.4687 0.0
O233 O 0.5579 0.02811 0.66056 0.0
O234 O 0.54675 0.01847 0.5561 0.0
C235 C 0.52575 0.99642 0.71721 0.0
C236 C 0.48466 0.02819 0.67494 0.0
C237 C 0.55019 0.03438 0.87864 0.0
C238 C 0.56853 1.01024 0.95004 0.0
C239 C 0.53155 1.0146 0.96174 0.0
C240 C 0.53161 0.02901 0.91023 0.0
C241 C 0.54989 1.00523 0.9816 0.0
C242 C 0.56856 0.02503 0.89917 0.0
C243 C 0.55053 0.04781 0.81974 0.0
C244 C 0.52378 0.12872 0.64032 0.0
C245 C 0.50402 0.12626 0.6673 0.0
H246 H 0.56362 0.12894 0.59968 0.0
C247 C 0.51701 0.05488 0.55851 0.0
C248 C 0.56153 0.02287 0.59862 0.0
C249 C 0.50212 1.01388 0.38722 0.0
C250 C 0.47497 0.03771 0.35357 0.0
C251 C 0.49973 0.02474 0.27315 0.0
C252 C 0.50943 1.01319 0.32232 0.0
C253 C 0.48251 0.03672 0.28829 0.0
C254 C 0.48535 0.02654 0.40294 0.0
C255 C 0.51206 1.00163 0.43901 0.0
H256 H 0.51722 1.01051 0.98585 0.0
H257 H 0.51711 0.03562 0.89447 0.0
H258 H 0.54955 0.99415 0.02175 0.0
H259 H 0.58281 0.0287 0.87361 0.0
H260 H 0.50528 0.02405 0.22281 0.0
H261 H 0.52254 1.00368 0.30971 0.0
H262 H 0.47478 0.0446 0.2482 0.0
H263 H 0.4803 0.02735 0.4538 0.0
C264 C 0.48286 0.50206 0.81903 0.0
C265 C 0.50434 0.50289 0.91671 0.0
C266 C 0.49914 0.51061 0.85371 0.0
C267 C 0.49376 0.48561 0.94207 0.0
C268 C 0.47125 0.48566 0.84613 0.0
C269 C 0.47719 0.47703 0.9069 0.0
N270 N 0.4777 0.51056 0.76008 0.0
C271 C 0.45994 0.50491 0.72861 0.0
C272 C 0.45367 0.47887 0.81221 0.0
C273 C 0.44777 0.48881 0.75381 0.0
Gd274 Gd 0.53931 0.51704 0.58603 0.0
Gd275 Gd 0.49915 0.53697 0.71981 0.0
N276 N 0.50866 0.5276 0.82835 0.0
C277 C 0.51933 0.51337 0.95356 0.0
C278 C 0.52164 0.53903 0.86698 0.0
C279 C 0.52767 0.53179 0.92917 0.0
H280 H 0.52735 0.55384 0.8502 0.0
H281 H 0.5385 0.54059 0.95862 0.0
H282 H 0.51713 0.52545 0.44052 0.0
H283 H 0.45554 0.51252 0.68318 0.0
H284 H 0.52083 0.54931 0.3453 0.0
H285 H 0.52379 0.50793 1.00213 0.0
H286 H 0.49773 0.47928 0.98997 0.0
H287 H 0.58552 0.51846 0.66442 0.0
H288 H 0.44429 0.46634 0.83146 0.0
H289 H 0.43397 0.48399 0.728 0.0
H290 H 0.5807 0.58995 0.39854 0.0
H291 H 0.4687 0.46417 0.92805 0.0
H292 H 0.61952 0.57016 0.58958 0.0
H293 H 0.61596 0.54125 0.66904 0.0
N294 N 0.5705 0.53594 0.58945 0.0
C295 C 0.57294 0.55067 0.54212 0.0
C296 C 0.58626 0.53172 0.63207 0.0
C297 C 0.60577 0.5606 0.58882 0.0
C298 C 0.60381 0.54433 0.63379 0.0
C299 C 0.59055 0.56352 0.54079 0.0
H300 H 0.60618 0.5883 0.48841 0.0
N301 N 0.54246 0.53834 0.49278 0.0
C302 C 0.55862 0.55169 0.49161 0.0
C303 C 0.54736 0.56492 0.38599 0.0
C304 C 0.56138 0.56556 0.43854 0.0
C305 C 0.52941 0.53678 0.44012 0.0
C306 C 0.53149 0.55023 0.38632 0.0
O307 O 0.5002 0.50289 0.68984 0.0
O308 O 0.53453 0.49796 0.6783 0.0
O309 O 0.53247 0.48839 0.53677 0.0
O310 O 0.56434 0.49976 0.53902 0.0
O311 O 0.53285 0.54621 0.73505 0.0
O312 O 0.54959 0.51798 0.69349 0.0
O313 O 0.52233 0.54737 0.57046 0.0
O314 O 0.52109 0.56041 0.67443 0.0
O315 O 0.47401 0.55679 0.68932 0.0
O316 O 0.48345 0.55624 0.79138 0.0
O317 O 0.50583 0.51107 0.5567 0.0
O318 O 0.4857 0.53386 0.61726 0.0
C319 C 0.51639 0.49091 0.69573 0.0
C320 C 0.54873 0.5336 0.73492 0.0
C321 C 0.55779 0.46665 0.48452 0.0
C322 C 0.54871 0.43253 0.44248 0.0
C323 C 0.58384 0.44542 0.43255 0.0
C324 C 0.5782 0.46377 0.46389 0.0
C325 C 0.56923 0.42983 0.42196 0.0
C326 C 0.54316 0.45106 0.4732 0.0
C327 C 0.55164 0.4852 0.52116 0.0
C328 C 0.57835 0.5791 0.43871 0.0
C329 C 0.59285 0.57816 0.48991 0.0
H330 H 0.54894 0.57534 0.34432 0.0
C331 C 0.52263 0.56328 0.61047 0.0
C332 C 0.48848 0.52124 0.56702 0.0
C333 C 0.47238 0.58786 0.74708 0.0
C334 C 0.49173 0.62031 0.75032 0.0
C335 C 0.45414 0.62035 0.74607 0.0
C336 C 0.45386 0.59881 0.74544 0.0
C337 C 0.47286 0.63106 0.74917 0.0
C338 C 0.4912 0.59858 0.74795 0.0
C339 C 0.47208 0.56524 0.74703 0.0
H340 H 0.59962 0.44321 0.41687 0.0
H341 H 0.5898 0.47555 0.47246 0.0
H342 H 0.57401 0.41564 0.39834 0.0
H343 H 0.52731 0.45339 0.48815 0.0
H344 H 0.43978 0.6288 0.74548 0.0
H345 H 0.43922 0.59069 0.74402 0.0
H346 H 0.47237 0.64772 0.75286 0.0
H347 H 0.50534 0.58982 0.74774 0.0
C348 C 0.03774 0.49022 0.81479 0.0
C349 C 0.03473 0.51037 0.91476 0.0
C350 C 0.02901 0.50644 0.84878 0.0
C351 C 0.05016 0.49834 0.94454 0.0
C352 C 0.05225 0.47725 0.8456 0.0
C353 C 0.05886 0.48175 0.91006 0.0
N354 N 0.03115 0.48647 0.75246 0.0
C355 C 0.03693 0.46894 0.72003 0.0
C356 C 0.05916 0.45982 0.81135 0.0
C357 C 0.05118 0.45546 0.74871 0.0
Gd358 Gd 0.03077 0.54891 0.57328 0.0
Gd359 Gd 1.00761 0.50986 0.70667 0.0
N360 N 1.01377 0.51732 0.81896 0.0
C361 C 0.02419 0.52569 0.94959 0.0
C362 C 1.00227 0.53095 0.85457 0.0
C363 C 1.00762 0.53575 0.91971 0.0
H364 H 0.98883 0.53807 0.83308 0.0
H365 H 0.99877 0.54699 0.94707 0.0
H366 H 0.02527 0.52325 0.43234 0.0
H367 H 0.03086 0.46572 0.67137 0.0
H368 H 1.0032 0.52426 0.33251 0.0
H369 H 0.02813 0.52922 1.00033 0.0
H370 H 0.05494 0.50127 0.99494 0.0
H371 H 0.02414 0.59538 0.64868 0.0
H372 H 0.07026 0.44942 0.83337 0.0
H373 H 0.0561 0.44181 0.72238 0.0
H374 H 0.96035 0.58371 0.36558 0.0
H375 H 0.07024 0.47217 0.93433 0.0
H376 H 0.9735 0.62569 0.55573 0.0
H377 H 0.99985 0.62434 0.64386 0.0
N378 N 1.01009 0.57885 0.56953 0.0
C379 C 0.9968 0.58014 0.5177 0.0
C380 C 1.012 0.59502 0.61238 0.0
C381 C 0.98376 0.61256 0.55879 0.0
C382 C 0.99855 0.61182 0.60875 0.0
C383 C 0.9831 0.59689 0.51138 0.0
H384 H 0.95891 0.61044 0.45167 0.0
N385 N 1.01121 0.54944 0.47601 0.0
C386 C 0.99764 0.5652 0.46888 0.0
C387 C 0.9866 0.55129 0.364 0.0
C388 C 0.98471 0.56637 0.41309 0.0
C389 C 1.01384 0.53523 0.42708 0.0
C390 C 1.0014 0.53579 0.37067 0.0
O391 O 0.04247 0.50979 0.68833 0.0
O392 O 0.04934 0.54371 0.66634 0.0
O393 O 0.05795 0.54394 0.51359 0.0
O394 O 0.04832 0.57506 0.5355 0.0
O395 O 1.00112 0.54418 0.72184 0.0
O396 O 0.0299 0.56022 0.67974 0.0
O397 O 0.99975 0.5331 0.5569 0.0
O398 O 0.98665 0.53368 0.66045 0.0
O399 O 0.98267 0.49681 0.76587 0.0
O400 O 0.98989 0.48386 0.67065 0.0
O401 O 0.03842 0.5151 0.55435 0.0
O402 O 1.01116 0.49757 0.60269 0.0
C403 C 0.05517 0.5257 0.68939 0.0
C404 C 1.01472 0.55935 0.72288 0.0
C405 C 0.08396 0.56766 0.54295 0.0
C406 C 0.11859 0.55529 0.56775 0.0
C407 C 0.10696 0.58805 0.61208 0.0
C408 C 0.08788 0.5854 0.58108 0.0
C409 C 0.12225 0.57307 0.60568 0.0
C410 C 0.09953 0.55288 0.53592 0.0
C411 C 0.06329 0.56336 0.51534 0.0
C412 C 0.97051 0.5826 0.40788 0.0
C413 C 0.96967 0.59779 0.45699 0.0
H414 H 0.97692 0.55164 0.32041 0.0
C415 C 0.98386 0.53451 0.59649 0.0
C416 C 0.0261 0.49887 0.55882 0.0
C417 C 0.9549 0.48632 0.6961 0.0
C418 C 0.92172 0.50413 0.6958 0.0
C419 C 0.92841 0.47664 0.61706 0.0
C420 C 0.94802 0.47388 0.64371 0.0
C421 C 0.91536 0.49171 0.64255 0.0
C422 C 0.94158 0.50127 0.72234 0.0
C423 C 0.97653 0.48473 0.71826 0.0
H424 H 0.10982 0.60167 0.64167 0.0
H425 H 0.07616 0.59705 0.58792 0.0
H426 H 0.13685 0.57532 0.6306 0.0
H427 H 0.09676 0.53935 0.50564 0.0
H428 H 0.92337 0.46718 0.57607 0.0
H429 H 0.95803 0.46232 0.62236 0.0
H430 H 0.90035 0.49367 0.62022 0.0
H431 H 0.94668 0.51066 0.76347 0.0
H432 H 0.20072 0.04797 0.11061 0.0
H433 H 0.16808 0.05083 0.17238 0.0
H434 H 0.19076 1.00753 0.31693 0.0
H435 H 0.22314 1.00481 0.25634 0.0
H436 H 0.13817 0.02025 0.21432 0.0
H437 H 0.17544 0.05799 0.42864 0.0
H438 H 0.18792 0.05591 0.34928 0.0
H439 H 0.1877 0.0343 0.40539 0.0
C440 C 0.19863 0.03897 0.15528 0.0
C441 C 0.21455 0.02623 0.17882 0.0
C442 C 0.17999 0.04063 0.1906 0.0
C443 C 0.17706 0.0297 0.25016 0.0
C444 C 0.19273 1.01647 0.27205 0.0
H445 H 0.08996 1.00815 0.56169 0.0
H446 H 0.11862 1.00975 0.48394 0.0
C447 C 0.21122 1.01483 0.23705 0.0
C448 C 0.15796 0.03212 0.2907 0.0
H449 H 0.14169 0.04424 0.44656 0.0
C450 C 0.13886 0.02577 0.26478 0.0
C451 C 0.15878 0.03937 0.35663 0.0
C452 C 0.17852 0.04748 0.38652 0.0
C453 C 0.12085 0.02554 0.30396 0.0
C454 C 0.12188 0.0321 0.37064 0.0
C455 C 0.14085 0.03907 0.39571 0.0
C456 C 0.10381 0.03095 0.41644 0.0
C457 C 0.10106 1.01744 0.27454 0.0
C458 C 0.08581 0.04245 0.40498 0.0
C459 C 0.06925 0.0416 0.44972 0.0
C460 C 0.07033 0.02926 0.5071 0.0
C461 C 0.08842 1.0178 0.51822 0.0
C462 C 0.10491 0.0187 0.47368 0.0
H463 H 0.10375 1.00896 0.22772 0.0
H464 H 0.09303 1.00698 0.30979 0.0
H465 H 0.09069 0.03061 0.26376 0.0
H466 H 0.08466 0.05234 0.36195 0.0
H467 H 0.05568 0.05074 0.43949 0.0
H468 H 0.54424 0.21823 0.2177 0.0
H469 H 0.54156 0.18661 0.28316 0.0
H470 H 0.48519 0.1707 0.18203 0.0
H471 H 0.48832 0.20221 0.11442 0.0
H472 H 0.51364 0.17611 0.36995 0.0
H473 H 0.51336 0.1159 0.17532 0.0
H474 H 0.51988 0.1425 0.15804 0.0
H475 H 0.49334 0.13473 0.16619 0.0
C476 C 0.53146 0.2078 0.20847 0.0
C477 C 0.51663 0.21266 0.16034 0.0
C478 C 0.52986 0.18972 0.24629 0.0
C479 C 0.51328 0.17594 0.23764 0.0
C480 C 0.49845 0.18066 0.18895 0.0
H481 H 0.48311 0.06641 0.48514 0.0
H482 H 0.48056 0.09508 0.40551 0.0
C483 C 0.50019 0.19876 0.15032 0.0
C484 C 0.51129 0.15742 0.28231 0.0
H485 H 0.50783 0.10448 0.28523 0.0
C486 C 0.51235 0.16049 0.35107 0.0
C487 C 0.50949 0.13687 0.25842 0.0
C488 C 0.50914 0.13221 0.18549 0.0
C489 C 0.51202 0.14382 0.39595 0.0
C490 C 0.5106 0.12335 0.37202 0.0
C491 C 0.50889 0.12018 0.3036 0.0
C492 C 0.51217 0.10517 0.41746 0.0
C493 C 0.51337 0.14821 0.46899 0.0
C494 C 0.53085 0.10096 0.44968 0.0
C495 C 0.53241 0.08445 0.49423 0.0
C496 C 0.51528 0.07183 0.50861 0.0
C497 C 0.49664 0.07578 0.47528 0.0
C498 C 0.49513 0.09221 0.42987 0.0
H499 H 0.50989 0.16461 0.48039 0.0
H500 H 0.50256 0.13814 0.49706 0.0
H501 H 0.52922 0.14486 0.48648 0.0
H502 H 0.54429 0.11051 0.44035 0.0
H503 H 0.54714 0.08153 0.51726 0.0
H504 H 0.34102 0.50036 0.11812 0.0
H505 H 0.37316 0.49581 0.18178 0.0
H506 H 0.35468 0.54445 0.3138 0.0
H507 H 0.3229 0.54903 0.251 0.0
H508 H 0.40579 0.52674 0.21921 0.0
H509 H 0.36513 0.49338 0.43553 0.0
H510 H 0.35369 0.49439 0.35426 0.0
H511 H 0.3542 0.51705 0.40542 0.0
C512 C 0.34394 0.51017 0.16038 0.0
C513 C 0.32936 0.52503 0.17965 0.0
C514 C 0.3623 0.50755 0.19677 0.0
C515 C 0.36625 0.5196 0.2533 0.0
C516 C 0.35192 0.53475 0.27113 0.0
H517 H 0.45082 0.54021 0.57032 0.0
H518 H 0.42275 0.53791 0.49096 0.0
C519 C 0.33376 0.53741 0.23491 0.0
C520 C 0.38499 0.51639 0.29514 0.0
H521 H 0.39959 0.50488 0.45335 0.0
C522 C 0.40453 0.52164 0.2701 0.0
C523 C 0.38339 0.50977 0.36167 0.0
C524 C 0.36302 0.50313 0.39084 0.0
C525 C 0.42226 0.52147 0.31069 0.0
C526 C 0.42051 0.51551 0.37796 0.0
C527 C 0.40105 0.50954 0.40207 0.0
C528 C 0.43822 0.51666 0.42552 0.0
C529 C 0.44252 0.52864 0.282 0.0
C530 C 0.45644 0.50531 0.41614 0.0
C531 C 0.47275 0.5066 0.46189 0.0
C532 C 0.47119 0.51923 0.51832 0.0
C533 C 0.45279 0.53034 0.5277 0.0
C534 C 0.43659 0.52904 0.48215 0.0
H535 H 0.44041 0.53704 0.23458 0.0
H536 H 0.45079 0.53892 0.31707 0.0
H537 H 0.45239 0.51502 0.27245 0.0
H538 H 0.45801 0.49527 0.37377 0.0
H539 H 0.48656 0.49771 0.45297 0.0
H540 H 0.02366 0.35102 0.11024 0.0
H541 H 0.02214 0.38429 0.16913 0.0
H542 H 0.05097 0.35607 0.33872 0.0
H543 H 0.05132 0.323 0.28185 0.0
H544 H 0.02095 0.37657 0.38016 0.0
H545 H 0.06274 0.42853 0.20816 0.0
H546 H 0.04073 0.41643 0.17086 0.0
H547 H 0.06216 0.40088 0.19735 0.0
C548 C 0.02985 0.35209 0.15978 0.0
C549 C 0.0376 0.33439 0.19146 0.0
C550 C 0.02913 0.37118 0.19345 0.0
C551 C 0.03665 0.37301 0.25869 0.0
C552 C 0.04494 0.35531 0.28889 0.0
H553 H 0.06015 0.48627 0.4878 0.0
H554 H 0.06266 0.45638 0.41333 0.0
C555 C 0.0452 0.33634 0.25612 0.0
C556 C 0.03489 0.39263 0.29812 0.0
H557 H 0.04598 0.44451 0.2992 0.0
C558 C 0.02654 0.39137 0.36216 0.0
C559 C 0.04234 0.4121 0.2758 0.0
C560 C 0.05269 0.41459 0.20957 0.0
C561 C 0.02558 0.40862 0.40422 0.0
C562 C 0.03225 0.42825 0.38108 0.0
C563 C 0.04063 0.42962 0.31708 0.0
C564 C 0.03061 0.44734 0.42289 0.0
C565 C 0.01807 0.40531 0.47406 0.0
C566 C 1.01172 0.45277 0.45187 0.0
C567 C 1.01039 0.4695 0.49537 0.0
C568 C 0.02779 0.48175 0.50985 0.0
C569 C 0.04649 0.4771 0.47811 0.0
C570 C 0.04791 0.46001 0.43536 0.0
H571 H 0.02025 0.38905 0.49026 0.0
H572 H 0.02625 0.41556 0.50939 0.0
H573 H 1.00134 0.40866 0.47648 0.0
H574 H 0.99793 0.44388 0.44147 0.0
H575 H 0.99561 0.47287 0.51763 0.0
H576 H 0.85269 0.96436 0.13697 0.0
H577 H 0.88218 0.97134 0.06525 0.0
H578 H 0.86397 0.03514 0.04936 0.0
H579 H 0.83417 0.02815 0.12172 0.0
H580 H 0.87317 1.01573 0.92583 0.0
H581 H 0.9359 1.00244 0.10653 0.0
H582 H 0.91731 0.98183 0.10308 0.0
H583 H 0.90958 1.00696 0.13129 0.0
C584 C 0.85509 0.97997 0.11894 0.0
C585 C 0.84118 0.99572 0.1355 0.0
C586 C 0.87204 0.98395 0.07807 0.0
C587 C 0.87556 1.00383 0.05248 0.0
C588 C 0.86169 0.0197 0.06889 0.0
H589 H 0.96541 0.04972 0.76356 0.0
H590 H 0.93713 0.04604 0.84222 0.0
C591 C 0.84471 1.01572 0.11044 0.0
C592 C 0.8932 1.00754 1.00631 0.0
H593 H 0.94563 1.00357 0.99311 0.0
C594 C 0.88903 1.0133 0.94073 0.0
C595 C 0.91393 1.00417 0.02538 0.0
C596 C 0.91953 0.99869 0.09555 0.0
C597 C 0.90489 1.01521 0.89347 0.0
C598 C 0.92563 1.01172 0.91246 0.0
C599 C 0.9298 1.00617 0.97824 0.0
C600 C 0.94319 1.01395 0.86498 0.0
C601 C 0.89917 0.02027 0.82303 0.0
C602 C 0.95662 0.99737 0.85279 0.0
C603 C 0.97295 0.99946 0.80759 0.0
C604 C 0.97621 0.0182 0.77373 0.0
C605 C 0.96304 0.03489 0.78729 0.0
C606 C 0.9468 0.03281 0.8324 0.0
H607 H 0.88274 1.0166 0.81266 0.0
H608 H 0.9015 0.03705 0.81424 0.0
H609 H 0.90893 1.01165 0.78757 0.0
H610 H 0.95432 0.9827 0.87766 0.0
H611 H 0.98287 0.98635 0.79862 0.0
H612 H 0.51379 0.83109 0.10079 0.0
H613 H 0.50571 0.86014 0.02606 0.0
H614 H 0.56722 0.88416 0.05206 0.0
H615 H 0.57533 0.85534 0.12572 0.0
H616 H 0.53471 0.91455 0.06243 0.0
H617 H 0.52942 0.86738 0.83362 0.0
H618 H 0.51433 0.85912 0.90358 0.0
H619 H 0.54191 0.85802 0.90752 0.0
C620 C 0.52548 0.84269 0.09099 0.0
C621 C 0.5452 0.84096 0.11939 0.0
C622 C 0.52091 0.8592 0.04785 0.0
C623 C 0.53593 0.8743 0.03276 0.0
C624 C 0.55538 0.87276 0.06259 0.0
H625 H 0.55196 0.96323 0.71545 0.0
H626 H 0.55253 0.93355 0.79101 0.0
C627 C 0.55998 0.85627 0.10487 0.0
C628 C 0.53177 0.89174 0.98595 0.0
H629 H 0.52515 0.90331 0.82216 0.0
C630 C 0.53242 0.91208 0.00997 0.0
C631 C 0.52903 0.8886 0.91732 0.0
C632 C 0.52873 0.86715 0.88844 0.0
C633 C 0.53063 0.92928 0.96752 0.0
C634 C 0.528 0.9262 0.89864 0.0
C635 C 0.52715 0.9058 0.87472 0.0
C636 C 0.52688 0.94388 0.85058 0.0
C637 C 0.5322 0.95059 0.99714 0.0
C638 C 0.5121 0.95956 0.85766 0.0
C639 C 0.51184 0.97658 0.81456 0.0
C640 C 0.52607 0.97817 0.76234 0.0
C641 C 0.54059 0.96232 0.75444 0.0
C642 C 0.54095 0.94535 0.79785 0.0
H643 H 0.54118 0.95047 0.04388 0.0
H644 H 0.53954 0.96165 0.9625 0.0
H645 H 0.51649 0.95624 1.00861 0.0
H646 H 0.50079 0.95872 0.89686 0.0
H647 H 0.50035 0.98845 0.82186 0.0
H648 H 0.69139 0.59268 0.13493 0.0
H649 H 0.66157 0.58516 0.06533 0.0
H650 H 0.67737 0.52054 0.06571 0.0
H651 H 0.70754 0.52809 0.1359 0.0
H652 H 0.66862 0.53677 0.93807 0.0
H653 H 0.60668 0.55777 0.11327 0.0
H654 H 0.62599 0.57752 0.10394 0.0
H655 H 0.63283 0.55299 0.13954 0.0
C656 C 0.68838 0.57679 0.12106 0.0
C657 C 0.70175 0.56098 0.14154 0.0
C658 C 0.67123 0.5725 0.08134 0.0
C659 C 0.66691 0.55223 0.06082 0.0
C660 C 0.68023 0.53629 0.08126 0.0
H661 H 0.57457 0.50393 0.78288 0.0
H662 H 0.60285 0.50784 0.86169 0.0
C663 C 0.69743 0.54059 0.12165 0.0
C664 C 0.64908 0.54813 0.01557 0.0
H665 H 0.5969 0.55446 1.00018 0.0
C666 C 0.65291 0.5404 0.95196 0.0
C667 C 0.62853 0.55303 0.03316 0.0
C668 C 0.62317 0.56061 0.10139 0.0
C669 C 0.63696 0.53806 0.90512 0.0
C670 C 0.61643 0.54314 0.92254 0.0
C671 C 0.61257 0.55063 0.98643 0.0
C672 C 0.59878 0.54072 0.87531 0.0
C673 C 0.64241 0.53083 0.83653 0.0
C674 C 0.58645 0.55774 0.85786 0.0
C675 C 0.57012 0.55551 0.81272 0.0
C676 C 0.56565 0.53617 0.78431 0.0
C677 C 0.57774 0.51911 0.80297 0.0
C678 C 0.59401 0.52134 0.84798 0.0
H679 H 0.65904 0.53315 0.82561 0.0
H680 H 0.63899 0.51407 0.83237 0.0
H681 H 0.63324 0.53912 0.79855 0.0
H682 H 0.58966 0.57285 0.87844 0.0
H683 H 0.56115 0.56898 0.79943 0.0
H684 H 0.02402 0.71791 0.12607 0.0
H685 H 0.03076 0.68866 0.05125 0.0
H686 H 0.96616 0.67288 0.05375 0.0
H687 H 0.9594 0.70198 0.12696 0.0
H688 H 0.02338 0.64557 0.0613 0.0
H689 H 0.97734 0.67872 0.85706 0.0
H690 H 0.98509 0.69371 0.92794 0.0
H691 H 0.96312 0.6767 0.93276 0.0
C692 C 1.01133 0.70809 0.11097 0.0
C693 C 0.99114 0.71234 0.13223 0.0
C694 C 0.01517 0.69139 0.06808 0.0
C695 C 0.99889 0.67874 0.04543 0.0
C696 C 0.97893 0.68262 0.06887 0.0
H697 H 0.97988 0.57287 0.7867 0.0
H698 H 0.97698 0.6013 0.86616 0.0
C699 C 0.97511 0.69921 0.11126 0.0
C700 C 1.00243 0.66162 0.99697 0.0
H701 H 0.98659 0.64328 0.84661 0.0
C702 C 0.0155 0.64518 0.01409 0.0
C703 C 0.99216 0.66098 0.93514 0.0
C704 C 0.9788 0.67856 0.91173 0.0
C705 C 0.018 0.62792 0.97229 0.0
C706 C 1.0074 0.62713 0.91108 0.0
C707 C 0.9946 0.64371 0.89361 0.0
C708 C 1.00938 0.60933 0.86428 0.0
C709 C 0.03148 0.61035 0.99495 0.0
C710 C 0.0285 0.60437 0.83599 0.0
C711 C 0.03019 0.5881 0.79061 0.0
C712 C 1.0128 0.57634 0.77228 0.0
C713 C 0.99364 0.58137 0.80042 0.0
C714 C 0.99195 0.59771 0.84565 0.0
H715 H 0.03431 0.61086 0.04904 0.0
H716 H 0.02442 0.59519 0.98239 0.0
H717 H 0.0466 0.61143 0.96958 0.0
H718 H 0.04212 0.6133 0.84825 0.0
H719 H 0.04517 0.58474 0.76975 0.0
H720 H 0.11104 0.24133 0.08082 0.0
H721 H 0.12105 0.21289 0.15421 0.0
H722 H 0.07615 0.23315 0.29691 0.0
H723 H 0.06694 0.26174 0.22621 0.0
H724 H 0.10467 0.20999 0.35627 0.0
H725 H 0.07754 0.1701 0.12707 0.0
H726 H 0.10159 0.1838 0.12415 0.0
H727 H 0.07781 0.19783 0.13186 0.0
C728 C 0.10409 0.24022 0.12935 0.0
C729 C 0.08775 0.25332 0.14696 0.0
C730 C 0.10971 0.2239 0.17102 0.0
C731 C 0.09855 0.22026 0.22934 0.0
C732 C 0.08477 0.23538 0.25161 0.0
H733 H 1.01326 0.15804 0.41754 0.0
H734 H 0.04321 0.17886 0.38573 0.0
C735 C 0.07948 0.25186 0.21087 0.0
C736 C 0.09676 0.19932 0.25869 0.0
H737 H 0.07092 0.15437 0.22692 0.0
C738 C 0.09797 0.19747 0.32777 0.0
C739 C 0.08817 0.1828 0.22149 0.0
C740 C 0.08608 0.18362 0.14715 0.0
C741 C 0.08837 0.18098 0.36092 0.0
C742 C 0.07762 0.16596 0.32388 0.0
C743 C 0.07901 0.16616 0.25493 0.0
C744 C 0.06145 0.15279 0.35361 0.0
C745 C 0.0884 0.18061 0.43533 0.0
C746 C 0.0617 0.1313 0.34521 0.0
C747 C 0.04453 0.11942 0.36287 0.0
C748 C 0.02674 0.12893 0.38806 0.0
C749 C 0.02669 0.15039 0.39757 0.0
C750 C 0.04392 0.16221 0.38058 0.0
H751 H 0.10248 0.18816 0.4553 0.0
H752 H 0.07486 0.1893 0.45372 0.0
H753 H 0.08743 0.16454 0.45453 0.0
H754 H 0.07492 0.12383 0.32319 0.0
H755 H 0.0449 0.10288 0.35481 0.0
H756 H 0.28902 0.04706 0.25544 0.0
H757 H 0.31441 0.05279 0.34202 0.0
H758 H 0.3456 0.09745 0.21856 0.0
H759 H 0.31953 0.09279 0.13353 0.0
H760 H 0.35055 0.03974 0.30605 0.0
H761 H 0.36138 0.1192 0.39635 0.0
H762 H 0.33766 0.11073 0.35792 0.0
H763 H 0.35913 0.1193 0.30819 0.0
C764 C 0.3006 0.05894 0.248 0.0
C765 C 0.3026 0.06906 0.18677 0.0
C766 C 0.31517 0.06218 0.29771 0.0
C767 C 0.33205 0.07541 0.28677 0.0
C768 C 0.33264 0.08735 0.22883 0.0
H769 H 0.4589 0.07257 0.29417 0.0
H770 H 0.42325 0.08414 0.29963 0.0
C771 C 0.3179 0.08436 0.17953 0.0
C772 C 0.35129 0.07248 0.32502 0.0
H773 H 0.39296 0.09834 0.38715 0.0
C774 C 0.35954 0.05248 0.32588 0.0
C775 C 0.36313 0.0891 0.35005 0.0
C776 C 0.35472 0.11074 0.35363 0.0
C777 C 0.37983 0.04884 0.34558 0.0
C778 C 0.39213 0.06565 0.36724 0.0
C779 C 0.38351 0.08549 0.37058 0.0
C780 C 0.41452 0.063 0.37784 0.0
C781 C 0.38835 0.02727 0.3375 0.0
C782 C 0.42176 0.04826 0.42287 0.0
C783 C 0.44183 0.04083 0.41764 0.0
C784 C 0.4553 0.04859 0.36874 0.0
C785 C 0.44875 0.06547 0.33014 0.0
C786 C 0.42845 0.07245 0.33414 0.0
H787 H 0.37802 1.01719 0.3078 0.0
H788 H 0.40367 0.02772 0.31309 0.0
H789 H 0.39017 0.02 0.3868 0.0
H790 H 0.41135 0.04117 0.45817 0.0
H791 H 0.44604 0.02793 0.44882 0.0
H792 H 0.49531 0.28453 0.24353 0.0
H793 H 0.48944 0.30794 0.33375 0.0
H794 H 0.43395 0.32987 0.23912 0.0
H795 H 0.44071 0.30694 0.14562 0.0
H796 H 0.45623 0.35983 0.25058 0.0
H797 H 0.46241 0.32551 0.49397 0.0
H798 H 0.48255 0.31307 0.44937 0.0
H799 H 0.45602 0.3096 0.42359 0.0
C800 C 0.48133 0.29361 0.24325 0.0
C801 C 0.46867 0.29423 0.1872 0.0
C802 C 0.47777 0.30696 0.29571 0.0
C803 C 0.4612 0.32089 0.29387 0.0
C804 C 0.44694 0.31944 0.24169 0.0
H805 H 0.51781 0.41973 0.52584 0.0
H806 H 0.48949 0.39586 0.50078 0.0
C807 C 0.4508 0.30638 0.18822 0.0
C808 C 0.46263 0.33998 0.33429 0.0
H809 H 0.48812 0.35568 0.47258 0.0
C810 C 0.46233 0.35896 0.30034 0.0
C811 C 0.46978 0.33959 0.40034 0.0
C812 C 0.46741 0.32079 0.44379 0.0
C813 C 0.47233 0.37636 0.32597 0.0
C814 C 0.48336 0.37448 0.38577 0.0
C815 C 0.48056 0.35677 0.42494 0.0
C816 C 0.50022 0.38901 0.40216 0.0
C817 C 0.47231 0.3961 0.28616 0.0
C818 C 0.51601 0.39247 0.35591 0.0
C819 C 0.53202 0.40619 0.36962 0.0
C820 C 0.53275 0.41652 0.43038 0.0
C821 C 0.51741 0.41233 0.47793 0.0
C822 C 0.50127 0.39867 0.4639 0.0
H823 H 0.45739 0.39801 0.25997 0.0
H824 H 0.47506 0.40985 0.31776 0.0
H825 H 0.48458 0.39538 0.24807 0.0
H826 H 0.5159 0.38458 0.30877 0.0
H827 H 0.54351 0.40911 0.33191 0.0
H828 H 0.25832 0.51091 0.27587 0.0
H829 H 0.23858 0.50598 0.37617 0.0
H830 H 0.20917 0.45219 0.29179 0.0
H831 H 0.22871 0.45753 0.18951 0.0
H832 H 0.18204 0.47848 0.32311 0.0
H833 H 0.23215 0.47347 0.53977 0.0
H834 H 0.2416 0.49438 0.49027 0.0
H835 H 0.24174 0.4684 0.45764 0.0
C836 C 0.24828 0.49753 0.2795 0.0
C837 C 0.2449 0.4847 0.22472 0.0
C838 C 0.23709 0.49457 0.33743 0.0
C839 C 0.22252 0.47852 0.34225 0.0
C840 C 0.2204 0.46461 0.28943 0.0
H841 H 0.11426 0.51328 0.57417 0.0
H842 H 0.13942 0.48742 0.5388 0.0
C843 C 0.23144 0.46773 0.23094 0.0
C844 C 0.20662 0.47959 0.39468 0.0
H845 H 0.20095 0.49603 0.55356 0.0
C846 C 0.18604 0.48144 0.37424 0.0
C847 C 0.21169 0.48326 0.46162 0.0
C848 C 0.23302 0.47951 0.48844 0.0
C849 C 0.17101 0.4895 0.41634 0.0
C850 C 0.17674 0.49563 0.48081 0.0
C851 C 0.19671 0.49158 0.50374 0.0
C852 C 0.1635 0.50977 0.51874 0.0
C853 C 0.14968 0.49341 0.38919 0.0
C854 C 0.16919 0.53069 0.52256 0.0
C855 C 0.1549 0.54545 0.54234 0.0
C856 C 0.1347 0.53948 0.55846 0.0
C857 C 0.12959 0.51832 0.5601 0.0
C858 C 0.14395 0.50354 0.54063 0.0
H859 H 0.14836 0.48935 0.33607 0.0
H860 H 0.13826 0.48401 0.41701 0.0
H861 H 0.14554 0.50993 0.39514 0.0
H862 H 0.18422 0.53577 0.50564 0.0
H863 H 0.15927 0.56162 0.54078 0.0
H864 H 0.95201 0.82665 0.13058 0.0
H865 H 0.94866 0.85057 0.03746 0.0
H866 H 0.99464 0.81633 0.93036 0.0
H867 H 0.99799 0.79249 0.02264 0.0
H868 H 0.98335 0.87205 0.01648 0.0
H869 H 0.95959 0.8377 0.77945 0.0
H870 H 0.95332 0.826 0.85818 0.0
H871 H 0.9781 0.82173 0.82066 0.0
C872 C 0.96084 0.82383 0.08615 0.0
C873 C 0.97553 0.80795 0.08429 0.0
C874 C 0.95877 0.83738 0.03277 0.0
C875 C 0.97135 0.83523 0.97681 0.0
C876 C 0.98442 0.81807 0.97224 0.0
H877 H 0.05236 0.89747 0.73808 0.0
H878 H 0.02513 0.87456 0.77709 0.0
C879 C 0.98645 0.80449 0.02544 0.0
C880 C 0.97514 0.85321 0.93306 0.0
H881 H 0.98442 0.8663 0.7724 0.0
C882 C 0.98295 0.87111 0.963 0.0
C883 C 0.97483 0.85181 0.86344 0.0
C884 C 0.9658 0.83331 0.82864 0.0
C885 C 0.99231 0.88679 0.92588 0.0
C886 C 0.99307 0.88494 0.85614 0.0
C887 C 0.98381 0.86774 0.82572 0.0
C888 C 1.00612 0.89906 0.81615 0.0
C889 C 1.00296 0.90413 0.96265 0.0
C890 C 1.0038 0.92053 0.82062 0.0
C891 C 0.01991 0.93364 0.80193 0.0
C892 C 0.03831 0.92554 0.77556 0.0
C893 C 0.03904 0.90424 0.76159 0.0
C894 C 0.02322 0.89109 0.78259 0.0
H895 H 1.00447 0.90081 0.01629 0.0
H896 H 0.01863 0.90698 0.94252 0.0
H897 H 0.99386 0.91851 0.95742 0.0
H898 H 0.99033 0.92705 0.84407 0.0
H899 H 0.01836 0.94988 0.8132 0.0
H900 H 0.7482 0.99036 0.06247 0.0
H901 H 0.71584 0.98221 1.0069 0.0
H902 H 0.70355 0.93425 0.14997 0.0
H903 H 0.73575 0.94282 0.20692 0.0
H904 H 0.6889 0.94993 0.95952 0.0
H905 H 0.66592 0.98278 0.20315 0.0
H906 H 0.69238 0.98216 0.17657 0.0
H907 H 0.67994 0.95894 0.20504 0.0
C908 C 0.7392 0.97728 0.07977 0.0
C909 C 0.74415 0.96746 0.13948 0.0
C910 C 0.72065 0.97266 0.04812 0.0
C911 C 0.70706 0.95809 0.07574 0.0
C912 C 0.71371 0.94581 0.12875 0.0
H913 H 0.5752 0.96886 0.96873 0.0
H914 H 0.60775 0.95197 0.99819 0.0
C915 C 0.73214 0.95061 0.16096 0.0
C916 C 0.68488 0.95975 0.06017 0.0
H917 H 0.64069 0.9807 0.12173 0.0
C918 C 0.67817 0.95614 0.9953 0.0
C919 C 0.67106 0.96826 0.10695 0.0
C920 C 0.67761 0.97343 0.17669 0.0
C921 C 0.65817 0.96159 0.97535 0.0
C922 C 0.64478 0.97082 0.02147 0.0
C923 C 0.65111 0.97347 0.08693 0.0
C924 C 0.62526 0.98045 1.00119 0.0
C925 C 0.65179 0.95867 0.9044 0.0
C926 C 0.62447 1.00198 0.99405 0.0
C927 C 0.60599 1.01163 0.97782 0.0
C928 C 0.58796 0.9999 0.9689 0.0
C929 C 0.58879 0.97829 0.97629 0.0
C930 C 0.60736 0.96861 0.99234 0.0
H931 H 0.66394 0.95102 0.87467 0.0
H932 H 0.63751 0.94918 0.90218 0.0
H933 H 0.64829 0.97392 0.88187 0.0
H934 H 0.63818 1.01132 1.00137 0.0
H935 H 0.60576 0.0283 0.97289 0.0
H936 H 0.5458 0.75964 0.01543 0.0
H937 H 0.55138 0.73533 0.92579 0.0
H938 H 0.59906 0.70538 0.03874 0.0
H939 H 0.59337 0.72967 0.12961 0.0
H940 H 0.58339 0.71581 0.84608 0.0
H941 H 0.54964 0.66507 0.0421 0.0
H942 H 0.55104 0.69269 0.05176 0.0
H943 H 0.57393 0.67735 0.05903 0.0
C944 C 0.55809 0.74846 0.02026 0.0
C945 C 0.56883 0.74623 0.08008 0.0
C946 C 0.56131 0.73459 0.96877 0.0
C947 C 0.57532 0.71833 0.9763 0.0
C948 C 0.58796 0.71768 0.03251 0.0
H949 H 0.52673 0.60675 0.81449 0.0
H950 H 0.55588 0.62726 0.84971 0.0
C951 C 0.58462 0.73147 0.08441 0.0
C952 C 0.57287 0.69999 0.93361 0.0
H953 H 0.54808 0.65359 0.9347 0.0
C954 C 0.57618 0.70189 0.86533 0.0
C955 C 0.56357 0.68182 0.95899 0.0
C956 C 0.55919 0.679 0.03183 0.0
C957 C 0.56923 0.68659 0.82133 0.0
C958 C 0.55821 0.66934 0.84641 0.0
C959 C 0.55651 0.66674 0.91509 0.0
C960 C 0.54533 0.65562 0.80437 0.0
C961 C 0.57326 0.68941 0.74856 0.0
C962 C 0.5304 0.66425 0.76245 0.0
C963 C 0.51395 0.65225 0.73958 0.0
C964 C 0.51162 0.63159 0.76034 0.0
C965 C 0.52769 0.62254 0.79708 0.0
C966 C 0.5445 0.63435 0.81782 0.0
H967 H 0.58859 0.69669 0.7404 0.0
H968 H 0.57266 0.6745 0.72154 0.0
H969 H 0.56153 0.69998 0.72749 0.0
H970 H 0.53039 0.68064 0.75173 0.0
H971 H 0.50244 0.65961 0.70894 0.0
H972 H 0.81668 0.59898 0.12671 0.0
H973 H 0.83897 0.60192 0.02955 0.0
H974 H 0.80251 0.55546 0.93059 0.0
H975 H 0.78029 0.55256 0.02671 0.0
H976 H 0.86087 0.56886 0.99965 0.0
H977 H 0.81804 0.59142 0.77639 0.0
H978 H 0.80851 0.59661 0.85855 0.0
H979 H 0.80408 0.57182 0.82044 0.0
C980 C 0.81308 0.5899 0.08331 0.0
C981 C 0.79691 0.57536 0.0845 0.0
C982 C 0.82571 0.5917 0.02775 0.0
C983 C 0.82234 0.57902 0.97258 0.0
C984 C 0.80513 0.5658 0.97173 0.0
H985 H 0.87996 0.50092 0.71304 0.0
H986 H 0.85738 0.5248 0.77069 0.0
C987 C 0.79247 0.56406 0.02706 0.0
C988 C 0.83888 0.57597 0.92332 0.0
H989 H 0.84652 0.56703 0.75921 0.0
C990 C 0.858 0.56911 0.94688 0.0
C991 C 0.83508 0.57623 0.85459 0.0
C992 C 0.81535 0.58464 0.82613 0.0
C993 C 0.87268 0.56066 0.90427 0.0
C994 C 0.86825 0.5595 0.83596 0.0
C995 C 0.84979 0.56783 0.81168 0.0
C996 C 0.88133 0.54726 0.79112 0.0
C997 C 0.89203 0.55151 0.93359 0.0
C998 C 0.90213 0.55231 0.78173 0.0
C999 C 0.91518 0.53854 0.74952 0.0
C1000 C 0.90756 0.51968 0.72473 0.0
C1001 C 0.88639 0.51534 0.73073 0.0
C1002 C 0.87341 0.529 0.76368 0.0
H1003 H 0.89131 0.5505 0.98832 0.0
H1004 H 0.89476 0.53578 0.91377 0.0
H1005 H 0.90544 0.56136 0.92029 0.0
H1006 H 0.90845 0.5665 0.80168 0.0
H1007 H 0.93132 0.54254 0.74545 0.0
H1008 H 0.01541 0.23923 0.99757 0.0
H1009 H 1.00813 0.20724 0.93604 0.0
H1010 H 0.06583 0.21388 0.83275 0.0
H1011 H 0.07315 0.24561 0.89431 0.0
H1012 H 1.00665 0.19479 0.79827 0.0
H1013 H 0.07171 0.15842 0.93216 0.0
H1014 H 0.06078 0.1828 0.95693 0.0
H1015 H 0.07848 0.18172 0.88877 0.0
C1016 C 0.02611 0.23431 0.95975 0.0
C1017 C 0.04475 0.24511 0.95026 0.0
C1018 C 0.02207 0.21586 0.92513 0.0
C1019 C 0.03665 0.2078 0.88073 0.0
C1020 C 0.05449 0.21948 0.86754 0.0
H1021 H 0.05493 0.09209 0.66776 0.0
H1022 H 0.05744 0.12679 0.71584 0.0
C1023 C 0.05853 0.23782 0.90205 0.0
C1024 C 0.03407 0.18662 0.85174 0.0
H1025 H 0.05647 0.13879 0.84637 0.0
C1026 C 0.01749 0.18253 0.80902 0.0
C1027 C 0.04814 0.17047 0.86581 0.0
C1028 C 0.06568 0.17343 0.91388 0.0
C1029 C 1.01495 0.16303 0.77866 0.0
C1030 C 0.02917 0.14696 0.7922 0.0
C1031 C 0.04562 0.15103 0.83547 0.0
C1032 C 0.02737 0.12585 0.76203 0.0
C1033 C 0.99738 0.16001 0.73082 0.0
C1034 C 1.00976 0.11348 0.77221 0.0
C1035 C 1.00838 0.09357 0.74494 0.0
C1036 C 0.02468 0.08541 0.70751 0.0
C1037 C 0.04224 0.0978 0.69709 0.0
C1038 C 0.04364 0.1177 0.72439 0.0
H1039 H 0.99139 0.175 0.71231 0.0
H1040 H 1.00222 0.15054 0.68794 0.0
H1041 H 0.98458 0.15183 0.75625 0.0
H1042 H 0.99717 0.11909 0.80218 0.0
H1043 H 0.99469 0.08438 0.7543 0.0
H1044 H 0.30903 0.07686 0.9309 0.0
H1045 H 0.3386 0.07243 0.85728 0.0
H1046 H 0.33851 1.00706 0.89918 0.0
H1047 H 0.30854 1.0115 0.97168 0.0
H1048 H 0.37525 0.06066 0.89965 0.0
H1049 H 0.35097 1.00612 0.70408 0.0
H1050 H 0.33272 0.01915 0.75662 0.0
H1051 H 0.34594 0.99651 0.78572 0.0
C1052 C 0.31476 0.06141 0.92198 0.0
C1053 C 0.30617 0.04446 0.95594 0.0
C1054 C 0.33184 0.0589 0.88043 0.0
C1055 C 0.34091 0.03938 0.872 0.0
C1056 C 0.33165 0.02222 0.90328 0.0
H1057 H 0.47083 0.01869 0.79856 0.0
H1058 H 0.43584 0.0212 0.8421 0.0
C1059 C 0.31441 0.02473 0.94462 0.0
C1060 C 0.36128 0.03758 0.83732 0.0
H1061 H 0.38735 1.01157 0.71618 0.0
C1062 C 0.37776 0.05001 0.85918 0.0
C1063 C 0.36476 0.02384 0.78403 0.0
C1064 C 0.34761 1.01079 0.75572 0.0
C1065 C 0.39749 0.04882 0.83059 0.0
C1066 C 0.40118 0.0345 0.77919 0.0
C1067 C 0.38465 0.02241 0.75599 0.0
C1068 C 0.42225 0.03169 0.7505 0.0
C1069 C 0.41423 0.06308 0.85545 0.0
C1070 C 0.42634 0.03609 0.68365 0.0
C1071 C 0.44649 0.03468 0.65842 0.0
C1072 C 0.46296 0.0287 0.69946 0.0
C1073 C 0.45863 0.02364 0.7657 0.0
C1074 C 0.43858 0.02509 0.79078 0.0
H1075 H 0.40775 0.07666 0.88161 0.0
H1076 H 0.42416 0.05456 0.89075 0.0
H1077 H 0.42405 0.0687 0.81419 0.0
H1078 H 0.41402 0.04114 0.65139 0.0
H1079 H 0.44926 0.03871 0.60723 0.0
H1080 H 0.52754 0.30904 0.97435 0.0
H1081 H 0.53279 0.34145 0.91254 0.0
H1082 H 0.46735 0.34545 0.87862 0.0
H1083 H 0.4621 0.31347 0.94138 0.0
H1084 H 0.52398 0.35699 0.7876 0.0
H1085 H 0.47835 0.39907 0.97477 0.0
H1086 H 0.48654 0.37273 0.98672 0.0
H1087 H 0.46425 0.37833 0.93698 0.0
C1088 C 0.51437 0.31652 0.95193 0.0
C1089 C 0.4944 0.3086 0.96254 0.0
C1090 C 0.51734 0.33519 0.91709 0.0
C1091 C 0.50042 0.34636 0.8923 0.0
C1092 C 0.48065 0.33757 0.89868 0.0
H1093 H 0.48182 0.46625 0.70068 0.0
H1094 H 0.47837 0.43142 0.74748 0.0
C1095 C 0.47767 0.31908 0.93379 0.0
C1096 C 0.50316 0.36756 0.86285 0.0
H1097 H 0.48761 0.41791 0.87845 0.0
C1098 C 0.5161 0.3703 0.80774 0.0
C1099 C 0.49301 0.38513 0.88901 0.0
C1100 C 0.47993 0.38377 0.9505 0.0
C1101 C 0.51869 0.38984 0.77733 0.0
C1102 C 0.5083 0.40729 0.80304 0.0
C1103 C 0.49549 0.40458 0.85831 0.0
C1104 C 0.51055 0.42851 0.77373 0.0
C1105 C 0.53215 0.39157 0.71686 0.0
C1106 C 0.5297 0.43877 0.7733 0.0
C1107 C 0.5316 0.4589 0.74761 0.0
C1108 C 0.51436 0.46935 0.72191 0.0
C1109 C 0.49527 0.45896 0.72166 0.0
C1110 C 0.49334 0.43891 0.74788 0.0
H1111 H 0.53508 0.37624 0.69422 0.0
H1112 H 0.525 0.4018 0.67926 0.0
H1113 H 0.54722 0.39842 0.73101 0.0
H1114 H 0.54318 0.43133 0.79383 0.0
H1115 H 0.54655 0.46638 0.74879 0.0
H1116 H 0.23398 0.53725 0.98705 0.0
H1117 H 0.20263 0.54212 0.92043 0.0
H1118 H 0.19282 0.47619 0.91807 0.0
H1119 H 0.22369 0.4714 0.98578 0.0
H1120 H 0.18787 0.52941 0.80079 0.0
H1121 H 0.13936 0.49507 0.99754 0.0
H1122 H 0.16615 0.50144 0.01032 0.0
H1123 H 0.15899 0.47776 0.96958 0.0
C1124 C 0.2254 0.52379 0.9708 0.0
C1125 C 0.23136 0.50394 0.99162 0.0
C1126 C 0.20735 0.52658 0.9332 0.0
C1127 C 0.19486 0.50957 0.91572 0.0
C1128 C 0.20169 0.48965 0.93253 0.0
H1129 H 0.07652 0.49024 0.7192 0.0
H1130 H 0.11021 0.48701 0.7725 0.0
C1131 C 0.21955 0.48689 0.97047 0.0
C1132 C 0.17446 0.51258 0.88192 0.0
H1133 H 0.12296 0.50111 0.89435 0.0
C1134 C 0.17368 0.52333 0.82157 0.0
C1135 C 0.15575 0.50478 0.90878 0.0
C1136 C 0.15501 0.49431 0.97542 0.0
C1137 C 0.15501 0.52592 0.7867 0.0
C1138 C 0.13638 0.51778 0.81292 0.0
C1139 C 0.13714 0.50723 0.87361 0.0
C1140 C 0.11596 0.51992 0.77848 0.0
C1141 C 0.15554 0.53675 0.72087 0.0
C1142 C 0.10767 0.53946 0.7638 0.0
C1143 C 0.08815 0.5413 0.73419 0.0
C1144 C 0.07628 0.52365 0.71879 0.0
C1145 C 0.08481 0.50414 0.73224 0.0
C1146 C 0.10425 0.5023 0.76222 0.0
H1147 H 0.17126 0.53689 0.69909 0.0
H1148 H 0.14488 0.52909 0.68594 0.0
H1149 H 0.15056 0.55299 0.72723 0.0
H1150 H 0.1161 0.55337 0.77648 0.0
H1151 H 0.08223 0.55663 0.7244 0.0
H1152 H 0.03201 0.80961 0.31993 0.0
H1153 H 0.03861 0.83828 0.39714 0.0
H1154 H 0.97368 0.85205 0.40008 0.0
H1155 H 0.96713 0.82345 0.32449 0.0
H1156 H 0.03179 0.87886 0.37302 0.0
H1157 H 0.98645 0.85712 0.59316 0.0
H1158 H 0.99257 0.83879 0.52913 0.0
H1159 H 0.97099 0.85598 0.5199 0.0
C1160 C 0.01911 0.8183 0.3391 0.0
C1161 C 0.99901 0.81406 0.31669 0.0
C1162 C 0.0229 0.83485 0.38271 0.0
C1163 C 1.00664 0.84736 0.40548 0.0
C1164 C 0.9865 0.8425 0.38502 0.0
H1165 H 0.98545 0.96871 0.56336 0.0
H1166 H 0.98419 0.93366 0.51763 0.0
C1167 C 0.98275 0.8261 0.3415 0.0
C1168 C 1.01065 0.86658 0.44517 0.0
H1169 H 0.99427 0.89346 0.58099 0.0
C1170 C 0.02387 0.88185 0.41914 0.0
C1171 C 1.00034 0.87071 0.5055 0.0
C1172 C 0.98697 0.85468 0.53889 0.0
C1173 C 0.02626 0.9013 0.44977 0.0
C1174 C 0.0153 0.90568 0.50854 0.0
C1175 C 1.00259 0.89023 0.53576 0.0
C1176 C 0.01599 0.92659 0.54011 0.0
C1177 C 0.03981 0.91741 0.4175 0.0
C1178 C 0.03413 0.93429 0.56942 0.0
C1179 C 0.03486 0.95447 0.59514 0.0
C1180 C 0.0175 0.96735 0.59184 0.0
C1181 C 0.9992 0.95937 0.56476 0.0
C1182 C 0.99843 0.93923 0.53931 0.0
H1183 H 0.04476 0.91276 0.36719 0.0
H1184 H 0.03159 0.93239 0.41406 0.0
H1185 H 0.05378 0.91985 0.44812 0.0
H1186 H 0.04782 0.92481 0.57153 0.0
H1187 H 0.04918 0.96024 0.61565 0.0
H1188 H 0.74838 0.98424 0.40381 0.0
H1189 H 0.71757 0.99063 0.4707 0.0
H1190 H 0.70235 0.04256 0.3466 0.0
H1191 H 0.73337 0.03632 0.28027 0.0
H1192 H 0.69107 0.04833 0.48224 0.0
H1193 H 0.66286 0.97355 0.38259 0.0
H1194 H 0.68688 0.97196 0.42634 0.0
H1195 H 0.68545 0.98647 0.35068 0.0
C1196 C 0.73903 0.99766 0.39299 0.0
C1197 C 0.74356 1.01007 0.33771 0.0
C1198 C 0.7212 1.00109 0.4305 0.0
C1199 C 0.70733 1.01682 0.41296 0.0
C1200 C 0.71274 0.03032 0.3612 0.0
H1201 H 0.57506 1.0157 0.47249 0.0
H1202 H 0.61033 1.01516 0.43139 0.0
C1203 C 0.73063 0.02692 0.32375 0.0
C1204 C 0.68634 1.01776 0.44351 0.0
H1205 H 0.64144 0.99026 0.45964 0.0
C1206 C 0.68023 0.03561 0.47759 0.0
C1207 C 0.67196 1.00136 0.43624 0.0
C1208 C 0.67696 0.98232 0.39649 0.0
C1209 C 0.66031 0.03739 0.50511 0.0
C1210 C 0.64613 0.02073 0.49941 0.0
C1211 C 0.65226 1.00297 0.46487 0.0
C1212 C 0.62454 0.02164 0.5258 0.0
C1213 C 0.65446 0.05739 0.53816 0.0
C1214 C 0.62049 0.0253 0.59307 0.0
C1215 C 0.60013 0.02573 0.61696 0.0
C1216 C 0.58331 0.02228 0.57429 0.0
C1217 C 0.58748 0.01842 0.50716 0.0
C1218 C 0.60775 1.0181 0.48338 0.0
H1219 H 0.66474 0.07032 0.52292 0.0
H1220 H 0.6383 0.06164 0.52649 0.0
H1221 H 0.65583 0.05553 0.59246 0.0
H1222 H 0.63307 0.02758 0.6274 0.0
H1223 H 0.59762 0.02864 0.66896 0.0
H1224 H 0.5091 0.73833 0.29583 0.0
H1225 H 0.50394 0.70854 0.3698 0.0
H1226 H 0.56939 0.70617 0.40551 0.0
H1227 H 0.5745 0.73555 0.33093 0.0
H1228 H 0.55535 0.66956 0.36599 0.0
H1229 H 0.50476 0.69726 0.56711 0.0
H1230 H 0.49473 0.70232 0.48604 0.0
H1231 H 0.51822 0.71469 0.51208 0.0
C1232 C 0.52224 0.73193 0.32157 0.0
C1233 C 0.54217 0.7395 0.30829 0.0
C1234 C 0.51932 0.71481 0.3638 0.0
C1235 C 0.53626 0.70499 0.39394 0.0
C1236 C 0.55602 0.71334 0.38323 0.0
H1237 H 0.53586 0.59913 0.67061 0.0
H1238 H 0.53881 0.63384 0.62147 0.0
C1239 C 0.55894 0.73029 0.34097 0.0
C1240 C 0.5339 0.68485 0.4304 0.0
H1241 H 0.50908 0.66069 0.55894 0.0
C1242 C 0.54526 0.66774 0.40832 0.0
C1243 C 0.52096 0.68229 0.48631 0.0
C1244 C 0.50911 0.70015 0.51481 0.0
C1245 C 0.5438 0.64828 0.43935 0.0
C1246 C 0.53029 0.6455 0.4936 0.0
C1247 C 0.51925 0.66267 0.5169 0.0
C1248 C 0.52732 0.62475 0.52545 0.0
C1249 C 0.55709 0.63088 0.41454 0.0
C1250 C 0.51947 0.6081 0.48865 0.0
C1251 C 0.51769 0.58835 0.51673 0.0
C1252 C 0.52371 0.58464 0.58242 0.0
C1253 C 0.53102 0.60143 0.61997 0.0
C1254 C 0.53274 0.62129 0.59185 0.0
H1255 H 0.57008 0.63664 0.38375 0.0
H1256 H 0.56347 0.62188 0.45651 0.0
H1257 H 0.54764 0.62029 0.38384 0.0
H1258 H 0.51477 0.61035 0.43783 0.0
H1259 H 0.51149 0.57595 0.48684 0.0
H1260 H 0.80411 0.52043 0.31177 0.0
H1261 H 0.83496 0.51539 0.38059 0.0
H1262 H 0.84122 0.5814 0.40159 0.0
H1263 H 0.81068 0.58637 0.33259 0.0
H1264 H 0.87623 0.56378 0.35386 0.0
H1265 H 0.85028 0.52091 0.57659 0.0
H1266 H 0.84226 0.50965 0.49965 0.0
H1267 H 0.83264 0.53456 0.52319 0.0
C1268 C 0.81158 0.53378 0.33352 0.0
C1269 C 0.80474 0.55378 0.31774 0.0
C1270 C 0.82932 0.53091 0.37262 0.0
C1271 C 0.84053 0.54801 0.39677 0.0
C1272 C 0.83295 0.56793 0.38389 0.0
H1273 H 0.94989 0.55214 0.65215 0.0
H1274 H 0.91494 0.55471 0.60585 0.0
C1275 C 0.81533 0.57077 0.34493 0.0
C1276 C 0.86123 0.54548 0.42884 0.0
H1277 H 0.88646 0.5239 0.56054 0.0
C1278 C 0.8784 0.55502 0.39904 0.0
C1279 C 0.86421 0.53428 0.48829 0.0
C1280 C 0.84637 0.5244 0.52432 0.0
C1281 C 0.89832 0.55348 0.42624 0.0
C1282 C 0.90142 0.5418 0.4846 0.0
C1283 C 0.88422 0.53257 0.51526 0.0
C1284 C 0.92239 0.53926 0.5144 0.0
C1285 C 0.91586 0.56487 0.39317 0.0
C1286 C 0.93825 0.52949 0.47907 0.0
C1287 C 0.95814 0.5279 0.50577 0.0
C1288 C 0.96265 0.53591 0.56866 0.0
C1289 C 0.94675 0.54545 0.60429 0.0
C1290 C 0.92681 0.54703 0.57764 0.0
H1291 H 0.91026 0.57684 0.35816 0.0
H1292 H 0.92587 0.57242 0.43054 0.0
H1293 H 0.92538 0.55374 0.36504 0.0
H1294 H 0.93525 0.5231 0.43063 0.0
H1295 H 0.96998 0.52027 0.47725 0.0
loop_
_geom_bond_atom_site_label_1
_geom_bond_atom_site_label_2
_geom_bond_distance
_geom_bond_site_symmetry_2
_ccdc_geom_bond_type
H0 C5 0.930 . S
H1 C8 0.930 . S
H2 C10 0.930 . S
H3 C4 1.016 . S
C4 H3 1.016 . S
C4 N11 1.286 . S
C5 H0 0.930 . S
C5 C6 1.397 . S
C5 C7 1.361 . S
C6 C5 1.397 . S
C6 C10 1.390 . S
C7 C5 1.361 . S
C7 C8 1.393 . S
C7 N11 1.413 . S
C8 H1 0.930 . S
C8 C7 1.393 . S
C8 C9 1.399 . S
C9 C8 1.399 . S
C9 C10 1.381 . S
C10 H2 0.930 . S
C10 C6 1.390 . S
C10 C9 1.381 . S
N11 C4 1.286 . S
N11 C7 1.413 . S
H12 C17 0.930 . S
H13 C20 0.930 . S
H14 C22 0.930 . S
H15 C16 1.016 . S
C16 H15 1.016 . S
C16 N23 1.286 . S
C17 H12 0.930 . S
C17 C18 1.397 . S
C17 C19 1.361 . S
C18 C17 1.397 . S
C18 C22 1.390 . S
C19 C17 1.361 . S
C19 C20 1.393 . S
C19 N23 1.413 . S
C20 H13 0.930 . S
C20 C19 1.393 . S
C20 C21 1.399 . S
C21 C20 1.399 . S
C21 C22 1.381 . S
C22 H14 0.930 . S
C22 C18 1.390 . S
C22 C21 1.381 . S
N23 C16 1.286 . S
N23 C19 1.413 . S
H24 C29 0.930 . S
H25 C32 0.930 . S
H26 C34 0.930 . S
H27 C28 1.016 . S
C28 H27 1.016 . S
C28 N35 1.286 . S
C29 H24 0.930 . S
C29 C30 1.397 . S
C29 C31 1.361 . S
C30 C29 1.397 . S
C30 C34 1.390 . S
C31 C29 1.361 . S
C31 C32 1.393 . S
C31 N35 1.413 . S
C32 H25 0.930 . S
C32 C31 1.393 . S
C32 C33 1.399 . S
C33 C32 1.399 . S
C33 C34 1.381 . S
C34 H26 0.930 . S
C34 C30 1.390 . S
C34 C33 1.381 . S
N35 C28 1.286 . S
N35 C31 1.413 . S
H36 C41 0.930 . S
H37 C44 0.930 . S
H38 C46 0.930 . S
H39 C40 1.016 . S
C40 H39 1.016 . S
C40 N47 1.286 . S
C41 H36 0.930 . S
C41 C42 1.397 . S
C41 C43 1.361 . S
C42 C41 1.397 . S
C42 C46 1.390 . S
C43 C41 1.361 . S
C43 C44 1.393 . S
C43 N47 1.413 . S
C44 H37 0.930 . S
C44 C43 1.393 . S
C44 C45 1.399 . S
C45 C44 1.399 . S
C45 C46 1.381 . S
C46 H38 0.930 . S
C46 C42 1.390 . S
C46 C45 1.381 . S
N47 C40 1.286 . S
N47 C43 1.413 . S
H48 C53 0.930 . S
H49 C56 0.930 . S
H50 C58 0.930 . S
H51 C52 1.016 . S
C52 H51 1.016 . S
C52 N59 1.286 . S
C53 H48 0.930 . S
C53 C54 1.397 . S
C53 C55 1.361 1_556 S
C54 C53 1.397 . S
C54 C58 1.390 1_556 S
C55 C53 1.361 1_554 S
C55 C56 1.393 . S
C55 N59 1.413 . S
C56 H49 0.930 . S
C56 C55 1.393 . S
C56 C57 1.399 . S
C57 C56 1.399 . S
C57 C58 1.381 . S
C58 H50 0.930 . S
C58 C54 1.390 1_554 S
C58 C57 1.381 . S
N59 C52 1.286 . S
N59 C55 1.413 . S
H60 C65 0.930 . S
H61 C68 0.930 . S
H62 C70 0.930 . S
H63 C64 1.016 . S
C64 H63 1.016 . S
C64 N71 1.286 . S
C65 H60 0.930 . S
C65 C66 1.397 . S
C65 C67 1.361 1_556 S
C66 C65 1.397 . S
C66 C70 1.390 1_556 S
C67 C65 1.361 1_554 S
C67 C68 1.393 . S
C67 N71 1.413 . S
C68 H61 0.930 . S
C68 C67 1.393 . S
C68 C69 1.399 . S
C69 C68 1.399 . S
C69 C70 1.381 . S
C70 H62 0.930 . S
C70 C66 1.390 1_554 S
C70 C69 1.381 . S
N71 C64 1.286 . S
N71 C67 1.413 . S
H72 C77 0.930 . S
H73 C80 0.930 . S
H74 C82 0.930 . S
H75 C76 1.016 . S
C76 H75 1.016 . S
C76 N83 1.286 . S
C77 H72 0.930 . S
C77 C78 1.397 . S
C77 C79 1.361 1_556 S
C78 C77 1.397 . S
C78 C82 1.390 1_556 S
C79 C77 1.361 1_554 S
C79 C80 1.393 . S
C79 N83 1.413 . S
C80 H73 0.930 . S
C80 C79 1.393 . S
C80 C81 1.399 . S
C81 C80 1.399 . S
C81 C82 1.381 . S
C82 H74 0.930 . S
C82 C78 1.390 1_554 S
C82 C81 1.381 . S
N83 C76 1.286 . S
N83 C79 1.413 . S
H84 C89 0.930 . S
H85 C92 0.930 . S
H86 C94 0.930 . S
H87 C88 1.016 . S
C88 H87 1.016 . S
C88 N95 1.286 . S
C89 H84 0.930 . S
C89 C90 1.397 . S
C89 C91 1.361 1_556 S
C90 C89 1.397 . S
C90 C94 1.390 1_556 S
C91 C89 1.361 1_554 S
C91 C92 1.393 . S
C91 N95 1.413 . S
C92 H85 0.930 . S
C92 C91 1.393 . S
C92 C93 1.399 . S
C93 C92 1.399 . S
C93 C94 1.381 . S
C94 H86 0.930 . S
C94 C90 1.390 1_554 S
C94 C93 1.381 . S
N95 C88 1.286 . S
N95 C91 1.413 . S
C96 C98 1.422 . S
C96 C100 1.415 . S
C96 N102 1.369 . S
C97 C98 1.421 . S
C97 C99 1.417 . S
C97 C109 1.422 . S
C98 C96 1.422 . S
C98 C97 1.421 . S
C98 N108 1.359 . S
C99 C97 1.417 . S
C99 C101 1.329 . S
C99 H118 0.930 . S
C100 C96 1.415 . S
C100 C101 1.437 . S
C100 C104 1.413 . S
C101 C99 1.329 . S
C101 C100 1.437 . S
C101 H123 0.929 . S
N102 C96 1.369 . S
N102 C103 1.338 . S
N102 Gd107 2.622 1_545 S
C103 N102 1.338 . S
C103 C105 1.378 . S
C103 H115 0.929 1_545 S
C104 C100 1.413 . S
C104 C105 1.348 . S
C104 H120 0.931 . S
C105 C103 1.378 . S
C105 C104 1.348 . S
C105 H121 0.930 . S
Gd106 N126 2.622 . S
Gd106 N133 2.570 . S
Gd106 O140 2.353 1_655 S
Gd106 O141 2.468 1_655 S
Gd106 O142 2.427 . S
Gd106 O144 2.388 . S
Gd106 O145 2.386 1_545 S
Gd106 O149 2.307 1_655 S
Gd106 C159 2.805 . S
Gd107 N102 2.622 1_565 S
Gd107 N108 2.570 1_565 S
Gd107 O139 2.386 1_565 S
Gd107 O143 2.307 1_465 S
Gd107 O146 2.353 . S
Gd107 O147 2.468 . S
Gd107 O148 2.427 . S
Gd107 O150 2.388 . S
Gd107 C171 2.805 . S
N108 C98 1.359 . S
N108 Gd107 2.570 1_545 S
N108 C110 1.343 . S
C109 C97 1.422 . S
C109 C111 1.321 . S
C109 H117 0.931 . S
C110 N108 1.343 . S
C110 C111 1.390 . S
C110 H112 0.931 1_455 S
C111 C109 1.321 . S
C111 C110 1.390 . S
C111 H113 0.930 1_455 S
H112 C110 0.931 1_655 S
H113 C111 0.930 1_655 S
H114 C137 0.931 . S
H115 C103 0.929 1_565 S
H116 C138 0.935 . S
H117 C109 0.931 . S
H118 C99 0.930 . S
H119 C128 0.929 . S
H120 C104 0.931 . S
H121 C105 0.930 . S
H122 C160 0.930 . S
H123 C101 0.929 . S
H124 C129 0.940 . S
H125 C130 0.930 . S
N126 Gd106 2.622 . S
N126 C127 1.369 . S
N126 C128 1.338 . S
C127 N126 1.369 . S
C127 C131 1.415 1_545 S
C127 C134 1.422 . S
C128 H119 0.929 . S
C128 N126 1.338 . S
C128 C130 1.378 . S
C129 H124 0.940 . S
C129 C130 1.337 1_565 S
C129 C131 1.415 . S
C130 H125 0.930 . S
C130 C128 1.378 . S
C130 C129 1.337 1_545 S
C131 C127 1.415 1_565 S
C131 C129 1.415 . S
C131 C161 1.437 . S
H132 C161 0.929 . S
N133 Gd106 2.570 . S
N133 C134 1.359 . S
N133 C137 1.343 1_655 S
C134 C127 1.422 . S
C134 N133 1.359 . S
C134 C136 1.421 1_545 S
C135 C136 1.422 . S
C135 C138 1.338 1_655 S
C135 H162 0.931 . S
C136 C134 1.421 1_565 S
C136 C135 1.422 . S
C136 C160 1.417 . S
C137 H114 0.931 . S
C137 N133 1.343 1_455 S
C137 C138 1.370 1_545 S
C138 H116 0.935 . S
C138 C135 1.338 1_455 S
C138 C137 1.370 1_565 S
O139 Gd107 2.386 1_545 S
O139 C151 1.265 . S
O140 Gd106 2.353 1_455 S
O140 C151 1.242 . S
O141 Gd106 2.468 1_455 S
O141 C159 1.263 1_455 S
O142 Gd106 2.427 . S
O142 C159 1.252 . S
O143 Gd107 2.307 1_645 S
O143 C152 1.261 . S
O144 Gd106 2.388 . S
O144 C152 1.252 . S
O145 Gd106 2.386 1_565 S
O145 C163 1.265 . S
O146 Gd107 2.353 . S
O146 C163 1.242 1_455 S
O147 Gd107 2.468 . S
O147 C171 1.263 . S
O148 Gd107 2.427 . S
O148 C171 1.252 . S
O149 Gd106 2.307 1_455 S
O149 C164 1.261 . S
O150 Gd107 2.388 . S
O150 C164 1.252 1_565 S
C151 O139 1.265 . S
C151 O140 1.242 . S
C152 O143 1.261 . S
C152 O144 1.252 . S
C153 C156 1.394 . S
C153 C158 1.348 1_655 S
C153 C159 1.500 . S
C154 C157 1.383 . S
C154 C158 1.393 1_655 S
C155 C156 1.396 . S
C155 C157 1.365 . S
C155 H172 0.929 . S
C156 C153 1.394 . S
C156 C155 1.396 . S
C156 H173 0.930 . S
C157 C154 1.383 . S
C157 C155 1.365 . S
C157 H174 0.931 . S
C158 C153 1.348 1_455 S
C158 C154 1.393 1_455 S
C158 H175 0.956 . S
C159 Gd106 2.805 . S
C159 O141 1.263 1_655 S
C159 O142 1.252 . S
C159 C153 1.500 . S
C160 H122 0.930 . S
C160 C136 1.417 . S
C160 C161 1.329 . S
C161 C131 1.437 . S
C161 H132 0.929 . S
C161 C160 1.329 . S
H162 C135 0.931 . S
C163 O145 1.265 . S
C163 O146 1.242 1_655 S
C164 O149 1.261 . S
C164 O150 1.252 1_545 S
C165 C168 1.394 . S
C165 C170 1.370 . S
C165 C171 1.500 . S
C166 C169 1.383 . S
C166 C170 1.395 . S
C167 C168 1.396 . S
C167 C169 1.365 . S
C167 H176 0.929 . S
C168 C165 1.394 . S
C168 C167 1.396 . S
C168 H177 0.930 . S
C169 C166 1.383 . S
C169 C167 1.365 . S
C169 H178 0.931 . S
C170 C165 1.370 . S
C170 C166 1.395 . S
C170 H179 0.883 1_455 S
C171 Gd107 2.805 . S
C171 O147 1.263 . S
C171 O148 1.252 . S
C171 C165 1.500 . S
H172 C155 0.929 . S
H173 C156 0.930 . S
H174 C157 0.931 . S
H175 C158 0.956 . S
H176 C167 0.929 . S
H177 C168 0.930 . S
H178 C169 0.931 . S
H179 C170 0.883 1_655 S
C180 C182 1.422 . S
C180 C184 1.415 . S
C180 N186 1.369 . S
C181 C182 1.421 . S
C181 C183 1.417 . S
C181 C193 1.422 . S
C182 C180 1.422 . S
C182 C181 1.421 . S
C182 N192 1.359 . S
C183 C181 1.417 . S
C183 C185 1.329 . S
C183 H202 0.930 . S
C184 C180 1.415 . S
C184 C185 1.437 . S
C184 C188 1.413 . S
C185 C183 1.329 . S
C185 C184 1.437 . S
C185 H207 0.929 . S
N186 C180 1.369 . S
N186 C187 1.338 . S
N186 Gd191 2.622 . S
C187 N186 1.338 . S
C187 C189 1.378 . S
C187 H199 0.929 . S
C188 C184 1.413 . S
C188 C189 1.348 . S
C188 H204 0.931 . S
C189 C187 1.378 . S
C189 C188 1.348 . S
C189 H205 0.930 . S
Gd190 N210 2.622 . S
Gd190 N217 2.570 . S
Gd190 O224 2.353 1_545 S
Gd190 O225 2.468 . S
Gd190 O226 2.427 . S
Gd190 O228 2.388 . S
Gd190 O229 2.386 . S
Gd190 O233 2.307 . S
Gd190 C243 2.805 . S
Gd191 N186 2.622 . S
Gd191 N192 2.570 . S
Gd191 O223 2.386 . S
Gd191 O227 2.307 1_565 S
Gd191 O230 2.353 1_565 S
Gd191 O231 2.473 . S
Gd191 O232 2.427 . S
Gd191 O234 2.388 . S
Gd191 C255 2.805 . S
N192 C182 1.359 . S
N192 Gd191 2.570 . S
N192 C194 1.343 . S
C193 C181 1.422 . S
C193 C195 1.321 . S
C193 H201 0.931 . S
C194 N192 1.343 . S
C194 C195 1.390 . S
C194 H196 0.931 . S
C195 C193 1.321 . S
C195 C194 1.390 . S
C195 H197 0.930 . S
H196 C194 0.931 . S
H197 C195 0.930 . S
H198 C221 0.931 . S
H199 C187 0.929 . S
H200 C222 0.930 . S
H201 C193 0.931 . S
H202 C183 0.930 . S
H203 C212 0.929 . S
H204 C188 0.931 . S
H205 C189 0.930 . S
H206 C244 0.930 . S
H207 C185 0.929 . S
H208 C213 0.931 . S
H209 C214 0.930 . S
N210 Gd190 2.622 . S
N210 C211 1.369 . S
N210 C212 1.338 . S
C211 N210 1.369 . S
C211 C215 1.415 . S
C211 C218 1.422 . S
C212 H203 0.929 . S
C212 N210 1.338 . S
C212 C214 1.378 . S
C213 H208 0.931 . S
C213 C214 1.348 . S
C213 C215 1.413 . S
C214 H209 0.930 . S
C214 C212 1.378 . S
C214 C213 1.348 . S
C215 C211 1.415 . S
C215 C213 1.413 . S
C215 C245 1.437 . S
H216 C245 0.929 . S
N217 Gd190 2.570 . S
N217 C218 1.359 . S
N217 C221 1.343 . S
C218 C211 1.422 . S
C218 N217 1.359 . S
C218 C220 1.421 . S
C219 C220 1.422 . S
C219 C222 1.321 . S
C219 H246 0.931 . S
C220 C218 1.421 . S
C220 C219 1.422 . S
C220 C244 1.417 . S
C221 H198 0.931 . S
C221 N217 1.343 . S
C221 C222 1.390 . S
C222 H200 0.930 . S
C222 C219 1.321 . S
C222 C221 1.390 . S
O223 Gd191 2.386 . S
O223 C235 1.265 . S
O224 Gd190 2.353 1_565 S
O224 C235 1.242 . S
O225 Gd190 2.468 . S
O225 C243 1.263 . S
O226 Gd190 2.427 . S
O226 C243 1.252 . S
O227 Gd191 2.307 1_545 S
O227 C236 1.261 . S
O228 Gd190 2.388 . S
O228 C236 1.252 . S
O229 Gd190 2.386 . S
O229 C247 1.265 . S
O230 Gd191 2.353 1_545 S
O230 C247 1.242 . S
O231 Gd191 2.473 . S
O231 C255 1.267 . S
O232 Gd191 2.427 . S
O232 C255 1.252 . S
O233 Gd190 2.307 . S
O233 C248 1.261 . S
O234 Gd191 2.388 . S
O234 C248 1.252 1_565 S
C235 O223 1.265 . S
C235 O224 1.242 . S
C236 O227 1.261 . S
C236 O228 1.252 . S
C237 C240 1.394 . S
C237 C242 1.370 . S
C237 C243 1.500 . S
C238 C241 1.383 . S
C238 C242 1.395 . S
C239 C240 1.396 . S
C239 C241 1.365 . S
C239 H256 0.929 1_556 S
C240 C237 1.394 . S
C240 C239 1.396 . S
C240 H257 0.930 . S
C241 C238 1.383 . S
C241 C239 1.365 . S
C241 H258 0.931 . S
C242 C237 1.370 . S
C242 C238 1.395 . S
C242 H259 0.930 . S
C243 Gd190 2.805 . S
C243 O225 1.263 . S
C243 O226 1.252 . S
C243 C237 1.500 . S
C244 H206 0.930 . S
C244 C220 1.417 . S
C244 C245 1.329 . S
C245 C215 1.437 . S
C245 H216 0.929 . S
C245 C244 1.329 . S
H246 C219 0.931 . S
C247 O229 1.265 . S
C247 O230 1.242 . S
C248 O233 1.261 . S
C248 O234 1.252 1_545 S
C249 C252 1.396 . S
C249 C254 1.367 1_565 S
C249 C255 1.501 . S
C250 C253 1.383 . S
C250 C254 1.395 . S
C251 C252 1.396 . S
C251 C253 1.365 1_565 S
C251 H260 0.929 . S
C252 C249 1.396 . S
C252 C251 1.396 . S
C252 H261 0.930 . S
C253 C250 1.383 . S
C253 C251 1.365 1_545 S
C253 H262 0.931 . S
C254 C249 1.367 1_545 S
C254 C250 1.395 . S
C254 H263 0.930 . S
C255 Gd191 2.805 . S
C255 O231 1.267 . S
C255 O232 1.252 . S
C255 C249 1.501 . S
H256 C239 0.929 1_554 S
H257 C240 0.930 . S
H258 C241 0.931 . S
H259 C242 0.930 . S
H260 C251 0.929 . S
H261 C252 0.930 . S
H262 C253 0.931 . S
H263 C254 0.930 . S
C264 C266 1.422 . S
C264 C268 1.415 . S
C264 N270 1.369 . S
C265 C266 1.421 . S
C265 C267 1.417 . S
C265 C277 1.422 . S
C266 C264 1.422 . S
C266 C265 1.421 . S
C266 N276 1.359 . S
C267 C265 1.417 . S
C267 C269 1.329 . S
C267 H286 0.930 . S
C268 C264 1.415 . S
C268 C269 1.437 . S
C268 C272 1.413 . S
C269 C267 1.329 . S
C269 C268 1.437 . S
C269 H291 0.929 . S
N270 C264 1.369 . S
N270 C271 1.338 . S
N270 Gd275 2.622 . S
C271 N270 1.338 . S
C271 C273 1.378 . S
C271 H283 0.929 . S
C272 C268 1.413 . S
C272 C273 1.348 . S
C272 H288 0.931 . S
C273 C271 1.378 . S
C273 C272 1.348 . S
C273 H289 0.930 . S
Gd274 N294 2.622 . S
Gd274 N301 2.570 . S
Gd274 O308 2.353 . S
Gd274 O309 2.468 . S
Gd274 O310 2.427 . S
Gd274 O312 2.388 . S
Gd274 O313 2.386 . S
Gd274 O317 2.307 . S
Gd274 C327 2.805 . S
Gd275 N270 2.622 . S
Gd275 N276 2.570 . S
Gd275 O307 2.386 . S
Gd275 O311 2.307 . S
Gd275 O314 2.353 . S
Gd275 O315 2.468 . S
Gd275 O316 2.427 . S
Gd275 O318 2.388 . S
Gd275 C339 2.805 . S
N276 C266 1.359 . S
N276 Gd275 2.570 . S
N276 C278 1.343 . S
C277 C265 1.422 . S
C277 C279 1.321 . S
C277 H285 0.931 . S
C278 N276 1.343 . S
C278 C279 1.390 . S
C278 H280 0.931 . S
C279 C277 1.321 . S
C279 C278 1.390 . S
C279 H281 0.930 . S
H280 C278 0.931 . S
H281 C279 0.930 . S
H282 C305 0.931 . S
H283 C271 0.929 . S
H284 C306 0.930 . S
H285 C277 0.931 . S
H286 C267 0.930 . S
H287 C296 0.929 . S
H288 C272 0.931 . S
H289 C273 0.930 . S
H290 C328 0.930 . S
H291 C269 0.929 . S
H292 C297 0.931 . S
H293 C298 0.930 . S
N294 Gd274 2.622 . S
N294 C295 1.369 . S
N294 C296 1.338 . S
C295 N294 1.369 . S
C295 C299 1.415 . S
C295 C302 1.422 . S
C296 H287 0.929 . S
C296 N294 1.338 . S
C296 C298 1.378 . S
C297 H292 0.931 . S
C297 C298 1.348 . S
C297 C299 1.413 . S
C298 H293 0.930 . S
C298 C296 1.378 . S
C298 C297 1.348 . S
C299 C295 1.415 . S
C299 C297 1.413 . S
C299 C329 1.437 . S
H300 C329 0.929 . S
N301 Gd274 2.570 . S
N301 C302 1.359 . S
N301 C305 1.343 . S
C302 C295 1.422 . S
C302 N301 1.359 . S
C302 C304 1.421 . S
C303 C304 1.422 . S
C303 C306 1.321 . S
C303 H330 0.931 . S
C304 C302 1.421 . S
C304 C303 1.422 . S
C304 C328 1.417 . S
C305 H282 0.931 . S
C305 N301 1.343 . S
C305 C306 1.390 . S
C306 H284 0.930 . S
C306 C303 1.321 . S
C306 C305 1.390 . S
O307 Gd275 2.386 . S
O307 C319 1.265 . S
O308 Gd274 2.353 . S
O308 C319 1.242 . S
O309 Gd274 2.468 . S
O309 C327 1.263 . S
O310 Gd274 2.427 . S
O310 C327 1.252 . S
O311 Gd275 2.307 . S
O311 C320 1.261 . S
O312 Gd274 2.388 . S
O312 C320 1.252 . S
O313 Gd274 2.386 . S
O313 C331 1.265 . S
O314 Gd275 2.353 . S
O314 C331 1.242 . S
O315 Gd275 2.468 . S
O315 C339 1.263 . S
O316 Gd275 2.427 . S
O316 C339 1.252 . S
O317 Gd274 2.307 . S
O317 C332 1.261 . S
O318 Gd275 2.388 . S
O318 C332 1.252 . S
C319 O307 1.265 . S
C319 O308 1.242 . S
C320 O311 1.261 . S
C320 O312 1.252 . S
C321 C324 1.394 . S
C321 C326 1.370 . S
C321 C327 1.500 . S
C322 C325 1.383 . S
C322 C326 1.395 . S
C323 C324 1.396 . S
C323 C325 1.365 . S
C323 H340 0.929 . S
C324 C321 1.394 . S
C324 C323 1.396 . S
C324 H341 0.930 . S
C325 C322 1.383 . S
C325 C323 1.365 . S
C325 H342 0.931 . S
C326 C321 1.370 . S
C326 C322 1.395 . S
C326 H343 0.930 . S
C327 Gd274 2.805 . S
C327 O309 1.263 . S
C327 O310 1.252 . S
C327 C321 1.500 . S
C328 H290 0.930 . S
C328 C304 1.417 . S
C328 C329 1.329 . S
C329 C299 1.437 . S
C329 H300 0.929 . S
C329 C328 1.329 . S
H330 C303 0.931 . S
C331 O313 1.265 . S
C331 O314 1.242 . S
C332 O317 1.261 . S
C332 O318 1.252 . S
C333 C336 1.394 . S
C333 C338 1.370 . S
C333 C339 1.500 . S
C334 C337 1.383 . S
C334 C338 1.395 . S
C335 C336 1.396 . S
C335 C337 1.365 . S
C335 H344 0.929 . S
C336 C333 1.394 . S
C336 C335 1.396 . S
C336 H345 0.930 . S
C337 C334 1.383 . S
C337 C335 1.365 . S
C337 H346 0.931 . S
C338 C333 1.370 . S
C338 C334 1.395 . S
C338 H347 0.930 . S
C339 Gd275 2.805 . S
C339 O315 1.263 . S
C339 O316 1.252 . S
C339 C333 1.500 . S
H340 C323 0.929 . S
H341 C324 0.930 . S
H342 C325 0.931 . S
H343 C326 0.930 . S
H344 C335 0.929 . S
H345 C336 0.930 . S
H346 C337 0.931 . S
H347 C338 0.930 . S
C348 C350 1.422 . S
C348 C352 1.415 . S
C348 N354 1.353 1_455 S
C349 C350 1.421 . S
C349 C351 1.417 . S
C349 C361 1.422 . S
C350 C348 1.422 . S
C350 C349 1.421 . S
C350 N360 1.359 . S
C351 C349 1.417 . S
C351 C353 1.329 . S
C351 H370 0.930 . S
C352 C348 1.415 . S
C352 C353 1.437 . S
C352 C356 1.413 . S
C353 C351 1.329 . S
C353 C352 1.437 . S
C353 H375 0.929 . S
N354 C348 1.353 1_655 S
N354 C355 1.342 . S
N354 Gd359 2.631 . S
C355 N354 1.342 . S
C355 C357 1.378 1_655 S
C355 H367 0.929 . S
C356 C352 1.413 . S
C356 C357 1.348 . S
C356 H372 0.931 . S
C357 C355 1.378 1_455 S
C357 C356 1.348 . S
C357 H373 0.930 . S
Gd358 N378 2.622 . S
Gd358 N385 2.570 . S
Gd358 O392 2.353 . S
Gd358 O393 2.468 . S
Gd358 O394 2.427 . S
Gd358 O396 2.388 . S
Gd358 O397 2.386 1_455 S
Gd358 O401 2.307 . S
Gd358 C411 2.805 . S
Gd359 N354 2.631 . S
Gd359 N360 2.570 1_655 S
Gd359 O391 2.386 1_655 S
Gd359 O395 2.294 1_655 S
Gd359 O398 2.353 . S
Gd359 O399 2.468 . S
Gd359 O400 2.427 . S
Gd359 O402 2.388 . S
Gd359 C423 2.805 . S
N360 C350 1.359 . S
N360 Gd359 2.570 1_455 S
N360 C362 1.343 . S
C361 C349 1.422 . S
C361 C363 1.321 . S
C361 H369 0.931 . S
C362 N360 1.343 . S
C362 C363 1.390 . S
C362 H364 0.939 . S
C363 C361 1.321 . S
C363 C362 1.390 . S
C363 H365 0.930 . S
H364 C362 0.939 . S
H365 C363 0.930 . S
H366 C389 0.931 . S
H367 C355 0.929 . S
H368 C390 0.930 . S
H369 C361 0.931 . S
H370 C351 0.930 . S
H371 C380 0.929 . S
H372 C356 0.931 . S
H373 C357 0.930 . S
H374 C412 0.930 . S
H375 C353 0.929 . S
H376 C381 0.931 . S
H377 C382 0.930 . S
N378 Gd358 2.622 . S
N378 C379 1.369 . S
N378 C380 1.338 . S
C379 N378 1.369 . S
C379 C383 1.415 1_455 S
C379 C386 1.422 . S
C380 H371 0.929 . S
C380 N378 1.338 . S
C380 C382 1.378 . S
C381 H376 0.931 . S
C381 C382 1.348 1_655 S
C381 C383 1.413 . S
C382 H377 0.930 . S
C382 C380 1.378 . S
C382 C381 1.348 1_455 S
C383 C379 1.415 1_655 S
C383 C381 1.413 . S
C383 C413 1.437 . S
H384 C413 0.929 . S
N385 Gd358 2.570 . S
N385 C386 1.359 . S
N385 C389 1.343 . S
C386 C379 1.422 . S
C386 N385 1.359 . S
C386 C388 1.421 1_455 S
C387 C388 1.422 . S
C387 C390 1.321 . S
C387 H414 0.931 . S
C388 C386 1.421 1_655 S
C388 C387 1.422 . S
C388 C412 1.417 . S
C389 H366 0.931 . S
C389 N385 1.343 . S
C389 C390 1.390 1_455 S
C390 H368 0.930 . S
C390 C387 1.321 . S
C390 C389 1.390 1_655 S
O391 Gd359 2.386 1_455 S
O391 C403 1.265 . S
O392 Gd358 2.353 . S
O392 C403 1.242 . S
O393 Gd358 2.468 . S
O393 C411 1.263 . S
O394 Gd358 2.427 . S
O394 C411 1.252 . S
O395 Gd359 2.294 1_455 S
O395 C404 1.273 . S
O396 Gd358 2.388 . S
O396 C404 1.252 . S
O397 Gd358 2.386 1_655 S
O397 C415 1.265 . S
O398 Gd359 2.353 . S
O398 C415 1.242 . S
O399 Gd359 2.468 . S
O399 C423 1.263 . S
O400 Gd359 2.427 . S
O400 C423 1.252 . S
O401 Gd358 2.307 . S
O401 C416 1.261 . S
O402 Gd359 2.388 . S
O402 C416 1.252 1_655 S
C403 O391 1.265 . S
C403 O392 1.242 . S
C404 O395 1.273 . S
C404 O396 1.252 . S
C405 C408 1.394 . S
C405 C410 1.370 . S
C405 C411 1.500 . S
C406 C409 1.383 . S
C406 C410 1.395 . S
C407 C408 1.396 . S
C407 C409 1.365 . S
C407 H424 0.929 . S
C408 C405 1.394 . S
C408 C407 1.396 . S
C408 H425 0.930 . S
C409 C406 1.383 . S
C409 C407 1.365 . S
C409 H426 0.931 . S
C410 C405 1.370 . S
C410 C406 1.395 . S
C410 H427 0.930 . S
C411 Gd358 2.805 . S
C411 O393 1.263 . S
C411 O394 1.252 . S
C411 C405 1.500 . S
C412 H374 0.930 . S
C412 C388 1.417 . S
C412 C413 1.329 . S
C413 C383 1.437 . S
C413 H384 0.929 . S
C413 C412 1.329 . S
H414 C387 0.931 . S
C415 O397 1.265 . S
C415 O398 1.242 . S
C416 O401 1.261 . S
C416 O402 1.252 1_455 S
C417 C420 1.394 . S
C417 C422 1.370 . S
C417 C423 1.500 . S
C418 C421 1.383 . S
C418 C422 1.395 . S
C419 C420 1.396 . S
C419 C421 1.365 . S
C419 H428 0.929 . S
C420 C417 1.394 . S
C420 C419 1.396 . S
C420 H429 0.930 . S
C421 C418 1.383 . S
C421 C419 1.365 . S
C421 H430 0.931 . S
C422 C417 1.370 . S
C422 C418 1.395 . S
C422 H431 0.930 . S
C423 Gd359 2.805 . S
C423 O399 1.263 . S
C423 O400 1.252 . S
C423 C417 1.500 . S
H424 C407 0.929 . S
H425 C408 0.930 . S
H426 C409 0.931 . S
H427 C410 0.930 . S
H428 C419 0.929 . S
H429 C420 0.930 . S
H430 C421 0.931 . S
H431 C422 0.930 . S
H432 C440 0.929 . S
H433 C442 0.930 . S
H434 C444 0.930 . S
H435 C447 0.929 . S
H436 C450 0.930 . S
H437 C452 0.960 . S
H438 C452 0.960 . S
H439 C452 0.960 . S
C440 H432 0.929 . S
C440 C441 1.377 . S
C440 C442 1.384 . S
C441 C440 1.377 . S
C441 C447 1.390 . S
C442 H433 0.930 . S
C442 C440 1.384 . S
C442 C443 1.372 . S
C443 C442 1.372 . S
C443 C444 1.400 . S
C443 C448 1.490 . S
C444 H434 0.930 . S
C444 C443 1.400 . S
C444 C447 1.386 . S
H445 C461 0.930 1_565 S
H446 C462 0.931 1_565 S
C447 H435 0.929 . S
C447 C441 1.390 . S
C447 C444 1.386 . S
C448 C443 1.490 . S
C448 C450 1.395 . S
C448 C451 1.403 . S
H449 C455 0.930 . S
C450 H436 0.930 . S
C450 C448 1.395 . S
C450 C453 1.403 . S
C451 C448 1.403 . S
C451 C452 1.524 . S
C451 C455 1.400 . S
C452 H437 0.960 . S
C452 H438 0.960 . S
C452 H439 0.960 . S
C452 C451 1.524 . S
C453 C450 1.403 . S
C453 C454 1.392 . S
C453 C457 1.495 . S
C454 C453 1.392 . S
C454 C455 1.385 . S
C454 C456 1.478 . S
C455 H449 0.930 . S
C455 C451 1.400 . S
C455 C454 1.385 . S
C456 C454 1.478 . S
C456 C458 1.381 . S
C456 C462 1.383 . S
C457 C453 1.495 . S
C457 H463 0.959 . S
C457 H464 0.961 . S
C457 H465 0.960 . S
C458 C456 1.381 . S
C458 C459 1.394 . S
C458 H466 0.930 . S
C459 C458 1.394 . S
C459 C460 1.383 . S
C459 H467 0.929 . S
C460 C459 1.383 . S
C460 C461 1.377 . S
C461 H445 0.930 1_545 S
C461 C460 1.377 . S
C461 C462 1.379 . S
C462 H446 0.931 1_545 S
C462 C456 1.383 . S
C462 C461 1.379 . S
H463 C457 0.959 . S
H464 C457 0.961 . S
H465 C457 0.960 . S
H466 C458 0.930 . S
H467 C459 0.929 . S
H468 C476 0.929 . S
H469 C478 0.930 . S
H470 C480 0.930 . S
H471 C483 0.929 . S
H472 C486 0.930 . S
H473 C488 0.960 . S
H474 C488 0.960 . S
H475 C488 0.960 . S
C476 H468 0.929 . S
C476 C477 1.377 . S
C476 C478 1.384 . S
C477 C476 1.377 . S
C477 C483 1.390 . S
C478 H469 0.930 . S
C478 C476 1.384 . S
C478 C479 1.372 . S
C479 C478 1.372 . S
C479 C480 1.400 . S
C479 C484 1.490 . S
C480 H470 0.930 . S
C480 C479 1.400 . S
C480 C483 1.386 . S
H481 C497 0.930 . S
H482 C498 0.931 . S
C483 H471 0.929 . S
C483 C477 1.390 . S
C483 C480 1.386 . S
C484 C479 1.490 . S
C484 C486 1.395 . S
C484 C487 1.403 . S
H485 C491 0.930 . S
C486 H472 0.930 . S
C486 C484 1.395 . S
C486 C489 1.403 . S
C487 C484 1.403 . S
C487 C488 1.524 . S
C487 C491 1.400 . S
C488 H473 0.960 . S
C488 H474 0.960 . S
C488 H475 0.960 . S
C488 C487 1.524 . S
C489 C486 1.403 . S
C489 C490 1.392 . S
C489 C493 1.495 . S
C490 C489 1.392 . S
C490 C491 1.385 . S
C490 C492 1.478 . S
C491 H485 0.930 . S
C491 C487 1.400 . S
C491 C490 1.385 . S
C492 C490 1.478 . S
C492 C494 1.381 . S
C492 C498 1.383 . S
C493 C489 1.495 . S
C493 H499 0.959 . S
C493 H500 0.961 . S
C493 H501 0.960 . S
C494 C492 1.381 . S
C494 C495 1.394 . S
C494 H502 0.930 . S
C495 C494 1.394 . S
C495 C496 1.383 . S
C495 H503 0.929 . S
C496 C495 1.383 . S
C496 C497 1.377 . S
C497 H481 0.930 . S
C497 C496 1.377 . S
C497 C498 1.379 . S
C498 H482 0.931 . S
C498 C492 1.383 . S
C498 C497 1.379 . S
H499 C493 0.959 . S
H500 C493 0.961 . S
H501 C493 0.960 . S
H502 C494 0.930 . S
H503 C495 0.929 . S
H504 C512 0.929 . S
H505 C514 0.930 . S
H506 C516 0.930 . S
H507 C519 0.929 . S
H508 C522 0.930 . S
H509 C524 0.960 . S
H510 C524 0.960 . S
H511 C524 0.960 . S
C512 H504 0.929 . S
C512 C513 1.377 . S
C512 C514 1.384 . S
C513 C512 1.377 . S
C513 C519 1.390 . S
C514 H505 0.930 . S
C514 C512 1.384 . S
C514 C515 1.372 . S
C515 C514 1.372 . S
C515 C516 1.400 . S
C515 C520 1.490 . S
C516 H506 0.930 . S
C516 C515 1.400 . S
C516 C519 1.386 . S
H517 C533 0.930 . S
H518 C534 0.931 . S
C519 H507 0.929 . S
C519 C513 1.390 . S
C519 C516 1.386 . S
C520 C515 1.490 . S
C520 C522 1.395 . S
C520 C523 1.403 . S
H521 C527 0.930 . S
C522 H508 0.930 . S
C522 C520 1.395 . S
C522 C525 1.403 . S
C523 C520 1.403 . S
C523 C524 1.524 . S
C523 C527 1.400 . S
C524 H509 0.960 . S
C524 H510 0.960 . S
C524 H511 0.960 . S
C524 C523 1.524 . S
C525 C522 1.403 . S
C525 C526 1.392 . S
C525 C529 1.495 . S
C526 C525 1.392 . S
C526 C527 1.385 . S
C526 C528 1.478 . S
C527 H521 0.930 . S
C527 C523 1.400 . S
C527 C526 1.385 . S
C528 C526 1.478 . S
C528 C530 1.381 . S
C528 C534 1.383 . S
C529 C525 1.495 . S
C529 H535 0.959 . S
C529 H536 0.961 . S
C529 H537 0.960 . S
C530 C528 1.381 . S
C530 C531 1.394 . S
C530 H538 0.930 . S
C531 C530 1.394 . S
C531 C532 1.383 . S
C531 H539 0.929 . S
C532 C531 1.383 . S
C532 C533 1.377 . S
C533 H517 0.930 . S
C533 C532 1.377 . S
C533 C534 1.379 . S
C534 H518 0.931 . S
C534 C528 1.383 . S
C534 C533 1.379 . S
H535 C529 0.959 . S
H536 C529 0.961 . S
H537 C529 0.960 . S
H538 C530 0.930 . S
H539 C531 0.929 . S
H540 C548 0.929 . S
H541 C550 0.930 . S
H542 C552 0.930 . S
H543 C555 0.929 . S
H544 C558 0.901 1_655 S
H545 C560 0.960 . S
H546 C560 0.960 . S
H547 C560 0.960 . S
C548 H540 0.929 . S
C548 C549 1.377 . S
C548 C550 1.384 . S
C549 C548 1.377 . S
C549 C555 1.390 . S
C550 H541 0.930 . S
C550 C548 1.384 . S
C550 C551 1.372 . S
C551 C550 1.372 . S
C551 C552 1.400 . S
C551 C556 1.490 . S
C552 H542 0.930 . S
C552 C551 1.400 . S
C552 C555 1.386 . S
H553 C569 0.930 . S
H554 C570 0.931 . S
C555 H543 0.929 . S
C555 C549 1.390 . S
C555 C552 1.386 . S
C556 C551 1.490 . S
C556 C558 1.395 . S
C556 C559 1.403 . S
H557 C563 0.930 . S
C558 H544 0.901 1_455 S
C558 C556 1.395 . S
C558 C561 1.403 . S
C559 C556 1.403 . S
C559 C560 1.524 . S
C559 C563 1.400 . S
C560 H545 0.960 . S
C560 H546 0.960 . S
C560 H547 0.960 . S
C560 C559 1.524 . S
C561 C558 1.403 . S
C561 C562 1.392 . S
C561 C565 1.495 1_455 S
C562 C561 1.392 . S
C562 C563 1.385 . S
C562 C564 1.478 . S
C563 H557 0.930 . S
C563 C559 1.400 . S
C563 C562 1.385 . S
C564 C562 1.478 . S
C564 C566 1.418 . S
C564 C570 1.383 . S
C565 C561 1.495 1_655 S
C565 H571 0.959 . S
C565 H572 0.961 . S
C565 H573 0.960 . S
C566 C564 1.418 . S
C566 C567 1.390 1_455 S
C566 H574 0.898 1_455 S
C567 C566 1.390 1_655 S
C567 C568 1.360 1_655 S
C567 H575 0.955 . S
C568 C567 1.360 1_455 S
C568 C569 1.377 . S
C569 H553 0.930 . S
C569 C568 1.377 . S
C569 C570 1.379 . S
C570 H554 0.931 . S
C570 C564 1.383 . S
C570 C569 1.379 . S
H571 C565 0.959 . S
H572 C565 0.961 . S
H573 C565 0.960 . S
H574 C566 0.898 1_655 S
H575 C567 0.955 . S
H576 C584 0.929 . S
H577 C586 0.930 . S
H578 C588 0.930 1_545 S
H579 C591 0.929 1_545 S
H580 C594 0.930 . S
H581 C596 0.960 . S
H582 C596 0.960 . S
H583 C596 0.960 . S
C584 H576 0.929 . S
C584 C585 1.377 . S
C584 C586 1.384 . S
C585 C584 1.377 . S
C585 C591 1.390 . S
C586 H577 0.930 . S
C586 C584 1.384 . S
C586 C587 1.372 . S
C587 C586 1.372 . S
C587 C588 1.400 . S
C587 C592 1.490 1_554 S
C588 H578 0.930 1_565 S
C588 C587 1.400 . S
C588 C591 1.386 . S
H589 C605 0.930 . S
H590 C606 0.931 . S
C591 H579 0.929 1_565 S
C591 C585 1.390 . S
C591 C588 1.386 . S
C592 C587 1.490 1_556 S
C592 C594 1.395 . S
C592 C595 1.403 1_556 S
H593 C599 0.930 . S
C594 H580 0.930 . S
C594 C592 1.395 . S
C594 C597 1.403 . S
C595 C592 1.403 1_554 S
C595 C596 1.524 . S
C595 C599 1.400 1_554 S
C596 H581 0.960 . S
C596 H582 0.960 . S
C596 H583 0.960 . S
C596 C595 1.524 . S
C597 C594 1.403 . S
C597 C598 1.392 . S
C597 C601 1.495 . S
C598 C597 1.392 . S
C598 C599 1.385 . S
C598 C600 1.478 . S
C599 H593 0.930 . S
C599 C595 1.400 1_556 S
C599 C598 1.385 . S
C600 C598 1.478 . S
C600 C602 1.381 . S
C600 C606 1.383 1_565 S
C601 C597 1.495 . S
C601 H607 0.959 . S
C601 H608 0.961 1_565 S
C601 H609 0.960 . S
C602 C600 1.381 . S
C602 C603 1.394 . S
C602 H610 0.930 . S
C603 C602 1.394 . S
C603 C604 1.369 1_565 S
C603 H611 0.929 . S
C604 C603 1.369 1_545 S
C604 C605 1.388 . S
C605 H589 0.930 . S
C605 C604 1.388 . S
C605 C606 1.379 . S
C606 H590 0.931 . S
C606 C600 1.383 1_545 S
C606 C605 1.379 . S
H607 C601 0.959 . S
H608 C601 0.961 1_545 S
H609 C601 0.960 . S
H610 C602 0.930 . S
H611 C603 0.929 . S
H612 C620 0.929 . S
H613 C622 0.930 . S
H614 C624 0.930 1_556 S
H615 C627 0.929 . S
H616 C630 0.930 . S
H617 C632 0.960 . S
H618 C632 0.960 . S
H619 C632 0.960 . S
C620 H612 0.929 . S
C620 C621 1.377 . S
C620 C622 1.384 . S
C621 C620 1.377 . S
C621 C627 1.390 . S
C622 H613 0.930 . S
C622 C620 1.384 . S
C622 C623 1.372 . S
C623 C622 1.372 . S
C623 C624 1.400 . S
C623 C628 1.490 . S
C624 H614 0.930 1_554 S
C624 C623 1.400 . S
C624 C627 1.386 . S
H625 C641 0.930 . S
H626 C642 0.931 . S
C627 H615 0.929 . S
C627 C621 1.390 . S
C627 C624 1.386 . S
C628 C623 1.490 . S
C628 C630 1.395 . S
C628 C631 1.403 1_554 S
H629 C635 0.930 . S
C630 H616 0.930 . S
C630 C628 1.395 . S
C630 C633 1.403 1_554 S
C631 C628 1.403 1_556 S
C631 C632 1.524 . S
C631 C635 1.400 . S
C632 H617 0.960 . S
C632 H618 0.960 . S
C632 H619 0.960 . S
C632 C631 1.524 . S
C633 C630 1.403 1_556 S
C633 C634 1.392 . S
C633 C637 1.495 . S
C634 C633 1.392 . S
C634 C635 1.385 . S
C634 C636 1.478 . S
C635 H629 0.930 . S
C635 C631 1.400 . S
C635 C634 1.385 . S
C636 C634 1.478 . S
C636 C638 1.381 . S
C636 C642 1.383 . S
C637 C633 1.495 . S
C637 H643 0.959 1_556 S
C637 H644 0.961 . S
C637 H645 0.960 . S
C638 C636 1.381 . S
C638 C639 1.394 . S
C638 H646 0.930 . S
C639 C638 1.394 . S
C639 C640 1.383 . S
C639 H647 0.929 . S
C640 C639 1.383 . S
C640 C641 1.377 . S
C641 H625 0.930 . S
C641 C640 1.377 . S
C641 C642 1.379 . S
C642 H626 0.931 . S
C642 C636 1.383 . S
C642 C641 1.379 . S
H643 C637 0.959 1_554 S
H644 C637 0.961 . S
H645 C637 0.960 . S
H646 C638 0.930 . S
H647 C639 0.929 . S
H648 C656 0.929 . S
H649 C658 0.930 1_556 S
H650 C660 0.930 . S
H651 C663 0.929 . S
H652 C666 0.930 . S
H653 C668 0.960 . S
H654 C668 0.960 . S
H655 C668 0.960 . S
C656 H648 0.929 . S
C656 C657 1.377 . S
C656 C658 1.384 . S
C657 C656 1.377 . S
C657 C663 1.390 . S
C658 H649 0.930 1_554 S
C658 C656 1.384 . S
C658 C659 1.372 . S
C659 C658 1.372 . S
C659 C660 1.400 . S
C659 C664 1.480 1_554 S
C660 H650 0.930 . S
C660 C659 1.400 . S
C660 C663 1.386 . S
H661 C677 0.930 . S
H662 C678 0.931 . S
C663 H651 0.929 . S
C663 C657 1.390 . S
C663 C660 1.386 . S
C664 C659 1.480 1_556 S
C664 C666 1.406 . S
C664 C667 1.402 1_556 S
H665 C671 0.930 . S
C666 H652 0.930 . S
C666 C664 1.406 . S
C666 C669 1.403 . S
C667 C664 1.402 1_554 S
C667 C668 1.524 . S
C667 C671 1.400 1_554 S
C668 H653 0.960 . S
C668 H654 0.960 . S
C668 H655 0.960 . S
C668 C667 1.524 . S
C669 C666 1.403 . S
C669 C670 1.392 . S
C669 C673 1.495 . S
C670 C669 1.392 . S
C670 C671 1.385 . S
C670 C672 1.478 . S
C671 H665 0.930 . S
C671 C667 1.400 1_556 S
C671 C670 1.385 . S
C672 C670 1.478 . S
C672 C674 1.381 . S
C672 C678 1.383 . S
C673 C669 1.495 . S
C673 H679 0.959 . S
C673 H680 0.961 . S
C673 H681 0.960 . S
C674 C672 1.381 . S
C674 C675 1.394 . S
C674 H682 0.930 . S
C675 C674 1.394 . S
C675 C676 1.383 . S
C675 H683 0.929 . S
C676 C675 1.383 . S
C676 C677 1.377 . S
C677 H661 0.930 . S
C677 C676 1.377 . S
C677 C678 1.379 . S
C678 H662 0.931 . S
C678 C672 1.383 . S
C678 C677 1.379 . S
H679 C673 0.959 . S
H680 C673 0.961 . S
H681 C673 0.960 . S
H682 C674 0.930 . S
H683 C675 0.929 . S
H684 C692 0.929 1_455 S
H685 C694 0.930 1_455 S
H686 C696 0.930 . S
H687 C699 0.929 . S
H688 C702 0.930 1_455 S
H689 C704 0.960 . S
H690 C704 0.960 . S
H691 C704 0.960 . S
C692 H684 0.929 1_655 S
C692 C693 1.377 . S
C692 C694 1.384 . S
C693 C692 1.377 . S
C693 C699 1.390 . S
C694 H685 0.930 1_655 S
C694 C692 1.384 . S
C694 C695 1.372 . S
C695 C694 1.372 . S
C695 C696 1.400 . S
C695 C700 1.490 . S
C696 H686 0.930 . S
C696 C695 1.400 . S
C696 C699 1.386 . S
H697 C713 0.930 . S
H698 C714 0.931 . S
C699 H687 0.929 . S
C699 C693 1.390 . S
C699 C696 1.386 . S
C700 C695 1.490 . S
C700 C702 1.395 . S
C700 C703 1.403 1_554 S
H701 C707 0.930 . S
C702 H688 0.930 1_655 S
C702 C700 1.395 . S
C702 C705 1.397 1_654 S
C703 C700 1.403 1_556 S
C703 C704 1.524 . S
C703 C707 1.400 . S
C704 H689 0.960 . S
C704 H690 0.960 . S
C704 H691 0.960 . S
C704 C703 1.524 . S
C705 C702 1.397 1_456 S
C705 C706 1.377 1_455 S
C705 C709 1.517 . S
C706 C705 1.377 1_655 S
C706 C707 1.385 . S
C706 C708 1.478 . S
C707 H701 0.930 . S
C707 C703 1.400 . S
C707 C706 1.385 . S
C708 C706 1.478 . S
C708 C710 1.381 1_655 S
C708 C714 1.383 . S
C709 C705 1.517 . S
C709 H715 0.959 1_556 S
C709 H716 0.961 . S
C709 H717 0.960 . S
C710 C708 1.381 1_455 S
C710 C711 1.394 . S
C710 H718 0.930 . S
C711 C710 1.394 . S
C711 C712 1.383 1_455 S
C711 H719 0.929 . S
C712 C711 1.383 1_655 S
C712 C713 1.377 . S
C713 H697 0.930 . S
C713 C712 1.377 . S
C713 C714 1.379 . S
C714 H698 0.931 . S
C714 C708 1.383 . S
C714 C713 1.379 . S
H715 C709 0.959 1_554 S
H716 C709 0.961 . S
H717 C709 0.960 . S
H718 C710 0.930 . S
H719 C711 0.929 . S
H720 C728 0.929 . S
H721 C730 0.930 . S
H722 C732 0.930 . S
H723 C735 0.929 . S
H724 C738 0.930 . S
H725 C740 0.960 . S
H726 C740 0.960 . S
H727 C740 0.960 . S
C728 H720 0.929 . S
C728 C729 1.377 . S
C728 C730 1.384 . S
C729 C728 1.377 . S
C729 C735 1.390 . S
C730 H721 0.930 . S
C730 C728 1.384 . S
C730 C731 1.372 . S
C731 C730 1.372 . S
C731 C732 1.400 . S
C731 C736 1.490 . S
C732 H722 0.930 . S
C732 C731 1.400 . S
C732 C735 1.386 . S
H733 C749 0.909 1_655 S
H734 C750 0.931 . S
C735 H723 0.929 . S
C735 C729 1.390 . S
C735 C732 1.386 . S
C736 C731 1.490 . S
C736 C738 1.395 . S
C736 C739 1.403 . S
H737 C743 0.930 1_655 S
C738 H724 0.930 . S
C738 C736 1.395 . S
C738 C741 1.403 . S
C739 C736 1.403 . S
C739 C740 1.524 1_455 S
C739 C743 1.400 . S
C740 H725 0.960 . S
C740 H726 0.960 . S
C740 H727 0.960 . S
C740 C739 1.524 1_655 S
C741 C738 1.403 . S
C741 C742 1.392 . S
C741 C745 1.495 . S
C742 C741 1.392 . S
C742 C743 1.385 . S
C742 C744 1.478 . S
C743 H737 0.930 1_455 S
C743 C739 1.400 . S
C743 C742 1.385 . S
C744 C742 1.478 . S
C744 C746 1.381 . S
C744 C750 1.383 . S
C745 C741 1.495 . S
C745 H751 0.959 . S
C745 H752 0.961 . S
C745 H753 0.960 . S
C746 C744 1.381 . S
C746 C747 1.394 . S
C746 H754 0.930 . S
C747 C746 1.394 . S
C747 C748 1.383 . S
C747 H755 0.929 . S
C748 C747 1.383 . S
C748 C749 1.377 . S
C749 H733 0.909 1_455 S
C749 C748 1.377 . S
C749 C750 1.379 . S
C750 H734 0.931 . S
C750 C744 1.383 . S
C750 C749 1.379 . S
H751 C745 0.959 . S
H752 C745 0.961 . S
H753 C745 0.960 . S
H754 C746 0.930 . S
H755 C747 0.929 . S
H756 C764 0.929 . S
H757 C766 0.930 . S
H758 C768 0.930 . S
H759 C771 0.929 . S
H760 C774 0.930 . S
H761 C776 0.960 . S
H762 C776 0.960 . S
H763 C776 0.960 . S
C764 H756 0.929 . S
C764 C765 1.377 . S
C764 C766 1.384 . S
C765 C764 1.377 . S
C765 C771 1.390 . S
C766 H757 0.930 . S
C766 C764 1.384 . S
C766 C767 1.372 . S
C767 C766 1.372 . S
C767 C768 1.400 . S
C767 C772 1.490 . S
C768 H758 0.930 . S
C768 C767 1.400 . S
C768 C771 1.386 . S
H769 C785 0.930 . S
H770 C786 0.931 . S
C771 H759 0.929 . S
C771 C765 1.390 . S
C771 C768 1.386 . S
C772 C767 1.490 . S
C772 C774 1.395 . S
C772 C775 1.403 . S
H773 C779 0.930 . S
C774 H760 0.930 . S
C774 C772 1.395 . S
C774 C777 1.403 . S
C775 C772 1.403 . S
C775 C776 1.524 . S
C775 C779 1.400 . S
C776 H761 0.960 . S
C776 H762 0.960 . S
C776 H763 0.960 . S
C776 C775 1.524 . S
C777 C774 1.403 . S
C777 C778 1.392 . S
C777 C781 1.495 1_545 S
C778 C777 1.392 . S
C778 C779 1.385 . S
C778 C780 1.478 . S
C779 H773 0.930 . S
C779 C775 1.400 . S
C779 C778 1.385 . S
C780 C778 1.478 . S
C780 C782 1.381 1_545 S
C780 C786 1.383 . S
C781 C777 1.495 1_565 S
C781 H787 0.959 . S
C781 H788 0.961 . S
C781 H789 0.960 . S
C782 C780 1.381 1_565 S
C782 C783 1.394 . S
C782 H790 0.930 . S
C783 C782 1.394 . S
C783 C784 1.383 1_565 S
C783 H791 0.929 . S
C784 C783 1.383 1_545 S
C784 C785 1.377 . S
C785 H769 0.930 . S
C785 C784 1.377 . S
C785 C786 1.379 . S
C786 H770 0.931 . S
C786 C780 1.383 . S
C786 C785 1.379 . S
H787 C781 0.959 . S
H788 C781 0.961 . S
H789 C781 0.960 . S
H790 C782 0.930 . S
H791 C783 0.929 . S
H792 C800 0.929 . S
H793 C802 0.930 . S
H794 C804 0.930 . S
H795 C807 0.929 . S
H796 C810 0.930 . S
H797 C812 0.960 . S
H798 C812 0.960 . S
H799 C812 0.960 . S
C800 H792 0.929 . S
C800 C801 1.377 . S
C800 C802 1.384 . S
C801 C800 1.377 . S
C801 C807 1.390 . S
C802 H793 0.930 . S
C802 C800 1.384 . S
C802 C803 1.372 . S
C803 C802 1.372 . S
C803 C804 1.400 . S
C803 C808 1.490 . S
C804 H794 0.930 . S
C804 C803 1.400 . S
C804 C807 1.386 . S
H805 C821 0.930 . S
H806 C822 0.931 . S
C807 H795 0.929 . S
C807 C801 1.390 . S
C807 C804 1.386 . S
C808 C803 1.490 . S
C808 C810 1.395 . S
C808 C811 1.403 . S
H809 C815 0.930 . S
C810 H796 0.930 . S
C810 C808 1.395 . S
C810 C813 1.403 . S
C811 C808 1.403 . S
C811 C812 1.524 . S
C811 C815 1.400 . S
C812 H797 0.960 . S
C812 H798 0.960 . S
C812 H799 0.960 . S
C812 C811 1.524 . S
C813 C810 1.403 . S
C813 C814 1.392 . S
C813 C817 1.495 . S
C814 C813 1.392 . S
C814 C815 1.385 . S
C814 C816 1.478 . S
C815 H809 0.930 . S
C815 C811 1.400 . S
C815 C814 1.385 . S
C816 C814 1.478 . S
C816 C818 1.381 . S
C816 C822 1.383 . S
C817 C813 1.495 . S
C817 H823 0.959 . S
C817 H824 0.961 . S
C817 H825 0.960 . S
C818 C816 1.381 . S
C818 C819 1.394 . S
C818 H826 0.930 . S
C819 C818 1.394 . S
C819 C820 1.383 . S
C819 H827 0.929 . S
C820 C819 1.383 . S
C820 C821 1.377 . S
C821 H805 0.930 . S
C821 C820 1.377 . S
C821 C822 1.379 . S
C822 H806 0.931 . S
C822 C816 1.383 . S
C822 C821 1.379 . S
H823 C817 0.959 . S
H824 C817 0.961 . S
H825 C817 0.960 . S
H826 C818 0.930 . S
H827 C819 0.929 . S
H828 C836 0.929 . S
H829 C838 0.930 . S
H830 C840 0.930 . S
H831 C843 0.929 . S
H832 C846 0.930 . S
H833 C848 0.960 . S
H834 C848 0.960 . S
H835 C848 0.960 . S
C836 H828 0.929 . S
C836 C837 1.377 . S
C836 C838 1.384 . S
C837 C836 1.377 . S
C837 C843 1.390 . S
C838 H829 0.930 . S
C838 C836 1.384 . S
C838 C839 1.372 . S
C839 C838 1.372 . S
C839 C840 1.400 . S
C839 C844 1.490 . S
C840 H830 0.930 . S
C840 C839 1.400 . S
C840 C843 1.386 . S
H841 C857 0.930 . S
H842 C858 0.931 . S
C843 H831 0.929 . S
C843 C837 1.390 . S
C843 C840 1.386 . S
C844 C839 1.490 . S
C844 C846 1.395 . S
C844 C847 1.403 . S
H845 C851 0.930 . S
C846 H832 0.930 . S
C846 C844 1.395 . S
C846 C849 1.403 . S
C847 C844 1.403 . S
C847 C848 1.524 . S
C847 C851 1.400 . S
C848 H833 0.960 . S
C848 H834 0.960 . S
C848 H835 0.960 . S
C848 C847 1.524 . S
C849 C846 1.403 . S
C849 C850 1.392 . S
C849 C853 1.495 . S
C850 C849 1.392 . S
C850 C851 1.385 . S
C850 C852 1.478 . S
C851 H845 0.930 . S
C851 C847 1.400 . S
C851 C850 1.385 . S
C852 C850 1.478 . S
C852 C854 1.381 . S
C852 C858 1.383 . S
C853 C849 1.495 . S
C853 H859 0.959 . S
C853 H860 0.961 . S
C853 H861 0.960 . S
C854 C852 1.381 . S
C854 C855 1.394 . S
C854 H862 0.930 . S
C855 C854 1.394 . S
C855 C856 1.383 . S
C855 H863 0.929 . S
C856 C855 1.383 . S
C856 C857 1.377 . S
C857 H841 0.930 . S
C857 C856 1.377 . S
C857 C858 1.379 . S
C858 H842 0.931 . S
C858 C852 1.383 . S
C858 C857 1.379 . S
H859 C853 0.959 . S
H860 C853 0.961 . S
H861 C853 0.960 . S
H862 C854 0.930 . S
H863 C855 0.929 . S
H864 C872 0.929 . S
H865 C874 0.930 . S
H866 C876 0.930 . S
H867 C879 0.929 . S
H868 C882 0.911 1_455 S
H869 C884 0.960 . S
H870 C884 0.960 1_554 S
H871 C884 0.960 . S
C872 H864 0.929 . S
C872 C873 1.377 . S
C872 C874 1.384 . S
C873 C872 1.377 . S
C873 C879 1.390 . S
C874 H865 0.930 . S
C874 C872 1.384 . S
C874 C875 1.372 . S
C875 C874 1.372 . S
C875 C876 1.400 . S
C875 C880 1.490 . S
C876 H866 0.930 . S
C876 C875 1.400 . S
C876 C879 1.386 . S
H877 C893 0.930 . S
H878 C894 0.931 . S
C879 H867 0.929 . S
C879 C873 1.390 . S
C879 C876 1.386 . S
C880 C875 1.490 . S
C880 C882 1.426 . S
C880 C883 1.403 . S
H881 C887 0.930 . S
C882 H868 0.911 1_655 S
C882 C880 1.426 . S
C882 C885 1.393 1_655 S
C883 C880 1.403 . S
C883 C884 1.524 1_554 S
C883 C887 1.400 1_554 S
C884 H869 0.960 . S
C884 H870 0.960 1_556 S
C884 H871 0.960 . S
C884 C883 1.524 1_556 S
C885 C882 1.393 1_455 S
C885 C886 1.392 1_454 S
C885 C889 1.495 . S
C886 C885 1.392 1_656 S
C886 C887 1.385 . S
C886 C888 1.476 1_655 S
C887 H881 0.930 . S
C887 C883 1.400 1_556 S
C887 C886 1.385 . S
C888 C886 1.476 1_455 S
C888 C890 1.379 1_455 S
C888 C894 1.386 . S
C889 C885 1.495 . S
C889 H895 0.959 . S
C889 H896 0.961 . S
C889 H897 0.960 . S
C890 C888 1.379 1_655 S
C890 C891 1.394 . S
C890 H898 0.930 1_556 S
C891 C890 1.394 . S
C891 C892 1.383 1_655 S
C891 H899 0.929 . S
C892 C891 1.383 1_455 S
C892 C893 1.377 . S
C893 H877 0.930 . S
C893 C892 1.377 . S
C893 C894 1.379 . S
C894 H878 0.931 . S
C894 C888 1.386 . S
C894 C893 1.379 . S
H895 C889 0.959 . S
H896 C889 0.961 . S
H897 C889 0.960 . S
H898 C890 0.930 1_554 S
H899 C891 0.929 . S
H900 C908 0.929 . S
H901 C910 0.966 . S
H902 C912 0.930 . S
H903 C915 0.929 . S
H904 C918 0.930 . S
H905 C920 0.960 . S
H906 C920 0.960 . S
H907 C920 0.960 1_565 S
C908 H900 0.929 . S
C908 C909 1.377 . S
C908 C910 1.384 . S
C909 C908 1.377 . S
C909 C915 1.390 . S
C910 H901 0.966 . S
C910 C908 1.384 . S
C910 C911 1.372 . S
C911 C910 1.372 . S
C911 C912 1.400 . S
C911 C916 1.490 . S
C912 H902 0.930 . S
C912 C911 1.400 . S
C912 C915 1.386 . S
H913 C929 0.930 . S
H914 C930 0.931 . S
C915 H903 0.929 . S
C915 C909 1.390 . S
C915 C912 1.386 . S
C916 C911 1.490 . S
C916 C918 1.395 1_554 S
C916 C919 1.403 . S
H917 C923 0.930 1_545 S
C918 H904 0.930 . S
C918 C916 1.395 1_556 S
C918 C921 1.403 . S
C919 C916 1.403 . S
C919 C920 1.524 1_565 S
C919 C923 1.400 . S
C920 H905 0.960 . S
C920 H906 0.960 . S
C920 H907 0.960 1_545 S
C920 C919 1.524 1_545 S
C921 C918 1.403 . S
C921 C922 1.392 . S
C921 C925 1.495 . S
C922 C921 1.392 . S
C922 C923 1.385 1_556 S
C922 C924 1.478 . S
C923 H917 0.930 1_565 S
C923 C919 1.400 . S
C923 C922 1.385 1_554 S
C924 C922 1.478 . S
C924 C926 1.381 1_565 S
C924 C930 1.383 . S
C925 C921 1.495 . S
C925 H931 0.959 . S
C925 H932 0.961 . S
C925 H933 0.960 . S
C926 C924 1.381 1_545 S
C926 C927 1.394 . S
C926 H934 0.930 . S
C927 C926 1.394 . S
C927 C928 1.383 . S
C927 H935 0.929 . S
C928 C927 1.383 . S
C928 C929 1.377 1_545 S
C929 H913 0.930 . S
C929 C928 1.377 1_565 S
C929 C930 1.379 . S
C930 H914 0.931 . S
C930 C924 1.383 . S
C930 C929 1.379 . S
H931 C925 0.959 . S
H932 C925 0.961 . S
H933 C925 0.960 . S
H934 C926 0.930 . S
H935 C927 0.929 . S
H936 C944 0.929 . S
H937 C946 0.930 . S
H938 C948 0.930 . S
H939 C951 0.929 . S
H940 C954 0.930 . S
H941 C956 0.960 . S
H942 C956 0.960 . S
H943 C956 0.960 . S
C944 H936 0.929 . S
C944 C945 1.377 . S
C944 C946 1.384 . S
C945 C944 1.377 . S
C945 C951 1.390 . S
C946 H937 0.930 . S
C946 C944 1.384 . S
C946 C947 1.372 . S
C947 C946 1.372 . S
C947 C948 1.400 . S
C947 C952 1.490 . S
C948 H938 0.930 . S
C948 C947 1.400 . S
C948 C951 1.386 . S
H949 C965 0.930 . S
H950 C966 0.931 . S
C951 H939 0.929 . S
C951 C945 1.390 . S
C951 C948 1.386 . S
C952 C947 1.490 . S
C952 C954 1.395 1_554 S
C952 C955 1.403 . S
H953 C959 0.930 . S
C954 H940 0.930 . S
C954 C952 1.395 1_556 S
C954 C957 1.403 . S
C955 C952 1.403 . S
C955 C956 1.524 . S
C955 C959 1.400 . S
C956 H941 0.960 . S
C956 H942 0.960 . S
C956 H943 0.960 . S
C956 C955 1.524 . S
C957 C954 1.403 . S
C957 C958 1.392 . S
C957 C961 1.495 . S
C958 C957 1.392 . S
C958 C959 1.385 1_556 S
C958 C960 1.478 . S
C959 H953 0.930 . S
C959 C955 1.400 . S
C959 C958 1.385 1_554 S
C960 C958 1.478 . S
C960 C962 1.381 . S
C960 C966 1.383 . S
C961 C957 1.495 . S
C961 H967 0.959 . S
C961 H968 0.961 . S
C961 H969 0.960 . S
C962 C960 1.381 . S
C962 C963 1.394 . S
C962 H970 0.930 . S
C963 C962 1.394 . S
C963 C964 1.383 . S
C963 H971 0.929 . S
C964 C963 1.383 . S
C964 C965 1.377 . S
C965 H949 0.930 . S
C965 C964 1.377 . S
C965 C966 1.379 . S
C966 H950 0.931 . S
C966 C960 1.383 . S
C966 C965 1.379 . S
H967 C961 0.959 . S
H968 C961 0.961 . S
H969 C961 0.960 . S
H970 C962 0.930 . S
H971 C963 0.929 . S
H972 C980 0.929 . S
H973 C982 0.930 . S
H974 C984 0.930 . S
H975 C987 0.929 . S
H976 C990 0.930 . S
H977 C992 0.960 . S
H978 C992 0.960 . S
H979 C992 0.960 . S
C980 H972 0.929 . S
C980 C981 1.377 . S
C980 C982 1.384 . S
C981 C980 1.377 . S
C981 C987 1.390 . S
C982 H973 0.930 . S
C982 C980 1.384 . S
C982 C983 1.372 . S
C983 C982 1.372 . S
C983 C984 1.400 . S
C983 C988 1.490 . S
C984 H974 0.930 . S
C984 C983 1.400 . S
C984 C987 1.386 . S
H985 C1001 0.930 . S
H986 C1002 0.931 . S
C987 H975 0.929 . S
C987 C981 1.390 . S
C987 C984 1.386 . S
C988 C983 1.490 . S
C988 C990 1.395 . S
C988 C991 1.403 . S
H989 C995 0.930 . S
C990 H976 0.930 . S
C990 C988 1.395 . S
C990 C993 1.403 . S
C991 C988 1.403 . S
C991 C992 1.524 1_554 S
C991 C995 1.400 1_554 S
C992 H977 0.960 . S
C992 H978 0.960 . S
C992 H979 0.960 . S
C992 C991 1.524 1_556 S
C993 C990 1.403 . S
C993 C994 1.392 1_554 S
C993 C997 1.495 . S
C994 C993 1.392 1_556 S
C994 C995 1.385 . S
C994 C996 1.478 . S
C995 H989 0.930 . S
C995 C991 1.400 1_556 S
C995 C994 1.385 . S
C996 C994 1.478 . S
C996 C998 1.381 . S
C996 C1002 1.383 . S
C997 C993 1.495 . S
C997 H1003 0.959 . S
C997 H1004 0.961 . S
C997 H1005 0.960 . S
C998 C996 1.381 . S
C998 C999 1.394 . S
C998 H1006 0.930 . S
C999 C998 1.394 . S
C999 C1000 1.383 . S
C999 H1007 0.929 . S
C1000 C999 1.383 . S
C1000 C1001 1.377 . S
C1001 H985 0.930 . S
C1001 C1000 1.377 . S
C1001 C1002 1.379 . S
C1002 H986 0.931 . S
C1002 C996 1.383 . S
C1002 C1001 1.379 . S
H1003 C997 0.959 . S
H1004 C997 0.961 . S
H1005 C997 0.960 . S
H1006 C998 0.930 . S
H1007 C999 0.929 . S
H1008 C1016 0.929 . S
H1009 C1018 0.930 . S
H1010 C1020 0.930 . S
H1011 C1023 0.929 . S
H1012 C1026 0.930 . S
H1013 C1028 0.960 . S
H1014 C1028 0.960 . S
H1015 C1028 0.960 . S
C1016 H1008 0.929 . S
C1016 C1017 1.377 . S
C1016 C1018 1.384 . S
C1017 C1016 1.377 . S
C1017 C1023 1.390 . S
C1018 H1009 0.930 . S
C1018 C1016 1.384 . S
C1018 C1019 1.372 . S
C1019 C1018 1.372 . S
C1019 C1020 1.400 . S
C1019 C1024 1.490 . S
C1020 H1010 0.930 . S
C1020 C1019 1.400 . S
C1020 C1023 1.386 . S
H1021 C1037 0.930 . S
H1022 C1038 0.931 . S
C1023 H1011 0.929 . S
C1023 C1017 1.390 . S
C1023 C1020 1.386 . S
C1024 C1019 1.490 . S
C1024 C1026 1.395 . S
C1024 C1027 1.403 . S
H1025 C1031 0.930 . S
C1026 H1012 0.930 . S
C1026 C1024 1.395 . S
C1026 C1029 1.403 . S
C1027 C1024 1.403 . S
C1027 C1028 1.524 . S
C1027 C1031 1.400 . S
C1028 H1013 0.960 . S
C1028 H1014 0.960 . S
C1028 H1015 0.960 . S
C1028 C1027 1.524 . S
C1029 C1026 1.403 . S
C1029 C1030 1.392 . S
C1029 C1033 1.495 1_455 S
C1030 C1029 1.392 . S
C1030 C1031 1.385 . S
C1030 C1032 1.478 . S
C1031 H1025 0.930 . S
C1031 C1027 1.400 . S
C1031 C1030 1.385 . S
C1032 C1030 1.478 . S
C1032 C1034 1.381 . S
C1032 C1038 1.383 . S
C1033 C1029 1.495 1_655 S
C1033 H1039 0.959 . S
C1033 H1040 0.961 . S
C1033 H1041 0.960 . S
C1034 C1032 1.381 . S
C1034 C1035 1.394 . S
C1034 H1042 0.930 1_455 S
C1035 C1034 1.394 . S
C1035 C1036 1.383 . S
C1035 H1043 0.929 1_455 S
C1036 C1035 1.383 . S
C1036 C1037 1.377 . S
C1037 H1021 0.930 . S
C1037 C1036 1.377 . S
C1037 C1038 1.379 . S
C1038 H1022 0.931 . S
C1038 C1032 1.383 . S
C1038 C1037 1.379 . S
H1039 C1033 0.959 . S
H1040 C1033 0.961 . S
H1041 C1033 0.960 . S
H1042 C1034 0.930 1_655 S
H1043 C1035 0.929 1_655 S
H1044 C1052 0.929 . S
H1045 C1054 0.930 . S
H1046 C1056 0.930 . S
H1047 C1059 0.929 . S
H1048 C1062 0.930 . S
H1049 C1064 0.960 1_565 S
H1050 C1064 0.960 . S
H1051 C1064 0.960 1_565 S
C1052 H1044 0.929 . S
C1052 C1053 1.377 . S
C1052 C1054 1.384 . S
C1053 C1052 1.377 . S
C1053 C1059 1.390 . S
C1054 H1045 0.930 . S
C1054 C1052 1.384 . S
C1054 C1055 1.372 . S
C1055 C1054 1.372 . S
C1055 C1056 1.400 . S
C1055 C1060 1.490 . S
C1056 H1046 0.930 . S
C1056 C1055 1.400 . S
C1056 C1059 1.386 . S
H1057 C1073 0.930 1_565 S
H1058 C1074 0.972 . S
C1059 H1047 0.929 . S
C1059 C1053 1.390 . S
C1059 C1056 1.386 . S
C1060 C1055 1.490 . S
C1060 C1062 1.395 . S
C1060 C1063 1.403 . S
H1061 C1067 0.930 . S
C1062 H1048 0.930 . S
C1062 C1060 1.395 . S
C1062 C1065 1.403 . S
C1063 C1060 1.403 . S
C1063 C1064 1.524 . S
C1063 C1067 1.400 . S
C1064 H1049 0.960 1_545 S
C1064 H1050 0.960 . S
C1064 H1051 0.960 1_545 S
C1064 C1063 1.524 . S
C1065 C1062 1.403 . S
C1065 C1066 1.392 . S
C1065 C1069 1.495 . S
C1066 C1065 1.392 . S
C1066 C1067 1.385 . S
C1066 C1068 1.478 . S
C1067 H1061 0.930 . S
C1067 C1063 1.400 . S
C1067 C1066 1.385 . S
C1068 C1066 1.478 . S
C1068 C1070 1.381 . S
C1068 C1074 1.383 . S
C1069 C1065 1.495 . S
C1069 H1075 0.959 . S
C1069 H1076 0.961 . S
C1069 H1077 0.960 . S
C1070 C1068 1.381 . S
C1070 C1071 1.394 . S
C1070 H1078 0.930 . S
C1071 C1070 1.394 . S
C1071 C1072 1.383 . S
C1071 H1079 0.929 . S
C1072 C1071 1.383 . S
C1072 C1073 1.377 . S
C1073 H1057 0.930 1_545 S
C1073 C1072 1.377 . S
C1073 C1074 1.379 . S
C1074 H1058 0.972 . S
C1074 C1068 1.383 . S
C1074 C1073 1.379 . S
H1075 C1069 0.959 . S
H1076 C1069 0.961 . S
H1077 C1069 0.960 . S
H1078 C1070 0.930 . S
H1079 C1071 0.929 . S
H1080 C1088 0.929 . S
H1081 C1090 0.930 . S
H1082 C1092 0.930 . S
H1083 C1095 0.929 . S
H1084 C1098 0.930 . S
H1085 C1100 0.960 . S
H1086 C1100 0.960 . S
H1087 C1100 0.960 . S
C1088 H1080 0.929 . S
C1088 C1089 1.377 . S
C1088 C1090 1.384 . S
C1089 C1088 1.377 . S
C1089 C1095 1.390 . S
C1090 H1081 0.930 . S
C1090 C1088 1.384 . S
C1090 C1091 1.372 . S
C1091 C1090 1.372 . S
C1091 C1092 1.400 . S
C1091 C1096 1.490 . S
C1092 H1082 0.930 . S
C1092 C1091 1.400 . S
C1092 C1095 1.386 . S
H1093 C1109 0.930 . S
H1094 C1110 0.931 . S
C1095 H1083 0.929 . S
C1095 C1089 1.390 . S
C1095 C1092 1.386 . S
C1096 C1091 1.490 . S
C1096 C1098 1.395 . S
C1096 C1099 1.403 . S
H1097 C1103 0.930 . S
C1098 H1084 0.930 . S
C1098 C1096 1.395 . S
C1098 C1101 1.403 . S
C1099 C1096 1.403 . S
C1099 C1100 1.524 . S
C1099 C1103 1.400 . S
C1100 H1085 0.960 . S
C1100 H1086 0.960 . S
C1100 H1087 0.960 . S
C1100 C1099 1.524 . S
C1101 C1098 1.403 . S
C1101 C1102 1.392 . S
C1101 C1105 1.495 . S
C1102 C1101 1.392 . S
C1102 C1103 1.385 . S
C1102 C1104 1.478 . S
C1103 H1097 0.930 . S
C1103 C1099 1.400 . S
C1103 C1102 1.385 . S
C1104 C1102 1.478 . S
C1104 C1106 1.381 . S
C1104 C1110 1.383 . S
C1105 C1101 1.495 . S
C1105 H1111 0.959 . S
C1105 H1112 0.961 . S
C1105 H1113 0.960 . S
C1106 C1104 1.381 . S
C1106 C1107 1.394 . S
C1106 H1114 0.930 . S
C1107 C1106 1.394 . S
C1107 C1108 1.383 . S
C1107 H1115 0.929 . S
C1108 C1107 1.383 . S
C1108 C1109 1.377 . S
C1109 H1093 0.930 . S
C1109 C1108 1.377 . S
C1109 C1110 1.379 . S
C1110 H1094 0.931 . S
C1110 C1104 1.383 . S
C1110 C1109 1.379 . S
H1111 C1105 0.959 . S
H1112 C1105 0.961 . S
H1113 C1105 0.960 . S
H1114 C1106 0.930 . S
H1115 C1107 0.929 . S
H1116 C1124 0.929 . S
H1117 C1126 0.930 . S
H1118 C1128 0.930 . S
H1119 C1131 0.929 . S
H1120 C1134 0.930 . S
H1121 C1136 0.960 . S
H1122 C1136 0.960 . S
H1123 C1136 0.960 . S
C1124 H1116 0.929 . S
C1124 C1125 1.377 . S
C1124 C1126 1.384 . S
C1125 C1124 1.377 . S
C1125 C1131 1.390 . S
C1126 H1117 0.930 . S
C1126 C1124 1.384 . S
C1126 C1127 1.372 . S
C1127 C1126 1.372 . S
C1127 C1128 1.400 . S
C1127 C1132 1.490 . S
C1128 H1118 0.930 . S
C1128 C1127 1.400 . S
C1128 C1131 1.386 . S
H1129 C1145 0.930 . S
H1130 C1146 0.931 . S
C1131 H1119 0.929 . S
C1131 C1125 1.390 . S
C1131 C1128 1.386 . S
C1132 C1127 1.490 . S
C1132 C1134 1.395 . S
C1132 C1135 1.403 . S
H1133 C1139 0.930 . S
C1134 H1120 0.930 . S
C1134 C1132 1.395 . S
C1134 C1137 1.403 . S
C1135 C1132 1.403 . S
C1135 C1136 1.524 . S
C1135 C1139 1.400 . S
C1136 H1121 0.960 . S
C1136 H1122 0.960 . S
C1136 H1123 0.960 . S
C1136 C1135 1.524 . S
C1137 C1134 1.403 . S
C1137 C1138 1.392 . S
C1137 C1141 1.495 . S
C1138 C1137 1.392 . S
C1138 C1139 1.385 . S
C1138 C1140 1.478 . S
C1139 H1133 0.930 . S
C1139 C1135 1.400 . S
C1139 C1138 1.385 . S
C1140 C1138 1.478 . S
C1140 C1142 1.381 . S
C1140 C1146 1.383 . S
C1141 C1137 1.495 . S
C1141 H1147 0.959 . S
C1141 H1148 0.961 . S
C1141 H1149 0.960 . S
C1142 C1140 1.381 . S
C1142 C1143 1.394 . S
C1142 H1150 0.930 . S
C1143 C1142 1.394 . S
C1143 C1144 1.383 . S
C1143 H1151 0.929 . S
C1144 C1143 1.383 . S
C1144 C1145 1.377 . S
C1145 H1129 0.930 . S
C1145 C1144 1.377 . S
C1145 C1146 1.379 . S
C1146 H1130 0.931 . S
C1146 C1140 1.383 . S
C1146 C1145 1.379 . S
H1147 C1141 0.959 . S
H1148 C1141 0.961 . S
H1149 C1141 0.960 . S
H1150 C1142 0.930 . S
H1151 C1143 0.929 . S
H1152 C1160 0.929 1_455 S
H1153 C1162 0.930 1_455 S
H1154 C1164 0.930 . S
H1155 C1167 0.929 . S
H1156 C1170 0.920 1_455 S
H1157 C1172 0.960 . S
H1158 C1172 0.960 . S
H1159 C1172 0.960 . S
C1160 H1152 0.929 1_655 S
C1160 C1161 1.377 . S
C1160 C1162 1.384 . S
C1161 C1160 1.377 . S
C1161 C1167 1.390 . S
C1162 H1153 0.930 1_655 S
C1162 C1160 1.384 . S
C1162 C1163 1.372 . S
C1163 C1162 1.372 . S
C1163 C1164 1.400 . S
C1163 C1168 1.490 . S
C1164 H1154 0.930 . S
C1164 C1163 1.400 . S
C1164 C1167 1.386 . S
H1165 C1181 0.930 . S
H1166 C1182 0.931 . S
C1167 H1155 0.929 . S
C1167 C1161 1.390 . S
C1167 C1164 1.386 . S
C1168 C1163 1.490 . S
C1168 C1170 1.407 . S
C1168 C1171 1.403 . S
H1169 C1175 0.930 . S
C1170 H1156 0.920 1_655 S
C1170 C1168 1.407 . S
C1170 C1173 1.401 1_655 S
C1171 C1168 1.403 . S
C1171 C1172 1.524 . S
C1171 C1175 1.400 . S
C1172 H1157 0.960 . S
C1172 H1158 0.960 . S
C1172 H1159 0.960 . S
C1172 C1171 1.524 . S
C1173 C1170 1.401 1_455 S
C1173 C1174 1.392 1_455 S
C1173 C1177 1.495 . S
C1174 C1173 1.392 1_655 S
C1174 C1175 1.385 . S
C1174 C1176 1.478 . S
C1175 H1169 0.930 . S
C1175 C1171 1.400 . S
C1175 C1174 1.385 . S
C1176 C1174 1.478 . S
C1176 C1178 1.381 1_655 S
C1176 C1182 1.383 . S
C1177 C1173 1.495 . S
C1177 H1183 0.959 . S
C1177 H1184 0.961 . S
C1177 H1185 0.960 . S
C1178 C1176 1.381 1_455 S
C1178 C1179 1.394 . S
C1178 H1186 0.930 . S
C1179 C1178 1.394 . S
C1179 C1180 1.383 1_455 S
C1179 H1187 0.929 . S
C1180 C1179 1.383 1_655 S
C1180 C1181 1.377 . S
C1181 H1165 0.930 . S
C1181 C1180 1.377 . S
C1181 C1182 1.379 . S
C1182 H1166 0.931 . S
C1182 C1176 1.383 . S
C1182 C1181 1.379 . S
H1183 C1177 0.959 . S
H1184 C1177 0.961 . S
H1185 C1177 0.960 . S
H1186 C1178 0.930 . S
H1187 C1179 0.929 . S
H1188 C1196 0.929 . S
H1189 C1198 0.930 . S
H1190 C1200 0.900 1_545 S
H1191 C1203 0.929 . S
H1192 C1206 0.930 . S
H1193 C1208 0.960 . S
H1194 C1208 0.960 . S
H1195 C1208 0.960 . S
C1196 H1188 0.929 . S
C1196 C1197 1.377 . S
C1196 C1198 1.384 . S
C1197 C1196 1.377 . S
C1197 C1203 1.390 . S
C1198 H1189 0.930 . S
C1198 C1196 1.384 . S
C1198 C1199 1.372 . S
C1199 C1198 1.372 . S
C1199 C1200 1.400 . S
C1199 C1204 1.490 . S
C1200 H1190 0.900 1_565 S
C1200 C1199 1.400 . S
C1200 C1203 1.386 . S
H1201 C1217 0.930 . S
H1202 C1218 0.931 . S
C1203 H1191 0.929 . S
C1203 C1197 1.390 . S
C1203 C1200 1.386 . S
C1204 C1199 1.490 . S
C1204 C1206 1.395 . S
C1204 C1207 1.403 . S
H1205 C1211 0.930 . S
C1206 H1192 0.930 . S
C1206 C1204 1.395 . S
C1206 C1209 1.403 . S
C1207 C1204 1.403 . S
C1207 C1208 1.524 . S
C1207 C1211 1.400 . S
C1208 H1193 0.960 . S
C1208 H1194 0.960 . S
C1208 H1195 0.960 . S
C1208 C1207 1.524 . S
C1209 C1206 1.403 . S
C1209 C1210 1.392 . S
C1209 C1213 1.494 1_565 S
C1210 C1209 1.392 . S
C1210 C1211 1.385 . S
C1210 C1212 1.478 . S
C1211 H1205 0.930 . S
C1211 C1207 1.400 . S
C1211 C1210 1.385 . S
C1212 C1210 1.478 . S
C1212 C1214 1.381 . S
C1212 C1218 1.383 1_565 S
C1213 C1209 1.494 1_545 S
C1213 H1219 0.959 . S
C1213 H1220 0.963 . S
C1213 H1221 0.958 1_545 S
C1214 C1212 1.381 . S
C1214 C1215 1.394 . S
C1214 H1222 0.930 . S
C1215 C1214 1.394 . S
C1215 C1216 1.383 . S
C1215 H1223 0.929 . S
C1216 C1215 1.383 . S
C1216 C1217 1.377 1_565 S
C1217 H1201 0.930 . S
C1217 C1216 1.377 1_545 S
C1217 C1218 1.379 . S
C1218 H1202 0.931 . S
C1218 C1212 1.383 1_545 S
C1218 C1217 1.379 . S
H1219 C1213 0.959 . S
H1220 C1213 0.963 . S
H1221 C1213 0.958 1_565 S
H1222 C1214 0.930 . S
H1223 C1215 0.929 . S
H1224 C1232 0.929 . S
H1225 C1234 0.930 . S
H1226 C1236 0.930 . S
H1227 C1239 0.929 . S
H1228 C1242 0.930 . S
H1229 C1244 0.960 . S
H1230 C1244 0.960 . S
H1231 C1244 0.960 . S
C1232 H1224 0.929 . S
C1232 C1233 1.377 . S
C1232 C1234 1.384 . S
C1233 C1232 1.377 . S
C1233 C1239 1.390 . S
C1234 H1225 0.930 . S
C1234 C1232 1.384 . S
C1234 C1235 1.372 . S
C1235 C1234 1.372 . S
C1235 C1236 1.400 . S
C1235 C1240 1.490 . S
C1236 H1226 0.930 . S
C1236 C1235 1.400 . S
C1236 C1239 1.386 . S
H1237 C1253 0.930 . S
H1238 C1254 0.931 . S
C1239 H1227 0.929 . S
C1239 C1233 1.390 . S
C1239 C1236 1.386 . S
C1240 C1235 1.490 . S
C1240 C1242 1.395 . S
C1240 C1243 1.403 . S
H1241 C1247 0.930 . S
C1242 H1228 0.930 . S
C1242 C1240 1.395 . S
C1242 C1245 1.403 . S
C1243 C1240 1.403 . S
C1243 C1244 1.524 . S
C1243 C1247 1.400 . S
C1244 H1229 0.960 . S
C1244 H1230 0.960 . S
C1244 H1231 0.960 . S
C1244 C1243 1.524 . S
C1245 C1242 1.403 . S
C1245 C1246 1.392 . S
C1245 C1249 1.495 . S
C1246 C1245 1.392 . S
C1246 C1247 1.385 . S
C1246 C1248 1.478 . S
C1247 H1241 0.930 . S
C1247 C1243 1.400 . S
C1247 C1246 1.385 . S
C1248 C1246 1.478 . S
C1248 C1250 1.381 . S
C1248 C1254 1.383 . S
C1249 C1245 1.495 . S
C1249 H1255 0.959 . S
C1249 H1256 0.961 . S
C1249 H1257 0.960 . S
C1250 C1248 1.381 . S
C1250 C1251 1.394 . S
C1250 H1258 0.930 . S
C1251 C1250 1.394 . S
C1251 C1252 1.383 . S
C1251 H1259 0.929 . S
C1252 C1251 1.383 . S
C1252 C1253 1.377 . S
C1253 H1237 0.930 . S
C1253 C1252 1.377 . S
C1253 C1254 1.379 . S
C1254 H1238 0.931 . S
C1254 C1248 1.383 . S
C1254 C1253 1.379 . S
H1255 C1249 0.959 . S
H1256 C1249 0.961 . S
H1257 C1249 0.960 . S
H1258 C1250 0.930 . S
H1259 C1251 0.929 . S
H1260 C1268 0.929 . S
H1261 C1270 0.930 . S
H1262 C1272 0.930 . S
H1263 C1275 0.929 . S
H1264 C1278 0.930 . S
H1265 C1280 0.960 . S
H1266 C1280 0.960 . S
H1267 C1280 0.960 . S
C1268 H1260 0.929 . S
C1268 C1269 1.377 . S
C1268 C1270 1.384 . S
C1269 C1268 1.377 . S
C1269 C1275 1.390 . S
C1270 H1261 0.930 . S
C1270 C1268 1.384 . S
C1270 C1271 1.372 . S
C1271 C1270 1.372 . S
C1271 C1272 1.400 . S
C1271 C1276 1.490 . S
C1272 H1262 0.930 . S
C1272 C1271 1.400 . S
C1272 C1275 1.386 . S
H1273 C1289 0.930 . S
H1274 C1290 0.931 . S
C1275 H1263 0.929 . S
C1275 C1269 1.390 . S
C1275 C1272 1.386 . S
C1276 C1271 1.490 . S
C1276 C1278 1.395 . S
C1276 C1279 1.403 . S
H1277 C1283 0.930 . S
C1278 H1264 0.930 . S
C1278 C1276 1.395 . S
C1278 C1281 1.403 . S
C1279 C1276 1.403 . S
C1279 C1280 1.524 . S
C1279 C1283 1.400 . S
C1280 H1265 0.960 . S
C1280 H1266 0.960 . S
C1280 H1267 0.960 . S
C1280 C1279 1.524 . S
C1281 C1278 1.403 . S
C1281 C1282 1.392 . S
C1281 C1285 1.495 . S
C1282 C1281 1.392 . S
C1282 C1283 1.385 . S
C1282 C1284 1.478 . S
C1283 H1277 0.930 . S
C1283 C1279 1.400 . S
C1283 C1282 1.385 . S
C1284 C1282 1.478 . S
C1284 C1286 1.381 . S
C1284 C1290 1.383 . S
C1285 C1281 1.495 . S
C1285 H1291 0.959 . S
C1285 H1292 0.961 . S
C1285 H1293 0.960 . S
C1286 C1284 1.381 . S
C1286 C1287 1.394 . S
C1286 H1294 0.930 . S
C1287 C1286 1.394 . S
C1287 C1288 1.383 . S
C1287 H1295 0.929 . S
C1288 C1287 1.383 . S
C1288 C1289 1.377 . S
C1289 H1273 0.930 . S
C1289 C1288 1.377 . S
C1289 C1290 1.379 . S
C1290 H1274 0.931 . S
C1290 C1284 1.383 . S
C1290 C1289 1.379 . S
H1291 C1285 0.959 . S
H1292 C1285 0.961 . S
H1293 C1285 0.960 . S
H1294 C1286 0.930 . S
H1295 C1287 0.929 . S
C441 C76 1.832 . S
C460 C164 1.929 . S
C496 C247 1.963 . S
C477 C88 1.841 . S
C532 C332 1.924 . S
C513 C52 1.816 . S
C568 C416 1.906 . S
C549 C64 1.815 . S
C604 C152 1.944 . S
C585 C28 1.842 . S
C621 C40 1.847 . S
C640 C235 1.950 . S
C657 C4 1.825 . S
C676 C320 1.920 . S
C693 C16 1.812 . S
C712 C404 1.904 1_655 S
C748 C154 0.635 1_455 S
C729 C69 0.450 . S
C784 C250 0.464 . S
C765 C81 0.442 . S
C820 C322 0.613 . S
C801 C93 0.461 . S
C837 C57 0.441 . S
C856 C406 0.602 . S
C873 C21 0.474 . S
C892 C166 0.512 . S
C928 C238 0.636 . S
C909 C33 0.435 . S
C964 C334 0.554 . S
C945 C45 0.465 . S
C981 C9 0.467 . S
C1000 C418 0.600 . S
C1017 C66 1.859 . S
C1036 C151 2.003 . S
C1053 C78 1.865 . S
C1072 C236 1.999 . S
C1108 C319 2.027 . S
C1089 C90 1.878 . S
C1144 C403 2.027 . S
C1125 C54 1.889 . S
C1161 C18 1.862 . S
C1180 C163 2.015 . S
C1216 C248 2.005 1_565 S
C1197 C30 1.850 . S
C1252 C331 2.030 . S
C1233 C42 1.869 . S
C1269 C6 1.877 . S
C1288 C415 2.037 . S
