# Generated by pormake.
# Topology wbl, (4,4)-cn, num edge types: 1
# Building blocks:
#     Node 0, Type 0, BuildingBlock: MUDLON_clean_linker_0, # of connection points: 4
#     Node 1, Type 0, BuildingBlock: MUDLON_clean_linker_0, # of connection points: 4
#     Node 2, Type 0, BuildingBlock: MUDLON_clean_linker_0, # of connection points: 4
#     Node 3, Type 0, BuildingBlock: MUDLON_clean_linker_0, # of connection points: 4
#     Node 4, Type 0, BuildingBlock: MUDLON_clean_linker_0, # of connection points: 4
#     Node 5, Type 0, BuildingBlock: MUDLON_clean_linker_0, # of connection points: 4
#     Node 6, Type 0, BuildingBlock: MUDLON_clean_linker_0, # of connection points: 4
#     Node 7, Type 0, BuildingBlock: MUDLON_clean_linker_0, # of connection points: 4
#     Node 8, Type 1, BuildingBlock: TATPOV_clean_sbu_0, # of connection points: 4
#     Node 9, Type 1, BuildingBlock: TATPOV_clean_sbu_0, # of connection points: 4
#     Node 10, Type 1, BuildingBlock: TATPOV_clean_sbu_0, # of connection points: 4
#     Node 11, Type 1, BuildingBlock: TATPOV_clean_sbu_0, # of connection points: 4
#     Node 12, Type 1, BuildingBlock: TATPOV_clean_sbu_0, # of connection points: 4
#     Node 13, Type 1, BuildingBlock: TATPOV_clean_sbu_0, # of connection points: 4
#     Node 14, Type 1, BuildingBlock: TATPOV_clean_sbu_0, # of connection points: 4
#     Node 15, Type 1, BuildingBlock: TATPOV_clean_sbu_0, # of connection points: 4
#     Edge 16, Type (0, 1), None
#     Edge 17, Type (0, 1), None
#     Edge 18, Type (0, 1), None
#     Edge 19, Type (0, 1), None
#     Edge 20, Type (0, 1), None
#     Edge 21, Type (0, 1), None
#     Edge 22, Type (0, 1), None
#     Edge 23, Type (0, 1), None
#     Edge 24, Type (0, 1), None
#     Edge 25, Type (0, 1), None
#     Edge 26, Type (0, 1), None
#     Edge 27, Type (0, 1), None
#     Edge 28, Type (0, 1), None
#     Edge 29, Type (0, 1), None
#     Edge 30, Type (0, 1), None
#     Edge 31, Type (0, 1), None
#     Edge 32, Type (0, 1), None
#     Edge 33, Type (0, 1), None
#     Edge 34, Type (0, 1), None
#     Edge 35, Type (0, 1), None
#     Edge 36, Type (0, 1), None
#     Edge 37, Type (0, 1), None
#     Edge 38, Type (0, 1), None
#     Edge 39, Type (0, 1), None
#     Edge 40, Type (0, 1), None
#     Edge 41, Type (0, 1), None
#     Edge 42, Type (0, 1), None
#     Edge 43, Type (0, 1), None
#     Edge 44, Type (0, 1), None
#     Edge 45, Type (0, 1), None
#     Edge 46, Type (0, 1), None
#     Edge 47, Type (0, 1), None
# Relax obj value: 0.120
# Max RMSD: 0.132
# Mean RMSD: 0.125
data_MOF--net-wbl--node1-TATPOV_clean_sbu_0--node2-MUDLON_clean_linker_0--edge1-none
_symmetry_space_group_name_H-M    P1
_symmetry_Int_Tables_number       1
_symmetry_cell_setting            triclinic
loop_
_symmetry_equiv_pos_as_xyz
'x, y, z'
_cell_length_a     31.751255
_cell_length_b     31.785849
_cell_length_c     43.902493
_cell_angle_alpha  91.400726
_cell_angle_beta   91.498161
_cell_angle_gamma 90.4261
loop_
_atom_site_label
_atom_site_type_symbol
_atom_site_fract_x
_atom_site_fract_y
_atom_site_fract_z
_atom_type_partial_charge
H0 H 0.20895 0.99431 0.39799 0.0
N1 N 0.17686 0.97862 0.34209 0.0
H2 H 0.21215 0.94611 0.44086 0.0
H3 H 0.13604 0.90217 0.34519 0.0
H4 H 0.14094 0.85355 0.38703 0.0
H5 H 0.13862 0.92999 0.29686 0.0
H6 H 0.17579 0.88005 0.2638 0.0
H7 H 0.25738 0.98393 0.32783 0.0
H8 H 0.29453 0.93652 0.29332 0.0
H9 H 0.18813 0.05758 0.32595 0.0
H10 H 0.09125 0.96754 0.346 0.0
H11 H 0.13534 0.1127 0.32193 0.0
H12 H 0.03867 0.02278 0.34439 0.0
H13 H 0.95574 0.28029 0.37696 0.0
H14 H 0.92763 0.29356 0.42773 0.0
H15 H 0.91621 0.15936 0.43979 0.0
H16 H 0.94386 0.14661 0.3893 0.0
H17 H 0.88729 0.1627 0.34958 0.0
H18 H 0.82513 0.17255 0.31701 0.0
H19 H 0.89238 0.26638 0.26722 0.0
H20 H 0.95458 0.2565 0.30033 0.0
H21 H 0.04449 0.21023 0.35894 0.0
H22 H 0.09583 0.15409 0.35423 0.0
H23 H 0.998 0.07048 0.31753 0.0
N24 N 0.9622 0.20643 0.34771 0.0
H25 H 0.94665 0.12576 0.32419 0.0
C26 C 0.17327 0.95176 0.36806 0.0
C27 C 0.19325 0.96399 0.39575 0.0
C28 C 0.1949 0.9365 0.42021 0.0
C29 C 0.17714 0.89591 0.41712 0.0
C30 C 0.15526 0.88448 0.38993 0.0
C31 C 0.15279 0.9123 0.36581 0.0
C32 C 0.19559 0.95935 0.3157 0.0
C33 C 0.17257 0.93212 0.29568 0.0
C34 C 0.19378 0.90402 0.2765 0.0
C35 C 0.23808 0.9041 0.27621 0.0
C36 C 0.2604 0.93574 0.29288 0.0
C37 C 0.23929 0.96272 0.31279 0.0
C38 C 0.14394 0.00873 0.3368 0.0
C39 C 0.15537 0.04978 0.32944 0.0
C40 C 0.12513 0.08133 0.32754 0.0
C41 C 0.08263 0.07268 0.33354 0.0
C42 C 0.07091 0.03085 0.33947 0.0
C43 C 0.10117 0.99908 0.34072 0.0
C44 C 0.95184 0.21266 0.3793 0.0
C45 C 0.94793 0.25387 0.39093 0.0
C46 C 0.93182 0.26134 0.41988 0.0
C47 C 0.91926 0.22754 0.43766 0.0
C48 C 0.92536 0.18616 0.42662 0.0
C49 C 0.94136 0.17876 0.39772 0.0
C50 C 0.92587 0.20894 0.32732 0.0
C51 C 0.88881 0.18538 0.33169 0.0
C52 C 0.85309 0.19116 0.31306 0.0
C53 C 0.8536 0.2205 0.28965 0.0
C54 C 0.8908 0.24365 0.28514 0.0
C55 C 0.92649 0.23789 0.30384 0.0
C56 C 0.9917 0.17284 0.34186 0.0
C57 C 0.03425 0.17984 0.34969 0.0
C58 C 0.06364 0.14764 0.34671 0.0
C59 C 0.05134 0.10749 0.33529 0.0
C60 C 0.00871 0.10068 0.32682 0.0
C61 C 0.97914 0.13275 0.33034 0.0
H62 H 0.8737 0.38658 0.61892 0.0
N63 N 0.82973 0.44914 0.59107 0.0
H64 H 0.86927 0.36621 0.67166 0.0
H65 H 0.78702 0.48792 0.63513 0.0
H66 H 0.78164 0.46713 0.68844 0.0
H67 H 0.75783 0.40553 0.59142 0.0
H68 H 0.74466 0.33477 0.57046 0.0
H69 H 0.87594 0.40972 0.54473 0.0
H70 H 0.86293 0.33952 0.52426 0.0
H71 H 0.91426 0.43028 0.59026 0.0
H72 H 0.82457 0.52933 0.576 0.0
H73 H 0.97169 0.47848 0.58138 0.0
H74 H 0.88213 0.57934 0.57003 0.0
H75 H 0.13558 0.6275 0.58947 0.0
H76 H 0.18743 0.63236 0.63149 0.0
H77 H 0.09656 0.69665 0.68713 0.0
H78 H 0.04524 0.69296 0.64439 0.0
H79 H 0.06329 0.74708 0.58304 0.0
H80 H 0.10706 0.78636 0.54853 0.0
H81 H 0.14055 0.67002 0.50261 0.0
H82 H 0.09693 0.63082 0.53781 0.0
H83 H 0.06371 0.58294 0.60873 0.0
H84 H 0.00959 0.53008 0.6049 0.0
H85 H 0.93626 0.60847 0.54457 0.0
N86 N 0.05803 0.66439 0.58785 0.0
H87 H 0.98959 0.66376 0.55097 0.0
C88 C 0.83084 0.43911 0.62306 0.0
C89 C 0.85441 0.40511 0.63403 0.0
C90 C 0.85147 0.39323 0.66427 0.0
C91 C 0.82479 0.41484 0.6843 0.0
C92 C 0.80237 0.44975 0.67361 0.0
C93 C 0.80546 0.46174 0.64324 0.0
C94 C 0.81902 0.41267 0.57157 0.0
C95 C 0.78062 0.39172 0.57628 0.0
C96 C 0.77312 0.35117 0.56432 0.0
C97 C 0.80341 0.33097 0.54653 0.0
C98 C 0.83934 0.35384 0.53848 0.0
C99 C 0.84714 0.39426 0.55081 0.0
C100 C 0.86467 0.47591 0.58315 0.0
C101 C 0.90679 0.46247 0.58507 0.0
C102 C 0.93992 0.49053 0.58037 0.0
C103 C 0.93216 0.53341 0.57526 0.0
C104 C 0.88988 0.54662 0.57318 0.0
C105 C 0.85669 0.5181 0.57682 0.0
C106 C 0.08687 0.66098 0.61365 0.0
C107 C 0.12674 0.64249 0.61072 0.0
C108 C 0.15625 0.645 0.63483 0.0
C109 C 0.14615 0.66521 0.66248 0.0
C110 C 0.10521 0.68079 0.66611 0.0
C111 C 0.07594 0.67891 0.64176 0.0
C112 C 0.07667 0.68621 0.56298 0.0
C113 C 0.07924 0.7302 0.56503 0.0
C114 C 0.10462 0.75249 0.54548 0.0
C115 C 0.12776 0.73125 0.52308 0.0
C116 C 0.12318 0.68728 0.51969 0.0
C117 C 0.09806 0.66484 0.53964 0.0
C118 C 0.03104 0.62833 0.58032 0.0
C119 C 0.03645 0.58921 0.59435 0.0
C120 C 0.00511 0.5582 0.59185 0.0
C121 C 0.96775 0.56463 0.57465 0.0
C122 C 0.9638 0.60249 0.5588 0.0
C123 C 0.99474 0.63404 0.56197 0.0
H124 H 0.65334 0.36581 0.8599 0.0
N125 N 0.58977 0.32325 0.82902 0.0
H126 H 0.67058 0.36325 0.91398 0.0
H127 H 0.54974 0.27955 0.8709 0.0
H128 H 0.56794 0.2754 0.92554 0.0
H129 H 0.63092 0.25071 0.8295 0.0
H130 H 0.70109 0.23694 0.8106 0.0
H131 H 0.63044 0.37039 0.78479 0.0
H132 H 0.70032 0.35687 0.7665 0.0
H133 H 0.61217 0.40731 0.82978 0.0
H134 H 0.50878 0.32053 0.81293 0.0
H135 H 0.56487 0.46618 0.82453 0.0
H136 H 0.46021 0.37937 0.81005 0.0
H137 H 0.42217 0.63086 0.84078 0.0
H138 H 0.4172 0.68298 0.88247 0.0
H139 H 0.35216 0.59151 0.93575 0.0
H140 H 0.35565 0.54035 0.8934 0.0
H141 H 0.29956 0.56137 0.83235 0.0
H142 H 0.25985 0.60451 0.79657 0.0
H143 H 0.37529 0.63582 0.75191 0.0
H144 H 0.41493 0.59305 0.78841 0.0
H145 H 0.46432 0.55403 0.86102 0.0
H146 H 0.5157 0.49982 0.8532 0.0
H147 H 0.43199 0.43737 0.78688 0.0
N148 N 0.3824 0.55402 0.83765 0.0
H149 H 0.37874 0.49031 0.79677 0.0
C150 C 0.59981 0.32317 0.86135 0.0
C151 C 0.63375 0.34687 0.87408 0.0
C152 C 0.64373 0.34515 0.90512 0.0
C153 C 0.62056 0.31914 0.92414 0.0
C154 C 0.58634 0.29577 0.9115 0.0
C155 C 0.57594 0.29804 0.88037 0.0
C156 C 0.62587 0.31271 0.81061 0.0
C157 C 0.64544 0.27375 0.81523 0.0
C158 C 0.68562 0.26588 0.8044 0.0
C159 C 0.70683 0.29644 0.78792 0.0
C160 C 0.68516 0.33303 0.77973 0.0
C161 C 0.64503 0.34114 0.79087 0.0
C162 C 0.5642 0.35906 0.82115 0.0
C163 C 0.57932 0.40075 0.82452 0.0
C164 C 0.55191 0.43467 0.82193 0.0
C165 C 0.50834 0.42793 0.81726 0.0
C166 C 0.49351 0.38622 0.81308 0.0
C167 C 0.52122 0.35233 0.81482 0.0
C168 C 0.38819 0.58204 0.86383 0.0
C169 C 0.40726 0.62195 0.86156 0.0
C170 C 0.40454 0.65165 0.88543 0.0
C171 C 0.38379 0.64154 0.9122 0.0
C172 C 0.3683 0.60034 0.9154 0.0
C173 C 0.3702 0.57102 0.89129 0.0
C174 C 0.35994 0.57384 0.81295 0.0
C175 C 0.31609 0.5769 0.81446 0.0
C176 C 0.2936 0.60183 0.79417 0.0
C177 C 0.31456 0.62388 0.77163 0.0
C178 C 0.35834 0.61917 0.76906 0.0
C179 C 0.38098 0.59461 0.78976 0.0
C180 C 0.41693 0.52671 0.82947 0.0
C181 C 0.45668 0.52918 0.8445 0.0
C182 C 0.48667 0.49795 0.83974 0.0
C183 C 0.47824 0.46371 0.81946 0.0
C184 C 0.43947 0.46257 0.80319 0.0
C185 C 0.40909 0.49329 0.80849 0.0
H186 H 0.50696 0.84352 0.15694 0.0
N187 N 0.48859 0.869 0.10103 0.0
H188 H 0.4603 0.84315 0.2004 0.0
H189 H 0.4139 0.91094 0.10478 0.0
H190 H 0.36665 0.9103 0.14788 0.0
H191 H 0.45027 0.90317 0.05078 0.0
H192 H 0.40833 0.86492 0.01127 0.0
H193 H 0.47535 0.78678 0.09592 0.0
H194 H 0.43274 0.74843 0.0571 0.0
H195 H 0.56794 0.85356 0.08773 0.0
H196 H 0.47871 0.95429 0.09621 0.0
H197 H 0.62286 0.90406 0.0751 0.0
H198 H 0.53372 0.00539 0.08482 0.0
H199 H 0.78719 0.10838 0.09782 0.0
H200 H 0.80063 0.14569 0.14674 0.0
H201 H 0.6691 0.13384 0.1676 0.0
H202 H 0.65518 0.0991 0.11808 0.0
H203 H 0.65112 0.14612 0.0699 0.0
H204 H 0.6593 0.2156 0.04856 0.0
H205 H 0.78171 0.18133 0.01633 0.0
H206 H 0.77174 0.10993 0.03533 0.0
H207 H 0.71932 0.01008 0.0961 0.0
H208 H 0.66472 0.95666 0.10039 0.0
H209 H 0.5795 0.03158 0.04636 0.0
N210 N 0.71253 0.08609 0.07306 0.0
H211 H 0.63374 0.08489 0.04219 0.0
C212 C 0.46388 0.87686 0.12765 0.0
C213 C 0.47684 0.85915 0.1552 0.0
C214 C 0.45 0.85887 0.17994 0.0
C215 C 0.40939 0.87611 0.17747 0.0
C216 C 0.39754 0.89643 0.15047 0.0
C217 C 0.42459 0.89694 0.1258 0.0
C218 C 0.46636 0.84756 0.07611 0.0
C219 C 0.44721 0.86934 0.05197 0.0
C220 C 0.42314 0.84746 0.02947 0.0
C221 C 0.41711 0.80369 0.03113 0.0
C222 C 0.43659 0.78215 0.05521 0.0
C223 C 0.46111 0.80388 0.07731 0.0
C224 C 0.51956 0.90012 0.09338 0.0
C225 C 0.56036 0.8867 0.087 0.0
C226 C 0.59169 0.91566 0.07992 0.0
C227 C 0.58293 0.95895 0.07921 0.0
C228 C 0.54157 0.9723 0.08488 0.0
C229 C 0.5101 0.94314 0.09176 0.0
C230 C 0.7204 0.10064 0.10421 0.0
C231 C 0.76144 0.11313 0.1132 0.0
C232 C 0.76905 0.1344 0.14102 0.0
C233 C 0.73589 0.14226 0.1608 0.0
C234 C 0.69523 0.12755 0.15282 0.0
C235 C 0.68732 0.10764 0.12451 0.0
C236 C 0.71019 0.12182 0.05325 0.0
C237 C 0.67833 0.15219 0.05628 0.0
C238 C 0.68329 0.19222 0.04439 0.0
C239 C 0.72099 0.20351 0.03065 0.0
C240 C 0.7521 0.17303 0.02641 0.0
C241 C 0.74626 0.13225 0.03706 0.0
C242 C 0.68092 0.05274 0.07 0.0
C243 C 0.68903 0.01487 0.08485 0.0
C244 C 0.65768 0.9842 0.08721 0.0
C245 C 0.61729 0.9901 0.07421 0.0
C246 C 0.60984 0.02663 0.05749 0.0
C247 C 0.64126 0.05751 0.05523 0.0
H248 H 0.15519 0.66555 0.89116 0.0
N249 N 0.09319 0.70909 0.9199 0.0
H250 H 0.17447 0.67065 0.83824 0.0
H251 H 0.05381 0.75281 0.87654 0.0
H252 H 0.07357 0.75896 0.82307 0.0
H253 H 0.13726 0.7807 0.91962 0.0
H254 H 0.20826 0.79338 0.94046 0.0
H255 H 0.13285 0.66232 0.96593 0.0
H256 H 0.20333 0.67486 0.98627 0.0
H257 H 0.11225 0.62466 0.92002 0.0
H258 H 0.01304 0.71382 0.93529 0.0
H259 H 0.0641 0.56701 0.92842 0.0
H260 H 0.96312 0.65608 0.94089 0.0
H261 H 0.91516 0.40355 0.91971 0.0
H262 H 0.90988 0.35155 0.87787 0.0
H263 H 0.84497 0.44209 0.82216 0.0
H264 H 0.84907 0.49352 0.86471 0.0
H265 H 0.79503 0.47667 0.92546 0.0
H266 H 0.75467 0.43349 0.95968 0.0
H267 H 0.87017 0.39792 0.00619 0.0
H268 H 0.91044 0.44103 0.97129 0.0
H269 H 0.95921 0.4759 0.89987 0.0
H270 H 0.01217 0.52987 0.9043 0.0
H271 H 0.9344 0.60124 0.96605 0.0
N272 N 0.87793 0.48084 0.92123 0.0
H273 H 0.87901 0.54809 0.95918 0.0
C274 C 0.1027 0.70862 0.88783 0.0
C275 C 0.13641 0.68512 0.87636 0.0
C276 C 0.14767 0.68844 0.84601 0.0
C277 C 0.12574 0.7155 0.82638 0.0
C278 C 0.09117 0.73794 0.83758 0.0
C279 C 0.07978 0.73442 0.86805 0.0
C280 C 0.13 0.7194 0.93924 0.0
C281 C 0.15109 0.75773 0.93463 0.0
C282 C 0.19178 0.76496 0.94655 0.0
C283 C 0.21199 0.73447 0.96419 0.0
C284 C 0.189 0.6986 0.97216 0.0
C285 C 0.14843 0.69107 0.95989 0.0
C286 C 0.06653 0.67399 0.92765 0.0
C287 C 0.08005 0.63197 0.92534 0.0
C288 C 0.05203 0.59872 0.92977 0.0
C289 C 0.00913 0.60631 0.93505 0.0
C290 C 0.99586 0.64848 0.93758 0.0
C291 C 0.02433 0.68176 0.93417 0.0
C292 C 0.88141 0.45207 0.89547 0.0
C293 C 0.89999 0.41227 0.89847 0.0
C294 C 0.89722 0.38269 0.87447 0.0
C295 C 0.87667 0.39264 0.84688 0.0
C296 C 0.86109 0.43354 0.84314 0.0
C297 C 0.86321 0.46288 0.86738 0.0
C298 C 0.85556 0.46229 0.94586 0.0
C299 C 0.8115 0.46036 0.94352 0.0
C300 C 0.78859 0.43528 0.9629 0.0
C301 C 0.80926 0.41176 0.9854 0.0
C302 C 0.85334 0.41555 0.98901 0.0
C303 C 0.87639 0.4404 0.96924 0.0
C304 C 0.91414 0.50753 0.92907 0.0
C305 C 0.95311 0.50264 0.91473 0.0
C306 C 0.98418 0.5339 0.91755 0.0
C307 C 0.97792 0.57069 0.93533 0.0
C308 C 0.94022 0.57413 0.95142 0.0
C309 C 0.90863 0.54327 0.94797 0.0
H310 H 0.54893 0.34054 0.11616 0.0
N311 N 0.56885 0.37412 0.17094 0.0
H312 H 0.59394 0.33649 0.07154 0.0
H313 H 0.64307 0.41738 0.16382 0.0
H314 H 0.68877 0.41143 0.12032 0.0
H315 H 0.6254 0.40773 0.21314 0.0
H316 H 0.67831 0.36619 0.24071 0.0
H317 H 0.5604 0.29363 0.18441 0.0
H318 H 0.61068 0.25231 0.21417 0.0
H319 H 0.49124 0.36092 0.18962 0.0
H320 H 0.5783 0.45981 0.16821 0.0
H321 H 0.43499 0.41236 0.19462 0.0
H322 H 0.5219 0.51102 0.17076 0.0
H323 H 0.26281 0.58744 0.13579 0.0
H324 H 0.24958 0.61299 0.08423 0.0
H325 H 0.38394 0.62359 0.07209 0.0
H326 H 0.39666 0.59856 0.12338 0.0
H327 H 0.37949 0.65752 0.16125 0.0
H328 H 0.36899 0.72118 0.19184 0.0
H329 H 0.27603 0.6561 0.24386 0.0
H330 H 0.28656 0.59224 0.21266 0.0
H331 H 0.33471 0.49986 0.15611 0.0
H332 H 0.39205 0.45008 0.16207 0.0
H333 H 0.47331 0.55076 0.19726 0.0
N334 N 0.3367 0.5825 0.16545 0.0
H335 H 0.41689 0.60049 0.18937 0.0
C336 C 0.59285 0.37822 0.14364 0.0
C337 C 0.5789 0.35705 0.11683 0.0
C338 C 0.60456 0.35493 0.0914 0.0
C339 C 0.64498 0.37333 0.09269 0.0
C340 C 0.65788 0.39668 0.11886 0.0
C341 C 0.6318 0.39971 0.14392 0.0
C342 C 0.59011 0.3534 0.1957 0.0
C343 C 0.62162 0.37391 0.21371 0.0
C344 C 0.65148 0.35025 0.22977 0.0
C345 C 0.64865 0.30608 0.22935 0.0
C346 C 0.61344 0.28632 0.21507 0.0
C347 C 0.58474 0.30982 0.198 0.0
C348 C 0.53868 0.40625 0.17805 0.0
C349 C 0.49821 0.39385 0.18622 0.0
C350 C 0.46598 0.42331 0.18862 0.0
C351 C 0.47336 0.46592 0.18232 0.0
C352 C 0.51477 0.47865 0.17591 0.0
C353 C 0.54722 0.44919 0.17415 0.0
C354 C 0.33052 0.59112 0.1335 0.0
C355 C 0.28928 0.59448 0.12166 0.0
C356 C 0.28184 0.60914 0.09226 0.0
C357 C 0.31569 0.62075 0.07417 0.0
C358 C 0.3571 0.61511 0.08545 0.0
C359 C 0.36448 0.6006 0.11483 0.0
C360 C 0.33371 0.61984 0.18471 0.0
C361 C 0.35684 0.65677 0.17919 0.0
C362 C 0.35071 0.69335 0.19671 0.0
C363 C 0.32142 0.69389 0.22016 0.0
C364 C 0.29871 0.65684 0.22587 0.0
C365 C 0.30483 0.62024 0.20826 0.0
C366 C 0.37086 0.55396 0.17227 0.0
C367 C 0.36484 0.51106 0.16533 0.0
C368 C 0.39772 0.48257 0.16904 0.0
C369 C 0.43761 0.49614 0.18033 0.0
C370 C 0.44337 0.53908 0.18807 0.0
C371 C 0.41062 0.56774 0.18382 0.0
H372 H 0.37524 0.86908 0.41724 0.0
N373 N 0.45029 0.83422 0.43527 0.0
H374 H 0.33854 0.85749 0.36846 0.0
H375 H 0.4804 0.79646 0.3853 0.0
H376 H 0.44409 0.78687 0.33519 0.0
H377 H 0.4209 0.75796 0.44603 0.0
H378 H 0.35204 0.74279 0.46673 0.0
H379 H 0.41171 0.88701 0.47783 0.0
H380 H 0.34346 0.87185 0.49871 0.0
H381 H 0.43206 0.91863 0.43273 0.0
H382 H 0.53271 0.83003 0.44488 0.0
H383 H 0.48296 0.976 0.4312 0.0
H384 H 0.58423 0.88657 0.44101 0.0
H385 H 0.62483 0.13252 0.40002 0.0
H386 H 0.62972 0.17882 0.35646 0.0
H387 H 0.70255 0.08456 0.30913 0.0
H388 H 0.69797 0.03897 0.35306 0.0
H389 H 0.74898 0.06839 0.41378 0.0
H390 H 0.78756 0.1101 0.453 0.0
H391 H 0.67011 0.14155 0.49529 0.0
H392 H 0.63161 0.1006 0.45521 0.0
H393 H 0.58284 0.05668 0.38665 0.0
H394 H 0.53002 0.00455 0.39826 0.0
H395 H 0.61859 0.94543 0.46001 0.0
N396 N 0.66626 0.05816 0.40705 0.0
H397 H 0.67247 0.99578 0.44629 0.0
C398 C 0.43039 0.83268 0.40524 0.0
C399 C 0.39075 0.85102 0.39968 0.0
C400 C 0.36969 0.84438 0.37179 0.0
C401 C 0.38841 0.82082 0.34848 0.0
C402 C 0.42911 0.80492 0.35307 0.0
C403 C 0.44976 0.81042 0.38149 0.0
C404 C 0.42109 0.82393 0.45893 0.0
C405 C 0.40514 0.78255 0.45877 0.0
C406 C 0.36553 0.77397 0.47038 0.0
C407 C 0.34172 0.80647 0.48338 0.0
C408 C 0.36075 0.84625 0.48831 0.0
C409 C 0.40009 0.85504 0.47609 0.0
C410 C 0.47853 0.86982 0.43972 0.0
C411 C 0.46513 0.91155 0.43582 0.0
C412 C 0.49452 0.94441 0.43428 0.0
C413 C 0.53809 0.93629 0.43564 0.0
C414 C 0.55118 0.89463 0.44046 0.0
C415 C 0.52173 0.86202 0.44267 0.0
C416 C 0.66145 0.08241 0.37979 0.0
C417 C 0.64118 0.12162 0.38003 0.0
C418 C 0.64407 0.14806 0.3551 0.0
C419 C 0.66703 0.13568 0.32943 0.0
C420 C 0.68478 0.09524 0.32853 0.0
C421 C 0.6821 0.06901 0.35354 0.0
C422 C 0.68768 0.08107 0.43174 0.0
C423 C 0.73167 0.08413 0.43162 0.0
C424 C 0.75355 0.10807 0.45397 0.0
C425 C 0.73183 0.12905 0.47725 0.0
C426 C 0.68767 0.12547 0.47774 0.0
C427 C 0.66567 0.10209 0.45492 0.0
C428 C 0.63227 0.03036 0.41549 0.0
C429 C 0.59121 0.0327 0.40272 0.0
C430 C 0.56052 0.00281 0.40972 0.0
C431 C 0.56971 0.97027 0.43008 0.0
C432 C 0.61029 0.96916 0.44369 0.0
C433 C 0.64117 0.99835 0.43613 0.0
H434 H 0.17555 0.88525 0.64926 0.0
N435 N 0.21627 0.94985 0.68022 0.0
H436 H 0.18034 0.86698 0.59552 0.0
H437 H 0.26094 0.98967 0.63875 0.0
H438 H 0.26731 0.97047 0.58445 0.0
H439 H 0.28956 0.90997 0.68202 0.0
H440 H 0.30324 0.84003 0.70141 0.0
H441 H 0.16741 0.90882 0.72325 0.0
H442 H 0.18094 0.83928 0.74213 0.0
H443 H 0.13219 0.92711 0.67729 0.0
H444 H 0.21794 0.03064 0.69663 0.0
H445 H 0.07277 0.9739 0.68178 0.0
H446 H 0.1586 0.07872 0.69889 0.0
H447 H 0.9061 0.11692 0.66806 0.0
H448 H 0.85319 0.12344 0.62689 0.0
H449 H 0.94479 0.18784 0.5733 0.0
H450 H 0.99665 0.18292 0.61514 0.0
H451 H 0.97712 0.23869 0.67635 0.0
H452 H 0.935 0.27865 0.71255 0.0
H453 H 0.90304 0.16341 0.75719 0.0
H454 H 0.94479 0.12353 0.72027 0.0
H455 H 0.98467 0.07502 0.64594 0.0
H456 H 0.03934 0.02386 0.6534 0.0
H457 H 0.0998 0.10548 0.72193 0.0
N458 N 0.98347 0.15588 0.67085 0.0
H459 H 0.04653 0.15852 0.7125 0.0
C460 C 0.21757 0.93928 0.64802 0.0
C461 C 0.19477 0.90479 0.63524 0.0
C462 C 0.19779 0.89421 0.6044 0.0
C463 C 0.22421 0.91733 0.58562 0.0
C464 C 0.24668 0.95209 0.5983 0.0
C465 C 0.24312 0.96307 0.62923 0.0
C466 C 0.22649 0.91422 0.69918 0.0
C467 C 0.26598 0.8952 0.6957 0.0
C468 C 0.2738 0.85516 0.70681 0.0
C469 C 0.24262 0.83359 0.72245 0.0
C470 C 0.20532 0.85477 0.7296 0.0
C471 C 0.19725 0.8947 0.71812 0.0
C472 C 0.17995 0.97518 0.68721 0.0
C473 C 0.1384 0.95989 0.68289 0.0
C474 C 0.10417 0.98701 0.68506 0.0
C475 C 0.1105 0.03045 0.69037 0.0
C476 C 0.15206 0.04547 0.69537 0.0
C477 C 0.18623 0.01805 0.69399 0.0
C478 C 0.95502 0.15052 0.64483 0.0
C479 C 0.91486 0.13199 0.64731 0.0
C480 C 0.88469 0.13562 0.62374 0.0
C481 C 0.89462 0.15669 0.59705 0.0
C482 C 0.93605 0.17152 0.5936 0.0
C483 C 0.9658 0.16876 0.61741 0.0
C484 C 0.96423 0.1784 0.69571 0.0
C485 C 0.96167 0.22225 0.69432 0.0
C486 C 0.93733 0.24488 0.71485 0.0
C487 C 0.9154 0.22407 0.73752 0.0
C488 C 0.91963 0.18025 0.73996 0.0
C489 C 0.94358 0.15748 0.71901 0.0
C490 C 0.01091 0.12128 0.67875 0.0
C491 C 0.00917 0.08219 0.66288 0.0
C492 C 0.04066 0.05235 0.66741 0.0
C493 C 0.07448 0.06031 0.68822 0.0
C494 C 0.07494 0.0984 0.70521 0.0
C495 C 0.04398 0.12863 0.70018 0.0
Zn496 Zn 0.34473 0.75822 0.95428 0.0
Zn497 Zn 0.33774 0.69745 0.99664 0.0
O498 O 0.2758 0.71105 0.98805 0.0
O499 O 0.28033 0.76103 0.95436 0.0
O500 O 0.33937 0.6572 0.03119 0.0
O501 O 0.3807 0.79584 0.98297 0.0
O502 O 0.37551 0.7443 0.01514 0.0
C503 C 0.2581 0.73698 0.97024 0.0
C504 C 0.37341 0.67466 0.93495 0.0
O505 O 0.36129 0.66418 0.96111 0.0
O506 O 0.37149 0.71278 0.92706 0.0
C507 C 0.30819 0.64231 0.04505 0.0
O508 O 0.26974 0.65109 0.0356 0.0
C509 C 0.38986 0.78035 0.00857 0.0
Zn510 Zn 0.28825 0.78718 0.28445 0.0
Zn511 Zn 0.34735 0.82442 0.25415 0.0
O512 O 0.29959 0.86814 0.25979 0.0
O513 O 0.2451 0.83073 0.27361 0.0
O514 O 0.38904 0.84904 0.22523 0.0
O515 O 0.29138 0.73192 0.26149 0.0
O516 O 0.33638 0.76589 0.23375 0.0
C517 C 0.26081 0.8658 0.26665 0.0
C518 C 0.36421 0.81228 0.32009 0.0
O519 O 0.37982 0.82069 0.29454 0.0
O520 O 0.32633 0.79975 0.32165 0.0
C521 C 0.37829 0.86895 0.20151 0.0
O522 O 0.3383 0.8774 0.19652 0.0
C523 C 0.31563 0.73249 0.23913 0.0
Zn524 Zn 0.21243 0.77934 0.45972 0.0
Zn525 Zn 0.21138 0.83939 0.50393 0.0
O526 O 0.27461 0.82786 0.50134 0.0
O527 O 0.27622 0.77618 0.46711 0.0
O528 O 0.20613 0.874 0.54246 0.0
O529 O 0.17236 0.73944 0.48044 0.0
O530 O 0.17095 0.79119 0.5144 0.0
C531 C 0.29542 0.80166 0.48545 0.0
C532 C 0.18568 0.86408 0.44047 0.0
O533 O 0.19288 0.87538 0.46818 0.0
O534 O 0.18987 0.82584 0.43203 0.0
C535 C 0.22979 0.90318 0.55361 0.0
O536 O 0.26159 0.91684 0.53794 0.0
C537 C 0.15817 0.75501 0.50486 0.0
Zn538 Zn 0.26532 0.70291 0.70427 0.0
Zn539 Zn 0.20721 0.70588 0.74846 0.0
O540 O 0.22021 0.76853 0.74323 0.0
O541 O 0.26955 0.76666 0.70884 0.0
O542 O 0.1735 0.70235 0.78656 0.0
O543 O 0.30534 0.665 0.72722 0.0
O544 O 0.25529 0.66667 0.7608 0.0
C545 C 0.24578 0.78755 0.72628 0.0
C546 C 0.17953 0.67491 0.68569 0.0
O547 O 0.16986 0.68459 0.71294 0.0
O548 O 0.21736 0.6782 0.67731 0.0
C549 C 0.14071 0.72156 0.79504 0.0
O550 O 0.12256 0.74864 0.77688 0.0
C551 C 0.29072 0.65305 0.75211 0.0
Zn552 Zn 0.77817 0.19826 0.55549 0.0
Zn553 Zn 0.83911 0.20554 0.51328 0.0
O554 O 0.82624 0.2674 0.52223 0.0
O555 O 0.77647 0.26271 0.55607 0.0
O556 O 0.88004 0.20395 0.47929 0.0
O557 O 0.74011 0.16388 0.52593 0.0
O558 O 0.79192 0.16906 0.49397 0.0
C559 C 0.80059 0.28499 0.54028 0.0
C560 C 0.8613 0.16799 0.5746 0.0
O561 O 0.87175 0.18076 0.54862 0.0
O562 O 0.82319 0.17004 0.58257 0.0
C563 C 0.89643 0.23501 0.4662 0.0
O564 O 0.88847 0.27346 0.47596 0.0
C565 C 0.75554 0.15524 0.50024 0.0
Zn566 Zn 0.83795 0.2737 0.80566 0.0
Zn567 Zn 0.83437 0.33168 0.76129 0.0
O568 O 0.77172 0.31877 0.7668 0.0
O569 O 0.77405 0.26987 0.80153 0.0
O570 O 0.83753 0.36569 0.72331 0.0
O571 O 0.87524 0.2336 0.78232 0.0
O572 O 0.87317 0.28353 0.74863 0.0
C573 C 0.75291 0.29342 0.78403 0.0
C574 C 0.86656 0.35921 0.82386 0.0
O575 O 0.85631 0.36879 0.79667 0.0
O576 O 0.86341 0.32145 0.83237 0.0
C577 C 0.81909 0.39923 0.71551 0.0
O578 O 0.79321 0.41782 0.73433 0.0
C579 C 0.88678 0.24809 0.75728 0.0
Zn580 Zn 0.75861 0.33017 0.04961 0.0
Zn581 Zn 0.6973 0.33397 0.00621 0.0
O582 O 0.7043 0.2705 0.0112 0.0
O583 O 0.75825 0.26611 0.04353 0.0
O584 O 0.66284 0.33912 0.96751 0.0
O585 O 0.80021 0.3675 0.02814 0.0
O586 O 0.74762 0.37135 0.99492 0.0
C587 C 0.73006 0.24846 0.02657 0.0
C588 C 0.67558 0.36303 0.06897 0.0
O589 O 0.66306 0.35623 0.04148 0.0
O590 O 0.71359 0.35615 0.07705 0.0
C591 C 0.63426 0.31468 0.95639 0.0
O592 O 0.6212 0.28283 0.97226 0.0
C593 C 0.7847 0.38228 0.00386 0.0
Zn594 Zn 0.76744 0.2487 0.21907 0.0
Zn595 Zn 0.72344 0.19502 0.25292 0.0
O596 O 0.68233 0.24461 0.24807 0.0
O597 O 0.72033 0.29089 0.22389 0.0
O598 O 0.69761 0.1547 0.28246 0.0
O599 O 0.81834 0.24985 0.24687 0.0
O600 O 0.78247 0.20479 0.27342 0.0
C601 C 0.68618 0.28058 0.23614 0.0
C602 C 0.7425 0.17003 0.18777 0.0
O603 O 0.72453 0.16191 0.21256 0.0
O604 O 0.76328 0.2039 0.18515 0.0
C605 C 0.6759 0.16601 0.30515 0.0
O606 O 0.66644 0.20594 0.3089 0.0
C607 C 0.81618 0.22581 0.26929 0.0
loop_
_geom_bond_atom_site_label_1
_geom_bond_atom_site_label_2
_geom_bond_distance
_geom_bond_site_symmetry_2
_ccdc_geom_bond_type
H0 C27 0.929 . S
N1 C26 1.433 . S
N1 C32 1.435 . S
N1 C38 1.423 . S
H2 C28 0.930 . S
H3 C31 0.931 . S
H4 C30 0.929 . S
H5 C33 0.930 . S
H6 C34 0.932 . S
H7 C37 0.929 . S
H8 C36 0.931 . S
H9 C39 0.929 1_545 S
H10 C43 0.932 . S
H11 C40 0.931 . S
H12 C42 0.929 . S
H13 C45 0.929 . S
H14 C46 0.930 . S
H15 C48 0.929 . S
H16 C49 0.931 . S
H17 C51 0.930 . S
H18 C52 0.932 . S
H19 C54 0.931 . S
H20 C55 0.929 . S
H21 C57 0.927 1_655 S
H22 C58 0.931 . S
H23 C60 0.929 . S
N24 C44 1.433 . S
N24 C50 1.435 . S
N24 C56 1.423 . S
H25 C61 0.932 . S
C26 N1 1.433 . S
C26 C27 1.363 . S
C26 C31 1.370 . S
C27 H0 0.929 . S
C27 C26 1.363 . S
C27 C28 1.385 . S
C28 H2 0.930 . S
C28 C27 1.385 . S
C28 C29 1.357 . S
C29 C28 1.357 . S
C29 C30 1.406 . S
C30 H4 0.929 . S
C30 C29 1.406 . S
C30 C31 1.391 . S
C31 H3 0.931 . S
C31 C26 1.370 . S
C31 C30 1.391 . S
C32 N1 1.435 . S
C32 C33 1.358 . S
C32 C37 1.371 . S
C33 H5 0.930 . S
C33 C32 1.358 . S
C33 C34 1.405 . S
C34 H6 0.932 . S
C34 C33 1.405 . S
C34 C35 1.383 . S
C35 C34 1.383 . S
C35 C36 1.393 . S
C36 H8 0.931 . S
C36 C35 1.393 . S
C36 C37 1.382 . S
C37 H7 0.929 . S
C37 C32 1.371 . S
C37 C36 1.382 . S
C38 N1 1.423 . S
C38 C39 1.362 . S
C38 C43 1.388 . S
C39 H9 0.929 1_565 S
C39 C38 1.362 . S
C39 C40 1.376 1_565 S
C40 H11 0.931 . S
C40 C39 1.376 1_545 S
C40 C41 1.396 . S
C41 C40 1.396 . S
C41 C42 1.348 1_545 S
C41 C59 1.472 . S
C42 H12 0.929 . S
C42 C41 1.348 1_565 S
C42 C43 1.443 . S
C43 H10 0.932 . S
C43 C38 1.388 . S
C43 C42 1.443 . S
C44 N24 1.433 . S
C44 C45 1.363 . S
C44 C49 1.370 . S
C45 H13 0.929 . S
C45 C44 1.363 . S
C45 C46 1.385 . S
C46 H14 0.930 . S
C46 C45 1.385 . S
C46 C47 1.357 . S
C47 C46 1.357 . S
C47 C48 1.406 . S
C48 H15 0.929 . S
C48 C47 1.406 . S
C48 C49 1.391 . S
C49 H16 0.931 . S
C49 C44 1.370 . S
C49 C48 1.391 . S
C50 N24 1.435 . S
C50 C51 1.358 . S
C50 C55 1.371 . S
C51 H17 0.930 . S
C51 C50 1.358 . S
C51 C52 1.405 . S
C52 H18 0.932 . S
C52 C51 1.405 . S
C52 C53 1.383 . S
C53 C52 1.383 . S
C53 C54 1.393 . S
C54 H19 0.931 . S
C54 C53 1.393 . S
C54 C55 1.382 . S
C55 H20 0.929 . S
C55 C50 1.371 . S
C55 C54 1.382 . S
C56 N24 1.423 . S
C56 C57 1.345 1_655 S
C56 C61 1.388 . S
C57 H21 0.927 1_455 S
C57 C56 1.345 1_455 S
C57 C58 1.396 . S
C58 H22 0.931 . S
C58 C57 1.396 . S
C58 C59 1.396 . S
C59 C41 1.472 . S
C59 C58 1.396 . S
C59 C60 1.348 . S
C60 H23 0.929 . S
C60 C59 1.348 . S
C60 C61 1.443 1_455 S
C61 H25 0.932 . S
C61 C56 1.388 . S
C61 C60 1.443 1_655 S
H62 C89 0.929 . S
N63 C88 1.433 . S
N63 C94 1.435 . S
N63 C100 1.423 . S
H64 C90 0.930 . S
H65 C93 0.931 . S
H66 C92 0.929 . S
H67 C95 0.930 . S
H68 C96 0.932 . S
H69 C99 0.929 . S
H70 C98 0.931 . S
H71 C101 0.929 . S
H72 C105 0.932 . S
H73 C102 0.931 . S
H74 C104 0.929 . S
H75 C107 0.929 . S
H76 C108 0.930 . S
H77 C110 0.929 . S
H78 C111 0.931 . S
H79 C113 0.930 . S
H80 C114 0.932 . S
H81 C116 0.931 . S
H82 C117 0.929 . S
H83 C119 0.929 . S
H84 C120 0.931 . S
H85 C122 0.929 . S
N86 C106 1.433 . S
N86 C112 1.435 . S
N86 C118 1.423 . S
H87 C123 0.932 . S
C88 N63 1.433 . S
C88 C89 1.363 . S
C88 C93 1.370 . S
C89 H62 0.929 . S
C89 C88 1.363 . S
C89 C90 1.385 . S
C90 H64 0.930 . S
C90 C89 1.385 . S
C90 C91 1.357 . S
C91 C90 1.357 . S
C91 C92 1.406 . S
C92 H66 0.929 . S
C92 C91 1.406 . S
C92 C93 1.391 . S
C93 H65 0.931 . S
C93 C88 1.370 . S
C93 C92 1.391 . S
C94 N63 1.435 . S
C94 C95 1.358 . S
C94 C99 1.371 . S
C95 H67 0.930 . S
C95 C94 1.358 . S
C95 C96 1.405 . S
C96 H68 0.932 . S
C96 C95 1.405 . S
C96 C97 1.383 . S
C97 C96 1.383 . S
C97 C98 1.393 . S
C98 H70 0.931 . S
C98 C97 1.393 . S
C98 C99 1.382 . S
C99 H69 0.929 . S
C99 C94 1.371 . S
C99 C98 1.382 . S
C100 N63 1.423 . S
C100 C101 1.362 . S
C100 C105 1.388 . S
C101 H71 0.929 . S
C101 C100 1.362 . S
C101 C102 1.376 1_655 S
C102 H73 0.931 . S
C102 C101 1.376 1_455 S
C102 C103 1.396 . S
C103 C102 1.396 . S
C103 C104 1.348 1_455 S
C103 C121 1.472 . S
C104 H74 0.929 . S
C104 C103 1.348 1_655 S
C104 C105 1.443 . S
C105 H72 0.932 . S
C105 C100 1.388 . S
C105 C104 1.443 . S
C106 N86 1.433 . S
C106 C107 1.363 . S
C106 C111 1.370 . S
C107 H75 0.929 . S
C107 C106 1.363 . S
C107 C108 1.385 . S
C108 H76 0.930 . S
C108 C107 1.385 . S
C108 C109 1.357 . S
C109 C108 1.357 . S
C109 C110 1.406 . S
C110 H77 0.929 . S
C110 C109 1.406 . S
C110 C111 1.391 . S
C111 H78 0.931 . S
C111 C106 1.370 . S
C111 C110 1.391 . S
C112 N86 1.435 . S
C112 C113 1.358 . S
C112 C117 1.371 . S
C113 H79 0.930 . S
C113 C112 1.358 . S
C113 C114 1.405 . S
C114 H80 0.932 . S
C114 C113 1.405 . S
C114 C115 1.383 . S
C115 C114 1.383 . S
C115 C116 1.393 . S
C116 H81 0.931 . S
C116 C115 1.393 . S
C116 C117 1.382 . S
C117 H82 0.929 . S
C117 C112 1.371 . S
C117 C116 1.382 . S
C118 N86 1.423 . S
C118 C119 1.362 . S
C118 C123 1.388 . S
C119 H83 0.929 . S
C119 C118 1.362 . S
C119 C120 1.376 . S
C120 H84 0.931 . S
C120 C119 1.376 . S
C120 C121 1.396 . S
C121 C103 1.472 . S
C121 C120 1.396 . S
C121 C122 1.348 . S
C122 H85 0.929 . S
C122 C121 1.348 . S
C122 C123 1.443 . S
C123 H87 0.932 . S
C123 C118 1.388 . S
C123 C122 1.443 . S
H124 C151 0.929 . S
N125 C150 1.433 . S
N125 C156 1.435 . S
N125 C162 1.423 . S
H126 C152 0.930 . S
H127 C155 0.931 . S
H128 C154 0.929 . S
H129 C157 0.930 . S
H130 C158 0.932 . S
H131 C161 0.929 . S
H132 C160 0.931 . S
H133 C163 0.929 . S
H134 C167 0.932 . S
H135 C164 0.931 . S
H136 C166 0.929 . S
H137 C169 0.929 . S
H138 C170 0.930 . S
H139 C172 0.929 . S
H140 C173 0.931 . S
H141 C175 0.930 . S
H142 C176 0.932 . S
H143 C178 0.931 . S
H144 C179 0.929 . S
H145 C181 0.929 . S
H146 C182 0.931 . S
H147 C184 0.929 . S
N148 C168 1.433 . S
N148 C174 1.435 . S
N148 C180 1.423 . S
H149 C185 0.932 . S
C150 N125 1.433 . S
C150 C151 1.363 . S
C150 C155 1.370 . S
C151 H124 0.929 . S
C151 C150 1.363 . S
C151 C152 1.385 . S
C152 H126 0.930 . S
C152 C151 1.385 . S
C152 C153 1.357 . S
C153 C152 1.357 . S
C153 C154 1.406 . S
C154 H128 0.929 . S
C154 C153 1.406 . S
C154 C155 1.391 . S
C155 H127 0.931 . S
C155 C150 1.370 . S
C155 C154 1.391 . S
C156 N125 1.435 . S
C156 C157 1.358 . S
C156 C161 1.371 . S
C157 H129 0.930 . S
C157 C156 1.358 . S
C157 C158 1.405 . S
C158 H130 0.932 . S
C158 C157 1.405 . S
C158 C159 1.383 . S
C159 C158 1.383 . S
C159 C160 1.393 . S
C160 H132 0.931 . S
C160 C159 1.393 . S
C160 C161 1.382 . S
C161 H131 0.929 . S
C161 C156 1.371 . S
C161 C160 1.382 . S
C162 N125 1.423 . S
C162 C163 1.362 . S
C162 C167 1.388 . S
C163 H133 0.929 . S
C163 C162 1.362 . S
C163 C164 1.376 . S
C164 H135 0.931 . S
C164 C163 1.376 . S
C164 C165 1.396 . S
C165 C164 1.396 . S
C165 C166 1.348 . S
C165 C183 1.472 . S
C166 H136 0.929 . S
C166 C165 1.348 . S
C166 C167 1.443 . S
C167 H134 0.932 . S
C167 C162 1.388 . S
C167 C166 1.443 . S
C168 N148 1.433 . S
C168 C169 1.363 . S
C168 C173 1.370 . S
C169 H137 0.929 . S
C169 C168 1.363 . S
C169 C170 1.385 . S
C170 H138 0.930 . S
C170 C169 1.385 . S
C170 C171 1.357 . S
C171 C170 1.357 . S
C171 C172 1.406 . S
C172 H139 0.929 . S
C172 C171 1.406 . S
C172 C173 1.391 . S
C173 H140 0.931 . S
C173 C168 1.370 . S
C173 C172 1.391 . S
C174 N148 1.435 . S
C174 C175 1.358 . S
C174 C179 1.371 . S
C175 H141 0.930 . S
C175 C174 1.358 . S
C175 C176 1.405 . S
C176 H142 0.932 . S
C176 C175 1.405 . S
C176 C177 1.383 . S
C177 C176 1.383 . S
C177 C178 1.393 . S
C178 H143 0.931 . S
C178 C177 1.393 . S
C178 C179 1.382 . S
C179 H144 0.929 . S
C179 C174 1.371 . S
C179 C178 1.382 . S
C180 N148 1.423 . S
C180 C181 1.362 . S
C180 C185 1.388 . S
C181 H145 0.929 . S
C181 C180 1.362 . S
C181 C182 1.376 . S
C182 H146 0.931 . S
C182 C181 1.376 . S
C182 C183 1.396 . S
C183 C165 1.472 . S
C183 C182 1.396 . S
C183 C184 1.348 . S
C184 H147 0.929 . S
C184 C183 1.348 . S
C184 C185 1.443 . S
C185 H149 0.932 . S
C185 C180 1.388 . S
C185 C184 1.443 . S
H186 C213 0.929 . S
N187 C212 1.433 . S
N187 C218 1.435 . S
N187 C224 1.423 . S
H188 C214 0.930 . S
H189 C217 0.931 . S
H190 C216 0.929 . S
H191 C219 0.930 . S
H192 C220 0.932 . S
H193 C223 0.929 . S
H194 C222 0.931 . S
H195 C225 0.929 . S
H196 C229 0.932 . S
H197 C226 0.931 . S
H198 C228 0.929 . S
H199 C231 0.929 . S
H200 C232 0.930 . S
H201 C234 0.929 . S
H202 C235 0.931 . S
H203 C237 0.930 . S
H204 C238 0.932 . S
H205 C240 0.931 . S
H206 C241 0.929 . S
H207 C243 0.929 . S
H208 C244 0.931 1_565 S
H209 C246 0.929 . S
N210 C230 1.433 . S
N210 C236 1.435 . S
N210 C242 1.423 . S
H211 C247 0.932 . S
C212 N187 1.433 . S
C212 C213 1.363 . S
C212 C217 1.370 . S
C213 H186 0.929 . S
C213 C212 1.363 . S
C213 C214 1.385 . S
C214 H188 0.930 . S
C214 C213 1.385 . S
C214 C215 1.357 . S
C215 C214 1.357 . S
C215 C216 1.406 . S
C216 H190 0.929 . S
C216 C215 1.406 . S
C216 C217 1.391 . S
C217 H189 0.931 . S
C217 C212 1.370 . S
C217 C216 1.391 . S
C218 N187 1.435 . S
C218 C219 1.358 . S
C218 C223 1.371 . S
C219 H191 0.930 . S
C219 C218 1.358 . S
C219 C220 1.405 . S
C220 H192 0.932 . S
C220 C219 1.405 . S
C220 C221 1.383 1_554 S
C221 C220 1.383 1_556 S
C221 C222 1.393 . S
C222 H194 0.931 . S
C222 C221 1.393 . S
C222 C223 1.382 1_556 S
C223 H193 0.929 . S
C223 C218 1.371 . S
C223 C222 1.382 1_554 S
C224 N187 1.423 . S
C224 C225 1.362 . S
C224 C229 1.388 . S
C225 H195 0.929 . S
C225 C224 1.362 . S
C225 C226 1.376 . S
C226 H197 0.931 . S
C226 C225 1.376 . S
C226 C227 1.396 . S
C227 C226 1.396 . S
C227 C228 1.348 . S
C227 C245 1.472 1_565 S
C228 H198 0.929 . S
C228 C227 1.348 . S
C228 C229 1.443 . S
C229 H196 0.932 . S
C229 C224 1.388 . S
C229 C228 1.443 . S
C230 N210 1.433 . S
C230 C231 1.363 . S
C230 C235 1.370 . S
C231 H199 0.929 . S
C231 C230 1.363 . S
C231 C232 1.385 . S
C232 H200 0.930 . S
C232 C231 1.385 . S
C232 C233 1.357 . S
C233 C232 1.357 . S
C233 C234 1.406 . S
C234 H201 0.929 . S
C234 C233 1.406 . S
C234 C235 1.391 . S
C235 H202 0.931 . S
C235 C230 1.370 . S
C235 C234 1.391 . S
C236 N210 1.435 . S
C236 C237 1.358 . S
C236 C241 1.371 . S
C237 H203 0.930 . S
C237 C236 1.358 . S
C237 C238 1.405 . S
C238 H204 0.932 . S
C238 C237 1.405 . S
C238 C239 1.383 1_554 S
C239 C238 1.383 1_556 S
C239 C240 1.393 . S
C240 H205 0.931 . S
C240 C239 1.393 . S
C240 C241 1.382 1_556 S
C241 H206 0.929 . S
C241 C236 1.371 . S
C241 C240 1.382 1_554 S
C242 N210 1.423 . S
C242 C243 1.362 . S
C242 C247 1.388 . S
C243 H207 0.929 . S
C243 C242 1.362 . S
C243 C244 1.376 . S
C244 H208 0.931 1_545 S
C244 C243 1.376 . S
C244 C245 1.396 . S
C245 C227 1.472 1_545 S
C245 C244 1.396 . S
C245 C246 1.348 . S
C246 H209 0.929 . S
C246 C245 1.348 . S
C246 C247 1.443 . S
C247 H211 0.932 . S
C247 C242 1.388 . S
C247 C246 1.443 . S
H248 C275 0.929 . S
N249 C274 1.433 . S
N249 C280 1.435 . S
N249 C286 1.423 . S
H250 C276 0.930 . S
H251 C279 0.931 . S
H252 C278 0.929 . S
H253 C281 0.930 . S
H254 C282 0.932 . S
H255 C285 0.929 . S
H256 C284 0.931 . S
H257 C287 0.929 . S
H258 C291 0.932 . S
H259 C288 0.931 . S
H260 C290 0.929 . S
H261 C293 0.929 . S
H262 C294 0.930 . S
H263 C296 0.929 . S
H264 C297 0.931 . S
H265 C299 0.930 . S
H266 C300 0.932 . S
H267 C302 0.931 . S
H268 C303 0.929 . S
H269 C305 0.929 . S
H270 C306 0.931 1_455 S
H271 C308 0.929 . S
N272 C292 1.433 . S
N272 C298 1.435 . S
N272 C304 1.423 . S
H273 C309 0.932 . S
C274 N249 1.433 . S
C274 C275 1.363 . S
C274 C279 1.370 . S
C275 H248 0.929 . S
C275 C274 1.363 . S
C275 C276 1.385 . S
C276 H250 0.930 . S
C276 C275 1.385 . S
C276 C277 1.357 . S
C277 C276 1.357 . S
C277 C278 1.406 . S
C278 H252 0.929 . S
C278 C277 1.406 . S
C278 C279 1.391 . S
C279 H251 0.931 . S
C279 C274 1.370 . S
C279 C278 1.391 . S
C280 N249 1.435 . S
C280 C281 1.358 . S
C280 C285 1.371 1_556 S
C281 H253 0.930 . S
C281 C280 1.358 . S
C281 C282 1.405 1_556 S
C282 H254 0.932 . S
C282 C281 1.405 1_554 S
C282 C283 1.383 . S
C283 C282 1.383 . S
C283 C284 1.393 . S
C284 H256 0.931 . S
C284 C283 1.393 . S
C284 C285 1.382 . S
C285 H255 0.929 . S
C285 C280 1.371 1_554 S
C285 C284 1.382 . S
C286 N249 1.423 . S
C286 C287 1.362 . S
C286 C291 1.388 . S
C287 H257 0.929 . S
C287 C286 1.362 . S
C287 C288 1.376 . S
C288 H259 0.931 . S
C288 C287 1.376 . S
C288 C289 1.396 . S
C289 C288 1.396 . S
C289 C290 1.348 . S
C289 C307 1.472 . S
C290 H260 0.929 . S
C290 C289 1.348 . S
C290 C291 1.443 . S
C291 H258 0.932 . S
C291 C286 1.388 . S
C291 C290 1.443 . S
C292 N272 1.433 . S
C292 C293 1.363 . S
C292 C297 1.370 . S
C293 H261 0.929 . S
C293 C292 1.363 . S
C293 C294 1.385 . S
C294 H262 0.930 . S
C294 C293 1.385 . S
C294 C295 1.357 . S
C295 C294 1.357 . S
C295 C296 1.406 . S
C296 H263 0.929 . S
C296 C295 1.406 . S
C296 C297 1.391 . S
C297 H264 0.931 . S
C297 C292 1.370 . S
C297 C296 1.391 . S
C298 N272 1.435 . S
C298 C299 1.358 . S
C298 C303 1.371 . S
C299 H265 0.930 . S
C299 C298 1.358 . S
C299 C300 1.405 . S
C300 H266 0.932 . S
C300 C299 1.405 . S
C300 C301 1.383 1_556 S
C301 C300 1.383 1_554 S
C301 C302 1.393 . S
C302 H267 0.931 . S
C302 C301 1.393 . S
C302 C303 1.382 1_554 S
C303 H268 0.929 . S
C303 C298 1.371 . S
C303 C302 1.382 1_556 S
C304 N272 1.423 . S
C304 C305 1.362 . S
C304 C309 1.388 . S
C305 H269 0.929 . S
C305 C304 1.362 . S
C305 C306 1.376 . S
C306 H270 0.931 1_655 S
C306 C305 1.376 . S
C306 C307 1.396 1_655 S
C307 C289 1.472 . S
C307 C306 1.396 1_455 S
C307 C308 1.348 1_455 S
C308 H271 0.929 . S
C308 C307 1.348 1_655 S
C308 C309 1.443 . S
C309 H273 0.932 . S
C309 C304 1.388 . S
C309 C308 1.443 . S
H310 C337 0.929 . S
N311 C336 1.433 . S
N311 C342 1.435 . S
N311 C348 1.423 . S
H312 C338 0.930 . S
H313 C341 0.931 . S
H314 C340 0.929 . S
H315 C343 0.930 . S
H316 C344 0.932 . S
H317 C347 0.929 . S
H318 C346 0.931 . S
H319 C349 0.929 . S
H320 C353 0.932 . S
H321 C350 0.931 . S
H322 C352 0.929 . S
H323 C355 0.929 . S
H324 C356 0.930 . S
H325 C358 0.929 . S
H326 C359 0.931 . S
H327 C361 0.930 . S
H328 C362 0.932 . S
H329 C364 0.931 . S
H330 C365 0.929 . S
H331 C367 0.929 . S
H332 C368 0.931 . S
H333 C370 0.929 . S
N334 C354 1.433 . S
N334 C360 1.435 . S
N334 C366 1.423 . S
H335 C371 0.932 . S
C336 N311 1.433 . S
C336 C337 1.363 . S
C336 C341 1.370 . S
C337 H310 0.929 . S
C337 C336 1.363 . S
C337 C338 1.385 . S
C338 H312 0.930 . S
C338 C337 1.385 . S
C338 C339 1.357 . S
C339 C338 1.357 . S
C339 C340 1.406 . S
C340 H314 0.929 . S
C340 C339 1.406 . S
C340 C341 1.391 . S
C341 H313 0.931 . S
C341 C336 1.370 . S
C341 C340 1.391 . S
C342 N311 1.435 . S
C342 C343 1.358 . S
C342 C347 1.371 . S
C343 H315 0.930 . S
C343 C342 1.358 . S
C343 C344 1.405 . S
C344 H316 0.932 . S
C344 C343 1.405 . S
C344 C345 1.383 . S
C345 C344 1.383 . S
C345 C346 1.393 . S
C346 H318 0.931 . S
C346 C345 1.393 . S
C346 C347 1.382 . S
C347 H317 0.929 . S
C347 C342 1.371 . S
C347 C346 1.382 . S
C348 N311 1.423 . S
C348 C349 1.362 . S
C348 C353 1.388 . S
C349 H319 0.929 . S
C349 C348 1.362 . S
C349 C350 1.376 . S
C350 H321 0.931 . S
C350 C349 1.376 . S
C350 C351 1.396 . S
C351 C350 1.396 . S
C351 C352 1.348 . S
C351 C369 1.472 . S
C352 H322 0.929 . S
C352 C351 1.348 . S
C352 C353 1.443 . S
C353 H320 0.932 . S
C353 C348 1.388 . S
C353 C352 1.443 . S
C354 N334 1.433 . S
C354 C355 1.363 . S
C354 C359 1.370 . S
C355 H323 0.929 . S
C355 C354 1.363 . S
C355 C356 1.385 . S
C356 H324 0.930 . S
C356 C355 1.385 . S
C356 C357 1.357 . S
C357 C356 1.357 . S
C357 C358 1.406 . S
C358 H325 0.929 . S
C358 C357 1.406 . S
C358 C359 1.391 . S
C359 H326 0.931 . S
C359 C354 1.370 . S
C359 C358 1.391 . S
C360 N334 1.435 . S
C360 C361 1.358 . S
C360 C365 1.371 . S
C361 H327 0.930 . S
C361 C360 1.358 . S
C361 C362 1.405 . S
C362 H328 0.932 . S
C362 C361 1.405 . S
C362 C363 1.383 . S
C363 C362 1.383 . S
C363 C364 1.393 . S
C364 H329 0.931 . S
C364 C363 1.393 . S
C364 C365 1.382 . S
C365 H330 0.929 . S
C365 C360 1.371 . S
C365 C364 1.382 . S
C366 N334 1.423 . S
C366 C367 1.362 . S
C366 C371 1.388 . S
C367 H331 0.929 . S
C367 C366 1.362 . S
C367 C368 1.376 . S
C368 H332 0.931 . S
C368 C367 1.376 . S
C368 C369 1.396 . S
C369 C351 1.472 . S
C369 C368 1.396 . S
C369 C370 1.348 . S
C370 H333 0.929 . S
C370 C369 1.348 . S
C370 C371 1.443 . S
C371 H335 0.932 . S
C371 C366 1.388 . S
C371 C370 1.443 . S
H372 C399 0.929 . S
N373 C398 1.433 . S
N373 C404 1.435 . S
N373 C410 1.423 . S
H374 C400 0.930 . S
H375 C403 0.931 . S
H376 C402 0.929 . S
H377 C405 0.930 . S
H378 C406 0.932 . S
H379 C409 0.929 . S
H380 C408 0.931 . S
H381 C411 0.929 . S
H382 C415 0.932 . S
H383 C412 0.931 . S
H384 C414 0.929 . S
H385 C417 0.929 . S
H386 C418 0.930 . S
H387 C420 0.929 . S
H388 C421 0.931 . S
H389 C423 0.930 . S
H390 C424 0.932 . S
H391 C426 0.931 . S
H392 C427 0.929 . S
H393 C429 0.929 . S
H394 C430 0.931 . S
H395 C432 0.929 . S
N396 C416 1.433 . S
N396 C422 1.435 . S
N396 C428 1.423 . S
H397 C433 0.932 . S
C398 N373 1.433 . S
C398 C399 1.363 . S
C398 C403 1.370 . S
C399 H372 0.929 . S
C399 C398 1.363 . S
C399 C400 1.385 . S
C400 H374 0.930 . S
C400 C399 1.385 . S
C400 C401 1.357 . S
C401 C400 1.357 . S
C401 C402 1.406 . S
C402 H376 0.929 . S
C402 C401 1.406 . S
C402 C403 1.391 . S
C403 H375 0.931 . S
C403 C398 1.370 . S
C403 C402 1.391 . S
C404 N373 1.435 . S
C404 C405 1.358 . S
C404 C409 1.371 . S
C405 H377 0.930 . S
C405 C404 1.358 . S
C405 C406 1.405 . S
C406 H378 0.932 . S
C406 C405 1.405 . S
C406 C407 1.383 . S
C407 C406 1.383 . S
C407 C408 1.393 . S
C408 H380 0.931 . S
C408 C407 1.393 . S
C408 C409 1.382 . S
C409 H379 0.929 . S
C409 C404 1.371 . S
C409 C408 1.382 . S
C410 N373 1.423 . S
C410 C411 1.362 . S
C410 C415 1.388 . S
C411 H381 0.929 . S
C411 C410 1.362 . S
C411 C412 1.376 1_565 S
C412 H383 0.931 . S
C412 C411 1.376 1_545 S
C412 C413 1.396 . S
C413 C412 1.396 . S
C413 C414 1.348 1_545 S
C413 C431 1.472 . S
C414 H384 0.929 . S
C414 C413 1.348 1_565 S
C414 C415 1.443 . S
C415 H382 0.932 . S
C415 C410 1.388 . S
C415 C414 1.443 . S
C416 N396 1.433 . S
C416 C417 1.363 . S
C416 C421 1.370 . S
C417 H385 0.929 . S
C417 C416 1.363 . S
C417 C418 1.385 . S
C418 H386 0.930 . S
C418 C417 1.385 . S
C418 C419 1.357 . S
C419 C418 1.357 . S
C419 C420 1.406 . S
C420 H387 0.929 . S
C420 C419 1.406 . S
C420 C421 1.391 . S
C421 H388 0.931 . S
C421 C416 1.370 . S
C421 C420 1.391 . S
C422 N396 1.435 . S
C422 C423 1.358 . S
C422 C427 1.371 . S
C423 H389 0.930 . S
C423 C422 1.358 . S
C423 C424 1.405 . S
C424 H390 0.932 . S
C424 C423 1.405 . S
C424 C425 1.383 . S
C425 C424 1.383 . S
C425 C426 1.393 . S
C426 H391 0.931 . S
C426 C425 1.393 . S
C426 C427 1.382 . S
C427 H392 0.929 . S
C427 C422 1.371 . S
C427 C426 1.382 . S
C428 N396 1.423 . S
C428 C429 1.362 . S
C428 C433 1.388 . S
C429 H393 0.929 . S
C429 C428 1.362 . S
C429 C430 1.376 . S
C430 H394 0.931 . S
C430 C429 1.376 . S
C430 C431 1.396 . S
C431 C413 1.472 . S
C431 C430 1.396 . S
C431 C432 1.348 . S
C432 H395 0.929 . S
C432 C431 1.348 . S
C432 C433 1.443 . S
C433 H397 0.932 . S
C433 C428 1.388 . S
C433 C432 1.443 . S
H434 C461 0.929 . S
N435 C460 1.433 . S
N435 C466 1.435 . S
N435 C472 1.423 . S
H436 C462 0.930 . S
H437 C465 0.931 . S
H438 C464 0.929 . S
H439 C467 0.930 . S
H440 C468 0.932 . S
H441 C471 0.929 . S
H442 C470 0.931 . S
H443 C473 0.929 . S
H444 C477 0.932 . S
H445 C474 0.931 1_655 S
H446 C476 0.947 . S
H447 C479 0.929 . S
H448 C480 0.930 . S
H449 C482 0.929 . S
H450 C483 0.931 . S
H451 C485 0.930 . S
H452 C486 0.932 . S
H453 C488 0.931 . S
H454 C489 0.929 . S
H455 C491 0.929 . S
H456 C492 0.931 . S
H457 C494 0.929 1_455 S
N458 C478 1.433 . S
N458 C484 1.435 . S
N458 C490 1.423 . S
H459 C495 0.932 . S
C460 N435 1.433 . S
C460 C461 1.363 . S
C460 C465 1.370 . S
C461 H434 0.929 . S
C461 C460 1.363 . S
C461 C462 1.385 . S
C462 H436 0.930 . S
C462 C461 1.385 . S
C462 C463 1.357 . S
C463 C462 1.357 . S
C463 C464 1.406 . S
C464 H438 0.929 . S
C464 C463 1.406 . S
C464 C465 1.391 . S
C465 H437 0.931 . S
C465 C460 1.370 . S
C465 C464 1.391 . S
C466 N435 1.435 . S
C466 C467 1.358 . S
C466 C471 1.371 . S
C467 H439 0.930 . S
C467 C466 1.358 . S
C467 C468 1.405 . S
C468 H440 0.932 . S
C468 C467 1.405 . S
C468 C469 1.383 . S
C469 C468 1.383 . S
C469 C470 1.393 . S
C470 H442 0.931 . S
C470 C469 1.393 . S
C470 C471 1.382 . S
C471 H441 0.929 . S
C471 C466 1.371 . S
C471 C470 1.382 . S
C472 N435 1.423 . S
C472 C473 1.362 . S
C472 C477 1.388 . S
C473 H443 0.929 . S
C473 C472 1.362 . S
C473 C474 1.376 . S
C474 H445 0.931 1_455 S
C474 C473 1.376 . S
C474 C475 1.396 1_565 S
C475 C474 1.396 1_545 S
C475 C476 1.351 . S
C475 C493 1.472 1_455 S
C476 H446 0.947 . S
C476 C475 1.351 . S
C476 C477 1.423 1_545 S
C477 H444 0.932 . S
C477 C472 1.388 . S
C477 C476 1.423 1_565 S
C478 N458 1.433 . S
C478 C479 1.363 . S
C478 C483 1.370 . S
C479 H447 0.929 . S
C479 C478 1.363 . S
C479 C480 1.385 . S
C480 H448 0.930 . S
C480 C479 1.385 . S
C480 C481 1.357 . S
C481 C480 1.357 . S
C481 C482 1.406 . S
C482 H449 0.929 . S
C482 C481 1.406 . S
C482 C483 1.391 . S
C483 H450 0.931 . S
C483 C478 1.370 . S
C483 C482 1.391 . S
C484 N458 1.435 . S
C484 C485 1.358 . S
C484 C489 1.371 . S
C485 H451 0.930 . S
C485 C484 1.358 . S
C485 C486 1.405 . S
C486 H452 0.932 . S
C486 C485 1.405 . S
C486 C487 1.383 . S
C487 C486 1.383 . S
C487 C488 1.393 . S
C488 H453 0.931 . S
C488 C487 1.393 . S
C488 C489 1.382 . S
C489 H454 0.929 . S
C489 C484 1.371 . S
C489 C488 1.382 . S
C490 N458 1.423 . S
C490 C491 1.362 . S
C490 C495 1.388 . S
C491 H455 0.929 . S
C491 C490 1.362 . S
C491 C492 1.376 . S
C492 H456 0.931 . S
C492 C491 1.376 . S
C492 C493 1.396 . S
C493 C475 1.472 1_655 S
C493 C492 1.396 . S
C493 C494 1.348 . S
C494 H457 0.929 1_655 S
C494 C493 1.348 . S
C494 C495 1.443 . S
C495 H459 0.932 . S
C495 C490 1.388 . S
C495 C494 1.443 . S
Zn496 O499 2.031 . S
Zn496 O501 2.049 . S
Zn496 O506 2.067 . S
Zn497 O498 1.962 . S
Zn497 O500 1.986 . S
Zn497 O502 1.996 . S
Zn497 O505 1.943 1_554 S
O498 Zn497 1.962 . S
O498 C503 1.254 1_554 S
O499 Zn496 2.031 . S
O499 C503 1.269 . S
O500 Zn497 1.986 . S
O500 C507 1.262 . S
O501 Zn496 2.049 . S
O501 C509 1.260 1_556 S
O502 Zn497 1.996 . S
O502 C509 1.257 . S
C503 O498 1.254 1_556 S
C503 O499 1.269 . S
C504 O505 1.249 . S
C504 O506 1.270 . S
O505 Zn497 1.943 1_556 S
O505 C504 1.249 . S
O506 Zn496 2.067 . S
O506 C504 1.270 . S
C507 O500 1.262 . S
C507 O508 1.232 . S
O508 C507 1.232 . S
C509 O501 1.260 1_554 S
C509 O502 1.257 . S
Zn510 O513 2.031 . S
Zn510 O515 2.049 . S
Zn510 O520 2.067 . S
Zn511 O512 1.962 . S
Zn511 O514 1.986 . S
Zn511 O516 1.996 . S
Zn511 O519 1.943 . S
O512 Zn511 1.962 . S
O512 C517 1.254 . S
O513 Zn510 2.031 . S
O513 C517 1.269 . S
O514 Zn511 1.986 . S
O514 C521 1.262 . S
O515 Zn510 2.049 . S
O515 C523 1.260 . S
O516 Zn511 1.996 . S
O516 C523 1.257 . S
C517 O512 1.254 . S
C517 O513 1.269 . S
C518 O519 1.249 . S
C518 O520 1.270 . S
O519 Zn511 1.943 . S
O519 C518 1.249 . S
O520 Zn510 2.067 . S
O520 C518 1.270 . S
C521 O514 1.262 . S
C521 O522 1.232 . S
O522 C521 1.232 . S
C523 O515 1.260 . S
C523 O516 1.257 . S
Zn524 O527 2.031 . S
Zn524 O529 2.049 . S
Zn524 O534 2.067 . S
Zn525 O526 1.962 . S
Zn525 O528 1.986 . S
Zn525 O530 1.996 . S
Zn525 O533 1.943 . S
O526 Zn525 1.962 . S
O526 C531 1.254 . S
O527 Zn524 2.031 . S
O527 C531 1.269 . S
O528 Zn525 1.986 . S
O528 C535 1.262 . S
O529 Zn524 2.049 . S
O529 C537 1.260 . S
O530 Zn525 1.996 . S
O530 C537 1.257 . S
C531 O526 1.254 . S
C531 O527 1.269 . S
C532 O533 1.249 . S
C532 O534 1.270 . S
O533 Zn525 1.943 . S
O533 C532 1.249 . S
O534 Zn524 2.067 . S
O534 C532 1.270 . S
C535 O528 1.262 . S
C535 O536 1.232 . S
O536 C535 1.232 . S
C537 O529 1.260 . S
C537 O530 1.257 . S
Zn538 O541 2.031 . S
Zn538 O543 2.049 . S
Zn538 O548 2.067 . S
Zn539 O540 1.962 . S
Zn539 O542 1.986 . S
Zn539 O544 1.996 . S
Zn539 O547 1.943 . S
O540 Zn539 1.962 . S
O540 C545 1.254 . S
O541 Zn538 2.031 . S
O541 C545 1.269 . S
O542 Zn539 1.986 . S
O542 C549 1.262 . S
O543 Zn538 2.049 . S
O543 C551 1.260 . S
O544 Zn539 1.996 . S
O544 C551 1.257 . S
C545 O540 1.254 . S
C545 O541 1.269 . S
C546 O547 1.249 . S
C546 O548 1.270 . S
O547 Zn539 1.943 . S
O547 C546 1.249 . S
O548 Zn538 2.067 . S
O548 C546 1.270 . S
C549 O542 1.262 . S
C549 O550 1.232 . S
O550 C549 1.232 . S
C551 O543 1.260 . S
C551 O544 1.257 . S
Zn552 O555 2.031 . S
Zn552 O557 2.049 . S
Zn552 O562 2.067 . S
Zn553 O554 1.962 . S
Zn553 O556 1.986 . S
Zn553 O558 1.996 . S
Zn553 O561 1.943 . S
O554 Zn553 1.962 . S
O554 C559 1.254 . S
O555 Zn552 2.031 . S
O555 C559 1.269 . S
O556 Zn553 1.986 . S
O556 C563 1.262 . S
O557 Zn552 2.049 . S
O557 C565 1.260 . S
O558 Zn553 1.996 . S
O558 C565 1.257 . S
C559 O554 1.254 . S
C559 O555 1.269 . S
C560 O561 1.249 . S
C560 O562 1.270 . S
O561 Zn553 1.943 . S
O561 C560 1.249 . S
O562 Zn552 2.067 . S
O562 C560 1.270 . S
C563 O556 1.262 . S
C563 O564 1.232 . S
O564 C563 1.232 . S
C565 O557 1.260 . S
C565 O558 1.257 . S
Zn566 O569 2.031 . S
Zn566 O571 2.049 . S
Zn566 O576 2.067 . S
Zn567 O568 1.962 . S
Zn567 O570 1.986 . S
Zn567 O572 1.996 . S
Zn567 O575 1.943 . S
O568 Zn567 1.962 . S
O568 C573 1.254 . S
O569 Zn566 2.031 . S
O569 C573 1.269 . S
O570 Zn567 1.986 . S
O570 C577 1.262 . S
O571 Zn566 2.049 . S
O571 C579 1.260 . S
O572 Zn567 1.996 . S
O572 C579 1.257 . S
C573 O568 1.254 . S
C573 O569 1.269 . S
C574 O575 1.249 . S
C574 O576 1.270 . S
O575 Zn567 1.943 . S
O575 C574 1.249 . S
O576 Zn566 2.067 . S
O576 C574 1.270 . S
C577 O570 1.262 . S
C577 O578 1.232 . S
O578 C577 1.232 . S
C579 O571 1.260 . S
C579 O572 1.257 . S
Zn580 O583 2.031 . S
Zn580 O585 2.049 . S
Zn580 O590 2.067 . S
Zn581 O582 1.962 . S
Zn581 O584 1.986 . S
Zn581 O586 1.996 . S
Zn581 O589 1.943 1_556 S
O582 Zn581 1.962 . S
O582 C587 1.254 1_556 S
O583 Zn580 2.031 . S
O583 C587 1.269 . S
O584 Zn581 1.986 . S
O584 C591 1.262 . S
O585 Zn580 2.049 . S
O585 C593 1.260 . S
O586 Zn581 1.996 . S
O586 C593 1.257 1_556 S
C587 O582 1.254 1_554 S
C587 O583 1.269 . S
C588 O589 1.249 . S
C588 O590 1.270 . S
O589 Zn581 1.943 1_554 S
O589 C588 1.249 . S
O590 Zn580 2.067 . S
O590 C588 1.270 . S
C591 O584 1.262 . S
C591 O592 1.232 . S
O592 C591 1.232 . S
C593 O585 1.260 . S
C593 O586 1.257 1_554 S
Zn594 O597 2.031 . S
Zn594 O599 2.049 . S
Zn594 O604 2.067 . S
Zn595 O596 1.962 . S
Zn595 O598 1.986 . S
Zn595 O600 1.996 . S
Zn595 O603 1.943 . S
O596 Zn595 1.962 . S
O596 C601 1.254 . S
O597 Zn594 2.031 . S
O597 C601 1.269 . S
O598 Zn595 1.986 . S
O598 C605 1.262 . S
O599 Zn594 2.049 . S
O599 C607 1.260 . S
O600 Zn595 1.996 . S
O600 C607 1.257 . S
C601 O596 1.254 . S
C601 O597 1.269 . S
C602 O603 1.249 . S
C602 O604 1.270 . S
O603 Zn595 1.943 . S
O603 C602 1.249 . S
O604 Zn594 2.067 . S
O604 C602 1.270 . S
C605 O598 1.262 . S
C605 O606 1.232 . S
O606 C605 1.232 . S
C607 O599 1.260 . S
C607 O600 1.257 . S
C517 C35 1.874 . S
C537 C115 1.571 . S
C551 C177 1.621 . S
C221 C509 1.804 1_556 S
C283 C503 2.412 1_554 S
C363 C523 1.813 . S
C531 C407 1.873 . S
C545 C469 2.238 . S
C159 C573 2.238 . S
C587 C239 1.902 1_554 S
C53 C607 1.813 . S
C559 C97 2.412 . S
C425 C565 1.803 . S
C487 C579 1.621 . S
C593 C301 1.571 . S
C345 C601 1.873 . S
C532 C29 2.912 . S
C546 C109 2.805 . S
C171 C504 2.662 . S
C215 C521 2.419 . S
C277 C549 2.278 . S
C507 C357 2.151 . S
C518 C401 2.774 . S
C535 C463 2.405 . S
C591 C153 2.405 . S
C602 C233 2.644 . S
C47 C563 2.151 . S
C577 C91 2.279 . S
C605 C419 2.265 . S
C481 C560 2.663 . S
C574 C295 2.806 . S
C588 C339 2.911 . S
