# Generated by pormake.
# Topology zzz, (3,6)-cn, num edge types: 1
# Building blocks:
#     Node 0, Type 0, BuildingBlock: MIDCAF_clean_linker_0, # of connection points: 3
#     Node 1, Type 0, BuildingBlock: MIDCAF_clean_linker_0, # of connection points: 3
#     Node 2, Type 0, BuildingBlock: MIDCAF_clean_linker_0, # of connection points: 3
#     Node 3, Type 0, BuildingBlock: MIDCAF_clean_linker_0, # of connection points: 3
#     Node 4, Type 0, BuildingBlock: MIDCAF_clean_linker_0, # of connection points: 3
#     Node 5, Type 0, BuildingBlock: MIDCAF_clean_linker_0, # of connection points: 3
#     Node 6, Type 0, BuildingBlock: MIDCAF_clean_linker_0, # of connection points: 3
#     Node 7, Type 0, BuildingBlock: MIDCAF_clean_linker_0, # of connection points: 3
#     Node 8, Type 1, BuildingBlock: BETDEL_clean_sbu_0, # of connection points: 6
#     Node 9, Type 1, BuildingBlock: BETDEL_clean_sbu_0, # of connection points: 6
#     Node 10, Type 1, BuildingBlock: BETDEL_clean_sbu_0, # of connection points: 6
#     Node 11, Type 1, BuildingBlock: BETDEL_clean_sbu_0, # of connection points: 6
#     Edge 12, Type (0, 1), BuildingBlock: TEMPAE_clean_linker_10, # of connection points: 2
#     Edge 13, Type (0, 1), BuildingBlock: TEMPAE_clean_linker_10, # of connection points: 2
#     Edge 14, Type (0, 1), BuildingBlock: TEMPAE_clean_linker_10, # of connection points: 2
#     Edge 15, Type (0, 1), BuildingBlock: TEMPAE_clean_linker_10, # of connection points: 2
#     Edge 16, Type (0, 1), BuildingBlock: TEMPAE_clean_linker_10, # of connection points: 2
#     Edge 17, Type (0, 1), BuildingBlock: TEMPAE_clean_linker_10, # of connection points: 2
#     Edge 18, Type (0, 1), BuildingBlock: TEMPAE_clean_linker_10, # of connection points: 2
#     Edge 19, Type (0, 1), BuildingBlock: TEMPAE_clean_linker_10, # of connection points: 2
#     Edge 20, Type (0, 1), BuildingBlock: TEMPAE_clean_linker_10, # of connection points: 2
#     Edge 21, Type (0, 1), BuildingBlock: TEMPAE_clean_linker_10, # of connection points: 2
#     Edge 22, Type (0, 1), BuildingBlock: TEMPAE_clean_linker_10, # of connection points: 2
#     Edge 23, Type (0, 1), BuildingBlock: TEMPAE_clean_linker_10, # of connection points: 2
#     Edge 24, Type (0, 1), BuildingBlock: TEMPAE_clean_linker_10, # of connection points: 2
#     Edge 25, Type (0, 1), BuildingBlock: TEMPAE_clean_linker_10, # of connection points: 2
#     Edge 26, Type (0, 1), BuildingBlock: TEMPAE_clean_linker_10, # of connection points: 2
#     Edge 27, Type (0, 1), BuildingBlock: TEMPAE_clean_linker_10, # of connection points: 2
#     Edge 28, Type (0, 1), BuildingBlock: TEMPAE_clean_linker_10, # of connection points: 2
#     Edge 29, Type (0, 1), BuildingBlock: TEMPAE_clean_linker_10, # of connection points: 2
#     Edge 30, Type (0, 1), BuildingBlock: TEMPAE_clean_linker_10, # of connection points: 2
#     Edge 31, Type (0, 1), BuildingBlock: TEMPAE_clean_linker_10, # of connection points: 2
#     Edge 32, Type (0, 1), BuildingBlock: TEMPAE_clean_linker_10, # of connection points: 2
#     Edge 33, Type (0, 1), BuildingBlock: TEMPAE_clean_linker_10, # of connection points: 2
#     Edge 34, Type (0, 1), BuildingBlock: TEMPAE_clean_linker_10, # of connection points: 2
#     Edge 35, Type (0, 1), BuildingBlock: TEMPAE_clean_linker_10, # of connection points: 2
# Relax obj value: 0.337
# Max RMSD: 0.229
# Mean RMSD: 0.211
data_MOF--net-zzz--node1-BETDEL_clean_sbu_0--node2-MIDCAF_clean_linker_0--edge1-TEMPAE_clean_linker_10
_symmetry_space_group_name_H-M    P1
_symmetry_Int_Tables_number       1
_symmetry_cell_setting            triclinic
loop_
_symmetry_equiv_pos_as_xyz
'x, y, z'
_cell_length_a     56.953148
_cell_length_b     56.743497
_cell_length_c     20.0862
_cell_angle_alpha  91.077317
_cell_angle_beta   89.539908
_cell_angle_gamma 95.952257
loop_
_atom_site_label
_atom_site_type_symbol
_atom_site_fract_x
_atom_site_fract_y
_atom_site_fract_z
_atom_type_partial_charge
C0 C 0.80465 0.45768 0.22237 0.0
C1 C 0.8138 0.48171 0.22353 0.0
C2 C 0.80367 0.49718 0.18021 0.0
C3 C 0.78647 0.48842 0.13339 0.0
H4 H 0.71525 0.48824 0.99886 0.0
H5 H 0.68119 0.49812 0.93384 0.0
H6 H 0.68778 0.43732 0.80532 0.0
H7 H 0.7208 0.42735 0.86903 0.0
H8 H 0.7791 0.41922 0.84881 0.0
H9 H 0.81341 0.4047 0.79727 0.0
H10 H 0.83359 0.37827 0.98692 0.0
H11 H 0.79974 0.39426 0.03923 0.0
H12 H 0.78217 0.43019 0.17424 0.0
H13 H 0.81192 0.44491 0.25347 0.0
H14 H 0.80976 0.51589 0.18029 0.0
H15 H 0.78052 0.50034 0.09713 0.0
N16 N 0.74952 0.46087 0.03567 0.0
N17 N 0.75353 0.4324 0.95046 0.0
N18 N 0.77912 0.43492 0.04059 0.0
C19 C 0.74176 0.45007 0.97696 0.0
C20 C 0.77206 0.42466 0.98203 0.0
C21 C 0.76824 0.45293 0.06789 0.0
C22 C 0.72093 0.45696 0.93975 0.0
C23 C 0.70932 0.47698 0.95689 0.0
C24 C 0.68989 0.4827 0.91944 0.0
C25 C 0.68157 0.46836 0.86469 0.0
C26 C 0.69332 0.44853 0.84779 0.0
C27 C 0.71255 0.44293 0.8845 0.0
C28 C 0.78721 0.40853 0.94831 0.0
C29 C 0.79037 0.40956 0.87909 0.0
C30 C 0.81013 0.40104 0.8494 0.0
C31 C 0.82684 0.39095 0.88833 0.0
C32 C 0.82158 0.38673 0.95589 0.0
C33 C 0.80211 0.39575 0.98583 0.0
C34 C 0.77896 0.46407 0.12937 0.0
C35 C 0.78745 0.4491 0.17647 0.0
C36 C 0.95014 0.77232 0.32839 0.0
C37 C 0.97231 0.78583 0.3317 0.0
C38 C 0.99057 0.77922 0.28983 0.0
C39 C 0.98588 0.76181 0.24014 0.0
H40 H 0.9822 0.68662 0.0988 0.0
H41 H 0.98858 0.65046 0.0352 0.0
H42 H 0.93679 0.6666 0.89187 0.0
H43 H 0.93064 0.70272 0.95436 0.0
H44 H 0.95765 0.76955 0.9308 0.0
H45 H 0.96443 0.80895 0.88251 0.0
H46 H 0.93316 0.83917 0.05649 0.0
H47 H 0.92637 0.8 0.1047 0.0
H48 H 0.9274 0.74733 0.27108 0.0
H49 H 0.93584 0.77638 0.36109 0.0
H50 H 0.00786 0.78914 0.29043 0.0
H51 H 0.9995 0.75922 0.20352 0.0
N52 N 0.95827 0.72373 0.13219 0.0
N53 N 0.94705 0.73903 0.03003 0.0
N54 N 0.94883 0.76287 0.12616 0.0
C55 C 0.95338 0.72053 0.06589 0.0
C56 C 0.94468 0.76027 0.06025 0.0
C57 C 0.95551 0.74494 0.16237 0.0
C58 C 0.95602 0.69761 0.03139 0.0
C59 C 0.972 0.68228 0.05414 0.0
C60 C 0.97572 0.66166 0.01769 0.0
C61 C 0.96314 0.65573 0.95874 0.0
C62 C 0.94657 0.67061 0.93745 0.0
C63 C 0.94319 0.69139 0.97303 0.0
C64 C 0.94189 0.78177 0.02202 0.0
C65 C 0.9514 0.78446 0.95754 0.0
C66 C 0.95537 0.80703 0.93003 0.0
C67 C 0.94983 0.82712 0.96666 0.0
C68 C 0.93807 0.82403 0.02795 0.0
C69 C 0.93408 0.80158 0.05528 0.0
C70 C 0.96286 0.75092 0.23092 0.0
C71 C 0.94539 0.75521 0.27788 0.0
C72 C 0.71534 0.01489 0.29225 0.0
C73 C 0.70097 0.99362 0.2798 0.0
C74 C 0.70722 0.97868 0.22717 0.0
C75 C 0.72634 0.98572 0.18499 0.0
H76 H 0.79294 0.97755 0.01728 0.0
H77 H 0.82647 0.96773 0.94751 0.0
H78 H 0.85736 0.04032 0.96432 0.0
H79 H 0.82381 0.0501 0.03209 0.0
H80 H 0.75927 0.0584 0.92164 0.0
H81 H 0.72983 0.07383 0.85185 0.0
H82 H 0.68865 0.08808 0.02664 0.0
H83 H 0.71785 0.07235 0.09658 0.0
H84 H 0.7436 0.03948 0.25684 0.0
H85 H 0.71091 0.02691 0.33184 0.0
H86 H 0.69656 0.96212 0.21656 0.0
H87 H 0.72962 0.97476 0.14183 0.0
N88 N 0.77295 0.01108 0.11311 0.0
N89 N 0.77404 0.03988 0.02965 0.0
N90 N 0.74349 0.03712 0.10813 0.0
C91 C 0.78391 0.022 0.05942 0.0
C92 C 0.75375 0.04744 0.05351 0.0
C93 C 0.75286 0.01915 0.13832 0.0
C94 C 0.80595 0.01452 0.03034 0.0
C95 C 0.80727 0.99116 0.00744 0.0
C96 C 0.8263 0.98562 0.96712 0.0
C97 C 0.84453 0.00328 0.95045 0.0
C98 C 0.84375 0.02629 0.97679 0.0
C99 C 0.82455 0.0319 0.01556 0.0
C100 C 0.74053 0.06349 0.01448 0.0
C101 C 0.7444 0.06562 0.94551 0.0
C102 C 0.72755 0.07456 0.90542 0.0
C103 C 0.7067 0.08161 0.93378 0.0
C104 C 0.70436 0.08229 0.00343 0.0
C105 C 0.72109 0.07327 0.04343 0.0
C106 C 0.73937 0.00789 0.19436 0.0
C107 C 0.73416 0.02205 0.24954 0.0
C108 C 0.59993 0.6808 0.05265 0.0
C109 C 0.59981 0.6803 0.9827 0.0
C110 C 0.60083 0.70199 0.94914 0.0
C111 C 0.59885 0.7232 0.98446 0.0
H112 H 0.57193 0.7854 0.9561 0.0
H113 H 0.56374 0.81962 0.89369 0.0
H114 H 0.54707 0.85584 0.07648 0.0
H115 H 0.55461 0.82091 0.13954 0.0
H116 H 0.52108 0.75106 0.22257 0.0
H117 H 0.50407 0.72109 0.29996 0.0
H118 H 0.57439 0.71065 0.36543 0.0
H119 H 0.59075 0.74119 0.29147 0.0
H120 H 0.59711 0.70123 0.14158 0.0
H121 H 0.59913 0.66465 0.08076 0.0
H122 H 0.60169 0.70245 0.89531 0.0
H123 H 0.59773 0.73926 0.95687 0.0
N124 N 0.582 0.76289 0.05872 0.0
N125 N 0.56201 0.77546 0.15424 0.0
N126 N 0.58014 0.7402 0.15432 0.0
C127 C 0.56977 0.7793 0.09032 0.0
C128 C 0.56763 0.75591 0.18656 0.0
C129 C 0.58728 0.74328 0.09062 0.0
C130 C 0.56409 0.80038 0.05312 0.0
C131 C 0.56656 0.80061 0.98339 0.0
C132 C 0.562 0.82039 0.9474 0.0
C133 C 0.55508 0.84073 0.97993 0.0
C134 C 0.55225 0.84046 0.04968 0.0
C135 C 0.55664 0.82046 0.08589 0.0
C136 C 0.55722 0.74834 0.251 0.0
C137 C 0.53265 0.74337 0.25675 0.0
C138 C 0.52299 0.72572 0.29996 0.0
C139 C 0.53782 0.71266 0.33754 0.0
C140 C 0.56219 0.72008 0.33782 0.0
C141 C 0.57171 0.73781 0.29542 0.0
C142 C 0.59628 0.72312 0.05405 0.0
C143 C 0.59849 0.70197 0.08783 0.0
C144 C 0.22653 0.52942 0.85079 0.0
C145 C 0.20877 0.51096 0.86418 0.0
C146 C 0.2111 0.49717 0.92089 0.0
C147 C 0.22931 0.50341 0.96677 0.0
H148 H 0.30813 0.5038 0.09642 0.0
H149 H 0.33918 0.4938 0.17249 0.0
H150 H 0.33201 0.55783 0.28676 0.0
H151 H 0.30159 0.56775 0.21271 0.0
H152 H 0.25653 0.59235 0.21119 0.0
H153 H 0.22524 0.61043 0.27023 0.0
H154 H 0.18094 0.59936 0.0963 0.0
H155 H 0.21232 0.58261 0.03676 0.0
H156 H 0.2566 0.55139 0.88796 0.0
H157 H 0.22551 0.54015 0.80708 0.0
H158 H 0.1977 0.48289 0.93284 0.0
H159 H 0.22913 0.49416 0.01351 0.0
N160 N 0.27457 0.52992 0.05037 0.0
N161 N 0.27036 0.56138 0.12637 0.0
N162 N 0.24501 0.55542 0.03598 0.0
C163 C 0.28209 0.54275 0.10621 0.0
C164 C 0.25186 0.56784 0.0917 0.0
C165 C 0.25608 0.53668 0.01471 0.0
C166 C 0.30199 0.53646 0.14839 0.0
C167 C 0.31328 0.51575 0.13763 0.0
C168 C 0.33109 0.51004 0.18114 0.0
C169 C 0.3378 0.52482 0.23646 0.0
C170 C 0.32693 0.54572 0.24578 0.0
C171 C 0.30942 0.55145 0.20265 0.0
C172 C 0.23658 0.58512 0.12014 0.0
C173 C 0.24041 0.59457 0.18481 0.0
C174 C 0.22242 0.60485 0.21881 0.0
C175 C 0.20022 0.60556 0.189 0.0
C176 C 0.19766 0.59907 0.12134 0.0
C177 C 0.2157 0.58911 0.08718 0.0
C178 C 0.24558 0.5234 0.95646 0.0
C179 C 0.24465 0.53558 0.89648 0.0
C180 C 0.08332 0.22013 0.79978 0.0
C181 C 0.06039 0.21641 0.77334 0.0
C182 C 0.04404 0.23245 0.79183 0.0
C183 C 0.04941 0.24947 0.8425 0.0
H184 H 0.04375 0.3184 0.98881 0.0
H185 H 0.0373 0.35635 0.04377 0.0
H186 H 0.08351 0.3411 0.20304 0.0
H187 H 0.08949 0.30327 0.1495 0.0
H188 H 0.05192 0.23801 0.17756 0.0
H189 H 0.03989 0.20003 0.23071 0.0
H190 H 0.07839 0.16395 0.08117 0.0
H191 H 0.09063 0.20154 0.0287 0.0
H192 H 0.10556 0.23771 0.8745 0.0
H193 H 0.09647 0.20827 0.78743 0.0
H194 H 0.02644 0.23062 0.77114 0.0
H195 H 0.03556 0.25953 0.86152 0.0
N196 N 0.06939 0.27972 0.96959 0.0
N197 N 0.07094 0.26566 0.07934 0.0
N198 N 0.07457 0.23996 0.98879 0.0
C199 C 0.06928 0.2839 0.0369 0.0
C200 C 0.07357 0.2436 0.05524 0.0
C201 C 0.07254 0.25762 0.94577 0.0
C202 C 0.067 0.30785 0.06513 0.0
C203 C 0.05273 0.32337 0.03509 0.0
C204 C 0.04899 0.34498 0.06652 0.0
C205 C 0.06 0.35165 0.12744 0.0
C206 C 0.07501 0.33653 0.15581 0.0
C207 C 0.07828 0.3148 0.12536 0.0
C208 C 0.07186 0.22268 0.09833 0.0
C209 C 0.05848 0.22208 0.15751 0.0
C210 C 0.05149 0.20038 0.18766 0.0
C211 C 0.05778 0.17914 0.1588 0.0
C212 C 0.07292 0.18007 0.10339 0.0
C213 C 0.07999 0.20162 0.07365 0.0
C214 C 0.07125 0.25079 0.87483 0.0
C215 C 0.08867 0.23722 0.84972 0.0
C216 C 0.30505 0.98752 0.83438 0.0
C217 C 0.31986 0.00837 0.84852 0.0
C218 C 0.31392 0.02291 0.90243 0.0
C219 C 0.29471 0.01581 0.9442 0.0
H220 H 0.22449 0.02286 0.0994 0.0
H221 H 0.19023 0.03225 0.16684 0.0
H222 H 0.16423 0.95804 0.16712 0.0
H223 H 0.19842 0.94876 0.10158 0.0
H224 H 0.26191 0.94259 0.20454 0.0
H225 H 0.29153 0.92748 0.27438 0.0
H226 H 0.33329 0.91437 0.09982 0.0
H227 H 0.30393 0.92983 0.02986 0.0
H228 H 0.27634 0.96309 0.86801 0.0
H229 H 0.30921 0.9758 0.79376 0.0
H230 H 0.3249 0.03916 0.91437 0.0
H231 H 0.2917 0.02636 0.98837 0.0
N232 N 0.24733 0.98969 0.01329 0.0
N233 N 0.24678 0.96078 0.09631 0.0
N234 N 0.27761 0.9646 0.0188 0.0
C235 C 0.23646 0.97837 0.06655 0.0
C236 C 0.26742 0.95388 0.07292 0.0
C237 C 0.26781 0.9823 0.9886 0.0
C238 C 0.21401 0.98511 0.09513 0.0
C239 C 0.2111 0.00873 0.11257 0.0
C240 C 0.19164 0.01404 0.15157 0.0
C241 C 0.17455 0.99586 0.17229 0.0
C242 C 0.17693 0.97246 0.15148 0.0
C243 C 0.19653 0.96713 0.11403 0.0
C244 C 0.28093 0.93807 0.11186 0.0
C245 C 0.27697 0.9357 0.18072 0.0
C246 C 0.29392 0.92694 0.22084 0.0
C247 C 0.31496 0.92029 0.19258 0.0
C248 C 0.31744 0.91986 0.12296 0.0
C249 C 0.30061 0.92872 0.08296 0.0
C250 C 0.28122 0.99398 0.93306 0.0
C251 C 0.2861 0.98029 0.87663 0.0
C252 C 0.42074 0.31955 0.0668 0.0
C253 C 0.42073 0.32011 0.13676 0.0
C254 C 0.4199 0.29847 0.1705 0.0
C255 C 0.42214 0.27728 0.13539 0.0
H256 H 0.45037 0.2161 0.16501 0.0
H257 H 0.45867 0.18221 0.22857 0.0
H258 H 0.47499 0.1451 0.04696 0.0
H259 H 0.46729 0.17972 0.98262 0.0
H260 H 0.50026 0.25134 0.89876 0.0
H261 H 0.51608 0.28187 0.82147 0.0
H262 H 0.44521 0.28847 0.75339 0.0
H263 H 0.43006 0.25741 0.82747 0.0
H264 H 0.4239 0.29909 0.97807 0.0
H265 H 0.42141 0.33567 0.03858 0.0
H266 H 0.41898 0.29806 0.22433 0.0
H267 H 0.42337 0.26127 0.16313 0.0
N268 N 0.43958 0.2378 0.06184 0.0
N269 N 0.45965 0.22521 0.96649 0.0
N270 N 0.44104 0.26019 0.96573 0.0
C271 C 0.452 0.22148 0.03057 0.0
C272 C 0.45372 0.24456 0.93376 0.0
C273 C 0.434 0.25721 0.02955 0.0
C274 C 0.45797 0.20065 0.0684 0.0
C275 C 0.45569 0.20077 0.13819 0.0
C276 C 0.46032 0.18118 0.17487 0.0
C277 C 0.46713 0.16068 0.14301 0.0
C278 C 0.46986 0.16062 0.07321 0.0
C279 C 0.4654 0.18044 0.03629 0.0
C280 C 0.46394 0.2521 0.86909 0.0
C281 C 0.48838 0.25829 0.864 0.0
C282 C 0.49732 0.27627 0.82085 0.0
C283 C 0.4819 0.28843 0.78263 0.0
C284 C 0.45783 0.27977 0.78157 0.0
C285 C 0.44902 0.26171 0.82397 0.0
C286 C 0.4248 0.27732 0.06582 0.0
C287 C 0.42245 0.29839 0.03182 0.0
Dy288 Dy 0.01616 0.99181 0.62579 0.0
C289 C 0.99959 0.02766 0.36601 0.0
C290 C 0.01524 0.97498 0.75218 0.0
Dy291 Dy 1.00108 0.01036 0.49154 0.0
O292 O 0.03167 0.97235 0.70818 0.0
O293 O 1.00007 0.98805 0.72795 0.0
O294 O 0.04942 0.98064 0.57935 0.0
O295 O 0.03448 0.01004 0.54258 0.0
C296 C 0.05024 0.99629 0.53269 0.0
C297 C 0.96727 0.00557 0.5857 0.0
O298 O 1.00012 0.97136 0.46686 0.0
O299 O 1.00088 0.9582 0.57559 0.0
O300 O 0.983 0.0282 0.41056 0.0
O301 O 0.01637 0.01637 0.38921 0.0
O302 O 0.9682 0.02171 0.5405 0.0
O303 O 0.98291 0.99188 0.57432 0.0
O304 O 0.01884 0.03112 0.64916 0.0
O305 O 0.01625 0.04413 0.54062 0.0
C306 C 0.99877 0.95398 0.51064 0.0
C307 C 0.01948 0.04842 0.60517 0.0
Dy308 Dy 0.49373 0.98197 0.53085 0.0
C309 C 0.56754 0.04495 0.64523 0.0
C310 C 0.45356 0.95748 0.48288 0.0
Dy311 Dy 0.52727 0.02059 0.5974 0.0
O312 O 0.47472 0.95137 0.4733 0.0
O313 O 0.45446 0.97691 0.51826 0.0
O314 O 0.52453 0.96288 0.49681 0.0
O315 O 0.52821 1.00002 0.50535 0.0
C316 C 0.53912 0.98208 0.49442 0.0
C317 C 0.48182 0.02038 0.63377 0.0
O318 O 0.52047 0.03974 0.50463 0.0
O319 O 0.48884 0.01373 0.46784 0.0
O320 O 0.54641 0.05113 0.65497 0.0
O321 O 0.56654 0.02553 0.6098 0.0
O322 O 0.49638 0.03961 0.63145 0.0
O323 O 0.49284 0.00252 0.62291 0.0
O324 O 0.50058 0.96279 0.62349 0.0
O325 O 0.53224 0.98878 0.66016 0.0
C326 C 0.5024 0.0342 0.46409 0.0
C327 C 0.51871 0.96829 0.66385 0.0
Dy328 Dy 0.50836 0.51366 0.63282 0.0
C329 C 0.48345 0.46647 0.38249 0.0
C330 C 0.53202 0.53755 0.73396 0.0
Dy331 Dy 0.50587 0.48822 0.48929 0.0
O332 O 0.5109 0.52627 0.74048 0.0
O333 O 0.53954 0.53577 0.67324 0.0
O334 O 0.47246 0.52613 0.61775 0.0
O335 O 0.48176 0.49515 0.56975 0.0
C336 C 0.46629 0.50954 0.5734 0.0
C337 C 0.54789 0.49122 0.54964 0.0
O338 O 0.50705 0.5265 0.46024 0.0
O339 O 0.51091 0.54481 0.56586 0.0
O340 O 0.50621 0.47238 0.38513 0.0
O341 O 0.47346 0.47294 0.43701 0.0
O342 O 0.54225 0.47597 0.5014 0.0
O343 O 0.53235 0.50552 0.55432 0.0
O344 O 0.50736 0.47516 0.66098 0.0
O345 O 0.50154 0.4569 0.55557 0.0
C346 C 0.5092 0.54558 0.50015 0.0
C347 C 0.50423 0.45608 0.62106 0.0
Dy348 Dy 1.0001 0.48686 0.58683 0.0
C349 C 0.05225 0.54941 0.41153 0.0
C350 C 0.9706 0.46181 0.67366 0.0
Dy351 Dy 0.02328 0.52198 0.49465 0.0
O352 O 0.98822 0.45371 0.64279 0.0
O353 O 0.96938 0.48374 0.65809 0.0
O354 O 0.02042 0.45859 0.54356 0.0
O355 O 0.01017 0.48477 0.48108 0.0
C356 C 0.02181 0.46708 0.48406 0.0
C357 C 1.00044 0.54104 0.59641 0.0
O358 O 0.98941 0.51486 0.43845 0.0
O359 O 0.96908 0.49623 0.52643 0.0
O360 O 0.04221 0.5569 0.46475 0.0
O361 O 0.04635 0.52683 0.40315 0.0
O362 O 1.00078 0.5488 0.53603 0.0
O363 O 0.013 0.52404 0.60025 0.0
O364 O 0.0337 0.49576 0.64321 0.0
O365 O 0.05421 0.51021 0.55074 0.0
C366 C 0.96946 0.50595 0.46686 0.0
C367 C 0.05392 0.50243 0.61266 0.0
C368 C 0.16062 0.01306 0.27982 0.0
C369 C 0.15531 1.0006 0.21993 0.0
C370 C 0.14337 0.01452 0.32992 0.0
C371 C 0.12015 0.00351 0.31957 0.0
C372 C 0.1144 0.99207 0.25764 0.0
C373 C 0.13207 0.99057 0.20888 0.0
C374 C 0.15035 0.0267 0.3953 0.0
C375 C 0.08977 0.98057 0.24387 0.0
C376 C 0.08363 0.98104 0.46952 0.0
C377 C 0.06827 0.99859 0.47884 0.0
C378 C 0.10069 0.9826 0.4184 0.0
C379 C 0.10244 0.00219 0.3752 0.0
C380 C 0.08708 0.02009 0.38479 0.0
C381 C 0.07023 0.01812 0.43664 0.0
C382 C 0.11679 0.96318 0.41042 0.0
C383 C 0.0884 0.04128 0.34018 0.0
H384 H 0.1786 0.02063 0.28895 0.0
H385 H 0.12784 0.98108 0.16246 0.0
H386 H 0.13767 0.03951 0.40962 0.0
H387 H 0.14984 0.01335 0.43508 0.0
H388 H 0.16838 0.03625 0.39334 0.0
H389 H 0.08762 0.97425 0.19137 0.0
H390 H 0.08572 0.96522 0.27696 0.0
H391 H 0.07661 0.99325 0.25487 0.0
H392 H 0.08224 0.96593 0.50208 0.0
H393 H 0.05861 0.03192 0.44421 0.0
H394 H 0.1355 0.97082 0.41294 0.0
H395 H 0.11411 0.95442 0.36082 0.0
H396 H 0.11363 0.94951 0.44925 0.0
H397 H 0.10595 0.05161 0.34479 0.0
H398 H 0.07459 0.05316 0.35243 0.0
H399 H 0.08645 0.0353 0.28745 0.0
C400 C 0.49029 0.12643 0.16896 0.0
C401 C 0.47132 0.13968 0.18333 0.0
C402 C 0.49531 0.1078 0.21009 0.0
C403 C 0.48118 0.10243 0.2673 0.0
C404 C 0.46159 0.11524 0.28083 0.0
C405 C 0.4568 0.13351 0.23848 0.0
C406 C 0.51617 0.09434 0.19348 0.0
C407 C 0.44611 0.11018 0.34138 0.0
C408 C 0.48239 0.04437 0.35889 0.0
C409 C 0.49756 0.05129 0.41208 0.0
C410 C 0.47743 0.06063 0.3102 0.0
C411 C 0.48758 0.08445 0.31537 0.0
C412 C 0.50305 0.09147 0.36862 0.0
C413 C 0.50796 0.0748 0.41598 0.0
C414 C 0.4611 0.05238 0.25367 0.0
C415 C 0.51399 0.11677 0.37655 0.0
H416 H 0.5017 0.13109 0.12679 0.0
H417 H 0.44174 0.1432 0.24917 0.0
H418 H 0.52993 0.0981 0.23211 0.0
H419 H 0.51078 0.07498 0.19341 0.0
H420 H 0.52408 0.09918 0.14423 0.0
H421 H 0.43107 0.12117 0.34358 0.0
H422 H 0.43901 0.09122 0.34153 0.0
H423 H 0.45674 0.1137 0.38722 0.0
H424 H 0.47439 0.02622 0.35514 0.0
H425 H 0.51963 0.08037 0.45697 0.0
H426 H 0.46981 0.05678 0.20522 0.0
H427 H 0.44497 0.06175 0.2565 0.0
H428 H 0.45577 0.03299 0.25455 0.0
H429 H 0.52401 0.12232 0.33091 0.0
H430 H 0.5261 0.11924 0.41978 0.0
H431 H 0.4999 0.12873 0.38338 0.0
C432 C 0.35177 0.52214 0.35399 0.0
C433 C 0.35582 0.5189 0.28549 0.0
C434 C 0.36927 0.51923 0.40116 0.0
C435 C 0.39155 0.51293 0.37967 0.0
C436 C 0.39549 0.50867 0.31083 0.0
C437 C 0.37756 0.51163 0.26456 0.0
C438 C 0.3641 0.52357 0.47397 0.0
C439 C 0.41894 0.50174 0.28592 0.0
C440 C 0.44333 0.53169 0.49494 0.0
C441 C 0.44688 0.51034 0.52522 0.0
C442 C 0.42584 0.53264 0.44629 0.0
C443 C 0.41095 0.51184 0.42912 0.0
C444 C 0.41412 0.49032 0.46096 0.0
C445 C 0.43226 0.48977 0.50805 0.0
C446 C 0.42336 0.5559 0.41317 0.0
C447 C 0.39809 0.468 0.44617 0.0
H448 H 0.33488 0.52732 0.37077 0.0
H449 H 0.38088 0.50915 0.21181 0.0
H450 H 0.36812 0.50823 0.50368 0.0
H451 H 0.37556 0.53928 0.49256 0.0
H452 H 0.34539 0.52669 0.48299 0.0
H453 H 0.41894 0.49812 0.23138 0.0
H454 H 0.43306 0.51618 0.2975 0.0
H455 H 0.42344 0.48571 0.31174 0.0
H456 H 0.45466 0.54759 0.50817 0.0
H457 H 0.43489 0.47328 0.53198 0.0
H458 H 0.40569 0.56164 0.42438 0.0
H459 H 0.42473 0.55371 0.35831 0.0
H460 H 0.43702 0.57015 0.42984 0.0
H461 H 0.3798 0.47049 0.46211 0.0
H462 H 0.4037 0.45241 0.47209 0.0
H463 H 0.39763 0.46418 0.39181 0.0
C464 C 0.03123 0.37659 0.18111 0.0
C465 C 0.05464 0.37328 0.16486 0.0
C466 C 0.02603 0.3944 0.22685 0.0
C467 C 0.0447 0.40946 0.25614 0.0
C468 C 0.06827 0.4073 0.23588 0.0
C469 C 0.07298 0.38905 0.19105 0.0
C470 C 1.00068 0.39588 0.24758 0.0
C471 C 0.08865 0.42331 0.26464 0.0
C472 C 0.02857 0.4623 0.36104 0.0
C473 C 0.02891 0.45324 0.42546 0.0
C474 C 0.03419 0.44852 0.30522 0.0
C475 C 0.03986 0.42505 0.3142 0.0
C476 C 0.04048 0.41601 0.37935 0.0
C477 C 0.03523 0.43028 0.43407 0.0
C478 C 0.03383 0.45895 0.23674 0.0
C479 C 0.04622 0.39103 0.39131 0.0
H480 H 0.01704 0.36429 0.16132 0.0
H481 H 0.0911 0.3866 0.17809 0.0
H482 H 0.9981 0.38977 0.29954 0.0
H483 H 0.99632 0.41447 0.24651 0.0
H484 H 0.9881 0.38479 0.21505 0.0
H485 H 0.10531 0.42183 0.23643 0.0
H486 H 0.08472 0.44206 0.2648 0.0
H487 H 0.09144 0.4185 0.31706 0.0
H488 H 0.02376 0.48009 0.35425 0.0
H489 H 0.03555 0.42319 0.48376 0.0
H490 H 0.0197 0.44906 0.20663 0.0
H491 H 0.05081 0.45718 0.21059 0.0
H492 H 0.03073 0.47796 0.23859 0.0
H493 H 0.03339 0.37818 0.36471 0.0
H494 H 0.04578 0.38666 0.44501 0.0
H495 H 0.06402 0.3886 0.37122 0.0
C496 C 0.85714 0.98849 0.83861 0.0
C497 C 0.86327 0.99863 0.90113 0.0
C498 C 0.87415 0.98737 0.78771 0.0
C499 C 0.89791 0.99635 0.79983 0.0
C500 C 0.90442 0.00523 0.8642 0.0
C501 C 0.88701 0.00651 0.9138 0.0
C502 C 0.86648 0.97759 0.72005 0.0
C503 C 0.92971 0.01409 0.87997 0.0
C504 C 0.9464 0.98215 0.6773 0.0
C505 C 0.9495 0.0029 0.64005 0.0
C506 C 0.92958 0.97958 0.72911 0.0
C507 C 0.91556 0.99826 0.74411 0.0
C508 C 0.91861 0.0192 0.70621 0.0
C509 C 0.93547 0.02122 0.6546 0.0
C510 C 0.92654 0.95663 0.76634 0.0
C511 C 0.90408 0.03955 0.7203 0.0
H512 H 0.8388 0.98252 0.82839 0.0
H513 H 0.89187 0.01413 0.96228 0.0
H514 H 0.86898 0.99186 0.68286 0.0
H515 H 0.87758 0.96354 0.704 0.0
H516 H 0.84767 0.97009 0.71962 0.0
H517 H 0.93225 0.01861 0.93366 0.0
H518 H 0.94153 1.00045 0.86556 0.0
H519 H 0.9352 0.03012 0.8506 0.0
H520 H 0.95699 0.96778 0.66564 0.0
H521 H 0.93781 0.0373 0.6259 0.0
H522 H 0.9115 0.94506 0.74481 0.0
H523 H 0.92254 0.95965 0.81972 0.0
H524 H 0.94251 0.94699 0.76211 0.0
H525 H 0.885 0.03334 0.71633 0.0
H526 H 0.90826 0.05441 0.68551 0.0
H527 H 0.90727 0.04634 0.77195 0.0
C528 C 0.56522 0.86834 0.88528 0.0
C529 C 0.55079 0.86188 0.9404 0.0
C530 C 0.56031 0.88679 0.84369 0.0
C531 C 0.5407 0.89948 0.858 0.0
C532 C 0.52667 0.89383 0.91522 0.0
C533 C 0.53179 0.87502 0.95553 0.0
C534 C 0.57568 0.89215 0.78308 0.0
C535 C 0.5058 0.90716 0.93267 0.0
C536 C 0.539 0.95786 0.76834 0.0
C537 C 0.52371 0.95107 0.71532 0.0
C538 C 0.54418 0.94145 0.81636 0.0
C539 C 0.53412 0.91761 0.81064 0.0
C540 C 0.51854 0.91072 0.75755 0.0
C541 C 0.51341 0.92754 0.7109 0.0
C542 C 0.56061 0.94956 0.87276 0.0
C543 C 0.5077 0.88541 0.74904 0.0
H544 H 0.58029 0.85874 0.87401 0.0
H545 H 0.52044 0.87014 0.99766 0.0
H546 H 0.56498 0.88875 0.73731 0.0
H547 H 0.58269 0.91112 0.78341 0.0
H548 H 0.59077 0.88123 0.78028 0.0
H549 H 0.49802 0.90213 0.98192 0.0
H550 H 0.51112 0.92654 0.9332 0.0
H551 H 0.49196 0.90349 0.89424 0.0
H552 H 0.54693 0.97604 0.77246 0.0
H553 H 0.50166 0.92206 0.67001 0.0
H554 H 0.57679 0.94028 0.86928 0.0
H555 H 0.55204 0.94494 0.92125 0.0
H556 H 0.56585 0.96897 0.87238 0.0
H557 H 0.52184 0.87354 0.74159 0.0
H558 H 0.49551 0.88304 0.70597 0.0
H559 H 0.49779 0.87964 0.79468 0.0
C560 C 0.65843 0.49649 0.80219 0.0
C561 C 0.66082 0.47353 0.82423 0.0
C562 C 0.64019 0.50078 0.75825 0.0
C563 C 0.62395 0.48168 0.73584 0.0
C564 C 0.62584 0.45865 0.75977 0.0
C565 C 0.64413 0.4549 0.80358 0.0
C566 C 0.6386 0.52565 0.73459 0.0
C567 C 0.60871 0.43782 0.73835 0.0
C568 C 0.56409 0.49213 0.66555 0.0
C569 C 0.56763 0.48963 0.59681 0.0
C570 C 0.58241 0.49046 0.71109 0.0
C571 C 0.6049 0.48555 0.68751 0.0
C572 C 0.60858 0.4827 0.61796 0.0
C573 C 0.58986 0.48464 0.5735 0.0
C574 C 0.5775 0.49346 0.78461 0.0
C575 C 0.63222 0.47726 0.59064 0.0
H576 H 0.67127 0.51098 0.81752 0.0
H577 H 0.64553 0.43717 0.82131 0.0
H578 H 0.64126 0.52623 0.67984 0.0
H579 H 0.62076 0.53107 0.74521 0.0
H580 H 0.65193 0.53873 0.75856 0.0
H581 H 0.61233 0.42111 0.76241 0.0
H582 H 0.59037 0.44135 0.7508 0.0
H583 H 0.60967 0.43521 0.68355 0.0
H584 H 0.54677 0.49461 0.68433 0.0
H585 H 0.59262 0.48233 0.52041 0.0
H586 H 0.58976 0.50809 0.80586 0.0
H587 H 0.58059 0.47709 0.81108 0.0
H588 H 0.5591 0.49744 0.79479 0.0
H589 H 0.6463 0.49084 0.60854 0.0
H590 H 0.6326 0.47669 0.53534 0.0
H591 H 0.63645 0.45989 0.60908 0.0
C592 C 0.94974 0.61918 0.89152 0.0
C593 C 0.96822 0.63504 0.91663 0.0
C594 C 0.95411 0.6013 0.84506 0.0
C595 C 0.97746 0.59958 0.82211 0.0
C596 C 0.9963 0.61494 0.84945 0.0
C597 C 0.99146 0.63236 0.89679 0.0
C598 C 0.9336 0.58497 0.8183 0.0
C599 C 0.0214 0.61395 0.82573 0.0
C600 C 0.99394 0.54646 0.71923 0.0
C601 C 0.99297 0.55498 0.65435 0.0
C602 C 0.98828 0.56047 0.77451 0.0
C603 C 0.98192 0.58363 0.76451 0.0
C604 C 0.98051 0.59207 0.69889 0.0
C605 C 0.98583 0.57757 0.6447 0.0
C606 C 0.98949 0.55066 0.84357 0.0
C607 C 0.97402 0.61671 0.68587 0.0
H608 H 0.93177 0.62109 0.90728 0.0
H609 H 0.00575 0.64473 0.91568 0.0
H610 H 0.93036 0.58933 0.76577 0.0
H611 H 0.93771 0.56628 0.81892 0.0
H612 H 0.91714 0.58651 0.84736 0.0
H613 H 0.03422 0.62575 0.85571 0.0
H614 H 0.02632 0.59558 0.82792 0.0
H615 H 0.02296 0.6194 0.77297 0.0
H616 H 0.99933 0.52894 0.72679 0.0
H617 H 0.98501 0.58423 0.59464 0.0
H618 H 0.97268 0.55229 0.87073 0.0
H619 H 0.00372 0.56107 0.87214 0.0
H620 H 0.99299 0.53175 0.84262 0.0
H621 H 0.95644 0.61899 0.70776 0.0
H622 H 0.97357 0.62052 0.63187 0.0
H623 H 0.98698 0.63005 0.71016 0.0
C624 C 0.03558 0.13976 0.13578 0.0
C625 C 0.04693 0.15592 0.18182 0.0
C626 C 0.02543 0.11744 0.15567 0.0
C627 C 0.02702 0.11105 0.22301 0.0
C628 C 0.03826 0.12741 0.26992 0.0
C629 C 0.04791 0.14981 0.24878 0.0
C630 C 0.01327 0.10061 0.10461 0.0
C631 C 0.04047 0.12109 0.34218 0.0
C632 C 0.98769 0.06235 0.30616 0.0
C633 C 0.00337 0.04507 0.31259 0.0
C634 C 0.99452 0.0834 0.27249 0.0
C635 C 0.01749 0.08706 0.24472 0.0
C636 C 0.03233 0.06853 0.24468 0.0
C637 C 0.02505 0.04767 0.27874 0.0
C638 C 0.97794 0.1025 0.27187 0.0
C639 C 0.05678 0.07149 0.21441 0.0
H640 H 0.03453 0.1447 0.08408 0.0
H641 H 0.0567 0.16235 0.28419 0.0
H642 H 0.02266 0.08448 0.09969 0.0
H643 H 0.99497 0.09485 0.12107 0.0
H644 H 0.01263 0.10874 0.05485 0.0
H645 H 0.04963 0.13585 0.37227 0.0
H646 H 0.02271 0.11633 0.36413 0.0
H647 H 0.05043 0.10536 0.346 0.0
H648 H 0.97082 0.06031 0.33193 0.0
H649 H 0.03713 0.03421 0.28318 0.0
H650 H 0.97784 0.11068 0.22216 0.0
H651 H 0.98405 0.1167 0.30837 0.0
H652 H 0.95959 0.09552 0.28527 0.0
H653 H 0.05716 0.08154 0.16756 0.0
H654 H 0.06345 0.0541 0.2037 0.0
H655 H 0.06901 0.08159 0.2499 0.0
C656 C 0.33388 0.90629 0.29542 0.0
C657 C 0.33578 0.91854 0.23531 0.0
C658 C 0.35277 0.90798 0.34049 0.0
C659 C 0.3737 0.92271 0.32549 0.0
C660 C 0.37602 0.93424 0.26357 0.0
C661 C 0.35711 0.93189 0.21919 0.0
C662 C 0.34992 0.89497 0.40533 0.0
C663 C 0.39789 0.95038 0.24588 0.0
C664 C 0.41101 0.95675 0.45666 0.0
C665 C 0.43196 0.94594 0.45162 0.0
C666 C 0.39119 0.94827 0.41913 0.0
C667 C 0.39234 0.9283 0.3763 0.0
C668 C 0.41284 0.91616 0.37528 0.0
C669 C 0.43258 0.92528 0.41263 0.0
C670 C 0.36974 0.96186 0.42144 0.0
C671 C 0.41448 0.89446 0.33157 0.0
H672 H 0.31743 0.8959 0.30789 0.0
H673 H 0.35854 0.94176 0.17339 0.0
H674 H 0.36605 0.88641 0.41658 0.0
H675 H 0.34729 0.90774 0.44652 0.0
H676 H 0.33453 0.88123 0.40446 0.0
H677 H 0.39736 0.95701 0.19428 0.0
H678 H 0.39973 0.96586 0.28077 0.0
H679 H 0.41388 0.94096 0.25097 0.0
H680 H 0.41045 0.97262 0.48734 0.0
H681 H 0.44873 0.91674 0.40938 0.0
H682 H 0.35343 0.94964 0.4281 0.0
H683 H 0.36819 0.97097 0.37349 0.0
H684 H 0.37071 0.97539 0.46232 0.0
H685 H 0.39798 0.88228 0.33472 0.0
H686 H 0.42961 0.88471 0.34542 0.0
H687 H 0.41683 0.89985 0.27893 0.0
C688 C 0.44011 0.34513 0.22884 0.0
C689 C 0.42521 0.34324 0.17323 0.0
C690 C 0.44758 0.36718 0.25809 0.0
C691 C 0.44056 0.38802 0.23006 0.0
C692 C 0.42502 0.38635 0.17525 0.0
C693 C 0.41723 0.36395 0.14814 0.0
C694 C 0.46359 0.36818 0.31798 0.0
C695 C 0.41742 0.40824 0.14361 0.0
C696 C 0.44788 0.4406 0.34815 0.0
C697 C 0.47106 0.45002 0.3338 0.0
C698 C 0.43707 0.42122 0.31195 0.0
C699 C 0.4496 0.4114 0.25907 0.0
C700 C 0.47221 0.42221 0.24044 0.0
C701 C 0.48285 0.44133 0.2787 0.0
C702 C 0.41314 0.40996 0.33416 0.0
C703 C 0.48579 0.41258 0.18303 0.0
H704 H 0.44687 0.32948 0.24813 0.0
H705 H 0.40536 0.36275 0.10605 0.0
H706 H 0.48113 0.37737 0.305 0.0
H707 H 0.45618 0.37847 0.35919 0.0
H708 H 0.46613 0.35028 0.33632 0.0
H709 H 0.40417 0.40388 0.1038 0.0
H710 H 0.40987 0.41978 0.18158 0.0
H711 H 0.43305 0.41868 0.12163 0.0
H712 H 0.43872 0.4473 0.39079 0.0
H713 H 0.50073 0.44871 0.26737 0.0
H714 H 0.41497 0.39223 0.35472 0.0
H715 H 0.40095 0.40732 0.29131 0.0
H716 H 0.40502 0.42075 0.37299 0.0
H717 H 0.49227 0.39563 0.19738 0.0
H718 H 0.50121 0.42506 0.16841 0.0
H719 H 0.47417 0.40883 0.13918 0.0
C720 C 0.17637 0.59609 0.29147 0.0
C721 C 0.17874 0.60776 0.23038 0.0
C722 C 0.1543 0.59152 0.32233 0.0
C723 C 0.13406 0.5986 0.29111 0.0
C724 C 0.1366 0.61257 0.23342 0.0
C725 C 0.159 0.61714 0.20388 0.0
C726 C 0.15242 0.57698 0.38477 0.0
C727 C 0.11548 0.62083 0.19942 0.0
C728 C 0.08161 0.55341 0.31917 0.0
C729 C 0.07049 0.56365 0.3731 0.0
C730 C 0.10148 0.56546 0.28882 0.0
C731 C 0.1104 0.58819 0.31344 0.0
C732 C 0.09822 0.59925 0.36494 0.0
C733 C 0.07833 0.5868 0.39425 0.0
C734 C 0.11381 0.55317 0.23333 0.0
C735 C 0.10709 0.62348 0.39227 0.0
H736 H 0.19132 0.58859 0.31253 0.0
H737 H 0.16075 0.6267 0.15761 0.0
H738 H 0.14088 0.58474 0.42217 0.0
H739 H 0.14434 0.55878 0.37249 0.0
H740 H 0.16993 0.57568 0.4076 0.0
H741 H 0.12071 0.63532 0.16414 0.0
H742 H 0.10613 0.60577 0.17103 0.0
H743 H 0.10282 0.62708 0.23637 0.0
H744 H 0.07542 0.53558 0.30253 0.0
H745 H 0.06962 0.59479 0.43585 0.0
H746 H 0.13111 0.54851 0.25117 0.0
H747 H 0.11731 0.56516 0.19058 0.0
H748 H 0.10333 0.53668 0.21556 0.0
H749 H 0.1226 0.62198 0.42442 0.0
H750 H 0.0934 0.63139 0.42255 0.0
H751 H 0.1129 0.63569 0.35149 0.0
C752 C 0.97123 0.86697 0.99051 0.0
C753 C 0.95882 0.85124 0.94522 0.0
C754 C 0.98155 0.88924 0.97049 0.0
C755 C 0.97931 0.89595 0.90363 0.0
C756 C 0.96629 0.88038 0.85804 0.0
C757 C 0.95633 0.85811 0.87933 0.0
C758 C 0.99562 0.9051 0.02024 0.0
C759 C 0.96325 0.88708 0.7864 0.0
C760 C 0.98832 0.95883 0.84229 0.0
C761 C 0.00961 0.95841 0.807 0.0
C762 C 0.97908 0.93919 0.87918 0.0
C763 C 0.99133 0.91875 0.8798 0.0
C764 C 0.01398 0.91926 0.85003 0.0
C765 C 0.02293 0.93921 0.81418 0.0
C766 C 0.95533 0.9396 0.91285 0.0
C767 C 0.02784 0.89798 0.85079 0.0
H768 H 0.97357 0.86151 0.04126 0.0
H769 H 0.94668 0.84601 0.84443 0.0
H770 H 0.01469 0.90562 0.00789 0.0
H771 H 0.99085 0.92353 0.01805 0.0
H772 H 0.99291 0.89877 0.07202 0.0
H773 H 0.95194 0.87333 0.75799 0.0
H774 H 0.95524 0.90406 0.7843 0.0
H775 H 0.98074 0.88977 0.76138 0.0
H776 H 0.97806 0.97375 0.83723 0.0
H777 H 0.03949 0.9389 0.78731 0.0
H778 H 0.95578 0.93268 0.96403 0.0
H779 H 0.94192 0.92787 0.8848 0.0
H780 H 0.94966 0.95774 0.9156 0.0
H781 H 0.0279 0.89056 0.90146 0.0
H782 H 0.04638 0.90238 0.83403 0.0
H783 H 0.01934 0.88394 0.81709 0.0
C784 C 0.68774 0.09561 0.831 0.0
C785 C 0.68584 0.08348 0.8913 0.0
C786 C 0.66877 0.094 0.7862 0.0
C787 C 0.64777 0.07946 0.80163 0.0
C788 C 0.64547 0.06803 0.86372 0.0
C789 C 0.66446 0.07032 0.90786 0.0
C790 C 0.67161 0.10691 0.72119 0.0
C791 C 0.62353 0.05206 0.88184 0.0
C792 C 0.58877 0.07711 0.71517 0.0
C793 C 0.58921 0.05641 0.67632 0.0
C794 C 0.6086 0.08617 0.75222 0.0
C795 C 0.62903 0.0739 0.75108 0.0
C796 C 0.63 0.05386 0.70842 0.0
C797 C 0.61009 0.04546 0.67115 0.0
C798 C 0.60717 0.10795 0.79572 0.0
C799 C 0.65135 0.04013 0.70601 0.0
H800 H 0.70425 0.10584 0.8182 0.0
H801 H 0.66302 0.06053 0.9538 0.0
H802 H 0.67413 0.09406 0.68012 0.0
H803 H 0.65552 0.11554 0.70998 0.0
H804 H 0.68707 0.12057 0.72178 0.0
H805 H 0.62411 0.04549 0.9335 0.0
H806 H 0.60762 0.06159 0.87688 0.0
H807 H 0.62152 0.03654 0.84711 0.0
H808 H 0.57268 0.08575 0.71851 0.0
H809 H 0.61052 0.02955 0.64057 0.0
H810 H 0.62372 0.12004 0.79219 0.0
H811 H 0.60489 0.10266 0.84845 0.0
H812 H 0.59207 0.11777 0.78198 0.0
H813 H 0.6677 0.05224 0.69898 0.0
H814 H 0.65022 0.02652 0.66531 0.0
H815 H 0.65292 0.03109 0.75406 0.0
C816 C 0.60255 0.63631 0.97102 0.0
C817 C 0.59493 0.65722 0.94612 0.0
C818 C 0.59428 0.61401 0.94398 0.0
C819 C 0.57862 0.61265 0.88949 0.0
C820 C 0.57201 0.63368 0.86154 0.0
C821 C 0.57996 0.65562 0.89067 0.0
C822 C 0.6015 0.59193 0.97547 0.0
C823 C 0.55587 0.63301 0.80199 0.0
C824 C 0.56884 0.5609 0.76959 0.0
C825 C 0.54536 0.55253 0.78409 0.0
C826 C 0.58072 0.57936 0.80706 0.0
C827 C 0.56886 0.58942 0.86089 0.0
C828 C 0.54602 0.57932 0.88005 0.0
C829 C 0.5344 0.56095 0.84097 0.0
C830 C 0.605 0.58955 0.78473 0.0
C831 C 0.53315 0.58918 0.93852 0.0
H832 H 0.61447 0.63726 0.01295 0.0
H833 H 0.57348 0.67142 0.8715 0.0
H834 H 0.58588 0.58218 0.99948 0.0
H835 H 0.60808 0.57987 0.93715 0.0
H836 H 0.61538 0.59603 0.01371 0.0
H837 H 0.55363 0.651 0.78377 0.0
H838 H 0.56297 0.62257 0.76059 0.0
H839 H 0.53822 0.62414 0.81532 0.0
H840 H 0.57752 0.554 0.72622 0.0
H841 H 0.51632 0.55428 0.85249 0.0
H842 H 0.61696 0.59312 0.82784 0.0
H843 H 0.60364 0.60669 0.76006 0.0
H844 H 0.61311 0.57756 0.74894 0.0
H845 H 0.54511 0.59249 0.98177 0.0
H846 H 0.51754 0.57704 0.95365 0.0
H847 H 0.52704 0.60639 0.92497 0.0
C848 C 0.85535 0.38611 0.79412 0.0
C849 C 0.8513 0.39005 0.86225 0.0
C850 C 0.87737 0.39326 0.76515 0.0
C851 C 0.89583 0.40402 0.80571 0.0
C852 C 0.89287 0.40476 0.87559 0.0
C853 C 0.87058 0.39797 0.90305 0.0
C854 C 0.87991 0.39187 0.69037 0.0
C855 C 0.91237 0.41539 0.92082 0.0
C856 C 0.95514 0.42358 0.72529 0.0
C857 C 0.95262 0.44738 0.71241 0.0
C858 C 0.93701 0.40917 0.75695 0.0
C859 C 0.91587 0.41881 0.77487 0.0
C860 C 0.91352 0.443 0.76299 0.0
C861 C 0.93202 0.45702 0.73231 0.0
C862 C 0.94027 0.38359 0.76985 0.0
C863 C 0.89124 0.45402 0.78138 0.0
H864 H 0.8408 0.37923 0.76247 0.0
H865 H 0.86792 0.40111 0.95579 0.0
H866 H 0.87874 0.4097 0.6696 0.0
H867 H 0.89735 0.38628 0.67584 0.0
H868 H 0.86584 0.37935 0.66745 0.0
H869 H 0.90919 0.41 0.97328 0.0
H870 H 0.92973 0.41009 0.90433 0.0
H871 H 0.91335 0.43501 0.91915 0.0
H872 H 0.97112 0.41613 0.70974 0.0
H873 H 0.93006 0.47542 0.72218 0.0
H874 H 0.92854 0.3719 0.73665 0.0
H875 H 0.93527 0.37901 0.82188 0.0
H876 H 0.95877 0.37971 0.76085 0.0
H877 H 0.87589 0.44435 0.7555 0.0
H878 H 0.89222 0.47301 0.76809 0.0
H879 H 0.88786 0.45258 0.8357 0.0
C880 C 0.03047 0.18157 0.74942 0.0
C881 C 0.05276 0.19376 0.73653 0.0
C882 C 0.02437 0.15844 0.72468 0.0
C883 C 0.04109 0.14691 0.68716 0.0
C884 C 0.06325 0.15935 0.67163 0.0
C885 C 0.06869 0.18268 0.69574 0.0
C886 C 1.00034 0.146 0.74109 0.0
C887 C 0.08162 0.14765 0.632 0.0
C888 C 0.03487 0.0794 0.68963 0.0
C889 C 0.02487 0.07351 0.6272 0.0
C890 C 0.0405 0.10322 0.70942 0.0
C891 C 0.03566 0.12158 0.66621 0.0
C892 C 0.02537 0.11572 0.60342 0.0
C893 C 0.02024 0.09181 0.58457 0.0
C894 C 0.0518 0.10875 0.77642 0.0
C895 C 0.01956 0.1347 0.55631 0.0
H896 H 0.01807 0.18957 0.78169 0.0
H897 H 0.08579 0.19198 0.68429 0.0
H898 H 0.99165 0.13835 0.69519 0.0
H899 H 1.00229 0.13113 0.77499 0.0
H900 H 0.98861 0.1581 0.76547 0.0
H901 H 0.09765 0.16 0.62199 0.0
H902 H 0.08692 0.13233 0.65971 0.0
H903 H 0.07421 0.14069 0.58379 0.0
H904 H 0.03862 0.0654 0.72269 0.0
H905 H 0.01236 0.08749 0.53636 0.0
H906 H 0.04031 0.11913 0.80776 0.0
H907 H 0.06888 0.11982 0.76998 0.0
H908 H 0.05501 0.09249 0.8034 0.0
H909 H 0.00697 0.14589 0.58056 0.0
H910 H 0.01167 0.12718 0.5091 0.0
H911 H 0.03573 0.14648 0.54414 0.0
C912 C 0.34431 0.01032 0.74304 0.0
C913 C 0.34285 0.01316 0.8125 0.0
C914 C 0.36629 0.01245 0.70978 0.0
C915 C 0.38737 0.01713 0.74693 0.0
C916 C 0.38595 0.02042 0.8169 0.0
C917 C 0.36377 0.01855 0.84866 0.0
C918 C 0.36697 0.00924 0.63503 0.0
C919 C 0.40794 0.02508 0.85864 0.0
C920 C 0.44501 0.99771 0.67749 0.0
C921 C 0.45717 0.01935 0.65884 0.0
C922 C 0.42215 0.99668 0.7051 0.0
C923 C 0.41099 0.01777 0.71335 0.0
C924 C 0.42294 0.03956 0.69245 0.0
C925 C 0.44594 0.04012 0.66596 0.0
C926 C 0.41021 0.9731 0.72724 0.0
C927 C 0.41156 0.06237 0.69912 0.0
H928 H 0.32823 0.00623 0.71474 0.0
H929 H 0.36286 0.02035 0.90242 0.0
H930 H 0.37741 0.02465 0.6122 0.0
H931 H 0.37586 0.99329 0.62166 0.0
H932 H 0.34904 0.00722 0.61296 0.0
H933 H 0.40383 0.02778 0.91223 0.0
H934 H 0.41868 0.0099 0.85353 0.0
H935 H 0.41895 0.04101 0.84081 0.0
H936 H 0.45359 0.98159 0.67203 0.0
H937 H 0.45521 0.05687 0.65111 0.0
H938 H 0.39285 0.96929 0.70255 0.0
H939 H 0.40686 0.97374 0.78172 0.0
H940 H 0.42099 0.95827 0.71585 0.0
H941 H 0.39396 0.06034 0.67518 0.0
H942 H 0.42247 0.07752 0.67629 0.0
H943 H 0.40879 0.06666 0.75253 0.0
C944 C 0.47864 0.31965 0.69624 0.0
C945 C 0.4898 0.31197 0.75289 0.0
C946 C 0.48246 0.34328 0.67573 0.0
C947 C 0.49849 0.35958 0.71115 0.0
C948 C 0.51108 0.35163 0.76539 0.0
C949 C 0.50636 0.32808 0.78616 0.0
C950 C 0.46854 0.35105 0.61784 0.0
C951 C 0.52891 0.36824 0.80312 0.0
C952 C 0.51853 0.41626 0.61985 0.0
C953 C 0.50435 0.43234 0.64946 0.0
C954 C 0.51762 0.39282 0.64154 0.0
C955 C 0.50149 0.38505 0.69247 0.0
C956 C 0.48741 0.40142 0.72339 0.0
C957 C 0.4893 0.42504 0.70216 0.0
C958 C 0.53358 0.37627 0.609 0.0
C959 C 0.46964 0.39373 0.77691 0.0
H960 H 0.46627 0.30736 0.66897 0.0
H961 H 0.51493 0.32271 0.83052 0.0
H962 H 0.4575 0.36505 0.63482 0.0
H963 H 0.48066 0.35881 0.57873 0.0
H964 H 0.45683 0.33619 0.5953 0.0
H965 H 0.53917 0.35872 0.83882 0.0
H966 H 0.54139 0.37798 0.76806 0.0
H967 H 0.51972 0.38159 0.8313 0.0
H968 H 0.53032 0.42206 0.57933 0.0
H969 H 0.47823 0.4375 0.72457 0.0
H970 H 0.52287 0.36228 0.57995 0.0
H971 H 0.54313 0.36729 0.64745 0.0
H972 H 0.54671 0.38567 0.57497 0.0
H973 H 0.45633 0.37986 0.7565 0.0
H974 H 0.46036 0.40867 0.79673 0.0
H975 H 0.4785 0.38582 0.81874 0.0
C976 C 0.17543 0.52847 0.80879 0.0
C977 C 0.18656 0.5083 0.82418 0.0
C978 C 0.15394 0.52665 0.77422 0.0
C979 C 0.14321 0.50408 0.75363 0.0
C980 C 0.15442 0.48362 0.76843 0.0
C981 C 0.17583 0.48594 0.80402 0.0
C982 C 0.14253 0.54893 0.7606 0.0
C983 C 0.14377 0.45926 0.74666 0.0
C984 C 0.07704 0.49911 0.71786 0.0
C985 C 0.07668 0.5018 0.64853 0.0
C986 C 0.09849 0.49939 0.7525 0.0
C987 C 0.12021 0.5021 0.71703 0.0
C988 C 0.11992 0.50422 0.64686 0.0
C989 C 0.09824 0.50422 0.61361 0.0
C990 C 0.09793 0.49741 0.82735 0.0
C991 C 0.14258 0.50688 0.60689 0.0
H992 H 0.18328 0.54579 0.82537 0.0
H993 H 0.18429 0.47028 0.81565 0.0
H994 H 0.14025 0.55079 0.70622 0.0
H995 H 0.12469 0.5478 0.78371 0.0
H996 H 0.15306 0.56511 0.78019 0.0
H997 H 0.15489 0.44518 0.76059 0.0
H998 H 0.12605 0.45536 0.76961 0.0
H999 H 0.14138 0.45861 0.69186 0.0
H1000 H 0.06054 0.49729 0.74543 0.0
H1001 H 0.09822 0.50612 0.56002 0.0
H1002 H 0.1069 0.51383 0.85038 0.0
H1003 H 0.10768 0.4825 0.84275 0.0
H1004 H 0.07964 0.49461 0.8474 0.0
H1005 H 0.15313 0.52374 0.62103 0.0
H1006 H 0.13934 0.50683 0.55241 0.0
H1007 H 0.15339 0.49227 0.61808 0.0
C1008 C 0.99705 0.81752 0.3975 0.0
C1009 C 0.97525 0.80889 0.36945 0.0
C1010 C 1.00094 0.84078 0.4235 0.0
C1011 C 0.98251 0.85571 0.42234 0.0
C1012 C 0.96016 0.84679 0.39711 0.0
C1013 C 0.95687 0.82364 0.37057 0.0
C1014 C 0.02505 0.84966 0.44992 0.0
C1015 C 0.93993 0.86202 0.39571 0.0
C1016 C 0.98685 0.91114 0.53284 0.0
C1017 C 0.99417 0.92897 0.48735 0.0
C1018 C 0.98298 0.88726 0.51246 0.0
C1019 C 0.98678 0.88095 0.44504 0.0
C1020 C 0.99422 0.89884 0.39886 0.0
C1021 C 0.99768 0.92266 0.42048 0.0
C1022 C 0.97466 0.86881 0.56304 0.0
C1023 C 0.99865 0.89281 0.32661 0.0
H1024 H 0.01131 0.80627 0.39772 0.0
H1025 H 0.94009 0.81755 0.34787 0.0
H1026 H 0.03299 0.86444 0.41893 0.0
H1027 H 0.02355 0.85674 0.50146 0.0
H1028 H 0.03721 0.83557 0.44992 0.0
H1029 H 0.93718 0.86992 0.44575 0.0
H1030 H 0.9442 0.87685 0.36098 0.0
H1031 H 0.92316 0.85185 0.37954 0.0
H1032 H 0.98396 0.91583 0.58461 0.0
H1033 H 0.0035 0.93628 0.38515 0.0
H1034 H 0.98737 0.85531 0.56561 0.0
H1035 H 0.95744 0.85946 0.54756 0.0
H1036 H 0.97263 0.87662 0.61364 0.0
H1037 H 0.01205 0.87997 0.32277 0.0
H1038 H 0.00491 0.9087 0.29738 0.0
H1039 H 0.9822 0.88421 0.30373 0.0
C1040 C 0.65717 0.9828 0.28021 0.0
C1041 C 0.67806 0.98876 0.31609 0.0
C1042 C 0.635 0.98098 0.31202 0.0
C1043 C 0.63357 0.98487 0.38177 0.0
C1044 C 0.65464 0.99007 0.4187 0.0
C1045 C 0.6766 0.99217 0.38536 0.0
C1046 C 0.61302 0.97576 0.27049 0.0
C1047 C 0.65396 0.9939 0.49324 0.0
C1048 C 0.57585 0.00454 0.44958 0.0
C1049 C 0.56377 0.98301 0.4695 0.0
C1050 C 0.5987 0.00545 0.42201 0.0
C1051 C 0.60996 0.98438 0.41524 0.0
C1052 C 0.59812 0.96272 0.43752 0.0
C1053 C 0.57509 0.96227 0.4638 0.0
C1054 C 0.61051 0.02888 0.39829 0.0
C1055 C 0.60963 0.93996 0.43257 0.0
H1056 H 0.65809 0.98056 0.22657 0.0
H1057 H 0.69267 0.99671 0.41341 0.0
H1058 H 0.60212 0.95994 0.28944 0.0
H1059 H 0.60216 0.99088 0.27443 0.0
H1060 H 0.61714 0.9726 0.21711 0.0
H1061 H 0.6719 0.99616 0.51528 0.0
H1062 H 0.64504 0.00993 0.50548 0.0
H1063 H 0.64356 0.97867 0.51706 0.0
H1064 H 0.56718 0.02064 0.45395 0.0
H1065 H 0.56589 0.94561 0.47967 0.0
H1066 H 0.6139 0.02777 0.34389 0.0
H1067 H 0.62784 0.03302 0.42292 0.0
H1068 H 0.59963 0.04371 0.40846 0.0
H1069 H 0.61241 0.9352 0.37948 0.0
H1070 H 0.59881 0.92498 0.45647 0.0
H1071 H 0.62724 0.94231 0.45645 0.0
C1072 C 0.53991 0.68107 0.42345 0.0
C1073 C 0.52887 0.68943 0.36753 0.0
C1074 C 0.53506 0.6575 0.44381 0.0
C1075 C 0.51803 0.64204 0.40918 0.0
C1076 C 0.50553 0.65077 0.35592 0.0
C1077 C 0.51133 0.67418 0.33509 0.0
C1078 C 0.54896 0.64888 0.50057 0.0
C1079 C 0.48663 0.63512 0.31925 0.0
C1080 C 0.52415 0.57591 0.41702 0.0
C1081 C 0.50954 0.56933 0.4713 0.0
C1082 C 0.52683 0.5995 0.3955 0.0
C1083 C 0.51392 0.6166 0.42765 0.0
C1084 C 0.4981 0.60958 0.47998 0.0
C1085 C 0.4965 0.58616 0.50209 0.0
C1086 C 0.5443 0.60637 0.34054 0.0
C1087 C 0.48328 0.62693 0.51378 0.0
H1088 H 0.55301 0.69272 0.45021 0.0
H1089 H 0.50279 0.68008 0.29134 0.0
H1090 H 0.53683 0.64178 0.54054 0.0
H1091 H 0.55895 0.63418 0.48271 0.0
H1092 H 0.56162 0.66311 0.52229 0.0
H1093 H 0.47652 0.64533 0.28489 0.0
H1094 H 0.49483 0.6214 0.28972 0.0
H1095 H 0.47413 0.62579 0.35504 0.0
H1096 H 0.53439 0.5629 0.39369 0.0
H1097 H 0.4851 0.58101 0.544 0.0
H1098 H 0.55845 0.61958 0.35997 0.0
H1099 H 0.53548 0.61483 0.29963 0.0
H1100 H 0.55256 0.59091 0.31971 0.0
H1101 H 0.49479 0.6402 0.54308 0.0
H1102 H 0.46984 0.61802 0.54785 0.0
H1103 H 0.47415 0.6367 0.47612 0.0
C1104 C 0.83944 0.47815 0.32456 0.0
C1105 C 0.83523 0.48962 0.2649 0.0
C1106 C 0.86117 0.48229 0.35781 0.0
C1107 C 0.87901 0.49914 0.33287 0.0
C1108 C 0.87435 0.51207 0.27561 0.0
C1109 C 0.85276 0.50692 0.24182 0.0
C1110 C 0.8654 0.46778 0.41802 0.0
C1111 C 0.8925 0.5308 0.2486 0.0
C1112 C 0.92913 0.51878 0.45352 0.0
C1113 C 0.94703 0.50556 0.43015 0.0
C1114 C 0.90725 0.51768 0.42072 0.0
C1115 C 0.90287 0.50223 0.36483 0.0
C1116 C 0.92105 0.48885 0.34122 0.0
C1117 C 0.94304 0.49099 0.37354 0.0
C1118 C 0.88878 0.5329 0.44618 0.0
C1119 C 0.91703 0.47165 0.28318 0.0
H1120 H 0.82596 0.46533 0.34466 0.0
H1121 H 0.85011 0.51587 0.19577 0.0
H1122 H 0.88043 0.45721 0.40799 0.0
H1123 H 0.87025 0.47956 0.46147 0.0
H1124 H 0.84969 0.45549 0.43153 0.0
H1125 H 0.88511 0.5414 0.20941 0.0
H1126 H 0.89955 0.54296 0.28929 0.0
H1127 H 0.90755 0.5223 0.22693 0.0
H1128 H 0.93231 0.53008 0.49735 0.0
H1129 H 0.95688 0.48061 0.35598 0.0
H1130 H 0.87345 0.52153 0.46633 0.0
H1131 H 0.88222 0.54307 0.40478 0.0
H1132 H 0.89568 0.54554 0.48603 0.0
H1133 H 0.90216 0.45809 0.29477 0.0
H1134 H 0.9329 0.46251 0.27109 0.0
H1135 H 0.91204 0.48107 0.23839 0.0
loop_
_geom_bond_atom_site_label_1
_geom_bond_atom_site_label_2
_geom_bond_distance
_geom_bond_site_symmetry_2
_ccdc_geom_bond_type
C0 C1 1.384 . S
C0 H13 0.947 . S
C0 C35 1.382 . S
C1 C0 1.384 . S
C1 C2 1.378 . S
C2 C1 1.378 . S
C2 C3 1.378 . S
C2 H14 0.952 . S
C3 C2 1.378 . S
C3 H15 0.950 . S
C3 C34 1.383 . S
H4 C23 0.947 . S
H5 C24 0.946 . S
H6 C26 0.953 . S
H7 C27 0.945 . S
H8 C29 0.952 . S
H9 C30 0.949 . S
H10 C32 0.950 . S
H11 C33 0.948 . S
H12 C35 0.951 . S
H13 C0 0.947 . S
H14 C2 0.952 . S
H15 C3 0.950 . S
N16 C19 1.382 . S
N16 C21 1.363 . S
N17 C19 1.371 1_556 S
N17 C20 1.372 . S
N18 C20 1.361 1_554 S
N18 C21 1.377 . S
C19 N16 1.382 . S
C19 N17 1.371 1_554 S
C19 C22 1.480 1_554 S
C20 N17 1.372 . S
C20 N18 1.361 1_556 S
C20 C28 1.457 . S
C21 N16 1.363 . S
C21 N18 1.377 . S
C21 C34 1.479 . S
C22 C19 1.480 1_556 S
C22 C23 1.383 1_556 S
C22 C27 1.385 . S
C23 H4 0.947 . S
C23 C22 1.383 1_554 S
C23 C24 1.388 . S
C24 H5 0.946 . S
C24 C23 1.388 . S
C24 C25 1.384 1_554 S
C25 C24 1.384 1_556 S
C25 C26 1.377 . S
C26 H6 0.953 . S
C26 C25 1.377 . S
C26 C27 1.369 . S
C27 H7 0.945 . S
C27 C22 1.385 . S
C27 C26 1.369 . S
C28 C20 1.457 . S
C28 C29 1.372 . S
C28 C33 1.364 . S
C29 H8 0.952 . S
C29 C28 1.372 . S
C29 C30 1.389 . S
C30 H9 0.949 . S
C30 C29 1.389 . S
C30 C31 1.387 . S
C31 C30 1.387 . S
C31 C32 1.372 . S
C32 H10 0.950 . S
C32 C31 1.372 . S
C32 C33 1.379 . S
C33 H11 0.948 . S
C33 C28 1.364 . S
C33 C32 1.379 . S
C34 C3 1.383 . S
C34 C21 1.479 . S
C34 C35 1.398 . S
C35 C0 1.382 . S
C35 H12 0.951 . S
C35 C34 1.398 . S
C36 C37 1.384 . S
C36 H49 0.947 . S
C36 C71 1.382 . S
C37 C36 1.384 . S
C37 C38 1.378 . S
C38 C37 1.378 . S
C38 C39 1.378 . S
C38 H50 0.952 . S
C39 C38 1.378 . S
C39 H51 0.950 . S
C39 C70 1.383 . S
H40 C59 0.947 . S
H41 C60 0.946 . S
H42 C62 0.953 . S
H43 C63 0.945 . S
H44 C65 0.952 . S
H45 C66 0.949 . S
H46 C68 0.950 . S
H47 C69 0.948 . S
H48 C71 0.951 . S
H49 C36 0.947 . S
H50 C38 0.952 . S
H51 C39 0.950 . S
N52 C55 1.382 1_554 S
N52 C57 1.363 . S
N53 C55 1.371 . S
N53 C56 1.372 . S
N54 C56 1.361 1_554 S
N54 C57 1.377 . S
C55 N52 1.382 1_556 S
C55 N53 1.371 . S
C55 C58 1.480 . S
C56 N53 1.372 . S
C56 N54 1.361 1_556 S
C56 C64 1.457 . S
C57 N52 1.363 . S
C57 N54 1.377 . S
C57 C70 1.479 . S
C58 C55 1.480 . S
C58 C59 1.383 1_556 S
C58 C63 1.385 . S
C59 H40 0.947 . S
C59 C58 1.383 1_554 S
C59 C60 1.388 . S
C60 H41 0.946 . S
C60 C59 1.388 . S
C60 C61 1.384 1_554 S
C61 C60 1.384 1_556 S
C61 C62 1.377 . S
C62 H42 0.953 . S
C62 C61 1.377 . S
C62 C63 1.369 . S
C63 H43 0.945 . S
C63 C58 1.385 . S
C63 C62 1.369 . S
C64 C56 1.457 . S
C64 C65 1.372 . S
C64 C69 1.364 . S
C65 H44 0.952 . S
C65 C64 1.372 . S
C65 C66 1.389 . S
C66 H45 0.949 . S
C66 C65 1.389 . S
C66 C67 1.387 . S
C67 C66 1.387 . S
C67 C68 1.372 . S
C68 H46 0.950 . S
C68 C67 1.372 . S
C68 C69 1.379 . S
C69 H47 0.948 . S
C69 C64 1.364 . S
C69 C68 1.379 . S
C70 C39 1.383 . S
C70 C57 1.479 . S
C70 C71 1.398 . S
C71 C36 1.382 . S
C71 H48 0.951 . S
C71 C70 1.398 . S
C72 C73 1.384 1_565 S
C72 H85 0.947 . S
C72 C107 1.382 1_565 S
C73 C72 1.384 1_545 S
C73 C74 1.378 . S
C74 C73 1.378 . S
C74 C75 1.378 . S
C74 H86 0.952 . S
C75 C74 1.378 . S
C75 H87 0.950 . S
C75 C106 1.383 . S
H76 C95 0.947 . S
H77 C96 0.954 . S
H78 C98 0.953 . S
H79 C99 0.945 . S
H80 C101 0.947 1_565 S
H81 C102 0.957 . S
H82 C104 0.950 . S
H83 C105 0.948 . S
H84 C107 0.951 1_565 S
H85 C72 0.947 . S
H86 C74 0.952 . S
H87 C75 0.950 . S
N88 C91 1.382 . S
N88 C93 1.363 . S
N89 C91 1.371 1_556 S
N89 C92 1.372 . S
N90 C92 1.361 1_554 S
N90 C93 1.377 . S
C91 N88 1.382 . S
C91 N89 1.371 1_554 S
C91 C94 1.480 1_554 S
C92 N89 1.372 . S
C92 N90 1.361 1_556 S
C92 C100 1.457 . S
C93 N88 1.363 . S
C93 N90 1.377 . S
C93 C106 1.479 . S
C94 C91 1.480 1_556 S
C94 C95 1.383 1_556 S
C94 C99 1.385 . S
C95 H76 0.947 . S
C95 C94 1.383 1_554 S
C95 C96 1.383 1_545 S
C96 H77 0.954 . S
C96 C95 1.383 1_565 S
C96 C97 1.382 1_564 S
C97 C96 1.382 1_546 S
C97 C98 1.377 . S
C98 H78 0.953 . S
C98 C97 1.377 . S
C98 C99 1.369 . S
C99 H79 0.945 . S
C99 C94 1.385 . S
C99 C98 1.369 . S
C100 C92 1.457 . S
C100 C101 1.377 . S
C100 C105 1.364 . S
C101 H80 0.947 1_545 S
C101 C100 1.377 . S
C101 C102 1.392 1_545 S
C102 H81 0.957 . S
C102 C101 1.392 1_565 S
C102 C103 1.379 1_565 S
C103 C102 1.379 1_545 S
C103 C104 1.372 . S
C104 H82 0.950 . S
C104 C103 1.372 . S
C104 C105 1.379 . S
C105 H83 0.948 . S
C105 C100 1.364 . S
C105 C104 1.379 . S
C106 C75 1.383 . S
C106 C93 1.479 . S
C106 C107 1.398 . S
C107 C72 1.382 1_545 S
C107 H84 0.951 1_545 S
C107 C106 1.398 . S
C108 C109 1.384 . S
C108 H121 0.947 . S
C108 C143 1.382 . S
C109 C108 1.384 . S
C109 C110 1.378 . S
C110 C109 1.378 . S
C110 C111 1.378 . S
C110 H122 0.952 . S
C111 C110 1.378 . S
C111 H123 0.950 . S
C111 C142 1.383 . S
H112 C131 0.947 . S
H113 C132 0.946 . S
H114 C134 0.953 . S
H115 C135 0.945 . S
H116 C137 0.952 . S
H117 C138 0.949 . S
H118 C140 0.950 . S
H119 C141 0.948 . S
H120 C143 0.951 1_554 S
H121 C108 0.947 . S
H122 C110 0.952 . S
H123 C111 0.950 . S
N124 C127 1.382 1_556 S
N124 C129 1.363 1_556 S
N125 C127 1.371 . S
N125 C128 1.372 . S
N126 C128 1.361 . S
N126 C129 1.377 . S
C127 N124 1.382 1_554 S
C127 N125 1.371 . S
C127 C130 1.480 . S
C128 N125 1.372 . S
C128 N126 1.361 . S
C128 C136 1.457 . S
C129 N124 1.363 1_554 S
C129 N126 1.377 . S
C129 C142 1.479 1_554 S
C130 C127 1.480 . S
C130 C131 1.383 1_554 S
C130 C135 1.385 . S
C131 H112 0.947 . S
C131 C130 1.383 1_556 S
C131 C132 1.388 . S
C132 H113 0.946 . S
C132 C131 1.388 . S
C132 C133 1.384 1_556 S
C133 C132 1.384 1_554 S
C133 C134 1.377 . S
C134 H114 0.953 . S
C134 C133 1.377 . S
C134 C135 1.369 . S
C135 H115 0.945 . S
C135 C130 1.385 . S
C135 C134 1.369 . S
C136 C128 1.457 . S
C136 C137 1.372 . S
C136 C141 1.364 . S
C137 H116 0.952 . S
C137 C136 1.372 . S
C137 C138 1.389 . S
C138 H117 0.949 . S
C138 C137 1.389 . S
C138 C139 1.387 . S
C139 C138 1.387 . S
C139 C140 1.372 . S
C140 H118 0.950 . S
C140 C139 1.372 . S
C140 C141 1.379 . S
C141 H119 0.948 . S
C141 C136 1.364 . S
C141 C140 1.379 . S
C142 C111 1.383 . S
C142 C129 1.479 1_556 S
C142 C143 1.398 . S
C143 C108 1.382 . S
C143 H120 0.951 1_556 S
C143 C142 1.398 . S
C144 C145 1.384 . S
C144 H157 0.947 . S
C144 C179 1.382 . S
C145 C144 1.384 . S
C145 C146 1.378 . S
C146 C145 1.378 . S
C146 C147 1.378 . S
C146 H158 0.952 . S
C147 C146 1.378 . S
C147 H159 0.950 . S
C147 C178 1.383 . S
H148 C167 0.947 . S
H149 C168 0.946 . S
H150 C170 0.953 . S
H151 C171 0.945 . S
H152 C173 0.952 . S
H153 C174 0.949 . S
H154 C176 0.950 . S
H155 C177 0.948 . S
H156 C179 0.951 . S
H157 C144 0.947 . S
H158 C146 0.952 . S
H159 C147 0.950 . S
N160 C163 1.382 . S
N160 C165 1.363 . S
N161 C163 1.371 . S
N161 C164 1.372 . S
N162 C164 1.361 . S
N162 C165 1.377 . S
C163 N160 1.382 . S
C163 N161 1.371 . S
C163 C166 1.480 . S
C164 N161 1.372 . S
C164 N162 1.361 . S
C164 C172 1.457 . S
C165 N160 1.363 . S
C165 N162 1.377 . S
C165 C178 1.479 1_554 S
C166 C163 1.480 . S
C166 C167 1.383 . S
C166 C171 1.385 . S
C167 H148 0.947 . S
C167 C166 1.383 . S
C167 C168 1.388 . S
C168 H149 0.946 . S
C168 C167 1.388 . S
C168 C169 1.384 . S
C169 C168 1.384 . S
C169 C170 1.377 . S
C170 H150 0.953 . S
C170 C169 1.377 . S
C170 C171 1.369 . S
C171 H151 0.945 . S
C171 C166 1.385 . S
C171 C170 1.369 . S
C172 C164 1.457 . S
C172 C173 1.372 . S
C172 C177 1.364 . S
C173 H152 0.952 . S
C173 C172 1.372 . S
C173 C174 1.389 . S
C174 H153 0.949 . S
C174 C173 1.389 . S
C174 C175 1.387 . S
C175 C174 1.387 . S
C175 C176 1.372 . S
C176 H154 0.950 . S
C176 C175 1.372 . S
C176 C177 1.379 . S
C177 H155 0.948 . S
C177 C172 1.364 . S
C177 C176 1.379 . S
C178 C147 1.383 . S
C178 C165 1.479 1_556 S
C178 C179 1.398 . S
C179 C144 1.382 . S
C179 H156 0.951 . S
C179 C178 1.398 . S
C180 C181 1.384 . S
C180 H193 0.947 . S
C180 C215 1.382 . S
C181 C180 1.384 . S
C181 C182 1.378 . S
C182 C181 1.378 . S
C182 C183 1.378 . S
C182 H194 0.952 . S
C183 C182 1.378 . S
C183 H195 0.950 . S
C183 C214 1.383 . S
H184 C203 0.947 . S
H185 C204 0.946 . S
H186 C206 0.953 . S
H187 C207 0.945 . S
H188 C209 0.952 . S
H189 C210 0.949 . S
H190 C212 0.950 . S
H191 C213 0.948 . S
H192 C215 0.951 . S
H193 C180 0.947 . S
H194 C182 0.952 . S
H195 C183 0.950 . S
N196 C199 1.382 . S
N196 C201 1.363 . S
N197 C199 1.371 . S
N197 C200 1.372 . S
N198 C200 1.361 . S
N198 C201 1.377 . S
C199 N196 1.382 . S
C199 N197 1.371 . S
C199 C202 1.480 . S
C200 N197 1.372 . S
C200 N198 1.361 . S
C200 C208 1.457 . S
C201 N196 1.363 . S
C201 N198 1.377 . S
C201 C214 1.479 1_554 S
C202 C199 1.480 . S
C202 C203 1.383 . S
C202 C207 1.385 . S
C203 H184 0.947 . S
C203 C202 1.383 . S
C203 C204 1.388 . S
C204 H185 0.946 . S
C204 C203 1.388 . S
C204 C205 1.384 . S
C205 C204 1.384 . S
C205 C206 1.377 . S
C206 H186 0.953 . S
C206 C205 1.377 . S
C206 C207 1.369 . S
C207 H187 0.945 . S
C207 C202 1.385 . S
C207 C206 1.369 . S
C208 C200 1.457 . S
C208 C209 1.372 . S
C208 C213 1.364 . S
C209 H188 0.952 . S
C209 C208 1.372 . S
C209 C210 1.389 . S
C210 H189 0.949 . S
C210 C209 1.389 . S
C210 C211 1.387 . S
C211 C210 1.387 . S
C211 C212 1.372 . S
C212 H190 0.950 . S
C212 C211 1.372 . S
C212 C213 1.379 . S
C213 H191 0.948 . S
C213 C208 1.364 . S
C213 C212 1.379 . S
C214 C183 1.383 . S
C214 C201 1.479 1_556 S
C214 C215 1.398 . S
C215 C180 1.382 . S
C215 H192 0.951 . S
C215 C214 1.398 . S
C216 C217 1.383 . S
C216 H229 0.948 1_545 S
C216 C251 1.381 . S
C217 C216 1.383 . S
C217 C218 1.378 . S
C218 C217 1.378 . S
C218 C219 1.378 . S
C218 H230 0.952 . S
C219 C218 1.378 . S
C219 H231 0.950 . S
C219 C250 1.383 . S
H220 C239 0.947 . S
H221 C240 0.948 . S
H222 C242 0.953 . S
H223 C243 0.945 . S
H224 C245 0.951 1_565 S
H225 C246 0.954 . S
H226 C248 0.950 . S
H227 C249 0.948 . S
H228 C251 0.949 1_565 S
H229 C216 0.948 1_565 S
H230 C218 0.952 . S
H231 C219 0.950 . S
N232 C235 1.382 . S
N232 C237 1.363 . S
N233 C235 1.371 . S
N233 C236 1.372 . S
N234 C236 1.361 . S
N234 C237 1.377 . S
C235 N232 1.382 . S
C235 N233 1.371 . S
C235 C238 1.480 . S
C236 N233 1.372 . S
C236 N234 1.361 . S
C236 C244 1.457 . S
C237 N232 1.363 . S
C237 N234 1.377 . S
C237 C250 1.479 1_554 S
C238 C235 1.480 . S
C238 C239 1.383 . S
C238 C243 1.385 . S
C239 H220 0.947 . S
C239 C238 1.383 . S
C239 C240 1.388 1_545 S
C240 H221 0.948 . S
C240 C239 1.388 1_565 S
C240 C241 1.382 1_565 S
C241 C240 1.382 1_545 S
C241 C242 1.377 . S
C242 H222 0.953 . S
C242 C241 1.377 . S
C242 C243 1.369 . S
C243 H223 0.945 . S
C243 C238 1.385 . S
C243 C242 1.369 . S
C244 C236 1.457 . S
C244 C245 1.378 . S
C244 C249 1.364 . S
C245 H224 0.951 1_545 S
C245 C244 1.378 . S
C245 C246 1.381 1_545 S
C246 H225 0.954 . S
C246 C245 1.381 1_565 S
C246 C247 1.387 1_565 S
C247 C246 1.387 1_545 S
C247 C248 1.372 . S
C248 H226 0.950 . S
C248 C247 1.372 . S
C248 C249 1.379 . S
C249 H227 0.948 . S
C249 C244 1.364 . S
C249 C248 1.379 . S
C250 C219 1.383 . S
C250 C237 1.479 1_556 S
C250 C251 1.400 . S
C251 C216 1.381 . S
C251 H228 0.949 1_545 S
C251 C250 1.400 . S
C252 C253 1.384 . S
C252 H265 0.947 . S
C252 C287 1.382 . S
C253 C252 1.384 . S
C253 C254 1.378 . S
C254 C253 1.378 . S
C254 C255 1.378 . S
C254 H266 0.952 . S
C255 C254 1.378 . S
C255 H267 0.950 . S
C255 C286 1.383 . S
H256 C275 0.947 . S
H257 C276 0.946 . S
H258 C278 0.953 . S
H259 C279 0.945 1_556 S
H260 C281 0.952 . S
H261 C282 0.949 . S
H262 C284 0.950 . S
H263 C285 0.948 . S
H264 C287 0.951 . S
H265 C252 0.947 . S
H266 C254 0.952 . S
H267 C255 0.950 . S
N268 C271 1.382 . S
N268 C273 1.363 . S
N269 C271 1.371 1_556 S
N269 C272 1.372 . S
N270 C272 1.361 1_554 S
N270 C273 1.377 . S
C271 N268 1.382 . S
C271 N269 1.371 1_554 S
C271 C274 1.480 . S
C272 N269 1.372 . S
C272 N270 1.361 1_556 S
C272 C280 1.457 . S
C273 N268 1.363 . S
C273 N270 1.377 . S
C273 C286 1.479 . S
C274 C271 1.480 . S
C274 C275 1.383 . S
C274 C279 1.385 . S
C275 H256 0.947 . S
C275 C274 1.383 . S
C275 C276 1.388 . S
C276 H257 0.946 . S
C276 C275 1.388 . S
C276 C277 1.384 . S
C277 C276 1.384 . S
C277 C278 1.377 . S
C278 H258 0.953 . S
C278 C277 1.377 . S
C278 C279 1.369 . S
C279 H259 0.945 1_554 S
C279 C274 1.385 . S
C279 C278 1.369 . S
C280 C272 1.457 . S
C280 C281 1.372 . S
C280 C285 1.364 . S
C281 H260 0.952 . S
C281 C280 1.372 . S
C281 C282 1.389 . S
C282 H261 0.949 . S
C282 C281 1.389 . S
C282 C283 1.387 . S
C283 C282 1.387 . S
C283 C284 1.372 . S
C284 H262 0.950 . S
C284 C283 1.372 . S
C284 C285 1.379 . S
C285 H263 0.948 . S
C285 C280 1.364 . S
C285 C284 1.379 . S
C286 C255 1.383 . S
C286 C273 1.479 . S
C286 C287 1.398 . S
C287 C252 1.382 . S
C287 H264 0.951 . S
C287 C286 1.398 . S
Dy288 O292 2.398 . S
Dy288 O293 2.491 1_455 S
Dy288 O294 2.403 . S
Dy288 O295 2.664 1_565 S
Dy288 O299 2.326 . S
Dy288 O303 2.310 1_455 S
Dy288 O304 2.351 1_565 S
C289 O300 1.185 1_455 S
C289 O301 1.355 . S
C290 O292 1.185 . S
C290 O293 1.355 1_455 S
Dy291 O295 2.310 1_655 S
Dy291 O298 2.351 1_545 S
Dy291 O300 2.398 . S
Dy291 O301 2.491 1_655 S
Dy291 O302 2.403 . S
Dy291 O303 2.664 1_545 S
Dy291 O305 2.326 1_655 S
O292 Dy288 2.398 . S
O292 C290 1.185 . S
O293 Dy288 2.491 1_655 S
O293 C290 1.355 1_655 S
O294 Dy288 2.403 . S
O294 C296 1.254 . S
O295 Dy288 2.664 1_545 S
O295 Dy291 2.310 1_455 S
O295 C296 1.268 1_545 S
C296 O294 1.254 . S
C296 O295 1.268 1_565 S
C297 O302 1.254 . S
C297 O303 1.268 1_545 S
O298 Dy291 2.351 1_565 S
O298 C306 1.249 . S
O299 Dy288 2.326 . S
O299 C306 1.267 1_455 S
O300 C289 1.185 1_655 S
O300 Dy291 2.398 . S
O301 C289 1.355 . S
O301 Dy291 2.491 1_455 S
O302 Dy291 2.403 . S
O302 C297 1.254 . S
O303 Dy288 2.310 1_655 S
O303 Dy291 2.664 1_565 S
O303 C297 1.268 1_565 S
O304 Dy288 2.351 1_545 S
O304 C307 1.249 . S
O305 Dy291 2.326 1_455 S
O305 C307 1.267 . S
C306 O298 1.249 . S
C306 O299 1.267 1_655 S
C307 O304 1.249 . S
C307 O305 1.267 . S
Dy308 O312 2.398 . S
Dy308 O313 2.491 . S
Dy308 O314 2.403 . S
Dy308 O315 2.664 . S
Dy308 O319 2.326 1_565 S
Dy308 O323 2.310 1_565 S
Dy308 O324 2.351 . S
C309 O320 1.185 . S
C309 O321 1.355 . S
C310 O312 1.185 . S
C310 O313 1.355 . S
Dy311 O315 2.310 1_545 S
Dy311 O318 2.351 . S
Dy311 O320 2.398 . S
Dy311 O321 2.491 . S
Dy311 O322 2.403 . S
Dy311 O323 2.664 . S
Dy311 O325 2.326 1_545 S
O312 Dy308 2.398 . S
O312 C310 1.185 . S
O313 Dy308 2.491 . S
O313 C310 1.355 . S
O314 Dy308 2.403 . S
O314 C316 1.254 . S
O315 Dy308 2.664 . S
O315 Dy311 2.310 1_565 S
O315 C316 1.268 . S
C316 O314 1.254 . S
C316 O315 1.268 . S
C317 O322 1.254 . S
C317 O323 1.268 . S
O318 Dy311 2.351 . S
O318 C326 1.249 . S
O319 Dy308 2.326 1_545 S
O319 C326 1.267 . S
O320 C309 1.185 . S
O320 Dy311 2.398 . S
O321 C309 1.355 . S
O321 Dy311 2.491 . S
O322 Dy311 2.403 . S
O322 C317 1.254 . S
O323 Dy308 2.310 1_545 S
O323 Dy311 2.664 . S
O323 C317 1.268 . S
O324 Dy308 2.351 . S
O324 C327 1.249 . S
O325 Dy311 2.326 1_565 S
O325 C327 1.267 . S
C326 O318 1.249 . S
C326 O319 1.267 . S
C327 O324 1.249 . S
C327 O325 1.267 . S
Dy328 O332 2.398 . S
Dy328 O333 2.491 . S
Dy328 O334 2.403 . S
Dy328 O335 2.664 . S
Dy328 O339 2.326 . S
Dy328 O343 2.310 . S
Dy328 O344 2.351 . S
C329 O340 1.185 . S
C329 O341 1.355 . S
C330 O332 1.185 . S
C330 O333 1.355 . S
Dy331 O335 2.310 . S
Dy331 O338 2.351 . S
Dy331 O340 2.398 . S
Dy331 O341 2.491 . S
Dy331 O342 2.403 . S
Dy331 O343 2.664 . S
Dy331 O345 2.326 . S
O332 Dy328 2.398 . S
O332 C330 1.185 . S
O333 Dy328 2.491 . S
O333 C330 1.355 . S
O334 Dy328 2.403 . S
O334 C336 1.254 . S
O335 Dy328 2.664 . S
O335 Dy331 2.310 . S
O335 C336 1.268 . S
C336 O334 1.254 . S
C336 O335 1.268 . S
C337 O342 1.254 . S
C337 O343 1.268 . S
O338 Dy331 2.351 . S
O338 C346 1.249 . S
O339 Dy328 2.326 . S
O339 C346 1.267 . S
O340 C329 1.185 . S
O340 Dy331 2.398 . S
O341 C329 1.355 . S
O341 Dy331 2.491 . S
O342 Dy331 2.403 . S
O342 C337 1.254 . S
O343 Dy328 2.310 . S
O343 Dy331 2.664 . S
O343 C337 1.268 . S
O344 Dy328 2.351 . S
O344 C347 1.249 . S
O345 Dy331 2.326 . S
O345 C347 1.267 . S
C346 O338 1.249 . S
C346 O339 1.267 . S
C347 O344 1.249 . S
C347 O345 1.267 . S
Dy348 O352 2.398 . S
Dy348 O353 2.491 . S
Dy348 O354 2.403 1_655 S
Dy348 O355 2.664 1_655 S
Dy348 O359 2.326 . S
Dy348 O363 2.310 . S
Dy348 O364 2.351 1_655 S
C349 O360 1.185 . S
C349 O361 1.355 . S
C350 O352 1.185 . S
C350 O353 1.355 . S
Dy351 O355 2.310 . S
Dy351 O358 2.351 1_455 S
Dy351 O360 2.398 . S
Dy351 O361 2.491 . S
Dy351 O362 2.403 . S
Dy351 O363 2.664 1_455 S
Dy351 O365 2.326 . S
O352 Dy348 2.398 . S
O352 C350 1.185 . S
O353 Dy348 2.491 . S
O353 C350 1.355 . S
O354 Dy348 2.403 1_455 S
O354 C356 1.254 . S
O355 Dy348 2.664 1_455 S
O355 Dy351 2.310 . S
O355 C356 1.268 . S
C356 O354 1.254 . S
C356 O355 1.268 . S
C357 O362 1.254 1_655 S
C357 O363 1.268 . S
O358 Dy351 2.351 1_655 S
O358 C366 1.249 . S
O359 Dy348 2.326 . S
O359 C366 1.267 . S
O360 C349 1.185 . S
O360 Dy351 2.398 . S
O361 C349 1.355 . S
O361 Dy351 2.491 . S
O362 Dy351 2.403 . S
O362 C357 1.254 1_455 S
O363 Dy348 2.310 . S
O363 Dy351 2.664 1_655 S
O363 C357 1.268 . S
O364 Dy348 2.351 1_455 S
O364 C367 1.249 . S
O365 Dy351 2.326 . S
O365 C367 1.267 . S
C366 O358 1.249 . S
C366 O359 1.267 . S
C367 O364 1.249 . S
C367 O365 1.267 . S
C368 C369 1.391 . S
C368 C370 1.394 . S
C368 H384 0.931 . S
C369 C368 1.391 . S
C369 C373 1.376 1_545 S
C370 C368 1.394 . S
C370 C371 1.369 . S
C370 C374 1.531 . S
C371 C370 1.369 . S
C371 C372 1.410 1_545 S
C371 C379 1.503 . S
C372 C371 1.410 1_565 S
C372 C373 1.392 . S
C372 C375 1.511 . S
C373 C369 1.376 1_565 S
C373 C372 1.392 . S
C373 H385 0.929 . S
C374 C370 1.531 . S
C374 H386 0.960 . S
C374 H387 0.962 . S
C374 H388 0.960 . S
C375 C372 1.511 . S
C375 H389 0.961 . S
C375 H390 0.961 . S
C375 H391 0.961 . S
C376 C377 1.370 . S
C376 C378 1.363 . S
C376 H392 0.931 . S
C377 C376 1.370 . S
C377 C381 1.408 1_565 S
C378 C376 1.363 . S
C378 C379 1.370 1_565 S
C378 C382 1.524 . S
C379 C371 1.503 . S
C379 C378 1.370 1_545 S
C379 C380 1.403 . S
C380 C379 1.403 . S
C380 C381 1.404 . S
C380 C383 1.539 . S
C381 C377 1.408 1_545 S
C381 C380 1.404 . S
C381 H393 0.930 . S
C382 C378 1.524 . S
C382 H394 0.956 . S
C382 H395 0.961 . S
C382 H396 0.961 . S
C383 C380 1.539 . S
C383 H397 0.958 . S
C383 H398 0.961 . S
C383 H399 0.960 . S
H384 C368 0.931 . S
H385 C373 0.929 . S
H386 C374 0.960 . S
H387 C374 0.962 . S
H388 C374 0.960 . S
H389 C375 0.961 . S
H390 C375 0.961 . S
H391 C375 0.961 . S
H392 C376 0.931 . S
H393 C381 0.930 . S
H394 C382 0.956 . S
H395 C382 0.961 . S
H396 C382 0.961 . S
H397 C383 0.958 . S
H398 C383 0.961 . S
H399 C383 0.960 . S
C400 C401 1.391 . S
C400 C402 1.394 . S
C400 H416 0.931 . S
C401 C400 1.391 . S
C401 C405 1.376 . S
C402 C400 1.394 . S
C402 C403 1.369 . S
C402 C406 1.531 . S
C403 C402 1.369 . S
C403 C404 1.410 . S
C403 C411 1.503 . S
C404 C403 1.410 . S
C404 C405 1.392 . S
C404 C407 1.511 . S
C405 C401 1.376 . S
C405 C404 1.392 . S
C405 H417 0.929 . S
C406 C402 1.531 . S
C406 H418 0.960 . S
C406 H419 0.962 . S
C406 H420 0.960 . S
C407 C404 1.511 . S
C407 H421 0.961 . S
C407 H422 0.961 . S
C407 H423 0.961 . S
C408 C409 1.370 . S
C408 C410 1.363 . S
C408 H424 0.931 . S
C409 C408 1.370 . S
C409 C413 1.408 . S
C410 C408 1.363 . S
C410 C411 1.370 . S
C410 C414 1.524 . S
C411 C403 1.503 . S
C411 C410 1.370 . S
C411 C412 1.403 . S
C412 C411 1.403 . S
C412 C413 1.404 . S
C412 C415 1.539 . S
C413 C409 1.408 . S
C413 C412 1.404 . S
C413 H425 0.930 . S
C414 C410 1.524 . S
C414 H426 0.956 . S
C414 H427 0.961 . S
C414 H428 0.961 . S
C415 C412 1.539 . S
C415 H429 0.958 . S
C415 H430 0.961 . S
C415 H431 0.960 . S
H416 C400 0.931 . S
H417 C405 0.929 . S
H418 C406 0.960 . S
H419 C406 0.962 . S
H420 C406 0.960 . S
H421 C407 0.961 . S
H422 C407 0.961 . S
H423 C407 0.961 . S
H424 C408 0.931 . S
H425 C413 0.930 . S
H426 C414 0.956 . S
H427 C414 0.961 . S
H428 C414 0.961 . S
H429 C415 0.958 . S
H430 C415 0.961 . S
H431 C415 0.960 . S
C432 C433 1.391 . S
C432 C434 1.394 . S
C432 H448 0.931 . S
C433 C432 1.391 . S
C433 C437 1.376 . S
C434 C432 1.394 . S
C434 C435 1.369 . S
C434 C438 1.531 . S
C435 C434 1.369 . S
C435 C436 1.410 . S
C435 C443 1.503 . S
C436 C435 1.410 . S
C436 C437 1.392 . S
C436 C439 1.511 . S
C437 C433 1.376 . S
C437 C436 1.392 . S
C437 H449 0.929 . S
C438 C434 1.531 . S
C438 H450 0.960 . S
C438 H451 0.962 . S
C438 H452 0.960 . S
C439 C436 1.511 . S
C439 H453 0.961 . S
C439 H454 0.961 . S
C439 H455 0.961 . S
C440 C441 1.370 . S
C440 C442 1.363 . S
C440 H456 0.931 . S
C441 C440 1.370 . S
C441 C445 1.408 . S
C442 C440 1.363 . S
C442 C443 1.370 . S
C442 C446 1.524 . S
C443 C435 1.503 . S
C443 C442 1.370 . S
C443 C444 1.403 . S
C444 C443 1.403 . S
C444 C445 1.404 . S
C444 C447 1.539 . S
C445 C441 1.408 . S
C445 C444 1.404 . S
C445 H457 0.930 . S
C446 C442 1.524 . S
C446 H458 0.956 . S
C446 H459 0.961 . S
C446 H460 0.961 . S
C447 C444 1.539 . S
C447 H461 0.958 . S
C447 H462 0.961 . S
C447 H463 0.960 . S
H448 C432 0.931 . S
H449 C437 0.929 . S
H450 C438 0.960 . S
H451 C438 0.962 . S
H452 C438 0.960 . S
H453 C439 0.961 . S
H454 C439 0.961 . S
H455 C439 0.961 . S
H456 C440 0.931 . S
H457 C445 0.930 . S
H458 C446 0.956 . S
H459 C446 0.961 . S
H460 C446 0.961 . S
H461 C447 0.958 . S
H462 C447 0.961 . S
H463 C447 0.960 . S
C464 C465 1.391 . S
C464 C466 1.394 . S
C464 H480 0.931 . S
C465 C464 1.391 . S
C465 C469 1.376 . S
C466 C464 1.394 . S
C466 C467 1.369 . S
C466 C470 1.531 . S
C467 C466 1.369 . S
C467 C468 1.410 . S
C467 C475 1.503 . S
C468 C467 1.410 . S
C468 C469 1.392 . S
C468 C471 1.511 . S
C469 C465 1.376 . S
C469 C468 1.392 . S
C469 H481 0.929 . S
C470 C466 1.531 . S
C470 H482 0.960 . S
C470 H483 0.962 . S
C470 H484 0.960 . S
C471 C468 1.511 . S
C471 H485 0.961 . S
C471 H486 0.961 . S
C471 H487 0.961 . S
C472 C473 1.370 . S
C472 C474 1.363 . S
C472 H488 0.931 . S
C473 C472 1.370 . S
C473 C477 1.408 . S
C474 C472 1.363 . S
C474 C475 1.370 . S
C474 C478 1.524 . S
C475 C467 1.503 . S
C475 C474 1.370 . S
C475 C476 1.403 . S
C476 C475 1.403 . S
C476 C477 1.404 . S
C476 C479 1.539 . S
C477 C473 1.408 . S
C477 C476 1.404 . S
C477 H489 0.930 . S
C478 C474 1.524 . S
C478 H490 0.956 . S
C478 H491 0.961 . S
C478 H492 0.961 . S
C479 C476 1.539 . S
C479 H493 0.958 . S
C479 H494 0.961 . S
C479 H495 0.960 . S
H480 C464 0.931 . S
H481 C469 0.929 . S
H482 C470 0.960 . S
H483 C470 0.962 . S
H484 C470 0.960 . S
H485 C471 0.961 . S
H486 C471 0.961 . S
H487 C471 0.961 . S
H488 C472 0.931 . S
H489 C477 0.930 . S
H490 C478 0.956 . S
H491 C478 0.961 . S
H492 C478 0.961 . S
H493 C479 0.958 . S
H494 C479 0.961 . S
H495 C479 0.960 . S
C496 C497 1.392 . S
C496 C498 1.395 . S
C496 H512 0.929 1_545 S
C497 C496 1.392 . S
C497 C501 1.376 . S
C498 C496 1.395 . S
C498 C499 1.369 . S
C498 C502 1.530 . S
C499 C498 1.369 . S
C499 C500 1.410 . S
C499 C507 1.503 . S
C500 C499 1.410 . S
C500 C501 1.392 . S
C500 C503 1.511 . S
C501 C497 1.376 . S
C501 C500 1.392 . S
C501 H513 0.929 . S
C502 C498 1.530 . S
C502 H514 0.958 . S
C502 H515 0.965 1_545 S
C502 H516 0.959 . S
C503 C500 1.511 . S
C503 H517 0.961 . S
C503 H518 0.961 . S
C503 H519 0.961 . S
C504 C505 1.370 1_565 S
C504 C506 1.363 . S
C504 H520 0.931 . S
C505 C504 1.370 1_545 S
C505 C509 1.408 . S
C506 C504 1.363 . S
C506 C507 1.370 1_565 S
C506 C510 1.524 . S
C507 C499 1.503 . S
C507 C506 1.370 1_545 S
C507 C508 1.403 . S
C508 C507 1.403 . S
C508 C509 1.404 . S
C508 C511 1.539 . S
C509 C505 1.408 . S
C509 C508 1.404 . S
C509 H521 0.930 . S
C510 C506 1.524 . S
C510 H522 0.956 . S
C510 H523 0.961 . S
C510 H524 0.961 . S
C511 C508 1.539 . S
C511 H525 0.958 . S
C511 H526 0.961 . S
C511 H527 0.960 . S
H512 C496 0.929 1_565 S
H513 C501 0.929 . S
H514 C502 0.958 . S
H515 C502 0.965 1_565 S
H516 C502 0.959 . S
H517 C503 0.961 . S
H518 C503 0.961 . S
H519 C503 0.961 . S
H520 C504 0.931 . S
H521 C509 0.930 . S
H522 C510 0.956 . S
H523 C510 0.961 . S
H524 C510 0.961 . S
H525 C511 0.958 . S
H526 C511 0.961 . S
H527 C511 0.960 . S
C528 C529 1.391 . S
C528 C530 1.394 . S
C528 H544 0.931 . S
C529 C528 1.391 . S
C529 C533 1.376 . S
C530 C528 1.394 . S
C530 C531 1.369 . S
C530 C534 1.531 . S
C531 C530 1.369 . S
C531 C532 1.410 . S
C531 C539 1.503 . S
C532 C531 1.410 . S
C532 C533 1.392 . S
C532 C535 1.511 . S
C533 C529 1.376 . S
C533 C532 1.392 . S
C533 H545 0.929 . S
C534 C530 1.531 . S
C534 H546 0.960 . S
C534 H547 0.962 . S
C534 H548 0.960 . S
C535 C532 1.511 . S
C535 H549 0.961 . S
C535 H550 0.961 . S
C535 H551 0.961 . S
C536 C537 1.370 . S
C536 C538 1.363 . S
C536 H552 0.931 . S
C537 C536 1.370 . S
C537 C541 1.408 . S
C538 C536 1.363 . S
C538 C539 1.370 . S
C538 C542 1.524 . S
C539 C531 1.503 . S
C539 C538 1.370 . S
C539 C540 1.403 . S
C540 C539 1.403 . S
C540 C541 1.404 . S
C540 C543 1.539 . S
C541 C537 1.408 . S
C541 C540 1.404 . S
C541 H553 0.930 . S
C542 C538 1.524 . S
C542 H554 0.956 . S
C542 H555 0.961 . S
C542 H556 0.961 . S
C543 C540 1.539 . S
C543 H557 0.958 . S
C543 H558 0.961 . S
C543 H559 0.960 . S
H544 C528 0.931 . S
H545 C533 0.929 . S
H546 C534 0.960 . S
H547 C534 0.962 . S
H548 C534 0.960 . S
H549 C535 0.961 . S
H550 C535 0.961 . S
H551 C535 0.961 . S
H552 C536 0.931 . S
H553 C541 0.930 . S
H554 C542 0.956 . S
H555 C542 0.961 . S
H556 C542 0.961 . S
H557 C543 0.958 . S
H558 C543 0.961 . S
H559 C543 0.960 . S
C560 C561 1.391 . S
C560 C562 1.394 . S
C560 H576 0.931 . S
C561 C560 1.391 . S
C561 C565 1.376 . S
C562 C560 1.394 . S
C562 C563 1.369 . S
C562 C566 1.531 . S
C563 C562 1.369 . S
C563 C564 1.410 . S
C563 C571 1.503 . S
C564 C563 1.410 . S
C564 C565 1.392 . S
C564 C567 1.511 . S
C565 C561 1.376 . S
C565 C564 1.392 . S
C565 H577 0.929 . S
C566 C562 1.531 . S
C566 H578 0.960 . S
C566 H579 0.962 . S
C566 H580 0.960 . S
C567 C564 1.511 . S
C567 H581 0.961 . S
C567 H582 0.961 . S
C567 H583 0.961 . S
C568 C569 1.370 . S
C568 C570 1.363 . S
C568 H584 0.931 . S
C569 C568 1.370 . S
C569 C573 1.408 . S
C570 C568 1.363 . S
C570 C571 1.370 . S
C570 C574 1.524 . S
C571 C563 1.503 . S
C571 C570 1.370 . S
C571 C572 1.403 . S
C572 C571 1.403 . S
C572 C573 1.404 . S
C572 C575 1.539 . S
C573 C569 1.408 . S
C573 C572 1.404 . S
C573 H585 0.930 . S
C574 C570 1.524 . S
C574 H586 0.956 . S
C574 H587 0.961 . S
C574 H588 0.961 . S
C575 C572 1.539 . S
C575 H589 0.958 . S
C575 H590 0.961 . S
C575 H591 0.960 . S
H576 C560 0.931 . S
H577 C565 0.929 . S
H578 C566 0.960 . S
H579 C566 0.962 . S
H580 C566 0.960 . S
H581 C567 0.961 . S
H582 C567 0.961 . S
H583 C567 0.961 . S
H584 C568 0.931 . S
H585 C573 0.930 . S
H586 C574 0.956 . S
H587 C574 0.961 . S
H588 C574 0.961 . S
H589 C575 0.958 . S
H590 C575 0.961 . S
H591 C575 0.960 . S
C592 C593 1.391 . S
C592 C594 1.394 . S
C592 H608 0.931 . S
C593 C592 1.391 . S
C593 C597 1.376 . S
C594 C592 1.394 . S
C594 C595 1.369 . S
C594 C598 1.531 . S
C595 C594 1.369 . S
C595 C596 1.410 . S
C595 C603 1.503 . S
C596 C595 1.410 . S
C596 C597 1.392 . S
C596 C599 1.511 . S
C597 C593 1.376 . S
C597 C596 1.392 . S
C597 H609 0.929 . S
C598 C594 1.531 . S
C598 H610 0.960 . S
C598 H611 0.962 . S
C598 H612 0.960 . S
C599 C596 1.511 . S
C599 H613 0.961 . S
C599 H614 0.961 . S
C599 H615 0.961 . S
C600 C601 1.370 . S
C600 C602 1.363 . S
C600 H616 0.931 1_655 S
C601 C600 1.370 . S
C601 C605 1.408 . S
C602 C600 1.363 . S
C602 C603 1.370 . S
C602 C606 1.524 . S
C603 C595 1.503 . S
C603 C602 1.370 . S
C603 C604 1.403 . S
C604 C603 1.403 . S
C604 C605 1.404 . S
C604 C607 1.539 . S
C605 C601 1.408 . S
C605 C604 1.404 . S
C605 H617 0.930 . S
C606 C602 1.524 . S
C606 H618 0.956 . S
C606 H619 0.961 . S
C606 H620 0.961 1_655 S
C607 C604 1.539 . S
C607 H621 0.958 . S
C607 H622 0.961 . S
C607 H623 0.960 . S
H608 C592 0.931 . S
H609 C597 0.929 . S
H610 C598 0.960 . S
H611 C598 0.962 . S
H612 C598 0.960 . S
H613 C599 0.961 . S
H614 C599 0.961 . S
H615 C599 0.961 . S
H616 C600 0.931 1_455 S
H617 C605 0.930 . S
H618 C606 0.956 . S
H619 C606 0.961 . S
H620 C606 0.961 1_455 S
H621 C607 0.958 . S
H622 C607 0.961 . S
H623 C607 0.960 . S
C624 C625 1.391 . S
C624 C626 1.394 . S
C624 H640 0.931 . S
C625 C624 1.391 . S
C625 C629 1.376 . S
C626 C624 1.394 . S
C626 C627 1.369 . S
C626 C630 1.531 . S
C627 C626 1.369 . S
C627 C628 1.410 . S
C627 C635 1.503 . S
C628 C627 1.410 . S
C628 C629 1.392 . S
C628 C631 1.511 . S
C629 C625 1.376 . S
C629 C628 1.392 . S
C629 H641 0.929 . S
C630 C626 1.531 . S
C630 H642 0.960 . S
C630 H643 0.962 . S
C630 H644 0.960 . S
C631 C628 1.511 . S
C631 H645 0.961 . S
C631 H646 0.961 . S
C631 H647 0.961 . S
C632 C633 1.370 . S
C632 C634 1.363 . S
C632 H648 0.931 . S
C633 C632 1.370 . S
C633 C637 1.408 . S
C634 C632 1.363 . S
C634 C635 1.370 . S
C634 C638 1.524 . S
C635 C627 1.503 . S
C635 C634 1.370 . S
C635 C636 1.403 . S
C636 C635 1.403 . S
C636 C637 1.404 . S
C636 C639 1.539 . S
C637 C633 1.408 . S
C637 C636 1.404 . S
C637 H649 0.930 . S
C638 C634 1.524 . S
C638 H650 0.956 . S
C638 H651 0.961 . S
C638 H652 0.961 . S
C639 C636 1.539 . S
C639 H653 0.958 . S
C639 H654 0.961 . S
C639 H655 0.960 . S
H640 C624 0.931 . S
H641 C629 0.929 . S
H642 C630 0.960 . S
H643 C630 0.962 . S
H644 C630 0.960 . S
H645 C631 0.961 . S
H646 C631 0.961 . S
H647 C631 0.961 . S
H648 C632 0.931 . S
H649 C637 0.930 . S
H650 C638 0.956 . S
H651 C638 0.961 . S
H652 C638 0.961 . S
H653 C639 0.958 . S
H654 C639 0.961 . S
H655 C639 0.960 . S
C656 C657 1.391 1_565 S
C656 C658 1.394 . S
C656 H672 0.931 . S
C657 C656 1.391 1_545 S
C657 C661 1.376 . S
C658 C656 1.394 . S
C658 C659 1.369 . S
C658 C662 1.531 . S
C659 C658 1.369 . S
C659 C660 1.410 1_565 S
C659 C667 1.503 . S
C660 C659 1.410 1_545 S
C660 C661 1.392 . S
C660 C663 1.511 . S
C661 C657 1.376 . S
C661 C660 1.392 . S
C661 H673 0.929 . S
C662 C658 1.531 . S
C662 H674 0.960 . S
C662 H675 0.962 . S
C662 H676 0.960 . S
C663 C660 1.511 . S
C663 H677 0.961 . S
C663 H678 0.961 . S
C663 H679 0.961 . S
C664 C665 1.370 . S
C664 C666 1.363 . S
C664 H680 0.931 . S
C665 C664 1.370 . S
C665 C669 1.408 . S
C666 C664 1.363 . S
C666 C667 1.370 . S
C666 C670 1.524 . S
C667 C659 1.503 . S
C667 C666 1.370 . S
C667 C668 1.404 . S
C668 C667 1.404 . S
C668 C669 1.406 . S
C668 C671 1.535 1_565 S
C669 C665 1.408 . S
C669 C668 1.406 . S
C669 H681 0.927 1_565 S
C670 C666 1.524 . S
C670 H682 0.956 . S
C670 H683 0.961 . S
C670 H684 0.961 . S
C671 C668 1.535 1_545 S
C671 H685 0.958 1_545 S
C671 H686 0.961 . S
C671 H687 0.960 . S
H672 C656 0.931 . S
H673 C661 0.929 . S
H674 C662 0.960 . S
H675 C662 0.962 . S
H676 C662 0.960 . S
H677 C663 0.961 . S
H678 C663 0.961 . S
H679 C663 0.961 . S
H680 C664 0.931 . S
H681 C669 0.927 1_545 S
H682 C670 0.956 . S
H683 C670 0.961 . S
H684 C670 0.961 . S
H685 C671 0.958 1_565 S
H686 C671 0.961 . S
H687 C671 0.960 . S
C688 C689 1.391 . S
C688 C690 1.394 . S
C688 H704 0.931 . S
C689 C688 1.391 . S
C689 C693 1.376 . S
C690 C688 1.394 . S
C690 C691 1.369 . S
C690 C694 1.531 . S
C691 C690 1.369 . S
C691 C692 1.410 . S
C691 C699 1.503 . S
C692 C691 1.410 . S
C692 C693 1.392 . S
C692 C695 1.511 . S
C693 C689 1.376 . S
C693 C692 1.392 . S
C693 H705 0.929 . S
C694 C690 1.531 . S
C694 H706 0.960 . S
C694 H707 0.962 . S
C694 H708 0.960 . S
C695 C692 1.511 . S
C695 H709 0.961 . S
C695 H710 0.961 . S
C695 H711 0.961 . S
C696 C697 1.370 . S
C696 C698 1.363 . S
C696 H712 0.931 . S
C697 C696 1.370 . S
C697 C701 1.408 . S
C698 C696 1.363 . S
C698 C699 1.370 . S
C698 C702 1.524 . S
C699 C691 1.503 . S
C699 C698 1.370 . S
C699 C700 1.403 . S
C700 C699 1.403 . S
C700 C701 1.404 . S
C700 C703 1.539 . S
C701 C697 1.408 . S
C701 C700 1.404 . S
C701 H713 0.930 . S
C702 C698 1.524 . S
C702 H714 0.956 . S
C702 H715 0.961 . S
C702 H716 0.961 . S
C703 C700 1.539 . S
C703 H717 0.958 . S
C703 H718 0.961 . S
C703 H719 0.960 . S
H704 C688 0.931 . S
H705 C693 0.929 . S
H706 C694 0.960 . S
H707 C694 0.962 . S
H708 C694 0.960 . S
H709 C695 0.961 . S
H710 C695 0.961 . S
H711 C695 0.961 . S
H712 C696 0.931 . S
H713 C701 0.930 . S
H714 C702 0.956 . S
H715 C702 0.961 . S
H716 C702 0.961 . S
H717 C703 0.958 . S
H718 C703 0.961 . S
H719 C703 0.960 . S
C720 C721 1.391 . S
C720 C722 1.394 . S
C720 H736 0.931 . S
C721 C720 1.391 . S
C721 C725 1.376 . S
C722 C720 1.394 . S
C722 C723 1.369 . S
C722 C726 1.531 . S
C723 C722 1.369 . S
C723 C724 1.410 . S
C723 C731 1.503 . S
C724 C723 1.410 . S
C724 C725 1.392 . S
C724 C727 1.511 . S
C725 C721 1.376 . S
C725 C724 1.392 . S
C725 H737 0.929 . S
C726 C722 1.531 . S
C726 H738 0.960 . S
C726 H739 0.962 . S
C726 H740 0.960 . S
C727 C724 1.511 . S
C727 H741 0.961 . S
C727 H742 0.961 . S
C727 H743 0.961 . S
C728 C729 1.370 . S
C728 C730 1.363 . S
C728 H744 0.931 . S
C729 C728 1.370 . S
C729 C733 1.408 . S
C730 C728 1.363 . S
C730 C731 1.370 . S
C730 C734 1.524 . S
C731 C723 1.503 . S
C731 C730 1.370 . S
C731 C732 1.403 . S
C732 C731 1.403 . S
C732 C733 1.404 . S
C732 C735 1.539 . S
C733 C729 1.408 . S
C733 C732 1.404 . S
C733 H745 0.930 . S
C734 C730 1.524 . S
C734 H746 0.956 . S
C734 H747 0.961 . S
C734 H748 0.961 . S
C735 C732 1.539 . S
C735 H749 0.958 . S
C735 H750 0.961 . S
C735 H751 0.960 . S
H736 C720 0.931 . S
H737 C725 0.929 . S
H738 C726 0.960 . S
H739 C726 0.962 . S
H740 C726 0.960 . S
H741 C727 0.961 . S
H742 C727 0.961 . S
H743 C727 0.961 . S
H744 C728 0.931 . S
H745 C733 0.930 . S
H746 C734 0.956 . S
H747 C734 0.961 . S
H748 C734 0.961 . S
H749 C735 0.958 . S
H750 C735 0.961 . S
H751 C735 0.960 . S
C752 C753 1.391 . S
C752 C754 1.394 . S
C752 H768 0.931 . S
C753 C752 1.391 . S
C753 C757 1.376 . S
C754 C752 1.394 . S
C754 C755 1.369 . S
C754 C758 1.531 . S
C755 C754 1.369 . S
C755 C756 1.410 . S
C755 C763 1.503 . S
C756 C755 1.410 . S
C756 C757 1.392 . S
C756 C759 1.511 . S
C757 C753 1.376 . S
C757 C756 1.392 . S
C757 H769 0.929 . S
C758 C754 1.531 . S
C758 H770 0.960 . S
C758 H771 0.962 . S
C758 H772 0.960 . S
C759 C756 1.511 . S
C759 H773 0.961 . S
C759 H774 0.961 . S
C759 H775 0.961 . S
C760 C761 1.370 1_455 S
C760 C762 1.363 1_455 S
C760 H776 0.931 . S
C761 C760 1.370 1_655 S
C761 C765 1.408 . S
C762 C760 1.363 1_655 S
C762 C763 1.370 . S
C762 C766 1.524 . S
C763 C755 1.503 . S
C763 C762 1.370 . S
C763 C764 1.403 . S
C764 C763 1.403 . S
C764 C765 1.404 . S
C764 C767 1.539 . S
C765 C761 1.408 . S
C765 C764 1.404 . S
C765 H777 0.930 . S
C766 C762 1.524 . S
C766 H778 0.956 . S
C766 H779 0.961 . S
C766 H780 0.961 1_655 S
C767 C764 1.539 . S
C767 H781 0.958 . S
C767 H782 0.961 . S
C767 H783 0.960 . S
H768 C752 0.931 . S
H769 C757 0.929 . S
H770 C758 0.960 . S
H771 C758 0.962 . S
H772 C758 0.960 . S
H773 C759 0.961 . S
H774 C759 0.961 . S
H775 C759 0.961 . S
H776 C760 0.931 . S
H777 C765 0.930 . S
H778 C766 0.956 . S
H779 C766 0.961 . S
H780 C766 0.961 1_455 S
H781 C767 0.958 . S
H782 C767 0.961 . S
H783 C767 0.960 . S
C784 C785 1.407 . S
C784 C786 1.394 . S
C784 H800 0.931 . S
C785 C784 1.407 . S
C785 C789 1.367 1_545 S
C786 C784 1.394 . S
C786 C787 1.369 . S
C786 C790 1.531 . S
C787 C786 1.369 . S
C787 C788 1.410 1_545 S
C787 C795 1.503 . S
C788 C787 1.410 1_565 S
C788 C789 1.392 . S
C788 C791 1.511 . S
C789 C785 1.367 1_565 S
C789 C788 1.392 . S
C789 H801 0.929 . S
C790 C786 1.531 . S
C790 H802 0.960 . S
C790 H803 0.962 . S
C790 H804 0.960 . S
C791 C788 1.511 . S
C791 H805 0.961 . S
C791 H806 0.961 . S
C791 H807 0.961 . S
C792 C793 1.370 1_565 S
C792 C794 1.363 . S
C792 H808 0.931 . S
C793 C792 1.370 1_545 S
C793 C797 1.408 . S
C794 C792 1.363 . S
C794 C795 1.370 1_565 S
C794 C798 1.524 . S
C795 C787 1.503 . S
C795 C794 1.370 1_545 S
C795 C796 1.403 . S
C796 C795 1.403 . S
C796 C797 1.404 . S
C796 C799 1.539 . S
C797 C793 1.408 . S
C797 C796 1.404 . S
C797 H809 0.930 . S
C798 C794 1.524 . S
C798 H810 0.956 . S
C798 H811 0.961 . S
C798 H812 0.961 . S
C799 C796 1.539 . S
C799 H813 0.958 . S
C799 H814 0.961 . S
C799 H815 0.960 . S
H800 C784 0.931 . S
H801 C789 0.929 . S
H802 C790 0.960 . S
H803 C790 0.962 . S
H804 C790 0.960 . S
H805 C791 0.961 . S
H806 C791 0.961 . S
H807 C791 0.961 . S
H808 C792 0.931 . S
H809 C797 0.930 . S
H810 C798 0.956 . S
H811 C798 0.961 . S
H812 C798 0.961 . S
H813 C799 0.958 . S
H814 C799 0.961 . S
H815 C799 0.960 . S
C816 C817 1.391 . S
C816 C818 1.394 . S
C816 H832 0.931 . S
C817 C816 1.391 . S
C817 C821 1.376 . S
C818 C816 1.394 . S
C818 C819 1.369 . S
C818 C822 1.531 . S
C819 C818 1.369 . S
C819 C820 1.410 . S
C819 C827 1.503 . S
C820 C819 1.410 . S
C820 C821 1.392 . S
C820 C823 1.511 . S
C821 C817 1.376 . S
C821 C820 1.392 . S
C821 H833 0.929 . S
C822 C818 1.531 . S
C822 H834 0.960 . S
C822 H835 0.962 . S
C822 H836 0.960 . S
C823 C820 1.511 . S
C823 H837 0.961 . S
C823 H838 0.961 . S
C823 H839 0.961 . S
C824 C825 1.370 . S
C824 C826 1.363 . S
C824 H840 0.931 . S
C825 C824 1.370 . S
C825 C829 1.408 . S
C826 C824 1.363 . S
C826 C827 1.370 . S
C826 C830 1.524 . S
C827 C819 1.503 . S
C827 C826 1.370 . S
C827 C828 1.403 . S
C828 C827 1.403 . S
C828 C829 1.404 . S
C828 C831 1.539 . S
C829 C825 1.408 . S
C829 C828 1.404 . S
C829 H841 0.930 . S
C830 C826 1.524 . S
C830 H842 0.956 . S
C830 H843 0.961 . S
C830 H844 0.961 . S
C831 C828 1.539 . S
C831 H845 0.958 . S
C831 H846 0.961 . S
C831 H847 0.960 . S
H832 C816 0.931 . S
H833 C821 0.929 . S
H834 C822 0.960 . S
H835 C822 0.962 . S
H836 C822 0.960 . S
H837 C823 0.961 . S
H838 C823 0.961 . S
H839 C823 0.961 . S
H840 C824 0.931 . S
H841 C829 0.930 . S
H842 C830 0.956 . S
H843 C830 0.961 . S
H844 C830 0.961 . S
H845 C831 0.958 . S
H846 C831 0.961 . S
H847 C831 0.960 . S
C848 C849 1.391 . S
C848 C850 1.394 . S
C848 H864 0.931 . S
C849 C848 1.391 . S
C849 C853 1.376 . S
C850 C848 1.394 . S
C850 C851 1.369 . S
C850 C854 1.531 . S
C851 C850 1.369 . S
C851 C852 1.410 . S
C851 C859 1.503 . S
C852 C851 1.410 . S
C852 C853 1.392 . S
C852 C855 1.511 . S
C853 C849 1.376 . S
C853 C852 1.392 . S
C853 H865 0.929 . S
C854 C850 1.531 . S
C854 H866 0.960 . S
C854 H867 0.962 . S
C854 H868 0.960 . S
C855 C852 1.511 . S
C855 H869 0.961 . S
C855 H870 0.961 . S
C855 H871 0.961 . S
C856 C857 1.370 . S
C856 C858 1.363 . S
C856 H872 0.931 . S
C857 C856 1.370 . S
C857 C861 1.408 . S
C858 C856 1.363 . S
C858 C859 1.370 . S
C858 C862 1.524 . S
C859 C851 1.503 . S
C859 C858 1.370 . S
C859 C860 1.403 . S
C860 C859 1.403 . S
C860 C861 1.404 . S
C860 C863 1.539 . S
C861 C857 1.408 . S
C861 C860 1.404 . S
C861 H873 0.930 . S
C862 C858 1.524 . S
C862 H874 0.956 . S
C862 H875 0.961 . S
C862 H876 0.961 . S
C863 C860 1.539 . S
C863 H877 0.958 . S
C863 H878 0.961 . S
C863 H879 0.960 . S
H864 C848 0.931 . S
H865 C853 0.929 . S
H866 C854 0.960 . S
H867 C854 0.962 . S
H868 C854 0.960 . S
H869 C855 0.961 . S
H870 C855 0.961 . S
H871 C855 0.961 . S
H872 C856 0.931 . S
H873 C861 0.930 . S
H874 C862 0.956 . S
H875 C862 0.961 . S
H876 C862 0.961 . S
H877 C863 0.958 . S
H878 C863 0.961 . S
H879 C863 0.960 . S
C880 C881 1.391 . S
C880 C882 1.394 . S
C880 H896 0.931 . S
C881 C880 1.391 . S
C881 C885 1.376 . S
C882 C880 1.394 . S
C882 C883 1.369 . S
C882 C886 1.531 . S
C883 C882 1.369 . S
C883 C884 1.410 . S
C883 C891 1.503 . S
C884 C883 1.410 . S
C884 C885 1.392 . S
C884 C887 1.511 . S
C885 C881 1.376 . S
C885 C884 1.392 . S
C885 H897 0.929 . S
C886 C882 1.531 . S
C886 H898 0.960 . S
C886 H899 0.962 . S
C886 H900 0.960 . S
C887 C884 1.511 . S
C887 H901 0.961 . S
C887 H902 0.961 . S
C887 H903 0.961 . S
C888 C889 1.370 . S
C888 C890 1.363 . S
C888 H904 0.931 . S
C889 C888 1.370 . S
C889 C893 1.408 . S
C890 C888 1.363 . S
C890 C891 1.370 . S
C890 C894 1.524 . S
C891 C883 1.503 . S
C891 C890 1.370 . S
C891 C892 1.403 . S
C892 C891 1.403 . S
C892 C893 1.404 . S
C892 C895 1.539 . S
C893 C889 1.408 . S
C893 C892 1.404 . S
C893 H905 0.930 . S
C894 C890 1.524 . S
C894 H906 0.956 . S
C894 H907 0.961 . S
C894 H908 0.961 . S
C895 C892 1.539 . S
C895 H909 0.958 . S
C895 H910 0.961 . S
C895 H911 0.960 . S
H896 C880 0.931 . S
H897 C885 0.929 . S
H898 C886 0.960 . S
H899 C886 0.962 . S
H900 C886 0.960 . S
H901 C887 0.961 . S
H902 C887 0.961 . S
H903 C887 0.961 . S
H904 C888 0.931 . S
H905 C893 0.930 . S
H906 C894 0.956 . S
H907 C894 0.961 . S
H908 C894 0.961 . S
H909 C895 0.958 . S
H910 C895 0.961 . S
H911 C895 0.960 . S
C912 C913 1.391 1_565 S
C912 C914 1.394 . S
C912 H928 0.931 . S
C913 C912 1.391 1_545 S
C913 C917 1.376 . S
C914 C912 1.394 . S
C914 C915 1.369 1_565 S
C914 C918 1.531 . S
C915 C914 1.369 1_545 S
C915 C916 1.410 . S
C915 C923 1.503 . S
C916 C915 1.410 . S
C916 C917 1.392 . S
C916 C919 1.511 . S
C917 C913 1.376 . S
C917 C916 1.392 . S
C917 H929 0.929 . S
C918 C914 1.531 . S
C918 H930 0.960 . S
C918 H931 0.962 . S
C918 H932 0.960 . S
C919 C916 1.511 . S
C919 H933 0.961 . S
C919 H934 0.961 . S
C919 H935 0.961 . S
C920 C921 1.370 1_565 S
C920 C922 1.363 . S
C920 H936 0.931 . S
C921 C920 1.370 1_545 S
C921 C925 1.408 . S
C922 C920 1.363 . S
C922 C923 1.370 1_565 S
C922 C926 1.524 . S
C923 C915 1.503 . S
C923 C922 1.370 1_545 S
C923 C924 1.403 . S
C924 C923 1.403 . S
C924 C925 1.404 . S
C924 C927 1.539 . S
C925 C921 1.408 . S
C925 C924 1.404 . S
C925 H937 0.930 . S
C926 C922 1.524 . S
C926 H938 0.956 . S
C926 H939 0.961 . S
C926 H940 0.961 . S
C927 C924 1.539 . S
C927 H941 0.958 . S
C927 H942 0.961 . S
C927 H943 0.960 . S
H928 C912 0.931 . S
H929 C917 0.929 . S
H930 C918 0.960 . S
H931 C918 0.962 . S
H932 C918 0.960 . S
H933 C919 0.961 . S
H934 C919 0.961 . S
H935 C919 0.961 . S
H936 C920 0.931 . S
H937 C925 0.930 . S
H938 C926 0.956 . S
H939 C926 0.961 . S
H940 C926 0.961 . S
H941 C927 0.958 . S
H942 C927 0.961 . S
H943 C927 0.960 . S
C944 C945 1.391 . S
C944 C946 1.394 . S
C944 H960 0.931 . S
C945 C944 1.391 . S
C945 C949 1.376 . S
C946 C944 1.394 . S
C946 C947 1.369 . S
C946 C950 1.531 . S
C947 C946 1.369 . S
C947 C948 1.410 . S
C947 C955 1.503 . S
C948 C947 1.410 . S
C948 C949 1.392 . S
C948 C951 1.511 . S
C949 C945 1.376 . S
C949 C948 1.392 . S
C949 H961 0.929 . S
C950 C946 1.531 . S
C950 H962 0.960 . S
C950 H963 0.962 . S
C950 H964 0.960 . S
C951 C948 1.511 . S
C951 H965 0.961 . S
C951 H966 0.961 . S
C951 H967 0.961 . S
C952 C953 1.370 . S
C952 C954 1.363 . S
C952 H968 0.931 . S
C953 C952 1.370 . S
C953 C957 1.408 . S
C954 C952 1.363 . S
C954 C955 1.370 . S
C954 C958 1.524 . S
C955 C947 1.503 . S
C955 C954 1.370 . S
C955 C956 1.403 . S
C956 C955 1.403 . S
C956 C957 1.404 . S
C956 C959 1.539 . S
C957 C953 1.408 . S
C957 C956 1.404 . S
C957 H969 0.930 . S
C958 C954 1.524 . S
C958 H970 0.956 . S
C958 H971 0.961 . S
C958 H972 0.961 . S
C959 C956 1.539 . S
C959 H973 0.958 . S
C959 H974 0.961 . S
C959 H975 0.960 . S
H960 C944 0.931 . S
H961 C949 0.929 . S
H962 C950 0.960 . S
H963 C950 0.962 . S
H964 C950 0.960 . S
H965 C951 0.961 . S
H966 C951 0.961 . S
H967 C951 0.961 . S
H968 C952 0.931 . S
H969 C957 0.930 . S
H970 C958 0.956 . S
H971 C958 0.961 . S
H972 C958 0.961 . S
H973 C959 0.958 . S
H974 C959 0.961 . S
H975 C959 0.960 . S
C976 C977 1.391 . S
C976 C978 1.394 . S
C976 H992 0.931 . S
C977 C976 1.391 . S
C977 C981 1.376 . S
C978 C976 1.394 . S
C978 C979 1.369 . S
C978 C982 1.531 . S
C979 C978 1.369 . S
C979 C980 1.410 . S
C979 C987 1.503 . S
C980 C979 1.410 . S
C980 C981 1.392 . S
C980 C983 1.511 . S
C981 C977 1.376 . S
C981 C980 1.392 . S
C981 H993 0.929 . S
C982 C978 1.531 . S
C982 H994 0.960 . S
C982 H995 0.962 . S
C982 H996 0.960 . S
C983 C980 1.511 . S
C983 H997 0.961 . S
C983 H998 0.961 . S
C983 H999 0.961 . S
C984 C985 1.370 . S
C984 C986 1.363 . S
C984 H1000 0.931 . S
C985 C984 1.370 . S
C985 C989 1.408 . S
C986 C984 1.363 . S
C986 C987 1.370 . S
C986 C990 1.524 . S
C987 C979 1.503 . S
C987 C986 1.370 . S
C987 C988 1.403 . S
C988 C987 1.403 . S
C988 C989 1.404 . S
C988 C991 1.539 . S
C989 C985 1.408 . S
C989 C988 1.404 . S
C989 H1001 0.930 . S
C990 C986 1.524 . S
C990 H1002 0.956 . S
C990 H1003 0.961 . S
C990 H1004 0.961 . S
C991 C988 1.539 . S
C991 H1005 0.958 . S
C991 H1006 0.961 . S
C991 H1007 0.960 . S
H992 C976 0.931 . S
H993 C981 0.929 . S
H994 C982 0.960 . S
H995 C982 0.962 . S
H996 C982 0.960 . S
H997 C983 0.961 . S
H998 C983 0.961 . S
H999 C983 0.961 . S
H1000 C984 0.931 . S
H1001 C989 0.930 . S
H1002 C990 0.956 . S
H1003 C990 0.961 . S
H1004 C990 0.961 . S
H1005 C991 0.958 . S
H1006 C991 0.961 . S
H1007 C991 0.960 . S
C1008 C1009 1.391 . S
C1008 C1010 1.394 . S
C1008 H1024 0.931 . S
C1009 C1008 1.391 . S
C1009 C1013 1.376 . S
C1010 C1008 1.394 . S
C1010 C1011 1.369 . S
C1010 C1014 1.531 . S
C1011 C1010 1.369 . S
C1011 C1012 1.410 . S
C1011 C1019 1.503 . S
C1012 C1011 1.410 . S
C1012 C1013 1.392 . S
C1012 C1015 1.511 . S
C1013 C1009 1.376 . S
C1013 C1012 1.392 . S
C1013 H1025 0.929 . S
C1014 C1010 1.531 . S
C1014 H1026 0.960 . S
C1014 H1027 0.962 . S
C1014 H1028 0.942 1_655 S
C1015 C1012 1.511 . S
C1015 H1029 0.961 . S
C1015 H1030 0.961 . S
C1015 H1031 0.961 . S
C1016 C1017 1.370 . S
C1016 C1018 1.363 . S
C1016 H1032 0.931 . S
C1017 C1016 1.370 . S
C1017 C1021 1.408 . S
C1018 C1016 1.363 . S
C1018 C1019 1.370 . S
C1018 C1022 1.524 . S
C1019 C1011 1.503 . S
C1019 C1018 1.370 . S
C1019 C1020 1.403 . S
C1020 C1019 1.403 . S
C1020 C1021 1.404 . S
C1020 C1023 1.539 . S
C1021 C1017 1.408 . S
C1021 C1020 1.404 . S
C1021 H1033 0.930 . S
C1022 C1018 1.524 . S
C1022 H1034 0.956 . S
C1022 H1035 0.961 . S
C1022 H1036 0.961 . S
C1023 C1020 1.539 . S
C1023 H1037 0.958 . S
C1023 H1038 0.961 . S
C1023 H1039 0.960 . S
H1024 C1008 0.931 . S
H1025 C1013 0.929 . S
H1026 C1014 0.960 . S
H1027 C1014 0.962 . S
H1028 C1014 0.942 1_455 S
H1029 C1015 0.961 . S
H1030 C1015 0.961 . S
H1031 C1015 0.961 . S
H1032 C1016 0.931 . S
H1033 C1021 0.930 . S
H1034 C1022 0.956 . S
H1035 C1022 0.961 . S
H1036 C1022 0.961 . S
H1037 C1023 0.958 . S
H1038 C1023 0.961 . S
H1039 C1023 0.960 . S
C1040 C1041 1.391 . S
C1040 C1042 1.394 . S
C1040 H1056 0.931 . S
C1041 C1040 1.391 . S
C1041 C1045 1.380 . S
C1042 C1040 1.394 . S
C1042 C1043 1.369 . S
C1042 C1046 1.531 . S
C1043 C1042 1.369 . S
C1043 C1044 1.410 . S
C1043 C1051 1.503 . S
C1044 C1043 1.410 . S
C1044 C1045 1.393 . S
C1044 C1047 1.511 . S
C1045 C1041 1.380 . S
C1045 C1044 1.393 . S
C1045 H1057 0.926 1_565 S
C1046 C1042 1.531 . S
C1046 H1058 0.960 . S
C1046 H1059 0.969 . S
C1046 H1060 0.960 . S
C1047 C1044 1.511 . S
C1047 H1061 0.961 1_565 S
C1047 H1062 0.961 1_565 S
C1047 H1063 0.961 . S
C1048 C1049 1.370 1_545 S
C1048 C1050 1.363 . S
C1048 H1064 0.931 . S
C1049 C1048 1.370 1_565 S
C1049 C1053 1.408 . S
C1050 C1048 1.363 . S
C1050 C1051 1.370 1_545 S
C1050 C1054 1.524 . S
C1051 C1043 1.503 . S
C1051 C1050 1.370 1_565 S
C1051 C1052 1.403 . S
C1052 C1051 1.403 . S
C1052 C1053 1.404 . S
C1052 C1055 1.539 . S
C1053 C1049 1.408 . S
C1053 C1052 1.404 . S
C1053 H1065 0.930 . S
C1054 C1050 1.524 . S
C1054 H1066 0.956 . S
C1054 H1067 0.961 . S
C1054 H1068 0.961 . S
C1055 C1052 1.539 . S
C1055 H1069 0.958 . S
C1055 H1070 0.961 . S
C1055 H1071 0.960 . S
H1056 C1040 0.931 . S
H1057 C1045 0.926 1_545 S
H1058 C1046 0.960 . S
H1059 C1046 0.969 . S
H1060 C1046 0.960 . S
H1061 C1047 0.961 1_545 S
H1062 C1047 0.961 1_545 S
H1063 C1047 0.961 . S
H1064 C1048 0.931 . S
H1065 C1053 0.930 . S
H1066 C1054 0.956 . S
H1067 C1054 0.961 . S
H1068 C1054 0.961 . S
H1069 C1055 0.958 . S
H1070 C1055 0.961 . S
H1071 C1055 0.960 . S
C1072 C1073 1.391 . S
C1072 C1074 1.394 . S
C1072 H1088 0.931 . S
C1073 C1072 1.391 . S
C1073 C1077 1.376 . S
C1074 C1072 1.394 . S
C1074 C1075 1.369 . S
C1074 C1078 1.531 . S
C1075 C1074 1.369 . S
C1075 C1076 1.410 . S
C1075 C1083 1.503 . S
C1076 C1075 1.410 . S
C1076 C1077 1.392 . S
C1076 C1079 1.511 . S
C1077 C1073 1.376 . S
C1077 C1076 1.392 . S
C1077 H1089 0.929 . S
C1078 C1074 1.531 . S
C1078 H1090 0.960 . S
C1078 H1091 0.962 . S
C1078 H1092 0.960 . S
C1079 C1076 1.511 . S
C1079 H1093 0.961 . S
C1079 H1094 0.961 . S
C1079 H1095 0.961 . S
C1080 C1081 1.370 . S
C1080 C1082 1.363 . S
C1080 H1096 0.931 . S
C1081 C1080 1.370 . S
C1081 C1085 1.408 . S
C1082 C1080 1.363 . S
C1082 C1083 1.370 . S
C1082 C1086 1.524 . S
C1083 C1075 1.503 . S
C1083 C1082 1.370 . S
C1083 C1084 1.403 . S
C1084 C1083 1.403 . S
C1084 C1085 1.404 . S
C1084 C1087 1.539 . S
C1085 C1081 1.408 . S
C1085 C1084 1.404 . S
C1085 H1097 0.930 . S
C1086 C1082 1.524 . S
C1086 H1098 0.956 . S
C1086 H1099 0.961 . S
C1086 H1100 0.961 . S
C1087 C1084 1.539 . S
C1087 H1101 0.958 . S
C1087 H1102 0.961 . S
C1087 H1103 0.960 . S
H1088 C1072 0.931 . S
H1089 C1077 0.929 . S
H1090 C1078 0.960 . S
H1091 C1078 0.962 . S
H1092 C1078 0.960 . S
H1093 C1079 0.961 . S
H1094 C1079 0.961 . S
H1095 C1079 0.961 . S
H1096 C1080 0.931 . S
H1097 C1085 0.930 . S
H1098 C1086 0.956 . S
H1099 C1086 0.961 . S
H1100 C1086 0.961 . S
H1101 C1087 0.958 . S
H1102 C1087 0.961 . S
H1103 C1087 0.960 . S
C1104 C1105 1.391 . S
C1104 C1106 1.394 . S
C1104 H1120 0.931 . S
C1105 C1104 1.391 . S
C1105 C1109 1.376 . S
C1106 C1104 1.394 . S
C1106 C1107 1.369 . S
C1106 C1110 1.531 . S
C1107 C1106 1.369 . S
C1107 C1108 1.410 . S
C1107 C1115 1.503 . S
C1108 C1107 1.410 . S
C1108 C1109 1.392 . S
C1108 C1111 1.511 . S
C1109 C1105 1.376 . S
C1109 C1108 1.392 . S
C1109 H1121 0.929 . S
C1110 C1106 1.531 . S
C1110 H1122 0.960 . S
C1110 H1123 0.962 . S
C1110 H1124 0.960 . S
C1111 C1108 1.511 . S
C1111 H1125 0.961 . S
C1111 H1126 0.961 . S
C1111 H1127 0.961 . S
C1112 C1113 1.370 . S
C1112 C1114 1.363 . S
C1112 H1128 0.931 . S
C1113 C1112 1.370 . S
C1113 C1117 1.408 . S
C1114 C1112 1.363 . S
C1114 C1115 1.370 . S
C1114 C1118 1.524 . S
C1115 C1107 1.503 . S
C1115 C1114 1.370 . S
C1115 C1116 1.403 . S
C1116 C1115 1.403 . S
C1116 C1117 1.404 . S
C1116 C1119 1.539 . S
C1117 C1113 1.408 . S
C1117 C1116 1.404 . S
C1117 H1129 0.930 . S
C1118 C1114 1.524 . S
C1118 H1130 0.956 . S
C1118 H1131 0.961 . S
C1118 H1132 0.961 . S
C1119 C1116 1.539 . S
C1119 H1133 0.958 . S
C1119 H1134 0.961 . S
C1119 H1135 0.960 . S
H1120 C1104 0.931 . S
H1121 C1109 0.929 . S
H1122 C1110 0.960 . S
H1123 C1110 0.962 . S
H1124 C1110 0.960 . S
H1125 C1111 0.961 . S
H1126 C1111 0.961 . S
H1127 C1111 0.961 . S
H1128 C1112 0.931 . S
H1129 C1117 0.930 . S
H1130 C1118 0.956 . S
H1131 C1118 0.961 . S
H1132 C1118 0.961 . S
H1133 C1119 0.958 . S
H1134 C1119 0.961 . S
H1135 C1119 0.960 . S
C369 C241 1.686 . S
C377 C296 1.779 . S
C409 C326 2.406 . S
C401 C277 2.246 . S
C441 C336 1.870 . S
C433 C169 1.701 . S
C473 C356 1.766 . S
C465 C205 1.628 . S
C505 C297 1.774 . S
C497 C97 1.653 . S
C529 C133 2.308 1_556 S
C537 C327 2.410 . S
C561 C25 1.761 . S
C569 C337 1.857 . S
C593 C61 1.594 . S
C601 C357 1.766 . S
C633 C289 0.779 . S
C625 C211 0.764 . S
C665 C310 0.353 . S
C657 C247 0.301 . S
C697 C329 1.079 . S
C689 C253 0.953 . S
C721 C175 0.683 . S
C729 C349 0.554 . S
C753 C67 0.866 . S
C761 C290 0.794 1_655 S
C793 C309 0.263 . S
C785 C103 0.501 . S
C825 C330 1.074 . S
C817 C109 1.021 . S
C849 C31 0.591 . S
C857 C350 0.552 . S
C881 C181 2.324 . S
C889 C307 2.468 . S
C913 C217 1.807 . S
C921 C317 1.989 . S
C953 C347 2.674 . S
C945 C283 2.316 . S
C985 C367 2.529 . S
C977 C145 2.348 . S
C1009 C37 2.225 . S
C1017 C306 2.478 . S
C1049 C316 1.989 . S
C1041 C73 1.804 1_565 S
C1081 C346 2.667 . S
C1073 C139 2.414 . S
C1105 C1 2.360 . S
C1113 C366 2.529 . S
