# Generated by pormake.
# Topology the, (3,8)-cn, num edge types: 1
# Building blocks:
#     Node 0, Type 0, BuildingBlock: ESEHIV_clean_linker_0, # of connection points: 3
#     Node 1, Type 0, BuildingBlock: ESEHIV_clean_linker_0, # of connection points: 3
#     Node 2, Type 0, BuildingBlock: ESEHIV_clean_linker_0, # of connection points: 3
#     Node 3, Type 0, BuildingBlock: ESEHIV_clean_linker_0, # of connection points: 3
#     Node 4, Type 0, BuildingBlock: ESEHIV_clean_linker_0, # of connection points: 3
#     Node 5, Type 0, BuildingBlock: ESEHIV_clean_linker_0, # of connection points: 3
#     Node 6, Type 0, BuildingBlock: ESEHIV_clean_linker_0, # of connection points: 3
#     Node 7, Type 0, BuildingBlock: ESEHIV_clean_linker_0, # of connection points: 3
#     Node 8, Type 1, BuildingBlock: GIZVER_clean_sbu_0, # of connection points: 8
#     Node 9, Type 1, BuildingBlock: GIZVER_clean_sbu_0, # of connection points: 8
#     Node 10, Type 1, BuildingBlock: GIZVER_clean_sbu_0, # of connection points: 8
#     Edge 11, Type (0, 1), BuildingBlock: XIVTED_clean_linker_0, # of connection points: 2
#     Edge 12, Type (0, 1), BuildingBlock: XIVTED_clean_linker_0, # of connection points: 2
#     Edge 13, Type (0, 1), BuildingBlock: XIVTED_clean_linker_0, # of connection points: 2
#     Edge 14, Type (0, 1), BuildingBlock: XIVTED_clean_linker_0, # of connection points: 2
#     Edge 15, Type (0, 1), BuildingBlock: XIVTED_clean_linker_0, # of connection points: 2
#     Edge 16, Type (0, 1), BuildingBlock: XIVTED_clean_linker_0, # of connection points: 2
#     Edge 17, Type (0, 1), BuildingBlock: XIVTED_clean_linker_0, # of connection points: 2
#     Edge 18, Type (0, 1), BuildingBlock: XIVTED_clean_linker_0, # of connection points: 2
#     Edge 19, Type (0, 1), BuildingBlock: XIVTED_clean_linker_0, # of connection points: 2
#     Edge 20, Type (0, 1), BuildingBlock: XIVTED_clean_linker_0, # of connection points: 2
#     Edge 21, Type (0, 1), BuildingBlock: XIVTED_clean_linker_0, # of connection points: 2
#     Edge 22, Type (0, 1), BuildingBlock: XIVTED_clean_linker_0, # of connection points: 2
#     Edge 23, Type (0, 1), BuildingBlock: XIVTED_clean_linker_0, # of connection points: 2
#     Edge 24, Type (0, 1), BuildingBlock: XIVTED_clean_linker_0, # of connection points: 2
#     Edge 25, Type (0, 1), BuildingBlock: XIVTED_clean_linker_0, # of connection points: 2
#     Edge 26, Type (0, 1), BuildingBlock: XIVTED_clean_linker_0, # of connection points: 2
#     Edge 27, Type (0, 1), BuildingBlock: XIVTED_clean_linker_0, # of connection points: 2
#     Edge 28, Type (0, 1), BuildingBlock: XIVTED_clean_linker_0, # of connection points: 2
#     Edge 29, Type (0, 1), BuildingBlock: XIVTED_clean_linker_0, # of connection points: 2
#     Edge 30, Type (0, 1), BuildingBlock: XIVTED_clean_linker_0, # of connection points: 2
#     Edge 31, Type (0, 1), BuildingBlock: XIVTED_clean_linker_0, # of connection points: 2
#     Edge 32, Type (0, 1), BuildingBlock: XIVTED_clean_linker_0, # of connection points: 2
#     Edge 33, Type (0, 1), BuildingBlock: XIVTED_clean_linker_0, # of connection points: 2
#     Edge 34, Type (0, 1), BuildingBlock: XIVTED_clean_linker_0, # of connection points: 2
# Relax obj value: 0.048
# Max RMSD: 0.137
# Mean RMSD: 0.072
data_MOF--net-the--node1-GIZVER_clean_sbu_0--node2-ESEHIV_clean_linker_0--edge1-XIVTED_clean_linker_0
_symmetry_space_group_name_H-M    P1
_symmetry_Int_Tables_number       1
_symmetry_cell_setting            triclinic
loop_
_symmetry_equiv_pos_as_xyz
'x, y, z'
_cell_length_a     39.576398
_cell_length_b     37.284308
_cell_length_c     34.321039
_cell_angle_alpha  86.648467
_cell_angle_beta   95.919644
_cell_angle_gamma 104.88319
loop_
_atom_site_label
_atom_site_type_symbol
_atom_site_fract_x
_atom_site_fract_y
_atom_site_fract_z
_atom_type_partial_charge
H0 H 0.28648 0.38146 0.36602 0.0
H1 H 0.34987 0.30641 0.35108 0.0
H2 H 0.29157 0.29365 0.45209 0.0
C3 C 0.29715 0.35843 0.3771 0.0
C4 C 0.28629 0.33901 0.41183 0.0
C5 C 0.31995 0.34672 0.35507 0.0
C6 C 0.33224 0.31566 0.36807 0.0
C7 C 0.32239 0.29686 0.40328 0.0
C8 C 0.29963 0.3087 0.42521 0.0
H9 H 0.72684 0.29257 0.36013 0.0
H10 H 0.7265 0.38639 0.28066 0.0
H11 H 0.64233 0.28748 0.26962 0.0
C12 C 0.71491 0.30486 0.33471 0.0
C13 C 0.68184 0.28585 0.31726 0.0
C14 C 0.73164 0.34091 0.32116 0.0
C15 C 0.71458 0.35812 0.29007 0.0
C16 C 0.68175 0.33929 0.27195 0.0
C17 C 0.66673 0.30272 0.28472 0.0
H18 H 0.66807 0.75052 0.28881 0.0
H19 H 0.74523 0.68679 0.29284 0.0
H20 H 0.75056 0.76379 0.38287 0.0
C21 C 0.69206 0.74424 0.30201 0.0
C22 C 0.70853 0.76133 0.33697 0.0
C23 C 0.70474 0.71668 0.28618 0.0
C24 C 0.73533 0.70808 0.30456 0.0
C25 C 0.75193 0.7249 0.3394 0.0
C26 C 0.73828 0.75134 0.35548 0.0
H27 H 0.28088 0.72043 0.37325 0.0
H28 H 0.36685 0.72369 0.3054 0.0
H29 H 0.26859 0.64291 0.28147 0.0
C30 C 0.29104 0.71003 0.3493 0.0
C31 C 0.2706 0.67861 0.32928 0.0
C32 C 0.32559 0.72683 0.34023 0.0
C33 C 0.3398 0.71164 0.31108 0.0
C34 C 0.31969 0.68087 0.28994 0.0
C35 C 0.28482 0.6655 0.29861 0.0
H36 H 0.31025 0.73264 0.6723 0.0
H37 H 0.30607 0.6395 0.75327 0.0
H38 H 0.39632 0.73328 0.75949 0.0
C39 C 0.32237 0.71929 0.69676 0.0
C40 C 0.35523 0.73789 0.71485 0.0
C41 C 0.30473 0.68353 0.70982 0.0
C42 C 0.3197 0.66685 0.74286 0.0
C43 C 0.35259 0.68506 0.76176 0.0
C44 C 0.37014 0.72018 0.74689 0.0
H45 H 0.2869 0.33722 0.73751 0.0
H46 H 0.36718 0.27766 0.74488 0.0
H47 H 0.28432 0.25791 0.65073 0.0
C48 C 0.29774 0.31622 0.72666 0.0
C49 C 0.28147 0.29755 0.69267 0.0
C50 C 0.32894 0.3096 0.74545 0.0
C51 C 0.343 0.28268 0.73066 0.0
C52 C 0.32704 0.26357 0.69654 0.0
C53 C 0.29622 0.27131 0.67776 0.0
H54 H 0.66783 0.2998 0.73283 0.0
H55 H 0.75305 0.30652 0.66191 0.0
H56 H 0.75961 0.39065 0.74531 0.0
C57 C 0.69405 0.31332 0.72504 0.0
C58 C 0.71218 0.34701 0.74217 0.0
C59 C 0.70862 0.29851 0.69586 0.0
C60 C 0.74211 0.31748 0.68485 0.0
C61 C 0.76103 0.35084 0.70242 0.0
C62 C 0.74567 0.36512 0.73123 0.0
H63 H 0.69886 0.7335 0.69786 0.0
H64 H 0.75848 0.65455 0.68331 0.0
H65 H 0.76037 0.74545 0.59951 0.0
C66 C 0.71689 0.72398 0.68172 0.0
C67 C 0.72838 0.74301 0.64719 0.0
C68 C 0.72723 0.69168 0.69444 0.0
C69 C 0.74982 0.67905 0.67295 0.0
C70 C 0.76239 0.69879 0.63911 0.0
C71 C 0.75127 0.7305 0.62608 0.0
Co72 Co 0.08293 0.46904 0.54035 0.0
Co73 Co 0.04246 0.45393 0.47313 0.0
Co74 Co 0.01724 0.51197 0.51719 0.0
O75 O 0.03432 0.46599 0.52344 0.0
H76 H 0.01823 0.44552 0.53571 0.0
O77 O 1.00059 0.55831 0.51069 0.0
Co78 Co 0.95235 0.55578 0.49367 0.0
Co79 Co 0.99275 0.57093 0.56063 0.0
H80 H 0.01681 0.57863 0.49834 0.0
O81 O 0.05105 0.40803 0.46274 0.0
O82 O 0.08967 0.45856 0.48689 0.0
O83 O 0.04296 0.49119 0.43123 0.0
O84 O 0.04846 0.53482 0.47426 0.0
O85 O 0.97825 0.48597 0.47757 0.0
O86 O 0.90897 0.55769 0.47721 0.0
O87 O 0.95828 0.60416 0.47723 0.0
O88 O 0.93976 0.50506 0.50686 0.0
O89 O 0.98606 0.48938 0.56027 0.0
O90 O 0.99204 0.5338 0.60259 0.0
O91 O 0.94564 0.56699 0.54685 0.0
O92 O 0.98489 0.61719 0.5708 0.0
C93 C 0.11126 0.43267 0.5641 0.0
C94 C 0.08799 0.54103 0.55192 0.0
C95 C 0.05343 0.52489 0.44074 0.0
C96 C 0.08313 0.42551 0.47357 0.0
C97 C 0.92436 0.59211 0.46907 0.0
C98 C 0.94621 0.48403 0.48245 0.0
C99 C 0.98117 0.49999 0.59354 0.0
C100 C 0.95267 0.60011 0.56006 0.0
O101 O 0.12646 0.46731 0.55661 0.0
O102 O 0.07733 0.42053 0.55603 0.0
O103 O 0.05582 0.53774 0.55698 0.0
O104 O 0.09556 0.52027 0.52799 0.0
Co105 Co 0.55842 0.94473 0.50037 0.0
Co106 Co 0.57441 0.97773 0.56774 0.0
Co107 Co 0.51902 0.01223 0.51755 0.0
O108 O 0.56184 0.99362 0.51714 0.0
H109 H 0.58129 0.012 0.50719 0.0
O110 O 0.47647 0.03144 0.51824 0.0
Co111 Co 0.48175 0.08048 0.53659 0.0
Co112 Co 0.46337 0.0489 0.4688 0.0
H113 H 0.45698 0.01332 0.52837 0.0
O114 O 0.61992 0.97566 0.58245 0.0
O115 O 0.57599 0.93114 0.55388 0.0
O116 O 0.5405 0.96877 0.60618 0.0
O117 O 0.49845 0.97743 0.56145 0.0
O118 O 0.5466 0.05047 0.55577 0.0
O119 O 0.48336 0.12399 0.55519 0.0
O120 O 0.43819 0.07295 0.55382 0.0
O121 O 0.52829 0.0952 0.52284 0.0
O122 O 0.53953 0.04712 0.47324 0.0
O123 O 0.49639 0.056 0.42999 0.0
O124 O 0.46449 0.09611 0.484 0.0
O125 O 0.41838 0.05421 0.45544 0.0
C126 C 0.58977 0.91814 0.47504 0.0
C127 C 0.48934 0.93866 0.48813 0.0
C128 C 0.50827 0.9646 0.59482 0.0
C129 C 0.60797 0.94208 0.57016 0.0
C130 C 0.45186 0.10734 0.56395 0.0
C131 C 0.55047 0.08501 0.54744 0.0
C132 C 0.52883 0.05985 0.44011 0.0
C133 C 0.43216 0.08727 0.46849 0.0
O134 O 0.55844 0.90075 0.48372 0.0
O135 O 0.60217 0.9531 0.48357 0.0
O136 O 0.49143 0.9731 0.47992 0.0
O137 O 0.51189 0.92977 0.51337 0.0
Co138 Co 0.47367 0.53058 0.09178 0.0
Co139 Co 0.45827 0.46296 0.07043 0.0
Co140 Co 0.51558 0.51172 0.0173 0.0
O141 O 0.47171 0.50712 0.04324 0.0
H142 H 0.45249 0.51065 0.02493 0.0
O143 O 0.55917 0.51652 0.9911 0.0
Co144 Co 0.55728 0.49687 0.9403 0.0
Co145 Co 0.57206 0.56326 0.96754 0.0
H146 H 0.57829 0.51191 1.00887 0.0
O147 O 0.41233 0.44361 0.07992 0.0
O148 O 0.45485 0.48178 0.1182 0.0
O149 O 0.49151 0.43336 0.07904 0.0
O150 O 0.53538 0.47653 0.05561 0.0
O151 O 0.48958 0.46986 0.9827 0.0
O152 O 0.55894 0.47806 0.89447 0.0
O153 O 0.60111 0.48893 0.94482 0.0
O154 O 0.51035 0.50004 0.92942 0.0
O155 O 0.49562 0.54647 0.97915 0.0
O156 O 0.53868 0.59357 0.9611 0.0
O157 O 0.57551 0.54794 0.91816 0.0
O158 O 0.61789 0.58364 0.95878 0.0
C159 C 0.44162 0.55502 0.11844 0.0
C160 C 0.54381 0.55013 0.0887 0.0
C161 C 0.52397 0.44629 0.07528 0.0
C162 C 0.42321 0.46015 0.11287 0.0
C163 C 0.58991 0.47629 0.90981 0.0
C164 C 0.48739 0.47469 0.94542 0.0
C165 C 0.50625 0.57826 0.96224 0.0
C166 C 0.60716 0.5693 0.9247 0.0
O167 O 0.47243 0.55396 0.13491 0.0
O168 O 0.43005 0.53881 0.08516 0.0
O169 O 0.54197 0.55402 0.0514 0.0
O170 O 0.51993 0.5263 0.10491 0.0
H171 H 0.22899 0.29125 0.44064 0.0
H172 H 0.08061 0.35262 0.46196 0.0
H173 H 0.28026 0.40784 0.428 0.0
H174 H 0.15243 0.46041 0.47907 0.0
H175 H 0.13035 0.32673 0.45555 0.0
H176 H 0.17911 0.30739 0.46438 0.0
C177 C 0.22987 0.32029 0.4433 0.0
C178 C 0.25849 0.34833 0.4317 0.0
C179 C 0.13545 0.35584 0.46166 0.0
C180 C 0.2008 0.36707 0.45697 0.0
C181 C 0.10691 0.37069 0.46474 0.0
C182 C 0.11246 0.40865 0.47087 0.0
C183 C 0.16965 0.37931 0.46471 0.0
C184 C 0.14695 0.43094 0.47432 0.0
C185 C 0.20103 0.32952 0.4562 0.0
C186 C 0.25832 0.38541 0.43574 0.0
N187 N 0.17417 0.41596 0.47093 0.0
N188 N 0.22974 0.39369 0.44769 0.0
H189 H 0.61074 0.26349 0.32151 0.0
H190 H 0.60095 0.08282 0.45505 0.0
H191 H 0.70509 0.22653 0.35363 0.0
H192 H 0.51553 0.09868 0.37253 0.0
H193 H 0.64052 0.13566 0.42327 0.0
H194 H 0.5762 0.20498 0.34644 0.0
C195 C 0.62436 0.24291 0.3332 0.0
C196 C 0.66112 0.24996 0.33429 0.0
C197 C 0.61323 0.12704 0.41184 0.0
C198 C 0.62106 0.18259 0.36463 0.0
C199 C 0.59059 0.09681 0.42983 0.0
C200 C 0.55462 0.08631 0.41674 0.0
C201 C 0.59966 0.14721 0.38101 0.0
C202 C 0.54285 0.1057 0.38398 0.0
C203 C 0.60443 0.20941 0.34773 0.0
C204 C 0.67691 0.22248 0.35193 0.0
N205 N 0.56513 0.13544 0.36774 0.0
N206 N 0.6568 0.19001 0.36656 0.0
H207 H 0.75601 0.70007 0.41544 0.0
H208 H 0.94305 0.65562 0.42246 0.0
H209 H 0.81337 0.71895 0.31281 0.0
H210 H 0.85562 0.58494 0.47783 0.0
H211 H 0.90359 0.6932 0.39213 0.0
H212 H 0.80117 0.67247 0.4497 0.0
C213 C 0.77845 0.69897 0.40038 0.0
C214 C 0.781 0.71167 0.36126 0.0
C215 C 0.89338 0.66962 0.41127 0.0
C216 C 0.83269 0.68042 0.40027 0.0
C217 C 0.91579 0.64835 0.42864 0.0
C218 C 0.90252 0.61711 0.45257 0.0
C219 C 0.85793 0.66007 0.419 0.0
C220 C 0.86695 0.60872 0.45951 0.0
C221 C 0.80404 0.68309 0.41983 0.0
C222 C 0.81044 0.70923 0.34292 0.0
N223 N 0.84598 0.63016 0.44303 0.0
N224 N 0.83526 0.69388 0.36261 0.0
H225 H 0.31002 0.79229 0.35551 0.0
H226 H 0.48708 0.86499 0.49268 0.0
H227 H 0.39184 0.7344 0.37593 0.0
H228 H 0.43169 0.94224 0.43551 0.0
H229 H 0.44647 0.81479 0.45738 0.0
H230 H 0.34848 0.84532 0.39135 0.0
C231 C 0.33598 0.7907 0.36768 0.0
C232 C 0.34782 0.75894 0.36262 0.0
C233 C 0.4431 0.84267 0.45242 0.0
C234 C 0.39162 0.81911 0.40376 0.0
C235 C 0.46632 0.87156 0.4727 0.0
C236 C 0.46315 0.90826 0.46695 0.0
C237 C 0.41585 0.84994 0.42628 0.0
C238 C 0.43532 0.91451 0.44072 0.0
C239 C 0.35792 0.82099 0.38785 0.0
C240 C 0.38173 0.75839 0.37879 0.0
N241 N 0.41263 0.88559 0.42139 0.0
N242 N 0.40225 0.78782 0.39874 0.0
H243 H 0.29259 0.67697 0.63064 0.0
H244 H 0.0895 0.56685 0.6263 0.0
H245 H 0.24171 0.64413 0.73695 0.0
H246 H 0.15381 0.57163 0.53111 0.0
H247 H 0.14156 0.60243 0.66608 0.0
H248 H 0.23871 0.64549 0.59268 0.0
C249 C 0.26996 0.66324 0.64603 0.0
C250 C 0.27173 0.66334 0.6871 0.0
C251 C 0.14409 0.59581 0.63639 0.0
C252 C 0.20948 0.62696 0.64351 0.0
C253 C 0.11436 0.57584 0.61359 0.0
C254 C 0.11731 0.56622 0.57533 0.0
C255 C 0.17674 0.60668 0.6205 0.0
C256 C 0.15028 0.57824 0.56049 0.0
C257 C 0.23918 0.64511 0.62431 0.0
C258 C 0.24159 0.64457 0.70538 0.0
N259 N 0.17852 0.59778 0.58298 0.0
N260 N 0.21162 0.62728 0.68346 0.0
H261 H 0.29617 0.19619 0.66261 0.0
H262 H 0.47774 0.17496 0.5958 0.0
H263 H 0.39697 0.27306 0.68875 0.0
H264 H 0.38163 0.08869 0.5786 0.0
H265 H 0.44699 0.21113 0.62853 0.0
H266 H 0.32529 0.15655 0.63069 0.0
C267 C 0.32439 0.20471 0.66174 0.0
C268 C 0.34413 0.23801 0.67864 0.0
C269 C 0.43245 0.18428 0.61778 0.0
C270 C 0.37755 0.19277 0.64215 0.0
C271 C 0.45004 0.16349 0.5989 0.0
C272 C 0.43231 0.12855 0.58438 0.0
C273 C 0.39656 0.1704 0.62227 0.0
C274 C 0.39639 0.11539 0.58949 0.0
C275 C 0.34098 0.18198 0.64365 0.0
C276 C 0.38064 0.24744 0.67683 0.0
N277 N 0.37962 0.13639 0.60796 0.0
N278 N 0.39603 0.22508 0.65887 0.0
H279 H 0.78817 0.42659 0.69662 0.0
H280 H 0.95366 0.42465 0.58721 0.0
H281 H 0.81398 0.32339 0.67829 0.0
H282 H 0.94756 0.51784 0.65274 0.0
H283 H 0.9021 0.38659 0.61726 0.0
H284 H 0.84515 0.46041 0.67668 0.0
C285 C 0.80586 0.41084 0.68896 0.0
C286 C 0.796 0.37178 0.6897 0.0
C287 C 0.91247 0.4152 0.62549 0.0
C288 C 0.86147 0.41095 0.66544 0.0
C289 C 0.94198 0.43694 0.60846 0.0
C290 C 0.95501 0.47464 0.61727 0.0
C291 C 0.89549 0.43144 0.65091 0.0
C292 C 0.93861 0.48899 0.64497 0.0
C293 C 0.83848 0.43035 0.67733 0.0
C294 C 0.82002 0.35339 0.67786 0.0
N295 N 0.90944 0.46758 0.66025 0.0
N296 N 0.8515 0.37312 0.66598 0.0
H297 H 0.69374 0.75097 0.57615 0.0
H298 H 0.67308 0.95283 0.61025 0.0
H299 H 0.73287 0.80679 0.68442 0.0
H300 H 0.5918 0.87008 0.54818 0.0
H301 H 0.70666 0.90626 0.62594 0.0
H302 H 0.66772 0.8024 0.55323 0.0
C303 C 0.69716 0.77437 0.59477 0.0
C304 C 0.71512 0.77492 0.63217 0.0
C305 C 0.68164 0.89866 0.60847 0.0
C306 C 0.68609 0.8333 0.60627 0.0
C307 C 0.6625 0.92509 0.59945 0.0
C308 C 0.62965 0.9153 0.57766 0.0
C309 C 0.66805 0.8626 0.59496 0.0
C310 C 0.61717 0.87894 0.56456 0.0
C311 C 0.6823 0.80343 0.58182 0.0
C312 C 0.71888 0.80552 0.65549 0.0
N313 N 0.63647 0.85385 0.57332 0.0
N314 N 0.70445 0.83371 0.64211 0.0
H315 H 0.3582 0.28587 0.47309 0.0
H316 H 0.36801 0.08208 0.42775 0.0
H317 H 0.31518 0.23405 0.36359 0.0
H318 H 0.45104 0.1576 0.49622 0.0
H319 H 0.33747 0.13154 0.41522 0.0
H320 H 0.3817 0.23202 0.49334 0.0
C321 C 0.35353 0.26294 0.45357 0.0
C322 C 0.33519 0.26419 0.41659 0.0
C323 C 0.3622 0.13693 0.43334 0.0
C324 C 0.36119 0.20301 0.43951 0.0
C325 C 0.37961 0.10883 0.44058 0.0
C326 C 0.41215 0.11574 0.46307 0.0
C327 C 0.3772 0.17184 0.44927 0.0
C328 C 0.42595 0.15093 0.47892 0.0
C329 C 0.36691 0.23247 0.46502 0.0
C330 C 0.32962 0.23404 0.39216 0.0
N331 N 0.40836 0.17772 0.47175 0.0
N332 N 0.34258 0.20449 0.40409 0.0
H333 H 0.79208 0.31772 0.34134 0.0
H334 H 0.87752 0.48469 0.48101 0.0
H335 H 0.74794 0.41119 0.34877 0.0
H336 H 0.94494 0.43097 0.42775 0.0
H337 H 0.82767 0.4506 0.43972 0.0
H338 H 0.84627 0.35186 0.37872 0.0
C339 C 0.79386 0.34545 0.35068 0.0
C340 C 0.76544 0.36168 0.34184 0.0
C341 C 0.85333 0.44627 0.43686 0.0
C342 C 0.82694 0.40043 0.38499 0.0
C343 C 0.88205 0.46576 0.46056 0.0
C344 C 0.91593 0.46124 0.45769 0.0
C345 C 0.85785 0.42113 0.41033 0.0
C346 C 0.91946 0.4356 0.43084 0.0
C347 C 0.82479 0.3649 0.37179 0.0
C348 C 0.7692 0.3977 0.35457 0.0
N349 N 0.8907 0.41628 0.40829 0.0
N350 N 0.79911 0.4156 0.37581 0.0
H351 H 0.69361 0.82666 0.30847 0.0
H352 H 0.58426 0.84411 0.48257 0.0
H353 H 0.68776 0.75314 0.41062 0.0
H354 H 0.64191 0.94365 0.42495 0.0
H355 H 0.61529 0.80784 0.44968 0.0
H356 H 0.66786 0.8678 0.34348 0.0
C357 C 0.68684 0.81923 0.33818 0.0
C358 C 0.69276 0.78658 0.3568 0.0
C359 C 0.62137 0.83765 0.44439 0.0
C360 C 0.66321 0.83287 0.39649 0.0
C361 C 0.60368 0.85844 0.46317 0.0
C362 C 0.61072 0.89708 0.45677 0.0
C363 C 0.6456 0.85527 0.41792 0.0
C364 C 0.63598 0.91397 0.43097 0.0
C365 C 0.67248 0.84275 0.35815 0.0
C366 C 0.68373 0.77816 0.39534 0.0
N367 N 0.65224 0.89286 0.41197 0.0
N368 N 0.66908 0.80091 0.41373 0.0
H369 H 0.24148 0.60328 0.32874 0.0
H370 H 0.08125 0.59987 0.44983 0.0
H371 H 0.21947 0.7052 0.35955 0.0
H372 H 0.08527 0.50966 0.37854 0.0
H373 H 0.13161 0.63942 0.41899 0.0
H374 H 0.1851 0.56884 0.34933 0.0
C375 C 0.22467 0.61871 0.33918 0.0
C376 C 0.23549 0.6576 0.34171 0.0
C377 C 0.12105 0.61115 0.40969 0.0
C378 C 0.17061 0.61747 0.36691 0.0
C379 C 0.09221 0.58854 0.42719 0.0
C380 C 0.07897 0.55119 0.41699 0.0
C381 C 0.13714 0.59619 0.38225 0.0
C382 C 0.09444 0.53815 0.38749 0.0
C383 C 0.19238 0.59879 0.35124 0.0
C384 C 0.21265 0.67534 0.35722 0.0
N385 N 0.12294 0.5604 0.37166 0.0
N386 N 0.18143 0.65514 0.36946 0.0
H387 H 0.39905 0.79607 0.75618 0.0
H388 H 0.44063 0.93082 0.56837 0.0
H389 H 0.35641 0.76522 0.63828 0.0
H390 H 0.51532 0.93582 0.67023 0.0
H391 H 0.40076 0.87846 0.59936 0.0
H392 H 0.43387 0.85473 0.7298 0.0
C393 C 0.39691 0.80141 0.7248 0.0
C394 C 0.37477 0.77508 0.69952 0.0
C395 C 0.42569 0.89135 0.61511 0.0
C396 C 0.41388 0.84305 0.66942 0.0
C397 C 0.44842 0.92152 0.59763 0.0
C398 C 0.48161 0.93777 0.61662 0.0
C399 C 0.43584 0.87752 0.65213 0.0
C400 C 0.49013 0.92411 0.65441 0.0
C401 C 0.41667 0.8351 0.70987 0.0
C402 C 0.37256 0.7845 0.65919 0.0
N403 N 0.46744 0.89468 0.67089 0.0
N404 N 0.39182 0.81761 0.64547 0.0
H405 H 0.21924 0.30048 0.71919 0.0
H406 H 0.18006 0.44071 0.55465 0.0
H407 H 0.27642 0.32187 0.61645 0.0
H408 H 0.09306 0.36776 0.60872 0.0
H409 H 0.21772 0.40117 0.58165 0.0
H410 H 0.17383 0.32783 0.6842 0.0
C411 C 0.22188 0.31042 0.68908 0.0
C412 C 0.25149 0.30894 0.67057 0.0
C413 C 0.19033 0.3936 0.58734 0.0
C414 C 0.20043 0.34083 0.63102 0.0
C415 C 0.16879 0.4162 0.57207 0.0
C416 C 0.13331 0.40744 0.57937 0.0
C417 C 0.17673 0.36264 0.61137 0.0
C418 C 0.12025 0.37539 0.6023 0.0
C419 C 0.19601 0.32585 0.66918 0.0
C420 C 0.25386 0.32228 0.63163 0.0
N421 N 0.14216 0.3544 0.61816 0.0
N422 N 0.229 0.33829 0.61337 0.0
H423 H 0.67097 0.23218 0.72685 0.0
H424 H 0.58063 0.15453 0.52016 0.0
H425 H 0.69866 0.28824 0.61678 0.0
H426 H 0.58254 0.08198 0.62248 0.0
H427 H 0.62134 0.20487 0.55628 0.0
H428 H 0.63554 0.17803 0.6908 0.0
C429 C 0.66966 0.23306 0.69515 0.0
C430 C 0.6879 0.26479 0.67483 0.0
C431 C 0.61316 0.1779 0.57083 0.0
C432 C 0.64728 0.20312 0.63345 0.0
C433 C 0.58987 0.14913 0.55022 0.0
C434 C 0.57815 0.11399 0.56834 0.0
C435 C 0.62444 0.17192 0.61026 0.0
C436 C 0.59108 0.10858 0.60734 0.0
C437 C 0.64963 0.2021 0.67463 0.0
C438 C 0.68539 0.26431 0.63372 0.0
N439 N 0.6132 0.1374 0.6272 0.0
N440 N 0.66528 0.23419 0.61446 0.0
H441 H 0.82413 0.74163 0.61556 0.0
H442 H 0.88303 0.56637 0.55185 0.0
H443 H 0.75921 0.62929 0.61605 0.0
H444 H 0.956 0.67213 0.57687 0.0
H445 H 0.83476 0.59288 0.56173 0.0
H446 H 0.86976 0.72008 0.58783 0.0
C447 C 0.81934 0.71253 0.60921 0.0
C448 C 0.78821 0.687 0.6184 0.0
C449 C 0.86129 0.61039 0.56489 0.0
C450 C 0.83996 0.66234 0.58716 0.0
C451 C 0.88892 0.59531 0.55923 0.0
C452 C 0.9236 0.61705 0.56397 0.0
C453 C 0.86835 0.64741 0.57572 0.0
C454 C 0.92962 0.65436 0.57338 0.0
C455 C 0.84537 0.70028 0.59364 0.0
C456 C 0.78317 0.64965 0.6099 0.0
N457 N 0.90216 0.66839 0.57927 0.0
N458 N 0.80894 0.63837 0.59494 0.0
H459 H 0.31405 0.31636 0.28386 0.0
H460 H 0.43355 0.4925 0.18432 0.0
H461 H 0.34828 0.42078 0.34183 0.0
H462 H 0.36414 0.40361 0.11781 0.0
H463 H 0.40301 0.46808 0.24244 0.0
H464 H 0.33334 0.34815 0.22265 0.0
C465 C 0.32559 0.34605 0.28352 0.0
C466 C 0.32995 0.36606 0.31772 0.0
C467 C 0.39418 0.45432 0.21493 0.0
C468 C 0.35211 0.40254 0.24819 0.0
C469 C 0.41162 0.46817 0.18179 0.0
C470 C 0.40175 0.44968 0.14635 0.0
C471 C 0.36719 0.42146 0.21261 0.0
C472 C 0.37291 0.41853 0.14462 0.0
C473 C 0.33632 0.36423 0.24863 0.0
C474 C 0.3446 0.40452 0.31589 0.0
N475 N 0.35703 0.40502 0.17748 0.0
N476 N 0.35566 0.42154 0.28171 0.0
H477 H 0.3522 0.61098 0.77586 0.0
H478 H 0.51262 0.65131 0.93922 0.0
H479 H 0.39314 0.71889 0.82597 0.0
H480 H 0.44116 0.5426 0.92922 0.0
H481 H 0.47173 0.67658 0.89395 0.0
H482 H 0.38627 0.58475 0.82854 0.0
C483 C 0.36788 0.62915 0.79807 0.0
C484 C 0.37001 0.66745 0.79585 0.0
C485 C 0.46484 0.64727 0.90203 0.0
C486 C 0.40985 0.63757 0.85574 0.0
C487 C 0.48818 0.63284 0.92783 0.0
C488 C 0.48026 0.59483 0.93824 0.0
C489 C 0.4337 0.62342 0.88567 0.0
C490 C 0.44821 0.57215 0.92236 0.0
C491 C 0.38751 0.61412 0.82804 0.0
C492 C 0.39129 0.68945 0.82554 0.0
N493 N 0.42635 0.58668 0.89649 0.0
N494 N 0.41066 0.67434 0.85378 0.0
H495 H 0.34261 0.38498 0.74856 0.0
H496 H 0.45082 0.4024 0.96004 0.0
H497 H 0.36068 0.2891 0.8157 0.0
H498 H 0.46109 0.49117 0.87219 0.0
H499 H 0.40926 0.36118 0.91344 0.0
H500 H 0.37731 0.42485 0.79982 0.0
C501 C 0.3535 0.37224 0.77436 0.0
C502 C 0.34862 0.33357 0.77784 0.0
C503 C 0.42051 0.38976 0.90459 0.0
C504 C 0.3888 0.37932 0.83672 0.0
C505 C 0.44398 0.41332 0.9312 0.0
C506 C 0.45956 0.45018 0.91986 0.0
C507 C 0.41216 0.40346 0.86675 0.0
C508 C 0.44996 0.46287 0.88206 0.0
C509 C 0.37356 0.39508 0.80351 0.0
C510 C 0.36397 0.31877 0.81173 0.0
N511 N 0.42692 0.43961 0.85696 0.0
N512 N 0.38336 0.34166 0.83992 0.0
H513 H 0.6894 0.32285 0.81458 0.0
H514 H 0.59134 0.48036 0.83081 0.0
H515 H 0.69677 0.41373 0.72971 0.0
H516 H 0.63679 0.43471 0.93562 0.0
H517 H 0.62274 0.44956 0.79134 0.0
H518 H 0.6626 0.35629 0.85788 0.0
C519 C 0.68522 0.34973 0.8051 0.0
C520 C 0.69518 0.36566 0.76864 0.0
C521 C 0.62609 0.44648 0.82298 0.0
C522 C 0.66449 0.40356 0.81738 0.0
C523 C 0.60822 0.46409 0.84555 0.0
C524 C 0.61171 0.46033 0.88658 0.0
C525 C 0.64685 0.42393 0.84137 0.0
C526 C 0.63372 0.43861 0.90407 0.0
C527 C 0.67025 0.36884 0.82982 0.0
C528 C 0.68946 0.4006 0.75766 0.0
N529 N 0.65014 0.42072 0.88132 0.0
N530 N 0.67418 0.41819 0.7817 0.0
H531 H 0.73099 0.71827 0.76724 0.0
H532 H 0.5949 0.5451 0.84941 0.0
H533 H 0.6935 0.61837 0.70169 0.0
H534 H 0.66957 0.62188 0.92532 0.0
H535 H 0.62865 0.5714 0.79405 0.0
H536 H 0.70606 0.68428 0.82512 0.0
C537 C 0.7176 0.6891 0.76525 0.0
C538 C 0.71405 0.67097 0.72992 0.0
C539 C 0.63784 0.58205 0.82298 0.0
C540 C 0.68535 0.63214 0.79544 0.0
C541 C 0.61864 0.56705 0.85456 0.0
C542 C 0.62929 0.58148 0.89197 0.0
C543 C 0.66737 0.61213 0.82884 0.0
C544 C 0.6602 0.61006 0.89695 0.0
C545 C 0.70361 0.66968 0.79819 0.0
C546 C 0.69674 0.63314 0.72862 0.0
N547 N 0.67786 0.62485 0.86561 0.0
N548 N 0.68254 0.61498 0.76087 0.0
H549 H 0.67256 0.739 0.21687 0.0
H550 H 0.57075 0.53246 0.16093 0.0
H551 H 0.68889 0.64132 0.28181 0.0
H552 H 0.58027 0.62281 0.07505 0.0
H553 H 0.6122 0.57344 0.20652 0.0
H554 H 0.6365 0.6988 0.16557 0.0
C555 C 0.66872 0.7092 0.22025 0.0
C556 C 0.684 0.69357 0.25361 0.0
C557 C 0.60557 0.58438 0.17762 0.0
C558 C 0.6427 0.64756 0.19537 0.0
C559 C 0.58185 0.56095 0.15156 0.0
C560 C 0.57204 0.57425 0.11416 0.0
C561 C 0.61927 0.62178 0.16668 0.0
C562 C 0.58734 0.61143 0.10356 0.0
C563 C 0.64834 0.68633 0.19091 0.0
C564 C 0.67818 0.65475 0.25641 0.0
N565 N 0.6099 0.6341 0.12991 0.0
N566 N 0.65788 0.63321 0.22794 0.0
H567 H 0.37058 0.71488 0.24057 0.0
H568 H 0.37098 0.53373 0.12796 0.0
H569 H 0.30513 0.60697 0.27101 0.0
H570 H 0.46487 0.62048 0.15467 0.0
H571 H 0.33876 0.56526 0.16692 0.0
H572 H 0.39826 0.68521 0.19566 0.0
C573 C 0.36191 0.68506 0.23803 0.0
C574 C 0.33542 0.66362 0.26022 0.0
C575 C 0.36634 0.57746 0.16381 0.0
C576 C 0.3664 0.6297 0.20744 0.0
C577 C 0.38457 0.55969 0.14145 0.0
C578 C 0.42052 0.57464 0.1382 0.0
C579 C 0.38409 0.6108 0.18199 0.0
C580 C 0.43716 0.60804 0.15664 0.0
C581 C 0.37761 0.66822 0.21206 0.0
C582 C 0.32488 0.62505 0.25433 0.0
N583 N 0.4188 0.62511 0.17754 0.0
N584 N 0.34032 0.6094 0.22853 0.0
H585 H 0.70494 0.38781 0.20985 0.0
H586 H 0.50894 0.38232 0.12038 0.0
H587 H 0.61123 0.33357 0.26541 0.0
H588 H 0.59659 0.46971 0.08578 0.0
H589 H 0.54882 0.35763 0.16643 0.0
H590 H 0.66833 0.41376 0.15889 0.0
C591 C 0.67684 0.38143 0.21149 0.0
C592 C 0.66119 0.35774 0.24167 0.0
C593 C 0.55947 0.38213 0.14869 0.0
C594 C 0.6193 0.38677 0.18327 0.0
C595 C 0.53666 0.3962 0.12208 0.0
C596 C 0.54922 0.42842 0.09916 0.0
C597 C 0.59541 0.4001 0.15264 0.0
C598 C 0.58564 0.44485 0.10283 0.0
C599 C 0.65599 0.3961 0.18231 0.0
C600 C 0.62457 0.3506 0.2422 0.0
N601 N 0.60748 0.43061 0.12921 0.0
N602 N 0.60504 0.3647 0.21344 0.0
loop_
_geom_bond_atom_site_label_1
_geom_bond_atom_site_label_2
_geom_bond_distance
_geom_bond_site_symmetry_2
_ccdc_geom_bond_type
H0 C3 0.931 . S
H1 C6 0.928 . S
H2 C8 0.930 . S
C3 H0 0.931 . S
C3 C4 1.413 . S
C3 C5 1.360 . S
C4 C3 1.413 . S
C4 C8 1.429 . S
C5 C3 1.360 . S
C5 C6 1.372 . S
C6 H1 0.928 . S
C6 C5 1.372 . S
C6 C7 1.404 . S
C7 C6 1.404 . S
C7 C8 1.391 . S
C8 H2 0.930 . S
C8 C4 1.429 . S
C8 C7 1.391 . S
H9 C12 0.931 . S
H10 C15 0.928 . S
H11 C17 0.930 . S
C12 H9 0.931 . S
C12 C13 1.413 . S
C12 C14 1.360 . S
C13 C12 1.413 . S
C13 C17 1.429 . S
C14 C12 1.360 . S
C14 C15 1.372 . S
C15 H10 0.928 . S
C15 C14 1.372 . S
C15 C16 1.404 . S
C16 C15 1.404 . S
C16 C17 1.391 . S
C17 H11 0.930 . S
C17 C13 1.429 . S
C17 C16 1.391 . S
H18 C21 0.931 . S
H19 C24 0.928 . S
H20 C26 0.930 . S
C21 H18 0.931 . S
C21 C22 1.413 . S
C21 C23 1.360 . S
C22 C21 1.413 . S
C22 C26 1.429 . S
C23 C21 1.360 . S
C23 C24 1.372 . S
C24 H19 0.928 . S
C24 C23 1.372 . S
C24 C25 1.404 . S
C25 C24 1.404 . S
C25 C26 1.391 . S
C26 H20 0.930 . S
C26 C22 1.429 . S
C26 C25 1.391 . S
H27 C30 0.931 . S
H28 C33 0.928 . S
H29 C35 0.930 . S
C30 H27 0.931 . S
C30 C31 1.413 . S
C30 C32 1.360 . S
C31 C30 1.413 . S
C31 C35 1.429 . S
C32 C30 1.360 . S
C32 C33 1.372 . S
C33 H28 0.928 . S
C33 C32 1.372 . S
C33 C34 1.404 . S
C34 C33 1.404 . S
C34 C35 1.391 . S
C35 H29 0.930 . S
C35 C31 1.429 . S
C35 C34 1.391 . S
H36 C39 0.931 . S
H37 C42 0.928 . S
H38 C44 0.930 . S
C39 H36 0.931 . S
C39 C40 1.413 . S
C39 C41 1.360 . S
C40 C39 1.413 . S
C40 C44 1.429 . S
C41 C39 1.360 . S
C41 C42 1.372 . S
C42 H37 0.928 . S
C42 C41 1.372 . S
C42 C43 1.404 . S
C43 C42 1.404 . S
C43 C44 1.391 . S
C44 H38 0.930 . S
C44 C40 1.429 . S
C44 C43 1.391 . S
H45 C48 0.931 . S
H46 C51 0.928 . S
H47 C53 0.930 . S
C48 H45 0.931 . S
C48 C49 1.413 . S
C48 C50 1.360 . S
C49 C48 1.413 . S
C49 C53 1.429 . S
C50 C48 1.360 . S
C50 C51 1.372 . S
C51 H46 0.928 . S
C51 C50 1.372 . S
C51 C52 1.404 . S
C52 C51 1.404 . S
C52 C53 1.391 . S
C53 H47 0.930 . S
C53 C49 1.429 . S
C53 C52 1.391 . S
H54 C57 0.931 . S
H55 C60 0.928 . S
H56 C62 0.930 . S
C57 H54 0.931 . S
C57 C58 1.413 . S
C57 C59 1.360 . S
C58 C57 1.413 . S
C58 C62 1.429 . S
C59 C57 1.360 . S
C59 C60 1.372 . S
C60 H55 0.928 . S
C60 C59 1.372 . S
C60 C61 1.404 . S
C61 C60 1.404 . S
C61 C62 1.391 . S
C62 H56 0.930 . S
C62 C58 1.429 . S
C62 C61 1.391 . S
H63 C66 0.931 . S
H64 C69 0.928 . S
H65 C71 0.930 . S
C66 H63 0.931 . S
C66 C67 1.413 . S
C66 C68 1.360 . S
C67 C66 1.413 . S
C67 C71 1.429 . S
C68 C66 1.360 . S
C68 C69 1.372 . S
C69 H64 0.928 . S
C69 C68 1.372 . S
C69 C70 1.404 . S
C70 C69 1.404 . S
C70 C71 1.391 . S
C71 H65 0.930 . S
C71 C67 1.429 . S
C71 C70 1.391 . S
Co72 O75 2.042 . S
Co72 O82 2.264 . S
Co72 O101 2.286 . S
Co72 O102 2.069 . S
Co72 O104 2.015 . S
Co73 O75 2.122 . S
Co73 O81 2.073 . S
Co73 O82 2.327 . S
Co73 O83 1.976 . S
Co74 O75 2.087 . S
Co74 O77 2.087 1_455 S
Co74 O84 2.111 . S
Co74 O85 2.143 1_455 S
Co74 O89 2.111 1_455 S
Co74 O103 2.143 . S
O75 Co72 2.042 . S
O75 Co73 2.122 . S
O75 Co74 2.087 . S
O75 H76 0.980 . S
H76 O75 0.980 . S
O77 Co74 2.087 1_655 S
O77 Co78 2.042 . S
O77 Co79 2.122 . S
O77 H80 0.980 . S
Co78 O77 2.042 . S
Co78 O86 2.286 . S
Co78 O87 2.069 . S
Co78 O88 2.015 . S
Co78 O91 2.264 . S
Co79 O77 2.122 . S
Co79 O90 1.976 . S
Co79 O91 2.327 . S
Co79 O92 2.073 . S
H80 O77 0.980 . S
O81 Co73 2.073 . S
O81 C96 1.245 . S
O82 Co72 2.264 . S
O82 Co73 2.327 . S
O82 C96 1.257 . S
O83 Co73 1.976 . S
O83 C95 1.251 . S
O84 Co74 2.111 . S
O84 C95 1.274 . S
O85 Co74 2.143 1_655 S
O85 C98 1.246 . S
O86 Co78 2.286 . S
O86 C97 1.259 . S
O87 Co78 2.069 . S
O87 C97 1.289 . S
O88 Co78 2.015 . S
O88 C98 1.257 . S
O89 Co74 2.111 1_655 S
O89 C99 1.274 . S
O90 Co79 1.976 . S
O90 C99 1.251 . S
O91 Co78 2.264 . S
O91 Co79 2.327 . S
O91 C100 1.257 . S
O92 Co79 2.073 . S
O92 C100 1.245 . S
C93 O101 1.259 . S
C93 O102 1.289 . S
C94 O103 1.246 . S
C94 O104 1.257 . S
C95 O83 1.251 . S
C95 O84 1.274 . S
C96 O81 1.245 . S
C96 O82 1.257 . S
C97 O86 1.259 . S
C97 O87 1.289 . S
C98 O85 1.246 . S
C98 O88 1.257 . S
C99 O89 1.274 . S
C99 O90 1.251 . S
C100 O91 1.257 . S
C100 O92 1.245 . S
O101 Co72 2.286 . S
O101 C93 1.259 . S
O102 Co72 2.069 . S
O102 C93 1.289 . S
O103 Co74 2.143 . S
O103 C94 1.246 . S
O104 Co72 2.015 . S
O104 C94 1.257 . S
Co105 O108 2.042 . S
Co105 O115 2.264 . S
Co105 O134 2.286 . S
Co105 O135 2.069 . S
Co105 O137 2.015 . S
Co106 O108 2.122 . S
Co106 O114 2.073 . S
Co106 O115 2.327 . S
Co106 O116 1.976 . S
Co107 O108 2.087 1_545 S
Co107 O110 2.087 . S
Co107 O117 2.111 1_545 S
Co107 O118 2.143 . S
Co107 O122 2.111 . S
Co107 O136 2.143 1_545 S
O108 Co105 2.042 . S
O108 Co106 2.122 . S
O108 Co107 2.087 1_565 S
O108 H109 0.980 . S
H109 O108 0.980 . S
O110 Co107 2.087 . S
O110 Co111 2.042 . S
O110 Co112 2.122 . S
O110 H113 0.980 . S
Co111 O110 2.042 . S
Co111 O119 2.286 . S
Co111 O120 2.069 . S
Co111 O121 2.015 . S
Co111 O124 2.264 . S
Co112 O110 2.122 . S
Co112 O123 1.976 . S
Co112 O124 2.327 . S
Co112 O125 2.073 . S
H113 O110 0.980 . S
O114 Co106 2.073 . S
O114 C129 1.245 . S
O115 Co105 2.264 . S
O115 Co106 2.327 . S
O115 C129 1.257 . S
O116 Co106 1.976 . S
O116 C128 1.251 . S
O117 Co107 2.111 1_565 S
O117 C128 1.274 . S
O118 Co107 2.143 . S
O118 C131 1.246 . S
O119 Co111 2.286 . S
O119 C130 1.259 . S
O120 Co111 2.069 . S
O120 C130 1.289 . S
O121 Co111 2.015 . S
O121 C131 1.257 . S
O122 Co107 2.111 . S
O122 C132 1.274 . S
O123 Co112 1.976 . S
O123 C132 1.251 . S
O124 Co111 2.264 . S
O124 Co112 2.327 . S
O124 C133 1.257 . S
O125 Co112 2.073 . S
O125 C133 1.245 . S
C126 O134 1.259 . S
C126 O135 1.289 . S
C127 O136 1.246 . S
C127 O137 1.257 . S
C128 O116 1.251 . S
C128 O117 1.274 . S
C129 O114 1.245 . S
C129 O115 1.257 . S
C130 O119 1.259 . S
C130 O120 1.289 . S
C131 O118 1.246 . S
C131 O121 1.257 . S
C132 O122 1.274 . S
C132 O123 1.251 . S
C133 O124 1.257 . S
C133 O125 1.245 . S
O134 Co105 2.286 . S
O134 C126 1.259 . S
O135 Co105 2.069 . S
O135 C126 1.289 . S
O136 Co107 2.143 1_565 S
O136 C127 1.246 . S
O137 Co105 2.015 . S
O137 C127 1.257 . S
Co138 O141 2.042 . S
Co138 O148 2.264 . S
Co138 O167 2.286 . S
Co138 O168 2.069 . S
Co138 O170 2.015 . S
Co139 O141 2.122 . S
Co139 O147 2.073 . S
Co139 O148 2.327 . S
Co139 O149 1.976 . S
Co140 O141 2.087 . S
Co140 O143 2.087 1_554 S
Co140 O150 2.111 . S
Co140 O151 2.143 1_554 S
Co140 O155 2.111 1_554 S
Co140 O169 2.143 . S
O141 Co138 2.042 . S
O141 Co139 2.122 . S
O141 Co140 2.087 . S
O141 H142 0.980 . S
H142 O141 0.980 . S
O143 Co140 2.087 1_556 S
O143 Co144 2.042 . S
O143 Co145 2.122 . S
O143 H146 0.980 . S
Co144 O143 2.042 . S
Co144 O152 2.286 . S
Co144 O153 2.069 . S
Co144 O154 2.015 . S
Co144 O157 2.264 . S
Co145 O143 2.122 . S
Co145 O156 1.976 . S
Co145 O157 2.327 . S
Co145 O158 2.073 . S
H146 O143 0.980 . S
O147 Co139 2.073 . S
O147 C162 1.245 . S
O148 Co138 2.264 . S
O148 Co139 2.327 . S
O148 C162 1.257 . S
O149 Co139 1.976 . S
O149 C161 1.251 . S
O150 Co140 2.111 . S
O150 C161 1.274 . S
O151 Co140 2.143 1_556 S
O151 C164 1.246 . S
O152 Co144 2.286 . S
O152 C163 1.259 . S
O153 Co144 2.069 . S
O153 C163 1.289 . S
O154 Co144 2.015 . S
O154 C164 1.257 . S
O155 Co140 2.111 1_556 S
O155 C165 1.274 . S
O156 Co145 1.976 . S
O156 C165 1.251 . S
O157 Co144 2.264 . S
O157 Co145 2.327 . S
O157 C166 1.257 . S
O158 Co145 2.073 . S
O158 C166 1.245 . S
C159 O167 1.259 . S
C159 O168 1.289 . S
C160 O169 1.246 . S
C160 O170 1.257 . S
C161 O149 1.251 . S
C161 O150 1.274 . S
C162 O147 1.245 . S
C162 O148 1.257 . S
C163 O152 1.259 . S
C163 O153 1.289 . S
C164 O151 1.246 . S
C164 O154 1.257 . S
C165 O155 1.274 . S
C165 O156 1.251 . S
C166 O157 1.257 . S
C166 O158 1.245 . S
O167 Co138 2.286 . S
O167 C159 1.259 . S
O168 Co138 2.069 . S
O168 C159 1.289 . S
O169 Co140 2.143 . S
O169 C160 1.246 . S
O170 Co138 2.015 . S
O170 C160 1.257 . S
H171 C177 0.930 . S
H172 C181 0.930 . S
H173 C186 0.929 . S
H174 C184 0.929 . S
H175 C179 0.929 . S
H176 C185 0.929 . S
C177 H171 0.930 . S
C177 C178 1.367 . S
C177 C185 1.378 . S
C178 C177 1.367 . S
C178 C186 1.433 . S
C179 H175 0.929 . S
C179 C181 1.378 . S
C179 C183 1.350 . S
C180 C183 1.463 . S
C180 C185 1.350 . S
C180 N188 1.427 . S
C181 H172 0.930 . S
C181 C179 1.378 . S
C181 C182 1.367 . S
C182 C181 1.367 . S
C182 C184 1.433 . S
C183 C179 1.350 . S
C183 C180 1.463 . S
C183 N187 1.427 . S
C184 H174 0.929 . S
C184 C182 1.433 . S
C184 N187 1.384 . S
C185 H176 0.929 . S
C185 C177 1.378 . S
C185 C180 1.350 . S
C186 H173 0.929 . S
C186 C178 1.433 . S
C186 N188 1.384 . S
N187 C183 1.427 . S
N187 C184 1.384 . S
N188 C180 1.427 . S
N188 C186 1.384 . S
H189 C195 0.930 . S
H190 C199 0.930 . S
H191 C204 0.929 . S
H192 C202 0.929 . S
H193 C197 0.929 . S
H194 C203 0.929 . S
C195 H189 0.930 . S
C195 C196 1.367 . S
C195 C203 1.378 . S
C196 C195 1.367 . S
C196 C204 1.433 . S
C197 H193 0.929 . S
C197 C199 1.378 . S
C197 C201 1.350 . S
C198 C201 1.463 . S
C198 C203 1.350 . S
C198 N206 1.427 . S
C199 H190 0.930 . S
C199 C197 1.378 . S
C199 C200 1.367 . S
C200 C199 1.367 . S
C200 C202 1.433 . S
C201 C197 1.350 . S
C201 C198 1.463 . S
C201 N205 1.427 . S
C202 H192 0.929 . S
C202 C200 1.433 . S
C202 N205 1.384 . S
C203 H194 0.929 . S
C203 C195 1.378 . S
C203 C198 1.350 . S
C204 H191 0.929 . S
C204 C196 1.433 . S
C204 N206 1.384 . S
N205 C201 1.427 . S
N205 C202 1.384 . S
N206 C198 1.427 . S
N206 C204 1.384 . S
H207 C213 0.930 . S
H208 C217 0.930 . S
H209 C222 0.929 . S
H210 C220 0.929 . S
H211 C215 0.929 . S
H212 C221 0.929 . S
C213 H207 0.930 . S
C213 C214 1.367 . S
C213 C221 1.378 . S
C214 C213 1.367 . S
C214 C222 1.433 . S
C215 H211 0.929 . S
C215 C217 1.378 . S
C215 C219 1.350 . S
C216 C219 1.463 . S
C216 C221 1.350 . S
C216 N224 1.427 . S
C217 H208 0.930 . S
C217 C215 1.378 . S
C217 C218 1.367 . S
C218 C217 1.367 . S
C218 C220 1.433 . S
C219 C215 1.350 . S
C219 C216 1.463 . S
C219 N223 1.427 . S
C220 H210 0.929 . S
C220 C218 1.433 . S
C220 N223 1.384 . S
C221 H212 0.929 . S
C221 C213 1.378 . S
C221 C216 1.350 . S
C222 H209 0.929 . S
C222 C214 1.433 . S
C222 N224 1.384 . S
N223 C219 1.427 . S
N223 C220 1.384 . S
N224 C216 1.427 . S
N224 C222 1.384 . S
H225 C231 0.930 . S
H226 C235 0.930 . S
H227 C240 0.929 . S
H228 C238 0.929 . S
H229 C233 0.929 . S
H230 C239 0.929 . S
C231 H225 0.930 . S
C231 C232 1.367 . S
C231 C239 1.378 . S
C232 C231 1.367 . S
C232 C240 1.433 . S
C233 H229 0.929 . S
C233 C235 1.378 . S
C233 C237 1.350 . S
C234 C237 1.463 . S
C234 C239 1.350 . S
C234 N242 1.427 . S
C235 H226 0.930 . S
C235 C233 1.378 . S
C235 C236 1.367 . S
C236 C235 1.367 . S
C236 C238 1.433 . S
C237 C233 1.350 . S
C237 C234 1.463 . S
C237 N241 1.427 . S
C238 H228 0.929 . S
C238 C236 1.433 . S
C238 N241 1.384 . S
C239 H230 0.929 . S
C239 C231 1.378 . S
C239 C234 1.350 . S
C240 H227 0.929 . S
C240 C232 1.433 . S
C240 N242 1.384 . S
N241 C237 1.427 . S
N241 C238 1.384 . S
N242 C234 1.427 . S
N242 C240 1.384 . S
H243 C249 0.930 . S
H244 C253 0.930 . S
H245 C258 0.929 . S
H246 C256 0.929 . S
H247 C251 0.929 . S
H248 C257 0.929 . S
C249 H243 0.930 . S
C249 C250 1.367 . S
C249 C257 1.378 . S
C250 C249 1.367 . S
C250 C258 1.433 . S
C251 H247 0.929 . S
C251 C253 1.378 . S
C251 C255 1.350 . S
C252 C255 1.463 . S
C252 C257 1.350 . S
C252 N260 1.427 . S
C253 H244 0.930 . S
C253 C251 1.378 . S
C253 C254 1.367 . S
C254 C253 1.367 . S
C254 C256 1.433 . S
C255 C251 1.350 . S
C255 C252 1.463 . S
C255 N259 1.427 . S
C256 H246 0.929 . S
C256 C254 1.433 . S
C256 N259 1.384 . S
C257 H248 0.929 . S
C257 C249 1.378 . S
C257 C252 1.350 . S
C258 H245 0.929 . S
C258 C250 1.433 . S
C258 N260 1.384 . S
N259 C255 1.427 . S
N259 C256 1.384 . S
N260 C252 1.427 . S
N260 C258 1.384 . S
H261 C267 0.930 . S
H262 C271 0.930 . S
H263 C276 0.929 . S
H264 C274 0.929 . S
H265 C269 0.929 . S
H266 C275 0.929 . S
C267 H261 0.930 . S
C267 C268 1.367 . S
C267 C275 1.378 . S
C268 C267 1.367 . S
C268 C276 1.433 . S
C269 H265 0.929 . S
C269 C271 1.378 . S
C269 C273 1.350 . S
C270 C273 1.463 . S
C270 C275 1.350 . S
C270 N278 1.427 . S
C271 H262 0.930 . S
C271 C269 1.378 . S
C271 C272 1.367 . S
C272 C271 1.367 . S
C272 C274 1.433 . S
C273 C269 1.350 . S
C273 C270 1.463 . S
C273 N277 1.427 . S
C274 H264 0.929 . S
C274 C272 1.433 . S
C274 N277 1.384 . S
C275 H266 0.929 . S
C275 C267 1.378 . S
C275 C270 1.350 . S
C276 H263 0.929 . S
C276 C268 1.433 . S
C276 N278 1.384 . S
N277 C273 1.427 . S
N277 C274 1.384 . S
N278 C270 1.427 . S
N278 C276 1.384 . S
H279 C285 0.930 . S
H280 C289 0.930 . S
H281 C294 0.929 . S
H282 C292 0.929 . S
H283 C287 0.929 . S
H284 C293 0.929 . S
C285 H279 0.930 . S
C285 C286 1.367 . S
C285 C293 1.378 . S
C286 C285 1.367 . S
C286 C294 1.433 . S
C287 H283 0.929 . S
C287 C289 1.378 . S
C287 C291 1.350 . S
C288 C291 1.463 . S
C288 C293 1.350 . S
C288 N296 1.427 . S
C289 H280 0.930 . S
C289 C287 1.378 . S
C289 C290 1.367 . S
C290 C289 1.367 . S
C290 C292 1.433 . S
C291 C287 1.350 . S
C291 C288 1.463 . S
C291 N295 1.427 . S
C292 H282 0.929 . S
C292 C290 1.433 . S
C292 N295 1.384 . S
C293 H284 0.929 . S
C293 C285 1.378 . S
C293 C288 1.350 . S
C294 H281 0.929 . S
C294 C286 1.433 . S
C294 N296 1.384 . S
N295 C291 1.427 . S
N295 C292 1.384 . S
N296 C288 1.427 . S
N296 C294 1.384 . S
H297 C303 0.930 . S
H298 C307 0.930 . S
H299 C312 0.929 . S
H300 C310 0.929 . S
H301 C305 0.929 . S
H302 C311 0.929 . S
C303 H297 0.930 . S
C303 C304 1.367 . S
C303 C311 1.378 . S
C304 C303 1.367 . S
C304 C312 1.433 . S
C305 H301 0.929 . S
C305 C307 1.378 . S
C305 C309 1.350 . S
C306 C309 1.463 . S
C306 C311 1.350 . S
C306 N314 1.427 . S
C307 H298 0.930 . S
C307 C305 1.378 . S
C307 C308 1.367 . S
C308 C307 1.367 . S
C308 C310 1.433 . S
C309 C305 1.350 . S
C309 C306 1.463 . S
C309 N313 1.427 . S
C310 H300 0.929 . S
C310 C308 1.433 . S
C310 N313 1.384 . S
C311 H302 0.929 . S
C311 C303 1.378 . S
C311 C306 1.350 . S
C312 H299 0.929 . S
C312 C304 1.433 . S
C312 N314 1.384 . S
N313 C309 1.427 . S
N313 C310 1.384 . S
N314 C306 1.427 . S
N314 C312 1.384 . S
H315 C321 0.930 . S
H316 C325 0.930 . S
H317 C330 0.929 . S
H318 C328 0.929 . S
H319 C323 0.929 . S
H320 C329 0.929 . S
C321 H315 0.930 . S
C321 C322 1.367 . S
C321 C329 1.378 . S
C322 C321 1.367 . S
C322 C330 1.433 . S
C323 H319 0.929 . S
C323 C325 1.378 . S
C323 C327 1.350 . S
C324 C327 1.463 . S
C324 C329 1.350 . S
C324 N332 1.427 . S
C325 H316 0.930 . S
C325 C323 1.378 . S
C325 C326 1.367 . S
C326 C325 1.367 . S
C326 C328 1.433 . S
C327 C323 1.350 . S
C327 C324 1.463 . S
C327 N331 1.427 . S
C328 H318 0.929 . S
C328 C326 1.433 . S
C328 N331 1.384 . S
C329 H320 0.929 . S
C329 C321 1.378 . S
C329 C324 1.350 . S
C330 H317 0.929 . S
C330 C322 1.433 . S
C330 N332 1.384 . S
N331 C327 1.427 . S
N331 C328 1.384 . S
N332 C324 1.427 . S
N332 C330 1.384 . S
H333 C339 0.930 . S
H334 C343 0.930 . S
H335 C348 0.929 . S
H336 C346 0.929 . S
H337 C341 0.929 . S
H338 C347 0.929 . S
C339 H333 0.930 . S
C339 C340 1.367 . S
C339 C347 1.378 . S
C340 C339 1.367 . S
C340 C348 1.433 . S
C341 H337 0.929 . S
C341 C343 1.378 . S
C341 C345 1.350 . S
C342 C345 1.463 . S
C342 C347 1.350 . S
C342 N350 1.427 . S
C343 H334 0.930 . S
C343 C341 1.378 . S
C343 C344 1.367 . S
C344 C343 1.367 . S
C344 C346 1.433 . S
C345 C341 1.350 . S
C345 C342 1.463 . S
C345 N349 1.427 . S
C346 H336 0.929 . S
C346 C344 1.433 . S
C346 N349 1.384 . S
C347 H338 0.929 . S
C347 C339 1.378 . S
C347 C342 1.350 . S
C348 H335 0.929 . S
C348 C340 1.433 . S
C348 N350 1.384 . S
N349 C345 1.427 . S
N349 C346 1.384 . S
N350 C342 1.427 . S
N350 C348 1.384 . S
H351 C357 0.930 . S
H352 C361 0.930 . S
H353 C366 0.929 . S
H354 C364 0.929 . S
H355 C359 0.929 . S
H356 C365 0.929 . S
C357 H351 0.930 . S
C357 C358 1.367 . S
C357 C365 1.378 . S
C358 C357 1.367 . S
C358 C366 1.433 . S
C359 H355 0.929 . S
C359 C361 1.378 . S
C359 C363 1.350 . S
C360 C363 1.463 . S
C360 C365 1.350 . S
C360 N368 1.427 . S
C361 H352 0.930 . S
C361 C359 1.378 . S
C361 C362 1.367 . S
C362 C361 1.367 . S
C362 C364 1.433 . S
C363 C359 1.350 . S
C363 C360 1.463 . S
C363 N367 1.427 . S
C364 H354 0.929 . S
C364 C362 1.433 . S
C364 N367 1.384 . S
C365 H356 0.929 . S
C365 C357 1.378 . S
C365 C360 1.350 . S
C366 H353 0.929 . S
C366 C358 1.433 . S
C366 N368 1.384 . S
N367 C363 1.427 . S
N367 C364 1.384 . S
N368 C360 1.427 . S
N368 C366 1.384 . S
H369 C375 0.930 . S
H370 C379 0.930 . S
H371 C384 0.929 . S
H372 C382 0.929 . S
H373 C377 0.929 . S
H374 C383 0.929 . S
C375 H369 0.930 . S
C375 C376 1.367 . S
C375 C383 1.378 . S
C376 C375 1.367 . S
C376 C384 1.433 . S
C377 H373 0.929 . S
C377 C379 1.378 . S
C377 C381 1.350 . S
C378 C381 1.463 . S
C378 C383 1.350 . S
C378 N386 1.427 . S
C379 H370 0.930 . S
C379 C377 1.378 . S
C379 C380 1.367 . S
C380 C379 1.367 . S
C380 C382 1.433 . S
C381 C377 1.350 . S
C381 C378 1.463 . S
C381 N385 1.427 . S
C382 H372 0.929 . S
C382 C380 1.433 . S
C382 N385 1.384 . S
C383 H374 0.929 . S
C383 C375 1.378 . S
C383 C378 1.350 . S
C384 H371 0.929 . S
C384 C376 1.433 . S
C384 N386 1.384 . S
N385 C381 1.427 . S
N385 C382 1.384 . S
N386 C378 1.427 . S
N386 C384 1.384 . S
H387 C393 0.930 . S
H388 C397 0.930 . S
H389 C402 0.929 . S
H390 C400 0.929 . S
H391 C395 0.929 . S
H392 C401 0.929 . S
C393 H387 0.930 . S
C393 C394 1.367 . S
C393 C401 1.378 . S
C394 C393 1.367 . S
C394 C402 1.433 . S
C395 H391 0.929 . S
C395 C397 1.378 . S
C395 C399 1.350 . S
C396 C399 1.463 . S
C396 C401 1.350 . S
C396 N404 1.427 . S
C397 H388 0.930 . S
C397 C395 1.378 . S
C397 C398 1.367 . S
C398 C397 1.367 . S
C398 C400 1.433 . S
C399 C395 1.350 . S
C399 C396 1.463 . S
C399 N403 1.427 . S
C400 H390 0.929 . S
C400 C398 1.433 . S
C400 N403 1.384 . S
C401 H392 0.929 . S
C401 C393 1.378 . S
C401 C396 1.350 . S
C402 H389 0.929 . S
C402 C394 1.433 . S
C402 N404 1.384 . S
N403 C399 1.427 . S
N403 C400 1.384 . S
N404 C396 1.427 . S
N404 C402 1.384 . S
H405 C411 0.930 . S
H406 C415 0.930 . S
H407 C420 0.929 . S
H408 C418 0.929 . S
H409 C413 0.929 . S
H410 C419 0.929 . S
C411 H405 0.930 . S
C411 C412 1.367 . S
C411 C419 1.378 . S
C412 C411 1.367 . S
C412 C420 1.433 . S
C413 H409 0.929 . S
C413 C415 1.378 . S
C413 C417 1.350 . S
C414 C417 1.463 . S
C414 C419 1.350 . S
C414 N422 1.427 . S
C415 H406 0.930 . S
C415 C413 1.378 . S
C415 C416 1.367 . S
C416 C415 1.367 . S
C416 C418 1.433 . S
C417 C413 1.350 . S
C417 C414 1.463 . S
C417 N421 1.427 . S
C418 H408 0.929 . S
C418 C416 1.433 . S
C418 N421 1.384 . S
C419 H410 0.929 . S
C419 C411 1.378 . S
C419 C414 1.350 . S
C420 H407 0.929 . S
C420 C412 1.433 . S
C420 N422 1.384 . S
N421 C417 1.427 . S
N421 C418 1.384 . S
N422 C414 1.427 . S
N422 C420 1.384 . S
H423 C429 0.930 . S
H424 C433 0.930 . S
H425 C438 0.929 . S
H426 C436 0.929 . S
H427 C431 0.929 . S
H428 C437 0.929 . S
C429 H423 0.930 . S
C429 C430 1.367 . S
C429 C437 1.378 . S
C430 C429 1.367 . S
C430 C438 1.433 . S
C431 H427 0.929 . S
C431 C433 1.378 . S
C431 C435 1.350 . S
C432 C435 1.463 . S
C432 C437 1.350 . S
C432 N440 1.427 . S
C433 H424 0.930 . S
C433 C431 1.378 . S
C433 C434 1.367 . S
C434 C433 1.367 . S
C434 C436 1.433 . S
C435 C431 1.350 . S
C435 C432 1.463 . S
C435 N439 1.427 . S
C436 H426 0.929 . S
C436 C434 1.433 . S
C436 N439 1.384 . S
C437 H428 0.929 . S
C437 C429 1.378 . S
C437 C432 1.350 . S
C438 H425 0.929 . S
C438 C430 1.433 . S
C438 N440 1.384 . S
N439 C435 1.427 . S
N439 C436 1.384 . S
N440 C432 1.427 . S
N440 C438 1.384 . S
H441 C447 0.930 . S
H442 C451 0.930 . S
H443 C456 0.929 . S
H444 C454 0.929 . S
H445 C449 0.929 . S
H446 C455 0.929 . S
C447 H441 0.930 . S
C447 C448 1.367 . S
C447 C455 1.378 . S
C448 C447 1.367 . S
C448 C456 1.433 . S
C449 H445 0.929 . S
C449 C451 1.378 . S
C449 C453 1.350 . S
C450 C453 1.463 . S
C450 C455 1.350 . S
C450 N458 1.427 . S
C451 H442 0.930 . S
C451 C449 1.378 . S
C451 C452 1.367 . S
C452 C451 1.367 . S
C452 C454 1.433 . S
C453 C449 1.350 . S
C453 C450 1.463 . S
C453 N457 1.427 . S
C454 H444 0.929 . S
C454 C452 1.433 . S
C454 N457 1.384 . S
C455 H446 0.929 . S
C455 C447 1.378 . S
C455 C450 1.350 . S
C456 H443 0.929 . S
C456 C448 1.433 . S
C456 N458 1.384 . S
N457 C453 1.427 . S
N457 C454 1.384 . S
N458 C450 1.427 . S
N458 C456 1.384 . S
H459 C465 0.930 . S
H460 C469 0.930 . S
H461 C474 0.929 . S
H462 C472 0.929 . S
H463 C467 0.929 . S
H464 C473 0.929 . S
C465 H459 0.930 . S
C465 C466 1.367 . S
C465 C473 1.378 . S
C466 C465 1.367 . S
C466 C474 1.433 . S
C467 H463 0.929 . S
C467 C469 1.378 . S
C467 C471 1.350 . S
C468 C471 1.463 . S
C468 C473 1.350 . S
C468 N476 1.427 . S
C469 H460 0.930 . S
C469 C467 1.378 . S
C469 C470 1.367 . S
C470 C469 1.367 . S
C470 C472 1.433 . S
C471 C467 1.350 . S
C471 C468 1.463 . S
C471 N475 1.427 . S
C472 H462 0.929 . S
C472 C470 1.433 . S
C472 N475 1.384 . S
C473 H464 0.929 . S
C473 C465 1.378 . S
C473 C468 1.350 . S
C474 H461 0.929 . S
C474 C466 1.433 . S
C474 N476 1.384 . S
N475 C471 1.427 . S
N475 C472 1.384 . S
N476 C468 1.427 . S
N476 C474 1.384 . S
H477 C483 0.930 . S
H478 C487 0.930 . S
H479 C492 0.929 . S
H480 C490 0.929 . S
H481 C485 0.929 . S
H482 C491 0.929 . S
C483 H477 0.930 . S
C483 C484 1.367 . S
C483 C491 1.378 . S
C484 C483 1.367 . S
C484 C492 1.433 . S
C485 H481 0.929 . S
C485 C487 1.378 . S
C485 C489 1.350 . S
C486 C489 1.463 . S
C486 C491 1.350 . S
C486 N494 1.427 . S
C487 H478 0.930 . S
C487 C485 1.378 . S
C487 C488 1.367 . S
C488 C487 1.367 . S
C488 C490 1.433 . S
C489 C485 1.350 . S
C489 C486 1.463 . S
C489 N493 1.427 . S
C490 H480 0.929 . S
C490 C488 1.433 . S
C490 N493 1.384 . S
C491 H482 0.929 . S
C491 C483 1.378 . S
C491 C486 1.350 . S
C492 H479 0.929 . S
C492 C484 1.433 . S
C492 N494 1.384 . S
N493 C489 1.427 . S
N493 C490 1.384 . S
N494 C486 1.427 . S
N494 C492 1.384 . S
H495 C501 0.930 . S
H496 C505 0.930 . S
H497 C510 0.929 . S
H498 C508 0.929 . S
H499 C503 0.929 . S
H500 C509 0.929 . S
C501 H495 0.930 . S
C501 C502 1.367 . S
C501 C509 1.378 . S
C502 C501 1.367 . S
C502 C510 1.433 . S
C503 H499 0.929 . S
C503 C505 1.378 . S
C503 C507 1.350 . S
C504 C507 1.463 . S
C504 C509 1.350 . S
C504 N512 1.427 . S
C505 H496 0.930 . S
C505 C503 1.378 . S
C505 C506 1.367 . S
C506 C505 1.367 . S
C506 C508 1.433 . S
C507 C503 1.350 . S
C507 C504 1.463 . S
C507 N511 1.427 . S
C508 H498 0.929 . S
C508 C506 1.433 . S
C508 N511 1.384 . S
C509 H500 0.929 . S
C509 C501 1.378 . S
C509 C504 1.350 . S
C510 H497 0.929 . S
C510 C502 1.433 . S
C510 N512 1.384 . S
N511 C507 1.427 . S
N511 C508 1.384 . S
N512 C504 1.427 . S
N512 C510 1.384 . S
H513 C519 0.930 . S
H514 C523 0.930 . S
H515 C528 0.929 . S
H516 C526 0.929 . S
H517 C521 0.929 . S
H518 C527 0.929 . S
C519 H513 0.930 . S
C519 C520 1.367 . S
C519 C527 1.378 . S
C520 C519 1.367 . S
C520 C528 1.433 . S
C521 H517 0.929 . S
C521 C523 1.378 . S
C521 C525 1.350 . S
C522 C525 1.463 . S
C522 C527 1.350 . S
C522 N530 1.427 . S
C523 H514 0.930 . S
C523 C521 1.378 . S
C523 C524 1.367 . S
C524 C523 1.367 . S
C524 C526 1.433 . S
C525 C521 1.350 . S
C525 C522 1.463 . S
C525 N529 1.427 . S
C526 H516 0.929 . S
C526 C524 1.433 . S
C526 N529 1.384 . S
C527 H518 0.929 . S
C527 C519 1.378 . S
C527 C522 1.350 . S
C528 H515 0.929 . S
C528 C520 1.433 . S
C528 N530 1.384 . S
N529 C525 1.427 . S
N529 C526 1.384 . S
N530 C522 1.427 . S
N530 C528 1.384 . S
H531 C537 0.930 . S
H532 C541 0.930 . S
H533 C546 0.929 . S
H534 C544 0.929 . S
H535 C539 0.929 . S
H536 C545 0.929 . S
C537 H531 0.930 . S
C537 C538 1.367 . S
C537 C545 1.378 . S
C538 C537 1.367 . S
C538 C546 1.433 . S
C539 H535 0.929 . S
C539 C541 1.378 . S
C539 C543 1.350 . S
C540 C543 1.463 . S
C540 C545 1.350 . S
C540 N548 1.427 . S
C541 H532 0.930 . S
C541 C539 1.378 . S
C541 C542 1.367 . S
C542 C541 1.367 . S
C542 C544 1.433 . S
C543 C539 1.350 . S
C543 C540 1.463 . S
C543 N547 1.427 . S
C544 H534 0.929 . S
C544 C542 1.433 . S
C544 N547 1.384 . S
C545 H536 0.929 . S
C545 C537 1.378 . S
C545 C540 1.350 . S
C546 H533 0.929 . S
C546 C538 1.433 . S
C546 N548 1.384 . S
N547 C543 1.427 . S
N547 C544 1.384 . S
N548 C540 1.427 . S
N548 C546 1.384 . S
H549 C555 0.930 . S
H550 C559 0.930 . S
H551 C564 0.929 . S
H552 C562 0.929 . S
H553 C557 0.929 . S
H554 C563 0.929 . S
C555 H549 0.930 . S
C555 C556 1.367 . S
C555 C563 1.378 . S
C556 C555 1.367 . S
C556 C564 1.433 . S
C557 H553 0.929 . S
C557 C559 1.378 . S
C557 C561 1.350 . S
C558 C561 1.463 . S
C558 C563 1.350 . S
C558 N566 1.427 . S
C559 H550 0.930 . S
C559 C557 1.378 . S
C559 C560 1.367 . S
C560 C559 1.367 . S
C560 C562 1.433 . S
C561 C557 1.350 . S
C561 C558 1.463 . S
C561 N565 1.427 . S
C562 H552 0.929 . S
C562 C560 1.433 . S
C562 N565 1.384 . S
C563 H554 0.929 . S
C563 C555 1.378 . S
C563 C558 1.350 . S
C564 H551 0.929 . S
C564 C556 1.433 . S
C564 N566 1.384 . S
N565 C561 1.427 . S
N565 C562 1.384 . S
N566 C558 1.427 . S
N566 C564 1.384 . S
H567 C573 0.930 . S
H568 C577 0.930 . S
H569 C582 0.929 . S
H570 C580 0.929 . S
H571 C575 0.929 . S
H572 C581 0.929 . S
C573 H567 0.930 . S
C573 C574 1.367 . S
C573 C581 1.378 . S
C574 C573 1.367 . S
C574 C582 1.433 . S
C575 H571 0.929 . S
C575 C577 1.378 . S
C575 C579 1.350 . S
C576 C579 1.463 . S
C576 C581 1.350 . S
C576 N584 1.427 . S
C577 H568 0.930 . S
C577 C575 1.378 . S
C577 C578 1.367 . S
C578 C577 1.367 . S
C578 C580 1.433 . S
C579 C575 1.350 . S
C579 C576 1.463 . S
C579 N583 1.427 . S
C580 H570 0.929 . S
C580 C578 1.433 . S
C580 N583 1.384 . S
C581 H572 0.929 . S
C581 C573 1.378 . S
C581 C576 1.350 . S
C582 H569 0.929 . S
C582 C574 1.433 . S
C582 N584 1.384 . S
N583 C579 1.427 . S
N583 C580 1.384 . S
N584 C576 1.427 . S
N584 C582 1.384 . S
H585 C591 0.930 . S
H586 C595 0.930 . S
H587 C600 0.929 . S
H588 C598 0.929 . S
H589 C593 0.929 . S
H590 C599 0.929 . S
C591 H585 0.930 . S
C591 C592 1.367 . S
C591 C599 1.378 . S
C592 C591 1.367 . S
C592 C600 1.433 . S
C593 H589 0.929 . S
C593 C595 1.378 . S
C593 C597 1.350 . S
C594 C597 1.463 . S
C594 C599 1.350 . S
C594 N602 1.427 . S
C595 H586 0.930 . S
C595 C593 1.378 . S
C595 C596 1.367 . S
C596 C595 1.367 . S
C596 C598 1.433 . S
C597 C593 1.350 . S
C597 C594 1.463 . S
C597 N601 1.427 . S
C598 H588 0.929 . S
C598 C596 1.433 . S
C598 N601 1.384 . S
C599 H590 0.929 . S
C599 C591 1.378 . S
C599 C594 1.350 . S
C600 H587 0.929 . S
C600 C592 1.433 . S
C600 N602 1.384 . S
N601 C597 1.427 . S
N601 C598 1.384 . S
N602 C594 1.427 . S
N602 C600 1.384 . S
C182 C96 1.165 . S
C178 C4 1.221 . S
C200 C132 1.609 . S
C196 C13 1.716 . S
C218 C97 1.332 . S
C214 C25 1.342 . S
C236 C127 1.448 . S
C232 C32 1.514 . S
C254 C94 1.421 . S
C250 C41 1.490 . S
C268 C52 1.582 . S
C272 C130 1.579 . S
C286 C61 1.251 . S
C290 C99 1.152 . S
C308 C129 1.348 . S
C304 C67 1.408 . S
C326 C133 1.343 . S
C322 C7 1.401 . S
C344 C98 1.428 . S
C340 C14 1.509 . S
C362 C126 1.597 . S
C358 C22 1.596 . S
C380 C95 1.144 . S
C376 C31 1.243 . S
C398 C128 1.597 . S
C394 C40 1.703 . S
C412 C49 1.355 . S
C416 C93 1.339 . S
C430 C59 1.521 . S
C434 C131 1.466 . S
C452 C100 1.156 . S
C448 C70 1.215 . S
C470 C162 1.586 . S
C466 C5 1.693 . S
C484 C43 1.936 . S
C488 C165 1.789 . S
C506 C164 1.556 . S
C502 C50 1.615 . S
C520 C58 1.941 . S
C524 C163 1.922 . S
C542 C166 1.583 . S
C538 C68 1.690 . S
C556 C23 1.629 . S
C560 C160 1.567 . S
C578 C159 1.900 . S
C574 C34 1.917 . S
C592 C16 1.954 . S
C596 C161 1.808 . S
