# Generated by pormake.
# Topology rtl, (3,6)-cn, num edge types: 1
# Building blocks:
#     Node 0, Type 0, BuildingBlock: PAMTOO_clean_linker_0, # of connection points: 3
#     Node 1, Type 0, BuildingBlock: PAMTOO_clean_linker_0, # of connection points: 3
#     Node 2, Type 0, BuildingBlock: PAMTOO_clean_linker_0, # of connection points: 3
#     Node 3, Type 0, BuildingBlock: PAMTOO_clean_linker_0, # of connection points: 3
#     Node 4, Type 1, BuildingBlock: LEVNOQ01_clean_sbu_1, # of connection points: 6
#     Node 5, Type 1, BuildingBlock: LEVNOQ01_clean_sbu_1, # of connection points: 6
#     Edge 6, Type (0, 1), BuildingBlock: FUNLAD_clean_linker_0, # of connection points: 2
#     Edge 7, Type (0, 1), BuildingBlock: FUNLAD_clean_linker_0, # of connection points: 2
#     Edge 8, Type (0, 1), BuildingBlock: FUNLAD_clean_linker_0, # of connection points: 2
#     Edge 9, Type (0, 1), BuildingBlock: FUNLAD_clean_linker_0, # of connection points: 2
#     Edge 10, Type (0, 1), BuildingBlock: FUNLAD_clean_linker_0, # of connection points: 2
#     Edge 11, Type (0, 1), BuildingBlock: FUNLAD_clean_linker_0, # of connection points: 2
#     Edge 12, Type (0, 1), BuildingBlock: FUNLAD_clean_linker_0, # of connection points: 2
#     Edge 13, Type (0, 1), BuildingBlock: FUNLAD_clean_linker_0, # of connection points: 2
#     Edge 14, Type (0, 1), BuildingBlock: FUNLAD_clean_linker_0, # of connection points: 2
#     Edge 15, Type (0, 1), BuildingBlock: FUNLAD_clean_linker_0, # of connection points: 2
#     Edge 16, Type (0, 1), BuildingBlock: FUNLAD_clean_linker_0, # of connection points: 2
#     Edge 17, Type (0, 1), BuildingBlock: FUNLAD_clean_linker_0, # of connection points: 2
# Relax obj value: 0.020
# Max RMSD: 0.117
# Mean RMSD: 0.092
data_MOF--net-rtl--node1-LEVNOQ01_clean_sbu_1--node2-PAMTOO_clean_linker_0--edge1-FUNLAD_clean_linker_0
_symmetry_space_group_name_H-M    P1
_symmetry_Int_Tables_number       1
_symmetry_cell_setting            triclinic
loop_
_symmetry_equiv_pos_as_xyz
'x, y, z'
_cell_length_a     41.884576
_cell_length_b     41.732192
_cell_length_c     26.014566
_cell_angle_alpha  90.528614
_cell_angle_beta   97.92061
_cell_angle_gamma 90.064469
loop_
_atom_site_label
_atom_site_type_symbol
_atom_site_fract_x
_atom_site_fract_y
_atom_site_fract_z
_atom_type_partial_charge
H0 H 0.13162 0.86125 0.04926 0.0
H1 H 0.19532 0.80824 0.16143 0.0
H2 H 0.20116 0.7961 -0.00095 0.0
H3 H 0.20264 0.73659 0.06925 0.0
C4 C 0.21959 0.74669 0.10217 0.0
O5 O 0.2252 0.77865 0.09299 0.0
H6 H 0.20839 0.74446 0.13832 0.0
C7 C 0.15054 0.84363 0.05802 0.0
C8 C 0.16475 0.82961 0.01734 0.0
C9 C 0.1612 0.8361 0.11014 0.0
C10 C 0.18681 0.81447 0.12157 0.0
C11 C 0.20088 0.79985 0.08149 0.0
C12 C 0.18997 0.80749 0.0296 0.0
H13 H 0.65745 0.6381 0.57745 0.0
H14 H 0.71263 0.70735 0.50508 0.0
H15 H 0.72749 0.69769 0.67059 0.0
H16 H 0.73104 0.76154 0.64318 0.0
C17 C 0.73944 0.76006 0.6045 0.0
O18 O 0.74506 0.72844 0.59235 0.0
H19 H 0.72036 0.76988 0.57482 0.0
C20 C 0.6758 0.65661 0.58068 0.0
C21 C 0.69127 0.66601 0.62997 0.0
C22 C 0.68345 0.67102 0.53524 0.0
C23 C 0.7061 0.69614 0.53957 0.0
C24 C 0.72175 0.70574 0.58848 0.0
C25 C 0.71458 0.6905 0.6333 0.0
H26 H 0.85733 0.16054 0.01041 0.0
H27 H 0.78881 0.21647 0.90995 0.0
H28 H 0.79135 0.22399 0.07452 0.0
H29 H 0.72604 0.22388 0.01771 0.0
C30 C 0.73096 0.23396 0.98016 0.0
O31 O 0.76283 0.24356 0.98459 0.0
H32 H 0.7264 0.21497 0.94964 0.0
C33 C 0.8379 0.17783 0.0053 0.0
C34 C 0.82605 0.19082 0.04921 0.0
C35 C 0.82491 0.18707 0.95474 0.0
C36 C 0.79951 0.20931 0.94842 0.0
C37 C 0.78735 0.22224 0.99151 0.0
C38 C 0.80073 0.21325 0.04163 0.0
H39 H 0.35436 0.37412 0.49572 0.0
H40 H 0.2889 0.31179 0.56182 0.0
H41 H 0.28651 0.3152 0.39694 0.0
H42 H 0.22381 0.31556 0.43475 0.0
C43 C 0.22888 0.29851 0.46753 0.0
O44 O 0.26089 0.28947 0.47252 0.0
H45 H 0.22402 0.31073 0.50381 0.0
C46 C 0.33512 0.35652 0.49105 0.0
C47 C 0.3222 0.3461 0.44078 0.0
C48 C 0.32334 0.34446 0.53528 0.0
C49 C 0.29826 0.32166 0.52851 0.0
C50 C 0.2851 0.31127 0.47869 0.0
C51 C 0.29713 0.32334 0.43517 0.0
O52 O 0.00685 0.07605 0.64494 0.0
Mg53 Mg 0.04522 0.05439 0.6147 0.0
O54 O 0.97287 0.04438 0.5959 0.0
Mg55 Mg 0.0023 0.01663 0.53752 0.0
O56 O 0.04323 0.05575 0.53552 0.0
O57 O 0.07715 0.08529 0.5919 0.0
O58 O 0.03151 0.98884 0.48018 0.0
O59 O 0.97544 0.0513 0.47058 0.0
Mg60 Mg 0.95965 0.99153 0.46724 0.0
O61 O 0.96258 0.975 0.5419 0.0
O62 O -0.00719 0.97985 0.41618 0.0
O63 O 0.92838 0.0292 0.44709 0.0
O64 O 0.93373 0.9517 0.47195 0.0
C65 C 0.05376 0.9869 0.64074 0.0
C66 C 0.97847 0.06589 0.63137 0.0
C67 C 0.06617 0.0771 0.54485 0.0
C68 C 0.02235 0.97881 0.43411 0.0
C69 C 0.94681 0.05291 0.44597 0.0
C70 C 0.94235 0.95304 0.52135 0.0
O71 O 0.06642 0.01401 0.65179 0.0
O72 O 0.0304 0.98406 0.6037 0.0
O73 O 0.56682 0.51467 0.14262 0.0
Mg74 Mg 0.54201 0.47676 0.10292 0.0
O75 O 0.5304 0.54655 0.10101 0.0
Mg76 Mg 0.50135 0.51659 0.03093 0.0
O77 O 0.54054 0.47587 0.02384 0.0
O78 O 0.57203 0.44422 0.07949 0.0
O79 O 0.47228 0.48734 0.96014 0.0
O80 O 0.53394 0.54506 0.97853 0.0
Mg81 Mg 0.46482 0.55831 0.95952 0.0
O82 O 0.46153 0.557 0.03768 0.0
O83 O 0.44194 0.52198 0.91252 0.0
O84 O 0.50386 0.5818 0.93572 0.0
O85 O 0.43365 0.59041 0.98036 0.0
C86 C 0.47524 0.46629 0.11972 0.0
C87 C 0.55468 0.54221 0.1358 0.0
C88 C 0.5623 0.45343 0.0328 0.0
C89 C 0.45102 0.49347 0.92126 0.0
C90 C 0.53108 0.56914 0.94829 0.0
C91 C 0.44046 0.57995 0.02704 0.0
O92 O 0.50346 0.45603 0.13341 0.0
O93 O 0.47015 0.48801 0.0852 0.0
C94 C 0.21597 0.239 0.47405 0.0
C95 C 0.20643 0.27001 0.45773 0.0
C96 C 0.19376 0.21365 0.46871 0.0
C97 C 0.16136 0.21887 0.44768 0.0
C98 C 0.15192 0.24987 0.43161 0.0
C99 C 0.17418 0.27509 0.43641 0.0
C100 C 0.13621 0.1936 0.44773 0.0
C101 C 0.14238 0.16193 0.44542 0.0
C102 C 0.1195 0.13662 0.45789 0.0
C103 C 0.13239 0.10726 0.47676 0.0
C104 C 0.11346 0.08551 0.49982 0.0
C105 C 0.08108 0.09237 0.50344 0.0
H106 H 0.07489 0.16363 0.44082 0.0
C107 C 0.06713 0.11998 0.47968 0.0
C108 C 0.08614 0.14193 0.45679 0.0
H109 H 0.04227 0.12592 0.4827 0.0
H110 H 0.24039 0.23441 0.49207 0.0
H111 H 0.20175 0.19041 0.4834 0.0
H112 H 0.12705 0.25474 0.41618 0.0
H113 H 0.16601 0.29887 0.42459 0.0
H114 H 0.11225 0.20178 0.45275 0.0
H115 H 0.16642 0.15425 0.43971 0.0
H116 H 0.15783 0.10224 0.4776 0.0
H117 H 0.12483 0.0646 0.51874 0.0
C118 C 0.25169 0.69694 0.08778 0.0
C119 C 0.25076 0.72801 0.10876 0.0
C120 C 0.28025 0.67917 0.09442 0.0
C121 C 0.30854 0.69198 0.1228 0.0
C122 C 0.30736 0.72283 0.14462 0.0
C123 C 0.2787 0.7405 0.13826 0.0
C124 C 0.34019 0.67529 0.12576 0.0
C125 C 0.3433 0.64331 0.11961 0.0
C126 C 0.37376 0.62734 0.10946 0.0
C127 C 0.37549 0.59362 0.11003 0.0
C128 C 0.4001 0.57748 0.08888 0.0
C129 C 0.42323 0.5949 0.06659 0.0
H130 H 0.39866 0.6704 0.08932 0.0
C131 C 0.42323 0.62845 0.07016 0.0
C132 C 0.3989 0.64456 0.09144 0.0
H133 H 0.44058 0.64235 0.05237 0.0
H134 H 0.23035 0.68652 0.06558 0.0
H135 H 0.28022 0.6559 0.07575 0.0
H136 H 0.32877 0.73342 0.16635 0.0
H137 H 0.27847 0.7641 0.15589 0.0
H138 H 0.36153 0.69035 0.13176 0.0
H139 H 0.32212 0.62816 0.11862 0.0
H140 H 0.35651 0.57967 0.12352 0.0
H141 H 0.39923 0.55159 0.08555 0.0
C142 C 0.7674 0.81317 0.59839 0.0
C143 C 0.76979 0.77997 0.60635 0.0
C144 C 0.79512 0.83213 0.60001 0.0
C145 C 0.82595 0.81825 0.61012 0.0
C146 C 0.8283 0.78519 0.61949 0.0
C147 C 0.80057 0.76631 0.61843 0.0
C148 C 0.8558 0.8368 0.60561 0.0
C149 C 0.85842 0.86884 0.61251 0.0
C150 C 0.8854 0.88798 0.59646 0.0
C151 C 0.8921 0.91884 0.6176 0.0
C152 C 0.9133 0.93947 0.59647 0.0
C153 C 0.92753 0.92968 0.55316 0.0
H154 H 0.89671 0.85447 0.53701 0.0
C155 C 0.92228 0.8983 0.534 0.0
C156 C 0.9016 0.87764 0.5554 0.0
H157 H 0.93282 0.89028 0.50034 0.0
H158 H 0.74397 0.8244 0.59 0.0
H159 H 0.79223 0.85737 0.59145 0.0
H160 H 0.85171 0.77384 0.62717 0.0
H161 H 0.8033 0.74094 0.62622 0.0
H162 H 0.87612 0.82341 0.59481 0.0
H163 H 0.83946 0.88186 0.62823 0.0
H164 H 0.87979 0.92753 0.64896 0.0
H165 H 0.91661 0.96374 0.61142 0.0
C166 C 0.71677 0.29348 0.97939 0.0
C167 C 0.70805 0.26155 0.96637 0.0
C168 C 0.69404 0.31814 0.97059 0.0
C169 C 0.66193 0.31132 0.94934 0.0
C170 C 0.65334 0.27943 0.93646 0.0
C171 C 0.67612 0.25488 0.94471 0.0
C172 C 0.63609 0.33602 0.94613 0.0
C173 C 0.64139 0.36768 0.94103 0.0
C174 C 0.61747 0.39291 0.95019 0.0
C175 C 0.62909 0.42359 0.96578 0.0
C176 C 0.60924 0.44574 0.9866 0.0
C177 C 0.57725 0.43783 0.99135 0.0
H178 H 0.57393 0.36373 0.93582 0.0
C179 C 0.56448 0.40872 0.97037 0.0
C180 C 0.58433 0.38648 0.94953 0.0
H181 H 0.53996 0.40195 0.97434 0.0
H182 H 0.74093 0.29935 0.99755 0.0
H183 H 0.70137 0.3422 0.98286 0.0
H184 H 0.6287 0.27336 0.92094 0.0
H185 H 0.66855 0.23043 0.93539 0.0
H186 H 0.61225 0.32751 0.95111 0.0
H187 H 0.66535 0.37568 0.93544 0.0
H188 H 0.65432 0.4295 0.96612 0.0
H189 H 0.61976 0.46782 0.00349 0.0
C190 C 0.16274 0.86341 0.19743 0.0
C191 C 0.14496 0.85056 0.15208 0.0
C192 C 0.14701 0.87821 0.23555 0.0
C193 C 0.1131 0.88022 0.22906 0.0
C194 C 0.09552 0.86656 0.18431 0.0
C195 C 0.11118 0.85205 0.14628 0.0
C196 C 0.09458 0.89634 0.26688 0.0
C197 C 0.107 0.91616 0.30594 0.0
C198 C 0.08593 0.93366 0.33843 0.0
C199 C 0.09718 0.94126 0.39058 0.0
C200 C 0.07698 0.95665 0.42191 0.0
C201 C 0.04524 0.96488 0.40136 0.0
H202 H 0.04564 0.93944 0.27696 0.0
C203 C 0.03466 0.95854 0.3486 0.0
C204 C 0.05472 0.94337 0.31752 0.0
H205 H 0.01061 0.96512 0.33109 0.0
H206 H 0.18884 0.8626 0.20292 0.0
H207 H 0.16155 0.88789 0.26972 0.0
H208 H 0.06941 0.86747 0.17824 0.0
H209 H 0.09677 0.84191 0.11222 0.0
H210 H 0.0687 0.89225 0.26087 0.0
H211 H 0.13281 0.91981 0.31469 0.0
H212 H 0.12133 0.93458 0.40742 0.0
H213 H 0.08593 0.96141 0.46232 0.0
C214 C 0.68037 0.66839 0.7228 0.0
C215 C 0.68269 0.65035 0.67755 0.0
C216 C 0.66956 0.65423 0.76582 0.0
C217 C 0.66029 0.6217 0.76434 0.0
C218 C 0.66439 0.60332 0.72026 0.0
C219 C 0.67544 0.61741 0.67744 0.0
C220 C 0.64457 0.60646 0.80614 0.0
C221 C 0.62924 0.62338 0.83973 0.0
C222 C 0.60691 0.60891 0.8729 0.0
C223 C 0.58186 0.62813 0.88637 0.0
C224 C 0.55805 0.61523 0.91247 0.0
C225 C 0.55894 0.58283 0.92675 0.0
H226 H 0.62833 0.56145 0.88098 0.0
C227 C 0.58507 0.56388 0.91643 0.0
C228 C 0.60885 0.57677 0.88938 0.0
H229 H 0.58641 0.53887 0.92729 0.0
H230 H 0.68587 0.69377 0.72448 0.0
H231 H 0.66812 0.66914 0.79961 0.0
H232 H 0.65799 0.57813 0.71816 0.0
H233 H 0.67784 0.6025 0.6439 0.0
H234 H 0.64224 0.58054 0.80493 0.0
H235 H 0.62946 0.64934 0.83835 0.0
H236 H 0.57989 0.65301 0.87478 0.0
H237 H 0.53845 0.63058 0.92051 0.0
C238 C 0.8729 0.17493 0.11612 0.0
C239 C 0.83968 0.18063 0.10273 0.0
C240 C 0.88538 0.1643 0.16586 0.0
C241 C 0.86488 0.15923 0.20372 0.0
C242 C 0.83179 0.1655 0.1904 0.0
C243 C 0.81936 0.17596 0.14076 0.0
C244 C 0.87602 0.14582 0.25634 0.0
C245 C 0.90677 0.13801 0.275 0.0
C246 C 0.916 0.12001 0.32439 0.0
C247 C 0.94861 0.11886 0.34666 0.0
C248 C 0.95869 0.09879 0.38886 0.0
C249 C 0.93632 0.07917 0.40932 0.0
H250 H 0.86834 0.10073 0.33086 0.0
C251 C 0.90356 0.08158 0.38881 0.0
C252 C 0.89353 0.1015 0.3469 0.0
H253 H 0.88564 0.0668 0.40358 0.0
H254 H 0.88939 0.17872 0.08813 0.0
H255 H 0.91096 0.15982 0.17373 0.0
H256 H 0.81523 0.16169 0.2183 0.0
H257 H 0.79361 0.17961 0.13188 0.0
H258 H 0.85731 0.14156 0.28042 0.0
H259 H 0.92611 0.14396 0.25306 0.0
H260 H 0.96656 0.13269 0.3302 0.0
H261 H 0.98414 0.09735 0.40349 0.0
C262 C 0.36988 0.36183 0.60201 0.0
C263 C 0.33661 0.35638 0.58822 0.0
C264 C 0.38198 0.37493 0.65065 0.0
C265 C 0.36102 0.38285 0.68675 0.0
C266 C 0.3279 0.37676 0.67326 0.0
C267 C 0.31585 0.3636 0.62481 0.0
C268 C 0.372 0.40031 0.73639 0.0
C269 C 0.40286 0.40203 0.7597 0.0
C270 C 0.41334 0.42383 0.80476 0.0
C271 C 0.44167 0.41723 0.8388 0.0
C272 C 0.4534 0.439 0.87854 0.0
C273 C 0.43729 0.46808 0.88427 0.0
H274 H 0.37557 0.45919 0.78563 0.0
C275 C 0.40865 0.47426 0.85087 0.0
C276 C 0.39687 0.45256 0.81171 0.0
H277 H 0.3956 0.49643 0.85406 0.0
H278 H 0.3866 0.35628 0.57495 0.0
H279 H 0.40754 0.37979 0.65883 0.0
H280 H 0.31109 0.38288 0.69994 0.0
H281 H 0.29007 0.36011 0.61539 0.0
H282 H 0.35348 0.41268 0.75424 0.0
H283 H 0.42121 0.38744 0.7453 0.0
H284 H 0.45505 0.39545 0.83409 0.0
H285 H 0.47566 0.43364 0.90336 0.0
C286 C 0.6566 0.67814 0.44277 0.0
C287 C 0.66922 0.658 0.48368 0.0
C288 C 0.64299 0.66508 0.39469 0.0
C289 C 0.64215 0.63164 0.3867 0.0
C290 C 0.6552 0.61176 0.4275 0.0
C291 C 0.66837 0.6247 0.47532 0.0
C292 C 0.62953 0.61608 0.33626 0.0
C293 C 0.60785 0.62898 0.29894 0.0
C294 C 0.59525 0.61028 0.25125 0.0
C295 C 0.56293 0.61349 0.22853 0.0
C296 C 0.54976 0.59271 0.18823 0.0
C297 C 0.56883 0.56847 0.17028 0.0
H298 H 0.6402 0.58569 0.24449 0.0
C299 C 0.6017 0.56706 0.19026 0.0
C300 C 0.61483 0.58787 0.22978 0.0
H301 H 0.61718 0.54908 0.17637 0.0
H302 H 0.65699 0.70391 0.44812 0.0
H303 H 0.63379 0.68118 0.36381 0.0
H304 H 0.65521 0.58596 0.42241 0.0
H305 H 0.67837 0.60854 0.5057 0.0
H306 H 0.63727 0.59155 0.33117 0.0
H307 H 0.59728 0.65218 0.30519 0.0
H308 H 0.54744 0.63092 0.24374 0.0
H309 H 0.52436 0.59438 0.17336 0.0
C310 C 0.84639 0.14159 0.90493 0.0
C311 C 0.83826 0.17416 0.90854 0.0
C312 C 0.85994 0.12992 0.8621 0.0
C313 C 0.86565 0.15066 0.8219 0.0
C314 C 0.85718 0.18307 0.82541 0.0
C315 C 0.84355 0.19466 0.86798 0.0
C316 C 0.88312 0.14038 0.77839 0.0
C317 C 0.88624 0.10971 0.76291 0.0
C318 C 0.908 0.10029 0.72454 0.0
C319 C 0.9024 0.07164 0.69569 0.0
C320 C 0.92434 0.06098 0.66302 0.0
C321 C 0.9526 0.07854 0.65948 0.0
H322 H 0.94172 0.13986 0.74205 0.0
C323 C 0.95772 0.10751 0.6874 0.0
C324 C 0.93584 0.11821 0.71951 0.0
H325 H 0.97926 0.12164 0.68566 0.0
H326 H 0.84241 0.12511 0.93535 0.0
H327 H 0.8668 0.10496 0.86163 0.0
H328 H 0.86163 0.1997 0.79543 0.0
H329 H 0.83798 0.21995 0.86978 0.0
H330 H 0.89412 0.15929 0.75837 0.0
H331 H 0.87288 0.09082 0.77894 0.0
H332 H 0.88132 0.05719 0.69918 0.0
H333 H 0.91987 0.03842 0.64235 0.0
C334 C 0.34275 0.39124 0.39039 0.0
C335 C 0.33511 0.35858 0.39424 0.0
C336 C 0.35601 0.4026 0.34741 0.0
C337 C 0.36187 0.3815 0.30719 0.0
C338 C 0.35382 0.349 0.31088 0.0
C339 C 0.3405 0.33768 0.35367 0.0
C340 C 0.37909 0.39157 0.26352 0.0
C341 C 0.3822 0.42217 0.24847 0.0
C342 C 0.40401 0.43155 0.21037 0.0
C343 C 0.39877 0.46038 0.18281 0.0
C344 C 0.42092 0.47115 0.15082 0.0
C345 C 0.44902 0.45351 0.14665 0.0
H346 H 0.4373 0.39173 0.22612 0.0
C347 C 0.45372 0.42431 0.17311 0.0
C348 C 0.43165 0.41351 0.20457 0.0
H349 H 0.47513 0.4101 0.17085 0.0
H350 H 0.33865 0.40803 0.42077 0.0
H351 H 0.36252 0.42767 0.34686 0.0
H352 H 0.35839 0.33208 0.28089 0.0
H353 H 0.33529 0.31233 0.35562 0.0
H354 H 0.39003 0.37256 0.24317 0.0
H355 H 0.36889 0.4411 0.26488 0.0
H356 H 0.37785 0.47493 0.18691 0.0
H357 H 0.41677 0.49388 0.13127 0.0
C358 C 0.12096 0.84454 0.9452 0.0
C359 C 0.15385 0.8393 0.96267 0.0
C360 C 0.11097 0.85743 0.89613 0.0
C361 C 0.13368 0.86524 0.863 0.0
C362 C 0.16639 0.85868 0.87967 0.0
C363 C 0.17637 0.8458 0.92876 0.0
C364 C 0.12497 0.88333 0.81377 0.0
C365 C 0.09459 0.88762 0.78962 0.0
C366 C 0.08623 0.91103 0.74677 0.0
C367 C 0.05687 0.90797 0.71348 0.0
C368 C 0.04676 0.93173 0.6769 0.0
C369 C 0.06565 0.95929 0.67356 0.0
H370 H 0.12783 0.94216 0.76751 0.0
C371 C 0.09542 0.96181 0.70578 0.0
C372 C 0.10555 0.93814 0.74189 0.0
H373 H 0.11064 0.9827 0.70432 0.0
H374 H 0.10291 0.83941 0.97008 0.0
H375 H 0.08561 0.86243 0.88562 0.0
H376 H 0.18452 0.86457 0.8553 0.0
H377 H 0.2019 0.84236 0.94102 0.0
H378 H 0.14478 0.8945 0.79771 0.0
H379 H 0.07483 0.87433 0.80218 0.0
H380 H 0.04132 0.88752 0.71664 0.0
H381 H 0.02361 0.92915 0.65289 0.0
loop_
_geom_bond_atom_site_label_1
_geom_bond_atom_site_label_2
_geom_bond_distance
_geom_bond_site_symmetry_2
_ccdc_geom_bond_type
H0 C7 0.929 . S
H1 C10 0.930 . S
H2 C12 0.929 1_556 S
H3 C4 0.969 . S
C4 H3 0.969 . S
C4 O5 1.550 . S
C4 H6 0.973 . S
O5 C4 1.550 . S
O5 C11 1.412 . S
H6 C4 0.973 . S
C7 H0 0.929 . S
C7 C8 1.400 . S
C7 C9 1.364 . S
C8 C7 1.400 . S
C8 C12 1.377 . S
C9 C7 1.364 . S
C9 C10 1.374 . S
C10 H1 0.930 . S
C10 C9 1.374 . S
C10 C11 1.383 . S
C11 O5 1.412 . S
C11 C10 1.383 . S
C11 C12 1.394 . S
C12 H2 0.929 1_554 S
C12 C8 1.377 . S
C12 C11 1.394 . S
H13 C20 0.929 . S
H14 C23 0.930 . S
H15 C25 0.929 . S
H16 C17 0.969 . S
C17 H16 0.969 . S
C17 O18 1.550 . S
C17 H19 0.973 . S
O18 C17 1.550 . S
O18 C24 1.412 . S
H19 C17 0.973 . S
C20 H13 0.929 . S
C20 C21 1.400 . S
C20 C22 1.364 . S
C21 C20 1.400 . S
C21 C25 1.377 . S
C22 C20 1.364 . S
C22 C23 1.374 . S
C23 H14 0.930 . S
C23 C22 1.374 . S
C23 C24 1.383 . S
C24 O18 1.412 . S
C24 C23 1.383 . S
C24 C25 1.394 . S
C25 H15 0.929 . S
C25 C21 1.377 . S
C25 C24 1.394 . S
H26 C33 0.929 . S
H27 C36 0.930 . S
H28 C38 0.929 . S
H29 C30 0.969 . S
C30 H29 0.969 . S
C30 O31 1.550 1_556 S
C30 H32 0.973 . S
O31 C30 1.550 1_554 S
O31 C37 1.412 . S
H32 C30 0.973 . S
C33 H26 0.929 . S
C33 C34 1.400 . S
C33 C35 1.364 1_554 S
C34 C33 1.400 . S
C34 C38 1.377 . S
C35 C33 1.364 1_556 S
C35 C36 1.374 . S
C36 H27 0.930 . S
C36 C35 1.374 . S
C36 C37 1.383 1_556 S
C37 O31 1.412 . S
C37 C36 1.383 1_554 S
C37 C38 1.394 . S
C38 H28 0.929 . S
C38 C34 1.377 . S
C38 C37 1.394 . S
H39 C46 0.929 . S
H40 C49 0.930 . S
H41 C51 0.929 . S
H42 C43 0.969 . S
C43 H42 0.969 . S
C43 O44 1.550 . S
C43 H45 0.973 . S
O44 C43 1.550 . S
O44 C50 1.412 . S
H45 C43 0.973 . S
C46 H39 0.929 . S
C46 C47 1.400 . S
C46 C48 1.364 . S
C47 C46 1.400 . S
C47 C51 1.377 . S
C48 C46 1.364 . S
C48 C49 1.374 . S
C49 H40 0.930 . S
C49 C48 1.374 . S
C49 C50 1.383 . S
C50 O44 1.412 . S
C50 C49 1.383 . S
C50 C51 1.394 . S
C51 H41 0.929 . S
C51 C47 1.377 . S
C51 C50 1.394 . S
O52 Mg53 1.990 . S
O52 C66 1.253 1_455 S
Mg53 O52 1.990 . S
Mg53 O56 2.180 . S
Mg53 O57 2.117 . S
Mg53 O71 2.030 . S
O54 Mg55 2.072 1_655 S
O54 C66 1.260 . S
Mg55 O54 2.072 1_455 S
Mg55 O56 2.099 . S
Mg55 O58 2.079 1_545 S
Mg55 O59 2.072 1_455 S
Mg55 O61 2.099 1_445 S
Mg55 O72 2.079 1_545 S
O56 Mg53 2.180 . S
O56 Mg55 2.099 . S
O56 C67 1.279 . S
O57 Mg53 2.117 . S
O57 C67 1.250 . S
O58 Mg55 2.079 1_565 S
O58 C68 1.264 . S
O59 Mg55 2.072 1_655 S
O59 C69 1.260 . S
Mg60 O61 2.180 . S
Mg60 O62 2.030 1_655 S
Mg60 O63 1.990 1_565 S
Mg60 O64 2.117 . S
O61 Mg55 2.099 1_665 S
O61 Mg60 2.180 . S
O61 C70 1.279 . S
O62 Mg60 2.030 1_455 S
O62 C68 1.248 . S
O63 Mg60 1.990 1_545 S
O63 C69 1.253 . S
O64 Mg60 2.117 . S
O64 C70 1.250 . S
C65 O71 1.248 1_565 S
C65 O72 1.264 . S
C66 O52 1.253 1_655 S
C66 O54 1.260 . S
C67 O56 1.279 . S
C67 O57 1.250 . S
C68 O58 1.264 . S
C68 O62 1.248 . S
C69 O59 1.260 . S
C69 O63 1.253 . S
C70 O61 1.279 . S
C70 O64 1.250 . S
O71 Mg53 2.030 . S
O71 C65 1.248 1_545 S
O72 Mg55 2.079 1_565 S
O72 C65 1.264 . S
O73 Mg74 1.990 . S
O73 C87 1.253 . S
Mg74 O73 1.990 . S
Mg74 O77 2.180 . S
Mg74 O78 2.117 . S
Mg74 O92 2.030 . S
O75 Mg76 2.072 . S
O75 C87 1.260 . S
Mg76 O75 2.072 . S
Mg76 O77 2.099 . S
Mg76 O79 2.079 1_554 S
Mg76 O80 2.072 1_554 S
Mg76 O82 2.099 . S
Mg76 O93 2.079 . S
O77 Mg74 2.180 . S
O77 Mg76 2.099 . S
O77 C88 1.279 . S
O78 Mg74 2.117 . S
O78 C88 1.250 . S
O79 Mg76 2.079 1_556 S
O79 C89 1.264 . S
O80 Mg76 2.072 1_556 S
O80 C90 1.260 . S
Mg81 O82 2.180 1_556 S
Mg81 O83 2.030 . S
Mg81 O84 1.990 . S
Mg81 O85 2.117 . S
O82 Mg76 2.099 . S
O82 Mg81 2.180 1_554 S
O82 C91 1.279 . S
O83 Mg81 2.030 . S
O83 C89 1.248 . S
O84 Mg81 1.990 . S
O84 C90 1.253 . S
O85 Mg81 2.117 . S
O85 C91 1.250 1_556 S
C86 O92 1.248 . S
C86 O93 1.264 . S
C87 O73 1.253 . S
C87 O75 1.260 . S
C88 O77 1.279 . S
C88 O78 1.250 . S
C89 O79 1.264 . S
C89 O83 1.248 . S
C90 O80 1.260 . S
C90 O84 1.253 . S
C91 O82 1.279 . S
C91 O85 1.250 1_554 S
O92 Mg74 2.030 . S
O92 C86 1.248 . S
O93 Mg76 2.079 . S
O93 C86 1.264 . S
C94 C95 1.386 . S
C94 C96 1.383 . S
C94 H110 0.951 . S
C95 C94 1.386 . S
C95 C99 1.383 . S
C96 C94 1.383 . S
C96 C97 1.402 . S
C96 H111 0.951 . S
C97 C96 1.402 . S
C97 C98 1.375 . S
C97 C100 1.481 . S
C98 C97 1.375 . S
C98 C99 1.367 . S
C98 H112 0.951 . S
C99 C95 1.383 . S
C99 C98 1.367 . S
C99 H113 0.950 . S
C100 C97 1.481 . S
C100 C101 1.297 . S
C100 H114 0.950 . S
C101 C100 1.297 . S
C101 C102 1.479 . S
C101 H115 0.950 . S
C102 C101 1.479 . S
C102 C103 1.375 . S
C102 C108 1.404 . S
C103 C102 1.375 . S
C103 C104 1.369 . S
C103 H116 0.950 . S
C104 C103 1.369 . S
C104 C105 1.392 . S
C104 H117 0.951 . S
C105 C104 1.392 . S
C105 C107 1.384 . S
H106 C108 0.949 . S
C107 C105 1.384 . S
C107 C108 1.385 . S
C107 H109 0.950 . S
C108 C102 1.404 . S
C108 H106 0.949 . S
C108 C107 1.385 . S
H109 C107 0.950 . S
H110 C94 0.951 . S
H111 C96 0.951 . S
H112 C98 0.951 . S
H113 C99 0.950 . S
H114 C100 0.950 . S
H115 C101 0.950 . S
H116 C103 0.950 . S
H117 C104 0.951 . S
C118 C119 1.386 . S
C118 C120 1.383 . S
C118 H134 0.951 . S
C119 C118 1.386 . S
C119 C123 1.383 . S
C120 C118 1.383 . S
C120 C121 1.402 . S
C120 H135 0.951 . S
C121 C120 1.402 . S
C121 C122 1.375 . S
C121 C124 1.481 . S
C122 C121 1.375 . S
C122 C123 1.367 . S
C122 H136 0.951 . S
C123 C119 1.383 . S
C123 C122 1.367 . S
C123 H137 0.950 . S
C124 C121 1.481 . S
C124 C125 1.297 . S
C124 H138 0.950 . S
C125 C124 1.297 . S
C125 C126 1.479 . S
C125 H139 0.950 . S
C126 C125 1.479 . S
C126 C127 1.375 . S
C126 C132 1.404 . S
C127 C126 1.375 . S
C127 C128 1.369 . S
C127 H140 0.950 . S
C128 C127 1.369 . S
C128 C129 1.392 . S
C128 H141 0.951 . S
C129 C128 1.392 . S
C129 C131 1.384 . S
H130 C132 0.949 . S
C131 C129 1.384 . S
C131 C132 1.385 . S
C131 H133 0.950 . S
C132 C126 1.404 . S
C132 H130 0.949 . S
C132 C131 1.385 . S
H133 C131 0.950 . S
H134 C118 0.951 . S
H135 C120 0.951 . S
H136 C122 0.951 . S
H137 C123 0.950 . S
H138 C124 0.950 . S
H139 C125 0.950 . S
H140 C127 0.950 . S
H141 C128 0.951 . S
C142 C143 1.386 . S
C142 C144 1.383 . S
C142 H158 0.951 . S
C143 C142 1.386 . S
C143 C147 1.383 . S
C144 C142 1.383 . S
C144 C145 1.402 . S
C144 H159 0.951 . S
C145 C144 1.402 . S
C145 C146 1.375 . S
C145 C148 1.481 . S
C146 C145 1.375 . S
C146 C147 1.367 . S
C146 H160 0.951 . S
C147 C143 1.383 . S
C147 C146 1.367 . S
C147 H161 0.950 . S
C148 C145 1.481 . S
C148 C149 1.297 . S
C148 H162 0.950 . S
C149 C148 1.297 . S
C149 C150 1.479 . S
C149 H163 0.950 . S
C150 C149 1.479 . S
C150 C151 1.375 . S
C150 C156 1.404 . S
C151 C150 1.375 . S
C151 C152 1.369 . S
C151 H164 0.950 . S
C152 C151 1.369 . S
C152 C153 1.392 . S
C152 H165 0.951 . S
C153 C152 1.392 . S
C153 C155 1.384 . S
H154 C156 0.949 . S
C155 C153 1.384 . S
C155 C156 1.385 . S
C155 H157 0.950 . S
C156 C150 1.404 . S
C156 H154 0.949 . S
C156 C155 1.385 . S
H157 C155 0.950 . S
H158 C142 0.951 . S
H159 C144 0.951 . S
H160 C146 0.951 . S
H161 C147 0.950 . S
H162 C148 0.950 . S
H163 C149 0.950 . S
H164 C151 0.950 . S
H165 C152 0.951 . S
C166 C167 1.386 1_554 S
C166 C168 1.383 . S
C166 H182 0.951 . S
C167 C166 1.386 1_556 S
C167 C171 1.383 . S
C168 C166 1.383 . S
C168 C169 1.402 1_554 S
C168 H183 0.951 . S
C169 C168 1.402 1_556 S
C169 C170 1.375 . S
C169 C172 1.481 . S
C170 C169 1.375 . S
C170 C171 1.367 . S
C170 H184 0.951 . S
C171 C167 1.383 . S
C171 C170 1.367 . S
C171 H185 0.950 . S
C172 C169 1.481 . S
C172 C173 1.297 . S
C172 H186 0.950 . S
C173 C172 1.297 . S
C173 C174 1.479 . S
C173 H187 0.950 1_556 S
C174 C173 1.479 . S
C174 C175 1.375 1_556 S
C174 C180 1.404 . S
C175 C174 1.375 1_554 S
C175 C176 1.369 . S
C175 H188 0.950 . S
C176 C175 1.369 . S
C176 C177 1.392 . S
C176 H189 0.951 . S
C177 C176 1.392 . S
C177 C179 1.384 1_554 S
H178 C180 0.949 . S
C179 C177 1.384 1_556 S
C179 C180 1.385 . S
C179 H181 0.950 . S
C180 C174 1.404 . S
C180 H178 0.949 . S
C180 C179 1.385 . S
H181 C179 0.950 . S
H182 C166 0.951 . S
H183 C168 0.951 . S
H184 C170 0.951 . S
H185 C171 0.950 . S
H186 C172 0.950 . S
H187 C173 0.950 1_554 S
H188 C175 0.950 . S
H189 C176 0.951 . S
C190 C191 1.386 . S
C190 C192 1.383 . S
C190 H206 0.951 . S
C191 C190 1.386 . S
C191 C195 1.383 . S
C192 C190 1.383 . S
C192 C193 1.402 . S
C192 H207 0.951 . S
C193 C192 1.402 . S
C193 C194 1.375 . S
C193 C196 1.481 . S
C194 C193 1.375 . S
C194 C195 1.367 . S
C194 H208 0.951 . S
C195 C191 1.383 . S
C195 C194 1.367 . S
C195 H209 0.950 . S
C196 C193 1.481 . S
C196 C197 1.297 . S
C196 H210 0.950 . S
C197 C196 1.297 . S
C197 C198 1.479 . S
C197 H211 0.950 . S
C198 C197 1.479 . S
C198 C199 1.375 . S
C198 C204 1.404 . S
C199 C198 1.375 . S
C199 C200 1.369 . S
C199 H212 0.950 . S
C200 C199 1.369 . S
C200 C201 1.392 . S
C200 H213 0.951 . S
C201 C200 1.392 . S
C201 C203 1.384 . S
H202 C204 0.949 . S
C203 C201 1.384 . S
C203 C204 1.385 . S
C203 H205 0.950 . S
C204 C198 1.404 . S
C204 H202 0.949 . S
C204 C203 1.385 . S
H205 C203 0.950 . S
H206 C190 0.951 . S
H207 C192 0.951 . S
H208 C194 0.951 . S
H209 C195 0.950 . S
H210 C196 0.950 . S
H211 C197 0.950 . S
H212 C199 0.950 . S
H213 C200 0.951 . S
C214 C215 1.386 . S
C214 C216 1.383 . S
C214 H230 0.951 . S
C215 C214 1.386 . S
C215 C219 1.383 . S
C216 C214 1.383 . S
C216 C217 1.402 . S
C216 H231 0.951 . S
C217 C216 1.402 . S
C217 C218 1.375 . S
C217 C220 1.481 . S
C218 C217 1.375 . S
C218 C219 1.367 . S
C218 H232 0.951 . S
C219 C215 1.383 . S
C219 C218 1.367 . S
C219 H233 0.950 . S
C220 C217 1.481 . S
C220 C221 1.297 . S
C220 H234 0.950 . S
C221 C220 1.297 . S
C221 C222 1.479 . S
C221 H235 0.950 . S
C222 C221 1.479 . S
C222 C223 1.375 . S
C222 C228 1.404 . S
C223 C222 1.375 . S
C223 C224 1.369 . S
C223 H236 0.950 . S
C224 C223 1.369 . S
C224 C225 1.392 . S
C224 H237 0.951 . S
C225 C224 1.392 . S
C225 C227 1.384 . S
H226 C228 0.949 . S
C227 C225 1.384 . S
C227 C228 1.385 . S
C227 H229 0.950 . S
C228 C222 1.404 . S
C228 H226 0.949 . S
C228 C227 1.385 . S
H229 C227 0.950 . S
H230 C214 0.951 . S
H231 C216 0.951 . S
H232 C218 0.951 . S
H233 C219 0.950 . S
H234 C220 0.950 . S
H235 C221 0.950 . S
H236 C223 0.950 . S
H237 C224 0.951 . S
C238 C239 1.386 . S
C238 C240 1.383 . S
C238 H254 0.951 . S
C239 C238 1.386 . S
C239 C243 1.383 . S
C240 C238 1.383 . S
C240 C241 1.402 . S
C240 H255 0.951 . S
C241 C240 1.402 . S
C241 C242 1.375 . S
C241 C244 1.481 . S
C242 C241 1.375 . S
C242 C243 1.367 . S
C242 H256 0.951 . S
C243 C239 1.383 . S
C243 C242 1.367 . S
C243 H257 0.950 . S
C244 C241 1.481 . S
C244 C245 1.297 . S
C244 H258 0.950 . S
C245 C244 1.297 . S
C245 C246 1.479 . S
C245 H259 0.950 . S
C246 C245 1.479 . S
C246 C247 1.375 . S
C246 C252 1.404 . S
C247 C246 1.375 . S
C247 C248 1.369 . S
C247 H260 0.950 . S
C248 C247 1.369 . S
C248 C249 1.392 . S
C248 H261 0.951 1_655 S
C249 C248 1.392 . S
C249 C251 1.384 . S
H250 C252 0.949 . S
C251 C249 1.384 . S
C251 C252 1.385 . S
C251 H253 0.950 . S
C252 C246 1.404 . S
C252 H250 0.949 . S
C252 C251 1.385 . S
H253 C251 0.950 . S
H254 C238 0.951 . S
H255 C240 0.951 . S
H256 C242 0.951 . S
H257 C243 0.950 . S
H258 C244 0.950 . S
H259 C245 0.950 . S
H260 C247 0.950 . S
H261 C248 0.951 1_455 S
C262 C263 1.386 . S
C262 C264 1.383 . S
C262 H278 0.951 . S
C263 C262 1.386 . S
C263 C267 1.383 . S
C264 C262 1.383 . S
C264 C265 1.402 . S
C264 H279 0.951 . S
C265 C264 1.402 . S
C265 C266 1.375 . S
C265 C268 1.481 . S
C266 C265 1.375 . S
C266 C267 1.367 . S
C266 H280 0.951 . S
C267 C263 1.383 . S
C267 C266 1.367 . S
C267 H281 0.950 . S
C268 C265 1.481 . S
C268 C269 1.297 . S
C268 H282 0.950 . S
C269 C268 1.297 . S
C269 C270 1.479 . S
C269 H283 0.950 . S
C270 C269 1.479 . S
C270 C271 1.375 . S
C270 C276 1.404 . S
C271 C270 1.375 . S
C271 C272 1.369 . S
C271 H284 0.950 . S
C272 C271 1.369 . S
C272 C273 1.392 . S
C272 H285 0.951 . S
C273 C272 1.392 . S
C273 C275 1.384 . S
H274 C276 0.949 . S
C275 C273 1.384 . S
C275 C276 1.385 . S
C275 H277 0.950 . S
C276 C270 1.404 . S
C276 H274 0.949 . S
C276 C275 1.385 . S
H277 C275 0.950 . S
H278 C262 0.951 . S
H279 C264 0.951 . S
H280 C266 0.951 . S
H281 C267 0.950 . S
H282 C268 0.950 . S
H283 C269 0.950 . S
H284 C271 0.950 . S
H285 C272 0.951 . S
C286 C287 1.386 . S
C286 C288 1.383 . S
C286 H302 0.951 . S
C287 C286 1.386 . S
C287 C291 1.383 . S
C288 C286 1.383 . S
C288 C289 1.402 . S
C288 H303 0.951 . S
C289 C288 1.402 . S
C289 C290 1.375 . S
C289 C292 1.481 . S
C290 C289 1.375 . S
C290 C291 1.367 . S
C290 H304 0.951 . S
C291 C287 1.383 . S
C291 C290 1.367 . S
C291 H305 0.950 . S
C292 C289 1.481 . S
C292 C293 1.297 . S
C292 H306 0.950 . S
C293 C292 1.297 . S
C293 C294 1.479 . S
C293 H307 0.950 . S
C294 C293 1.479 . S
C294 C295 1.375 . S
C294 C300 1.404 . S
C295 C294 1.375 . S
C295 C296 1.369 . S
C295 H308 0.950 . S
C296 C295 1.369 . S
C296 C297 1.392 . S
C296 H309 0.951 . S
C297 C296 1.392 . S
C297 C299 1.384 . S
H298 C300 0.949 . S
C299 C297 1.384 . S
C299 C300 1.385 . S
C299 H301 0.950 . S
C300 C294 1.404 . S
C300 H298 0.949 . S
C300 C299 1.385 . S
H301 C299 0.950 . S
H302 C286 0.951 . S
H303 C288 0.951 . S
H304 C290 0.951 . S
H305 C291 0.950 . S
H306 C292 0.950 . S
H307 C293 0.950 . S
H308 C295 0.950 . S
H309 C296 0.951 . S
C310 C311 1.386 . S
C310 C312 1.383 . S
C310 H326 0.951 . S
C311 C310 1.386 . S
C311 C315 1.383 . S
C312 C310 1.383 . S
C312 C313 1.402 . S
C312 H327 0.951 . S
C313 C312 1.402 . S
C313 C314 1.375 . S
C313 C316 1.481 . S
C314 C313 1.375 . S
C314 C315 1.367 . S
C314 H328 0.951 . S
C315 C311 1.383 . S
C315 C314 1.367 . S
C315 H329 0.950 . S
C316 C313 1.481 . S
C316 C317 1.297 . S
C316 H330 0.950 . S
C317 C316 1.297 . S
C317 C318 1.479 . S
C317 H331 0.950 . S
C318 C317 1.479 . S
C318 C319 1.375 . S
C318 C324 1.404 . S
C319 C318 1.375 . S
C319 C320 1.369 . S
C319 H332 0.950 . S
C320 C319 1.369 . S
C320 C321 1.392 . S
C320 H333 0.951 . S
C321 C320 1.392 . S
C321 C323 1.384 . S
H322 C324 0.949 . S
C323 C321 1.384 . S
C323 C324 1.385 . S
C323 H325 0.950 . S
C324 C318 1.404 . S
C324 H322 0.949 . S
C324 C323 1.385 . S
H325 C323 0.950 . S
H326 C310 0.951 . S
H327 C312 0.951 . S
H328 C314 0.951 . S
H329 C315 0.950 . S
H330 C316 0.950 . S
H331 C317 0.950 . S
H332 C319 0.950 . S
H333 C320 0.951 . S
C334 C335 1.386 . S
C334 C336 1.383 . S
C334 H350 0.951 . S
C335 C334 1.386 . S
C335 C339 1.383 . S
C336 C334 1.383 . S
C336 C337 1.402 . S
C336 H351 0.951 . S
C337 C336 1.402 . S
C337 C338 1.375 . S
C337 C340 1.481 . S
C338 C337 1.375 . S
C338 C339 1.367 . S
C338 H352 0.951 . S
C339 C335 1.383 . S
C339 C338 1.367 . S
C339 H353 0.950 . S
C340 C337 1.481 . S
C340 C341 1.297 . S
C340 H354 0.950 . S
C341 C340 1.297 . S
C341 C342 1.479 . S
C341 H355 0.950 . S
C342 C341 1.479 . S
C342 C343 1.375 . S
C342 C348 1.404 . S
C343 C342 1.375 . S
C343 C344 1.369 . S
C343 H356 0.950 . S
C344 C343 1.369 . S
C344 C345 1.392 . S
C344 H357 0.951 . S
C345 C344 1.392 . S
C345 C347 1.384 . S
H346 C348 0.949 . S
C347 C345 1.384 . S
C347 C348 1.385 . S
C347 H349 0.950 . S
C348 C342 1.404 . S
C348 H346 0.949 . S
C348 C347 1.385 . S
H349 C347 0.950 . S
H350 C334 0.951 . S
H351 C336 0.951 . S
H352 C338 0.951 . S
H353 C339 0.950 . S
H354 C340 0.950 . S
H355 C341 0.950 . S
H356 C343 0.950 . S
H357 C344 0.951 . S
C358 C359 1.386 . S
C358 C360 1.383 . S
C358 H374 0.951 . S
C359 C358 1.386 . S
C359 C363 1.383 . S
C360 C358 1.383 . S
C360 C361 1.402 . S
C360 H375 0.951 . S
C361 C360 1.402 . S
C361 C362 1.375 . S
C361 C364 1.481 . S
C362 C361 1.375 . S
C362 C363 1.367 . S
C362 H376 0.951 . S
C363 C359 1.383 . S
C363 C362 1.367 . S
C363 H377 0.950 . S
C364 C361 1.481 . S
C364 C365 1.297 . S
C364 H378 0.950 . S
C365 C364 1.297 . S
C365 C366 1.479 . S
C365 H379 0.950 . S
C366 C365 1.479 . S
C366 C367 1.375 . S
C366 C372 1.404 . S
C367 C366 1.375 . S
C367 C368 1.369 . S
C367 H380 0.950 . S
C368 C367 1.369 . S
C368 C369 1.392 . S
C368 H381 0.951 . S
C369 C368 1.392 . S
C369 C371 1.384 . S
H370 C372 0.949 . S
C371 C369 1.384 . S
C371 C372 1.385 . S
C371 H373 0.950 1_565 S
C372 C366 1.404 . S
C372 H370 0.949 . S
C372 C371 1.385 . S
H373 C371 0.950 1_545 S
H374 C358 0.951 . S
H375 C360 0.951 . S
H376 C362 0.951 . S
H377 C363 0.950 . S
H378 C364 0.950 . S
H379 C365 0.950 . S
H380 C367 0.950 . S
H381 C368 0.951 . S
C105 C67 1.162 . S
C95 C43 1.362 . S
C119 C4 1.456 . S
C129 C91 1.172 . S
C143 C17 1.564 . S
C153 C70 1.431 . S
C167 C30 1.569 . S
C177 C88 1.473 . S
C201 C68 1.451 . S
C191 C9 1.446 . S
C225 C90 1.490 . S
C215 C21 1.578 . S
C239 C34 1.571 . S
C249 C69 1.553 . S
C263 C48 1.495 . S
C273 C89 1.380 . S
C297 C87 1.458 . S
C287 C22 1.546 . S
C321 C66 1.551 . S
C311 C35 1.579 . S
C345 C86 1.390 . S
C335 C47 1.482 . S
C359 C8 1.497 1_556 S
C369 C65 1.420 . S
