# Generated by pormake.
# Topology pyr, (3,6)-cn, num edge types: 1
# Building blocks:
#     Node 0, Type 0, BuildingBlock: PAMTOO_clean_linker_0, # of connection points: 3
#     Node 1, Type 0, BuildingBlock: PAMTOO_clean_linker_0, # of connection points: 3
#     Node 2, Type 0, BuildingBlock: PAMTOO_clean_linker_0, # of connection points: 3
#     Node 3, Type 0, BuildingBlock: PAMTOO_clean_linker_0, # of connection points: 3
#     Node 4, Type 0, BuildingBlock: PAMTOO_clean_linker_0, # of connection points: 3
#     Node 5, Type 0, BuildingBlock: PAMTOO_clean_linker_0, # of connection points: 3
#     Node 6, Type 0, BuildingBlock: PAMTOO_clean_linker_0, # of connection points: 3
#     Node 7, Type 0, BuildingBlock: PAMTOO_clean_linker_0, # of connection points: 3
#     Node 8, Type 1, BuildingBlock: BETFEN_clean_sbu_0, # of connection points: 6
#     Node 9, Type 1, BuildingBlock: BETFEN_clean_sbu_0, # of connection points: 6
#     Node 10, Type 1, BuildingBlock: BETFEN_clean_sbu_0, # of connection points: 6
#     Node 11, Type 1, BuildingBlock: BETFEN_clean_sbu_0, # of connection points: 6
#     Edge 12, Type (0, 1), BuildingBlock: XIVTED_clean_linker_0, # of connection points: 2
#     Edge 13, Type (0, 1), BuildingBlock: XIVTED_clean_linker_0, # of connection points: 2
#     Edge 14, Type (0, 1), BuildingBlock: XIVTED_clean_linker_0, # of connection points: 2
#     Edge 15, Type (0, 1), BuildingBlock: XIVTED_clean_linker_0, # of connection points: 2
#     Edge 16, Type (0, 1), BuildingBlock: XIVTED_clean_linker_0, # of connection points: 2
#     Edge 17, Type (0, 1), BuildingBlock: XIVTED_clean_linker_0, # of connection points: 2
#     Edge 18, Type (0, 1), BuildingBlock: XIVTED_clean_linker_0, # of connection points: 2
#     Edge 19, Type (0, 1), BuildingBlock: XIVTED_clean_linker_0, # of connection points: 2
#     Edge 20, Type (0, 1), BuildingBlock: XIVTED_clean_linker_0, # of connection points: 2
#     Edge 21, Type (0, 1), BuildingBlock: XIVTED_clean_linker_0, # of connection points: 2
#     Edge 22, Type (0, 1), BuildingBlock: XIVTED_clean_linker_0, # of connection points: 2
#     Edge 23, Type (0, 1), BuildingBlock: XIVTED_clean_linker_0, # of connection points: 2
#     Edge 24, Type (0, 1), BuildingBlock: XIVTED_clean_linker_0, # of connection points: 2
#     Edge 25, Type (0, 1), BuildingBlock: XIVTED_clean_linker_0, # of connection points: 2
#     Edge 26, Type (0, 1), BuildingBlock: XIVTED_clean_linker_0, # of connection points: 2
#     Edge 27, Type (0, 1), BuildingBlock: XIVTED_clean_linker_0, # of connection points: 2
#     Edge 28, Type (0, 1), BuildingBlock: XIVTED_clean_linker_0, # of connection points: 2
#     Edge 29, Type (0, 1), BuildingBlock: XIVTED_clean_linker_0, # of connection points: 2
#     Edge 30, Type (0, 1), BuildingBlock: XIVTED_clean_linker_0, # of connection points: 2
#     Edge 31, Type (0, 1), BuildingBlock: XIVTED_clean_linker_0, # of connection points: 2
#     Edge 32, Type (0, 1), BuildingBlock: XIVTED_clean_linker_0, # of connection points: 2
#     Edge 33, Type (0, 1), BuildingBlock: XIVTED_clean_linker_0, # of connection points: 2
#     Edge 34, Type (0, 1), BuildingBlock: XIVTED_clean_linker_0, # of connection points: 2
#     Edge 35, Type (0, 1), BuildingBlock: XIVTED_clean_linker_0, # of connection points: 2
# Relax obj value: 0.181
# Max RMSD: 0.292
# Mean RMSD: 0.147
data_MOF--net-pyr--node1-BETFEN_clean_sbu_0--node2-PAMTOO_clean_linker_0--edge1-XIVTED_clean_linker_0
_symmetry_space_group_name_H-M    P1
_symmetry_Int_Tables_number       1
_symmetry_cell_setting            triclinic
loop_
_symmetry_equiv_pos_as_xyz
'x, y, z'
_cell_length_a     36.304043
_cell_length_b     41.821699
_cell_length_c     37.664381
_cell_angle_alpha  92.109157
_cell_angle_beta   100.60422
_cell_angle_gamma 115.32653
loop_
_atom_site_label
_atom_site_type_symbol
_atom_site_fract_x
_atom_site_fract_y
_atom_site_fract_z
_atom_type_partial_charge
H0 H 0.33132 0.31738 0.27541 0.0
H1 H 0.43742 0.31637 0.34727 0.0
H2 H 0.44347 0.33945 0.23771 0.0
H3 H 0.47713 0.29045 0.32997 0.0
C4 C 0.4965 0.30651 0.31155 0.0
O5 O 0.48487 0.33264 0.30015 0.0
H6 H 0.52892 0.32016 0.3283 0.0
C7 C 0.36276 0.3196 0.28038 0.0
C8 C 0.38487 0.32858 0.25264 0.0
C9 C 0.38071 0.314 0.31431 0.0
C10 C 0.42259 0.32003 0.32111 0.0
C11 C 0.44494 0.32827 0.29338 0.0
C12 C 0.42603 0.33254 0.25898 0.0
H13 H 0.29942 0.88911 0.73545 0.0
H14 H 0.28847 0.84153 0.62859 0.0
H15 H 0.37633 0.83723 0.71891 0.0
H16 H 0.40065 0.86084 0.65029 0.0
C17 C 0.37822 0.83431 0.63462 0.0
O18 O 0.34407 0.81795 0.64983 0.0
H19 H 0.36763 0.83886 0.60647 0.0
C20 C 0.30894 0.8744 0.71784 0.0
C21 C 0.34066 0.86462 0.73219 0.0
C22 C 0.29037 0.86667 0.68055 0.0
C23 C 0.30241 0.84764 0.65752 0.0
C24 C 0.33257 0.83637 0.67185 0.0
C25 C 0.3517 0.84487 0.70891 0.0
H26 H 0.69471 0.29736 0.90339 0.0
H27 H 0.5908 0.26704 0.81193 0.0
H28 H 0.69492 0.37124 0.82676 0.0
H29 H 0.60254 0.35964 0.81032 0.0
C30 C 0.59676 0.34429 0.7834 0.0
O31 O 0.62309 0.3281 0.78451 0.0
H32 H 0.5639 0.32329 0.77757 0.0
C33 C 0.67951 0.30387 0.87909 0.0
C34 C 0.69927 0.33763 0.86805 0.0
C35 C 0.64064 0.27813 0.8592 0.0
C36 C 0.62087 0.2866 0.82765 0.0
C37 C 0.64074 0.32023 0.81583 0.0
C38 C 0.67992 0.34547 0.83599 0.0
H39 H 0.88977 0.7024 0.40844 0.0
H40 H 0.87509 0.61196 0.33859 0.0
H41 H 0.97798 0.71532 0.34163 0.0
H42 H 0.92815 0.66667 0.26624 0.0
C43 C 0.92721 0.64139 0.27543 0.0
O44 O 0.94271 0.64712 0.31291 0.0
H45 H 0.89393 0.62119 0.26913 0.0
C46 C 0.90008 0.69107 0.38819 0.0
C47 C 0.93636 0.71321 0.37698 0.0
C48 C 0.87708 0.65479 0.37429 0.0
C49 C 0.89192 0.64005 0.34912 0.0
C50 C 0.92814 0.6618 0.33679 0.0
C51 C 0.94996 0.69858 0.35058 0.0
H52 H 0.72454 0.76227 0.80656 0.0
H53 H 0.63053 0.67393 0.84314 0.0
H54 H 0.72241 0.65875 0.79673 0.0
H55 H 0.64089 0.59636 0.86726 0.0
C56 C 0.66796 0.62104 0.86392 0.0
O57 O 0.65953 0.62874 0.82884 0.0
H58 H 0.67061 0.6423 0.88436 0.0
C59 C 0.70996 0.73422 0.80992 0.0
C60 C 0.72688 0.71202 0.79915 0.0
C61 C 0.67511 0.72078 0.82563 0.0
C62 C 0.65714 0.68467 0.83051 0.0
C63 C 0.6747 0.66256 0.8208 0.0
C64 C 0.70908 0.67601 0.80442 0.0
H65 H 0.8259 0.14051 0.35244 0.0
H66 H 0.75191 0.1971 0.3615 0.0
H67 H 0.82296 0.18211 0.45747 0.0
H68 H 0.74201 0.18653 0.46998 0.0
C69 C 0.73635 0.19436 0.44237 0.0
O70 O 0.77373 0.21048 0.43167 0.0
H71 H 0.71398 0.1697 0.42353 0.0
C72 C 0.81478 0.15494 0.36868 0.0
C73 C 0.82731 0.1593 0.4068 0.0
C74 C 0.7872 0.16812 0.35162 0.0
C75 C 0.77384 0.18717 0.37343 0.0
C76 C 0.78704 0.19229 0.41129 0.0
C77 C 0.81336 0.17819 0.42801 0.0
H78 H 0.43244 0.73688 0.16941 0.0
H79 H 0.44267 0.66326 0.24265 0.0
H80 H 0.53831 0.77153 0.26019 0.0
H81 H 0.47452 0.70672 0.31749 0.0
C82 C 0.50709 0.71068 0.31858 0.0
O83 O 0.514 0.70846 0.28384 0.0
H84 H 0.52851 0.73789 0.33297 0.0
C85 C 0.44933 0.73149 0.19343 0.0
C86 C 0.4871 0.75895 0.21354 0.0
C87 C 0.43287 0.69703 0.20365 0.0
C88 C 0.45475 0.68978 0.23453 0.0
C89 C 0.49277 0.7165 0.25479 0.0
C90 C 0.50901 0.75103 0.24427 0.0
H91 H 0.13457 0.31265 0.78221 0.0
H92 H 0.22828 0.42007 0.78065 0.0
H93 H 0.21443 0.33483 0.70538 0.0
H94 H 0.299 0.38506 0.74658 0.0
C95 C 0.29668 0.4095 0.73809 0.0
O96 O 0.25528 0.40271 0.72656 0.0
H97 H 0.31127 0.43013 0.76241 0.0
C98 C 0.15997 0.33139 0.77142 0.0
C99 C 0.17213 0.31901 0.74207 0.0
C100 C 0.17924 0.3683 0.78535 0.0
C101 C 0.21209 0.39194 0.77026 0.0
C102 C 0.22455 0.37972 0.7416 0.0
C103 C 0.20439 0.34367 0.72762 0.0
Pr104 Pr 0.02949 1.00193 0.58185 0.0
Pr105 Pr 0.08303 0.02924 0.54045 0.0
C106 C 0.96458 0.97 0.61342 0.0
C107 C 0.9464 0.93825 0.63123 0.0
C108 C 0.93626 0.94211 0.66467 0.0
C109 C 0.92068 0.91286 0.68336 0.0
C110 C 0.91482 0.87921 0.66875 0.0
C111 C 0.92479 0.87527 0.63507 0.0
C112 C 0.94084 0.90474 0.61648 0.0
C113 C 0.08412 0.07291 0.61276 0.0
C114 C 0.10872 0.98716 0.60346 0.0
C115 C 0.14916 0.06228 0.51069 0.0
C116 C 0.1692 0.09617 0.49632 0.0
C117 C 0.16128 0.09691 0.45858 0.0
C118 C 0.18054 0.12858 0.44436 0.0
C119 C 0.20834 0.16005 0.46761 0.0
C120 C 0.21604 0.15948 0.50541 0.0
C121 C 0.19659 0.12773 0.51971 0.0
C122 C 0.0284 0.9584 0.5092 0.0
C123 C 1.00421 0.04383 0.51756 0.0
O124 O 0.96134 0.96539 0.57828 0.0
O125 O 1.00102 0.99422 0.63105 0.0
O126 O 0.06677 0.06307 0.57931 0.0
O127 O 0.07707 0.04552 0.63021 0.0
O128 O 0.12392 0.01586 0.58754 0.0
O129 O 0.0684 0.97127 0.60152 0.0
O130 O 0.15197 0.06367 0.54584 0.0
O131 O 0.11243 0.03957 0.49182 0.0
O132 O 0.04553 0.96808 0.54271 0.0
O133 O 0.0362 0.98586 0.4918 0.0
O134 O 0.98874 0.01596 0.53473 0.0
O135 O 0.04451 0.05951 0.5196 0.0
H136 H 0.94061 0.96787 0.67643 0.0
H137 H 0.91252 0.91645 0.70898 0.0
H138 H 0.92056 0.84955 0.62336 0.0
H139 H 0.94907 0.90138 0.59084 0.0
H140 H 0.14061 0.07289 0.43994 0.0
H141 H 0.17477 0.12809 0.41504 0.0
H142 H 0.23738 0.18345 0.52383 0.0
H143 H 0.20336 0.12791 0.54897 0.0
Pr144 Pr 0.53059 0.02314 0.05522 0.0
Pr145 Pr 0.60527 0.02271 0.03219 0.0
C146 C 0.47066 0.01423 0.09096 0.0
C147 C 0.46137 0.04095 0.10846 0.0
C148 C 0.45685 0.06778 0.08928 0.0
C149 C 0.45794 0.09765 0.10798 0.0
C150 C 0.46407 0.10123 0.14602 0.0
C151 C 0.46612 0.0735 0.16489 0.0
C152 C 0.4645 0.04344 0.14617 0.0
C153 C 0.55657 0.07946 1.01286 0.0
C154 C 0.62508 0.07968 0.09958 0.0
C155 C 0.66295 0.01955 0.9991 0.0
C156 C 0.66189 0.98786 0.98091 0.0
C157 C 0.63034 0.95444 0.98387 0.0
C158 C 0.62688 0.92375 0.96509 0.0
C159 C 0.65495 0.92612 0.94309 0.0
C160 C 0.68667 0.95967 0.94029 0.0
C161 C 0.69011 0.9905 0.95918 0.0
C162 C 0.57758 0.97699 0.08418 0.0
C163 C 0.51091 0.9699 0.98179 0.0
O164 O 0.50619 0.01447 0.10659 0.0
O165 O 0.46376 0.01078 0.05531 0.0
O166 O 0.57398 0.05925 1.01972 0.0
O167 O 0.52526 0.07114 0.02833 0.0
O168 O 0.6382 0.07599 0.07022 0.0
O169 O 0.5869 0.05877 0.10281 0.0
O170 O 0.63402 0.02824 0.98315 0.0
O171 O 0.66651 0.02029 0.0343 0.0
O172 O 0.55424 0.98009 0.05652 0.0
O173 O 0.6165 0.99804 0.08565 0.0
O174 O 0.4946 0.97955 1.00599 0.0
O175 O 0.55158 0.98242 0.9851 0.0
H176 H 0.45482 0.06675 0.06017 0.0
H177 H 0.45644 0.11884 0.09298 0.0
H178 H 0.47039 0.07567 0.19426 0.0
H179 H 0.46829 0.02317 0.16143 0.0
H180 H 0.60806 0.95217 1.00042 0.0
H181 H 0.60188 0.89826 0.96732 0.0
H182 H 0.70891 0.962 0.92373 0.0
H183 H 0.7144 0.01627 0.95662 0.0
Pr184 Pr 0.58789 0.5664 0.56128 0.0
Pr185 Pr 0.55491 0.48196 0.51924 0.0
C186 C 0.59055 0.631 0.57229 0.0
C187 C 0.56975 0.64769 0.5906 0.0
C188 C 0.58937 0.68463 0.60079 0.0
C189 C 0.56721 0.70172 0.61238 0.0
C190 C 0.52501 0.68203 0.61365 0.0
C191 C 0.5061 0.64473 0.60519 0.0
C192 C 0.52837 0.62765 0.5939 0.0
C193 C 0.60725 0.52154 0.60703 0.0
C194 C 0.49808 0.49855 0.57219 0.0
C195 C 0.54959 0.41653 0.50789 0.0
C196 C 0.56728 0.39797 0.48805 0.0
C197 C 0.54471 0.36118 0.47746 0.0
C198 C 0.56384 0.34203 0.46425 0.0
C199 C 0.60589 0.35953 0.46176 0.0
C200 C 0.62768 0.39677 0.4705 0.0
C201 C 0.60843 0.41591 0.48341 0.0
C202 C 0.53561 0.5271 0.47382 0.0
C203 C 0.64467 0.54966 0.50816 0.0
O204 O 0.56623 0.60721 0.54422 0.0
O205 O 0.61723 0.62208 0.59271 0.0
O206 O 0.58911 0.51503 0.57397 0.0
O207 O 0.6191 0.55513 0.61814 0.0
O208 O 0.50458 0.47445 0.5537 0.0
O209 O 0.52227 0.53354 0.57558 0.0
O210 O 0.5763 0.44068 0.53489 0.0
O211 O 0.52244 0.42581 0.48881 0.0
O212 O 0.55352 0.53316 0.50686 0.0
O213 O 0.52395 0.49365 0.46227 0.0
O214 O 0.63799 0.57362 0.52676 0.0
O215 O 0.62077 0.51457 0.50474 0.0
H216 H 0.62119 0.70043 0.59817 0.0
H217 H 0.58244 0.73053 0.61842 0.0
H218 H 0.47376 0.6289 0.60631 0.0
H219 H 0.51269 0.599 0.58615 0.0
H220 H 0.51299 0.34702 0.48103 0.0
H221 H 0.54646 0.3133 0.45802 0.0
H222 H 0.65997 0.4109 0.46846 0.0
H223 H 0.62629 0.44445 0.49133 0.0
Pr224 Pr 0.06353 0.53303 1.01518 0.0
Pr225 Pr 0.06729 0.47942 0.06414 0.0
C226 C 0.04081 0.57524 0.97315 0.0
C227 C 1.00289 0.58054 0.9616 0.0
C228 C 1.00542 0.61494 0.96554 0.0
C229 C 0.96978 0.62034 0.95439 0.0
C230 C 0.93089 0.5914 0.93877 0.0
C231 C 0.92859 0.55695 0.93493 0.0
C232 C 0.96407 0.55155 0.94641 0.0
C233 C 0.14463 0.55149 0.05445 0.0
C234 C 0.03593 0.53465 0.09599 0.0
C235 C 0.08871 0.43601 0.10514 0.0
C236 C 0.12007 0.42227 0.10823 0.0
C237 C 0.11483 0.39261 0.12649 0.0
C238 C 0.14561 0.38053 0.13157 0.0
C239 C 0.18226 0.39798 0.11848 0.0
C240 C 0.18683 0.42722 0.0993 0.0
C241 C 0.15592 0.43922 0.09413 0.0
C242 C 0.98658 0.46211 0.02452 0.0
C243 C 0.09215 0.47563 0.98288 0.0
O244 O 0.03908 0.54504 0.9604 0.0
O245 O 0.06035 0.58553 1.00734 0.0
O246 O 0.11224 0.5387 0.06723 0.0
O247 O 0.13599 0.55721 1.02102 0.0
O248 O 0.05334 0.51345 0.10585 0.0
O249 O 0.0312 0.54186 0.06191 0.0
O250 O 0.10316 0.47023 0.11507 0.0
O251 O 0.05908 0.42417 0.07553 0.0
O252 O 1.01909 0.47401 1.01195 0.0
O253 O 0.99469 0.45705 0.05832 0.0
O254 O 0.07543 0.49741 0.97353 0.0
O255 O 0.09725 0.46833 1.01682 0.0
H256 H 0.03501 0.63766 0.97733 0.0
H257 H 0.97271 0.64716 0.95838 0.0
H258 H 0.89949 0.53403 0.92251 0.0
H259 H 0.96106 0.52466 0.94307 0.0
H260 H 0.08733 0.37924 0.13752 0.0
H261 H 0.14132 0.35827 0.14691 0.0
H262 H 0.21444 0.441 0.08855 0.0
H263 H 0.16032 0.46208 0.07971 0.0
H264 H 0.40409 0.32556 0.3897 0.0
H265 H 0.17835 0.18766 0.41123 0.0
H266 H 0.29751 0.26763 0.30042 0.0
H267 H 0.29163 0.2052 0.48767 0.0
H268 H 0.21999 0.2332 0.37739 0.0
H269 H 0.36096 0.29531 0.43216 0.0
C270 C 0.37174 0.30687 0.37891 0.0
C271 C 0.35462 0.29925 0.3412 0.0
C272 C 0.23557 0.22748 0.40197 0.0
C273 C 0.30512 0.26587 0.38975 0.0
C274 C 0.21193 0.20156 0.42119 0.0
C275 C 0.23176 0.19233 0.45181 0.0
C276 C 0.27923 0.24424 0.41357 0.0
C277 C 0.27521 0.21159 0.46414 0.0
C278 C 0.34715 0.28995 0.40324 0.0
C279 C 0.31215 0.27524 0.3291 0.0
N280 N 0.29771 0.23641 0.44459 0.0
N281 N 0.28897 0.25943 0.35329 0.0
H282 H 0.36108 0.92805 0.77259 0.0
H283 H 0.52316 0.92489 0.93562 0.0
H284 H 0.37453 0.83039 0.77959 0.0
H285 H 0.43485 0.96489 0.95152 0.0
H286 H 0.47825 0.89439 0.87543 0.0
H287 H 0.39856 0.94819 0.83569 0.0
C288 C 0.37122 0.91048 0.78739 0.0
C289 C 0.36376 0.87703 0.77071 0.0
C290 C 0.46868 0.90945 0.89257 0.0
C291 C 0.40839 0.90096 0.84257 0.0
C292 C 0.49416 0.92683 0.92662 0.0
C293 C 0.48261 0.94743 0.94825 0.0
C294 C 0.43251 0.91386 0.8801 0.0
C295 C 0.44478 0.94916 0.93566 0.0
C296 C 0.39292 0.92223 0.82335 0.0
C297 C 0.3797 0.85643 0.79114 0.0
N298 N 0.42141 0.93315 0.90202 0.0
N299 N 0.40168 0.86888 0.82607 0.0
H300 H 0.55504 0.3298 0.71139 0.0
H301 H 0.65959 0.53403 0.67351 0.0
H302 H 0.65242 0.41516 0.7898 0.0
H303 H 0.56049 0.44893 0.59603 0.0
H304 H 0.66118 0.49036 0.71472 0.0
H305 H 0.56099 0.37198 0.66662 0.0
C306 C 0.57785 0.35744 0.71905 0.0
C307 C 0.60273 0.36921 0.75451 0.0
C308 C 0.63951 0.4811 0.68845 0.0
C309 C 0.60981 0.41773 0.70351 0.0
C310 C 0.63862 0.50604 0.66492 0.0
C311 C 0.61055 0.49498 0.63088 0.0
C312 C 0.61178 0.44475 0.67808 0.0
C313 C 0.58368 0.45846 0.62135 0.0
C314 C 0.58122 0.38154 0.69355 0.0
C315 C 0.63223 0.40517 0.7629 0.0
N316 N 0.58486 0.4347 0.64482 0.0
N317 N 0.63469 0.42819 0.73775 0.0
H318 H 0.94492 0.58288 0.28273 0.0
H319 H 1.01354 0.58971 0.09059 0.0
H320 H 0.96023 0.66764 0.21666 0.0
H321 H 0.02546 0.51691 0.16486 0.0
H322 H 0.99143 0.61666 0.13606 0.0
H323 H 0.97287 0.55712 0.24067 0.0
C324 C 0.95498 0.5965 0.25988 0.0
C325 C 0.95084 0.62794 0.25377 0.0
C326 C 0.99887 0.5948 0.14255 0.0
C327 C 0.9816 0.59788 0.20458 0.0
C328 C 1.01139 0.57922 0.11639 0.0
C329 C 0.02149 0.55083 0.12361 0.0
C330 C 0.99574 0.58186 0.17641 0.0
C331 C 1.01816 0.53874 0.1579 0.0
C332 C 0.97065 0.58163 0.23567 0.0
C333 C 0.96335 0.64376 0.22297 0.0
N334 N 1.00543 0.55411 0.18281 0.0
N335 N 0.9778 0.62857 0.19966 0.0
H336 H 0.42782 0.26397 0.25716 0.0
H337 H 0.52847 0.141 0.20255 0.0
H338 H 0.55788 0.28999 0.29724 0.0
H339 H 0.41693 0.13783 0.13507 0.0
H340 H 0.53919 0.19543 0.23818 0.0
H341 H 0.42239 0.21791 0.21196 0.0
C342 C 0.45556 0.26079 0.25573 0.0
C343 C 0.49372 0.28157 0.28029 0.0
C344 C 0.51253 0.18304 0.21542 0.0
C345 C 0.48714 0.22775 0.22997 0.0
C346 C 0.50623 0.15187 0.19536 0.0
C347 C 0.4714 0.13483 0.1664 0.0
C348 C 0.48346 0.19692 0.20671 0.0
C349 C 0.44397 0.15023 0.15748 0.0
C350 C 0.45233 0.23425 0.23013 0.0
C351 C 0.52812 0.27502 0.27833 0.0
N352 N 0.45027 0.18029 0.17794 0.0
N353 N 0.52391 0.24843 0.25384 0.0
H354 H 0.29335 0.90681 0.62481 0.0
H355 H 0.09058 0.93081 0.64305 0.0
H356 H 0.22097 0.85966 0.70408 0.0
H357 H 0.18741 1.00373 0.59429 0.0
H358 H 0.13318 0.89917 0.66011 0.0
H359 H 0.24865 0.93636 0.60612 0.0
C360 C 0.26756 0.90225 0.63779 0.0
C361 C 0.26062 0.88084 0.66592 0.0
C362 C 0.14512 0.92225 0.64588 0.0
C363 C 0.20991 0.91463 0.64514 0.0
C364 C 0.12093 0.94036 0.63627 0.0
C365 C 0.13558 0.97005 0.61746 0.0
C366 C 0.18386 0.9336 0.63607 0.0
C367 C 0.17502 0.98114 0.60907 0.0
C368 C 0.24241 0.91936 0.62744 0.0
C369 C 0.22728 0.87612 0.68233 0.0
N370 N 0.19767 0.96275 0.61821 0.0
N371 N 0.2031 0.8929 0.67169 0.0
H372 H 0.77036 0.37882 0.84454 0.0
H373 H 0.91294 0.43427 0.04676 0.0
H374 H 0.7223 0.3554 0.94187 0.0
H375 H 0.96323 0.46136 0.95093 0.0
H376 H 0.84239 0.41009 1.00863 0.0
H377 H 0.84054 0.41468 0.88265 0.0
C378 C 0.77447 0.38174 0.87389 0.0
C379 C 0.74061 0.36373 0.89009 0.0
C380 C 0.86879 0.4215 0.99587 0.0
C381 C 0.82066 0.4042 0.93381 0.0
C382 C 0.90908 0.43525 1.01767 0.0
C383 C 0.94391 0.44946 1.00192 0.0
C384 C 0.86318 0.42177 0.95794 0.0
C385 C 0.93715 0.45036 0.96411 0.0
C386 C 0.81454 0.40199 0.89564 0.0
C387 C 0.7477 0.36827 0.92826 0.0
N388 N 0.89755 0.43643 0.94335 0.0
N389 N 0.7869 0.38773 0.94876 0.0
H390 H 0.85007 0.58788 0.39767 0.0
H391 H 0.68572 0.61754 0.49226 0.0
H392 H 0.81532 0.67369 0.38138 0.0
H393 H 0.68158 0.51315 0.47702 0.0
H394 H 0.7388 0.63957 0.45638 0.0
H395 H 0.79219 0.55984 0.42906 0.0
C396 C 0.82993 0.6005 0.40009 0.0
C397 C 0.8381 0.63353 0.38733 0.0
C398 C 0.72638 0.61182 0.46083 0.0
C399 C 0.77266 0.60212 0.42391 0.0
C400 C 0.69619 0.59921 0.48169 0.0
C401 C 0.67904 0.56335 0.48797 0.0
C402 C 0.7403 0.58869 0.44623 0.0
C403 C 0.69384 0.54099 0.47297 0.0
C404 C 0.79713 0.58464 0.41825 0.0
C405 C 0.81095 0.64868 0.39144 0.0
N406 N 0.72378 0.55405 0.45298 0.0
N407 N 0.78005 0.6332 0.40969 0.0
H408 H 0.31427 0.28168 0.2052 0.0
H409 H 0.26661 0.44083 0.13947 0.0
H410 H 0.40617 0.39164 0.22495 0.0
H411 H 0.17601 0.33012 0.11738 0.0
H412 H 0.32144 0.42249 0.16078 0.0
H413 H 0.26751 0.29758 0.16227 0.0
C414 C 0.32515 0.30898 0.19928 0.0
C415 C 0.36404 0.33544 0.21837 0.0
C416 C 0.28967 0.40216 0.15078 0.0
C417 C 0.31028 0.35417 0.17052 0.0
C418 C 0.25832 0.41261 0.13842 0.0
C419 C 0.21649 0.38699 0.12701 0.0
C420 C 0.27919 0.36581 0.1519 0.0
C421 C 0.20767 0.35083 0.12667 0.0
C422 C 0.29832 0.31816 0.17513 0.0
C423 C 0.37655 0.3705 0.21041 0.0
N424 N 0.23864 0.34136 0.13932 0.0
N425 N 0.34938 0.37902 0.18757 0.0
H426 H 0.67462 0.23164 0.87035 0.0
H427 H 0.51759 0.12119 0.99316 0.0
H428 H 0.56611 0.24578 0.88057 0.0
H429 H 0.61931 0.10005 0.97474 0.0
H430 H 0.53339 0.16525 0.9504 0.0
H431 H 0.65231 0.18082 0.90493 0.0
C432 C 0.64554 0.22347 0.87927 0.0
C433 C 0.62213 0.24288 0.8726 0.0
C434 C 0.55222 0.15095 0.95554 0.0
C435 C 0.5969 0.18526 0.91316 0.0
C436 C 0.54335 0.12586 0.98013 0.0
C437 C 0.56725 0.10694 0.98765 0.0
C438 C 0.58545 0.15745 0.9383 0.0
C439 C 0.60016 0.11408 0.96985 0.0
C440 C 0.63296 0.19461 0.89923 0.0
C441 C 0.58487 0.23135 0.88491 0.0
N442 N 0.60836 0.13883 0.94612 0.0
N443 N 0.57368 0.20358 0.905 0.0
H444 H 0.95153 0.77486 0.34532 0.0
H445 H 0.02505 0.89816 0.53886 0.0
H446 H 0.96958 0.73746 0.4491 0.0
H447 H 1.00257 0.93564 0.43573 0.0
H448 H 1.00771 0.8399 0.50622 0.0
H449 H 0.97496 0.83506 0.37726 0.0
C450 C 0.96153 0.77955 0.37474 0.0
C451 C 0.95903 0.75117 0.39454 0.0
C452 C 1.00648 0.86082 0.49067 0.0
C453 C 0.98478 0.81975 0.43147 0.0
C454 C 1.01619 0.8941 0.50937 0.0
C455 C 1.01515 0.92194 0.49011 0.0
C456 C 0.99565 0.85512 0.45228 0.0
C457 C 1.0037 0.91502 0.4518 0.0
C458 C 0.97438 0.81381 0.39305 0.0
C459 C 0.97135 0.75862 0.43275 0.0
N460 N 0.99449 0.88248 0.43424 0.0
N461 N 0.9834 0.79194 0.44987 0.0
H462 H 0.44557 0.83686 0.6841 0.0
H463 H 0.44704 0.66902 0.57642 0.0
H464 H 0.35673 0.7766 0.58518 0.0
H465 H 0.54647 0.7379 0.66605 0.0
H466 H 0.40878 0.7036 0.58434 0.0
H467 H 0.47875 0.79671 0.68263 0.0
C468 C 0.4334 0.8153 0.66192 0.0
C469 C 0.3994 0.81053 0.634 0.0
C470 C 0.43881 0.71101 0.60248 0.0
C471 C 0.43622 0.76425 0.63254 0.0
C472 C 0.4605 0.6911 0.59818 0.0
C473 C 0.49999 0.70069 0.62063 0.0
C474 C 0.45674 0.74075 0.62942 0.0
C475 C 0.51629 0.7299 0.64795 0.0
C476 C 0.4521 0.79235 0.66117 0.0
C477 C 0.38367 0.78158 0.60657 0.0
N478 N 0.49465 0.74903 0.6515 0.0
N479 N 0.40238 0.75962 0.60637 0.0
H480 H 0.73095 0.69381 0.73053 0.0
H481 H 0.9362 0.87497 0.74103 0.0
H482 H 0.80306 0.76628 0.82885 0.0
H483 H 0.85134 0.81358 0.64062 0.0
H484 H 0.89761 0.82729 0.77441 0.0
H485 H 0.78483 0.72919 0.69831 0.0
C486 C 0.75887 0.71652 0.74549 0.0
C487 C 0.76291 0.72736 0.78215 0.0
C488 C 0.8878 0.82398 0.74502 0.0
C489 C 0.82386 0.76802 0.7458 0.0
C490 C 0.90972 0.85117 0.72603 0.0
C491 C 0.89642 0.84827 0.68818 0.0
C492 C 0.85226 0.79382 0.72599 0.0
C493 C 0.86251 0.81674 0.66984 0.0
C494 C 0.78934 0.73684 0.72714 0.0
C495 C 0.79907 0.75726 0.80046 0.0
N496 N 0.84113 0.79087 0.68902 0.0
N497 N 0.82803 0.77684 0.78196 0.0
H498 H 0.7706 0.10825 0.30609 0.0
H499 H 0.61534 0.12262 0.14936 0.0
H500 H 0.76428 0.20927 0.30519 0.0
H501 H 0.70272 0.08551 0.12396 0.0
H502 H 0.66239 0.15072 0.20922 0.0
H503 H 0.73882 0.09411 0.24128 0.0
C504 C 0.76342 0.12786 0.2924 0.0
C505 C 0.77039 0.16018 0.31153 0.0
C506 C 0.67151 0.13709 0.19008 0.0
C507 C 0.7323 0.1431 0.23759 0.0
C508 C 0.64486 0.12115 0.15619 0.0
C509 C 0.65563 0.10217 0.132 0.0
C510 C 0.70801 0.13259 0.19996 0.0
C511 C 0.69381 0.10043 0.14191 0.0
C512 C 0.74501 0.11954 0.25539 0.0
C513 C 0.75876 0.18372 0.29203 0.0
N514 N 0.71832 0.11476 0.17566 0.0
N515 N 0.73954 0.17442 0.2562 0.0
H516 H 0.46341 0.63766 0.30311 0.0
H517 H 0.58467 0.59909 0.48474 0.0
H518 H 0.56496 0.71986 0.38166 0.0
H519 H 0.4806 0.51621 0.40895 0.0
H520 H 0.57867 0.64345 0.44665 0.0
H521 H 0.47065 0.59244 0.33983 0.0
C522 C 0.48748 0.64609 0.32792 0.0
C523 C 0.51368 0.6825 0.3393 0.0
C524 C 0.55687 0.61563 0.43837 0.0
C525 C 0.52192 0.63106 0.38177 0.0
C526 C 0.55987 0.59034 0.46051 0.0
C527 C 0.53211 0.55409 0.45074 0.0
C528 C 0.52615 0.6046 0.40579 0.0
C529 C 0.50224 0.544 0.41776 0.0
C530 C 0.49152 0.62034 0.34897 0.0
C531 C 0.54419 0.69208 0.37182 0.0
N532 N 0.49993 0.5691 0.39654 0.0
N533 N 0.54736 0.66659 0.39191 0.0
H534 H 0.17295 0.43157 0.7909 0.0
H535 H 0.10934 0.41725 0.98519 0.0
H536 H 0.15215 0.33908 0.84659 0.0
H537 H 0.10473 0.49572 0.9157 0.0
H538 H 0.1292 0.38997 0.93765 0.0
H539 H 0.15289 0.45696 0.83888 0.0
C540 C 0.16441 0.41651 0.81329 0.0
C541 C 0.16483 0.38302 0.81446 0.0
C542 C 0.12386 0.41316 0.93283 0.0
C543 C 0.14086 0.41231 0.87011 0.0
C544 C 0.11266 0.4289 0.96007 0.0
C545 C 0.10523 0.45897 0.95464 0.0
C546 C 0.12836 0.4278 0.89993 0.0
C547 C 0.10988 0.47257 0.92128 0.0
C548 C 0.15256 0.43106 0.8407 0.0
C549 C 0.15226 0.36481 0.84414 0.0
N550 N 0.12127 0.45709 0.89549 0.0
N551 N 0.14108 0.37972 0.87075 0.0
H552 H 0.65648 0.72551 0.8919 0.0
H553 H 0.65853 0.91502 0.87229 0.0
H554 H 0.66215 0.77304 0.79202 0.0
H555 H 0.64238 0.86323 0.96917 0.0
H556 H 0.65459 0.86118 0.84076 0.0
H557 H 0.64412 0.77297 0.9188 0.0
C558 C 0.65412 0.7455 0.87537 0.0
C559 C 0.66056 0.74557 0.83982 0.0
C560 C 0.65158 0.86148 0.86883 0.0
C561 C 0.64745 0.80028 0.87055 0.0
C562 C 0.65418 0.89225 0.88685 0.0
C563 C 0.65117 0.89351 0.92336 0.0
C564 C 0.64622 0.83196 0.88762 0.0
C565 C 0.64472 0.8632 0.94092 0.0
C566 C 0.64743 0.77275 0.89081 0.0
C567 C 0.65789 0.77238 0.81974 0.0
N568 N 0.64278 0.83368 0.92293 0.0
N569 N 0.65198 0.79893 0.83554 0.0
H570 H 0.81577 0.11924 0.46309 0.0
H571 H 0.02325 0.0945 0.4715 0.0
H572 H 0.89835 0.16184 0.38983 0.0
H573 H 0.92448 0.02911 0.5229 0.0
H574 H 0.98027 0.12299 0.44489 0.0
H575 H 0.85825 0.09007 0.48976 0.0
C576 C 0.84306 0.12265 0.45287 0.0
C577 C 0.85369 0.14292 0.42427 0.0
C578 C 0.9679 0.10226 0.46182 0.0
C579 C 0.90204 0.10958 0.45432 0.0
C580 C 0.9924 0.08599 0.477 0.0
C581 C 0.97734 0.05934 0.49932 0.0
C582 C 0.92824 0.09212 0.46936 0.0
C583 C 0.93718 0.04939 0.50562 0.0
C584 C 0.86703 0.1058 0.46784 0.0
C585 C 0.88897 0.14619 0.41166 0.0
N586 N 0.91407 0.06597 0.49089 0.0
N587 N 0.91197 0.12975 0.42684 0.0
H588 H 0.40931 0.68014 0.12973 0.0
H589 H 0.16991 0.55232 0.12802 0.0
H590 H 0.36463 0.65074 0.22772 0.0
H591 H 0.21738 0.58542 0.03195 0.0
H592 H 0.24162 0.58256 0.16495 0.0
H593 H 0.34023 0.63986 0.0935 0.0
C594 C 0.38491 0.66498 0.14361 0.0
C595 C 0.39254 0.66913 0.18178 0.0
C596 C 0.23634 0.58297 0.13576 0.0
C597 C 0.31304 0.62289 0.1404 0.0
C598 C 0.19545 0.56573 0.1147 0.0
C599 C 0.1877 0.56679 0.07694 0.0
C600 C 0.26961 0.60133 0.11889 0.0
C601 C 0.22189 0.58426 0.06101 0.0
C602 C 0.34545 0.64192 0.12291 0.0
C603 C 0.36002 0.64832 0.19834 0.0
N604 N 0.26123 0.60102 0.08206 0.0
N605 N 0.3215 0.62638 0.17755 0.0
H606 H 0.30538 0.36914 0.68363 0.0
H607 H 0.47467 0.53824 0.61487 0.0
H608 H 0.34135 0.47825 0.7245 0.0
H609 H 0.44285 0.4292 0.57607 0.0
H610 H 0.42171 0.51655 0.65117 0.0
H611 H 0.35035 0.39024 0.63975 0.0
C612 C 0.32254 0.39755 0.68311 0.0
C613 C 0.32034 0.42203 0.70817 0.0
C614 C 0.42604 0.49733 0.6345 0.0
C615 C 0.37186 0.44647 0.6581 0.0
C616 C 0.45634 0.50972 0.61361 0.0
C617 C 0.46346 0.48562 0.59214 0.0
C618 C 0.40246 0.46046 0.63419 0.0
C619 C 0.43859 0.44892 0.59202 0.0
C620 C 0.34828 0.40961 0.65816 0.0
C621 C 0.34268 0.45853 0.70601 0.0
N622 N 0.40944 0.43751 0.61279 0.0
N623 N 0.36775 0.46963 0.68174 0.0
H624 H 0.67574 0.55885 0.8672 0.0
H625 H 0.92459 0.64807 0.90754 0.0
H626 H 0.74941 0.67281 0.87802 0.0
H627 H 0.84992 0.54737 0.94186 0.0
H628 H 0.86121 0.65581 0.88719 0.0
H629 H 0.74014 0.55191 0.88377 0.0
C630 C 0.70557 0.58235 0.87281 0.0
C631 C 0.70744 0.61641 0.87152 0.0
C632 C 0.85891 0.63206 0.89918 0.0
C633 C 0.78102 0.60876 0.89011 0.0
C634 C 0.89508 0.62767 0.91105 0.0
C635 C 0.89283 0.59693 0.92647 0.0
C636 C 0.82015 0.60533 0.90226 0.0
C637 C 0.85336 0.57115 0.92952 0.0
C638 C 0.74222 0.57843 0.88234 0.0
C639 C 0.74681 0.64608 0.87873 0.0
N640 N 0.81867 0.57588 0.9174 0.0
N641 N 0.78218 0.6416 0.88774 0.0
H642 H 0.56814 0.80571 0.21141 0.0
H643 H 0.49765 0.92894 0.08594 0.0
H644 H 0.44221 0.79504 0.18712 0.0
H645 H 0.62677 0.95737 0.13368 0.0
H646 H 0.47671 0.87862 0.12159 0.0
H647 H 0.59086 0.86101 0.18319 0.0
C648 C 0.54535 0.81514 0.20063 0.0
C649 C 0.503 0.79515 0.20116 0.0
C650 C 0.50964 0.896 0.12446 0.0
C651 C 0.52869 0.85815 0.1681 0.0
C652 C 0.52157 0.92468 0.10403 0.0
C653 C 0.564 0.94736 0.10676 0.0
C654 C 0.54036 0.88963 0.14752 0.0
C655 C 0.59368 0.94057 0.13071 0.0
C656 C 0.5583 0.84662 0.18427 0.0
C657 C 0.47496 0.80885 0.18651 0.0
N658 N 0.58135 0.91222 0.1499 0.0
N659 N 0.48816 0.8391 0.17029 0.0
H660 H 0.16004 0.25811 0.77474 0.0
H661 H 0.08643 0.13257 0.58265 0.0
H662 H 0.13948 0.29323 0.67 0.0
H663 H 0.11043 0.09637 0.68623 0.0
H664 H 0.10335 0.19089 0.61468 0.0
H665 H 0.13773 0.1977 0.74378 0.0
C666 C 0.15003 0.25296 0.74533 0.0
C667 C 0.15173 0.28085 0.72498 0.0
C668 C 0.10503 0.17027 0.63049 0.0
C669 C 0.12686 0.21194 0.6892 0.0
C670 C 0.09555 0.13693 0.61212 0.0
C671 C 0.09715 0.10942 0.63167 0.0
C672 C 0.11623 0.17641 0.66886 0.0
C673 C 0.1089 0.11675 0.66995 0.0
C674 C 0.13772 0.21856 0.7276 0.0
C675 C 0.13893 0.27265 0.68682 0.0
N676 N 0.11792 0.14937 0.68722 0.0
N677 N 0.12734 0.23922 0.67029 0.0
H678 H 0.76481 0.25427 0.49045 0.0
H679 H 0.57885 0.30289 0.40879 0.0
H680 H 0.66886 0.1945 0.39507 0.0
H681 H 0.68259 0.36794 0.49724 0.0
H682 H 0.61266 0.26429 0.40114 0.0
H683 H 0.73651 0.29781 0.49157 0.0
C684 C 0.73753 0.25032 0.46994 0.0
C685 C 0.71838 0.22051 0.44326 0.0
C686 C 0.62824 0.28725 0.42193 0.0
C687 C 0.68606 0.27006 0.44393 0.0
C688 C 0.60893 0.30918 0.42634 0.0
C689 C 0.62795 0.33852 0.4537 0.0
C690 C 0.66661 0.29459 0.44532 0.0
C691 C 0.66706 0.34578 0.47554 0.0
C692 C 0.72154 0.27518 0.47039 0.0
C693 C 0.68383 0.21683 0.41659 0.0
N694 N 0.68492 0.32375 0.47108 0.0
N695 N 0.66848 0.24121 0.41778 0.0
loop_
_geom_bond_atom_site_label_1
_geom_bond_atom_site_label_2
_geom_bond_distance
_geom_bond_site_symmetry_2
_ccdc_geom_bond_type
H0 C7 0.929 . S
H1 C10 0.930 . S
H2 C12 0.929 . S
H3 C4 0.969 . S
C4 H3 0.969 . S
C4 O5 1.550 . S
C4 H6 0.973 . S
O5 C4 1.550 . S
O5 C11 1.412 . S
H6 C4 0.973 . S
C7 H0 0.929 . S
C7 C8 1.400 . S
C7 C9 1.364 . S
C8 C7 1.400 . S
C8 C12 1.377 . S
C9 C7 1.364 . S
C9 C10 1.374 . S
C10 H1 0.930 . S
C10 C9 1.374 . S
C10 C11 1.383 . S
C11 O5 1.412 . S
C11 C10 1.383 . S
C11 C12 1.394 . S
C12 H2 0.929 . S
C12 C8 1.377 . S
C12 C11 1.394 . S
H13 C20 0.929 . S
H14 C23 0.930 . S
H15 C25 0.929 . S
H16 C17 0.969 . S
C17 H16 0.969 . S
C17 O18 1.550 . S
C17 H19 0.973 . S
O18 C17 1.550 . S
O18 C24 1.412 . S
H19 C17 0.973 . S
C20 H13 0.929 . S
C20 C21 1.400 . S
C20 C22 1.364 . S
C21 C20 1.400 . S
C21 C25 1.377 . S
C22 C20 1.364 . S
C22 C23 1.374 . S
C23 H14 0.930 . S
C23 C22 1.374 . S
C23 C24 1.383 . S
C24 O18 1.412 . S
C24 C23 1.383 . S
C24 C25 1.394 . S
C25 H15 0.929 . S
C25 C21 1.377 . S
C25 C24 1.394 . S
H26 C33 0.929 . S
H27 C36 0.930 . S
H28 C38 0.929 . S
H29 C30 0.969 . S
C30 H29 0.969 . S
C30 O31 1.550 . S
C30 H32 0.973 . S
O31 C30 1.550 . S
O31 C37 1.412 . S
H32 C30 0.973 . S
C33 H26 0.929 . S
C33 C34 1.400 . S
C33 C35 1.364 . S
C34 C33 1.400 . S
C34 C38 1.377 . S
C35 C33 1.364 . S
C35 C36 1.374 . S
C36 H27 0.930 . S
C36 C35 1.374 . S
C36 C37 1.383 . S
C37 O31 1.412 . S
C37 C36 1.383 . S
C37 C38 1.394 . S
C38 H28 0.929 . S
C38 C34 1.377 . S
C38 C37 1.394 . S
H39 C46 0.929 . S
H40 C49 0.930 . S
H41 C51 0.929 . S
H42 C43 0.969 . S
C43 H42 0.969 . S
C43 O44 1.550 . S
C43 H45 0.973 . S
O44 C43 1.550 . S
O44 C50 1.412 . S
H45 C43 0.973 . S
C46 H39 0.929 . S
C46 C47 1.400 . S
C46 C48 1.364 . S
C47 C46 1.400 . S
C47 C51 1.377 . S
C48 C46 1.364 . S
C48 C49 1.374 . S
C49 H40 0.930 . S
C49 C48 1.374 . S
C49 C50 1.383 . S
C50 O44 1.412 . S
C50 C49 1.383 . S
C50 C51 1.394 . S
C51 H41 0.929 . S
C51 C47 1.377 . S
C51 C50 1.394 . S
H52 C59 0.929 . S
H53 C62 0.930 . S
H54 C64 0.929 . S
H55 C56 0.969 . S
C56 H55 0.969 . S
C56 O57 1.550 . S
C56 H58 0.973 . S
O57 C56 1.550 . S
O57 C63 1.412 . S
H58 C56 0.973 . S
C59 H52 0.929 . S
C59 C60 1.400 . S
C59 C61 1.364 . S
C60 C59 1.400 . S
C60 C64 1.377 . S
C61 C59 1.364 . S
C61 C62 1.374 . S
C62 H53 0.930 . S
C62 C61 1.374 . S
C62 C63 1.383 . S
C63 O57 1.412 . S
C63 C62 1.383 . S
C63 C64 1.394 . S
C64 H54 0.929 . S
C64 C60 1.377 . S
C64 C63 1.394 . S
H65 C72 0.929 . S
H66 C75 0.930 . S
H67 C77 0.929 . S
H68 C69 0.969 . S
C69 H68 0.969 . S
C69 O70 1.550 . S
C69 H71 0.973 . S
O70 C69 1.550 . S
O70 C76 1.412 . S
H71 C69 0.973 . S
C72 H65 0.929 . S
C72 C73 1.400 . S
C72 C74 1.364 . S
C73 C72 1.400 . S
C73 C77 1.377 . S
C74 C72 1.364 . S
C74 C75 1.374 . S
C75 H66 0.930 . S
C75 C74 1.374 . S
C75 C76 1.383 . S
C76 O70 1.412 . S
C76 C75 1.383 . S
C76 C77 1.394 . S
C77 H67 0.929 . S
C77 C73 1.377 . S
C77 C76 1.394 . S
H78 C85 0.929 . S
H79 C88 0.930 . S
H80 C90 0.929 . S
H81 C82 0.969 . S
C82 H81 0.969 . S
C82 O83 1.550 . S
C82 H84 0.973 . S
O83 C82 1.550 . S
O83 C89 1.412 . S
H84 C82 0.973 . S
C85 H78 0.929 . S
C85 C86 1.400 . S
C85 C87 1.364 . S
C86 C85 1.400 . S
C86 C90 1.377 . S
C87 C85 1.364 . S
C87 C88 1.374 . S
C88 H79 0.930 . S
C88 C87 1.374 . S
C88 C89 1.383 . S
C89 O83 1.412 . S
C89 C88 1.383 . S
C89 C90 1.394 . S
C90 H80 0.929 . S
C90 C86 1.377 . S
C90 C89 1.394 . S
H91 C98 0.929 . S
H92 C101 0.930 . S
H93 C103 0.929 . S
H94 C95 0.969 . S
C95 H94 0.969 . S
C95 O96 1.550 . S
C95 H97 0.973 . S
O96 C95 1.550 . S
O96 C102 1.412 . S
H97 C95 0.973 . S
C98 H91 0.929 . S
C98 C99 1.400 . S
C98 C100 1.364 . S
C99 C98 1.400 . S
C99 C103 1.377 . S
C100 C98 1.364 . S
C100 C101 1.374 . S
C101 H92 0.930 . S
C101 C100 1.374 . S
C101 C102 1.383 . S
C102 O96 1.412 . S
C102 C101 1.383 . S
C102 C103 1.394 . S
C103 H93 0.929 . S
C103 C99 1.377 . S
C103 C102 1.394 . S
Pr104 C106 2.888 . S
Pr104 O124 2.574 . S
Pr104 O125 2.493 . S
Pr104 O126 2.690 1_665 S
Pr104 O127 2.504 1_665 S
Pr104 O129 2.445 1_655 S
Pr104 O132 2.443 . S
Pr104 O134 2.429 1_565 S
Pr105 C115 2.880 . S
Pr105 O126 2.436 . S
Pr105 O128 2.438 1_545 S
Pr105 O130 2.562 . S
Pr105 O131 2.490 . S
Pr105 O132 2.695 1_445 S
Pr105 O133 2.512 1_545 S
Pr105 O135 2.437 . S
C106 Pr104 2.888 . S
C106 C107 1.491 . S
C106 O124 1.254 . S
C106 O125 1.225 . S
C107 C106 1.491 . S
C107 C108 1.392 . S
C107 C112 1.356 . S
C108 C107 1.392 . S
C108 C109 1.368 . S
C108 H136 0.929 . S
C109 C108 1.368 . S
C109 C110 1.386 . S
C109 H137 0.929 . S
C110 C109 1.386 . S
C110 C111 1.373 . S
C111 C110 1.373 . S
C111 C112 1.409 . S
C111 H138 0.931 . S
C112 C107 1.356 . S
C112 C111 1.409 . S
C112 H139 0.930 . S
C113 O126 1.270 . S
C113 O127 1.248 . S
C114 O128 1.267 . S
C114 O129 1.278 . S
C115 Pr105 2.880 . S
C115 C116 1.491 . S
C115 O130 1.254 . S
C115 O131 1.225 . S
C116 C115 1.491 . S
C116 C117 1.392 . S
C116 C121 1.356 . S
C117 C116 1.392 . S
C117 C118 1.368 . S
C117 H140 0.929 . S
C118 C117 1.368 . S
C118 C119 1.386 . S
C118 H141 0.929 . S
C119 C118 1.386 . S
C119 C120 1.373 . S
C120 C119 1.373 . S
C120 C121 1.409 . S
C120 H142 0.931 . S
C121 C116 1.356 . S
C121 C120 1.409 . S
C121 H143 0.930 . S
C122 O132 1.270 . S
C122 O133 1.248 1_655 S
C123 O134 1.267 . S
C123 O135 1.278 1_655 S
O124 Pr104 2.574 . S
O124 C106 1.254 . S
O125 Pr104 2.493 . S
O125 C106 1.225 . S
O126 Pr104 2.690 1_445 S
O126 Pr105 2.436 . S
O126 C113 1.270 . S
O127 Pr104 2.504 1_445 S
O127 C113 1.248 . S
O128 Pr105 2.438 1_565 S
O128 C114 1.267 . S
O129 Pr104 2.445 1_455 S
O129 C114 1.278 . S
O130 Pr105 2.562 . S
O130 C115 1.254 . S
O131 Pr105 2.490 . S
O131 C115 1.225 . S
O132 Pr104 2.443 . S
O132 Pr105 2.695 1_665 S
O132 C122 1.270 . S
O133 Pr105 2.512 1_565 S
O133 C122 1.248 1_455 S
O134 Pr104 2.429 1_545 S
O134 C123 1.267 . S
O135 Pr105 2.437 . S
O135 C123 1.278 1_455 S
H136 C108 0.929 . S
H137 C109 0.929 . S
H138 C111 0.931 . S
H139 C112 0.930 . S
H140 C117 0.929 . S
H141 C118 0.929 . S
H142 C120 0.931 . S
H143 C121 0.930 . S
Pr144 C146 2.880 . S
Pr144 O164 2.562 . S
Pr144 O165 2.490 . S
Pr144 O166 2.695 1_554 S
Pr144 O167 2.512 1_554 S
Pr144 O169 2.437 . S
Pr144 O172 2.436 1_545 S
Pr144 O174 2.438 1_544 S
Pr145 C155 2.880 1_554 S
Pr145 O166 2.436 1_564 S
Pr145 O168 2.438 1_565 S
Pr145 O170 2.562 1_554 S
Pr145 O171 2.490 1_554 S
Pr145 O172 2.695 . S
Pr145 O173 2.512 . S
Pr145 O175 2.437 1_554 S
C146 Pr144 2.880 . S
C146 C147 1.491 . S
C146 O164 1.254 . S
C146 O165 1.225 . S
C147 C146 1.491 . S
C147 C148 1.392 . S
C147 C152 1.356 . S
C148 C147 1.392 . S
C148 C149 1.368 . S
C148 H176 0.929 . S
C149 C148 1.368 . S
C149 C150 1.386 . S
C149 H177 0.929 . S
C150 C149 1.386 . S
C150 C151 1.373 . S
C151 C150 1.373 . S
C151 C152 1.409 . S
C151 H178 0.931 . S
C152 C147 1.356 . S
C152 C151 1.409 . S
C152 H179 0.930 . S
C153 O166 1.270 . S
C153 O167 1.248 . S
C154 O168 1.267 . S
C154 O169 1.278 . S
C155 Pr145 2.880 1_556 S
C155 C156 1.491 . S
C155 O170 1.254 . S
C155 O171 1.225 . S
C156 C155 1.491 . S
C156 C157 1.392 . S
C156 C161 1.356 . S
C157 C156 1.392 . S
C157 C158 1.368 . S
C157 H180 0.929 . S
C158 C157 1.368 . S
C158 C159 1.386 . S
C158 H181 0.929 . S
C159 C158 1.386 . S
C159 C160 1.373 . S
C160 C159 1.373 . S
C160 C161 1.409 . S
C160 H182 0.931 . S
C161 C156 1.356 . S
C161 C160 1.409 . S
C161 H183 0.930 . S
C162 O172 1.270 . S
C162 O173 1.248 . S
C163 O174 1.267 . S
C163 O175 1.278 . S
O164 Pr144 2.562 . S
O164 C146 1.254 . S
O165 Pr144 2.490 . S
O165 C146 1.225 . S
O166 Pr144 2.695 1_556 S
O166 Pr145 2.436 1_546 S
O166 C153 1.270 . S
O167 Pr144 2.512 1_556 S
O167 C153 1.248 . S
O168 Pr145 2.438 1_545 S
O168 C154 1.267 . S
O169 Pr144 2.437 . S
O169 C154 1.278 . S
O170 Pr145 2.562 1_556 S
O170 C155 1.254 . S
O171 Pr145 2.490 1_556 S
O171 C155 1.225 . S
O172 Pr144 2.436 1_565 S
O172 Pr145 2.695 . S
O172 C162 1.270 . S
O173 Pr145 2.512 . S
O173 C162 1.248 . S
O174 Pr144 2.438 1_566 S
O174 C163 1.267 . S
O175 Pr145 2.437 1_556 S
O175 C163 1.278 . S
H176 C148 0.929 . S
H177 C149 0.929 . S
H178 C151 0.931 . S
H179 C152 0.930 . S
H180 C157 0.929 . S
H181 C158 0.929 . S
H182 C160 0.931 . S
H183 C161 0.930 . S
Pr184 C186 2.880 . S
Pr184 O204 2.562 . S
Pr184 O205 2.490 . S
Pr184 O206 2.695 . S
Pr184 O207 2.512 . S
Pr184 O209 2.437 . S
Pr184 O212 2.436 . S
Pr184 O214 2.438 . S
Pr185 C195 2.880 . S
Pr185 O206 2.436 . S
Pr185 O208 2.438 . S
Pr185 O210 2.562 . S
Pr185 O211 2.490 . S
Pr185 O212 2.695 . S
Pr185 O213 2.512 . S
Pr185 O215 2.437 . S
C186 Pr184 2.880 . S
C186 C187 1.491 . S
C186 O204 1.254 . S
C186 O205 1.225 . S
C187 C186 1.491 . S
C187 C188 1.392 . S
C187 C192 1.356 . S
C188 C187 1.392 . S
C188 C189 1.368 . S
C188 H216 0.929 . S
C189 C188 1.368 . S
C189 C190 1.386 . S
C189 H217 0.929 . S
C190 C189 1.386 . S
C190 C191 1.373 . S
C191 C190 1.373 . S
C191 C192 1.409 . S
C191 H218 0.931 . S
C192 C187 1.356 . S
C192 C191 1.409 . S
C192 H219 0.930 . S
C193 O206 1.270 . S
C193 O207 1.248 . S
C194 O208 1.267 . S
C194 O209 1.278 . S
C195 Pr185 2.880 . S
C195 C196 1.491 . S
C195 O210 1.254 . S
C195 O211 1.225 . S
C196 C195 1.491 . S
C196 C197 1.392 . S
C196 C201 1.356 . S
C197 C196 1.392 . S
C197 C198 1.368 . S
C197 H220 0.929 . S
C198 C197 1.368 . S
C198 C199 1.386 . S
C198 H221 0.929 . S
C199 C198 1.386 . S
C199 C200 1.373 . S
C200 C199 1.373 . S
C200 C201 1.409 . S
C200 H222 0.931 . S
C201 C196 1.356 . S
C201 C200 1.409 . S
C201 H223 0.930 . S
C202 O212 1.270 . S
C202 O213 1.248 . S
C203 O214 1.267 . S
C203 O215 1.278 . S
O204 Pr184 2.562 . S
O204 C186 1.254 . S
O205 Pr184 2.490 . S
O205 C186 1.225 . S
O206 Pr184 2.695 . S
O206 Pr185 2.436 . S
O206 C193 1.270 . S
O207 Pr184 2.512 . S
O207 C193 1.248 . S
O208 Pr185 2.438 . S
O208 C194 1.267 . S
O209 Pr184 2.437 . S
O209 C194 1.278 . S
O210 Pr185 2.562 . S
O210 C195 1.254 . S
O211 Pr185 2.490 . S
O211 C195 1.225 . S
O212 Pr184 2.436 . S
O212 Pr185 2.695 . S
O212 C202 1.270 . S
O213 Pr185 2.512 . S
O213 C202 1.248 . S
O214 Pr184 2.438 . S
O214 C203 1.267 . S
O215 Pr185 2.437 . S
O215 C203 1.278 . S
H216 C188 0.929 . S
H217 C189 0.929 . S
H218 C191 0.931 . S
H219 C192 0.930 . S
H220 C197 0.929 . S
H221 C198 0.929 . S
H222 C200 0.931 . S
H223 C201 0.930 . S
Pr224 C226 2.880 1_454 S
Pr224 O244 2.562 1_454 S
Pr224 O245 2.488 1_554 S
Pr224 O246 2.695 . S
Pr224 O247 2.512 . S
Pr224 O249 2.437 1_455 S
Pr224 O252 2.436 1_455 S
Pr224 O254 2.438 1_554 S
Pr225 C235 2.880 . S
Pr225 O246 2.436 . S
Pr225 O248 2.438 1_455 S
Pr225 O250 2.562 . S
Pr225 O251 2.490 . S
Pr225 O252 2.695 1_455 S
Pr225 O253 2.512 1_455 S
Pr225 O255 2.437 . S
C226 Pr224 2.880 1_656 S
C226 C227 1.491 . S
C226 O244 1.254 . S
C226 O245 1.225 1_655 S
C227 C226 1.491 . S
C227 C228 1.392 . S
C227 C232 1.356 . S
C228 C227 1.392 . S
C228 C229 1.368 . S
C228 H256 0.929 . S
C229 C228 1.368 . S
C229 C230 1.386 . S
C229 H257 0.929 . S
C230 C229 1.386 . S
C230 C231 1.373 . S
C231 C230 1.373 . S
C231 C232 1.409 . S
C231 H258 0.931 . S
C232 C227 1.356 . S
C232 C231 1.409 . S
C232 H259 0.930 . S
C233 O246 1.270 . S
C233 O247 1.248 . S
C234 O248 1.267 . S
C234 O249 1.278 . S
C235 Pr225 2.880 . S
C235 C236 1.491 . S
C235 O250 1.254 . S
C235 O251 1.225 . S
C236 C235 1.491 . S
C236 C237 1.392 . S
C236 C241 1.356 . S
C237 C236 1.392 . S
C237 C238 1.368 . S
C237 H260 0.929 . S
C238 C237 1.368 . S
C238 C239 1.386 . S
C238 H261 0.929 . S
C239 C238 1.386 . S
C239 C240 1.373 . S
C240 C239 1.373 . S
C240 C241 1.409 . S
C240 H262 0.931 . S
C241 C236 1.356 . S
C241 C240 1.409 . S
C241 H263 0.930 . S
C242 O252 1.270 . S
C242 O253 1.248 . S
C243 O254 1.267 1_554 S
C243 O255 1.278 . S
O244 Pr224 2.562 1_656 S
O244 C226 1.254 . S
O245 Pr224 2.488 1_556 S
O245 C226 1.225 1_455 S
O246 Pr224 2.695 . S
O246 Pr225 2.436 . S
O246 C233 1.270 . S
O247 Pr224 2.512 . S
O247 C233 1.248 . S
O248 Pr225 2.438 1_655 S
O248 C234 1.267 . S
O249 Pr224 2.437 1_655 S
O249 C234 1.278 . S
O250 Pr225 2.562 . S
O250 C235 1.254 . S
O251 Pr225 2.490 . S
O251 C235 1.225 . S
O252 Pr224 2.436 1_655 S
O252 Pr225 2.695 1_655 S
O252 C242 1.270 . S
O253 Pr225 2.512 1_655 S
O253 C242 1.248 . S
O254 Pr224 2.438 1_556 S
O254 C243 1.267 1_556 S
O255 Pr225 2.437 . S
O255 C243 1.278 . S
H256 C228 0.929 . S
H257 C229 0.929 . S
H258 C231 0.931 . S
H259 C232 0.930 . S
H260 C237 0.929 . S
H261 C238 0.929 . S
H262 C240 0.931 . S
H263 C241 0.930 . S
H264 C270 0.930 . S
H265 C274 0.930 . S
H266 C279 0.929 . S
H267 C277 0.929 . S
H268 C272 0.929 . S
H269 C278 0.929 . S
C270 H264 0.930 . S
C270 C271 1.367 . S
C270 C278 1.378 . S
C271 C270 1.367 . S
C271 C279 1.433 . S
C272 H268 0.929 . S
C272 C274 1.378 . S
C272 C276 1.350 . S
C273 C276 1.463 . S
C273 C278 1.350 . S
C273 N281 1.427 . S
C274 H265 0.930 . S
C274 C272 1.378 . S
C274 C275 1.367 . S
C275 C274 1.367 . S
C275 C277 1.433 . S
C276 C272 1.350 . S
C276 C273 1.463 . S
C276 N280 1.427 . S
C277 H267 0.929 . S
C277 C275 1.433 . S
C277 N280 1.384 . S
C278 H269 0.929 . S
C278 C270 1.378 . S
C278 C273 1.350 . S
C279 H266 0.929 . S
C279 C271 1.433 . S
C279 N281 1.384 . S
N280 C276 1.427 . S
N280 C277 1.384 . S
N281 C273 1.427 . S
N281 C279 1.384 . S
H282 C288 0.930 . S
H283 C292 0.930 . S
H284 C297 0.929 . S
H285 C295 0.929 . S
H286 C290 0.929 . S
H287 C296 0.929 . S
C288 H282 0.930 . S
C288 C289 1.367 . S
C288 C296 1.378 . S
C289 C288 1.367 . S
C289 C297 1.433 . S
C290 H286 0.929 . S
C290 C292 1.378 . S
C290 C294 1.350 . S
C291 C294 1.463 . S
C291 C296 1.350 . S
C291 N299 1.427 . S
C292 H283 0.930 . S
C292 C290 1.378 . S
C292 C293 1.367 . S
C293 C292 1.367 . S
C293 C295 1.433 . S
C294 C290 1.350 . S
C294 C291 1.463 . S
C294 N298 1.427 . S
C295 H285 0.929 . S
C295 C293 1.433 . S
C295 N298 1.384 . S
C296 H287 0.929 . S
C296 C288 1.378 . S
C296 C291 1.350 . S
C297 H284 0.929 . S
C297 C289 1.433 . S
C297 N299 1.384 . S
N298 C294 1.427 . S
N298 C295 1.384 . S
N299 C291 1.427 . S
N299 C297 1.384 . S
H300 C306 0.930 . S
H301 C310 0.930 . S
H302 C315 0.929 . S
H303 C313 0.929 . S
H304 C308 0.929 . S
H305 C314 0.929 . S
C306 H300 0.930 . S
C306 C307 1.367 . S
C306 C314 1.378 . S
C307 C306 1.367 . S
C307 C315 1.433 . S
C308 H304 0.929 . S
C308 C310 1.378 . S
C308 C312 1.350 . S
C309 C312 1.463 . S
C309 C314 1.350 . S
C309 N317 1.427 . S
C310 H301 0.930 . S
C310 C308 1.378 . S
C310 C311 1.367 . S
C311 C310 1.367 . S
C311 C313 1.433 . S
C312 C308 1.350 . S
C312 C309 1.463 . S
C312 N316 1.427 . S
C313 H303 0.929 . S
C313 C311 1.433 . S
C313 N316 1.384 . S
C314 H305 0.929 . S
C314 C306 1.378 . S
C314 C309 1.350 . S
C315 H302 0.929 . S
C315 C307 1.433 . S
C315 N317 1.384 . S
N316 C312 1.427 . S
N316 C313 1.384 . S
N317 C309 1.427 . S
N317 C315 1.384 . S
H318 C324 0.930 . S
H319 C328 0.930 . S
H320 C333 0.929 . S
H321 C331 0.929 . S
H322 C326 0.929 . S
H323 C332 0.929 . S
C324 H318 0.930 . S
C324 C325 1.367 . S
C324 C332 1.378 . S
C325 C324 1.367 . S
C325 C333 1.433 . S
C326 H322 0.929 . S
C326 C328 1.378 . S
C326 C330 1.350 . S
C327 C330 1.463 . S
C327 C332 1.350 . S
C327 N335 1.427 . S
C328 H319 0.930 . S
C328 C326 1.378 . S
C328 C329 1.367 . S
C329 C328 1.367 . S
C329 C331 1.433 . S
C330 C326 1.350 . S
C330 C327 1.463 . S
C330 N334 1.427 . S
C331 H321 0.929 . S
C331 C329 1.433 . S
C331 N334 1.384 . S
C332 H323 0.929 . S
C332 C324 1.378 . S
C332 C327 1.350 . S
C333 H320 0.929 . S
C333 C325 1.433 . S
C333 N335 1.384 . S
N334 C330 1.427 . S
N334 C331 1.384 . S
N335 C327 1.427 . S
N335 C333 1.384 . S
H336 C342 0.930 . S
H337 C346 0.930 . S
H338 C351 0.929 . S
H339 C349 0.929 . S
H340 C344 0.929 . S
H341 C350 0.929 . S
C342 H336 0.930 . S
C342 C343 1.367 . S
C342 C350 1.378 . S
C343 C342 1.367 . S
C343 C351 1.433 . S
C344 H340 0.929 . S
C344 C346 1.378 . S
C344 C348 1.350 . S
C345 C348 1.463 . S
C345 C350 1.350 . S
C345 N353 1.427 . S
C346 H337 0.930 . S
C346 C344 1.378 . S
C346 C347 1.367 . S
C347 C346 1.367 . S
C347 C349 1.433 . S
C348 C344 1.350 . S
C348 C345 1.463 . S
C348 N352 1.427 . S
C349 H339 0.929 . S
C349 C347 1.433 . S
C349 N352 1.384 . S
C350 H341 0.929 . S
C350 C342 1.378 . S
C350 C345 1.350 . S
C351 H338 0.929 . S
C351 C343 1.433 . S
C351 N353 1.384 . S
N352 C348 1.427 . S
N352 C349 1.384 . S
N353 C345 1.427 . S
N353 C351 1.384 . S
H354 C360 0.930 . S
H355 C364 0.930 . S
H356 C369 0.929 . S
H357 C367 0.929 . S
H358 C362 0.929 . S
H359 C368 0.929 . S
C360 H354 0.930 . S
C360 C361 1.367 . S
C360 C368 1.378 . S
C361 C360 1.367 . S
C361 C369 1.433 . S
C362 H358 0.929 . S
C362 C364 1.378 . S
C362 C366 1.350 . S
C363 C366 1.463 . S
C363 C368 1.350 . S
C363 N371 1.427 . S
C364 H355 0.930 . S
C364 C362 1.378 . S
C364 C365 1.367 . S
C365 C364 1.367 . S
C365 C367 1.433 . S
C366 C362 1.350 . S
C366 C363 1.463 . S
C366 N370 1.427 . S
C367 H357 0.929 . S
C367 C365 1.433 . S
C367 N370 1.384 . S
C368 H359 0.929 . S
C368 C360 1.378 . S
C368 C363 1.350 . S
C369 H356 0.929 . S
C369 C361 1.433 . S
C369 N371 1.384 . S
N370 C366 1.427 . S
N370 C367 1.384 . S
N371 C363 1.427 . S
N371 C369 1.384 . S
H372 C378 0.930 . S
H373 C382 0.930 . S
H374 C387 0.929 . S
H375 C385 0.929 . S
H376 C380 0.929 . S
H377 C386 0.929 . S
C378 H372 0.930 . S
C378 C379 1.367 . S
C378 C386 1.378 . S
C379 C378 1.367 . S
C379 C387 1.433 . S
C380 H376 0.929 . S
C380 C382 1.378 . S
C380 C384 1.350 . S
C381 C384 1.463 . S
C381 C386 1.350 . S
C381 N389 1.427 . S
C382 H373 0.930 . S
C382 C380 1.378 . S
C382 C383 1.367 . S
C383 C382 1.367 . S
C383 C385 1.433 . S
C384 C380 1.350 . S
C384 C381 1.463 . S
C384 N388 1.427 . S
C385 H375 0.929 . S
C385 C383 1.433 . S
C385 N388 1.384 . S
C386 H377 0.929 . S
C386 C378 1.378 . S
C386 C381 1.350 . S
C387 H374 0.929 . S
C387 C379 1.433 . S
C387 N389 1.384 . S
N388 C384 1.427 . S
N388 C385 1.384 . S
N389 C381 1.427 . S
N389 C387 1.384 . S
H390 C396 0.930 . S
H391 C400 0.930 . S
H392 C405 0.929 . S
H393 C403 0.929 . S
H394 C398 0.929 . S
H395 C404 0.929 . S
C396 H390 0.930 . S
C396 C397 1.367 . S
C396 C404 1.378 . S
C397 C396 1.367 . S
C397 C405 1.433 . S
C398 H394 0.929 . S
C398 C400 1.378 . S
C398 C402 1.350 . S
C399 C402 1.463 . S
C399 C404 1.350 . S
C399 N407 1.427 . S
C400 H391 0.930 . S
C400 C398 1.378 . S
C400 C401 1.367 . S
C401 C400 1.367 . S
C401 C403 1.433 . S
C402 C398 1.350 . S
C402 C399 1.463 . S
C402 N406 1.427 . S
C403 H393 0.929 . S
C403 C401 1.433 . S
C403 N406 1.384 . S
C404 H395 0.929 . S
C404 C396 1.378 . S
C404 C399 1.350 . S
C405 H392 0.929 . S
C405 C397 1.433 . S
C405 N407 1.384 . S
N406 C402 1.427 . S
N406 C403 1.384 . S
N407 C399 1.427 . S
N407 C405 1.384 . S
H408 C414 0.930 . S
H409 C418 0.930 . S
H410 C423 0.929 . S
H411 C421 0.929 . S
H412 C416 0.929 . S
H413 C422 0.929 . S
C414 H408 0.930 . S
C414 C415 1.367 . S
C414 C422 1.378 . S
C415 C414 1.367 . S
C415 C423 1.433 . S
C416 H412 0.929 . S
C416 C418 1.378 . S
C416 C420 1.350 . S
C417 C420 1.463 . S
C417 C422 1.350 . S
C417 N425 1.427 . S
C418 H409 0.930 . S
C418 C416 1.378 . S
C418 C419 1.367 . S
C419 C418 1.367 . S
C419 C421 1.433 . S
C420 C416 1.350 . S
C420 C417 1.463 . S
C420 N424 1.427 . S
C421 H411 0.929 . S
C421 C419 1.433 . S
C421 N424 1.384 . S
C422 H413 0.929 . S
C422 C414 1.378 . S
C422 C417 1.350 . S
C423 H410 0.929 . S
C423 C415 1.433 . S
C423 N425 1.384 . S
N424 C420 1.427 . S
N424 C421 1.384 . S
N425 C417 1.427 . S
N425 C423 1.384 . S
H426 C432 0.930 . S
H427 C436 0.930 . S
H428 C441 0.929 . S
H429 C439 0.929 . S
H430 C434 0.929 . S
H431 C440 0.929 . S
C432 H426 0.930 . S
C432 C433 1.367 . S
C432 C440 1.378 . S
C433 C432 1.367 . S
C433 C441 1.433 . S
C434 H430 0.929 . S
C434 C436 1.378 . S
C434 C438 1.350 . S
C435 C438 1.463 . S
C435 C440 1.350 . S
C435 N443 1.427 . S
C436 H427 0.930 . S
C436 C434 1.378 . S
C436 C437 1.367 . S
C437 C436 1.367 . S
C437 C439 1.433 . S
C438 C434 1.350 . S
C438 C435 1.463 . S
C438 N442 1.427 . S
C439 H429 0.929 . S
C439 C437 1.433 . S
C439 N442 1.384 . S
C440 H431 0.929 . S
C440 C432 1.378 . S
C440 C435 1.350 . S
C441 H428 0.929 . S
C441 C433 1.433 . S
C441 N443 1.384 . S
N442 C438 1.427 . S
N442 C439 1.384 . S
N443 C435 1.427 . S
N443 C441 1.384 . S
H444 C450 0.930 . S
H445 C454 0.930 . S
H446 C459 0.929 . S
H447 C457 0.929 . S
H448 C452 0.929 . S
H449 C458 0.929 . S
C450 H444 0.930 . S
C450 C451 1.367 . S
C450 C458 1.378 . S
C451 C450 1.367 . S
C451 C459 1.433 . S
C452 H448 0.929 . S
C452 C454 1.378 . S
C452 C456 1.350 . S
C453 C456 1.463 . S
C453 C458 1.350 . S
C453 N461 1.427 . S
C454 H445 0.930 . S
C454 C452 1.378 . S
C454 C455 1.367 . S
C455 C454 1.367 . S
C455 C457 1.433 . S
C456 C452 1.350 . S
C456 C453 1.463 . S
C456 N460 1.427 . S
C457 H447 0.929 . S
C457 C455 1.433 . S
C457 N460 1.384 . S
C458 H449 0.929 . S
C458 C450 1.378 . S
C458 C453 1.350 . S
C459 H446 0.929 . S
C459 C451 1.433 . S
C459 N461 1.384 . S
N460 C456 1.427 . S
N460 C457 1.384 . S
N461 C453 1.427 . S
N461 C459 1.384 . S
H462 C468 0.930 . S
H463 C472 0.930 . S
H464 C477 0.929 . S
H465 C475 0.929 . S
H466 C470 0.929 . S
H467 C476 0.929 . S
C468 H462 0.930 . S
C468 C469 1.367 . S
C468 C476 1.378 . S
C469 C468 1.367 . S
C469 C477 1.433 . S
C470 H466 0.929 . S
C470 C472 1.378 . S
C470 C474 1.350 . S
C471 C474 1.463 . S
C471 C476 1.350 . S
C471 N479 1.427 . S
C472 H463 0.930 . S
C472 C470 1.378 . S
C472 C473 1.367 . S
C473 C472 1.367 . S
C473 C475 1.433 . S
C474 C470 1.350 . S
C474 C471 1.463 . S
C474 N478 1.427 . S
C475 H465 0.929 . S
C475 C473 1.433 . S
C475 N478 1.384 . S
C476 H467 0.929 . S
C476 C468 1.378 . S
C476 C471 1.350 . S
C477 H464 0.929 . S
C477 C469 1.433 . S
C477 N479 1.384 . S
N478 C474 1.427 . S
N478 C475 1.384 . S
N479 C471 1.427 . S
N479 C477 1.384 . S
H480 C486 0.930 . S
H481 C490 0.930 . S
H482 C495 0.929 . S
H483 C493 0.929 . S
H484 C488 0.929 . S
H485 C494 0.929 . S
C486 H480 0.930 . S
C486 C487 1.367 . S
C486 C494 1.378 . S
C487 C486 1.367 . S
C487 C495 1.433 . S
C488 H484 0.929 . S
C488 C490 1.378 . S
C488 C492 1.350 . S
C489 C492 1.463 . S
C489 C494 1.350 . S
C489 N497 1.427 . S
C490 H481 0.930 . S
C490 C488 1.378 . S
C490 C491 1.367 . S
C491 C490 1.367 . S
C491 C493 1.433 . S
C492 C488 1.350 . S
C492 C489 1.463 . S
C492 N496 1.427 . S
C493 H483 0.929 . S
C493 C491 1.433 . S
C493 N496 1.384 . S
C494 H485 0.929 . S
C494 C486 1.378 . S
C494 C489 1.350 . S
C495 H482 0.929 . S
C495 C487 1.433 . S
C495 N497 1.384 . S
N496 C492 1.427 . S
N496 C493 1.384 . S
N497 C489 1.427 . S
N497 C495 1.384 . S
H498 C504 0.930 . S
H499 C508 0.930 . S
H500 C513 0.929 . S
H501 C511 0.929 . S
H502 C506 0.929 . S
H503 C512 0.929 . S
C504 H498 0.930 . S
C504 C505 1.367 . S
C504 C512 1.378 . S
C505 C504 1.367 . S
C505 C513 1.433 . S
C506 H502 0.929 . S
C506 C508 1.378 . S
C506 C510 1.350 . S
C507 C510 1.463 . S
C507 C512 1.350 . S
C507 N515 1.427 . S
C508 H499 0.930 . S
C508 C506 1.378 . S
C508 C509 1.367 . S
C509 C508 1.367 . S
C509 C511 1.433 . S
C510 C506 1.350 . S
C510 C507 1.463 . S
C510 N514 1.427 . S
C511 H501 0.929 . S
C511 C509 1.433 . S
C511 N514 1.384 . S
C512 H503 0.929 . S
C512 C504 1.378 . S
C512 C507 1.350 . S
C513 H500 0.929 . S
C513 C505 1.433 . S
C513 N515 1.384 . S
N514 C510 1.427 . S
N514 C511 1.384 . S
N515 C507 1.427 . S
N515 C513 1.384 . S
H516 C522 0.930 . S
H517 C526 0.930 . S
H518 C531 0.929 . S
H519 C529 0.929 . S
H520 C524 0.929 . S
H521 C530 0.929 . S
C522 H516 0.930 . S
C522 C523 1.367 . S
C522 C530 1.378 . S
C523 C522 1.367 . S
C523 C531 1.433 . S
C524 H520 0.929 . S
C524 C526 1.378 . S
C524 C528 1.350 . S
C525 C528 1.463 . S
C525 C530 1.350 . S
C525 N533 1.427 . S
C526 H517 0.930 . S
C526 C524 1.378 . S
C526 C527 1.367 . S
C527 C526 1.367 . S
C527 C529 1.433 . S
C528 C524 1.350 . S
C528 C525 1.463 . S
C528 N532 1.427 . S
C529 H519 0.929 . S
C529 C527 1.433 . S
C529 N532 1.384 . S
C530 H521 0.929 . S
C530 C522 1.378 . S
C530 C525 1.350 . S
C531 H518 0.929 . S
C531 C523 1.433 . S
C531 N533 1.384 . S
N532 C528 1.427 . S
N532 C529 1.384 . S
N533 C525 1.427 . S
N533 C531 1.384 . S
H534 C540 0.930 . S
H535 C544 0.930 . S
H536 C549 0.929 . S
H537 C547 0.929 . S
H538 C542 0.929 . S
H539 C548 0.929 . S
C540 H534 0.930 . S
C540 C541 1.367 . S
C540 C548 1.378 . S
C541 C540 1.367 . S
C541 C549 1.433 . S
C542 H538 0.929 . S
C542 C544 1.378 . S
C542 C546 1.350 . S
C543 C546 1.463 . S
C543 C548 1.350 . S
C543 N551 1.427 . S
C544 H535 0.930 . S
C544 C542 1.378 . S
C544 C545 1.367 . S
C545 C544 1.367 . S
C545 C547 1.433 . S
C546 C542 1.350 . S
C546 C543 1.463 . S
C546 N550 1.427 . S
C547 H537 0.929 . S
C547 C545 1.433 . S
C547 N550 1.384 . S
C548 H539 0.929 . S
C548 C540 1.378 . S
C548 C543 1.350 . S
C549 H536 0.929 . S
C549 C541 1.433 . S
C549 N551 1.384 . S
N550 C546 1.427 . S
N550 C547 1.384 . S
N551 C543 1.427 . S
N551 C549 1.384 . S
H552 C558 0.930 . S
H553 C562 0.930 . S
H554 C567 0.929 . S
H555 C565 0.929 . S
H556 C560 0.929 . S
H557 C566 0.929 . S
C558 H552 0.930 . S
C558 C559 1.367 . S
C558 C566 1.378 . S
C559 C558 1.367 . S
C559 C567 1.433 . S
C560 H556 0.929 . S
C560 C562 1.378 . S
C560 C564 1.350 . S
C561 C564 1.463 . S
C561 C566 1.350 . S
C561 N569 1.427 . S
C562 H553 0.930 . S
C562 C560 1.378 . S
C562 C563 1.367 . S
C563 C562 1.367 . S
C563 C565 1.433 . S
C564 C560 1.350 . S
C564 C561 1.463 . S
C564 N568 1.427 . S
C565 H555 0.929 . S
C565 C563 1.433 . S
C565 N568 1.384 . S
C566 H557 0.929 . S
C566 C558 1.378 . S
C566 C561 1.350 . S
C567 H554 0.929 . S
C567 C559 1.433 . S
C567 N569 1.384 . S
N568 C564 1.427 . S
N568 C565 1.384 . S
N569 C561 1.427 . S
N569 C567 1.384 . S
H570 C576 0.930 . S
H571 C580 0.930 . S
H572 C585 0.929 . S
H573 C583 0.929 . S
H574 C578 0.929 . S
H575 C584 0.929 . S
C576 H570 0.930 . S
C576 C577 1.367 . S
C576 C584 1.378 . S
C577 C576 1.367 . S
C577 C585 1.433 . S
C578 H574 0.929 . S
C578 C580 1.378 . S
C578 C582 1.350 . S
C579 C582 1.463 . S
C579 C584 1.350 . S
C579 N587 1.427 . S
C580 H571 0.930 . S
C580 C578 1.378 . S
C580 C581 1.367 . S
C581 C580 1.367 . S
C581 C583 1.433 . S
C582 C578 1.350 . S
C582 C579 1.463 . S
C582 N586 1.427 . S
C583 H573 0.929 . S
C583 C581 1.433 . S
C583 N586 1.384 . S
C584 H575 0.929 . S
C584 C576 1.378 . S
C584 C579 1.350 . S
C585 H572 0.929 . S
C585 C577 1.433 . S
C585 N587 1.384 . S
N586 C582 1.427 . S
N586 C583 1.384 . S
N587 C579 1.427 . S
N587 C585 1.384 . S
H588 C594 0.930 . S
H589 C598 0.930 . S
H590 C603 0.929 . S
H591 C601 0.929 . S
H592 C596 0.929 . S
H593 C602 0.929 . S
C594 H588 0.930 . S
C594 C595 1.367 . S
C594 C602 1.378 . S
C595 C594 1.367 . S
C595 C603 1.433 . S
C596 H592 0.929 . S
C596 C598 1.378 . S
C596 C600 1.350 . S
C597 C600 1.463 . S
C597 C602 1.350 . S
C597 N605 1.427 . S
C598 H589 0.930 . S
C598 C596 1.378 . S
C598 C599 1.367 . S
C599 C598 1.367 . S
C599 C601 1.433 . S
C600 C596 1.350 . S
C600 C597 1.463 . S
C600 N604 1.427 . S
C601 H591 0.929 . S
C601 C599 1.433 . S
C601 N604 1.384 . S
C602 H593 0.929 . S
C602 C594 1.378 . S
C602 C597 1.350 . S
C603 H590 0.929 . S
C603 C595 1.433 . S
C603 N605 1.384 . S
N604 C600 1.427 . S
N604 C601 1.384 . S
N605 C597 1.427 . S
N605 C603 1.384 . S
H606 C612 0.930 . S
H607 C616 0.930 . S
H608 C621 0.929 . S
H609 C619 0.929 . S
H610 C614 0.929 . S
H611 C620 0.929 . S
C612 H606 0.930 . S
C612 C613 1.367 . S
C612 C620 1.378 . S
C613 C612 1.367 . S
C613 C621 1.433 . S
C614 H610 0.929 . S
C614 C616 1.378 . S
C614 C618 1.350 . S
C615 C618 1.463 . S
C615 C620 1.350 . S
C615 N623 1.427 . S
C616 H607 0.930 . S
C616 C614 1.378 . S
C616 C617 1.367 . S
C617 C616 1.367 . S
C617 C619 1.433 . S
C618 C614 1.350 . S
C618 C615 1.463 . S
C618 N622 1.427 . S
C619 H609 0.929 . S
C619 C617 1.433 . S
C619 N622 1.384 . S
C620 H611 0.929 . S
C620 C612 1.378 . S
C620 C615 1.350 . S
C621 H608 0.929 . S
C621 C613 1.433 . S
C621 N623 1.384 . S
N622 C618 1.427 . S
N622 C619 1.384 . S
N623 C615 1.427 . S
N623 C621 1.384 . S
H624 C630 0.930 . S
H625 C634 0.930 . S
H626 C639 0.929 . S
H627 C637 0.929 . S
H628 C632 0.929 . S
H629 C638 0.929 . S
C630 H624 0.930 . S
C630 C631 1.367 . S
C630 C638 1.378 . S
C631 C630 1.367 . S
C631 C639 1.433 . S
C632 H628 0.929 . S
C632 C634 1.378 . S
C632 C636 1.350 . S
C633 C636 1.463 . S
C633 C638 1.350 . S
C633 N641 1.427 . S
C634 H625 0.930 . S
C634 C632 1.378 . S
C634 C635 1.367 . S
C635 C634 1.367 . S
C635 C637 1.433 . S
C636 C632 1.350 . S
C636 C633 1.463 . S
C636 N640 1.427 . S
C637 H627 0.929 . S
C637 C635 1.433 . S
C637 N640 1.384 . S
C638 H629 0.929 . S
C638 C630 1.378 . S
C638 C633 1.350 . S
C639 H626 0.929 . S
C639 C631 1.433 . S
C639 N641 1.384 . S
N640 C636 1.427 . S
N640 C637 1.384 . S
N641 C633 1.427 . S
N641 C639 1.384 . S
H642 C648 0.930 . S
H643 C652 0.930 . S
H644 C657 0.929 . S
H645 C655 0.929 . S
H646 C650 0.929 . S
H647 C656 0.929 . S
C648 H642 0.930 . S
C648 C649 1.367 . S
C648 C656 1.378 . S
C649 C648 1.367 . S
C649 C657 1.433 . S
C650 H646 0.929 . S
C650 C652 1.378 . S
C650 C654 1.350 . S
C651 C654 1.463 . S
C651 C656 1.350 . S
C651 N659 1.427 . S
C652 H643 0.930 . S
C652 C650 1.378 . S
C652 C653 1.367 . S
C653 C652 1.367 . S
C653 C655 1.433 . S
C654 C650 1.350 . S
C654 C651 1.463 . S
C654 N658 1.427 . S
C655 H645 0.929 . S
C655 C653 1.433 . S
C655 N658 1.384 . S
C656 H647 0.929 . S
C656 C648 1.378 . S
C656 C651 1.350 . S
C657 H644 0.929 . S
C657 C649 1.433 . S
C657 N659 1.384 . S
N658 C654 1.427 . S
N658 C655 1.384 . S
N659 C651 1.427 . S
N659 C657 1.384 . S
H660 C666 0.930 . S
H661 C670 0.930 . S
H662 C675 0.929 . S
H663 C673 0.929 . S
H664 C668 0.929 . S
H665 C674 0.929 . S
C666 H660 0.930 . S
C666 C667 1.367 . S
C666 C674 1.378 . S
C667 C666 1.367 . S
C667 C675 1.433 . S
C668 H664 0.929 . S
C668 C670 1.378 . S
C668 C672 1.350 . S
C669 C672 1.463 . S
C669 C674 1.350 . S
C669 N677 1.427 . S
C670 H661 0.930 . S
C670 C668 1.378 . S
C670 C671 1.367 . S
C671 C670 1.367 . S
C671 C673 1.433 . S
C672 C668 1.350 . S
C672 C669 1.463 . S
C672 N676 1.427 . S
C673 H663 0.929 . S
C673 C671 1.433 . S
C673 N676 1.384 . S
C674 H665 0.929 . S
C674 C666 1.378 . S
C674 C669 1.350 . S
C675 H662 0.929 . S
C675 C667 1.433 . S
C675 N677 1.384 . S
N676 C672 1.427 . S
N676 C673 1.384 . S
N677 C669 1.427 . S
N677 C675 1.384 . S
H678 C684 0.930 . S
H679 C688 0.930 . S
H680 C693 0.929 . S
H681 C691 0.929 . S
H682 C686 0.929 . S
H683 C692 0.929 . S
C684 H678 0.930 . S
C684 C685 1.367 . S
C684 C692 1.378 . S
C685 C684 1.367 . S
C685 C693 1.433 . S
C686 H682 0.929 . S
C686 C688 1.378 . S
C686 C690 1.350 . S
C687 C690 1.463 . S
C687 C692 1.350 . S
C687 N695 1.427 . S
C688 H679 0.930 . S
C688 C686 1.378 . S
C688 C689 1.367 . S
C689 C688 1.367 . S
C689 C691 1.433 . S
C690 C686 1.350 . S
C690 C687 1.463 . S
C690 N694 1.427 . S
C691 H681 0.929 . S
C691 C689 1.433 . S
C691 N694 1.384 . S
C692 H683 0.929 . S
C692 C684 1.378 . S
C692 C687 1.350 . S
C693 H680 0.929 . S
C693 C685 1.433 . S
C693 N695 1.384 . S
N694 C690 1.427 . S
N694 C691 1.384 . S
N695 C687 1.427 . S
N695 C693 1.384 . S
C271 C9 1.391 . S
C275 C119 1.418 . S
C289 C21 1.393 . S
C293 C163 1.404 . S
C311 C193 2.015 . S
C307 C30 1.977 . S
C325 C43 2.496 . S
C329 C234 2.513 . S
C347 C150 0.711 . S
C343 C4 0.722 . S
C365 C114 2.951 . S
C361 C22 2.924 . S
C383 C242 0.868 1_556 S
C379 C34 0.859 . S
C401 C203 1.971 . S
C397 C48 2.012 . S
C415 C8 1.175 . S
C419 C239 1.206 . S
C437 C153 1.794 . S
C433 C35 1.822 . S
C451 C47 2.179 . S
C455 C122 2.112 . S
C469 C17 2.013 . S
C473 C190 2.001 . S
C491 C110 0.919 . S
C487 C60 0.914 . S
C505 C74 1.472 . S
C509 C154 1.499 . S
C523 C82 1.506 . S
C527 C202 1.672 . S
C541 C100 3.015 . S
C545 C243 2.971 1_556 S
C559 C61 1.100 . S
C563 C159 1.133 . S
C581 C123 2.331 . S
C577 C73 2.299 . S
C599 C233 1.377 . S
C595 C87 1.410 . S
C617 C194 2.015 . S
C613 C95 2.114 . S
C631 C56 0.976 . S
C635 C230 0.974 . S
C653 C162 2.149 . S
C649 C86 2.196 . S
C671 C113 1.998 . S
C667 C99 2.033 . S
C685 C69 1.689 . S
C689 C199 1.832 . S
