# Generated by pormake.
# Topology cml, (3,6)-cn, num edge types: 1
# Building blocks:
#     Node 0, Type 0, BuildingBlock: MIDCAF_clean_linker_0, # of connection points: 3
#     Node 1, Type 0, BuildingBlock: MIDCAF_clean_linker_0, # of connection points: 3
#     Node 2, Type 0, BuildingBlock: MIDCAF_clean_linker_0, # of connection points: 3
#     Node 3, Type 0, BuildingBlock: MIDCAF_clean_linker_0, # of connection points: 3
#     Node 4, Type 0, BuildingBlock: MIDCAF_clean_linker_0, # of connection points: 3
#     Node 5, Type 0, BuildingBlock: MIDCAF_clean_linker_0, # of connection points: 3
#     Node 6, Type 0, BuildingBlock: MIDCAF_clean_linker_0, # of connection points: 3
#     Node 7, Type 0, BuildingBlock: MIDCAF_clean_linker_0, # of connection points: 3
#     Node 8, Type 1, BuildingBlock: OJICUG_clean_sbu_0, # of connection points: 6
#     Node 9, Type 1, BuildingBlock: OJICUG_clean_sbu_0, # of connection points: 6
#     Node 10, Type 1, BuildingBlock: OJICUG_clean_sbu_0, # of connection points: 6
#     Node 11, Type 1, BuildingBlock: OJICUG_clean_sbu_0, # of connection points: 6
#     Edge 12, Type (0, 1), BuildingBlock: OJICUG_clean_linker_0, # of connection points: 2
#     Edge 13, Type (0, 1), BuildingBlock: OJICUG_clean_linker_0, # of connection points: 2
#     Edge 14, Type (0, 1), BuildingBlock: OJICUG_clean_linker_0, # of connection points: 2
#     Edge 15, Type (0, 1), BuildingBlock: OJICUG_clean_linker_0, # of connection points: 2
#     Edge 16, Type (0, 1), BuildingBlock: OJICUG_clean_linker_0, # of connection points: 2
#     Edge 17, Type (0, 1), BuildingBlock: OJICUG_clean_linker_0, # of connection points: 2
#     Edge 18, Type (0, 1), BuildingBlock: OJICUG_clean_linker_0, # of connection points: 2
#     Edge 19, Type (0, 1), BuildingBlock: OJICUG_clean_linker_0, # of connection points: 2
#     Edge 20, Type (0, 1), BuildingBlock: OJICUG_clean_linker_0, # of connection points: 2
#     Edge 21, Type (0, 1), BuildingBlock: OJICUG_clean_linker_0, # of connection points: 2
#     Edge 22, Type (0, 1), BuildingBlock: OJICUG_clean_linker_0, # of connection points: 2
#     Edge 23, Type (0, 1), BuildingBlock: OJICUG_clean_linker_0, # of connection points: 2
#     Edge 24, Type (0, 1), BuildingBlock: OJICUG_clean_linker_0, # of connection points: 2
#     Edge 25, Type (0, 1), BuildingBlock: OJICUG_clean_linker_0, # of connection points: 2
#     Edge 26, Type (0, 1), BuildingBlock: OJICUG_clean_linker_0, # of connection points: 2
#     Edge 27, Type (0, 1), BuildingBlock: OJICUG_clean_linker_0, # of connection points: 2
#     Edge 28, Type (0, 1), BuildingBlock: OJICUG_clean_linker_0, # of connection points: 2
#     Edge 29, Type (0, 1), BuildingBlock: OJICUG_clean_linker_0, # of connection points: 2
#     Edge 30, Type (0, 1), BuildingBlock: OJICUG_clean_linker_0, # of connection points: 2
#     Edge 31, Type (0, 1), BuildingBlock: OJICUG_clean_linker_0, # of connection points: 2
#     Edge 32, Type (0, 1), BuildingBlock: OJICUG_clean_linker_0, # of connection points: 2
#     Edge 33, Type (0, 1), BuildingBlock: OJICUG_clean_linker_0, # of connection points: 2
#     Edge 34, Type (0, 1), BuildingBlock: OJICUG_clean_linker_0, # of connection points: 2
#     Edge 35, Type (0, 1), BuildingBlock: OJICUG_clean_linker_0, # of connection points: 2
# Relax obj value: 0.074
# Max RMSD: 0.087
# Mean RMSD: 0.082
data_MOF--net-cml--node1-OJICUG_clean_sbu_0--node2-MIDCAF_clean_linker_0--edge1-OJICUG_clean_linker_0
_symmetry_space_group_name_H-M    P1
_symmetry_Int_Tables_number       1
_symmetry_cell_setting            triclinic
loop_
_symmetry_equiv_pos_as_xyz
'x, y, z'
_cell_length_a     36.893742
_cell_length_b     37.897925
_cell_length_c     35.434795
_cell_angle_alpha  90.015724
_cell_angle_beta   89.976194
_cell_angle_gamma 89.867049
loop_
_atom_site_label
_atom_site_type_symbol
_atom_site_fract_x
_atom_site_fract_y
_atom_site_fract_z
_atom_type_partial_charge
C0 C 0.3343 0.37675 0.12524 0.0
C1 C 0.33518 0.3407 0.13441 0.0
C2 C 0.31568 0.31678 0.11194 0.0
C3 C 0.29633 0.32874 0.08039 0.0
H4 H 0.19642 0.32039 0.01276 0.0
H5 H 0.15006 0.28662 0.98046 0.0
H6 H 0.17699 0.33854 0.87552 0.0
H7 H 0.22262 0.37347 0.90828 0.0
H8 H 0.27485 0.44129 0.91201 0.0
H9 H 0.3078 0.48978 0.88231 0.0
H10 H 0.35587 0.51605 0.98986 0.0
H11 H 0.32275 0.46845 0.01956 0.0
H12 H 0.31608 0.41649 0.08716 0.0
H13 H 0.34947 0.39583 0.1416 0.0
H14 H 0.3158 0.28886 0.11847 0.0
H15 H 0.28228 0.3097 0.06295 0.0
N16 N 0.2547 0.35853 0.01666 0.0
N17 N 0.25473 0.4 0.9673 0.0
N18 N 0.29305 0.40756 0.01923 0.0
C19 C 0.2415 0.3699 0.9829 0.0
C20 C 0.28042 0.41906 0.98551 0.0
C21 C 0.28051 0.37739 0.03497 0.0
C22 C 0.21333 0.34946 0.96307 0.0
C23 C 0.19254 0.3246 0.98279 0.0
C24 C 0.16605 0.3051 0.96418 0.0
C25 C 0.16009 0.30956 0.92526 0.0
C26 C 0.18067 0.33469 0.90556 0.0
C27 C 0.20693 0.35456 0.92432 0.0
C28 C 0.29651 0.45075 0.96806 0.0
C29 C 0.29196 0.45782 0.9294 0.0
C30 C 0.31095 0.48543 0.91235 0.0
C31 C 0.33453 0.50656 0.93373 0.0
C32 C 0.33763 0.5005 0.97267 0.0
C33 C 0.31885 0.47293 0.98964 0.0
C34 C 0.29671 0.36471 0.07059 0.0
C35 C 0.31536 0.38859 0.09377 0.0
C36 C 0.64906 0.60337 0.6266 0.0
C37 C 0.65195 0.63863 0.63838 0.0
C38 C 0.67235 0.66233 0.61655 0.0
C39 C 0.68939 0.65085 0.58337 0.0
H40 H 0.77153 0.67314 0.50509 0.0
H41 H 0.82179 0.70384 0.47554 0.0
H42 H 0.82925 0.62223 0.39074 0.0
H43 H 0.77839 0.59164 0.41976 0.0
H44 H 0.71433 0.53596 0.41446 0.0
H45 H 0.68396 0.48659 0.38369 0.0
H46 H 0.62268 0.46713 0.48548 0.0
H47 H 0.65322 0.51572 0.51643 0.0
H48 H 0.66239 0.56473 0.58521 0.0
H49 H 0.633 0.5846 0.64245 0.0
H50 H 0.67499 0.68966 0.62505 0.0
H51 H 0.70461 0.66969 0.56677 0.0
N52 N 0.72774 0.62187 0.51737 0.0
N53 N 0.72819 0.58032 0.46818 0.0
N54 N 0.68844 0.57349 0.51904 0.0
C55 C 0.74148 0.6103 0.48391 0.0
C56 C 0.70163 0.56179 0.48561 0.0
C57 C 0.70125 0.60342 0.53512 0.0
C58 C 0.77105 0.62975 0.46503 0.0
C59 C 0.78372 0.6617 0.48009 0.0
C60 C 0.81266 0.67924 0.46326 0.0
C61 C 0.82969 0.66519 0.43109 0.0
C62 C 0.81651 0.63375 0.4154 0.0
C63 C 0.78747 0.61618 0.4322 0.0
C64 C 0.68595 0.53005 0.4678 0.0
C65 C 0.69473 0.52086 0.43044 0.0
C66 C 0.67725 0.4927 0.41273 0.0
C67 C 0.65089 0.47312 0.43214 0.0
C68 C 0.64319 0.48146 0.46991 0.0
C69 C 0.66051 0.50958 0.48755 0.0
C70 C 0.68573 0.61566 0.5713 0.0
C71 C 0.66567 0.59205 0.59352 0.0
C72 C 0.66355 0.38957 0.12502 0.0
C73 C 0.66402 0.35366 0.1349 0.0
C74 C 0.6858 0.33031 0.11395 0.0
C75 C 0.70582 0.34254 0.08304 0.0
H76 H 0.7954 0.32387 0.00849 0.0
H77 H 0.83656 0.28646 0.973 0.0
H78 H 0.81483 0.34698 0.87208 0.0
H79 H 0.77437 0.38527 0.90793 0.0
H80 H 0.70696 0.44247 0.91334 0.0
H81 H 0.66995 0.48899 0.88629 0.0
H82 H 0.66627 0.54135 0.99485 0.0
H83 H 0.70126 0.49319 0.02228 0.0
H84 H 0.68149 0.42944 0.08705 0.0
H85 H 0.64666 0.40824 0.14015 0.0
H86 H 0.68695 0.30255 0.12112 0.0
H87 H 0.72152 0.32376 0.06676 0.0
N88 N 0.74421 0.37 0.01719 0.0
N89 N 0.74507 0.41138 0.9679 0.0
N90 N 0.71012 0.42202 0.02187 0.0
C91 C 0.75668 0.38036 0.9828 0.0
C92 C 0.7221 0.43245 0.98751 0.0
C93 C 0.72087 0.39078 0.03689 0.0
C94 C 0.78155 0.35752 0.96108 0.0
C95 C 0.79927 0.32919 0.97873 0.0
C96 C 0.82271 0.30758 0.95827 0.0
C97 C 0.82867 0.31352 0.91958 0.0
C98 C 0.81103 0.3419 0.9019 0.0
C99 C 0.78777 0.36375 0.92247 0.0
C100 C 0.70645 0.4641 0.96994 0.0
C101 C 0.69878 0.4643 0.93119 0.0
C102 C 0.67765 0.49117 0.91567 0.0
C103 C 0.66447 0.5188 0.93848 0.0
C104 C 0.67488 0.51995 0.97667 0.0
C105 C 0.69522 0.49259 0.99236 0.0
C106 C 0.70411 0.37828 0.07238 0.0
C107 C 0.68337 0.40172 0.09427 0.0
C108 C 0.34407 0.59151 0.62791 0.0
C109 C 0.34088 0.62694 0.63912 0.0
C110 C 0.31886 0.64983 0.61794 0.0
C111 C 0.30061 0.63745 0.58593 0.0
H112 H 0.20735 0.65045 0.51653 0.0
H113 H 0.16312 0.68684 0.48418 0.0
H114 H 0.18382 0.63036 0.38034 0.0
H115 H 0.22747 0.59289 0.4132 0.0
H116 H 0.27258 0.5202 0.41939 0.0
H117 H 0.3037 0.47123 0.38847 0.0
H118 H 0.36585 0.45264 0.4899 0.0
H119 H 0.33438 0.50061 0.52104 0.0
H120 H 0.32975 0.55188 0.588 0.0
H121 H 0.36131 0.57334 0.64327 0.0
H122 H 0.31585 0.67724 0.62606 0.0
H123 H 0.28421 0.65577 0.56982 0.0
N124 N 0.26231 0.60853 0.52075 0.0
N125 N 0.26067 0.56661 0.47193 0.0
N126 N 0.29952 0.55855 0.52345 0.0
C127 C 0.24845 0.59728 0.4873 0.0
C128 C 0.28613 0.54699 0.49004 0.0
C129 C 0.28786 0.58923 0.53899 0.0
C130 C 0.22108 0.61887 0.46743 0.0
C131 C 0.20257 0.64573 0.4868 0.0
C132 C 0.17734 0.6668 0.46813 0.0
C133 C 0.17029 0.66186 0.4295 0.0
C134 C 0.18847 0.6347 0.41015 0.0
C135 C 0.21355 0.61332 0.42898 0.0
C136 C 0.30134 0.51473 0.47254 0.0
C137 C 0.29243 0.50528 0.43531 0.0
C138 C 0.31037 0.47732 0.41751 0.0
C139 C 0.33746 0.45825 0.43661 0.0
C140 C 0.34488 0.46651 0.47446 0.0
C141 C 0.32701 0.49435 0.49222 0.0
C142 C 0.30451 0.60211 0.57436 0.0
C143 C 0.32615 0.57926 0.59597 0.0
C144 C 0.83751 0.88307 0.13618 0.0
C145 C 0.83642 0.84759 0.14758 0.0
C146 C 0.81548 0.82357 0.1267 0.0
C147 C 0.79653 0.83483 0.09459 0.0
H148 H 0.69694 0.82498 0.02691 0.0
H149 H 0.64953 0.79146 0.99573 0.0
H150 H 0.67705 0.8405 0.88937 0.0
H151 H 0.72358 0.87506 0.92087 0.0
H152 H 0.77413 0.94194 0.9216 0.0
H153 H 0.80637 -0.01107 0.88865 0.0
H154 H 0.86097 0.0167 0.99229 0.0
H155 H 0.82862 0.97038 0.02532 0.0
H156 H 0.82113 0.92161 0.09585 0.0
H157 H 0.85382 0.90214 0.15129 0.0
H158 H 0.81406 0.7961 0.13497 0.0
H159 H 0.78124 0.81565 0.07851 0.0
N160 N 0.75601 0.86281 0.02941 0.0
N161 N 0.75641 0.90235 0.97835 0.0
N162 N 0.79554 0.91109 0.02935 0.0
C163 C 0.74272 0.87315 0.99533 0.0
C164 C 0.78273 0.92154 0.9953 0.0
C165 C 0.78247 0.88181 0.04658 0.0
C166 C 0.71408 0.85259 0.97638 0.0
C167 C 0.69291 0.82859 -0.00312 0.0
C168 C 0.66583 0.80925 0.97892 0.0
C169 C 0.65965 0.81309 0.93994 0.0
C170 C 0.68076 0.83723 0.91948 0.0
C171 C 0.70758 0.8569 0.93754 0.0
C172 C 0.79908 0.95216 0.97602 0.0
C173 C 0.79261 0.95841 0.93748 0.0
C174 C 0.81116 0.98518 0.91855 0.0
C175 C 0.83625 0.00633 0.93788 0.0
C176 C 0.8415 0.00106 0.97671 0.0
C177 C 0.82316 0.97427 0.99557 0.0
C178 C 0.79873 0.87015 0.08261 0.0
C179 C 0.81896 0.89418 0.10413 0.0
C180 C 0.18586 0.1003 0.63862 0.0
C181 C 0.16624 0.1322 0.63922 0.0
C182 C 0.16997 0.15572 0.60874 0.0
C183 C 0.19034 0.14609 0.57702 0.0
H184 H 0.27863 0.17241 0.496 0.0
H185 H 0.32535 0.20385 0.46161 0.0
H186 H 0.33619 0.1163 0.38437 0.0
H187 H 0.28877 0.08467 0.41846 0.0
H188 H 0.22581 0.02618 0.42163 0.0
H189 H 0.19069 0.97813 0.39436 0.0
H190 H 0.13619 0.96308 0.50108 0.0
H191 H 0.17165 0.01028 0.52862 0.0
H192 H 0.21806 0.06457 0.60585 0.0
H193 H 0.18463 0.08207 0.66211 0.0
H194 H 0.1552 0.18043 0.60817 0.0
H195 H 0.19101 0.1636 0.55286 0.0
N196 N 0.243 0.11816 0.5174 0.0
N197 N 0.24138 0.07405 0.47087 0.0
N198 N 0.20797 0.0674 0.52656 0.0
C199 C 0.25412 0.10558 0.48333 0.0
C200 C 0.21815 0.05486 0.49231 0.0
C201 C 0.22027 0.0989 0.5392 0.0
C202 C 0.2803 0.12578 0.46038 0.0
C203 C 0.2907 0.15981 0.47159 0.0
C204 C 0.31755 0.17783 0.45193 0.0
C205 C 0.33476 0.16222 0.42073 0.0
C206 C 0.3233 0.12891 0.40831 0.0
C207 C 0.29628 0.11081 0.42799 0.0
C208 C 0.20118 0.02249 0.47719 0.0
C209 C 0.20682 0.01222 0.4395 0.0
C210 C 0.18656 0.98483 0.42378 0.0
C211 C 0.16037 0.96714 0.44544 0.0
C212 C 0.15632 0.97601 0.48369 0.0
C213 C 0.17653 0.00332 0.49941 0.0
C214 C 0.20662 0.11265 0.57519 0.0
C215 C 0.20528 0.09034 0.60662 0.0
C216 C 0.15806 0.89303 0.13779 0.0
C217 C 0.1599 0.85761 0.14939 0.0
C218 C 0.18262 0.83421 0.12961 0.0
C219 C 0.20224 0.84585 0.09818 0.0
H220 H 0.29442 0.82828 0.02519 0.0
H221 H 0.33736 0.79127 0.99132 0.0
H222 H 0.31029 0.84455 0.88716 0.0
H223 H 0.26824 0.88245 0.92126 0.0
H224 H 0.20224 0.93901 0.92366 0.0
H225 H 0.16601 0.98421 0.89328 0.0
H226 H 0.15815 0.04052 -0.00067 0.0
H227 H 0.19232 -0.00642 0.03013 0.0
H228 H 0.17456 0.93188 0.09792 0.0
H229 H 0.14044 0.91167 0.15202 0.0
H230 H 0.18482 0.80684 0.13812 0.0
H231 H 0.21872 0.82699 0.08287 0.0
N232 N 0.2399 0.87179 0.03131 0.0
N233 N 0.23969 0.91109 0.98013 0.0
N234 N 0.20395 0.92282 0.03326 0.0
C235 C 0.25222 0.88112 -0.00346 0.0
C236 C 0.21584 0.93218 -0.00148 0.0
C237 C 0.21569 0.89259 0.04983 0.0
C238 C 0.27795 0.8583 0.97596 0.0
C239 C 0.29756 0.83206 0.99506 0.0
C240 C 0.32202 0.8107 0.97557 0.0
C241 C 0.32707 0.81481 0.93645 0.0
C242 C 0.30736 0.841 0.91733 0.0
C243 C 0.28315 0.86262 0.9369 0.0
C244 C 0.19961 0.96269 0.97927 0.0
C245 C 0.19321 0.96136 0.94029 0.0
C246 C 0.17255 0.9875 0.92283 0.0
C247 C 0.1586 0.01598 0.94386 0.0
C248 C 0.16743 0.01848 0.98243 0.0
C249 C 0.18727 -0.0082 7e-05 0.0
C250 C 0.19919 0.88102 0.08581 0.0
C251 C 0.17748 0.90459 0.10649 0.0
C252 C 0.81483 0.08981 0.63538 0.0
C253 C 0.83227 0.12279 0.63514 0.0
C254 C 0.82567 0.14607 0.60499 0.0
C255 C 0.80441 0.13538 0.57437 0.0
H256 H 0.74411 0.1666 0.47718 0.0
H257 H 0.70488 0.20474 0.44008 0.0
H258 H 0.65266 0.11312 0.39207 0.0
H259 H 0.69317 0.07485 0.42814 0.0
H260 H 0.75946 0.00846 0.42568 0.0
H261 H 0.79378 0.95937 0.39922 0.0
H262 H 0.84971 0.94626 0.50542 0.0
H263 H 0.81483 -0.00571 0.53224 0.0
H264 H 0.78297 0.05257 0.60457 0.0
H265 H 0.81837 0.07168 0.65872 0.0
H266 H 0.83873 0.17161 0.60388 0.0
H267 H 0.80142 0.15297 0.55047 0.0
N268 N 0.75508 0.10788 0.51462 0.0
N269 N 0.75089 0.06132 0.47105 0.0
N270 N 0.78231 0.05341 0.52783 0.0
C271 C 0.74276 0.095 0.48121 0.0
C272 C 0.77091 0.04039 0.49421 0.0
C273 C 0.7744 0.08696 0.53825 0.0
C274 C 0.72121 0.11779 0.45603 0.0
C275 C 0.72449 0.15459 0.45844 0.0
C276 C 0.70197 0.17643 0.4372 0.0
C277 C 0.67517 0.16197 0.41366 0.0
C278 C 0.67316 0.12511 0.40976 0.0
C279 C 0.69617 0.10319 0.43061 0.0
C280 C 0.78503 0.00599 0.4808 0.0
C281 C 0.7784 -0.00545 0.44371 0.0
C282 C 0.79821 0.96652 0.42845 0.0
C283 C 0.82509 0.94947 0.44993 0.0
C284 C 0.82923 0.95875 0.48805 0.0
C285 C 0.80933 0.98661 0.50337 0.0
C286 C 0.78999 0.10113 0.57328 0.0
C287 C 0.79435 0.0789 0.60454 0.0
Sc288 Sc 1e-05 0.76938 0.30368 0.0
Sc289 Sc 0.99626 0.86196 0.31493 0.0
Sc290 Sc 0.00151 0.80813 0.39463 0.0
O291 O -0.00076 0.81304 0.33767 0.0
C292 C 0.94981 0.7442 0.37116 0.0
C293 C 0.94255 0.81885 0.26185 0.0
C294 C 0.94218 0.86839 0.38489 0.0
C295 C 0.05218 0.82258 0.26033 0.0
C296 C 0.05778 0.74995 0.36783 0.0
C297 C 0.05146 0.87556 0.38202 0.0
O298 O 0.95847 0.74336 0.33641 0.0
O299 O 0.95362 0.84689 0.27755 0.0
O300 O 0.9559 0.84286 0.40332 0.0
O301 O 0.04176 0.79131 0.26765 0.0
O302 O 0.04678 0.77313 0.39105 0.0
O303 O 0.03861 0.88285 0.34976 0.0
O304 O 0.04259 0.7442 0.33616 0.0
O305 O 0.03751 0.84988 0.27453 0.0
O306 O 0.03988 0.85012 0.40186 0.0
O307 O 0.95733 0.7889 0.26714 0.0
O308 O 0.96418 0.76516 0.3947 0.0
O309 O 0.95475 0.87876 0.35341 0.0
Sc310 Sc 0.99536 0.20324 0.79085 0.0
Sc311 Sc -0.00236 0.11046 0.80236 0.0
Sc312 Sc 0.99153 0.16455 0.88172 0.0
O313 O 0.99481 0.15954 0.82486 0.0
C314 C 0.04684 0.22541 0.8591 0.0
C315 C 0.05211 0.15289 0.74923 0.0
C316 C 0.04855 0.10192 0.87374 0.0
C317 C 0.94396 0.14991 0.7459 0.0
C318 C 0.93787 0.22502 0.85364 0.0
C319 C 0.9399 0.09919 0.86849 0.0
O320 O 0.03548 0.22957 0.82546 0.0
O321 O 0.03924 0.125 0.76369 0.0
O322 O 0.03256 0.12571 0.8927 0.0
O323 O 0.95512 0.18104 0.75293 0.0
O324 O 0.94996 0.20342 0.87785 0.0
O325 O 0.95568 0.0896 0.83828 0.0
O326 O 0.95145 0.22866 0.82091 0.0
O327 O 0.95665 0.12261 0.76199 0.0
O328 O 0.94929 0.12633 0.88696 0.0
O329 O 0.03959 0.18346 0.75646 0.0
O330 O 0.03352 0.20313 0.88193 0.0
O331 O 0.0398 0.09391 0.8402 0.0
Sc332 Sc 0.50268 0.26595 0.2884 0.0
Sc333 Sc 0.49773 0.35895 0.29658 0.0
Sc334 Sc 0.50223 0.30746 0.37798 0.0
O335 O 0.50086 0.31066 0.32092 0.0
C336 C 0.45173 0.24231 0.35629 0.0
C337 C 0.44449 0.31336 0.24519 0.0
C338 C 0.44354 0.36807 0.36594 0.0
C339 C 0.55438 0.31863 0.24365 0.0
C340 C 0.55947 0.24864 0.35411 0.0
C341 C 0.5522 0.37457 0.36382 0.0
O342 O 0.46183 0.23958 0.32206 0.0
O343 O 0.45563 0.34206 0.25945 0.0
O344 O 0.4573 0.34316 0.38523 0.0
O345 O 0.54388 0.28749 0.25142 0.0
O346 O 0.54671 0.27152 0.37666 0.0
O347 O 0.53934 0.38134 0.33141 0.0
O348 O 0.54611 0.2429 0.32155 0.0
O349 O 0.53965 0.34612 0.25727 0.0
O350 O 0.54096 0.34919 0.38398 0.0
O351 O 0.45936 0.28365 0.25163 0.0
O352 O 0.46445 0.26512 0.37884 0.0
O353 O 0.45573 0.37706 0.33384 0.0
Sc354 Sc 0.49414 0.71132 0.80315 0.0
Sc355 Sc 0.49814 0.61811 0.80778 0.0
Sc356 Sc 0.49219 0.66668 0.89105 0.0
O357 O 0.49482 0.66552 0.83391 0.0
C358 C 0.54624 0.7297 0.87236 0.0
C359 C 0.55153 0.66499 0.75775 0.0
C360 C 0.55023 0.60568 0.87744 0.0
C361 C 0.44223 0.6604 0.75606 0.0
C362 C 0.4375 0.72829 0.86853 0.0
C363 C 0.44114 0.60178 0.87325 0.0
O364 O 0.53441 0.73572 0.83919 0.0
O365 O 0.53951 0.63594 0.77025 0.0
O366 O 0.534 0.62777 0.89843 0.0
O367 O 0.45368 0.69117 0.76425 0.0
O368 O 0.45016 0.70532 0.89093 0.0
O369 O 0.45696 0.59425 0.84242 0.0
O370 O 0.45047 0.73396 0.83586 0.0
O371 O 0.45579 0.63232 0.76964 0.0
O372 O 0.45035 0.62774 0.89367 0.0
O373 O 0.53787 0.69471 0.76645 0.0
O374 O 0.53358 0.7058 0.89369 0.0
O375 O 0.54112 0.59978 0.84351 0.0
C376 C 0.11017 0.30196 0.87739 0.0
C377 C 0.13272 0.28764 0.90559 0.0
H378 H 0.06517 0.29326 0.84008 0.0
C379 C 0.1283 0.25214 0.91591 0.0
H380 H 0.11278 0.32928 0.86891 0.0
C381 C 0.10085 0.23196 0.90001 0.0
C382 C 0.0775 0.24656 0.87289 0.0
H383 H 0.14588 0.23991 0.93662 0.0
H384 H 0.09774 0.20486 0.90919 0.0
C385 C 0.08288 0.28145 0.86094 0.0
C386 C 0.88841 0.69659 0.43899 0.0
C387 C 0.86175 0.68297 0.41486 0.0
H388 H 0.93722 0.72608 0.44404 0.0
C389 C 0.86571 0.68717 0.37564 0.0
H390 H 0.88661 0.69296 0.46926 0.0
C391 C 0.89511 0.706 0.36098 0.0
C392 C 0.92085 0.72095 0.3854 0.0
H393 H 0.84549 0.67694 0.3564 0.0
H394 H 0.89696 0.70989 0.33076 0.0
C395 C 0.91753 0.71541 0.42446 0.0
C396 C 0.87826 0.30425 0.87177 0.0
C397 C 0.8537 0.29027 0.89825 0.0
H398 H 0.92431 0.29416 0.83622 0.0
C399 C 0.85459 0.25396 0.90602 0.0
H400 H 0.87832 0.33216 0.86527 0.0
C401 C 0.88109 0.23257 0.88995 0.0
C402 C 0.90688 0.24687 0.86522 0.0
H403 H 0.83538 0.24216 0.92536 0.0
H404 H 0.88199 0.2049 0.89765 0.0
C405 C 0.90457 0.28259 0.85515 0.0
C406 C 0.14191 0.72105 0.41928 0.0
C407 C 0.14385 0.68506 0.40995 0.0
H408 H 0.11321 0.76969 0.41311 0.0
C409 C 0.11925 0.67134 0.38341 0.0
H410 H 0.16109 0.73273 0.43873 0.0
C411 C 0.09215 0.69285 0.36803 0.0
C412 C 0.08901 0.72823 0.37935 0.0
H413 H 0.11993 0.64369 0.37572 0.0
H414 H 0.07264 0.68139 0.34879 0.0
C415 C 0.11464 0.7423 0.40442 0.0
C416 C 0.60969 0.80589 0.89211 0.0
C417 C 0.63162 0.79154 0.92083 0.0
H418 H 0.56544 0.79743 0.85387 0.0
C419 C 0.62631 0.7563 0.93168 0.0
H420 H 0.61292 0.83305 0.88327 0.0
C421 C 0.59892 0.7363 0.91537 0.0
C422 C 0.57645 0.75083 0.88739 0.0
H423 H 0.64333 0.74407 0.95289 0.0
H424 H 0.59533 0.70932 0.92477 0.0
C425 C 0.58246 0.7856 0.87534 0.0
C426 C 0.39251 0.19524 0.42631 0.0
C427 C 0.36607 0.18002 0.40309 0.0
H428 H 0.44036 0.22625 0.42966 0.0
C429 C 0.36958 0.1827 0.36366 0.0
H430 H 0.39108 0.19271 0.45673 0.0
C431 C 0.39826 0.2019 0.34789 0.0
C432 C 0.42362 0.21861 0.37144 0.0
H433 H 0.34955 0.17103 0.34517 0.0
H434 H 0.3998 0.20474 0.31752 0.0
C435 C 0.42085 0.21433 0.41072 0.0
C436 C 0.35656 0.75623 0.92581 0.0
C437 C 0.35314 0.79197 0.91599 0.0
H438 H 0.38584 0.70812 0.91822 0.0
C439 C 0.37574 0.80587 0.88765 0.0
H440 H 0.33892 0.74444 0.94672 0.0
C441 C 0.40224 0.78474 0.87068 0.0
C442 C 0.40681 0.7496 0.88218 0.0
H443 H 0.37392 0.83338 0.8796 0.0
H444 H 0.42018 0.79633 0.84991 0.0
C445 C 0.38326 0.73536 0.9093 0.0
C446 C 0.63298 0.21324 0.41776 0.0
C447 C 0.64727 0.1852 0.39653 0.0
H448 H 0.59475 0.25512 0.42107 0.0
C449 C 0.63331 0.17874 0.36023 0.0
H450 H 0.64246 0.21854 0.44612 0.0
C451 C 0.60521 0.19968 0.34581 0.0
C452 C 0.59059 0.22735 0.36751 0.0
H453 H 0.64396 0.15744 0.3431 0.0
H454 H 0.59464 0.19386 0.31799 0.0
C455 C 0.60521 0.23408 0.40343 0.0
C456 C 0.36498 0.56546 0.93305 0.0
C457 C 0.35823 0.53295 0.91543 0.0
H458 H 0.39632 0.61273 0.93356 0.0
C459 C 0.37701 0.5244 0.88215 0.0
H460 H 0.3505 0.57297 0.95843 0.0
C461 C 0.40325 0.54721 0.86777 0.0
C462 C 0.4113 0.57895 0.88648 0.0
H463 H 0.37264 0.49936 0.86815 0.0
H464 H 0.41803 0.53937 0.8427 0.0
C465 C 0.39125 0.58821 0.91877 0.0
C466 C 0.62033 0.41428 0.43115 0.0
C467 C 0.62938 0.44578 0.41259 0.0
H468 H 0.58904 0.36698 0.43028 0.0
C469 C 0.61513 0.45235 0.37652 0.0
H470 H 0.63137 0.40828 0.45874 0.0
C471 C 0.59093 0.42866 0.36008 0.0
C472 C 0.58045 0.39796 0.37946 0.0
H473 H 0.62138 0.47658 0.36168 0.0
H474 H 0.57956 0.43504 0.33274 0.0
C475 C 0.5961 0.39062 0.41478 0.0
C476 C 0.60872 0.55607 0.94661 0.0
C477 C 0.6372 0.54407 0.92342 0.0
H478 H 0.55911 0.58519 0.95023 0.0
C479 C 0.6376 0.55419 0.88521 0.0
H480 H 0.60687 0.54828 0.97593 0.0
C481 C 0.60938 0.57439 0.87024 0.0
C482 C 0.58071 0.5856 0.89339 0.0
H483 H 0.65943 0.54617 0.86666 0.0
H484 H 0.61 0.58127 0.84057 0.0
C485 C 0.58103 0.57696 0.93183 0.0
C486 C 0.37258 0.40146 0.43457 0.0
C487 C 0.36053 0.43231 0.41643 0.0
H488 H 0.40812 0.35684 0.43289 0.0
C489 C 0.37367 0.44008 0.38016 0.0
H490 H 0.36252 0.39448 0.46229 0.0
C491 C 0.39963 0.41847 0.36321 0.0
C492 C 0.41318 0.38866 0.38221 0.0
H493 H 0.36528 0.46384 0.36557 0.0
H494 H 0.41 0.42595 0.33576 0.0
C495 C 0.39866 0.37987 0.41766 0.0
C496 C 0.87602 0.02246 0.88343 0.0
C497 C 0.85905 0.03205 0.91743 0.0
H498 H 0.91494 0.03611 0.84123 0.0
C499 C 0.86661 0.0651 0.93345 0.0
H500 H 0.87093 -0.00301 0.87063 0.0
C501 C 0.89199 0.08741 0.91682 0.0
C502 C 0.91039 0.07711 0.88381 0.0
H503 H 0.8535 0.07335 0.95936 0.0
H504 H 0.89783 0.11234 0.93045 0.0
C505 C 0.90144 0.04478 0.86676 0.0
C506 C 0.12421 0.91121 0.44695 0.0
C507 C 0.1351 0.94178 0.42767 0.0
H508 H 0.08932 0.86629 0.44773 0.0
C509 C 0.11948 0.94951 0.39247 0.0
H510 H 0.13609 0.90435 0.47392 0.0
C511 C 0.09276 0.9277 0.37737 0.0
C512 C 0.08098 0.89773 0.39721 0.0
H513 H 0.12691 0.97315 0.37716 0.0
H514 H 0.08082 0.93484 0.35051 0.0
C515 C 0.09742 0.88941 0.4319 0.0
C516 C 0.13454 0.0495 0.88781 0.0
C517 C 0.13238 0.04096 0.92642 0.0
H518 H 0.10926 0.07507 0.84071 0.0
C519 C 0.10321 0.05439 0.94771 0.0
H520 H 0.15697 0.0404 0.87065 0.0
C521 C 0.07659 0.07511 0.93073 0.0
C522 C 0.07802 0.08213 0.89193 0.0
H523 H 0.1 0.04786 0.97726 0.0
H524 H 0.0541 0.08448 0.9477 0.0
C525 C 0.10734 0.06947 0.87063 0.0
C526 C 0.86611 0.89629 0.45068 0.0
C527 C 0.85194 0.9258 0.43163 0.0
H528 H 0.90575 0.85495 0.451 0.0
C529 C 0.86643 0.93495 0.3963 0.0
H530 H 0.8553 0.88839 0.4778 0.0
C531 C 0.89517 0.91586 0.38094 0.0
C532 C 0.91033 0.88718 0.40058 0.0
H533 H 0.85666 0.95788 0.38112 0.0
H534 H 0.90606 0.92425 0.35401 0.0
C535 C 0.89503 0.87716 0.43532 0.0
C536 C 0.36008 0.34865 0.19926 0.0
C537 C 0.35848 0.32865 0.16595 0.0
H538 H 0.3886 0.35929 0.25037 0.0
C539 C 0.38253 0.30009 0.16134 0.0
H540 H 0.34138 0.37029 0.20401 0.0
C541 C 0.40949 0.29346 0.18829 0.0
C542 C 0.41287 0.31556 0.21989 0.0
H543 H 0.38198 0.28429 0.13586 0.0
H544 H 0.42896 0.27255 0.18323 0.0
C545 C 0.38711 0.34234 0.22578 0.0
C546 C 0.63116 0.62845 0.70438 0.0
C547 C 0.63183 0.65024 0.67237 0.0
H548 H 0.60525 0.61634 0.75664 0.0
C549 C 0.60956 0.68041 0.67143 0.0
H550 H 0.6486 0.60547 0.70623 0.0
C551 C 0.58483 0.68689 0.70065 0.0
C552 C 0.58198 0.66311 0.73089 0.0
H553 H 0.60951 0.69761 0.64702 0.0
H554 H 0.56636 0.70905 0.6983 0.0
C555 C 0.60636 0.63469 0.73321 0.0
C556 C 0.61921 0.31009 0.16124 0.0
C557 C 0.64001 0.34094 0.16562 0.0
H558 H 0.57554 0.27854 0.18286 0.0
C559 C 0.63497 0.36173 0.198 0.0
H560 H 0.62235 0.29361 0.13648 0.0
C561 C 0.6079 0.35352 0.22387 0.0
C562 C 0.58561 0.32398 0.21836 0.0
H563 H 0.65117 0.38511 0.20274 0.0
H564 H 0.60388 0.37084 0.24787 0.0
C565 C 0.5923 0.30154 0.18761 0.0
C566 C 0.36467 0.61837 0.70429 0.0
C567 C 0.36197 0.63961 0.67199 0.0
H568 H 0.39206 0.6086 0.75626 0.0
C569 C 0.38255 0.67078 0.66993 0.0
H570 H 0.34852 0.59466 0.70708 0.0
C571 C 0.40739 0.67905 0.69849 0.0
C572 C 0.41208 0.65607 0.72919 0.0
H573 H 0.38102 0.68761 0.64528 0.0
H574 H 0.42439 0.70214 0.69541 0.0
C575 C 0.38956 0.62639 0.73245 0.0
C576 C 0.88123 0.80593 0.17725 0.0
C577 C 0.85898 0.83604 0.17992 0.0
H578 H 0.92538 0.77663 0.20139 0.0
C579 C 0.86152 0.85752 0.21208 0.0
H580 H 0.87994 0.78896 0.15269 0.0
C581 C 0.88765 0.85078 0.23948 0.0
C582 C 0.91165 0.82217 0.23559 0.0
H583 H 0.84419 0.88044 0.21534 0.0
H584 H 0.88978 0.86871 0.2632 0.0
C585 C 0.90732 0.79896 0.205 0.0
C586 C 0.11771 0.10977 0.68181 0.0
C587 C 0.13852 0.13834 0.66897 0.0
H588 H 0.07471 0.09194 0.71675 0.0
C589 C 0.13085 0.17231 0.68302 0.0
H590 H 0.12186 0.0834 0.67082 0.0
C591 C 0.10284 0.17743 0.70927 0.0
C592 C 0.08222 0.14861 0.72198 0.0
H593 H 0.14642 0.19489 0.67376 0.0
H594 H 0.0974 0.20382 0.71959 0.0
C595 C 0.09022 0.11477 0.70804 0.0
C596 C 0.11669 0.81364 0.17766 0.0
C597 C 0.13639 0.8453 0.18067 0.0
H598 H 0.07437 0.78137 0.20082 0.0
C599 C 0.13074 0.86706 0.2122 0.0
H600 H 0.12033 0.79641 0.15357 0.0
C601 C 0.10418 0.8588 0.23863 0.0
C602 C 0.08296 0.82831 0.23449 0.0
H603 H 0.14609 0.89115 0.21584 0.0
H604 H 0.09973 0.87679 0.26197 0.0
C605 C 0.09027 0.8051 0.20454 0.0
C606 C 0.86503 0.16493 0.6787 0.0
C607 C 0.8603 0.13074 0.66394 0.0
H608 H 0.89537 0.19806 0.71639 0.0
C609 C 0.88382 0.10373 0.67571 0.0
H610 H 0.84735 0.18632 0.67015 0.0
C611 C 0.91077 0.11031 0.7021 0.0
C612 C 0.91541 0.14424 0.71727 0.0
H613 H 0.88189 0.07737 0.66406 0.0
H614 H 0.92828 0.08863 0.71028 0.0
C615 C 0.89247 0.17165 0.70513 0.0
loop_
_geom_bond_atom_site_label_1
_geom_bond_atom_site_label_2
_geom_bond_distance
_geom_bond_site_symmetry_2
_ccdc_geom_bond_type
C0 C1 1.384 . S
C0 H13 0.947 . S
C0 C35 1.382 . S
C1 C0 1.384 . S
C1 C2 1.378 . S
C2 C1 1.378 . S
C2 C3 1.378 . S
C2 H14 0.952 . S
C3 C2 1.378 . S
C3 H15 0.950 . S
C3 C34 1.383 . S
H4 C23 0.947 1_554 S
H5 C24 0.946 1_554 S
H6 C26 0.953 . S
H7 C27 0.945 . S
H8 C29 0.952 . S
H9 C30 0.949 . S
H10 C32 0.950 . S
H11 C33 0.948 1_554 S
H12 C35 0.951 . S
H13 C0 0.947 . S
H14 C2 0.952 . S
H15 C3 0.950 . S
N16 C19 1.382 1_554 S
N16 C21 1.363 . S
N17 C19 1.371 . S
N17 C20 1.372 . S
N18 C20 1.361 1_554 S
N18 C21 1.377 . S
C19 N16 1.382 1_556 S
C19 N17 1.371 . S
C19 C22 1.480 . S
C20 N17 1.372 . S
C20 N18 1.361 1_556 S
C20 C28 1.457 . S
C21 N16 1.363 . S
C21 N18 1.377 . S
C21 C34 1.479 . S
C22 C19 1.480 . S
C22 C23 1.383 . S
C22 C27 1.385 . S
C23 H4 0.947 1_556 S
C23 C22 1.383 . S
C23 C24 1.388 . S
C24 H5 0.946 1_556 S
C24 C23 1.388 . S
C24 C25 1.384 . S
C25 C24 1.384 . S
C25 C26 1.377 . S
C26 H6 0.953 . S
C26 C25 1.377 . S
C26 C27 1.369 . S
C27 H7 0.945 . S
C27 C22 1.385 . S
C27 C26 1.369 . S
C28 C20 1.457 . S
C28 C29 1.372 . S
C28 C33 1.364 . S
C29 H8 0.952 . S
C29 C28 1.372 . S
C29 C30 1.389 . S
C30 H9 0.949 . S
C30 C29 1.389 . S
C30 C31 1.387 . S
C31 C30 1.387 . S
C31 C32 1.372 . S
C32 H10 0.950 . S
C32 C31 1.372 . S
C32 C33 1.379 . S
C33 H11 0.948 1_556 S
C33 C28 1.364 . S
C33 C32 1.379 . S
C34 C3 1.383 . S
C34 C21 1.479 . S
C34 C35 1.398 . S
C35 C0 1.382 . S
C35 H12 0.951 . S
C35 C34 1.398 . S
C36 C37 1.384 . S
C36 H49 0.947 . S
C36 C71 1.382 . S
C37 C36 1.384 . S
C37 C38 1.378 . S
C38 C37 1.378 . S
C38 C39 1.378 . S
C38 H50 0.952 . S
C39 C38 1.378 . S
C39 H51 0.950 . S
C39 C70 1.383 . S
H40 C59 0.947 . S
H41 C60 0.946 . S
H42 C62 0.953 . S
H43 C63 0.945 . S
H44 C65 0.952 . S
H45 C66 0.949 . S
H46 C68 0.950 . S
H47 C69 0.948 . S
H48 C71 0.951 . S
H49 C36 0.947 . S
H50 C38 0.952 . S
H51 C39 0.950 . S
N52 C55 1.382 . S
N52 C57 1.363 . S
N53 C55 1.371 . S
N53 C56 1.372 . S
N54 C56 1.361 . S
N54 C57 1.377 . S
C55 N52 1.382 . S
C55 N53 1.371 . S
C55 C58 1.480 . S
C56 N53 1.372 . S
C56 N54 1.361 . S
C56 C64 1.457 . S
C57 N52 1.363 . S
C57 N54 1.377 . S
C57 C70 1.479 . S
C58 C55 1.480 . S
C58 C59 1.383 . S
C58 C63 1.385 . S
C59 H40 0.947 . S
C59 C58 1.383 . S
C59 C60 1.388 . S
C60 H41 0.946 . S
C60 C59 1.388 . S
C60 C61 1.384 . S
C61 C60 1.384 . S
C61 C62 1.377 . S
C62 H42 0.953 . S
C62 C61 1.377 . S
C62 C63 1.369 . S
C63 H43 0.945 . S
C63 C58 1.385 . S
C63 C62 1.369 . S
C64 C56 1.457 . S
C64 C65 1.372 . S
C64 C69 1.364 . S
C65 H44 0.952 . S
C65 C64 1.372 . S
C65 C66 1.389 . S
C66 H45 0.949 . S
C66 C65 1.389 . S
C66 C67 1.387 . S
C67 C66 1.387 . S
C67 C68 1.372 . S
C68 H46 0.950 . S
C68 C67 1.372 . S
C68 C69 1.379 . S
C69 H47 0.948 . S
C69 C64 1.364 . S
C69 C68 1.379 . S
C70 C39 1.383 . S
C70 C57 1.479 . S
C70 C71 1.398 . S
C71 C36 1.382 . S
C71 H48 0.951 . S
C71 C70 1.398 . S
C72 C73 1.384 . S
C72 H85 0.947 . S
C72 C107 1.382 . S
C73 C72 1.384 . S
C73 C74 1.378 . S
C74 C73 1.378 . S
C74 C75 1.378 . S
C74 H86 0.952 . S
C75 C74 1.378 . S
C75 H87 0.950 . S
C75 C106 1.383 . S
H76 C95 0.947 . S
H77 C96 0.946 . S
H78 C98 0.953 . S
H79 C99 0.945 . S
H80 C101 0.952 . S
H81 C102 0.949 . S
H82 C104 0.950 . S
H83 C105 0.948 1_554 S
H84 C107 0.951 . S
H85 C72 0.947 . S
H86 C74 0.952 . S
H87 C75 0.950 . S
N88 C91 1.382 1_554 S
N88 C93 1.363 . S
N89 C91 1.371 . S
N89 C92 1.372 . S
N90 C92 1.361 1_554 S
N90 C93 1.377 . S
C91 N88 1.382 1_556 S
C91 N89 1.371 . S
C91 C94 1.480 . S
C92 N89 1.372 . S
C92 N90 1.361 1_556 S
C92 C100 1.457 . S
C93 N88 1.363 . S
C93 N90 1.377 . S
C93 C106 1.479 . S
C94 C91 1.480 . S
C94 C95 1.383 1_556 S
C94 C99 1.385 . S
C95 H76 0.947 . S
C95 C94 1.383 1_554 S
C95 C96 1.388 1_554 S
C96 H77 0.946 . S
C96 C95 1.388 1_556 S
C96 C97 1.384 . S
C97 C96 1.384 . S
C97 C98 1.377 . S
C98 H78 0.953 . S
C98 C97 1.377 . S
C98 C99 1.369 . S
C99 H79 0.945 . S
C99 C94 1.385 . S
C99 C98 1.369 . S
C100 C92 1.457 . S
C100 C101 1.372 . S
C100 C105 1.364 . S
C101 H80 0.952 . S
C101 C100 1.372 . S
C101 C102 1.389 . S
C102 H81 0.949 . S
C102 C101 1.389 . S
C102 C103 1.387 . S
C103 C102 1.387 . S
C103 C104 1.372 . S
C104 H82 0.950 . S
C104 C103 1.372 . S
C104 C105 1.379 . S
C105 H83 0.948 1_556 S
C105 C100 1.364 . S
C105 C104 1.379 . S
C106 C75 1.383 . S
C106 C93 1.479 . S
C106 C107 1.398 . S
C107 C72 1.382 . S
C107 H84 0.951 . S
C107 C106 1.398 . S
C108 C109 1.384 . S
C108 H121 0.947 . S
C108 C143 1.382 . S
C109 C108 1.384 . S
C109 C110 1.378 . S
C110 C109 1.378 . S
C110 C111 1.378 . S
C110 H122 0.952 . S
C111 C110 1.378 . S
C111 H123 0.950 . S
C111 C142 1.383 . S
H112 C131 0.947 . S
H113 C132 0.946 . S
H114 C134 0.953 . S
H115 C135 0.945 . S
H116 C137 0.952 . S
H117 C138 0.949 . S
H118 C140 0.950 . S
H119 C141 0.948 . S
H120 C143 0.951 . S
H121 C108 0.947 . S
H122 C110 0.952 . S
H123 C111 0.950 . S
N124 C127 1.382 . S
N124 C129 1.363 . S
N125 C127 1.371 . S
N125 C128 1.372 . S
N126 C128 1.361 . S
N126 C129 1.377 . S
C127 N124 1.382 . S
C127 N125 1.371 . S
C127 C130 1.480 . S
C128 N125 1.372 . S
C128 N126 1.361 . S
C128 C136 1.457 . S
C129 N124 1.363 . S
C129 N126 1.377 . S
C129 C142 1.479 . S
C130 C127 1.480 . S
C130 C131 1.383 . S
C130 C135 1.385 . S
C131 H112 0.947 . S
C131 C130 1.383 . S
C131 C132 1.388 . S
C132 H113 0.946 . S
C132 C131 1.388 . S
C132 C133 1.384 . S
C133 C132 1.384 . S
C133 C134 1.377 . S
C134 H114 0.953 . S
C134 C133 1.377 . S
C134 C135 1.369 . S
C135 H115 0.945 . S
C135 C130 1.385 . S
C135 C134 1.369 . S
C136 C128 1.457 . S
C136 C137 1.372 . S
C136 C141 1.364 . S
C137 H116 0.952 . S
C137 C136 1.372 . S
C137 C138 1.389 . S
C138 H117 0.949 . S
C138 C137 1.389 . S
C138 C139 1.387 . S
C139 C138 1.387 . S
C139 C140 1.372 . S
C140 H118 0.950 . S
C140 C139 1.372 . S
C140 C141 1.379 . S
C141 H119 0.948 . S
C141 C136 1.364 . S
C141 C140 1.379 . S
C142 C111 1.383 . S
C142 C129 1.479 . S
C142 C143 1.398 . S
C143 C108 1.382 . S
C143 H120 0.951 . S
C143 C142 1.398 . S
C144 C145 1.384 . S
C144 H157 0.947 . S
C144 C179 1.382 . S
C145 C144 1.384 . S
C145 C146 1.378 . S
C146 C145 1.378 . S
C146 C147 1.378 . S
C146 H158 0.952 . S
C147 C146 1.378 . S
C147 H159 0.950 . S
C147 C178 1.383 . S
H148 C167 0.947 1_554 S
H149 C168 0.946 1_554 S
H150 C170 0.953 . S
H151 C171 0.945 . S
H152 C173 0.952 . S
H153 C174 0.949 . S
H154 C176 0.950 . S
H155 C177 0.948 1_554 S
H156 C179 0.951 . S
H157 C144 0.947 . S
H158 C146 0.952 . S
H159 C147 0.950 . S
N160 C163 1.382 1_554 S
N160 C165 1.363 . S
N161 C163 1.371 . S
N161 C164 1.372 . S
N162 C164 1.361 1_554 S
N162 C165 1.377 . S
C163 N160 1.382 1_556 S
C163 N161 1.371 . S
C163 C166 1.480 . S
C164 N161 1.372 . S
C164 N162 1.361 1_556 S
C164 C172 1.457 . S
C165 N160 1.363 . S
C165 N162 1.377 . S
C165 C178 1.479 . S
C166 C163 1.480 . S
C166 C167 1.383 . S
C166 C171 1.385 . S
C167 H148 0.947 1_556 S
C167 C166 1.383 . S
C167 C168 1.388 . S
C168 H149 0.946 1_556 S
C168 C167 1.388 . S
C168 C169 1.384 . S
C169 C168 1.384 . S
C169 C170 1.377 . S
C170 H150 0.953 . S
C170 C169 1.377 . S
C170 C171 1.369 . S
C171 H151 0.945 . S
C171 C166 1.385 . S
C171 C170 1.369 . S
C172 C164 1.457 . S
C172 C173 1.372 . S
C172 C177 1.364 . S
C173 H152 0.952 . S
C173 C172 1.372 . S
C173 C174 1.389 1_565 S
C174 H153 0.949 . S
C174 C173 1.389 1_545 S
C174 C175 1.387 . S
C175 C174 1.387 . S
C175 C176 1.372 . S
C176 H154 0.950 . S
C176 C175 1.372 . S
C176 C177 1.379 1_545 S
C177 H155 0.948 1_556 S
C177 C172 1.364 . S
C177 C176 1.379 1_565 S
C178 C147 1.383 . S
C178 C165 1.479 . S
C178 C179 1.398 . S
C179 C144 1.382 . S
C179 H156 0.951 . S
C179 C178 1.398 . S
C180 C181 1.384 . S
C180 H193 0.947 . S
C180 C215 1.382 . S
C181 C180 1.384 . S
C181 C182 1.378 . S
C182 C181 1.378 . S
C182 C183 1.378 . S
C182 H194 0.952 . S
C183 C182 1.378 . S
C183 H195 0.950 . S
C183 C214 1.383 . S
H184 C203 0.947 . S
H185 C204 0.946 . S
H186 C206 0.953 . S
H187 C207 0.945 . S
H188 C209 0.952 . S
H189 C210 0.949 . S
H190 C212 0.950 . S
H191 C213 0.948 . S
H192 C215 0.951 . S
H193 C180 0.947 . S
H194 C182 0.952 . S
H195 C183 0.950 . S
N196 C199 1.382 . S
N196 C201 1.363 . S
N197 C199 1.371 . S
N197 C200 1.372 . S
N198 C200 1.361 . S
N198 C201 1.377 . S
C199 N196 1.382 . S
C199 N197 1.371 . S
C199 C202 1.480 . S
C200 N197 1.372 . S
C200 N198 1.361 . S
C200 C208 1.457 . S
C201 N196 1.363 . S
C201 N198 1.377 . S
C201 C214 1.479 . S
C202 C199 1.480 . S
C202 C203 1.383 . S
C202 C207 1.385 . S
C203 H184 0.947 . S
C203 C202 1.383 . S
C203 C204 1.388 . S
C204 H185 0.946 . S
C204 C203 1.388 . S
C204 C205 1.384 . S
C205 C204 1.384 . S
C205 C206 1.377 . S
C206 H186 0.953 . S
C206 C205 1.377 . S
C206 C207 1.369 . S
C207 H187 0.945 . S
C207 C202 1.385 . S
C207 C206 1.369 . S
C208 C200 1.457 . S
C208 C209 1.372 . S
C208 C213 1.364 . S
C209 H188 0.952 . S
C209 C208 1.372 . S
C209 C210 1.389 1_545 S
C210 H189 0.949 . S
C210 C209 1.389 1_565 S
C210 C211 1.387 . S
C211 C210 1.387 . S
C211 C212 1.372 . S
C212 H190 0.950 . S
C212 C211 1.372 . S
C212 C213 1.379 1_565 S
C213 H191 0.948 . S
C213 C208 1.364 . S
C213 C212 1.379 1_545 S
C214 C183 1.383 . S
C214 C201 1.479 . S
C214 C215 1.398 . S
C215 C180 1.382 . S
C215 H192 0.951 . S
C215 C214 1.398 . S
C216 C217 1.384 . S
C216 H229 0.947 . S
C216 C251 1.382 . S
C217 C216 1.384 . S
C217 C218 1.378 . S
C218 C217 1.378 . S
C218 C219 1.378 . S
C218 H230 0.952 . S
C219 C218 1.378 . S
C219 H231 0.950 . S
C219 C250 1.383 . S
H220 C239 0.947 . S
H221 C240 0.946 . S
H222 C242 0.953 . S
H223 C243 0.945 . S
H224 C245 0.952 . S
H225 C246 0.949 . S
H226 C248 0.950 . S
H227 C249 0.948 1_554 S
H228 C251 0.951 . S
H229 C216 0.947 . S
H230 C218 0.952 . S
H231 C219 0.950 . S
N232 C235 1.382 1_554 S
N232 C237 1.363 . S
N233 C235 1.371 . S
N233 C236 1.372 . S
N234 C236 1.361 1_554 S
N234 C237 1.377 . S
C235 N232 1.382 1_556 S
C235 N233 1.371 . S
C235 C238 1.480 . S
C236 N233 1.372 . S
C236 N234 1.361 1_556 S
C236 C244 1.457 . S
C237 N232 1.363 . S
C237 N234 1.377 . S
C237 C250 1.479 . S
C238 C235 1.480 . S
C238 C239 1.383 1_556 S
C238 C243 1.385 . S
C239 H220 0.947 . S
C239 C238 1.383 1_554 S
C239 C240 1.388 1_554 S
C240 H221 0.946 . S
C240 C239 1.388 1_556 S
C240 C241 1.384 . S
C241 C240 1.384 . S
C241 C242 1.377 . S
C242 H222 0.953 . S
C242 C241 1.377 . S
C242 C243 1.369 . S
C243 H223 0.945 . S
C243 C238 1.385 . S
C243 C242 1.369 . S
C244 C236 1.457 . S
C244 C245 1.372 . S
C244 C249 1.364 . S
C245 H224 0.952 . S
C245 C244 1.372 . S
C245 C246 1.389 1_565 S
C246 H225 0.949 . S
C246 C245 1.389 1_545 S
C246 C247 1.387 . S
C247 C246 1.387 . S
C247 C248 1.372 . S
C248 H226 0.950 . S
C248 C247 1.372 . S
C248 C249 1.379 1_545 S
C249 H227 0.948 1_556 S
C249 C244 1.364 . S
C249 C248 1.379 1_565 S
C250 C219 1.383 . S
C250 C237 1.479 . S
C250 C251 1.398 . S
C251 C216 1.382 . S
C251 H228 0.951 . S
C251 C250 1.398 . S
C252 C253 1.384 . S
C252 H265 0.947 . S
C252 C287 1.382 . S
C253 C252 1.384 . S
C253 C254 1.378 . S
C254 C253 1.378 . S
C254 C255 1.378 . S
C254 H266 0.952 . S
C255 C254 1.378 . S
C255 H267 0.950 . S
C255 C286 1.383 . S
H256 C275 0.947 . S
H257 C276 0.946 . S
H258 C278 0.953 . S
H259 C279 0.945 . S
H260 C281 0.952 . S
H261 C282 0.949 . S
H262 C284 0.950 . S
H263 C285 0.948 . S
H264 C287 0.951 . S
H265 C252 0.947 . S
H266 C254 0.952 . S
H267 C255 0.950 . S
N268 C271 1.382 . S
N268 C273 1.363 . S
N269 C271 1.371 . S
N269 C272 1.372 . S
N270 C272 1.361 . S
N270 C273 1.377 . S
C271 N268 1.382 . S
C271 N269 1.371 . S
C271 C274 1.480 . S
C272 N269 1.372 . S
C272 N270 1.361 . S
C272 C280 1.457 . S
C273 N268 1.363 . S
C273 N270 1.377 . S
C273 C286 1.479 . S
C274 C271 1.480 . S
C274 C275 1.383 . S
C274 C279 1.385 . S
C275 H256 0.947 . S
C275 C274 1.383 . S
C275 C276 1.388 . S
C276 H257 0.946 . S
C276 C275 1.388 . S
C276 C277 1.384 . S
C277 C276 1.384 . S
C277 C278 1.377 . S
C278 H258 0.953 . S
C278 C277 1.377 . S
C278 C279 1.369 . S
C279 H259 0.945 . S
C279 C274 1.385 . S
C279 C278 1.369 . S
C280 C272 1.457 . S
C280 C281 1.372 . S
C280 C285 1.364 . S
C281 H260 0.952 . S
C281 C280 1.372 . S
C281 C282 1.389 1_545 S
C282 H261 0.949 . S
C282 C281 1.389 1_565 S
C282 C283 1.387 . S
C283 C282 1.387 . S
C283 C284 1.372 . S
C284 H262 0.950 . S
C284 C283 1.372 . S
C284 C285 1.379 1_565 S
C285 H263 0.948 . S
C285 C280 1.364 . S
C285 C284 1.379 1_545 S
C286 C255 1.383 . S
C286 C273 1.479 . S
C286 C287 1.398 . S
C287 C252 1.382 . S
C287 H264 0.951 . S
C287 C286 1.398 . S
Sc288 O291 2.025 . S
Sc288 O298 2.105 1_455 S
Sc288 O301 2.105 . S
Sc288 O304 2.105 . S
Sc288 O307 2.105 1_455 S
Sc289 O291 2.025 . S
Sc289 O299 2.105 1_455 S
Sc289 O303 2.105 . S
Sc289 O305 2.105 . S
Sc289 O309 2.105 1_455 S
Sc290 O291 2.025 . S
Sc290 O300 2.105 1_455 S
Sc290 O302 2.105 . S
Sc290 O306 2.105 . S
Sc290 O308 2.105 1_455 S
O291 Sc288 2.025 . S
O291 Sc289 2.025 . S
O291 Sc290 2.025 . S
C292 O298 1.268 . S
C292 O308 1.268 . S
C293 O299 1.268 . S
C293 O307 1.268 . S
C294 O300 1.268 . S
C294 O309 1.268 . S
C295 O301 1.268 . S
C295 O305 1.268 . S
C296 O302 1.268 . S
C296 O304 1.268 . S
C297 O303 1.268 . S
C297 O306 1.268 . S
O298 Sc288 2.105 1_655 S
O298 C292 1.268 . S
O299 Sc289 2.105 1_655 S
O299 C293 1.268 . S
O300 Sc290 2.105 1_655 S
O300 C294 1.268 . S
O301 Sc288 2.105 . S
O301 C295 1.268 . S
O302 Sc290 2.105 . S
O302 C296 1.268 . S
O303 Sc289 2.105 . S
O303 C297 1.268 . S
O304 Sc288 2.105 . S
O304 C296 1.268 . S
O305 Sc289 2.105 . S
O305 C295 1.268 . S
O306 Sc290 2.105 . S
O306 C297 1.268 . S
O307 Sc288 2.105 1_655 S
O307 C293 1.268 . S
O308 Sc290 2.105 1_655 S
O308 C292 1.268 . S
O309 Sc289 2.105 1_655 S
O309 C294 1.268 . S
Sc310 O313 2.025 . S
Sc310 O320 2.105 . S
Sc310 O323 2.105 1_455 S
Sc310 O326 2.105 1_455 S
Sc310 O329 2.105 . S
Sc311 O313 2.025 . S
Sc311 O321 2.105 . S
Sc311 O325 2.105 1_455 S
Sc311 O327 2.105 1_455 S
Sc311 O331 2.105 . S
Sc312 O313 2.025 . S
Sc312 O322 2.105 . S
Sc312 O324 2.105 1_455 S
Sc312 O328 2.105 1_455 S
Sc312 O330 2.105 . S
O313 Sc310 2.025 . S
O313 Sc311 2.025 . S
O313 Sc312 2.025 . S
C314 O320 1.268 . S
C314 O330 1.268 . S
C315 O321 1.268 . S
C315 O329 1.268 . S
C316 O322 1.268 . S
C316 O331 1.268 . S
C317 O323 1.268 . S
C317 O327 1.268 . S
C318 O324 1.268 . S
C318 O326 1.268 . S
C319 O325 1.268 . S
C319 O328 1.268 . S
O320 Sc310 2.105 . S
O320 C314 1.268 . S
O321 Sc311 2.105 . S
O321 C315 1.268 . S
O322 Sc312 2.105 . S
O322 C316 1.268 . S
O323 Sc310 2.105 1_655 S
O323 C317 1.268 . S
O324 Sc312 2.105 1_655 S
O324 C318 1.268 . S
O325 Sc311 2.105 1_655 S
O325 C319 1.268 . S
O326 Sc310 2.105 1_655 S
O326 C318 1.268 . S
O327 Sc311 2.105 1_655 S
O327 C317 1.268 . S
O328 Sc312 2.105 1_655 S
O328 C319 1.268 . S
O329 Sc310 2.105 . S
O329 C315 1.268 . S
O330 Sc312 2.105 . S
O330 C314 1.268 . S
O331 Sc311 2.105 . S
O331 C316 1.268 . S
Sc332 O335 2.025 . S
Sc332 O342 2.105 . S
Sc332 O345 2.105 . S
Sc332 O348 2.105 . S
Sc332 O351 2.105 . S
Sc333 O335 2.025 . S
Sc333 O343 2.105 . S
Sc333 O347 2.105 . S
Sc333 O349 2.105 . S
Sc333 O353 2.105 . S
Sc334 O335 2.025 . S
Sc334 O344 2.105 . S
Sc334 O346 2.105 . S
Sc334 O350 2.105 . S
Sc334 O352 2.105 . S
O335 Sc332 2.025 . S
O335 Sc333 2.025 . S
O335 Sc334 2.025 . S
C336 O342 1.268 . S
C336 O352 1.268 . S
C337 O343 1.268 . S
C337 O351 1.268 . S
C338 O344 1.268 . S
C338 O353 1.268 . S
C339 O345 1.268 . S
C339 O349 1.268 . S
C340 O346 1.268 . S
C340 O348 1.268 . S
C341 O347 1.268 . S
C341 O350 1.268 . S
O342 Sc332 2.105 . S
O342 C336 1.268 . S
O343 Sc333 2.105 . S
O343 C337 1.268 . S
O344 Sc334 2.105 . S
O344 C338 1.268 . S
O345 Sc332 2.105 . S
O345 C339 1.268 . S
O346 Sc334 2.105 . S
O346 C340 1.268 . S
O347 Sc333 2.105 . S
O347 C341 1.268 . S
O348 Sc332 2.105 . S
O348 C340 1.268 . S
O349 Sc333 2.105 . S
O349 C339 1.268 . S
O350 Sc334 2.105 . S
O350 C341 1.268 . S
O351 Sc332 2.105 . S
O351 C337 1.268 . S
O352 Sc334 2.105 . S
O352 C336 1.268 . S
O353 Sc333 2.105 . S
O353 C338 1.268 . S
Sc354 O357 2.025 . S
Sc354 O364 2.105 . S
Sc354 O367 2.105 . S
Sc354 O370 2.105 . S
Sc354 O373 2.105 . S
Sc355 O357 2.025 . S
Sc355 O365 2.105 . S
Sc355 O369 2.105 . S
Sc355 O371 2.105 . S
Sc355 O375 2.105 . S
Sc356 O357 2.025 . S
Sc356 O366 2.105 . S
Sc356 O368 2.105 . S
Sc356 O372 2.105 . S
Sc356 O374 2.105 . S
O357 Sc354 2.025 . S
O357 Sc355 2.025 . S
O357 Sc356 2.025 . S
C358 O364 1.268 . S
C358 O374 1.268 . S
C359 O365 1.268 . S
C359 O373 1.268 . S
C360 O366 1.268 . S
C360 O375 1.268 . S
C361 O367 1.268 . S
C361 O371 1.268 . S
C362 O368 1.268 . S
C362 O370 1.268 . S
C363 O369 1.268 . S
C363 O372 1.268 . S
O364 Sc354 2.105 . S
O364 C358 1.268 . S
O365 Sc355 2.105 . S
O365 C359 1.268 . S
O366 Sc356 2.105 . S
O366 C360 1.268 . S
O367 Sc354 2.105 . S
O367 C361 1.268 . S
O368 Sc356 2.105 . S
O368 C362 1.268 . S
O369 Sc355 2.105 . S
O369 C363 1.268 . S
O370 Sc354 2.105 . S
O370 C362 1.268 . S
O371 Sc355 2.105 . S
O371 C361 1.268 . S
O372 Sc356 2.105 . S
O372 C363 1.268 . S
O373 Sc354 2.105 . S
O373 C359 1.268 . S
O374 Sc356 2.105 . S
O374 C358 1.268 . S
O375 Sc355 2.105 . S
O375 C360 1.268 . S
C376 C377 1.387 . S
C376 H380 0.950 . S
C376 C385 1.390 . S
C377 C376 1.387 . S
C377 C379 1.387 . S
H378 C385 0.950 . S
C379 C377 1.387 . S
C379 C381 1.390 . S
C379 H383 0.950 . S
H380 C376 0.950 . S
C381 C379 1.390 . S
C381 C382 1.387 . S
C381 H384 0.950 . S
C382 C381 1.387 . S
C382 C385 1.387 . S
H383 C379 0.950 . S
H384 C381 0.950 . S
C385 C376 1.390 . S
C385 H378 0.950 . S
C385 C382 1.387 . S
C386 C387 1.387 . S
C386 H390 0.950 . S
C386 C395 1.390 . S
C387 C386 1.387 . S
C387 C389 1.387 . S
H388 C395 0.950 . S
C389 C387 1.387 . S
C389 C391 1.390 . S
C389 H393 0.950 . S
H390 C386 0.950 . S
C391 C389 1.390 . S
C391 C392 1.387 . S
C391 H394 0.950 . S
C392 C391 1.387 . S
C392 C395 1.387 . S
H393 C389 0.950 . S
H394 C391 0.950 . S
C395 C386 1.390 . S
C395 H388 0.950 . S
C395 C392 1.387 . S
C396 C397 1.387 . S
C396 H400 0.950 . S
C396 C405 1.390 . S
C397 C396 1.387 . S
C397 C399 1.387 . S
H398 C405 0.950 . S
C399 C397 1.387 . S
C399 C401 1.390 . S
C399 H403 0.950 . S
H400 C396 0.950 . S
C401 C399 1.390 . S
C401 C402 1.387 . S
C401 H404 0.950 . S
C402 C401 1.387 . S
C402 C405 1.387 . S
H403 C399 0.950 . S
H404 C401 0.950 . S
C405 C396 1.390 . S
C405 H398 0.950 . S
C405 C402 1.387 . S
C406 C407 1.387 . S
C406 H410 0.950 . S
C406 C415 1.390 . S
C407 C406 1.387 . S
C407 C409 1.387 . S
H408 C415 0.950 . S
C409 C407 1.387 . S
C409 C411 1.390 . S
C409 H413 0.950 . S
H410 C406 0.950 . S
C411 C409 1.390 . S
C411 C412 1.387 . S
C411 H414 0.950 . S
C412 C411 1.387 . S
C412 C415 1.387 . S
H413 C409 0.950 . S
H414 C411 0.950 . S
C415 C406 1.390 . S
C415 H408 0.950 . S
C415 C412 1.387 . S
C416 C417 1.387 . S
C416 H420 0.950 . S
C416 C425 1.390 . S
C417 C416 1.387 . S
C417 C419 1.387 . S
H418 C425 0.950 . S
C419 C417 1.387 . S
C419 C421 1.390 . S
C419 H423 0.950 . S
H420 C416 0.950 . S
C421 C419 1.390 . S
C421 C422 1.387 . S
C421 H424 0.950 . S
C422 C421 1.387 . S
C422 C425 1.387 . S
H423 C419 0.950 . S
H424 C421 0.950 . S
C425 C416 1.390 . S
C425 H418 0.950 . S
C425 C422 1.387 . S
C426 C427 1.387 . S
C426 H430 0.950 . S
C426 C435 1.390 . S
C427 C426 1.387 . S
C427 C429 1.387 . S
H428 C435 0.950 . S
C429 C427 1.387 . S
C429 C431 1.390 . S
C429 H433 0.950 . S
H430 C426 0.950 . S
C431 C429 1.390 . S
C431 C432 1.387 . S
C431 H434 0.950 . S
C432 C431 1.387 . S
C432 C435 1.387 . S
H433 C429 0.950 . S
H434 C431 0.950 . S
C435 C426 1.390 . S
C435 H428 0.950 . S
C435 C432 1.387 . S
C436 C437 1.387 . S
C436 H440 0.950 . S
C436 C445 1.390 . S
C437 C436 1.387 . S
C437 C439 1.387 . S
H438 C445 0.950 . S
C439 C437 1.387 . S
C439 C441 1.390 . S
C439 H443 0.950 . S
H440 C436 0.950 . S
C441 C439 1.390 . S
C441 C442 1.387 . S
C441 H444 0.950 . S
C442 C441 1.387 . S
C442 C445 1.387 . S
H443 C439 0.950 . S
H444 C441 0.950 . S
C445 C436 1.390 . S
C445 H438 0.950 . S
C445 C442 1.387 . S
C446 C447 1.387 . S
C446 H450 0.950 . S
C446 C455 1.390 . S
C447 C446 1.387 . S
C447 C449 1.387 . S
H448 C455 0.950 . S
C449 C447 1.387 . S
C449 C451 1.390 . S
C449 H453 0.950 . S
H450 C446 0.950 . S
C451 C449 1.390 . S
C451 C452 1.387 . S
C451 H454 0.950 . S
C452 C451 1.387 . S
C452 C455 1.387 . S
H453 C449 0.950 . S
H454 C451 0.950 . S
C455 C446 1.390 . S
C455 H448 0.950 . S
C455 C452 1.387 . S
C456 C457 1.387 . S
C456 H460 0.950 . S
C456 C465 1.390 . S
C457 C456 1.387 . S
C457 C459 1.387 . S
H458 C465 0.950 . S
C459 C457 1.387 . S
C459 C461 1.390 . S
C459 H463 0.950 . S
H460 C456 0.950 . S
C461 C459 1.390 . S
C461 C462 1.387 . S
C461 H464 0.950 . S
C462 C461 1.387 . S
C462 C465 1.387 . S
H463 C459 0.950 . S
H464 C461 0.950 . S
C465 C456 1.390 . S
C465 H458 0.950 . S
C465 C462 1.387 . S
C466 C467 1.387 . S
C466 H470 0.950 . S
C466 C475 1.390 . S
C467 C466 1.387 . S
C467 C469 1.387 . S
H468 C475 0.950 . S
C469 C467 1.387 . S
C469 C471 1.390 . S
C469 H473 0.950 . S
H470 C466 0.950 . S
C471 C469 1.390 . S
C471 C472 1.387 . S
C471 H474 0.950 . S
C472 C471 1.387 . S
C472 C475 1.387 . S
H473 C469 0.950 . S
H474 C471 0.950 . S
C475 C466 1.390 . S
C475 H468 0.950 . S
C475 C472 1.387 . S
C476 C477 1.387 . S
C476 H480 0.950 . S
C476 C485 1.390 . S
C477 C476 1.387 . S
C477 C479 1.387 . S
H478 C485 0.950 . S
C479 C477 1.387 . S
C479 C481 1.390 . S
C479 H483 0.950 . S
H480 C476 0.950 . S
C481 C479 1.390 . S
C481 C482 1.387 . S
C481 H484 0.950 . S
C482 C481 1.387 . S
C482 C485 1.387 . S
H483 C479 0.950 . S
H484 C481 0.950 . S
C485 C476 1.390 . S
C485 H478 0.950 . S
C485 C482 1.387 . S
C486 C487 1.387 . S
C486 H490 0.950 . S
C486 C495 1.390 . S
C487 C486 1.387 . S
C487 C489 1.387 . S
H488 C495 0.950 . S
C489 C487 1.387 . S
C489 C491 1.390 . S
C489 H493 0.950 . S
H490 C486 0.950 . S
C491 C489 1.390 . S
C491 C492 1.387 . S
C491 H494 0.950 . S
C492 C491 1.387 . S
C492 C495 1.387 . S
H493 C489 0.950 . S
H494 C491 0.950 . S
C495 C486 1.390 . S
C495 H488 0.950 . S
C495 C492 1.387 . S
C496 C497 1.387 . S
C496 H500 0.950 . S
C496 C505 1.390 . S
C497 C496 1.387 . S
C497 C499 1.387 . S
H498 C505 0.950 . S
C499 C497 1.387 . S
C499 C501 1.390 . S
C499 H503 0.950 . S
H500 C496 0.950 . S
C501 C499 1.390 . S
C501 C502 1.387 . S
C501 H504 0.950 . S
C502 C501 1.387 . S
C502 C505 1.387 . S
H503 C499 0.950 . S
H504 C501 0.950 . S
C505 C496 1.390 . S
C505 H498 0.950 . S
C505 C502 1.387 . S
C506 C507 1.387 . S
C506 H510 0.950 . S
C506 C515 1.390 . S
C507 C506 1.387 . S
C507 C509 1.387 . S
H508 C515 0.950 . S
C509 C507 1.387 . S
C509 C511 1.390 . S
C509 H513 0.950 . S
H510 C506 0.950 . S
C511 C509 1.390 . S
C511 C512 1.387 . S
C511 H514 0.950 . S
C512 C511 1.387 . S
C512 C515 1.387 . S
H513 C509 0.950 . S
H514 C511 0.950 . S
C515 C506 1.390 . S
C515 H508 0.950 . S
C515 C512 1.387 . S
C516 C517 1.387 . S
C516 H520 0.950 . S
C516 C525 1.390 . S
C517 C516 1.387 . S
C517 C519 1.387 . S
H518 C525 0.950 . S
C519 C517 1.387 . S
C519 C521 1.390 . S
C519 H523 0.950 . S
H520 C516 0.950 . S
C521 C519 1.390 . S
C521 C522 1.387 . S
C521 H524 0.950 . S
C522 C521 1.387 . S
C522 C525 1.387 . S
H523 C519 0.950 . S
H524 C521 0.950 . S
C525 C516 1.390 . S
C525 H518 0.950 . S
C525 C522 1.387 . S
C526 C527 1.387 . S
C526 H530 0.950 . S
C526 C535 1.390 . S
C527 C526 1.387 . S
C527 C529 1.387 . S
H528 C535 0.950 . S
C529 C527 1.387 . S
C529 C531 1.390 . S
C529 H533 0.950 . S
H530 C526 0.950 . S
C531 C529 1.390 . S
C531 C532 1.387 . S
C531 H534 0.950 . S
C532 C531 1.387 . S
C532 C535 1.387 . S
H533 C529 0.950 . S
H534 C531 0.950 . S
C535 C526 1.390 . S
C535 H528 0.950 . S
C535 C532 1.387 . S
C536 C537 1.387 . S
C536 H540 0.950 . S
C536 C545 1.390 . S
C537 C536 1.387 . S
C537 C539 1.387 . S
H538 C545 0.950 . S
C539 C537 1.387 . S
C539 C541 1.390 . S
C539 H543 0.950 . S
H540 C536 0.950 . S
C541 C539 1.390 . S
C541 C542 1.387 . S
C541 H544 0.950 . S
C542 C541 1.387 . S
C542 C545 1.387 . S
H543 C539 0.950 . S
H544 C541 0.950 . S
C545 C536 1.390 . S
C545 H538 0.950 . S
C545 C542 1.387 . S
C546 C547 1.387 . S
C546 H550 0.950 . S
C546 C555 1.390 . S
C547 C546 1.387 . S
C547 C549 1.387 . S
H548 C555 0.950 . S
C549 C547 1.387 . S
C549 C551 1.390 . S
C549 H553 0.950 . S
H550 C546 0.950 . S
C551 C549 1.390 . S
C551 C552 1.387 . S
C551 H554 0.950 . S
C552 C551 1.387 . S
C552 C555 1.387 . S
H553 C549 0.950 . S
H554 C551 0.950 . S
C555 C546 1.390 . S
C555 H548 0.950 . S
C555 C552 1.387 . S
C556 C557 1.387 . S
C556 H560 0.950 . S
C556 C565 1.390 . S
C557 C556 1.387 . S
C557 C559 1.387 . S
H558 C565 0.950 . S
C559 C557 1.387 . S
C559 C561 1.390 . S
C559 H563 0.950 . S
H560 C556 0.950 . S
C561 C559 1.390 . S
C561 C562 1.387 . S
C561 H564 0.950 . S
C562 C561 1.387 . S
C562 C565 1.387 . S
H563 C559 0.950 . S
H564 C561 0.950 . S
C565 C556 1.390 . S
C565 H558 0.950 . S
C565 C562 1.387 . S
C566 C567 1.387 . S
C566 H570 0.950 . S
C566 C575 1.390 . S
C567 C566 1.387 . S
C567 C569 1.387 . S
H568 C575 0.950 . S
C569 C567 1.387 . S
C569 C571 1.390 . S
C569 H573 0.950 . S
H570 C566 0.950 . S
C571 C569 1.390 . S
C571 C572 1.387 . S
C571 H574 0.950 . S
C572 C571 1.387 . S
C572 C575 1.387 . S
H573 C569 0.950 . S
H574 C571 0.950 . S
C575 C566 1.390 . S
C575 H568 0.950 . S
C575 C572 1.387 . S
C576 C577 1.387 . S
C576 H580 0.950 . S
C576 C585 1.390 . S
C577 C576 1.387 . S
C577 C579 1.387 . S
H578 C585 0.950 . S
C579 C577 1.387 . S
C579 C581 1.390 . S
C579 H583 0.950 . S
H580 C576 0.950 . S
C581 C579 1.390 . S
C581 C582 1.387 . S
C581 H584 0.950 . S
C582 C581 1.387 . S
C582 C585 1.387 . S
H583 C579 0.950 . S
H584 C581 0.950 . S
C585 C576 1.390 . S
C585 H578 0.950 . S
C585 C582 1.387 . S
C586 C587 1.387 . S
C586 H590 0.950 . S
C586 C595 1.390 . S
C587 C586 1.387 . S
C587 C589 1.387 . S
H588 C595 0.950 . S
C589 C587 1.387 . S
C589 C591 1.390 . S
C589 H593 0.950 . S
H590 C586 0.950 . S
C591 C589 1.390 . S
C591 C592 1.387 . S
C591 H594 0.950 . S
C592 C591 1.387 . S
C592 C595 1.387 . S
H593 C589 0.950 . S
H594 C591 0.950 . S
C595 C586 1.390 . S
C595 H588 0.950 . S
C595 C592 1.387 . S
C596 C597 1.387 . S
C596 H600 0.950 . S
C596 C605 1.390 . S
C597 C596 1.387 . S
C597 C599 1.387 . S
H598 C605 0.950 . S
C599 C597 1.387 . S
C599 C601 1.390 . S
C599 H603 0.950 . S
H600 C596 0.950 . S
C601 C599 1.390 . S
C601 C602 1.387 . S
C601 H604 0.950 . S
C602 C601 1.387 . S
C602 C605 1.387 . S
H603 C599 0.950 . S
H604 C601 0.950 . S
C605 C596 1.390 . S
C605 H598 0.950 . S
C605 C602 1.387 . S
C606 C607 1.387 . S
C606 H610 0.950 . S
C606 C615 1.390 . S
C607 C606 1.387 . S
C607 C609 1.387 . S
H608 C615 0.950 . S
C609 C607 1.387 . S
C609 C611 1.390 . S
C609 H613 0.950 . S
H610 C606 0.950 . S
C611 C609 1.390 . S
C611 C612 1.387 . S
C611 H614 0.950 . S
C612 C611 1.387 . S
C612 C615 1.387 . S
H613 C609 0.950 . S
H614 C611 0.950 . S
C615 C606 1.390 . S
C615 H608 0.950 . S
C615 C612 1.387 . S
C377 C25 1.543 . S
C382 C314 1.534 . S
C392 C292 1.532 . S
C387 C61 1.542 . S
C402 C318 1.533 . S
C397 C97 1.585 . S
C412 C296 1.535 . S
C407 C133 1.585 . S
C422 C358 1.535 . S
C417 C169 1.543 . S
C432 C336 1.533 . S
C427 C205 1.541 . S
C437 C241 1.586 . S
C442 C362 1.535 . S
C452 C340 1.535 . S
C447 C277 1.585 . S
C457 C31 1.553 . S
C462 C363 1.628 . S
C472 C341 1.628 . S
C467 C67 1.553 . S
C477 C103 1.587 . S
C482 C360 1.628 . S
C487 C139 1.586 . S
C492 C338 1.629 . S
C502 C319 1.629 . S
C497 C175 1.551 . S
C507 C211 1.553 . S
C512 C297 1.627 . S
C522 C316 1.628 . S
C517 C247 1.587 . S
C532 C294 1.629 . S
C527 C283 1.587 . S
C542 C337 1.608 . S
C537 C1 1.552 . S
C552 C359 1.608 . S
C547 C37 1.552 . S
C557 C73 1.587 . S
C562 C339 1.608 . S
C572 C361 1.607 . S
C567 C109 1.589 . S
C582 C293 1.607 . S
C577 C145 1.555 . S
C587 C181 1.552 . S
C592 C315 1.606 . S
C597 C217 1.587 . S
C602 C295 1.607 . S
C607 C253 1.588 . S
C612 C317 1.608 . S
