# Generated by pormake.
# Topology zzz, (3,6)-cn, num edge types: 1
# Building blocks:
#     Node 0, Type 0, BuildingBlock: PAMTOO_clean_linker_0, # of connection points: 3
#     Node 1, Type 0, BuildingBlock: PAMTOO_clean_linker_0, # of connection points: 3
#     Node 2, Type 0, BuildingBlock: PAMTOO_clean_linker_0, # of connection points: 3
#     Node 3, Type 0, BuildingBlock: PAMTOO_clean_linker_0, # of connection points: 3
#     Node 4, Type 0, BuildingBlock: PAMTOO_clean_linker_0, # of connection points: 3
#     Node 5, Type 0, BuildingBlock: PAMTOO_clean_linker_0, # of connection points: 3
#     Node 6, Type 0, BuildingBlock: PAMTOO_clean_linker_0, # of connection points: 3
#     Node 7, Type 0, BuildingBlock: PAMTOO_clean_linker_0, # of connection points: 3
#     Node 8, Type 1, BuildingBlock: INOVEN_clean_sbu_0, # of connection points: 6
#     Node 9, Type 1, BuildingBlock: INOVEN_clean_sbu_0, # of connection points: 6
#     Node 10, Type 1, BuildingBlock: INOVEN_clean_sbu_0, # of connection points: 6
#     Node 11, Type 1, BuildingBlock: INOVEN_clean_sbu_0, # of connection points: 6
#     Edge 12, Type (0, 1), BuildingBlock: UVAHIK_clean_linker_0, # of connection points: 2
#     Edge 13, Type (0, 1), BuildingBlock: UVAHIK_clean_linker_0, # of connection points: 2
#     Edge 14, Type (0, 1), BuildingBlock: UVAHIK_clean_linker_0, # of connection points: 2
#     Edge 15, Type (0, 1), BuildingBlock: UVAHIK_clean_linker_0, # of connection points: 2
#     Edge 16, Type (0, 1), BuildingBlock: UVAHIK_clean_linker_0, # of connection points: 2
#     Edge 17, Type (0, 1), BuildingBlock: UVAHIK_clean_linker_0, # of connection points: 2
#     Edge 18, Type (0, 1), BuildingBlock: UVAHIK_clean_linker_0, # of connection points: 2
#     Edge 19, Type (0, 1), BuildingBlock: UVAHIK_clean_linker_0, # of connection points: 2
#     Edge 20, Type (0, 1), BuildingBlock: UVAHIK_clean_linker_0, # of connection points: 2
#     Edge 21, Type (0, 1), BuildingBlock: UVAHIK_clean_linker_0, # of connection points: 2
#     Edge 22, Type (0, 1), BuildingBlock: UVAHIK_clean_linker_0, # of connection points: 2
#     Edge 23, Type (0, 1), BuildingBlock: UVAHIK_clean_linker_0, # of connection points: 2
#     Edge 24, Type (0, 1), BuildingBlock: UVAHIK_clean_linker_0, # of connection points: 2
#     Edge 25, Type (0, 1), BuildingBlock: UVAHIK_clean_linker_0, # of connection points: 2
#     Edge 26, Type (0, 1), BuildingBlock: UVAHIK_clean_linker_0, # of connection points: 2
#     Edge 27, Type (0, 1), BuildingBlock: UVAHIK_clean_linker_0, # of connection points: 2
#     Edge 28, Type (0, 1), BuildingBlock: UVAHIK_clean_linker_0, # of connection points: 2
#     Edge 29, Type (0, 1), BuildingBlock: UVAHIK_clean_linker_0, # of connection points: 2
#     Edge 30, Type (0, 1), BuildingBlock: UVAHIK_clean_linker_0, # of connection points: 2
#     Edge 31, Type (0, 1), BuildingBlock: UVAHIK_clean_linker_0, # of connection points: 2
#     Edge 32, Type (0, 1), BuildingBlock: UVAHIK_clean_linker_0, # of connection points: 2
#     Edge 33, Type (0, 1), BuildingBlock: UVAHIK_clean_linker_0, # of connection points: 2
#     Edge 34, Type (0, 1), BuildingBlock: UVAHIK_clean_linker_0, # of connection points: 2
#     Edge 35, Type (0, 1), BuildingBlock: UVAHIK_clean_linker_0, # of connection points: 2
# Relax obj value: 0.217
# Max RMSD: 0.171
# Mean RMSD: 0.156
data_MOF--net-zzz--node1-INOVEN_clean_sbu_0--node2-PAMTOO_clean_linker_0--edge1-UVAHIK_clean_linker_0
_symmetry_space_group_name_H-M    P1
_symmetry_Int_Tables_number       1
_symmetry_cell_setting            triclinic
loop_
_symmetry_equiv_pos_as_xyz
'x, y, z'
_cell_length_a     67.164553
_cell_length_b     67.295269
_cell_length_c     17.18164
_cell_angle_alpha  90.03763
_cell_angle_beta   90.035295
_cell_angle_gamma 89.993246
loop_
_atom_site_label
_atom_site_type_symbol
_atom_site_fract_x
_atom_site_fract_y
_atom_site_fract_z
_atom_type_partial_charge
H0 H 0.80311 0.50796 0.24558 0.0
H1 H 0.74428 0.51933 0.15632 0.0
H2 H 0.76528 0.55052 0.35902 0.0
H3 H 0.71255 0.54969 0.33587 0.0
C4 C 0.71759 0.53919 0.29005 0.0
O5 O 0.73536 0.54617 0.25958 0.0
H6 H 0.71974 0.52443 0.31829 0.0
C7 C 0.78873 0.5152 0.25056 0.0
C8 C 0.7859 0.52924 0.30963 0.0
C9 C 0.77385 0.51138 0.19507 0.0
C10 C 0.75578 0.52175 0.19957 0.0
C11 C 0.7525 0.53556 0.25925 0.0
C12 C 0.76758 0.53934 0.31454 0.0
H13 H 0.05529 0.79501 0.3 0.0
H14 H 0.04143 0.74071 0.18144 0.0
H15 H 1.00952 0.75645 0.38977 0.0
H16 H 1.01165 0.70676 0.3603 0.0
C17 C 0.02099 0.71078 0.30931 0.0
O18 O 1.01444 0.72886 0.28037 0.0
H19 H 0.03662 0.71182 0.33073 0.0
C20 C 0.04717 0.78108 0.29829 0.0
C21 C 0.03221 0.77744 0.35348 0.0
C22 C 0.05059 0.76793 0.23651 0.0
C23 C 0.03929 0.75055 0.23057 0.0
C24 C 0.02501 0.74597 0.28716 0.0
C25 C 0.02115 0.75962 0.34794 0.0
H26 H 0.73456 0.02527 0.2355 0.0
H27 H 0.79575 0.01473 0.17523 0.0
H28 H 0.77302 0.99456 0.39562 0.0
H29 H 0.82677 0.99944 0.38076 0.0
C30 C 0.82131 1.00602 0.32545 0.0
O31 O 0.80453 0.99562 0.30216 0.0
H32 H 0.81764 0.02188 0.33751 0.0
C33 C 0.74923 0.0198 0.25103 0.0
C34 C 0.75175 1.0099 0.32216 0.0
C35 C 0.76499 0.0218 0.19793 0.0
C36 C 0.7836 1.01375 0.21648 0.0
C37 C 0.78666 1.00428 0.28804 0.0
C38 C 0.77079 1.00251 0.34152 0.0
H39 H 0.49464 0.73988 0.2456 0.0
H40 H 0.50961 0.79725 0.15495 0.0
H41 H 0.5328 0.77893 0.37744 0.0
H42 H 0.52932 0.83039 0.35565 0.0
C43 C 0.52158 0.82548 0.30179 0.0
O44 O 0.53085 0.80845 0.2744 0.0
H45 H 0.50584 0.82245 0.31864 0.0
C46 C 0.5019 0.75414 0.25346 0.0
C47 C 0.51376 0.75747 0.31943 0.0
C48 C 0.50031 0.76842 0.19461 0.0
C49 C 0.51035 0.78648 0.20163 0.0
C50 C 0.52153 0.79062 0.2685 0.0
C51 C 0.52358 0.77596 0.32701 0.0
H52 H 0.24209 0.54162 0.14855 0.0
H53 H 0.30347 0.53545 0.21383 0.0
H54 H 0.28279 0.51096 0.99641 0.0
H55 H 0.3273 0.48954 0.06751 0.0
C56 C 0.32212 0.49872 0.11729 0.0
O57 O 0.31416 0.51622 0.08852 0.0
H58 H 0.31061 0.48972 0.14799 0.0
C59 C 0.25697 0.53633 0.13515 0.0
C60 C 0.26044 0.52623 0.06511 0.0
C61 C 0.2723 0.53951 0.18892 0.0
C62 C 0.29154 0.53283 0.17264 0.0
C63 C 0.29533 0.52235 0.1037 0.0
C64 C 0.27975 0.51886 0.05004 0.0
H65 H 0.05813 0.23559 0.09825 0.0
H66 H 0.05305 0.29469 0.18795 0.0
H67 H 0.02596 0.27983 0.96781 0.0
H68 H 1.00995 0.3063 0.14532 0.0
C69 C 0.01632 0.31683 0.10197 0.0
O70 O 0.03349 0.30916 0.06869 0.0
H71 H 1.00506 0.31878 0.05516 0.0
C72 C 0.05323 0.25085 0.09074 0.0
C73 C 0.0419 0.25593 0.02527 0.0
C74 C 0.05704 0.2647 0.14958 0.0
C75 C 0.05016 0.28417 0.14189 0.0
C76 C 0.03923 0.28988 0.07605 0.0
C77 C 0.03474 0.2756 0.01803 0.0
H78 H 0.29315 0.98303 0.12587 0.0
H79 H 0.23437 0.99333 0.21505 0.0
H80 H 0.25527 0.02659 0.0171 0.0
H81 H 0.21571 0.04862 0.11538 0.0
C82 C 0.21925 0.03608 0.15507 0.0
O83 O 0.22453 0.01974 0.11063 0.0
H84 H 0.23189 0.04115 0.19218 0.0
C85 C 0.27889 0.99051 0.12112 0.0
C86 C 0.27612 1.00504 0.06363 0.0
C87 C 0.26405 0.98635 0.17598 0.0
C88 C 0.24587 0.99643 0.17255 0.0
C89 C 0.24257 1.01078 0.1149 0.0
C90 C 0.25782 0.01535 0.06109 0.0
H91 H 0.47566 0.29961 0.10378 0.0
H92 H 0.48454 0.24063 0.19226 0.0
H93 H 0.51441 0.2591 0.98263 0.0
H94 H 0.53078 0.23555 0.15797 0.0
C95 C 0.525 0.22327 0.12071 0.0
O96 O 0.50809 0.22906 0.08046 0.0
H97 H 0.53693 0.21985 0.07796 0.0
C98 C 0.48201 0.28488 0.0971 0.0
C99 C 0.49499 0.28112 0.03495 0.0
C100 C 0.47846 0.27053 0.15452 0.0
C101 C 0.48722 0.25176 0.14799 0.0
C102 C 0.50002 0.24749 0.08585 0.0
C103 C 0.50423 0.2623 0.02985 0.0
Gd104 Gd 0.02551 1.00832 0.80152 0.0
Gd105 Gd 1.0066 0.02033 0.64082 0.0
C106 C 1.01504 0.97429 0.66946 0.0
C107 C 0.03053 0.99278 0.93594 0.0
C108 C 0.04217 0.97493 0.95608 0.0
C109 C 0.06198 0.97279 0.93056 0.0
C110 C 0.03245 0.95856 0.98928 0.0
C111 C 0.06129 0.93772 0.9633 0.0
C112 C 0.04189 0.9401 0.99262 0.0
C113 C 0.07149 0.95436 0.93462 0.0
C114 C 0.05459 1.01132 0.69069 0.0
C115 C 0.02127 0.05453 0.76496 0.0
C116 C 1.00036 0.03878 0.5127 0.0
C117 C 1.01061 0.05695 0.48782 0.0
C118 C 1.00069 0.0714 0.44384 0.0
C119 C 0.02966 0.06104 0.51751 0.0
C120 C 0.02848 0.09417 0.46291 0.0
C121 C 0.03852 0.07944 0.50512 0.0
C122 C 1.00964 0.0899 0.43102 0.0
C123 C 0.9807 1.0101 0.75476 0.0
O124 O 0.01812 0.97877 0.74382 0.0
O125 O 1.01214 0.98811 0.61584 0.0
O126 O 0.04067 1.00839 0.9127 0.0
O127 O 1.01469 0.98923 0.89329 0.0
O128 O 0.05803 1.00696 0.7629 0.0
O129 O 0.03617 1.01393 0.68374 0.0
O130 O 0.01831 0.04927 0.69148 0.0
O131 O 0.02223 0.0412 0.82147 0.0
O132 O 0.9889 0.04107 0.57368 0.0
O133 O 1.01158 0.02285 0.51679 0.0
O134 O 0.97775 1.00636 0.68134 0.0
O135 O 0.99649 0.02002 0.76295 0.0
H136 H 0.06983 0.98507 0.90387 0.0
H137 H 0.01717 0.95981 0.00887 0.0
H138 H 0.03383 0.92754 0.01628 0.0
H139 H 0.08643 0.95291 0.91163 0.0
H140 H 0.98585 0.06863 0.42167 0.0
H141 H 0.03746 0.05027 0.55294 0.0
H142 H 0.05314 0.08223 0.52947 0.0
H143 H 1.00156 0.10109 0.39848 0.0
Gd144 Gd 0.51994 0.03127 0.76309 0.0
Gd145 Gd 0.50632 1.01038 0.61015 0.0
C146 C 0.55321 0.01582 0.63537 0.0
C147 C 0.54029 0.04163 0.88284 0.0
C148 C 0.56204 0.04001 0.89323 0.0
C149 C 0.57354 0.05737 0.8984 0.0
C150 C 0.57169 0.0216 0.88406 0.0
C151 C 0.60375 0.03822 0.87685 0.0
C152 C 0.59234 0.02072 0.87628 0.0
C153 C 0.59421 0.0565 0.88999 0.0
C154 C 0.50849 0.05563 0.64605 0.0
C155 C 0.47375 0.02231 0.74553 0.0
C156 C 0.48905 1.0041 0.47952 0.0
C157 C 0.47059 0.99294 0.46371 0.0
C158 C 0.4678 0.97371 0.49397 0.0
C159 C 0.4545 1.00271 0.42857 0.0
C160 C 0.4327 0.97502 0.4605 0.0
C161 C 0.4357 0.99387 0.42721 0.0
C162 C 0.44903 0.96478 0.49186 0.0
C163 C 0.50985 0.98273 0.72567 0.0
O164 O 0.54908 0.02175 0.70718 0.0
O165 O 0.53906 1.01201 0.58382 0.0
O166 O 0.53478 0.05428 0.82922 0.0
O167 O 0.53023 0.02494 0.88012 0.0
O168 O 0.50442 0.05869 0.71905 0.0
O169 O 0.51867 0.03992 0.6387 0.0
O170 O 0.47748 0.0188 0.67092 0.0
O171 O 0.48818 0.02551 0.79659 0.0
O172 O 0.50454 0.99371 0.50258 0.0
O173 O 0.48646 0.02052 0.51953 0.0
O174 O 0.50437 0.97858 0.65523 0.0
O175 O 0.51299 1.00111 0.72914 0.0
H176 H 0.56644 0.07173 0.90504 0.0
H177 H 0.56328 1.00794 0.87877 0.0
H178 H 0.59925 1.00642 0.8659 0.0
H179 H 0.60268 0.07018 0.8925 0.0
H180 H 0.47987 0.96587 0.52235 0.0
H181 H 0.45626 0.01758 0.40539 0.0
H182 H 0.42339 1.00195 0.40152 0.0
H183 H 0.44709 0.95026 0.51797 0.0
Gd184 Gd 0.5136 0.52709 0.77623 0.0
Gd185 Gd 0.53095 0.51291 0.61372 0.0
C186 C 0.52404 0.55952 0.63733 0.0
C187 C 0.51067 0.54465 0.90778 0.0
C188 C 0.50201 0.56446 0.92323 0.0
C189 C 0.48386 0.56625 0.96334 0.0
C190 C 0.51036 0.58146 0.88857 0.0
C191 C 0.48172 0.60108 0.92676 0.0
C192 C 0.50025 0.5995 0.8898 0.0
C193 C 0.47384 0.58448 0.96554 0.0
C194 C 0.48397 0.52371 0.66767 0.0
C195 C 0.516 0.48051 0.74568 0.0
C196 C 0.53472 0.4923 0.4895 0.0
C197 C 0.52321 0.47424 0.47215 0.0
C198 C 0.53248 0.4575 0.43997 0.0
C199 C 0.50357 0.47266 0.49967 0.0
C200 C 0.50284 0.43767 0.46618 0.0
C201 C 0.49347 0.45462 0.4964 0.0
C202 C 0.52236 0.43933 0.43686 0.0
C203 C 0.55792 0.52326 0.72328 0.0
O204 O 0.52107 0.55576 0.71242 0.0
O205 O 0.52652 0.54519 0.58519 0.0
O206 O 0.49797 0.53093 0.88558 0.0
O207 O 0.52726 0.5445 0.86726 0.0
O208 O 0.4808 0.52855 0.73969 0.0
O209 O 0.50231 0.52085 0.66053 0.0
O210 O 0.51872 0.48497 0.67119 0.0
O211 O 0.51564 0.49436 0.80047 0.0
O212 O 0.54704 0.49053 0.54828 0.0
O213 O 0.52447 0.5089 0.49126 0.0
O214 O 0.56066 0.52595 0.649 0.0
O215 O 0.5418 0.51408 0.73461 0.0
H216 H 0.47709 0.55338 0.99045 0.0
H217 H 0.52441 0.58074 0.85782 0.0
H218 H 0.50688 0.61224 0.86127 0.0
H219 H 0.45965 0.58546 0.99522 0.0
H220 H 0.54774 0.45832 0.41978 0.0
H221 H 0.49628 0.48514 0.52728 0.0
H222 H 0.4786 0.45379 0.52059 0.0
H223 H 0.52987 0.42654 0.41232 0.0
Gd224 Gd 0.01775 0.508 0.74375 0.0
Gd225 Gd 0.03161 0.53107 0.59708 0.0
C226 C 0.98458 0.52534 0.6185 0.0
C227 C 0.99825 0.4945 0.86144 0.0
C228 C 0.97691 0.48988 0.87021 0.0
C229 C 0.97099 0.47053 0.89004 0.0
C230 C 0.96232 0.50396 0.85033 0.0
C231 C 0.93636 0.47908 0.86535 0.0
C232 C 0.94227 0.49862 0.8481 0.0
C233 C 0.95088 0.46517 0.88772 0.0
C234 C 0.0289 0.48562 0.62046 0.0
C235 C 0.06383 0.51756 0.73097 0.0
C236 C 0.04948 0.5385 0.46869 0.0
C237 C 0.06949 0.54725 0.45797 0.0
C238 C 0.07171 0.56616 0.42435 0.0
C239 C 0.08628 0.53781 0.49004 0.0
C240 C 0.10668 0.5666 0.46132 0.0
C241 C 0.1046 0.54745 0.49229 0.0
C242 C 0.09025 0.57572 0.42544 0.0
C243 C 0.02902 0.55697 0.71881 0.0
O244 O 0.98851 0.5168 0.68646 0.0
O245 O 0.99885 0.53137 0.57092 0.0
O246 O 1.00784 0.483 0.8129 0.0
O247 O 1.00305 0.51328 0.85407 0.0
O248 O 0.03344 0.48152 0.69212 0.0
O249 O 0.01866 0.50135 0.61754 0.0
O250 O 0.06032 0.52149 0.65652 0.0
O251 O 0.04918 0.51421 0.78074 0.0
O252 O 0.03596 0.55048 0.49771 0.0
O253 O 0.04902 0.52067 0.49966 0.0
O254 O 0.03432 0.56199 0.64909 0.0
O255 O 0.02539 0.53862 0.71889 0.0
H256 H 0.982 0.45939 0.90494 0.0
H257 H 0.96639 0.51898 0.83427 0.0
H258 H 0.93139 0.50981 0.83234 0.0
H259 H 0.94677 0.45 0.90137 0.0
H260 H 0.05901 0.57376 0.39938 0.0
H261 H 0.08522 0.52316 0.51567 0.0
H262 H 0.11719 0.53991 0.51842 0.0
H263 H 0.09162 0.59041 0.4003 0.0
C264 C 0.20377 0.02552 0.28312 0.0
C265 C 0.20132 0.03138 0.20529 0.0
C266 C 0.18718 0.02217 0.33081 0.0
C267 C 0.1331 0.03391 0.34764 0.0
H268 H 0.13469 0.99324 0.50711 0.0
C269 C 0.06555 0.0161 0.55101 0.0
C270 C 0.0702 1.01315 0.6299 0.0
C271 C 0.08077 0.01766 0.49512 0.0
C272 C 0.13403 1.00477 0.46326 0.0
H273 H 0.17965 0.03736 0.11514 0.0
H274 H 0.15059 0.03125 0.19784 0.0
H275 H 0.16252 0.99669 0.41741 0.0
H276 H 0.09443 1.00933 0.71187 0.0
H277 H 0.12077 1.01197 0.61533 0.0
H278 H 0.10453 0.04196 0.394 0.0
C279 C 0.16531 0.02973 0.22291 0.0
C280 C 0.15005 1.00679 0.41174 0.0
C281 C 0.18193 0.03311 0.17528 0.0
C282 C 0.09032 1.0116 0.65155 0.0
C283 C 0.10546 1.013 0.596 0.0
C284 C 0.117 0.03184 0.39911 0.0
C285 C 0.16767 0.02441 0.30169 0.0
C286 C 0.14999 0.02156 0.35378 0.0
C287 C 0.10095 0.01601 0.51694 0.0
C288 C 0.11738 0.01742 0.45838 0.0
H289 H 0.21855 0.02393 0.30754 0.0
H290 H 0.1897 0.01829 0.39117 0.0
H291 H 0.13253 0.04561 0.30449 0.0
H292 H 0.05021 0.01696 0.53238 0.0
H293 H 0.07673 0.01978 0.43468 0.0
C294 C 0.52496 0.18597 0.14386 0.0
C295 C 0.52077 0.20523 0.17093 0.0
C296 C 0.52219 0.16939 0.1922 0.0
C297 C 0.51705 0.15594 0.40215 0.0
H298 H 0.50107 0.10465 0.32024 0.0
C299 C 0.49911 0.09015 0.60574 0.0
C300 C 0.50715 0.07152 0.58617 0.0
C301 C 0.49958 0.10593 0.55267 0.0
C302 C 0.50569 0.11884 0.34397 0.0
H303 H 0.50956 0.22215 0.26855 0.0
H304 H 0.50408 0.19333 0.35214 0.0
H305 H 0.50368 0.13316 0.23282 0.0
H306 H 0.52131 0.05463 0.4942 0.0
H307 H 0.52202 0.08221 0.40098 0.0
H308 H 0.51891 0.14167 0.51326 0.0
C309 C 0.5101 0.19094 0.29447 0.0
C310 C 0.50724 0.13523 0.29375 0.0
C311 C 0.51302 0.20749 0.2463 0.0
C312 C 0.515 0.06881 0.51104 0.0
C313 C 0.51536 0.08461 0.45758 0.0
C314 C 0.51536 0.13962 0.45228 0.0
C315 C 0.51494 0.17163 0.2687 0.0
C316 C 0.51295 0.15406 0.32207 0.0
C317 C 0.50799 0.1035 0.47827 0.0
C318 C 0.50965 0.12083 0.42403 0.0
H319 H 0.53086 0.18378 0.08583 0.0
H320 H 0.52628 0.15488 0.17015 0.0
H321 H 0.52194 0.16998 0.42627 0.0
H322 H 0.49286 0.09272 0.66296 0.0
H323 H 0.49344 0.12012 0.57022 0.0
C324 C 0.33619 0.50497 0.25205 0.0
C325 C 0.33935 0.50304 0.17162 0.0
C326 C 0.35222 0.50817 0.30278 0.0
C327 C 0.4071 0.5022 0.3173 0.0
H328 H 0.40115 0.53672 0.49639 0.0
C329 C 0.47282 0.52046 0.52794 0.0
C330 C 0.46826 0.52134 0.60761 0.0
C331 C 0.45759 0.5187 0.47225 0.0
C332 C 0.40304 0.52685 0.44716 0.0
H333 H 0.36161 0.50382 0.08075 0.0
H334 H 0.38969 0.50952 0.1691 0.0
H335 H 0.37376 0.5332 0.40451 0.0
H336 H 0.44421 0.52117 0.69149 0.0
H337 H 0.41778 0.51793 0.59528 0.0
H338 H 0.43637 0.49574 0.36047 0.0
C339 C 0.37488 0.50814 0.19338 0.0
C340 C 0.38729 0.52484 0.39431 0.0
C341 C 0.35881 0.505 0.14266 0.0
C342 C 0.44821 0.52053 0.63046 0.0
C343 C 0.43302 0.51879 0.57512 0.0
C344 C 0.42288 0.50419 0.37031 0.0
C345 C 0.37184 0.50961 0.27429 0.0
C346 C 0.389 0.51235 0.32894 0.0
C347 C 0.43744 0.51795 0.49512 0.0
C348 C 0.42101 0.5164 0.43646 0.0
H349 H 0.32131 0.50364 0.27582 0.0
H350 H 0.34926 0.50904 0.36464 0.0
H351 H 0.40892 0.49226 0.26822 0.0
H352 H 0.48809 0.52151 0.50858 0.0
H353 H 0.46158 0.51835 0.41123 0.0
C354 C 1.00667 0.35232 0.13601 0.0
C355 C 0.02025 0.33647 0.14307 0.0
C356 C 1.00886 0.36963 0.1809 0.0
C357 C 0.03009 0.38634 0.36742 0.0
H358 H 0.02263 0.43958 0.28651 0.0
C359 C 0.04305 0.45435 0.56467 0.0
C360 C 0.03028 0.47073 0.55687 0.0
C361 C 0.043 0.43905 0.50939 0.0
C362 C 0.02453 0.42483 0.31048 0.0
H363 H 0.04684 0.32672 0.20315 0.0
H364 H 0.05063 0.35663 0.28128 0.0
H365 H 0.02005 0.41102 0.199 0.0
H366 H 1.00779 0.48425 0.48368 0.0
H367 H 1.00719 0.4573 0.38822 0.0
H368 H 0.03394 0.39979 0.47898 0.0
C369 C 0.03826 0.3557 0.24092 0.0
C370 C 0.0231 0.40844 0.26006 0.0
C371 C 0.03616 0.33851 0.19565 0.0
C372 C 0.01787 0.47182 0.49111 0.0
C373 C 0.0176 0.45635 0.43618 0.0
C374 C 0.03129 0.40264 0.41785 0.0
C375 C 0.0245 0.37138 0.23503 0.0
C376 C 0.02598 0.38898 0.28787 0.0
C377 C 0.02992 0.43952 0.44524 0.0
C378 C 0.02866 0.42218 0.3903 0.0
H379 H 0.99405 0.35112 0.09703 0.0
H380 H 0.99787 0.38132 0.17536 0.0
H381 H 0.032 0.37156 0.39123 0.0
H382 H 0.05292 0.45318 0.61436 0.0
H383 H 0.05315 0.42673 0.51764 0.0
C384 C 0.85597 0.01491 0.28152 0.0
C385 C 0.83794 1.00518 0.26537 0.0
C386 C 0.87168 0.01468 0.2279 0.0
C387 C 0.89067 0.98791 0.0525 0.0
H388 H 0.92291 0.03527 0.02797 0.0
C389 C 0.94727 0.998 0.79959 0.0
C390 C 0.96536 1.00762 0.81619 0.0
C391 C 0.9322 0.99683 0.85584 0.0
C392 C 0.91423 0.02182 0.03468 0.0
H393 H 0.82243 0.98729 0.17921 0.0
H394 H 0.84956 0.98726 0.08521 0.0
H395 H 0.89568 0.03514 0.12145 0.0
H396 H 0.98202 0.02309 0.90558 0.0
H397 H 0.95579 0.02101 0.00388 0.0
H398 H 0.90914 0.97472 0.96474 0.0
C399 C 0.85173 0.99488 0.14007 0.0
C400 C 0.89856 0.02173 0.08851 0.0
C401 C 0.83603 0.99504 0.19397 0.0
C402 C 0.96822 0.01565 0.89089 0.0
C403 C 0.95311 0.01457 0.94705 0.0
C404 C 0.9063 0.98804 0.99836 0.0
C405 C 0.86979 1.00474 0.15612 0.0
C406 C 0.88653 1.00477 0.09836 0.0
C407 C 0.9348 1.00532 0.93008 0.0
C408 C 0.91832 1.00499 0.9887 0.0
H409 H 0.85792 0.02273 0.33615 0.0
H410 H 0.8854 0.02215 0.24327 0.0
H411 H 0.88201 0.97445 0.05911 0.0
H412 H 0.94461 0.99167 0.74255 0.0
H413 H 0.91827 0.98974 0.84034 0.0
C414 C 0.53566 0.85758 0.24627 0.0
C415 C 0.52196 0.84183 0.24102 0.0
C416 C 0.53529 0.87319 0.19209 0.0
C417 C 0.51949 0.88574 0.99284 0.0
H418 H 0.51944 0.94044 0.06397 0.0
C419 C 0.502 0.9494 0.78025 0.0
C420 C 0.51146 0.96786 0.78916 0.0
C421 C 0.50385 0.93462 0.8369 0.0
C422 C 0.51977 0.92529 0.04272 0.0
H423 H 0.49724 0.83007 0.17464 0.0
H424 H 0.49704 0.85687 0.07843 0.0
H425 H 0.5222 0.91341 0.15842 0.0
H426 H 0.53037 0.98532 0.86469 0.0
H427 H 0.53418 0.95928 0.96339 0.0
H428 H 0.51759 0.89732 0.87742 0.0
C429 C 0.50802 0.85723 0.12461 0.0
C430 C 0.52128 0.90978 0.0971 0.0
C431 C 0.50817 0.84182 0.17948 0.0
C432 C 0.52275 0.97131 0.85667 0.0
C433 C 0.52487 0.95633 0.91327 0.0
C434 C 0.51827 0.90119 0.93851 0.0
C435 C 0.52146 0.8732 0.13055 0.0
C436 C 0.52089 0.8898 0.07285 0.0
C437 C 0.51557 0.93765 0.90386 0.0
C438 C 0.51805 0.92125 0.96247 0.0
H439 H 0.54648 0.85797 0.29302 0.0
H440 H 0.54595 0.88518 0.19794 0.0
H441 H 0.51949 0.87054 0.97208 0.0
H442 H 0.49304 0.94634 0.72916 0.0
H443 H 0.49594 0.92079 0.82799 0.0
C444 C 0.70306 0.54659 0.15492 0.0
C445 C 0.70141 0.53755 0.22852 0.0
C446 C 0.68746 0.54534 0.10083 0.0
C447 C 0.64121 0.51673 0.05557 0.0
H448 H 0.6294 0.56187 0.92332 0.0
C449 C 0.57095 0.51919 0.85947 0.0
C450 C 0.57349 0.52642 0.78338 0.0
C451 C 0.58621 0.5211 0.91472 0.0
C452 C 0.63259 0.54906 0.95932 0.0
H453 H 0.68182 0.52075 0.30357 0.0
H454 H 0.65451 0.5188 0.21011 0.0
H455 H 0.65668 0.56392 0.0167 0.0
H456 H 0.59384 0.54166 0.70605 0.0
H457 H 0.62045 0.54501 0.80223 0.0
H458 H 0.61703 0.50193 0.99844 0.0
C459 C 0.66804 0.52637 0.19305 0.0
C460 C 0.64831 0.5502 0.01288 0.0
C461 C 0.68366 0.52755 0.24689 0.0
C462 C 0.59143 0.53596 0.76424 0.0
C463 C 0.60665 0.53796 0.81955 0.0
C464 C 0.62545 0.51562 0.00228 0.0
C465 C 0.66968 0.53524 0.11911 0.0
C466 C 0.6529 0.53404 0.06176 0.0
C467 C 0.60435 0.53037 0.89535 0.0
C468 C 0.62093 0.53175 0.95328 0.0
H469 H 0.71639 0.55464 0.13883 0.0
H470 H 0.68942 0.55217 0.04433 0.0
H471 H 0.64444 0.50383 0.09106 0.0
H472 H 0.55728 0.51178 0.87603 0.0
H473 H 0.58379 0.51532 0.97276 0.0
C474 C 1.00606 0.67914 0.25264 0.0
C475 C 0.01995 0.69474 0.24733 0.0
C476 C 1.00594 0.66374 0.19749 0.0
C477 C 0.02064 0.65187 0.99646 0.0
H478 H 0.02055 0.59683 0.06316 0.0
C479 C 0.03757 0.58951 0.77841 0.0
C480 C 0.02782 0.57113 0.78486 0.0
C481 C 0.03594 0.60384 0.83684 0.0
C482 C 0.02026 0.61208 0.04322 0.0
H483 H 0.04464 0.70625 0.18036 0.0
H484 H 0.04397 0.67986 0.08256 0.0
H485 H 0.01832 0.62342 0.15996 0.0
H486 H 1.0088 0.55327 0.85834 0.0
H487 H 1.00538 0.5786 0.96039 0.0
H488 H 0.0221 0.64085 0.88009 0.0
C489 C 0.03317 0.67952 0.12933 0.0
C490 C 0.01904 0.62734 0.09889 0.0
C491 C 0.0335 0.69472 0.1851 0.0
C492 C 0.01659 0.56725 0.85206 0.0
C493 C 1.01468 0.5818 0.91055 0.0
C494 C 0.02157 0.63668 0.9409 0.0
C495 C 0.01949 0.66376 0.13507 0.0
C496 C 0.01954 0.64743 0.07618 0.0
C497 C 0.02416 0.60046 0.90325 0.0
C498 C 0.02179 0.61652 0.96329 0.0
H499 H 0.99547 0.67871 0.30012 0.0
H500 H 0.99513 0.65189 0.20329 0.0
H501 H 0.02069 0.66717 0.9769 0.0
H502 H 0.04654 0.59288 0.7277 0.0
H503 H 0.04401 0.61764 0.82964 0.0
C504 C 0.05269 0.25484 0.28673 0.0
C505 C 0.06549 0.25748 0.22327 0.0
C506 C 0.05731 0.24091 0.34405 0.0
C507 C 0.08228 0.19329 0.33269 0.0
H508 H 0.05222 0.18461 0.52214 0.0
C509 C 0.038 0.12301 0.37975 0.0
C510 C 0.0377 0.11394 0.45311 0.0
C511 C 0.04727 0.14135 0.36983 0.0
C512 C 0.06105 0.1868 0.47012 0.0
H513 H 0.0944 0.25046 0.17544 0.0
H514 H 0.10315 0.22698 0.2782 0.0
H515 H 0.0612 0.21843 0.48417 0.0
H516 H 0.04639 0.11705 0.57418 0.0
H517 H 0.06253 0.14939 0.55671 0.0
H518 H 0.08154 0.16181 0.31727 0.0
C519 C 0.08914 0.23488 0.28232 0.0
C520 C 0.0661 0.20617 0.44807 0.0
C521 C 0.08428 0.24845 0.2239 0.0
C522 C 0.04661 0.12368 0.51675 0.0
C523 C 0.05576 0.14216 0.50694 0.0
C524 C 0.07736 0.17404 0.35494 0.0
C525 C 0.0749 0.22959 0.33879 0.0
C526 C 0.0757 0.20971 0.37655 0.0
C527 C 0.05635 0.15105 0.43314 0.0
C528 C 0.06568 0.17072 0.42124 0.0
H529 H 0.03807 0.26167 0.287 0.0
H530 H 0.04594 0.23743 0.38652 0.0
H531 H 0.08961 0.19519 0.27712 0.0
H532 H 0.03133 0.11579 0.32977 0.0
H533 H 0.04713 0.14807 0.31255 0.0
C534 C 0.27361 0.98197 0.3137 0.0
C535 C 0.26918 0.97329 0.24167 0.0
C536 C 0.28601 0.97212 0.36624 0.0
C537 C 0.32834 0.93909 0.3397 0.0
H538 H 0.33949 0.95704 0.54955 0.0
C539 C 0.40865 0.94688 0.44169 0.0
C540 C 0.41241 0.96654 0.46494 0.0
C541 C 0.38913 0.93968 0.43901 0.0
C542 C 0.33652 0.95162 0.4913 0.0
H543 H 0.27145 0.94662 0.17208 0.0
H544 H 0.29216 0.9288 0.26574 0.0
H545 H 0.30523 0.95704 0.50183 0.0
H546 H 0.39906 0.9935 0.51002 0.0
H547 H 0.36505 0.98114 0.50421 0.0
H548 H 0.35963 0.93473 0.32751 0.0
C549 C 0.28687 0.94351 0.28075 0.0
C550 C 0.3169 0.95167 0.46383 0.0
C551 C 0.27482 0.95357 0.22746 0.0
C552 C 0.39651 0.97841 0.49037 0.0
C553 C 0.37706 0.97119 0.4883 0.0
C554 C 0.34785 0.93886 0.36738 0.0
C555 C 0.29401 0.95333 0.34758 0.0
C556 C 0.31277 0.94668 0.3859 0.0
C557 C 0.37308 0.95196 0.46033 0.0
C558 C 0.35228 0.94631 0.44167 0.0
H559 H 0.26947 0.99725 0.32542 0.0
H560 H 0.29106 0.98027 0.41685 0.0
H561 H 0.32598 0.93522 0.27925 0.0
H562 H 0.4207 0.93739 0.42224 0.0
H563 H 0.3865 0.92478 0.41745 0.0
C564 C 0.4801 0.27879 0.29444 0.0
C565 C 0.46856 0.27689 0.22686 0.0
C566 C 0.47444 0.29216 0.35245 0.0
C567 C 0.44964 0.34001 0.34284 0.0
H568 H 0.47536 0.34636 0.54328 0.0
C569 C 0.47208 0.41715 0.44653 0.0
C570 C 0.49233 0.41829 0.46671 0.0
C571 C 0.46243 0.39881 0.44326 0.0
C572 C 0.46792 0.34479 0.48765 0.0
H573 H 0.44063 0.28457 0.172 0.0
H574 H 0.43005 0.30706 0.27555 0.0
H575 H 0.46786 0.31302 0.49496 0.0
H576 H 0.51796 0.40126 0.50467 0.0
H577 H 0.50135 0.36914 0.49605 0.0
H578 H 0.45065 0.37154 0.33321 0.0
C579 C 0.44392 0.29904 0.28249 0.0
C580 C 0.46361 0.32571 0.45996 0.0
C581 C 0.44981 0.28601 0.22356 0.0
C582 C 0.50247 0.4008 0.48714 0.0
C583 C 0.49283 0.38244 0.48372 0.0
C584 C 0.4538 0.35899 0.37068 0.0
C585 C 0.45704 0.30365 0.34387 0.0
C586 C 0.45548 0.32306 0.38511 0.0
C587 C 0.47283 0.38119 0.45983 0.0
C588 C 0.46395 0.36156 0.44139 0.0
H589 H 0.49465 0.27188 0.29801 0.0
H590 H 0.48497 0.29512 0.39876 0.0
H591 H 0.4436 0.33879 0.28463 0.0
H592 H 0.46384 0.43038 0.43057 0.0
H593 H 0.44697 0.39835 0.42527 0.0
C594 C 0.25654 0.53829 0.31821 0.0
C595 C 0.26731 0.54914 0.2631 0.0
C596 C 0.24564 0.54811 0.37542 0.0
C597 C 0.21815 0.59459 0.38197 0.0
H598 H 0.1937 0.56609 0.55259 0.0
C599 C 0.13549 0.58287 0.39596 0.0
C600 C 0.12633 0.57642 0.46458 0.0
C601 C 0.15557 0.58823 0.39631 0.0
C602 C 0.20039 0.57479 0.50657 0.0
H603 H 0.27712 0.57839 0.22829 0.0
H604 H 0.25851 0.59579 0.33022 0.0
H605 H 0.2279 0.55911 0.51816 0.0
H606 H 0.13007 0.57248 0.58882 0.0
H607 H 0.16498 0.58256 0.5903 0.0
H608 H 0.1906 0.61016 0.36995 0.0
C609 C 0.25808 0.57971 0.32863 0.0
C610 C 0.22006 0.57055 0.48613 0.0
C611 C 0.26891 0.5698 0.27083 0.0
C612 C 0.13699 0.57715 0.53488 0.0
C613 C 0.15699 0.58284 0.53556 0.0
C614 C 0.19865 0.59918 0.40357 0.0
C615 C 0.24527 0.56905 0.37829 0.0
C616 C 0.22854 0.57913 0.41934 0.0
C617 C 0.16683 0.58749 0.46563 0.0
C618 C 0.18899 0.58812 0.4618 0.0
H619 H 0.25503 0.52232 0.31246 0.0
H620 H 0.23592 0.53925 0.41168 0.0
H621 H 0.22415 0.6018 0.33083 0.0
H622 H 0.12758 0.58235 0.34104 0.0
H623 H 0.16253 0.59142 0.34092 0.0
C624 C 0.05579 0.77911 0.10069 0.0
C625 C 0.06396 0.77432 0.17331 0.0
C626 C 0.06599 0.7918 0.05039 0.0
C627 C 0.09852 0.83408 0.08337 0.0
H628 H 0.08251 0.84556 0.87145 0.0
C629 C 0.08988 0.91438 0.98555 0.0
C630 C 0.07036 0.91772 0.95929 0.0
C631 C 0.0976 0.89507 0.98792 0.0
C632 C 0.08739 0.8425 0.93034 0.0
H633 H 0.09018 0.77633 0.24602 0.0
H634 H 0.10854 0.79772 0.1565 0.0
H635 H 0.08243 0.81124 0.91763 0.0
H636 H 0.04425 0.90392 0.90851 0.0
H637 H 0.05747 0.8703 0.91396 0.0
H638 H 0.10231 0.86531 0.09774 0.0
C639 C 0.09396 0.79242 0.13936 0.0
C640 C 0.08731 0.82286 0.95689 0.0
C641 C 0.08356 0.78004 0.19035 0.0
C642 C 0.0592 0.90167 0.93062 0.0
C643 C 0.06693 0.88246 0.93244 0.0
C644 C 0.09876 0.85362 0.05667 0.0
C645 C 0.08462 0.79975 0.07184 0.0
C646 C 0.09155 0.81859 0.03535 0.0
C647 C 0.08597 0.87885 0.96334 0.0
C648 C 0.09195 0.85816 0.98154 0.0
H649 H 0.04064 0.77488 0.08658 0.0
H650 H 0.05821 0.79702 0.99914 0.0
H651 H 0.10182 0.83158 0.14425 0.0
H652 H 0.09884 0.92655 0.00744 0.0
H653 H 0.11235 0.89274 0.01174 0.0
C654 C 0.7489 0.04737 0.11393 0.0
C655 C 0.76096 0.03044 0.12025 0.0
C656 C 0.73992 0.05212 0.0433 0.0
C657 C 0.71999 0.02215 0.88647 0.0
H658 H 0.68977 0.07071 0.86024 0.0
C659 C 0.637 0.02254 0.89866 0.0
C660 C 0.62551 0.03738 0.86312 0.0
C661 C 0.65761 0.02234 0.8899 0.0
C662 C 0.69824 0.05706 0.86442 0.0
H663 H 0.77563 1.007 0.05542 0.0
H664 H 0.76038 0.01564 0.93107 0.0
H665 H 0.72325 0.07223 0.91351 0.0
H666 H 0.62644 0.06288 0.78604 0.0
H667 H 0.66269 0.0627 0.77154 0.0
H668 H 0.69474 1.00695 0.83971 0.0
C669 C 0.75729 0.02488 0.98124 0.0
C670 C 0.71742 0.05791 0.89586 0.0
C671 C 0.76617 0.02001 0.05239 0.0
C672 C 0.635 0.05153 0.81565 0.0
C673 C 0.6557 0.05133 0.80679 0.0
C674 C 0.701 0.02135 0.85379 0.0
C675 C 0.74289 0.04006 0.97727 0.0
C676 C 0.72771 0.0403 0.91401 0.0
C677 C 0.66727 0.03696 0.84519 0.0
C678 C 0.68929 0.03859 0.84906 0.0
H679 H 0.74504 0.05594 0.16516 0.0
H680 H 0.72903 0.06398 0.0433 0.0
H681 H 0.72745 1.00821 0.89813 0.0
H682 H 0.63016 1.01154 0.93608 0.0
H683 H 0.66602 1.01132 0.92195 0.0
C684 C 0.46895 0.76222 0.12177 0.0
C685 C 0.48979 0.76297 0.12279 0.0
C686 C 0.45911 0.7509 0.06536 0.0
C687 C 0.46941 0.71428 0.90336 0.0
H688 H 0.43394 0.68168 0.02685 0.0
C689 C 0.46881 0.63083 0.8558 0.0
C690 C 0.47112 0.62031 0.92583 0.0
C691 C 0.46184 0.65038 0.85632 0.0
C692 C 0.44379 0.69059 0.99125 0.0
H693 H 0.51674 0.75436 0.06321 0.0
H694 H 0.5 0.73405 0.96723 0.0
H695 H 0.43987 0.71569 0.06469 0.0
H696 H 0.46681 0.62132 0.05046 0.0
H697 H 0.45549 0.65553 0.0525 0.0
H698 H 0.47531 0.68836 0.83599 0.0
C699 C 0.49086 0.74244 0.00733 0.0
C700 C 0.44695 0.71037 0.01213 0.0
C701 C 0.5006 0.75405 0.06269 0.0
C702 C 0.46508 0.62912 0.99574 0.0
C703 C 0.45842 0.64876 0.99651 0.0
C704 C 0.46666 0.69432 0.88374 0.0
C705 C 0.47006 0.73965 0.01103 0.0
C706 C 0.461 0.72203 0.97191 0.0
C707 C 0.45739 0.65991 0.92711 0.0
C708 C 0.45493 0.68189 0.93103 0.0
H709 H 0.46041 0.76906 0.16806 0.0
H710 H 0.44306 0.74966 0.06861 0.0
H711 H 0.47964 0.72304 0.86885 0.0
H712 H 0.47311 0.62415 0.8009 0.0
H713 H 0.46082 0.65829 0.80161 0.0
C714 C 0.77519 0.50486 0.05167 0.0
C715 C 0.77851 0.49828 0.12816 0.0
C716 C 0.78482 0.49558 0.98934 0.0
C717 C 0.82237 0.45565 0.94288 0.0
H718 H 0.84963 0.50001 0.84658 0.0
C719 C 0.90628 0.46218 0.92068 0.0
C720 C 0.91501 0.47354 0.86127 0.0
C721 C 0.8857 0.4593 0.92243 0.0
C722 C 0.84199 0.48727 0.87081 0.0
H723 H 0.79186 0.47512 0.19837 0.0
H724 H 0.8092 0.45946 0.09122 0.0
H725 H 0.8174 0.50517 0.90475 0.0
H726 H 0.90931 0.48906 0.753 0.0
H727 H 0.87328 0.48431 0.75674 0.0
H728 H 0.84812 0.43827 0.91455 0.0
C729 C 0.79921 0.47163 0.07811 0.0
C730 C 0.82332 0.49021 0.90421 0.0
C731 C 0.78945 0.48078 0.14008 0.0
C732 C 0.90292 0.4807 0.80061 0.0
C733 C 0.88233 0.47785 0.8024 0.0
C734 C 0.84118 0.45275 0.90999 0.0
C735 C 0.79809 0.47974 0.00275 0.0
C736 C 0.81384 0.47475 0.94504 0.0
C737 C 0.87344 0.46772 0.86482 0.0
C738 C 0.85164 0.46884 0.87771 0.0
H739 H 0.76667 0.51822 0.04057 0.0
H740 H 0.78319 0.50186 0.93168 0.0
H741 H 0.81522 0.44328 0.9719 0.0
H742 H 0.91518 0.45653 0.96837 0.0
H743 H 0.87931 0.45168 0.97196 0.0
C744 C 0.05266 0.22936 0.9328 0.0
C745 C 0.03708 0.23968 0.96954 0.0
C746 C 0.04942 0.21067 0.89907 0.0
C747 C 0.01659 0.16718 0.92273 0.0
H748 H 0.04457 0.14731 0.74135 0.0
C749 C 0.02476 0.08273 0.86133 0.0
C750 C 0.02296 0.07616 0.78386 0.0
C751 C 0.02562 0.1031 0.87887 0.0
C752 C 0.03651 0.1526 0.79186 0.0
H753 H 1.0057 0.23881 0.9973 0.0
H754 H 0.99985 0.20622 0.93729 0.0
H755 H 0.0465 0.18256 0.77451 0.0
H756 H 0.02075 0.08619 0.66409 0.0
H757 H 0.02228 0.12151 0.69466 0.0
H758 H 1.00665 0.13725 0.94034 0.0
C759 C 1.01465 0.21256 0.93477 0.0
C760 C 0.03774 0.17284 0.81121 0.0
C761 C 0.01789 0.23138 0.96799 0.0
C762 C 0.02225 0.09058 0.72444 0.0
C763 C 0.02319 0.11092 0.74195 0.0
C764 C 0.01547 0.14694 0.90368 0.0
C765 C 0.03052 0.20165 0.90205 0.0
C766 C 0.02792 0.18042 0.87731 0.0
C767 C 0.02479 0.11752 0.81947 0.0
C768 C 0.02555 0.13928 0.83837 0.0
H769 H 0.06768 0.23522 0.9346 0.0
H770 H 0.06205 0.20275 0.87519 0.0
H771 H 1.00902 0.17234 0.97457 0.0
H772 H 0.02536 0.07215 0.90872 0.0
H773 H 0.02713 0.10754 0.93917 0.0
C774 C 0.30354 0.99361 0.97537 0.0
C775 C 0.29307 1.00941 0.01005 0.0
C776 C 0.32173 0.99683 0.93785 0.0
C777 C 0.36417 0.03204 0.93627 0.0
H778 H 0.38158 0.99931 0.76352 0.0
C779 C 0.44762 0.02488 0.85096 0.0
C780 C 0.45255 0.02265 0.77184 0.0
C781 C 0.42767 0.02473 0.87534 0.0
C782 C 0.37699 1.00878 0.81119 0.0
H783 H 0.29312 0.04119 0.02907 0.0
H784 H 0.32483 0.047 0.96185 0.0
H785 H 0.34728 0.99729 0.80797 0.0
H786 H 0.44005 0.01879 0.65625 0.0
H787 H 0.40549 0.01889 0.69834 0.0
H788 H 0.39385 0.04372 0.93875 0.0
C789 C 0.31907 0.03199 0.9649 0.0
C790 C 0.35727 1.00745 0.8374 0.0
C791 C 0.30074 0.02874 0.00244 0.0
C792 C 0.43693 0.02047 0.71776 0.0
C793 C 0.41701 0.02039 0.74206 0.0
C794 C 0.38391 0.03341 0.9099 0.0
C795 C 0.33007 0.01599 0.93368 0.0
C796 C 0.3506 0.01884 0.90105 0.0
C797 C 0.41203 0.0224 0.8213 0.0
C798 C 0.39071 0.02163 0.84751 0.0
H799 H 0.29803 0.97853 0.98018 0.0
H800 H 0.3297 0.98407 0.91548 0.0
H801 H 0.35974 0.04092 0.98588 0.0
H802 H 0.45919 0.02651 0.89443 0.0
H803 H 0.42455 0.02601 0.93695 0.0
C804 C 0.48356 0.30822 0.9456 0.0
C805 C 0.49938 0.29782 0.98053 0.0
C806 C 0.48674 0.3266 0.90945 0.0
C807 C 0.52061 0.36961 0.92009 0.0
H808 H 0.4909 0.38789 0.74028 0.0
C809 C 0.51292 0.45337 0.84651 0.0
C810 C 0.51398 0.45913 0.7679 0.0
C811 C 0.51196 0.43322 0.86726 0.0
C812 C 0.49945 0.38304 0.79024 0.0
H813 H 0.5311 0.29822 0.00223 0.0
H814 H 0.53678 0.33035 0.93833 0.0
H815 H 0.48878 0.3531 0.77983 0.0
H816 H 0.51469 0.44788 0.64947 0.0
H817 H 0.5129 0.41291 0.68556 0.0
H818 H 0.53123 0.39953 0.93076 0.0
C819 C 0.52185 0.3243 0.93928 0.0
C820 C 0.49812 0.36307 0.81331 0.0
C821 C 0.51867 0.30575 0.9749 0.0
C822 C 0.51379 0.44412 0.71062 0.0
C823 C 0.51271 0.42398 0.73135 0.0
C824 C 0.52185 0.38959 0.89733 0.0
C825 C 0.50581 0.33523 0.90789 0.0
C826 C 0.50853 0.35609 0.87903 0.0
C827 C 0.51193 0.41821 0.81005 0.0
C828 C 0.51113 0.39668 0.83255 0.0
H829 H 0.4685 0.30256 0.94972 0.0
H830 H 0.47399 0.33455 0.88666 0.0
H831 H 0.52869 0.36491 0.97144 0.0
H832 H 0.51302 0.46442 0.89234 0.0
H833 H 0.51106 0.42942 0.92839 0.0
C834 C 0.23222 0.54071 0.98904 0.0
C835 C 0.24349 0.52392 0.00982 0.0
C836 C 0.21414 0.53873 0.94941 0.0
C837 C 0.17312 0.50297 0.91949 0.0
H838 H 0.15498 0.54243 0.77123 0.0
C839 C 0.08962 0.51194 0.83605 0.0
C840 C 0.08492 0.51692 0.75863 0.0
C841 C 0.10949 0.51159 0.86162 0.0
C842 C 0.15979 0.53112 0.81192 0.0
H843 H 0.24493 0.49186 0.00273 0.0
H844 H 0.21326 0.48829 0.93226 0.0
H845 H 0.18914 0.54345 0.81838 0.0
H846 H 0.09774 0.52536 0.64774 0.0
H847 H 0.13211 0.52454 0.69158 0.0
H848 H 0.14375 0.49059 0.91264 0.0
C849 C 0.21839 0.50305 0.94742 0.0
C850 C 0.17941 0.53183 0.83964 0.0
C851 C 0.23666 0.50507 0.98682 0.0
C852 C 0.10067 0.52144 0.70762 0.0
C853 C 0.12048 0.52111 0.73308 0.0
C854 C 0.15346 0.50227 0.89181 0.0
C855 C 0.20669 0.51986 0.92957 0.0
C856 C 0.18632 0.51792 0.89458 0.0
C857 C 0.12523 0.51625 0.81056 0.0
C858 C 0.14643 0.51647 0.83818 0.0
H859 H 0.23707 0.55543 0.00628 0.0
H860 H 0.20556 0.55202 0.93766 0.0
H861 H 0.17779 0.49211 0.96227 0.0
H862 H 0.07795 0.5084 0.87723 0.0
H863 H 0.11247 0.50803 0.92197 0.0
C864 C 0.04324 0.80337 0.44931 0.0
C865 C 0.02761 0.79349 0.41089 0.0
C866 C 0.03996 0.82134 0.48835 0.0
C867 C 1.00518 0.86419 0.48652 0.0
H868 H 0.03735 0.88155 0.66114 0.0
C869 C 1.01295 0.9475 0.56689 0.0
C870 C 1.01486 0.95292 0.64566 0.0
C871 C 1.01306 0.92746 0.54434 0.0
C872 C 0.02802 0.87697 0.61294 0.0
H873 H 0.99595 0.79422 0.38768 0.0
H874 H 0.98999 0.82536 0.45789 0.0
H875 H 0.03916 0.84717 0.61776 0.0
H876 H 0.01826 0.94119 0.76256 0.0
H877 H 0.01812 0.90638 0.72351 0.0
H878 H 0.99383 0.89391 0.48238 0.0
C879 C 1.00496 0.81941 0.45635 0.0
C880 C 0.02925 0.8572 0.58735 0.0
C881 C 1.00829 0.80136 0.41714 0.0
C882 C 0.01679 0.93768 0.70129 0.0
C883 C 0.01684 0.91762 0.67875 0.0
C884 C 1.0039 0.88393 0.51229 0.0
C885 C 0.02088 0.83 0.49046 0.0
C886 C 0.01808 0.85055 0.52294 0.0
C887 C 1.01502 0.91217 0.59984 0.0
C888 C 0.01553 0.89075 0.57518 0.0
H889 H 0.05832 0.79771 0.44566 0.0
H890 H 0.05267 0.82896 0.51308 0.0
H891 H 0.99648 0.85982 0.43628 0.0
H892 H 1.01154 0.95875 0.52219 0.0
H893 H 1.012 0.92401 0.48292 0.0
C894 C 0.717 0.99724 0.33638 0.0
C895 C 0.73373 1.0062 0.37077 0.0
C896 C 0.69878 0.9964 0.37553 0.0
C897 C 0.67001 0.02211 0.52913 0.0
H898 H 0.63351 0.97823 0.49678 0.0
C899 C 0.58988 0.0211 0.66008 0.0
C900 C 0.57454 1.01377 0.61207 0.0
C901 C 0.60994 0.01919 0.63847 0.0
C902 C 0.64342 0.99071 0.50594 0.0
H903 H 0.74465 0.02075 0.47463 0.0
H904 H 0.71267 0.01913 0.5443 0.0
H905 H 0.66754 0.97585 0.44905 0.0
H906 H 0.56849 0.9988 0.50283 0.0
H907 H 0.6033 0.99569 0.46468 0.0
H908 H 0.64573 0.03703 0.58545 0.0
C909 C 0.71365 1.01289 0.48633 0.0
C910 C 0.66302 0.98933 0.47861 0.0
C911 C 0.73204 1.01362 0.44696 0.0
C912 C 0.57984 1.00457 0.54154 0.0
C913 C 0.59988 1.00263 0.51994 0.0
C914 C 0.65036 0.02347 0.55673 0.0
C915 C 0.69666 1.00455 0.45051 0.0
C916 C 0.67652 1.00516 0.48822 0.0
C917 C 0.61526 1.00989 0.56807 0.0
C918 C 0.63665 1.00795 0.54406 0.0
H919 H 0.71783 0.99144 0.2776 0.0
H920 H 0.68612 0.99011 0.34529 0.0
H921 H 0.67984 0.0347 0.53713 0.0
H922 H 0.58641 0.02853 0.71424 0.0
H923 H 0.62129 0.02486 0.67739 0.0
C924 C 0.53539 0.73315 0.3927 0.0
C925 C 0.51638 0.74072 0.37556 0.0
C926 C 0.53754 0.71474 0.43057 0.0
C927 C 0.5095 0.67585 0.54241 0.0
H928 H 0.54892 0.64001 0.4561 0.0
C929 C 0.52072 0.59622 0.6646 0.0
C930 C 0.52446 0.58074 0.61138 0.0
C931 C 0.52082 0.61615 0.64078 0.0
C932 C 0.53773 0.64975 0.48067 0.0
H933 H 0.48477 0.73544 0.38883 0.0
H934 H 0.4884 0.70364 0.45469 0.0
H935 H 0.54722 0.67425 0.41012 0.0
H936 H 0.53127 0.57441 0.49053 0.0
H937 H 0.53122 0.60907 0.44875 0.0
H938 H 0.49955 0.65122 0.61099 0.0
C939 C 0.50174 0.71177 0.43941 0.0
C940 C 0.53695 0.66955 0.45505 0.0
C941 C 0.49963 0.73005 0.4014 0.0
C942 C 0.52838 0.58584 0.53343 0.0
C943 C 0.52849 0.60581 0.50951 0.0
C944 C 0.51029 0.65607 0.56804 0.0
C945 C 0.52071 0.70353 0.45268 0.0
C946 C 0.52267 0.68287 0.48488 0.0
C947 C 0.52465 0.62129 0.56279 0.0
C948 C 0.52429 0.64263 0.53706 0.0
H949 H 0.54858 0.7409 0.37284 0.0
H950 H 0.55239 0.70905 0.44079 0.0
H951 H 0.49842 0.68563 0.56751 0.0
H952 H 0.5176 0.593 0.72497 0.0
H953 H 0.51805 0.62754 0.68396 0.0
C954 C 0.81833 0.54636 0.33065 0.0
C955 C 0.80318 0.5341 0.35993 0.0
C956 C 0.8369 0.54734 0.3676 0.0
C957 C 0.86932 0.51715 0.49684 0.0
H958 H 0.90279 0.56406 0.49321 0.0
C959 C 0.94806 0.51799 0.63578 0.0
C960 C 0.96336 0.52754 0.59415 0.0
C961 C 0.92813 0.51979 0.61268 0.0
C962 C 0.89371 0.55077 0.49415 0.0
H963 H 0.79534 0.51354 0.45144 0.0
H964 H 0.82756 0.51569 0.51809 0.0
H965 H 0.86844 0.56619 0.44772 0.0
H966 H 0.96944 0.54657 0.49517 0.0
H967 H 0.93471 0.54959 0.4546 0.0
H968 H 0.89461 0.50173 0.54301 0.0
C969 C 0.82526 0.52442 0.46596 0.0
C970 C 0.87394 0.55199 0.46805 0.0
C971 C 0.80667 0.52342 0.42869 0.0
C972 C 0.95811 0.53901 0.5288 0.0
C973 C 0.93814 0.54087 0.50582 0.0
C974 C 0.88904 0.51597 0.52328 0.0
C975 C 0.84086 0.53597 0.43471 0.0
C976 C 0.86149 0.53514 0.4682 0.0
C977 C 0.92286 0.53121 0.54726 0.0
C978 C 0.90159 0.53271 0.52161 0.0
H979 H 0.81615 0.55434 0.27655 0.0
H980 H 0.84849 0.55618 0.34085 0.0
H981 H 0.86043 0.50373 0.49662 0.0
H982 H 0.95148 0.50889 0.68589 0.0
H983 H 0.9168 0.51232 0.6465 0.0
loop_
_geom_bond_atom_site_label_1
_geom_bond_atom_site_label_2
_geom_bond_distance
_geom_bond_site_symmetry_2
_ccdc_geom_bond_type
H0 C7 0.929 . S
H1 C10 0.930 . S
H2 C12 0.929 . S
H3 C4 0.969 . S
C4 H3 0.969 . S
C4 O5 1.550 . S
C4 H6 0.973 . S
O5 C4 1.550 . S
O5 C11 1.412 . S
H6 C4 0.973 . S
C7 H0 0.929 . S
C7 C8 1.400 . S
C7 C9 1.364 . S
C8 C7 1.400 . S
C8 C12 1.377 . S
C9 C7 1.364 . S
C9 C10 1.374 . S
C10 H1 0.930 . S
C10 C9 1.374 . S
C10 C11 1.383 . S
C11 O5 1.412 . S
C11 C10 1.383 . S
C11 C12 1.394 . S
C12 H2 0.929 . S
C12 C8 1.377 . S
C12 C11 1.394 . S
H13 C20 0.929 . S
H14 C23 0.930 . S
H15 C25 0.929 . S
H16 C17 0.969 . S
C17 H16 0.969 . S
C17 O18 1.550 1_455 S
C17 H19 0.973 1_455 S
O18 C17 1.550 1_655 S
O18 C24 1.412 . S
H19 C17 0.973 1_655 S
C20 H13 0.929 . S
C20 C21 1.400 . S
C20 C22 1.364 . S
C21 C20 1.400 . S
C21 C25 1.377 . S
C22 C20 1.364 . S
C22 C23 1.374 . S
C23 H14 0.930 . S
C23 C22 1.374 . S
C23 C24 1.383 . S
C24 O18 1.412 . S
C24 C23 1.383 . S
C24 C25 1.394 . S
C25 H15 0.929 . S
C25 C21 1.377 . S
C25 C24 1.394 . S
H26 C33 0.929 . S
H27 C36 0.930 . S
H28 C38 0.929 . S
H29 C30 0.970 . S
C30 H29 0.970 . S
C30 O31 1.550 1_545 S
C30 H32 0.973 1_545 S
O31 C30 1.550 1_565 S
O31 C37 1.412 . S
H32 C30 0.973 1_565 S
C33 H26 0.929 . S
C33 C34 1.400 . S
C33 C35 1.364 . S
C34 C33 1.400 . S
C34 C38 1.377 . S
C35 C33 1.364 . S
C35 C36 1.374 . S
C36 H27 0.930 . S
C36 C35 1.374 . S
C36 C37 1.383 . S
C37 O31 1.412 . S
C37 C36 1.383 . S
C37 C38 1.394 . S
C38 H28 0.929 . S
C38 C34 1.377 . S
C38 C37 1.394 . S
H39 C46 0.929 . S
H40 C49 0.930 . S
H41 C51 0.929 . S
H42 C43 0.969 . S
C43 H42 0.969 . S
C43 O44 1.550 . S
C43 H45 0.973 . S
O44 C43 1.550 . S
O44 C50 1.412 . S
H45 C43 0.973 . S
C46 H39 0.929 . S
C46 C47 1.400 . S
C46 C48 1.364 . S
C47 C46 1.400 . S
C47 C51 1.377 . S
C48 C46 1.364 . S
C48 C49 1.374 . S
C49 H40 0.930 . S
C49 C48 1.374 . S
C49 C50 1.383 . S
C50 O44 1.412 . S
C50 C49 1.383 . S
C50 C51 1.394 . S
C51 H41 0.929 . S
C51 C47 1.377 . S
C51 C50 1.394 . S
H52 C59 0.928 1_556 S
H53 C62 0.930 . S
H54 C64 0.929 . S
H55 C56 0.969 . S
C56 H55 0.969 . S
C56 O57 1.550 . S
C56 H58 0.973 . S
O57 C56 1.550 . S
O57 C63 1.412 . S
H58 C56 0.973 . S
C59 H52 0.928 1_554 S
C59 C60 1.400 1_554 S
C59 C61 1.364 . S
C60 C59 1.400 1_556 S
C60 C64 1.377 . S
C61 C59 1.364 . S
C61 C62 1.374 . S
C62 H53 0.930 . S
C62 C61 1.374 . S
C62 C63 1.383 . S
C63 O57 1.412 . S
C63 C62 1.383 . S
C63 C64 1.394 1_554 S
C64 H54 0.929 . S
C64 C60 1.377 . S
C64 C63 1.394 1_556 S
H65 C72 0.928 1_556 S
H66 C75 0.930 . S
H67 C77 0.929 . S
H68 C69 0.969 . S
C69 H68 0.969 . S
C69 O70 1.550 . S
C69 H71 0.973 . S
O70 C69 1.550 . S
O70 C76 1.412 . S
H71 C69 0.973 . S
C72 H65 0.928 1_554 S
C72 C73 1.400 1_554 S
C72 C74 1.364 . S
C73 C72 1.400 1_556 S
C73 C77 1.377 . S
C74 C72 1.364 . S
C74 C75 1.374 . S
C75 H66 0.930 . S
C75 C74 1.374 . S
C75 C76 1.383 . S
C76 O70 1.412 . S
C76 C75 1.383 . S
C76 C77 1.394 1_554 S
C77 H67 0.929 . S
C77 C73 1.377 . S
C77 C76 1.394 1_556 S
H78 C85 0.928 1_556 S
H79 C88 0.930 . S
H80 C90 0.929 . S
H81 C82 0.969 . S
C82 H81 0.969 . S
C82 O83 1.550 . S
C82 H84 0.973 . S
O83 C82 1.550 . S
O83 C89 1.412 . S
H84 C82 0.973 . S
C85 H78 0.928 1_554 S
C85 C86 1.400 1_554 S
C85 C87 1.364 . S
C86 C85 1.400 1_556 S
C86 C90 1.377 . S
C87 C85 1.364 . S
C87 C88 1.374 . S
C88 H79 0.930 . S
C88 C87 1.374 . S
C88 C89 1.383 . S
C89 O83 1.412 . S
C89 C88 1.383 . S
C89 C90 1.394 1_554 S
C90 H80 0.929 . S
C90 C86 1.377 . S
C90 C89 1.394 1_556 S
H91 C98 0.928 1_556 S
H92 C101 0.930 . S
H93 C103 0.929 . S
H94 C95 0.969 . S
C95 H94 0.969 . S
C95 O96 1.550 . S
C95 H97 0.973 . S
O96 C95 1.550 . S
O96 C102 1.412 . S
H97 C95 0.973 . S
C98 H91 0.928 1_554 S
C98 C99 1.400 1_554 S
C98 C100 1.364 . S
C99 C98 1.400 1_556 S
C99 C103 1.377 . S
C100 C98 1.364 . S
C100 C101 1.374 . S
C101 H92 0.930 . S
C101 C100 1.374 . S
C101 C102 1.383 . S
C102 O96 1.412 . S
C102 C101 1.383 . S
C102 C103 1.394 1_554 S
C103 H93 0.929 . S
C103 C99 1.377 . S
C103 C102 1.394 1_556 S
Gd104 C107 2.818 . S
Gd104 O124 2.377 . S
Gd104 O126 2.448 . S
Gd104 O127 2.506 . S
Gd104 O128 2.435 . S
Gd104 O129 2.717 1_565 S
Gd104 O131 2.395 1_565 S
Gd104 O135 2.327 1_455 S
Gd105 C116 2.818 . S
Gd105 O125 2.395 1_545 S
Gd105 O129 2.327 1_655 S
Gd105 O130 2.377 . S
Gd105 O132 2.448 . S
Gd105 O133 2.506 1_655 S
Gd105 O134 2.435 . S
Gd105 O135 2.717 1_545 S
C106 O124 1.240 1_655 S
C106 O125 1.240 . S
C107 Gd104 2.818 . S
C107 C108 1.510 . S
C107 O126 1.249 . S
C107 O127 1.252 . S
C108 C107 1.510 . S
C108 C109 1.404 . S
C108 C110 1.352 . S
C109 C108 1.404 . S
C109 C113 1.389 . S
C109 H136 0.930 . S
C110 C108 1.352 . S
C110 C112 1.374 . S
C110 H137 0.931 1_455 S
C111 C112 1.359 . S
C111 C113 1.364 . S
C112 C110 1.374 . S
C112 C111 1.359 . S
C112 H138 0.931 1_455 S
C113 C109 1.389 . S
C113 C111 1.364 . S
C113 H139 0.931 . S
C114 O128 1.256 1_545 S
C114 O129 1.257 . S
C115 O130 1.240 1_455 S
C115 O131 1.240 . S
C116 Gd105 2.818 . S
C116 C117 1.510 . S
C116 O132 1.249 . S
C116 O133 1.252 1_655 S
C117 C116 1.510 . S
C117 C118 1.404 . S
C117 C119 1.352 1_655 S
C118 C117 1.404 . S
C118 C122 1.389 . S
C118 H140 0.930 . S
C119 C117 1.352 1_455 S
C119 C121 1.374 . S
C119 H141 0.931 . S
C120 C121 1.359 1_655 S
C120 C122 1.364 . S
C121 C119 1.374 . S
C121 C120 1.359 1_455 S
C121 H142 0.931 . S
C122 C118 1.389 . S
C122 C120 1.364 . S
C122 H143 0.931 . S
C123 O134 1.256 . S
C123 O135 1.257 1_545 S
O124 Gd104 2.377 . S
O124 C106 1.240 1_455 S
O125 Gd105 2.395 1_565 S
O125 C106 1.240 . S
O126 Gd104 2.448 . S
O126 C107 1.249 . S
O127 Gd104 2.506 . S
O127 C107 1.252 . S
O128 Gd104 2.435 . S
O128 C114 1.256 1_565 S
O129 Gd104 2.717 1_545 S
O129 Gd105 2.327 1_455 S
O129 C114 1.257 . S
O130 Gd105 2.377 . S
O130 C115 1.240 1_655 S
O131 Gd104 2.395 1_545 S
O131 C115 1.240 . S
O132 Gd105 2.448 . S
O132 C116 1.249 . S
O133 Gd105 2.506 1_455 S
O133 C116 1.252 1_455 S
O134 Gd105 2.435 . S
O134 C123 1.256 . S
O135 Gd104 2.327 1_655 S
O135 Gd105 2.717 1_565 S
O135 C123 1.257 1_565 S
H136 C109 0.930 . S
H137 C110 0.931 1_655 S
H138 C112 0.931 1_655 S
H139 C113 0.931 . S
H140 C118 0.930 . S
H141 C119 0.931 . S
H142 C121 0.931 . S
H143 C122 0.931 . S
Gd144 C147 2.818 . S
Gd144 O164 2.377 . S
Gd144 O166 2.448 . S
Gd144 O167 2.506 . S
Gd144 O168 2.435 . S
Gd144 O169 2.717 . S
Gd144 O171 2.395 . S
Gd144 O175 2.327 1_545 S
Gd145 C156 2.818 . S
Gd145 O165 2.395 . S
Gd145 O169 2.327 1_565 S
Gd145 O170 2.377 . S
Gd145 O172 2.448 . S
Gd145 O173 2.506 1_565 S
Gd145 O174 2.435 . S
Gd145 O175 2.717 . S
C146 O164 1.240 1_565 S
C146 O165 1.240 . S
C147 Gd144 2.818 . S
C147 C148 1.510 . S
C147 O166 1.249 . S
C147 O167 1.252 . S
C148 C147 1.510 . S
C148 C149 1.404 . S
C148 C150 1.352 . S
C149 C148 1.404 . S
C149 C153 1.389 . S
C149 H176 0.930 . S
C150 C148 1.352 . S
C150 C152 1.374 . S
C150 H177 0.931 1_545 S
C151 C152 1.359 . S
C151 C153 1.364 . S
C152 C150 1.374 . S
C152 C151 1.359 . S
C152 H178 0.931 1_545 S
C153 C149 1.389 . S
C153 C151 1.364 . S
C153 H179 0.931 . S
C154 O168 1.256 . S
C154 O169 1.257 . S
C155 O170 1.240 1_545 S
C155 O171 1.240 . S
C156 Gd145 2.818 . S
C156 C157 1.510 . S
C156 O172 1.249 . S
C156 O173 1.252 1_565 S
C157 C156 1.510 . S
C157 C158 1.404 . S
C157 C159 1.352 1_565 S
C158 C157 1.404 . S
C158 C162 1.389 . S
C158 H180 0.930 . S
C159 C157 1.352 1_545 S
C159 C161 1.379 . S
C159 H181 0.931 . S
C160 C161 1.304 1_565 S
C160 C162 1.364 . S
C161 C159 1.379 . S
C161 C160 1.304 1_545 S
C161 H182 0.982 . S
C162 C158 1.389 . S
C162 C160 1.364 . S
C162 H183 0.931 . S
C163 O174 1.256 . S
C163 O175 1.257 . S
O164 Gd144 2.377 . S
O164 C146 1.240 1_545 S
O165 Gd145 2.395 . S
O165 C146 1.240 . S
O166 Gd144 2.448 . S
O166 C147 1.249 . S
O167 Gd144 2.506 . S
O167 C147 1.252 . S
O168 Gd144 2.435 . S
O168 C154 1.256 . S
O169 Gd144 2.717 . S
O169 Gd145 2.327 1_545 S
O169 C154 1.257 . S
O170 Gd145 2.377 . S
O170 C155 1.240 1_565 S
O171 Gd144 2.395 . S
O171 C155 1.240 . S
O172 Gd145 2.448 . S
O172 C156 1.249 . S
O173 Gd145 2.506 1_545 S
O173 C156 1.252 1_545 S
O174 Gd145 2.435 . S
O174 C163 1.256 . S
O175 Gd144 2.327 1_565 S
O175 Gd145 2.717 . S
O175 C163 1.257 . S
H176 C149 0.930 . S
H177 C150 0.931 1_565 S
H178 C152 0.931 1_565 S
H179 C153 0.931 . S
H180 C158 0.930 . S
H181 C159 0.931 . S
H182 C161 0.982 . S
H183 C162 0.931 . S
Gd184 C187 2.818 . S
Gd184 O204 2.377 . S
Gd184 O206 2.448 . S
Gd184 O207 2.506 . S
Gd184 O208 2.435 . S
Gd184 O209 2.717 . S
Gd184 O211 2.395 . S
Gd184 O215 2.327 . S
Gd185 C196 2.818 . S
Gd185 O205 2.395 . S
Gd185 O209 2.327 . S
Gd185 O210 2.377 . S
Gd185 O212 2.448 . S
Gd185 O213 2.506 . S
Gd185 O214 2.435 . S
Gd185 O215 2.717 . S
C186 O204 1.240 . S
C186 O205 1.240 . S
C187 Gd184 2.818 . S
C187 C188 1.510 . S
C187 O206 1.249 . S
C187 O207 1.252 . S
C188 C187 1.510 . S
C188 C189 1.404 . S
C188 C190 1.352 . S
C189 C188 1.404 . S
C189 C193 1.389 . S
C189 H216 0.930 . S
C190 C188 1.352 . S
C190 C192 1.374 . S
C190 H217 0.931 . S
C191 C192 1.359 . S
C191 C193 1.364 . S
C192 C190 1.374 . S
C192 C191 1.359 . S
C192 H218 0.931 . S
C193 C189 1.389 . S
C193 C191 1.364 . S
C193 H219 0.931 . S
C194 O208 1.256 . S
C194 O209 1.257 . S
C195 O210 1.240 . S
C195 O211 1.240 . S
C196 Gd185 2.818 . S
C196 C197 1.510 . S
C196 O212 1.249 . S
C196 O213 1.252 . S
C197 C196 1.510 . S
C197 C198 1.404 . S
C197 C199 1.352 . S
C198 C197 1.404 . S
C198 C202 1.389 . S
C198 H220 0.930 . S
C199 C197 1.352 . S
C199 C201 1.374 . S
C199 H221 0.931 . S
C200 C201 1.359 . S
C200 C202 1.364 . S
C201 C199 1.374 . S
C201 C200 1.359 . S
C201 H222 0.931 . S
C202 C198 1.389 . S
C202 C200 1.364 . S
C202 H223 0.931 . S
C203 O214 1.256 . S
C203 O215 1.257 . S
O204 Gd184 2.377 . S
O204 C186 1.240 . S
O205 Gd185 2.395 . S
O205 C186 1.240 . S
O206 Gd184 2.448 . S
O206 C187 1.249 . S
O207 Gd184 2.506 . S
O207 C187 1.252 . S
O208 Gd184 2.435 . S
O208 C194 1.256 . S
O209 Gd184 2.717 . S
O209 Gd185 2.327 . S
O209 C194 1.257 . S
O210 Gd185 2.377 . S
O210 C195 1.240 . S
O211 Gd184 2.395 . S
O211 C195 1.240 . S
O212 Gd185 2.448 . S
O212 C196 1.249 . S
O213 Gd185 2.506 . S
O213 C196 1.252 . S
O214 Gd185 2.435 . S
O214 C203 1.256 . S
O215 Gd184 2.327 . S
O215 Gd185 2.717 . S
O215 C203 1.257 . S
H216 C189 0.930 . S
H217 C190 0.931 . S
H218 C192 0.931 . S
H219 C193 0.931 . S
H220 C198 0.930 . S
H221 C199 0.931 . S
H222 C201 0.931 . S
H223 C202 0.931 . S
Gd224 C227 2.818 . S
Gd224 O244 2.377 . S
Gd224 O246 2.448 . S
Gd224 O247 2.506 . S
Gd224 O248 2.435 . S
Gd224 O249 2.717 1_655 S
Gd224 O251 2.395 1_655 S
Gd224 O255 2.329 . S
Gd225 C236 2.818 . S
Gd225 O245 2.395 1_455 S
Gd225 O249 2.327 . S
Gd225 O250 2.377 . S
Gd225 O252 2.448 . S
Gd225 O253 2.506 . S
Gd225 O254 2.435 . S
Gd225 O255 2.713 1_455 S
C226 O244 1.240 . S
C226 O245 1.240 . S
C227 Gd224 2.818 . S
C227 C228 1.510 . S
C227 O246 1.249 . S
C227 O247 1.252 . S
C228 C227 1.510 . S
C228 C229 1.404 . S
C228 C230 1.352 . S
C229 C228 1.404 . S
C229 C233 1.389 . S
C229 H256 0.930 . S
C230 C228 1.352 . S
C230 C232 1.374 . S
C230 H257 0.931 . S
C231 C232 1.359 . S
C231 C233 1.364 . S
C232 C230 1.374 . S
C232 C231 1.359 . S
C232 H258 0.931 . S
C233 C229 1.389 . S
C233 C231 1.364 . S
C233 H259 0.931 . S
C234 O248 1.256 1_455 S
C234 O249 1.257 . S
C235 O250 1.240 . S
C235 O251 1.240 . S
C236 Gd225 2.818 . S
C236 C237 1.510 . S
C236 O252 1.249 . S
C236 O253 1.252 . S
C237 C236 1.510 . S
C237 C238 1.404 . S
C237 C239 1.352 . S
C238 C237 1.404 . S
C238 C242 1.389 . S
C238 H260 0.930 . S
C239 C237 1.352 . S
C239 C241 1.374 . S
C239 H261 0.931 . S
C240 C241 1.359 . S
C240 C242 1.364 . S
C241 C239 1.374 . S
C241 C240 1.359 . S
C241 H262 0.931 . S
C242 C238 1.389 . S
C242 C240 1.364 . S
C242 H263 0.931 . S
C243 O254 1.256 . S
C243 O255 1.254 1_455 S
O244 Gd224 2.377 . S
O244 C226 1.240 . S
O245 Gd225 2.395 1_655 S
O245 C226 1.240 . S
O246 Gd224 2.448 . S
O246 C227 1.249 . S
O247 Gd224 2.506 . S
O247 C227 1.252 . S
O248 Gd224 2.435 . S
O248 C234 1.256 1_655 S
O249 Gd224 2.717 1_455 S
O249 Gd225 2.327 . S
O249 C234 1.257 . S
O250 Gd225 2.377 . S
O250 C235 1.240 . S
O251 Gd224 2.395 1_455 S
O251 C235 1.240 . S
O252 Gd225 2.448 . S
O252 C236 1.249 . S
O253 Gd225 2.506 . S
O253 C236 1.252 . S
O254 Gd225 2.435 . S
O254 C243 1.256 . S
O255 Gd224 2.329 . S
O255 Gd225 2.713 1_655 S
O255 C243 1.254 1_655 S
H256 C229 0.930 . S
H257 C230 0.931 . S
H258 C232 0.931 . S
H259 C233 0.931 . S
H260 C238 0.930 . S
H261 C239 0.931 . S
H262 C241 0.931 . S
H263 C242 0.931 . S
C264 C265 1.349 1_565 S
C264 C266 1.327 . S
C264 H289 0.950 . S
C265 C264 1.349 1_545 S
C265 C281 1.349 . S
C266 C264 1.327 . S
C266 C285 1.429 1_565 S
C266 H290 0.950 . S
C267 C284 1.574 . S
C267 C286 1.368 . S
C267 H291 0.949 . S
H268 C272 0.949 . S
C269 C270 1.349 . S
C269 C271 1.327 . S
C269 H292 0.950 . S
C270 C269 1.349 . S
C270 C282 1.349 1_545 S
C271 C269 1.327 . S
C271 C287 1.429 . S
C271 H293 0.950 . S
C272 H268 0.949 . S
C272 C280 1.574 . S
C272 C288 1.368 1_565 S
H273 C281 0.950 . S
H274 C279 0.950 . S
H275 C280 0.949 . S
H276 C282 0.950 . S
H277 C283 0.950 . S
H278 C284 0.949 . S
C279 H274 0.950 . S
C279 C281 1.327 . S
C279 C285 1.429 . S
C280 C272 1.574 . S
C280 H275 0.949 . S
C280 C286 1.368 1_565 S
C281 C265 1.349 . S
C281 H273 0.950 . S
C281 C279 1.327 . S
C282 C270 1.349 1_565 S
C282 H276 0.950 . S
C282 C283 1.327 . S
C283 H277 0.950 . S
C283 C282 1.327 . S
C283 C287 1.429 1_565 S
C284 C267 1.574 . S
C284 H278 0.949 . S
C284 C288 1.368 . S
C285 C266 1.429 1_545 S
C285 C279 1.429 . S
C285 C286 1.523 . S
C286 C267 1.368 . S
C286 C280 1.368 1_545 S
C286 C285 1.523 . S
C287 C271 1.429 . S
C287 C283 1.429 1_545 S
C287 C288 1.523 . S
C288 C272 1.368 1_545 S
C288 C284 1.368 . S
C288 C287 1.523 . S
H289 C264 0.950 . S
H290 C266 0.950 . S
H291 C267 0.949 . S
H292 C269 0.950 . S
H293 C271 0.950 . S
C294 C295 1.349 . S
C294 C296 1.327 . S
C294 H319 0.950 . S
C295 C294 1.349 . S
C295 C311 1.349 . S
C296 C294 1.327 . S
C296 C315 1.429 . S
C296 H320 0.950 . S
C297 C314 1.574 . S
C297 C316 1.368 . S
C297 H321 0.949 . S
H298 C302 0.949 . S
C299 C300 1.349 . S
C299 C301 1.327 . S
C299 H322 0.950 . S
C300 C299 1.349 . S
C300 C312 1.349 . S
C301 C299 1.327 . S
C301 C317 1.429 . S
C301 H323 0.950 . S
C302 H298 0.949 . S
C302 C310 1.574 . S
C302 C318 1.368 . S
H303 C311 0.950 . S
H304 C309 0.950 . S
H305 C310 0.949 . S
H306 C312 0.950 . S
H307 C313 0.950 . S
H308 C314 0.949 . S
C309 H304 0.950 . S
C309 C311 1.327 . S
C309 C315 1.429 . S
C310 C302 1.574 . S
C310 H305 0.949 . S
C310 C316 1.368 . S
C311 C295 1.349 . S
C311 H303 0.950 . S
C311 C309 1.327 . S
C312 C300 1.349 . S
C312 H306 0.950 . S
C312 C313 1.327 . S
C313 H307 0.950 . S
C313 C312 1.327 . S
C313 C317 1.429 . S
C314 C297 1.574 . S
C314 H308 0.949 . S
C314 C318 1.368 . S
C315 C296 1.429 . S
C315 C309 1.429 . S
C315 C316 1.523 . S
C316 C297 1.368 . S
C316 C310 1.368 . S
C316 C315 1.523 . S
C317 C301 1.429 . S
C317 C313 1.429 . S
C317 C318 1.523 . S
C318 C302 1.368 . S
C318 C314 1.368 . S
C318 C317 1.523 . S
H319 C294 0.950 . S
H320 C296 0.950 . S
H321 C297 0.949 . S
H322 C299 0.950 . S
H323 C301 0.950 . S
C324 C325 1.349 . S
C324 C326 1.327 . S
C324 H349 0.950 . S
C325 C324 1.349 . S
C325 C341 1.349 . S
C326 C324 1.327 . S
C326 C345 1.429 . S
C326 H350 0.950 . S
C327 C344 1.574 . S
C327 C346 1.368 . S
C327 H351 0.949 . S
H328 C332 0.949 . S
C329 C330 1.349 . S
C329 C331 1.327 . S
C329 H352 0.950 . S
C330 C329 1.349 . S
C330 C342 1.349 . S
C331 C329 1.327 . S
C331 C347 1.429 . S
C331 H353 0.950 . S
C332 H328 0.949 . S
C332 C340 1.574 . S
C332 C348 1.368 . S
H333 C341 0.950 . S
H334 C339 0.950 . S
H335 C340 0.949 . S
H336 C342 0.950 . S
H337 C343 0.950 . S
H338 C344 0.949 . S
C339 H334 0.950 . S
C339 C341 1.327 . S
C339 C345 1.429 . S
C340 C332 1.574 . S
C340 H335 0.949 . S
C340 C346 1.368 . S
C341 C325 1.349 . S
C341 H333 0.950 . S
C341 C339 1.327 . S
C342 C330 1.349 . S
C342 H336 0.950 . S
C342 C343 1.327 . S
C343 H337 0.950 . S
C343 C342 1.327 . S
C343 C347 1.429 . S
C344 C327 1.574 . S
C344 H338 0.949 . S
C344 C348 1.368 . S
C345 C326 1.429 . S
C345 C339 1.429 . S
C345 C346 1.523 . S
C346 C327 1.368 . S
C346 C340 1.368 . S
C346 C345 1.523 . S
C347 C331 1.429 . S
C347 C343 1.429 . S
C347 C348 1.523 . S
C348 C332 1.368 . S
C348 C344 1.368 . S
C348 C347 1.523 . S
H349 C324 0.950 . S
H350 C326 0.950 . S
H351 C327 0.949 . S
H352 C329 0.950 . S
H353 C331 0.950 . S
C354 C355 1.349 1_655 S
C354 C356 1.327 . S
C354 H379 0.950 . S
C355 C354 1.349 1_455 S
C355 C371 1.349 . S
C356 C354 1.327 . S
C356 C375 1.429 1_655 S
C356 H380 0.950 . S
C357 C374 1.574 . S
C357 C376 1.368 . S
C357 H381 0.949 . S
H358 C362 0.949 . S
C359 C360 1.349 . S
C359 C361 1.327 . S
C359 H382 0.950 . S
C360 C359 1.349 . S
C360 C372 1.349 1_455 S
C361 C359 1.327 . S
C361 C377 1.429 . S
C361 H383 0.950 . S
C362 H358 0.949 . S
C362 C370 1.574 . S
C362 C378 1.368 1_655 S
H363 C371 0.950 . S
H364 C369 0.950 . S
H365 C370 0.949 . S
H366 C372 0.950 . S
H367 C373 0.950 . S
H368 C374 0.949 . S
C369 H364 0.950 . S
C369 C371 1.327 . S
C369 C375 1.429 . S
C370 C362 1.574 . S
C370 H365 0.949 . S
C370 C376 1.368 1_655 S
C371 C355 1.349 . S
C371 H363 0.950 . S
C371 C369 1.327 . S
C372 C360 1.349 1_655 S
C372 H366 0.950 . S
C372 C373 1.327 . S
C373 H367 0.950 . S
C373 C372 1.327 . S
C373 C377 1.429 1_655 S
C374 C357 1.574 . S
C374 H368 0.949 . S
C374 C378 1.368 . S
C375 C356 1.429 1_455 S
C375 C369 1.429 . S
C375 C376 1.523 . S
C376 C357 1.368 . S
C376 C370 1.368 1_455 S
C376 C375 1.523 . S
C377 C361 1.429 . S
C377 C373 1.429 1_455 S
C377 C378 1.523 . S
C378 C362 1.368 1_455 S
C378 C374 1.368 . S
C378 C377 1.523 . S
H379 C354 0.950 . S
H380 C356 0.950 . S
H381 C357 0.949 . S
H382 C359 0.950 . S
H383 C361 0.950 . S
C384 C385 1.349 1_545 S
C384 C386 1.327 . S
C384 H409 0.950 . S
C385 C384 1.349 1_565 S
C385 C401 1.349 . S
C386 C384 1.327 . S
C386 C405 1.429 1_545 S
C386 H410 0.950 . S
C387 C404 1.574 1_554 S
C387 C406 1.368 . S
C387 H411 0.949 . S
H388 C392 0.949 . S
C389 C390 1.311 1_565 S
C389 C391 1.327 . S
C389 H412 0.950 . S
C390 C389 1.311 1_545 S
C390 C402 1.386 . S
C391 C389 1.327 . S
C391 C407 1.431 1_565 S
C391 H413 0.950 . S
C392 H388 0.949 . S
C392 C400 1.574 . S
C392 C408 1.353 1_544 S
H393 C401 0.950 . S
H394 C399 0.950 . S
H395 C400 0.949 . S
H396 C402 0.950 . S
H397 C403 0.950 . S
H398 C404 0.949 . S
C399 H394 0.950 . S
C399 C401 1.327 . S
C399 C405 1.429 . S
C400 C392 1.574 . S
C400 H395 0.949 . S
C400 C406 1.368 1_545 S
C401 C385 1.349 . S
C401 H393 0.950 . S
C401 C399 1.327 . S
C402 C390 1.386 . S
C402 H396 0.950 . S
C402 C403 1.327 . S
C403 H397 0.950 . S
C403 C402 1.327 . S
C403 C407 1.426 . S
C404 C387 1.574 1_556 S
C404 H398 0.949 . S
C404 C408 1.384 . S
C405 C386 1.429 1_565 S
C405 C399 1.429 . S
C405 C406 1.523 . S
C406 C387 1.368 . S
C406 C400 1.368 1_565 S
C406 C405 1.523 . S
C407 C391 1.431 1_545 S
C407 C403 1.426 . S
C407 C408 1.523 1_545 S
C408 C392 1.353 1_566 S
C408 C404 1.384 . S
C408 C407 1.523 1_565 S
H409 C384 0.950 . S
H410 C386 0.950 . S
H411 C387 0.949 . S
H412 C389 0.950 . S
H413 C391 0.950 . S
C414 C415 1.349 . S
C414 C416 1.327 . S
C414 H439 0.950 . S
C415 C414 1.349 . S
C415 C431 1.349 . S
C416 C414 1.327 . S
C416 C435 1.429 . S
C416 H440 0.950 . S
C417 C434 1.574 1_554 S
C417 C436 1.368 . S
C417 H441 0.949 . S
H418 C422 0.949 . S
C419 C420 1.349 . S
C419 C421 1.327 . S
C419 H442 0.950 . S
C420 C419 1.349 . S
C420 C432 1.349 . S
C421 C419 1.327 . S
C421 C437 1.429 . S
C421 H443 0.950 . S
C422 H418 0.949 . S
C422 C430 1.574 . S
C422 C438 1.368 1_554 S
H423 C431 0.950 . S
H424 C429 0.950 . S
H425 C430 0.949 . S
H426 C432 0.950 . S
H427 C433 0.950 . S
H428 C434 0.949 . S
C429 H424 0.950 . S
C429 C431 1.327 . S
C429 C435 1.429 . S
C430 C422 1.574 . S
C430 H425 0.949 . S
C430 C436 1.368 . S
C431 C415 1.349 . S
C431 H423 0.950 . S
C431 C429 1.327 . S
C432 C420 1.349 . S
C432 H426 0.950 . S
C432 C433 1.327 . S
C433 H427 0.950 . S
C433 C432 1.327 . S
C433 C437 1.429 . S
C434 C417 1.574 1_556 S
C434 H428 0.949 . S
C434 C438 1.368 . S
C435 C416 1.429 . S
C435 C429 1.429 . S
C435 C436 1.523 . S
C436 C417 1.368 . S
C436 C430 1.368 . S
C436 C435 1.523 . S
C437 C421 1.429 . S
C437 C433 1.429 . S
C437 C438 1.523 . S
C438 C422 1.368 1_556 S
C438 C434 1.368 . S
C438 C437 1.523 . S
H439 C414 0.950 . S
H440 C416 0.950 . S
H441 C417 0.949 . S
H442 C419 0.950 . S
H443 C421 0.950 . S
C444 C445 1.349 . S
C444 C446 1.327 . S
C444 H469 0.950 . S
C445 C444 1.349 . S
C445 C461 1.349 . S
C446 C444 1.327 . S
C446 C465 1.429 . S
C446 H470 0.950 . S
C447 C464 1.574 . S
C447 C466 1.368 . S
C447 H471 0.949 . S
H448 C452 0.949 . S
C449 C450 1.349 . S
C449 C451 1.327 . S
C449 H472 0.950 . S
C450 C449 1.349 . S
C450 C462 1.349 . S
C451 C449 1.327 . S
C451 C467 1.429 . S
C451 H473 0.950 . S
C452 H448 0.949 . S
C452 C460 1.574 1_556 S
C452 C468 1.368 . S
H453 C461 0.950 . S
H454 C459 0.950 . S
H455 C460 0.949 . S
H456 C462 0.950 . S
H457 C463 0.950 . S
H458 C464 0.949 . S
C459 H454 0.950 . S
C459 C461 1.327 . S
C459 C465 1.429 . S
C460 C452 1.574 1_554 S
C460 H455 0.949 . S
C460 C466 1.368 . S
C461 C445 1.349 . S
C461 H453 0.950 . S
C461 C459 1.327 . S
C462 C450 1.349 . S
C462 H456 0.950 . S
C462 C463 1.327 . S
C463 H457 0.950 . S
C463 C462 1.327 . S
C463 C467 1.429 . S
C464 C447 1.574 . S
C464 H458 0.949 . S
C464 C468 1.368 1_554 S
C465 C446 1.429 . S
C465 C459 1.429 . S
C465 C466 1.523 . S
C466 C447 1.368 . S
C466 C460 1.368 . S
C466 C465 1.523 . S
C467 C451 1.429 . S
C467 C463 1.429 . S
C467 C468 1.523 . S
C468 C452 1.368 . S
C468 C464 1.368 1_556 S
C468 C467 1.523 . S
H469 C444 0.950 . S
H470 C446 0.950 . S
H471 C447 0.949 . S
H472 C449 0.950 . S
H473 C451 0.950 . S
C474 C475 1.349 . S
C474 C476 1.327 . S
C474 H499 0.950 . S
C475 C474 1.349 . S
C475 C491 1.349 1_655 S
C476 C474 1.327 . S
C476 C495 1.465 . S
C476 H500 0.950 . S
C477 C494 1.574 . S
C477 C496 1.359 1_455 S
C477 H501 0.949 . S
H478 C482 0.949 1_556 S
C479 C480 1.349 . S
C479 C481 1.327 . S
C479 H502 0.950 . S
C480 C479 1.349 . S
C480 C492 1.349 1_455 S
C481 C479 1.327 . S
C481 C497 1.429 . S
C481 H503 0.950 . S
C482 H478 0.949 1_554 S
C482 C490 1.574 . S
C482 C498 1.338 1_654 S
H483 C491 0.950 . S
H484 C489 0.950 . S
H485 C490 0.949 . S
H486 C492 0.950 . S
H487 C493 0.950 . S
H488 C494 0.949 1_556 S
C489 H484 0.950 . S
C489 C491 1.327 . S
C489 C495 1.393 1_455 S
C490 C482 1.574 . S
C490 H485 0.949 . S
C490 C496 1.378 . S
C491 C475 1.349 1_455 S
C491 H483 0.950 . S
C491 C489 1.327 . S
C492 C480 1.349 1_655 S
C492 H486 0.950 . S
C492 C493 1.327 . S
C493 H487 0.950 . S
C493 C492 1.327 . S
C493 C497 1.429 1_655 S
C494 C477 1.574 . S
C494 H488 0.949 1_554 S
C494 C498 1.398 1_554 S
C495 C476 1.465 . S
C495 C489 1.393 1_655 S
C495 C496 1.523 . S
C496 C477 1.359 1_655 S
C496 C490 1.378 . S
C496 C495 1.523 . S
C497 C481 1.429 . S
C497 C493 1.429 1_455 S
C497 C498 1.524 . S
C498 C482 1.338 1_456 S
C498 C494 1.398 1_556 S
C498 C497 1.524 . S
H499 C474 0.950 . S
H500 C476 0.950 . S
H501 C477 0.949 . S
H502 C479 0.950 . S
H503 C481 0.950 . S
C504 C505 1.349 1_655 S
C504 C506 1.327 . S
C504 H529 0.950 . S
C505 C504 1.349 1_455 S
C505 C521 1.349 . S
C506 C504 1.327 . S
C506 C525 1.429 1_655 S
C506 H530 0.950 . S
C507 C524 1.574 . S
C507 C526 1.365 . S
C507 H531 0.949 . S
H508 C512 0.949 . S
C509 C510 1.349 . S
C509 C511 1.328 1_655 S
C509 H532 0.950 1_655 S
C510 C509 1.349 . S
C510 C522 1.349 . S
C511 C509 1.328 1_455 S
C511 C527 1.432 1_455 S
C511 H533 0.945 . S
C512 H508 0.949 . S
C512 C520 1.574 . S
C512 C528 1.368 . S
H513 C521 0.950 . S
H514 C519 0.950 . S
H515 C520 0.949 . S
H516 C522 0.950 . S
H517 C523 0.950 . S
H518 C524 0.949 . S
C519 H514 0.950 . S
C519 C521 1.327 . S
C519 C525 1.429 . S
C520 C512 1.574 . S
C520 H515 0.949 . S
C520 C526 1.372 1_655 S
C521 C505 1.349 . S
C521 H513 0.950 . S
C521 C519 1.327 . S
C522 C510 1.349 . S
C522 H516 0.950 . S
C522 C523 1.327 . S
C523 H517 0.950 . S
C523 C522 1.327 . S
C523 C527 1.429 . S
C524 C507 1.574 . S
C524 H518 0.949 . S
C524 C528 1.368 1_455 S
C525 C506 1.429 1_455 S
C525 C519 1.429 . S
C525 C526 1.522 . S
C526 C507 1.365 . S
C526 C520 1.372 1_455 S
C526 C525 1.522 . S
C527 C511 1.432 1_655 S
C527 C523 1.429 . S
C527 C528 1.523 . S
C528 C512 1.368 . S
C528 C524 1.368 1_655 S
C528 C527 1.523 . S
H529 C504 0.950 . S
H530 C506 0.950 . S
H531 C507 0.949 . S
H532 C509 0.950 1_455 S
H533 C511 0.945 . S
C534 C535 1.349 . S
C534 C536 1.327 . S
C534 H559 0.950 . S
C535 C534 1.349 . S
C535 C551 1.349 . S
C536 C534 1.327 . S
C536 C555 1.429 . S
C536 H560 0.950 . S
C537 C554 1.574 . S
C537 C556 1.368 . S
C537 H561 0.949 . S
H538 C542 0.944 1_545 S
C539 C540 1.349 . S
C539 C541 1.327 . S
C539 H562 0.950 . S
C540 C539 1.349 . S
C540 C552 1.349 . S
C541 C539 1.327 . S
C541 C557 1.429 . S
C541 H563 0.950 . S
C542 H538 0.944 1_565 S
C542 C550 1.568 1_565 S
C542 C558 1.381 . S
H543 C551 0.952 . S
H544 C549 0.968 . S
H545 C550 0.949 . S
H546 C552 0.950 . S
H547 C553 0.950 . S
H548 C554 0.949 . S
C549 H544 0.968 . S
C549 C551 1.319 1_565 S
C549 C555 1.421 1_565 S
C550 C542 1.568 1_545 S
C550 H545 0.949 . S
C550 C556 1.368 1_545 S
C551 C535 1.349 . S
C551 H543 0.952 . S
C551 C549 1.319 1_545 S
C552 C540 1.349 . S
C552 H546 0.950 . S
C552 C553 1.327 . S
C553 H547 0.950 . S
C553 C552 1.327 . S
C553 C557 1.429 . S
C554 C537 1.574 . S
C554 H548 0.949 . S
C554 C558 1.368 . S
C555 C536 1.429 . S
C555 C549 1.421 1_545 S
C555 C556 1.523 1_545 S
C556 C537 1.368 . S
C556 C550 1.368 1_565 S
C556 C555 1.523 1_565 S
C557 C541 1.429 . S
C557 C553 1.429 . S
C557 C558 1.523 . S
C558 C542 1.381 . S
C558 C554 1.368 . S
C558 C557 1.523 . S
H559 C534 0.950 . S
H560 C536 0.950 . S
H561 C537 0.949 . S
H562 C539 0.950 . S
H563 C541 0.950 . S
C564 C565 1.349 . S
C564 C566 1.327 . S
C564 H589 0.950 . S
C565 C564 1.349 . S
C565 C581 1.349 . S
C566 C564 1.327 . S
C566 C585 1.429 . S
C566 H590 0.950 . S
C567 C584 1.574 . S
C567 C586 1.368 . S
C567 H591 0.949 . S
H568 C572 0.949 . S
C569 C570 1.349 . S
C569 C571 1.327 . S
C569 H592 0.950 . S
C570 C569 1.349 . S
C570 C582 1.349 . S
C571 C569 1.327 . S
C571 C587 1.429 . S
C571 H593 0.950 . S
C572 H568 0.949 . S
C572 C580 1.574 . S
C572 C588 1.368 . S
H573 C581 0.950 . S
H574 C579 0.950 . S
H575 C580 0.949 . S
H576 C582 0.950 . S
H577 C583 0.950 . S
H578 C584 0.949 . S
C579 H574 0.950 . S
C579 C581 1.327 . S
C579 C585 1.429 . S
C580 C572 1.574 . S
C580 H575 0.949 . S
C580 C586 1.368 . S
C581 C565 1.349 . S
C581 H573 0.950 . S
C581 C579 1.327 . S
C582 C570 1.349 . S
C582 H576 0.950 . S
C582 C583 1.327 . S
C583 H577 0.950 . S
C583 C582 1.327 . S
C583 C587 1.429 . S
C584 C567 1.574 . S
C584 H578 0.949 . S
C584 C588 1.368 . S
C585 C566 1.429 . S
C585 C579 1.429 . S
C585 C586 1.523 . S
C586 C567 1.368 . S
C586 C580 1.368 . S
C586 C585 1.523 . S
C587 C571 1.429 . S
C587 C583 1.429 . S
C587 C588 1.523 . S
C588 C572 1.368 . S
C588 C584 1.368 . S
C588 C587 1.523 . S
H589 C564 0.950 . S
H590 C566 0.950 . S
H591 C567 0.949 . S
H592 C569 0.950 . S
H593 C571 0.950 . S
C594 C595 1.349 . S
C594 C596 1.327 . S
C594 H619 0.950 . S
C595 C594 1.349 . S
C595 C611 1.349 . S
C596 C594 1.327 . S
C596 C615 1.429 . S
C596 H620 0.950 . S
C597 C614 1.574 . S
C597 C616 1.368 . S
C597 H621 0.949 . S
H598 C602 0.949 . S
C599 C600 1.349 . S
C599 C601 1.327 . S
C599 H622 0.950 . S
C600 C599 1.349 . S
C600 C612 1.349 . S
C601 C599 1.327 . S
C601 C617 1.429 . S
C601 H623 0.950 . S
C602 H598 0.949 . S
C602 C610 1.574 . S
C602 C618 1.368 . S
H603 C611 0.950 . S
H604 C609 0.950 . S
H605 C610 0.949 . S
H606 C612 0.950 . S
H607 C613 0.950 . S
H608 C614 0.949 . S
C609 H604 0.950 . S
C609 C611 1.327 . S
C609 C615 1.429 . S
C610 C602 1.574 . S
C610 H605 0.949 . S
C610 C616 1.368 . S
C611 C595 1.349 . S
C611 H603 0.950 . S
C611 C609 1.327 . S
C612 C600 1.349 . S
C612 H606 0.950 . S
C612 C613 1.327 . S
C613 H607 0.950 . S
C613 C612 1.327 . S
C613 C617 1.429 . S
C614 C597 1.574 . S
C614 H608 0.949 . S
C614 C618 1.368 . S
C615 C596 1.429 . S
C615 C609 1.429 . S
C615 C616 1.523 . S
C616 C597 1.368 . S
C616 C610 1.368 . S
C616 C615 1.523 . S
C617 C601 1.429 . S
C617 C613 1.429 . S
C617 C618 1.523 . S
C618 C602 1.368 . S
C618 C614 1.368 . S
C618 C617 1.523 . S
H619 C594 0.950 . S
H620 C596 0.950 . S
H621 C597 0.949 . S
H622 C599 0.950 . S
H623 C601 0.950 . S
C624 C625 1.349 . S
C624 C626 1.327 . S
C624 H649 0.950 . S
C625 C624 1.349 . S
C625 C641 1.349 1_655 S
C626 C624 1.327 . S
C626 C645 1.429 1_655 S
C626 H650 0.950 . S
C627 C644 1.574 . S
C627 C646 1.368 . S
C627 H651 0.949 . S
H628 C632 0.949 1_556 S
C629 C630 1.349 1_554 S
C629 C631 1.327 . S
C629 H652 0.950 . S
C630 C629 1.349 1_556 S
C630 C642 1.349 . S
C631 C629 1.327 . S
C631 C647 1.429 . S
C631 H653 0.950 . S
C632 H628 0.949 1_554 S
C632 C640 1.574 . S
C632 C648 1.368 . S
H633 C641 0.950 . S
H634 C639 0.950 . S
H635 C640 0.949 1_655 S
H636 C642 0.950 . S
H637 C643 0.950 . S
H638 C644 0.949 . S
C639 H634 0.950 . S
C639 C641 1.327 . S
C639 C645 1.429 . S
C640 C632 1.574 . S
C640 H635 0.949 1_455 S
C640 C646 1.368 . S
C641 C625 1.349 1_455 S
C641 H633 0.950 . S
C641 C639 1.327 . S
C642 C630 1.349 . S
C642 H636 0.950 . S
C642 C643 1.327 . S
C643 H637 0.950 . S
C643 C642 1.327 . S
C643 C647 1.429 1_556 S
C644 C627 1.574 . S
C644 H638 0.949 . S
C644 C648 1.368 . S
C645 C626 1.429 1_455 S
C645 C639 1.429 . S
C645 C646 1.523 . S
C646 C627 1.368 . S
C646 C640 1.368 . S
C646 C645 1.523 . S
C647 C631 1.429 . S
C647 C643 1.429 1_554 S
C647 C648 1.523 . S
C648 C632 1.368 . S
C648 C644 1.368 . S
C648 C647 1.523 . S
H649 C624 0.950 . S
H650 C626 0.950 . S
H651 C627 0.949 . S
H652 C629 0.950 . S
H653 C631 0.950 . S
C654 C655 1.349 1_545 S
C654 C656 1.327 . S
C654 H679 0.950 . S
C655 C654 1.349 1_565 S
C655 C671 1.349 . S
C656 C654 1.327 . S
C656 C675 1.429 . S
C656 H680 0.950 . S
C657 C674 1.574 . S
C657 C676 1.368 1_565 S
C657 H681 0.949 . S
H658 C662 0.949 . S
C659 C660 1.349 . S
C659 C661 1.327 1_556 S
C659 H682 0.950 1_545 S
C660 C659 1.349 . S
C660 C672 1.349 . S
C661 C659 1.327 1_554 S
C661 C677 1.429 . S
C661 H683 0.950 1_545 S
C662 H658 0.949 . S
C662 C670 1.574 . S
C662 C678 1.368 . S
H663 C671 0.950 . S
H664 C669 0.950 . S
H665 C670 0.949 . S
H666 C672 0.950 . S
H667 C673 0.950 . S
H668 C674 0.949 . S
C669 H664 0.950 . S
C669 C671 1.327 . S
C669 C675 1.429 1_565 S
C670 C662 1.574 . S
C670 H665 0.949 . S
C670 C676 1.368 . S
C671 C655 1.349 . S
C671 H663 0.950 . S
C671 C669 1.327 . S
C672 C660 1.349 . S
C672 H666 0.950 . S
C672 C673 1.327 1_556 S
C673 H667 0.950 . S
C673 C672 1.327 1_554 S
C673 C677 1.429 . S
C674 C657 1.574 . S
C674 H668 0.949 . S
C674 C678 1.368 1_565 S
C675 C656 1.429 . S
C675 C669 1.429 1_545 S
C675 C676 1.523 . S
C676 C657 1.368 1_545 S
C676 C670 1.368 . S
C676 C675 1.523 . S
C677 C661 1.429 . S
C677 C673 1.429 . S
C677 C678 1.523 . S
C678 C662 1.368 . S
C678 C674 1.368 1_545 S
C678 C677 1.523 . S
H679 C654 0.950 . S
H680 C656 0.950 . S
H681 C657 0.949 . S
H682 C659 0.950 1_565 S
H683 C661 0.950 1_565 S
C684 C685 1.349 . S
C684 C686 1.327 . S
C684 H709 0.950 . S
C685 C684 1.349 . S
C685 C701 1.349 . S
C686 C684 1.327 . S
C686 C705 1.429 . S
C686 H710 0.950 . S
C687 C704 1.574 . S
C687 C706 1.368 . S
C687 H711 0.949 . S
H688 C692 0.949 . S
C689 C690 1.349 . S
C689 C691 1.327 . S
C689 H712 0.950 . S
C690 C689 1.349 . S
C690 C702 1.349 1_556 S
C691 C689 1.327 . S
C691 C707 1.429 1_556 S
C691 H713 0.950 . S
C692 H688 0.949 . S
C692 C700 1.574 . S
C692 C708 1.368 . S
H693 C701 0.950 . S
H694 C699 0.950 . S
H695 C700 0.949 . S
H696 C702 0.950 . S
H697 C703 0.950 . S
H698 C704 0.951 . S
C699 H694 0.950 . S
C699 C701 1.327 . S
C699 C705 1.429 . S
C700 C692 1.574 . S
C700 H695 0.949 . S
C700 C706 1.368 . S
C701 C685 1.349 . S
C701 H693 0.950 . S
C701 C699 1.327 . S
C702 C690 1.349 1_554 S
C702 H696 0.950 . S
C702 C703 1.327 . S
C703 H697 0.950 . S
C703 C702 1.327 . S
C703 C707 1.429 . S
C704 C687 1.574 . S
C704 H698 0.951 . S
C704 C708 1.368 . S
C705 C686 1.429 . S
C705 C699 1.429 . S
C705 C706 1.523 . S
C706 C687 1.368 . S
C706 C700 1.368 . S
C706 C705 1.523 . S
C707 C691 1.429 1_554 S
C707 C703 1.429 . S
C707 C708 1.523 . S
C708 C692 1.368 . S
C708 C704 1.368 . S
C708 C707 1.523 . S
H709 C684 0.950 . S
H710 C686 0.950 . S
H711 C687 0.949 . S
H712 C689 0.950 . S
H713 C691 0.950 . S
C714 C715 1.349 . S
C714 C716 1.327 . S
C714 H739 0.950 . S
C715 C714 1.349 . S
C715 C731 1.349 . S
C716 C714 1.327 . S
C716 C735 1.429 . S
C716 H740 0.950 . S
C717 C734 1.574 . S
C717 C736 1.368 . S
C717 H741 0.949 . S
H718 C722 0.949 . S
C719 C720 1.349 . S
C719 C721 1.327 1_556 S
C719 H742 0.950 . S
C720 C719 1.349 . S
C720 C732 1.349 . S
C721 C719 1.327 1_554 S
C721 C737 1.429 . S
C721 H743 0.950 . S
C722 H718 0.949 . S
C722 C730 1.574 . S
C722 C738 1.368 . S
H723 C731 0.950 . S
H724 C729 0.950 . S
H725 C730 0.949 . S
H726 C732 0.950 . S
H727 C733 0.950 . S
H728 C734 0.949 . S
C729 H724 0.950 . S
C729 C731 1.327 . S
C729 C735 1.429 . S
C730 C722 1.574 . S
C730 H725 0.949 . S
C730 C736 1.368 . S
C731 C715 1.349 . S
C731 H723 0.950 . S
C731 C729 1.327 . S
C732 C720 1.349 . S
C732 H726 0.950 . S
C732 C733 1.327 1_556 S
C733 H727 0.950 . S
C733 C732 1.327 1_554 S
C733 C737 1.429 . S
C734 C717 1.574 . S
C734 H728 0.949 . S
C734 C738 1.368 . S
C735 C716 1.429 . S
C735 C729 1.429 . S
C735 C736 1.523 . S
C736 C717 1.368 . S
C736 C730 1.368 . S
C736 C735 1.523 . S
C737 C721 1.429 . S
C737 C733 1.429 . S
C737 C738 1.523 . S
C738 C722 1.368 . S
C738 C734 1.368 . S
C738 C737 1.523 . S
H739 C714 0.950 . S
H740 C716 0.950 . S
H741 C717 0.949 . S
H742 C719 0.950 . S
H743 C721 0.950 . S
C744 C745 1.349 . S
C744 C746 1.327 . S
C744 H769 0.950 . S
C745 C744 1.349 . S
C745 C761 1.318 1_455 S
C746 C744 1.327 . S
C746 C765 1.429 . S
C746 H770 0.950 . S
C747 C764 1.573 . S
C747 C766 1.344 1_655 S
C747 H771 0.972 . S
H748 C752 0.949 . S
C749 C750 1.349 . S
C749 C751 1.327 . S
C749 H772 0.950 1_455 S
C750 C749 1.349 . S
C750 C762 1.349 . S
C751 C749 1.327 . S
C751 C767 1.429 . S
C751 H773 0.950 1_455 S
C752 H748 0.949 . S
C752 C760 1.574 . S
C752 C768 1.368 . S
H753 C761 0.983 . S
H754 C759 0.980 . S
H755 C760 0.949 . S
H756 C762 0.950 . S
H757 C763 0.950 . S
H758 C764 0.953 . S
C759 H754 0.980 . S
C759 C761 1.327 . S
C759 C765 1.400 1_655 S
C760 C752 1.574 . S
C760 H755 0.949 . S
C760 C766 1.368 . S
C761 C745 1.318 1_655 S
C761 H753 0.983 . S
C761 C759 1.327 . S
C762 C750 1.349 . S
C762 H756 0.950 . S
C762 C763 1.327 . S
C763 H757 0.950 . S
C763 C762 1.327 . S
C763 C767 1.429 . S
C764 C747 1.573 . S
C764 H758 0.953 . S
C764 C768 1.363 1_655 S
C765 C746 1.429 . S
C765 C759 1.400 1_455 S
C765 C766 1.523 . S
C766 C747 1.344 1_455 S
C766 C760 1.368 . S
C766 C765 1.523 . S
C767 C751 1.429 . S
C767 C763 1.429 . S
C767 C768 1.523 . S
C768 C752 1.368 . S
C768 C764 1.363 1_455 S
C768 C767 1.523 . S
H769 C744 0.950 . S
H770 C746 0.950 . S
H771 C747 0.972 . S
H772 C749 0.950 1_655 S
H773 C751 0.950 1_655 S
C774 C775 1.349 1_565 S
C774 C776 1.327 . S
C774 H799 0.950 . S
C775 C774 1.349 1_545 S
C775 C791 1.349 . S
C776 C774 1.327 . S
C776 C795 1.429 1_565 S
C776 H800 0.950 . S
C777 C794 1.574 . S
C777 C796 1.368 . S
C777 H801 0.949 . S
H778 C782 0.949 . S
C779 C780 1.349 . S
C779 C781 1.327 . S
C779 H802 0.950 . S
C780 C779 1.349 . S
C780 C792 1.349 1_545 S
C781 C779 1.327 . S
C781 C797 1.429 . S
C781 H803 0.950 . S
C782 H778 0.949 . S
C782 C790 1.574 . S
C782 C798 1.368 1_565 S
H783 C791 0.950 . S
H784 C789 0.950 . S
H785 C790 0.949 . S
H786 C792 0.950 . S
H787 C793 0.950 . S
H788 C794 0.949 . S
C789 H784 0.950 . S
C789 C791 1.327 . S
C789 C795 1.429 . S
C790 C782 1.574 . S
C790 H785 0.949 . S
C790 C796 1.368 1_565 S
C791 C775 1.349 . S
C791 H783 0.950 . S
C791 C789 1.327 . S
C792 C780 1.349 1_565 S
C792 H786 0.950 . S
C792 C793 1.327 . S
C793 H787 0.950 . S
C793 C792 1.327 . S
C793 C797 1.429 1_565 S
C794 C777 1.574 . S
C794 H788 0.949 . S
C794 C798 1.368 . S
C795 C776 1.429 1_545 S
C795 C789 1.429 . S
C795 C796 1.523 . S
C796 C777 1.368 . S
C796 C790 1.368 1_545 S
C796 C795 1.523 . S
C797 C781 1.429 . S
C797 C793 1.429 1_545 S
C797 C798 1.523 . S
C798 C782 1.368 1_545 S
C798 C794 1.368 . S
C798 C797 1.523 . S
H799 C774 0.950 . S
H800 C776 0.950 . S
H801 C777 0.949 . S
H802 C779 0.950 . S
H803 C781 0.950 . S
C804 C805 1.349 . S
C804 C806 1.327 . S
C804 H829 0.950 . S
C805 C804 1.349 . S
C805 C821 1.349 . S
C806 C804 1.327 . S
C806 C825 1.429 . S
C806 H830 0.950 . S
C807 C824 1.574 . S
C807 C826 1.368 . S
C807 H831 0.949 . S
H808 C812 0.949 . S
C809 C810 1.349 . S
C809 C811 1.327 . S
C809 H832 0.950 . S
C810 C809 1.349 . S
C810 C822 1.349 . S
C811 C809 1.327 . S
C811 C827 1.429 . S
C811 H833 0.950 . S
C812 H808 0.949 . S
C812 C820 1.574 . S
C812 C828 1.368 . S
H813 C821 0.950 . S
H814 C819 0.950 . S
H815 C820 0.949 . S
H816 C822 0.950 . S
H817 C823 0.950 . S
H818 C824 0.949 . S
C819 H814 0.950 . S
C819 C821 1.327 . S
C819 C825 1.429 . S
C820 C812 1.574 . S
C820 H815 0.949 . S
C820 C826 1.368 . S
C821 C805 1.349 . S
C821 H813 0.950 . S
C821 C819 1.327 . S
C822 C810 1.349 . S
C822 H816 0.950 . S
C822 C823 1.327 . S
C823 H817 0.950 . S
C823 C822 1.327 . S
C823 C827 1.429 . S
C824 C807 1.574 . S
C824 H818 0.949 . S
C824 C828 1.368 . S
C825 C806 1.429 . S
C825 C819 1.429 . S
C825 C826 1.523 . S
C826 C807 1.368 . S
C826 C820 1.368 . S
C826 C825 1.523 . S
C827 C811 1.429 . S
C827 C823 1.429 . S
C827 C828 1.523 . S
C828 C812 1.368 . S
C828 C824 1.368 . S
C828 C827 1.523 . S
H829 C804 0.950 . S
H830 C806 0.950 . S
H831 C807 0.949 . S
H832 C809 0.950 . S
H833 C811 0.950 . S
C834 C835 1.349 . S
C834 C836 1.327 . S
C834 H859 0.950 . S
C835 C834 1.349 . S
C835 C851 1.349 . S
C836 C834 1.327 . S
C836 C855 1.429 . S
C836 H860 0.950 . S
C837 C854 1.574 . S
C837 C856 1.368 . S
C837 H861 0.949 . S
H838 C842 0.949 . S
C839 C840 1.349 . S
C839 C841 1.327 . S
C839 H862 0.950 . S
C840 C839 1.349 . S
C840 C852 1.349 . S
C841 C839 1.327 . S
C841 C857 1.429 . S
C841 H863 0.950 . S
C842 H838 0.949 . S
C842 C850 1.574 . S
C842 C858 1.368 . S
H843 C851 0.950 . S
H844 C849 0.950 . S
H845 C850 0.949 . S
H846 C852 0.950 . S
H847 C853 0.950 . S
H848 C854 0.949 . S
C849 H844 0.950 . S
C849 C851 1.327 . S
C849 C855 1.429 . S
C850 C842 1.574 . S
C850 H845 0.949 . S
C850 C856 1.368 . S
C851 C835 1.349 . S
C851 H843 0.950 . S
C851 C849 1.327 . S
C852 C840 1.349 . S
C852 H846 0.950 . S
C852 C853 1.327 . S
C853 H847 0.950 . S
C853 C852 1.327 . S
C853 C857 1.429 . S
C854 C837 1.574 . S
C854 H848 0.949 . S
C854 C858 1.368 . S
C855 C836 1.429 . S
C855 C849 1.429 . S
C855 C856 1.523 . S
C856 C837 1.368 . S
C856 C850 1.368 . S
C856 C855 1.523 . S
C857 C841 1.429 . S
C857 C853 1.429 . S
C857 C858 1.523 . S
C858 C842 1.368 . S
C858 C854 1.368 . S
C858 C857 1.523 . S
H859 C834 0.950 . S
H860 C836 0.950 . S
H861 C837 0.949 . S
H862 C839 0.950 . S
H863 C841 0.950 . S
C864 C865 1.349 1_455 S
C864 C866 1.327 . S
C864 H889 0.950 . S
C865 C864 1.349 1_655 S
C865 C881 1.349 . S
C866 C864 1.327 . S
C866 C885 1.429 1_455 S
C866 H890 0.950 . S
C867 C884 1.574 . S
C867 C886 1.368 . S
C867 H891 0.949 . S
H868 C872 0.949 . S
C869 C870 1.349 . S
C869 C871 1.327 . S
C869 H892 0.950 . S
C870 C869 1.349 . S
C870 C882 1.349 1_655 S
C871 C869 1.327 . S
C871 C887 1.429 . S
C871 H893 0.950 . S
C872 H868 0.949 . S
C872 C880 1.574 . S
C872 C888 1.368 1_455 S
H873 C881 0.950 . S
H874 C879 0.950 . S
H875 C880 0.949 . S
H876 C882 0.950 . S
H877 C883 0.950 . S
H878 C884 0.949 . S
C879 H874 0.950 . S
C879 C881 1.327 . S
C879 C885 1.429 . S
C880 C872 1.574 . S
C880 H875 0.949 . S
C880 C886 1.368 1_455 S
C881 C865 1.349 . S
C881 H873 0.950 . S
C881 C879 1.327 . S
C882 C870 1.349 1_455 S
C882 H876 0.950 . S
C882 C883 1.327 . S
C883 H877 0.950 . S
C883 C882 1.327 . S
C883 C887 1.429 1_455 S
C884 C867 1.574 . S
C884 H878 0.949 . S
C884 C888 1.368 . S
C885 C866 1.429 1_655 S
C885 C879 1.429 . S
C885 C886 1.523 . S
C886 C867 1.368 . S
C886 C880 1.368 1_655 S
C886 C885 1.523 . S
C887 C871 1.429 . S
C887 C883 1.429 1_655 S
C887 C888 1.523 . S
C888 C872 1.368 1_655 S
C888 C884 1.368 . S
C888 C887 1.523 . S
H889 C864 0.950 . S
H890 C866 0.950 . S
H891 C867 0.949 . S
H892 C869 0.950 . S
H893 C871 0.950 . S
C894 C895 1.349 . S
C894 C896 1.327 . S
C894 H919 0.950 . S
C895 C894 1.349 . S
C895 C911 1.349 1_565 S
C896 C894 1.327 . S
C896 C915 1.429 . S
C896 H920 0.950 . S
C897 C914 1.574 . S
C897 C916 1.368 1_545 S
C897 H921 0.949 . S
H898 C902 0.949 . S
C899 C900 1.349 1_545 S
C899 C901 1.327 . S
C899 H922 0.950 . S
C900 C899 1.349 1_565 S
C900 C912 1.349 . S
C901 C899 1.327 . S
C901 C917 1.429 1_545 S
C901 H923 0.950 . S
C902 H898 0.949 . S
C902 C910 1.574 . S
C902 C918 1.368 . S
H903 C911 0.950 . S
H904 C909 0.950 . S
H905 C910 0.949 . S
H906 C912 0.950 . S
H907 C913 0.950 . S
H908 C914 0.949 . S
C909 H904 0.950 . S
C909 C911 1.327 . S
C909 C915 1.429 1_545 S
C910 C902 1.574 . S
C910 H905 0.949 . S
C910 C916 1.368 . S
C911 C895 1.349 1_545 S
C911 H903 0.950 . S
C911 C909 1.327 . S
C912 C900 1.349 . S
C912 H906 0.950 . S
C912 C913 1.327 . S
C913 H907 0.950 . S
C913 C912 1.327 . S
C913 C917 1.429 . S
C914 C897 1.574 . S
C914 H908 0.949 . S
C914 C918 1.368 1_545 S
C915 C896 1.429 . S
C915 C909 1.429 1_565 S
C915 C916 1.523 . S
C916 C897 1.368 1_565 S
C916 C910 1.368 . S
C916 C915 1.523 . S
C917 C901 1.429 1_565 S
C917 C913 1.429 . S
C917 C918 1.523 . S
C918 C902 1.368 . S
C918 C914 1.368 1_565 S
C918 C917 1.523 . S
H919 C894 0.950 . S
H920 C896 0.950 . S
H921 C897 0.949 . S
H922 C899 0.950 . S
H923 C901 0.950 . S
C924 C925 1.349 . S
C924 C926 1.327 . S
C924 H949 0.950 . S
C925 C924 1.349 . S
C925 C941 1.349 . S
C926 C924 1.327 . S
C926 C945 1.429 . S
C926 H950 0.950 . S
C927 C944 1.574 . S
C927 C946 1.368 . S
C927 H951 0.949 . S
H928 C932 0.949 . S
C929 C930 1.349 . S
C929 C931 1.327 . S
C929 H952 0.950 . S
C930 C929 1.349 . S
C930 C942 1.349 . S
C931 C929 1.327 . S
C931 C947 1.429 . S
C931 H953 0.950 . S
C932 H928 0.949 . S
C932 C940 1.574 . S
C932 C948 1.368 . S
H933 C941 0.950 . S
H934 C939 0.950 . S
H935 C940 0.949 . S
H936 C942 0.950 . S
H937 C943 0.950 . S
H938 C944 0.949 . S
C939 H934 0.950 . S
C939 C941 1.327 . S
C939 C945 1.429 . S
C940 C932 1.574 . S
C940 H935 0.949 . S
C940 C946 1.368 . S
C941 C925 1.349 . S
C941 H933 0.950 . S
C941 C939 1.327 . S
C942 C930 1.349 . S
C942 H936 0.950 . S
C942 C943 1.327 . S
C943 H937 0.950 . S
C943 C942 1.327 . S
C943 C947 1.429 . S
C944 C927 1.574 . S
C944 H938 0.949 . S
C944 C948 1.368 . S
C945 C926 1.429 . S
C945 C939 1.429 . S
C945 C946 1.523 . S
C946 C927 1.368 . S
C946 C940 1.368 . S
C946 C945 1.523 . S
C947 C931 1.429 . S
C947 C943 1.429 . S
C947 C948 1.523 . S
C948 C932 1.368 . S
C948 C944 1.368 . S
C948 C947 1.523 . S
H949 C924 0.950 . S
H950 C926 0.950 . S
H951 C927 0.949 . S
H952 C929 0.950 . S
H953 C931 0.950 . S
C954 C955 1.349 . S
C954 C956 1.327 . S
C954 H979 0.950 . S
C955 C954 1.349 . S
C955 C971 1.349 . S
C956 C954 1.327 . S
C956 C975 1.429 . S
C956 H980 0.950 . S
C957 C974 1.574 . S
C957 C976 1.368 . S
C957 H981 0.949 . S
H958 C962 0.949 . S
C959 C960 1.349 . S
C959 C961 1.327 . S
C959 H982 0.950 . S
C960 C959 1.349 . S
C960 C972 1.349 . S
C961 C959 1.327 . S
C961 C977 1.429 . S
C961 H983 0.950 . S
C962 H958 0.949 . S
C962 C970 1.574 . S
C962 C978 1.368 . S
H963 C971 0.950 . S
H964 C969 0.950 . S
H965 C970 0.949 . S
H966 C972 0.950 . S
H967 C973 0.950 . S
H968 C974 0.949 . S
C969 H964 0.950 . S
C969 C971 1.327 . S
C969 C975 1.429 . S
C970 C962 1.574 . S
C970 H965 0.949 . S
C970 C976 1.368 . S
C971 C955 1.349 . S
C971 H963 0.950 . S
C971 C969 1.327 . S
C972 C960 1.349 . S
C972 H966 0.950 . S
C972 C973 1.327 . S
C973 H967 0.950 . S
C973 C972 1.327 . S
C973 C977 1.429 . S
C974 C957 1.574 . S
C974 H968 0.949 . S
C974 C978 1.368 . S
C975 C956 1.429 . S
C975 C969 1.429 . S
C975 C976 1.523 . S
C976 C957 1.368 . S
C976 C970 1.368 . S
C976 C975 1.523 . S
C977 C961 1.429 . S
C977 C973 1.429 . S
C977 C978 1.523 . S
C978 C962 1.368 . S
C978 C974 1.368 . S
C978 C977 1.523 . S
H979 C954 0.950 . S
H980 C956 0.950 . S
H981 C957 0.949 . S
H982 C959 0.950 . S
H983 C961 0.950 . S
C265 C82 1.611 . S
C270 C114 1.814 . S
C300 C154 1.815 . S
C295 C95 1.611 . S
C330 C194 1.815 . S
C325 C56 1.611 . S
C360 C234 1.814 . S
C355 C69 1.610 . S
C390 C123 1.821 . S
C385 C30 1.605 1_565 S
C415 C43 1.605 . S
C420 C163 1.814 . S
C445 C4 1.605 . S
C450 C203 1.815 . S
C475 C17 1.605 1_655 S
C480 C243 1.815 . S
C510 C120 0.364 . S
C505 C74 0.401 . S
C540 C160 0.364 . S
C535 C87 0.401 . S
C570 C200 0.364 . S
C565 C100 0.401 . S
C595 C61 0.401 . S
C600 C240 0.365 . S
C625 C22 0.405 . S
C630 C111 0.364 . S
C660 C151 0.364 . S
C655 C35 0.405 . S
C690 C191 0.365 . S
C685 C48 0.406 . S
C715 C9 0.405 . S
C720 C231 0.364 . S
C745 C73 1.865 . S
C750 C115 2.056 . S
C775 C86 1.865 . S
C780 C155 2.056 . S
C810 C195 2.057 . S
C805 C99 1.865 . S
C840 C235 2.056 . S
C835 C60 1.865 . S
C865 C21 1.866 . S
C870 C106 2.057 . S
C900 C146 2.056 . S
C895 C34 1.866 . S
C930 C186 2.056 . S
C925 C47 1.865 . S
C955 C8 1.866 . S
C960 C226 2.056 . S
