# Generated by pormake.
# Topology apo, (3,6)-cn, num edge types: 1
# Building blocks:
#     Node 0, Type 0, BuildingBlock: BETDIP_clean_linker_0, # of connection points: 3
#     Node 1, Type 0, BuildingBlock: BETDIP_clean_linker_0, # of connection points: 3
#     Node 2, Type 0, BuildingBlock: BETDIP_clean_linker_0, # of connection points: 3
#     Node 3, Type 0, BuildingBlock: BETDIP_clean_linker_0, # of connection points: 3
#     Node 4, Type 0, BuildingBlock: BETDIP_clean_linker_0, # of connection points: 3
#     Node 5, Type 0, BuildingBlock: BETDIP_clean_linker_0, # of connection points: 3
#     Node 6, Type 0, BuildingBlock: BETDIP_clean_linker_0, # of connection points: 3
#     Node 7, Type 0, BuildingBlock: BETDIP_clean_linker_0, # of connection points: 3
#     Node 8, Type 1, BuildingBlock: MIDCAF_clean_sbu_0, # of connection points: 6
#     Node 9, Type 1, BuildingBlock: MIDCAF_clean_sbu_0, # of connection points: 6
#     Node 10, Type 1, BuildingBlock: MIDCAF_clean_sbu_0, # of connection points: 6
#     Node 11, Type 1, BuildingBlock: MIDCAF_clean_sbu_0, # of connection points: 6
#     Edge 12, Type (0, 1), BuildingBlock: MIFKUJ_clean_linker_0, # of connection points: 2
#     Edge 13, Type (0, 1), BuildingBlock: MIFKUJ_clean_linker_0, # of connection points: 2
#     Edge 14, Type (0, 1), BuildingBlock: MIFKUJ_clean_linker_0, # of connection points: 2
#     Edge 15, Type (0, 1), BuildingBlock: MIFKUJ_clean_linker_0, # of connection points: 2
#     Edge 16, Type (0, 1), BuildingBlock: MIFKUJ_clean_linker_0, # of connection points: 2
#     Edge 17, Type (0, 1), BuildingBlock: MIFKUJ_clean_linker_0, # of connection points: 2
#     Edge 18, Type (0, 1), BuildingBlock: MIFKUJ_clean_linker_0, # of connection points: 2
#     Edge 19, Type (0, 1), BuildingBlock: MIFKUJ_clean_linker_0, # of connection points: 2
#     Edge 20, Type (0, 1), BuildingBlock: MIFKUJ_clean_linker_0, # of connection points: 2
#     Edge 21, Type (0, 1), BuildingBlock: MIFKUJ_clean_linker_0, # of connection points: 2
#     Edge 22, Type (0, 1), BuildingBlock: MIFKUJ_clean_linker_0, # of connection points: 2
#     Edge 23, Type (0, 1), BuildingBlock: MIFKUJ_clean_linker_0, # of connection points: 2
#     Edge 24, Type (0, 1), BuildingBlock: MIFKUJ_clean_linker_0, # of connection points: 2
#     Edge 25, Type (0, 1), BuildingBlock: MIFKUJ_clean_linker_0, # of connection points: 2
#     Edge 26, Type (0, 1), BuildingBlock: MIFKUJ_clean_linker_0, # of connection points: 2
#     Edge 27, Type (0, 1), BuildingBlock: MIFKUJ_clean_linker_0, # of connection points: 2
#     Edge 28, Type (0, 1), BuildingBlock: MIFKUJ_clean_linker_0, # of connection points: 2
#     Edge 29, Type (0, 1), BuildingBlock: MIFKUJ_clean_linker_0, # of connection points: 2
#     Edge 30, Type (0, 1), BuildingBlock: MIFKUJ_clean_linker_0, # of connection points: 2
#     Edge 31, Type (0, 1), BuildingBlock: MIFKUJ_clean_linker_0, # of connection points: 2
#     Edge 32, Type (0, 1), BuildingBlock: MIFKUJ_clean_linker_0, # of connection points: 2
#     Edge 33, Type (0, 1), BuildingBlock: MIFKUJ_clean_linker_0, # of connection points: 2
#     Edge 34, Type (0, 1), BuildingBlock: MIFKUJ_clean_linker_0, # of connection points: 2
#     Edge 35, Type (0, 1), BuildingBlock: MIFKUJ_clean_linker_0, # of connection points: 2
# Relax obj value: 0.012
# Max RMSD: 0.062
# Mean RMSD: 0.056
data_MOF--net-apo--node1-MIDCAF_clean_sbu_0--node2-BETDIP_clean_linker_0--edge1-MIFKUJ_clean_linker_0
_symmetry_space_group_name_H-M    P1
_symmetry_Int_Tables_number       1
_symmetry_cell_setting            triclinic
loop_
_symmetry_equiv_pos_as_xyz
'x, y, z'
_cell_length_a     47.827878
_cell_length_b     53.814261
_cell_length_c     45.882727
_cell_angle_alpha  89.90437
_cell_angle_beta   89.909894
_cell_angle_gamma 90.221569
loop_
_atom_site_label
_atom_site_type_symbol
_atom_site_fract_x
_atom_site_fract_y
_atom_site_fract_z
_atom_type_partial_charge
H0 H 0.30999 0.30301 0.42834 0.0
H1 H 0.32915 0.33941 0.34705 0.0
H2 H 0.37805 0.35538 0.42327 0.0
H3 H 0.30688 0.30705 0.32719 0.0
C4 C 0.29152 0.3004 0.34282 0.0
C5 C 0.32273 0.31587 0.4158 0.0
C6 C 0.34475 0.32871 0.42939 0.0
C7 C 0.31743 0.31887 0.38593 0.0
C8 C 0.33362 0.33601 0.3698 0.0
C9 C 0.35563 0.34918 0.38312 0.0
C10 C 0.36136 0.34505 0.41278 0.0
N11 N 0.29541 0.30464 0.3732 0.0
H12 H 0.18914 0.19822 0.93114 0.0
H13 H 0.17373 0.15612 0.85308 0.0
H14 H 0.12956 0.13789 0.93143 0.0
H15 H 0.21435 0.17027 0.83863 0.0
C16 C 0.21863 0.18776 0.8495 0.0
C17 C 0.1784 0.18317 0.92016 0.0
C18 C 0.15811 0.16896 0.93516 0.0
C19 C 0.18488 0.17834 0.8908 0.0
C20 C 0.17018 0.15943 0.87601 0.0
C21 C 0.14986 0.14508 0.89051 0.0
C22 C 0.14438 0.14972 0.92006 0.0
N23 N 0.20575 0.19322 0.8768 0.0
H24 H 0.80795 0.19177 0.58307 0.0
H25 H 0.82418 0.16046 0.66778 0.0
H26 H 0.87261 0.13705 0.59402 0.0
H27 H 0.7765 0.16775 0.6721 0.0
C28 C 0.77528 0.18645 0.66322 0.0
C29 C 0.81988 0.1794 0.5969 0.0
C30 C 0.84092 0.1644 0.58472 0.0
C31 C 0.8132 0.1777 0.62668 0.0
C32 C 0.8285 0.16143 0.64464 0.0
C33 C 0.85017 0.14695 0.63301 0.0
C34 C 0.85615 0.14849 0.60309 0.0
N35 N 0.79132 0.19277 0.63807 0.0
H36 H 0.69435 0.30023 0.07832 0.0
H37 H 0.67808 0.33666 0.16001 0.0
H38 H 0.62848 0.35431 0.08505 0.0
H39 H 0.72485 0.32948 0.1664 0.0
C40 C 0.72698 0.31072 0.158 0.0
C41 C 0.68244 0.31349 0.09098 0.0
C42 C 0.6603 0.32661 0.07795 0.0
C43 C 0.68942 0.31733 0.12036 0.0
C44 C 0.67363 0.33416 0.13708 0.0
C45 C 0.65131 0.34724 0.12454 0.0
C46 C 0.64498 0.34347 0.09501 0.0
N47 N 0.71179 0.30345 0.13271 0.0
H48 H 0.68744 0.69159 0.57107 0.0
H49 H 0.66648 0.66113 0.65499 0.0
H50 H 0.62504 0.63414 0.57842 0.0
H51 H 0.70485 0.67827 0.67037 0.0
C52 C 0.71261 0.69188 0.65489 0.0
C53 C 0.67537 0.67865 0.58416 0.0
C54 C 0.65504 0.66344 0.57099 0.0
C55 C 0.68029 0.67753 0.61426 0.0
C56 C 0.66397 0.66141 0.63162 0.0
C57 C 0.64369 0.6458 0.61893 0.0
C58 C 0.63971 0.64681 0.58857 0.0
N59 N 0.70173 0.693 0.62603 0.0
H60 H 0.81625 0.8032 0.07178 0.0
H61 H 0.8264 0.84014 0.15431 0.0
H62 H 0.88009 0.85889 0.08228 0.0
H63 H 0.81259 0.80011 0.17033 0.0
C64 C 0.7949 0.79722 0.15587 0.0
C65 C 0.82705 0.81669 0.08523 0.0
C66 C 0.84932 0.83066 0.0735 0.0
C67 C 0.81934 0.81931 0.11467 0.0
C68 C 0.83315 0.83713 0.13207 0.0
C69 C 0.85482 0.85187 0.12039 0.0
C70 C 0.86301 0.84804 0.09132 0.0
N71 N 0.79718 0.80433 0.12602 0.0
H72 H 0.20051 0.80499 0.42143 0.0
H73 H 0.17972 0.83687 0.33815 0.0
H74 H 0.1396 0.86335 0.41581 0.0
H75 H 0.19748 0.80189 0.3205 0.0
C76 C 0.21424 0.79669 0.33519 0.0
C77 C 0.18838 0.81795 0.40855 0.0
C78 C 0.16941 0.83402 0.42236 0.0
C79 C 0.19218 0.81864 0.37819 0.0
C80 C 0.17678 0.83583 0.36147 0.0
C81 C 0.15753 0.85195 0.37482 0.0
C82 C 0.15416 0.85088 0.40526 0.0
N83 N 0.21234 0.80247 0.36543 0.0
H84 H 0.30989 0.69833 0.92018 0.0
H85 H 0.32453 0.66607 0.83566 0.0
H86 H 0.37201 0.64138 0.90925 0.0
H87 H 0.28441 0.68287 0.82385 0.0
C88 C 0.2798 0.69828 0.83825 0.0
C89 C 0.32136 0.68561 0.90637 0.0
C90 C 0.34178 0.66999 0.91854 0.0
C91 C 0.31462 0.68429 0.87663 0.0
C92 C 0.32899 0.66728 0.85869 0.0
C93 C 0.34978 0.65182 0.87041 0.0
C94 C 0.35615 0.65347 0.9002 0.0
N95 N 0.29324 0.70025 0.86585 0.0
Zn96 Zn 0.01588 0.11673 0.31052 0.0
Zn97 Zn 0.98174 0.11967 0.20285 0.0
Zn98 Zn 9e-05 0.12001 0.25625 0.0
C99 C 0.03331 0.144 0.20142 0.0
C100 C 0.98457 0.07029 0.21787 0.0
O101 O 0.96694 0.13685 0.2849 0.0
O102 O 0.98195 0.12903 0.32962 0.0
C103 C 0.05429 0.14826 0.2813 0.0
O104 O 0.03197 0.13998 0.22913 0.0
O105 O 0.0139 0.13681 0.18485 0.0
O106 O 0.97809 0.08369 0.19636 0.0
O107 O 0.99365 0.08053 0.24151 0.0
O108 O 0.04738 0.14038 0.30625 0.0
O109 O 0.03997 0.14176 0.25872 0.0
O110 O 0.00916 0.08047 0.2674 0.0
O111 O 0.02398 0.08078 0.31307 0.0
C112 C 0.01889 0.069 0.28993 0.0
O113 O 0.95914 0.14 0.25573 0.0
O114 O 0.94683 0.13822 0.20931 0.0
C115 C 0.96361 0.13775 0.31282 0.0
C116 C 0.9418 0.14512 0.23506 0.0
Zn117 Zn 0.52235 0.3803 0.70096 0.0
Zn118 Zn 0.4764 0.37695 0.80045 0.0
Zn119 Zn 0.49906 0.37671 0.75232 0.0
C120 C 0.46732 0.42335 0.78061 0.0
C121 C 0.44877 0.34091 0.77088 0.0
O122 O 0.54015 0.3573 0.75507 0.0
O123 O 0.55815 0.36411 0.71128 0.0
C124 C 0.51405 0.42851 0.71728 0.0
O125 O 0.48725 0.41556 0.76405 0.0
O126 O 0.45494 0.40837 0.79743 0.0
O127 O 0.45518 0.34545 0.79698 0.0
O128 O 0.46085 0.35287 0.74996 0.0
O129 O 0.52217 0.41674 0.69511 0.0
O130 O 0.50505 0.41668 0.73997 0.0
O131 O 0.47095 0.35645 0.72142 0.0
O132 O 0.49436 0.36 0.68001 0.0
C133 C 0.47336 0.35202 0.6939 0.0
O134 O 0.53007 0.3614 0.78388 0.0
O135 O 0.51129 0.37703 0.82374 0.0
C136 C 0.5601 0.35463 0.73638 0.0
C137 C 0.53157 0.36648 0.81129 0.0
Zn138 Zn 0.0266 0.87454 0.82774 0.0
Zn139 Zn 0.98016 0.8917 0.6949 0.0
Zn140 Zn 0.99762 0.87889 0.74295 0.0
C141 C 0.9783 0.93358 0.72996 0.0
C142 C 0.94293 0.85507 0.71491 0.0
O143 O 0.03588 0.85719 0.739 0.0
O144 O 0.03219 0.8643 0.78495 0.0
C145 C 0.01877 0.92307 0.79619 0.0
O146 O 0.99287 0.91924 0.74633 0.0
O147 O 0.96833 0.92551 0.70636 0.0
O148 O 0.95018 0.86607 0.69173 0.0
O149 O 0.95707 0.85866 0.73844 0.0
O150 O 0.02537 0.91177 0.81984 0.0
O151 O 0.01024 0.91177 0.77261 0.0
O152 O 0.96655 0.85678 0.76688 0.0
O153 O 0.00103 0.86338 0.79551 0.0
C154 C 0.9764 0.85528 0.7926 0.0
O155 O 0.02927 0.86548 0.71072 0.0
O156 O 0.0156 0.88728 0.67257 0.0
C157 C 0.04589 0.85419 0.76451 0.0
C158 C 0.03316 0.87296 0.68433 0.0
Zn159 Zn 0.52521 0.61498 0.19642 0.0
Zn160 Zn 0.47814 0.62297 0.29402 0.0
Zn161 Zn 0.50291 0.61893 0.24391 0.0
C162 C 0.53294 0.64024 0.30125 0.0
C163 C 0.47667 0.57253 0.27964 0.0
O164 O 0.47359 0.63444 0.21094 0.0
O165 O 0.4907 0.61535 0.17239 0.0
C166 C 0.55527 0.65154 0.22306 0.0
O167 O 0.53354 0.63695 0.27343 0.0
O168 O 0.51139 0.63463 0.31581 0.0
O169 O 0.46564 0.5877 0.29715 0.0
O170 O 0.49307 0.58046 0.25927 0.0
O171 O 0.54826 0.64567 0.19747 0.0
O172 O 0.54292 0.64102 0.2449 0.0
O173 O 0.51097 0.57881 0.23546 0.0
O174 O 0.54428 0.58266 0.2024 0.0
C175 C 0.53047 0.56916 0.21974 0.0
O176 O 0.46378 0.64149 0.23826 0.0
O177 O 0.44992 0.64797 0.28369 0.0
C178 C 0.47154 0.62803 0.18396 0.0
C179 C 0.44713 0.65184 0.25676 0.0
H180 H 0.10285 0.8657 0.3823 0.0
H181 H 0.07754 0.89854 0.35743 0.0
H182 H 0.14871 0.91174 0.3015 0.0
H183 H 0.17498 0.87996 0.32782 0.0
H184 H 0.13114 0.95352 0.31848 0.0
H185 H 0.08475 0.88511 0.27629 0.0
H186 H 0.0603 0.84478 0.27341 0.0
H187 H 0.99268 0.87371 0.32463 0.0
H188 H 0.0169 0.91412 0.32822 0.0
H189 H 0.04575 0.04431 0.24627 0.0
H190 H 0.06666 0.00268 0.24954 0.0
H191 H 0.02918 0.99246 0.33425 0.0
H192 H 0.00926 0.03426 0.33157 0.0
H193 H 0.03096 0.94754 0.29118 0.0
H194 H 0.08676 0.01289 0.34028 0.0
H195 H 0.11138 0.05326 0.33931 0.0
H196 H 0.16205 0.02829 0.26786 0.0
H197 H 0.13737 0.98788 0.26816 0.0
C198 C 0.11326 0.87562 0.36481 0.0
C199 C 0.14115 0.87026 0.35735 0.0
C200 C 0.09851 0.89418 0.35017 0.0
C201 C 0.11095 0.9075 0.32717 0.0
C202 C 0.13853 0.90171 0.31907 0.0
C203 C 0.15348 0.88333 0.334 0.0
C204 C 0.09588 0.92872 0.31341 0.0
C205 C 0.10945 0.9519 0.31185 0.0
C206 C 0.06747 0.92693 0.30467 0.0
C207 C 0.05276 0.90264 0.30268 0.0
C208 C 0.06476 0.88283 0.28714 0.0
C209 C 0.05093 0.85996 0.28534 0.0
C210 C 0.02498 0.85668 0.29886 0.0
C211 C 0.01279 0.87628 0.31417 0.0
C212 C 0.02655 0.89919 0.31606 0.0
C213 C 0.04142 0.03286 0.2652 0.0
C214 C 0.02609 0.04241 0.28876 0.0
C215 C 0.05335 0.00916 0.26704 0.0
C216 C 0.04946 0.99461 0.29217 0.0
C217 C 0.03228 0.0034 0.31465 0.0
C218 C 0.02102 0.02726 0.31315 0.0
C219 C 0.06618 0.9719 0.29713 0.0
C220 C 0.05287 0.94867 0.29714 0.0
C221 C 0.09494 0.97345 0.30386 0.0
C222 C 0.11002 0.99754 0.304 0.0
C223 C 0.10299 0.01611 0.32421 0.0
C224 C 0.11697 0.03897 0.32381 0.0
C225 C 0.13821 0.04337 0.30347 0.0
C226 C 0.14556 0.02488 0.28356 0.0
C227 C 0.13159 0.002 0.28383 0.0
H228 H 0.14901 0.06108 0.3032 0.0
H229 H 0.01429 0.83896 0.29744 0.0
H230 H 0.40579 0.6422 0.8658 0.0
H231 H 0.42789 0.60661 0.84171 0.0
H232 H 0.34722 0.582 0.81115 0.0
H233 H 0.32509 0.61764 0.83491 0.0
H234 H 0.37745 0.54692 0.84512 0.0
H235 H 0.39152 0.60156 0.76364 0.0
H236 H 0.40831 0.63908 0.7381 0.0
H237 H 0.49303 0.62081 0.76001 0.0
H238 H 0.47672 0.58342 0.78623 0.0
H239 H 0.41463 0.43945 0.77264 0.0
H240 H 0.39687 0.48155 0.77963 0.0
H241 H 0.48072 0.50775 0.79632 0.0
H242 H 0.49856 0.46544 0.78864 0.0
H243 H 0.45047 0.54317 0.76831 0.0
H244 H 0.43855 0.492 0.85239 0.0
H245 H 0.42414 0.45484 0.88019 0.0
H246 H 0.33848 0.46756 0.8568 0.0
H247 H 0.35245 0.50462 0.82848 0.0
C248 C 0.39288 0.62944 0.85344 0.0
C249 C 0.36371 0.63262 0.85228 0.0
C250 C 0.40554 0.60922 0.83958 0.0
C251 C 0.38919 0.59171 0.8246 0.0
C252 C 0.36021 0.59539 0.82248 0.0
C253 C 0.34761 0.61578 0.83595 0.0
C254 C 0.40171 0.56811 0.81426 0.0
C255 C 0.39306 0.54607 0.82796 0.0
C256 C 0.423 0.56719 0.79279 0.0
C257 C 0.43283 0.58985 0.77731 0.0
C258 C 0.4137 0.6057 0.76339 0.0
C259 C 0.42314 0.62692 0.74871 0.0
C260 C 0.4517 0.6324 0.74757 0.0
C261 C 0.4709 0.6166 0.76101 0.0
C262 C 0.46156 0.59539 0.77579 0.0
C263 C 0.42931 0.45435 0.77712 0.0
C264 C 0.45794 0.44937 0.77994 0.0
C265 C 0.41917 0.47835 0.78123 0.0
C266 C 0.43737 0.49774 0.78914 0.0
C267 C 0.46627 0.4931 0.79027 0.0
C268 C 0.47649 0.46901 0.78572 0.0
C269 C 0.42576 0.52198 0.79882 0.0
C270 C 0.43474 0.54407 0.78532 0.0
C271 C 0.40511 0.52316 0.82095 0.0
C272 C 0.39659 0.50095 0.83808 0.0
C273 C 0.41667 0.48677 0.853 0.0
C274 C 0.40858 0.46574 0.86887 0.0
C275 C 0.38042 0.45881 0.8702 0.0
C276 C 0.36029 0.47294 0.85571 0.0
C277 C 0.36828 0.49396 0.83976 0.0
H278 H 0.37419 0.44252 0.8825 0.0
H279 H 0.45893 0.64885 0.73622 0.0
H280 H 0.58856 0.63222 0.61257 0.0
H281 H 0.56295 0.60011 0.63897 0.0
H282 H 0.63457 0.58787 0.69417 0.0
H283 H 0.66103 0.61872 0.66647 0.0
H284 H 0.61707 0.54611 0.67775 0.0
H285 H 0.57101 0.61515 0.71883 0.0
H286 H 0.54609 0.65511 0.72072 0.0
H287 H 0.47731 0.62325 0.6736 0.0
H288 H 0.50201 0.58319 0.67092 0.0
H289 H 0.54174 0.45585 0.75762 0.0
H290 H 0.55893 0.49859 0.75137 0.0
H291 H 0.51344 0.50447 0.67061 0.0
H292 H 0.49679 0.46159 0.6765 0.0
H293 H 0.51786 0.55134 0.70897 0.0
H294 H 0.57204 0.48497 0.66129 0.0
H295 H 0.59722 0.44508 0.66307 0.0
H296 H 0.65167 0.47405 0.72926 0.0
H297 H 0.62643 0.514 0.72818 0.0
C298 C 0.59898 0.62265 0.63024 0.0
C299 C 0.62706 0.62799 0.63709 0.0
C300 C 0.58407 0.60454 0.64573 0.0
C301 C 0.59661 0.59166 0.66891 0.0
C302 C 0.62433 0.59754 0.67645 0.0
C303 C 0.6394 0.61541 0.6607 0.0
C304 C 0.58175 0.57053 0.68334 0.0
C305 C 0.59559 0.5476 0.68516 0.0
C306 C 0.55356 0.57211 0.69292 0.0
C307 C 0.53855 0.59619 0.69439 0.0
C308 C 0.55069 0.61671 0.7086 0.0
C309 C 0.53659 0.63938 0.70984 0.0
C310 C 0.51022 0.64176 0.69711 0.0
C311 C 0.49781 0.62141 0.6833 0.0
C312 C 0.51184 0.5987 0.68195 0.0
C313 C 0.53454 0.46667 0.73918 0.0
C314 C 0.51783 0.45565 0.71762 0.0
C315 C 0.5444 0.491 0.73559 0.0
C316 C 0.53744 0.50462 0.71052 0.0
C317 C 0.51882 0.49433 0.69022 0.0
C318 C 0.5094 0.46987 0.69354 0.0
C319 C 0.55323 0.52741 0.70274 0.0
C320 C 0.53953 0.55038 0.70205 0.0
C321 C 0.5817 0.52611 0.69468 0.0
C322 C 0.59717 0.50231 0.6949 0.0
C323 C 0.58924 0.48274 0.67638 0.0
C324 C 0.60353 0.46015 0.67724 0.0
C325 C 0.62598 0.457 0.69633 0.0
C326 C 0.63424 0.47649 0.71453 0.0
C327 C 0.61995 0.49911 0.7138 0.0
H328 H 0.63702 0.43949 0.69698 0.0
H329 H 0.49934 0.65934 0.69809 0.0
H330 H 0.87094 0.89816 0.10224 0.0
H331 H 0.89794 0.9291 0.12886 0.0
H332 H 0.89662 0.88257 0.20537 0.0
H333 H 0.87036 0.85068 0.17837 0.0
H334 H 0.88405 0.93888 0.21172 0.0
H335 H 0.95311 0.88114 0.17731 0.0
H336 H 0.97471 0.85414 0.14027 0.0
H337 H 0.98971 0.91747 0.08531 0.0
H338 H 0.96779 0.94481 0.12182 0.0
H339 H 0.97294 0.03652 0.26162 0.0
H340 H 0.95754 0.99328 0.25549 0.0
H341 H 0.96704 0.0007 0.16229 0.0
H342 H 0.98393 0.04294 0.16848 0.0
H343 H 0.98015 0.9563 0.176 0.0
H344 H 0.90271 0.01119 0.20132 0.0
H345 H 0.87756 0.04014 0.23365 0.0
H346 H 0.87548 0.98475 0.30111 0.0
H347 H 0.90089 0.95557 0.26923 0.0
C348 C 0.87654 0.89426 0.12464 0.0
C349 C 0.86889 0.87163 0.13793 0.0
C350 C 0.8918 0.9121 0.13989 0.0
C351 C 0.89951 0.90798 0.16894 0.0
C352 C 0.89088 0.88602 0.1829 0.0
C353 C 0.8758 0.86789 0.16747 0.0
C354 C 0.9174 0.92659 0.18382 0.0
C355 C 0.90536 0.94235 0.20459 0.0
C356 C 0.94496 0.9313 0.17404 0.0
C357 C 0.9587 0.915 0.15227 0.0
C358 C 0.96087 0.88929 0.15725 0.0
C359 C 0.97319 0.87393 0.13636 0.0
C360 C 0.98355 0.88408 0.11044 0.0
C361 C 0.98169 0.90963 0.1054 0.0
C362 C 0.96936 0.92508 0.12622 0.0
C363 C 0.97279 0.02856 0.23999 0.0
C364 C 0.97977 0.04314 0.21555 0.0
C365 C 0.96353 0.00395 0.23643 0.0
C366 C 0.96054 0.99377 0.20835 0.0
C367 C 0.96908 0.00796 0.1842 0.0
C368 C 0.97861 0.03226 0.18776 0.0
C369 C 0.9465 0.96937 0.20318 0.0
C370 C 0.95923 0.95247 0.18404 0.0
C371 C 0.91935 0.96391 0.21403 0.0
C372 C 0.90397 0.98135 0.23308 0.0
C373 C 0.89701 0.00526 0.22311 0.0
C374 C 0.88271 0.02169 0.24134 0.0
C375 C 0.87501 0.01432 0.26945 0.0
C376 C 0.88152 0.99046 0.27936 0.0
C377 C 0.89586 0.97397 0.26123 0.0
H378 H 0.86394 0.02706 0.28354 0.0
H379 H 0.99305 0.87215 0.09427 0.0
H380 H 0.82992 0.11177 0.67053 0.0
H381 H 0.85652 0.08089 0.698 0.0
H382 H 0.93359 0.11291 0.66596 0.0
H383 H 0.90687 0.14311 0.6375 0.0
H384 H 0.9367 0.06653 0.66001 0.0
H385 H 0.91074 0.11685 0.74056 0.0
H386 H 0.87934 0.14062 0.77269 0.0
H387 H 0.83349 0.07403 0.79297 0.0
H388 H 0.86436 0.04991 0.76064 0.0
H389 H 0.01184 0.97483 0.7321 0.0
H390 H 0.99481 0.01783 0.72859 0.0
H391 H 0.91025 0.99206 0.74042 0.0
H392 H 0.92704 0.94938 0.74434 0.0
H393 H 0.91737 0.03986 0.76165 0.0
H394 H 0.93905 0.99265 0.67341 0.0
H395 H 0.97122 0.96901 0.64192 0.0
H396 H 0.02662 0.0319 0.63739 0.0
H397 H 0.99492 0.05578 0.6692 0.0
C398 C 0.85255 0.11239 0.66973 0.0
C399 C 0.86635 0.12976 0.65185 0.0
C400 C 0.8678 0.09484 0.6856 0.0
C401 C 0.89721 0.09467 0.68449 0.0
C402 C 0.91098 0.11255 0.66724 0.0
C403 C 0.89572 0.12981 0.65097 0.0
C404 C 0.91343 0.07458 0.69917 0.0
C405 C 0.93289 0.06122 0.68249 0.0
C406 C 0.90837 0.06719 0.72841 0.0
C407 C 0.88978 0.0816 0.748 0.0
C408 C 0.89385 0.1073 0.75171 0.0
C409 C 0.87615 0.12083 0.76999 0.0
C410 C 0.85441 0.10885 0.78483 0.0
C411 C 0.85034 0.08329 0.78146 0.0
C412 C 0.86796 0.06967 0.76319 0.0
C413 C 0.98983 0.97857 0.73546 0.0
C414 C 0.97068 0.95895 0.73859 0.0
C415 C 0.98014 0.00305 0.73323 0.0
C416 C 0.95131 0.00807 0.73364 0.0
C417 C 0.93257 0.9887 0.73999 0.0
C418 C 0.94218 0.96431 0.74226 0.0
C419 C 0.9402 0.03199 0.72233 0.0
C420 C 0.92158 0.04582 0.73947 0.0
C421 C 0.94613 0.04003 0.69357 0.0
C422 C 0.9648 0.02588 0.67389 0.0
C423 C 0.95815 0.00138 0.66577 0.0
C424 C 0.97629 0.98794 0.64788 0.0
C425 C 0.00097 -0.00107 0.6377 0.0
C426 C 0.00749 0.02342 0.64528 0.0
C427 C 0.98945 0.03691 0.66324 0.0
H428 H 0.01502 0.98849 0.62389 0.0
H429 H 0.84073 0.11937 0.79896 0.0
H430 H 0.59449 0.35228 0.12667 0.0
H431 H 0.56762 0.38468 0.15127 0.0
H432 H 0.64397 0.41581 0.18569 0.0
H433 H 0.67089 0.38318 0.16147 0.0
H434 H 0.60264 0.41899 0.22535 0.0
H435 H 0.61416 0.43844 0.12323 0.0
H436 H 0.6105 0.43027 0.07049 0.0
H437 H 0.52126 0.42389 0.07821 0.0
H438 H 0.52446 0.43167 0.13111 0.0
H439 H 0.58135 0.54895 0.22749 0.0
H440 H 0.59457 0.50549 0.22067 0.0
H441 H 0.50818 0.48607 0.20579 0.0
H442 H 0.49479 0.52978 0.21333 0.0
H443 H 0.54651 0.47283 0.16008 0.0
H444 H 0.53593 0.46226 0.26195 0.0
H445 H 0.54147 0.47288 0.31381 0.0
H446 H 0.63042 0.4647 0.30636 0.0
H447 H 0.62555 0.45462 0.25421 0.0
C448 C 0.60551 0.36593 0.13967 0.0
C449 C 0.63483 0.36537 0.14187 0.0
C450 C 0.59014 0.38441 0.15376 0.0
C451 C 0.6038 0.40295 0.16995 0.0
C452 C 0.63295 0.40172 0.17334 0.0
C453 C 0.64833 0.38308 0.15946 0.0
C454 C 0.5881 0.42466 0.18144 0.0
C455 C 0.59042 0.4308 0.21109 0.0
C456 C 0.57155 0.43977 0.16299 0.0
C457 C 0.56957 0.43532 0.13116 0.0
C458 C 0.59378 0.43511 0.11371 0.0
C459 C 0.59179 0.43058 0.08379 0.0
C460 C 0.56567 0.42649 0.07102 0.0
C461 C 0.54148 0.42701 0.08814 0.0
C462 C 0.54337 0.43148 0.11809 0.0
C463 C 0.56512 0.53525 0.22359 0.0
C464 C 0.53709 0.54252 0.2211 0.0
C465 C 0.57266 0.51046 0.21974 0.0
C466 C 0.55235 0.49257 0.21278 0.0
C467 C 0.52412 0.49962 0.21129 0.0
C468 C 0.51649 0.52446 0.21571 0.0
C469 C 0.56146 0.4674 0.20384 0.0
C470 C 0.5581 0.46068 0.17455 0.0
C471 C 0.57726 0.45199 0.22256 0.0
C472 C 0.58036 0.45781 0.25404 0.0
C473 C 0.55671 0.46292 0.27127 0.0
C474 C 0.55972 0.46881 0.30075 0.0
C475 C 0.58626 0.46945 0.31339 0.0
C476 C 0.60986 0.46419 0.29655 0.0
C477 C 0.60699 0.45837 0.267 0.0
H478 H 0.58852 0.474 0.33624 0.0
H479 H 0.56417 0.42298 0.04786 0.0
H480 H 0.3354 0.38737 0.35042 0.0
H481 H 0.36176 0.42041 0.32621 0.0
H482 H 0.43911 0.38658 0.35366 0.0
H483 H 0.41252 0.35407 0.37912 0.0
H484 H 0.44422 0.43245 0.36176 0.0
H485 H 0.41522 0.387 0.27934 0.0
H486 H 0.38342 0.36424 0.24655 0.0
H487 H 0.33545 0.43053 0.23309 0.0
H488 H 0.36671 0.45364 0.26614 0.0
H489 H 0.51086 0.53149 0.28015 0.0
H490 H 0.49657 0.48816 0.28997 0.0
H491 H 0.41048 0.51128 0.29524 0.0
H492 H 0.4246 0.55419 0.28567 0.0
H493 H 0.41871 0.46553 0.26444 0.0
H494 H 0.44688 0.50728 0.35516 0.0
H495 H 0.48169 0.52851 0.38606 0.0
H496 H 0.53603 0.46539 0.37989 0.0
H497 H 0.50165 0.44393 0.34863 0.0
C498 C 0.35803 0.38682 0.35094 0.0
C499 C 0.37191 0.3681 0.36653 0.0
C500 C 0.37317 0.40567 0.33693 0.0
C501 C 0.4026 0.40588 0.33748 0.0
C502 C 0.41648 0.38692 0.35277 0.0
C503 C 0.40129 0.36831 0.36728 0.0
C504 C 0.41858 0.42675 0.32366 0.0
C505 C 0.43902 0.43922 0.34017 0.0
C506 C 0.41214 0.43578 0.29539 0.0
C507 C 0.39326 0.42202 0.27539 0.0
C508 C 0.39779 0.3967 0.26954 0.0
C509 C 0.37986 0.38374 0.25088 0.0
C510 C 0.3574 0.39592 0.23778 0.0
C511 C 0.35285 0.42112 0.24326 0.0
C512 C 0.3707 0.43417 0.26192 0.0
C513 C 0.48888 0.5271 0.28276 0.0
C514 C 0.46877 0.54605 0.28203 0.0
C515 C 0.48077 0.50245 0.28853 0.0
C516 C 0.45246 0.49653 0.29341 0.0
C517 C 0.43239 0.51537 0.29141 0.0
C518 C 0.44048 0.53989 0.28609 0.0
C519 C 0.44339 0.47135 0.30296 0.0
C520 C 0.42426 0.45818 0.28568 0.0
C521 C 0.45149 0.46134 0.33017 0.0
C522 C 0.47188 0.47415 0.34928 0.0
C523 C 0.46634 0.49802 0.36023 0.0
C524 C 0.48597 0.51007 0.37783 0.0
C525 C 0.51109 0.49834 0.38487 0.0
C526 C 0.51657 0.47447 0.37442 0.0
C527 C 0.49702 0.46235 0.35678 0.0
H528 H 0.52628 0.50771 0.39847 0.0
H529 H 0.34355 0.38585 0.22334 0.0
H530 H 0.09369 0.13588 0.89219 0.0
H531 H 0.06811 0.10161 0.86951 0.0
H532 H 0.14474 0.07489 0.83126 0.0
H533 H 0.17043 0.10942 0.85368 0.0
H534 H 0.10236 0.07012 0.79347 0.0
H535 H 0.11831 0.04889 0.8935 0.0
H536 H 0.1172 0.05521 0.94671 0.0
H537 H 0.02756 0.05905 0.94462 0.0
H538 H 0.02817 0.05311 0.8913 0.0
H539 H 0.06491 0.9432 0.77232 0.0
H540 H 0.08368 0.98468 0.78133 0.0
H541 H 0.00759 0.00432 0.82648 0.0
H542 H 0.98974 0.96196 0.81905 0.0
H543 H 0.048 0.01473 0.85905 0.0
H544 H 0.03341 0.03328 0.75699 0.0
H545 H 0.0371 0.02619 0.70382 0.0
H546 H 0.12654 0.02564 0.71006 0.0
H547 H 0.12344 0.03252 0.7631 0.0
C548 C 0.10509 0.12272 0.87891 0.0
C549 C 0.13414 0.12518 0.875 0.0
C550 C 0.09044 0.10315 0.86593 0.0
C551 C 0.10455 0.08539 0.84907 0.0
C552 C 0.13339 0.08833 0.8442 0.0
C553 C 0.14806 0.10806 0.85702 0.0
C554 C 0.08944 0.0632 0.8377 0.0
C555 C 0.09057 0.05789 0.80778 0.0
C556 C 0.07375 0.04741 0.85628 0.0
C557 C 0.07331 0.05083 0.88837 0.0
C558 C 0.09838 0.05127 0.90436 0.0
C559 C 0.09784 0.05476 0.93454 0.0
C560 C 0.07233 0.0576 0.94902 0.0
C561 C 0.04731 0.05689 0.93336 0.0
C562 C 0.04773 0.05345 0.90316 0.0
C563 C 0.0519 0.9567 0.78333 0.0
C564 C 0.02586 0.94964 0.79479 0.0
C565 C 0.06256 0.98053 0.78837 0.0
C566 C 0.04705 0.99798 0.80439 0.0
C567 C 0.02007 0.99129 0.81411 0.0
C568 C 0.00973 0.9672 0.8097 0.0
C569 C 0.06036 0.02162 0.81451 0.0
C570 C 0.05922 0.02712 0.84444 0.0
C571 C 0.07627 0.03736 0.79591 0.0
C572 C 0.07813 0.03318 0.76401 0.0
C573 C 0.05382 0.03142 0.74699 0.0
C574 C 0.0558 0.0275 0.71692 0.0
C575 C 0.08197 0.02537 0.70364 0.0
C576 C 0.10626 0.02726 0.72037 0.0
C577 C 0.10441 0.03123 0.75041 0.0
H578 H 0.08342 0.02232 0.68038 0.0
H579 H 0.07196 0.0603 0.97239 0.0
H580 H 0.10679 0.16505 0.96166 0.0
H581 H 0.09542 0.1694 0.0128 0.0
H582 H 0.18061 0.19078 0.03123 0.0
H583 H 0.19287 0.18421 0.97999 0.0
H584 H 0.16532 0.16291 0.07227 0.0
H585 H 0.12362 0.2339 0.03291 0.0
H586 H 0.09642 0.25976 0.9989 0.0
H587 H 0.02175 0.21937 0.02104 0.0
H588 H 0.04854 0.19301 0.05487 0.0
H589 H 0.04768 0.19256 0.19219 0.0
H590 H 0.08054 0.20741 0.1547 0.0
H591 H 0.10521 0.13162 0.13802 0.0
H592 H 0.07355 0.11725 0.17605 0.0
H593 H 0.07502 0.20041 0.10156 0.0
H594 H 0.16408 0.12471 0.10301 0.0
H595 H 0.19428 0.10478 0.13963 0.0
H596 H 0.18083 0.16566 0.19829 0.0
H597 H 0.15102 0.18624 0.16186 0.0
C598 C 0.12335 0.17037 0.97647 0.0
C599 C 0.15091 0.17397 0.96642 0.0
C600 C 0.11662 0.17338 0.00585 0.0
C601 C 0.13694 0.18098 0.02609 0.0
C602 C 0.16443 0.18503 0.01616 0.0
C603 C 0.17136 0.18153 0.98669 0.0
C604 C 0.12936 0.18341 0.05761 0.0
C605 C 0.14572 0.17133 0.07873 0.0
C606 C 0.10453 0.19554 0.06662 0.0
C607 C 0.08816 0.21141 0.0464 0.0
C608 C 0.10142 0.23044 0.03043 0.0
C609 C 0.08607 0.2452 0.01118 0.0
C610 C 0.05738 0.2412 0.0078 0.0
C611 C 0.04397 0.22246 0.0237 0.0
C612 C 0.05923 0.20763 0.04297 0.0
C613 C 0.0613 0.17936 0.18149 0.0
C614 C 0.0586 0.15386 0.18724 0.0
C615 C 0.07981 0.18776 0.15981 0.0
C616 C 0.09557 0.17071 0.14334 0.0
C617 C 0.09403 0.14535 0.15066 0.0
C618 C 0.07586 0.13707 0.17247 0.0
C619 C 0.11001 0.17843 0.11582 0.0
C620 C 0.09497 0.19249 0.09538 0.0
C621 C 0.13664 0.16911 0.10787 0.0
C622 C 0.15517 0.15701 0.12963 0.0
C623 C 0.16776 0.134 0.12358 0.0
C624 C 0.18478 0.12255 0.14436 0.0
C625 C 0.18944 0.13393 0.17127 0.0
C626 C 0.17717 0.15684 0.17745 0.0
C627 C 0.16019 0.1684 0.15674 0.0
H628 H 0.20258 0.125 0.18734 0.0
H629 H 0.04553 0.25264 0.99287 0.0
H630 H 0.39438 0.31742 0.45522 0.0
H631 H 0.40427 0.31355 0.50741 0.0
H632 H 0.31798 0.32926 0.52722 0.0
H633 H 0.30784 0.33268 0.4748 0.0
H634 H 0.35915 0.35879 0.55871 0.0
H635 H 0.33594 0.27429 0.54061 0.0
H636 H 0.33688 0.23442 0.51426 0.0
H637 H 0.42502 0.22817 0.5301 0.0
H638 H 0.42472 0.2682 0.55617 0.0
H639 H 0.41614 0.35403 0.70057 0.0
H640 H 0.38134 0.34111 0.6641 0.0
H641 H 0.44722 0.30942 0.61177 0.0
H642 H 0.4814 0.32142 0.64825 0.0
H643 H 0.40134 0.28376 0.60336 0.0
H644 H 0.42659 0.37242 0.60572 0.0
H645 H 0.42879 0.41346 0.62959 0.0
H646 H 0.33967 0.41245 0.64123 0.0
H647 H 0.33704 0.37126 0.61768 0.0
C648 C 0.37749 0.31987 0.4707 0.0
C649 C 0.35036 0.32534 0.461 0.0
C650 C 0.38311 0.31753 0.50048 0.0
C651 C 0.36181 0.32095 0.52118 0.0
C652 C 0.33466 0.32641 0.51159 0.0
C653 C 0.3289 0.32829 0.48171 0.0
C654 C 0.36866 0.32007 0.55275 0.0
C655 C 0.36765 0.34221 0.56879 0.0
C656 C 0.37999 0.29851 0.56578 0.0
C657 C 0.38031 0.27434 0.55025 0.0
C658 C 0.35557 0.26451 0.5383 0.0
C659 C 0.35598 0.24186 0.52344 0.0
C660 C 0.381 0.22878 0.52048 0.0
C661 C 0.40565 0.23832 0.53242 0.0
C662 C 0.40536 0.26097 0.54729 0.0
C663 C 0.42288 0.34334 0.68189 0.0
C664 C 0.45146 0.33892 0.67708 0.0
C665 C 0.40307 0.33622 0.66087 0.0
C666 C 0.41172 0.32482 0.63475 0.0
C667 C 0.43991 0.31827 0.63155 0.0
C668 C 0.45953 0.32527 0.65241 0.0
C669 C 0.39308 0.32279 0.60885 0.0
C670 C 0.3919 0.30012 0.59372 0.0
C671 C 0.38011 0.34395 0.59643 0.0
C672 C 0.38165 0.36873 0.61029 0.0
C673 C 0.4075 0.38094 0.6135 0.0
C674 C 0.40883 0.4042 0.62696 0.0
C675 C 0.3844 0.41552 0.63699 0.0
C676 C 0.35858 0.40363 0.63351 0.0
C677 C 0.35716 0.38034 0.62012 0.0
H678 H 0.38546 0.43353 0.64741 0.0
H679 H 0.38127 0.21125 0.50896 0.0
H680 H 0.69626 0.32212 0.0313 0.0
H681 H 0.68424 0.32148 0.97939 0.0
H682 H 0.59663 0.32453 1.00159 0.0
H683 H 0.6084 0.32398 0.0532 0.0
H684 H 0.60272 0.29594 0.95626 0.0
H685 H 0.63692 0.37766 0.98473 0.0
H686 H 0.67211 0.40707 0.00374 0.0
H687 H 0.72927 0.38571 0.93607 0.0
H688 H 0.69448 0.35595 0.91688 0.0
H689 H 0.55433 0.39468 0.85347 0.0
H690 H 0.58715 0.38179 0.89095 0.0
H691 H 0.59695 0.31095 0.84824 0.0
H692 H 0.56305 0.32376 0.81089 0.0
H693 H 0.63903 0.36659 0.89764 0.0
H694 H 0.59937 0.26678 0.90256 0.0
H695 H 0.55927 0.24132 0.88628 0.0
H696 H 0.50567 0.305 0.89159 0.0
H697 H 0.54538 0.33071 0.90819 0.0
C698 C 0.67442 0.32208 0.02512 0.0
C699 C 0.65331 0.32346 0.04647 0.0
C700 C 0.66758 0.32193 0.9954 0.0
C701 C 0.63952 0.32339 0.98647 0.0
C702 C 0.61844 0.32347 0.0078 0.0
C703 C 0.62523 0.32345 0.03739 0.0
C704 C 0.63174 0.32667 0.95523 0.0
C705 C 0.61104 0.31115 0.94329 0.0
C706 C 0.64243 0.34651 0.93813 0.0
C707 C 0.66329 0.36438 0.94963 0.0
C708 C 0.65707 0.37912 0.97405 0.0
C709 C 0.67693 0.39587 0.98483 0.0
C710 C 0.70295 0.39819 0.97119 0.0
C711 C 0.70914 0.38384 0.94667 0.0
C712 C 0.68937 0.36703 0.93583 0.0
C713 C 0.56399 0.37657 0.85165 0.0
C714 C 0.55618 0.3602 0.82926 0.0
C715 C 0.5829 0.36924 0.87304 0.0
C716 C 0.59433 0.34527 0.87272 0.0
C717 C 0.58823 0.32948 0.84909 0.0
C718 C 0.56916 0.33689 0.82753 0.0
C719 C 0.6094 0.33638 0.89912 0.0
C720 C 0.63149 0.35081 0.91018 0.0
C721 C 0.59944 0.31598 0.91577 0.0
C722 C 0.57537 0.30067 0.90623 0.0
C723 C 0.579 0.27529 0.90029 0.0
C724 C 0.55635 0.26084 0.89102 0.0
C725 C 0.52997 0.27156 0.88779 0.0
C726 C 0.52613 0.29674 0.89399 0.0
C727 C 0.54869 0.31125 0.90332 0.0
H728 H 0.51247 0.26035 0.88057 0.0
H729 H 0.71829 0.41117 0.97956 0.0
H730 H 0.84769 0.20461 0.54824 0.0
H731 H 0.86073 0.20419 0.49648 0.0
H732 H 0.85967 0.12401 0.49745 0.0
H733 H 0.84721 0.1244 0.54903 0.0
H734 H 0.90519 0.13889 0.47308 0.0
H735 H 0.80863 0.16017 0.46219 0.0
H736 H 0.76571 0.18444 0.47025 0.0
H737 H 0.80549 0.24921 0.43411 0.0
H738 H 0.84882 0.2254 0.4262 0.0
H739 H 0.91831 0.11092 0.32791 0.0
H740 H 0.88776 0.12067 0.3691 0.0
H741 H 0.9226 0.19455 0.37288 0.0
H742 H 0.95356 0.18463 0.33182 0.0
H743 H 0.85903 0.18529 0.393 0.0
H744 H 0.95725 0.16304 0.40918 0.0
H745 H 0.99836 0.13695 0.39878 0.0
H746 H 0.95225 0.07181 0.42431 0.0
H747 H 0.91069 0.09753 0.43434 0.0
C748 C 0.84992 0.18693 0.53726 0.0
C749 C 0.84669 0.16454 0.55279 0.0
C750 C 0.8573 0.18669 0.50763 0.0
C751 C 0.86114 0.16405 0.49288 0.0
C752 C 0.85706 0.14173 0.50827 0.0
C753 C 0.84998 0.14197 0.53781 0.0
C754 C 0.87113 0.16331 0.46204 0.0
C755 C 0.89478 0.14889 0.45568 0.0
C756 C 0.85806 0.17669 0.43912 0.0
C757 C 0.83208 0.19107 0.44391 0.0
C758 C 0.80832 0.17965 0.4562 0.0
C759 C 0.78389 0.19331 0.46069 0.0
C760 C 0.7829 0.21837 0.45278 0.0
C761 C 0.80631 0.22981 0.44028 0.0
C762 C 0.8308 0.21623 0.43577 0.0
C763 C 0.9182 0.12971 0.33637 0.0
C764 C 0.93796 0.14715 0.32653 0.0
C765 C 0.90086 0.13523 0.36004 0.0
C766 C 0.90306 0.15828 0.37416 0.0
C767 C 0.9204 0.17675 0.36213 0.0
C768 C 0.93799 0.17112 0.33858 0.0
C769 C 0.89263 0.16074 0.40451 0.0
C770 C 0.86921 0.17544 0.41066 0.0
C771 C 0.90566 0.14752 0.42738 0.0
C772 C 0.93083 0.13214 0.42221 0.0
C773 C 0.95584 0.14313 0.41237 0.0
C774 C 0.97921 0.12842 0.40657 0.0
C775 C 0.97789 0.10272 0.4108 0.0
C776 C 0.95322 0.09171 0.42099 0.0
C777 C 0.92976 0.10634 0.42675 0.0
H778 H 0.996 0.09136 0.40626 0.0
H779 H 0.76396 0.22892 0.45626 0.0
H780 H 0.81734 0.82935 0.02368 0.0
H781 H 0.83408 0.83038 0.97298 0.0
H782 H 0.91925 0.82665 0.00344 0.0
H783 H 0.90271 0.82566 0.05375 0.0
H784 H 0.91282 0.86424 0.96616 0.0
H785 H 0.88661 0.77738 0.9693 0.0
H786 H 0.85414 0.74215 0.97629 0.0
H787 H 0.80117 0.77048 0.90857 0.0
H788 H 0.83315 0.80609 0.90145 0.0
H789 H 0.99565 0.84106 0.84557 0.0
H790 H 0.9689 0.83391 0.89005 0.0
H791 H 0.8921 0.84566 0.84298 0.0
H792 H 0.91902 0.85295 0.79797 0.0
H793 H 0.88847 0.80679 0.88553 0.0
H794 H 0.91606 0.89198 0.88004 0.0
H795 H 0.9491 0.9266 0.87197 0.0
H796 H 0.99886 0.90178 0.9441 0.0
H797 H 0.96639 0.86671 0.95228 0.0
C798 C 0.83958 0.82823 0.01945 0.0
C799 C 0.85872 0.82767 0.04271 0.0
C800 C 0.84914 0.82888 0.99049 0.0
C801 C 0.87798 0.82873 0.98433 0.0
C802 C 0.89694 0.82704 0.00757 0.0
C803 C 0.88745 0.82647 0.03635 0.0
C804 C 0.88885 0.83189 0.95406 0.0
C805 C 0.90762 0.85151 0.94866 0.0
C806 C 0.88131 0.81592 0.9308 0.0
C807 C 0.86209 0.79455 0.9351 0.0
C808 C 0.8679 0.77623 0.95609 0.0
C809 C 0.84962 0.75616 0.96004 0.0
C810 C 0.82556 0.75413 0.94295 0.0
C811 C 0.81978 0.77211 0.92183 0.0
C812 C 0.83798 0.79223 0.91782 0.0
C813 C 0.97307 0.84199 0.84455 0.0
C814 C 0.95948 0.84792 0.81833 0.0
C815 C 0.95778 0.83781 0.87001 0.0
C816 C 0.92852 0.83965 0.86998 0.0
C817 C 0.91468 0.84421 0.84351 0.0
C818 C 0.93007 0.84836 0.81783 0.0
C819 C 0.91305 0.83859 0.89814 0.0
C820 C 0.89338 0.81959 0.90305 0.0
C821 C 0.9196 0.85519 0.92105 0.0
C822 C 0.93887 0.8766 0.91664 0.0
C823 C 0.93414 0.89381 0.89408 0.0
C824 C 0.95276 0.91352 0.88949 0.0
C825 C 0.97609 0.91636 0.90748 0.0
C826 C 0.98078 0.89954 0.93017 0.0
C827 C 0.96226 0.87975 0.93481 0.0
H828 H 0.9905 0.93162 0.90387 0.0
H829 H 0.81144 0.73858 0.94603 0.0
H830 H 0.60468 0.66054 0.54294 0.0
H831 H 0.59597 0.65912 0.49063 0.0
H832 H 0.68401 0.66863 0.47366 0.0
H833 H 0.6932 0.66924 0.52627 0.0
H834 H 0.64592 0.69793 0.436 0.0
H835 H 0.66383 0.61435 0.46625 0.0
H836 H 0.65899 0.57771 0.49822 0.0
H837 H 0.57116 0.57405 0.47939 0.0
H838 H 0.57539 0.61094 0.44768 0.0
H839 H 0.58412 0.61866 0.3042 0.0
H840 H 0.61891 0.62567 0.34275 0.0
H841 H 0.57042 0.68733 0.37477 0.0
H842 H 0.53569 0.68011 0.33667 0.0
H843 H 0.60292 0.61991 0.39945 0.0
H844 H 0.6126 0.72785 0.41028 0.0
H845 H 0.61685 0.76393 0.37735 0.0
H846 H 0.6524 0.71743 0.31108 0.0
H847 H 0.64882 0.68118 0.34373 0.0
C848 C 0.6223 0.66218 0.5282 0.0
C849 C 0.64972 0.66463 0.53896 0.0
C850 C 0.61723 0.66159 0.49827 0.0
C851 C 0.63936 0.6636 0.47831 0.0
C852 C 0.66664 0.66711 0.48875 0.0
C853 C 0.67181 0.6675 0.51883 0.0
C854 C 0.63372 0.66045 0.44673 0.0
C855 C 0.6368 0.68084 0.42782 0.0
C856 C 0.62252 0.63791 0.43596 0.0
C857 C 0.61992 0.6155 0.4547 0.0
C858 C 0.64345 0.60583 0.46907 0.0
C859 C 0.64082 0.58501 0.48714 0.0
C860 C 0.61478 0.57358 0.49087 0.0
C861 C 0.59132 0.58292 0.47648 0.0
C862 C 0.59383 0.60377 0.45843 0.0
C863 C 0.58166 0.63436 0.31873 0.0
C864 C 0.55752 0.64905 0.31744 0.0
C865 C 0.60137 0.63823 0.34083 0.0
C866 C 0.59729 0.65704 0.36162 0.0
C867 C 0.57425 0.67294 0.35877 0.0
C868 C 0.55442 0.66885 0.33701 0.0
C869 C 0.61399 0.6577 0.38886 0.0
C870 C 0.61278 0.63684 0.40719 0.0
C871 C 0.62711 0.67971 0.39886 0.0
C872 C 0.6303 0.70172 0.3795 0.0
C873 C 0.62157 0.72534 0.3888 0.0
C874 C 0.6238 0.74583 0.37013 0.0
C875 C 0.63482 0.74297 0.34212 0.0
C876 C 0.64379 0.71963 0.33275 0.0
C877 C 0.64164 0.6991 0.35134 0.0
H878 H 0.63642 0.75884 0.32767 0.0
H879 H 0.61278 0.55746 0.50487 0.0
H880 H 0.35006 0.62985 0.95396 0.0
H881 H 0.36207 0.62946 0.00542 0.0
H882 H 0.3572 0.70947 0.00785 0.0
H883 H 0.34627 0.71005 0.9556 0.0
H884 H 0.40255 0.69472 0.03497 0.0
H885 H 0.30722 0.67279 0.04257 0.0
H886 H 0.26322 0.65097 0.03099 0.0
H887 H 0.3 0.58146 0.05586 0.0
H888 H 0.34437 0.60278 0.06719 0.0
H889 H 0.44326 0.67246 0.18337 0.0
H890 H 0.41012 0.68643 0.14569 0.0
H891 H 0.41349 0.61402 0.10566 0.0
H892 H 0.44656 0.60029 0.14262 0.0
H893 H 0.35965 0.63495 0.10449 0.0
H894 H 0.45744 0.65766 0.08334 0.0
H895 H 0.50138 0.67969 0.0949 0.0
H896 H 0.45756 0.74918 0.09653 0.0
H897 H 0.41328 0.72746 0.08534 0.0
C898 C 0.35166 0.64743 0.96531 0.0
C899 C 0.34746 0.67001 0.9505 0.0
C900 C 0.35811 0.64716 0.99496 0.0
C901 C 0.3601 0.66941 0.01078 0.0
C902 C 0.35559 0.69204 0.9962 0.0
C903 C 0.34919 0.69233 0.96637 0.0
C904 C 0.36874 0.66874 0.04196 0.0
C905 C 0.39262 0.68219 0.05041 0.0
C906 C 0.3559 0.65241 0.06228 0.0
C907 C 0.3292 0.63942 0.05564 0.0
C908 C 0.306 0.65283 0.04541 0.0
C909 C 0.28097 0.64055 0.03891 0.0
C910 C 0.27882 0.61484 0.04267 0.0
C911 C 0.30168 0.60137 0.05299 0.0
C912 C 0.32677 0.61356 0.0595 0.0
C913 C 0.43625 0.65942 0.16695 0.0
C914 C 0.44757 0.63538 0.16568 0.0
C915 C 0.41746 0.66741 0.14541 0.0
C916 C 0.40953 0.65129 0.12274 0.0
C917 C 0.41926 0.62675 0.12292 0.0
C918 C 0.43826 0.61896 0.14399 0.0
C919 C 0.3939 0.66013 0.0968 0.0
C920 C 0.36882 0.64816 0.08932 0.0
C921 C 0.40545 0.67793 0.07746 0.0
C922 C 0.43206 0.69094 0.08388 0.0
C923 C 0.45717 0.67762 0.08637 0.0
C924 C 0.48212 0.69004 0.09282 0.0
C925 C 0.48224 0.71581 0.09654 0.0
C926 C 0.45742 0.72922 0.09372 0.0
C927 C 0.4324 0.71687 0.08732 0.0
H928 H 0.50158 0.7254 0.10154 0.0
H929 H 0.25943 0.60537 0.03762 0.0
H930 H 0.16532 0.87345 0.45954 0.0
H931 H 0.15245 0.87294 0.51091 0.0
H932 H 0.15113 0.79277 0.51002 0.0
H933 H 0.16317 0.79323 0.45798 0.0
H934 H 0.10542 0.80949 0.53493 0.0
H935 H 0.20161 0.8253 0.54911 0.0
H936 H 0.24768 0.84493 0.54132 0.0
H937 H 0.21455 0.9154 0.56789 0.0
H938 H 0.16816 0.8963 0.57543 0.0
H939 H 0.05687 0.82664 0.68073 0.0
H940 H 0.09136 0.81283 0.64434 0.0
H941 H 0.09738 0.88775 0.61125 0.0
H942 H 0.06337 0.90145 0.64741 0.0
H943 H 0.14861 0.8635 0.61008 0.0
H944 H 0.05082 0.84805 0.58254 0.0
H945 H 0.00465 0.82849 0.59028 0.0
H946 H 0.04254 0.75628 0.58945 0.0
H947 H 0.089 0.77549 0.58206 0.0
C948 C 0.16245 0.85567 0.47027 0.0
C949 C 0.16504 0.83338 0.45455 0.0
C950 C 0.15542 0.85539 0.49982 0.0
C951 C 0.1511 0.8328 0.51459 0.0
C952 C 0.15448 0.81044 0.49919 0.0
C953 C 0.16154 0.81072 0.46949 0.0
C954 C 0.14068 0.83295 0.54526 0.0
C955 C 0.11536 0.82074 0.55158 0.0
C956 C 0.15343 0.8477 0.56714 0.0
C957 C 0.18133 0.85934 0.56272 0.0
C958 C 0.20409 0.84502 0.55312 0.0
C959 C 0.23027 0.85605 0.54877 0.0
C960 C 0.23403 0.8814 0.55408 0.0
C961 C 0.21161 0.89576 0.5638 0.0
C962 C 0.18537 0.88482 0.56817 0.0
C963 C 0.06639 0.84023 0.66637 0.0
C964 C 0.05755 0.86509 0.66687 0.0
C965 C 0.08587 0.83232 0.64543 0.0
C966 C 0.09676 0.84924 0.62488 0.0
C967 C 0.08935 0.87437 0.62686 0.0
C968 C 0.0698 0.88216 0.64745 0.0
C969 C 0.11302 0.84087 0.59907 0.0
C970 C 0.13932 0.85159 0.59366 0.0
C971 C 0.10128 0.8247 0.57805 0.0
C972 C 0.07336 0.81319 0.58211 0.0
C973 C 0.0493 0.82801 0.58419 0.0
C974 C 0.02309 0.817 0.58849 0.0
C975 C 0.02067 0.79116 0.59045 0.0
C976 C 0.04445 0.77629 0.588 0.0
C977 C 0.07072 0.78722 0.58375 0.0
H978 H 0.00036 0.78266 0.5938 0.0
H979 H 0.25432 0.88991 0.5507 0.0
H980 H 0.28175 0.28565 0.28712 0.0
H981 H 0.24382 0.25903 0.26905 0.0
H982 H 0.21034 0.25353 0.35621 0.0
H983 H 0.24837 0.27968 0.37436 0.0
H984 H 0.21113 0.20917 0.3313 0.0
H985 H 0.18125 0.29151 0.30246 0.0
H986 H 0.18585 0.33184 0.27724 0.0
H987 H 0.19301 0.29438 0.19501 0.0
H988 H 0.1888 0.2538 0.21981 0.0
H989 H 0.07149 0.17982 0.32313 0.0
H990 H 0.1141 0.20447 0.32477 0.0
H991 H 0.13536 0.18069 0.23786 0.0
H992 H 0.09243 0.15514 0.23631 0.0
H993 H 0.14518 0.23562 0.2539 0.0
H994 H 0.16897 0.15313 0.28319 0.0
H995 H 0.16169 0.11354 0.3093 0.0
H996 H 0.16488 0.15184 0.39125 0.0
H997 H 0.1717 0.19174 0.36562 0.0
C998 C 0.26622 0.27877 0.30237 0.0
C999 C 0.26806 0.28474 0.33213 0.0
C1000 C 0.2445 0.26364 0.29201 0.0
C1001 C 0.22404 0.25437 0.31121 0.0
C1002 C 0.22589 0.26038 0.34096 0.0
C1003 C 0.24762 0.27541 0.35132 0.0
C1004 C 0.20085 0.23811 0.30068 0.0
C1005 C 0.19674 0.21504 0.3144 0.0
C1006 C 0.18252 0.24526 0.2779 0.0
C1007 C 0.18507 0.26963 0.26302 0.0
C1008 C 0.18405 0.29187 0.27903 0.0
C1009 C 0.18654 0.31477 0.26481 0.0
C1010 C 0.18982 0.31567 0.23455 0.0
C1011 C 0.19054 0.29366 0.21845 0.0
C1012 C 0.18809 0.27071 0.23257 0.0
C1013 C 0.08501 0.17992 0.30416 0.0
C1014 C 0.07855 0.16546 0.27955 0.0
C1015 C 0.10936 0.19411 0.30515 0.0
C1016 C 0.128 0.19424 0.2816 0.0
C1017 C 0.12115 0.18086 0.25626 0.0
C1018 C 0.09656 0.16642 0.25529 0.0
C1019 C 0.15525 0.20718 0.2851 0.0
C1020 C 0.16006 0.22958 0.27024 0.0
C1021 C 0.1743 0.19948 0.30685 0.0
C1022 C 0.1707 0.17546 0.32244 0.0
C1023 C 0.16794 0.15314 0.30677 0.0
C1024 C 0.16391 0.13064 0.32149 0.0
C1025 C 0.16279 0.13018 0.35191 0.0
C1026 C 0.16576 0.15222 0.36768 0.0
C1027 C 0.16975 0.17479 0.35307 0.0
H1028 H 0.15966 0.11274 0.36327 0.0
H1029 H 0.19174 0.33341 0.22358 0.0
H1030 H 0.24887 0.17954 0.8005 0.0
H1031 H 0.28685 0.20491 0.78017 0.0
H1032 H 0.2749 0.2588 0.84851 0.0
H1033 H 0.23727 0.23328 0.86919 0.0
H1034 H 0.29305 0.25162 0.75871 0.0
H1035 H 0.33759 0.27961 0.87095 0.0
H1036 H 0.3389 0.26381 0.92146 0.0
H1037 H 0.32968 0.18906 0.89021 0.0
H1038 H 0.32869 0.20439 0.83952 0.0
H1039 H 0.39618 0.3494 0.75106 0.0
H1040 H 0.35594 0.32148 0.75714 0.0
H1041 H 0.411 0.26365 0.78761 0.0
H1042 H 0.45095 0.29184 0.7823 0.0
H1043 H 0.37181 0.2706 0.82538 0.0
H1044 H 0.37425 0.25984 0.72214 0.0
H1045 H 0.37628 0.27477 0.67133 0.0
H1046 H 0.29663 0.31017 0.68184 0.0
H1047 H 0.29437 0.29591 0.73293 0.0
C1048 C 0.25428 0.19689 0.81107 0.0
C1049 C 0.24034 0.20426 0.83662 0.0
C1050 C 0.27585 0.21145 0.79932 0.0
C1051 C 0.28398 0.23366 0.81293 0.0
C1052 C 0.26928 0.24156 0.83782 0.0
C1053 C 0.24776 0.22695 0.84965 0.0
C1054 C 0.30903 0.24759 0.80238 0.0
C1055 C 0.31028 0.2558 0.77325 0.0
C1056 C 0.33183 0.25264 0.82111 0.0
C1057 C 0.33278 0.24318 0.85149 0.0
C1058 C 0.33595 0.2598 0.87487 0.0
C1059 C 0.33662 0.25093 0.90352 0.0
C1060 C 0.33428 0.22546 0.90904 0.0
C1061 C 0.33138 0.20879 0.88591 0.0
C1062 C 0.33074 0.21756 0.85722 0.0
C1063 C 0.39971 0.33037 0.7578 0.0
C1064 C 0.42659 0.3225 0.76568 0.0
C1065 C 0.37671 0.31445 0.76149 0.0
C1066 C 0.38036 0.2904 0.7729 0.0
C1067 C 0.40758 0.28211 0.7789 0.0
C1068 C 0.43044 0.29809 0.77555 0.0
C1069 C 0.35588 0.27491 0.78174 0.0
C1070 C 0.35468 0.26642 0.81068 0.0
C1071 C 0.33353 0.26926 0.76261 0.0
C1072 C 0.33423 0.27694 0.73149 0.0
C1073 C 0.3572 0.27088 0.71367 0.0
C1074 C 0.35841 0.27924 0.68481 0.0
C1075 C 0.33663 0.29344 0.67338 0.0
C1076 C 0.3135 0.29918 0.69074 0.0
C1077 C 0.31223 0.29094 0.71965 0.0
H1078 H 0.33767 0.29998 0.65107 0.0
H1079 H 0.33477 0.21863 0.93124 0.0
H1080 H 0.73415 0.17528 0.70171 0.0
H1081 H 0.69882 0.20312 0.72234 0.0
H1082 H 0.73445 0.26454 0.6744 0.0
H1083 H 0.76959 0.23667 0.65329 0.0
H1084 H 0.72084 0.27486 0.73551 0.0
H1085 H 0.67942 0.24036 0.64798 0.0
H1086 H 0.66441 0.20623 0.61574 0.0
H1087 H 0.61119 0.17746 0.68339 0.0
H1088 H 0.62621 0.21126 0.7162 0.0
H1089 H 0.61404 0.36424 0.72248 0.0
H1090 H 0.65222 0.33435 0.72003 0.0
H1091 H 0.59901 0.27833 0.75867 0.0
H1092 H 0.56048 0.30835 0.76072 0.0
H1093 H 0.62128 0.26222 0.70891 0.0
H1094 H 0.65672 0.29873 0.79452 0.0
H1095 H 0.67072 0.33223 0.82806 0.0
H1096 H 0.73426 0.35595 0.76781 0.0
H1097 H 0.72033 0.32285 0.73362 0.0
C1098 C 0.73444 0.19474 0.6956 0.0
C1099 C 0.75444 0.20377 0.67574 0.0
C1100 C 0.7143 0.2106 0.70743 0.0
C1101 C 0.71401 0.23588 0.69988 0.0
C1102 C 0.73438 0.2451 0.68056 0.0
C1103 C 0.75431 0.22914 0.66838 0.0
C1104 C 0.69173 0.25246 0.71122 0.0
C1105 C 0.69908 0.27229 0.72956 0.0
C1106 C 0.66324 0.24845 0.70435 0.0
C1107 C 0.65421 0.22815 0.68465 0.0
C1108 C 0.66473 0.22662 0.65608 0.0
C1109 C 0.65618 0.20736 0.63768 0.0
C1110 C 0.63693 0.18963 0.64754 0.0
C1111 C 0.62614 0.19117 0.6758 0.0
C1112 C 0.63466 0.21038 0.6943 0.0
C1113 C 0.61081 0.34579 0.73138 0.0
C1114 C 0.5845 0.33869 0.74225 0.0
C1115 C 0.63265 0.32869 0.72999 0.0
C1116 C 0.6286 0.30405 0.73927 0.0
C1117 C 0.60268 0.29725 0.75151 0.0
C1118 C 0.58081 0.31448 0.75306 0.0
C1119 C 0.65032 0.28506 0.7329 0.0
C1120 C 0.64293 0.26471 0.71536 0.0
C1121 C 0.67869 0.28846 0.74083 0.0
C1122 C 0.68733 0.30836 0.76137 0.0
C1123 C 0.67355 0.3112 0.78828 0.0
C1124 C 0.68149 0.33011 0.80745 0.0
C1125 C 0.70335 0.34623 0.80005 0.0
C1126 C 0.71733 0.34344 0.7735 0.0
C1127 C 0.70944 0.32458 0.75423 0.0
H1128 H 0.70948 0.36086 0.81492 0.0
H1129 H 0.63032 0.17475 0.63326 0.0
H1130 H 0.73629 0.26118 0.14698 0.0
H1131 H 0.77053 0.23408 0.17052 0.0
H1132 H 0.79835 0.29517 0.224 0.0
H1133 H 0.76403 0.32239 0.20052 0.0
H1134 H 0.84221 0.26972 0.19998 0.0
H1135 H 0.76029 0.25041 0.25456 0.0
H1136 H 0.71091 0.23891 0.26239 0.0
H1137 H 0.72436 0.16937 0.2189 0.0
H1138 H 0.77375 0.18062 0.21042 0.0
H1139 H 0.93456 0.1856 0.27073 0.0
H1140 H 0.89516 0.21491 0.26897 0.0
H1141 H 0.85261 0.167 0.20801 0.0
H1142 H 0.89163 0.13806 0.2096 0.0
H1143 H 0.81569 0.18927 0.24546 0.0
H1144 H 0.89407 0.21217 0.18323 0.0
H1145 H 0.94334 0.22333 0.17386 0.0
H1146 H 0.936 0.28603 0.23109 0.0
H1147 H 0.88674 0.275 0.24111 0.0
C1148 C 0.74967 0.26885 0.16376 0.0
C1149 C 0.74756 0.29393 0.1719 0.0
C1150 C 0.76912 0.2533 0.17733 0.0
C1151 C 0.78684 0.26253 0.19925 0.0
C1152 C 0.78486 0.28763 0.20723 0.0
C1153 C 0.76525 0.30313 0.19383 0.0
C1154 C 0.80795 0.24609 0.21309 0.0
C1155 C 0.83636 0.2524 0.21053 0.0
C1156 C 0.80039 0.22335 0.22659 0.0
C1157 C 0.7707 0.21645 0.23167 0.0
C1158 C 0.75268 0.23275 0.24646 0.0
C1159 C 0.72468 0.22626 0.25105 0.0
C1160 C 0.71449 0.20344 0.2411 0.0
C1161 C 0.73228 0.18705 0.22658 0.0
C1162 C 0.76029 0.19346 0.22191 0.0
C1163 C 0.91636 0.18103 0.25774 0.0
C1164 C 0.91616 0.15972 0.24011 0.0
C1165 C 0.89398 0.19782 0.25658 0.0
C1166 C 0.87111 0.19329 0.23801 0.0
C1167 C 0.86999 0.17093 0.22243 0.0
C1168 C 0.89236 0.15443 0.2233 0.0
C1169 C 0.84987 0.21268 0.23178 0.0
C1170 C 0.82145 0.20689 0.2356 0.0
C1171 C 0.85738 0.23587 0.21933 0.0
C1172 C 0.88689 0.24258 0.21322 0.0
C1173 C 0.90305 0.22822 0.19399 0.0
C1174 C 0.93095 0.23453 0.18854 0.0
C1175 C 0.94283 0.25533 0.20196 0.0
C1176 C 0.92679 0.26989 0.22078 0.0
C1177 C 0.89889 0.26362 0.22636 0.0
H1178 H 0.96443 0.26019 0.1977 0.0
H1179 H 0.69281 0.19845 0.24468 0.0
H1180 H 0.73752 0.69359 0.70794 0.0
H1181 H 0.77714 0.71954 0.72318 0.0
H1182 H 0.78023 0.7527 0.63756 0.0
H1183 H 0.74089 0.72675 0.6222 0.0
H1184 H 0.83158 0.73946 0.65589 0.0
H1185 H 0.75278 0.78373 0.69569 0.0
H1186 H 0.71012 0.7886 0.72534 0.0
H1187 H 0.75597 0.76951 0.80253 0.0
H1188 H 0.79886 0.76419 0.77325 0.0
H1189 H 0.90644 0.84917 0.67019 0.0
H1190 H 0.86848 0.81938 0.66579 0.0
H1191 H 0.88555 0.79187 0.75223 0.0
H1192 H 0.92425 0.82186 0.75688 0.0
H1193 H 0.82697 0.79812 0.73911 0.0
H1194 H 0.90709 0.75806 0.69927 0.0
H1195 H 0.9497 0.7549 0.66921 0.0
H1196 H 0.90124 0.76672 0.59176 0.0
H1197 H 0.85837 0.77035 0.62139 0.0
C1198 C 0.74664 0.7065 0.69244 0.0
C1199 C 0.73611 0.70815 0.66393 0.0
C1200 C 0.76919 0.72136 0.70119 0.0
C1201 C 0.78156 0.73819 0.68157 0.0
C1202 C 0.77104 0.73983 0.65306 0.0
C1203 C 0.74848 0.72503 0.64433 0.0
C1204 C 0.80577 0.75385 0.69041 0.0
C1205 C 0.83048 0.75238 0.67397 0.0
C1206 C 0.80471 0.77013 0.71464 0.0
C1207 C 0.77894 0.77325 0.73223 0.0
C1208 C 0.75371 0.78034 0.71895 0.0
C1209 C 0.7295 0.78323 0.73569 0.0
C1210 C 0.73031 0.77928 0.76579 0.0
C1211 C 0.75536 0.7725 0.77921 0.0
C1212 C 0.77963 0.76956 0.76256 0.0
C1213 C 0.90223 0.83692 0.68844 0.0
C1214 C 0.9186 0.83788 0.71389 0.0
C1215 C 0.88045 0.81984 0.68582 0.0
C1216 C 0.87445 0.80319 0.70848 0.0
C1217 C 0.88995 0.80455 0.73443 0.0
C1218 C 0.91201 0.82171 0.73708 0.0
C1219 C 0.8524 0.78409 0.70413 0.0
C1220 C 0.82817 0.78488 0.72135 0.0
C1221 C 0.85384 0.76716 0.6806 0.0
C1222 C 0.87952 0.76463 0.6626 0.0
C1223 C 0.90553 0.76015 0.67584 0.0
C1224 C 0.92973 0.75826 0.65887 0.0
C1225 C 0.92819 0.76066 0.6286 0.0
C1226 C 0.90241 0.76488 0.61522 0.0
C1227 C 0.87814 0.76682 0.63209 0.0
H1228 H 0.94695 0.75921 0.6155 0.0
H1229 H 0.71155 0.78154 0.77872 0.0
H1230 H 0.79123 0.7713 0.20644 0.0
H1231 H 0.75096 0.74816 0.22582 0.0
H1232 H 0.70243 0.76934 0.15075 0.0
H1233 H 0.74283 0.7921 0.13097 0.0
H1234 H 0.67462 0.7755 0.20716 0.0
H1235 H 0.72622 0.71408 0.15159 0.0
H1236 H 0.76821 0.68994 0.13888 0.0
H1237 H 0.7721 0.66135 0.22621 0.0
H1238 H 0.73032 0.68564 0.23955 0.0
H1239 H 0.56361 0.69232 0.18999 0.0
H1240 H 0.60452 0.71934 0.18867 0.0
H1241 H 0.6399 0.67968 0.26153 0.0
H1242 H 0.59852 0.65222 0.26273 0.0
H1243 H 0.67673 0.6836 0.21584 0.0
H1244 H 0.62263 0.73928 0.27067 0.0
H1245 H 0.5813 0.76324 0.28575 0.0
H1246 H 0.58273 0.80284 0.20442 0.0
H1247 H 0.62393 0.7789 0.1887 0.0
C1248 C 0.77197 0.77096 0.19406 0.0
C1249 C 0.77023 0.78335 0.16713 0.0
C1250 C 0.74901 0.75775 0.20515 0.0
C1251 C 0.7237 0.757 0.18972 0.0
C1252 C 0.72175 0.76972 0.16302 0.0
C1253 C 0.74488 0.78259 0.15167 0.0
C1254 C 0.69939 0.74263 0.20115 0.0
C1255 C 0.67496 0.7554 0.20888 0.0
C1256 C 0.7003 0.7165 0.20468 0.0
C1257 C 0.72538 0.70192 0.19666 0.0
C1258 C 0.7362 0.70285 0.16816 0.0
C1259 C 0.75992 0.68909 0.16083 0.0
C1260 C 0.77287 0.67419 0.18175 0.0
C1261 C 0.76208 0.67295 0.21004 0.0
C1262 C 0.73838 0.6867 0.2175 0.0
C1263 C 0.5798 0.68967 0.20619 0.0
C1264 C 0.57781 0.67024 0.22659 0.0
C1265 C 0.60318 0.70521 0.20547 0.0
C1266 C 0.62532 0.70168 0.22505 0.0
C1267 C 0.62303 0.68282 0.24625 0.0
C1268 C 0.59929 0.66732 0.24717 0.0
C1269 C 0.65154 0.71639 0.22111 0.0
C1270 C 0.67642 0.70373 0.2147 0.0
C1271 C 0.65117 0.74267 0.21922 0.0
C1272 C 0.62633 0.75717 0.22844 0.0
C1273 C 0.61404 0.75297 0.25591 0.0
C1274 C 0.59065 0.76658 0.26459 0.0
C1275 C 0.57936 0.78453 0.24603 0.0
C1276 C 0.5915 0.78893 0.21878 0.0
C1277 C 0.61492 0.77538 0.20999 0.0
H1278 H 0.56124 0.79505 0.25279 0.0
H1279 H 0.79123 0.66354 0.17603 0.0
H1280 H 0.26078 0.77928 0.36395 0.0
H1281 H 0.29982 0.75588 0.34319 0.0
H1282 H 0.26029 0.75782 0.25876 0.0
H1283 H 0.22141 0.78157 0.27937 0.0
H1284 H 0.30239 0.71162 0.31862 0.0
H1285 H 0.31089 0.75889 0.20554 0.0
H1286 H 0.30194 0.79966 0.18276 0.0
H1287 H 0.31348 0.83562 0.26537 0.0
H1288 H 0.32286 0.79512 0.28854 0.0
H1289 H 0.39508 0.63832 0.23961 0.0
H1290 H 0.35333 0.66444 0.24404 0.0
H1291 H 0.40569 0.72806 0.26175 0.0
H1292 H 0.44728 0.70194 0.25729 0.0
H1293 H 0.35682 0.74154 0.2332 0.0
H1294 H 0.38584 0.69353 0.3166 0.0
H1295 H 0.39853 0.65487 0.34222 0.0
H1296 H 0.31707 0.62458 0.32481 0.0
H1297 H 0.30407 0.66294 0.29863 0.0
C1298 C 0.26042 0.77476 0.34097 0.0
C1299 C 0.23804 0.78228 0.32324 0.0
C1300 C 0.28273 0.76133 0.32912 0.0
C1301 C 0.28318 0.75524 0.29932 0.0
C1302 C 0.2607 0.76259 0.28168 0.0
C1303 C 0.23842 0.77606 0.29351 0.0
C1304 C 0.307 0.74092 0.28689 0.0
C1305 C 0.31412 0.71816 0.29984 0.0
C1306 C 0.32263 0.74946 0.26254 0.0
C1307 C 0.31725 0.77394 0.24881 0.0
C1308 C 0.31159 0.77551 0.21881 0.0
C1309 C 0.30643 0.79857 0.20584 0.0
C1310 C 0.30704 0.8202 0.22263 0.0
C1311 C 0.3129 0.81884 0.25241 0.0
C1312 C 0.3181 0.79583 0.26548 0.0
C1313 C 0.39762 0.65813 0.24292 0.0
C1314 C 0.42427 0.66827 0.24776 0.0
C1315 C 0.37379 0.67299 0.24576 0.0
C1316 C 0.37638 0.69812 0.25373 0.0
C1317 C 0.40317 0.70876 0.25557 0.0
C1318 C 0.42694 0.69388 0.25285 0.0
C1319 C 0.3518 0.71219 0.2647 0.0
C1320 C 0.34468 0.73489 0.25164 0.0
C1321 C 0.33647 0.7039 0.28934 0.0
C1322 C 0.3441 0.68096 0.30538 0.0
C1323 C 0.37071 0.67855 0.31806 0.0
C1324 C 0.37795 0.6567 0.33269 0.0
C1325 C 0.35864 0.63725 0.33507 0.0
C1326 C 0.33202 0.63964 0.32289 0.0
C1327 C 0.3247 0.66143 0.30815 0.0
H1328 H 0.36428 0.62035 0.34641 0.0
H1329 H 0.30303 0.83803 0.21255 0.0
H1330 H 0.26078 0.73947 0.86771 0.0
H1331 H 0.22272 0.76715 0.85342 0.0
H1332 H 0.2098 0.72419 0.77526 0.0
H1333 H 0.24825 0.69666 0.78925 0.0
H1334 H 0.20581 0.77288 0.76349 0.0
H1335 H 0.16706 0.71691 0.83449 0.0
H1336 H 0.16429 0.69509 0.88172 0.0
H1337 H 0.15725 0.76495 0.92615 0.0
H1338 H 0.16036 0.78722 0.87919 0.0
H1339 H 0.06979 0.81869 0.73024 0.0
H1340 H 0.11059 0.79315 0.74135 0.0
H1341 H 0.12113 0.83218 0.82276 0.0
H1342 H 0.07963 0.85698 0.81216 0.0
H1343 H 0.12678 0.78534 0.83201 0.0
H1344 H 0.1648 0.84137 0.75963 0.0
H1345 H 0.16481 0.86216 0.71167 0.0
H1346 H 0.17152 0.79147 0.66904 0.0
H1347 H 0.17122 0.77023 0.71675 0.0
C1348 C 0.24991 0.73594 0.84744 0.0
C1349 C 0.25735 0.71576 0.82966 0.0
C1350 C 0.22808 0.75176 0.83932 0.0
C1351 C 0.2131 0.74759 0.81342 0.0
C1352 C 0.22099 0.72779 0.79533 0.0
C1353 C 0.24287 0.71202 0.8034 0.0
C1354 C 0.18876 0.76345 0.8056 0.0
C1355 C 0.18841 0.77545 0.77837 0.0
C1356 C 0.16616 0.76708 0.82509 0.0
C1357 C 0.16424 0.75373 0.85335 0.0
C1358 C 0.16514 0.72763 0.85435 0.0
C1359 C 0.16347 0.71518 0.88107 0.0
C1360 C 0.16067 0.72863 0.90693 0.0
C1361 C 0.15946 0.75456 0.90611 0.0
C1362 C 0.16116 0.7671 0.87945 0.0
C1363 C 0.08107 0.82203 0.75028 0.0
C1364 C 0.07169 0.83996 0.77019 0.0
C1365 C 0.10445 0.80744 0.75663 0.0
C1366 C 0.11935 0.81094 0.78273 0.0
C1367 C 0.11008 0.82908 0.80248 0.0
C1368 C 0.08642 0.84332 0.79636 0.0
C1369 C 0.14393 0.79515 0.79007 0.0
C1370 C 0.14427 0.78301 0.81719 0.0
C1371 C 0.16642 0.79138 0.77042 0.0
C1372 C 0.16779 0.8042 0.74177 0.0
C1373 C 0.16623 0.83026 0.74002 0.0
C1374 C 0.16627 0.84212 0.71288 0.0
C1375 C 0.16809 0.82814 0.68731 0.0
C1376 C 0.17009 0.80228 0.68886 0.0
C1377 C 0.17004 0.79032 0.71595 0.0
H1378 H 0.16797 0.83735 0.66632 0.0
H1379 H 0.15938 0.71895 0.92759 0.0
loop_
_geom_bond_atom_site_label_1
_geom_bond_atom_site_label_2
_geom_bond_distance
_geom_bond_site_symmetry_2
_ccdc_geom_bond_type
H0 C5 0.930 . S
H1 C8 0.930 . S
H2 C10 0.930 . S
H3 C4 1.016 . S
C4 H3 1.016 . S
C4 N11 1.286 . S
C5 H0 0.930 . S
C5 C6 1.397 . S
C5 C7 1.361 . S
C6 C5 1.397 . S
C6 C10 1.390 . S
C7 C5 1.361 . S
C7 C8 1.393 . S
C7 N11 1.413 . S
C8 H1 0.930 . S
C8 C7 1.393 . S
C8 C9 1.399 . S
C9 C8 1.399 . S
C9 C10 1.381 . S
C10 H2 0.930 . S
C10 C6 1.390 . S
C10 C9 1.381 . S
N11 C4 1.286 . S
N11 C7 1.413 . S
H12 C17 0.930 . S
H13 C20 0.930 . S
H14 C22 0.930 . S
H15 C16 1.016 . S
C16 H15 1.016 . S
C16 N23 1.286 . S
C17 H12 0.930 . S
C17 C18 1.397 . S
C17 C19 1.361 . S
C18 C17 1.397 . S
C18 C22 1.390 . S
C19 C17 1.361 . S
C19 C20 1.393 . S
C19 N23 1.413 . S
C20 H13 0.930 . S
C20 C19 1.393 . S
C20 C21 1.399 . S
C21 C20 1.399 . S
C21 C22 1.381 . S
C22 H14 0.930 . S
C22 C18 1.390 . S
C22 C21 1.381 . S
N23 C16 1.286 . S
N23 C19 1.413 . S
H24 C29 0.930 . S
H25 C32 0.930 . S
H26 C34 0.930 . S
H27 C28 1.016 . S
C28 H27 1.016 . S
C28 N35 1.286 . S
C29 H24 0.930 . S
C29 C30 1.397 . S
C29 C31 1.361 . S
C30 C29 1.397 . S
C30 C34 1.390 . S
C31 C29 1.361 . S
C31 C32 1.393 . S
C31 N35 1.413 . S
C32 H25 0.930 . S
C32 C31 1.393 . S
C32 C33 1.399 . S
C33 C32 1.399 . S
C33 C34 1.381 . S
C34 H26 0.930 . S
C34 C30 1.390 . S
C34 C33 1.381 . S
N35 C28 1.286 . S
N35 C31 1.413 . S
H36 C41 0.930 . S
H37 C44 0.930 . S
H38 C46 0.930 . S
H39 C40 1.016 . S
C40 H39 1.016 . S
C40 N47 1.286 . S
C41 H36 0.930 . S
C41 C42 1.397 . S
C41 C43 1.361 . S
C42 C41 1.397 . S
C42 C46 1.390 . S
C43 C41 1.361 . S
C43 C44 1.393 . S
C43 N47 1.413 . S
C44 H37 0.930 . S
C44 C43 1.393 . S
C44 C45 1.399 . S
C45 C44 1.399 . S
C45 C46 1.381 . S
C46 H38 0.930 . S
C46 C42 1.390 . S
C46 C45 1.381 . S
N47 C40 1.286 . S
N47 C43 1.413 . S
H48 C53 0.930 . S
H49 C56 0.930 . S
H50 C58 0.930 . S
H51 C52 1.016 . S
C52 H51 1.016 . S
C52 N59 1.286 . S
C53 H48 0.930 . S
C53 C54 1.397 . S
C53 C55 1.361 . S
C54 C53 1.397 . S
C54 C58 1.390 . S
C55 C53 1.361 . S
C55 C56 1.393 . S
C55 N59 1.413 . S
C56 H49 0.930 . S
C56 C55 1.393 . S
C56 C57 1.399 . S
C57 C56 1.399 . S
C57 C58 1.381 . S
C58 H50 0.930 . S
C58 C54 1.390 . S
C58 C57 1.381 . S
N59 C52 1.286 . S
N59 C55 1.413 . S
H60 C65 0.930 . S
H61 C68 0.930 . S
H62 C70 0.930 . S
H63 C64 1.016 . S
C64 H63 1.016 . S
C64 N71 1.286 . S
C65 H60 0.930 . S
C65 C66 1.397 . S
C65 C67 1.361 . S
C66 C65 1.397 . S
C66 C70 1.390 . S
C67 C65 1.361 . S
C67 C68 1.393 . S
C67 N71 1.413 . S
C68 H61 0.930 . S
C68 C67 1.393 . S
C68 C69 1.399 . S
C69 C68 1.399 . S
C69 C70 1.381 . S
C70 H62 0.930 . S
C70 C66 1.390 . S
C70 C69 1.381 . S
N71 C64 1.286 . S
N71 C67 1.413 . S
H72 C77 0.930 . S
H73 C80 0.930 . S
H74 C82 0.930 . S
H75 C76 1.016 . S
C76 H75 1.016 . S
C76 N83 1.286 . S
C77 H72 0.930 . S
C77 C78 1.397 . S
C77 C79 1.361 . S
C78 C77 1.397 . S
C78 C82 1.390 . S
C79 C77 1.361 . S
C79 C80 1.393 . S
C79 N83 1.413 . S
C80 H73 0.930 . S
C80 C79 1.393 . S
C80 C81 1.399 . S
C81 C80 1.399 . S
C81 C82 1.381 . S
C82 H74 0.930 . S
C82 C78 1.390 . S
C82 C81 1.381 . S
N83 C76 1.286 . S
N83 C79 1.413 . S
H84 C89 0.930 . S
H85 C92 0.930 . S
H86 C94 0.930 . S
H87 C88 1.016 . S
C88 H87 1.016 . S
C88 N95 1.286 . S
C89 H84 0.930 . S
C89 C90 1.397 . S
C89 C91 1.361 . S
C90 C89 1.397 . S
C90 C94 1.390 . S
C91 C89 1.361 . S
C91 C92 1.393 . S
C91 N95 1.413 . S
C92 H85 0.930 . S
C92 C91 1.393 . S
C92 C93 1.399 . S
C93 C92 1.399 . S
C93 C94 1.381 . S
C94 H86 0.930 . S
C94 C90 1.390 . S
C94 C93 1.381 . S
N95 C88 1.286 . S
N95 C91 1.413 . S
Zn96 O102 1.920 1_455 S
Zn96 O108 1.898 . S
Zn96 O111 1.905 . S
Zn97 O105 1.905 1_655 S
Zn97 O106 1.898 . S
Zn97 O114 1.920 . S
Zn98 O101 2.080 1_455 S
Zn98 O104 2.114 . S
Zn98 O107 2.120 1_455 S
Zn98 O109 2.120 . S
Zn98 O110 2.114 . S
Zn98 O113 2.080 1_455 S
C99 O104 1.166 . S
C99 O105 1.182 . S
C100 O106 1.167 . S
C100 O107 1.299 . S
O101 Zn98 2.080 1_655 S
O101 C115 1.305 . S
O102 Zn96 1.920 1_655 S
O102 C115 1.234 . S
C103 O108 1.167 . S
C103 O109 1.299 . S
O104 Zn98 2.114 . S
O104 C99 1.166 . S
O105 Zn97 1.905 1_455 S
O105 C99 1.182 . S
O106 Zn97 1.898 . S
O106 C100 1.167 . S
O107 Zn98 2.120 1_655 S
O107 C100 1.299 . S
O108 Zn96 1.898 . S
O108 C103 1.167 . S
O109 Zn98 2.120 . S
O109 C103 1.299 . S
O110 Zn98 2.114 . S
O110 C112 1.166 . S
O111 Zn96 1.905 . S
O111 C112 1.182 . S
C112 O110 1.166 . S
C112 O111 1.182 . S
O113 Zn98 2.080 1_655 S
O113 C116 1.305 . S
O114 Zn97 1.920 . S
O114 C116 1.234 . S
C115 O101 1.305 . S
C115 O102 1.234 . S
C116 O113 1.305 . S
C116 O114 1.234 . S
Zn117 O123 1.920 . S
Zn117 O129 1.898 . S
Zn117 O132 1.905 . S
Zn118 O126 1.905 . S
Zn118 O127 1.898 . S
Zn118 O135 1.920 . S
Zn119 O122 2.080 . S
Zn119 O125 2.114 . S
Zn119 O128 2.120 . S
Zn119 O130 2.120 . S
Zn119 O131 2.114 . S
Zn119 O134 2.080 . S
C120 O125 1.166 . S
C120 O126 1.182 . S
C121 O127 1.167 . S
C121 O128 1.299 . S
O122 Zn119 2.080 . S
O122 C136 1.305 . S
O123 Zn117 1.920 . S
O123 C136 1.234 . S
C124 O129 1.167 . S
C124 O130 1.299 . S
O125 Zn119 2.114 . S
O125 C120 1.166 . S
O126 Zn118 1.905 . S
O126 C120 1.182 . S
O127 Zn118 1.898 . S
O127 C121 1.167 . S
O128 Zn119 2.120 . S
O128 C121 1.299 . S
O129 Zn117 1.898 . S
O129 C124 1.167 . S
O130 Zn119 2.120 . S
O130 C124 1.299 . S
O131 Zn119 2.114 . S
O131 C133 1.166 . S
O132 Zn117 1.905 . S
O132 C133 1.182 . S
C133 O131 1.166 . S
C133 O132 1.182 . S
O134 Zn119 2.080 . S
O134 C137 1.305 . S
O135 Zn118 1.920 . S
O135 C137 1.234 . S
C136 O122 1.305 . S
C136 O123 1.234 . S
C137 O134 1.305 . S
C137 O135 1.234 . S
Zn138 O144 1.920 . S
Zn138 O150 1.898 . S
Zn138 O153 1.905 1_455 S
Zn139 O147 1.905 . S
Zn139 O148 1.898 . S
Zn139 O156 1.920 1_655 S
Zn140 O143 2.080 . S
Zn140 O146 2.114 1_455 S
Zn140 O149 2.120 1_455 S
Zn140 O151 2.120 . S
Zn140 O152 2.114 1_455 S
Zn140 O155 2.080 . S
C141 O146 1.166 . S
C141 O147 1.182 . S
C142 O148 1.167 . S
C142 O149 1.299 . S
O143 Zn140 2.080 . S
O143 C157 1.305 . S
O144 Zn138 1.920 . S
O144 C157 1.234 . S
C145 O150 1.167 . S
C145 O151 1.299 . S
O146 Zn140 2.114 1_655 S
O146 C141 1.166 . S
O147 Zn139 1.905 . S
O147 C141 1.182 . S
O148 Zn139 1.898 . S
O148 C142 1.167 . S
O149 Zn140 2.120 1_655 S
O149 C142 1.299 . S
O150 Zn138 1.898 . S
O150 C145 1.167 . S
O151 Zn140 2.120 . S
O151 C145 1.299 . S
O152 Zn140 2.114 1_655 S
O152 C154 1.166 . S
O153 Zn138 1.905 1_655 S
O153 C154 1.182 . S
C154 O152 1.166 . S
C154 O153 1.182 . S
O155 Zn140 2.080 . S
O155 C158 1.305 . S
O156 Zn139 1.920 1_455 S
O156 C158 1.234 . S
C157 O143 1.305 . S
C157 O144 1.234 . S
C158 O155 1.305 . S
C158 O156 1.234 . S
Zn159 O165 1.920 . S
Zn159 O171 1.898 . S
Zn159 O174 1.905 . S
Zn160 O168 1.905 . S
Zn160 O169 1.898 . S
Zn160 O177 1.920 . S
Zn161 O164 2.080 . S
Zn161 O167 2.114 . S
Zn161 O170 2.120 . S
Zn161 O172 2.120 . S
Zn161 O173 2.114 . S
Zn161 O176 2.080 . S
C162 O167 1.166 . S
C162 O168 1.182 . S
C163 O169 1.167 . S
C163 O170 1.299 . S
O164 Zn161 2.080 . S
O164 C178 1.305 . S
O165 Zn159 1.920 . S
O165 C178 1.234 . S
C166 O171 1.167 . S
C166 O172 1.299 . S
O167 Zn161 2.114 . S
O167 C162 1.166 . S
O168 Zn160 1.905 . S
O168 C162 1.182 . S
O169 Zn160 1.898 . S
O169 C163 1.167 . S
O170 Zn161 2.120 . S
O170 C163 1.299 . S
O171 Zn159 1.898 . S
O171 C166 1.167 . S
O172 Zn161 2.120 . S
O172 C166 1.299 . S
O173 Zn161 2.114 . S
O173 C175 1.166 . S
O174 Zn159 1.905 . S
O174 C175 1.182 . S
C175 O173 1.166 . S
C175 O174 1.182 . S
O176 Zn161 2.080 . S
O176 C179 1.305 . S
O177 Zn160 1.920 . S
O177 C179 1.234 . S
C178 O164 1.305 . S
C178 O165 1.234 . S
C179 O176 1.305 . S
C179 O177 1.234 . S
H180 C198 0.951 . S
H181 C200 0.951 . S
H182 C202 0.950 . S
H183 C203 0.950 . S
H184 C205 0.950 . S
H185 C208 0.950 . S
H186 C209 0.950 . S
H187 C211 0.950 . S
H188 C212 0.950 . S
H189 C213 0.951 . S
H190 C215 0.951 . S
H191 C217 0.950 1_565 S
H192 C218 0.950 . S
H193 C220 0.950 . S
H194 C223 0.950 . S
H195 C224 0.950 . S
H196 C226 0.950 . S
H197 C227 0.950 . S
C198 H180 0.951 . S
C198 C199 1.366 . S
C198 C200 1.388 . S
C199 C198 1.366 . S
C199 C203 1.385 . S
C200 H181 0.951 . S
C200 C198 1.388 . S
C200 C201 1.366 . S
C201 C200 1.366 . S
C201 C202 1.414 . S
C201 C204 1.499 . S
C202 H182 0.950 . S
C202 C201 1.414 . S
C202 C203 1.374 . S
C203 H183 0.950 . S
C203 C199 1.385 . S
C203 C202 1.374 . S
C204 C201 1.499 . S
C204 C205 1.373 . S
C204 C206 1.389 . S
C205 H184 0.950 . S
C205 C204 1.373 . S
C205 C221 1.377 . S
C206 C204 1.389 . S
C206 C207 1.524 . S
C206 C220 1.377 . S
C207 C206 1.524 . S
C207 C208 1.397 . S
C207 C212 1.363 . S
C208 H185 0.950 . S
C208 C207 1.397 . S
C208 C209 1.334 . S
C209 H186 0.950 . S
C209 C208 1.334 . S
C209 C210 1.287 . S
C210 C209 1.287 . S
C210 C211 1.524 . S
C210 H229 0.913 . S
C211 H187 0.950 . S
C211 C210 1.524 . S
C211 C212 1.415 . S
C212 H188 0.950 . S
C212 C207 1.363 . S
C212 C211 1.415 . S
C213 H189 0.951 . S
C213 C214 1.366 . S
C213 C215 1.388 . S
C214 C213 1.366 . S
C214 C218 1.385 . S
C215 H190 0.951 . S
C215 C213 1.388 . S
C215 C216 1.366 . S
C216 C215 1.366 . S
C216 C217 1.414 . S
C216 C219 1.499 1_545 S
C217 H191 0.950 1_545 S
C217 C216 1.414 . S
C217 C218 1.374 . S
C218 H192 0.950 . S
C218 C214 1.385 . S
C218 C217 1.374 . S
C219 C216 1.499 1_565 S
C219 C220 1.373 . S
C219 C221 1.389 . S
C220 H193 0.950 . S
C220 C206 1.377 . S
C220 C219 1.373 . S
C221 C205 1.377 . S
C221 C219 1.389 . S
C221 C222 1.524 1_565 S
C222 C221 1.524 1_545 S
C222 C223 1.397 . S
C222 C227 1.363 . S
C223 H194 0.950 . S
C223 C222 1.397 . S
C223 C224 1.334 . S
C224 H195 0.950 . S
C224 C223 1.334 . S
C224 C225 1.287 . S
C225 C224 1.287 . S
C225 C226 1.524 . S
C225 H228 0.999 . S
C226 H196 0.950 . S
C226 C225 1.524 . S
C226 C227 1.415 . S
C227 H197 0.950 . S
C227 C222 1.363 . S
C227 C226 1.415 . S
H228 C225 0.999 . S
H229 C210 0.913 . S
H230 C248 0.951 . S
H231 C250 0.951 . S
H232 C252 0.950 . S
H233 C253 0.950 . S
H234 C255 0.950 . S
H235 C258 0.950 . S
H236 C259 0.950 . S
H237 C261 0.950 . S
H238 C262 0.950 . S
H239 C263 0.951 . S
H240 C265 0.951 . S
H241 C267 0.950 . S
H242 C268 0.950 . S
H243 C270 0.950 . S
H244 C273 0.950 . S
H245 C274 0.950 . S
H246 C276 0.950 . S
H247 C277 0.950 . S
C248 H230 0.951 . S
C248 C249 1.366 . S
C248 C250 1.388 . S
C249 C248 1.366 . S
C249 C253 1.385 . S
C250 H231 0.951 . S
C250 C248 1.388 . S
C250 C251 1.366 . S
C251 C250 1.366 . S
C251 C252 1.414 . S
C251 C254 1.499 . S
C252 H232 0.950 . S
C252 C251 1.414 . S
C252 C253 1.374 . S
C253 H233 0.950 . S
C253 C249 1.385 . S
C253 C252 1.374 . S
C254 C251 1.499 . S
C254 C255 1.373 . S
C254 C256 1.389 . S
C255 H234 0.950 . S
C255 C254 1.373 . S
C255 C271 1.377 . S
C256 C254 1.389 . S
C256 C257 1.524 . S
C256 C270 1.377 . S
C257 C256 1.524 . S
C257 C258 1.397 . S
C257 C262 1.363 . S
C258 H235 0.950 . S
C258 C257 1.397 . S
C258 C259 1.334 . S
C259 H236 0.950 . S
C259 C258 1.334 . S
C259 C260 1.287 . S
C260 C259 1.287 . S
C260 C261 1.524 . S
C260 H279 0.913 . S
C261 H237 0.950 . S
C261 C260 1.524 . S
C261 C262 1.415 . S
C262 H238 0.950 . S
C262 C257 1.363 . S
C262 C261 1.415 . S
C263 H239 0.951 . S
C263 C264 1.366 . S
C263 C265 1.388 . S
C264 C263 1.366 . S
C264 C268 1.385 . S
C265 H240 0.951 . S
C265 C263 1.388 . S
C265 C266 1.366 . S
C266 C265 1.366 . S
C266 C267 1.414 . S
C266 C269 1.499 . S
C267 H241 0.950 . S
C267 C266 1.414 . S
C267 C268 1.374 . S
C268 H242 0.950 . S
C268 C264 1.385 . S
C268 C267 1.374 . S
C269 C266 1.499 . S
C269 C270 1.373 . S
C269 C271 1.389 . S
C270 H243 0.950 . S
C270 C256 1.377 . S
C270 C269 1.373 . S
C271 C255 1.377 . S
C271 C269 1.389 . S
C271 C272 1.524 . S
C272 C271 1.524 . S
C272 C273 1.397 . S
C272 C277 1.363 . S
C273 H244 0.950 . S
C273 C272 1.397 . S
C273 C274 1.334 . S
C274 H245 0.950 . S
C274 C273 1.334 . S
C274 C275 1.287 . S
C275 C274 1.287 . S
C275 C276 1.524 . S
C275 H278 0.999 . S
C276 H246 0.950 . S
C276 C275 1.524 . S
C276 C277 1.415 . S
C277 H247 0.950 . S
C277 C272 1.363 . S
C277 C276 1.415 . S
H278 C275 0.999 . S
H279 C260 0.913 . S
H280 C298 0.951 . S
H281 C300 0.951 . S
H282 C302 0.950 . S
H283 C303 0.950 . S
H284 C305 0.950 . S
H285 C308 0.950 . S
H286 C309 0.950 . S
H287 C311 0.950 . S
H288 C312 0.950 . S
H289 C313 0.951 . S
H290 C315 0.951 . S
H291 C317 0.950 . S
H292 C318 0.950 . S
H293 C320 0.950 . S
H294 C323 0.950 . S
H295 C324 0.950 . S
H296 C326 0.950 . S
H297 C327 0.950 . S
C298 H280 0.951 . S
C298 C299 1.366 . S
C298 C300 1.388 . S
C299 C298 1.366 . S
C299 C303 1.385 . S
C300 H281 0.951 . S
C300 C298 1.388 . S
C300 C301 1.366 . S
C301 C300 1.366 . S
C301 C302 1.414 . S
C301 C304 1.499 . S
C302 H282 0.950 . S
C302 C301 1.414 . S
C302 C303 1.374 . S
C303 H283 0.950 . S
C303 C299 1.385 . S
C303 C302 1.374 . S
C304 C301 1.499 . S
C304 C305 1.373 . S
C304 C306 1.389 . S
C305 H284 0.950 . S
C305 C304 1.373 . S
C305 C321 1.377 . S
C306 C304 1.389 . S
C306 C307 1.524 . S
C306 C320 1.377 . S
C307 C306 1.524 . S
C307 C308 1.397 . S
C307 C312 1.363 . S
C308 H285 0.950 . S
C308 C307 1.397 . S
C308 C309 1.334 . S
C309 H286 0.950 . S
C309 C308 1.334 . S
C309 C310 1.287 . S
C310 C309 1.287 . S
C310 C311 1.524 . S
C310 H329 0.913 . S
C311 H287 0.950 . S
C311 C310 1.524 . S
C311 C312 1.415 . S
C312 H288 0.950 . S
C312 C307 1.363 . S
C312 C311 1.415 . S
C313 H289 0.951 . S
C313 C314 1.366 . S
C313 C315 1.388 . S
C314 C313 1.366 . S
C314 C318 1.385 . S
C315 H290 0.951 . S
C315 C313 1.388 . S
C315 C316 1.366 . S
C316 C315 1.366 . S
C316 C317 1.414 . S
C316 C319 1.499 . S
C317 H291 0.950 . S
C317 C316 1.414 . S
C317 C318 1.374 . S
C318 H292 0.950 . S
C318 C314 1.385 . S
C318 C317 1.374 . S
C319 C316 1.499 . S
C319 C320 1.373 . S
C319 C321 1.389 . S
C320 H293 0.950 . S
C320 C306 1.377 . S
C320 C319 1.373 . S
C321 C305 1.377 . S
C321 C319 1.389 . S
C321 C322 1.524 . S
C322 C321 1.524 . S
C322 C323 1.397 . S
C322 C327 1.363 . S
C323 H294 0.950 . S
C323 C322 1.397 . S
C323 C324 1.334 . S
C324 H295 0.950 . S
C324 C323 1.334 . S
C324 C325 1.287 . S
C325 C324 1.287 . S
C325 C326 1.524 . S
C325 H328 0.999 . S
C326 H296 0.950 . S
C326 C325 1.524 . S
C326 C327 1.415 . S
C327 H297 0.950 . S
C327 C322 1.363 . S
C327 C326 1.415 . S
H328 C325 0.999 . S
H329 C310 0.913 . S
H330 C348 0.951 . S
H331 C350 0.951 . S
H332 C352 0.950 . S
H333 C353 0.950 . S
H334 C355 0.950 . S
H335 C358 0.950 . S
H336 C359 0.950 . S
H337 C361 0.950 . S
H338 C362 0.950 . S
H339 C363 0.951 . S
H340 C365 0.951 1_565 S
H341 C367 0.950 . S
H342 C368 0.950 . S
H343 C370 0.950 . S
H344 C373 0.950 1_545 S
H345 C374 0.950 . S
H346 C376 0.950 . S
H347 C377 0.950 . S
C348 H330 0.951 . S
C348 C349 1.366 . S
C348 C350 1.388 . S
C349 C348 1.366 . S
C349 C353 1.385 . S
C350 H331 0.951 . S
C350 C348 1.388 . S
C350 C351 1.366 . S
C351 C350 1.366 . S
C351 C352 1.414 . S
C351 C354 1.499 . S
C352 H332 0.950 . S
C352 C351 1.414 . S
C352 C353 1.374 . S
C353 H333 0.950 . S
C353 C349 1.385 . S
C353 C352 1.374 . S
C354 C351 1.499 . S
C354 C355 1.373 . S
C354 C356 1.389 . S
C355 H334 0.950 . S
C355 C354 1.373 . S
C355 C371 1.377 . S
C356 C354 1.389 . S
C356 C357 1.524 . S
C356 C370 1.377 . S
C357 C356 1.524 . S
C357 C358 1.397 . S
C357 C362 1.363 . S
C358 H335 0.950 . S
C358 C357 1.397 . S
C358 C359 1.334 . S
C359 H336 0.950 . S
C359 C358 1.334 . S
C359 C360 1.287 . S
C360 C359 1.287 . S
C360 C361 1.524 . S
C360 H379 0.913 . S
C361 H337 0.950 . S
C361 C360 1.524 . S
C361 C362 1.415 . S
C362 H338 0.950 . S
C362 C357 1.363 . S
C362 C361 1.415 . S
C363 H339 0.951 . S
C363 C364 1.366 . S
C363 C365 1.388 . S
C364 C363 1.366 . S
C364 C368 1.385 . S
C365 H340 0.951 1_545 S
C365 C363 1.388 . S
C365 C366 1.366 . S
C366 C365 1.366 . S
C366 C367 1.414 . S
C366 C369 1.499 1_545 S
C367 H341 0.950 . S
C367 C366 1.414 . S
C367 C368 1.374 . S
C368 H342 0.950 . S
C368 C364 1.385 . S
C368 C367 1.374 . S
C369 C366 1.499 1_565 S
C369 C370 1.373 . S
C369 C371 1.389 . S
C370 H343 0.950 . S
C370 C356 1.377 . S
C370 C369 1.373 . S
C371 C355 1.377 . S
C371 C369 1.389 . S
C371 C372 1.524 . S
C372 C371 1.524 . S
C372 C373 1.397 . S
C372 C377 1.363 . S
C373 H344 0.950 1_565 S
C373 C372 1.397 . S
C373 C374 1.334 1_565 S
C374 H345 0.950 . S
C374 C373 1.334 1_545 S
C374 C375 1.287 1_545 S
C375 C374 1.287 1_565 S
C375 C376 1.524 . S
C375 H378 0.999 . S
C376 H346 0.950 . S
C376 C375 1.524 . S
C376 C377 1.415 . S
C377 H347 0.950 . S
C377 C372 1.363 . S
C377 C376 1.415 . S
H378 C375 0.999 . S
H379 C360 0.913 . S
H380 C398 0.951 . S
H381 C400 0.951 . S
H382 C402 0.950 . S
H383 C403 0.950 . S
H384 C405 0.950 . S
H385 C408 0.950 . S
H386 C409 0.950 . S
H387 C411 0.950 . S
H388 C412 0.950 . S
H389 C413 0.951 . S
H390 C415 0.951 1_545 S
H391 C417 0.950 . S
H392 C418 0.950 . S
H393 C420 0.950 . S
H394 C423 0.950 1_565 S
H395 C424 0.950 1_565 S
H396 C426 0.950 . S
H397 C427 0.950 . S
C398 H380 0.951 . S
C398 C399 1.366 . S
C398 C400 1.388 . S
C399 C398 1.366 . S
C399 C403 1.385 . S
C400 H381 0.951 . S
C400 C398 1.388 . S
C400 C401 1.366 . S
C401 C400 1.366 . S
C401 C402 1.414 . S
C401 C404 1.499 . S
C402 H382 0.950 . S
C402 C401 1.414 . S
C402 C403 1.374 . S
C403 H383 0.950 . S
C403 C399 1.385 . S
C403 C402 1.374 . S
C404 C401 1.499 . S
C404 C405 1.373 . S
C404 C406 1.389 . S
C405 H384 0.950 . S
C405 C404 1.373 . S
C405 C421 1.377 . S
C406 C404 1.389 . S
C406 C407 1.524 . S
C406 C420 1.377 . S
C407 C406 1.524 . S
C407 C408 1.397 . S
C407 C412 1.363 . S
C408 H385 0.950 . S
C408 C407 1.397 . S
C408 C409 1.334 . S
C409 H386 0.950 . S
C409 C408 1.334 . S
C409 C410 1.287 . S
C410 C409 1.287 . S
C410 C411 1.524 . S
C410 H429 0.913 . S
C411 H387 0.950 . S
C411 C410 1.524 . S
C411 C412 1.415 . S
C412 H388 0.950 . S
C412 C407 1.363 . S
C412 C411 1.415 . S
C413 H389 0.951 . S
C413 C414 1.366 . S
C413 C415 1.388 . S
C414 C413 1.366 . S
C414 C418 1.385 . S
C415 H390 0.951 1_565 S
C415 C413 1.388 . S
C415 C416 1.366 . S
C416 C415 1.366 . S
C416 C417 1.414 . S
C416 C419 1.499 1_565 S
C417 H391 0.950 . S
C417 C416 1.414 . S
C417 C418 1.374 . S
C418 H392 0.950 . S
C418 C414 1.385 . S
C418 C417 1.374 . S
C419 C416 1.499 1_545 S
C419 C420 1.373 . S
C419 C421 1.389 . S
C420 H393 0.950 . S
C420 C406 1.377 . S
C420 C419 1.373 . S
C421 C405 1.377 . S
C421 C419 1.389 . S
C421 C422 1.524 . S
C422 C421 1.524 . S
C422 C423 1.397 . S
C422 C427 1.363 . S
C423 H394 0.950 1_545 S
C423 C422 1.397 . S
C423 C424 1.334 . S
C424 H395 0.950 1_545 S
C424 C423 1.334 . S
C424 C425 1.287 1_655 S
C425 C424 1.287 1_455 S
C425 C426 1.524 . S
C425 H428 0.999 . S
C426 H396 0.950 . S
C426 C425 1.524 . S
C426 C427 1.415 1_455 S
C427 H397 0.950 . S
C427 C422 1.363 . S
C427 C426 1.415 1_655 S
H428 C425 0.999 . S
H429 C410 0.913 . S
H430 C448 0.951 . S
H431 C450 0.951 . S
H432 C452 0.950 . S
H433 C453 0.950 . S
H434 C455 0.950 . S
H435 C458 0.950 . S
H436 C459 0.950 . S
H437 C461 0.950 . S
H438 C462 0.950 . S
H439 C463 0.951 . S
H440 C465 0.951 . S
H441 C467 0.950 . S
H442 C468 0.950 . S
H443 C470 0.950 . S
H444 C473 0.950 . S
H445 C474 0.950 . S
H446 C476 0.950 . S
H447 C477 0.950 . S
C448 H430 0.951 . S
C448 C449 1.366 . S
C448 C450 1.388 . S
C449 C448 1.366 . S
C449 C453 1.385 . S
C450 H431 0.951 . S
C450 C448 1.388 . S
C450 C451 1.366 . S
C451 C450 1.366 . S
C451 C452 1.414 . S
C451 C454 1.499 . S
C452 H432 0.950 . S
C452 C451 1.414 . S
C452 C453 1.374 . S
C453 H433 0.950 . S
C453 C449 1.385 . S
C453 C452 1.374 . S
C454 C451 1.499 . S
C454 C455 1.373 . S
C454 C456 1.389 . S
C455 H434 0.950 . S
C455 C454 1.373 . S
C455 C471 1.377 . S
C456 C454 1.389 . S
C456 C457 1.524 . S
C456 C470 1.377 . S
C457 C456 1.524 . S
C457 C458 1.397 . S
C457 C462 1.363 . S
C458 H435 0.950 . S
C458 C457 1.397 . S
C458 C459 1.334 . S
C459 H436 0.950 . S
C459 C458 1.334 . S
C459 C460 1.287 . S
C460 C459 1.287 . S
C460 C461 1.524 . S
C460 H479 0.913 . S
C461 H437 0.950 . S
C461 C460 1.524 . S
C461 C462 1.415 . S
C462 H438 0.950 . S
C462 C457 1.363 . S
C462 C461 1.415 . S
C463 H439 0.951 . S
C463 C464 1.366 . S
C463 C465 1.388 . S
C464 C463 1.366 . S
C464 C468 1.385 . S
C465 H440 0.951 . S
C465 C463 1.388 . S
C465 C466 1.366 . S
C466 C465 1.366 . S
C466 C467 1.414 . S
C466 C469 1.499 . S
C467 H441 0.950 . S
C467 C466 1.414 . S
C467 C468 1.374 . S
C468 H442 0.950 . S
C468 C464 1.385 . S
C468 C467 1.374 . S
C469 C466 1.499 . S
C469 C470 1.373 . S
C469 C471 1.389 . S
C470 H443 0.950 . S
C470 C456 1.377 . S
C470 C469 1.373 . S
C471 C455 1.377 . S
C471 C469 1.389 . S
C471 C472 1.524 . S
C472 C471 1.524 . S
C472 C473 1.397 . S
C472 C477 1.363 . S
C473 H444 0.950 . S
C473 C472 1.397 . S
C473 C474 1.334 . S
C474 H445 0.950 . S
C474 C473 1.334 . S
C474 C475 1.287 . S
C475 C474 1.287 . S
C475 C476 1.524 . S
C475 H478 0.999 . S
C476 H446 0.950 . S
C476 C475 1.524 . S
C476 C477 1.415 . S
C477 H447 0.950 . S
C477 C472 1.363 . S
C477 C476 1.415 . S
H478 C475 0.999 . S
H479 C460 0.913 . S
H480 C498 0.951 . S
H481 C500 0.951 . S
H482 C502 0.950 . S
H483 C503 0.950 . S
H484 C505 0.950 . S
H485 C508 0.950 . S
H486 C509 0.950 . S
H487 C511 0.950 . S
H488 C512 0.950 . S
H489 C513 0.951 . S
H490 C515 0.951 . S
H491 C517 0.950 . S
H492 C518 0.950 . S
H493 C520 0.950 . S
H494 C523 0.950 . S
H495 C524 0.950 . S
H496 C526 0.950 . S
H497 C527 0.950 . S
C498 H480 0.951 . S
C498 C499 1.366 . S
C498 C500 1.388 . S
C499 C498 1.366 . S
C499 C503 1.385 . S
C500 H481 0.951 . S
C500 C498 1.388 . S
C500 C501 1.366 . S
C501 C500 1.366 . S
C501 C502 1.414 . S
C501 C504 1.499 . S
C502 H482 0.950 . S
C502 C501 1.414 . S
C502 C503 1.374 . S
C503 H483 0.950 . S
C503 C499 1.385 . S
C503 C502 1.374 . S
C504 C501 1.499 . S
C504 C505 1.373 . S
C504 C506 1.389 . S
C505 H484 0.950 . S
C505 C504 1.373 . S
C505 C521 1.377 . S
C506 C504 1.389 . S
C506 C507 1.524 . S
C506 C520 1.377 . S
C507 C506 1.524 . S
C507 C508 1.397 . S
C507 C512 1.363 . S
C508 H485 0.950 . S
C508 C507 1.397 . S
C508 C509 1.334 . S
C509 H486 0.950 . S
C509 C508 1.334 . S
C509 C510 1.287 . S
C510 C509 1.287 . S
C510 C511 1.524 . S
C510 H529 0.913 . S
C511 H487 0.950 . S
C511 C510 1.524 . S
C511 C512 1.415 . S
C512 H488 0.950 . S
C512 C507 1.363 . S
C512 C511 1.415 . S
C513 H489 0.951 . S
C513 C514 1.366 . S
C513 C515 1.388 . S
C514 C513 1.366 . S
C514 C518 1.385 . S
C515 H490 0.951 . S
C515 C513 1.388 . S
C515 C516 1.366 . S
C516 C515 1.366 . S
C516 C517 1.414 . S
C516 C519 1.499 . S
C517 H491 0.950 . S
C517 C516 1.414 . S
C517 C518 1.374 . S
C518 H492 0.950 . S
C518 C514 1.385 . S
C518 C517 1.374 . S
C519 C516 1.499 . S
C519 C520 1.373 . S
C519 C521 1.389 . S
C520 H493 0.950 . S
C520 C506 1.377 . S
C520 C519 1.373 . S
C521 C505 1.377 . S
C521 C519 1.389 . S
C521 C522 1.524 . S
C522 C521 1.524 . S
C522 C523 1.397 . S
C522 C527 1.363 . S
C523 H494 0.950 . S
C523 C522 1.397 . S
C523 C524 1.334 . S
C524 H495 0.950 . S
C524 C523 1.334 . S
C524 C525 1.287 . S
C525 C524 1.287 . S
C525 C526 1.524 . S
C525 H528 0.999 . S
C526 H496 0.950 . S
C526 C525 1.524 . S
C526 C527 1.415 . S
C527 H497 0.950 . S
C527 C522 1.363 . S
C527 C526 1.415 . S
H528 C525 0.999 . S
H529 C510 0.913 . S
H530 C548 0.951 . S
H531 C550 0.951 . S
H532 C552 0.950 . S
H533 C553 0.950 . S
H534 C555 0.950 . S
H535 C558 0.950 . S
H536 C559 0.950 . S
H537 C561 0.950 . S
H538 C562 0.950 . S
H539 C563 0.951 . S
H540 C565 0.951 . S
H541 C567 0.950 . S
H542 C568 0.950 . S
H543 C570 0.950 . S
H544 C573 0.950 . S
H545 C574 0.950 . S
H546 C576 0.950 . S
H547 C577 0.950 . S
C548 H530 0.951 . S
C548 C549 1.366 . S
C548 C550 1.388 . S
C549 C548 1.366 . S
C549 C553 1.385 . S
C550 H531 0.951 . S
C550 C548 1.388 . S
C550 C551 1.366 . S
C551 C550 1.366 . S
C551 C552 1.414 . S
C551 C554 1.499 . S
C552 H532 0.950 . S
C552 C551 1.414 . S
C552 C553 1.374 . S
C553 H533 0.950 . S
C553 C549 1.385 . S
C553 C552 1.374 . S
C554 C551 1.499 . S
C554 C555 1.373 . S
C554 C556 1.389 . S
C555 H534 0.950 . S
C555 C554 1.373 . S
C555 C571 1.377 . S
C556 C554 1.389 . S
C556 C557 1.524 . S
C556 C570 1.377 . S
C557 C556 1.524 . S
C557 C558 1.397 . S
C557 C562 1.363 . S
C558 H535 0.950 . S
C558 C557 1.397 . S
C558 C559 1.334 . S
C559 H536 0.950 . S
C559 C558 1.334 . S
C559 C560 1.287 . S
C560 C559 1.287 . S
C560 C561 1.524 . S
C560 H579 0.913 . S
C561 H537 0.950 . S
C561 C560 1.524 . S
C561 C562 1.415 . S
C562 H538 0.950 . S
C562 C557 1.363 . S
C562 C561 1.415 . S
C563 H539 0.951 . S
C563 C564 1.366 . S
C563 C565 1.388 . S
C564 C563 1.366 . S
C564 C568 1.385 . S
C565 H540 0.951 . S
C565 C563 1.388 . S
C565 C566 1.366 . S
C566 C565 1.366 . S
C566 C567 1.414 . S
C566 C569 1.499 1_565 S
C567 H541 0.950 . S
C567 C566 1.414 . S
C567 C568 1.374 . S
C568 H542 0.950 . S
C568 C564 1.385 . S
C568 C567 1.374 . S
C569 C566 1.499 1_545 S
C569 C570 1.373 . S
C569 C571 1.389 . S
C570 H543 0.950 . S
C570 C556 1.377 . S
C570 C569 1.373 . S
C571 C555 1.377 . S
C571 C569 1.389 . S
C571 C572 1.524 . S
C572 C571 1.524 . S
C572 C573 1.397 . S
C572 C577 1.363 . S
C573 H544 0.950 . S
C573 C572 1.397 . S
C573 C574 1.334 . S
C574 H545 0.950 . S
C574 C573 1.334 . S
C574 C575 1.287 . S
C575 C574 1.287 . S
C575 C576 1.524 . S
C575 H578 0.999 . S
C576 H546 0.950 . S
C576 C575 1.524 . S
C576 C577 1.415 . S
C577 H547 0.950 . S
C577 C572 1.363 . S
C577 C576 1.415 . S
H578 C575 0.999 . S
H579 C560 0.913 . S
H580 C598 0.951 . S
H581 C600 0.951 . S
H582 C602 0.950 . S
H583 C603 0.950 . S
H584 C605 0.950 . S
H585 C608 0.950 1_554 S
H586 C609 0.950 . S
H587 C611 0.950 . S
H588 C612 0.950 . S
H589 C613 0.951 . S
H590 C615 0.951 . S
H591 C617 0.950 . S
H592 C618 0.950 . S
H593 C620 0.950 . S
H594 C623 0.950 . S
H595 C624 0.950 . S
H596 C626 0.950 . S
H597 C627 0.950 . S
C598 H580 0.951 . S
C598 C599 1.366 . S
C598 C600 1.388 . S
C599 C598 1.366 . S
C599 C603 1.385 . S
C600 H581 0.951 . S
C600 C598 1.388 . S
C600 C601 1.366 1_556 S
C601 C600 1.366 1_554 S
C601 C602 1.414 . S
C601 C604 1.499 . S
C602 H582 0.950 . S
C602 C601 1.414 . S
C602 C603 1.374 1_554 S
C603 H583 0.950 . S
C603 C599 1.385 . S
C603 C602 1.374 1_556 S
C604 C601 1.499 . S
C604 C605 1.373 . S
C604 C606 1.389 . S
C605 H584 0.950 . S
C605 C604 1.373 . S
C605 C621 1.377 . S
C606 C604 1.389 . S
C606 C607 1.524 . S
C606 C620 1.377 . S
C607 C606 1.524 . S
C607 C608 1.397 1_554 S
C607 C612 1.363 . S
C608 H585 0.950 1_556 S
C608 C607 1.397 1_556 S
C608 C609 1.334 . S
C609 H586 0.950 . S
C609 C608 1.334 . S
C609 C610 1.287 . S
C610 C609 1.287 . S
C610 C611 1.524 . S
C610 H629 0.913 . S
C611 H587 0.950 . S
C611 C610 1.524 . S
C611 C612 1.415 1_556 S
C612 H588 0.950 . S
C612 C607 1.363 . S
C612 C611 1.415 1_554 S
C613 H589 0.951 . S
C613 C614 1.366 . S
C613 C615 1.388 . S
C614 C613 1.366 . S
C614 C618 1.385 . S
C615 H590 0.951 . S
C615 C613 1.388 . S
C615 C616 1.366 . S
C616 C615 1.366 . S
C616 C617 1.414 . S
C616 C619 1.499 . S
C617 H591 0.950 . S
C617 C616 1.414 . S
C617 C618 1.374 . S
C618 H592 0.950 . S
C618 C614 1.385 . S
C618 C617 1.374 . S
C619 C616 1.499 . S
C619 C620 1.373 . S
C619 C621 1.389 . S
C620 H593 0.950 . S
C620 C606 1.377 . S
C620 C619 1.373 . S
C621 C605 1.377 . S
C621 C619 1.389 . S
C621 C622 1.524 . S
C622 C621 1.524 . S
C622 C623 1.397 . S
C622 C627 1.363 . S
C623 H594 0.950 . S
C623 C622 1.397 . S
C623 C624 1.334 . S
C624 H595 0.950 . S
C624 C623 1.334 . S
C624 C625 1.287 . S
C625 C624 1.287 . S
C625 C626 1.524 . S
C625 H628 0.999 . S
C626 H596 0.950 . S
C626 C625 1.524 . S
C626 C627 1.415 . S
C627 H597 0.950 . S
C627 C622 1.363 . S
C627 C626 1.415 . S
H628 C625 0.999 . S
H629 C610 0.913 . S
H630 C648 0.951 . S
H631 C650 0.951 . S
H632 C652 0.950 . S
H633 C653 0.950 . S
H634 C655 0.950 . S
H635 C658 0.950 . S
H636 C659 0.950 . S
H637 C661 0.950 . S
H638 C662 0.950 . S
H639 C663 0.951 . S
H640 C665 0.951 . S
H641 C667 0.950 . S
H642 C668 0.950 . S
H643 C670 0.950 . S
H644 C673 0.950 . S
H645 C674 0.950 . S
H646 C676 0.950 . S
H647 C677 0.950 . S
C648 H630 0.951 . S
C648 C649 1.366 . S
C648 C650 1.388 . S
C649 C648 1.366 . S
C649 C653 1.385 . S
C650 H631 0.951 . S
C650 C648 1.388 . S
C650 C651 1.366 . S
C651 C650 1.366 . S
C651 C652 1.414 . S
C651 C654 1.499 . S
C652 H632 0.950 . S
C652 C651 1.414 . S
C652 C653 1.374 . S
C653 H633 0.950 . S
C653 C649 1.385 . S
C653 C652 1.374 . S
C654 C651 1.499 . S
C654 C655 1.373 . S
C654 C656 1.389 . S
C655 H634 0.950 . S
C655 C654 1.373 . S
C655 C671 1.377 . S
C656 C654 1.389 . S
C656 C657 1.524 . S
C656 C670 1.377 . S
C657 C656 1.524 . S
C657 C658 1.397 . S
C657 C662 1.363 . S
C658 H635 0.950 . S
C658 C657 1.397 . S
C658 C659 1.334 . S
C659 H636 0.950 . S
C659 C658 1.334 . S
C659 C660 1.287 . S
C660 C659 1.287 . S
C660 C661 1.524 . S
C660 H679 0.913 . S
C661 H637 0.950 . S
C661 C660 1.524 . S
C661 C662 1.415 . S
C662 H638 0.950 . S
C662 C657 1.363 . S
C662 C661 1.415 . S
C663 H639 0.951 . S
C663 C664 1.366 . S
C663 C665 1.388 . S
C664 C663 1.366 . S
C664 C668 1.385 . S
C665 H640 0.951 . S
C665 C663 1.388 . S
C665 C666 1.366 . S
C666 C665 1.366 . S
C666 C667 1.414 . S
C666 C669 1.499 . S
C667 H641 0.950 . S
C667 C666 1.414 . S
C667 C668 1.374 . S
C668 H642 0.950 . S
C668 C664 1.385 . S
C668 C667 1.374 . S
C669 C666 1.499 . S
C669 C670 1.373 . S
C669 C671 1.389 . S
C670 H643 0.950 . S
C670 C656 1.377 . S
C670 C669 1.373 . S
C671 C655 1.377 . S
C671 C669 1.389 . S
C671 C672 1.524 . S
C672 C671 1.524 . S
C672 C673 1.397 . S
C672 C677 1.363 . S
C673 H644 0.950 . S
C673 C672 1.397 . S
C673 C674 1.334 . S
C674 H645 0.950 . S
C674 C673 1.334 . S
C674 C675 1.287 . S
C675 C674 1.287 . S
C675 C676 1.524 . S
C675 H678 0.999 . S
C676 H646 0.950 . S
C676 C675 1.524 . S
C676 C677 1.415 . S
C677 H647 0.950 . S
C677 C672 1.363 . S
C677 C676 1.415 . S
H678 C675 0.999 . S
H679 C660 0.913 . S
H680 C698 0.951 . S
H681 C700 0.951 . S
H682 C702 0.950 . S
H683 C703 0.950 . S
H684 C705 0.950 . S
H685 C708 0.950 . S
H686 C709 0.950 . S
H687 C711 0.950 . S
H688 C712 0.950 . S
H689 C713 0.951 . S
H690 C715 0.951 . S
H691 C717 0.950 . S
H692 C718 0.950 . S
H693 C720 0.950 . S
H694 C723 0.950 . S
H695 C724 0.950 . S
H696 C726 0.950 . S
H697 C727 0.950 . S
C698 H680 0.951 . S
C698 C699 1.366 . S
C698 C700 1.388 1_554 S
C699 C698 1.366 . S
C699 C703 1.385 . S
C700 H681 0.951 . S
C700 C698 1.388 1_556 S
C700 C701 1.366 . S
C701 C700 1.366 . S
C701 C702 1.414 1_556 S
C701 C704 1.499 . S
C702 H682 0.950 . S
C702 C701 1.414 1_554 S
C702 C703 1.374 . S
C703 H683 0.950 . S
C703 C699 1.385 . S
C703 C702 1.374 . S
C704 C701 1.499 . S
C704 C705 1.373 . S
C704 C706 1.389 . S
C705 H684 0.950 . S
C705 C704 1.373 . S
C705 C721 1.377 . S
C706 C704 1.389 . S
C706 C707 1.524 . S
C706 C720 1.377 . S
C707 C706 1.524 . S
C707 C708 1.397 . S
C707 C712 1.363 . S
C708 H685 0.950 . S
C708 C707 1.397 . S
C708 C709 1.334 . S
C709 H686 0.950 . S
C709 C708 1.334 . S
C709 C710 1.287 . S
C710 C709 1.287 . S
C710 C711 1.524 . S
C710 H729 0.913 . S
C711 H687 0.950 . S
C711 C710 1.524 . S
C711 C712 1.415 . S
C712 H688 0.950 . S
C712 C707 1.363 . S
C712 C711 1.415 . S
C713 H689 0.951 . S
C713 C714 1.366 . S
C713 C715 1.388 . S
C714 C713 1.366 . S
C714 C718 1.385 . S
C715 H690 0.951 . S
C715 C713 1.388 . S
C715 C716 1.366 . S
C716 C715 1.366 . S
C716 C717 1.414 . S
C716 C719 1.499 . S
C717 H691 0.950 . S
C717 C716 1.414 . S
C717 C718 1.374 . S
C718 H692 0.950 . S
C718 C714 1.385 . S
C718 C717 1.374 . S
C719 C716 1.499 . S
C719 C720 1.373 . S
C719 C721 1.389 . S
C720 H693 0.950 . S
C720 C706 1.377 . S
C720 C719 1.373 . S
C721 C705 1.377 . S
C721 C719 1.389 . S
C721 C722 1.524 . S
C722 C721 1.524 . S
C722 C723 1.397 . S
C722 C727 1.363 . S
C723 H694 0.950 . S
C723 C722 1.397 . S
C723 C724 1.334 . S
C724 H695 0.950 . S
C724 C723 1.334 . S
C724 C725 1.287 . S
C725 C724 1.287 . S
C725 C726 1.524 . S
C725 H728 0.999 . S
C726 H696 0.950 . S
C726 C725 1.524 . S
C726 C727 1.415 . S
C727 H697 0.950 . S
C727 C722 1.363 . S
C727 C726 1.415 . S
H728 C725 0.999 . S
H729 C710 0.913 . S
H730 C748 0.951 . S
H731 C750 0.951 . S
H732 C752 0.950 . S
H733 C753 0.950 . S
H734 C755 0.950 . S
H735 C758 0.950 . S
H736 C759 0.950 . S
H737 C761 0.950 . S
H738 C762 0.950 . S
H739 C763 0.951 . S
H740 C765 0.951 . S
H741 C767 0.950 . S
H742 C768 0.950 . S
H743 C770 0.950 . S
H744 C773 0.950 . S
H745 C774 0.950 . S
H746 C776 0.950 1_455 S
H747 C777 0.950 . S
C748 H730 0.951 . S
C748 C749 1.366 . S
C748 C750 1.388 . S
C749 C748 1.366 . S
C749 C753 1.385 . S
C750 H731 0.951 . S
C750 C748 1.388 . S
C750 C751 1.366 . S
C751 C750 1.366 . S
C751 C752 1.414 . S
C751 C754 1.499 . S
C752 H732 0.950 . S
C752 C751 1.414 . S
C752 C753 1.374 . S
C753 H733 0.950 . S
C753 C749 1.385 . S
C753 C752 1.374 . S
C754 C751 1.499 . S
C754 C755 1.373 . S
C754 C756 1.389 . S
C755 H734 0.950 . S
C755 C754 1.373 . S
C755 C771 1.377 . S
C756 C754 1.389 . S
C756 C757 1.524 . S
C756 C770 1.377 . S
C757 C756 1.524 . S
C757 C758 1.397 . S
C757 C762 1.363 . S
C758 H735 0.950 . S
C758 C757 1.397 . S
C758 C759 1.334 . S
C759 H736 0.950 . S
C759 C758 1.334 . S
C759 C760 1.287 . S
C760 C759 1.287 . S
C760 C761 1.524 . S
C760 H779 0.913 . S
C761 H737 0.950 . S
C761 C760 1.524 . S
C761 C762 1.415 . S
C762 H738 0.950 . S
C762 C757 1.363 . S
C762 C761 1.415 . S
C763 H739 0.951 . S
C763 C764 1.366 . S
C763 C765 1.388 . S
C764 C763 1.366 . S
C764 C768 1.385 . S
C765 H740 0.951 . S
C765 C763 1.388 . S
C765 C766 1.366 . S
C766 C765 1.366 . S
C766 C767 1.414 . S
C766 C769 1.499 . S
C767 H741 0.950 . S
C767 C766 1.414 . S
C767 C768 1.374 . S
C768 H742 0.950 . S
C768 C764 1.385 . S
C768 C767 1.374 . S
C769 C766 1.499 . S
C769 C770 1.373 . S
C769 C771 1.389 . S
C770 H743 0.950 . S
C770 C756 1.377 . S
C770 C769 1.373 . S
C771 C755 1.377 . S
C771 C769 1.389 . S
C771 C772 1.524 . S
C772 C771 1.524 . S
C772 C773 1.397 . S
C772 C777 1.363 . S
C773 H744 0.950 . S
C773 C772 1.397 . S
C773 C774 1.334 1_655 S
C774 H745 0.950 . S
C774 C773 1.334 1_455 S
C774 C775 1.287 . S
C775 C774 1.287 . S
C775 C776 1.524 1_455 S
C775 H778 0.999 . S
C776 H746 0.950 1_655 S
C776 C775 1.524 1_655 S
C776 C777 1.415 . S
C777 H747 0.950 . S
C777 C772 1.363 . S
C777 C776 1.415 . S
H778 C775 0.999 . S
H779 C760 0.913 . S
H780 C798 0.951 . S
H781 C800 0.951 . S
H782 C802 0.950 . S
H783 C803 0.950 . S
H784 C805 0.950 . S
H785 C808 0.950 . S
H786 C809 0.950 . S
H787 C811 0.950 . S
H788 C812 0.950 . S
H789 C813 0.951 . S
H790 C815 0.951 . S
H791 C817 0.950 . S
H792 C818 0.950 . S
H793 C820 0.950 . S
H794 C823 0.950 . S
H795 C824 0.950 . S
H796 C826 0.950 . S
H797 C827 0.950 . S
C798 H780 0.951 . S
C798 C799 1.366 . S
C798 C800 1.388 1_554 S
C799 C798 1.366 . S
C799 C803 1.385 . S
C800 H781 0.951 . S
C800 C798 1.388 1_556 S
C800 C801 1.366 . S
C801 C800 1.366 . S
C801 C802 1.414 1_556 S
C801 C804 1.499 . S
C802 H782 0.950 . S
C802 C801 1.414 1_554 S
C802 C803 1.374 . S
C803 H783 0.950 . S
C803 C799 1.385 . S
C803 C802 1.374 . S
C804 C801 1.499 . S
C804 C805 1.373 . S
C804 C806 1.389 . S
C805 H784 0.950 . S
C805 C804 1.373 . S
C805 C821 1.377 . S
C806 C804 1.389 . S
C806 C807 1.524 . S
C806 C820 1.377 . S
C807 C806 1.524 . S
C807 C808 1.397 . S
C807 C812 1.363 . S
C808 H785 0.950 . S
C808 C807 1.397 . S
C808 C809 1.334 . S
C809 H786 0.950 . S
C809 C808 1.334 . S
C809 C810 1.287 . S
C810 C809 1.287 . S
C810 C811 1.524 . S
C810 H829 0.913 . S
C811 H787 0.950 . S
C811 C810 1.524 . S
C811 C812 1.415 . S
C812 H788 0.950 . S
C812 C807 1.363 . S
C812 C811 1.415 . S
C813 H789 0.951 . S
C813 C814 1.366 . S
C813 C815 1.388 . S
C814 C813 1.366 . S
C814 C818 1.385 . S
C815 H790 0.951 . S
C815 C813 1.388 . S
C815 C816 1.366 . S
C816 C815 1.366 . S
C816 C817 1.414 . S
C816 C819 1.499 . S
C817 H791 0.950 . S
C817 C816 1.414 . S
C817 C818 1.374 . S
C818 H792 0.950 . S
C818 C814 1.385 . S
C818 C817 1.374 . S
C819 C816 1.499 . S
C819 C820 1.373 . S
C819 C821 1.389 . S
C820 H793 0.950 . S
C820 C806 1.377 . S
C820 C819 1.373 . S
C821 C805 1.377 . S
C821 C819 1.389 . S
C821 C822 1.524 . S
C822 C821 1.524 . S
C822 C823 1.397 . S
C822 C827 1.363 . S
C823 H794 0.950 . S
C823 C822 1.397 . S
C823 C824 1.334 . S
C824 H795 0.950 . S
C824 C823 1.334 . S
C824 C825 1.287 . S
C825 C824 1.287 . S
C825 C826 1.524 . S
C825 H828 0.999 . S
C826 H796 0.950 . S
C826 C825 1.524 . S
C826 C827 1.415 . S
C827 H797 0.950 . S
C827 C822 1.363 . S
C827 C826 1.415 . S
H828 C825 0.999 . S
H829 C810 0.913 . S
H830 C848 0.951 . S
H831 C850 0.951 . S
H832 C852 0.950 . S
H833 C853 0.950 . S
H834 C855 0.950 . S
H835 C858 0.950 . S
H836 C859 0.950 . S
H837 C861 0.950 . S
H838 C862 0.950 . S
H839 C863 0.951 . S
H840 C865 0.951 . S
H841 C867 0.950 . S
H842 C868 0.950 . S
H843 C870 0.950 . S
H844 C873 0.950 . S
H845 C874 0.950 . S
H846 C876 0.950 . S
H847 C877 0.950 . S
C848 H830 0.951 . S
C848 C849 1.366 . S
C848 C850 1.388 . S
C849 C848 1.366 . S
C849 C853 1.385 . S
C850 H831 0.951 . S
C850 C848 1.388 . S
C850 C851 1.366 . S
C851 C850 1.366 . S
C851 C852 1.414 . S
C851 C854 1.499 . S
C852 H832 0.950 . S
C852 C851 1.414 . S
C852 C853 1.374 . S
C853 H833 0.950 . S
C853 C849 1.385 . S
C853 C852 1.374 . S
C854 C851 1.499 . S
C854 C855 1.373 . S
C854 C856 1.389 . S
C855 H834 0.950 . S
C855 C854 1.373 . S
C855 C871 1.377 . S
C856 C854 1.389 . S
C856 C857 1.524 . S
C856 C870 1.377 . S
C857 C856 1.524 . S
C857 C858 1.397 . S
C857 C862 1.363 . S
C858 H835 0.950 . S
C858 C857 1.397 . S
C858 C859 1.334 . S
C859 H836 0.950 . S
C859 C858 1.334 . S
C859 C860 1.287 . S
C860 C859 1.287 . S
C860 C861 1.524 . S
C860 H879 0.913 . S
C861 H837 0.950 . S
C861 C860 1.524 . S
C861 C862 1.415 . S
C862 H838 0.950 . S
C862 C857 1.363 . S
C862 C861 1.415 . S
C863 H839 0.951 . S
C863 C864 1.366 . S
C863 C865 1.388 . S
C864 C863 1.366 . S
C864 C868 1.385 . S
C865 H840 0.951 . S
C865 C863 1.388 . S
C865 C866 1.366 . S
C866 C865 1.366 . S
C866 C867 1.414 . S
C866 C869 1.499 . S
C867 H841 0.950 . S
C867 C866 1.414 . S
C867 C868 1.374 . S
C868 H842 0.950 . S
C868 C864 1.385 . S
C868 C867 1.374 . S
C869 C866 1.499 . S
C869 C870 1.373 . S
C869 C871 1.389 . S
C870 H843 0.950 . S
C870 C856 1.377 . S
C870 C869 1.373 . S
C871 C855 1.377 . S
C871 C869 1.389 . S
C871 C872 1.524 . S
C872 C871 1.524 . S
C872 C873 1.397 . S
C872 C877 1.363 . S
C873 H844 0.950 . S
C873 C872 1.397 . S
C873 C874 1.334 . S
C874 H845 0.950 . S
C874 C873 1.334 . S
C874 C875 1.287 . S
C875 C874 1.287 . S
C875 C876 1.524 . S
C875 H878 0.999 . S
C876 H846 0.950 . S
C876 C875 1.524 . S
C876 C877 1.415 . S
C877 H847 0.950 . S
C877 C872 1.363 . S
C877 C876 1.415 . S
H878 C875 0.999 . S
H879 C860 0.913 . S
H880 C898 0.951 . S
H881 C900 0.951 . S
H882 C902 0.948 1_554 S
H883 C903 0.950 . S
H884 C905 0.950 . S
H885 C908 0.950 . S
H886 C909 0.950 . S
H887 C911 0.950 . S
H888 C912 0.950 . S
H889 C913 0.951 . S
H890 C915 0.951 . S
H891 C917 0.950 . S
H892 C918 0.950 . S
H893 C920 0.950 . S
H894 C923 0.950 . S
H895 C924 0.950 . S
H896 C926 0.950 . S
H897 C927 0.950 . S
C898 H880 0.951 . S
C898 C899 1.366 . S
C898 C900 1.388 . S
C899 C898 1.366 . S
C899 C903 1.385 . S
C900 H881 0.951 . S
C900 C898 1.388 . S
C900 C901 1.366 1_556 S
C901 C900 1.366 1_554 S
C901 C902 1.413 1_554 S
C901 C904 1.499 . S
C902 H882 0.948 1_556 S
C902 C901 1.413 1_556 S
C902 C903 1.377 . S
C903 H883 0.950 . S
C903 C899 1.385 . S
C903 C902 1.377 . S
C904 C901 1.499 . S
C904 C905 1.373 . S
C904 C906 1.389 . S
C905 H884 0.950 . S
C905 C904 1.373 . S
C905 C921 1.377 . S
C906 C904 1.389 . S
C906 C907 1.524 . S
C906 C920 1.377 . S
C907 C906 1.524 . S
C907 C908 1.397 . S
C907 C912 1.363 . S
C908 H885 0.950 . S
C908 C907 1.397 . S
C908 C909 1.334 . S
C909 H886 0.950 . S
C909 C908 1.334 . S
C909 C910 1.287 . S
C910 C909 1.287 . S
C910 C911 1.524 . S
C910 H929 0.913 . S
C911 H887 0.950 . S
C911 C910 1.524 . S
C911 C912 1.415 . S
C912 H888 0.950 . S
C912 C907 1.363 . S
C912 C911 1.415 . S
C913 H889 0.951 . S
C913 C914 1.366 . S
C913 C915 1.388 . S
C914 C913 1.366 . S
C914 C918 1.385 . S
C915 H890 0.951 . S
C915 C913 1.388 . S
C915 C916 1.366 . S
C916 C915 1.366 . S
C916 C917 1.414 . S
C916 C919 1.499 . S
C917 H891 0.950 . S
C917 C916 1.414 . S
C917 C918 1.374 . S
C918 H892 0.950 . S
C918 C914 1.385 . S
C918 C917 1.374 . S
C919 C916 1.499 . S
C919 C920 1.373 . S
C919 C921 1.389 . S
C920 H893 0.950 . S
C920 C906 1.377 . S
C920 C919 1.373 . S
C921 C905 1.377 . S
C921 C919 1.389 . S
C921 C922 1.524 . S
C922 C921 1.524 . S
C922 C923 1.397 . S
C922 C927 1.363 . S
C923 H894 0.950 . S
C923 C922 1.397 . S
C923 C924 1.334 . S
C924 H895 0.950 . S
C924 C923 1.334 . S
C924 C925 1.287 . S
C925 C924 1.287 . S
C925 C926 1.524 . S
C925 H928 0.999 . S
C926 H896 0.950 . S
C926 C925 1.524 . S
C926 C927 1.415 . S
C927 H897 0.950 . S
C927 C922 1.363 . S
C927 C926 1.415 . S
H928 C925 0.999 . S
H929 C910 0.913 . S
H930 C948 0.951 . S
H931 C950 0.951 . S
H932 C952 0.950 . S
H933 C953 0.950 . S
H934 C955 0.950 . S
H935 C958 0.950 . S
H936 C959 0.950 . S
H937 C961 0.950 . S
H938 C962 0.950 . S
H939 C963 0.951 . S
H940 C965 0.951 . S
H941 C967 0.950 . S
H942 C968 0.950 . S
H943 C970 0.950 . S
H944 C973 0.950 . S
H945 C974 0.950 1_655 S
H946 C976 0.950 . S
H947 C977 0.950 . S
C948 H930 0.951 . S
C948 C949 1.366 . S
C948 C950 1.388 . S
C949 C948 1.366 . S
C949 C953 1.385 . S
C950 H931 0.951 . S
C950 C948 1.388 . S
C950 C951 1.366 . S
C951 C950 1.366 . S
C951 C952 1.414 . S
C951 C954 1.499 . S
C952 H932 0.950 . S
C952 C951 1.414 . S
C952 C953 1.374 . S
C953 H933 0.950 . S
C953 C949 1.385 . S
C953 C952 1.374 . S
C954 C951 1.499 . S
C954 C955 1.373 . S
C954 C956 1.389 . S
C955 H934 0.950 . S
C955 C954 1.373 . S
C955 C971 1.377 . S
C956 C954 1.389 . S
C956 C957 1.524 . S
C956 C970 1.377 . S
C957 C956 1.524 . S
C957 C958 1.397 . S
C957 C962 1.363 . S
C958 H935 0.950 . S
C958 C957 1.397 . S
C958 C959 1.334 . S
C959 H936 0.950 . S
C959 C958 1.334 . S
C959 C960 1.287 . S
C960 C959 1.287 . S
C960 C961 1.524 . S
C960 H979 0.913 . S
C961 H937 0.950 . S
C961 C960 1.524 . S
C961 C962 1.415 . S
C962 H938 0.950 . S
C962 C957 1.363 . S
C962 C961 1.415 . S
C963 H939 0.951 . S
C963 C964 1.366 . S
C963 C965 1.388 . S
C964 C963 1.366 . S
C964 C968 1.385 . S
C965 H940 0.951 . S
C965 C963 1.388 . S
C965 C966 1.366 . S
C966 C965 1.366 . S
C966 C967 1.414 . S
C966 C969 1.499 . S
C967 H941 0.950 . S
C967 C966 1.414 . S
C967 C968 1.374 . S
C968 H942 0.950 . S
C968 C964 1.385 . S
C968 C967 1.374 . S
C969 C966 1.499 . S
C969 C970 1.373 . S
C969 C971 1.389 . S
C970 H943 0.950 . S
C970 C956 1.377 . S
C970 C969 1.373 . S
C971 C955 1.377 . S
C971 C969 1.389 . S
C971 C972 1.524 . S
C972 C971 1.524 . S
C972 C973 1.397 . S
C972 C977 1.363 . S
C973 H944 0.950 . S
C973 C972 1.397 . S
C973 C974 1.334 . S
C974 H945 0.950 1_455 S
C974 C973 1.334 . S
C974 C975 1.287 . S
C975 C974 1.287 . S
C975 C976 1.524 . S
C975 H978 0.999 . S
C976 H946 0.950 . S
C976 C975 1.524 . S
C976 C977 1.415 . S
C977 H947 0.950 . S
C977 C972 1.363 . S
C977 C976 1.415 . S
H978 C975 0.999 . S
H979 C960 0.913 . S
H980 C998 0.951 . S
H981 C1000 0.951 . S
H982 C1002 0.950 . S
H983 C1003 0.950 . S
H984 C1005 0.950 . S
H985 C1008 0.950 . S
H986 C1009 0.950 . S
H987 C1011 0.950 . S
H988 C1012 0.950 . S
H989 C1013 0.951 . S
H990 C1015 0.951 . S
H991 C1017 0.950 . S
H992 C1018 0.950 . S
H993 C1020 0.950 . S
H994 C1023 0.950 . S
H995 C1024 0.950 . S
H996 C1026 0.950 . S
H997 C1027 0.950 . S
C998 H980 0.951 . S
C998 C999 1.366 . S
C998 C1000 1.388 . S
C999 C998 1.366 . S
C999 C1003 1.385 . S
C1000 H981 0.951 . S
C1000 C998 1.388 . S
C1000 C1001 1.366 . S
C1001 C1000 1.366 . S
C1001 C1002 1.414 . S
C1001 C1004 1.499 . S
C1002 H982 0.950 . S
C1002 C1001 1.414 . S
C1002 C1003 1.374 . S
C1003 H983 0.950 . S
C1003 C999 1.385 . S
C1003 C1002 1.374 . S
C1004 C1001 1.499 . S
C1004 C1005 1.373 . S
C1004 C1006 1.389 . S
C1005 H984 0.950 . S
C1005 C1004 1.373 . S
C1005 C1021 1.377 . S
C1006 C1004 1.389 . S
C1006 C1007 1.524 . S
C1006 C1020 1.377 . S
C1007 C1006 1.524 . S
C1007 C1008 1.397 . S
C1007 C1012 1.363 . S
C1008 H985 0.950 . S
C1008 C1007 1.397 . S
C1008 C1009 1.334 . S
C1009 H986 0.950 . S
C1009 C1008 1.334 . S
C1009 C1010 1.287 . S
C1010 C1009 1.287 . S
C1010 C1011 1.524 . S
C1010 H1029 0.913 . S
C1011 H987 0.950 . S
C1011 C1010 1.524 . S
C1011 C1012 1.415 . S
C1012 H988 0.950 . S
C1012 C1007 1.363 . S
C1012 C1011 1.415 . S
C1013 H989 0.951 . S
C1013 C1014 1.366 . S
C1013 C1015 1.388 . S
C1014 C1013 1.366 . S
C1014 C1018 1.385 . S
C1015 H990 0.951 . S
C1015 C1013 1.388 . S
C1015 C1016 1.366 . S
C1016 C1015 1.366 . S
C1016 C1017 1.414 . S
C1016 C1019 1.499 . S
C1017 H991 0.950 . S
C1017 C1016 1.414 . S
C1017 C1018 1.374 . S
C1018 H992 0.950 . S
C1018 C1014 1.385 . S
C1018 C1017 1.374 . S
C1019 C1016 1.499 . S
C1019 C1020 1.373 . S
C1019 C1021 1.389 . S
C1020 H993 0.950 . S
C1020 C1006 1.377 . S
C1020 C1019 1.373 . S
C1021 C1005 1.377 . S
C1021 C1019 1.389 . S
C1021 C1022 1.524 . S
C1022 C1021 1.524 . S
C1022 C1023 1.397 . S
C1022 C1027 1.363 . S
C1023 H994 0.950 . S
C1023 C1022 1.397 . S
C1023 C1024 1.334 . S
C1024 H995 0.950 . S
C1024 C1023 1.334 . S
C1024 C1025 1.287 . S
C1025 C1024 1.287 . S
C1025 C1026 1.524 . S
C1025 H1028 0.999 . S
C1026 H996 0.950 . S
C1026 C1025 1.524 . S
C1026 C1027 1.415 . S
C1027 H997 0.950 . S
C1027 C1022 1.363 . S
C1027 C1026 1.415 . S
H1028 C1025 0.999 . S
H1029 C1010 0.913 . S
H1030 C1048 0.951 . S
H1031 C1050 0.951 . S
H1032 C1052 0.950 . S
H1033 C1053 0.950 . S
H1034 C1055 0.950 . S
H1035 C1058 0.950 . S
H1036 C1059 0.950 . S
H1037 C1061 0.950 . S
H1038 C1062 0.950 . S
H1039 C1063 0.951 . S
H1040 C1065 0.951 . S
H1041 C1067 0.950 . S
H1042 C1068 0.950 . S
H1043 C1070 0.950 . S
H1044 C1073 0.950 . S
H1045 C1074 0.950 . S
H1046 C1076 0.950 . S
H1047 C1077 0.950 . S
C1048 H1030 0.951 . S
C1048 C1049 1.366 . S
C1048 C1050 1.388 . S
C1049 C1048 1.366 . S
C1049 C1053 1.385 . S
C1050 H1031 0.951 . S
C1050 C1048 1.388 . S
C1050 C1051 1.366 . S
C1051 C1050 1.366 . S
C1051 C1052 1.414 . S
C1051 C1054 1.499 . S
C1052 H1032 0.950 . S
C1052 C1051 1.414 . S
C1052 C1053 1.374 . S
C1053 H1033 0.950 . S
C1053 C1049 1.385 . S
C1053 C1052 1.374 . S
C1054 C1051 1.499 . S
C1054 C1055 1.373 . S
C1054 C1056 1.389 . S
C1055 H1034 0.950 . S
C1055 C1054 1.373 . S
C1055 C1071 1.377 . S
C1056 C1054 1.389 . S
C1056 C1057 1.524 . S
C1056 C1070 1.377 . S
C1057 C1056 1.524 . S
C1057 C1058 1.397 . S
C1057 C1062 1.363 . S
C1058 H1035 0.950 . S
C1058 C1057 1.397 . S
C1058 C1059 1.334 . S
C1059 H1036 0.950 . S
C1059 C1058 1.334 . S
C1059 C1060 1.287 . S
C1060 C1059 1.287 . S
C1060 C1061 1.524 . S
C1060 H1079 0.913 . S
C1061 H1037 0.950 . S
C1061 C1060 1.524 . S
C1061 C1062 1.415 . S
C1062 H1038 0.950 . S
C1062 C1057 1.363 . S
C1062 C1061 1.415 . S
C1063 H1039 0.951 . S
C1063 C1064 1.366 . S
C1063 C1065 1.388 . S
C1064 C1063 1.366 . S
C1064 C1068 1.385 . S
C1065 H1040 0.951 . S
C1065 C1063 1.388 . S
C1065 C1066 1.366 . S
C1066 C1065 1.366 . S
C1066 C1067 1.414 . S
C1066 C1069 1.499 . S
C1067 H1041 0.950 . S
C1067 C1066 1.414 . S
C1067 C1068 1.374 . S
C1068 H1042 0.950 . S
C1068 C1064 1.385 . S
C1068 C1067 1.374 . S
C1069 C1066 1.499 . S
C1069 C1070 1.373 . S
C1069 C1071 1.389 . S
C1070 H1043 0.950 . S
C1070 C1056 1.377 . S
C1070 C1069 1.373 . S
C1071 C1055 1.377 . S
C1071 C1069 1.389 . S
C1071 C1072 1.524 . S
C1072 C1071 1.524 . S
C1072 C1073 1.397 . S
C1072 C1077 1.363 . S
C1073 H1044 0.950 . S
C1073 C1072 1.397 . S
C1073 C1074 1.334 . S
C1074 H1045 0.950 . S
C1074 C1073 1.334 . S
C1074 C1075 1.287 . S
C1075 C1074 1.287 . S
C1075 C1076 1.524 . S
C1075 H1078 0.999 . S
C1076 H1046 0.950 . S
C1076 C1075 1.524 . S
C1076 C1077 1.415 . S
C1077 H1047 0.950 . S
C1077 C1072 1.363 . S
C1077 C1076 1.415 . S
H1078 C1075 0.999 . S
H1079 C1060 0.913 . S
H1080 C1098 0.951 . S
H1081 C1100 0.951 . S
H1082 C1102 0.950 . S
H1083 C1103 0.950 . S
H1084 C1105 0.950 . S
H1085 C1108 0.950 . S
H1086 C1109 0.950 . S
H1087 C1111 0.950 . S
H1088 C1112 0.950 . S
H1089 C1113 0.951 . S
H1090 C1115 0.951 . S
H1091 C1117 0.950 . S
H1092 C1118 0.950 . S
H1093 C1120 0.950 . S
H1094 C1123 0.950 . S
H1095 C1124 0.950 . S
H1096 C1126 0.950 . S
H1097 C1127 0.950 . S
C1098 H1080 0.951 . S
C1098 C1099 1.366 . S
C1098 C1100 1.388 . S
C1099 C1098 1.366 . S
C1099 C1103 1.385 . S
C1100 H1081 0.951 . S
C1100 C1098 1.388 . S
C1100 C1101 1.366 . S
C1101 C1100 1.366 . S
C1101 C1102 1.414 . S
C1101 C1104 1.499 . S
C1102 H1082 0.950 . S
C1102 C1101 1.414 . S
C1102 C1103 1.374 . S
C1103 H1083 0.950 . S
C1103 C1099 1.385 . S
C1103 C1102 1.374 . S
C1104 C1101 1.499 . S
C1104 C1105 1.373 . S
C1104 C1106 1.389 . S
C1105 H1084 0.950 . S
C1105 C1104 1.373 . S
C1105 C1121 1.377 . S
C1106 C1104 1.389 . S
C1106 C1107 1.524 . S
C1106 C1120 1.377 . S
C1107 C1106 1.524 . S
C1107 C1108 1.397 . S
C1107 C1112 1.363 . S
C1108 H1085 0.950 . S
C1108 C1107 1.397 . S
C1108 C1109 1.334 . S
C1109 H1086 0.950 . S
C1109 C1108 1.334 . S
C1109 C1110 1.287 . S
C1110 C1109 1.287 . S
C1110 C1111 1.524 . S
C1110 H1129 0.913 . S
C1111 H1087 0.950 . S
C1111 C1110 1.524 . S
C1111 C1112 1.415 . S
C1112 H1088 0.950 . S
C1112 C1107 1.363 . S
C1112 C1111 1.415 . S
C1113 H1089 0.951 . S
C1113 C1114 1.366 . S
C1113 C1115 1.388 . S
C1114 C1113 1.366 . S
C1114 C1118 1.385 . S
C1115 H1090 0.951 . S
C1115 C1113 1.388 . S
C1115 C1116 1.366 . S
C1116 C1115 1.366 . S
C1116 C1117 1.414 . S
C1116 C1119 1.499 . S
C1117 H1091 0.950 . S
C1117 C1116 1.414 . S
C1117 C1118 1.374 . S
C1118 H1092 0.950 . S
C1118 C1114 1.385 . S
C1118 C1117 1.374 . S
C1119 C1116 1.499 . S
C1119 C1120 1.373 . S
C1119 C1121 1.389 . S
C1120 H1093 0.950 . S
C1120 C1106 1.377 . S
C1120 C1119 1.373 . S
C1121 C1105 1.377 . S
C1121 C1119 1.389 . S
C1121 C1122 1.524 . S
C1122 C1121 1.524 . S
C1122 C1123 1.397 . S
C1122 C1127 1.363 . S
C1123 H1094 0.950 . S
C1123 C1122 1.397 . S
C1123 C1124 1.334 . S
C1124 H1095 0.950 . S
C1124 C1123 1.334 . S
C1124 C1125 1.287 . S
C1125 C1124 1.287 . S
C1125 C1126 1.524 . S
C1125 H1128 0.999 . S
C1126 H1096 0.950 . S
C1126 C1125 1.524 . S
C1126 C1127 1.415 . S
C1127 H1097 0.950 . S
C1127 C1122 1.363 . S
C1127 C1126 1.415 . S
H1128 C1125 0.999 . S
H1129 C1110 0.913 . S
H1130 C1148 0.951 . S
H1131 C1150 0.951 . S
H1132 C1152 0.950 . S
H1133 C1153 0.950 . S
H1134 C1155 0.950 . S
H1135 C1158 0.950 . S
H1136 C1159 0.950 . S
H1137 C1161 0.950 . S
H1138 C1162 0.950 . S
H1139 C1163 0.951 . S
H1140 C1165 0.951 . S
H1141 C1167 0.950 . S
H1142 C1168 0.950 . S
H1143 C1170 0.950 . S
H1144 C1173 0.950 . S
H1145 C1174 0.950 . S
H1146 C1176 0.950 . S
H1147 C1177 0.950 . S
C1148 H1130 0.951 . S
C1148 C1149 1.366 . S
C1148 C1150 1.388 . S
C1149 C1148 1.366 . S
C1149 C1153 1.385 . S
C1150 H1131 0.951 . S
C1150 C1148 1.388 . S
C1150 C1151 1.366 . S
C1151 C1150 1.366 . S
C1151 C1152 1.414 . S
C1151 C1154 1.499 . S
C1152 H1132 0.950 . S
C1152 C1151 1.414 . S
C1152 C1153 1.374 . S
C1153 H1133 0.950 . S
C1153 C1149 1.385 . S
C1153 C1152 1.374 . S
C1154 C1151 1.499 . S
C1154 C1155 1.373 . S
C1154 C1156 1.389 . S
C1155 H1134 0.950 . S
C1155 C1154 1.373 . S
C1155 C1171 1.377 . S
C1156 C1154 1.389 . S
C1156 C1157 1.524 . S
C1156 C1170 1.377 . S
C1157 C1156 1.524 . S
C1157 C1158 1.397 . S
C1157 C1162 1.363 . S
C1158 H1135 0.950 . S
C1158 C1157 1.397 . S
C1158 C1159 1.334 . S
C1159 H1136 0.950 . S
C1159 C1158 1.334 . S
C1159 C1160 1.287 . S
C1160 C1159 1.287 . S
C1160 C1161 1.524 . S
C1160 H1179 0.913 . S
C1161 H1137 0.950 . S
C1161 C1160 1.524 . S
C1161 C1162 1.415 . S
C1162 H1138 0.950 . S
C1162 C1157 1.363 . S
C1162 C1161 1.415 . S
C1163 H1139 0.951 . S
C1163 C1164 1.366 . S
C1163 C1165 1.388 . S
C1164 C1163 1.366 . S
C1164 C1168 1.385 . S
C1165 H1140 0.951 . S
C1165 C1163 1.388 . S
C1165 C1166 1.366 . S
C1166 C1165 1.366 . S
C1166 C1167 1.414 . S
C1166 C1169 1.499 . S
C1167 H1141 0.950 . S
C1167 C1166 1.414 . S
C1167 C1168 1.374 . S
C1168 H1142 0.950 . S
C1168 C1164 1.385 . S
C1168 C1167 1.374 . S
C1169 C1166 1.499 . S
C1169 C1170 1.373 . S
C1169 C1171 1.389 . S
C1170 H1143 0.950 . S
C1170 C1156 1.377 . S
C1170 C1169 1.373 . S
C1171 C1155 1.377 . S
C1171 C1169 1.389 . S
C1171 C1172 1.524 . S
C1172 C1171 1.524 . S
C1172 C1173 1.397 . S
C1172 C1177 1.363 . S
C1173 H1144 0.950 . S
C1173 C1172 1.397 . S
C1173 C1174 1.334 . S
C1174 H1145 0.950 . S
C1174 C1173 1.334 . S
C1174 C1175 1.287 . S
C1175 C1174 1.287 . S
C1175 C1176 1.524 . S
C1175 H1178 0.999 . S
C1176 H1146 0.950 . S
C1176 C1175 1.524 . S
C1176 C1177 1.415 . S
C1177 H1147 0.950 . S
C1177 C1172 1.363 . S
C1177 C1176 1.415 . S
H1178 C1175 0.999 . S
H1179 C1160 0.913 . S
H1180 C1198 0.951 . S
H1181 C1200 0.951 . S
H1182 C1202 0.950 . S
H1183 C1203 0.950 . S
H1184 C1205 0.950 . S
H1185 C1208 0.950 . S
H1186 C1209 0.950 . S
H1187 C1211 0.950 . S
H1188 C1212 0.950 . S
H1189 C1213 0.951 . S
H1190 C1215 0.951 . S
H1191 C1217 0.950 . S
H1192 C1218 0.950 . S
H1193 C1220 0.950 . S
H1194 C1223 0.950 . S
H1195 C1224 0.950 . S
H1196 C1226 0.950 . S
H1197 C1227 0.950 . S
C1198 H1180 0.951 . S
C1198 C1199 1.366 . S
C1198 C1200 1.388 . S
C1199 C1198 1.366 . S
C1199 C1203 1.385 . S
C1200 H1181 0.951 . S
C1200 C1198 1.388 . S
C1200 C1201 1.366 . S
C1201 C1200 1.366 . S
C1201 C1202 1.414 . S
C1201 C1204 1.499 . S
C1202 H1182 0.950 . S
C1202 C1201 1.414 . S
C1202 C1203 1.374 . S
C1203 H1183 0.950 . S
C1203 C1199 1.385 . S
C1203 C1202 1.374 . S
C1204 C1201 1.499 . S
C1204 C1205 1.373 . S
C1204 C1206 1.389 . S
C1205 H1184 0.950 . S
C1205 C1204 1.373 . S
C1205 C1221 1.377 . S
C1206 C1204 1.389 . S
C1206 C1207 1.524 . S
C1206 C1220 1.377 . S
C1207 C1206 1.524 . S
C1207 C1208 1.397 . S
C1207 C1212 1.363 . S
C1208 H1185 0.950 . S
C1208 C1207 1.397 . S
C1208 C1209 1.334 . S
C1209 H1186 0.950 . S
C1209 C1208 1.334 . S
C1209 C1210 1.287 . S
C1210 C1209 1.287 . S
C1210 C1211 1.524 . S
C1210 H1229 0.913 . S
C1211 H1187 0.950 . S
C1211 C1210 1.524 . S
C1211 C1212 1.415 . S
C1212 H1188 0.950 . S
C1212 C1207 1.363 . S
C1212 C1211 1.415 . S
C1213 H1189 0.951 . S
C1213 C1214 1.366 . S
C1213 C1215 1.388 . S
C1214 C1213 1.366 . S
C1214 C1218 1.385 . S
C1215 H1190 0.951 . S
C1215 C1213 1.388 . S
C1215 C1216 1.366 . S
C1216 C1215 1.366 . S
C1216 C1217 1.414 . S
C1216 C1219 1.499 . S
C1217 H1191 0.950 . S
C1217 C1216 1.414 . S
C1217 C1218 1.374 . S
C1218 H1192 0.950 . S
C1218 C1214 1.385 . S
C1218 C1217 1.374 . S
C1219 C1216 1.499 . S
C1219 C1220 1.373 . S
C1219 C1221 1.389 . S
C1220 H1193 0.950 . S
C1220 C1206 1.377 . S
C1220 C1219 1.373 . S
C1221 C1205 1.377 . S
C1221 C1219 1.389 . S
C1221 C1222 1.524 . S
C1222 C1221 1.524 . S
C1222 C1223 1.397 . S
C1222 C1227 1.363 . S
C1223 H1194 0.950 . S
C1223 C1222 1.397 . S
C1223 C1224 1.334 . S
C1224 H1195 0.950 . S
C1224 C1223 1.334 . S
C1224 C1225 1.287 . S
C1225 C1224 1.287 . S
C1225 C1226 1.524 . S
C1225 H1228 0.999 . S
C1226 H1196 0.950 . S
C1226 C1225 1.524 . S
C1226 C1227 1.415 . S
C1227 H1197 0.950 . S
C1227 C1222 1.363 . S
C1227 C1226 1.415 . S
H1228 C1225 0.999 . S
H1229 C1210 0.913 . S
H1230 C1248 0.951 . S
H1231 C1250 0.951 . S
H1232 C1252 0.950 . S
H1233 C1253 0.950 . S
H1234 C1255 0.950 . S
H1235 C1258 0.950 . S
H1236 C1259 0.950 . S
H1237 C1261 0.950 . S
H1238 C1262 0.950 . S
H1239 C1263 0.951 . S
H1240 C1265 0.951 . S
H1241 C1267 0.950 . S
H1242 C1268 0.950 . S
H1243 C1270 0.950 . S
H1244 C1273 0.950 . S
H1245 C1274 0.950 . S
H1246 C1276 0.950 . S
H1247 C1277 0.950 . S
C1248 H1230 0.951 . S
C1248 C1249 1.366 . S
C1248 C1250 1.388 . S
C1249 C1248 1.366 . S
C1249 C1253 1.385 . S
C1250 H1231 0.951 . S
C1250 C1248 1.388 . S
C1250 C1251 1.366 . S
C1251 C1250 1.366 . S
C1251 C1252 1.414 . S
C1251 C1254 1.499 . S
C1252 H1232 0.950 . S
C1252 C1251 1.414 . S
C1252 C1253 1.374 . S
C1253 H1233 0.950 . S
C1253 C1249 1.385 . S
C1253 C1252 1.374 . S
C1254 C1251 1.499 . S
C1254 C1255 1.373 . S
C1254 C1256 1.389 . S
C1255 H1234 0.950 . S
C1255 C1254 1.373 . S
C1255 C1271 1.377 . S
C1256 C1254 1.389 . S
C1256 C1257 1.524 . S
C1256 C1270 1.377 . S
C1257 C1256 1.524 . S
C1257 C1258 1.397 . S
C1257 C1262 1.363 . S
C1258 H1235 0.950 . S
C1258 C1257 1.397 . S
C1258 C1259 1.334 . S
C1259 H1236 0.950 . S
C1259 C1258 1.334 . S
C1259 C1260 1.287 . S
C1260 C1259 1.287 . S
C1260 C1261 1.524 . S
C1260 H1279 0.913 . S
C1261 H1237 0.950 . S
C1261 C1260 1.524 . S
C1261 C1262 1.415 . S
C1262 H1238 0.950 . S
C1262 C1257 1.363 . S
C1262 C1261 1.415 . S
C1263 H1239 0.951 . S
C1263 C1264 1.366 . S
C1263 C1265 1.388 . S
C1264 C1263 1.366 . S
C1264 C1268 1.385 . S
C1265 H1240 0.951 . S
C1265 C1263 1.388 . S
C1265 C1266 1.366 . S
C1266 C1265 1.366 . S
C1266 C1267 1.414 . S
C1266 C1269 1.499 . S
C1267 H1241 0.950 . S
C1267 C1266 1.414 . S
C1267 C1268 1.374 . S
C1268 H1242 0.950 . S
C1268 C1264 1.385 . S
C1268 C1267 1.374 . S
C1269 C1266 1.499 . S
C1269 C1270 1.373 . S
C1269 C1271 1.389 . S
C1270 H1243 0.950 . S
C1270 C1256 1.377 . S
C1270 C1269 1.373 . S
C1271 C1255 1.377 . S
C1271 C1269 1.389 . S
C1271 C1272 1.524 . S
C1272 C1271 1.524 . S
C1272 C1273 1.397 . S
C1272 C1277 1.363 . S
C1273 H1244 0.950 . S
C1273 C1272 1.397 . S
C1273 C1274 1.334 . S
C1274 H1245 0.950 . S
C1274 C1273 1.334 . S
C1274 C1275 1.287 . S
C1275 C1274 1.287 . S
C1275 C1276 1.524 . S
C1275 H1278 0.999 . S
C1276 H1246 0.950 . S
C1276 C1275 1.524 . S
C1276 C1277 1.415 . S
C1277 H1247 0.950 . S
C1277 C1272 1.363 . S
C1277 C1276 1.415 . S
H1278 C1275 0.999 . S
H1279 C1260 0.913 . S
H1280 C1298 0.951 . S
H1281 C1300 0.951 . S
H1282 C1302 0.950 . S
H1283 C1303 0.950 . S
H1284 C1305 0.950 . S
H1285 C1308 0.950 . S
H1286 C1309 0.950 . S
H1287 C1311 0.950 . S
H1288 C1312 0.950 . S
H1289 C1313 0.951 . S
H1290 C1315 0.951 . S
H1291 C1317 0.950 . S
H1292 C1318 0.950 . S
H1293 C1320 0.950 . S
H1294 C1323 0.950 . S
H1295 C1324 0.950 . S
H1296 C1326 0.950 . S
H1297 C1327 0.950 . S
C1298 H1280 0.951 . S
C1298 C1299 1.366 . S
C1298 C1300 1.388 . S
C1299 C1298 1.366 . S
C1299 C1303 1.385 . S
C1300 H1281 0.951 . S
C1300 C1298 1.388 . S
C1300 C1301 1.366 . S
C1301 C1300 1.366 . S
C1301 C1302 1.414 . S
C1301 C1304 1.499 . S
C1302 H1282 0.950 . S
C1302 C1301 1.414 . S
C1302 C1303 1.374 . S
C1303 H1283 0.950 . S
C1303 C1299 1.385 . S
C1303 C1302 1.374 . S
C1304 C1301 1.499 . S
C1304 C1305 1.373 . S
C1304 C1306 1.389 . S
C1305 H1284 0.950 . S
C1305 C1304 1.373 . S
C1305 C1321 1.377 . S
C1306 C1304 1.389 . S
C1306 C1307 1.524 . S
C1306 C1320 1.377 . S
C1307 C1306 1.524 . S
C1307 C1308 1.397 . S
C1307 C1312 1.363 . S
C1308 H1285 0.950 . S
C1308 C1307 1.397 . S
C1308 C1309 1.334 . S
C1309 H1286 0.950 . S
C1309 C1308 1.334 . S
C1309 C1310 1.287 . S
C1310 C1309 1.287 . S
C1310 C1311 1.524 . S
C1310 H1329 0.913 . S
C1311 H1287 0.950 . S
C1311 C1310 1.524 . S
C1311 C1312 1.415 . S
C1312 H1288 0.950 . S
C1312 C1307 1.363 . S
C1312 C1311 1.415 . S
C1313 H1289 0.951 . S
C1313 C1314 1.366 . S
C1313 C1315 1.388 . S
C1314 C1313 1.366 . S
C1314 C1318 1.385 . S
C1315 H1290 0.951 . S
C1315 C1313 1.388 . S
C1315 C1316 1.366 . S
C1316 C1315 1.366 . S
C1316 C1317 1.414 . S
C1316 C1319 1.499 . S
C1317 H1291 0.950 . S
C1317 C1316 1.414 . S
C1317 C1318 1.374 . S
C1318 H1292 0.950 . S
C1318 C1314 1.385 . S
C1318 C1317 1.374 . S
C1319 C1316 1.499 . S
C1319 C1320 1.373 . S
C1319 C1321 1.389 . S
C1320 H1293 0.950 . S
C1320 C1306 1.377 . S
C1320 C1319 1.373 . S
C1321 C1305 1.377 . S
C1321 C1319 1.389 . S
C1321 C1322 1.524 . S
C1322 C1321 1.524 . S
C1322 C1323 1.397 . S
C1322 C1327 1.363 . S
C1323 H1294 0.950 . S
C1323 C1322 1.397 . S
C1323 C1324 1.334 . S
C1324 H1295 0.950 . S
C1324 C1323 1.334 . S
C1324 C1325 1.287 . S
C1325 C1324 1.287 . S
C1325 C1326 1.524 . S
C1325 H1328 0.999 . S
C1326 H1296 0.950 . S
C1326 C1325 1.524 . S
C1326 C1327 1.415 . S
C1327 H1297 0.950 . S
C1327 C1322 1.363 . S
C1327 C1326 1.415 . S
H1328 C1325 0.999 . S
H1329 C1310 0.913 . S
H1330 C1348 0.951 . S
H1331 C1350 0.951 . S
H1332 C1352 0.950 . S
H1333 C1353 0.950 . S
H1334 C1355 0.950 . S
H1335 C1358 0.950 . S
H1336 C1359 0.950 . S
H1337 C1361 0.950 . S
H1338 C1362 0.950 . S
H1339 C1363 0.951 . S
H1340 C1365 0.951 . S
H1341 C1367 0.950 . S
H1342 C1368 0.950 . S
H1343 C1370 0.950 . S
H1344 C1373 0.950 . S
H1345 C1374 0.950 . S
H1346 C1376 0.950 . S
H1347 C1377 0.950 . S
C1348 H1330 0.951 . S
C1348 C1349 1.366 . S
C1348 C1350 1.388 . S
C1349 C1348 1.366 . S
C1349 C1353 1.385 . S
C1350 H1331 0.951 . S
C1350 C1348 1.388 . S
C1350 C1351 1.366 . S
C1351 C1350 1.366 . S
C1351 C1352 1.414 . S
C1351 C1354 1.499 . S
C1352 H1332 0.950 . S
C1352 C1351 1.414 . S
C1352 C1353 1.374 . S
C1353 H1333 0.950 . S
C1353 C1349 1.385 . S
C1353 C1352 1.374 . S
C1354 C1351 1.499 . S
C1354 C1355 1.373 . S
C1354 C1356 1.389 . S
C1355 H1334 0.950 . S
C1355 C1354 1.373 . S
C1355 C1371 1.377 . S
C1356 C1354 1.389 . S
C1356 C1357 1.524 . S
C1356 C1370 1.377 . S
C1357 C1356 1.524 . S
C1357 C1358 1.397 . S
C1357 C1362 1.363 . S
C1358 H1335 0.950 . S
C1358 C1357 1.397 . S
C1358 C1359 1.334 . S
C1359 H1336 0.950 . S
C1359 C1358 1.334 . S
C1359 C1360 1.287 . S
C1360 C1359 1.287 . S
C1360 C1361 1.524 . S
C1360 H1379 0.913 . S
C1361 H1337 0.950 . S
C1361 C1360 1.524 . S
C1361 C1362 1.415 . S
C1362 H1338 0.950 . S
C1362 C1357 1.363 . S
C1362 C1361 1.415 . S
C1363 H1339 0.951 . S
C1363 C1364 1.366 . S
C1363 C1365 1.388 . S
C1364 C1363 1.366 . S
C1364 C1368 1.385 . S
C1365 H1340 0.951 . S
C1365 C1363 1.388 . S
C1365 C1366 1.366 . S
C1366 C1365 1.366 . S
C1366 C1367 1.414 . S
C1366 C1369 1.499 . S
C1367 H1341 0.950 . S
C1367 C1366 1.414 . S
C1367 C1368 1.374 . S
C1368 H1342 0.950 . S
C1368 C1364 1.385 . S
C1368 C1367 1.374 . S
C1369 C1366 1.499 . S
C1369 C1370 1.373 . S
C1369 C1371 1.389 . S
C1370 H1343 0.950 . S
C1370 C1356 1.377 . S
C1370 C1369 1.373 . S
C1371 C1355 1.377 . S
C1371 C1369 1.389 . S
C1371 C1372 1.524 . S
C1372 C1371 1.524 . S
C1372 C1373 1.397 . S
C1372 C1377 1.363 . S
C1373 H1344 0.950 . S
C1373 C1372 1.397 . S
C1373 C1374 1.334 . S
C1374 H1345 0.950 . S
C1374 C1373 1.334 . S
C1374 C1375 1.287 . S
C1375 C1374 1.287 . S
C1375 C1376 1.524 . S
C1375 H1378 0.999 . S
C1376 H1346 0.950 . S
C1376 C1375 1.524 . S
C1376 C1377 1.415 . S
C1377 H1347 0.950 . S
C1377 C1372 1.363 . S
C1377 C1376 1.415 . S
H1378 C1375 0.999 . S
H1379 C1360 0.913 . S
C199 C81 1.394 . S
C214 C112 1.327 . S
C264 C120 1.327 . S
C249 C93 1.394 . S
C314 C124 1.317 . S
C299 C57 1.392 . S
C349 C69 1.392 . S
C364 C100 1.315 . S
C414 C141 1.327 . S
C399 C33 1.396 . S
C464 C175 1.325 . S
C449 C45 1.397 . S
C499 C9 1.394 . S
C514 C163 1.316 . S
C549 C21 1.395 . S
C564 C145 1.315 . S
C614 C99 1.340 . S
C599 C18 1.474 . S
C664 C133 1.342 . S
C649 C6 1.474 . S
C714 C137 1.339 . S
C699 C42 1.474 . S
C764 C115 1.339 . S
C749 C30 1.474 . S
C814 C154 1.342 . S
C799 C66 1.468 . S
C849 C54 1.469 . S
C864 C162 1.341 . S
C914 C178 1.339 . S
C899 C90 1.469 . S
C949 C78 1.469 . S
C964 C158 1.339 . S
C1014 C103 1.370 . S
C999 C4 1.527 . S
C1064 C121 1.368 . S
C1049 C16 1.526 . S
C1099 C28 1.520 . S
C1114 C136 1.368 . S
C1164 C116 1.370 . S
C1149 C40 1.521 . S
C1214 C142 1.369 . S
C1199 C52 1.529 . S
C1249 C64 1.530 . S
C1264 C166 1.368 . S
C1299 C76 1.523 . S
C1314 C179 1.370 . S
C1349 C88 1.523 . S
C1364 C157 1.369 . S
