# Generated by pormake.
# Topology anh, (6,3)-cn, num edge types: 1
# Building blocks:
#     Node 0, Type 0, BuildingBlock: CUWYAW_clean_sbu_0, # of connection points: 6
#     Node 1, Type 0, BuildingBlock: CUWYAW_clean_sbu_0, # of connection points: 6
#     Node 2, Type 0, BuildingBlock: CUWYAW_clean_sbu_0, # of connection points: 6
#     Node 3, Type 1, BuildingBlock: MIDCAF_clean_linker_0, # of connection points: 3
#     Node 4, Type 1, BuildingBlock: MIDCAF_clean_linker_0, # of connection points: 3
#     Node 5, Type 1, BuildingBlock: MIDCAF_clean_linker_0, # of connection points: 3
#     Node 6, Type 1, BuildingBlock: MIDCAF_clean_linker_0, # of connection points: 3
#     Node 7, Type 1, BuildingBlock: MIDCAF_clean_linker_0, # of connection points: 3
#     Node 8, Type 1, BuildingBlock: MIDCAF_clean_linker_0, # of connection points: 3
#     Edge 9, Type (0, 1), BuildingBlock: EZIPEK_clean_linker_0, # of connection points: 2
#     Edge 10, Type (0, 1), BuildingBlock: EZIPEK_clean_linker_0, # of connection points: 2
#     Edge 11, Type (0, 1), BuildingBlock: EZIPEK_clean_linker_0, # of connection points: 2
#     Edge 12, Type (0, 1), BuildingBlock: EZIPEK_clean_linker_0, # of connection points: 2
#     Edge 13, Type (0, 1), BuildingBlock: EZIPEK_clean_linker_0, # of connection points: 2
#     Edge 14, Type (0, 1), BuildingBlock: EZIPEK_clean_linker_0, # of connection points: 2
#     Edge 15, Type (0, 1), BuildingBlock: EZIPEK_clean_linker_0, # of connection points: 2
#     Edge 16, Type (0, 1), BuildingBlock: EZIPEK_clean_linker_0, # of connection points: 2
#     Edge 17, Type (0, 1), BuildingBlock: EZIPEK_clean_linker_0, # of connection points: 2
#     Edge 18, Type (0, 1), BuildingBlock: EZIPEK_clean_linker_0, # of connection points: 2
#     Edge 19, Type (0, 1), BuildingBlock: EZIPEK_clean_linker_0, # of connection points: 2
#     Edge 20, Type (0, 1), BuildingBlock: EZIPEK_clean_linker_0, # of connection points: 2
#     Edge 21, Type (0, 1), BuildingBlock: EZIPEK_clean_linker_0, # of connection points: 2
#     Edge 22, Type (0, 1), BuildingBlock: EZIPEK_clean_linker_0, # of connection points: 2
#     Edge 23, Type (0, 1), BuildingBlock: EZIPEK_clean_linker_0, # of connection points: 2
#     Edge 24, Type (0, 1), BuildingBlock: EZIPEK_clean_linker_0, # of connection points: 2
#     Edge 25, Type (0, 1), BuildingBlock: EZIPEK_clean_linker_0, # of connection points: 2
#     Edge 26, Type (0, 1), BuildingBlock: EZIPEK_clean_linker_0, # of connection points: 2
# Relax obj value: 0.309
# Max RMSD: 0.194
# Mean RMSD: 0.165
data_MOF--net-anh--node1-CUWYAW_clean_sbu_0--node2-MIDCAF_clean_linker_0--edge1-EZIPEK_clean_linker_0
_symmetry_space_group_name_H-M    P1
_symmetry_Int_Tables_number       1
_symmetry_cell_setting            triclinic
loop_
_symmetry_equiv_pos_as_xyz
'x, y, z'
_cell_length_a     28.999661
_cell_length_b     29.252752
_cell_length_c     51.833339
_cell_angle_alpha  89.758979
_cell_angle_beta   90.027084
_cell_angle_gamma 119.53048
loop_
_atom_site_label
_atom_site_type_symbol
_atom_site_fract_x
_atom_site_fract_y
_atom_site_fract_z
_atom_type_partial_charge
C0 C 1.02552 0.39461 0.17901 0.0
Eu1 Eu 1.09027 0.49506 0.17984 0.0
C2 C 0.97143 0.36801 0.16872 0.0
C3 C 0.93038 0.33223 0.18467 0.0
C4 C 0.87901 0.3234 0.18107 0.0
C5 C 0.86844 0.35006 0.16144 0.0
C6 C 0.9077 0.38 0.14333 0.0
C7 C 0.95925 0.38919 0.147 0.0
C8 C 0.12747 0.54442 0.22648 0.0
C9 C 1.01335 0.55002 0.17249 0.0
C10 C 0.18717 0.70512 0.17429 0.0
Eu11 Eu 0.1421 0.60331 0.17349 0.0
C12 C 0.23461 0.74823 0.16274 0.0
C13 C 0.25951 0.74004 0.14137 0.0
C14 C 0.30792 0.78076 0.13232 0.0
C15 C 0.33165 0.82938 0.14487 0.0
C16 C 0.30576 0.83763 0.16573 0.0
C17 C 0.25753 0.79731 0.17459 0.0
C18 C 0.12662 0.55192 0.12762 0.0
C19 C 0.21859 0.55019 0.17127 0.0
O20 O 1.06383 0.41837 0.16224 0.0
O21 O 1.03125 0.42391 0.19902 0.0
O22 O 0.13737 0.5094 0.21686 0.0
O23 O 0.10372 0.55647 0.20952 0.0
O24 O 1.01575 0.50562 0.17324 0.0
O25 O 1.0585 0.59498 0.17419 0.0
O26 O 0.19597 0.67774 0.1916 0.0
O27 O 0.14908 0.67592 0.1584 0.0
O28 O 0.17015 0.59365 0.13383 0.0
O29 O 1.09363 0.5402 0.14549 0.0
O30 O 0.21648 0.59286 0.17821 0.0
O31 O 0.17265 0.50661 0.16736 0.0
H32 H 0.93904 0.31586 0.20157 0.0
H33 H 0.84875 0.29995 0.19513 0.0
H34 H 0.89959 0.40009 0.12792 0.0
H35 H 0.99032 0.4172 0.13445 0.0
H36 H 0.24223 0.70198 0.13216 0.0
H37 H 0.32749 0.77399 0.11619 0.0
H38 H 0.32379 0.87504 0.17564 0.0
H39 H 0.23889 0.80399 0.19117 0.0
C40 C 0.54534 0.17417 0.4996 0.0
Eu41 Eu 0.5811 0.11092 0.51084 0.0
C42 C 0.57414 0.23185 0.50092 0.0
C43 C 0.60214 0.25673 0.52342 0.0
C44 C 0.64072 0.30942 0.52281 0.0
C45 C 0.65219 0.33807 0.49975 0.0
C46 C 0.62163 0.3148 0.4777 0.0
C47 C 0.58282 0.26168 0.47826 0.0
C48 C 0.59954 0.09001 0.55995 0.0
C49 C 0.71524 0.18778 0.50881 0.0
C50 C 0.68408 1.00174 0.52482 0.0
Eu51 Eu 0.64329 1.05969 0.51153 0.0
C52 C 0.67809 0.95064 0.51842 0.0
C53 C 0.65505 0.92566 0.495 0.0
C54 C 0.65785 0.88126 0.48741 0.0
C55 C 0.68378 0.86211 0.50324 0.0
C56 C 0.70369 0.88532 0.52729 0.0
C57 C 0.7009 0.92938 0.53483 0.0
C58 C 0.62562 0.08151 0.46319 0.0
C59 C 0.51027 0.9819 0.50586 0.0
O60 O 0.56371 0.155 0.48227 0.0
O61 O 0.53525 0.14876 0.52157 0.0
O62 O 0.55442 0.08358 0.5518 0.0
O63 O 0.6334 0.10765 0.54182 0.0
O64 O 0.66761 0.18431 0.50631 0.0
O65 O 0.71617 0.14356 0.51357 0.0
O66 O 0.64527 1.00193 0.53761 0.0
O67 O 0.70307 1.03681 0.50637 0.0
O68 O 0.66875 0.08187 0.46996 0.0
O69 O 0.59205 0.06408 0.48115 0.0
O70 O 0.55752 0.98499 0.50951 0.0
O71 O 0.50925 1.02697 0.50443 0.0
H72 H 0.59688 0.23486 0.54113 0.0
H73 H 0.66359 0.32724 0.54007 0.0
H74 H 0.62983 0.33685 0.45984 0.0
H75 H 0.56208 0.24309 0.46063 0.0
H76 H 0.63715 0.94185 0.48219 0.0
H77 H 0.6422 0.86349 0.46885 0.0
H78 H 0.72367 0.87068 0.53972 0.0
H79 H 0.71875 0.94829 0.55292 0.0
C80 C 0.82359 0.6799 0.83949 0.0
Eu81 Eu 0.72175 0.62741 0.84534 0.0
C82 C 0.85649 0.65992 0.82766 0.0
C83 C 0.88241 0.64136 0.84389 0.0
C84 C 0.89556 0.60456 0.83484 0.0
C85 C 0.8842 0.58673 0.80929 0.0
C86 C 0.86595 0.61113 0.79198 0.0
C87 C 0.85165 0.64731 0.80118 0.0
C88 C 0.66701 0.59387 0.89045 0.0
C89 C 0.66658 0.49971 0.83843 0.0
C90 C 0.50981 0.52304 0.83608 0.0
Eu91 Eu 0.61243 0.57728 0.83586 0.0
C92 C 0.46885 0.53608 0.82924 0.0
C93 C 0.47955 0.57708 0.81175 0.0
C94 C 0.44096 0.59124 0.80659 0.0
C95 C 0.39199 0.56502 0.81926 0.0
C96 C 0.38132 0.52377 0.83647 0.0
C97 C 0.41954 0.50933 0.84141 0.0
C98 C 0.67028 0.60937 0.79206 0.0
C99 C 0.66637 0.70519 0.83763 0.0
O100 O 0.79094 0.68524 0.824 0.0
O101 O 0.80088 0.65732 0.86131 0.0
O102 O 0.70917 0.59123 0.88494 0.0
O103 O 0.65608 0.6159 0.87209 0.0
O104 O 0.71217 0.54478 0.83693 0.0
O105 O 0.62254 0.50291 0.84127 0.0
O106 O 0.53759 0.54672 0.85655 0.0
O107 O 0.53888 0.52253 0.817 0.0
O108 O 0.62928 0.61497 0.79614 0.0
O109 O 0.67799 0.58629 0.81071 0.0
O110 O 0.62145 0.66044 0.83406 0.0
O111 O 0.70949 0.70143 0.8431 0.0
H112 H 0.88745 0.65099 0.86424 0.0
H113 H 0.91084 0.58694 0.84837 0.0
H114 H 0.85847 0.59891 0.772 0.0
H115 H 0.8327 0.66172 0.788 0.0
H116 H 0.51786 0.5985 0.8024 0.0
H117 H 0.44951 0.62304 0.79324 0.0
H118 H 0.3435 0.50322 0.84637 0.0
H119 H 0.41097 0.47795 0.85506 0.0
C120 C 0.45451 0.99309 0.20222 0.0
C121 C 0.48084 1.00735 0.1783 0.0
C122 C 0.52316 1.05819 0.1746 0.0
C123 C 0.53723 0.09519 0.19421 0.0
H124 H 0.55142 0.26251 0.21004 0.0
H125 H 0.62114 0.32098 0.17997 0.0
H126 H 0.73949 0.33169 0.2338 0.0
H127 H 0.67077 0.27665 0.26429 0.0
H128 H 0.63831 0.19864 0.31061 0.0
H129 H 0.65327 0.17698 0.35424 0.0
H130 H 0.49405 1.0455 0.35638 0.0
H131 H 0.47978 0.06555 0.31186 0.0
H132 H 0.44833 1.01807 0.24029 0.0
H133 H 0.42195 0.95364 0.20538 0.0
H134 H 0.54433 0.06944 0.1564 0.0
H135 H 0.56971 0.13456 0.1908 0.0
N136 N 0.54739 0.1721 0.23143 0.0
N137 N 0.5732 0.19828 0.27397 0.0
N138 N 0.5266 0.10839 0.2636 0.0
C139 C 0.57055 0.21092 0.24899 0.0
C140 C 0.55003 0.14705 0.2815 0.0
C141 C 0.52572 0.12106 0.23841 0.0
C142 C 0.60598 0.26397 0.23906 0.0
C143 C 0.59243 0.28034 0.21608 0.0
C144 C 0.63211 0.31318 0.19878 0.0
C145 C 0.68494 0.32773 0.20414 0.0
C146 C 0.69861 0.31928 0.22901 0.0
C147 C 0.65921 0.28817 0.2466 0.0
C148 C 0.55771 0.13401 0.30806 0.0
C149 C 0.60649 0.16508 0.32036 0.0
C150 C 0.61519 0.15257 0.34519 0.0
C151 C 0.57478 0.10967 0.35853 0.0
C152 C 0.5258 0.07858 0.34633 0.0
C153 C 0.51764 0.09015 0.32105 0.0
C154 C 0.51012 0.08135 0.21802 0.0
C155 C 0.46939 1.02972 0.22207 0.0
C156 C 0.82934 0.49873 0.56305 0.0
C157 C 0.83537 0.50948 0.53642 0.0
C158 C 0.87506 0.55868 0.52779 0.0
C159 C 0.90185 0.59901 0.54552 0.0
H160 H 0.84074 0.67839 0.52558 0.0
H161 H 0.79341 0.70573 0.49591 0.0
H162 H 0.77527 0.79631 0.55641 0.0
H163 H 0.82161 0.76845 0.58658 0.0
H164 H 0.79961 0.71147 0.64116 0.0
H165 H 0.7584 0.69605 0.68344 0.0
H166 H 0.80985 0.58415 0.70111 0.0
H167 H 0.85088 0.59842 0.6582 0.0
H168 H 0.84253 0.53203 0.60075 0.0
H169 H 0.7993 0.46055 0.57002 0.0
H170 H 0.88059 0.56779 0.50736 0.0
H171 H 0.92748 0.63826 0.53808 0.0
N172 N 0.87475 0.66719 0.56874 0.0
N173 N 0.84189 0.69452 0.60273 0.0
N174 N 0.86736 0.63064 0.60984 0.0
C175 C 0.85464 0.6971 0.57743 0.0
C176 C 0.84888 0.66215 0.61923 0.0
C177 C 0.88138 0.63389 0.5845 0.0
C178 C 0.83503 0.7214 0.55854 0.0
C179 C 0.82773 0.70504 0.53255 0.0
C180 C 0.80041 0.72019 0.51553 0.0
C181 C 0.781 0.75273 0.52411 0.0
C182 C 0.79015 0.77102 0.5496 0.0
C183 C 0.81679 0.75534 0.56675 0.0
C184 C 0.82851 0.65596 0.64607 0.0
C185 C 0.80269 0.68369 0.65391 0.0
C186 C 0.7789 0.67494 0.67813 0.0
C187 C 0.78074 0.63873 0.69524 0.0
C188 C 0.80782 0.61205 0.68801 0.0
C189 C 0.83134 0.6204 0.66354 0.0
C190 C 0.88593 0.59129 0.57162 0.0
C191 C 0.85462 0.53966 0.58071 0.0
C192 C 0.88517 0.44243 0.87056 0.0
C193 C 0.88939 0.42287 0.84648 0.0
C194 C 0.90505 0.38468 0.84543 0.0
C195 C 0.92611 0.3742 0.86748 0.0
H196 H 1.0803 0.51755 0.85407 0.0
H197 H 0.15659 0.56021 0.82482 0.0
H198 H 0.25069 0.52926 0.87919 0.0
H199 H 0.17513 0.48817 0.90884 0.0
H200 H 0.12497 0.47859 0.96903 0.0
H201 H 0.14104 0.50066 0.01459 0.0
H202 H 0.9805 0.46975 0.02378 0.0
H203 H 0.9636 0.44739 0.97771 0.0
H204 H 0.91014 0.454 0.90995 0.0
H205 H 0.87231 0.47143 0.8717 0.0
H206 H 0.90797 0.36879 0.82705 0.0
H207 H 0.94572 0.35104 0.8654 0.0
N208 N 1.02688 0.44438 0.88945 0.0
N209 N 1.07982 0.47482 0.92613 0.0
N210 N 0.98683 0.42789 0.93032 0.0
C211 C 1.07533 0.47098 0.90016 0.0
C212 C 1.03594 0.4533 0.94141 0.0
C213 C 0.9826 0.42202 0.90419 0.0
C214 C 0.12189 0.49885 0.88342 0.0
C215 C 0.11739 0.52005 0.85974 0.0
C216 C 0.16077 0.54464 0.84313 0.0
C217 C 0.20859 0.54685 0.84975 0.0
C218 C 0.21368 0.52737 0.87377 0.0
C219 C 0.17071 0.50392 0.89063 0.0
C220 C 1.04299 0.46149 0.96965 0.0
C221 C 1.09278 0.47619 0.98063 0.0
C222 C 0.10218 0.48885 0.00668 0.0
C223 C 1.06215 0.48726 0.02233 0.0
C224 C 1.01188 0.47138 0.01181 0.0
C225 C 1.00226 0.45836 0.9856 0.0
C226 C 0.93225 0.40256 0.89034 0.0
C227 C 0.90615 0.43186 0.89258 0.0
C228 C 0.30207 0.74589 0.46408 0.0
C229 C 0.30708 0.77143 0.4878 0.0
C230 C 0.2627 0.74439 0.5048 0.0
C231 C 0.21591 0.69545 0.49801 0.0
H232 H 1.04791 0.48793 0.51398 0.0
H233 H 0.96608 0.40633 0.52693 0.0
H234 H 0.89989 0.39811 0.45183 0.0
H235 H 0.97901 0.47803 0.43915 0.0
H236 H 1.03996 0.50938 0.39077 0.0
H237 H 1.04241 0.50428 0.34371 0.0
H238 H 0.2036 0.63139 0.34304 0.0
H239 H 0.20147 0.63738 0.39019 0.0
H240 H 0.25644 0.6818 0.43863 0.0
H241 H 0.33414 0.76373 0.45021 0.0
H242 H 0.2637 0.76163 0.52337 0.0
H243 H 0.18327 0.67794 0.51156 0.0
N244 N 0.11665 0.5815 0.47668 0.0
N245 N 1.0777 0.53915 0.43727 0.0
N246 N 0.1594 0.61651 0.43663 0.0
C247 C 1.07444 0.53953 0.46353 0.0
C248 C 0.11919 0.57659 0.42364 0.0
C249 C 0.16015 0.62098 0.46286 0.0
C250 C 1.02245 0.4922 0.47519 0.0
C251 C 1.01576 0.46969 0.50027 0.0
C252 C 0.96809 0.42192 0.50774 0.0
C253 C 0.92408 0.39399 0.49069 0.0
C254 C 0.93116 0.417 0.46596 0.0
C255 C 0.97789 0.46404 0.45863 0.0
C256 C 0.12054 0.57379 0.39463 0.0
C257 C 1.07605 0.53647 0.38075 0.0
C258 C 1.07731 0.53351 0.35369 0.0
C259 C 0.12316 0.56744 0.3396 0.0
C260 C 0.16764 0.60483 0.35332 0.0
C261 C 0.1663 0.60813 0.3804 0.0
C262 C 0.21084 0.67061 0.47379 0.0
C263 C 0.25616 0.69768 0.45742 0.0
C264 C 0.67634 0.28292 0.79698 0.0
C265 C 0.66325 0.29103 0.82212 0.0
C266 C 0.65057 0.24865 0.83973 0.0
C267 C 0.65045 0.20094 0.83228 0.0
H268 H 0.63465 1.00568 0.84498 0.0
H269 H 0.6362 0.92425 0.8574 0.0
H270 H 0.69283 0.91718 0.78176 0.0
H271 H 0.69226 0.99703 0.76958 0.0
H272 H 0.6518 1.02467 0.72158 0.0
H273 H 0.64266 1.02222 0.67448 0.0
H274 H 0.62386 0.15927 0.67679 0.0
H275 H 0.6334 0.1625 0.72378 0.0
H276 H 0.6868 0.23397 0.76982 0.0
H277 H 0.68612 0.31309 0.78247 0.0
H278 H 0.6397 0.25194 0.85933 0.0
H279 H 0.63911 0.16985 0.8464 0.0
N280 N 0.66083 0.10034 0.80858 0.0
N281 N 0.65255 1.05722 0.76877 0.0
N282 N 0.65196 0.13669 0.7692 0.0
C283 C 0.65833 1.0576 0.79493 0.0
C284 C 0.6491 0.09573 0.75573 0.0
C285 C 0.65797 0.14103 0.79533 0.0
C286 C 0.6634 1.01021 0.80598 0.0
C287 C 0.6482 0.9875 0.83101 0.0
C288 C 0.64859 0.93979 0.8381 0.0
C289 C 0.66423 0.91217 0.82064 0.0
C290 C 0.68014 0.93563 0.79603 0.0
C291 C 0.67975 0.98255 0.78902 0.0
C292 C 0.64329 0.09376 0.72682 0.0
C293 C 0.64571 1.0544 0.71218 0.0
C294 C 0.64055 1.05292 0.68513 0.0
C295 C 0.63245 0.09049 0.67192 0.0
C296 C 0.63008 0.12981 0.68642 0.0
C297 C 0.63553 0.13152 0.71342 0.0
C298 C 0.66286 0.19294 0.80673 0.0
C299 C 0.67643 0.23616 0.78966 0.0
C300 C 0.80454 0.57444 0.12787 0.0
C301 C 0.80893 0.55525 0.15221 0.0
C302 C 0.76443 0.53994 0.16893 0.0
C303 C 0.71792 0.54261 0.16127 0.0
H304 H 0.51721 0.51493 0.1711 0.0
H305 H 0.43258 0.51081 0.18373 0.0
H306 H 0.4443 0.60637 0.11817 0.0
H307 H 0.52724 0.61078 0.10572 0.0
H308 H 0.54921 0.56559 0.05183 0.0
H309 H 0.55382 0.57261 0.00455 0.0
H310 H 0.70766 0.58422 0.00585 0.0
H311 H 0.70358 0.57697 0.05294 0.0
H312 H 0.75941 0.5922 0.10115 0.0
H313 H 0.83692 0.58725 0.11424 0.0
H314 H 0.76526 0.52534 0.18802 0.0
H315 H 0.68511 0.52929 0.17466 0.0
N316 N 0.62072 0.5592 0.13857 0.0
N317 N 0.58301 0.56526 0.09895 0.0
N318 N 0.66302 0.5643 0.09876 0.0
C319 C 0.57983 0.56182 0.12524 0.0
C320 C 0.62371 0.56632 0.08552 0.0
C321 C 0.66348 0.56088 0.125 0.0
C322 C 0.53111 0.56337 0.13714 0.0
C323 C 0.50258 0.536 0.15958 0.0
C324 C 0.45322 0.53333 0.16678 0.0
C325 C 0.42991 0.55801 0.15201 0.0
C326 C 0.45944 0.58642 0.13022 0.0
C327 C 0.50797 0.58891 0.12306 0.0
C328 C 0.62598 0.5706 0.05653 0.0
C329 C 0.58411 0.5696 0.04216 0.0
C330 C 0.58661 0.5736 0.01503 0.0
C331 C 0.63109 0.57893 0.00155 0.0
C332 C 0.67292 0.58012 0.01575 0.0
C333 C 0.6704 0.5759 0.04281 0.0
C334 C 0.71347 0.56084 0.13645 0.0
C335 C 0.75884 0.57717 0.12033 0.0
C336 C 0.31379 0.57081 0.18604 0.0
C337 C 0.27286 0.55162 0.16687 0.0
C338 C 0.33173 0.52955 0.14023 0.0
C339 C 0.37474 0.55355 0.15814 0.0
N340 N 0.40717 0.60466 0.19686 0.0
N341 N 0.25089 0.5236 0.12281 0.0
C342 C 0.36559 0.57607 0.18073 0.0
C343 C 0.28416 0.53374 0.14326 0.0
N344 N 0.3027 0.5823 0.20996 0.0
N345 N 0.33536 0.50089 0.1204 0.0
H346 H 0.21808 0.5291 0.12359 0.0
H347 H 0.25916 0.5158 0.10431 0.0
H348 H 0.36826 0.49593 0.11771 0.0
H349 H 0.30371 0.47766 0.10831 0.0
H350 H 0.32793 0.59084 0.2257 0.0
H351 H 0.26603 0.57848 0.21471 0.0
H352 H 0.40558 0.62728 0.21192 0.0
H353 H 0.44481 0.60938 0.19381 0.0
C354 C 0.78258 0.28804 0.51943 0.0
C355 C 0.769 0.24138 0.50482 0.0
C356 C 0.85863 0.29342 0.48319 0.0
C357 C 0.87179 0.34045 0.49721 0.0
N358 N 0.84736 0.37822 0.53206 0.0
N359 N 0.79268 0.20601 0.46859 0.0
C360 C 0.83386 0.33622 0.51629 0.0
C361 C 0.8071 0.24603 0.48578 0.0
N362 N 0.74542 0.28711 0.53591 0.0
N363 N 0.89705 0.29282 0.46818 0.0
H364 H 0.75595 0.1719 0.46912 0.0
H365 H 0.81456 0.20859 0.4522 0.0
H366 H 0.93487 0.32526 0.46618 0.0
H367 H 0.89367 0.25895 0.4599 0.0
H368 H 0.74851 0.32002 0.54509 0.0
H369 H 0.70915 0.25348 0.53922 0.0
H370 H 0.82574 0.37762 0.54817 0.0
H371 H 0.88244 0.41374 0.52989 0.0
C372 C 0.71357 0.80797 0.82671 0.0
C373 C 0.66774 0.7601 0.83535 0.0
C374 C 0.61889 0.8119 0.83402 0.0
C375 C 0.66543 0.86008 0.82735 0.0
N376 N 0.76036 0.90386 0.82419 0.0
N377 N 0.58118 0.7262 0.85492 0.0
C378 C 0.71348 0.85774 0.82572 0.0
C379 C 0.62172 0.76501 0.84107 0.0
N380 N 0.75746 0.80675 0.8182 0.0
N381 N 0.57089 0.80982 0.83293 0.0
H382 H 0.58316 0.69445 0.86285 0.0
H383 H 0.5489 0.7292 0.86161 0.0
H384 H 0.56683 0.84222 0.82793 0.0
H385 H 0.53501 0.77485 0.83457 0.0
H386 H 0.78829 0.83799 0.80836 0.0
H387 H 0.7619 0.77376 0.81878 0.0
H388 H 0.79718 0.90606 0.82604 0.0
H389 H 0.76242 0.94048 0.824 0.0
C390 C 0.92693 0.52469 0.14629 0.0
C391 C 0.95975 0.54981 0.16816 0.0
C392 C 0.89487 0.58042 0.17959 0.0
C393 C 0.85962 0.55112 0.15906 0.0
N394 N 0.83922 0.48499 0.12674 0.0
N395 N 0.96796 0.59464 0.20813 0.0
C396 C 0.87511 0.52045 0.14357 0.0
C397 C 0.94158 0.57574 0.18543 0.0
N398 N 0.94613 0.50678 0.12715 0.0
N399 N 0.88531 0.61493 0.19302 0.0
H400 H 1.00129 0.59178 0.21315 0.0
H401 H 0.95407 0.60863 0.22294 0.0
H402 H 0.85269 0.61989 0.18939 0.0
H403 H 0.91202 0.64186 0.20612 0.0
H404 H 0.92725 0.49372 0.10943 0.0
H405 H 0.98336 0.50955 0.12798 0.0
H406 H 0.8454 0.45735 0.11702 0.0
H407 H 0.80096 0.4793 0.12471 0.0
C408 C 0.44294 0.88263 0.51821 0.0
C409 C 0.458 0.92736 0.50161 0.0
C410 C 0.37099 0.87195 0.47864 0.0
C411 C 0.35808 0.82599 0.49375 0.0
N412 N 0.38902 0.78782 0.52575 0.0
N413 N 0.4384 0.95696 0.46178 0.0
C414 C 0.39618 0.83175 0.51296 0.0
C415 C 0.42224 0.91973 0.48079 0.0
N416 N 0.47224 0.88888 0.53986 0.0
N417 N 0.3333 0.87081 0.46244 0.0
H418 H 0.47567 0.99053 0.46162 0.0
H419 H 0.41748 0.95178 0.4447 0.0
H420 H 0.29594 0.83774 0.46044 0.0
H421 H 0.33706 0.90403 0.45305 0.0
H422 H 0.46062 0.86074 0.55444 0.0
H423 H 0.50605 0.92408 0.54437 0.0
H424 H 0.41763 0.78707 0.5376 0.0
H425 H 0.35605 0.7509 0.52279 0.0
C426 C 0.63073 0.40724 0.81672 0.0
C427 C 0.66423 0.44496 0.83548 0.0
C428 C 0.69656 0.38122 0.84666 0.0
C429 C 0.66123 0.34272 0.82863 0.0
N430 N 0.58578 0.31689 0.80106 0.0
N431 N 0.72275 0.46156 0.87144 0.0
C432 C 0.62601 0.35546 0.81502 0.0
C433 C 0.69539 0.42997 0.85123 0.0
N434 N 0.60475 0.42156 0.79934 0.0
N435 N 0.73306 0.3723 0.85894 0.0
H436 H 0.72259 0.49636 0.87551 0.0
H437 H 0.74168 0.45129 0.88549 0.0
H438 H 0.73483 0.33785 0.85652 0.0
H439 H 0.76426 0.40049 0.86978 0.0
H440 H 0.58547 0.39947 0.78313 0.0
H441 H 0.60647 0.45791 0.79976 0.0
H442 H 0.55496 0.32081 0.79306 0.0
H443 H 0.57998 0.27883 0.7998 0.0
C444 C 0.66719 0.77114 0.50623 0.0
C445 C 0.6957 0.82112 0.49468 0.0
C446 C 0.77448 0.81166 0.49112 0.0
C447 C 0.74881 0.76662 0.50719 0.0
N448 N 0.66653 0.6956 0.52412 0.0
N449 N 0.7677 0.88042 0.46764 0.0
C450 C 0.69372 0.74313 0.51216 0.0
C451 C 0.7463 0.83794 0.4838 0.0
N452 N 0.61551 0.75196 0.51312 0.0
N453 N 0.82659 0.83125 0.48475 0.0
H454 H 0.74699 0.89978 0.46242 0.0
H455 H 0.80342 0.89379 0.45786 0.0
H456 H 0.84746 0.81181 0.48946 0.0
H457 H 0.84952 0.86691 0.47532 0.0
H458 H 0.5935 0.71583 0.52248 0.0
H459 H 0.59509 0.7721 0.50875 0.0
H460 H 0.68347 0.67247 0.52905 0.0
H461 H 0.68347 0.67247 0.52905 0.0
C462 C 0.8397 0.48932 0.80377 0.0
C463 C 0.88678 0.53888 0.80261 0.0
C464 C 0.9392 0.49965 0.81719 0.0
C465 C 0.89117 0.45318 0.82319 0.0
N466 N 0.80122 0.39541 0.81149 0.0
N467 N 0.98086 0.5864 0.79717 0.0
C468 C 0.84314 0.44509 0.81256 0.0
C469 C 0.93658 0.54181 0.80503 0.0
N470 N 0.79175 0.48555 0.79872 0.0
N471 N 0.98645 0.50479 0.82506 0.0
H472 H 0.97825 0.61748 0.78864 0.0
H473 H 1.01869 0.59071 0.79705 0.0
H474 H 0.98946 0.47376 0.83323 0.0
H475 H 1.02233 0.53977 0.82398 0.0
H476 H 0.75567 0.4516 0.80186 0.0
H477 H 0.788 0.51692 0.79165 0.0
H478 H 0.76632 0.38607 0.80177 0.0
H479 H 0.80407 0.36319 0.81824 0.0
C480 C 0.38792 0.9187 0.12825 0.0
C481 C 0.3849 0.87228 0.13804 0.0
C482 C 0.46788 0.92311 0.16083 0.0
C483 C 0.46213 0.96805 0.15742 0.0
N484 N 0.42387 1.01255 0.13393 0.0
N485 N 0.42953 0.82947 0.15693 0.0
C486 C 0.42555 0.96758 0.13906 0.0
C487 C 0.42827 0.87443 0.15141 0.0
N488 N 0.35219 0.91474 0.11003 0.0
N489 N 0.50861 0.92514 0.17474 0.0
H490 H 0.40073 0.79292 0.15008 0.0
H491 H 0.46006 0.82946 0.16762 0.0
H492 H 0.5393 0.96003 0.18231 0.0
H493 H 0.5393 0.96003 0.18231 0.0
H494 H 0.35276 0.94678 0.10094 0.0
H495 H 0.3242 0.87822 0.10273 0.0
H496 H 0.39476 1.01395 0.12277 0.0
H497 H 0.45166 1.04893 0.14129 0.0
C498 C 0.69467 0.43146 0.51283 0.0
C499 C 0.69851 0.39158 0.49932 0.0
C500 C 0.79534 0.44266 0.50082 0.0
C501 C 0.79068 0.47565 0.51919 0.0
N502 N 0.74048 0.5153 0.53501 0.0
N503 N 0.75097 0.36068 0.47719 0.0
C504 C 0.74157 0.47463 0.52262 0.0
C505 C 0.74851 0.39849 0.49157 0.0
N506 N 0.64573 0.42591 0.51741 0.0
N507 N 0.8442 0.45382 0.49217 0.0
H508 H 0.71739 0.32826 0.46982 0.0
H509 H 0.78593 0.36041 0.47306 0.0
H510 H 0.87924 0.48443 0.49957 0.0
H511 H 0.84967 0.43569 0.4762 0.0
H512 H 0.63862 0.45037 0.52925 0.0
H513 H 0.6114 0.39561 0.50921 0.0
H514 H 0.70674 0.51877 0.53729 0.0
H515 H 0.77475 0.54823 0.54154 0.0
C516 C 0.3043 0.54338 0.80253 0.0
C517 C 0.35065 0.57978 0.81551 0.0
C518 C 0.30066 0.6134 0.83868 0.0
C519 C 0.25374 0.56729 0.83164 0.0
N520 N 0.20864 0.49113 0.8043 0.0
N521 N 0.39641 0.65592 0.84244 0.0
C522 C 0.2546 0.53403 0.81203 0.0
C523 C 0.35016 0.61812 0.83187 0.0
N524 N 0.3084 0.51613 0.78219 0.0
N525 N 0.29719 0.65091 0.85277 0.0
H526 H 0.43321 0.66079 0.83704 0.0
H527 H 0.39835 0.68148 0.85685 0.0
H528 H 0.26061 0.64712 0.85786 0.0
H529 H 0.32964 0.68707 0.85741 0.0
H530 H 0.27653 0.49112 0.77065 0.0
H531 H 0.34523 0.52276 0.77556 0.0
H532 H 0.20738 0.46196 0.79241 0.0
H533 H 0.17142 0.4836 0.81056 0.0
C534 C 0.77185 0.31373 0.15445 0.0
C535 C 0.82029 0.35486 0.1636 0.0
C536 C 0.7729 0.3915 0.18691 0.0
C537 C 0.7255 0.3435 0.18355 0.0
N538 N 0.67878 0.25772 0.16335 0.0
N539 N 0.86836 0.43362 0.18895 0.0
C540 C 0.72409 0.30485 0.16638 0.0
C541 C 0.8214 0.39495 0.17937 0.0
N542 N 0.77194 0.28227 0.13509 0.0
N543 N 0.7713 0.43228 0.19872 0.0
H544 H 0.90492 0.43759 0.18383 0.0
H545 H 0.87093 0.45995 0.20309 0.0
H546 H 0.73552 0.4296 0.20447 0.0
H547 H 0.80426 0.46953 0.20059 0.0
H548 H 0.7376 0.25419 0.126 0.0
H549 H 0.807 0.28811 0.12648 0.0
H550 H 0.67777 0.22583 0.15395 0.0
H551 H 0.64244 0.24898 0.17129 0.0
C552 C 0.10236 0.56962 0.08356 0.0
C553 C 0.1099 0.53569 0.1006 0.0
C554 C 1.07517 0.46666 0.0677 0.0
C555 C 1.07401 0.50273 0.04978 0.0
N556 N 1.09208 0.59045 0.03935 0.0
N557 N 0.10993 0.45426 0.10789 0.0
C558 C 1.08905 0.55477 0.05736 0.0
C559 C 1.09778 0.48471 0.09244 0.0
N560 N 0.10583 0.61505 0.09262 0.0
N561 N 1.05387 0.41493 0.06116 0.0
H562 H 0.12719 0.46654 0.12592 0.0
H563 H 0.10748 0.41916 0.10197 0.0
H564 H 1.03729 0.40049 0.04309 0.0
H565 H 1.04826 0.38556 0.07428 0.0
H566 H 1.09504 0.63837 0.08181 0.0
H567 H 0.11495 0.62718 0.11171 0.0
H568 H 0.10888 0.63048 0.04305 0.0
H569 H 1.08121 0.58068 0.02012 0.0
C570 C 0.61858 0.13649 0.42813 0.0
C571 C 0.61263 0.08765 0.43629 0.0
C572 C 0.58387 1.05262 0.3928 0.0
C573 C 0.58385 0.09963 0.38571 0.0
N574 N 0.58772 0.18042 0.39919 0.0
N575 N 0.58212 0.9962 0.42771 0.0
C576 C 0.59698 0.13975 0.40421 0.0
C577 C 0.59274 1.04461 0.41904 0.0
N578 N 0.64703 0.18047 0.44262 0.0
N579 N 0.5782 1.01694 0.37438 0.0
H580 H 0.58953 0.98933 0.44663 0.0
H581 H 0.56232 0.96224 0.41668 0.0
H582 H 0.57305 1.02197 0.35487 0.0
H583 H 0.58337 0.98473 0.3781 0.0
H584 H 0.65626 0.218 0.43646 0.0
H585 H 0.66657 0.18003 0.45934 0.0
H586 H 0.59222 0.20803 0.41306 0.0
H587 H 0.57004 0.18322 0.38216 0.0
C588 C 0.67838 0.57432 0.74911 0.0
C589 C 0.69628 0.61683 0.7666 0.0
C590 C 0.77302 0.66999 0.73906 0.0
C591 C 0.75346 0.62908 0.7206 0.0
N592 N 0.68323 0.54531 0.7059 0.0
N593 N 0.75202 0.70886 0.77505 0.0
C594 C 0.70505 0.5818 0.72507 0.0
C595 C 0.74115 0.66579 0.76065 0.0
N596 N 0.63556 0.52702 0.75539 0.0
N597 N 0.82267 0.71231 0.73628 0.0
H598 H 0.72768 0.70704 0.79024 0.0
H599 H 0.78138 0.74683 0.7703 0.0
H600 H 0.84753 0.71631 0.72086 0.0
H601 H 0.84105 0.74072 0.75049 0.0
H602 H 0.62454 0.49253 0.74522 0.0
H603 H 0.61211 0.5219 0.77156 0.0
H604 H 0.64537 0.51278 0.70689 0.0
H605 H 0.70137 0.5494 0.68802 0.0
C606 C 0.57553 1.04524 0.60368 0.0
C607 C 0.61129 0.08886 0.58828 0.0
C608 C 0.6654 0.1289 0.62722 0.0
C609 C 0.62606 0.0887 0.64296 0.0
N610 N 0.53915 1.01243 0.64625 0.0
N611 N 0.68533 0.17753 0.58705 0.0
C612 C 0.57995 1.04779 0.63118 0.0
C613 C 0.6552 0.13201 0.60044 0.0
N614 N 0.53809 1.00043 0.592 0.0
N615 N 0.71317 0.16374 0.63773 0.0
H616 H 0.67801 0.18284 0.56796 0.0
H617 H 0.71408 0.212 0.59565 0.0
H618 H 0.7222 0.16261 0.65713 0.0
H619 H 0.74545 0.19036 0.62674 0.0
H620 H 0.51468 0.96541 0.60192 0.0
H621 H 0.53403 0.99664 0.57203 0.0
H622 H 0.5022 0.98543 0.6389 0.0
H623 H 0.54046 1.01306 0.66636 0.0
C624 C 0.67334 0.63753 0.93349 0.0
C625 C 0.65009 0.59153 0.918 0.0
C626 C 0.61172 0.53729 0.95709 0.0
C627 C 0.63433 0.58333 0.97254 0.0
N628 N 0.67766 0.67763 0.97512 0.0
N629 N 0.58918 0.49904 0.91414 0.0
C630 C 0.66226 0.63358 0.96057 0.0
C631 C 0.61671 0.54184 0.92959 0.0
N632 N 0.70803 0.68479 0.92253 0.0
N633 N 0.58714 0.48906 0.9688 0.0
H634 H 0.59208 0.50128 0.89406 0.0
H635 H 0.56021 0.4625 0.9209 0.0
H636 H 0.58155 0.48421 0.98872 0.0
H637 H 0.57516 0.45392 0.95909 0.0
H638 H 0.73147 0.71865 0.93309 0.0
H639 H 0.71596 0.68964 0.90278 0.0
H640 H 0.69312 0.71522 0.96734 0.0
H641 H 0.67098 0.67618 0.99496 0.0
C642 C 0.13261 0.59887 0.26655 0.0
C643 C 0.12352 0.55048 0.25548 0.0
C644 C 0.12008 0.51628 0.2996 0.0
C645 C 0.12467 0.56264 0.3106 0.0
N646 N 0.12472 0.64423 0.30409 0.0
N647 N 1.08826 0.45734 0.26341 0.0
C648 C 0.12802 0.60291 0.29392 0.0
C649 C 0.11174 0.50756 0.27254 0.0
N650 N 0.14684 0.64165 0.25113 0.0
N651 N 0.12446 0.48048 0.31491 0.0
H652 H 1.07444 0.44759 0.24461 0.0
H653 H 1.07507 0.42457 0.27542 0.0
H654 H 0.13129 0.48555 0.33473 0.0
H655 H 0.12681 0.44864 0.30746 0.0
H656 H 0.16066 0.67946 0.25821 0.0
H657 H 0.14815 0.63997 0.23119 0.0
H658 H 0.12085 0.67177 0.29288 0.0
H659 H 0.12098 0.64841 0.32383 0.0
loop_
_geom_bond_atom_site_label_1
_geom_bond_atom_site_label_2
_geom_bond_distance
_geom_bond_site_symmetry_2
_ccdc_geom_bond_type
C0 Eu1 2.835 . S
C0 C2 1.500 . S
C0 O20 1.257 . S
C0 O21 1.260 . S
Eu1 C0 2.835 . S
Eu1 O20 2.473 . S
Eu1 O21 2.480 . S
Eu1 O22 2.430 1_655 S
Eu1 O23 2.670 1_655 S
Eu1 O24 2.394 . S
Eu1 O29 2.355 1_655 S
Eu1 O31 2.374 1_655 S
C2 C0 1.500 . S
C2 C3 1.377 . S
C2 C7 1.377 . S
C3 C2 1.377 . S
C3 C4 1.395 . S
C3 H32 0.931 . S
C4 C3 1.395 . S
C4 C5 1.383 . S
C4 H33 0.931 . S
C5 C4 1.383 . S
C5 C6 1.394 . S
C6 C5 1.394 . S
C6 C7 1.378 . S
C6 H34 0.931 . S
C7 C2 1.377 . S
C7 C6 1.378 . S
C7 H35 0.931 . S
C8 O22 1.259 . S
C8 O23 1.270 . S
C9 O24 1.251 . S
C9 O25 1.251 . S
C10 Eu11 2.835 . S
C10 C12 1.500 . S
C10 O26 1.257 . S
C10 O27 1.260 . S
Eu11 C10 2.835 . S
Eu11 O23 2.355 . S
Eu11 O25 2.374 1_455 S
Eu11 O26 2.473 . S
Eu11 O27 2.480 . S
Eu11 O28 2.430 . S
Eu11 O29 2.670 . S
Eu11 O30 2.394 . S
C12 C10 1.500 . S
C12 C13 1.377 . S
C12 C17 1.377 . S
C13 C12 1.377 . S
C13 C14 1.395 . S
C13 H36 0.931 . S
C14 C13 1.395 . S
C14 C15 1.383 . S
C14 H37 0.931 . S
C15 C14 1.383 . S
C15 C16 1.394 . S
C16 C15 1.394 . S
C16 C17 1.378 . S
C16 H38 0.931 . S
C17 C12 1.377 . S
C17 C16 1.378 . S
C17 H39 0.931 . S
C18 O28 1.259 . S
C18 O29 1.270 . S
C19 O30 1.251 . S
C19 O31 1.251 . S
O20 C0 1.257 . S
O20 Eu1 2.473 . S
O21 C0 1.260 . S
O21 Eu1 2.480 . S
O22 Eu1 2.430 1_455 S
O22 C8 1.259 . S
O23 Eu1 2.670 1_455 S
O23 C8 1.270 . S
O23 Eu11 2.355 . S
O24 Eu1 2.394 . S
O24 C9 1.251 . S
O25 C9 1.251 . S
O25 Eu11 2.374 1_655 S
O26 C10 1.257 . S
O26 Eu11 2.473 . S
O27 C10 1.260 . S
O27 Eu11 2.480 . S
O28 Eu11 2.430 . S
O28 C18 1.259 . S
O29 Eu1 2.355 1_455 S
O29 Eu11 2.670 . S
O29 C18 1.270 . S
O30 Eu11 2.394 . S
O30 C19 1.251 . S
O31 Eu1 2.374 1_455 S
O31 C19 1.251 . S
H32 C3 0.931 . S
H33 C4 0.931 . S
H34 C6 0.931 . S
H35 C7 0.931 . S
H36 C13 0.931 . S
H37 C14 0.931 . S
H38 C16 0.931 . S
H39 C17 0.931 . S
C40 Eu41 2.835 . S
C40 C42 1.500 . S
C40 O60 1.257 . S
C40 O61 1.260 . S
Eu41 C40 2.835 . S
Eu41 O60 2.473 . S
Eu41 O61 2.480 . S
Eu41 O62 2.430 . S
Eu41 O63 2.670 . S
Eu41 O64 2.394 . S
Eu41 O69 2.355 . S
Eu41 O71 2.374 1_545 S
C42 C40 1.500 . S
C42 C43 1.377 . S
C42 C47 1.377 . S
C43 C42 1.377 . S
C43 C44 1.395 . S
C43 H72 0.931 . S
C44 C43 1.395 . S
C44 C45 1.383 . S
C44 H73 0.931 . S
C45 C44 1.383 . S
C45 C46 1.394 . S
C46 C45 1.394 . S
C46 C47 1.378 . S
C46 H74 0.931 . S
C47 C42 1.377 . S
C47 C46 1.378 . S
C47 H75 0.931 . S
C48 O62 1.259 . S
C48 O63 1.270 . S
C49 O64 1.251 . S
C49 O65 1.251 . S
C50 Eu51 2.835 . S
C50 C52 1.500 . S
C50 O66 1.257 . S
C50 O67 1.260 . S
Eu51 C50 2.835 . S
Eu51 O63 2.355 1_565 S
Eu51 O65 2.374 1_565 S
Eu51 O66 2.473 . S
Eu51 O67 2.480 . S
Eu51 O68 2.430 1_565 S
Eu51 O69 2.670 1_565 S
Eu51 O70 2.394 . S
C52 C50 1.500 . S
C52 C53 1.377 . S
C52 C57 1.377 . S
C53 C52 1.377 . S
C53 C54 1.395 . S
C53 H76 0.931 . S
C54 C53 1.395 . S
C54 C55 1.383 . S
C54 H77 0.931 . S
C55 C54 1.383 . S
C55 C56 1.394 . S
C56 C55 1.394 . S
C56 C57 1.378 . S
C56 H78 0.931 . S
C57 C52 1.377 . S
C57 C56 1.378 . S
C57 H79 0.931 . S
C58 O68 1.259 . S
C58 O69 1.270 . S
C59 O70 1.251 . S
C59 O71 1.251 . S
O60 C40 1.257 . S
O60 Eu41 2.473 . S
O61 C40 1.260 . S
O61 Eu41 2.480 . S
O62 Eu41 2.430 . S
O62 C48 1.259 . S
O63 Eu41 2.670 . S
O63 C48 1.270 . S
O63 Eu51 2.355 1_545 S
O64 Eu41 2.394 . S
O64 C49 1.251 . S
O65 C49 1.251 . S
O65 Eu51 2.374 1_545 S
O66 C50 1.257 . S
O66 Eu51 2.473 . S
O67 C50 1.260 . S
O67 Eu51 2.480 . S
O68 Eu51 2.430 1_545 S
O68 C58 1.259 . S
O69 Eu41 2.355 . S
O69 Eu51 2.670 1_545 S
O69 C58 1.270 . S
O70 Eu51 2.394 . S
O70 C59 1.251 . S
O71 Eu41 2.374 1_565 S
O71 C59 1.251 . S
H72 C43 0.931 . S
H73 C44 0.931 . S
H74 C46 0.931 . S
H75 C47 0.931 . S
H76 C53 0.931 . S
H77 C54 0.931 . S
H78 C56 0.931 . S
H79 C57 0.931 . S
C80 Eu81 2.835 . S
C80 C82 1.500 . S
C80 O100 1.257 . S
C80 O101 1.260 . S
Eu81 C80 2.835 . S
Eu81 O100 2.473 . S
Eu81 O101 2.480 . S
Eu81 O102 2.430 . S
Eu81 O103 2.670 . S
Eu81 O104 2.394 . S
Eu81 O109 2.355 . S
Eu81 O111 2.374 . S
C82 C80 1.500 . S
C82 C83 1.377 . S
C82 C87 1.377 . S
C83 C82 1.377 . S
C83 C84 1.395 . S
C83 H112 0.931 . S
C84 C83 1.395 . S
C84 C85 1.383 . S
C84 H113 0.931 . S
C85 C84 1.383 . S
C85 C86 1.394 . S
C86 C85 1.394 . S
C86 C87 1.378 . S
C86 H114 0.931 . S
C87 C82 1.377 . S
C87 C86 1.378 . S
C87 H115 0.931 . S
C88 O102 1.259 . S
C88 O103 1.270 . S
C89 O104 1.251 . S
C89 O105 1.251 . S
C90 Eu91 2.835 . S
C90 C92 1.500 . S
C90 O106 1.257 . S
C90 O107 1.260 . S
Eu91 C90 2.835 . S
Eu91 O103 2.355 . S
Eu91 O105 2.374 . S
Eu91 O106 2.473 . S
Eu91 O107 2.480 . S
Eu91 O108 2.430 . S
Eu91 O109 2.670 . S
Eu91 O110 2.394 . S
C92 C90 1.500 . S
C92 C93 1.377 . S
C92 C97 1.377 . S
C93 C92 1.377 . S
C93 C94 1.395 . S
C93 H116 0.931 . S
C94 C93 1.395 . S
C94 C95 1.383 . S
C94 H117 0.931 . S
C95 C94 1.383 . S
C95 C96 1.394 . S
C96 C95 1.394 . S
C96 C97 1.378 . S
C96 H118 0.931 . S
C97 C92 1.377 . S
C97 C96 1.378 . S
C97 H119 0.931 . S
C98 O108 1.259 . S
C98 O109 1.270 . S
C99 O110 1.251 . S
C99 O111 1.251 . S
O100 C80 1.257 . S
O100 Eu81 2.473 . S
O101 C80 1.260 . S
O101 Eu81 2.480 . S
O102 Eu81 2.430 . S
O102 C88 1.259 . S
O103 Eu81 2.670 . S
O103 C88 1.270 . S
O103 Eu91 2.355 . S
O104 Eu81 2.394 . S
O104 C89 1.251 . S
O105 C89 1.251 . S
O105 Eu91 2.374 . S
O106 C90 1.257 . S
O106 Eu91 2.473 . S
O107 C90 1.260 . S
O107 Eu91 2.480 . S
O108 Eu91 2.430 . S
O108 C98 1.259 . S
O109 Eu81 2.355 . S
O109 Eu91 2.670 . S
O109 C98 1.270 . S
O110 Eu91 2.394 . S
O110 C99 1.251 . S
O111 Eu81 2.374 . S
O111 C99 1.251 . S
H112 C83 0.931 . S
H113 C84 0.931 . S
H114 C86 0.931 . S
H115 C87 0.931 . S
H116 C93 0.931 . S
H117 C94 0.931 . S
H118 C96 0.931 . S
H119 C97 0.931 . S
C120 C121 1.384 . S
C120 H133 0.947 . S
C120 C155 1.382 . S
C121 C120 1.384 . S
C121 C122 1.378 . S
C122 C121 1.378 . S
C122 C123 1.378 . S
C122 H134 0.952 . S
C123 C122 1.378 . S
C123 H135 0.950 . S
C123 C154 1.383 . S
H124 C143 0.947 . S
H125 C144 0.946 . S
H126 C146 0.953 . S
H127 C147 0.945 . S
H128 C149 0.952 . S
H129 C150 0.949 . S
H130 C152 0.950 1_565 S
H131 C153 0.948 1_565 S
H132 C155 0.951 . S
H133 C120 0.947 . S
H134 C122 0.952 . S
H135 C123 0.950 . S
N136 C139 1.382 . S
N136 C141 1.363 . S
N137 C139 1.371 . S
N137 C140 1.372 . S
N138 C140 1.361 . S
N138 C141 1.377 . S
C139 N136 1.382 . S
C139 N137 1.371 . S
C139 C142 1.480 . S
C140 N137 1.372 . S
C140 N138 1.361 . S
C140 C148 1.457 . S
C141 N136 1.363 . S
C141 N138 1.377 . S
C141 C154 1.479 1_545 S
C142 C139 1.480 . S
C142 C143 1.383 . S
C142 C147 1.385 . S
C143 H124 0.947 . S
C143 C142 1.383 . S
C143 C144 1.388 . S
C144 H125 0.946 . S
C144 C143 1.388 . S
C144 C145 1.384 . S
C145 C144 1.384 . S
C145 C146 1.377 . S
C146 H126 0.953 . S
C146 C145 1.377 . S
C146 C147 1.369 . S
C147 H127 0.945 . S
C147 C142 1.385 . S
C147 C146 1.369 . S
C148 C140 1.457 . S
C148 C149 1.372 . S
C148 C153 1.364 . S
C149 H128 0.952 . S
C149 C148 1.372 . S
C149 C150 1.389 . S
C150 H129 0.949 . S
C150 C149 1.389 . S
C150 C151 1.387 . S
C151 C150 1.387 . S
C151 C152 1.372 . S
C152 H130 0.950 1_545 S
C152 C151 1.372 . S
C152 C153 1.379 . S
C153 H131 0.948 1_545 S
C153 C148 1.364 . S
C153 C152 1.379 . S
C154 C123 1.383 . S
C154 C141 1.479 1_565 S
C154 C155 1.398 . S
C155 C120 1.382 . S
C155 H132 0.951 . S
C155 C154 1.398 . S
C156 C157 1.384 . S
C156 H169 0.947 . S
C156 C191 1.382 . S
C157 C156 1.384 . S
C157 C158 1.378 . S
C158 C157 1.378 . S
C158 C159 1.378 . S
C158 H170 0.952 . S
C159 C158 1.378 . S
C159 H171 0.950 . S
C159 C190 1.383 . S
H160 C179 0.947 . S
H161 C180 0.946 . S
H162 C182 0.953 . S
H163 C183 0.945 . S
H164 C185 0.952 . S
H165 C186 0.949 . S
H166 C188 0.950 . S
H167 C189 0.948 . S
H168 C191 0.951 . S
H169 C156 0.947 . S
H170 C158 0.952 . S
H171 C159 0.950 . S
N172 C175 1.382 . S
N172 C177 1.363 . S
N173 C175 1.371 . S
N173 C176 1.372 . S
N174 C176 1.361 . S
N174 C177 1.377 . S
C175 N172 1.382 . S
C175 N173 1.371 . S
C175 C178 1.480 . S
C176 N173 1.372 . S
C176 N174 1.361 . S
C176 C184 1.457 . S
C177 N172 1.363 . S
C177 N174 1.377 . S
C177 C190 1.479 . S
C178 C175 1.480 . S
C178 C179 1.383 . S
C178 C183 1.385 . S
C179 H160 0.947 . S
C179 C178 1.383 . S
C179 C180 1.388 . S
C180 H161 0.946 . S
C180 C179 1.388 . S
C180 C181 1.384 . S
C181 C180 1.384 . S
C181 C182 1.377 . S
C182 H162 0.953 . S
C182 C181 1.377 . S
C182 C183 1.369 . S
C183 H163 0.945 . S
C183 C178 1.385 . S
C183 C182 1.369 . S
C184 C176 1.457 . S
C184 C185 1.372 . S
C184 C189 1.364 . S
C185 H164 0.952 . S
C185 C184 1.372 . S
C185 C186 1.389 . S
C186 H165 0.949 . S
C186 C185 1.389 . S
C186 C187 1.387 . S
C187 C186 1.387 . S
C187 C188 1.372 . S
C188 H166 0.950 . S
C188 C187 1.372 . S
C188 C189 1.379 . S
C189 H167 0.948 . S
C189 C184 1.364 . S
C189 C188 1.379 . S
C190 C159 1.383 . S
C190 C177 1.479 . S
C190 C191 1.398 . S
C191 C156 1.382 . S
C191 H168 0.951 . S
C191 C190 1.398 . S
C192 C193 1.384 . S
C192 H205 0.947 . S
C192 C227 1.382 . S
C193 C192 1.384 . S
C193 C194 1.378 . S
C194 C193 1.378 . S
C194 C195 1.378 . S
C194 H206 0.952 . S
C195 C194 1.378 . S
C195 H207 0.950 . S
C195 C226 1.383 . S
H196 C215 0.947 . S
H197 C216 0.946 . S
H198 C218 0.953 . S
H199 C219 0.945 . S
H200 C221 0.952 . S
H201 C222 0.949 . S
H202 C224 0.950 . S
H203 C225 0.948 . S
H204 C227 0.951 . S
H205 C192 0.947 . S
H206 C194 0.952 . S
H207 C195 0.950 . S
N208 C211 1.382 1_655 S
N208 C213 1.363 . S
N209 C211 1.371 . S
N209 C212 1.376 . S
N210 C212 1.356 1_655 S
N210 C213 1.377 . S
C211 N208 1.382 1_455 S
C211 N209 1.371 . S
C211 C214 1.480 . S
C212 N209 1.376 . S
C212 N210 1.356 1_455 S
C212 C220 1.457 1_455 S
C213 N208 1.363 . S
C213 N210 1.377 . S
C213 C226 1.479 . S
C214 C211 1.480 . S
C214 C215 1.383 . S
C214 C219 1.385 . S
C215 H196 0.947 . S
C215 C214 1.383 . S
C215 C216 1.388 . S
C216 H197 0.946 . S
C216 C215 1.388 . S
C216 C217 1.384 . S
C217 C216 1.384 . S
C217 C218 1.377 . S
C218 H198 0.953 . S
C218 C217 1.377 . S
C218 C219 1.369 . S
C219 H199 0.945 . S
C219 C214 1.385 . S
C219 C218 1.369 . S
C220 C212 1.457 1_655 S
C220 C221 1.367 1_655 S
C220 C225 1.369 . S
C221 H200 0.952 . S
C221 C220 1.367 1_455 S
C221 C222 1.389 1_556 S
C222 H201 0.949 . S
C222 C221 1.389 1_554 S
C222 C223 1.387 . S
C223 C222 1.387 . S
C223 C224 1.372 1_455 S
C224 H202 0.950 . S
C224 C223 1.372 1_655 S
C224 C225 1.379 1_554 S
C225 H203 0.948 . S
C225 C220 1.369 . S
C225 C224 1.379 1_556 S
C226 C195 1.383 . S
C226 C213 1.479 . S
C226 C227 1.398 . S
C227 C192 1.382 . S
C227 H204 0.951 . S
C227 C226 1.398 . S
C228 C229 1.384 . S
C228 H241 0.947 . S
C228 C263 1.382 . S
C229 C228 1.384 . S
C229 C230 1.378 . S
C230 C229 1.378 . S
C230 C231 1.378 . S
C230 H242 0.952 . S
C231 C230 1.378 . S
C231 H243 0.950 . S
C231 C262 1.383 . S
H232 C251 0.947 1_455 S
H233 C252 0.946 . S
H234 C254 0.953 . S
H235 C255 0.945 . S
H236 C257 0.952 1_655 S
H237 C258 0.949 1_655 S
H238 C260 0.950 . S
H239 C261 0.948 . S
H240 C263 0.951 . S
H241 C228 0.947 . S
H242 C230 0.952 . S
H243 C231 0.950 . S
N244 C247 1.382 . S
N244 C249 1.363 . S
N245 C247 1.371 . S
N245 C248 1.372 . S
N246 C248 1.361 . S
N246 C249 1.377 . S
C247 N244 1.382 . S
C247 N245 1.371 . S
C247 C250 1.480 1_455 S
C248 N245 1.372 . S
C248 N246 1.361 . S
C248 C256 1.457 . S
C249 N244 1.363 . S
C249 N246 1.377 . S
C249 C262 1.479 . S
C250 C247 1.480 1_655 S
C250 C251 1.383 . S
C250 C255 1.385 . S
C251 H232 0.947 1_655 S
C251 C250 1.383 . S
C251 C252 1.388 . S
C252 H233 0.946 . S
C252 C251 1.388 . S
C252 C253 1.384 . S
C253 C252 1.384 . S
C253 C254 1.377 . S
C254 H234 0.953 . S
C254 C253 1.377 . S
C254 C255 1.369 . S
C255 H235 0.945 . S
C255 C250 1.385 . S
C255 C254 1.369 . S
C256 C248 1.457 . S
C256 C257 1.372 . S
C256 C261 1.364 . S
C257 H236 0.952 1_455 S
C257 C256 1.372 . S
C257 C258 1.389 . S
C258 H237 0.949 1_455 S
C258 C257 1.389 . S
C258 C259 1.387 . S
C259 C258 1.387 . S
C259 C260 1.372 . S
C260 H238 0.950 . S
C260 C259 1.372 . S
C260 C261 1.379 . S
C261 H239 0.948 . S
C261 C256 1.364 . S
C261 C260 1.379 . S
C262 C231 1.383 . S
C262 C249 1.479 . S
C262 C263 1.398 . S
C263 C228 1.382 . S
C263 H240 0.951 . S
C263 C262 1.398 . S
C264 C265 1.384 . S
C264 H277 0.947 . S
C264 C299 1.382 . S
C265 C264 1.384 . S
C265 C266 1.378 . S
C266 C265 1.378 . S
C266 C267 1.378 . S
C266 H278 0.952 . S
C267 C266 1.378 . S
C267 H279 0.950 . S
C267 C298 1.383 . S
H268 C287 0.947 . S
H269 C288 0.946 . S
H270 C290 0.953 . S
H271 C291 0.945 . S
H272 C293 0.952 . S
H273 C294 0.949 . S
H274 C296 0.950 . S
H275 C297 0.948 . S
H276 C299 0.951 . S
H277 C264 0.947 . S
H278 C266 0.952 . S
H279 C267 0.950 . S
N280 C283 1.382 1_545 S
N280 C285 1.363 . S
N281 C283 1.371 . S
N281 C284 1.372 1_565 S
N282 C284 1.361 . S
N282 C285 1.377 . S
C283 N280 1.382 1_565 S
C283 N281 1.371 . S
C283 C286 1.480 . S
C284 N281 1.372 1_545 S
C284 N282 1.361 . S
C284 C292 1.457 . S
C285 N280 1.363 . S
C285 N282 1.377 . S
C285 C298 1.479 . S
C286 C283 1.480 . S
C286 C287 1.383 . S
C286 C291 1.385 . S
C287 H268 0.947 . S
C287 C286 1.383 . S
C287 C288 1.388 . S
C288 H269 0.946 . S
C288 C287 1.388 . S
C288 C289 1.384 . S
C289 C288 1.384 . S
C289 C290 1.377 . S
C290 H270 0.953 . S
C290 C289 1.377 . S
C290 C291 1.369 . S
C291 H271 0.945 . S
C291 C286 1.385 . S
C291 C290 1.369 . S
C292 C284 1.457 . S
C292 C293 1.372 1_545 S
C292 C297 1.364 . S
C293 H272 0.952 . S
C293 C292 1.372 1_565 S
C293 C294 1.389 . S
C294 H273 0.949 . S
C294 C293 1.389 . S
C294 C295 1.387 1_565 S
C295 C294 1.387 1_545 S
C295 C296 1.372 . S
C296 H274 0.950 . S
C296 C295 1.372 . S
C296 C297 1.379 . S
C297 H275 0.948 . S
C297 C292 1.364 . S
C297 C296 1.379 . S
C298 C267 1.383 . S
C298 C285 1.479 . S
C298 C299 1.398 . S
C299 C264 1.382 . S
C299 H276 0.951 . S
C299 C298 1.398 . S
C300 C301 1.384 . S
C300 H313 0.947 . S
C300 C335 1.382 . S
C301 C300 1.384 . S
C301 C302 1.378 . S
C302 C301 1.378 . S
C302 C303 1.378 . S
C302 H314 0.952 . S
C303 C302 1.378 . S
C303 H315 0.950 . S
C303 C334 1.383 . S
H304 C323 0.947 . S
H305 C324 0.946 . S
H306 C326 0.953 . S
H307 C327 0.945 . S
H308 C329 0.952 . S
H309 C330 0.949 . S
H310 C332 0.950 . S
H311 C333 0.948 . S
H312 C335 0.951 . S
H313 C300 0.947 . S
H314 C302 0.952 . S
H315 C303 0.950 . S
N316 C319 1.382 . S
N316 C321 1.363 . S
N317 C319 1.371 . S
N317 C320 1.372 . S
N318 C320 1.361 . S
N318 C321 1.377 . S
C319 N316 1.382 . S
C319 N317 1.371 . S
C319 C322 1.480 . S
C320 N317 1.372 . S
C320 N318 1.361 . S
C320 C328 1.457 . S
C321 N316 1.363 . S
C321 N318 1.377 . S
C321 C334 1.479 . S
C322 C319 1.480 . S
C322 C323 1.383 . S
C322 C327 1.385 . S
C323 H304 0.947 . S
C323 C322 1.383 . S
C323 C324 1.388 . S
C324 H305 0.946 . S
C324 C323 1.388 . S
C324 C325 1.384 . S
C325 C324 1.384 . S
C325 C326 1.377 . S
C326 H306 0.953 . S
C326 C325 1.377 . S
C326 C327 1.369 . S
C327 H307 0.945 . S
C327 C322 1.385 . S
C327 C326 1.369 . S
C328 C320 1.457 . S
C328 C329 1.372 . S
C328 C333 1.364 . S
C329 H308 0.952 . S
C329 C328 1.372 . S
C329 C330 1.389 . S
C330 H309 0.949 . S
C330 C329 1.389 . S
C330 C331 1.388 . S
C331 C330 1.388 . S
C331 C332 1.373 . S
C332 H310 0.950 . S
C332 C331 1.373 . S
C332 C333 1.379 . S
C333 H311 0.948 . S
C333 C328 1.364 . S
C333 C332 1.379 . S
C334 C303 1.383 . S
C334 C321 1.479 . S
C334 C335 1.398 . S
C335 C300 1.382 . S
C335 H312 0.951 . S
C335 C334 1.398 . S
C336 C337 1.363 . S
C336 C342 1.379 . S
C336 N344 1.356 . S
C337 C336 1.363 . S
C337 C343 1.363 . S
C338 C339 1.363 . S
C338 C343 1.379 . S
C338 N345 1.356 . S
C339 C338 1.363 . S
C339 C342 1.363 . S
N340 C342 1.356 . S
N340 H352 0.984 . S
N340 H353 0.985 . S
N341 C343 1.356 . S
N341 H346 0.984 . S
N341 H347 0.985 . S
C342 C336 1.379 . S
C342 C339 1.363 . S
C342 N340 1.356 . S
C343 C337 1.363 . S
C343 C338 1.379 . S
C343 N341 1.356 . S
N344 C336 1.356 . S
N344 H350 0.984 . S
N344 H351 0.984 . S
N345 C338 1.356 . S
N345 H348 0.984 . S
N345 H349 0.985 . S
H346 N341 0.984 . S
H347 N341 0.985 . S
H348 N345 0.984 . S
H349 N345 0.985 . S
H350 N344 0.984 . S
H351 N344 0.984 . S
H352 N340 0.984 . S
H353 N340 0.985 . S
C354 C355 1.363 . S
C354 C360 1.379 . S
C354 N362 1.356 . S
C355 C354 1.363 . S
C355 C361 1.363 . S
C356 C357 1.363 . S
C356 C361 1.379 . S
C356 N363 1.356 . S
C357 C356 1.363 . S
C357 C360 1.363 . S
N358 C360 1.356 . S
N358 H370 0.984 . S
N358 H371 0.985 . S
N359 C361 1.356 . S
N359 H364 0.984 . S
N359 H365 0.985 . S
C360 C354 1.379 . S
C360 C357 1.363 . S
C360 N358 1.356 . S
C361 C355 1.363 . S
C361 C356 1.379 . S
C361 N359 1.356 . S
N362 C354 1.356 . S
N362 H368 0.984 . S
N362 H369 0.984 . S
N363 C356 1.356 . S
N363 H366 0.984 . S
N363 H367 0.985 . S
H364 N359 0.984 . S
H365 N359 0.985 . S
H366 N363 0.984 . S
H367 N363 0.985 . S
H368 N362 0.984 . S
H369 N362 0.984 . S
H370 N358 0.984 . S
H371 N358 0.985 . S
C372 C373 1.363 . S
C372 C378 1.379 . S
C372 N380 1.356 . S
C373 C372 1.363 . S
C373 C379 1.363 . S
C374 C375 1.363 . S
C374 C379 1.379 . S
C374 N381 1.356 . S
C375 C374 1.363 . S
C375 C378 1.363 . S
N376 C378 1.356 . S
N376 H388 0.984 . S
N376 H389 0.985 . S
N377 C379 1.356 . S
N377 H382 0.984 . S
N377 H383 0.985 . S
C378 C372 1.379 . S
C378 C375 1.363 . S
C378 N376 1.356 . S
C379 C373 1.363 . S
C379 C374 1.379 . S
C379 N377 1.356 . S
N380 C372 1.356 . S
N380 H386 0.984 . S
N380 H387 0.984 . S
N381 C374 1.356 . S
N381 H384 0.984 . S
N381 H385 0.985 . S
H382 N377 0.984 . S
H383 N377 0.985 . S
H384 N381 0.984 . S
H385 N381 0.985 . S
H386 N380 0.984 . S
H387 N380 0.984 . S
H388 N376 0.984 . S
H389 N376 0.985 . S
C390 C391 1.363 . S
C390 C396 1.379 . S
C390 N398 1.356 . S
C391 C390 1.363 . S
C391 C397 1.363 . S
C392 C393 1.363 . S
C392 C397 1.379 . S
C392 N399 1.356 . S
C393 C392 1.363 . S
C393 C396 1.363 . S
N394 C396 1.356 . S
N394 H406 0.984 . S
N394 H407 0.985 . S
N395 C397 1.356 . S
N395 H400 0.984 . S
N395 H401 0.985 . S
C396 C390 1.379 . S
C396 C393 1.363 . S
C396 N394 1.356 . S
C397 C391 1.363 . S
C397 C392 1.379 . S
C397 N395 1.356 . S
N398 C390 1.356 . S
N398 H404 0.984 . S
N398 H405 0.984 . S
N399 C392 1.356 . S
N399 H402 0.984 . S
N399 H403 0.985 . S
H400 N395 0.984 . S
H401 N395 0.985 . S
H402 N399 0.984 . S
H403 N399 0.985 . S
H404 N398 0.984 . S
H405 N398 0.984 . S
H406 N394 0.984 . S
H407 N394 0.985 . S
C408 C409 1.363 . S
C408 C414 1.379 . S
C408 N416 1.356 . S
C409 C408 1.363 . S
C409 C415 1.363 . S
C410 C411 1.363 . S
C410 C415 1.379 . S
C410 N417 1.356 . S
C411 C410 1.363 . S
C411 C414 1.363 . S
N412 C414 1.356 . S
N412 H424 0.984 . S
N412 H425 0.985 . S
N413 C415 1.356 . S
N413 H418 0.984 . S
N413 H419 0.985 . S
C414 C408 1.379 . S
C414 C411 1.363 . S
C414 N412 1.356 . S
C415 C409 1.363 . S
C415 C410 1.379 . S
C415 N413 1.356 . S
N416 C408 1.356 . S
N416 H422 0.984 . S
N416 H423 0.984 . S
N417 C410 1.356 . S
N417 H420 0.984 . S
N417 H421 0.985 . S
H418 N413 0.984 . S
H419 N413 0.985 . S
H420 N417 0.984 . S
H421 N417 0.985 . S
H422 N416 0.984 . S
H423 N416 0.984 . S
H424 N412 0.984 . S
H425 N412 0.985 . S
C426 C427 1.363 . S
C426 C432 1.379 . S
C426 N434 1.356 . S
C427 C426 1.363 . S
C427 C433 1.363 . S
C428 C429 1.363 . S
C428 C433 1.379 . S
C428 N435 1.356 . S
C429 C428 1.363 . S
C429 C432 1.363 . S
N430 C432 1.356 . S
N430 H442 0.984 . S
N430 H443 0.985 . S
N431 C433 1.356 . S
N431 H436 0.984 . S
N431 H437 0.985 . S
C432 C426 1.379 . S
C432 C429 1.363 . S
C432 N430 1.356 . S
C433 C427 1.363 . S
C433 C428 1.379 . S
C433 N431 1.356 . S
N434 C426 1.356 . S
N434 H440 0.984 . S
N434 H441 0.984 . S
N435 C428 1.356 . S
N435 H438 0.984 . S
N435 H439 0.985 . S
H436 N431 0.984 . S
H437 N431 0.985 . S
H438 N435 0.984 . S
H439 N435 0.985 . S
H440 N434 0.984 . S
H441 N434 0.984 . S
H442 N430 0.984 . S
H443 N430 0.985 . S
C444 C445 1.363 . S
C444 C450 1.379 . S
C444 N452 1.356 . S
C445 C444 1.363 . S
C445 C451 1.363 . S
C446 C447 1.363 . S
C446 C451 1.379 . S
C446 N453 1.356 . S
C447 C446 1.363 . S
C447 C450 1.363 . S
N448 C450 1.356 . S
N448 H460 0.984 . S
N448 H461 0.985 . S
N449 C451 1.356 . S
N449 H454 0.984 . S
N449 H455 0.985 . S
C450 C444 1.379 . S
C450 C447 1.363 . S
C450 N448 1.356 . S
C451 C445 1.363 . S
C451 C446 1.379 . S
C451 N449 1.356 . S
N452 C444 1.356 . S
N452 H458 0.984 . S
N452 H459 0.984 . S
N453 C446 1.356 . S
N453 H456 0.984 . S
N453 H457 0.985 . S
H454 N449 0.984 . S
H455 N449 0.985 . S
H456 N453 0.984 . S
H457 N453 0.985 . S
H458 N452 0.984 . S
H459 N452 0.984 . S
H460 N448 0.984 . S
H461 N448 0.985 . S
C462 C463 1.363 . S
C462 C468 1.379 . S
C462 N470 1.356 . S
C463 C462 1.363 . S
C463 C469 1.363 . S
C464 C465 1.363 . S
C464 C469 1.379 . S
C464 N471 1.356 . S
C465 C464 1.363 . S
C465 C468 1.363 . S
N466 C468 1.356 . S
N466 H478 0.984 . S
N466 H479 0.985 . S
N467 C469 1.356 . S
N467 H472 0.984 . S
N467 H473 0.985 . S
C468 C462 1.379 . S
C468 C465 1.363 . S
C468 N466 1.356 . S
C469 C463 1.363 . S
C469 C464 1.379 . S
C469 N467 1.356 . S
N470 C462 1.356 . S
N470 H476 0.984 . S
N470 H477 0.984 . S
N471 C464 1.356 . S
N471 H474 0.984 . S
N471 H475 0.985 . S
H472 N467 0.984 . S
H473 N467 0.985 . S
H474 N471 0.984 . S
H475 N471 0.985 . S
H476 N470 0.984 . S
H477 N470 0.984 . S
H478 N466 0.984 . S
H479 N466 0.985 . S
C480 C481 1.363 . S
C480 C486 1.379 . S
C480 N488 1.356 . S
C481 C480 1.363 . S
C481 C487 1.363 . S
C482 C483 1.363 . S
C482 C487 1.379 . S
C482 N489 1.356 . S
C483 C482 1.363 . S
C483 C486 1.363 . S
N484 C486 1.356 . S
N484 H496 0.984 . S
N484 H497 0.985 . S
N485 C487 1.356 . S
N485 H490 0.984 . S
N485 H491 0.985 . S
C486 C480 1.379 . S
C486 C483 1.363 . S
C486 N484 1.356 . S
C487 C481 1.363 . S
C487 C482 1.379 . S
C487 N485 1.356 . S
N488 C480 1.356 . S
N488 H494 0.984 . S
N488 H495 0.984 . S
N489 C482 1.356 . S
N489 H492 0.984 . S
N489 H493 0.985 . S
H490 N485 0.984 . S
H491 N485 0.985 . S
H492 N489 0.984 . S
H493 N489 0.985 . S
H494 N488 0.984 . S
H495 N488 0.984 . S
H496 N484 0.984 . S
H497 N484 0.985 . S
C498 C499 1.363 . S
C498 C504 1.379 . S
C498 N506 1.356 . S
C499 C498 1.363 . S
C499 C505 1.363 . S
C500 C501 1.363 . S
C500 C505 1.379 . S
C500 N507 1.356 . S
C501 C500 1.363 . S
C501 C504 1.363 . S
N502 C504 1.356 . S
N502 H514 0.984 . S
N502 H515 0.985 . S
N503 C505 1.356 . S
N503 H508 0.984 . S
N503 H509 0.985 . S
C504 C498 1.379 . S
C504 C501 1.363 . S
C504 N502 1.356 . S
C505 C499 1.363 . S
C505 C500 1.379 . S
C505 N503 1.356 . S
N506 C498 1.356 . S
N506 H512 0.984 . S
N506 H513 0.984 . S
N507 C500 1.356 . S
N507 H510 0.984 . S
N507 H511 0.985 . S
H508 N503 0.984 . S
H509 N503 0.985 . S
H510 N507 0.984 . S
H511 N507 0.985 . S
H512 N506 0.984 . S
H513 N506 0.984 . S
H514 N502 0.984 . S
H515 N502 0.985 . S
C516 C517 1.363 . S
C516 C522 1.379 . S
C516 N524 1.356 . S
C517 C516 1.363 . S
C517 C523 1.363 . S
C518 C519 1.363 . S
C518 C523 1.379 . S
C518 N525 1.356 . S
C519 C518 1.363 . S
C519 C522 1.363 . S
N520 C522 1.356 . S
N520 H532 0.984 . S
N520 H533 0.985 . S
N521 C523 1.356 . S
N521 H526 0.984 . S
N521 H527 0.985 . S
C522 C516 1.379 . S
C522 C519 1.363 . S
C522 N520 1.356 . S
C523 C517 1.363 . S
C523 C518 1.379 . S
C523 N521 1.356 . S
N524 C516 1.356 . S
N524 H530 0.984 . S
N524 H531 0.984 . S
N525 C518 1.356 . S
N525 H528 0.984 . S
N525 H529 0.985 . S
H526 N521 0.984 . S
H527 N521 0.985 . S
H528 N525 0.984 . S
H529 N525 0.985 . S
H530 N524 0.984 . S
H531 N524 0.984 . S
H532 N520 0.984 . S
H533 N520 0.985 . S
C534 C535 1.363 . S
C534 C540 1.379 . S
C534 N542 1.356 . S
C535 C534 1.363 . S
C535 C541 1.363 . S
C536 C537 1.363 . S
C536 C541 1.379 . S
C536 N543 1.356 . S
C537 C536 1.363 . S
C537 C540 1.363 . S
N538 C540 1.356 . S
N538 H550 0.984 . S
N538 H551 0.985 . S
N539 C541 1.356 . S
N539 H544 0.984 . S
N539 H545 0.985 . S
C540 C534 1.379 . S
C540 C537 1.363 . S
C540 N538 1.356 . S
C541 C535 1.363 . S
C541 C536 1.379 . S
C541 N539 1.356 . S
N542 C534 1.356 . S
N542 H548 0.984 . S
N542 H549 0.984 . S
N543 C536 1.356 . S
N543 H546 0.984 . S
N543 H547 0.985 . S
H544 N539 0.984 . S
H545 N539 0.985 . S
H546 N543 0.984 . S
H547 N543 0.985 . S
H548 N542 0.984 . S
H549 N542 0.984 . S
H550 N538 0.984 . S
H551 N538 0.985 . S
C552 C553 1.363 . S
C552 C558 1.378 . S
C552 N560 1.367 . S
C553 C552 1.363 . S
C553 C559 1.363 . S
C554 C555 1.363 . S
C554 C559 1.379 . S
C554 N561 1.356 . S
C555 C554 1.363 . S
C555 C558 1.374 . S
N556 C558 1.349 1_655 S
N556 H568 0.984 . S
N556 H569 0.985 . S
N557 C559 1.356 . S
N557 H562 0.984 . S
N557 H563 0.985 . S
C558 C552 1.378 . S
C558 C555 1.374 . S
C558 N556 1.349 1_455 S
C559 C553 1.363 . S
C559 C554 1.379 . S
C559 N557 1.356 . S
N560 C552 1.367 . S
N560 H566 0.971 1_455 S
N560 H567 0.988 . S
N561 C554 1.356 . S
N561 H564 0.984 . S
N561 H565 0.985 . S
H562 N557 0.984 . S
H563 N557 0.985 . S
H564 N561 0.984 . S
H565 N561 0.985 . S
H566 N560 0.971 1_655 S
H567 N560 0.988 . S
H568 N556 0.984 . S
H569 N556 0.985 . S
C570 C571 1.363 . S
C570 C576 1.379 . S
C570 N578 1.356 . S
C571 C570 1.363 . S
C571 C577 1.363 . S
C572 C573 1.363 . S
C572 C577 1.379 . S
C572 N579 1.356 1_545 S
C573 C572 1.363 . S
C573 C576 1.363 . S
N574 C576 1.356 . S
N574 H586 0.984 . S
N574 H587 0.985 . S
N575 C577 1.356 1_565 S
N575 H580 0.984 . S
N575 H581 0.985 . S
C576 C570 1.379 . S
C576 C573 1.363 . S
C576 N574 1.356 . S
C577 C571 1.363 . S
C577 C572 1.379 . S
C577 N575 1.356 1_545 S
N578 C570 1.356 . S
N578 H584 0.984 . S
N578 H585 0.984 . S
N579 C572 1.356 1_565 S
N579 H582 0.984 . S
N579 H583 0.985 . S
H580 N575 0.984 . S
H581 N575 0.985 . S
H582 N579 0.984 . S
H583 N579 0.985 . S
H584 N578 0.984 . S
H585 N578 0.984 . S
H586 N574 0.984 . S
H587 N574 0.985 . S
C588 C589 1.363 . S
C588 C594 1.379 . S
C588 N596 1.356 . S
C589 C588 1.363 . S
C589 C595 1.363 . S
C590 C591 1.363 . S
C590 C595 1.379 . S
C590 N597 1.356 . S
C591 C590 1.363 . S
C591 C594 1.363 . S
N592 C594 1.356 . S
N592 H604 0.984 . S
N592 H605 0.985 . S
N593 C595 1.356 . S
N593 H598 0.984 . S
N593 H599 0.985 . S
C594 C588 1.379 . S
C594 C591 1.363 . S
C594 N592 1.356 . S
C595 C589 1.363 . S
C595 C590 1.379 . S
C595 N593 1.356 . S
N596 C588 1.356 . S
N596 H602 0.984 . S
N596 H603 0.984 . S
N597 C590 1.356 . S
N597 H600 0.984 . S
N597 H601 0.985 . S
H598 N593 0.984 . S
H599 N593 0.985 . S
H600 N597 0.984 . S
H601 N597 0.985 . S
H602 N596 0.984 . S
H603 N596 0.984 . S
H604 N592 0.984 . S
H605 N592 0.985 . S
C606 C607 1.363 1_565 S
C606 C612 1.379 . S
C606 N614 1.356 . S
C607 C606 1.363 1_545 S
C607 C613 1.363 . S
C608 C609 1.363 . S
C608 C613 1.379 . S
C608 N615 1.356 . S
C609 C608 1.363 . S
C609 C612 1.363 1_545 S
N610 C612 1.356 . S
N610 H622 0.984 . S
N610 H623 0.985 . S
N611 C613 1.356 . S
N611 H616 0.984 . S
N611 H617 0.985 . S
C612 C606 1.379 . S
C612 C609 1.363 1_565 S
C612 N610 1.356 . S
C613 C607 1.363 . S
C613 C608 1.379 . S
C613 N611 1.356 . S
N614 C606 1.356 . S
N614 H620 0.984 . S
N614 H621 0.984 . S
N615 C608 1.356 . S
N615 H618 0.984 . S
N615 H619 0.985 . S
H616 N611 0.984 . S
H617 N611 0.985 . S
H618 N615 0.984 . S
H619 N615 0.985 . S
H620 N614 0.984 . S
H621 N614 0.984 . S
H622 N610 0.984 . S
H623 N610 0.985 . S
C624 C625 1.363 . S
C624 C630 1.379 . S
C624 N632 1.356 . S
C625 C624 1.363 . S
C625 C631 1.363 . S
C626 C627 1.363 . S
C626 C631 1.379 . S
C626 N633 1.356 . S
C627 C626 1.363 . S
C627 C630 1.363 . S
N628 C630 1.356 . S
N628 H640 0.984 . S
N628 H641 0.985 . S
N629 C631 1.356 . S
N629 H634 0.984 . S
N629 H635 0.985 . S
C630 C624 1.379 . S
C630 C627 1.363 . S
C630 N628 1.356 . S
C631 C625 1.363 . S
C631 C626 1.379 . S
C631 N629 1.356 . S
N632 C624 1.356 . S
N632 H638 0.984 . S
N632 H639 0.984 . S
N633 C626 1.356 . S
N633 H636 0.984 . S
N633 H637 0.985 . S
H634 N629 0.984 . S
H635 N629 0.985 . S
H636 N633 0.984 . S
H637 N633 0.985 . S
H638 N632 0.984 . S
H639 N632 0.984 . S
H640 N628 0.984 . S
H641 N628 0.985 . S
C642 C643 1.363 . S
C642 C648 1.379 . S
C642 N650 1.356 . S
C643 C642 1.363 . S
C643 C649 1.362 1_455 S
C644 C645 1.363 . S
C644 C649 1.379 1_455 S
C644 N651 1.356 1_455 S
C645 C644 1.363 . S
C645 C648 1.363 . S
N646 C648 1.356 . S
N646 H658 0.984 . S
N646 H659 0.985 . S
N647 C649 1.357 . S
N647 H652 0.984 . S
N647 H653 0.985 . S
C648 C642 1.379 . S
C648 C645 1.363 . S
C648 N646 1.356 . S
C649 C643 1.362 1_655 S
C649 C644 1.379 1_655 S
C649 N647 1.357 . S
N650 C642 1.356 . S
N650 H656 0.984 . S
N650 H657 0.984 . S
N651 C644 1.356 1_655 S
N651 H654 0.984 . S
N651 H655 0.985 . S
H652 N647 0.984 . S
H653 N647 0.985 . S
H654 N651 0.984 . S
H655 N651 0.985 . S
H656 N650 0.984 . S
H657 N650 0.984 . S
H658 N646 0.984 . S
H659 N646 0.985 . S
C337 C19 3.096 . S
C339 C325 3.001 . S
C355 C49 3.162 . S
C357 C253 3.067 . S
C373 C99 3.096 . S
C375 C289 3.000 . S
C391 C9 3.160 . S
C393 C301 3.111 . S
C411 C229 3.039 . S
C409 C59 3.094 . S
C429 C265 3.111 . S
C427 C89 3.160 . S
C445 C55 0.641 . S
C447 C181 0.609 . S
C463 C85 0.671 . S
C465 C193 0.604 . S
C481 C15 0.635 . S
C483 C121 0.628 . S
C501 C157 0.604 . S
C499 C45 0.671 . S
C519 C217 0.606 . S
C517 C95 0.639 . S
C535 C5 0.670 . S
C537 C145 0.609 . S
C555 C223 1.041 . S
C553 C18 1.035 . S
C571 C58 1.032 . S
C573 C151 1.025 . S
C589 C98 1.035 . S
C591 C187 1.041 . S
C609 C295 1.813 . S
C607 C48 1.727 . S
C627 C331 1.811 1_556 S
C625 C88 1.727 . S
C643 C8 1.727 . S
C645 C259 1.819 . S
