# Generated by pormake.
# Topology pts, (4,4)-cn, num edge types: 1
# Building blocks:
#     Node 0, Type 0, BuildingBlock: AZAVOO_clean_linker_0, # of connection points: 4
#     Node 1, Type 0, BuildingBlock: AZAVOO_clean_linker_0, # of connection points: 4
#     Node 2, Type 1, BuildingBlock: QUQFOY_clean_sbu_1, # of connection points: 4
#     Node 3, Type 1, BuildingBlock: QUQFOY_clean_sbu_1, # of connection points: 4
#     Edge 4, Type (0, 1), BuildingBlock: XIVTED_clean_linker_0, # of connection points: 2
#     Edge 5, Type (0, 1), BuildingBlock: XIVTED_clean_linker_0, # of connection points: 2
#     Edge 6, Type (0, 1), BuildingBlock: XIVTED_clean_linker_0, # of connection points: 2
#     Edge 7, Type (0, 1), BuildingBlock: XIVTED_clean_linker_0, # of connection points: 2
#     Edge 8, Type (0, 1), BuildingBlock: XIVTED_clean_linker_0, # of connection points: 2
#     Edge 9, Type (0, 1), BuildingBlock: XIVTED_clean_linker_0, # of connection points: 2
#     Edge 10, Type (0, 1), BuildingBlock: XIVTED_clean_linker_0, # of connection points: 2
#     Edge 11, Type (0, 1), BuildingBlock: XIVTED_clean_linker_0, # of connection points: 2
# Relax obj value: 0.198
# Max RMSD: 0.245
# Mean RMSD: 0.235
data_MOF--net-pts--node1-QUQFOY_clean_sbu_1--node2-AZAVOO_clean_linker_0--edge1-XIVTED_clean_linker_0
_symmetry_space_group_name_H-M    P1
_symmetry_Int_Tables_number       1
_symmetry_cell_setting            triclinic
loop_
_symmetry_equiv_pos_as_xyz
'x, y, z'
_cell_length_a     24.954744
_cell_length_b     28.065683
_cell_length_c     49.105557
_cell_angle_alpha  90.907631
_cell_angle_beta   92.885305
_cell_angle_gamma 90.062384
loop_
_atom_site_label
_atom_site_type_symbol
_atom_site_fract_x
_atom_site_fract_y
_atom_site_fract_z
_atom_type_partial_charge
H0 H 0.35991 0.15976 0.82776 0.0
H1 H 0.87598 0.99172 0.98601 0.0
H2 H 0.42564 0.18039 0.97456 0.0
H3 H 0.33676 0.18618 0.95168 0.0
H4 H 0.31572 0.03418 0.96031 0.0
H5 H 0.40302 0.02961 0.98428 0.0
H6 H 0.50196 0.16918 0.92623 0.0
H7 H 0.4486 0.17854 0.8834 0.0
H8 H 0.39252 0.03329 0.88878 0.0
H9 H 0.44644 0.02436 0.93141 0.0
H10 H 0.63298 0.14305 0.93833 0.0
H11 H 0.67669 0.13383 0.89504 0.0
H12 H 0.59654 0.9983 0.88092 0.0
H13 H 0.55475 0.00717 0.92471 0.0
H14 H 0.67042 0.13899 0.00407 0.0
H15 H 0.76699 0.12348 0.00743 0.0
H16 H 0.73861 0.98179 0.97382 0.0
H17 H 0.64211 0.9976 0.97087 0.0
H18 H 0.58127 0.1524 0.0492 0.0
H19 H 0.63485 0.14558 0.09202 0.0
H20 H 0.66528 0.99736 0.0729 0.0
H21 H 0.60928 0.00405 0.03092 0.0
H22 H 0.46808 0.17359 0.03207 0.0
H23 H 0.41657 0.17955 0.07312 0.0
H24 H 0.42522 0.02639 0.08125 0.0
H25 H 0.47838 0.02135 0.04089 0.0
O26 O 0.38177 0.15496 0.84432 0.0
O27 O 0.35502 0.07979 0.84778 0.0
O28 O 0.85044 0.07206 0.00201 0.0
O29 O 0.838 0.99886 0.98483 0.0
C30 C 0.47952 0.09746 0.98299 0.0
C31 C 0.50729 0.0918 0.9588 0.0
C32 C 0.56269 0.0822 0.96017 0.0
C33 C 0.59068 0.07868 0.98577 0.0
C34 C 0.56267 0.08392 0.01003 0.0
C35 C 0.50701 0.09339 0.00856 0.0
C36 C 0.42078 0.10448 0.98066 0.0
C37 C 0.40037 0.14896 0.97285 0.0
C38 C 0.34995 0.15196 0.95936 0.0
C39 C 0.31988 0.11036 0.95316 0.0
C40 C 0.33752 0.06703 0.96456 0.0
C41 C 0.38758 0.06424 0.97841 0.0
C42 C 0.47788 0.09618 0.93188 0.0
C43 C 0.47851 0.13934 0.91795 0.0
C44 C 0.44785 0.1446 0.89357 0.0
C45 C 0.41614 0.1067 0.88271 0.0
C46 C 0.41644 0.06319 0.89657 0.0
C47 C 0.4472 0.05798 0.92089 0.0
C48 C 0.5909 0.07575 0.93457 0.0
C49 C 0.62531 0.11127 0.92592 0.0
C50 C 0.64962 0.10617 0.90106 0.0
C51 C 0.6397 0.06549 0.88441 0.0
C52 C 0.60534 0.02986 0.89333 0.0
C53 C 0.58129 0.03491 0.91824 0.0
C54 C 0.64934 0.06947 0.98718 0.0
C55 C 0.68518 0.10464 -0.00254 0.0
C56 C 0.74029 0.09569 -0.00067 0.0
C57 C 0.76054 0.05136 0.99088 0.0
C58 C 0.72441 0.0163 0.98048 0.0
C59 C 0.66929 0.02527 0.97868 0.0
C60 C 0.59169 0.0788 0.03692 0.0
C61 C 0.59871 0.11828 0.05458 0.0
C62 C 0.62977 0.11439 0.07889 0.0
C63 C 0.65485 0.07102 0.08582 0.0
C64 C 0.64613 0.03114 0.06843 0.0
C65 C 0.61459 0.03497 0.04428 0.0
C66 C 0.47688 0.09708 0.03367 0.0
C67 C 0.45903 0.14149 0.04293 0.0
C68 C 0.42939 0.14472 0.06627 0.0
C69 C 0.41666 0.10345 0.08055 0.0
C70 C 0.43508 0.05902 0.07114 0.0
C71 C 0.46509 0.05593 0.04797 0.0
C72 C 0.38251 0.11278 0.85721 0.0
C73 C 0.81904 0.04159 0.99294 0.0
H74 H 0.0518 0.49254 0.31981 0.0
H75 H 0.17224 0.86567 0.53997 0.0
H76 H 0.01658 0.47537 0.4628 0.0
H77 H 0.00533 0.39842 0.44011 0.0
H78 H 0.16093 0.3549 0.47399 0.0
H79 H 0.17325 0.43412 0.49492 0.0
H80 H 0.02926 0.56444 0.43108 0.0
H81 H 0.02433 0.54087 0.38285 0.0
H82 H 0.17943 0.47313 0.39328 0.0
H83 H 0.18416 0.49747 0.44142 0.0
H84 H 0.03462 0.65847 0.46624 0.0
H85 H 0.03296 0.72211 0.43275 0.0
H86 H 0.18946 0.67863 0.40787 0.0
H87 H 0.19091 0.61509 0.44164 0.0
H88 H 0.03978 0.65896 0.52934 0.0
H89 H 0.04343 0.74265 0.54399 0.0
H90 H 0.20257 0.75436 0.51364 0.0
H91 H 0.19875 0.67036 0.49952 0.0
H92 H 0.0396 0.56195 0.56247 0.0
H93 H 0.03484 0.60565 0.60536 0.0
H94 H 0.19268 0.66453 0.59407 0.0
H95 H 0.19936 0.61569 0.55335 0.0
H96 H 0.01805 0.47853 0.52907 0.0
H97 H 0.00711 0.41396 0.56129 0.0
H98 H 0.1771 0.41846 0.58272 0.0
H99 H 0.18762 0.48361 0.55048 0.0
O100 O 0.05481 0.50187 0.3389 0.0
O101 O 0.13458 0.46748 0.34535 0.0
O102 O 0.08826 0.82432 0.5501 0.0
O103 O 0.16977 0.83247 0.5344 0.0
C104 C 0.10622 0.5107 0.48905 0.0
C105 C 0.10965 0.54634 0.46914 0.0
C106 C 0.11402 0.59466 0.47724 0.0
C107 C 0.11709 0.6073 0.5052 0.0
C108 C 0.11644 0.57147 0.52523 0.0
C109 C 0.10982 0.52319 0.51708 0.0
C110 C 0.09605 0.46059 0.48008 0.0
C111 C 0.04797 0.44898 0.46555 0.0
C112 C 0.04143 0.4045 0.45283 0.0
C113 C 0.08244 0.37008 0.45491 0.0
C114 C 0.129 0.38073 0.47135 0.0
C115 C 0.13591 0.42578 0.48364 0.0
C116 C 0.10722 0.53294 0.43968 0.0
C117 C 0.06235 0.54491 0.42284 0.0
C118 C 0.05954 0.53121 0.39533 0.0
C119 C 0.1015 0.50512 0.3842 0.0
C120 C 0.14644 0.49323 0.40119 0.0
C121 C 0.14926 0.50707 0.42868 0.0
C122 C 0.113 0.63242 0.45642 0.0
C123 C 0.06862 0.66287 0.45363 0.0
C124 C 0.06783 0.69923 0.43459 0.0
C125 C 0.11122 0.70545 0.41782 0.0
C126 C 0.15534 0.67443 0.42041 0.0
C127 C 0.1563 0.63827 0.43966 0.0
C128 C 0.11909 0.65856 0.51348 0.0
C129 C 0.07545 0.67963 0.52596 0.0
C130 C 0.07761 0.72746 0.53425 0.0
C131 C 0.12334 0.75521 0.53 0.0
C132 C 0.16678 0.73403 0.51724 0.0
C133 C 0.16467 0.6861 0.50908 0.0
C134 C 0.11959 0.58602 0.55453 0.0
C135 C 0.07426 0.58226 0.57008 0.0
C136 C 0.07111 0.60858 0.59433 0.0
C137 C 0.11226 0.64081 0.60289 0.0
C138 C 0.15982 0.64057 0.58856 0.0
C139 C 0.16378 0.61265 0.56498 0.0
C140 C 0.10354 0.48579 0.53762 0.0
C141 C 0.05282 0.46578 0.54089 0.0
C142 C 0.04666 0.42905 0.55928 0.0
C143 C 0.09129 0.41128 0.57446 0.0
C144 C 0.14215 0.43134 0.57111 0.0
C145 C 0.14816 0.46864 0.55293 0.0
C146 C 0.09818 0.49029 0.35501 0.0
C147 C 0.12585 0.80603 0.53881 0.0
O148 O 0.98956 0.02447 0.22619 0.0
Cd149 Cd 0.06419 0.02092 0.24619 0.0
Cd150 Cd 0.051 0.11475 0.25325 0.0
O151 O 0.97775 0.10128 0.2336 0.0
O152 O 0.07729 0.95247 0.25409 0.0
O153 O 0.06981 0.00798 0.28621 0.0
C154 C 0.07733 0.96385 0.27964 0.0
C155 C 0.05301 0.151 0.29604 0.0
C156 C 0.96086 0.06167 0.22368 0.0
C157 C 0.14361 0.08622 0.22115 0.0
O158 O 0.1163 0.12122 0.22951 0.0
O159 O 0.13023 0.04373 0.22636 0.0
O160 O 0.04163 0.17496 0.27431 0.0
O161 O 0.06379 0.10622 0.29351 0.0
O162 O 0.93461 0.07795 0.74489 0.0
Cd163 Cd 0.01413 0.09025 0.73779 0.0
Cd164 Cd 0.01884 0.99104 0.74703 0.0
O165 O 0.93792 0.00023 0.75053 0.0
O166 O 0.01177 0.15912 0.7289 0.0
O167 O 0.03961 0.10431 0.7002 0.0
C168 C 0.02999 0.14858 0.70554 0.0
C169 C 0.04484 0.92427 0.72217 0.0
C170 C 0.91156 0.03887 0.74979 0.0
C171 C 0.08235 0.05506 0.7861 0.0
O172 O 0.06722 0.01278 0.78008 0.0
O173 O 0.06728 0.08976 0.77128 0.0
O174 O 0.025 0.92037 0.74573 0.0
O175 O 0.05084 0.96647 0.71265 0.0
H176 H 0.42501 0.0512 0.12744 0.0
H177 H 0.16652 0.16585 0.19225 0.0
H178 H 0.33045 0.16209 0.08847 0.0
H179 H 0.22531 0.02491 0.21099 0.0
H180 H 0.2385 0.17497 0.16054 0.0
H181 H 0.36337 0.05117 0.16452 0.0
C182 C 0.3914 0.07559 0.12664 0.0
C183 C 0.38261 0.10624 0.10452 0.0
C184 C 0.23577 0.14226 0.1718 0.0
C185 C 0.31261 0.10698 0.14725 0.0
C186 C 0.19494 0.1371 0.18996 0.0
C187 C 0.18967 0.09437 0.20406 0.0
C188 C 0.27192 0.1047 0.16806 0.0
C189 C 0.22755 0.05824 0.2003 0.0
C190 C 0.35644 0.0757 0.14791 0.0
C191 C 0.33917 0.13803 0.10511 0.0
N192 N 0.26702 0.06419 0.18261 0.0
N193 N 0.30563 0.13741 0.12606 0.0
H194 H 0.15032 0.32934 0.58003 0.0
H195 H 0.99367 0.2398 0.70732 0.0
H196 H 0.01626 0.40403 0.61266 0.0
H197 H 0.08715 0.14422 0.65902 0.0
H198 H 0.00958 0.30332 0.67549 0.0
H199 H 0.136 0.26402 0.61162 0.0
C200 C 0.11811 0.33204 0.59396 0.0
C201 C 0.08434 0.37201 0.59377 0.0
C202 C 0.02654 0.26845 0.67177 0.0
C203 C 0.06784 0.29784 0.62978 0.0
C204 C 0.01761 0.23215 0.68999 0.0
C205 C 0.0391 0.1866 0.6858 0.0
C206 C 0.05776 0.2595 0.64929 0.0
C207 C 0.06968 0.17879 0.66293 0.0
C208 C 0.10974 0.29471 0.61179 0.0
C209 C 0.04289 0.37365 0.61201 0.0
N210 N 0.07839 0.21503 0.64555 0.0
N211 N 0.03596 0.33721 0.62934 0.0
H212 H 0.66979 0.99697 0.12156 0.0
H213 H 0.9079 0.98294 0.20202 0.0
H214 H 0.72699 0.13851 0.1053 0.0
H215 H 0.89645 0.13623 0.20824 0.0
H216 H 0.82749 0.98196 0.17157 0.0
H217 H 0.73834 0.99092 0.15867 0.0
C218 C 0.69683 0.02671 0.1257 0.0
C219 C 0.69287 0.06813 0.11002 0.0
C220 C 0.84171 0.0157 0.18012 0.0
C221 C 0.77168 0.06128 0.15234 0.0
C222 C 0.88799 0.01632 0.19734 0.0
C223 C 0.90913 0.05974 0.20762 0.0
C224 C 0.81662 0.05888 0.17304 0.0
C225 C 0.88171 0.1019 0.20079 0.0
C226 C 0.73609 0.02313 0.14686 0.0
C227 C 0.72806 0.10602 0.11689 0.0
N228 N 0.83733 0.10044 0.18365 0.0
N229 N 0.76601 0.1016 0.13746 0.0
H230 H 0.01625 0.68072 0.61712 0.0
H231 H 0.12401 0.91282 0.68588 0.0
H232 H 0.18703 0.6887 0.63732 0.0
H233 H -0.00445 0.8381 0.7226 0.0
H234 H 0.14364 0.83988 0.65957 0.0
H235 H 0.00269 0.74666 0.64856 0.0
C236 C 0.05103 0.69529 0.62836 0.0
C237 C 0.10314 0.67821 0.62426 0.0
C238 C 0.11147 0.83969 0.67357 0.0
C239 C 0.08726 0.75616 0.65923 0.0
C240 C 0.10004 0.88113 0.68836 0.0
C241 C 0.05816 0.88123 0.70636 0.0
C242 C 0.07959 0.79899 0.67626 0.0
C243 C 0.02833 0.8393 0.70899 0.0
C244 C 0.043 0.73352 0.6461 0.0
C245 C 0.14622 0.70081 0.63904 0.0
N246 N 0.03904 0.8 0.69375 0.0
N247 N 0.13742 0.73915 0.65551 0.0
H248 H 0.3158 0.16252 0.90643 0.0
H249 H 0.09907 0.99666 0.8298 0.0
H250 H 0.2273 0.05615 0.94845 0.0
H251 H 0.14012 0.13539 0.80017 0.0
H252 H 0.15099 0.01464 0.87231 0.0
H253 H 0.25472 0.15182 0.86675 0.0
C254 C 0.28272 0.1378 0.90772 0.0
C255 C 0.27693 0.11017 0.93104 0.0
C256 C 0.1484 0.04116 0.85652 0.0
C257 C 0.20793 0.09652 0.88494 0.0
C258 C 0.11924 0.03078 0.83217 0.0
C259 C 0.11547 0.06453 0.81137 0.0
C260 C 0.17461 0.08528 0.85992 0.0
C261 C 0.14199 0.10834 0.81566 0.0
C262 C 0.24816 0.13136 0.88481 0.0
C263 C 0.234 0.07769 0.93086 0.0
N264 N 0.17077 0.11733 0.83939 0.0
N265 N 0.20156 0.0713 0.90802 0.0
H266 H 0.16389 0.32127 0.43081 0.0
H267 H 0.98512 0.21939 0.31299 0.0
H268 H 0.99215 0.3178 0.43888 0.0
H269 H 0.12282 0.13667 0.33985 0.0
H270 H 0.99019 0.26291 0.35672 0.0
H271 H 0.15449 0.25816 0.39617 0.0
C272 C 0.12434 0.30672 0.42591 0.0
C273 C 0.07859 0.3259 0.43763 0.0
C274 C 0.01882 0.23479 0.35314 0.0
C275 C 0.06787 0.25485 0.39717 0.0
C276 C 0.0162 0.21028 0.32822 0.0
C277 C 0.05371 0.17467 0.32297 0.0
C278 C 0.06033 0.22464 0.37247 0.0
C279 C 0.09313 0.16392 0.34331 0.0
C280 C 0.11914 0.27081 0.40596 0.0
C281 C 0.02843 0.30561 0.42984 0.0
N282 N 0.09621 0.1896 0.36708 0.0
N283 N 0.02426 0.27205 0.40962 0.0
H284 H 0.65751 0.1333 0.8462 0.0
H285 H 0.85155 0.96315 0.7654 0.0
H286 H 0.68298 0.98428 0.86302 0.0
H287 H 0.84612 0.11604 0.75693 0.0
H288 H 0.77217 0.96734 0.79231 0.0
H289 H 0.71041 0.12455 0.80587 0.0
C290 C 0.67398 0.09869 0.84135 0.0
C291 C 0.66657 0.05966 0.8583 0.0
C292 C 0.7878 -0.00012 0.78416 0.0
C293 C 0.72648 0.04928 0.81199 0.0
C294 C 0.83303 0.99752 0.76866 0.0
C295 C 0.85641 0.03947 0.75948 0.0
C296 C 0.76595 0.04449 0.7906 0.0
C297 C 0.83009 0.08286 0.76402 0.0
C298 C 0.70381 0.09365 0.8182 0.0
C299 C 0.68758 0.01536 0.85058 0.0
N300 N 0.78682 0.08436 0.77972 0.0
N301 N 0.71709 0.01152 0.82817 0.0
H302 H 0.13918 0.70057 0.36468 0.0
H303 H 0.07022 0.97405 0.33492 0.0
H304 H 0.08064 0.79817 0.42507 0.0
H305 H 0.10271 0.87007 0.27217 0.0
H306 H 0.08161 0.9119 0.36909 0.0
H307 H 0.13428 0.76437 0.3313 0.0
C308 C 0.12568 0.73555 0.37095 0.0
C309 C 0.11009 0.7441 0.39762 0.0
C310 C 0.08629 0.90274 0.34784 0.0
C311 C 0.10404 0.81711 0.35957 0.0
C312 C 0.07989 0.9382 0.32834 0.0
C313 C 0.08531 0.92716 0.30066 0.0
C314 C 0.0985 0.856 0.33959 0.0
C315 C 0.09792 0.88013 0.29328 0.0
C316 C 0.12258 0.77186 0.35186 0.0
C317 C 0.09236 0.78993 0.4046 0.0
N318 N 0.10408 0.84629 0.31263 0.0
N319 N 0.08981 0.82474 0.38569 0.0
loop_
_geom_bond_atom_site_label_1
_geom_bond_atom_site_label_2
_geom_bond_distance
_geom_bond_site_symmetry_2
_ccdc_geom_bond_type
H0 O26 0.856 . S
H1 O29 0.854 . S
H2 C37 0.930 . S
H3 C38 0.930 . S
H4 C40 0.930 . S
H5 C41 0.930 . S
H6 C43 0.931 . S
H7 C44 0.930 . S
H8 C46 0.930 1_565 S
H9 C47 0.929 1_565 S
H10 C49 0.930 . S
H11 C50 0.931 . S
H12 C52 0.930 1_565 S
H13 C53 0.929 1_565 S
H14 C55 0.931 . S
H15 C56 0.930 . S
H16 C58 0.930 1_565 S
H17 C59 0.932 1_566 S
H18 C61 0.930 . S
H19 C62 0.929 . S
H20 C64 0.931 . S
H21 C65 0.930 . S
H22 C67 0.929 . S
H23 C68 0.931 . S
H24 C70 0.930 1_565 S
H25 C71 0.929 . S
O26 H0 0.856 . S
O26 C72 1.300 . S
O27 C72 1.209 . S
O28 C73 1.199 . S
O29 H1 0.854 . S
O29 C73 1.297 . S
C30 C31 1.404 . S
C30 C35 1.397 1_556 S
C30 C36 1.492 . S
C31 C30 1.404 . S
C31 C32 1.396 . S
C31 C42 1.492 . S
C32 C31 1.396 . S
C32 C33 1.397 . S
C32 C48 1.509 . S
C33 C32 1.397 . S
C33 C34 1.412 1_556 S
C33 C54 1.485 1_556 S
C34 C33 1.412 1_554 S
C34 C35 1.388 . S
C34 C60 1.490 . S
C35 C30 1.397 1_554 S
C35 C34 1.388 . S
C35 C66 1.519 . S
C36 C30 1.492 . S
C36 C37 1.363 . S
C36 C41 1.390 . S
C37 H2 0.930 . S
C37 C36 1.363 . S
C37 C38 1.372 . S
C38 H3 0.930 . S
C38 C37 1.372 . S
C38 C39 1.383 . S
C39 C38 1.383 . S
C39 C40 1.395 . S
C40 H4 0.930 . S
C40 C39 1.395 . S
C40 C41 1.362 . S
C41 H5 0.930 . S
C41 C36 1.390 . S
C41 C40 1.362 . S
C42 C31 1.492 . S
C42 C43 1.377 . S
C42 C47 1.397 . S
C43 H6 0.931 . S
C43 C42 1.377 . S
C43 C44 1.376 . S
C44 H7 0.930 . S
C44 C43 1.376 . S
C44 C45 1.376 . S
C45 C44 1.376 . S
C45 C46 1.378 . S
C45 C72 1.486 . S
C46 H8 0.930 1_545 S
C46 C45 1.378 . S
C46 C47 1.376 . S
C47 H9 0.929 1_545 S
C47 C42 1.397 . S
C47 C46 1.376 . S
C48 C32 1.509 . S
C48 C49 1.391 . S
C48 C53 1.386 . S
C49 H10 0.930 . S
C49 C48 1.391 . S
C49 C50 1.375 . S
C50 H11 0.931 . S
C50 C49 1.375 . S
C50 C51 1.375 . S
C51 C50 1.375 . S
C51 C52 1.361 . S
C52 H12 0.930 1_545 S
C52 C51 1.361 . S
C52 C53 1.399 . S
C53 H13 0.929 1_545 S
C53 C48 1.386 . S
C53 C52 1.399 . S
C54 C33 1.485 1_554 S
C54 C55 1.394 . S
C54 C59 1.360 . S
C55 H14 0.931 . S
C55 C54 1.394 . S
C55 C56 1.372 . S
C56 H15 0.930 . S
C56 C55 1.372 . S
C56 C57 1.397 . S
C57 C56 1.397 . S
C57 C58 1.390 . S
C57 C73 1.476 . S
C58 H16 0.930 1_545 S
C58 C57 1.390 . S
C58 C59 1.366 . S
C59 H17 0.932 1_544 S
C59 C54 1.360 . S
C59 C58 1.366 . S
C60 C34 1.490 . S
C60 C61 1.380 . S
C60 C65 1.386 . S
C61 H18 0.930 . S
C61 C60 1.380 . S
C61 C62 1.381 . S
C62 H19 0.929 . S
C62 C61 1.381 . S
C62 C63 1.371 . S
C63 C62 1.371 . S
C63 C64 1.380 . S
C64 H20 0.931 . S
C64 C63 1.380 . S
C64 C65 1.387 . S
C65 H21 0.930 . S
C65 C60 1.386 . S
C65 C64 1.387 . S
C66 C35 1.519 . S
C66 C67 1.377 . S
C66 C71 1.361 . S
C67 H22 0.929 . S
C67 C66 1.377 . S
C67 C68 1.386 . S
C68 H23 0.931 . S
C68 C67 1.386 . S
C68 C69 1.363 . S
C69 C68 1.363 . S
C69 C70 1.385 . S
C70 H24 0.930 1_545 S
C70 C69 1.385 . S
C70 C71 1.396 . S
C71 H25 0.929 . S
C71 C66 1.361 . S
C71 C70 1.396 . S
C72 O26 1.300 . S
C72 O27 1.209 . S
C72 C45 1.486 . S
C73 O28 1.199 . S
C73 O29 1.297 . S
C73 C57 1.476 . S
H74 O100 0.856 . S
H75 O103 0.854 . S
H76 C111 0.930 1_655 S
H77 C112 0.930 . S
H78 C114 0.930 . S
H79 C115 0.930 . S
H80 C117 0.931 1_655 S
H81 C118 0.930 . S
H82 C120 0.930 . S
H83 C121 0.929 . S
H84 C123 0.930 1_655 S
H85 C124 0.931 . S
H86 C126 0.930 . S
H87 C127 0.929 . S
H88 C129 0.931 1_655 S
H89 C130 0.930 1_655 S
H90 C132 0.930 . S
H91 C133 0.932 . S
H92 C135 0.930 1_655 S
H93 C136 0.929 1_655 S
H94 C138 0.931 . S
H95 C139 0.930 . S
H96 C141 0.929 1_655 S
H97 C142 0.931 1_655 S
H98 C144 0.930 . S
H99 C145 0.929 . S
O100 H74 0.856 . S
O100 C146 1.300 . S
O101 C146 1.209 . S
O102 C147 1.199 . S
O103 H75 0.854 . S
O103 C147 1.297 . S
C104 C105 1.404 . S
C104 C109 1.397 . S
C104 C110 1.492 . S
C105 C104 1.404 . S
C105 C106 1.396 . S
C105 C116 1.492 . S
C106 C105 1.396 . S
C106 C107 1.397 . S
C106 C122 1.509 . S
C107 C106 1.397 . S
C107 C108 1.412 . S
C107 C128 1.485 . S
C108 C107 1.412 . S
C108 C109 1.388 . S
C108 C134 1.490 . S
C109 C104 1.397 . S
C109 C108 1.388 . S
C109 C140 1.519 . S
C110 C104 1.492 . S
C110 C111 1.363 . S
C110 C115 1.390 . S
C111 H76 0.930 1_455 S
C111 C110 1.363 . S
C111 C112 1.372 1_455 S
C112 H77 0.930 . S
C112 C111 1.372 1_655 S
C112 C113 1.383 1_655 S
C113 C112 1.383 1_455 S
C113 C114 1.395 . S
C114 H78 0.930 . S
C114 C113 1.395 . S
C114 C115 1.362 . S
C115 H79 0.930 . S
C115 C110 1.390 . S
C115 C114 1.362 . S
C116 C105 1.492 . S
C116 C117 1.377 . S
C116 C121 1.397 . S
C117 H80 0.931 1_455 S
C117 C116 1.377 . S
C117 C118 1.376 . S
C118 H81 0.930 . S
C118 C117 1.376 . S
C118 C119 1.376 . S
C119 C118 1.376 . S
C119 C120 1.378 . S
C119 C146 1.486 . S
C120 H82 0.930 . S
C120 C119 1.378 . S
C120 C121 1.376 . S
C121 H83 0.929 . S
C121 C116 1.397 . S
C121 C120 1.376 . S
C122 C106 1.509 . S
C122 C123 1.391 . S
C122 C127 1.386 . S
C123 H84 0.930 1_455 S
C123 C122 1.391 . S
C123 C124 1.375 . S
C124 H85 0.931 . S
C124 C123 1.375 . S
C124 C125 1.375 . S
C125 C124 1.375 . S
C125 C126 1.361 . S
C126 H86 0.930 . S
C126 C125 1.361 . S
C126 C127 1.399 . S
C127 H87 0.929 . S
C127 C122 1.386 . S
C127 C126 1.399 . S
C128 C107 1.485 . S
C128 C129 1.394 . S
C128 C133 1.360 . S
C129 H88 0.931 1_455 S
C129 C128 1.394 . S
C129 C130 1.372 . S
C130 H89 0.930 1_455 S
C130 C129 1.372 . S
C130 C131 1.397 . S
C131 C130 1.397 . S
C131 C132 1.390 . S
C131 C147 1.476 . S
C132 H90 0.930 . S
C132 C131 1.390 . S
C132 C133 1.366 . S
C133 H91 0.932 . S
C133 C128 1.360 . S
C133 C132 1.366 . S
C134 C108 1.490 . S
C134 C135 1.380 . S
C134 C139 1.386 . S
C135 H92 0.930 1_455 S
C135 C134 1.380 . S
C135 C136 1.381 . S
C136 H93 0.929 1_455 S
C136 C135 1.381 . S
C136 C137 1.371 . S
C137 C136 1.371 . S
C137 C138 1.380 . S
C138 H94 0.931 . S
C138 C137 1.380 . S
C138 C139 1.387 . S
C139 H95 0.930 . S
C139 C134 1.386 . S
C139 C138 1.387 . S
C140 C109 1.519 . S
C140 C141 1.377 . S
C140 C145 1.361 . S
C141 H96 0.929 1_455 S
C141 C140 1.377 . S
C141 C142 1.386 . S
C142 H97 0.931 1_455 S
C142 C141 1.386 . S
C142 C143 1.363 . S
C143 C142 1.363 . S
C143 C144 1.385 . S
C144 H98 0.930 . S
C144 C143 1.385 . S
C144 C145 1.396 . S
C145 H99 0.929 . S
C145 C140 1.361 . S
C145 C144 1.396 . S
C146 O100 1.300 . S
C146 O101 1.209 . S
C146 C119 1.486 . S
C147 O102 1.199 . S
C147 O103 1.297 . S
C147 C131 1.476 . S
O148 Cd149 2.223 . S
O148 C156 1.315 1_455 S
Cd149 O148 2.223 . S
Cd149 O152 2.297 1_545 S
Cd149 O153 2.439 . S
Cd149 O159 2.240 . S
Cd150 O151 2.240 1_455 S
Cd150 O158 2.223 . S
Cd150 O160 2.297 . S
Cd150 O161 2.439 . S
O151 Cd150 2.240 1_655 S
O151 C156 1.279 . S
O152 Cd149 2.297 1_565 S
O152 C154 1.247 . S
O153 Cd149 2.439 . S
O153 C154 1.208 1_545 S
C154 O152 1.247 . S
C154 O153 1.208 1_565 S
C155 O160 1.247 . S
C155 O161 1.208 . S
C156 O148 1.315 1_655 S
C156 O151 1.279 . S
C157 O158 1.315 . S
C157 O159 1.279 . S
O158 Cd150 2.223 . S
O158 C157 1.315 . S
O159 Cd149 2.240 . S
O159 C157 1.279 . S
O160 Cd150 2.297 . S
O160 C155 1.247 . S
O161 Cd150 2.439 . S
O161 C155 1.208 . S
O162 Cd163 2.223 . S
O162 C170 1.315 1_455 S
Cd163 O162 2.223 . S
Cd163 O166 2.297 . S
Cd163 O167 2.439 . S
Cd163 O173 2.240 . S
Cd164 O165 2.240 1_465 S
Cd164 O172 2.223 . S
Cd164 O174 2.297 . S
Cd164 O175 2.439 . S
O165 Cd164 2.240 1_645 S
O165 C170 1.279 . S
O166 Cd163 2.297 . S
O166 C168 1.247 . S
O167 Cd163 2.439 . S
O167 C168 1.208 . S
C168 O166 1.247 . S
C168 O167 1.208 . S
C169 O174 1.247 . S
C169 O175 1.208 . S
C170 O162 1.315 1_655 S
C170 O165 1.279 . S
C171 O172 1.315 1_545 S
C171 O173 1.279 . S
O172 Cd164 2.223 . S
O172 C171 1.315 1_565 S
O173 Cd163 2.240 . S
O173 C171 1.279 . S
O174 Cd164 2.297 . S
O174 C169 1.247 . S
O175 Cd164 2.439 . S
O175 C169 1.208 . S
H176 C182 0.930 . S
H177 C186 0.930 . S
H178 C191 0.929 . S
H179 C189 0.929 . S
H180 C184 0.929 . S
H181 C190 0.929 . S
C182 H176 0.930 . S
C182 C183 1.367 . S
C182 C190 1.378 . S
C183 C182 1.367 . S
C183 C191 1.433 . S
C184 H180 0.929 . S
C184 C186 1.378 . S
C184 C188 1.350 . S
C185 C188 1.463 . S
C185 C190 1.350 . S
C185 N193 1.427 . S
C186 H177 0.930 . S
C186 C184 1.378 . S
C186 C187 1.367 . S
C187 C186 1.367 . S
C187 C189 1.433 . S
C188 C184 1.350 . S
C188 C185 1.463 . S
C188 N192 1.427 . S
C189 H179 0.929 . S
C189 C187 1.433 . S
C189 N192 1.384 . S
C190 H181 0.929 . S
C190 C182 1.378 . S
C190 C185 1.350 . S
C191 H178 0.929 . S
C191 C183 1.433 . S
C191 N193 1.384 . S
N192 C188 1.427 . S
N192 C189 1.384 . S
N193 C185 1.427 . S
N193 C191 1.384 . S
H194 C200 0.930 . S
H195 C204 0.930 . S
H196 C209 0.929 . S
H197 C207 0.929 . S
H198 C202 0.929 1_655 S
H199 C208 0.929 . S
C200 H194 0.930 . S
C200 C201 1.367 . S
C200 C208 1.378 . S
C201 C200 1.367 . S
C201 C209 1.433 . S
C202 H198 0.929 1_455 S
C202 C204 1.378 1_455 S
C202 C206 1.350 . S
C203 C206 1.463 . S
C203 C208 1.350 . S
C203 N211 1.427 . S
C204 H195 0.930 . S
C204 C202 1.378 1_655 S
C204 C205 1.367 1_655 S
C205 C204 1.367 1_455 S
C205 C207 1.433 . S
C206 C202 1.350 . S
C206 C203 1.463 . S
C206 N210 1.427 . S
C207 H197 0.929 . S
C207 C205 1.433 . S
C207 N210 1.384 . S
C208 H199 0.929 . S
C208 C200 1.378 . S
C208 C203 1.350 . S
C209 H196 0.929 . S
C209 C201 1.433 . S
C209 N211 1.384 . S
N210 C206 1.427 . S
N210 C207 1.384 . S
N211 C203 1.427 . S
N211 C209 1.384 . S
H212 C218 0.930 . S
H213 C222 0.930 . S
H214 C227 0.929 . S
H215 C225 0.929 . S
H216 C220 0.929 . S
H217 C226 0.929 . S
C218 H212 0.930 . S
C218 C219 1.367 . S
C218 C226 1.378 . S
C219 C218 1.367 . S
C219 C227 1.433 . S
C220 H216 0.929 . S
C220 C222 1.378 . S
C220 C224 1.350 . S
C221 C224 1.463 . S
C221 C226 1.350 . S
C221 N229 1.427 . S
C222 H213 0.930 . S
C222 C220 1.378 . S
C222 C223 1.367 . S
C223 C222 1.367 . S
C223 C225 1.433 . S
C224 C220 1.350 . S
C224 C221 1.463 . S
C224 N228 1.427 . S
C225 H215 0.929 . S
C225 C223 1.433 . S
C225 N228 1.384 . S
C226 H217 0.929 . S
C226 C218 1.378 . S
C226 C221 1.350 . S
C227 H214 0.929 . S
C227 C219 1.433 . S
C227 N229 1.384 . S
N228 C224 1.427 . S
N228 C225 1.384 . S
N229 C221 1.427 . S
N229 C227 1.384 . S
H230 C236 0.930 . S
H231 C240 0.930 . S
H232 C245 0.929 . S
H233 C243 0.918 1_655 S
H234 C238 0.929 . S
H235 C244 0.929 1_655 S
C236 H230 0.930 . S
C236 C237 1.367 1_655 S
C236 C244 1.378 1_655 S
C237 C236 1.367 1_455 S
C237 C245 1.433 . S
C238 H234 0.929 . S
C238 C240 1.378 . S
C238 C242 1.350 . S
C239 C242 1.463 . S
C239 C244 1.350 . S
C239 N247 1.427 . S
C240 H231 0.930 . S
C240 C238 1.378 . S
C240 C241 1.367 . S
C241 C240 1.367 . S
C241 C243 1.433 . S
C242 C238 1.350 . S
C242 C239 1.463 . S
C242 N246 1.427 . S
C243 H233 0.918 1_455 S
C243 C241 1.433 . S
C243 N246 1.384 . S
C244 H235 0.929 1_455 S
C244 C236 1.378 1_455 S
C244 C239 1.350 . S
C245 H232 0.929 . S
C245 C237 1.433 . S
C245 N247 1.384 . S
N246 C242 1.427 . S
N246 C243 1.384 . S
N247 C239 1.427 . S
N247 C245 1.384 . S
H248 C254 0.930 . S
H249 C258 0.930 . S
H250 C263 0.929 . S
H251 C261 0.929 . S
H252 C256 0.929 . S
H253 C262 0.929 . S
C254 H248 0.930 . S
C254 C255 1.367 . S
C254 C262 1.378 . S
C255 C254 1.367 . S
C255 C263 1.433 . S
C256 H252 0.929 . S
C256 C258 1.378 . S
C256 C260 1.350 . S
C257 C260 1.463 . S
C257 C262 1.350 . S
C257 N265 1.427 . S
C258 H249 0.930 . S
C258 C256 1.378 . S
C258 C259 1.367 . S
C259 C258 1.367 . S
C259 C261 1.433 . S
C260 C256 1.350 . S
C260 C257 1.463 . S
C260 N264 1.427 . S
C261 H251 0.929 . S
C261 C259 1.433 . S
C261 N264 1.384 . S
C262 H253 0.929 . S
C262 C254 1.378 . S
C262 C257 1.350 . S
C263 H250 0.929 . S
C263 C255 1.433 . S
C263 N265 1.384 . S
N264 C260 1.427 . S
N264 C261 1.384 . S
N265 C257 1.427 . S
N265 C263 1.384 . S
H266 C272 0.930 . S
H267 C276 0.930 1_655 S
H268 C281 0.929 . S
H269 C279 0.929 . S
H270 C274 0.929 1_655 S
H271 C280 0.929 . S
C272 H266 0.930 . S
C272 C273 1.367 . S
C272 C280 1.378 . S
C273 C272 1.367 . S
C273 C281 1.433 1_455 S
C274 H270 0.929 1_455 S
C274 C276 1.378 . S
C274 C278 1.350 . S
C275 C278 1.463 . S
C275 C280 1.350 . S
C275 N283 1.427 . S
C276 H267 0.930 1_455 S
C276 C274 1.378 . S
C276 C277 1.367 . S
C277 C276 1.367 . S
C277 C279 1.433 . S
C278 C274 1.350 . S
C278 C275 1.463 . S
C278 N282 1.427 . S
C279 H269 0.929 . S
C279 C277 1.433 . S
C279 N282 1.384 . S
C280 H271 0.929 . S
C280 C272 1.378 . S
C280 C275 1.350 . S
C281 H268 0.929 . S
C281 C273 1.433 1_655 S
C281 N283 1.384 1_655 S
N282 C278 1.427 . S
N282 C279 1.384 . S
N283 C275 1.427 . S
N283 C281 1.384 1_455 S
H284 C290 0.930 . S
H285 C294 0.930 1_455 S
H286 C299 0.929 . S
H287 C297 0.929 . S
H288 C292 0.929 . S
H289 C298 0.929 . S
C290 H284 0.930 . S
C290 C291 1.367 . S
C290 C298 1.378 . S
C291 C290 1.367 . S
C291 C299 1.433 . S
C292 H288 0.929 . S
C292 C294 1.378 . S
C292 C296 1.350 . S
C293 C296 1.463 . S
C293 C298 1.350 . S
C293 N301 1.427 . S
C294 H285 0.930 1_655 S
C294 C292 1.378 . S
C294 C295 1.367 . S
C295 C294 1.367 . S
C295 C297 1.433 . S
C296 C292 1.350 . S
C296 C293 1.463 . S
C296 N300 1.427 . S
C297 H287 0.929 . S
C297 C295 1.433 . S
C297 N300 1.384 . S
C298 H289 0.929 . S
C298 C290 1.378 . S
C298 C293 1.350 . S
C299 H286 0.929 . S
C299 C291 1.433 . S
C299 N301 1.384 . S
N300 C296 1.427 . S
N300 C297 1.384 . S
N301 C293 1.427 . S
N301 C299 1.384 . S
H302 C308 0.930 . S
H303 C312 0.930 1_655 S
H304 C317 0.929 . S
H305 C315 0.929 . S
H306 C310 0.929 . S
H307 C316 0.929 . S
C308 H302 0.930 . S
C308 C309 1.367 . S
C308 C316 1.378 . S
C309 C308 1.367 . S
C309 C317 1.433 . S
C310 H306 0.929 . S
C310 C312 1.378 . S
C310 C314 1.350 . S
C311 C314 1.463 . S
C311 C316 1.350 . S
C311 N319 1.427 . S
C312 H303 0.930 1_455 S
C312 C310 1.378 . S
C312 C313 1.367 . S
C313 C312 1.367 . S
C313 C315 1.433 . S
C314 C310 1.350 . S
C314 C311 1.463 . S
C314 N318 1.427 . S
C315 H305 0.929 . S
C315 C313 1.433 . S
C315 N318 1.384 . S
C316 H307 0.929 . S
C316 C308 1.378 . S
C316 C311 1.350 . S
C317 H304 0.929 . S
C317 C309 1.433 . S
C317 N319 1.384 . S
N318 C314 1.427 . S
N318 C315 1.384 . S
N319 C311 1.427 . S
N319 C317 1.384 . S
C187 C157 2.202 . S
C183 C69 2.194 . S
C205 C168 2.224 . S
C201 C143 2.300 . S
C223 C156 1.669 . S
C219 C63 1.550 . S
C241 C169 1.600 . S
C237 C137 1.554 . S
C259 C171 1.677 . S
C255 C39 1.545 . S
C277 C155 1.503 . S
C273 C113 1.465 . S
C295 C170 0.894 . S
C291 C51 0.889 . S
C309 C125 0.960 . S
C313 C154 0.939 . S
