# Generated by pormake.
# Topology anh, (6,3)-cn, num edge types: 1
# Building blocks:
#     Node 0, Type 0, BuildingBlock: BETGAK_clean_sbu_0, # of connection points: 6
#     Node 1, Type 0, BuildingBlock: BETGAK_clean_sbu_0, # of connection points: 6
#     Node 2, Type 0, BuildingBlock: BETGAK_clean_sbu_0, # of connection points: 6
#     Node 3, Type 1, BuildingBlock: CUQRIR_clean_linker_1, # of connection points: 3
#     Node 4, Type 1, BuildingBlock: CUQRIR_clean_linker_1, # of connection points: 3
#     Node 5, Type 1, BuildingBlock: CUQRIR_clean_linker_1, # of connection points: 3
#     Node 6, Type 1, BuildingBlock: CUQRIR_clean_linker_1, # of connection points: 3
#     Node 7, Type 1, BuildingBlock: CUQRIR_clean_linker_1, # of connection points: 3
#     Node 8, Type 1, BuildingBlock: CUQRIR_clean_linker_1, # of connection points: 3
#     Edge 9, Type (0, 1), BuildingBlock: UVAHIK_clean_linker_0, # of connection points: 2
#     Edge 10, Type (0, 1), BuildingBlock: UVAHIK_clean_linker_0, # of connection points: 2
#     Edge 11, Type (0, 1), BuildingBlock: UVAHIK_clean_linker_0, # of connection points: 2
#     Edge 12, Type (0, 1), BuildingBlock: UVAHIK_clean_linker_0, # of connection points: 2
#     Edge 13, Type (0, 1), BuildingBlock: UVAHIK_clean_linker_0, # of connection points: 2
#     Edge 14, Type (0, 1), BuildingBlock: UVAHIK_clean_linker_0, # of connection points: 2
#     Edge 15, Type (0, 1), BuildingBlock: UVAHIK_clean_linker_0, # of connection points: 2
#     Edge 16, Type (0, 1), BuildingBlock: UVAHIK_clean_linker_0, # of connection points: 2
#     Edge 17, Type (0, 1), BuildingBlock: UVAHIK_clean_linker_0, # of connection points: 2
#     Edge 18, Type (0, 1), BuildingBlock: UVAHIK_clean_linker_0, # of connection points: 2
#     Edge 19, Type (0, 1), BuildingBlock: UVAHIK_clean_linker_0, # of connection points: 2
#     Edge 20, Type (0, 1), BuildingBlock: UVAHIK_clean_linker_0, # of connection points: 2
#     Edge 21, Type (0, 1), BuildingBlock: UVAHIK_clean_linker_0, # of connection points: 2
#     Edge 22, Type (0, 1), BuildingBlock: UVAHIK_clean_linker_0, # of connection points: 2
#     Edge 23, Type (0, 1), BuildingBlock: UVAHIK_clean_linker_0, # of connection points: 2
#     Edge 24, Type (0, 1), BuildingBlock: UVAHIK_clean_linker_0, # of connection points: 2
#     Edge 25, Type (0, 1), BuildingBlock: UVAHIK_clean_linker_0, # of connection points: 2
#     Edge 26, Type (0, 1), BuildingBlock: UVAHIK_clean_linker_0, # of connection points: 2
# Relax obj value: 0.169
# Max RMSD: 0.211
# Mean RMSD: 0.159
data_MOF--net-anh--node1-BETGAK_clean_sbu_0--node2-CUQRIR_clean_linker_1--edge1-UVAHIK_clean_linker_0
_symmetry_space_group_name_H-M    P1
_symmetry_Int_Tables_number       1
_symmetry_cell_setting            triclinic
loop_
_symmetry_equiv_pos_as_xyz
'x, y, z'
_cell_length_a     36.447666
_cell_length_b     44.381216
_cell_length_c     61.248934
_cell_angle_alpha  87.465208
_cell_angle_beta   89.473804
_cell_angle_gamma 128.14022
loop_
_atom_site_label
_atom_site_type_symbol
_atom_site_fract_x
_atom_site_fract_y
_atom_site_fract_z
_atom_type_partial_charge
La0 La 0.1184 0.48184 0.15757 0.0
La1 La 1.05789 0.50373 0.16612 0.0
C2 C 0.18572 0.48492 0.1443 0.0
C3 C 0.23398 0.51182 0.15113 0.0
C4 C 0.24232 0.52432 0.17251 0.0
C5 C 0.28781 0.55075 0.1791 0.0
C6 C 0.32577 0.56577 0.16432 0.0
C7 C 0.31749 0.55441 0.14269 0.0
C8 C 0.27179 0.52748 0.13614 0.0
C9 C 0.09464 0.47657 0.19908 0.0
C10 C 0.16316 0.57035 0.16432 0.0
C11 C 0.99244 0.50163 0.18166 0.0
C12 C 0.9417 0.47083 0.18197 0.0
C13 C 0.9206 0.44997 0.16341 0.0
C14 C 0.87256 0.42069 0.16375 0.0
C15 C 0.84453 0.41121 0.18275 0.0
C16 C 0.8662 0.43097 0.20166 0.0
C17 C 0.91436 0.46063 0.20123 0.0
C18 C 0.08342 0.51052 0.12475 0.0
C19 C 1.0133 0.41563 0.15944 0.0
O20 O 0.15525 0.45979 0.15961 0.0
O21 O 0.17063 0.50087 0.13317 0.0
O22 O 0.10057 0.45367 0.19052 0.0
O23 O 0.10542 0.50254 0.18501 0.0
O24 O 0.16792 0.54525 0.15691 0.0
O25 O 0.12232 0.55941 0.17192 0.0
O26 O 1.0131 0.51803 0.16242 0.0
O27 O 1.01565 0.49378 0.19344 0.0
O28 O 1.07783 0.5335 0.1336 0.0
O29 O 1.07157 0.48365 0.13845 0.0
O30 O 1.00932 0.44055 0.16781 0.0
O31 O 1.0535 0.42689 0.15061 0.0
H32 H 0.2136 0.51353 0.1842 0.0
H33 H 0.2934 0.55921 0.19582 0.0
H34 H 0.34638 0.56538 0.13108 0.0
H35 H 0.26598 0.5188 0.11947 0.0
H36 H 0.94111 0.4566 0.14848 0.0
H37 H 0.85729 0.40665 0.14876 0.0
H38 H 0.84585 0.42404 0.21668 0.0
H39 H 0.93021 0.47577 0.21588 0.0
La40 La 0.69047 0.04132 0.48567 0.0
La41 La 0.62642 0.06085 0.47692 0.0
C42 C 0.72813 0.01385 0.50203 0.0
C43 C 0.71694 0.97578 0.50619 0.0
C44 C 0.73389 0.96307 0.49151 0.0
C45 C 0.72613 0.92836 0.49592 0.0
C46 C 0.70161 0.90564 0.51524 0.0
C47 C 0.68409 0.91809 0.52981 0.0
C48 C 0.69178 0.95283 0.52537 0.0
C49 C 0.68366 0.05423 0.4441 0.0
C50 C 0.58101 0.97457 0.4804 0.0
C51 C 0.58986 0.09028 0.46234 0.0
C52 C 0.59947 0.12701 0.4659 0.0
C53 C 0.62777 0.14917 0.48285 0.0
C54 C 0.63608 0.18364 0.48669 0.0
C55 C 0.61652 0.1968 0.47353 0.0
C56 C 0.5888 0.1747 0.45629 0.0
C57 C 0.58032 0.14005 0.45253 0.0
C58 C 0.63441 0.04887 0.51851 0.0
C59 C 0.73668 0.12801 0.48043 0.0
O60 O 0.73464 0.02655 0.48156 0.0
O61 O 0.70436 0.02122 0.51356 0.0
O62 O 0.72125 0.06237 0.45233 0.0
O63 O 0.65101 0.03675 0.45854 0.0
O64 O 0.62038 0.98481 0.48885 0.0
O65 O 0.57811 1.00041 0.47103 0.0
O66 O 0.5733 0.06618 0.47955 0.0
O67 O 0.62303 0.09271 0.45175 0.0
O68 O 0.59658 0.04026 0.51043 0.0
O69 O 0.66657 0.06626 0.50388 0.0
O70 O 0.69583 0.11731 0.47392 0.0
O71 O 0.74176 0.10277 0.48859 0.0
H72 H 0.75373 0.9802 0.47668 0.0
H73 H 0.73953 0.91938 0.48419 0.0
H74 H 0.66556 0.90154 0.54496 0.0
H75 H 0.67871 0.96198 0.53717 0.0
H76 H 0.64294 0.13953 0.49332 0.0
H77 H 0.65697 0.19949 0.50031 0.0
H78 H 0.57377 0.18423 0.44564 0.0
H79 H 0.55867 0.12337 0.43927 0.0
La80 La 0.64274 0.60071 0.83909 0.0
La81 La 0.57649 0.51532 0.84818 0.0
C82 C 0.68437 0.66854 0.82335 0.0
C83 C 0.67447 0.69543 0.81791 0.0
C84 C 0.71042 0.73483 0.81897 0.0
C85 C 0.70265 0.76131 0.81358 0.0
C86 C 0.65863 0.74891 0.807 0.0
C87 C 0.62236 0.70923 0.80623 0.0
C88 C 0.63025 0.68269 0.81161 0.0
C89 C 0.63552 0.57652 0.87996 0.0
C90 C 0.53319 0.55742 0.8491 0.0
C91 C 0.53831 0.44727 0.86229 0.0
C92 C 0.54843 0.42067 0.85801 0.0
C93 C 0.5793 0.42903 0.8406 0.0
C94 C 0.58883 0.40374 0.83642 0.0
C95 C 0.56772 0.36957 0.84959 0.0
C96 C 0.53702 0.3615 0.86714 0.0
C97 C 0.52752 0.38689 0.87132 0.0
C98 C 0.58509 0.53927 0.80698 0.0
C99 C 0.68709 0.55898 0.84016 0.0
O100 O 0.68249 0.65949 0.84417 0.0
O101 O 0.66527 0.6388 0.81146 0.0
O102 O 0.67387 0.60656 0.87054 0.0
O103 O 0.60272 0.56293 0.86713 0.0
O104 O 0.57316 0.58737 0.83932 0.0
O105 O 0.52894 0.52724 0.85735 0.0
O106 O 0.52391 0.4563 0.84562 0.0
O107 O 0.57007 0.47742 0.87268 0.0
O108 O 0.54686 0.50919 0.81635 0.0
O109 O 0.61736 0.55288 0.82013 0.0
O110 O 0.64515 0.52757 0.84703 0.0
O111 O 0.69392 0.59105 0.83375 0.0
H112 H 0.74471 0.74518 0.82392 0.0
H113 H 0.7311 0.79156 0.81475 0.0
H114 H 0.58816 0.69872 0.80108 0.0
H115 H 0.60201 0.65234 0.81067 0.0
H116 H 0.59577 0.455 0.83013 0.0
H117 H 0.61209 0.41066 0.82259 0.0
H118 H 0.52063 0.33571 0.87777 0.0
H119 H 0.50382 0.38013 0.88491 0.0
C120 C 0.58855 0.99181 0.18522 0.0
N121 N 0.61362 0.01939 0.19964 0.0
N122 N 0.55058 0.95921 0.19552 0.0
C123 C 0.59923 0.99738 0.16097 0.0
C124 C 0.55349 0.96784 0.21666 0.0
N125 N 0.59147 1.0045 0.21913 0.0
C126 C 0.52123 0.93945 0.23512 0.0
H127 H 0.5671 0.97737 0.15201 0.0
H128 H 0.6241 0.9915 0.15739 0.0
H129 H 0.61565 0.02737 0.15502 0.0
H130 H 0.50505 0.90962 0.23104 0.0
H131 H 0.493 0.94177 0.23811 0.0
H132 H 0.54022 0.94551 0.2504 0.0
C133 C 0.65771 0.54371 0.54332 0.0
N134 N 0.65384 0.56197 0.55924 0.0
N135 N 0.65103 0.51196 0.55193 0.0
C136 C 0.66804 0.55682 0.51947 0.0
C137 C 0.64263 0.51134 0.57355 0.0
N138 N 0.64413 0.54163 0.57797 0.0
C139 C 0.6342 0.48169 0.59036 0.0
H140 H 0.65492 0.53252 0.50904 0.0
H141 H 0.70642 0.57811 0.51646 0.0
H142 H 0.65226 0.57086 0.51479 0.0
H143 H 0.66826 0.49161 0.59663 0.0
H144 H 0.61777 0.4538 0.58302 0.0
H145 H 0.61177 0.4777 0.60436 0.0
C146 C 0.10779 0.55416 0.86158 0.0
N147 N 0.13164 0.54945 0.8765 0.0
N148 N 1.069 0.54688 0.87118 0.0
C149 C 0.12075 0.56375 0.83756 0.0
C150 C 1.07034 0.53786 0.89239 0.0
N151 N 0.10789 0.53912 0.89557 0.0
C152 C 1.03554 0.5289 0.91019 0.0
H153 H 0.14683 0.59536 0.83468 0.0
H154 H 0.08977 0.55376 0.828 0.0
H155 H 0.13668 0.55064 0.8318 0.0
H156 H 1.0206 0.54392 0.90644 0.0
H157 H 1.05168 0.53714 0.9263 0.0
H158 H 1.00666 0.49753 0.91136 0.0
C159 C 0.15449 0.55489 0.45825 0.0
N160 N 0.12542 0.52855 0.44393 0.0
N161 N 0.18445 0.59015 0.4478 0.0
C162 C 0.15219 0.54663 0.48249 0.0
C163 C 0.17272 0.58422 0.42665 0.0
N164 N 0.13663 0.54694 0.42436 0.0
C165 C 0.198 0.61448 0.40806 0.0
H166 H 0.16576 0.57261 0.49145 0.0
H167 H 0.17401 0.53758 0.48599 0.0
H168 H 0.1158 0.52301 0.48845 0.0
H169 H 0.19487 0.60172 0.39235 0.0
H170 H 0.23549 0.63615 0.41134 0.0
H171 H 0.18228 0.62929 0.40639 0.0
C172 C 0.62914 0.07405 0.78134 0.0
N173 N 0.63524 0.05713 0.76535 0.0
N174 N 0.63729 0.1067 0.77321 0.0
C175 C 0.61841 0.06031 0.80511 0.0
C176 C 0.64856 0.10904 0.75175 0.0
N177 N 0.64772 0.07915 0.74703 0.0
C178 C 0.65697 0.13893 0.73509 0.0
H179 H 0.58 0.03907 0.80801 0.0
H180 H 0.63162 0.08447 0.81569 0.0
H181 H 0.63411 0.04618 0.80971 0.0
H182 H 0.69499 0.163 0.73347 0.0
H183 H 0.63865 0.15036 0.74021 0.0
H184 H 0.64512 0.12696 0.71884 0.0
C185 C 0.60562 0.50034 0.14276 0.0
N186 N 0.6033 0.4841 0.12409 0.0
N187 N 0.61537 0.53484 0.13818 0.0
C188 C 0.60241 0.48412 0.16544 0.0
C189 C 0.61888 0.53891 0.11601 0.0
N190 N 0.61253 0.50846 0.10753 0.0
C191 C 0.62376 0.57057 0.10257 0.0
H192 H 0.5651 0.46237 0.17077 0.0
H193 H 0.61978 0.50691 0.17726 0.0
H194 H 0.61877 0.46975 0.16555 0.0
H195 H 0.60556 0.57994 0.11096 0.0
H196 H 0.60923 0.56123 0.08622 0.0
H197 H 0.66134 0.59548 0.10024 0.0
C198 C 0.38439 0.57573 0.18982 0.0
C199 C 0.37375 0.5897 0.17207 0.0
C200 C 0.43069 0.59377 0.19469 0.0
C201 C 0.54215 0.64859 0.16299 0.0
H202 H 0.56967 0.61174 0.21384 0.0
C203 C 0.64868 0.59901 0.15058 0.0
C204 C 0.61489 0.55888 0.15299 0.0
C205 C 0.64172 0.62256 0.16109 0.0
C206 C 0.56355 0.62344 0.19973 0.0
H207 H 0.40214 0.63592 0.14717 0.0
H208 H 0.48339 0.66888 0.15629 0.0
H209 H 0.51199 0.62258 0.21729 0.0
H210 H 0.55039 0.5119 0.17009 0.0
H211 H 0.53904 0.5527 0.18908 0.0
H212 H 0.59227 0.64792 0.14529 0.0
C213 C 0.45626 0.64297 0.16589 0.0
C214 C 0.52997 0.62911 0.20155 0.0
C215 C 0.40979 0.62426 0.16067 0.0
C216 C 0.57711 0.54271 0.1681 0.0
C217 C 0.57076 0.56617 0.17902 0.0
C218 C 0.57657 0.644 0.16133 0.0
C219 C 0.46753 0.62662 0.18208 0.0
C220 C 0.51549 0.63789 0.1827 0.0
C221 C 0.60151 0.60617 0.17461 0.0
C222 C 0.58438 0.62803 0.1792 0.0
H223 H 0.3571 0.54907 0.19886 0.0
H224 H 0.43716 0.57968 0.20712 0.0
H225 H 0.53293 0.65589 0.14804 0.0
H226 H 0.67864 0.61202 0.13935 0.0
H227 H 0.6658 0.65331 0.15739 0.0
C228 C 0.82194 0.18218 0.48427 0.0
C229 C 0.77732 0.1694 0.47854 0.0
C230 C 0.86052 0.2211 0.48135 0.0
C231 C 0.90097 0.30957 0.44908 0.0
H232 H 0.99485 0.36153 0.49242 0.0
C233 C 1.0421 0.47355 0.44331 0.0
C234 C 0.08753 0.48845 0.44863 0.0
C235 C 1.00514 0.43454 0.44738 0.0
C236 C 0.96925 0.34732 0.48003 0.0
H237 H 0.73817 0.18782 0.4658 0.0
H238 H 0.80518 0.25541 0.46089 0.0
H239 H 0.92854 0.29356 0.49903 0.0
H240 H 0.1305 0.47496 0.46243 0.0
H241 H 1.06581 0.40625 0.46955 0.0
H242 H 0.94149 0.36304 0.43002 0.0
C243 C 0.81054 0.23532 0.4673 0.0
C244 C 0.93123 0.30838 0.48384 0.0
C245 C 0.77203 0.19652 0.47025 0.0
C246 C 0.09553 0.46388 0.45834 0.0
C247 C 1.05853 0.42473 0.46242 0.0
C248 C 0.93894 0.34837 0.44526 0.0
C249 C 0.85533 0.24804 0.47258 0.0
C250 C 0.89644 0.28916 0.46848 0.0
C251 C 1.01288 0.40954 0.45686 0.0
C252 C 0.97337 0.36785 0.46076 0.0
H253 H 0.82727 0.16207 0.49068 0.0
H254 H 0.89461 0.22994 0.48544 0.0
H255 H 0.87532 0.29543 0.4367 0.0
H256 H 1.03521 0.49228 0.43622 0.0
H257 H 0.97037 0.42406 0.44331 0.0
C258 C 0.60983 0.77138 0.80754 0.0
C259 C 0.65109 0.77749 0.80085 0.0
C260 C 0.60386 0.79913 0.8024 0.0
C261 C 0.64951 0.88502 0.76522 0.0
H262 H 0.59891 0.91023 0.81038 0.0
C263 C 0.67056 0.02508 0.76035 0.0
C264 C 0.63281 0.02348 0.7677 0.0
C265 C 0.66914 0.99296 0.76319 0.0
C266 C 0.61248 0.90318 0.79748 0.0
H267 H 0.71773 0.81706 0.78288 0.0
H268 H 0.70779 0.86561 0.77435 0.0
H269 H 0.60272 0.85773 0.81748 0.0
H270 H 0.5635 0.9871 0.78318 0.0
H271 H 0.56083 0.93065 0.78839 0.0
H272 H 0.66001 0.93091 0.74536 0.0
C273 C 0.67982 0.8393 0.78341 0.0
C274 C 0.61464 0.87305 0.80154 0.0
C275 C 0.68579 0.81164 0.78856 0.0
C276 C 0.59325 0.98904 0.77769 0.0
C277 C 0.59182 0.95687 0.78064 0.0
C278 C 0.64743 0.91518 0.76118 0.0
C279 C 0.63893 0.83355 0.79037 0.0
C280 C 0.63372 0.8639 0.78556 0.0
C281 C 0.62989 0.95852 0.77352 0.0
C282 C 0.62941 0.92493 0.77735 0.0
H283 H 0.58254 0.74551 0.81714 0.0
H284 H 0.57174 0.79361 0.80783 0.0
H285 H 0.6636 0.8783 0.75239 0.0
H286 H 0.70161 0.05153 0.75284 0.0
H287 H 0.69932 0.99542 0.7578 0.0
C288 C 0.77032 0.3537 0.16809 0.0
C289 C 0.7928 0.38472 0.18172 0.0
C290 C 0.72428 0.3358 0.16237 0.0
C291 C 0.66098 0.34428 0.13609 0.0
H292 H 0.57893 0.35372 0.17018 0.0
C293 C 0.63457 0.45134 0.11295 0.0
C294 C 0.59824 0.44953 0.12252 0.0
C295 C 0.63529 0.42039 0.11593 0.0
C296 C 0.6001 0.34971 0.16018 0.0
H297 H 0.78235 0.41782 0.20214 0.0
H298 H 0.70309 0.38682 0.19253 0.0
H299 H 0.62152 0.33521 0.18846 0.0
H300 H 0.53151 0.41312 0.14039 0.0
H301 H 0.53226 0.35842 0.14562 0.0
H302 H 0.64147 0.36082 0.10793 0.0
C303 C 0.72048 0.37601 0.18612 0.0
C304 C 0.62492 0.33937 0.17078 0.0
C305 C 0.76642 0.39406 0.19166 0.0
C306 C 0.56017 0.41503 0.13319 0.0
C307 C 0.56069 0.38389 0.13614 0.0
C308 C 0.63563 0.35407 0.12544 0.0
C309 C 0.69983 0.34836 0.17037 0.0
C310 C 0.65898 0.34031 0.15908 0.0
C311 C 0.59955 0.38701 0.12859 0.0
C312 C 0.60847 0.36053 0.13765 0.0
H313 H 0.78923 0.34493 0.16069 0.0
H314 H 0.70905 0.31409 0.15051 0.0
H315 H 0.68631 0.34464 0.12644 0.0
H316 H 0.66432 0.47786 0.10478 0.0
H317 H 0.66615 0.42428 0.11004 0.0
C318 C 0.5427 0.90458 0.48842 0.0
C319 C 0.54002 0.9334 0.48052 0.0
C320 C 0.50375 0.86577 0.48831 0.0
C321 C 0.37493 0.80185 0.48537 0.0
H322 H 0.38988 0.72929 0.46332 0.0
C323 C 0.22235 0.65797 0.45323 0.0
C324 C 0.22107 0.6259 0.45668 0.0
C325 C 0.26034 0.69384 0.45965 0.0
C326 C 0.38513 0.74898 0.4699 0.0
H327 H 0.49412 0.94391 0.46646 0.0
H328 H 0.42671 0.87659 0.46616 0.0
H329 H 0.45868 0.79529 0.46782 0.0
H330 H 0.25725 0.60542 0.46998 0.0
H331 H 0.32399 0.66831 0.4816 0.0
H332 H 0.30141 0.75584 0.48707 0.0
C333 C 0.45865 0.88388 0.47266 0.0
C334 C 0.4246 0.78684 0.47245 0.0
C335 C 0.49751 0.92254 0.47267 0.0
C336 C 0.25762 0.62989 0.46732 0.0
C337 C 0.29584 0.66586 0.47373 0.0
C338 C 0.33553 0.76404 0.48285 0.0
C339 C 0.46125 0.85501 0.48045 0.0
C340 C 0.41987 0.81391 0.47977 0.0
C341 C 0.29795 0.69839 0.46967 0.0
C342 C 0.34006 0.73734 0.47466 0.0
H343 H 0.57489 0.91194 0.49462 0.0
H344 H 0.50678 0.84421 0.49454 0.0
H345 H 0.37015 0.82181 0.49147 0.0
H346 H 0.19433 0.65533 0.44509 0.0
H347 H 0.26099 0.71827 0.45602 0.0
C348 C 0.62212 0.35586 0.83774 0.0
C349 C 0.57708 0.34225 0.84467 0.0
C350 C 0.63043 0.33035 0.83199 0.0
C351 C 0.58242 0.2285 0.83766 0.0
H352 H 0.65663 0.25453 0.78416 0.0
C353 C 0.59084 0.11884 0.79493 0.0
C354 C 0.63322 0.13243 0.78437 0.0
C355 C 0.58562 0.14443 0.80405 0.0
C356 C 0.63647 0.24702 0.79933 0.0
H357 H 0.50559 0.29092 0.8512 0.0
H358 H 0.52022 0.24644 0.84131 0.0
H359 H 0.64473 0.29917 0.79692 0.0
H360 H 0.70387 0.18264 0.77569 0.0
H361 H 0.69545 0.22758 0.79195 0.0
H362 H 0.57406 0.17625 0.84002 0.0
C363 C 0.54918 0.27687 0.84052 0.0
C364 C 0.62958 0.27265 0.80663 0.0
C365 C 0.54082 0.3024 0.84621 0.0
C366 C 0.6708 0.17176 0.78364 0.0
C367 C 0.66577 0.19736 0.79282 0.0
C368 C 0.58948 0.20289 0.8304 0.0
C369 C 0.59397 0.29058 0.8331 0.0
C370 C 0.60232 0.26365 0.82582 0.0
C371 C 0.62285 0.18412 0.80282 0.0
C372 C 0.61645 0.21176 0.81108 0.0
H373 H 0.65107 0.3863 0.83677 0.0
H374 H 0.6655 0.3418 0.82669 0.0
H375 H 0.56168 0.22092 0.85264 0.0
H376 H 0.56135 0.08858 0.79544 0.0
H377 H 0.55193 0.13323 0.81138 0.0
C378 C 0.65348 0.8367 0.52991 0.0
C379 C 0.69571 0.86977 0.52042 0.0
C380 C 0.64829 0.8031 0.53475 0.0
C381 C 0.69745 0.7544 0.52002 0.0
H382 H 0.63699 0.69452 0.57485 0.0
C383 C 0.70069 0.63045 0.5474 0.0
C384 C 0.65911 0.59683 0.55667 0.0
C385 C 0.70502 0.66383 0.54377 0.0
C386 C 0.65352 0.71071 0.55937 0.0
H387 H 0.76597 0.89365 0.50915 0.0
H388 H 0.7568 0.83514 0.51744 0.0
H389 H 0.64404 0.75233 0.5667 0.0
H390 H 0.58962 0.57125 0.56961 0.0
H391 H 0.5968 0.62963 0.56329 0.0
H392 H 0.70682 0.71287 0.51259 0.0
C393 C 0.72742 0.83495 0.5208 0.0
C394 C 0.65754 0.7438 0.5547 0.0
C395 C 0.73265 0.86849 0.51602 0.0
C396 C 0.62216 0.59714 0.56269 0.0
C397 C 0.62637 0.63051 0.55905 0.0
C398 C 0.69338 0.72134 0.52466 0.0
C399 C 0.68517 0.80182 0.53017 0.0
C400 C 0.67978 0.76613 0.53501 0.0
C401 C 0.66771 0.66416 0.54931 0.0
C402 C 0.67161 0.69919 0.54444 0.0
H403 H 0.62417 0.83658 0.53328 0.0
H404 H 0.61511 0.77792 0.54173 0.0
H405 H 0.71403 0.77058 0.50454 0.0
H406 H 0.72971 0.63074 0.54292 0.0
H407 H 0.73764 0.68941 0.53663 0.0
C408 C 0.77328 0.59113 0.83506 0.0
C409 C 0.72717 0.55777 0.83991 0.0
C410 C 0.81099 0.59006 0.83609 0.0
C411 C 0.8428 0.53133 0.86113 0.0
H412 H 0.95065 0.59216 0.82057 0.0
C413 C 0.98644 0.51373 0.86342 0.0
C414 C 1.03303 0.54721 0.86175 0.0
C415 C 0.94998 0.51498 0.8584 0.0
C416 C 0.92098 0.57521 0.83215 0.0
H417 H 0.68489 0.49681 0.84908 0.0
H418 H 0.75001 0.49484 0.85051 0.0
H419 H 0.88572 0.59453 0.81654 0.0
H420 H 1.07837 0.608 0.85277 0.0
H421 H 1.01463 0.61055 0.84388 0.0
H422 H 0.87785 0.5122 0.87686 0.0
C423 C 0.75738 0.52211 0.84634 0.0
C424 C 0.88366 0.57659 0.82985 0.0
C425 C 0.7198 0.5232 0.84536 0.0
C426 C 1.0427 0.58175 0.8539 0.0
C427 C 1.00612 0.58311 0.84889 0.0
C428 C 0.87993 0.52993 0.8634 0.0
C429 C 0.80366 0.55559 0.84201 0.0
C430 C 0.84387 0.55452 0.84427 0.0
C431 C 0.95909 0.54988 0.85169 0.0
C432 C 0.91955 0.55166 0.8489 0.0
H433 H 0.78043 0.61831 0.83086 0.0
H434 H 0.84602 0.61653 0.83282 0.0
H435 H 0.81348 0.51461 0.87291 0.0
H436 H 0.97824 0.4868 0.86948 0.0
H437 H 0.91447 0.48861 0.86028 0.0
C438 C 0.2494 0.62304 0.15831 0.0
C439 C 0.20487 0.61118 0.16475 0.0
C440 C 0.28868 0.66165 0.15859 0.0
C441 C 0.32341 0.7597 0.15924 0.0
H442 H 0.43761 0.78582 0.18271 0.0
C443 C 0.4676 0.90854 0.18953 0.0
C444 C 0.51435 0.92352 0.18648 0.0
C445 C 0.43164 0.87169 0.18342 0.0
C446 C 0.40629 0.77907 0.17574 0.0
H447 H 0.16686 0.63066 0.17655 0.0
H448 H 0.23527 0.69773 0.17724 0.0
H449 H 0.37126 0.71862 0.17919 0.0
H450 H 0.56077 0.91284 0.17408 0.0
H451 H 0.49772 0.84803 0.16307 0.0
H452 H 0.35812 0.8201 0.1562 0.0
C453 C 0.23979 0.67733 0.17168 0.0
C454 C 0.36819 0.74051 0.17376 0.0
C455 C 0.20057 0.63877 0.17145 0.0
C456 C 0.52482 0.90172 0.17643 0.0
C457 C 0.48879 0.86465 0.17037 0.0
C458 C 0.36147 0.79822 0.16122 0.0
C459 C 0.28433 0.68928 0.16523 0.0
C460 C 0.32601 0.73033 0.16584 0.0
C461 C 0.44173 0.84896 0.17417 0.0
C462 C 0.4031 0.80835 0.16985 0.0
H463 H 0.25403 0.60256 0.15305 0.0
H464 H 0.3224 0.6699 0.15337 0.0
H465 H 0.29179 0.75292 0.15264 0.0
H466 H 0.45901 0.92505 0.1973 0.0
H467 H 0.39589 0.86043 0.18682 0.0
C468 C 0.66717 0.26447 0.48545 0.0
C469 C 0.62398 0.23279 0.47829 0.0
C470 C 0.67316 0.29724 0.4914 0.0
C471 C 0.62538 0.3498 0.48552 0.0
H472 H 0.68005 0.38875 0.54133 0.0
C473 C 0.61459 0.45746 0.52863 0.0
C474 C 0.6522 0.48474 0.54089 0.0
C475 C 0.61384 0.42887 0.51936 0.0
C476 C 0.6655 0.37879 0.52551 0.0
H477 H 0.55348 0.21125 0.47145 0.0
H478 H 0.56435 0.26878 0.48145 0.0
H479 H 0.6744 0.3354 0.5277 0.0
H480 H 0.71864 0.50462 0.55306 0.0
H481 H 0.71855 0.45542 0.53633 0.0
H482 H 0.61666 0.39327 0.48324 0.0
C483 C 0.59356 0.26818 0.48237 0.0
C484 C 0.66215 0.34809 0.51775 0.0
C485 C 0.58741 0.23524 0.47658 0.0
C486 C 0.68949 0.48369 0.54352 0.0
C487 C 0.68907 0.45536 0.53412 0.0
C488 C 0.62913 0.38078 0.49319 0.0
C489 C 0.63628 0.29928 0.49014 0.0
C490 C 0.64172 0.33306 0.49776 0.0
C491 C 0.65091 0.42723 0.52216 0.0
C492 C 0.64888 0.39547 0.51339 0.0
H493 H 0.6964 0.26394 0.48654 0.0
H494 H 0.7067 0.32103 0.49704 0.0
H495 H 0.60993 0.33905 0.46995 0.0
H496 H 0.58533 0.45779 0.52676 0.0
H497 H 0.58354 0.40741 0.5106 0.0
C498 C 0.4965 0.59038 0.84394 0.0
C499 C 0.49293 0.55821 0.85156 0.0
C500 C 0.45848 0.59087 0.84636 0.0
C501 C 0.34551 0.5425 0.87838 0.0
H502 H 0.31851 0.58815 0.83237 0.0
C503 C 0.17172 0.52055 0.87953 0.0
C504 C 0.17254 0.55159 0.87274 0.0
C505 C 0.21142 0.5226 0.87671 0.0
C506 C 0.32579 0.57567 0.84552 0.0
H507 H 0.44585 0.50113 0.8676 0.0
H508 H 0.3799 0.50181 0.87158 0.0
H509 H 0.38619 0.58948 0.828 0.0
H510 H 0.21551 0.60909 0.85745 0.0
H511 H 0.28529 0.61296 0.85238 0.0
H512 H 0.28518 0.52856 0.89588 0.0
C513 C 0.41228 0.52703 0.86403 0.0
C514 C 0.36475 0.57643 0.84301 0.0
C515 C 0.45021 0.52654 0.86161 0.0
C516 C 0.21386 0.58465 0.86268 0.0
C517 C 0.25376 0.58676 0.85979 0.0
C518 C 0.30664 0.54171 0.88088 0.0
C519 C 0.41577 0.55922 0.85651 0.0
C520 C 0.37502 0.55957 0.85934 0.0
C521 C 0.25324 0.55583 0.86694 0.0
C522 C 0.29587 0.55798 0.86442 0.0
H523 H 0.52878 0.61538 0.83618 0.0
H524 H 0.46287 0.61637 0.84056 0.0
H525 H 0.35265 0.52996 0.89157 0.0
H526 H 0.14004 0.49443 0.88687 0.0
H527 H 0.2091 0.49785 0.882 0.0
C528 C 0.92893 0.36326 0.16958 0.0
C529 C 0.97176 0.37453 0.16068 0.0
C530 C 0.89047 0.3245 0.17261 0.0
C531 C 0.84044 0.22725 0.15635 0.0
H532 H 0.77019 0.19571 0.2118 0.0
C533 C 0.69406 0.06733 0.18399 0.0
C534 C 0.6542 0.05867 0.1948 0.0
C535 C 0.7334 0.10555 0.17935 0.0
C536 C 0.78901 0.20403 0.19612 0.0
H537 H 1.00715 0.35372 0.14735 0.0
H538 H 0.93971 0.28573 0.15276 0.0
H539 H 0.83709 0.26271 0.20394 0.0
H540 H 0.62346 0.08254 0.20898 0.0
H541 H 0.6918 0.14939 0.20081 0.0
H542 H 0.79202 0.16846 0.14851 0.0
C543 C 0.93603 0.30709 0.15728 0.0
C544 C 0.82744 0.2425 0.19162 0.0
C545 C 0.9747 0.34603 0.15423 0.0
C546 C 0.65413 0.08871 0.20086 0.0
C547 C 0.69331 0.12689 0.19621 0.0
C548 C 0.80179 0.18868 0.16084 0.0
C549 C 0.89373 0.2959 0.16688 0.0
C550 C 0.85345 0.25466 0.17163 0.0
C551 C 0.73355 0.13585 0.18544 0.0
C552 C 0.7754 0.17664 0.18074 0.0
H553 H 0.92516 0.38433 0.17461 0.0
H554 H 0.85816 0.31693 0.17963 0.0
H555 H 0.85953 0.23575 0.14073 0.0
H556 H 0.69487 0.04445 0.1794 0.0
H557 H 0.76394 0.11135 0.17131 0.0
C558 C 0.08796 0.48113 0.09195 0.0
C559 C 0.09604 0.51287 0.10145 0.0
C560 C 0.0973 0.48273 0.06954 0.0
C561 C 0.16375 0.54774 0.02112 0.0
H562 H 1.05835 0.46941 0.98881 0.0
C563 C 0.15142 0.56764 0.92851 0.0
C564 C 0.12239 0.53522 0.91651 0.0
C565 C 0.15595 0.56353 0.95088 0.0
C566 C 0.08875 0.49104 0.99745 0.0
H567 H 0.12203 0.57161 0.09534 0.0
H568 H 0.13925 0.57468 0.05621 0.0
H569 H 1.05224 0.46487 0.0285 0.0
H570 H 1.07725 0.47338 0.91767 0.0
H571 H 0.08747 0.46574 0.95639 0.0
H572 H 0.20057 0.57391 0.99016 0.0
C573 C 0.12539 0.54853 0.06605 0.0
C574 C 0.085 0.48848 0.02028 0.0
C575 C 0.11525 0.54669 0.08837 0.0
C576 C 0.10034 0.49867 0.92672 0.0
C577 C 0.10561 0.49446 0.94896 0.0
C578 C 0.16789 0.54997 0.99824 0.0
C579 C 0.11578 0.51636 0.05635 0.0
C580 C 0.12206 0.5172 0.03232 0.0
C581 C 0.13182 0.52677 0.96161 0.0
C582 C 0.13004 0.5221 0.98602 0.0
H583 H 1.07331 0.45476 0.10173 0.0
H584 H 0.08974 0.4576 0.06246 0.0
H585 H 0.19302 0.57009 0.03006 0.0
H586 H 0.16779 0.59598 0.92088 0.0
H587 H 0.17593 0.58915 0.95993 0.0
C588 C 0.63472 0.04689 0.41338 0.0
C589 C 0.67752 0.05768 0.4206 0.0
C590 C 0.62797 0.0482 0.39105 0.0
C591 C 0.69033 0.08489 0.33601 0.0
H592 H 0.56928 0.99985 0.31672 0.0
C593 C 0.65066 0.03602 0.247 0.0
C594 C 0.60704 0.02275 0.23951 0.0
C595 C 0.66225 0.04738 0.26843 0.0
C596 C 0.60306 0.02414 0.32185 0.0
H597 H 0.74717 0.07899 0.41029 0.0
H598 H 0.73499 0.07997 0.37124 0.0
H599 H 0.58328 1.00529 0.35551 0.0
H600 H 0.54293 0.01373 0.24746 0.0
H601 H 0.56284 0.03342 0.28498 0.0
H602 H 0.71033 0.10258 0.30198 0.0
C603 C 0.70689 0.07138 0.38275 0.0
C604 C 0.61112 0.02735 0.34415 0.0
C605 C 0.7138 0.07053 0.40513 0.0
C606 C 0.57649 0.02343 0.25314 0.0
C607 C 0.58786 0.03456 0.27453 0.0
C608 C 0.68236 0.08141 0.3136 0.0
C609 C 0.66364 0.05974 0.37539 0.0
C610 C 0.65489 0.05767 0.35157 0.0
C611 C 0.6302 0.04544 0.28264 0.0
C612 C 0.63863 0.05092 0.30631 0.0
H613 H 0.60618 0.03698 0.42497 0.0
H614 H 0.59453 0.03979 0.38607 0.0
H615 H 0.72428 0.10891 0.34111 0.0
H616 H 0.67452 0.03548 0.2367 0.0
H617 H 0.69504 0.05549 0.27425 0.0
C618 C 0.63666 0.57331 0.77304 0.0
C619 C 0.59175 0.54856 0.78318 0.0
C620 C 0.64234 0.57839 0.75019 0.0
C621 C 0.57984 0.52629 0.70193 0.0
H622 H 0.6755 0.62186 0.66914 0.0
C623 C 0.59351 0.53194 0.60861 0.0
C624 C 0.63839 0.55104 0.59916 0.0
C625 C 0.58753 0.53669 0.63039 0.0
C626 C 0.64877 0.59494 0.6781 0.0
H627 H 0.51766 0.51168 0.77767 0.0
H628 H 0.52743 0.52093 0.73793 0.0
H629 H 0.66584 0.62121 0.70882 0.0
H630 H 0.71223 0.59073 0.60422 0.0
H631 H 0.70226 0.59887 0.64268 0.0
H632 H 0.56328 0.4997 0.67157 0.0
C633 C 0.55831 0.53572 0.74747 0.0
C634 C 0.64326 0.59457 0.70081 0.0
C635 C 0.55269 0.53056 0.77023 0.0
C636 C 0.6774 0.57613 0.61138 0.0
C637 C 0.67155 0.58077 0.63327 0.0
C638 C 0.58536 0.52663 0.67936 0.0
C639 C 0.60317 0.55885 0.73715 0.0
C640 C 0.60869 0.56018 0.71297 0.0
C641 C 0.62646 0.56028 0.64319 0.0
C642 C 0.61987 0.5609 0.66713 0.0
H643 H 0.66737 0.58755 0.7827 0.0
H644 H 0.67736 0.59625 0.74274 0.0
H645 H 0.55361 0.49912 0.71084 0.0
H646 H 0.56318 0.51239 0.59927 0.0
H647 H 0.55236 0.52106 0.63737 0.0
C648 C 0.68578 0.06788 0.55024 0.0
C649 C 0.64085 0.04629 0.54204 0.0
C650 C 0.69144 0.06786 0.57281 0.0
C651 C 0.63255 0.01532 0.62569 0.0
H652 H 0.70758 0.11599 0.64899 0.0
C653 C 0.61456 0.03801 0.71598 0.0
C654 C 0.65298 0.07005 0.72558 0.0
C655 C 0.61764 0.03214 0.69402 0.0
C656 C 0.68737 0.08758 0.64289 0.0
H657 H 0.56678 0.0064 0.55069 0.0
H658 H 0.57665 0.00587 0.5901 0.0
H659 H 0.70518 0.1106 0.60964 0.0
H660 H 0.7253 0.11983 0.72072 0.0
H661 H 0.7319 0.10897 0.68254 0.0
H662 H 0.61468 0.99215 0.65888 0.0
C663 C 0.60744 0.02293 0.57915 0.0
C664 C 0.68589 0.08457 0.62026 0.0
C665 C 0.60178 0.02342 0.55664 0.0
C666 C 0.69531 0.09507 0.7134 0.0
C667 C 0.69875 0.08894 0.69155 0.0
C668 C 0.63455 0.01828 0.64837 0.0
C669 C 0.65228 0.04572 0.58748 0.0
C670 C 0.65776 0.04846 0.61144 0.0
C671 C 0.65955 0.05803 0.68134 0.0
C672 C 0.66123 0.05449 0.65729 0.0
H673 H 0.71648 0.08569 0.53929 0.0
H674 H 0.72639 0.08552 0.57882 0.0
H675 H 0.61091 0.9871 0.61928 0.0
H676 H 0.58156 0.01867 0.72522 0.0
H677 H 0.58649 0.00832 0.68678 0.0
C678 C 0.67015 0.5782 0.91521 0.0
C679 C 0.6308 0.5612 0.90252 0.0
C680 C 0.66576 0.56427 0.93675 0.0
C681 C 0.57883 0.50945 0.98273 0.0
H682 H 0.67821 0.51287 0.00832 0.0
C683 C 0.57399 0.47351 0.07472 0.0
C684 C 0.61429 0.50306 0.08473 0.0
C685 C 0.57387 0.47229 0.05193 0.0
C686 C 0.65008 0.51159 0.00135 0.0
H687 H 0.55609 0.51612 0.90216 0.0
H688 H 0.54843 0.49114 0.93966 0.0
H689 H 0.68144 0.52664 0.96901 0.0
H690 H 0.68651 0.55296 0.07954 0.0
H691 H 0.6869 0.55085 0.0397 0.0
H692 H 0.54799 0.49511 0.01517 0.0
C693 C 0.58262 0.51559 0.93313 0.0
C694 C 0.65203 0.51968 0.97888 0.0
C695 C 0.58702 0.52971 0.91162 0.0
C696 C 0.65522 0.52998 0.07194 0.0
C697 C 0.65536 0.52858 0.04924 0.0
C698 C 0.57673 0.50109 0.00518 0.0
C699 C 0.62191 0.5329 0.94603 0.0
C700 C 0.61706 0.51974 0.96939 0.0
C701 C 0.61432 0.50039 0.03895 0.0
C702 C 0.61294 0.50305 0.0148 0.0
H703 H 0.70431 0.60257 0.90857 0.0
H704 H 0.69663 0.57879 0.94629 0.0
H705 H 0.55155 0.50964 0.97607 0.0
H706 H 0.54213 0.45266 0.08447 0.0
H707 H 0.54186 0.45012 0.04441 0.0
C708 C 0.10035 0.51133 0.23132 0.0
C709 C 0.08743 0.47745 0.22265 0.0
C710 C 0.09665 0.51313 0.25386 0.0
C711 C 0.08648 0.4631 0.30672 0.0
H712 H 1.07187 0.53528 0.32961 0.0
C713 C 0.14047 0.51619 0.39318 0.0
C714 C 0.11925 0.52925 0.40402 0.0
C715 C 0.1285 0.50398 0.37199 0.0
C716 C 1.07505 0.51433 0.3237 0.0
H717 H 1.0584 0.41833 0.23038 0.0
H718 H 1.04959 0.42064 0.26969 0.0
H719 H 1.06308 0.52412 0.29104 0.0
H720 H 1.0683 0.53905 0.40209 0.0
H721 H 1.04472 0.51544 0.36548 0.0
H722 H 0.09636 0.45202 0.33955 0.0
C723 C 1.06439 0.44642 0.2593 0.0
C724 C 1.07091 0.50848 0.30135 0.0
C725 C 1.06907 0.44492 0.23677 0.0
C726 C 0.08461 0.52866 0.39387 0.0
C727 C 1.07176 0.51565 0.37284 0.0
C728 C 0.08959 0.46832 0.32916 0.0
C729 C 1.07893 0.48078 0.26824 0.0
C730 C 1.0779 0.48361 0.29241 0.0
C731 C 0.09443 0.50407 0.36134 0.0
C732 C 0.08525 0.49482 0.33791 0.0
H733 H 0.1148 0.53689 0.22075 0.0
H734 H 0.10916 0.54036 0.25997 0.0
H735 H 0.09247 0.4439 0.30059 0.0
H736 H 0.16783 0.51713 0.40081 0.0
H737 H 0.14757 0.49613 0.36368 0.0
loop_
_geom_bond_atom_site_label_1
_geom_bond_atom_site_label_2
_geom_bond_distance
_geom_bond_site_symmetry_2
_ccdc_geom_bond_type
La0 C2 2.928 . S
La0 O20 2.521 . S
La0 O21 2.628 . S
La0 O22 2.554 . S
La0 O23 2.757 1_455 S
La0 O24 2.470 . S
La0 O29 2.482 . S
La0 O31 2.503 1_455 S
La1 C11 2.928 . S
La1 O23 2.482 . S
La1 O25 2.503 1_655 S
La1 O26 2.521 . S
La1 O27 2.628 . S
La1 O28 2.554 . S
La1 O29 2.757 1_655 S
La1 O30 2.470 . S
C2 La0 2.928 . S
C2 C3 1.503 . S
C2 O20 1.261 . S
C2 O21 1.243 . S
C3 C2 1.503 . S
C3 C4 1.394 . S
C3 C8 1.373 . S
C4 C3 1.394 . S
C4 C5 1.380 . S
C4 H32 0.930 . S
C5 C4 1.380 . S
C5 C6 1.376 . S
C5 H33 0.930 . S
C6 C5 1.376 . S
C6 C7 1.370 . S
C7 C6 1.370 . S
C7 C8 1.396 . S
C7 H34 0.929 . S
C8 C3 1.373 . S
C8 C7 1.396 . S
C8 H35 0.929 . S
C9 O22 1.235 1_655 S
C9 O23 1.292 . S
C10 O24 1.258 . S
C10 O25 1.256 . S
C11 La1 2.928 . S
C11 C12 1.503 . S
C11 O26 1.261 . S
C11 O27 1.243 . S
C12 C11 1.503 . S
C12 C13 1.394 . S
C12 C17 1.373 . S
C13 C12 1.394 . S
C13 C14 1.380 . S
C13 H36 0.930 . S
C14 C13 1.380 . S
C14 C15 1.376 . S
C14 H37 0.930 . S
C15 C14 1.376 . S
C15 C16 1.370 . S
C16 C15 1.370 . S
C16 C17 1.396 . S
C16 H38 0.929 . S
C17 C12 1.373 . S
C17 C16 1.396 . S
C17 H39 0.929 . S
C18 O28 1.216 1_455 S
C18 O29 1.302 . S
C19 O30 1.258 . S
C19 O31 1.256 . S
O20 La0 2.521 . S
O20 C2 1.261 . S
O21 La0 2.628 . S
O21 C2 1.243 . S
O22 La0 2.554 . S
O22 C9 1.235 1_455 S
O23 La0 2.757 1_655 S
O23 La1 2.482 . S
O23 C9 1.292 . S
O24 La0 2.470 . S
O24 C10 1.258 . S
O25 La1 2.503 1_455 S
O25 C10 1.256 . S
O26 La1 2.521 . S
O26 C11 1.261 . S
O27 La1 2.628 . S
O27 C11 1.243 . S
O28 La1 2.554 . S
O28 C18 1.216 1_655 S
O29 La0 2.482 . S
O29 La1 2.757 1_455 S
O29 C18 1.302 . S
O30 La1 2.470 . S
O30 C19 1.258 . S
O31 La0 2.503 1_655 S
O31 C19 1.256 . S
H32 C4 0.930 . S
H33 C5 0.930 . S
H34 C7 0.929 . S
H35 C8 0.929 . S
H36 C13 0.930 . S
H37 C14 0.930 . S
H38 C16 0.929 . S
H39 C17 0.929 . S
La40 C42 2.928 1_545 S
La40 O60 2.521 1_545 S
La40 O61 2.628 1_545 S
La40 O62 2.554 . S
La40 O63 2.757 . S
La40 O64 2.470 1_545 S
La40 O69 2.482 . S
La40 O71 2.503 . S
La41 C51 2.928 . S
La41 O63 2.482 . S
La41 O65 2.503 1_545 S
La41 O66 2.521 . S
La41 O67 2.628 . S
La41 O68 2.554 . S
La41 O69 2.757 . S
La41 O70 2.470 . S
C42 La40 2.928 1_565 S
C42 C43 1.503 . S
C42 O60 1.261 . S
C42 O61 1.243 . S
C43 C42 1.503 . S
C43 C44 1.394 . S
C43 C48 1.373 . S
C44 C43 1.394 . S
C44 C45 1.380 . S
C44 H72 0.930 . S
C45 C44 1.380 . S
C45 C46 1.376 . S
C45 H73 0.930 . S
C46 C45 1.376 . S
C46 C47 1.370 . S
C47 C46 1.370 . S
C47 C48 1.396 . S
C47 H74 0.929 . S
C48 C43 1.373 . S
C48 C47 1.396 . S
C48 H75 0.929 . S
C49 O62 1.240 . S
C49 O63 1.289 . S
C50 O64 1.258 . S
C50 O65 1.256 . S
C51 La41 2.928 . S
C51 C52 1.503 . S
C51 O66 1.261 . S
C51 O67 1.243 . S
C52 C51 1.503 . S
C52 C53 1.394 . S
C52 C57 1.373 . S
C53 C52 1.394 . S
C53 C54 1.380 . S
C53 H76 0.930 . S
C54 C53 1.380 . S
C54 C55 1.376 . S
C54 H77 0.930 . S
C55 C54 1.376 . S
C55 C56 1.370 . S
C56 C55 1.370 . S
C56 C57 1.396 . S
C56 H78 0.929 . S
C57 C52 1.373 . S
C57 C56 1.396 . S
C57 H79 0.929 . S
C58 O68 1.240 . S
C58 O69 1.289 . S
C59 O70 1.258 . S
C59 O71 1.256 . S
O60 La40 2.521 1_565 S
O60 C42 1.261 . S
O61 La40 2.628 1_565 S
O61 C42 1.243 . S
O62 La40 2.554 . S
O62 C49 1.240 . S
O63 La40 2.757 . S
O63 La41 2.482 . S
O63 C49 1.289 . S
O64 La40 2.470 1_565 S
O64 C50 1.258 . S
O65 La41 2.503 1_565 S
O65 C50 1.256 . S
O66 La41 2.521 . S
O66 C51 1.261 . S
O67 La41 2.628 . S
O67 C51 1.243 . S
O68 La41 2.554 . S
O68 C58 1.240 . S
O69 La40 2.482 . S
O69 La41 2.757 . S
O69 C58 1.289 . S
O70 La41 2.470 . S
O70 C59 1.258 . S
O71 La40 2.503 . S
O71 C59 1.256 . S
H72 C44 0.930 . S
H73 C45 0.930 . S
H74 C47 0.929 . S
H75 C48 0.929 . S
H76 C53 0.930 . S
H77 C54 0.930 . S
H78 C56 0.929 . S
H79 C57 0.929 . S
La80 C82 2.928 . S
La80 O100 2.521 . S
La80 O101 2.628 . S
La80 O102 2.554 . S
La80 O103 2.757 . S
La80 O104 2.470 . S
La80 O109 2.482 . S
La80 O111 2.503 . S
La81 C91 2.928 . S
La81 O103 2.482 . S
La81 O105 2.503 . S
La81 O106 2.521 . S
La81 O107 2.628 . S
La81 O108 2.554 . S
La81 O109 2.757 . S
La81 O110 2.470 . S
C82 La80 2.928 . S
C82 C83 1.503 . S
C82 O100 1.261 . S
C82 O101 1.243 . S
C83 C82 1.503 . S
C83 C84 1.394 . S
C83 C88 1.373 . S
C84 C83 1.394 . S
C84 C85 1.380 . S
C84 H112 0.930 . S
C85 C84 1.380 . S
C85 C86 1.376 . S
C85 H113 0.930 . S
C86 C85 1.376 . S
C86 C87 1.370 . S
C87 C86 1.370 . S
C87 C88 1.396 . S
C87 H114 0.929 . S
C88 C83 1.373 . S
C88 C87 1.396 . S
C88 H115 0.929 . S
C89 O102 1.240 . S
C89 O103 1.289 . S
C90 O104 1.258 . S
C90 O105 1.256 . S
C91 La81 2.928 . S
C91 C92 1.503 . S
C91 O106 1.261 . S
C91 O107 1.243 . S
C92 C91 1.503 . S
C92 C93 1.394 . S
C92 C97 1.373 . S
C93 C92 1.394 . S
C93 C94 1.380 . S
C93 H116 0.930 . S
C94 C93 1.380 . S
C94 C95 1.376 . S
C94 H117 0.930 . S
C95 C94 1.376 . S
C95 C96 1.370 . S
C96 C95 1.370 . S
C96 C97 1.396 . S
C96 H118 0.929 . S
C97 C92 1.373 . S
C97 C96 1.396 . S
C97 H119 0.929 . S
C98 O108 1.240 . S
C98 O109 1.289 . S
C99 O110 1.258 . S
C99 O111 1.256 . S
O100 La80 2.521 . S
O100 C82 1.261 . S
O101 La80 2.628 . S
O101 C82 1.243 . S
O102 La80 2.554 . S
O102 C89 1.240 . S
O103 La80 2.757 . S
O103 La81 2.482 . S
O103 C89 1.289 . S
O104 La80 2.470 . S
O104 C90 1.258 . S
O105 La81 2.503 . S
O105 C90 1.256 . S
O106 La81 2.521 . S
O106 C91 1.261 . S
O107 La81 2.628 . S
O107 C91 1.243 . S
O108 La81 2.554 . S
O108 C98 1.240 . S
O109 La80 2.482 . S
O109 La81 2.757 . S
O109 C98 1.289 . S
O110 La81 2.470 . S
O110 C99 1.258 . S
O111 La80 2.503 . S
O111 C99 1.256 . S
H112 C84 0.930 . S
H113 C85 0.930 . S
H114 C87 0.929 . S
H115 C88 0.929 . S
H116 C93 0.930 . S
H117 C94 0.930 . S
H118 C96 0.929 . S
H119 C97 0.929 . S
C120 N121 1.317 1_565 S
C120 N122 1.348 . S
C120 C123 1.485 1_565 S
N121 C120 1.317 1_545 S
N121 N125 1.370 . S
N122 C120 1.348 . S
N122 C124 1.346 . S
C123 C120 1.485 1_545 S
C123 H127 0.960 . S
C123 H128 0.961 1_545 S
C123 H129 0.960 . S
C124 N122 1.346 . S
C124 N125 1.307 1_565 S
C124 C126 1.486 . S
N125 N121 1.370 . S
N125 C124 1.307 1_545 S
C126 C124 1.486 . S
C126 H130 0.960 . S
C126 H131 0.960 . S
C126 H132 0.959 . S
H127 C123 0.960 . S
H128 C123 0.961 1_565 S
H129 C123 0.960 . S
H130 C126 0.960 . S
H131 C126 0.960 . S
H132 C126 0.959 . S
C133 N134 1.317 . S
C133 N135 1.348 . S
C133 C136 1.485 . S
N134 C133 1.317 . S
N134 N138 1.370 . S
N135 C133 1.348 . S
N135 C137 1.346 . S
C136 C133 1.485 . S
C136 H140 0.960 . S
C136 H141 0.961 . S
C136 H142 0.960 . S
C137 N135 1.346 . S
C137 N138 1.307 . S
C137 C139 1.486 . S
N138 N134 1.370 . S
N138 C137 1.307 . S
C139 C137 1.486 . S
C139 H143 0.960 . S
C139 H144 0.960 . S
C139 H145 0.959 . S
H140 C136 0.960 . S
H141 C136 0.961 . S
H142 C136 0.960 . S
H143 C139 0.960 . S
H144 C139 0.960 . S
H145 C139 0.959 . S
C146 N147 1.317 . S
C146 N148 1.348 . S
C146 C149 1.485 . S
N147 C146 1.317 . S
N147 N151 1.370 . S
N148 C146 1.348 . S
N148 C150 1.346 . S
C149 C146 1.485 . S
C149 H153 0.960 . S
C149 H154 0.961 . S
C149 H155 0.960 . S
C150 N148 1.346 . S
C150 N151 1.307 . S
C150 C152 1.486 1_455 S
N151 N147 1.370 . S
N151 C150 1.307 . S
C152 C150 1.486 1_655 S
C152 H156 0.960 . S
C152 H157 0.960 . S
C152 H158 0.959 1_655 S
H153 C149 0.960 . S
H154 C149 0.961 . S
H155 C149 0.960 . S
H156 C152 0.960 . S
H157 C152 0.960 . S
H158 C152 0.959 1_455 S
C159 N160 1.317 . S
C159 N161 1.348 . S
C159 C162 1.485 . S
N160 C159 1.317 . S
N160 N164 1.370 . S
N161 C159 1.348 . S
N161 C163 1.346 . S
C162 C159 1.485 . S
C162 H166 0.960 . S
C162 H167 0.961 . S
C162 H168 0.960 . S
C163 N161 1.346 . S
C163 N164 1.307 . S
C163 C165 1.486 . S
N164 N160 1.370 . S
N164 C163 1.307 . S
C165 C163 1.486 . S
C165 H169 0.960 . S
C165 H170 0.960 . S
C165 H171 0.959 . S
H166 C162 0.960 . S
H167 C162 0.961 . S
H168 C162 0.960 . S
H169 C165 0.960 . S
H170 C165 0.960 . S
H171 C165 0.959 . S
C172 N173 1.317 . S
C172 N174 1.348 . S
C172 C175 1.485 . S
N173 C172 1.317 . S
N173 N177 1.370 . S
N174 C172 1.348 . S
N174 C176 1.346 . S
C175 C172 1.485 . S
C175 H179 0.960 . S
C175 H180 0.961 . S
C175 H181 0.960 . S
C176 N174 1.346 . S
C176 N177 1.307 . S
C176 C178 1.486 . S
N177 N173 1.370 . S
N177 C176 1.307 . S
C178 C176 1.486 . S
C178 H182 0.960 . S
C178 H183 0.960 . S
C178 H184 0.959 . S
H179 C175 0.960 . S
H180 C175 0.961 . S
H181 C175 0.960 . S
H182 C178 0.960 . S
H183 C178 0.960 . S
H184 C178 0.959 . S
C185 N186 1.317 . S
C185 N187 1.348 . S
C185 C188 1.485 . S
N186 C185 1.317 . S
N186 N190 1.370 . S
N187 C185 1.348 . S
N187 C189 1.346 . S
C188 C185 1.485 . S
C188 H192 0.960 . S
C188 H193 0.961 . S
C188 H194 0.960 . S
C189 N187 1.346 . S
C189 N190 1.307 . S
C189 C191 1.486 . S
N190 N186 1.370 . S
N190 C189 1.307 . S
C191 C189 1.486 . S
C191 H195 0.960 . S
C191 H196 0.960 . S
C191 H197 0.959 . S
H192 C188 0.960 . S
H193 C188 0.961 . S
H194 C188 0.960 . S
H195 C191 0.960 . S
H196 C191 0.960 . S
H197 C191 0.959 . S
C198 C199 1.349 . S
C198 C200 1.327 . S
C198 H223 0.950 . S
C199 C198 1.349 . S
C199 C215 1.349 . S
C200 C198 1.327 . S
C200 C219 1.429 . S
C200 H224 0.950 . S
C201 C218 1.574 . S
C201 C220 1.368 . S
C201 H225 0.949 . S
H202 C206 0.949 . S
C203 C204 1.349 . S
C203 C205 1.327 . S
C203 H226 0.950 . S
C204 C203 1.349 . S
C204 C216 1.349 . S
C205 C203 1.327 . S
C205 C221 1.429 . S
C205 H227 0.950 . S
C206 H202 0.949 . S
C206 C214 1.574 . S
C206 C222 1.368 . S
H207 C215 0.950 . S
H208 C213 0.950 . S
H209 C214 0.949 . S
H210 C216 0.950 . S
H211 C217 0.950 . S
H212 C218 0.949 . S
C213 H208 0.950 . S
C213 C215 1.327 . S
C213 C219 1.429 . S
C214 C206 1.574 . S
C214 H209 0.949 . S
C214 C220 1.368 . S
C215 C199 1.349 . S
C215 H207 0.950 . S
C215 C213 1.327 . S
C216 C204 1.349 . S
C216 H210 0.950 . S
C216 C217 1.327 . S
C217 H211 0.950 . S
C217 C216 1.327 . S
C217 C221 1.429 . S
C218 C201 1.574 . S
C218 H212 0.949 . S
C218 C222 1.368 . S
C219 C200 1.429 . S
C219 C213 1.429 . S
C219 C220 1.523 . S
C220 C201 1.368 . S
C220 C214 1.368 . S
C220 C219 1.523 . S
C221 C205 1.429 . S
C221 C217 1.429 . S
C221 C222 1.523 . S
C222 C206 1.368 . S
C222 C218 1.368 . S
C222 C221 1.523 . S
H223 C198 0.950 . S
H224 C200 0.950 . S
H225 C201 0.949 . S
H226 C203 0.950 . S
H227 C205 0.950 . S
C228 C229 1.349 . S
C228 C230 1.327 . S
C228 H253 0.950 . S
C229 C228 1.349 . S
C229 C245 1.349 . S
C230 C228 1.327 . S
C230 C249 1.429 . S
C230 H254 0.950 . S
C231 C248 1.574 . S
C231 C250 1.368 . S
C231 H255 0.949 . S
H232 C236 0.949 . S
C233 C234 1.349 . S
C233 C235 1.327 . S
C233 H256 0.950 . S
C234 C233 1.349 . S
C234 C246 1.349 . S
C235 C233 1.327 . S
C235 C251 1.429 . S
C235 H257 0.950 . S
C236 H232 0.949 . S
C236 C244 1.574 . S
C236 C252 1.368 . S
H237 C245 0.950 . S
H238 C243 0.950 . S
H239 C244 0.949 . S
H240 C246 0.950 . S
H241 C247 0.950 . S
H242 C248 0.949 . S
C243 H238 0.950 . S
C243 C245 1.327 . S
C243 C249 1.429 . S
C244 C236 1.574 . S
C244 H239 0.949 . S
C244 C250 1.368 . S
C245 C229 1.349 . S
C245 H237 0.950 . S
C245 C243 1.327 . S
C246 C234 1.349 . S
C246 H240 0.950 . S
C246 C247 1.327 . S
C247 H241 0.950 . S
C247 C246 1.327 . S
C247 C251 1.429 . S
C248 C231 1.574 . S
C248 H242 0.949 . S
C248 C252 1.368 . S
C249 C230 1.429 . S
C249 C243 1.429 . S
C249 C250 1.523 . S
C250 C231 1.368 . S
C250 C244 1.368 . S
C250 C249 1.523 . S
C251 C235 1.429 . S
C251 C247 1.429 . S
C251 C252 1.523 . S
C252 C236 1.368 . S
C252 C248 1.368 . S
C252 C251 1.523 . S
H253 C228 0.950 . S
H254 C230 0.950 . S
H255 C231 0.949 . S
H256 C233 0.950 . S
H257 C235 0.950 . S
C258 C259 1.349 . S
C258 C260 1.327 . S
C258 H283 0.950 . S
C259 C258 1.349 . S
C259 C275 1.349 . S
C260 C258 1.327 . S
C260 C279 1.429 . S
C260 H284 0.950 . S
C261 C278 1.574 . S
C261 C280 1.368 . S
C261 H285 0.949 . S
H262 C266 0.949 . S
C263 C264 1.349 . S
C263 C265 1.327 1_545 S
C263 H286 0.950 . S
C264 C263 1.349 . S
C264 C276 1.349 1_545 S
C265 C263 1.327 1_565 S
C265 C281 1.429 . S
C265 H287 0.950 . S
C266 H262 0.949 . S
C266 C274 1.574 . S
C266 C282 1.368 . S
H267 C275 0.950 . S
H268 C273 0.950 . S
H269 C274 0.949 . S
H270 C276 0.950 . S
H271 C277 0.950 . S
H272 C278 0.949 . S
C273 H268 0.950 . S
C273 C275 1.327 . S
C273 C279 1.429 . S
C274 C266 1.574 . S
C274 H269 0.949 . S
C274 C280 1.368 . S
C275 C259 1.349 . S
C275 H267 0.950 . S
C275 C273 1.327 . S
C276 C264 1.349 1_565 S
C276 H270 0.950 . S
C276 C277 1.327 . S
C277 H271 0.950 . S
C277 C276 1.327 . S
C277 C281 1.429 . S
C278 C261 1.574 . S
C278 H272 0.949 . S
C278 C282 1.368 . S
C279 C260 1.429 . S
C279 C273 1.429 . S
C279 C280 1.523 . S
C280 C261 1.368 . S
C280 C274 1.368 . S
C280 C279 1.523 . S
C281 C265 1.429 . S
C281 C277 1.429 . S
C281 C282 1.523 . S
C282 C266 1.368 . S
C282 C278 1.368 . S
C282 C281 1.523 . S
H283 C258 0.950 . S
H284 C260 0.950 . S
H285 C261 0.949 . S
H286 C263 0.950 . S
H287 C265 0.950 . S
C288 C289 1.349 . S
C288 C290 1.327 . S
C288 H313 0.950 . S
C289 C288 1.349 . S
C289 C305 1.349 . S
C290 C288 1.327 . S
C290 C309 1.429 . S
C290 H314 0.950 . S
C291 C308 1.574 . S
C291 C310 1.368 . S
C291 H315 0.949 . S
H292 C296 0.949 . S
C293 C294 1.349 . S
C293 C295 1.327 . S
C293 H316 0.950 . S
C294 C293 1.349 . S
C294 C306 1.349 . S
C295 C293 1.327 . S
C295 C311 1.429 . S
C295 H317 0.950 . S
C296 H292 0.949 . S
C296 C304 1.574 . S
C296 C312 1.368 . S
H297 C305 0.950 . S
H298 C303 0.950 . S
H299 C304 0.949 . S
H300 C306 0.950 . S
H301 C307 0.950 . S
H302 C308 0.949 . S
C303 H298 0.950 . S
C303 C305 1.327 . S
C303 C309 1.429 . S
C304 C296 1.574 . S
C304 H299 0.949 . S
C304 C310 1.368 . S
C305 C289 1.349 . S
C305 H297 0.950 . S
C305 C303 1.327 . S
C306 C294 1.349 . S
C306 H300 0.950 . S
C306 C307 1.327 . S
C307 H301 0.950 . S
C307 C306 1.327 . S
C307 C311 1.429 . S
C308 C291 1.574 . S
C308 H302 0.949 . S
C308 C312 1.368 . S
C309 C290 1.429 . S
C309 C303 1.429 . S
C309 C310 1.523 . S
C310 C291 1.368 . S
C310 C304 1.368 . S
C310 C309 1.523 . S
C311 C295 1.429 . S
C311 C307 1.429 . S
C311 C312 1.523 . S
C312 C296 1.368 . S
C312 C308 1.368 . S
C312 C311 1.523 . S
H313 C288 0.950 . S
H314 C290 0.950 . S
H315 C291 0.949 . S
H316 C293 0.950 . S
H317 C295 0.950 . S
C318 C319 1.349 . S
C318 C320 1.327 . S
C318 H343 0.950 . S
C319 C318 1.349 . S
C319 C335 1.349 . S
C320 C318 1.327 . S
C320 C339 1.429 . S
C320 H344 0.950 . S
C321 C338 1.574 . S
C321 C340 1.368 . S
C321 H345 0.949 . S
H322 C326 0.949 . S
C323 C324 1.349 . S
C323 C325 1.327 . S
C323 H346 0.950 . S
C324 C323 1.349 . S
C324 C336 1.349 . S
C325 C323 1.327 . S
C325 C341 1.429 . S
C325 H347 0.950 . S
C326 H322 0.949 . S
C326 C334 1.574 . S
C326 C342 1.368 . S
H327 C335 0.950 . S
H328 C333 0.950 . S
H329 C334 0.949 . S
H330 C336 0.950 . S
H331 C337 0.950 . S
H332 C338 0.949 . S
C333 H328 0.950 . S
C333 C335 1.327 . S
C333 C339 1.429 . S
C334 C326 1.574 . S
C334 H329 0.949 . S
C334 C340 1.368 . S
C335 C319 1.349 . S
C335 H327 0.950 . S
C335 C333 1.327 . S
C336 C324 1.349 . S
C336 H330 0.950 . S
C336 C337 1.327 . S
C337 H331 0.950 . S
C337 C336 1.327 . S
C337 C341 1.429 . S
C338 C321 1.574 . S
C338 H332 0.949 . S
C338 C342 1.368 . S
C339 C320 1.429 . S
C339 C333 1.429 . S
C339 C340 1.523 . S
C340 C321 1.368 . S
C340 C334 1.368 . S
C340 C339 1.523 . S
C341 C325 1.429 . S
C341 C337 1.429 . S
C341 C342 1.523 . S
C342 C326 1.368 . S
C342 C338 1.368 . S
C342 C341 1.523 . S
H343 C318 0.950 . S
H344 C320 0.950 . S
H345 C321 0.949 . S
H346 C323 0.950 . S
H347 C325 0.950 . S
C348 C349 1.349 . S
C348 C350 1.327 . S
C348 H373 0.950 . S
C349 C348 1.349 . S
C349 C365 1.349 . S
C350 C348 1.327 . S
C350 C369 1.429 . S
C350 H374 0.950 . S
C351 C368 1.574 . S
C351 C370 1.368 . S
C351 H375 0.949 . S
H352 C356 0.949 . S
C353 C354 1.349 . S
C353 C355 1.327 . S
C353 H376 0.950 . S
C354 C353 1.349 . S
C354 C366 1.349 . S
C355 C353 1.327 . S
C355 C371 1.429 . S
C355 H377 0.950 . S
C356 H352 0.949 . S
C356 C364 1.574 . S
C356 C372 1.368 . S
H357 C365 0.950 . S
H358 C363 0.950 . S
H359 C364 0.949 . S
H360 C366 0.950 . S
H361 C367 0.950 . S
H362 C368 0.949 . S
C363 H358 0.950 . S
C363 C365 1.327 . S
C363 C369 1.429 . S
C364 C356 1.574 . S
C364 H359 0.949 . S
C364 C370 1.368 . S
C365 C349 1.349 . S
C365 H357 0.950 . S
C365 C363 1.327 . S
C366 C354 1.349 . S
C366 H360 0.950 . S
C366 C367 1.327 . S
C367 H361 0.950 . S
C367 C366 1.327 . S
C367 C371 1.429 . S
C368 C351 1.574 . S
C368 H362 0.949 . S
C368 C372 1.368 . S
C369 C350 1.429 . S
C369 C363 1.429 . S
C369 C370 1.523 . S
C370 C351 1.368 . S
C370 C364 1.368 . S
C370 C369 1.523 . S
C371 C355 1.429 . S
C371 C367 1.429 . S
C371 C372 1.523 . S
C372 C356 1.368 . S
C372 C368 1.368 . S
C372 C371 1.523 . S
H373 C348 0.950 . S
H374 C350 0.950 . S
H375 C351 0.949 . S
H376 C353 0.950 . S
H377 C355 0.950 . S
C378 C379 1.349 . S
C378 C380 1.327 . S
C378 H403 0.950 . S
C379 C378 1.349 . S
C379 C395 1.349 . S
C380 C378 1.327 . S
C380 C399 1.429 . S
C380 H404 0.950 . S
C381 C398 1.574 . S
C381 C400 1.368 . S
C381 H405 0.949 . S
H382 C386 0.949 . S
C383 C384 1.349 . S
C383 C385 1.327 . S
C383 H406 0.950 . S
C384 C383 1.349 . S
C384 C396 1.349 . S
C385 C383 1.327 . S
C385 C401 1.429 . S
C385 H407 0.950 . S
C386 H382 0.949 . S
C386 C394 1.574 . S
C386 C402 1.368 . S
H387 C395 0.950 . S
H388 C393 0.950 . S
H389 C394 0.949 . S
H390 C396 0.950 . S
H391 C397 0.950 . S
H392 C398 0.949 . S
C393 H388 0.950 . S
C393 C395 1.327 . S
C393 C399 1.429 . S
C394 C386 1.574 . S
C394 H389 0.949 . S
C394 C400 1.368 . S
C395 C379 1.349 . S
C395 H387 0.950 . S
C395 C393 1.327 . S
C396 C384 1.349 . S
C396 H390 0.950 . S
C396 C397 1.327 . S
C397 H391 0.950 . S
C397 C396 1.327 . S
C397 C401 1.429 . S
C398 C381 1.574 . S
C398 H392 0.949 . S
C398 C402 1.368 . S
C399 C380 1.429 . S
C399 C393 1.429 . S
C399 C400 1.523 . S
C400 C381 1.368 . S
C400 C394 1.368 . S
C400 C399 1.523 . S
C401 C385 1.429 . S
C401 C397 1.429 . S
C401 C402 1.523 . S
C402 C386 1.368 . S
C402 C398 1.368 . S
C402 C401 1.523 . S
H403 C378 0.950 . S
H404 C380 0.950 . S
H405 C381 0.949 . S
H406 C383 0.950 . S
H407 C385 0.950 . S
C408 C409 1.349 . S
C408 C410 1.327 . S
C408 H433 0.950 . S
C409 C408 1.349 . S
C409 C425 1.349 . S
C410 C408 1.327 . S
C410 C429 1.429 . S
C410 H434 0.950 . S
C411 C428 1.574 . S
C411 C430 1.368 . S
C411 H435 0.949 . S
H412 C416 0.949 . S
C413 C414 1.349 . S
C413 C415 1.327 . S
C413 H436 0.950 . S
C414 C413 1.349 . S
C414 C426 1.349 . S
C415 C413 1.327 . S
C415 C431 1.429 . S
C415 H437 0.950 . S
C416 H412 0.949 . S
C416 C424 1.574 . S
C416 C432 1.368 . S
H417 C425 0.950 . S
H418 C423 0.950 . S
H419 C424 0.949 . S
H420 C426 0.950 . S
H421 C427 0.950 . S
H422 C428 0.949 . S
C423 H418 0.950 . S
C423 C425 1.327 . S
C423 C429 1.429 . S
C424 C416 1.574 . S
C424 H419 0.949 . S
C424 C430 1.368 . S
C425 C409 1.349 . S
C425 H417 0.950 . S
C425 C423 1.327 . S
C426 C414 1.349 . S
C426 H420 0.950 . S
C426 C427 1.327 . S
C427 H421 0.950 . S
C427 C426 1.327 . S
C427 C431 1.429 . S
C428 C411 1.574 . S
C428 H422 0.949 . S
C428 C432 1.368 . S
C429 C410 1.429 . S
C429 C423 1.429 . S
C429 C430 1.523 . S
C430 C411 1.368 . S
C430 C424 1.368 . S
C430 C429 1.523 . S
C431 C415 1.429 . S
C431 C427 1.429 . S
C431 C432 1.523 . S
C432 C416 1.368 . S
C432 C428 1.368 . S
C432 C431 1.523 . S
H433 C408 0.950 . S
H434 C410 0.950 . S
H435 C411 0.949 . S
H436 C413 0.950 . S
H437 C415 0.950 . S
C438 C439 1.349 . S
C438 C440 1.327 . S
C438 H463 0.950 . S
C439 C438 1.349 . S
C439 C455 1.349 . S
C440 C438 1.327 . S
C440 C459 1.429 . S
C440 H464 0.950 . S
C441 C458 1.574 . S
C441 C460 1.368 . S
C441 H465 0.949 . S
H442 C446 0.949 . S
C443 C444 1.349 . S
C443 C445 1.327 . S
C443 H466 0.950 . S
C444 C443 1.349 . S
C444 C456 1.349 . S
C445 C443 1.327 . S
C445 C461 1.429 . S
C445 H467 0.950 . S
C446 H442 0.949 . S
C446 C454 1.574 . S
C446 C462 1.368 . S
H447 C455 0.950 . S
H448 C453 0.950 . S
H449 C454 0.949 . S
H450 C456 0.950 . S
H451 C457 0.950 . S
H452 C458 0.949 . S
C453 H448 0.950 . S
C453 C455 1.327 . S
C453 C459 1.429 . S
C454 C446 1.574 . S
C454 H449 0.949 . S
C454 C460 1.368 . S
C455 C439 1.349 . S
C455 H447 0.950 . S
C455 C453 1.327 . S
C456 C444 1.349 . S
C456 H450 0.950 . S
C456 C457 1.327 . S
C457 H451 0.950 . S
C457 C456 1.327 . S
C457 C461 1.429 . S
C458 C441 1.574 . S
C458 H452 0.949 . S
C458 C462 1.368 . S
C459 C440 1.429 . S
C459 C453 1.429 . S
C459 C460 1.523 . S
C460 C441 1.368 . S
C460 C454 1.368 . S
C460 C459 1.523 . S
C461 C445 1.429 . S
C461 C457 1.429 . S
C461 C462 1.523 . S
C462 C446 1.368 . S
C462 C458 1.368 . S
C462 C461 1.523 . S
H463 C438 0.950 . S
H464 C440 0.950 . S
H465 C441 0.949 . S
H466 C443 0.950 . S
H467 C445 0.950 . S
C468 C469 1.349 . S
C468 C470 1.327 . S
C468 H493 0.950 . S
C469 C468 1.349 . S
C469 C485 1.349 . S
C470 C468 1.327 . S
C470 C489 1.429 . S
C470 H494 0.950 . S
C471 C488 1.574 . S
C471 C490 1.368 . S
C471 H495 0.949 . S
H472 C476 0.949 . S
C473 C474 1.349 . S
C473 C475 1.327 . S
C473 H496 0.950 . S
C474 C473 1.349 . S
C474 C486 1.349 . S
C475 C473 1.327 . S
C475 C491 1.429 . S
C475 H497 0.950 . S
C476 H472 0.949 . S
C476 C484 1.574 . S
C476 C492 1.368 . S
H477 C485 0.950 . S
H478 C483 0.950 . S
H479 C484 0.949 . S
H480 C486 0.950 . S
H481 C487 0.950 . S
H482 C488 0.949 . S
C483 H478 0.950 . S
C483 C485 1.327 . S
C483 C489 1.429 . S
C484 C476 1.574 . S
C484 H479 0.949 . S
C484 C490 1.368 . S
C485 C469 1.349 . S
C485 H477 0.950 . S
C485 C483 1.327 . S
C486 C474 1.349 . S
C486 H480 0.950 . S
C486 C487 1.327 . S
C487 H481 0.950 . S
C487 C486 1.327 . S
C487 C491 1.429 . S
C488 C471 1.574 . S
C488 H482 0.949 . S
C488 C492 1.368 . S
C489 C470 1.429 . S
C489 C483 1.429 . S
C489 C490 1.523 . S
C490 C471 1.368 . S
C490 C484 1.368 . S
C490 C489 1.523 . S
C491 C475 1.429 . S
C491 C487 1.429 . S
C491 C492 1.523 . S
C492 C476 1.368 . S
C492 C488 1.368 . S
C492 C491 1.523 . S
H493 C468 0.950 . S
H494 C470 0.950 . S
H495 C471 0.949 . S
H496 C473 0.950 . S
H497 C475 0.950 . S
C498 C499 1.349 . S
C498 C500 1.327 . S
C498 H523 0.950 . S
C499 C498 1.349 . S
C499 C515 1.349 . S
C500 C498 1.327 . S
C500 C519 1.429 . S
C500 H524 0.950 . S
C501 C518 1.574 . S
C501 C520 1.368 . S
C501 H525 0.949 . S
H502 C506 0.949 . S
C503 C504 1.349 . S
C503 C505 1.327 . S
C503 H526 0.950 . S
C504 C503 1.349 . S
C504 C516 1.349 . S
C505 C503 1.327 . S
C505 C521 1.429 . S
C505 H527 0.950 . S
C506 H502 0.949 . S
C506 C514 1.574 . S
C506 C522 1.368 . S
H507 C515 0.950 . S
H508 C513 0.950 . S
H509 C514 0.949 . S
H510 C516 0.950 . S
H511 C517 0.950 . S
H512 C518 0.949 . S
C513 H508 0.950 . S
C513 C515 1.327 . S
C513 C519 1.429 . S
C514 C506 1.574 . S
C514 H509 0.949 . S
C514 C520 1.368 . S
C515 C499 1.349 . S
C515 H507 0.950 . S
C515 C513 1.327 . S
C516 C504 1.349 . S
C516 H510 0.950 . S
C516 C517 1.327 . S
C517 H511 0.950 . S
C517 C516 1.327 . S
C517 C521 1.429 . S
C518 C501 1.574 . S
C518 H512 0.949 . S
C518 C522 1.368 . S
C519 C500 1.429 . S
C519 C513 1.429 . S
C519 C520 1.523 . S
C520 C501 1.368 . S
C520 C514 1.368 . S
C520 C519 1.523 . S
C521 C505 1.429 . S
C521 C517 1.429 . S
C521 C522 1.523 . S
C522 C506 1.368 . S
C522 C518 1.368 . S
C522 C521 1.523 . S
H523 C498 0.950 . S
H524 C500 0.950 . S
H525 C501 0.949 . S
H526 C503 0.950 . S
H527 C505 0.950 . S
C528 C529 1.349 . S
C528 C530 1.327 . S
C528 H553 0.950 . S
C529 C528 1.349 . S
C529 C545 1.349 . S
C530 C528 1.327 . S
C530 C549 1.429 . S
C530 H554 0.950 . S
C531 C548 1.574 . S
C531 C550 1.368 . S
C531 H555 0.949 . S
H532 C536 0.949 . S
C533 C534 1.349 . S
C533 C535 1.327 . S
C533 H556 0.950 . S
C534 C533 1.349 . S
C534 C546 1.349 . S
C535 C533 1.327 . S
C535 C551 1.429 . S
C535 H557 0.950 . S
C536 H532 0.949 . S
C536 C544 1.574 . S
C536 C552 1.368 . S
H537 C545 0.950 . S
H538 C543 0.950 . S
H539 C544 0.949 . S
H540 C546 0.950 . S
H541 C547 0.950 . S
H542 C548 0.949 . S
C543 H538 0.950 . S
C543 C545 1.327 . S
C543 C549 1.429 . S
C544 C536 1.574 . S
C544 H539 0.949 . S
C544 C550 1.368 . S
C545 C529 1.349 . S
C545 H537 0.950 . S
C545 C543 1.327 . S
C546 C534 1.349 . S
C546 H540 0.950 . S
C546 C547 1.327 . S
C547 H541 0.950 . S
C547 C546 1.327 . S
C547 C551 1.429 . S
C548 C531 1.574 . S
C548 H542 0.949 . S
C548 C552 1.368 . S
C549 C530 1.429 . S
C549 C543 1.429 . S
C549 C550 1.523 . S
C550 C531 1.368 . S
C550 C544 1.368 . S
C550 C549 1.523 . S
C551 C535 1.429 . S
C551 C547 1.429 . S
C551 C552 1.523 . S
C552 C536 1.368 . S
C552 C548 1.368 . S
C552 C551 1.523 . S
H553 C528 0.950 . S
H554 C530 0.950 . S
H555 C531 0.949 . S
H556 C533 0.950 . S
H557 C535 0.950 . S
C558 C559 1.349 1_655 S
C558 C560 1.327 . S
C558 H583 0.950 . S
C559 C558 1.349 1_455 S
C559 C575 1.349 . S
C560 C558 1.327 . S
C560 C579 1.429 1_655 S
C560 H584 0.950 . S
C561 C578 1.574 1_554 S
C561 C580 1.368 . S
C561 H585 0.949 . S
H562 C566 0.949 . S
C563 C564 1.349 . S
C563 C565 1.327 . S
C563 H586 0.950 . S
C564 C563 1.349 . S
C564 C576 1.349 . S
C565 C563 1.327 . S
C565 C581 1.429 . S
C565 H587 0.950 . S
C566 H562 0.949 . S
C566 C574 1.574 1_556 S
C566 C582 1.368 1_655 S
H567 C575 0.950 . S
H568 C573 0.950 . S
H569 C574 0.949 . S
H570 C576 0.950 1_655 S
H571 C577 0.950 1_655 S
H572 C578 0.949 . S
C573 H568 0.950 . S
C573 C575 1.327 . S
C573 C579 1.429 . S
C574 C566 1.574 1_554 S
C574 H569 0.949 . S
C574 C580 1.368 1_655 S
C575 C559 1.349 . S
C575 H567 0.950 . S
C575 C573 1.327 . S
C576 C564 1.349 . S
C576 H570 0.950 1_455 S
C576 C577 1.327 . S
C577 H571 0.950 1_455 S
C577 C576 1.327 . S
C577 C581 1.429 . S
C578 C561 1.574 1_556 S
C578 H572 0.949 . S
C578 C582 1.368 . S
C579 C560 1.429 1_455 S
C579 C573 1.429 . S
C579 C580 1.523 . S
C580 C561 1.368 . S
C580 C574 1.368 1_455 S
C580 C579 1.523 . S
C581 C565 1.429 . S
C581 C577 1.429 . S
C581 C582 1.523 . S
C582 C566 1.368 1_455 S
C582 C578 1.368 . S
C582 C581 1.523 . S
H583 C558 0.950 . S
H584 C560 0.950 . S
H585 C561 0.949 . S
H586 C563 0.950 . S
H587 C565 0.950 . S
C588 C589 1.349 . S
C588 C590 1.327 . S
C588 H613 0.950 1_545 S
C589 C588 1.349 . S
C589 C605 1.349 . S
C590 C588 1.327 . S
C590 C609 1.429 . S
C590 H614 0.950 1_545 S
C591 C608 1.574 . S
C591 C610 1.368 . S
C591 H615 0.949 . S
H592 C596 0.949 . S
C593 C594 1.349 . S
C593 C595 1.327 . S
C593 H616 0.950 . S
C594 C593 1.349 . S
C594 C606 1.349 1_545 S
C595 C593 1.327 . S
C595 C611 1.429 . S
C595 H617 0.950 . S
C596 H592 0.949 . S
C596 C604 1.574 . S
C596 C612 1.368 1_565 S
H597 C605 0.950 . S
H598 C603 0.950 . S
H599 C604 0.949 . S
H600 C606 0.950 . S
H601 C607 0.950 . S
H602 C608 0.949 . S
C603 H598 0.950 . S
C603 C605 1.327 . S
C603 C609 1.429 . S
C604 C596 1.574 . S
C604 H599 0.949 . S
C604 C610 1.368 1_565 S
C605 C589 1.349 . S
C605 H597 0.950 . S
C605 C603 1.327 . S
C606 C594 1.349 1_565 S
C606 H600 0.950 . S
C606 C607 1.327 . S
C607 H601 0.950 . S
C607 C606 1.327 . S
C607 C611 1.429 1_565 S
C608 C591 1.574 . S
C608 H602 0.949 . S
C608 C612 1.368 . S
C609 C590 1.429 . S
C609 C603 1.429 . S
C609 C610 1.523 . S
C610 C591 1.368 . S
C610 C604 1.368 1_545 S
C610 C609 1.523 . S
C611 C595 1.429 . S
C611 C607 1.429 1_545 S
C611 C612 1.523 . S
C612 C596 1.368 1_545 S
C612 C608 1.368 . S
C612 C611 1.523 . S
H613 C588 0.950 1_565 S
H614 C590 0.950 1_565 S
H615 C591 0.949 . S
H616 C593 0.950 . S
H617 C595 0.950 . S
C618 C619 1.349 . S
C618 C620 1.327 . S
C618 H643 0.950 . S
C619 C618 1.349 . S
C619 C635 1.349 . S
C620 C618 1.327 . S
C620 C639 1.429 . S
C620 H644 0.950 . S
C621 C638 1.574 . S
C621 C640 1.368 . S
C621 H645 0.949 . S
H622 C626 0.949 . S
C623 C624 1.349 . S
C623 C625 1.327 . S
C623 H646 0.950 . S
C624 C623 1.349 . S
C624 C636 1.349 . S
C625 C623 1.327 . S
C625 C641 1.429 . S
C625 H647 0.950 . S
C626 H622 0.949 . S
C626 C634 1.574 . S
C626 C642 1.368 . S
H627 C635 0.950 . S
H628 C633 0.950 . S
H629 C634 0.949 . S
H630 C636 0.950 . S
H631 C637 0.950 . S
H632 C638 0.949 . S
C633 H628 0.950 . S
C633 C635 1.327 . S
C633 C639 1.429 . S
C634 C626 1.574 . S
C634 H629 0.949 . S
C634 C640 1.368 . S
C635 C619 1.349 . S
C635 H627 0.950 . S
C635 C633 1.327 . S
C636 C624 1.349 . S
C636 H630 0.950 . S
C636 C637 1.327 . S
C637 H631 0.950 . S
C637 C636 1.327 . S
C637 C641 1.429 . S
C638 C621 1.574 . S
C638 H632 0.949 . S
C638 C642 1.368 . S
C639 C620 1.429 . S
C639 C633 1.429 . S
C639 C640 1.523 . S
C640 C621 1.368 . S
C640 C634 1.368 . S
C640 C639 1.523 . S
C641 C625 1.429 . S
C641 C637 1.429 . S
C641 C642 1.523 . S
C642 C626 1.368 . S
C642 C638 1.368 . S
C642 C641 1.523 . S
H643 C618 0.950 . S
H644 C620 0.950 . S
H645 C621 0.949 . S
H646 C623 0.950 . S
H647 C625 0.950 . S
C648 C649 1.349 . S
C648 C650 1.327 . S
C648 H673 0.950 . S
C649 C648 1.349 . S
C649 C665 1.349 . S
C650 C648 1.327 . S
C650 C669 1.429 . S
C650 H674 0.950 . S
C651 C668 1.574 . S
C651 C670 1.368 . S
C651 H675 0.949 1_545 S
H652 C656 0.949 . S
C653 C654 1.349 . S
C653 C655 1.327 . S
C653 H676 0.936 1_545 S
C654 C653 1.349 . S
C654 C666 1.349 . S
C655 C653 1.327 . S
C655 C671 1.429 . S
C655 H677 0.950 1_545 S
C656 H652 0.949 . S
C656 C664 1.574 . S
C656 C672 1.368 . S
H657 C665 0.950 1_565 S
H658 C663 0.950 1_565 S
H659 C664 0.949 . S
H660 C666 0.950 . S
H661 C667 0.950 . S
H662 C668 0.949 1_565 S
C663 H658 0.950 1_545 S
C663 C665 1.327 . S
C663 C669 1.429 . S
C664 C656 1.574 . S
C664 H659 0.949 . S
C664 C670 1.368 . S
C665 C649 1.349 . S
C665 H657 0.950 1_545 S
C665 C663 1.327 . S
C666 C654 1.349 . S
C666 H660 0.950 . S
C666 C667 1.327 . S
C667 H661 0.950 . S
C667 C666 1.327 . S
C667 C671 1.429 . S
C668 C651 1.574 . S
C668 H662 0.949 1_545 S
C668 C672 1.368 . S
C669 C650 1.429 . S
C669 C663 1.429 . S
C669 C670 1.523 . S
C670 C651 1.368 . S
C670 C664 1.368 . S
C670 C669 1.523 . S
C671 C655 1.429 . S
C671 C667 1.429 . S
C671 C672 1.523 . S
C672 C656 1.368 . S
C672 C668 1.368 . S
C672 C671 1.523 . S
H673 C648 0.950 . S
H674 C650 0.950 . S
H675 C651 0.949 1_565 S
H676 C653 0.936 1_565 S
H677 C655 0.950 1_565 S
C678 C679 1.349 . S
C678 C680 1.327 . S
C678 H703 0.950 . S
C679 C678 1.349 . S
C679 C695 1.349 . S
C680 C678 1.327 . S
C680 C699 1.429 . S
C680 H704 0.950 . S
C681 C698 1.574 . S
C681 C700 1.368 . S
C681 H705 0.949 . S
H682 C686 0.949 . S
C683 C684 1.349 . S
C683 C685 1.327 . S
C683 H706 0.950 . S
C684 C683 1.349 . S
C684 C696 1.349 . S
C685 C683 1.327 . S
C685 C701 1.429 . S
C685 H707 0.950 . S
C686 H682 0.949 . S
C686 C694 1.574 1_554 S
C686 C702 1.368 . S
H687 C695 0.950 . S
H688 C693 0.950 . S
H689 C694 0.949 . S
H690 C696 0.950 . S
H691 C697 0.950 . S
H692 C698 0.949 1_554 S
C693 H688 0.950 . S
C693 C695 1.327 . S
C693 C699 1.429 . S
C694 C686 1.574 1_556 S
C694 H689 0.949 . S
C694 C700 1.368 . S
C695 C679 1.349 . S
C695 H687 0.950 . S
C695 C693 1.327 . S
C696 C684 1.349 . S
C696 H690 0.950 . S
C696 C697 1.327 . S
C697 H691 0.950 . S
C697 C696 1.327 . S
C697 C701 1.429 . S
C698 C681 1.574 . S
C698 H692 0.949 1_556 S
C698 C702 1.368 1_556 S
C699 C680 1.429 . S
C699 C693 1.429 . S
C699 C700 1.523 . S
C700 C681 1.368 . S
C700 C694 1.368 . S
C700 C699 1.523 . S
C701 C685 1.429 . S
C701 C697 1.429 . S
C701 C702 1.523 . S
C702 C686 1.368 . S
C702 C698 1.368 1_554 S
C702 C701 1.523 . S
H703 C678 0.950 . S
H704 C680 0.950 . S
H705 C681 0.949 . S
H706 C683 0.950 . S
H707 C685 0.950 . S
C708 C709 1.349 . S
C708 C710 1.327 . S
C708 H733 0.950 . S
C709 C708 1.349 . S
C709 C725 1.349 1_655 S
C710 C708 1.327 . S
C710 C729 1.429 1_655 S
C710 H734 0.950 . S
C711 C728 1.574 . S
C711 C730 1.368 . S
C711 H735 0.949 . S
H712 C716 0.949 . S
C713 C714 1.349 . S
C713 C715 1.327 . S
C713 H736 0.950 . S
C714 C713 1.349 . S
C714 C726 1.349 . S
C715 C713 1.327 . S
C715 C731 1.429 . S
C715 H737 0.950 . S
C716 H712 0.949 . S
C716 C724 1.574 . S
C716 C732 1.368 . S
H717 C725 0.950 . S
H718 C723 0.950 . S
H719 C724 0.930 1_655 S
H720 C726 0.950 . S
H721 C727 0.950 . S
H722 C728 0.949 . S
C723 H718 0.950 . S
C723 C725 1.327 . S
C723 C729 1.429 . S
C724 C716 1.574 . S
C724 H719 0.930 1_455 S
C724 C730 1.390 . S
C725 C709 1.349 1_455 S
C725 H717 0.950 . S
C725 C723 1.327 . S
C726 C714 1.349 . S
C726 H720 0.950 . S
C726 C727 1.327 . S
C727 H721 0.950 . S
C727 C726 1.327 . S
C727 C731 1.429 . S
C728 C711 1.574 . S
C728 H722 0.949 . S
C728 C732 1.368 . S
C729 C710 1.429 1_455 S
C729 C723 1.429 . S
C729 C730 1.523 . S
C730 C711 1.368 . S
C730 C724 1.390 . S
C730 C729 1.523 . S
C731 C715 1.429 . S
C731 C727 1.429 . S
C731 C732 1.523 . S
C732 C716 1.368 . S
C732 C728 1.368 . S
C732 C731 1.523 . S
H733 C708 0.950 . S
H734 C710 0.950 . S
H735 C711 0.949 . S
H736 C713 0.950 . S
H737 C715 0.950 . S
C199 C6 0.270 . S
C204 N187 0.276 . S
C229 C59 1.754 . S
C234 N160 1.759 1_655 S
C259 C86 1.070 . S
C264 N173 1.069 . S
C289 C15 0.606 . S
C294 N186 0.582 . S
C324 N161 1.975 . S
C319 C50 1.953 . S
C354 N174 1.306 . S
C349 C95 1.297 . S
C379 C46 1.019 . S
C384 N134 1.018 . S
C409 C99 2.741 . S
C414 N148 2.707 1_655 S
C439 C10 1.965 . S
C444 N122 1.993 . S
C474 N135 1.349 . S
C469 C55 1.332 . S
C504 N147 3.327 . S
C499 C90 3.270 . S
C529 C19 1.747 . S
C534 N121 1.762 . S
C564 N151 1.731 . S
C559 C18 1.706 . S
C589 C49 1.468 . S
C594 N125 1.487 . S
C619 C98 1.498 . S
C624 N138 1.582 . S
C654 N177 1.547 . S
C649 C58 1.473 . S
C684 N190 1.285 . S
C679 C89 1.284 . S
C709 C9 1.444 . S
C714 N164 1.472 . S
