# Generated by pormake.
# Topology rtl, (3,6)-cn, num edge types: 1
# Building blocks:
#     Node 0, Type 0, BuildingBlock: MIDCAF_clean_linker_0, # of connection points: 3
#     Node 1, Type 0, BuildingBlock: MIDCAF_clean_linker_0, # of connection points: 3
#     Node 2, Type 0, BuildingBlock: MIDCAF_clean_linker_0, # of connection points: 3
#     Node 3, Type 0, BuildingBlock: MIDCAF_clean_linker_0, # of connection points: 3
#     Node 4, Type 1, BuildingBlock: KUMJIN_clean_sbu_1, # of connection points: 6
#     Node 5, Type 1, BuildingBlock: KUMJIN_clean_sbu_1, # of connection points: 6
#     Edge 6, Type (0, 1), BuildingBlock: TEMPAE_clean_linker_10, # of connection points: 2
#     Edge 7, Type (0, 1), BuildingBlock: TEMPAE_clean_linker_10, # of connection points: 2
#     Edge 8, Type (0, 1), BuildingBlock: TEMPAE_clean_linker_10, # of connection points: 2
#     Edge 9, Type (0, 1), BuildingBlock: TEMPAE_clean_linker_10, # of connection points: 2
#     Edge 10, Type (0, 1), BuildingBlock: TEMPAE_clean_linker_10, # of connection points: 2
#     Edge 11, Type (0, 1), BuildingBlock: TEMPAE_clean_linker_10, # of connection points: 2
#     Edge 12, Type (0, 1), BuildingBlock: TEMPAE_clean_linker_10, # of connection points: 2
#     Edge 13, Type (0, 1), BuildingBlock: TEMPAE_clean_linker_10, # of connection points: 2
#     Edge 14, Type (0, 1), BuildingBlock: TEMPAE_clean_linker_10, # of connection points: 2
#     Edge 15, Type (0, 1), BuildingBlock: TEMPAE_clean_linker_10, # of connection points: 2
#     Edge 16, Type (0, 1), BuildingBlock: TEMPAE_clean_linker_10, # of connection points: 2
#     Edge 17, Type (0, 1), BuildingBlock: TEMPAE_clean_linker_10, # of connection points: 2
# Relax obj value: 0.018
# Max RMSD: 0.096
# Mean RMSD: 0.057
data_MOF--net-rtl--node1-KUMJIN_clean_sbu_1--node2-MIDCAF_clean_linker_0--edge1-TEMPAE_clean_linker_10
_symmetry_space_group_name_H-M    P1
_symmetry_Int_Tables_number       1
_symmetry_cell_setting            triclinic
loop_
_symmetry_equiv_pos_as_xyz
'x, y, z'
_cell_length_a     39.87894
_cell_length_b     40.549695
_cell_length_c     35.404805
_cell_angle_alpha  80.315946
_cell_angle_beta   99.697429
_cell_angle_gamma 90.433012
loop_
_atom_site_label
_atom_site_type_symbol
_atom_site_fract_x
_atom_site_fract_y
_atom_site_fract_z
_atom_type_partial_charge
C0 C 0.1763 0.91559 0.12307 0.0
C1 C 0.19443 0.90242 0.16011 0.0
C2 C 0.22425 0.88328 0.16266 0.0
C3 C 0.23464 0.87596 0.12915 0.0
H4 H 0.30064 0.81152 0.09139 0.0
H5 H 0.33749 0.76226 0.09664 0.0
H6 H 0.29302 0.75059 0.97992 0.0
H7 H 0.25653 0.79952 0.97436 0.0
H8 H 0.21289 0.85488 0.9216 0.0
H9 H 0.18315 0.87768 0.85721 0.0
H10 H 0.1465 0.96116 0.90145 0.0
H11 H 0.17561 0.93764 0.96674 0.0
H12 H 0.17156 0.91813 0.06159 0.0
H13 H 0.15304 0.93013 0.11996 0.0
H14 H 0.23921 0.8733 0.19068 0.0
H15 H 0.25721 0.86036 0.13235 0.0
N16 N 0.24666 0.85083 0.06069 0.0
N17 N 0.23669 0.85355 0.99315 0.0
N18 N 0.20844 0.89124 0.02098 0.0
C19 C 0.25288 0.839 0.02878 0.0
C20 C 0.21463 0.87972 0.98885 0.0
C21 C 0.2244 0.87693 0.05704 0.0
C22 C 0.27565 0.80951 0.03247 0.0
C23 C 0.29875 0.79843 0.06688 0.0
C24 C 0.31991 0.77037 0.06986 0.0
C25 C 0.3179 0.7526 0.03875 0.0
C26 C 0.29481 0.76364 0.00447 0.0
C27 C 0.27408 0.79184 1.00127 0.0
C28 C 0.19675 0.89443 0.94949 0.0
C29 C 0.19864 0.87817 0.91779 0.0
C30 C 0.18171 0.89139 0.88065 0.0
C31 C 0.16264 0.92143 0.874 0.0
C32 C 0.16072 0.93781 0.90563 0.0
C33 C 0.17753 0.9244 0.94302 0.0
C34 C 0.21563 0.88784 0.09221 0.0
C35 C 0.18685 0.9085 0.08952 0.0
C36 C 0.62229 0.63148 0.49855 0.0
C37 C 0.63944 0.64112 0.46697 0.0
C38 C 0.66378 0.66623 0.46919 0.0
C39 C 0.67159 0.68068 0.5026 0.0
H40 H 0.75374 0.72288 0.56555 0.0
H41 H 0.79879 0.76382 0.56428 0.0
H42 H 0.75831 0.81085 0.64811 0.0
H43 H 0.71323 0.76926 0.65009 0.0
H44 H 0.68592 0.68979 0.71216 0.0
H45 H 0.66172 0.66663 0.76935 0.0
H46 H 0.57355 0.63593 0.69541 0.0
H47 H 0.59855 0.65772 0.63837 0.0
H48 H 0.61697 0.63744 0.55626 0.0
H49 H 0.60354 0.61203 0.49777 0.0
H50 H 0.67703 0.67459 0.4451 0.0
H51 H 0.69085 0.69964 0.50326 0.0
N52 N 0.6912 0.70644 0.57343 0.0
N53 N 0.68599 0.70952 0.63772 0.0
N54 N 0.64999 0.67501 0.60246 0.0
C55 C 0.70157 0.71915 0.60644 0.0
C56 C 0.66018 0.68734 0.63595 0.0
C57 C 0.66538 0.68453 0.57101 0.0
C58 C 0.72989 0.74293 0.60785 0.0
C59 C 0.75453 0.74177 0.58398 0.0
C60 C 0.78044 0.76505 0.58339 0.0
C61 C 0.78196 0.79039 0.60611 0.0
C62 C 0.75758 0.79151 0.63031 0.0
C63 C 0.73196 0.76769 0.63154 0.0
C64 C 0.64429 0.67545 0.67065 0.0
C65 C 0.66128 0.67827 0.70809 0.0
C66 C 0.64726 0.66509 0.74096 0.0
C67 C 0.61565 0.64918 0.73722 0.0
C68 C 0.59826 0.64728 0.69961 0.0
C69 C 0.61251 0.66 0.6668 0.0
C70 C 0.65526 0.67039 0.53477 0.0
C71 C 0.63014 0.64593 0.53214 0.0
C72 C 0.8384 0.10215 0.93549 0.0
C73 C 0.82215 0.11943 0.89931 0.0
C74 C 0.795 0.1416 0.89825 0.0
C75 C 0.78503 0.14728 0.93257 0.0
H76 H 0.71181 0.19849 0.9761 0.0
H77 H 0.67307 0.24601 0.97232 0.0
H78 H 0.72182 0.26119 0.08628 0.0
H79 H 0.76012 0.21355 0.09058 0.0
H80 H 0.79892 0.15144 0.14389 0.0
H81 H 0.82798 0.12597 0.20762 0.0
H82 H 0.87338 0.05137 0.15684 0.0
H83 H 0.84482 0.07757 0.09229 0.0
H84 H 0.84205 0.09478 0.9974 0.0
H85 H 0.8595 0.08499 0.93721 0.0
H86 H 0.78155 0.15481 0.87079 0.0
H87 H 0.76431 0.16498 0.93044 0.0
N88 N 0.76995 0.16444 0.00324 0.0
N89 N 0.77909 0.15827 0.07109 0.0
N90 N 0.80896 0.12371 0.04075 0.0
C91 C 0.76291 0.17401 0.03601 0.0
C92 C 0.80194 0.13298 0.07385 0.0
C93 C 0.79301 0.1394 0.00526 0.0
C94 C 0.739 0.20227 0.03364 0.0
C95 C 0.7142 0.21192 1.00036 0.0
C96 C 0.69198 0.23896 0.99822 0.0
C97 C 0.69469 0.25716 0.02896 0.0
C98 C 0.71946 0.2476 0.06213 0.0
C99 C 0.7412 0.22024 0.06462 0.0
C100 C 0.81947 0.1166 0.11276 0.0
C101 C 0.81496 0.12954 0.14607 0.0
C102 C 0.83148 0.11475 0.18283 0.0
C103 C 0.85282 0.08645 0.18746 0.0
C104 C 0.85732 0.07334 0.15424 0.0
C105 C 0.84085 0.08828 0.11726 0.0
C106 C 0.80197 0.13095 0.96893 0.0
C107 C 0.82844 0.10787 0.96997 0.0
C108 C 0.40704 0.35991 0.56684 0.0
C109 C 0.38548 0.36138 0.59421 0.0
C110 C 0.35359 0.34609 0.58881 0.0
C111 C 0.34348 0.33007 0.55686 0.0
H112 H 0.30316 0.23535 0.52535 0.0
H113 H 0.2597 0.19281 0.52779 0.0
H114 H 0.22954 0.21703 0.40328 0.0
H115 H 0.27343 0.25958 0.40054 0.0
H116 H 0.3361 0.29477 0.35557 0.0
H117 H 0.35762 0.3173 0.29603 0.0
H118 H 0.42206 0.3838 0.35786 0.0
H119 H 0.40133 0.36106 0.41725 0.0
H120 H 0.41367 0.34418 0.51372 0.0
H121 H 0.43208 0.37066 0.57034 0.0
H122 H 0.33592 0.34718 0.60868 0.0
H123 H 0.31857 0.31902 0.55332 0.0
N124 N 0.3292 0.29042 0.49428 0.0
N125 N 0.3298 0.28887 0.42839 0.0
N126 N 0.36526 0.32549 0.46066 0.0
C127 C 0.31758 0.27734 0.46171 0.0
C128 C 0.35377 0.31294 0.4277 0.0
C129 C 0.35303 0.31449 0.49396 0.0
C130 C 0.29171 0.25093 0.46275 0.0
C131 C 0.28738 0.23161 0.49842 0.0
C132 C 0.26266 0.20708 0.49984 0.0
C133 C 0.24136 0.20163 0.46572 0.0
C134 C 0.24562 0.22084 0.43 0.0
C135 C 0.2708 0.24506 0.42847 0.0
C136 C 0.36695 0.32602 0.39136 0.0
C137 C 0.35497 0.31409 0.35653 0.0
C138 C 0.36716 0.32712 0.32232 0.0
C139 C 0.39164 0.35227 0.32221 0.0
C140 C 0.40364 0.36406 0.35704 0.0
C141 C 0.39151 0.3511 0.39113 0.0
C142 C 0.36467 0.32953 0.52906 0.0
C143 C 0.39661 0.3445 0.53446 0.0
Eu144 Eu 0.03088 0.96131 0.51852 0.0
C145 C 0.94938 0.09882 0.47694 0.0
N146 N 0.97863 0.09187 0.50304 0.0
C147 C 1.00133 0.14451 0.47863 0.0
C148 C 0.9452 0.12904 0.45014 0.0
C149 C 0.00435 0.11418 0.50455 0.0
C150 C 0.97167 0.15194 0.45122 0.0
C151 C 0.89344 0.0816 0.44923 0.0
C152 C 0.92385 0.07519 0.47639 0.0
C153 C 0.88929 0.11163 0.42242 0.0
C154 C 0.91507 0.13527 0.42289 0.0
Eu155 Eu 0.9823 0.03958 0.54432 0.0
N156 N 0.92889 0.04589 0.50214 0.0
C157 C 0.86797 0.05771 0.44994 0.0
C158 C 0.90321 0.02362 0.50452 0.0
C159 C 0.8727 0.02884 0.47809 0.0
H160 H 0.02702 0.10872 0.52611 0.0
H161 H 0.85266 0.01077 0.47977 0.0
H162 H 0.99109 0.89535 0.55957 0.0
H163 H 0.16471 0.99638 0.54967 0.0
H164 H 0.9055 0.00217 0.5272 0.0
H165 H 0.84429 0.06167 0.4295 0.0
H166 H 0.10737 0.99808 0.51124 0.0
H167 H 0.02185 0.16213 0.47984 0.0
H168 H 0.86616 0.11685 0.40124 0.0
H169 H 0.91149 0.15828 0.40195 0.0
H170 H 0.00345 0.84818 0.61447 0.0
H171 H 0.96945 0.17541 0.43107 0.0
H172 H 0.17976 0.95413 0.60921 0.0
N173 N 0.04044 0.91549 0.56996 0.0
C174 C 0.07232 0.91198 0.5913 0.0
C175 C 0.02298 0.866 0.60835 0.0
C176 C 0.0805 0.88542 0.62281 0.0
C177 C 0.01597 0.8928 0.57751 0.0
C178 C 0.05535 0.86235 0.63119 0.0
N179 N 0.08794 0.96095 0.55148 0.0
C180 C 0.11253 0.98129 0.53854 0.0
C181 C 0.12966 0.93265 0.60419 0.0
C182 C 0.09648 0.93566 0.58225 0.0
C183 C 0.15403 0.95559 0.59309 0.0
C184 C 0.14558 0.97962 0.55968 0.0
H185 H 0.06065 0.84166 0.65522 0.0
H186 H 0.11995 0.86284 0.66964 0.0
H187 H 0.1631 0.90386 0.65299 0.0
O188 O 0.05785 0.9527 0.47115 0.0
O189 O 0.02663 0.96356 0.58145 0.0
O190 O 0.03091 0.01939 0.58363 0.0
O191 O 0.0257 0.91427 0.49668 0.0
O192 O 0.04834 0.01402 0.49702 0.0
O193 O 0.0388 0.04453 0.54399 0.0
O194 O 0.95393 0.03712 0.59231 0.0
O195 O 0.9842 0.03859 0.48072 0.0
O196 O 0.98404 0.98276 0.47642 0.0
O197 O 0.98116 0.08189 0.57506 0.0
O198 O 0.96314 0.98724 0.56305 0.0
O199 O 0.97433 0.95611 0.51741 0.0
C200 C 0.0359 0.98811 0.60049 0.0
C201 C 0.05304 0.89978 0.4455 0.0
C202 C 0.07482 0.8888 0.38826 0.0
C203 C 0.06326 0.85584 0.39496 0.0
C204 C 0.04186 0.86664 0.45165 0.0
C205 C 0.04707 0.84485 0.42657 0.0
C206 C 0.06998 0.91068 0.41394 0.0
C207 C 0.05458 0.03977 0.51543 0.0
C208 C 0.04552 0.92282 0.47129 0.0
C209 C 0.11326 0.88293 0.64515 0.0
C210 C 0.13777 0.90642 0.63582 0.0
C211 C 0.97774 0.01419 0.46068 0.0
C212 C 0.93104 0.08807 0.60092 0.0
C213 C 0.89335 0.10525 0.64205 0.0
C214 C 0.87433 0.12503 0.60903 0.0
C215 C 0.9118 0.10795 0.56836 0.0
C216 C 0.92175 0.08677 0.63763 0.0
C217 C 0.88357 0.12632 0.57247 0.0
C218 C 0.95789 0.96121 0.54516 0.0
C219 C 0.96032 0.06781 0.59721 0.0
H220 H 0.06705 0.83845 0.37585 0.0
H221 H 0.02886 0.85753 0.47575 0.0
H222 H 0.03835 0.81939 0.43154 0.0
H223 H 0.07853 0.93623 0.40871 0.0
H224 H 0.8526 0.13987 0.61154 0.0
H225 H 0.91853 0.1093 0.53985 0.0
H226 H 0.93641 0.071 0.66265 0.0
H227 H 0.86885 0.14169 0.54726 0.0
Eu228 Eu 0.46642 0.48754 0.99492 0.0
C229 C 0.59135 0.5726 0.02774 0.0
N230 N 0.58924 0.53934 0.0407 0.0
C231 C 0.64168 0.52892 0.0198 0.0
C232 C 0.61798 0.58522 0.00826 0.0
C233 C 0.6145 0.51755 0.03854 0.0
C234 C 0.64312 0.56282 0.00399 0.0
C235 C 0.56933 0.62886 0.02327 0.0
C236 C 0.56733 0.59402 0.03518 0.0
C237 C 0.59466 0.64149 0.00187 0.0
C238 C 0.61899 0.61971 0.99445 0.0
Eu239 Eu 0.54173 0.52165 0.06988 0.0
N240 N 0.54347 0.58098 0.05635 0.0
C241 C 0.54659 0.64999 0.03444 0.0
C242 C 0.52346 0.60163 0.07032 0.0
C243 C 0.52402 0.63632 0.05875 0.0
H244 H 0.61301 0.4913 0.05035 0.0
H245 H 0.50733 0.65251 0.06896 0.0
H246 H 0.40286 0.5459 0.98272 0.0
H247 H 0.45907 0.3528 0.03921 0.0
H248 H 0.50705 0.59148 0.09055 0.0
H249 H 0.54722 0.67689 0.02583 0.0
H250 H 0.48262 0.4056 0.00878 0.0
H251 H 0.66128 0.51152 0.01722 0.0
H252 H 0.59631 0.66814 0.992 0.0
H253 H 0.63893 0.62988 0.97885 0.0
H254 H 0.34993 0.55268 0.00803 0.0
H255 H 0.66402 0.57153 0.9892 0.0
H256 H 0.40754 0.35463 0.06935 0.0
N257 N 0.4127 0.49593 0.01273 0.0
C258 C 0.39942 0.46864 0.03246 0.0
C259 C 0.36385 0.52902 0.01565 0.0
C260 C 0.36846 0.47094 0.04622 0.0
C261 C 0.39432 0.52528 0.00204 0.0
C262 C 0.35119 0.5019 0.03851 0.0
N263 N 0.445 0.43635 0.02233 0.0
C264 C 0.45999 0.40633 0.02172 0.0
C265 C 0.40149 0.40854 0.05452 0.0
C266 C 0.41567 0.43782 0.03667 0.0
C267 C 0.41763 0.37769 0.05585 0.0
C268 C 0.44674 0.37655 0.03888 0.0
H269 H 0.32738 0.50474 0.04864 0.0
H270 H 0.33157 0.44347 0.07703 0.0
H271 H 0.36039 0.38879 0.08401 0.0
O272 O 0.4763 0.46825 0.94373 0.0
O273 O 0.48238 0.45993 0.05695 0.0
O274 O 0.49371 0.50264 0.09129 0.0
O275 O 0.42611 0.4869 0.94501 0.0
O276 O 0.51872 0.464 0.9993 0.0
O277 O 0.54837 0.46806 0.06092 0.0
O278 O 0.5665 0.54001 0.12281 0.0
O279 O 0.54645 0.52261 0.0064 0.0
O280 O 0.49222 0.53563 0.97515 0.0
O281 O 0.57224 0.48755 0.11703 0.0
O282 O 0.48759 0.54077 0.0665 0.0
O283 O 0.46386 0.54224 0.00219 0.0
C284 C 0.48163 0.47289 0.0883 0.0
C285 C 0.4443 0.49381 0.88428 0.0
C286 C 0.43777 0.49261 0.81489 0.0
C287 C 0.43963 0.52766 0.80766 0.0
C288 C 0.44637 0.52879 0.87673 0.0
C289 C 0.44418 0.54559 0.83852 0.0
C290 C 0.44041 0.47579 0.85338 0.0
C291 C 0.54273 0.45399 0.0295 0.0
C292 C 0.44596 0.47576 0.92414 0.0
C293 C 0.35511 0.44211 0.06587 0.0
C294 C 0.37151 0.41095 0.06983 0.0
C295 C 0.52513 0.53743 0.97605 0.0
C296 C 0.60157 0.50329 0.17683 0.0
C297 C 0.61925 0.51458 0.24288 0.0
C298 C 0.64242 0.48732 0.25031 0.0
C299 C 0.62466 0.47604 0.18511 0.0
C300 C 0.59908 0.52267 0.20572 0.0
C301 C 0.64507 0.46827 0.22158 0.0
C302 C 0.46638 0.55396 0.03504 0.0
C303 C 0.57958 0.51057 0.13844 0.0
H304 H 0.4377 0.54109 0.77819 0.0
H305 H 0.44938 0.54303 0.9003 0.0
H306 H 0.44569 0.57258 0.83279 0.0
H307 H 0.43867 0.44876 0.8592 0.0
H308 H 0.65879 0.48088 0.27829 0.0
H309 H 0.62705 0.46078 0.1633 0.0
H310 H 0.58084 0.54336 0.19965 0.0
H311 H 0.66298 0.44735 0.22765 0.0
C312 C 0.22165 0.14424 0.48881 0.0
C313 C 0.21417 0.17661 0.46792 0.0
C314 C 0.19578 0.12106 0.49376 0.0
C315 C 0.16156 0.13074 0.47802 0.0
C316 C 0.15396 0.16316 0.45607 0.0
C317 C 0.18044 0.18565 0.45101 0.0
C318 C 0.20495 0.08655 0.51682 0.0
C319 C 0.11774 0.17456 0.43936 0.0
C320 C 0.09478 0.06354 0.47087 0.0
C321 C 0.08157 0.06332 0.50522 0.0
C322 C 0.12089 0.08529 0.46157 0.0
C323 C 0.1336 0.10777 0.48687 0.0
C324 C 0.12001 0.10799 0.52127 0.0
C325 C 0.09448 0.08554 0.53022 0.0
C326 C 0.13513 0.08398 0.42495 0.0
C327 C 0.13256 0.13185 0.5488 0.0
H328 H 0.24779 0.13716 0.50158 0.0
H329 H 0.17462 0.21078 0.43513 0.0
H330 H 0.19438 0.0834 0.54422 0.0
H331 H 0.19357 0.06716 0.50019 0.0
H332 H 0.23291 0.08203 0.52423 0.0
H333 H 0.11627 0.19989 0.42131 0.0
H334 H 0.10512 0.15669 0.42128 0.0
H335 H 0.10314 0.17505 0.46333 0.0
H336 H 0.08492 0.04649 0.45135 0.0
H337 H 0.08474 0.08535 0.55705 0.0
H338 H 0.16279 0.07788 0.43239 0.0
H339 H 0.13212 0.10882 0.40589 0.0
H340 H 0.12247 0.06506 0.40837 0.0
H341 H 0.15992 0.12673 0.56071 0.0
H342 H 0.11831 0.12981 0.57345 0.0
H343 H 0.13013 0.15801 0.53297 0.0
C344 C 0.32549 0.69326 0.03066 0.0
C345 C 0.3398 0.72265 0.04156 0.0
C346 C 0.34598 0.66524 0.03099 0.0
C347 C 0.38168 0.66685 0.042 0.0
C348 C 0.39625 0.6963 0.05358 0.0
C349 C 0.37506 0.72383 0.05349 0.0
C350 C 0.32949 0.63406 0.01905 0.0
C351 C 0.43427 0.69901 0.06508 0.0
C352 C 0.43329 0.5856 0.07141 0.0
C353 C 0.44471 0.58272 0.03678 0.0
C354 C 0.41269 0.61286 0.07355 0.0
C355 C 0.40378 0.63797 0.0404 0.0
C356 C 0.41552 0.63524 0.00543 0.0
C357 C 0.43566 0.60745 0.00396 0.0
C358 C 0.40022 0.61464 0.11114 0.0
C359 C 0.40687 0.66172 0.96961 0.0
H360 H 0.29817 0.69225 0.02181 0.0
H361 H 0.38615 0.74666 0.0616 0.0
H362 H 0.33844 0.6288 0.9926 0.0
H363 H 0.33701 0.61217 0.04232 0.0
H364 H 0.30128 0.63639 0.01293 0.0
H365 H 0.4415 0.72336 0.07419 0.0
H366 H 0.44413 0.67857 0.08933 0.0
H367 H 0.44702 0.6961 0.04025 0.0
H368 H 0.44015 0.56627 0.09671 0.0
H369 H 0.44476 0.60527 0.97727 0.0
H370 H 0.37199 0.61539 0.10613 0.0
H371 H 0.40892 0.63798 0.12181 0.0
H372 H 0.40938 0.59297 0.13419 0.0
H373 H 0.37889 0.66372 0.96015 0.0
H374 H 0.41873 0.65623 0.94505 0.0
H375 H 0.41556 0.68646 0.97637 0.0
C376 C 0.8425 0.80698 0.60681 0.0
C377 C 0.80816 0.81631 0.60288 0.0
C378 C 0.86723 0.83106 0.60008 0.0
C379 C 0.8572 0.86518 0.58834 0.0
C380 C 0.82264 0.8748 0.58523 0.0
C381 C 0.79854 0.85023 0.59292 0.0
C382 C 0.90393 0.81989 0.60448 0.0
C383 C 0.8109 0.91085 0.57219 0.0
C384 C 0.92457 0.93185 0.59401 0.0
C385 C 0.93172 0.9372 0.55606 0.0
C386 C 0.90046 0.90837 0.60506 0.0
C387 C 0.88259 0.89046 0.5772 0.0
C388 C 0.88933 0.89627 0.53863 0.0
C389 C 0.91412 0.9193 0.52865 0.0
C390 C 0.89451 0.90233 0.64664 0.0
C391 C 0.87036 0.87814 0.50788 0.0
H392 H 0.84991 0.78072 0.61473 0.0
H393 H 0.77191 0.85737 0.5895 0.0
H394 H 0.91219 0.82437 0.57569 0.0
H395 H 0.92056 0.8347 0.62346 0.0
H396 H 0.90792 0.7929 0.61698 0.0
H397 H 0.78344 0.9144 0.57297 0.0
H398 H 0.8258 0.92703 0.5909 0.0
H399 H 0.81537 0.91951 0.54204 0.0
H400 H 0.93842 0.94547 0.61534 0.0
H401 H 0.91944 0.92363 0.49919 0.0
H402 H 0.90027 0.87572 0.65974 0.0
H403 H 0.86738 0.90725 0.64763 0.0
H404 H 0.91048 0.91836 0.66472 0.0
H405 H 0.87555 0.85083 0.51631 0.0
H406 H 0.87765 0.88654 0.4789 0.0
H407 H 0.84254 0.88226 0.5054 0.0
C408 C 0.68566 0.31721 0.0326 0.0
C409 C 0.67191 0.28627 0.02656 0.0
C410 C 0.66447 0.34489 0.03156 0.0
C411 C 0.62872 0.34124 0.02517 0.0
C412 C 0.61471 0.31001 0.0189 0.0
C413 C 0.63654 0.28293 0.01925 0.0
C414 C 0.68032 0.37797 0.03755 0.0
C415 C 0.57675 0.30503 0.01275 0.0
C416 C 0.57757 0.4034 0.06263 0.0
C417 C 0.56438 0.42506 0.02825 0.0
C418 C 0.59799 0.37559 0.06191 0.0
C419 C 0.60608 0.36991 0.02607 0.0
C420 C 0.59302 0.39191 0.99129 0.0
C421 C 0.57192 0.41904 0.99275 0.0
C422 C 0.61083 0.35227 0.09948 0.0
C423 C 0.60177 0.3871 0.95268 0.0
H424 H 0.71306 0.31975 0.03793 0.0
H425 H 0.62602 0.25886 0.01487 0.0
H426 H 0.66988 0.39788 0.01292 0.0
H427 H 0.67389 0.38525 0.06435 0.0
H428 H 0.70846 0.37704 0.04013 0.0
H429 H 0.56996 0.27924 0.00802 0.0
H430 H 0.56639 0.3101 0.03845 0.0
H431 H 0.56409 0.323 0.98728 0.0
H432 H 0.57144 0.40788 0.09006 0.0
H433 H 0.56192 0.43598 0.96618 0.0
H434 H 0.63904 0.35217 0.10563 0.0
H435 H 0.60305 0.3263 0.09686 0.0
H436 H 0.60107 0.35949 0.12461 0.0
H437 H 0.62977 0.38774 0.95402 0.0
H438 H 0.58974 0.40663 0.92839 0.0
H439 H 0.5934 0.36222 0.94616 0.0
C440 C 0.16476 0.93623 0.19875 0.0
C441 C 0.18069 0.90622 0.19578 0.0
C442 C 0.14863 0.93866 0.2306 0.0
C443 C 0.14849 0.91043 0.26015 0.0
C444 C 0.16578 0.88057 0.25813 0.0
C445 C 0.18151 0.8788 0.22598 0.0
C446 C 0.13057 0.97094 0.23181 0.0
C447 C 0.16628 0.84988 0.28906 0.0
C448 C 0.12433 0.9133 0.35893 0.0
C449 C 0.09178 0.89972 0.35426 0.0
C450 C 0.14263 0.91875 0.32785 0.0
C451 C 0.12778 0.91065 0.29137 0.0
C452 C 0.094 0.89908 0.28597 0.0
C453 C 0.0765 0.8936 0.31754 0.0
C454 C 0.17855 0.93115 0.33474 0.0
C455 C 0.07701 0.8906 0.24744 0.0
H456 H 0.16441 0.95769 0.17584 0.0
H457 H 0.19324 0.85534 0.22376 0.0
H458 H 0.10269 0.96718 0.22746 0.0
H459 H 0.13798 0.97861 0.26065 0.0
H460 H 0.13617 0.9916 0.20899 0.0
H461 H 0.18315 0.8296 0.28486 0.0
H462 H 0.17499 0.85634 0.31831 0.0
H463 H 0.14015 0.84016 0.28851 0.0
H464 H 0.13616 0.91796 0.38738 0.0
H465 H 0.05111 0.88352 0.31383 0.0
H466 H 0.18266 0.95135 0.31075 0.0
H467 H 0.19666 0.91035 0.33534 0.0
H468 H 0.18463 0.94067 0.36271 0.0
H469 H 0.0794 0.91149 0.22349 0.0
H470 H 0.0496 0.8852 0.24694 0.0
H471 H 0.08982 0.86826 0.24154 0.0
C472 C 0.58381 0.60363 0.77282 0.0
C473 C 0.60133 0.63386 0.77233 0.0
C474 C 0.57066 0.58857 0.80577 0.0
C475 C 0.57563 0.60371 0.83944 0.0
C476 C 0.59323 0.63415 0.83931 0.0
C477 C 0.60562 0.64899 0.8057 0.0
C478 C 0.55175 0.55621 0.8047 0.0
C479 C 0.59923 0.65089 0.87482 0.0
C480 C 0.51789 0.57874 0.9142 0.0
C481 C 0.53818 0.55475 0.94145 0.0
C482 C 0.52977 0.59496 0.88089 0.0
C483 C 0.56289 0.5873 0.875 0.0
C484 C 0.5836 0.56336 0.90269 0.0
C485 C 0.57082 0.54712 0.93533 0.0
C486 C 0.50679 0.62009 0.85185 0.0
C487 C 0.6192 0.55475 0.89774 0.0
H488 H 0.58085 0.59129 0.74762 0.0
H489 H 0.61857 0.67258 0.80556 0.0
H490 H 0.56547 0.53602 0.82685 0.0
H491 H 0.52604 0.55895 0.81201 0.0
H492 H 0.54895 0.54829 0.7758 0.0
H493 H 0.61316 0.67464 0.86995 0.0
H494 H 0.57458 0.65631 0.88335 0.0
H495 H 0.6141 0.6338 0.89967 0.0
H496 H 0.49271 0.58492 0.91895 0.0
H497 H 0.58627 0.52805 0.95581 0.0
H498 H 0.50206 0.61176 0.82317 0.0
H499 H 0.51931 0.64465 0.84785 0.0
H500 H 0.48191 0.62354 0.861 0.0
H501 H 0.61847 0.54511 0.8701 0.0
H502 H 0.63204 0.53567 0.92204 0.0
H503 H 0.63476 0.57758 0.89608 0.0
C504 C 0.90511 0.06114 0.23251 0.0
C505 C 0.87087 0.0715 0.22683 0.0
C506 C 0.92313 0.04955 0.26998 0.0
C507 C 0.90658 0.04853 0.30252 0.0
C508 C 0.87181 0.05802 0.29694 0.0
C509 C 0.85433 0.06919 0.25917 0.0
C510 C 0.96019 0.03949 0.27485 0.0
C511 C 0.85333 0.05735 0.33098 0.0
C512 C 0.94488 0.99764 0.40027 0.0
C513 C 0.96077 0.0225 0.41968 0.0
C514 C 0.92759 0.00562 0.36184 0.0
C515 C 0.92603 0.03926 0.34256 0.0
C516 C 0.94245 0.06434 0.36185 0.0
C517 C 0.95989 0.05559 0.40001 0.0
C518 C 0.91057 0.97818 0.34207 0.0
C519 C 0.94113 0.10057 0.34244 0.0
H520 H 0.91819 0.06315 0.20779 0.0
H521 H 0.8277 0.07652 0.25499 0.0
H522 H 0.97613 0.05711 0.29055 0.0
H523 H 0.96486 0.01418 0.29266 0.0
H524 H 0.96864 0.03942 0.24652 0.0
H525 H 0.82591 0.0642 0.32161 0.0
H526 H 0.85561 0.03209 0.34913 0.0
H527 H 0.86516 0.07511 0.3497 0.0
H528 H 0.94552 0.97198 0.41526 0.0
H529 H 0.9728 0.07479 0.41447 0.0
H530 H 0.91986 0.97778 0.31431 0.0
H531 H 0.8827 0.98309 0.33485 0.0
H532 H 0.91533 0.9531 0.36051 0.0
H533 H 0.95049 0.10296 0.31435 0.0
H534 H 0.95654 0.11673 0.36084 0.0
H535 H 0.91439 0.11005 0.33602 0.0
C536 C 0.41474 0.40885 0.62313 0.0
C537 C 0.39569 0.37956 0.62757 0.0
C538 C 0.42356 0.42683 0.65383 0.0
C539 C 0.41234 0.41584 0.68961 0.0
C540 C 0.39335 0.38626 0.6945 0.0
C541 C 0.38565 0.36827 0.66365 0.0
C542 C 0.4444 0.45793 0.64773 0.0
C543 C 0.38053 0.37396 0.73207 0.0
C544 C 0.45428 0.44743 0.78107 0.0
C545 C 0.43195 0.47358 0.78231 0.0
C546 C 0.44858 0.42876 0.75066 0.0
C547 C 0.4194 0.43595 0.72146 0.0
C548 C 0.3967 0.46228 0.72279 0.0
C549 C 0.40349 0.48104 0.753 0.0
C550 C 0.47378 0.40143 0.74973 0.0
C551 C 0.36494 0.47026 0.69269 0.0
H552 H 0.42221 0.41827 0.59534 0.0
H553 H 0.37161 0.34535 0.66785 0.0
H554 H 0.429 0.48021 0.64912 0.0
H555 H 0.46689 0.45645 0.67121 0.0
H556 H 0.45333 0.46169 0.61927 0.0
H557 H 0.36612 0.35047 0.73123 0.0
H558 H 0.40218 0.36948 0.75662 0.0
H559 H 0.3637 0.39338 0.7382 0.0
H560 H 0.47639 0.44184 0.80373 0.0
H561 H 0.38609 0.50109 0.75428 0.0
H562 H 0.48349 0.40603 0.72175 0.0
H563 H 0.46107 0.37693 0.75159 0.0
H564 H 0.49574 0.39973 0.77394 0.0
H565 H 0.3718 0.47705 0.66332 0.0
H566 H 0.34966 0.49118 0.69823 0.0
H567 H 0.34883 0.44783 0.69238 0.0
C568 C 0.66093 0.61422 0.41686 0.0
C569 C 0.63328 0.6241 0.43247 0.0
C570 C 0.65598 0.59758 0.38479 0.0
C571 C 0.62252 0.59062 0.36776 0.0
C572 C 0.59442 0.60083 0.38305 0.0
C573 C 0.60015 0.61735 0.41537 0.0
C574 C 0.68665 0.58687 0.3696 0.0
C575 C 0.55839 0.59404 0.36548 0.0
C576 C 0.61469 0.56938 0.26613 0.0
C577 C 0.61644 0.53429 0.2741 0.0
C578 C 0.61508 0.58814 0.29616 0.0
C579 C 0.61738 0.57139 0.33502 0.0
C580 C 0.61767 0.536 0.34298 0.0
C581 C 0.61709 0.51791 0.31243 0.0
C582 C 0.61453 0.62586 0.28651 0.0
C583 C 0.62001 0.51717 0.38398 0.0
H584 H 0.68662 0.6189 0.4303 0.0
H585 H 0.57869 0.62521 0.4271 0.0
H586 H 0.68758 0.55921 0.37238 0.0
H587 H 0.6847 0.59739 0.33827 0.0
H588 H 0.7109 0.59503 0.38544 0.0
H589 H 0.5393 0.60472 0.37982 0.0
H590 H 0.5535 0.60474 0.33404 0.0
H591 H 0.55469 0.56666 0.368 0.0
H592 H 0.61432 0.58222 0.23662 0.0
H593 H 0.61769 0.4908 0.31868 0.0
H594 H 0.63955 0.63541 0.29843 0.0
H595 H 0.59505 0.6366 0.30019 0.0
H596 H 0.60913 0.63502 0.25466 0.0
H597 H 0.64487 0.52192 0.4014 0.0
H598 H 0.61756 0.48975 0.38494 0.0
H599 H 0.59984 0.52614 0.39811 0.0
C600 C 0.83747 0.14369 0.83488 0.0
C601 C 0.83403 0.11542 0.86273 0.0
C602 C 0.84791 0.14061 0.79974 0.0
C603 C 0.85511 0.10847 0.79217 0.0
C604 C 0.85213 0.07981 0.82034 0.0
C605 C 0.84169 0.08364 0.85538 0.0
C606 C 0.85102 0.17181 0.77058 0.0
C607 C 0.85954 0.04513 0.81323 0.0
C608 C 0.8495 0.10192 0.68559 0.0
C609 C 0.88375 0.10417 0.68102 0.0
C610 C 0.83992 0.1023 0.72188 0.0
C611 C 0.86519 0.10505 0.7544 0.0
C612 C 0.89988 0.10654 0.75021 0.0
C613 C 0.90874 0.10608 0.71356 0.0
C614 C 0.80267 0.1005 0.72524 0.0
C615 C 0.92756 0.10959 0.78417 0.0
H616 H 0.83218 0.16836 0.8407 0.0
H617 H 0.83887 0.06171 0.87671 0.0
H618 H 0.87723 0.17345 0.76388 0.0
H619 H 0.83349 0.17067 0.74297 0.0
H620 H 0.84502 0.19498 0.78122 0.0
H621 H 0.85682 0.02551 0.83844 0.0
H622 H 0.84194 0.03973 0.78731 0.0
H623 H 0.88579 0.04359 0.80702 0.0
H624 H 0.83012 0.09988 0.6607 0.0
H625 H 0.93522 0.10816 0.71016 0.0
H626 H 0.79428 0.12404 0.73325 0.0
H627 H 0.79857 0.07977 0.74867 0.0
H628 H 0.78637 0.09664 0.6977 0.0
H629 H 0.92443 0.13374 0.79411 0.0
H630 H 0.95341 0.10835 0.77665 0.0
H631 H 0.92557 0.08936 0.80898 0.0
C632 C 0.43903 0.37377 0.2871 0.0
C633 C 0.4044 0.36675 0.28597 0.0
C634 C 0.45121 0.38961 0.25387 0.0
C635 C 0.42824 0.39854 0.21852 0.0
C636 C 0.39343 0.39069 0.21681 0.0
C637 C 0.38191 0.37484 0.25057 0.0
C638 C 0.48855 0.39749 0.25684 0.0
C639 C 0.36829 0.3995 0.17949 0.0
C640 C 0.45414 0.47065 0.14684 0.0
C641 C 0.46731 0.4538 0.12095 0.0
C642 C 0.44075 0.45294 0.17829 0.0
C643 C 0.44055 0.41752 0.18394 0.0
C644 C 0.45349 0.4004 0.15759 0.0
C645 C 0.46696 0.41878 0.12655 0.0
C646 C 0.42717 0.47212 0.20573 0.0
C647 C 0.45347 0.3627 0.16242 0.0
H648 H 0.45666 0.36704 0.31417 0.0
H649 H 0.35509 0.36969 0.24951 0.0
H650 H 0.49964 0.38654 0.2349 0.0
H651 H 0.49166 0.42498 0.25053 0.0
H652 H 0.50326 0.3878 0.28611 0.0
H653 H 0.34186 0.39284 0.18332 0.0
H654 H 0.36884 0.42668 0.16808 0.0
H655 H 0.37554 0.38606 0.15718 0.0
H656 H 0.45422 0.49777 0.14246 0.0
H657 H 0.47773 0.4057 0.10699 0.0
H658 H 0.4421 0.46522 0.23543 0.0
H659 H 0.40037 0.46542 0.2074 0.0
H660 H 0.42829 0.49964 0.19662 0.0
H661 H 0.46813 0.35166 0.19121 0.0
H662 H 0.46461 0.35325 0.13946 0.0
H663 H 0.42704 0.35373 0.16144 0.0
C664 C 0.11138 0.94858 0.82848 0.0
C665 C 0.14447 0.93499 0.83421 0.0
C666 C 0.09318 0.95922 0.79087 0.0
C667 C 0.10833 0.9559 0.75825 0.0
C668 C 0.14201 0.94306 0.76382 0.0
C669 C 0.15971 0.93294 0.80168 0.0
C670 C 0.05742 0.97315 0.78601 0.0
C671 C 0.15892 0.93865 0.72986 0.0
C672 C 0.05091 0.94854 0.66319 0.0
C673 C 0.05327 0.98038 0.64132 0.0
C674 C 0.06865 0.94025 0.70131 0.0
C675 C 0.08857 0.9647 0.71829 0.0
C676 C 0.09025 0.99724 0.69676 0.0
C677 C 0.07266 0.00467 0.65843 0.0
C678 C 0.06656 0.90513 0.7231 0.0
C679 C 0.11115 0.02398 0.71396 0.0
H680 H 0.09926 0.94997 0.85338 0.0
H681 H 0.18548 0.92304 0.8058 0.0
H682 H 0.05492 0.9979 0.76673 0.0
H683 H 0.03917 0.95629 0.77191 0.0
H684 H 0.05009 0.97601 0.81422 0.0
H685 H 0.18659 0.93286 0.7388 0.0
H686 H 0.14688 0.91768 0.71652 0.0
H687 H 0.15541 0.96141 0.70719 0.0
H688 H 0.03521 0.92999 0.65047 0.0
H689 H 0.07453 0.02938 0.64168 0.0
H690 H 0.05846 0.90576 0.75145 0.0
H691 H 0.09209 0.89278 0.72928 0.0
H692 H 0.04852 0.88963 0.70649 0.0
H693 H 0.1033 0.02735 0.74171 0.0
H694 H 0.10856 0.04844 0.69402 0.0
H695 H 0.1384 0.01615 0.72069 0.0
loop_
_geom_bond_atom_site_label_1
_geom_bond_atom_site_label_2
_geom_bond_distance
_geom_bond_site_symmetry_2
_ccdc_geom_bond_type
C0 C1 1.384 . S
C0 H13 0.947 . S
C0 C35 1.382 . S
C1 C0 1.384 . S
C1 C2 1.378 . S
C2 C1 1.378 . S
C2 C3 1.378 . S
C2 H14 0.952 . S
C3 C2 1.378 . S
C3 H15 0.950 . S
C3 C34 1.383 . S
H4 C23 0.947 . S
H5 C24 0.946 . S
H6 C26 0.953 . S
H7 C27 0.945 . S
H8 C29 0.952 . S
H9 C30 0.949 . S
H10 C32 0.950 . S
H11 C33 0.948 . S
H12 C35 0.951 . S
H13 C0 0.947 . S
H14 C2 0.952 . S
H15 C3 0.950 . S
N16 C19 1.382 . S
N16 C21 1.363 . S
N17 C19 1.371 1_556 S
N17 C20 1.372 . S
N18 C20 1.361 1_554 S
N18 C21 1.377 . S
C19 N16 1.382 . S
C19 N17 1.371 1_554 S
C19 C22 1.480 . S
C20 N17 1.372 . S
C20 N18 1.361 1_556 S
C20 C28 1.457 . S
C21 N16 1.363 . S
C21 N18 1.377 . S
C21 C34 1.479 . S
C22 C19 1.480 . S
C22 C23 1.383 . S
C22 C27 1.385 1_554 S
C23 H4 0.947 . S
C23 C22 1.383 . S
C23 C24 1.388 . S
C24 H5 0.946 . S
C24 C23 1.388 . S
C24 C25 1.384 . S
C25 C24 1.384 . S
C25 C26 1.377 1_554 S
C26 H6 0.953 . S
C26 C25 1.377 1_556 S
C26 C27 1.369 . S
C27 H7 0.945 . S
C27 C22 1.385 1_556 S
C27 C26 1.369 . S
C28 C20 1.457 . S
C28 C29 1.372 . S
C28 C33 1.364 . S
C29 H8 0.952 . S
C29 C28 1.372 . S
C29 C30 1.389 . S
C30 H9 0.949 . S
C30 C29 1.389 . S
C30 C31 1.387 . S
C31 C30 1.387 . S
C31 C32 1.372 . S
C32 H10 0.950 . S
C32 C31 1.372 . S
C32 C33 1.379 . S
C33 H11 0.948 . S
C33 C28 1.364 . S
C33 C32 1.379 . S
C34 C3 1.383 . S
C34 C21 1.479 . S
C34 C35 1.398 . S
C35 C0 1.382 . S
C35 H12 0.951 . S
C35 C34 1.398 . S
C36 C37 1.384 . S
C36 H49 0.947 . S
C36 C71 1.382 . S
C37 C36 1.384 . S
C37 C38 1.378 . S
C38 C37 1.378 . S
C38 C39 1.378 . S
C38 H50 0.952 . S
C39 C38 1.378 . S
C39 H51 0.950 . S
C39 C70 1.383 . S
H40 C59 0.947 . S
H41 C60 0.946 . S
H42 C62 0.953 . S
H43 C63 0.945 . S
H44 C65 0.952 . S
H45 C66 0.949 . S
H46 C68 0.950 . S
H47 C69 0.948 . S
H48 C71 0.951 . S
H49 C36 0.947 . S
H50 C38 0.952 . S
H51 C39 0.950 . S
N52 C55 1.382 . S
N52 C57 1.363 . S
N53 C55 1.371 . S
N53 C56 1.372 . S
N54 C56 1.361 . S
N54 C57 1.377 . S
C55 N52 1.382 . S
C55 N53 1.371 . S
C55 C58 1.480 . S
C56 N53 1.372 . S
C56 N54 1.361 . S
C56 C64 1.457 . S
C57 N52 1.363 . S
C57 N54 1.377 . S
C57 C70 1.479 . S
C58 C55 1.480 . S
C58 C59 1.383 . S
C58 C63 1.385 . S
C59 H40 0.947 . S
C59 C58 1.383 . S
C59 C60 1.388 . S
C60 H41 0.946 . S
C60 C59 1.388 . S
C60 C61 1.384 . S
C61 C60 1.384 . S
C61 C62 1.377 . S
C62 H42 0.953 . S
C62 C61 1.377 . S
C62 C63 1.369 . S
C63 H43 0.945 . S
C63 C58 1.385 . S
C63 C62 1.369 . S
C64 C56 1.457 . S
C64 C65 1.372 . S
C64 C69 1.364 . S
C65 H44 0.952 . S
C65 C64 1.372 . S
C65 C66 1.389 . S
C66 H45 0.949 . S
C66 C65 1.389 . S
C66 C67 1.387 . S
C67 C66 1.387 . S
C67 C68 1.372 . S
C68 H46 0.950 . S
C68 C67 1.372 . S
C68 C69 1.379 . S
C69 H47 0.948 . S
C69 C64 1.364 . S
C69 C68 1.379 . S
C70 C39 1.383 . S
C70 C57 1.479 . S
C70 C71 1.398 . S
C71 C36 1.382 . S
C71 H48 0.951 . S
C71 C70 1.398 . S
C72 C73 1.384 . S
C72 H85 0.947 . S
C72 C107 1.382 . S
C73 C72 1.384 . S
C73 C74 1.378 . S
C74 C73 1.378 . S
C74 C75 1.378 . S
C74 H86 0.952 . S
C75 C74 1.378 . S
C75 H87 0.950 . S
C75 C106 1.383 . S
H76 C95 0.947 . S
H77 C96 0.946 . S
H78 C98 0.953 . S
H79 C99 0.945 . S
H80 C101 0.952 . S
H81 C102 0.949 . S
H82 C104 0.950 . S
H83 C105 0.948 . S
H84 C107 0.951 1_554 S
H85 C72 0.947 . S
H86 C74 0.952 . S
H87 C75 0.950 . S
N88 C91 1.382 . S
N88 C93 1.363 . S
N89 C91 1.371 . S
N89 C92 1.372 . S
N90 C92 1.361 . S
N90 C93 1.377 . S
C91 N88 1.382 . S
C91 N89 1.371 . S
C91 C94 1.480 . S
C92 N89 1.372 . S
C92 N90 1.361 . S
C92 C100 1.457 . S
C93 N88 1.363 . S
C93 N90 1.377 . S
C93 C106 1.479 1_554 S
C94 C91 1.480 . S
C94 C95 1.383 1_554 S
C94 C99 1.385 . S
C95 H76 0.947 . S
C95 C94 1.383 1_556 S
C95 C96 1.388 . S
C96 H77 0.946 . S
C96 C95 1.388 . S
C96 C97 1.384 1_556 S
C97 C96 1.384 1_554 S
C97 C98 1.377 . S
C98 H78 0.953 . S
C98 C97 1.377 . S
C98 C99 1.369 . S
C99 H79 0.945 . S
C99 C94 1.385 . S
C99 C98 1.369 . S
C100 C92 1.457 . S
C100 C101 1.372 . S
C100 C105 1.364 . S
C101 H80 0.952 . S
C101 C100 1.372 . S
C101 C102 1.389 . S
C102 H81 0.949 . S
C102 C101 1.389 . S
C102 C103 1.387 . S
C103 C102 1.387 . S
C103 C104 1.372 . S
C104 H82 0.950 . S
C104 C103 1.372 . S
C104 C105 1.379 . S
C105 H83 0.948 . S
C105 C100 1.364 . S
C105 C104 1.379 . S
C106 C75 1.383 . S
C106 C93 1.479 1_556 S
C106 C107 1.398 . S
C107 C72 1.382 . S
C107 H84 0.951 1_556 S
C107 C106 1.398 . S
C108 C109 1.384 . S
C108 H121 0.947 . S
C108 C143 1.382 . S
C109 C108 1.384 . S
C109 C110 1.378 . S
C110 C109 1.378 . S
C110 C111 1.378 . S
C110 H122 0.952 . S
C111 C110 1.378 . S
C111 H123 0.950 . S
C111 C142 1.383 . S
H112 C131 0.947 . S
H113 C132 0.946 . S
H114 C134 0.953 . S
H115 C135 0.945 . S
H116 C137 0.952 . S
H117 C138 0.949 . S
H118 C140 0.950 . S
H119 C141 0.948 . S
H120 C143 0.951 . S
H121 C108 0.947 . S
H122 C110 0.952 . S
H123 C111 0.950 . S
N124 C127 1.382 . S
N124 C129 1.363 . S
N125 C127 1.371 . S
N125 C128 1.372 . S
N126 C128 1.361 . S
N126 C129 1.377 . S
C127 N124 1.382 . S
C127 N125 1.371 . S
C127 C130 1.480 . S
C128 N125 1.372 . S
C128 N126 1.361 . S
C128 C136 1.457 . S
C129 N124 1.363 . S
C129 N126 1.377 . S
C129 C142 1.479 . S
C130 C127 1.480 . S
C130 C131 1.383 . S
C130 C135 1.385 . S
C131 H112 0.947 . S
C131 C130 1.383 . S
C131 C132 1.388 . S
C132 H113 0.946 . S
C132 C131 1.388 . S
C132 C133 1.384 . S
C133 C132 1.384 . S
C133 C134 1.377 . S
C134 H114 0.953 . S
C134 C133 1.377 . S
C134 C135 1.369 . S
C135 H115 0.945 . S
C135 C130 1.385 . S
C135 C134 1.369 . S
C136 C128 1.457 . S
C136 C137 1.372 . S
C136 C141 1.364 . S
C137 H116 0.952 . S
C137 C136 1.372 . S
C137 C138 1.389 . S
C138 H117 0.949 . S
C138 C137 1.389 . S
C138 C139 1.387 . S
C139 C138 1.387 . S
C139 C140 1.372 . S
C140 H118 0.950 . S
C140 C139 1.372 . S
C140 C141 1.379 . S
C141 H119 0.948 . S
C141 C136 1.364 . S
C141 C140 1.379 . S
C142 C111 1.383 . S
C142 C129 1.479 . S
C142 C143 1.398 . S
C143 C108 1.382 . S
C143 H120 0.951 . S
C143 C142 1.398 . S
Eu144 N173 2.600 . S
Eu144 N179 2.562 . S
Eu144 O188 2.462 . S
Eu144 O189 2.373 . S
Eu144 O191 2.432 . S
Eu144 O192 2.291 1_565 S
Eu144 O196 2.335 1_455 S
Eu144 O199 2.372 1_455 S
Eu144 C208 2.787 . S
C145 N146 1.365 . S
C145 C148 1.405 . S
C145 C152 1.448 . S
N146 C145 1.365 . S
N146 C149 1.308 1_655 S
N146 Eu155 2.600 . S
C147 C149 1.398 1_655 S
C147 C150 1.367 . S
C147 H167 0.931 1_655 S
C148 C145 1.405 . S
C148 C150 1.403 . S
C148 C154 1.439 . S
C149 N146 1.308 1_455 S
C149 C147 1.398 1_455 S
C149 H160 0.941 . S
C150 C147 1.367 . S
C150 C148 1.403 . S
C150 H171 0.929 . S
C151 C152 1.430 . S
C151 C153 1.387 . S
C151 C157 1.404 . S
C152 C145 1.448 . S
C152 C151 1.430 . S
C152 N156 1.351 . S
C153 C151 1.387 . S
C153 C154 1.374 . S
C153 H168 0.931 . S
C154 C148 1.439 . S
C154 C153 1.374 . S
C154 H169 0.931 . S
Eu155 N146 2.600 . S
Eu155 N156 2.562 . S
Eu155 O190 2.335 1_655 S
Eu155 O193 2.372 1_655 S
Eu155 O194 2.462 . S
Eu155 O195 2.373 . S
Eu155 O197 2.432 . S
Eu155 O198 2.291 1_545 S
Eu155 C219 2.787 . S
N156 C152 1.351 . S
N156 Eu155 2.562 . S
N156 C158 1.325 . S
C157 C151 1.404 . S
C157 C159 1.366 . S
C157 H165 0.930 . S
C158 N156 1.325 . S
C158 C159 1.416 . S
C158 H164 0.929 . S
C159 C157 1.366 . S
C159 C158 1.416 . S
C159 H161 0.930 . S
H160 C149 0.941 . S
H161 C159 0.930 . S
H162 C177 0.930 1_655 S
H163 C184 0.930 . S
H164 C158 0.929 . S
H165 C157 0.930 . S
H166 C180 0.929 . S
H167 C147 0.931 1_455 S
H168 C153 0.931 . S
H169 C154 0.931 . S
H170 C175 0.931 1_655 S
H171 C150 0.929 . S
H172 C183 0.930 . S
N173 Eu144 2.600 . S
N173 C174 1.365 . S
N173 C177 1.319 . S
C174 N173 1.365 . S
C174 C176 1.405 . S
C174 C182 1.448 . S
C175 H170 0.931 1_455 S
C175 C177 1.397 . S
C175 C178 1.367 . S
C176 C174 1.405 . S
C176 C178 1.403 . S
C176 C209 1.439 . S
C177 H162 0.930 1_455 S
C177 N173 1.319 . S
C177 C175 1.397 . S
C178 C175 1.367 . S
C178 C176 1.403 . S
C178 H185 0.929 . S
N179 Eu144 2.562 . S
N179 C180 1.325 . S
N179 C182 1.351 . S
C180 H166 0.929 . S
C180 N179 1.325 . S
C180 C184 1.416 . S
C181 C182 1.430 . S
C181 C183 1.404 . S
C181 C210 1.387 . S
C182 C174 1.448 . S
C182 N179 1.351 . S
C182 C181 1.430 . S
C183 H172 0.930 . S
C183 C181 1.404 . S
C183 C184 1.366 . S
C184 H163 0.930 . S
C184 C180 1.416 . S
C184 C183 1.366 . S
H185 C178 0.929 . S
H186 C209 0.931 . S
H187 C210 0.931 . S
O188 Eu144 2.462 . S
O188 C208 1.252 . S
O189 Eu144 2.373 . S
O189 C200 1.249 . S
O190 Eu155 2.335 1_455 S
O190 C200 1.264 1_545 S
O191 Eu144 2.432 . S
O191 C208 1.268 . S
O192 Eu144 2.291 1_545 S
O192 C207 1.255 . S
O193 Eu155 2.372 1_455 S
O193 C207 1.257 . S
O194 Eu155 2.462 . S
O194 C219 1.252 . S
O195 Eu155 2.373 . S
O195 C211 1.249 . S
O196 Eu144 2.335 1_655 S
O196 C211 1.264 1_565 S
O197 Eu155 2.432 . S
O197 C219 1.268 . S
O198 Eu155 2.291 1_565 S
O198 C218 1.255 . S
O199 Eu144 2.372 1_655 S
O199 C218 1.257 . S
C200 O189 1.249 . S
C200 O190 1.264 1_565 S
C201 C204 1.382 . S
C201 C206 1.390 . S
C201 C208 1.506 . S
C202 C203 1.398 . S
C202 C206 1.392 . S
C203 C202 1.398 . S
C203 C205 1.372 . S
C203 H220 0.931 . S
C204 C201 1.382 . S
C204 C205 1.390 . S
C204 H221 0.931 . S
C205 C203 1.372 . S
C205 C204 1.390 . S
C205 H222 0.929 . S
C206 C201 1.390 . S
C206 C202 1.392 . S
C206 H223 0.930 . S
C207 O192 1.255 . S
C207 O193 1.257 . S
C208 Eu144 2.787 . S
C208 O188 1.252 . S
C208 O191 1.268 . S
C208 C201 1.506 . S
C209 C176 1.439 . S
C209 H186 0.931 . S
C209 C210 1.374 . S
C210 C181 1.387 . S
C210 H187 0.931 . S
C210 C209 1.374 . S
C211 O195 1.249 . S
C211 O196 1.264 1_545 S
C212 C215 1.382 . S
C212 C216 1.390 . S
C212 C219 1.506 . S
C213 C214 1.398 . S
C213 C216 1.392 . S
C214 C213 1.398 . S
C214 C217 1.372 . S
C214 H224 0.931 . S
C215 C212 1.382 . S
C215 C217 1.390 . S
C215 H225 0.931 . S
C216 C212 1.390 . S
C216 C213 1.392 . S
C216 H226 0.930 . S
C217 C214 1.372 . S
C217 C215 1.390 . S
C217 H227 0.929 . S
C218 O198 1.255 . S
C218 O199 1.257 . S
C219 Eu155 2.787 . S
C219 O194 1.252 . S
C219 O197 1.268 . S
C219 C212 1.506 . S
H220 C203 0.931 . S
H221 C204 0.931 . S
H222 C205 0.929 . S
H223 C206 0.930 . S
H224 C214 0.931 . S
H225 C215 0.931 . S
H226 C216 0.930 . S
H227 C217 0.929 . S
Eu228 N257 2.600 . S
Eu228 N263 2.562 1_556 S
Eu228 O272 2.462 . S
Eu228 O273 2.373 1_556 S
Eu228 O275 2.432 . S
Eu228 O276 2.291 1_556 S
Eu228 O280 2.335 . S
Eu228 O283 2.380 . S
Eu228 C292 2.787 . S
C229 N230 1.365 . S
C229 C232 1.405 . S
C229 C236 1.448 . S
N230 C229 1.365 . S
N230 C233 1.319 . S
N230 Eu239 2.600 . S
C231 C233 1.397 . S
C231 C234 1.367 . S
C231 H251 0.931 . S
C232 C229 1.405 . S
C232 C234 1.403 . S
C232 C238 1.439 . S
C233 N230 1.319 . S
C233 C231 1.397 . S
C233 H244 0.930 . S
C234 C231 1.367 . S
C234 C232 1.403 . S
C234 H255 0.929 . S
C235 C236 1.430 . S
C235 C237 1.387 . S
C235 C241 1.404 . S
C236 C229 1.448 . S
C236 C235 1.430 . S
C236 N240 1.351 . S
C237 C235 1.387 . S
C237 C238 1.374 . S
C237 H252 0.931 . S
C238 C232 1.439 . S
C238 C237 1.374 . S
C238 H253 0.931 . S
Eu239 N230 2.600 . S
Eu239 N240 2.562 . S
Eu239 O274 2.335 . S
Eu239 O277 2.372 . S
Eu239 O278 2.462 . S
Eu239 O279 2.373 1_554 S
Eu239 O281 2.432 . S
Eu239 O282 2.291 . S
Eu239 C303 2.787 . S
N240 C236 1.351 . S
N240 Eu239 2.562 . S
N240 C242 1.325 . S
C241 C235 1.404 . S
C241 C243 1.366 . S
C241 H249 0.930 . S
C242 N240 1.325 . S
C242 C243 1.416 . S
C242 H248 0.929 . S
C243 C241 1.366 . S
C243 C242 1.416 . S
C243 H245 0.930 . S
H244 C233 0.930 . S
H245 C243 0.930 . S
H246 C261 0.930 . S
H247 C268 0.930 . S
H248 C242 0.929 . S
H249 C241 0.930 . S
H250 C264 0.929 . S
H251 C231 0.931 . S
H252 C237 0.931 . S
H253 C238 0.931 . S
H254 C259 0.931 . S
H255 C234 0.929 . S
H256 C267 0.930 . S
N257 Eu228 2.600 . S
N257 C258 1.365 1_556 S
N257 C261 1.319 . S
C258 N257 1.365 1_554 S
C258 C260 1.405 . S
C258 C266 1.448 . S
C259 H254 0.931 . S
C259 C261 1.397 . S
C259 C262 1.367 1_556 S
C260 C258 1.405 . S
C260 C262 1.403 . S
C260 C293 1.439 . S
C261 H246 0.930 . S
C261 N257 1.319 . S
C261 C259 1.397 . S
C262 C259 1.367 1_554 S
C262 C260 1.403 . S
C262 H269 0.929 . S
N263 Eu228 2.562 1_554 S
N263 C264 1.325 . S
N263 C266 1.351 . S
C264 H250 0.929 . S
C264 N263 1.325 . S
C264 C268 1.416 . S
C265 C266 1.430 . S
C265 C267 1.404 . S
C265 C294 1.387 . S
C266 C258 1.448 . S
C266 N263 1.351 . S
C266 C265 1.430 . S
C267 H256 0.930 . S
C267 C265 1.404 . S
C267 C268 1.366 . S
C268 H247 0.930 . S
C268 C264 1.416 . S
C268 C267 1.366 . S
H269 C262 0.929 . S
H270 C293 0.931 . S
H271 C294 0.931 . S
O272 Eu228 2.462 . S
O272 C292 1.252 . S
O273 Eu228 2.373 1_554 S
O273 C284 1.249 . S
O274 Eu239 2.335 . S
O274 C284 1.264 . S
O275 Eu228 2.432 . S
O275 C292 1.268 . S
O276 Eu228 2.291 1_554 S
O276 C291 1.255 . S
O277 Eu239 2.372 . S
O277 C291 1.257 . S
O278 Eu239 2.462 . S
O278 C303 1.252 . S
O279 Eu239 2.373 1_556 S
O279 C295 1.249 . S
O280 Eu228 2.335 . S
O280 C295 1.264 . S
O281 Eu239 2.432 . S
O281 C303 1.268 . S
O282 Eu239 2.291 . S
O282 C302 1.255 . S
O283 Eu228 2.380 . S
O283 C302 1.240 1_556 S
C284 O273 1.249 . S
C284 O274 1.264 . S
C285 C288 1.382 . S
C285 C290 1.390 . S
C285 C292 1.506 . S
C286 C287 1.398 . S
C286 C290 1.392 . S
C287 C286 1.398 . S
C287 C289 1.372 . S
C287 H304 0.931 . S
C288 C285 1.382 . S
C288 C289 1.390 . S
C288 H305 0.931 . S
C289 C287 1.372 . S
C289 C288 1.390 . S
C289 H306 0.929 . S
C290 C285 1.390 . S
C290 C286 1.392 . S
C290 H307 0.930 . S
C291 O276 1.255 . S
C291 O277 1.257 . S
C292 Eu228 2.787 . S
C292 O272 1.252 . S
C292 O275 1.268 . S
C292 C285 1.506 . S
C293 C260 1.439 . S
C293 H270 0.931 . S
C293 C294 1.374 . S
C294 C265 1.387 . S
C294 H271 0.931 . S
C294 C293 1.374 . S
C295 O279 1.249 . S
C295 O280 1.264 . S
C296 C299 1.382 . S
C296 C300 1.390 . S
C296 C303 1.506 . S
C297 C298 1.398 . S
C297 C300 1.392 . S
C298 C297 1.398 . S
C298 C301 1.372 . S
C298 H308 0.931 . S
C299 C296 1.382 . S
C299 C301 1.390 . S
C299 H309 0.931 . S
C300 C296 1.390 . S
C300 C297 1.392 . S
C300 H310 0.930 . S
C301 C298 1.372 . S
C301 C299 1.390 . S
C301 H311 0.929 . S
C302 O282 1.255 . S
C302 O283 1.240 1_554 S
C303 Eu239 2.787 . S
C303 O278 1.252 . S
C303 O281 1.268 . S
C303 C296 1.506 . S
H304 C287 0.931 . S
H305 C288 0.931 . S
H306 C289 0.929 . S
H307 C290 0.930 . S
H308 C298 0.931 . S
H309 C299 0.931 . S
H310 C300 0.930 . S
H311 C301 0.929 . S
C312 C313 1.391 . S
C312 C314 1.394 . S
C312 H328 0.931 . S
C313 C312 1.391 . S
C313 C317 1.376 . S
C314 C312 1.394 . S
C314 C315 1.369 . S
C314 C318 1.531 . S
C315 C314 1.369 . S
C315 C316 1.410 . S
C315 C323 1.503 . S
C316 C315 1.410 . S
C316 C317 1.392 . S
C316 C319 1.511 . S
C317 C313 1.376 . S
C317 C316 1.392 . S
C317 H329 0.929 . S
C318 C314 1.531 . S
C318 H330 0.960 . S
C318 H331 0.962 . S
C318 H332 0.960 . S
C319 C316 1.511 . S
C319 H333 0.961 . S
C319 H334 0.961 . S
C319 H335 0.961 . S
C320 C321 1.370 . S
C320 C322 1.363 . S
C320 H336 0.931 . S
C321 C320 1.370 . S
C321 C325 1.408 . S
C322 C320 1.363 . S
C322 C323 1.370 . S
C322 C326 1.524 . S
C323 C315 1.503 . S
C323 C322 1.370 . S
C323 C324 1.403 . S
C324 C323 1.403 . S
C324 C325 1.404 . S
C324 C327 1.539 . S
C325 C321 1.408 . S
C325 C324 1.404 . S
C325 H337 0.930 . S
C326 C322 1.524 . S
C326 H338 0.956 . S
C326 H339 0.961 . S
C326 H340 0.961 . S
C327 C324 1.539 . S
C327 H341 0.958 . S
C327 H342 0.961 . S
C327 H343 0.960 . S
H328 C312 0.931 . S
H329 C317 0.929 . S
H330 C318 0.960 . S
H331 C318 0.962 . S
H332 C318 0.960 . S
H333 C319 0.961 . S
H334 C319 0.961 . S
H335 C319 0.961 . S
H336 C320 0.931 . S
H337 C325 0.930 . S
H338 C326 0.956 . S
H339 C326 0.961 . S
H340 C326 0.961 . S
H341 C327 0.958 . S
H342 C327 0.961 . S
H343 C327 0.960 . S
C344 C345 1.391 . S
C344 C346 1.394 . S
C344 H360 0.931 1_554 S
C345 C344 1.391 . S
C345 C349 1.376 . S
C346 C344 1.394 . S
C346 C347 1.369 . S
C346 C350 1.531 1_554 S
C347 C346 1.369 . S
C347 C348 1.410 . S
C347 C355 1.503 . S
C348 C347 1.410 . S
C348 C349 1.392 . S
C348 C351 1.511 . S
C349 C345 1.376 . S
C349 C348 1.392 . S
C349 H361 0.929 . S
C350 C346 1.531 1_556 S
C350 H362 0.960 . S
C350 H363 0.962 . S
C350 H364 0.960 . S
C351 C348 1.511 . S
C351 H365 0.961 . S
C351 H366 0.961 . S
C351 H367 0.961 . S
C352 C353 1.370 . S
C352 C354 1.363 . S
C352 H368 0.931 . S
C353 C352 1.370 . S
C353 C357 1.408 . S
C354 C352 1.363 . S
C354 C355 1.370 . S
C354 C358 1.524 . S
C355 C347 1.503 . S
C355 C354 1.370 . S
C355 C356 1.403 . S
C356 C355 1.403 . S
C356 C357 1.404 . S
C356 C359 1.539 1_554 S
C357 C353 1.408 . S
C357 C356 1.404 . S
C357 H369 0.930 . S
C358 C354 1.524 . S
C358 H370 0.956 . S
C358 H371 0.961 . S
C358 H372 0.961 . S
C359 C356 1.539 1_556 S
C359 H373 0.958 . S
C359 H374 0.961 . S
C359 H375 0.960 1_556 S
H360 C344 0.931 1_556 S
H361 C349 0.929 . S
H362 C350 0.960 . S
H363 C350 0.962 . S
H364 C350 0.960 . S
H365 C351 0.961 . S
H366 C351 0.961 . S
H367 C351 0.961 . S
H368 C352 0.931 . S
H369 C357 0.930 . S
H370 C358 0.956 . S
H371 C358 0.961 . S
H372 C358 0.961 . S
H373 C359 0.958 . S
H374 C359 0.961 . S
H375 C359 0.960 1_554 S
C376 C377 1.391 . S
C376 C378 1.394 . S
C376 H392 0.931 . S
C377 C376 1.391 . S
C377 C381 1.376 . S
C378 C376 1.394 . S
C378 C379 1.369 . S
C378 C382 1.531 . S
C379 C378 1.369 . S
C379 C380 1.410 . S
C379 C387 1.503 . S
C380 C379 1.410 . S
C380 C381 1.392 . S
C380 C383 1.511 . S
C381 C377 1.376 . S
C381 C380 1.392 . S
C381 H393 0.929 . S
C382 C378 1.531 . S
C382 H394 0.960 . S
C382 H395 0.962 . S
C382 H396 0.960 . S
C383 C380 1.511 . S
C383 H397 0.961 . S
C383 H398 0.961 . S
C383 H399 0.961 . S
C384 C385 1.370 . S
C384 C386 1.363 . S
C384 H400 0.931 . S
C385 C384 1.370 . S
C385 C389 1.408 . S
C386 C384 1.363 . S
C386 C387 1.370 . S
C386 C390 1.524 . S
C387 C379 1.503 . S
C387 C386 1.370 . S
C387 C388 1.403 . S
C388 C387 1.403 . S
C388 C389 1.404 . S
C388 C391 1.539 . S
C389 C385 1.408 . S
C389 C388 1.404 . S
C389 H401 0.930 . S
C390 C386 1.524 . S
C390 H402 0.956 . S
C390 H403 0.961 . S
C390 H404 0.961 . S
C391 C388 1.539 . S
C391 H405 0.958 . S
C391 H406 0.961 . S
C391 H407 0.960 . S
H392 C376 0.931 . S
H393 C381 0.929 . S
H394 C382 0.960 . S
H395 C382 0.962 . S
H396 C382 0.960 . S
H397 C383 0.961 . S
H398 C383 0.961 . S
H399 C383 0.961 . S
H400 C384 0.931 . S
H401 C389 0.930 . S
H402 C390 0.956 . S
H403 C390 0.961 . S
H404 C390 0.961 . S
H405 C391 0.958 . S
H406 C391 0.961 . S
H407 C391 0.960 . S
C408 C409 1.391 . S
C408 C410 1.394 . S
C408 H424 0.931 . S
C409 C408 1.391 . S
C409 C413 1.376 1_554 S
C410 C408 1.394 . S
C410 C411 1.369 . S
C410 C414 1.531 . S
C411 C410 1.369 . S
C411 C412 1.410 1_554 S
C411 C419 1.503 . S
C412 C411 1.410 1_556 S
C412 C413 1.392 . S
C412 C415 1.511 . S
C413 C409 1.376 1_556 S
C413 C412 1.392 . S
C413 H425 0.929 . S
C414 C410 1.531 . S
C414 H426 0.960 . S
C414 H427 0.962 . S
C414 H428 0.960 . S
C415 C412 1.511 . S
C415 H429 0.961 . S
C415 H430 0.961 . S
C415 H431 0.961 . S
C416 C417 1.370 . S
C416 C418 1.363 . S
C416 H432 0.931 . S
C417 C416 1.370 . S
C417 C421 1.408 . S
C418 C416 1.363 . S
C418 C419 1.370 . S
C418 C422 1.524 . S
C419 C411 1.503 . S
C419 C418 1.370 . S
C419 C420 1.403 . S
C420 C419 1.403 . S
C420 C421 1.404 . S
C420 C423 1.539 . S
C421 C417 1.408 . S
C421 C420 1.404 . S
C421 H433 0.930 . S
C422 C418 1.524 . S
C422 H434 0.956 . S
C422 H435 0.961 . S
C422 H436 0.961 . S
C423 C420 1.539 . S
C423 H437 0.958 . S
C423 H438 0.961 1_554 S
C423 H439 0.979 . S
H424 C408 0.931 . S
H425 C413 0.929 . S
H426 C414 0.960 . S
H427 C414 0.962 . S
H428 C414 0.960 . S
H429 C415 0.961 . S
H430 C415 0.961 . S
H431 C415 0.961 . S
H432 C416 0.931 . S
H433 C421 0.930 . S
H434 C422 0.956 . S
H435 C422 0.961 . S
H436 C422 0.961 . S
H437 C423 0.958 . S
H438 C423 0.961 1_556 S
H439 C423 0.979 . S
C440 C441 1.391 . S
C440 C442 1.394 . S
C440 H456 0.931 . S
C441 C440 1.391 . S
C441 C445 1.376 . S
C442 C440 1.394 . S
C442 C443 1.369 . S
C442 C446 1.531 . S
C443 C442 1.369 . S
C443 C444 1.410 . S
C443 C451 1.503 . S
C444 C443 1.410 . S
C444 C445 1.392 . S
C444 C447 1.511 . S
C445 C441 1.376 . S
C445 C444 1.392 . S
C445 H457 0.929 . S
C446 C442 1.531 . S
C446 H458 0.960 1_565 S
C446 H459 0.962 . S
C446 H460 0.960 1_565 S
C447 C444 1.511 . S
C447 H461 0.961 . S
C447 H462 0.961 . S
C447 H463 0.961 . S
C448 C449 1.370 . S
C448 C450 1.363 . S
C448 H464 0.931 . S
C449 C448 1.370 . S
C449 C453 1.408 . S
C450 C448 1.363 . S
C450 C451 1.370 . S
C450 C454 1.524 . S
C451 C443 1.503 . S
C451 C450 1.370 . S
C451 C452 1.403 . S
C452 C451 1.403 . S
C452 C453 1.404 . S
C452 C455 1.539 . S
C453 C449 1.408 . S
C453 C452 1.404 . S
C453 H465 0.930 . S
C454 C450 1.524 . S
C454 H466 0.956 . S
C454 H467 0.961 . S
C454 H468 0.961 . S
C455 C452 1.539 . S
C455 H469 0.958 . S
C455 H470 0.961 . S
C455 H471 0.960 . S
H456 C440 0.931 . S
H457 C445 0.929 . S
H458 C446 0.960 1_545 S
H459 C446 0.962 . S
H460 C446 0.960 1_545 S
H461 C447 0.961 . S
H462 C447 0.961 . S
H463 C447 0.961 . S
H464 C448 0.931 . S
H465 C453 0.930 . S
H466 C454 0.956 . S
H467 C454 0.961 . S
H468 C454 0.961 . S
H469 C455 0.958 . S
H470 C455 0.961 . S
H471 C455 0.960 . S
C472 C473 1.391 . S
C472 C474 1.394 . S
C472 H488 0.931 . S
C473 C472 1.391 . S
C473 C477 1.376 . S
C474 C472 1.394 . S
C474 C475 1.369 . S
C474 C478 1.531 . S
C475 C474 1.369 . S
C475 C476 1.410 . S
C475 C483 1.503 . S
C476 C475 1.410 . S
C476 C477 1.392 . S
C476 C479 1.511 . S
C477 C473 1.376 . S
C477 C476 1.392 . S
C477 H489 0.929 . S
C478 C474 1.531 . S
C478 H490 0.960 . S
C478 H491 0.962 . S
C478 H492 0.960 . S
C479 C476 1.511 . S
C479 H493 0.961 . S
C479 H494 0.961 . S
C479 H495 0.961 . S
C480 C481 1.370 . S
C480 C482 1.363 . S
C480 H496 0.931 . S
C481 C480 1.370 . S
C481 C485 1.408 . S
C482 C480 1.363 . S
C482 C483 1.370 . S
C482 C486 1.524 . S
C483 C475 1.503 . S
C483 C482 1.370 . S
C483 C484 1.403 . S
C484 C483 1.403 . S
C484 C485 1.404 . S
C484 C487 1.539 . S
C485 C481 1.408 . S
C485 C484 1.404 . S
C485 H497 0.930 . S
C486 C482 1.524 . S
C486 H498 0.956 . S
C486 H499 0.961 . S
C486 H500 0.961 . S
C487 C484 1.539 . S
C487 H501 0.958 . S
C487 H502 0.961 . S
C487 H503 0.960 . S
H488 C472 0.931 . S
H489 C477 0.929 . S
H490 C478 0.960 . S
H491 C478 0.962 . S
H492 C478 0.960 . S
H493 C479 0.961 . S
H494 C479 0.961 . S
H495 C479 0.961 . S
H496 C480 0.931 . S
H497 C485 0.930 . S
H498 C486 0.956 . S
H499 C486 0.961 . S
H500 C486 0.961 . S
H501 C487 0.958 . S
H502 C487 0.961 . S
H503 C487 0.960 . S
C504 C505 1.391 . S
C504 C506 1.394 . S
C504 H520 0.931 . S
C505 C504 1.391 . S
C505 C509 1.376 . S
C506 C504 1.394 . S
C506 C507 1.369 . S
C506 C510 1.531 . S
C507 C506 1.369 . S
C507 C508 1.410 . S
C507 C515 1.503 . S
C508 C507 1.410 . S
C508 C509 1.392 . S
C508 C511 1.511 . S
C509 C505 1.376 . S
C509 C508 1.392 . S
C509 H521 0.929 . S
C510 C506 1.531 . S
C510 H522 0.960 . S
C510 H523 0.962 . S
C510 H524 0.960 . S
C511 C508 1.511 . S
C511 H525 0.961 . S
C511 H526 0.961 . S
C511 H527 0.961 . S
C512 C513 1.370 . S
C512 C514 1.363 . S
C512 H528 0.931 1_545 S
C513 C512 1.370 . S
C513 C517 1.408 . S
C514 C512 1.363 . S
C514 C515 1.370 . S
C514 C518 1.523 1_545 S
C515 C507 1.503 . S
C515 C514 1.370 . S
C515 C516 1.403 . S
C516 C515 1.403 . S
C516 C517 1.404 . S
C516 C519 1.539 . S
C517 C513 1.408 . S
C517 C516 1.404 . S
C517 H529 0.930 . S
C518 C514 1.523 1_565 S
C518 H530 0.955 1_565 S
C518 H531 0.961 . S
C518 H532 0.962 . S
C519 C516 1.539 . S
C519 H533 0.958 . S
C519 H534 0.961 . S
C519 H535 0.960 . S
H520 C504 0.931 . S
H521 C509 0.929 . S
H522 C510 0.960 . S
H523 C510 0.962 . S
H524 C510 0.960 . S
H525 C511 0.961 . S
H526 C511 0.961 . S
H527 C511 0.961 . S
H528 C512 0.931 1_565 S
H529 C517 0.930 . S
H530 C518 0.955 1_545 S
H531 C518 0.961 . S
H532 C518 0.962 . S
H533 C519 0.958 . S
H534 C519 0.961 . S
H535 C519 0.960 . S
C536 C537 1.391 . S
C536 C538 1.394 . S
C536 H552 0.931 . S
C537 C536 1.391 . S
C537 C541 1.376 . S
C538 C536 1.394 . S
C538 C539 1.369 . S
C538 C542 1.531 . S
C539 C538 1.369 . S
C539 C540 1.410 . S
C539 C547 1.503 . S
C540 C539 1.410 . S
C540 C541 1.392 . S
C540 C543 1.511 . S
C541 C537 1.376 . S
C541 C540 1.392 . S
C541 H553 0.929 . S
C542 C538 1.531 . S
C542 H554 0.960 . S
C542 H555 0.962 . S
C542 H556 0.960 . S
C543 C540 1.511 . S
C543 H557 0.961 . S
C543 H558 0.961 . S
C543 H559 0.961 . S
C544 C545 1.370 . S
C544 C546 1.363 . S
C544 H560 0.931 . S
C545 C544 1.370 . S
C545 C549 1.408 . S
C546 C544 1.363 . S
C546 C547 1.370 . S
C546 C550 1.524 . S
C547 C539 1.503 . S
C547 C546 1.370 . S
C547 C548 1.403 . S
C548 C547 1.403 . S
C548 C549 1.404 . S
C548 C551 1.539 . S
C549 C545 1.408 . S
C549 C548 1.404 . S
C549 H561 0.930 . S
C550 C546 1.524 . S
C550 H562 0.956 . S
C550 H563 0.961 . S
C550 H564 0.961 . S
C551 C548 1.539 . S
C551 H565 0.958 . S
C551 H566 0.961 . S
C551 H567 0.960 . S
H552 C536 0.931 . S
H553 C541 0.929 . S
H554 C542 0.960 . S
H555 C542 0.962 . S
H556 C542 0.960 . S
H557 C543 0.961 . S
H558 C543 0.961 . S
H559 C543 0.961 . S
H560 C544 0.931 . S
H561 C549 0.930 . S
H562 C550 0.956 . S
H563 C550 0.961 . S
H564 C550 0.961 . S
H565 C551 0.958 . S
H566 C551 0.961 . S
H567 C551 0.960 . S
C568 C569 1.391 . S
C568 C570 1.394 . S
C568 H584 0.931 . S
C569 C568 1.391 . S
C569 C573 1.376 . S
C570 C568 1.394 . S
C570 C571 1.369 . S
C570 C574 1.531 . S
C571 C570 1.369 . S
C571 C572 1.410 . S
C571 C579 1.503 . S
C572 C571 1.410 . S
C572 C573 1.392 . S
C572 C575 1.511 . S
C573 C569 1.376 . S
C573 C572 1.392 . S
C573 H585 0.929 . S
C574 C570 1.531 . S
C574 H586 0.960 . S
C574 H587 0.962 . S
C574 H588 0.960 . S
C575 C572 1.511 . S
C575 H589 0.961 . S
C575 H590 0.961 . S
C575 H591 0.961 . S
C576 C577 1.370 . S
C576 C578 1.363 . S
C576 H592 0.931 . S
C577 C576 1.370 . S
C577 C581 1.408 . S
C578 C576 1.363 . S
C578 C579 1.370 . S
C578 C582 1.524 . S
C579 C571 1.503 . S
C579 C578 1.370 . S
C579 C580 1.403 . S
C580 C579 1.403 . S
C580 C581 1.404 . S
C580 C583 1.539 . S
C581 C577 1.408 . S
C581 C580 1.404 . S
C581 H593 0.930 . S
C582 C578 1.524 . S
C582 H594 0.956 . S
C582 H595 0.961 . S
C582 H596 0.961 . S
C583 C580 1.539 . S
C583 H597 0.958 . S
C583 H598 0.961 . S
C583 H599 0.960 . S
H584 C568 0.931 . S
H585 C573 0.929 . S
H586 C574 0.960 . S
H587 C574 0.962 . S
H588 C574 0.960 . S
H589 C575 0.961 . S
H590 C575 0.961 . S
H591 C575 0.961 . S
H592 C576 0.931 . S
H593 C581 0.930 . S
H594 C582 0.956 . S
H595 C582 0.961 . S
H596 C582 0.961 . S
H597 C583 0.958 . S
H598 C583 0.961 . S
H599 C583 0.960 . S
C600 C601 1.391 . S
C600 C602 1.394 . S
C600 H616 0.931 . S
C601 C600 1.391 . S
C601 C605 1.376 . S
C602 C600 1.394 . S
C602 C603 1.369 . S
C602 C606 1.531 . S
C603 C602 1.369 . S
C603 C604 1.410 . S
C603 C611 1.503 . S
C604 C603 1.410 . S
C604 C605 1.392 . S
C604 C607 1.511 . S
C605 C601 1.376 . S
C605 C604 1.392 . S
C605 H617 0.929 . S
C606 C602 1.531 . S
C606 H618 0.960 . S
C606 H619 0.962 . S
C606 H620 0.960 . S
C607 C604 1.511 . S
C607 H621 0.961 1_545 S
C607 H622 0.961 . S
C607 H623 0.964 . S
C608 C609 1.370 . S
C608 C610 1.363 . S
C608 H624 0.931 . S
C609 C608 1.370 . S
C609 C613 1.408 . S
C610 C608 1.363 . S
C610 C611 1.370 . S
C610 C614 1.524 . S
C611 C603 1.503 . S
C611 C610 1.370 . S
C611 C612 1.403 . S
C612 C611 1.403 . S
C612 C613 1.404 . S
C612 C615 1.539 . S
C613 C609 1.408 . S
C613 C612 1.404 . S
C613 H625 0.930 . S
C614 C610 1.524 . S
C614 H626 0.956 . S
C614 H627 0.961 . S
C614 H628 0.961 . S
C615 C612 1.539 . S
C615 H629 0.958 . S
C615 H630 0.961 . S
C615 H631 0.960 . S
H616 C600 0.931 . S
H617 C605 0.929 . S
H618 C606 0.960 . S
H619 C606 0.962 . S
H620 C606 0.960 . S
H621 C607 0.961 1_565 S
H622 C607 0.961 . S
H623 C607 0.964 . S
H624 C608 0.931 . S
H625 C613 0.930 . S
H626 C614 0.956 . S
H627 C614 0.961 . S
H628 C614 0.961 . S
H629 C615 0.958 . S
H630 C615 0.961 . S
H631 C615 0.960 . S
C632 C633 1.391 . S
C632 C634 1.394 . S
C632 H648 0.931 . S
C633 C632 1.391 . S
C633 C637 1.376 . S
C634 C632 1.394 . S
C634 C635 1.369 . S
C634 C638 1.531 . S
C635 C634 1.369 . S
C635 C636 1.410 . S
C635 C643 1.503 . S
C636 C635 1.410 . S
C636 C637 1.392 . S
C636 C639 1.511 . S
C637 C633 1.376 . S
C637 C636 1.392 . S
C637 H649 0.929 . S
C638 C634 1.531 . S
C638 H650 0.960 . S
C638 H651 0.962 . S
C638 H652 0.960 . S
C639 C636 1.511 . S
C639 H653 0.961 . S
C639 H654 0.961 . S
C639 H655 0.961 . S
C640 C641 1.370 . S
C640 C642 1.363 . S
C640 H656 0.931 . S
C641 C640 1.370 . S
C641 C645 1.408 . S
C642 C640 1.363 . S
C642 C643 1.370 . S
C642 C646 1.524 . S
C643 C635 1.503 . S
C643 C642 1.370 . S
C643 C644 1.403 . S
C644 C643 1.403 . S
C644 C645 1.404 . S
C644 C647 1.539 . S
C645 C641 1.408 . S
C645 C644 1.404 . S
C645 H657 0.930 . S
C646 C642 1.524 . S
C646 H658 0.956 . S
C646 H659 0.961 . S
C646 H660 0.961 . S
C647 C644 1.539 . S
C647 H661 0.958 . S
C647 H662 0.961 . S
C647 H663 0.960 . S
H648 C632 0.931 . S
H649 C637 0.929 . S
H650 C638 0.960 . S
H651 C638 0.962 . S
H652 C638 0.960 . S
H653 C639 0.961 . S
H654 C639 0.961 . S
H655 C639 0.961 . S
H656 C640 0.931 . S
H657 C645 0.930 . S
H658 C646 0.956 . S
H659 C646 0.961 . S
H660 C646 0.961 . S
H661 C647 0.958 . S
H662 C647 0.961 . S
H663 C647 0.960 . S
C664 C665 1.391 . S
C664 C666 1.394 . S
C664 H680 0.931 . S
C665 C664 1.391 . S
C665 C669 1.376 . S
C666 C664 1.394 . S
C666 C667 1.369 . S
C666 C670 1.531 . S
C667 C666 1.369 . S
C667 C668 1.410 . S
C667 C675 1.503 . S
C668 C667 1.410 . S
C668 C669 1.392 . S
C668 C671 1.511 . S
C669 C665 1.376 . S
C669 C668 1.392 . S
C669 H681 0.929 . S
C670 C666 1.531 . S
C670 H682 0.960 1_565 S
C670 H683 0.962 . S
C670 H684 0.960 1_565 S
C671 C668 1.511 . S
C671 H685 0.961 . S
C671 H686 0.961 . S
C671 H687 0.961 . S
C672 C673 1.370 . S
C672 C674 1.363 . S
C672 H688 0.931 . S
C673 C672 1.370 . S
C673 C677 1.408 . S
C674 C672 1.363 . S
C674 C675 1.370 . S
C674 C678 1.524 . S
C675 C667 1.503 . S
C675 C674 1.370 . S
C675 C676 1.403 . S
C676 C675 1.403 . S
C676 C677 1.404 . S
C676 C679 1.539 1_565 S
C677 C673 1.408 . S
C677 C676 1.404 . S
C677 H689 0.930 1_565 S
C678 C674 1.524 . S
C678 H690 0.956 . S
C678 H691 0.961 . S
C678 H692 0.961 . S
C679 C676 1.539 1_545 S
C679 H693 0.958 . S
C679 H694 0.961 . S
C679 H695 0.960 . S
H680 C664 0.931 . S
H681 C669 0.929 . S
H682 C670 0.960 1_545 S
H683 C670 0.962 . S
H684 C670 0.960 1_545 S
H685 C671 0.961 . S
H686 C671 0.961 . S
H687 C671 0.961 . S
H688 C672 0.931 . S
H689 C677 0.930 1_545 S
H690 C678 0.956 . S
H691 C678 0.961 . S
H692 C678 0.961 . S
H693 C679 0.958 . S
H694 C679 0.961 . S
H695 C679 0.960 . S
C321 C207 1.632 . S
C313 C133 1.634 . S
C345 C25 1.622 . S
C353 C302 1.616 . S
C377 C61 1.620 . S
C385 C218 1.627 . S
C409 C97 1.564 . S
C417 C291 1.624 . S
C449 C202 1.413 . S
C441 C1 1.554 . S
C481 C295 1.611 . S
C473 C67 1.565 . S
C505 C103 1.567 . S
C513 C211 1.620 . S
C537 C109 1.530 . S
C545 C286 1.384 . S
C577 C297 1.403 . S
C569 C37 1.529 . S
C609 C213 1.410 . S
C601 C73 1.529 . S
C641 C284 1.612 . S
C633 C139 1.611 . S
C665 C31 1.619 . S
C673 C200 1.618 . S
