# Generated by pormake.
# Topology nom, (4,4)-cn, num edge types: 1
# Building blocks:
#     Node 0, Type 0, BuildingBlock: AZAVOO_clean_linker_0, # of connection points: 4
#     Node 1, Type 0, BuildingBlock: AZAVOO_clean_linker_0, # of connection points: 4
#     Node 2, Type 0, BuildingBlock: AZAVOO_clean_linker_0, # of connection points: 4
#     Node 3, Type 0, BuildingBlock: AZAVOO_clean_linker_0, # of connection points: 4
#     Node 4, Type 0, BuildingBlock: AZAVOO_clean_linker_0, # of connection points: 4
#     Node 5, Type 0, BuildingBlock: AZAVOO_clean_linker_0, # of connection points: 4
#     Node 6, Type 1, BuildingBlock: NAHDIM_clean_sbu_0, # of connection points: 4
#     Node 7, Type 1, BuildingBlock: NAHDIM_clean_sbu_0, # of connection points: 4
#     Node 8, Type 1, BuildingBlock: NAHDIM_clean_sbu_0, # of connection points: 4
#     Node 9, Type 1, BuildingBlock: NAHDIM_clean_sbu_0, # of connection points: 4
#     Node 10, Type 1, BuildingBlock: NAHDIM_clean_sbu_0, # of connection points: 4
#     Node 11, Type 1, BuildingBlock: NAHDIM_clean_sbu_0, # of connection points: 4
#     Edge 12, Type (0, 1), BuildingBlock: XUDNAN_clean_linker_2, # of connection points: 2
#     Edge 13, Type (0, 1), BuildingBlock: XUDNAN_clean_linker_2, # of connection points: 2
#     Edge 14, Type (0, 1), BuildingBlock: XUDNAN_clean_linker_2, # of connection points: 2
#     Edge 15, Type (0, 1), BuildingBlock: XUDNAN_clean_linker_2, # of connection points: 2
#     Edge 16, Type (0, 1), BuildingBlock: XUDNAN_clean_linker_2, # of connection points: 2
#     Edge 17, Type (0, 1), BuildingBlock: XUDNAN_clean_linker_2, # of connection points: 2
#     Edge 18, Type (0, 1), BuildingBlock: XUDNAN_clean_linker_2, # of connection points: 2
#     Edge 19, Type (0, 1), BuildingBlock: XUDNAN_clean_linker_2, # of connection points: 2
#     Edge 20, Type (0, 1), BuildingBlock: XUDNAN_clean_linker_2, # of connection points: 2
#     Edge 21, Type (0, 1), BuildingBlock: XUDNAN_clean_linker_2, # of connection points: 2
#     Edge 22, Type (0, 1), BuildingBlock: XUDNAN_clean_linker_2, # of connection points: 2
#     Edge 23, Type (0, 1), BuildingBlock: XUDNAN_clean_linker_2, # of connection points: 2
#     Edge 24, Type (0, 1), BuildingBlock: XUDNAN_clean_linker_2, # of connection points: 2
#     Edge 25, Type (0, 1), BuildingBlock: XUDNAN_clean_linker_2, # of connection points: 2
#     Edge 26, Type (0, 1), BuildingBlock: XUDNAN_clean_linker_2, # of connection points: 2
#     Edge 27, Type (0, 1), BuildingBlock: XUDNAN_clean_linker_2, # of connection points: 2
#     Edge 28, Type (0, 1), BuildingBlock: XUDNAN_clean_linker_2, # of connection points: 2
#     Edge 29, Type (0, 1), BuildingBlock: XUDNAN_clean_linker_2, # of connection points: 2
#     Edge 30, Type (0, 1), BuildingBlock: XUDNAN_clean_linker_2, # of connection points: 2
#     Edge 31, Type (0, 1), BuildingBlock: XUDNAN_clean_linker_2, # of connection points: 2
#     Edge 32, Type (0, 1), BuildingBlock: XUDNAN_clean_linker_2, # of connection points: 2
#     Edge 33, Type (0, 1), BuildingBlock: XUDNAN_clean_linker_2, # of connection points: 2
#     Edge 34, Type (0, 1), BuildingBlock: XUDNAN_clean_linker_2, # of connection points: 2
#     Edge 35, Type (0, 1), BuildingBlock: XUDNAN_clean_linker_2, # of connection points: 2
# Relax obj value: 0.157
# Max RMSD: 0.225
# Mean RMSD: 0.169
data_MOF--net-nom--node1-NAHDIM_clean_sbu_0--node2-AZAVOO_clean_linker_0--edge1-XUDNAN_clean_linker_2
_symmetry_space_group_name_H-M    P1
_symmetry_Int_Tables_number       1
_symmetry_cell_setting            triclinic
loop_
_symmetry_equiv_pos_as_xyz
'x, y, z'
_cell_length_a     47.16492
_cell_length_b     50.136808
_cell_length_c     59.667515
_cell_angle_alpha  89.988582
_cell_angle_beta   90.435776
_cell_angle_gamma 122.32193
loop_
_atom_site_label
_atom_site_type_symbol
_atom_site_fract_x
_atom_site_fract_y
_atom_site_fract_z
_atom_type_partial_charge
H0 H 0.07453 0.45857 0.16208 0.0
H1 H 0.2585 0.65315 0.37204 0.0
H2 H 0.00682 0.44781 0.27553 0.0
H3 H 0.96305 0.41801 0.24749 0.0
H4 H 0.95124 0.49721 0.23902 0.0
H5 H 0.9958 0.52717 0.267 0.0
H6 H 0.08437 0.47979 0.25902 0.0
H7 H 0.08384 0.46523 0.21979 0.0
H8 H 0.04952 0.52637 0.19984 0.0
H9 H 0.05076 0.54113 0.23906 0.0
H10 H 0.14919 0.52789 0.29371 0.0
H11 H 0.20479 0.55805 0.2762 0.0
H12 H 0.17243 0.6097 0.23718 0.0
H13 H 0.1179 0.58102 0.25549 0.0
H14 H 0.11827 0.51819 0.34274 0.0
H15 H 0.16885 0.54664 0.36615 0.0
H16 H 0.19621 0.63353 0.33246 0.0
H17 H 0.14523 0.60488 0.30944 0.0
H18 H 0.03906 0.48633 0.35297 0.0
H19 H 0.04856 0.49272 0.39347 0.0
H20 H 0.10086 0.594 0.38606 0.0
H21 H 0.09144 0.58731 0.34549 0.0
H22 H 0.9714 0.46451 0.31368 0.0
H23 H 0.92101 0.46326 0.32476 0.0
H24 H 0.98173 0.56343 0.33927 0.0
H25 H 0.03063 0.565 0.32545 0.0
O26 O 0.0749 0.4649 0.17746 0.0
O27 O 0.05657 0.49613 0.16816 0.0
O28 O 0.22289 0.59608 0.37997 0.0
O29 O 0.23851 0.64127 0.36284 0.0
C30 C 0.03581 0.50924 0.28634 0.0
C31 C 0.06672 0.51925 0.27584 0.0
C32 C 0.09709 0.53706 0.28797 0.0
C33 C 0.0964 0.54239 0.31114 0.0
C34 C 0.06547 0.53234 0.32167 0.0
C35 C 0.03531 0.51746 0.30896 0.0
C36 C 0.0044 0.48957 0.27327 0.0
C37 C 0.99411 0.45838 0.26807 0.0
C38 C 0.96906 0.4414 0.25204 0.0
C39 C 0.95381 0.45532 0.24091 0.0
C40 C 0.96284 0.48601 0.24713 0.0
C41 C 0.98795 0.50301 0.26325 0.0
C42 C 0.06732 0.51127 0.25189 0.0
C43 C 0.07691 0.49011 0.24613 0.0
C44 C 0.0765 0.48179 0.22372 0.0
C45 C 0.06648 0.49452 0.20668 0.0
C46 C 0.05724 0.51602 0.21254 0.0
C47 C 0.0578 0.52441 0.23494 0.0
C48 C 0.12952 0.55234 0.27593 0.0
C49 C 0.15411 0.54563 0.28133 0.0
C50 C 0.18565 0.56266 0.27129 0.0
C51 C 0.19252 0.58585 0.25528 0.0
C52 C 0.16744 0.59156 0.24924 0.0
C53 C 0.13635 0.5752 0.25967 0.0
C54 C 0.12814 0.55947 0.32438 0.0
C55 C 0.13529 0.54335 0.34041 0.0
C56 C 0.16417 0.55966 0.35375 0.0
C57 C 0.18656 0.59239 0.3512 0.0
C58 C 0.17951 0.60835 0.33488 0.0
C59 C 0.1505 0.59204 0.32164 0.0
C60 C 0.06485 0.53634 0.34629 0.0
C61 C 0.05175 0.50983 0.36018 0.0
C62 C 0.05725 0.51356 0.38332 0.0
C63 C 0.07589 0.54391 0.39295 0.0
C64 C 0.08697 0.57035 0.3791 0.0
C65 C 0.0814 0.56658 0.35597 0.0
C66 C 0.00482 0.51492 0.31841 0.0
C67 C 0.97365 0.48623 0.31896 0.0
C68 C 0.94485 0.48552 0.32566 0.0
C69 C 0.94686 0.51337 0.33265 0.0
C70 C 0.97859 0.54164 0.33326 0.0
C71 C 0.00695 0.54249 0.32581 0.0
C72 C 0.06566 0.48533 0.18293 0.0
C73 C 0.21704 0.60989 0.36556 0.0
H74 H 0.53781 0.07709 0.3407 0.0
H75 H 0.52073 0.21044 0.56392 0.0
H76 H 0.5365 0.01626 0.45739 0.0
H77 H 0.53463 0.9789 0.43026 0.0
H78 H 0.42622 0.92668 0.43093 0.0
H79 H 0.42846 0.96462 0.45811 0.0
H80 H 0.54978 0.08286 0.4385 0.0
H81 H 0.55489 0.08683 0.39766 0.0
H82 H 0.44779 0.02108 0.39099 0.0
H83 H 0.44299 0.01769 0.43184 0.0
H84 H 0.55735 0.13127 0.47581 0.0
H85 H 0.56673 0.17984 0.45901 0.0
H86 H 0.465 0.12839 0.43315 0.0
H87 H 0.45547 0.0804 0.45096 0.0
H88 H 0.55482 0.10575 0.52519 0.0
H89 H 0.57046 0.15191 0.54845 0.0
H90 H 0.47955 0.14667 0.52766 0.0
H91 H 0.46399 0.10026 0.5047 0.0
H92 H 0.52821 0.02805 0.53451 0.0
H93 H 0.5407 0.03648 0.57444 0.0
H94 H 0.46982 0.06574 0.58106 0.0
H95 H 0.45487 0.05369 0.54165 0.0
H96 H 0.50804 0.97946 0.50284 0.0
H97 H 0.47949 0.92526 0.51723 0.0
H98 H 0.39005 0.92702 0.52816 0.0
H99 H 0.41866 0.98096 0.51373 0.0
O100 O 0.53519 0.07532 0.35681 0.0
O101 O 0.4801 0.04107 0.3543 0.0
O102 O 0.56148 0.19382 0.56508 0.0
O103 O 0.51519 0.19227 0.55482 0.0
C104 C 0.48473 0.01868 0.47338 0.0
C105 C 0.49313 0.04722 0.46288 0.0
C106 C 0.49915 0.07322 0.47595 0.0
C107 C 0.49857 0.07122 0.49959 0.0
C108 C 0.48921 0.04227 0.51012 0.0
C109 C 0.48097 0.01566 0.49685 0.0
C110 C 0.48264 0.99307 0.45966 0.0
C111 C 0.51236 0.99636 0.45202 0.0
C112 C 0.51122 0.97494 0.43659 0.0
C113 C 0.48027 0.94987 0.42843 0.0
C114 C 0.45042 0.94592 0.4368 0.0
C115 C 0.45161 0.96735 0.4524 0.0
C116 C 0.49605 0.04995 0.43809 0.0
C117 C 0.52745 0.06947 0.42817 0.0
C118 C 0.5303 0.07162 0.40485 0.0
C119 C 0.50175 0.05422 0.39105 0.0
C120 C 0.47028 0.03475 0.40111 0.0
C121 C 0.46747 0.03271 0.42443 0.0
C122 C 0.50565 0.10242 0.46476 0.0
C123 C 0.53712 0.1306 0.46656 0.0
C124 C 0.54249 0.15823 0.45675 0.0
C125 C 0.51657 0.15806 0.44476 0.0
C126 C 0.48532 0.12951 0.44258 0.0
C127 C 0.4799 0.102 0.45256 0.0
C128 C 0.50827 0.09967 0.51329 0.0
C129 C 0.53832 0.11461 0.5257 0.0
C130 C 0.5472 0.14098 0.53895 0.0
C131 C 0.52623 0.15298 0.53992 0.0
C132 C 0.49625 0.13804 0.5273 0.0
C133 C 0.48735 0.1116 0.51412 0.0
C134 C 0.49108 0.04083 0.53499 0.0
C135 C 0.51439 0.03504 0.54478 0.0
C136 C 0.52201 0.04055 0.56762 0.0
C137 C 0.50726 0.05295 0.58107 0.0
C138 C 0.48184 0.05621 0.5715 0.0
C139 C 0.47343 0.04964 0.54879 0.0
C140 C 0.46535 0.98404 0.50723 0.0
C141 C 0.48239 0.96816 0.50853 0.0
C142 C 0.46611 0.93734 0.5168 0.0
C143 C 0.43248 0.9219 0.52367 0.0
C144 C 0.41582 0.93819 0.52273 0.0
C145 C 0.43217 0.96903 0.51467 0.0
C146 C 0.50488 0.05639 0.36629 0.0
C147 C 0.53548 0.18091 0.55404 0.0
H148 H 0.54744 0.52851 0.79027 0.0
H149 H 0.60342 0.39918 0.57524 0.0
H150 H 0.54331 0.57452 0.67725 0.0
H151 H 0.51937 0.59009 0.70645 0.0
H152 H 0.41963 0.51701 0.68457 0.0
H153 H 0.44425 0.50029 0.65624 0.0
H154 H 0.57736 0.53869 0.69454 0.0
H155 H 0.57503 0.53996 0.73547 0.0
H156 H 0.46732 0.47572 0.73231 0.0
H157 H 0.47009 0.47424 0.69145 0.0
H158 H 0.60513 0.50937 0.66038 0.0
H159 H 0.62325 0.47404 0.67256 0.0
H160 H 0.52035 0.40182 0.687 0.0
H161 H 0.50254 0.43723 0.67478 0.0
H162 H 0.60272 0.52528 0.61022 0.0
H163 H 0.63073 0.50288 0.59058 0.0
H164 H 0.54687 0.40892 0.60501 0.0
H165 H 0.5189 0.43166 0.62424 0.0
H166 H 0.56735 0.55333 0.58937 0.0
H167 H 0.5836 0.54503 0.55232 0.0
H168 H 0.5038 0.44678 0.55468 0.0
H169 H 0.4877 0.45521 0.59156 0.0
H170 H 0.51929 0.57814 0.62526 0.0
H171 H 0.48324 0.5922 0.60539 0.0
H172 H 0.41894 0.49545 0.58347 0.0
H173 H 0.45423 0.4814 0.60384 0.0
O174 O 0.54786 0.52725 0.77411 0.0
O175 O 0.49251 0.49446 0.77153 0.0
O176 O 0.63513 0.45747 0.57559 0.0
O177 O 0.59297 0.40866 0.58298 0.0
C178 C 0.51056 0.52088 0.65263 0.0
C179 C 0.52523 0.50713 0.66515 0.0
C180 C 0.54054 0.49339 0.65399 0.0
C181 C 0.54184 0.49388 0.63039 0.0
C182 C 0.52598 0.50634 0.61788 0.0
C183 C 0.50968 0.51933 0.62894 0.0
C184 C 0.49554 0.53599 0.66492 0.0
C185 C 0.51626 0.5625 0.67835 0.0
C186 C 0.50241 0.57146 0.69501 0.0
C187 C 0.46748 0.55439 0.69822 0.0
C188 C 0.44666 0.53011 0.68295 0.0
C189 C 0.46062 0.52079 0.66652 0.0
C190 C 0.5239 0.50651 0.69005 0.0
C191 C 0.55335 0.52469 0.70275 0.0
C192 C 0.55191 0.52547 0.72611 0.0
C193 C 0.52097 0.50805 0.73717 0.0
C194 C 0.49155 0.48948 0.72435 0.0
C195 C 0.49305 0.48861 0.70101 0.0
C196 C 0.55254 0.47573 0.66658 0.0
C197 C 0.5867 0.48625 0.6668 0.0
C198 C 0.59692 0.46599 0.67357 0.0
C199 C 0.57313 0.43504 0.6804 0.0
C200 C 0.53927 0.42557 0.68193 0.0
C201 C 0.52905 0.44578 0.67502 0.0
C202 C 0.55882 0.48008 0.61862 0.0
C203 C 0.59043 0.49987 0.60905 0.0
C204 C 0.60639 0.48701 0.5979 0.0
C205 C 0.59107 0.45409 0.59628 0.0
C206 C 0.5594 0.43435 0.60599 0.0
C207 C 0.54338 0.44725 0.61701 0.0
C208 C 0.52652 0.50481 0.59314 0.0
C209 C 0.55224 0.53047 0.58132 0.0
C210 C 0.56159 0.52566 0.56025 0.0
C211 C 0.54527 0.49515 0.55098 0.0
C212 C 0.5169 0.47044 0.56165 0.0
C213 C 0.50749 0.47528 0.58258 0.0
C214 C 0.48956 0.52879 0.61585 0.0
C215 C 0.49748 0.56005 0.6161 0.0
C216 C 0.47691 0.56801 0.6048 0.0
C217 C 0.44847 0.54491 0.59281 0.0
C218 C 0.44099 0.5138 0.59229 0.0
C219 C 0.46118 0.50578 0.60386 0.0
C220 C 0.51945 0.50941 0.76195 0.0
C221 C 0.60783 0.44031 0.58434 0.0
H222 H 0.03082 0.43095 0.97218 0.0
H223 H 0.23637 0.5251 0.74891 0.0
H224 H 0.98943 0.4554 0.85781 0.0
H225 H 0.94305 0.43193 0.88442 0.0
H226 H 0.91945 0.33893 0.86567 0.0
H227 H 0.96614 0.36272 0.83908 0.0
H228 H 0.0565 0.47788 0.88013 0.0
H229 H 0.04993 0.46756 0.92046 0.0
H230 H 0.01823 0.37047 0.90777 0.0
H231 H 0.02513 0.38122 0.8675 0.0
H232 H 0.11357 0.51377 0.84903 0.0
H233 H 0.16563 0.5376 0.87084 0.0
H234 H 0.15675 0.4472 0.87349 0.0
H235 H 0.10392 0.42339 0.85217 0.0
H236 H 0.1075 0.52041 0.79864 0.0
H237 H 0.15968 0.54962 0.77747 0.0
H238 H 0.16902 0.46841 0.77976 0.0
H239 H 0.11658 0.43938 0.80073 0.0
H240 H 0.0384 0.49411 0.78183 0.0
H241 H 0.05708 0.51758 0.7448 0.0
H242 H 0.078 0.44599 0.72784 0.0
H243 H 0.05956 0.4229 0.76512 0.0
H244 H 0.98283 0.46292 0.80396 0.0
H245 H 0.92547 0.44078 0.79016 0.0
H246 H 0.9161 0.35116 0.77891 0.0
H247 H 0.97394 0.37403 0.79187 0.0
O248 O 0.03412 0.43474 0.95623 0.0
O249 O 0.0188 0.38527 0.94886 0.0
O250 O 0.21077 0.55581 0.75773 0.0
O251 O 0.21605 0.5143 0.75766 0.0
C252 C 0.01304 0.42546 0.83425 0.0
C253 C 0.04296 0.43605 0.84648 0.0
C254 C 0.07407 0.45319 0.83561 0.0
C255 C 0.07535 0.45936 0.81246 0.0
C256 C 0.04532 0.44842 0.80012 0.0
C257 C 0.01416 0.43143 0.81106 0.0
C258 C 0.98098 0.41071 0.84656 0.0
C259 C 0.9737 0.42993 0.85907 0.0
C260 C 0.94748 0.41653 0.87437 0.0
C261 C 0.92798 0.38366 0.87728 0.0
C262 C 0.93403 0.36432 0.86368 0.0
C263 C 0.96052 0.37781 0.84847 0.0
C264 C 0.04149 0.43034 0.87098 0.0
C265 C 0.04858 0.45453 0.88615 0.0
C266 C 0.04461 0.44851 0.90915 0.0
C267 C 0.03345 0.41816 0.91734 0.0
C268 C 0.02685 0.39409 0.90203 0.0
C269 C 0.03085 0.40017 0.87904 0.0
C270 C 0.1054 0.46705 0.84888 0.0
C271 C 0.12291 0.49917 0.85439 0.0
C272 C 0.15259 0.51268 0.86681 0.0
C273 C 0.16542 0.49431 0.87375 0.0
C274 C 0.14732 0.46187 0.86859 0.0
C275 C 0.11741 0.44832 0.85626 0.0
C276 C 0.10827 0.47778 0.8011 0.0
C277 C 0.12094 0.50904 0.79461 0.0
C278 C 0.15073 0.52565 0.78252 0.0
C279 C 0.16845 0.51129 0.77683 0.0
C280 C 0.15595 0.48013 0.7838 0.0
C281 C 0.12611 0.46354 0.79586 0.0
C282 C 0.04741 0.45669 0.77608 0.0
C283 C 0.04571 0.48274 0.76979 0.0
C284 C 0.0566 0.49623 0.74864 0.0
C285 C 0.06945 0.48389 0.73347 0.0
C286 C 0.06877 0.45635 0.73929 0.0
C287 C 0.05783 0.44287 0.76044 0.0
C288 C 0.98245 0.42009 0.7987 0.0
C289 C 0.9687 0.43885 0.79777 0.0
C290 C 0.93583 0.42602 0.79015 0.0
C291 C 0.91605 0.39407 0.78369 0.0
C292 C 0.9307 0.37591 0.7835 0.0
C293 C 0.9637 0.38887 0.79094 0.0
C294 C 0.02836 0.41162 0.94173 0.0
C295 C 0.19969 0.52858 0.76353 0.0
H296 H 0.41211 0.00904 0.83716 0.0
H297 H 0.4131 0.79414 0.00905 0.0
H298 H 0.43272 0.04074 0.95467 0.0
H299 H 0.4535 0.08822 0.93184 0.0
H300 H 0.55538 0.11688 0.94787 0.0
H301 H 0.53459 0.06871 0.96993 0.0
H302 H 0.40012 0.972 0.93125 0.0
H303 H 0.39491 0.98146 0.89164 0.0
H304 H 0.50303 0.0389 0.88678 0.0
H305 H 0.50789 0.02897 0.92636 0.0
H306 H 0.39109 0.90553 0.95339 0.0
H307 H 0.38828 0.86303 0.931 0.0
H308 H 0.49107 0.92651 0.91092 0.0
H309 H 0.49413 0.96818 0.93381 0.0
H310 H 0.39223 0.9158 0.00855 0.0
H311 H 0.37253 0.8615 0.01939 0.0
H312 H 0.46013 0.87043 0.98893 0.0
H313 H 0.47984 0.92483 0.97861 0.0
H314 H 0.42943 0.98918 0.03663 0.0
H315 H 0.43127 0.97706 0.07613 0.0
H316 H 0.49754 0.94507 0.05955 0.0
H317 H 0.49734 0.95935 0.0206 0.0
H318 H 0.46148 0.05832 0.00839 0.0
H319 H 0.49794 0.10414 0.0327 0.0
H320 H 0.56548 0.07152 0.04095 0.0
H321 H 0.53056 0.02726 0.01577 0.0
O322 O 0.41478 0.00579 0.85283 0.0
O323 O 0.47022 0.03021 0.85019 0.0
O324 O 0.37638 0.81254 0.02125 0.0
O325 O 0.42056 0.81571 0.00533 0.0
C326 C 0.46989 0.01872 0.97179 0.0
C327 C 0.45709 0.99395 0.95583 0.0
C328 C 0.44792 0.96341 0.96254 0.0
C329 C 0.44855 0.95676 0.9855 0.0
C330 C 0.461 0.98136 0.00154 0.0
C331 C 0.47322 0.01268 0.99453 0.0
C332 C 0.48213 0.05117 0.96384 0.0
C333 C 0.4595 0.05775 0.95385 0.0
C334 C 0.47133 0.08473 0.94081 0.0
C335 C 0.50594 0.10591 0.93813 0.0
C336 C 0.52857 0.10091 0.9499 0.0
C337 C 0.51674 0.07353 0.96255 0.0
C338 C 0.45434 -2e-05 0.93172 0.0
C339 C 0.42263 0.98661 0.9216 0.0
C340 C 0.41974 0.99212 0.89899 0.0
C341 C 0.44855 0.01093 0.88604 0.0
C342 C 0.48034 0.02425 0.89626 0.0
C343 C 0.48319 0.01875 0.91888 0.0
C344 C 0.44287 0.93986 0.94533 0.0
C345 C 0.41266 0.91039 0.94371 0.0
C346 C 0.4111 0.88624 0.93096 0.0
C347 C 0.43949 0.8916 0.91931 0.0
C348 C 0.46871 0.92188 0.91949 0.0
C349 C 0.47047 0.94572 0.93255 0.0
C350 C 0.43729 0.92415 0.99266 0.0
C351 C 0.40719 0.90602 0.00436 0.0
C352 C 0.39598 0.87501 0.01047 0.0
C353 C 0.4147 0.86158 0.00494 0.0
C354 C 0.44507 0.87999 0.99342 0.0
C355 C 0.45634 0.91105 0.98745 0.0
C356 C 0.4627 0.97457 0.02564 0.0
C357 C 0.44455 0.97981 0.04163 0.0
C358 C 0.44546 0.97264 0.06417 0.0
C359 C 0.46434 0.95981 0.07111 0.0
C360 C 0.48305 0.95526 0.05501 0.0
C361 C 0.48251 0.96288 0.03259 0.0
C362 C 0.49321 0.03928 0.01041 0.0
C363 C 0.4841 0.06107 0.0155 0.0
C364 C 0.5047 0.08699 0.02942 0.0
C365 C 0.53403 0.09081 0.03885 0.0
C366 C 0.5426 0.06862 0.03419 0.0
C367 C 0.52265 0.04336 0.01985 0.0
C368 C 0.44533 0.01634 0.86196 0.0
C369 C 0.40263 0.82848 0.01105 0.0
H370 H 0.55062 0.49487 0.99038 0.0
H371 H 0.68084 0.48978 0.22948 0.0
H372 H 0.51636 0.54078 0.10035 0.0
H373 H 0.49916 0.55052 0.0641 0.0
H374 H 0.59163 0.64167 0.06108 0.0
H375 H 0.60885 0.63164 0.09742 0.0
H376 H 0.54668 0.49941 0.08821 0.0
H377 H 0.54111 0.4881 0.04794 0.0
H378 H 0.62389 0.58336 0.03554 0.0
H379 H 0.62943 0.59419 0.07587 0.0
H380 H 0.57979 0.47887 0.12677 0.0
H381 H 0.60697 0.45221 0.11227 0.0
H382 H 0.68861 0.54141 0.08745 0.0
H383 H 0.66132 0.56768 0.10191 0.0
H384 H 0.56144 0.49766 0.17503 0.0
H385 H 0.57765 0.4738 0.20409 0.0
H386 H 0.68151 0.53432 0.18488 0.0
H387 H 0.665 0.55845 0.15616 0.0
H388 H 0.5371 0.54491 0.18154 0.0
H389 H 0.53451 0.53387 0.22158 0.0
H390 H 0.6429 0.58324 0.22394 0.0
H391 H 0.64505 0.59604 0.18453 0.0
H392 H 0.52178 0.57696 0.1461 0.0
H393 H 0.51358 0.61851 0.16004 0.0
H394 H 0.62099 0.68178 0.16683 0.0
H395 H 0.62887 0.6403 0.15291 0.0
O396 O 0.55376 0.49961 0.00626 0.0
O397 O 0.59649 0.54881 0.00079 0.0
O398 O 0.62001 0.46844 0.22738 0.0
O399 O 0.67368 0.49833 0.21777 0.0
C400 C 0.57907 0.57398 0.1174 0.0
C401 C 0.59037 0.55477 0.10924 0.0
C402 C 0.60297 0.54179 0.12423 0.0
C403 C 0.60227 0.54626 0.14748 0.0
C404 C 0.59212 0.56647 0.15557 0.0
C405 C 0.5815 0.58109 0.14043 0.0
C406 C 0.56392 0.58541 0.10134 0.0
C407 C 0.53214 0.5635 0.09241 0.0
C408 C 0.52253 0.56894 0.07164 0.0
C409 C 0.54444 0.59653 0.05972 0.0
C410 C 0.57436 0.62022 0.07001 0.0
C411 C 0.58412 0.61463 0.09079 0.0
C412 C 0.58831 0.54765 0.08489 0.0
C413 C 0.56373 0.5177 0.07676 0.0
C414 C 0.56056 0.51135 0.05376 0.0
C415 C 0.582 0.53486 0.03851 0.0
C416 C 0.60695 0.56474 0.04681 0.0
C417 C 0.61014 0.57101 0.06982 0.0
C418 C 0.61865 0.52514 0.11537 0.0
C419 C 0.60353 0.49253 0.1182 0.0
C420 C 0.61909 0.47743 0.10996 0.0
C421 C 0.64985 0.49475 0.09866 0.0
C422 C 0.66469 0.52737 0.09576 0.0
C423 C 0.64924 0.54242 0.10408 0.0
C424 C 0.61204 0.52977 0.1635 0.0
C425 C 0.58765 0.50556 0.17702 0.0
C426 C 0.59699 0.49202 0.19363 0.0
C427 C 0.63092 0.50224 0.19686 0.0
C428 C 0.65519 0.52594 0.18287 0.0
C429 C 0.64582 0.53963 0.16635 0.0
C430 C 0.59124 0.57062 0.1801 0.0
C431 C 0.56028 0.55477 0.19104 0.0
C432 C 0.55887 0.548 0.21386 0.0
C433 C 0.58839 0.55654 0.22588 0.0
C434 C 0.61954 0.57613 0.21541 0.0
C435 C 0.62091 0.58348 0.19275 0.0
C436 C 0.57589 0.60576 0.14851 0.0
C437 C 0.54344 0.59985 0.15056 0.0
C438 C 0.53884 0.62348 0.15859 0.0
C439 C 0.56669 0.65339 0.16444 0.0
C440 C 0.59912 0.65913 0.16219 0.0
C441 C 0.60365 0.63546 0.15438 0.0
C442 C 0.57801 0.52829 0.01405 0.0
C443 C 0.64106 0.48854 0.21492 0.0
C444 C 0.60073 0.37186 0.38991 0.0
O445 O 0.58749 0.38912 0.39155 0.0
O446 O 0.70597 0.44833 0.37581 0.0
Zn447 Zn 0.65775 0.43251 0.38271 0.0
O448 O 0.65361 0.44792 0.41288 0.0
C449 C 0.65052 0.47227 0.35046 0.0
O450 O 0.68058 0.49416 0.35758 0.0
O451 O 0.63165 0.38532 0.3852 0.0
C452 C 0.6444 0.46717 0.41645 0.0
O453 O 0.63904 0.48056 0.39944 0.0
C454 C 0.72954 0.4762 0.38088 0.0
O455 O 0.72259 0.49514 0.39119 0.0
O456 O 0.63647 0.44464 0.35858 0.0
C457 C 0.27852 0.69555 0.55285 0.0
O458 O 0.25283 0.684 0.53895 0.0
O459 O 0.2787 0.6114 0.56665 0.0
Zn460 Zn 0.24963 0.62966 0.56582 0.0
O461 O 0.22013 0.61499 0.53801 0.0
C462 C 0.22074 0.59854 0.60833 0.0
O463 O 0.24376 0.59141 0.60744 0.0
O464 O 0.28126 0.67697 0.56588 0.0
C465 C 0.1912 0.58979 0.53883 0.0
O466 O 0.18164 0.57358 0.55754 0.0
C467 C 0.28549 0.60085 0.54952 0.0
O468 O 0.27214 0.60052 0.53003 0.0
O469 O 0.21949 0.61548 0.59296 0.0
C470 C 0.6031 0.26156 0.72028 0.0
O471 O 0.62272 0.25329 0.7114 0.0
O472 O 0.65118 0.24997 0.76062 0.0
Zn473 Zn 0.60225 0.22142 0.75319 0.0
O474 O 0.59482 0.18757 0.73139 0.0
C475 C 0.58692 0.22358 0.79841 0.0
O476 O 0.60893 0.25359 0.7946 0.0
O477 O 0.58898 0.24938 0.73881 0.0
C478 C 0.56609 0.16863 0.72277 0.0
O479 O 0.54039 0.17011 0.72921 0.0
C480 C 0.67601 0.25331 0.74986 0.0
O481 O 0.67079 0.23573 0.7321 0.0
O482 O 0.57829 0.20391 0.78238 0.0
C483 C 0.46807 0.71427 0.89835 0.0
O484 O 0.45622 0.69606 0.91607 0.0
O485 O 0.41713 0.63539 0.8933 0.0
Zn486 Zn 0.46522 0.66027 0.88388 0.0
O487 O 0.493 0.65591 0.90753 0.0
C488 C 0.44534 0.61409 0.84973 0.0
O489 O 0.42552 0.59648 0.86598 0.0
O490 O 0.47668 0.70475 0.88153 0.0
C491 C 0.49943 0.63437 0.90662 0.0
O492 O 0.49032 0.61619 0.88878 0.0
C493 C 0.40418 0.6159 0.90935 0.0
O494 O 0.42334 0.61086 0.92246 0.0
O495 O 0.46671 0.64319 0.85352 0.0
C496 C 0.7609 0.37853 0.07485 0.0
O497 O 0.75492 0.3599 0.09204 0.0
O498 O 0.74763 0.3036 0.06251 0.0
Zn499 Zn 0.79063 0.34587 0.05999 0.0
O500 O 0.81853 0.35399 0.08784 0.0
C501 C 0.79593 0.33131 0.01481 0.0
O502 O 0.76321 0.31415 0.01717 0.0
O503 O 0.77729 0.37758 0.05841 0.0
C504 C 0.8391 0.38173 0.09512 0.0
O505 O 0.8446 0.40602 0.08314 0.0
C506 C 0.73686 0.28752 0.08038 0.0
O507 O 0.75508 0.29786 0.0988 0.0
O508 O 0.81418 0.34748 0.0314 0.0
C509 C 0.50097 0.78666 0.2386 0.0
O510 O 0.47861 0.77004 0.25401 0.0
O511 O 0.42731 0.78239 0.24502 0.0
Zn512 Zn 0.47202 0.82306 0.2443 0.0
O513 O 0.46714 0.85179 0.22331 0.0
C514 C 0.46519 0.84924 0.28427 0.0
O515 O 0.43988 0.84609 0.27252 0.0
O516 O 0.5047 0.81256 0.23227 0.0
C517 C 0.48967 0.87082 0.20985 0.0
O518 O 0.51892 0.87345 0.20995 0.0
C519 C 0.41541 0.7676 0.22664 0.0
O520 O 0.43227 0.77991 0.20808 0.0
O521 O 0.48399 0.84121 0.27544 0.0
H522 H 0.24982 0.62307 0.27906 0.0
H523 H 0.21077 0.59624 0.21135 0.0
H524 H 0.26621 0.637 0.19635 0.0
H525 H 0.29383 0.70309 0.26989 0.0
H526 H 0.32895 0.71296 0.28798 0.0
H527 H 0.28852 0.67818 0.29335 0.0
H528 H 0.31417 0.64364 0.29179 0.0
H529 H 0.35489 0.67843 0.28669 0.0
H530 H 0.3377 0.64545 0.26754 0.0
H531 H 0.32369 0.68394 0.18902 0.0
H532 H 0.37876 0.73422 0.18973 0.0
H533 H 0.37914 0.73176 0.26247 0.0
C534 C 0.25344 0.6251 0.26109 0.0
C535 C 0.22653 0.60632 0.24626 0.0
C536 C 0.23145 0.61028 0.22285 0.0
C537 C 0.26277 0.63327 0.21424 0.0
C538 C 0.28865 0.65212 0.22933 0.0
C539 C 0.28435 0.64822 0.25226 0.0
C540 C 0.31489 0.67369 0.26488 0.0
C541 C 0.306 0.69312 0.2799 0.0
C542 C 0.33139 0.65945 0.27853 0.0
C543 C 0.33668 0.69302 0.24548 0.0
C544 C 0.32136 0.6799 0.22512 0.0
C545 C 0.33611 0.69426 0.20486 0.0
C546 C 0.36733 0.72284 0.20544 0.0
C547 C 0.38316 0.73692 0.22615 0.0
C548 C 0.36766 0.72159 0.24637 0.0
H549 H 0.57302 0.20604 0.4242 0.0
H550 H 0.47217 0.17752 0.44393 0.0
H551 H 0.48127 0.22736 0.42905 0.0
H552 H 0.61136 0.28601 0.44046 0.0
H553 H 0.64063 0.3013 0.41761 0.0
H554 H 0.6251 0.26214 0.42791 0.0
H555 H 0.60436 0.23941 0.38792 0.0
H556 H 0.61976 0.27856 0.3775 0.0
H557 H 0.57642 0.24769 0.37317 0.0
H558 H 0.50234 0.28148 0.41418 0.0
H559 H 0.53443 0.3367 0.40126 0.0
H560 H 0.62205 0.33056 0.39212 0.0
C561 C 0.5528 0.21021 0.42538 0.0
C562 C 0.52177 0.18768 0.43511 0.0
C563 C 0.49592 0.19406 0.43616 0.0
C564 C 0.50089 0.22239 0.42784 0.0
C565 C 0.53184 0.24412 0.41851 0.0
C566 C 0.55737 0.2384 0.41726 0.0
C567 C 0.58882 0.26635 0.40751 0.0
C568 C 0.6182 0.27974 0.42438 0.0
C569 C 0.59786 0.25746 0.3852 0.0
C570 C 0.57718 0.28892 0.40389 0.0
C571 C 0.54413 0.27552 0.41014 0.0
C572 C 0.52817 0.29217 0.40907 0.0
C573 C 0.54663 0.32353 0.40172 0.0
C574 C 0.58074 0.33795 0.39564 0.0
C575 C 0.59596 0.32016 0.39648 0.0
H576 H 0.42173 0.57709 0.61029 0.0
H577 H 0.42338 0.52953 0.55008 0.0
H578 H 0.38253 0.53952 0.53201 0.0
H579 H 0.3344 0.54667 0.6089 0.0
H580 H 0.33833 0.58232 0.61916 0.0
H581 H 0.36925 0.57325 0.62681 0.0
H582 H 0.41639 0.62714 0.6112 0.0
H583 H 0.38563 0.63649 0.60365 0.0
H584 H 0.41358 0.63757 0.58272 0.0
H585 H 0.34061 0.55379 0.52089 0.0
H586 H 0.30019 0.57068 0.51768 0.0
H587 H 0.32496 0.60748 0.58568 0.0
C588 C 0.4139 0.56928 0.59317 0.0
C589 C 0.42579 0.55274 0.58148 0.0
C590 C 0.41445 0.54221 0.55929 0.0
C591 C 0.39137 0.54784 0.5489 0.0
C592 C 0.37977 0.56386 0.56099 0.0
C593 C 0.39063 0.57442 0.58264 0.0
C594 C 0.37327 0.58988 0.5923 0.0
C595 C 0.35258 0.57195 0.61302 0.0
C596 C 0.39874 0.62485 0.59778 0.0
C597 C 0.35084 0.58627 0.57274 0.0
C598 C 0.3551 0.57139 0.55479 0.0
C599 C 0.33708 0.56549 0.53483 0.0
C600 C 0.31417 0.57515 0.53318 0.0
C601 C 0.30932 0.59031 0.55143 0.0
C602 C 0.32794 0.59581 0.57145 0.0
H603 H 0.87651 0.34895 0.75194 0.0
H604 H 0.8726 0.40386 0.80678 0.0
H605 H 0.81126 0.37562 0.80256 0.0
H606 H 0.80755 0.34297 0.7185 0.0
H607 H 0.79191 0.30291 0.70994 0.0
H608 H 0.836 0.32953 0.71577 0.0
H609 H 0.83394 0.28993 0.74464 0.0
H610 H 0.78984 0.2633 0.73903 0.0
H611 H 0.80435 0.27658 0.76728 0.0
H612 H 0.7506 0.33907 0.79474 0.0
H613 H 0.69374 0.29746 0.78271 0.0
H614 H 0.73602 0.26517 0.73316 0.0
C615 C 0.86278 0.35525 0.76291 0.0
C616 C 0.8795 0.37892 0.77953 0.0
C617 C 0.86056 0.38641 0.79356 0.0
C618 C 0.82563 0.37031 0.79142 0.0
C619 C 0.80994 0.34679 0.77517 0.0
C620 C 0.82781 0.33935 0.76104 0.0
C621 C 0.80453 0.31207 0.74565 0.0
C622 C 0.81035 0.32251 0.72101 0.0
C623 C 0.8084 0.2838 0.74938 0.0
C624 C 0.77079 0.305 0.75368 0.0
C625 C 0.7746 0.32544 0.77066 0.0
C626 C 0.74724 0.32308 0.78133 0.0
C627 C 0.71502 0.29925 0.77441 0.0
C628 C 0.71038 0.27804 0.75696 0.0
C629 C 0.73873 0.28109 0.74646 0.0
H630 H 0.42192 0.83686 0.94019 0.0
H631 H 0.46227 0.8878 0.87805 0.0
H632 H 0.47327 0.84713 0.86531 0.0
H633 H 0.48148 0.81687 0.94788 0.0
H634 H 0.4529 0.77846 0.95957 0.0
H635 H 0.44468 0.80943 0.96254 0.0
H636 H 0.38609 0.77389 0.94403 0.0
H637 H 0.39398 0.74264 0.94125 0.0
H638 H 0.38277 0.7565 0.91693 0.0
H639 H 0.48341 0.80285 0.86077 0.0
H640 H 0.4894 0.75691 0.86388 0.0
H641 H 0.44366 0.73647 0.92963 0.0
C642 C 0.43198 0.83885 0.92357 0.0
C643 C 0.44076 0.86505 0.90988 0.0
C644 C 0.45512 0.86762 0.88862 0.0
C645 C 0.46149 0.84474 0.88131 0.0
C646 C 0.45345 0.81964 0.89555 0.0
C647 C 0.43876 0.81646 0.91615 0.0
C648 C 0.43444 0.78848 0.9289 0.0
C649 C 0.45458 0.79895 0.95102 0.0
C650 C 0.3971 0.76392 0.933 0.0
C651 C 0.44924 0.77651 0.91232 0.0
C652 C 0.45998 0.79468 0.89316 0.0
C653 C 0.47489 0.78831 0.87563 0.0
C654 C 0.47834 0.76229 0.8776 0.0
C655 C 0.46705 0.74314 0.897 0.0
C656 C 0.45264 0.75067 0.91461 0.0
H657 H 0.65812 0.45136 0.12057 0.0
H658 H 0.68069 0.50333 0.05826 0.0
H659 H 0.71209 0.47957 0.04538 0.0
H660 H 0.73684 0.45847 0.12714 0.0
H661 H 0.71939 0.41933 0.13828 0.0
H662 H 0.69797 0.43978 0.14235 0.0
H663 H 0.6441 0.3931 0.12408 0.0
H664 H 0.66527 0.37239 0.12011 0.0
H665 H 0.64625 0.37962 0.0965 0.0
H666 H 0.74187 0.45092 0.03968 0.0
H667 H 0.76664 0.41824 0.04112 0.0
H668 H 0.72403 0.38492 0.10712 0.0
C669 C 0.66924 0.45738 0.10408 0.0
C670 C 0.66701 0.47917 0.0904 0.0
C671 C 0.68242 0.4869 0.06909 0.0
C672 C 0.70017 0.47346 0.0616 0.0
C673 C 0.70223 0.45235 0.07564 0.0
C674 C 0.68707 0.44425 0.09638 0.0
C675 C 0.69338 0.42128 0.10834 0.0
C676 C 0.71307 0.43558 0.13033 0.0
C677 C 0.66028 0.38973 0.11249 0.0
C678 C 0.71452 0.41777 0.09109 0.0
C679 C 0.71937 0.43589 0.07236 0.0
C680 C 0.73819 0.43656 0.05424 0.0
C681 C 0.75221 0.41798 0.05524 0.0
C682 C 0.74726 0.39903 0.07422 0.0
C683 C 0.72829 0.39914 0.09237 0.0
H684 H 0.36979 0.87386 0.5109 0.0
H685 H 0.45448 0.89488 0.55331 0.0
H686 H 0.42381 0.83937 0.56609 0.0
H687 H 0.30463 0.82013 0.54838 0.0
H688 H 0.27789 0.79409 0.52628 0.0
H689 H 0.30642 0.83546 0.52074 0.0
H690 H 0.33275 0.82164 0.48834 0.0
H691 H 0.30427 0.78023 0.49374 0.0
H692 H 0.34888 0.79677 0.49383 0.0
H693 H 0.38346 0.7817 0.57447 0.0
H694 H 0.33779 0.7256 0.57649 0.0
H695 H 0.27985 0.74237 0.52805 0.0
C696 C 0.38176 0.86683 0.52303 0.0
C697 C 0.41441 0.88864 0.53125 0.0
C698 C 0.42954 0.87845 0.54675 0.0
C699 C 0.41226 0.84706 0.55417 0.0
C700 C 0.38001 0.82619 0.54579 0.0
C701 C 0.365 0.83561 0.53045 0.0
C702 C 0.33049 0.80841 0.52361 0.0
C703 C 0.30325 0.81492 0.53015 0.0
C704 C 0.32903 0.80135 0.49839 0.0
C705 C 0.3283 0.78218 0.53757 0.0
C706 C 0.35705 0.79294 0.55032 0.0
C707 C 0.36085 0.77301 0.56454 0.0
C708 C 0.33472 0.74118 0.5656 0.0
C709 C 0.3052 0.72953 0.55243 0.0
C710 C 0.30204 0.75048 0.53834 0.0
H711 H 0.55363 0.3909 0.71382 0.0
H712 H 0.61365 0.42575 0.65359 0.0
H713 H 0.62686 0.38448 0.65689 0.0
H714 H 0.60693 0.37086 0.74356 0.0
H715 H 0.57226 0.33587 0.75597 0.0
H716 H 0.56822 0.36868 0.74911 0.0
H717 H 0.51547 0.33161 0.725 0.0
H718 H 0.51953 0.29873 0.7316 0.0
H719 H 0.51823 0.30877 0.70276 0.0
H720 H 0.63221 0.33875 0.66598 0.0
H721 H 0.63238 0.29334 0.68164 0.0
H722 H 0.56867 0.28786 0.73595 0.0
C723 C 0.56966 0.38989 0.7014 0.0
C724 C 0.58289 0.41168 0.68357 0.0
C725 C 0.60382 0.40969 0.66764 0.0
C726 C 0.6112 0.38615 0.66925 0.0
C727 C 0.59747 0.36484 0.68688 0.0
C728 C 0.57737 0.36659 0.70278 0.0
C729 C 0.56594 0.34079 0.7201 0.0
C730 C 0.57914 0.3549 0.74357 0.0
C731 C 0.52751 0.31867 0.71984 0.0
C732 C 0.58271 0.32423 0.7114 0.0
C733 C 0.60064 0.33842 0.69217 0.0
C734 C 0.61833 0.32746 0.68106 0.0
C735 C 0.6182 0.30159 0.69007 0.0
C736 C 0.60056 0.28704 0.71003 0.0
C737 C 0.58231 0.29839 0.72064 0.0
H738 H 0.22147 0.55059 0.86318 0.0
H739 H 0.18472 0.472 0.90917 0.0
H740 H 0.24153 0.49693 0.9261 0.0
H741 H 0.29847 0.55992 0.85274 0.0
H742 H 0.3213 0.60236 0.85115 0.0
H743 H 0.27732 0.57947 0.84427 0.0
H744 H 0.26611 0.61065 0.87382 0.0
H745 H 0.31017 0.63369 0.88082 0.0
H746 H 0.2797 0.61251 0.90242 0.0
H747 H 0.30388 0.5293 0.93595 0.0
H748 H 0.36576 0.56513 0.93701 0.0
H749 H 0.35925 0.62229 0.88503 0.0
C750 C 0.22504 0.53894 0.87721 0.0
C751 C 0.19863 0.50952 0.88501 0.0
C752 C 0.2047 0.49455 0.90289 0.0
C753 C 0.23677 0.50863 0.9127 0.0
C754 C 0.26229 0.53768 0.90449 0.0
C755 C 0.25663 0.55263 0.88717 0.0
C756 C 0.2884 0.58265 0.88031 0.0
C757 C 0.29686 0.58097 0.85567 0.0
C758 C 0.28593 0.61158 0.88461 0.0
C759 C 0.31309 0.58202 0.89616 0.0
C760 C 0.29771 0.55613 0.91014 0.0
C761 C 0.31612 0.54987 0.92527 0.0
C762 C 0.3512 0.57033 0.92577 0.0
C763 C 0.3673 0.5965 0.91112 0.0
C764 C 0.34776 0.60261 0.89654 0.0
H765 H 0.56764 0.15118 0.02423 0.0
H766 H 0.55547 0.09348 0.08179 0.0
H767 H 0.60301 0.13999 0.10092 0.0
H768 H 0.65315 0.1905 0.02335 0.0
H769 H 0.66069 0.22815 0.01458 0.0
H770 H 0.62175 0.19251 0.00737 0.0
H771 H 0.58845 0.21387 0.02631 0.0
H772 H 0.62736 0.2499 0.03331 0.0
H773 H 0.59769 0.2273 0.05501 0.0
H774 H 0.6558 0.19093 0.11163 0.0
H775 H 0.71011 0.24207 0.11298 0.0
H776 H 0.68901 0.26531 0.04738 0.0
C777 C 0.57421 0.14881 0.04123 0.0
C778 C 0.55768 0.11922 0.05188 0.0
C779 C 0.56766 0.11629 0.07368 0.0
C780 C 0.59455 0.14251 0.0846 0.0
C781 C 0.61118 0.17128 0.07336 0.0
C782 C 0.6013 0.1746 0.05218 0.0
C783 C 0.62573 0.20686 0.04259 0.0
C784 C 0.64124 0.20433 0.02069 0.0
C785 C 0.6088 0.22559 0.03911 0.0
C786 C 0.65142 0.22081 0.06137 0.0
C787 C 0.64233 0.20021 0.07914 0.0
C788 C 0.66299 0.20744 0.09794 0.0
C789 C 0.69381 0.23646 0.09852 0.0
C790 C 0.70381 0.2576 0.08027 0.0
C791 C 0.68209 0.24966 0.0616 0.0
H792 H 0.5226 0.64794 0.19645 0.0
H793 H 0.60067 0.71551 0.15217 0.0
H794 H 0.59415 0.75779 0.1674 0.0
H795 H 0.46972 0.67915 0.19243 0.0
H796 H 0.45746 0.67177 0.22141 0.0
H797 H 0.46862 0.64713 0.20703 0.0
H798 H 0.51342 0.65963 0.23765 0.0
H799 H 0.50258 0.68452 0.25203 0.0
H800 H 0.54535 0.70016 0.2438 0.0
H801 H 0.57786 0.79232 0.18679 0.0
H802 H 0.55291 0.8164 0.20885 0.0
H803 H 0.48665 0.72626 0.24098 0.0
C804 C 0.53813 0.67159 0.18985 0.0
C805 C 0.56211 0.67851 0.17313 0.0
C806 C 0.58233 0.70982 0.16512 0.0
C807 C 0.57876 0.73393 0.17362 0.0
C808 C 0.55502 0.72636 0.19022 0.0
C809 C 0.53508 0.69596 0.19826 0.0
C810 C 0.51145 0.69402 0.21611 0.0
C811 C 0.47464 0.6717 0.2088 0.0
C812 C 0.51865 0.68399 0.23874 0.0
C813 C 0.52101 0.72802 0.21673 0.0
C814 C 0.54617 0.74633 0.20168 0.0
C815 C 0.55831 0.77827 0.19875 0.0
C816 C 0.54403 0.79174 0.21136 0.0
C817 C 0.51804 0.77329 0.22675 0.0
C818 C 0.50678 0.74113 0.22958 0.0
H819 H 0.88771 0.46521 0.35153 0.0
H820 H 0.93544 0.56143 0.32687 0.0
H821 H 0.88652 0.56291 0.33835 0.0
H822 H 0.80529 0.44159 0.33026 0.0
H823 H 0.78362 0.41556 0.3534 0.0
H824 H 0.82353 0.42259 0.34466 0.0
H825 H 0.84688 0.44038 0.38502 0.0
H826 H 0.80713 0.43363 0.39385 0.0
H827 H 0.84495 0.47177 0.39811 0.0
H828 H 0.83352 0.55509 0.3538 0.0
H829 H 0.7765 0.5358 0.36779 0.0
H830 H 0.76015 0.44289 0.37783 0.0
C831 C 0.88796 0.48655 0.34826 0.0
C832 C 0.91623 0.51347 0.33875 0.0
C833 C 0.915 0.54083 0.33495 0.0
C834 C 0.88708 0.54187 0.3412 0.0
C835 C 0.86003 0.51514 0.35075 0.0
C836 C 0.85989 0.48777 0.35384 0.0
C837 C 0.82673 0.46178 0.36331 0.0
C838 C 0.80873 0.43373 0.34693 0.0
C839 C 0.83174 0.45129 0.38645 0.0
C840 C 0.80843 0.47896 0.36516 0.0
C841 C 0.82835 0.50988 0.35816 0.0
C842 C 0.81752 0.53084 0.35911 0.0
C843 C 0.78524 0.51975 0.36716 0.0
C844 C 0.76405 0.48789 0.37369 0.0
C845 C 0.77583 0.46728 0.37269 0.0
H846 H 0.13741 0.58678 0.4112 0.0
H847 H 0.03758 0.50958 0.42884 0.0
H848 H 0.05611 0.51354 0.46823 0.0
H849 H 0.18241 0.56533 0.4462 0.0
H850 H 0.21454 0.60518 0.45387 0.0
H851 H 0.19306 0.5974 0.42732 0.0
H852 H 0.1758 0.63712 0.43705 0.0
H853 H 0.19747 0.64528 0.46358 0.0
H854 H 0.15377 0.63254 0.46273 0.0
H855 H 0.08624 0.5242 0.50515 0.0
H856 H 0.12513 0.54204 0.5375 0.0
H857 H 0.20505 0.61327 0.49591 0.0
C858 C 0.1192 0.57117 0.42342 0.0
C859 C 0.08596 0.54794 0.41695 0.0
C860 C 0.0632 0.5274 0.43338 0.0
C861 C 0.07346 0.52956 0.45579 0.0
C862 C 0.10652 0.55244 0.4615 0.0
C863 C 0.12898 0.57304 0.44583 0.0
C864 C 0.16331 0.59497 0.45621 0.0
C865 C 0.18989 0.59043 0.44524 0.0
C866 C 0.17315 0.62952 0.45481 0.0
C867 C 0.15674 0.5833 0.48016 0.0
C868 C 0.12382 0.55875 0.48284 0.0
C869 C 0.11199 0.54355 0.50331 0.0
C870 C 0.13434 0.55382 0.52156 0.0
C871 C 0.16813 0.57912 0.51927 0.0
C872 C 0.17934 0.594 0.49825 0.0
H873 H 0.47356 0.05606 0.61796 0.0
H874 H 0.57235 0.08035 0.59612 0.0
H875 H 0.59619 0.10609 0.63228 0.0
H876 H 0.50177 0.12942 0.642 0.0
H877 H 0.4727 0.11468 0.66497 0.0
H878 H 0.4618 0.09278 0.63912 0.0
H879 H 0.4514 0.04346 0.66066 0.0
H880 H 0.46223 0.06524 0.68665 0.0
H881 H 0.4841 0.0464 0.67837 0.0
H882 H 0.61098 0.13433 0.6689 0.0
H883 H 0.61576 0.16473 0.70272 0.0
H884 H 0.50848 0.12581 0.69992 0.0
C885 C 0.50015 0.06644 0.62075 0.0
C886 C 0.52075 0.0655 0.60402 0.0
C887 C 0.55551 0.07955 0.60869 0.0
C888 C 0.56949 0.09457 0.62922 0.0
C889 C 0.54861 0.09569 0.64501 0.0
C890 C 0.51469 0.08207 0.64103 0.0
C891 C 0.49852 0.08958 0.65981 0.0
C892 C 0.48279 0.1077 0.65094 0.0
C893 C 0.47252 0.05937 0.6721 0.0
C894 C 0.52887 0.11033 0.67458 0.0
C895 C 0.55738 0.11303 0.66593 0.0
C896 C 0.58878 0.13213 0.67598 0.0
C897 C 0.59123 0.14934 0.6952 0.0
C898 C 0.5625 0.14766 0.70402 0.0
C899 C 0.53087 0.12745 0.69371 0.0
H900 H 0.48866 0.60977 0.72141 0.0
H901 H 0.41634 0.50857 0.72347 0.0
H902 H 0.39962 0.51405 0.76119 0.0
H903 H 0.51779 0.61537 0.77572 0.0
H904 H 0.5241 0.65337 0.78198 0.0
H905 H 0.52641 0.643 0.75348 0.0
H906 H 0.48063 0.65389 0.74145 0.0
H907 H 0.47848 0.66475 0.76989 0.0
H908 H 0.44102 0.63434 0.7558 0.0
H909 H 0.39542 0.52889 0.80008 0.0
H910 H 0.40248 0.55266 0.8374 0.0
H911 H 0.47969 0.64388 0.81128 0.0
C912 C 0.46887 0.58881 0.72959 0.0
C913 C 0.45361 0.55878 0.71921 0.0
C914 C 0.42783 0.53199 0.73063 0.0
C915 C 0.41833 0.53479 0.75223 0.0
C916 C 0.43482 0.56449 0.76226 0.0
C917 C 0.45938 0.5911 0.7513 0.0
C918 C 0.47527 0.61973 0.76661 0.0
C919 C 0.51313 0.63367 0.76962 0.0
C920 C 0.46843 0.64465 0.75792 0.0
C921 C 0.45643 0.60481 0.78806 0.0
C922 C 0.43296 0.57301 0.78506 0.0
C923 C 0.4134 0.55385 0.80259 0.0
C924 C 0.41775 0.56758 0.82376 0.0
C925 C 0.44164 0.60015 0.82727 0.0
C926 C 0.46117 0.61895 0.80912 0.0
H927 H 0.93682 0.40364 0.92073 0.0
H928 H 0.86334 0.33253 0.875 0.0
H929 H 0.82202 0.30999 0.90574 0.0
H930 H 0.91336 0.35331 0.96933 0.0
H931 H 0.92051 0.38405 0.9886 0.0
H932 H 0.94426 0.39398 0.9631 0.0
H933 H 0.92476 0.43177 0.95214 0.0
H934 H 0.90102 0.42203 0.9776 0.0
H935 H 0.88052 0.41695 0.95091 0.0
H936 H 0.78829 0.29691 0.94104 0.0
H937 H 0.7646 0.29333 0.97845 0.0
H938 H 0.86077 0.37263 0.00124 0.0
C939 C 0.91194 0.38344 0.91716 0.0
C940 C 0.90307 0.36991 0.89549 0.0
C941 C 0.87056 0.34312 0.89153 0.0
C942 C 0.84699 0.33025 0.90885 0.0
C943 C 0.85653 0.3443 0.93001 0.0
C944 C 0.88828 0.3702 0.93424 0.0
C945 C 0.89223 0.38099 0.95839 0.0
C946 C 0.91918 0.37789 0.97057 0.0
C947 C 0.90008 0.41494 0.95984 0.0
C948 C 0.85751 0.35738 0.96706 0.0
C949 C 0.83733 0.3364 0.95043 0.0
C950 C 0.80391 0.31307 0.95423 0.0
C951 C 0.79068 0.31127 0.97553 0.0
C952 C 0.81086 0.33263 0.9928 0.0
C953 C 0.8448 0.35578 0.98847 0.0
H954 H 0.5158 0.96341 0.096 0.0
H955 H 0.41064 0.93275 0.09967 0.0
H956 H 0.4079 0.91236 0.13765 0.0
H957 H 0.50592 0.89571 0.12028 0.0
H958 H 0.54542 0.91578 0.13524 0.0
H959 H 0.54069 0.9324 0.10983 0.0
H960 H 0.55909 0.98451 0.1309 0.0
H961 H 0.5639 0.96802 0.15642 0.0
H962 H 0.53706 0.98345 0.15578 0.0
H963 H 0.41482 0.89063 0.17354 0.0
H964 H 0.43042 0.86787 0.20422 0.0
H965 H 0.53032 0.91031 0.17649 0.0
C966 C 0.49221 0.95263 0.10479 0.0
C967 C 0.46349 0.94994 0.09476 0.0
C968 C 0.43323 0.93581 0.10706 0.0
C969 C 0.43135 0.92398 0.12865 0.0
C970 C 0.45992 0.92642 0.13778 0.0
C971 C 0.48979 0.9404 0.12625 0.0
C972 C 0.51599 0.93763 0.13901 0.0
C973 C 0.52767 0.91928 0.12527 0.0
C974 C 0.54577 0.97035 0.14594 0.0
C975 C 0.49584 0.91901 0.15918 0.0
C976 C 0.46374 0.91325 0.15832 0.0
C977 C 0.43999 0.89526 0.17452 0.0
C978 C 0.44911 0.88239 0.19188 0.0
C979 C 0.48162 0.8873 0.1928 0.0
C980 C 0.50537 0.90631 0.17638 0.0
H981 H 0.63247 0.58074 0.26184 0.0
H982 H 0.54191 0.49566 0.23803 0.0
H983 H 0.54465 0.46641 0.27004 0.0
H984 H 0.67432 0.54362 0.27439 0.0
H985 H 0.69618 0.56699 0.29884 0.0
H986 H 0.68362 0.58336 0.27698 0.0
H987 H 0.65081 0.59538 0.30563 0.0
H988 H 0.66365 0.57943 0.32772 0.0
H989 H 0.61973 0.5641 0.32303 0.0
H990 H 0.561 0.44443 0.3015 0.0
H991 H 0.58961 0.43178 0.33048 0.0
H992 H 0.67151 0.53009 0.33229 0.0
C993 C 0.61278 0.55614 0.26357 0.0
C994 C 0.58673 0.5408 0.24743 0.0
C995 C 0.56159 0.50843 0.2504 0.0
C996 C 0.56307 0.49141 0.26849 0.0
C997 C 0.58986 0.50696 0.28349 0.0
C998 C 0.61418 0.53864 0.28131 0.0
C999 C 0.64234 0.54888 0.29818 0.0
C1000 C 0.6761 0.56144 0.28639 0.0
C1001 C 0.64423 0.5734 0.31462 0.0
C1002 C 0.6305 0.5178 0.30972 0.0
C1003 C 0.59993 0.49402 0.30124 0.0
C1004 C 0.58474 0.46293 0.3085 0.0
C1005 C 0.60125 0.45596 0.32489 0.0
C1006 C 0.6328 0.47993 0.33364 0.0
C1007 C 0.64738 0.51125 0.326 0.0
H1008 H 0.44115 0.93117 0.39054 0.0
H1009 H 0.51862 0.92402 0.4243 0.0
H1010 H 0.52201 0.89582 0.39146 0.0
H1011 H 0.39967 0.85376 0.36234 0.0
H1012 H 0.39105 0.86857 0.33738 0.0
H1013 H 0.3931 0.88596 0.36424 0.0
H1014 H 0.4383 0.94095 0.34899 0.0
H1015 H 0.43668 0.92373 0.32218 0.0
H1016 H 0.47608 0.94649 0.33705 0.0
H1017 H 0.51978 0.87192 0.35387 0.0
H1018 H 0.51027 0.85189 0.31494 0.0
H1019 H 0.43364 0.87412 0.3062 0.0
C1020 C 0.45818 0.92293 0.39128 0.0
C1021 C 0.47952 0.92965 0.41001 0.0
C1022 C 0.50215 0.91923 0.41007 0.0
C1023 C 0.50418 0.90313 0.39154 0.0
C1024 C 0.48331 0.89753 0.37314 0.0
C1025 C 0.46053 0.90686 0.37296 0.0
C1026 C 0.442 0.89921 0.35075 0.0
C1027 C 0.40421 0.87545 0.35387 0.0
C1028 C 0.44868 0.92939 0.33906 0.0
C1029 C 0.45821 0.88448 0.33836 0.0
C1030 C 0.48194 0.88367 0.35156 0.0
C1031 C 0.50102 0.87213 0.34345 0.0
C1032 C 0.49553 0.86093 0.3213 0.0
C1033 C 0.47114 0.86134 0.30755 0.0
C1034 C 0.4523 0.87326 0.31631 0.0
H1035 H 0.56556 0.52295 0.50946 0.0
H1036 H 0.56164 0.45115 0.55228 0.0
H1037 H 0.59123 0.43974 0.52372 0.0
H1038 H 0.54871 0.47927 0.45839 0.0
H1039 H 0.57612 0.51332 0.44158 0.0
H1040 H 0.5568 0.51753 0.4661 0.0
H1041 H 0.61544 0.56008 0.48168 0.0
H1042 H 0.63496 0.55579 0.45727 0.0
H1043 H 0.6473 0.55083 0.48485 0.0
H1044 H 0.62027 0.43551 0.49087 0.0
H1045 H 0.64211 0.43457 0.45376 0.0
H1046 H 0.62511 0.50724 0.43087 0.0
C1047 C 0.57106 0.50491 0.51272 0.0
C1048 C 0.56137 0.48784 0.53297 0.0
C1049 C 0.5687 0.46426 0.53675 0.0
C1050 C 0.58569 0.45779 0.52073 0.0
C1051 C 0.59492 0.47495 0.50091 0.0
C1052 C 0.58754 0.49772 0.49666 0.0
C1053 C 0.59846 0.51117 0.47333 0.0
C1054 C 0.56822 0.50493 0.459 0.0
C1055 C 0.62566 0.54657 0.47436 0.0
C1056 C 0.61265 0.49206 0.46511 0.0
C1057 C 0.61087 0.47175 0.48148 0.0
C1058 C 0.62187 0.45131 0.47787 0.0
C1059 C 0.63431 0.45102 0.45673 0.0
C1060 C 0.63525 0.47077 0.43937 0.0
C1061 C 0.62477 0.49191 0.4438 0.0
H1062 H 0.12836 0.49486 0.71616 0.0
H1063 H 0.04945 0.51328 0.70422 0.0
H1064 H 0.0802 0.54568 0.67133 0.0
H1065 H 0.19679 0.57054 0.70154 0.0
H1066 H 0.22024 0.55623 0.68802 0.0
H1067 H 0.19176 0.53382 0.71027 0.0
H1068 H 0.16017 0.48479 0.68443 0.0
H1069 H 0.1888 0.50674 0.66212 0.0
H1070 H 0.14425 0.48804 0.65767 0.0
H1071 H 0.12029 0.57694 0.64015 0.0
H1072 H 0.16528 0.60267 0.61207 0.0
H1073 H 0.21721 0.56276 0.64426 0.0
C1074 C 0.11714 0.50516 0.70639 0.0
C1075 C 0.08636 0.50136 0.7127 0.0
C1076 C 0.07308 0.516 0.69978 0.0
C1077 C 0.09032 0.53438 0.68106 0.0
C1078 C 0.12077 0.53787 0.67547 0.0
C1079 C 0.13394 0.52347 0.68768 0.0
C1080 C 0.16715 0.53103 0.67827 0.0
C1081 C 0.19567 0.54898 0.69556 0.0
C1082 C 0.16495 0.50086 0.67013 0.0
C1083 C 0.17068 0.55198 0.65884 0.0
C1084 C 0.14374 0.55573 0.65754 0.0
C1085 C 0.14147 0.57411 0.64098 0.0
C1086 C 0.16722 0.58872 0.62514 0.0
C1087 C 0.19481 0.58476 0.62594 0.0
C1088 C 0.19651 0.56629 0.64316 0.0
H1089 H 0.49135 0.09581 0.89389 0.0
H1090 H 0.54976 0.16979 0.94264 0.0
H1091 H 0.57343 0.20927 0.91202 0.0
H1092 H 0.55612 0.12486 0.85373 0.0
H1093 H 0.52759 0.11211 0.83015 0.0
H1094 H 0.51376 0.09163 0.85644 0.0
H1095 H 0.46455 0.10104 0.85607 0.0
H1096 H 0.47939 0.12256 0.83019 0.0
H1097 H 0.4738 0.14084 0.85432 0.0
H1098 H 0.59244 0.23976 0.87579 0.0
H1099 H 0.60841 0.2587 0.837 0.0
H1100 H 0.53921 0.16372 0.81204 0.0
C1101 C 0.50847 0.12049 0.8981 0.0
C1102 C 0.51827 0.13013 0.92051 0.0
C1103 C 0.54171 0.16227 0.9255 0.0
C1104 C 0.55514 0.18472 0.90826 0.0
C1105 C 0.54511 0.1744 0.88623 0.0
C1106 C 0.5225 0.14298 0.88112 0.0
C1107 C 0.51822 0.13742 0.85607 0.0
C1108 C 0.5296 0.1152 0.84865 0.0
C1109 C 0.48182 0.12472 0.84874 0.0
C1110 C 0.54188 0.17064 0.84777 0.0
C1111 C 0.55694 0.19168 0.8654 0.0
C1112 C 0.58065 0.22353 0.86187 0.0
C1113 C 0.58953 0.23405 0.83975 0.0
C1114 C 0.57502 0.2127 0.82146 0.0
C1115 C 0.55061 0.18066 0.82562 0.0
H1116 H 0.54436 0.64399 0.03661 0.0
H1117 H 0.53222 0.55248 0.02843 0.0
H1118 H 0.525 0.55478 0.98764 0.0
H1119 H 0.48105 0.63013 0.99674 0.0
H1120 H 0.50307 0.67009 0.98651 0.0
H1121 H 0.5099 0.66229 0.01484 0.0
H1122 H 0.57377 0.69134 0.00739 0.0
H1123 H 0.56705 0.69895 0.97894 0.0
H1124 H 0.58858 0.6788 0.9844 0.0
H1125 H 0.51776 0.56619 0.94816 0.0
H1126 H 0.50537 0.58352 0.91278 0.0
H1127 H 0.51995 0.66681 0.94652 0.0
C1128 C 0.54032 0.6246 0.02613 0.0
C1129 C 0.5388 0.59806 0.03552 0.0
C1130 C 0.53321 0.5729 0.02147 0.0
C1131 C 0.52934 0.5741 0.9983 0.0
C1132 C 0.5309 0.60055 0.9895 0.0
C1133 C 0.53585 0.62519 0.00295 0.0
C1134 C 0.53415 0.6498 0.98935 0.0
C1135 C 0.50532 0.65326 0.99733 0.0
C1136 C 0.5679 0.68161 0.99007 0.0
C1137 C 0.52705 0.6349 0.96625 0.0
C1138 C 0.52583 0.60677 0.96668 0.0
C1139 C 0.51875 0.58825 0.94755 0.0
C1140 C 0.51183 0.59834 0.92752 0.0
C1141 C 0.51166 0.62649 0.92687 0.0
C1142 C 0.52004 0.64525 0.94644 0.0
H1143 H 0.95214 0.48047 0.20047 0.0
H1144 H 0.90424 0.39257 0.23755 0.0
H1145 H 0.87046 0.36408 0.20401 0.0
H1146 H 0.87766 0.46333 0.16872 0.0
H1147 H 0.90122 0.48238 0.14379 0.0
H1148 H 0.92071 0.49576 0.17098 0.0
H1149 H 0.96828 0.48768 0.15882 0.0
H1150 H 0.9487 0.47387 0.13171 0.0
H1151 H 0.95777 0.44954 0.1487 0.0
H1152 H 0.84397 0.34487 0.16603 0.0
H1153 H 0.82318 0.3367 0.12702 0.0
H1154 H 0.88725 0.43744 0.11502 0.0
C1155 C 0.93401 0.45535 0.20172 0.0
C1156 C 0.9308 0.43874 0.22166 0.0
C1157 C 0.90732 0.40573 0.2224 0.0
C1158 C 0.88799 0.38936 0.20346 0.0
C1159 C 0.89232 0.40636 0.18396 0.0
C1160 C 0.91445 0.43866 0.18302 0.0
C1161 C 0.91459 0.45128 0.15992 0.0
C1162 C 0.90283 0.47456 0.16092 0.0
C1163 C 0.9494 0.46648 0.14916 0.0
C1164 C 0.88911 0.42099 0.148 0.0
C1165 C 0.87673 0.39534 0.16213 0.0
C1166 C 0.85331 0.36479 0.15484 0.0
C1167 C 0.84179 0.36039 0.1326 0.0
C1168 C 0.85354 0.38643 0.11795 0.0
C1169 C 0.87772 0.41706 0.1258 0.0
loop_
_geom_bond_atom_site_label_1
_geom_bond_atom_site_label_2
_geom_bond_distance
_geom_bond_site_symmetry_2
_ccdc_geom_bond_type
H0 O26 0.856 . S
H1 O29 0.854 . S
H2 C37 0.930 1_455 S
H3 C38 0.930 . S
H4 C40 0.930 . S
H5 C41 0.930 . S
H6 C43 0.931 . S
H7 C44 0.930 . S
H8 C46 0.930 . S
H9 C47 0.929 . S
H10 C49 0.930 . S
H11 C50 0.931 . S
H12 C52 0.930 . S
H13 C53 0.929 . S
H14 C55 0.931 . S
H15 C56 0.930 . S
H16 C58 0.930 . S
H17 C59 0.932 . S
H18 C61 0.930 . S
H19 C62 0.929 . S
H20 C64 0.931 . S
H21 C65 0.930 . S
H22 C67 0.929 . S
H23 C68 0.931 . S
H24 C70 0.930 . S
H25 C71 0.930 . S
O26 H0 0.856 . S
O26 C72 1.300 . S
O27 C72 1.209 . S
O28 C73 1.199 . S
O29 H1 0.854 . S
O29 C73 1.297 . S
C30 C31 1.404 . S
C30 C35 1.397 . S
C30 C36 1.492 . S
C31 C30 1.404 . S
C31 C32 1.396 . S
C31 C42 1.492 . S
C32 C31 1.396 . S
C32 C33 1.397 . S
C32 C48 1.509 . S
C33 C32 1.397 . S
C33 C34 1.412 . S
C33 C54 1.485 . S
C34 C33 1.412 . S
C34 C35 1.388 . S
C34 C60 1.490 . S
C35 C30 1.397 . S
C35 C34 1.388 . S
C35 C66 1.519 1_455 S
C36 C30 1.492 . S
C36 C37 1.363 1_455 S
C36 C41 1.390 1_455 S
C37 H2 0.930 1_655 S
C37 C36 1.363 1_655 S
C37 C38 1.372 . S
C38 H3 0.930 . S
C38 C37 1.372 . S
C38 C39 1.383 . S
C39 C38 1.383 . S
C39 C40 1.395 . S
C40 H4 0.930 . S
C40 C39 1.395 . S
C40 C41 1.362 . S
C41 H5 0.930 . S
C41 C36 1.390 1_655 S
C41 C40 1.362 . S
C42 C31 1.492 . S
C42 C43 1.377 . S
C42 C47 1.397 . S
C43 H6 0.931 . S
C43 C42 1.377 . S
C43 C44 1.376 . S
C44 H7 0.930 . S
C44 C43 1.376 . S
C44 C45 1.376 . S
C45 C44 1.376 . S
C45 C46 1.378 . S
C45 C72 1.486 . S
C46 H8 0.930 . S
C46 C45 1.378 . S
C46 C47 1.376 . S
C47 H9 0.929 . S
C47 C42 1.397 . S
C47 C46 1.376 . S
C48 C32 1.509 . S
C48 C49 1.391 . S
C48 C53 1.386 . S
C49 H10 0.930 . S
C49 C48 1.391 . S
C49 C50 1.375 . S
C50 H11 0.931 . S
C50 C49 1.375 . S
C50 C51 1.375 . S
C51 C50 1.375 . S
C51 C52 1.361 . S
C52 H12 0.930 . S
C52 C51 1.361 . S
C52 C53 1.399 . S
C53 H13 0.929 . S
C53 C48 1.386 . S
C53 C52 1.399 . S
C54 C33 1.485 . S
C54 C55 1.394 . S
C54 C59 1.360 . S
C55 H14 0.931 . S
C55 C54 1.394 . S
C55 C56 1.372 . S
C56 H15 0.930 . S
C56 C55 1.372 . S
C56 C57 1.397 . S
C57 C56 1.397 . S
C57 C58 1.390 . S
C57 C73 1.476 . S
C58 H16 0.930 . S
C58 C57 1.390 . S
C58 C59 1.366 . S
C59 H17 0.932 . S
C59 C54 1.360 . S
C59 C58 1.366 . S
C60 C34 1.490 . S
C60 C61 1.380 . S
C60 C65 1.386 . S
C61 H18 0.930 . S
C61 C60 1.380 . S
C61 C62 1.381 . S
C62 H19 0.929 . S
C62 C61 1.381 . S
C62 C63 1.371 . S
C63 C62 1.371 . S
C63 C64 1.380 . S
C64 H20 0.931 . S
C64 C63 1.380 . S
C64 C65 1.387 . S
C65 H21 0.930 . S
C65 C60 1.386 . S
C65 C64 1.387 . S
C66 C35 1.519 1_655 S
C66 C67 1.377 . S
C66 C71 1.361 . S
C67 H22 0.929 . S
C67 C66 1.377 . S
C67 C68 1.386 . S
C68 H23 0.931 . S
C68 C67 1.386 . S
C68 C69 1.363 . S
C69 C68 1.363 . S
C69 C70 1.385 . S
C70 H24 0.930 . S
C70 C69 1.385 . S
C70 C71 1.396 . S
C71 H25 0.930 . S
C71 C66 1.361 . S
C71 C70 1.396 . S
C72 O26 1.300 . S
C72 O27 1.209 . S
C72 C45 1.486 . S
C73 O28 1.199 . S
C73 O29 1.297 . S
C73 C57 1.476 . S
H74 O100 0.856 . S
H75 O103 0.854 . S
H76 C111 0.930 . S
H77 C112 0.930 . S
H78 C114 0.930 . S
H79 C115 0.930 . S
H80 C117 0.931 . S
H81 C118 0.930 . S
H82 C120 0.930 . S
H83 C121 0.929 . S
H84 C123 0.930 . S
H85 C124 0.931 . S
H86 C126 0.930 . S
H87 C127 0.929 . S
H88 C129 0.931 . S
H89 C130 0.930 . S
H90 C132 0.930 . S
H91 C133 0.932 . S
H92 C135 0.930 . S
H93 C136 0.929 . S
H94 C138 0.931 . S
H95 C139 0.930 . S
H96 C141 0.929 . S
H97 C142 0.931 . S
H98 C144 0.930 . S
H99 C145 0.929 . S
O100 H74 0.856 . S
O100 C146 1.300 . S
O101 C146 1.209 . S
O102 C147 1.199 . S
O103 H75 0.854 . S
O103 C147 1.297 . S
C104 C105 1.404 . S
C104 C109 1.397 . S
C104 C110 1.492 . S
C105 C104 1.404 . S
C105 C106 1.396 . S
C105 C116 1.492 . S
C106 C105 1.396 . S
C106 C107 1.397 . S
C106 C122 1.509 . S
C107 C106 1.397 . S
C107 C108 1.412 . S
C107 C128 1.485 . S
C108 C107 1.412 . S
C108 C109 1.388 . S
C108 C134 1.490 . S
C109 C104 1.397 . S
C109 C108 1.388 . S
C109 C140 1.519 1_545 S
C110 C104 1.492 . S
C110 C111 1.363 . S
C110 C115 1.390 1_545 S
C111 H76 0.930 . S
C111 C110 1.363 . S
C111 C112 1.372 1_545 S
C112 H77 0.930 . S
C112 C111 1.372 1_565 S
C112 C113 1.383 . S
C113 C112 1.383 . S
C113 C114 1.395 . S
C114 H78 0.930 . S
C114 C113 1.395 . S
C114 C115 1.362 . S
C115 H79 0.930 . S
C115 C110 1.390 1_565 S
C115 C114 1.362 . S
C116 C105 1.492 . S
C116 C117 1.377 . S
C116 C121 1.397 . S
C117 H80 0.931 . S
C117 C116 1.377 . S
C117 C118 1.376 . S
C118 H81 0.930 . S
C118 C117 1.376 . S
C118 C119 1.376 . S
C119 C118 1.376 . S
C119 C120 1.378 . S
C119 C146 1.486 . S
C120 H82 0.930 . S
C120 C119 1.378 . S
C120 C121 1.376 . S
C121 H83 0.929 . S
C121 C116 1.397 . S
C121 C120 1.376 . S
C122 C106 1.509 . S
C122 C123 1.391 . S
C122 C127 1.386 . S
C123 H84 0.930 . S
C123 C122 1.391 . S
C123 C124 1.375 . S
C124 H85 0.931 . S
C124 C123 1.375 . S
C124 C125 1.375 . S
C125 C124 1.375 . S
C125 C126 1.361 . S
C126 H86 0.930 . S
C126 C125 1.361 . S
C126 C127 1.399 . S
C127 H87 0.929 . S
C127 C122 1.386 . S
C127 C126 1.399 . S
C128 C107 1.485 . S
C128 C129 1.394 . S
C128 C133 1.360 . S
C129 H88 0.931 . S
C129 C128 1.394 . S
C129 C130 1.372 . S
C130 H89 0.930 . S
C130 C129 1.372 . S
C130 C131 1.397 . S
C131 C130 1.397 . S
C131 C132 1.390 . S
C131 C147 1.476 . S
C132 H90 0.930 . S
C132 C131 1.390 . S
C132 C133 1.366 . S
C133 H91 0.932 . S
C133 C128 1.360 . S
C133 C132 1.366 . S
C134 C108 1.490 . S
C134 C135 1.380 . S
C134 C139 1.386 . S
C135 H92 0.930 . S
C135 C134 1.380 . S
C135 C136 1.381 . S
C136 H93 0.929 . S
C136 C135 1.381 . S
C136 C137 1.371 . S
C137 C136 1.371 . S
C137 C138 1.380 . S
C138 H94 0.931 . S
C138 C137 1.380 . S
C138 C139 1.387 . S
C139 H95 0.930 . S
C139 C134 1.386 . S
C139 C138 1.387 . S
C140 C109 1.519 1_565 S
C140 C141 1.377 . S
C140 C145 1.361 . S
C141 H96 0.929 . S
C141 C140 1.377 . S
C141 C142 1.386 . S
C142 H97 0.931 . S
C142 C141 1.386 . S
C142 C143 1.363 . S
C143 C142 1.363 . S
C143 C144 1.385 . S
C144 H98 0.930 . S
C144 C143 1.385 . S
C144 C145 1.396 . S
C145 H99 0.929 . S
C145 C140 1.361 . S
C145 C144 1.396 . S
C146 O100 1.300 . S
C146 O101 1.209 . S
C146 C119 1.486 . S
C147 O102 1.199 . S
C147 O103 1.297 . S
C147 C131 1.476 . S
H148 O174 0.856 . S
H149 O177 0.854 . S
H150 C185 0.930 . S
H151 C186 0.930 . S
H152 C188 0.930 . S
H153 C189 0.930 . S
H154 C191 0.931 . S
H155 C192 0.930 . S
H156 C194 0.930 . S
H157 C195 0.929 . S
H158 C197 0.930 . S
H159 C198 0.931 . S
H160 C200 0.930 . S
H161 C201 0.929 . S
H162 C203 0.931 . S
H163 C204 0.930 . S
H164 C206 0.930 . S
H165 C207 0.932 . S
H166 C209 0.930 . S
H167 C210 0.929 . S
H168 C212 0.931 . S
H169 C213 0.930 . S
H170 C215 0.929 . S
H171 C216 0.931 . S
H172 C218 0.930 . S
H173 C219 0.929 . S
O174 H148 0.856 . S
O174 C220 1.300 . S
O175 C220 1.209 . S
O176 C221 1.199 . S
O177 H149 0.854 . S
O177 C221 1.297 . S
C178 C179 1.404 . S
C178 C183 1.397 . S
C178 C184 1.492 . S
C179 C178 1.404 . S
C179 C180 1.396 . S
C179 C190 1.492 . S
C180 C179 1.396 . S
C180 C181 1.397 . S
C180 C196 1.509 . S
C181 C180 1.397 . S
C181 C182 1.412 . S
C181 C202 1.485 . S
C182 C181 1.412 . S
C182 C183 1.388 . S
C182 C208 1.490 . S
C183 C178 1.397 . S
C183 C182 1.388 . S
C183 C214 1.519 . S
C184 C178 1.492 . S
C184 C185 1.363 . S
C184 C189 1.390 . S
C185 H150 0.930 . S
C185 C184 1.363 . S
C185 C186 1.372 . S
C186 H151 0.930 . S
C186 C185 1.372 . S
C186 C187 1.383 . S
C187 C186 1.383 . S
C187 C188 1.395 . S
C188 H152 0.930 . S
C188 C187 1.395 . S
C188 C189 1.362 . S
C189 H153 0.930 . S
C189 C184 1.390 . S
C189 C188 1.362 . S
C190 C179 1.492 . S
C190 C191 1.377 . S
C190 C195 1.397 . S
C191 H154 0.931 . S
C191 C190 1.377 . S
C191 C192 1.376 . S
C192 H155 0.930 . S
C192 C191 1.376 . S
C192 C193 1.376 . S
C193 C192 1.376 . S
C193 C194 1.378 . S
C193 C220 1.486 . S
C194 H156 0.930 . S
C194 C193 1.378 . S
C194 C195 1.376 . S
C195 H157 0.929 . S
C195 C190 1.397 . S
C195 C194 1.376 . S
C196 C180 1.509 . S
C196 C197 1.391 . S
C196 C201 1.386 . S
C197 H158 0.930 . S
C197 C196 1.391 . S
C197 C198 1.375 . S
C198 H159 0.931 . S
C198 C197 1.375 . S
C198 C199 1.375 . S
C199 C198 1.375 . S
C199 C200 1.361 . S
C200 H160 0.930 . S
C200 C199 1.361 . S
C200 C201 1.399 . S
C201 H161 0.929 . S
C201 C196 1.386 . S
C201 C200 1.399 . S
C202 C181 1.485 . S
C202 C203 1.394 . S
C202 C207 1.360 . S
C203 H162 0.931 . S
C203 C202 1.394 . S
C203 C204 1.372 . S
C204 H163 0.930 . S
C204 C203 1.372 . S
C204 C205 1.397 . S
C205 C204 1.397 . S
C205 C206 1.390 . S
C205 C221 1.476 . S
C206 H164 0.930 . S
C206 C205 1.390 . S
C206 C207 1.366 . S
C207 H165 0.932 . S
C207 C202 1.360 . S
C207 C206 1.366 . S
C208 C182 1.490 . S
C208 C209 1.380 . S
C208 C213 1.386 . S
C209 H166 0.930 . S
C209 C208 1.380 . S
C209 C210 1.381 . S
C210 H167 0.929 . S
C210 C209 1.381 . S
C210 C211 1.371 . S
C211 C210 1.371 . S
C211 C212 1.380 . S
C212 H168 0.931 . S
C212 C211 1.380 . S
C212 C213 1.387 . S
C213 H169 0.930 . S
C213 C208 1.386 . S
C213 C212 1.387 . S
C214 C183 1.519 . S
C214 C215 1.377 . S
C214 C219 1.361 . S
C215 H170 0.929 . S
C215 C214 1.377 . S
C215 C216 1.386 . S
C216 H171 0.931 . S
C216 C215 1.386 . S
C216 C217 1.363 . S
C217 C216 1.363 . S
C217 C218 1.385 . S
C218 H172 0.930 . S
C218 C217 1.385 . S
C218 C219 1.396 . S
C219 H173 0.929 . S
C219 C214 1.361 . S
C219 C218 1.396 . S
C220 O174 1.300 . S
C220 O175 1.209 . S
C220 C193 1.486 . S
C221 O176 1.199 . S
C221 O177 1.297 . S
C221 C205 1.476 . S
H222 O248 0.856 . S
H223 O251 0.854 . S
H224 C259 0.930 1_455 S
H225 C260 0.930 . S
H226 C262 0.930 . S
H227 C263 0.930 . S
H228 C265 0.931 . S
H229 C266 0.930 . S
H230 C268 0.930 . S
H231 C269 0.929 . S
H232 C271 0.930 . S
H233 C272 0.931 . S
H234 C274 0.930 . S
H235 C275 0.929 . S
H236 C277 0.931 . S
H237 C278 0.930 . S
H238 C280 0.930 . S
H239 C281 0.932 . S
H240 C283 0.930 . S
H241 C284 0.929 . S
H242 C286 0.931 . S
H243 C287 0.930 . S
H244 C289 0.929 . S
H245 C290 0.931 . S
H246 C292 0.930 . S
H247 C293 0.929 . S
O248 H222 0.856 . S
O248 C294 1.300 . S
O249 C294 1.209 . S
O250 C295 1.199 . S
O251 H223 0.854 . S
O251 C295 1.297 . S
C252 C253 1.404 . S
C252 C257 1.397 . S
C252 C258 1.492 1_455 S
C253 C252 1.404 . S
C253 C254 1.396 . S
C253 C264 1.492 . S
C254 C253 1.396 . S
C254 C255 1.397 . S
C254 C270 1.509 . S
C255 C254 1.397 . S
C255 C256 1.412 . S
C255 C276 1.485 . S
C256 C255 1.412 . S
C256 C257 1.388 . S
C256 C282 1.490 . S
C257 C252 1.397 . S
C257 C256 1.388 . S
C257 C288 1.519 1_455 S
C258 C252 1.492 1_655 S
C258 C259 1.363 . S
C258 C263 1.390 . S
C259 H224 0.930 1_655 S
C259 C258 1.363 . S
C259 C260 1.372 . S
C260 H225 0.930 . S
C260 C259 1.372 . S
C260 C261 1.383 . S
C261 C260 1.383 . S
C261 C262 1.395 . S
C262 H226 0.930 . S
C262 C261 1.395 . S
C262 C263 1.362 . S
C263 H227 0.930 . S
C263 C258 1.390 . S
C263 C262 1.362 . S
C264 C253 1.492 . S
C264 C265 1.377 . S
C264 C269 1.397 . S
C265 H228 0.931 . S
C265 C264 1.377 . S
C265 C266 1.376 . S
C266 H229 0.930 . S
C266 C265 1.376 . S
C266 C267 1.376 . S
C267 C266 1.376 . S
C267 C268 1.378 . S
C267 C294 1.486 . S
C268 H230 0.930 . S
C268 C267 1.378 . S
C268 C269 1.376 . S
C269 H231 0.929 . S
C269 C264 1.397 . S
C269 C268 1.376 . S
C270 C254 1.509 . S
C270 C271 1.391 . S
C270 C275 1.386 . S
C271 H232 0.930 . S
C271 C270 1.391 . S
C271 C272 1.375 . S
C272 H233 0.931 . S
C272 C271 1.375 . S
C272 C273 1.375 . S
C273 C272 1.375 . S
C273 C274 1.361 . S
C274 H234 0.930 . S
C274 C273 1.361 . S
C274 C275 1.399 . S
C275 H235 0.929 . S
C275 C270 1.386 . S
C275 C274 1.399 . S
C276 C255 1.485 . S
C276 C277 1.394 . S
C276 C281 1.360 . S
C277 H236 0.931 . S
C277 C276 1.394 . S
C277 C278 1.372 . S
C278 H237 0.930 . S
C278 C277 1.372 . S
C278 C279 1.397 . S
C279 C278 1.397 . S
C279 C280 1.390 . S
C279 C295 1.476 . S
C280 H238 0.930 . S
C280 C279 1.390 . S
C280 C281 1.366 . S
C281 H239 0.932 . S
C281 C276 1.360 . S
C281 C280 1.366 . S
C282 C256 1.490 . S
C282 C283 1.380 . S
C282 C287 1.386 . S
C283 H240 0.930 . S
C283 C282 1.380 . S
C283 C284 1.381 . S
C284 H241 0.929 . S
C284 C283 1.381 . S
C284 C285 1.371 . S
C285 C284 1.371 . S
C285 C286 1.380 . S
C286 H242 0.931 . S
C286 C285 1.380 . S
C286 C287 1.387 . S
C287 H243 0.930 . S
C287 C282 1.386 . S
C287 C286 1.387 . S
C288 C257 1.519 1_655 S
C288 C289 1.377 . S
C288 C293 1.361 . S
C289 H244 0.929 . S
C289 C288 1.377 . S
C289 C290 1.386 . S
C290 H245 0.931 . S
C290 C289 1.386 . S
C290 C291 1.363 . S
C291 C290 1.363 . S
C291 C292 1.385 . S
C292 H246 0.930 . S
C292 C291 1.385 . S
C292 C293 1.396 . S
C293 H247 0.929 . S
C293 C288 1.361 . S
C293 C292 1.396 . S
C294 O248 1.300 . S
C294 O249 1.209 . S
C294 C267 1.486 . S
C295 O250 1.199 . S
C295 O251 1.297 . S
C295 C279 1.476 . S
H296 O322 0.856 . S
H297 O325 0.854 . S
H298 C333 0.930 . S
H299 C334 0.930 . S
H300 C336 0.930 . S
H301 C337 0.930 . S
H302 C339 0.931 . S
H303 C340 0.930 . S
H304 C342 0.930 . S
H305 C343 0.929 . S
H306 C345 0.930 . S
H307 C346 0.931 . S
H308 C348 0.930 . S
H309 C349 0.929 . S
H310 C351 0.931 . S
H311 C352 0.930 . S
H312 C354 0.930 . S
H313 C355 0.963 . S
H314 C357 0.930 . S
H315 C358 0.929 . S
H316 C360 0.931 . S
H317 C361 0.930 . S
H318 C363 0.951 . S
H319 C364 0.931 . S
H320 C366 0.930 . S
H321 C367 0.929 . S
O322 H296 0.856 . S
O322 C368 1.300 . S
O323 C368 1.209 . S
O324 C369 1.199 . S
O325 H297 0.854 . S
O325 C369 1.297 . S
C326 C327 1.404 . S
C326 C331 1.397 . S
C326 C332 1.492 1_565 S
C327 C326 1.404 . S
C327 C328 1.396 . S
C327 C338 1.492 . S
C328 C327 1.396 . S
C328 C329 1.397 . S
C328 C344 1.509 . S
C329 C328 1.397 . S
C329 C330 1.412 1_556 S
C329 C350 1.485 1_556 S
C330 C329 1.412 1_554 S
C330 C331 1.388 1_554 S
C330 C356 1.490 . S
C331 C326 1.397 . S
C331 C330 1.388 1_556 S
C331 C362 1.520 1_565 S
C332 C326 1.492 1_545 S
C332 C333 1.363 . S
C332 C337 1.390 . S
C333 H298 0.930 . S
C333 C332 1.363 . S
C333 C334 1.372 . S
C334 H299 0.930 . S
C334 C333 1.372 . S
C334 C335 1.383 . S
C335 C334 1.383 . S
C335 C336 1.395 . S
C336 H300 0.930 . S
C336 C335 1.395 . S
C336 C337 1.362 . S
C337 H301 0.930 . S
C337 C332 1.390 . S
C337 C336 1.362 . S
C338 C327 1.492 . S
C338 C339 1.377 . S
C338 C343 1.397 . S
C339 H302 0.931 . S
C339 C338 1.377 . S
C339 C340 1.376 . S
C340 H303 0.930 . S
C340 C339 1.376 . S
C340 C341 1.376 . S
C341 C340 1.376 . S
C341 C342 1.378 . S
C341 C368 1.486 . S
C342 H304 0.930 . S
C342 C341 1.378 . S
C342 C343 1.376 . S
C343 H305 0.929 . S
C343 C338 1.397 . S
C343 C342 1.376 . S
C344 C328 1.509 . S
C344 C345 1.391 . S
C344 C349 1.386 . S
C345 H306 0.930 . S
C345 C344 1.391 . S
C345 C346 1.375 . S
C346 H307 0.931 . S
C346 C345 1.375 . S
C346 C347 1.375 . S
C347 C346 1.375 . S
C347 C348 1.361 . S
C348 H308 0.930 . S
C348 C347 1.361 . S
C348 C349 1.399 . S
C349 H309 0.929 . S
C349 C344 1.386 . S
C349 C348 1.399 . S
C350 C329 1.485 1_554 S
C350 C351 1.394 . S
C350 C355 1.360 . S
C351 H310 0.931 . S
C351 C350 1.394 . S
C351 C352 1.372 . S
C352 H311 0.930 . S
C352 C351 1.372 . S
C352 C353 1.397 . S
C353 C352 1.397 . S
C353 C354 1.390 . S
C353 C369 1.476 . S
C354 H312 0.930 . S
C354 C353 1.390 . S
C354 C355 1.366 . S
C355 H313 0.963 . S
C355 C350 1.360 . S
C355 C354 1.366 . S
C356 C330 1.490 . S
C356 C357 1.380 . S
C356 C361 1.386 . S
C357 H314 0.930 . S
C357 C356 1.380 . S
C357 C358 1.381 . S
C358 H315 0.929 . S
C358 C357 1.381 . S
C358 C359 1.371 . S
C359 C358 1.371 . S
C359 C360 1.380 . S
C360 H316 0.931 . S
C360 C359 1.380 . S
C360 C361 1.387 . S
C361 H317 0.930 . S
C361 C356 1.386 . S
C361 C360 1.387 . S
C362 C331 1.520 1_545 S
C362 C363 1.376 . S
C362 C367 1.359 1_556 S
C363 H318 0.951 . S
C363 C362 1.376 . S
C363 C364 1.368 1_556 S
C364 H319 0.931 . S
C364 C363 1.368 1_554 S
C364 C365 1.363 . S
C365 C364 1.363 . S
C365 C366 1.385 . S
C366 H320 0.930 . S
C366 C365 1.385 . S
C366 C367 1.396 . S
C367 H321 0.929 . S
C367 C362 1.359 1_554 S
C367 C366 1.396 . S
C368 O322 1.300 . S
C368 O323 1.209 . S
C368 C341 1.486 . S
C369 O324 1.199 . S
C369 O325 1.297 . S
C369 C353 1.476 . S
H370 O396 0.856 1_556 S
H371 O399 0.854 . S
H372 C407 0.930 . S
H373 C408 0.930 . S
H374 C410 0.930 . S
H375 C411 0.930 . S
H376 C413 0.931 . S
H377 C414 0.930 . S
H378 C416 0.930 . S
H379 C417 0.929 . S
H380 C419 0.930 . S
H381 C420 0.931 . S
H382 C422 0.930 . S
H383 C423 0.929 . S
H384 C425 0.931 . S
H385 C426 0.930 . S
H386 C428 0.930 . S
H387 C429 0.932 . S
H388 C431 0.930 . S
H389 C432 0.929 . S
H390 C434 0.931 . S
H391 C435 0.930 . S
H392 C437 0.929 . S
H393 C438 0.931 . S
H394 C440 0.930 . S
H395 C441 0.929 . S
O396 H370 0.856 1_554 S
O396 C442 1.300 . S
O397 C442 1.209 1_556 S
O398 C443 1.199 . S
O399 H371 0.854 . S
O399 C443 1.297 . S
C400 C401 1.404 . S
C400 C405 1.397 . S
C400 C406 1.492 . S
C401 C400 1.404 . S
C401 C402 1.396 . S
C401 C412 1.492 . S
C402 C401 1.396 . S
C402 C403 1.397 . S
C402 C418 1.509 . S
C403 C402 1.397 . S
C403 C404 1.412 . S
C403 C424 1.485 . S
C404 C403 1.412 . S
C404 C405 1.388 . S
C404 C430 1.490 . S
C405 C400 1.397 . S
C405 C404 1.388 . S
C405 C436 1.519 . S
C406 C400 1.492 . S
C406 C407 1.363 . S
C406 C411 1.390 . S
C407 H372 0.930 . S
C407 C406 1.363 . S
C407 C408 1.372 . S
C408 H373 0.930 . S
C408 C407 1.372 . S
C408 C409 1.383 . S
C409 C408 1.383 . S
C409 C410 1.395 . S
C410 H374 0.930 . S
C410 C409 1.395 . S
C410 C411 1.362 . S
C411 H375 0.930 . S
C411 C406 1.390 . S
C411 C410 1.362 . S
C412 C401 1.492 . S
C412 C413 1.377 . S
C412 C417 1.397 . S
C413 H376 0.931 . S
C413 C412 1.377 . S
C413 C414 1.376 . S
C414 H377 0.930 . S
C414 C413 1.376 . S
C414 C415 1.376 . S
C415 C414 1.376 . S
C415 C416 1.378 . S
C415 C442 1.486 . S
C416 H378 0.930 . S
C416 C415 1.378 . S
C416 C417 1.376 . S
C417 H379 0.929 . S
C417 C412 1.397 . S
C417 C416 1.376 . S
C418 C402 1.509 . S
C418 C419 1.391 . S
C418 C423 1.386 . S
C419 H380 0.930 . S
C419 C418 1.391 . S
C419 C420 1.375 . S
C420 H381 0.931 . S
C420 C419 1.375 . S
C420 C421 1.375 . S
C421 C420 1.375 . S
C421 C422 1.361 . S
C422 H382 0.930 . S
C422 C421 1.361 . S
C422 C423 1.399 . S
C423 H383 0.929 . S
C423 C418 1.386 . S
C423 C422 1.399 . S
C424 C403 1.485 . S
C424 C425 1.394 . S
C424 C429 1.360 . S
C425 H384 0.931 . S
C425 C424 1.394 . S
C425 C426 1.372 . S
C426 H385 0.930 . S
C426 C425 1.372 . S
C426 C427 1.397 . S
C427 C426 1.397 . S
C427 C428 1.390 . S
C427 C443 1.476 . S
C428 H386 0.930 . S
C428 C427 1.390 . S
C428 C429 1.366 . S
C429 H387 0.932 . S
C429 C424 1.360 . S
C429 C428 1.366 . S
C430 C404 1.490 . S
C430 C431 1.380 . S
C430 C435 1.386 . S
C431 H388 0.930 . S
C431 C430 1.380 . S
C431 C432 1.381 . S
C432 H389 0.929 . S
C432 C431 1.381 . S
C432 C433 1.371 . S
C433 C432 1.371 . S
C433 C434 1.380 . S
C434 H390 0.931 . S
C434 C433 1.380 . S
C434 C435 1.387 . S
C435 H391 0.930 . S
C435 C430 1.386 . S
C435 C434 1.387 . S
C436 C405 1.519 . S
C436 C437 1.377 . S
C436 C441 1.361 . S
C437 H392 0.929 . S
C437 C436 1.377 . S
C437 C438 1.386 . S
C438 H393 0.931 . S
C438 C437 1.386 . S
C438 C439 1.363 . S
C439 C438 1.363 . S
C439 C440 1.385 . S
C440 H394 0.930 . S
C440 C439 1.385 . S
C440 C441 1.396 . S
C441 H395 0.929 . S
C441 C436 1.361 . S
C441 C440 1.396 . S
C442 O396 1.300 . S
C442 O397 1.209 1_554 S
C442 C415 1.486 . S
C443 O398 1.199 . S
C443 O399 1.297 . S
C443 C427 1.476 . S
C444 O445 1.160 . S
C444 O451 1.185 . S
O445 C444 1.160 . S
O446 Zn447 1.899 . S
O446 C454 1.284 . S
Zn447 O446 1.899 . S
Zn447 O448 2.032 . S
Zn447 O451 2.086 . S
Zn447 O456 1.977 . S
O448 Zn447 2.032 . S
O448 C452 1.278 . S
C449 O450 1.203 . S
C449 O456 1.267 . S
O450 C449 1.203 . S
O451 C444 1.185 . S
O451 Zn447 2.086 . S
C452 O448 1.278 . S
C452 O453 1.211 . S
O453 C452 1.211 . S
C454 O446 1.284 . S
C454 O455 1.273 . S
O455 C454 1.273 . S
O456 Zn447 1.977 . S
O456 C449 1.267 . S
C457 O458 1.160 . S
C457 O464 1.185 . S
O458 C457 1.160 . S
O459 Zn460 1.899 . S
O459 C467 1.284 . S
Zn460 O459 1.899 . S
Zn460 O461 2.032 . S
Zn460 O464 2.086 . S
Zn460 O469 1.977 . S
O461 Zn460 2.032 . S
O461 C465 1.278 . S
C462 O463 1.203 . S
C462 O469 1.267 . S
O463 C462 1.203 . S
O464 C457 1.185 . S
O464 Zn460 2.086 . S
C465 O461 1.278 . S
C465 O466 1.211 . S
O466 C465 1.211 . S
C467 O459 1.284 . S
C467 O468 1.273 . S
O468 C467 1.273 . S
O469 Zn460 1.977 . S
O469 C462 1.267 . S
C470 O471 1.160 . S
C470 O477 1.185 . S
O471 C470 1.160 . S
O472 Zn473 1.899 . S
O472 C480 1.284 . S
Zn473 O472 1.899 . S
Zn473 O474 2.032 . S
Zn473 O477 2.086 . S
Zn473 O482 1.977 . S
O474 Zn473 2.032 . S
O474 C478 1.278 . S
C475 O476 1.203 . S
C475 O482 1.267 . S
O476 C475 1.203 . S
O477 C470 1.185 . S
O477 Zn473 2.086 . S
C478 O474 1.278 . S
C478 O479 1.211 . S
O479 C478 1.211 . S
C480 O472 1.284 . S
C480 O481 1.273 . S
O481 C480 1.273 . S
O482 Zn473 1.977 . S
O482 C475 1.267 . S
C483 O484 1.160 . S
C483 O490 1.185 . S
O484 C483 1.160 . S
O485 Zn486 1.899 . S
O485 C493 1.284 . S
Zn486 O485 1.899 . S
Zn486 O487 2.032 . S
Zn486 O490 2.086 . S
Zn486 O495 1.977 . S
O487 Zn486 2.032 . S
O487 C491 1.278 . S
C488 O489 1.203 . S
C488 O495 1.267 . S
O489 C488 1.203 . S
O490 C483 1.185 . S
O490 Zn486 2.086 . S
C491 O487 1.278 . S
C491 O492 1.211 . S
O492 C491 1.211 . S
C493 O485 1.284 . S
C493 O494 1.273 . S
O494 C493 1.273 . S
O495 Zn486 1.977 . S
O495 C488 1.267 . S
C496 O497 1.160 . S
C496 O503 1.185 . S
O497 C496 1.160 . S
O498 Zn499 1.899 . S
O498 C506 1.284 . S
Zn499 O498 1.899 . S
Zn499 O500 2.032 . S
Zn499 O503 2.086 . S
Zn499 O508 1.977 . S
O500 Zn499 2.032 . S
O500 C504 1.278 . S
C501 O502 1.203 . S
C501 O508 1.267 . S
O502 C501 1.203 . S
O503 C496 1.185 . S
O503 Zn499 2.086 . S
C504 O500 1.278 . S
C504 O505 1.211 . S
O505 C504 1.211 . S
C506 O498 1.284 . S
C506 O507 1.273 . S
O507 C506 1.273 . S
O508 Zn499 1.977 . S
O508 C501 1.267 . S
C509 O510 1.160 . S
C509 O516 1.185 . S
O510 C509 1.160 . S
O511 Zn512 1.899 . S
O511 C519 1.284 . S
Zn512 O511 1.899 . S
Zn512 O513 2.032 . S
Zn512 O516 2.086 . S
Zn512 O521 1.977 . S
O513 Zn512 2.032 . S
O513 C517 1.278 . S
C514 O515 1.203 . S
C514 O521 1.267 . S
O515 C514 1.203 . S
O516 C509 1.185 . S
O516 Zn512 2.086 . S
C517 O513 1.278 . S
C517 O518 1.211 . S
O518 C517 1.211 . S
C519 O511 1.284 . S
C519 O520 1.273 . S
O520 C519 1.273 . S
O521 Zn512 1.977 . S
O521 C514 1.267 . S
H522 C534 0.930 . S
H523 C536 0.930 . S
H524 C537 0.930 . S
H525 C541 0.959 . S
H526 C541 0.959 . S
H527 C541 0.961 . S
H528 C542 0.960 . S
H529 C542 0.961 . S
H530 C542 0.959 . S
H531 C545 0.929 . S
H532 C546 0.931 . S
H533 C548 0.930 . S
C534 H522 0.930 . S
C534 C535 1.399 . S
C534 C539 1.399 . S
C535 C534 1.399 . S
C535 C536 1.376 . S
C536 H523 0.930 . S
C536 C535 1.376 . S
C536 C537 1.388 . S
C537 H524 0.930 . S
C537 C536 1.388 . S
C537 C538 1.390 . S
C538 C537 1.390 . S
C538 C539 1.394 . S
C538 C544 1.465 . S
C539 C534 1.399 . S
C539 C538 1.394 . S
C539 C540 1.516 . S
C540 C539 1.516 . S
C540 C541 1.502 . S
C540 C542 1.561 . S
C540 C543 1.526 . S
C541 H525 0.959 . S
C541 H526 0.959 . S
C541 H527 0.961 . S
C541 C540 1.502 . S
C542 H528 0.960 . S
C542 H529 0.961 . S
C542 H530 0.959 . S
C542 C540 1.561 . S
C543 C540 1.526 . S
C543 C544 1.396 . S
C543 C548 1.390 . S
C544 C538 1.465 . S
C544 C543 1.396 . S
C544 C545 1.399 . S
C545 H531 0.929 . S
C545 C544 1.399 . S
C545 C546 1.385 . S
C546 H532 0.931 . S
C546 C545 1.385 . S
C546 C547 1.389 . S
C547 C546 1.389 . S
C547 C548 1.387 . S
C548 H533 0.930 . S
C548 C543 1.390 . S
C548 C547 1.387 . S
H549 C561 0.930 . S
H550 C563 0.930 . S
H551 C564 0.930 . S
H552 C568 0.959 . S
H553 C568 0.959 . S
H554 C568 0.961 . S
H555 C569 0.960 . S
H556 C569 0.961 . S
H557 C569 0.959 . S
H558 C572 0.929 . S
H559 C573 0.931 . S
H560 C575 0.930 . S
C561 H549 0.930 . S
C561 C562 1.399 . S
C561 C566 1.399 . S
C562 C561 1.399 . S
C562 C563 1.376 . S
C563 H550 0.930 . S
C563 C562 1.376 . S
C563 C564 1.388 . S
C564 H551 0.930 . S
C564 C563 1.388 . S
C564 C565 1.390 . S
C565 C564 1.390 . S
C565 C566 1.394 . S
C565 C571 1.465 . S
C566 C561 1.399 . S
C566 C565 1.394 . S
C566 C567 1.516 . S
C567 C566 1.516 . S
C567 C568 1.502 . S
C567 C569 1.561 . S
C567 C570 1.526 . S
C568 H552 0.959 . S
C568 H553 0.959 . S
C568 H554 0.961 . S
C568 C567 1.502 . S
C569 H555 0.960 . S
C569 H556 0.961 . S
C569 H557 0.959 . S
C569 C567 1.561 . S
C570 C567 1.526 . S
C570 C571 1.396 . S
C570 C575 1.390 . S
C571 C565 1.465 . S
C571 C570 1.396 . S
C571 C572 1.399 . S
C572 H558 0.929 . S
C572 C571 1.399 . S
C572 C573 1.385 . S
C573 H559 0.931 . S
C573 C572 1.385 . S
C573 C574 1.389 . S
C574 C573 1.389 . S
C574 C575 1.387 . S
C575 H560 0.930 . S
C575 C570 1.390 . S
C575 C574 1.387 . S
H576 C588 0.930 . S
H577 C590 0.930 . S
H578 C591 0.930 . S
H579 C595 0.959 . S
H580 C595 0.959 . S
H581 C595 0.961 . S
H582 C596 0.960 . S
H583 C596 0.961 . S
H584 C596 0.959 . S
H585 C599 0.929 . S
H586 C600 0.931 . S
H587 C602 0.930 . S
C588 H576 0.930 . S
C588 C589 1.399 . S
C588 C593 1.399 . S
C589 C588 1.399 . S
C589 C590 1.376 . S
C590 H577 0.930 . S
C590 C589 1.376 . S
C590 C591 1.388 . S
C591 H578 0.930 . S
C591 C590 1.388 . S
C591 C592 1.390 . S
C592 C591 1.390 . S
C592 C593 1.394 . S
C592 C598 1.465 . S
C593 C588 1.399 . S
C593 C592 1.394 . S
C593 C594 1.516 . S
C594 C593 1.516 . S
C594 C595 1.502 . S
C594 C596 1.561 . S
C594 C597 1.526 . S
C595 H579 0.959 . S
C595 H580 0.959 . S
C595 H581 0.961 . S
C595 C594 1.502 . S
C596 H582 0.960 . S
C596 H583 0.961 . S
C596 H584 0.959 . S
C596 C594 1.561 . S
C597 C594 1.526 . S
C597 C598 1.396 . S
C597 C602 1.390 . S
C598 C592 1.465 . S
C598 C597 1.396 . S
C598 C599 1.399 . S
C599 H585 0.929 . S
C599 C598 1.399 . S
C599 C600 1.385 . S
C600 H586 0.931 . S
C600 C599 1.385 . S
C600 C601 1.389 . S
C601 C600 1.389 . S
C601 C602 1.387 . S
C602 H587 0.930 . S
C602 C597 1.390 . S
C602 C601 1.387 . S
H603 C615 0.930 . S
H604 C617 0.930 . S
H605 C618 0.930 . S
H606 C622 0.959 . S
H607 C622 0.959 . S
H608 C622 0.961 . S
H609 C623 0.960 . S
H610 C623 0.961 . S
H611 C623 0.959 . S
H612 C626 0.929 . S
H613 C627 0.931 . S
H614 C629 0.930 . S
C615 H603 0.930 . S
C615 C616 1.399 . S
C615 C620 1.399 . S
C616 C615 1.399 . S
C616 C617 1.376 . S
C617 H604 0.930 . S
C617 C616 1.376 . S
C617 C618 1.388 . S
C618 H605 0.930 . S
C618 C617 1.388 . S
C618 C619 1.390 . S
C619 C618 1.390 . S
C619 C620 1.394 . S
C619 C625 1.465 . S
C620 C615 1.399 . S
C620 C619 1.394 . S
C620 C621 1.516 . S
C621 C620 1.516 . S
C621 C622 1.502 . S
C621 C623 1.561 . S
C621 C624 1.526 . S
C622 H606 0.959 . S
C622 H607 0.959 . S
C622 H608 0.961 . S
C622 C621 1.502 . S
C623 H609 0.960 . S
C623 H610 0.961 . S
C623 H611 0.959 . S
C623 C621 1.561 . S
C624 C621 1.526 . S
C624 C625 1.396 . S
C624 C629 1.390 . S
C625 C619 1.465 . S
C625 C624 1.396 . S
C625 C626 1.399 . S
C626 H612 0.929 . S
C626 C625 1.399 . S
C626 C627 1.385 . S
C627 H613 0.931 . S
C627 C626 1.385 . S
C627 C628 1.389 . S
C628 C627 1.389 . S
C628 C629 1.387 . S
C629 H614 0.930 . S
C629 C624 1.390 . S
C629 C628 1.387 . S
H630 C642 0.930 . S
H631 C644 0.930 . S
H632 C645 0.930 . S
H633 C649 0.959 . S
H634 C649 0.959 . S
H635 C649 0.961 . S
H636 C650 0.960 . S
H637 C650 0.961 . S
H638 C650 0.959 . S
H639 C653 0.929 . S
H640 C654 0.931 . S
H641 C656 0.930 . S
C642 H630 0.930 . S
C642 C643 1.399 . S
C642 C647 1.399 . S
C643 C642 1.399 . S
C643 C644 1.376 . S
C644 H631 0.930 . S
C644 C643 1.376 . S
C644 C645 1.388 . S
C645 H632 0.930 . S
C645 C644 1.388 . S
C645 C646 1.390 . S
C646 C645 1.390 . S
C646 C647 1.394 . S
C646 C652 1.465 . S
C647 C642 1.399 . S
C647 C646 1.394 . S
C647 C648 1.516 . S
C648 C647 1.516 . S
C648 C649 1.502 . S
C648 C650 1.561 . S
C648 C651 1.526 . S
C649 H633 0.959 . S
C649 H634 0.959 . S
C649 H635 0.961 . S
C649 C648 1.502 . S
C650 H636 0.960 . S
C650 H637 0.961 . S
C650 H638 0.959 . S
C650 C648 1.561 . S
C651 C648 1.526 . S
C651 C652 1.396 . S
C651 C656 1.390 . S
C652 C646 1.465 . S
C652 C651 1.396 . S
C652 C653 1.399 . S
C653 H639 0.929 . S
C653 C652 1.399 . S
C653 C654 1.385 . S
C654 H640 0.931 . S
C654 C653 1.385 . S
C654 C655 1.389 . S
C655 C654 1.389 . S
C655 C656 1.387 . S
C656 H641 0.930 . S
C656 C651 1.390 . S
C656 C655 1.387 . S
H657 C669 0.930 . S
H658 C671 0.930 . S
H659 C672 0.930 . S
H660 C676 0.959 . S
H661 C676 0.959 . S
H662 C676 0.961 . S
H663 C677 0.960 . S
H664 C677 0.961 . S
H665 C677 0.959 . S
H666 C680 0.929 . S
H667 C681 0.931 . S
H668 C683 0.930 . S
C669 H657 0.930 . S
C669 C670 1.399 . S
C669 C674 1.399 . S
C670 C669 1.399 . S
C670 C671 1.376 . S
C671 H658 0.930 . S
C671 C670 1.376 . S
C671 C672 1.388 . S
C672 H659 0.930 . S
C672 C671 1.388 . S
C672 C673 1.390 . S
C673 C672 1.390 . S
C673 C674 1.394 . S
C673 C679 1.465 . S
C674 C669 1.399 . S
C674 C673 1.394 . S
C674 C675 1.516 . S
C675 C674 1.516 . S
C675 C676 1.502 . S
C675 C677 1.561 . S
C675 C678 1.526 . S
C676 H660 0.959 . S
C676 H661 0.959 . S
C676 H662 0.961 . S
C676 C675 1.502 . S
C677 H663 0.960 . S
C677 H664 0.961 . S
C677 H665 0.959 . S
C677 C675 1.561 . S
C678 C675 1.526 . S
C678 C679 1.396 . S
C678 C683 1.390 . S
C679 C673 1.465 . S
C679 C678 1.396 . S
C679 C680 1.399 . S
C680 H666 0.929 . S
C680 C679 1.399 . S
C680 C681 1.385 . S
C681 H667 0.931 . S
C681 C680 1.385 . S
C681 C682 1.389 . S
C682 C681 1.389 . S
C682 C683 1.387 . S
C683 H668 0.930 . S
C683 C678 1.390 . S
C683 C682 1.387 . S
H684 C696 0.930 . S
H685 C698 0.930 . S
H686 C699 0.930 . S
H687 C703 0.959 . S
H688 C703 0.959 . S
H689 C703 0.961 . S
H690 C704 0.960 . S
H691 C704 0.961 . S
H692 C704 0.959 . S
H693 C707 0.929 . S
H694 C708 0.931 . S
H695 C710 0.930 . S
C696 H684 0.930 . S
C696 C697 1.399 . S
C696 C701 1.399 . S
C697 C696 1.399 . S
C697 C698 1.376 . S
C698 H685 0.930 . S
C698 C697 1.376 . S
C698 C699 1.388 . S
C699 H686 0.930 . S
C699 C698 1.388 . S
C699 C700 1.390 . S
C700 C699 1.390 . S
C700 C701 1.394 . S
C700 C706 1.465 . S
C701 C696 1.399 . S
C701 C700 1.394 . S
C701 C702 1.516 . S
C702 C701 1.516 . S
C702 C703 1.502 . S
C702 C704 1.561 . S
C702 C705 1.526 . S
C703 H687 0.959 . S
C703 H688 0.959 . S
C703 H689 0.961 . S
C703 C702 1.502 . S
C704 H690 0.960 . S
C704 H691 0.961 . S
C704 H692 0.959 . S
C704 C702 1.561 . S
C705 C702 1.526 . S
C705 C706 1.396 . S
C705 C710 1.390 . S
C706 C700 1.465 . S
C706 C705 1.396 . S
C706 C707 1.399 . S
C707 H693 0.929 . S
C707 C706 1.399 . S
C707 C708 1.385 . S
C708 H694 0.931 . S
C708 C707 1.385 . S
C708 C709 1.389 . S
C709 C708 1.389 . S
C709 C710 1.387 . S
C710 H695 0.930 . S
C710 C705 1.390 . S
C710 C709 1.387 . S
H711 C723 0.930 . S
H712 C725 0.930 . S
H713 C726 0.930 . S
H714 C730 0.959 . S
H715 C730 0.959 . S
H716 C730 0.961 . S
H717 C731 0.960 . S
H718 C731 0.961 . S
H719 C731 0.959 . S
H720 C734 0.929 . S
H721 C735 0.931 . S
H722 C737 0.930 . S
C723 H711 0.930 . S
C723 C724 1.399 . S
C723 C728 1.399 . S
C724 C723 1.399 . S
C724 C725 1.376 . S
C725 H712 0.930 . S
C725 C724 1.376 . S
C725 C726 1.388 . S
C726 H713 0.930 . S
C726 C725 1.388 . S
C726 C727 1.390 . S
C727 C726 1.390 . S
C727 C728 1.394 . S
C727 C733 1.465 . S
C728 C723 1.399 . S
C728 C727 1.394 . S
C728 C729 1.516 . S
C729 C728 1.516 . S
C729 C730 1.502 . S
C729 C731 1.561 . S
C729 C732 1.526 . S
C730 H714 0.959 . S
C730 H715 0.959 . S
C730 H716 0.961 . S
C730 C729 1.502 . S
C731 H717 0.960 . S
C731 H718 0.961 . S
C731 H719 0.959 . S
C731 C729 1.561 . S
C732 C729 1.526 . S
C732 C733 1.396 . S
C732 C737 1.390 . S
C733 C727 1.465 . S
C733 C732 1.396 . S
C733 C734 1.399 . S
C734 H720 0.929 . S
C734 C733 1.399 . S
C734 C735 1.385 . S
C735 H721 0.931 . S
C735 C734 1.385 . S
C735 C736 1.389 . S
C736 C735 1.389 . S
C736 C737 1.387 . S
C737 H722 0.930 . S
C737 C732 1.390 . S
C737 C736 1.387 . S
H738 C750 0.930 . S
H739 C752 0.930 . S
H740 C753 0.930 . S
H741 C757 0.959 . S
H742 C757 0.959 . S
H743 C757 0.961 . S
H744 C758 0.960 . S
H745 C758 0.961 . S
H746 C758 0.959 . S
H747 C761 0.929 . S
H748 C762 0.931 . S
H749 C764 0.930 . S
C750 H738 0.930 . S
C750 C751 1.399 . S
C750 C755 1.399 . S
C751 C750 1.399 . S
C751 C752 1.376 . S
C752 H739 0.930 . S
C752 C751 1.376 . S
C752 C753 1.388 . S
C753 H740 0.930 . S
C753 C752 1.388 . S
C753 C754 1.390 . S
C754 C753 1.390 . S
C754 C755 1.394 . S
C754 C760 1.465 . S
C755 C750 1.399 . S
C755 C754 1.394 . S
C755 C756 1.516 . S
C756 C755 1.516 . S
C756 C757 1.502 . S
C756 C758 1.561 . S
C756 C759 1.526 . S
C757 H741 0.959 . S
C757 H742 0.959 . S
C757 H743 0.961 . S
C757 C756 1.502 . S
C758 H744 0.960 . S
C758 H745 0.961 . S
C758 H746 0.959 . S
C758 C756 1.561 . S
C759 C756 1.526 . S
C759 C760 1.396 . S
C759 C764 1.390 . S
C760 C754 1.465 . S
C760 C759 1.396 . S
C760 C761 1.399 . S
C761 H747 0.929 . S
C761 C760 1.399 . S
C761 C762 1.385 . S
C762 H748 0.931 . S
C762 C761 1.385 . S
C762 C763 1.389 . S
C763 C762 1.389 . S
C763 C764 1.387 . S
C764 H749 0.930 . S
C764 C759 1.390 . S
C764 C763 1.387 . S
H765 C777 0.930 1_556 S
H766 C779 0.930 . S
H767 C780 0.930 . S
H768 C784 0.959 . S
H769 C784 0.959 . S
H770 C784 0.961 . S
H771 C785 0.960 1_556 S
H772 C785 0.957 1_556 S
H773 C785 0.959 . S
H774 C788 0.929 . S
H775 C789 0.931 . S
H776 C791 0.930 . S
C777 H765 0.930 1_554 S
C777 C778 1.399 . S
C777 C782 1.399 . S
C778 C777 1.399 . S
C778 C779 1.376 . S
C779 H766 0.930 . S
C779 C778 1.376 . S
C779 C780 1.388 . S
C780 H767 0.930 . S
C780 C779 1.388 . S
C780 C781 1.390 . S
C781 C780 1.390 . S
C781 C782 1.394 . S
C781 C787 1.465 . S
C782 C777 1.399 . S
C782 C781 1.394 . S
C782 C783 1.516 . S
C783 C782 1.516 . S
C783 C784 1.502 1_554 S
C783 C785 1.561 . S
C783 C786 1.526 . S
C784 H768 0.959 . S
C784 H769 0.959 . S
C784 H770 0.961 . S
C784 C783 1.502 1_556 S
C785 H771 0.960 1_554 S
C785 H772 0.957 1_554 S
C785 H773 0.959 . S
C785 C783 1.561 . S
C786 C783 1.526 . S
C786 C787 1.396 . S
C786 C791 1.390 . S
C787 C781 1.465 . S
C787 C786 1.396 . S
C787 C788 1.399 . S
C788 H774 0.929 . S
C788 C787 1.399 . S
C788 C789 1.385 . S
C789 H775 0.931 . S
C789 C788 1.385 . S
C789 C790 1.389 . S
C790 C789 1.389 . S
C790 C791 1.387 . S
C791 H776 0.930 . S
C791 C786 1.390 . S
C791 C790 1.387 . S
H792 C804 0.930 . S
H793 C806 0.930 . S
H794 C807 0.930 . S
H795 C811 0.959 . S
H796 C811 0.959 . S
H797 C811 0.961 . S
H798 C812 0.960 . S
H799 C812 0.961 . S
H800 C812 0.959 . S
H801 C815 0.929 . S
H802 C816 0.931 . S
H803 C818 0.930 . S
C804 H792 0.930 . S
C804 C805 1.399 . S
C804 C809 1.399 . S
C805 C804 1.399 . S
C805 C806 1.376 . S
C806 H793 0.930 . S
C806 C805 1.376 . S
C806 C807 1.388 . S
C807 H794 0.930 . S
C807 C806 1.388 . S
C807 C808 1.390 . S
C808 C807 1.390 . S
C808 C809 1.394 . S
C808 C814 1.465 . S
C809 C804 1.399 . S
C809 C808 1.394 . S
C809 C810 1.516 . S
C810 C809 1.516 . S
C810 C811 1.502 . S
C810 C812 1.561 . S
C810 C813 1.526 . S
C811 H795 0.959 . S
C811 H796 0.959 . S
C811 H797 0.961 . S
C811 C810 1.502 . S
C812 H798 0.960 . S
C812 H799 0.961 . S
C812 H800 0.959 . S
C812 C810 1.561 . S
C813 C810 1.526 . S
C813 C814 1.396 . S
C813 C818 1.390 . S
C814 C808 1.465 . S
C814 C813 1.396 . S
C814 C815 1.399 . S
C815 H801 0.929 . S
C815 C814 1.399 . S
C815 C816 1.385 . S
C816 H802 0.931 . S
C816 C815 1.385 . S
C816 C817 1.389 . S
C817 C816 1.389 . S
C817 C818 1.387 . S
C818 H803 0.930 . S
C818 C813 1.390 . S
C818 C817 1.387 . S
H819 C831 0.930 . S
H820 C833 0.930 . S
H821 C834 0.930 . S
H822 C838 0.959 . S
H823 C838 0.959 . S
H824 C838 0.961 . S
H825 C839 0.960 . S
H826 C839 0.961 . S
H827 C839 0.959 . S
H828 C842 0.929 . S
H829 C843 0.931 . S
H830 C845 0.930 . S
C831 H819 0.930 . S
C831 C832 1.399 . S
C831 C836 1.399 . S
C832 C831 1.399 . S
C832 C833 1.376 . S
C833 H820 0.930 . S
C833 C832 1.376 . S
C833 C834 1.388 . S
C834 H821 0.930 . S
C834 C833 1.388 . S
C834 C835 1.390 . S
C835 C834 1.390 . S
C835 C836 1.394 . S
C835 C841 1.465 . S
C836 C831 1.399 . S
C836 C835 1.394 . S
C836 C837 1.516 . S
C837 C836 1.516 . S
C837 C838 1.502 . S
C837 C839 1.561 . S
C837 C840 1.526 . S
C838 H822 0.959 . S
C838 H823 0.959 . S
C838 H824 0.961 . S
C838 C837 1.502 . S
C839 H825 0.960 . S
C839 H826 0.961 . S
C839 H827 0.959 . S
C839 C837 1.561 . S
C840 C837 1.526 . S
C840 C841 1.396 . S
C840 C845 1.390 . S
C841 C835 1.465 . S
C841 C840 1.396 . S
C841 C842 1.399 . S
C842 H828 0.929 . S
C842 C841 1.399 . S
C842 C843 1.385 . S
C843 H829 0.931 . S
C843 C842 1.385 . S
C843 C844 1.389 . S
C844 C843 1.389 . S
C844 C845 1.387 . S
C845 H830 0.930 . S
C845 C840 1.390 . S
C845 C844 1.387 . S
H846 C858 0.930 . S
H847 C860 0.930 . S
H848 C861 0.930 . S
H849 C865 0.959 . S
H850 C865 0.959 . S
H851 C865 0.961 . S
H852 C866 0.960 . S
H853 C866 0.961 . S
H854 C866 0.959 . S
H855 C869 0.929 . S
H856 C870 0.931 . S
H857 C872 0.930 . S
C858 H846 0.930 . S
C858 C859 1.399 . S
C858 C863 1.399 . S
C859 C858 1.399 . S
C859 C860 1.376 . S
C860 H847 0.930 . S
C860 C859 1.376 . S
C860 C861 1.388 . S
C861 H848 0.930 . S
C861 C860 1.388 . S
C861 C862 1.390 . S
C862 C861 1.390 . S
C862 C863 1.394 . S
C862 C868 1.465 . S
C863 C858 1.399 . S
C863 C862 1.394 . S
C863 C864 1.516 . S
C864 C863 1.516 . S
C864 C865 1.502 . S
C864 C866 1.561 . S
C864 C867 1.526 . S
C865 H849 0.959 . S
C865 H850 0.959 . S
C865 H851 0.961 . S
C865 C864 1.502 . S
C866 H852 0.960 . S
C866 H853 0.961 . S
C866 H854 0.959 . S
C866 C864 1.561 . S
C867 C864 1.526 . S
C867 C868 1.396 . S
C867 C872 1.390 . S
C868 C862 1.465 . S
C868 C867 1.396 . S
C868 C869 1.399 . S
C869 H855 0.929 . S
C869 C868 1.399 . S
C869 C870 1.385 . S
C870 H856 0.931 . S
C870 C869 1.385 . S
C870 C871 1.389 . S
C871 C870 1.389 . S
C871 C872 1.387 . S
C872 H857 0.930 . S
C872 C867 1.390 . S
C872 C871 1.387 . S
H873 C885 0.930 . S
H874 C887 0.930 . S
H875 C888 0.930 . S
H876 C892 0.959 . S
H877 C892 0.959 . S
H878 C892 0.961 . S
H879 C893 0.960 . S
H880 C893 0.961 . S
H881 C893 0.959 . S
H882 C896 0.929 . S
H883 C897 0.931 . S
H884 C899 0.930 . S
C885 H873 0.930 . S
C885 C886 1.399 . S
C885 C890 1.399 . S
C886 C885 1.399 . S
C886 C887 1.376 . S
C887 H874 0.930 . S
C887 C886 1.376 . S
C887 C888 1.388 . S
C888 H875 0.930 . S
C888 C887 1.388 . S
C888 C889 1.390 . S
C889 C888 1.390 . S
C889 C890 1.394 . S
C889 C895 1.465 . S
C890 C885 1.399 . S
C890 C889 1.394 . S
C890 C891 1.516 . S
C891 C890 1.516 . S
C891 C892 1.502 . S
C891 C893 1.561 . S
C891 C894 1.526 . S
C892 H876 0.959 . S
C892 H877 0.959 . S
C892 H878 0.961 . S
C892 C891 1.502 . S
C893 H879 0.960 . S
C893 H880 0.961 . S
C893 H881 0.959 . S
C893 C891 1.561 . S
C894 C891 1.526 . S
C894 C895 1.396 . S
C894 C899 1.390 . S
C895 C889 1.465 . S
C895 C894 1.396 . S
C895 C896 1.399 . S
C896 H882 0.929 . S
C896 C895 1.399 . S
C896 C897 1.385 . S
C897 H883 0.931 . S
C897 C896 1.385 . S
C897 C898 1.389 . S
C898 C897 1.389 . S
C898 C899 1.387 . S
C899 H884 0.930 . S
C899 C894 1.390 . S
C899 C898 1.387 . S
H900 C912 0.930 . S
H901 C914 0.930 . S
H902 C915 0.930 . S
H903 C919 0.959 . S
H904 C919 0.959 . S
H905 C919 0.961 . S
H906 C920 0.960 . S
H907 C920 0.961 . S
H908 C920 0.959 . S
H909 C923 0.929 . S
H910 C924 0.931 . S
H911 C926 0.930 . S
C912 H900 0.930 . S
C912 C913 1.399 . S
C912 C917 1.399 . S
C913 C912 1.399 . S
C913 C914 1.376 . S
C914 H901 0.930 . S
C914 C913 1.376 . S
C914 C915 1.388 . S
C915 H902 0.930 . S
C915 C914 1.388 . S
C915 C916 1.390 . S
C916 C915 1.390 . S
C916 C917 1.394 . S
C916 C922 1.465 . S
C917 C912 1.399 . S
C917 C916 1.394 . S
C917 C918 1.516 . S
C918 C917 1.516 . S
C918 C919 1.502 . S
C918 C920 1.561 . S
C918 C921 1.526 . S
C919 H903 0.959 . S
C919 H904 0.959 . S
C919 H905 0.961 . S
C919 C918 1.502 . S
C920 H906 0.960 . S
C920 H907 0.961 . S
C920 H908 0.959 . S
C920 C918 1.561 . S
C921 C918 1.526 . S
C921 C922 1.396 . S
C921 C926 1.390 . S
C922 C916 1.465 . S
C922 C921 1.396 . S
C922 C923 1.399 . S
C923 H909 0.929 . S
C923 C922 1.399 . S
C923 C924 1.385 . S
C924 H910 0.931 . S
C924 C923 1.385 . S
C924 C925 1.389 . S
C925 C924 1.389 . S
C925 C926 1.387 . S
C926 H911 0.930 . S
C926 C921 1.390 . S
C926 C925 1.387 . S
H927 C939 0.930 . S
H928 C941 0.930 . S
H929 C942 0.930 . S
H930 C946 0.959 . S
H931 C946 0.959 . S
H932 C946 0.961 . S
H933 C947 0.960 . S
H934 C947 0.961 . S
H935 C947 0.959 . S
H936 C950 0.929 . S
H937 C951 0.913 1_554 S
H938 C953 0.930 . S
C939 H927 0.930 . S
C939 C940 1.399 . S
C939 C944 1.399 . S
C940 C939 1.399 . S
C940 C941 1.376 . S
C941 H928 0.930 . S
C941 C940 1.376 . S
C941 C942 1.388 . S
C942 H929 0.930 . S
C942 C941 1.388 . S
C942 C943 1.390 . S
C943 C942 1.390 . S
C943 C944 1.394 . S
C943 C949 1.465 . S
C944 C939 1.399 . S
C944 C943 1.394 . S
C944 C945 1.516 . S
C945 C944 1.516 . S
C945 C946 1.502 . S
C945 C947 1.561 . S
C945 C948 1.526 . S
C946 H930 0.959 . S
C946 H931 0.959 . S
C946 H932 0.961 . S
C946 C945 1.502 . S
C947 H933 0.960 . S
C947 H934 0.961 . S
C947 H935 0.959 . S
C947 C945 1.561 . S
C948 C945 1.526 . S
C948 C949 1.396 . S
C948 C953 1.390 . S
C949 C943 1.465 . S
C949 C948 1.396 . S
C949 C950 1.399 . S
C950 H936 0.929 . S
C950 C949 1.399 . S
C950 C951 1.385 . S
C951 H937 0.913 1_556 S
C951 C950 1.385 . S
C951 C952 1.389 1_556 S
C952 C951 1.389 1_554 S
C952 C953 1.387 1_554 S
C953 H938 0.930 . S
C953 C948 1.390 . S
C953 C952 1.387 1_556 S
H954 C966 0.930 1_545 S
H955 C968 0.930 . S
H956 C969 0.930 . S
H957 C973 0.959 . S
H958 C973 0.959 . S
H959 C973 0.922 1_545 S
H960 C974 0.960 . S
H961 C974 0.961 . S
H962 C974 0.959 . S
H963 C977 0.929 . S
H964 C978 0.931 . S
H965 C980 0.930 . S
C966 H954 0.930 1_565 S
C966 C967 1.399 . S
C966 C971 1.399 . S
C967 C966 1.399 . S
C967 C968 1.376 . S
C968 H955 0.930 . S
C968 C967 1.376 . S
C968 C969 1.388 . S
C969 H956 0.930 . S
C969 C968 1.388 . S
C969 C970 1.390 . S
C970 C969 1.390 . S
C970 C971 1.394 . S
C970 C976 1.465 . S
C971 C966 1.399 . S
C971 C970 1.394 . S
C971 C972 1.516 . S
C972 C971 1.516 . S
C972 C973 1.502 . S
C972 C974 1.561 . S
C972 C975 1.526 . S
C973 H957 0.959 . S
C973 H958 0.959 . S
C973 H959 0.922 1_565 S
C973 C972 1.502 . S
C974 H960 0.960 . S
C974 H961 0.961 . S
C974 H962 0.959 . S
C974 C972 1.561 . S
C975 C972 1.526 . S
C975 C976 1.396 . S
C975 C980 1.390 . S
C976 C970 1.465 . S
C976 C975 1.396 . S
C976 C977 1.399 . S
C977 H963 0.929 . S
C977 C976 1.399 . S
C977 C978 1.385 . S
C978 H964 0.931 . S
C978 C977 1.385 . S
C978 C979 1.389 . S
C979 C978 1.389 . S
C979 C980 1.387 . S
C980 H965 0.930 . S
C980 C975 1.390 . S
C980 C979 1.387 . S
H981 C993 0.930 . S
H982 C995 0.930 . S
H983 C996 0.930 . S
H984 C1000 0.959 . S
H985 C1000 0.959 . S
H986 C1000 0.961 . S
H987 C1001 0.960 . S
H988 C1001 0.961 . S
H989 C1001 0.959 . S
H990 C1004 0.929 . S
H991 C1005 0.931 . S
H992 C1007 0.930 . S
C993 H981 0.930 . S
C993 C994 1.399 . S
C993 C998 1.399 . S
C994 C993 1.399 . S
C994 C995 1.376 . S
C995 H982 0.930 . S
C995 C994 1.376 . S
C995 C996 1.388 . S
C996 H983 0.930 . S
C996 C995 1.388 . S
C996 C997 1.390 . S
C997 C996 1.390 . S
C997 C998 1.394 . S
C997 C1003 1.465 . S
C998 C993 1.399 . S
C998 C997 1.394 . S
C998 C999 1.516 . S
C999 C998 1.516 . S
C999 C1000 1.502 . S
C999 C1001 1.561 . S
C999 C1002 1.526 . S
C1000 H984 0.959 . S
C1000 H985 0.959 . S
C1000 H986 0.961 . S
C1000 C999 1.502 . S
C1001 H987 0.960 . S
C1001 H988 0.961 . S
C1001 H989 0.959 . S
C1001 C999 1.561 . S
C1002 C999 1.526 . S
C1002 C1003 1.396 . S
C1002 C1007 1.390 . S
C1003 C997 1.465 . S
C1003 C1002 1.396 . S
C1003 C1004 1.399 . S
C1004 H990 0.929 . S
C1004 C1003 1.399 . S
C1004 C1005 1.385 . S
C1005 H991 0.931 . S
C1005 C1004 1.385 . S
C1005 C1006 1.389 . S
C1006 C1005 1.389 . S
C1006 C1007 1.387 . S
C1007 H992 0.930 . S
C1007 C1002 1.390 . S
C1007 C1006 1.387 . S
H1008 C1020 0.930 . S
H1009 C1022 0.930 . S
H1010 C1023 0.930 . S
H1011 C1027 0.959 . S
H1012 C1027 0.959 . S
H1013 C1027 0.961 . S
H1014 C1028 0.960 . S
H1015 C1028 0.961 . S
H1016 C1028 0.959 . S
H1017 C1031 0.929 . S
H1018 C1032 0.931 . S
H1019 C1034 0.930 . S
C1020 H1008 0.930 . S
C1020 C1021 1.399 . S
C1020 C1025 1.399 . S
C1021 C1020 1.399 . S
C1021 C1022 1.376 . S
C1022 H1009 0.930 . S
C1022 C1021 1.376 . S
C1022 C1023 1.388 . S
C1023 H1010 0.930 . S
C1023 C1022 1.388 . S
C1023 C1024 1.390 . S
C1024 C1023 1.390 . S
C1024 C1025 1.394 . S
C1024 C1030 1.465 . S
C1025 C1020 1.399 . S
C1025 C1024 1.394 . S
C1025 C1026 1.516 . S
C1026 C1025 1.516 . S
C1026 C1027 1.502 . S
C1026 C1028 1.561 . S
C1026 C1029 1.526 . S
C1027 H1011 0.959 . S
C1027 H1012 0.959 . S
C1027 H1013 0.961 . S
C1027 C1026 1.502 . S
C1028 H1014 0.960 . S
C1028 H1015 0.961 . S
C1028 H1016 0.959 . S
C1028 C1026 1.561 . S
C1029 C1026 1.526 . S
C1029 C1030 1.396 . S
C1029 C1034 1.390 . S
C1030 C1024 1.465 . S
C1030 C1029 1.396 . S
C1030 C1031 1.399 . S
C1031 H1017 0.929 . S
C1031 C1030 1.399 . S
C1031 C1032 1.385 . S
C1032 H1018 0.931 . S
C1032 C1031 1.385 . S
C1032 C1033 1.389 . S
C1033 C1032 1.389 . S
C1033 C1034 1.387 . S
C1034 H1019 0.930 . S
C1034 C1029 1.390 . S
C1034 C1033 1.387 . S
H1035 C1047 0.930 . S
H1036 C1049 0.930 . S
H1037 C1050 0.930 . S
H1038 C1054 0.959 . S
H1039 C1054 0.959 . S
H1040 C1054 0.961 . S
H1041 C1055 0.960 . S
H1042 C1055 0.961 . S
H1043 C1055 0.959 . S
H1044 C1058 0.929 . S
H1045 C1059 0.931 . S
H1046 C1061 0.930 . S
C1047 H1035 0.930 . S
C1047 C1048 1.399 . S
C1047 C1052 1.399 . S
C1048 C1047 1.399 . S
C1048 C1049 1.376 . S
C1049 H1036 0.930 . S
C1049 C1048 1.376 . S
C1049 C1050 1.388 . S
C1050 H1037 0.930 . S
C1050 C1049 1.388 . S
C1050 C1051 1.390 . S
C1051 C1050 1.390 . S
C1051 C1052 1.394 . S
C1051 C1057 1.465 . S
C1052 C1047 1.399 . S
C1052 C1051 1.394 . S
C1052 C1053 1.516 . S
C1053 C1052 1.516 . S
C1053 C1054 1.502 . S
C1053 C1055 1.561 . S
C1053 C1056 1.526 . S
C1054 H1038 0.959 . S
C1054 H1039 0.959 . S
C1054 H1040 0.961 . S
C1054 C1053 1.502 . S
C1055 H1041 0.960 . S
C1055 H1042 0.961 . S
C1055 H1043 0.959 . S
C1055 C1053 1.561 . S
C1056 C1053 1.526 . S
C1056 C1057 1.396 . S
C1056 C1061 1.390 . S
C1057 C1051 1.465 . S
C1057 C1056 1.396 . S
C1057 C1058 1.399 . S
C1058 H1044 0.929 . S
C1058 C1057 1.399 . S
C1058 C1059 1.385 . S
C1059 H1045 0.931 . S
C1059 C1058 1.385 . S
C1059 C1060 1.389 . S
C1060 C1059 1.389 . S
C1060 C1061 1.387 . S
C1061 H1046 0.930 . S
C1061 C1056 1.390 . S
C1061 C1060 1.387 . S
H1062 C1074 0.930 . S
H1063 C1076 0.930 1_655 S
H1064 C1077 0.930 . S
H1065 C1081 0.959 . S
H1066 C1081 0.959 . S
H1067 C1081 0.961 . S
H1068 C1082 0.960 . S
H1069 C1082 0.961 . S
H1070 C1082 0.959 . S
H1071 C1085 0.929 . S
H1072 C1086 0.931 . S
H1073 C1088 0.930 . S
C1074 H1062 0.930 . S
C1074 C1075 1.399 . S
C1074 C1079 1.399 . S
C1075 C1074 1.399 . S
C1075 C1076 1.376 . S
C1076 H1063 0.930 1_455 S
C1076 C1075 1.376 . S
C1076 C1077 1.388 . S
C1077 H1064 0.930 . S
C1077 C1076 1.388 . S
C1077 C1078 1.390 . S
C1078 C1077 1.390 . S
C1078 C1079 1.394 . S
C1078 C1084 1.465 . S
C1079 C1074 1.399 . S
C1079 C1078 1.394 . S
C1079 C1080 1.516 . S
C1080 C1079 1.516 . S
C1080 C1081 1.502 . S
C1080 C1082 1.561 . S
C1080 C1083 1.526 . S
C1081 H1065 0.959 . S
C1081 H1066 0.959 . S
C1081 H1067 0.961 . S
C1081 C1080 1.502 . S
C1082 H1068 0.960 . S
C1082 H1069 0.961 . S
C1082 H1070 0.959 . S
C1082 C1080 1.561 . S
C1083 C1080 1.526 . S
C1083 C1084 1.396 . S
C1083 C1088 1.390 . S
C1084 C1078 1.465 . S
C1084 C1083 1.396 . S
C1084 C1085 1.399 . S
C1085 H1071 0.929 . S
C1085 C1084 1.399 . S
C1085 C1086 1.385 . S
C1086 H1072 0.931 . S
C1086 C1085 1.385 . S
C1086 C1087 1.389 . S
C1087 C1086 1.389 . S
C1087 C1088 1.387 . S
C1088 H1073 0.930 . S
C1088 C1083 1.390 . S
C1088 C1087 1.387 . S
H1089 C1101 0.930 . S
H1090 C1103 0.930 . S
H1091 C1104 0.930 . S
H1092 C1108 0.959 . S
H1093 C1108 0.959 . S
H1094 C1108 0.961 . S
H1095 C1109 0.960 . S
H1096 C1109 0.961 . S
H1097 C1109 0.959 . S
H1098 C1112 0.929 . S
H1099 C1113 0.931 . S
H1100 C1115 0.930 . S
C1101 H1089 0.930 . S
C1101 C1102 1.399 . S
C1101 C1106 1.399 . S
C1102 C1101 1.399 . S
C1102 C1103 1.376 . S
C1103 H1090 0.930 . S
C1103 C1102 1.376 . S
C1103 C1104 1.388 . S
C1104 H1091 0.930 . S
C1104 C1103 1.388 . S
C1104 C1105 1.390 . S
C1105 C1104 1.390 . S
C1105 C1106 1.394 . S
C1105 C1111 1.465 . S
C1106 C1101 1.399 . S
C1106 C1105 1.394 . S
C1106 C1107 1.516 . S
C1107 C1106 1.516 . S
C1107 C1108 1.502 . S
C1107 C1109 1.561 . S
C1107 C1110 1.526 . S
C1108 H1092 0.959 . S
C1108 H1093 0.959 . S
C1108 H1094 0.961 . S
C1108 C1107 1.502 . S
C1109 H1095 0.960 . S
C1109 H1096 0.961 . S
C1109 H1097 0.959 . S
C1109 C1107 1.561 . S
C1110 C1107 1.526 . S
C1110 C1111 1.396 . S
C1110 C1115 1.390 . S
C1111 C1105 1.465 . S
C1111 C1110 1.396 . S
C1111 C1112 1.399 . S
C1112 H1098 0.929 . S
C1112 C1111 1.399 . S
C1112 C1113 1.385 . S
C1113 H1099 0.931 . S
C1113 C1112 1.385 . S
C1113 C1114 1.389 . S
C1114 C1113 1.389 . S
C1114 C1115 1.387 . S
C1115 H1100 0.930 . S
C1115 C1110 1.390 . S
C1115 C1114 1.387 . S
H1116 C1128 0.930 . S
H1117 C1130 0.930 . S
H1118 C1131 0.930 . S
H1119 C1135 0.959 . S
H1120 C1135 0.994 . S
H1121 C1135 0.961 . S
H1122 C1136 0.960 1_554 S
H1123 C1136 0.961 . S
H1124 C1136 0.959 . S
H1125 C1139 0.929 . S
H1126 C1140 0.931 . S
H1127 C1142 0.930 . S
C1128 H1116 0.930 . S
C1128 C1129 1.399 . S
C1128 C1133 1.399 . S
C1129 C1128 1.399 . S
C1129 C1130 1.376 . S
C1130 H1117 0.930 . S
C1130 C1129 1.376 . S
C1130 C1131 1.388 . S
C1131 H1118 0.930 . S
C1131 C1130 1.388 . S
C1131 C1132 1.390 . S
C1132 C1131 1.390 . S
C1132 C1133 1.394 . S
C1132 C1138 1.465 1_554 S
C1133 C1128 1.399 . S
C1133 C1132 1.394 . S
C1133 C1134 1.516 . S
C1134 C1133 1.516 . S
C1134 C1135 1.502 . S
C1134 C1136 1.561 1_554 S
C1134 C1137 1.526 1_554 S
C1135 H1119 0.959 . S
C1135 H1120 0.994 . S
C1135 H1121 0.961 . S
C1135 C1134 1.502 . S
C1136 H1122 0.960 1_556 S
C1136 H1123 0.961 . S
C1136 H1124 0.959 . S
C1136 C1134 1.561 1_556 S
C1137 C1134 1.526 1_556 S
C1137 C1138 1.396 . S
C1137 C1142 1.390 . S
C1138 C1132 1.465 1_556 S
C1138 C1137 1.396 . S
C1138 C1139 1.399 . S
C1139 H1125 0.929 . S
C1139 C1138 1.399 . S
C1139 C1140 1.385 . S
C1140 H1126 0.931 . S
C1140 C1139 1.385 . S
C1140 C1141 1.389 . S
C1141 C1140 1.389 . S
C1141 C1142 1.387 . S
C1142 H1127 0.930 . S
C1142 C1137 1.390 . S
C1142 C1141 1.387 . S
H1143 C1155 0.930 . S
H1144 C1157 0.930 . S
H1145 C1158 0.930 . S
H1146 C1162 0.959 . S
H1147 C1162 0.959 . S
H1148 C1162 0.961 . S
H1149 C1163 0.960 . S
H1150 C1163 0.961 . S
H1151 C1163 0.959 . S
H1152 C1166 0.929 . S
H1153 C1167 0.931 . S
H1154 C1169 0.930 . S
C1155 H1143 0.930 . S
C1155 C1156 1.399 . S
C1155 C1160 1.399 . S
C1156 C1155 1.399 . S
C1156 C1157 1.376 . S
C1157 H1144 0.930 . S
C1157 C1156 1.376 . S
C1157 C1158 1.388 . S
C1158 H1145 0.930 . S
C1158 C1157 1.388 . S
C1158 C1159 1.390 . S
C1159 C1158 1.390 . S
C1159 C1160 1.394 . S
C1159 C1165 1.465 . S
C1160 C1155 1.399 . S
C1160 C1159 1.394 . S
C1160 C1161 1.516 . S
C1161 C1160 1.516 . S
C1161 C1162 1.502 . S
C1161 C1163 1.561 . S
C1161 C1164 1.526 . S
C1162 H1146 0.959 . S
C1162 H1147 0.959 . S
C1162 H1148 0.961 . S
C1162 C1161 1.502 . S
C1163 H1149 0.960 . S
C1163 H1150 0.961 . S
C1163 H1151 0.959 . S
C1163 C1161 1.561 . S
C1164 C1161 1.526 . S
C1164 C1165 1.396 . S
C1164 C1169 1.390 . S
C1165 C1159 1.465 . S
C1165 C1164 1.396 . S
C1165 C1166 1.399 . S
C1166 H1152 0.929 . S
C1166 C1165 1.399 . S
C1166 C1167 1.385 . S
C1167 H1153 0.931 . S
C1167 C1166 1.385 . S
C1167 C1168 1.389 . S
C1168 C1167 1.389 . S
C1168 C1169 1.387 . S
C1169 H1154 0.930 . S
C1169 C1164 1.390 . S
C1169 C1168 1.387 . S
C547 C519 1.299 . S
C535 C51 1.338 . S
C562 C125 1.432 . S
C574 C444 1.415 . S
C589 C217 2.581 . S
C601 C467 2.626 . S
C616 C291 1.440 . S
C628 C480 1.459 . S
C655 C483 0.819 . S
C643 C347 0.942 . S
C670 C421 0.820 . S
C682 C496 0.758 . S
C697 C143 2.227 . S
C709 C457 2.102 . S
C724 C199 1.480 . S
C736 C470 1.468 . S
C751 C273 0.510 . S
C763 C493 0.421 . S
C790 C506 1.656 . S
C778 C365 1.640 . S
C817 C509 1.766 . S
C805 C439 1.849 . S
C844 C454 2.448 . S
C832 C69 2.385 . S
C859 C63 1.426 . S
C871 C465 1.435 . S
C886 C137 1.429 . S
C898 C478 1.552 . S
C925 C488 1.244 . S
C913 C187 1.253 . S
C940 C261 1.458 . S
C952 C501 1.372 . S
C979 C517 1.531 . S
C967 C359 1.392 . S
C1006 C449 1.123 . S
C994 C433 1.061 . S
C1033 C514 1.554 . S
C1021 C113 1.570 . S
C1048 C211 1.278 . S
C1060 C452 1.424 . S
C1087 C462 1.517 . S
C1075 C285 1.534 . S
C1102 C335 1.337 . S
C1114 C475 1.345 . S
C1129 C409 1.186 . S
C1141 C491 1.279 . S
C1156 C39 1.614 . S
C1168 C504 1.652 . S
