# Generated by pormake.
# Topology ptr, (4,4)-cn, num edge types: 1
# Building blocks:
#     Node 0, Type 0, BuildingBlock: AZAVOO_clean_sbu_0, # of connection points: 4
#     Node 1, Type 0, BuildingBlock: AZAVOO_clean_sbu_0, # of connection points: 4
#     Node 2, Type 0, BuildingBlock: AZAVOO_clean_sbu_0, # of connection points: 4
#     Node 3, Type 0, BuildingBlock: AZAVOO_clean_sbu_0, # of connection points: 4
#     Node 4, Type 0, BuildingBlock: AZAVOO_clean_sbu_0, # of connection points: 4
#     Node 5, Type 0, BuildingBlock: AZAVOO_clean_sbu_0, # of connection points: 4
#     Node 6, Type 0, BuildingBlock: AZAVOO_clean_sbu_0, # of connection points: 4
#     Node 7, Type 0, BuildingBlock: AZAVOO_clean_sbu_0, # of connection points: 4
#     Node 8, Type 0, BuildingBlock: AZAVOO_clean_sbu_0, # of connection points: 4
#     Node 9, Type 0, BuildingBlock: AZAVOO_clean_sbu_0, # of connection points: 4
#     Node 10, Type 0, BuildingBlock: AZAVOO_clean_sbu_0, # of connection points: 4
#     Node 11, Type 0, BuildingBlock: AZAVOO_clean_sbu_0, # of connection points: 4
#     Node 12, Type 0, BuildingBlock: AZAVOO_clean_sbu_0, # of connection points: 4
#     Node 13, Type 0, BuildingBlock: AZAVOO_clean_sbu_0, # of connection points: 4
#     Node 14, Type 0, BuildingBlock: AZAVOO_clean_sbu_0, # of connection points: 4
#     Node 15, Type 0, BuildingBlock: AZAVOO_clean_sbu_0, # of connection points: 4
#     Node 16, Type 0, BuildingBlock: AZAVOO_clean_sbu_0, # of connection points: 4
#     Node 17, Type 0, BuildingBlock: AZAVOO_clean_sbu_0, # of connection points: 4
#     Node 18, Type 1, BuildingBlock: NAWXER_clean_linker_0, # of connection points: 4
#     Node 19, Type 1, BuildingBlock: NAWXER_clean_linker_0, # of connection points: 4
#     Node 20, Type 1, BuildingBlock: NAWXER_clean_linker_0, # of connection points: 4
#     Node 21, Type 1, BuildingBlock: NAWXER_clean_linker_0, # of connection points: 4
#     Node 22, Type 1, BuildingBlock: NAWXER_clean_linker_0, # of connection points: 4
#     Node 23, Type 1, BuildingBlock: NAWXER_clean_linker_0, # of connection points: 4
#     Node 24, Type 1, BuildingBlock: NAWXER_clean_linker_0, # of connection points: 4
#     Node 25, Type 1, BuildingBlock: NAWXER_clean_linker_0, # of connection points: 4
#     Node 26, Type 1, BuildingBlock: NAWXER_clean_linker_0, # of connection points: 4
#     Node 27, Type 1, BuildingBlock: NAWXER_clean_linker_0, # of connection points: 4
#     Node 28, Type 1, BuildingBlock: NAWXER_clean_linker_0, # of connection points: 4
#     Node 29, Type 1, BuildingBlock: NAWXER_clean_linker_0, # of connection points: 4
#     Node 30, Type 1, BuildingBlock: NAWXER_clean_linker_0, # of connection points: 4
#     Node 31, Type 1, BuildingBlock: NAWXER_clean_linker_0, # of connection points: 4
#     Node 32, Type 1, BuildingBlock: NAWXER_clean_linker_0, # of connection points: 4
#     Node 33, Type 1, BuildingBlock: NAWXER_clean_linker_0, # of connection points: 4
#     Node 34, Type 1, BuildingBlock: NAWXER_clean_linker_0, # of connection points: 4
#     Node 35, Type 1, BuildingBlock: NAWXER_clean_linker_0, # of connection points: 4
#     Edge 36, Type (0, 1), BuildingBlock: FUNLAD_clean_linker_1, # of connection points: 2
#     Edge 37, Type (0, 1), BuildingBlock: FUNLAD_clean_linker_1, # of connection points: 2
#     Edge 38, Type (0, 1), BuildingBlock: FUNLAD_clean_linker_1, # of connection points: 2
#     Edge 39, Type (0, 1), BuildingBlock: FUNLAD_clean_linker_1, # of connection points: 2
#     Edge 40, Type (0, 1), BuildingBlock: FUNLAD_clean_linker_1, # of connection points: 2
#     Edge 41, Type (0, 1), BuildingBlock: FUNLAD_clean_linker_1, # of connection points: 2
#     Edge 42, Type (0, 1), BuildingBlock: FUNLAD_clean_linker_1, # of connection points: 2
#     Edge 43, Type (0, 1), BuildingBlock: FUNLAD_clean_linker_1, # of connection points: 2
#     Edge 44, Type (0, 1), BuildingBlock: FUNLAD_clean_linker_1, # of connection points: 2
#     Edge 45, Type (0, 1), BuildingBlock: FUNLAD_clean_linker_1, # of connection points: 2
#     Edge 46, Type (0, 1), BuildingBlock: FUNLAD_clean_linker_1, # of connection points: 2
#     Edge 47, Type (0, 1), BuildingBlock: FUNLAD_clean_linker_1, # of connection points: 2
#     Edge 48, Type (0, 1), BuildingBlock: FUNLAD_clean_linker_1, # of connection points: 2
#     Edge 49, Type (0, 1), BuildingBlock: FUNLAD_clean_linker_1, # of connection points: 2
#     Edge 50, Type (0, 1), BuildingBlock: FUNLAD_clean_linker_1, # of connection points: 2
#     Edge 51, Type (0, 1), BuildingBlock: FUNLAD_clean_linker_1, # of connection points: 2
#     Edge 52, Type (0, 1), BuildingBlock: FUNLAD_clean_linker_1, # of connection points: 2
#     Edge 53, Type (0, 1), BuildingBlock: FUNLAD_clean_linker_1, # of connection points: 2
#     Edge 54, Type (0, 1), BuildingBlock: FUNLAD_clean_linker_1, # of connection points: 2
#     Edge 55, Type (0, 1), BuildingBlock: FUNLAD_clean_linker_1, # of connection points: 2
#     Edge 56, Type (0, 1), BuildingBlock: FUNLAD_clean_linker_1, # of connection points: 2
#     Edge 57, Type (0, 1), BuildingBlock: FUNLAD_clean_linker_1, # of connection points: 2
#     Edge 58, Type (0, 1), BuildingBlock: FUNLAD_clean_linker_1, # of connection points: 2
#     Edge 59, Type (0, 1), BuildingBlock: FUNLAD_clean_linker_1, # of connection points: 2
#     Edge 60, Type (0, 1), BuildingBlock: FUNLAD_clean_linker_1, # of connection points: 2
#     Edge 61, Type (0, 1), BuildingBlock: FUNLAD_clean_linker_1, # of connection points: 2
#     Edge 62, Type (0, 1), BuildingBlock: FUNLAD_clean_linker_1, # of connection points: 2
#     Edge 63, Type (0, 1), BuildingBlock: FUNLAD_clean_linker_1, # of connection points: 2
#     Edge 64, Type (0, 1), BuildingBlock: FUNLAD_clean_linker_1, # of connection points: 2
#     Edge 65, Type (0, 1), BuildingBlock: FUNLAD_clean_linker_1, # of connection points: 2
#     Edge 66, Type (0, 1), BuildingBlock: FUNLAD_clean_linker_1, # of connection points: 2
#     Edge 67, Type (0, 1), BuildingBlock: FUNLAD_clean_linker_1, # of connection points: 2
#     Edge 68, Type (0, 1), BuildingBlock: FUNLAD_clean_linker_1, # of connection points: 2
#     Edge 69, Type (0, 1), BuildingBlock: FUNLAD_clean_linker_1, # of connection points: 2
#     Edge 70, Type (0, 1), BuildingBlock: FUNLAD_clean_linker_1, # of connection points: 2
#     Edge 71, Type (0, 1), BuildingBlock: FUNLAD_clean_linker_1, # of connection points: 2
#     Edge 72, Type (0, 1), BuildingBlock: FUNLAD_clean_linker_1, # of connection points: 2
#     Edge 73, Type (0, 1), BuildingBlock: FUNLAD_clean_linker_1, # of connection points: 2
#     Edge 74, Type (0, 1), BuildingBlock: FUNLAD_clean_linker_1, # of connection points: 2
#     Edge 75, Type (0, 1), BuildingBlock: FUNLAD_clean_linker_1, # of connection points: 2
#     Edge 76, Type (0, 1), BuildingBlock: FUNLAD_clean_linker_1, # of connection points: 2
#     Edge 77, Type (0, 1), BuildingBlock: FUNLAD_clean_linker_1, # of connection points: 2
#     Edge 78, Type (0, 1), BuildingBlock: FUNLAD_clean_linker_1, # of connection points: 2
#     Edge 79, Type (0, 1), BuildingBlock: FUNLAD_clean_linker_1, # of connection points: 2
#     Edge 80, Type (0, 1), BuildingBlock: FUNLAD_clean_linker_1, # of connection points: 2
#     Edge 81, Type (0, 1), BuildingBlock: FUNLAD_clean_linker_1, # of connection points: 2
#     Edge 82, Type (0, 1), BuildingBlock: FUNLAD_clean_linker_1, # of connection points: 2
#     Edge 83, Type (0, 1), BuildingBlock: FUNLAD_clean_linker_1, # of connection points: 2
#     Edge 84, Type (0, 1), BuildingBlock: FUNLAD_clean_linker_1, # of connection points: 2
#     Edge 85, Type (0, 1), BuildingBlock: FUNLAD_clean_linker_1, # of connection points: 2
#     Edge 86, Type (0, 1), BuildingBlock: FUNLAD_clean_linker_1, # of connection points: 2
#     Edge 87, Type (0, 1), BuildingBlock: FUNLAD_clean_linker_1, # of connection points: 2
#     Edge 88, Type (0, 1), BuildingBlock: FUNLAD_clean_linker_1, # of connection points: 2
#     Edge 89, Type (0, 1), BuildingBlock: FUNLAD_clean_linker_1, # of connection points: 2
#     Edge 90, Type (0, 1), BuildingBlock: FUNLAD_clean_linker_1, # of connection points: 2
#     Edge 91, Type (0, 1), BuildingBlock: FUNLAD_clean_linker_1, # of connection points: 2
#     Edge 92, Type (0, 1), BuildingBlock: FUNLAD_clean_linker_1, # of connection points: 2
#     Edge 93, Type (0, 1), BuildingBlock: FUNLAD_clean_linker_1, # of connection points: 2
#     Edge 94, Type (0, 1), BuildingBlock: FUNLAD_clean_linker_1, # of connection points: 2
#     Edge 95, Type (0, 1), BuildingBlock: FUNLAD_clean_linker_1, # of connection points: 2
#     Edge 96, Type (0, 1), BuildingBlock: FUNLAD_clean_linker_1, # of connection points: 2
#     Edge 97, Type (0, 1), BuildingBlock: FUNLAD_clean_linker_1, # of connection points: 2
#     Edge 98, Type (0, 1), BuildingBlock: FUNLAD_clean_linker_1, # of connection points: 2
#     Edge 99, Type (0, 1), BuildingBlock: FUNLAD_clean_linker_1, # of connection points: 2
#     Edge 100, Type (0, 1), BuildingBlock: FUNLAD_clean_linker_1, # of connection points: 2
#     Edge 101, Type (0, 1), BuildingBlock: FUNLAD_clean_linker_1, # of connection points: 2
#     Edge 102, Type (0, 1), BuildingBlock: FUNLAD_clean_linker_1, # of connection points: 2
#     Edge 103, Type (0, 1), BuildingBlock: FUNLAD_clean_linker_1, # of connection points: 2
#     Edge 104, Type (0, 1), BuildingBlock: FUNLAD_clean_linker_1, # of connection points: 2
#     Edge 105, Type (0, 1), BuildingBlock: FUNLAD_clean_linker_1, # of connection points: 2
#     Edge 106, Type (0, 1), BuildingBlock: FUNLAD_clean_linker_1, # of connection points: 2
#     Edge 107, Type (0, 1), BuildingBlock: FUNLAD_clean_linker_1, # of connection points: 2
# Relax obj value: 0.082
# Max RMSD: 0.298
# Mean RMSD: 0.121
data_MOF--net-ptr--node1-AZAVOO_clean_sbu_0--node2-NAWXER_clean_linker_0--edge1-FUNLAD_clean_linker_1
_symmetry_space_group_name_H-M    P1
_symmetry_Int_Tables_number       1
_symmetry_cell_setting            triclinic
loop_
_symmetry_equiv_pos_as_xyz
'x, y, z'
_cell_length_a     91.293177
_cell_length_b     89.629134
_cell_length_c     64.128861
_cell_angle_alpha  91.104769
_cell_angle_beta   90.802967
_cell_angle_gamma 120.11246
loop_
_atom_site_label
_atom_site_type_symbol
_atom_site_fract_x
_atom_site_fract_y
_atom_site_fract_z
_atom_type_partial_charge
Mg0 Mg 0.0186 0.34018 0.98896 0.0
O1 O 0.00723 0.35092 0.01303 0.0
O2 O 0.98884 0.3558 0.99522 0.0
Mg3 Mg 0.98797 0.34822 0.96097 0.0
C4 C 0.99652 0.35616 0.01213 0.0
C5 C 0.03616 0.32231 0.00901 0.0
O6 O 0.03455 0.31746 0.98926 0.0
O7 O 0.99437 0.31362 0.98693 0.0
O8 O 0.97693 0.31985 0.96912 0.0
O9 O 0.03834 0.3674 0.98265 0.0
O10 O 0.01386 0.35295 0.96527 0.0
C11 C 0.98005 0.30911 0.97808 0.0
C12 C 0.02775 0.36726 0.96891 0.0
O13 O 0.03027 0.33185 0.0149 0.0
Mg14 Mg 0.67408 0.65614 0.0384 0.0
O15 O 0.65143 0.6471 0.01552 0.0
O16 O 0.62878 0.64185 0.0339 0.0
Mg17 Mg 0.63692 0.64719 0.06846 0.0
C18 C 0.63575 0.64235 0.0166 0.0
C19 C 0.70787 0.67484 0.01557 0.0
O20 O 0.71315 0.67871 0.03512 0.0
O21 O 0.67626 0.68242 0.04303 0.0
O22 O 0.65433 0.67625 0.06335 0.0
O23 O 0.66745 0.62879 0.04205 0.0
O24 O 0.65776 0.64221 0.06194 0.0
C25 C 0.66759 0.68707 0.05394 0.0
C26 C 0.65762 0.62818 0.05675 0.0
O27 O 0.69211 0.66566 0.01139 0.0
Mg28 Mg 0.34057 0.9872 0.99245 0.0
O29 O 0.36421 0.00169 0.014 0.0
O30 O 0.38654 0.01751 0.99431 0.0
Mg31 Mg 0.37719 0.01329 0.96034 0.0
C32 C 0.38003 0.01213 0.012 0.0
C33 C 0.30874 0.97716 0.01897 0.0
O34 O 0.30274 0.97815 0.00063 0.0
O35 O 0.33928 0.01162 0.98716 0.0
O36 O 0.36155 0.02639 0.96688 0.0
O37 O 0.34609 0.96571 0.9888 0.0
O38 O 0.35561 0.98794 0.96801 0.0
C39 C 0.34863 0.02474 0.97636 0.0
C40 C 0.35541 0.97407 0.97338 0.0
O41 O 0.32394 0.98046 0.02078 0.0
Mg42 Mg 0.99493 0.6669 0.02507 0.0
O43 O 0.00884 0.65776 0.00328 0.0
O44 O 0.02914 0.6568 0.02216 0.0
Mg45 Mg 0.02777 0.66456 0.05598 0.0
C46 C 0.02105 0.65471 0.00497 0.0
C47 C 0.97313 0.67833 1.00008 0.0
O48 O 0.97011 0.68107 0.01934 0.0
O49 O 0.01718 0.69463 0.02633 0.0
O50 O 0.03583 0.69229 0.04697 0.0
O51 O 0.9772 0.63928 0.03229 0.0
O52 O 0.00094 0.65639 0.05019 0.0
C53 C 0.03133 0.70134 0.0364 0.0
C54 C 0.98814 0.64121 0.04672 0.0
O55 O 0.98302 0.67244 0.99693 0.0
Mg56 Mg 0.32687 0.34878 0.97137 0.0
O57 O 0.34885 0.35802 0.99538 0.0
O58 O 0.37265 0.36617 0.978 0.0
Mg59 Mg 0.36597 0.3628 0.943 0.0
C60 C 0.3648 0.36394 0.99502 0.0
C61 C 0.29284 0.32468 0.99273 0.0
O62 O 0.28861 0.31888 0.97336 0.0
O63 O 0.3271 0.32378 0.9645 0.0
O64 O 0.35024 0.33326 0.94533 0.0
O65 O 0.33161 0.37568 0.97041 0.0
O66 O 0.34362 0.36523 0.94954 0.0
C67 C 0.3371 0.32105 0.95345 0.0
C68 C 0.34244 0.37825 0.95614 0.0
O69 O 0.30788 0.33662 0.99715 0.0
Mg70 Mg 0.6645 0.0094 0.02979 0.0
O71 O 0.6418 0.99509 0.00699 0.0
O72 O 0.61983 0.97548 0.02467 0.0
Mg73 Mg 0.62852 0.97717 0.05876 0.0
C74 C 0.62635 0.98309 0.00781 0.0
C75 C 0.6965 0.02216 0.00281 0.0
O76 O 0.70121 0.01663 0.01897 0.0
O77 O 0.66864 0.98633 0.03043 0.0
O78 O 0.64729 0.9682 0.05013 0.0
O79 O 0.65575 0.0281 0.03769 0.0
O80 O 0.64828 0.00409 0.05447 0.0
C81 C 0.66069 0.97222 0.04003 0.0
C82 C 0.64674 0.01739 0.05179 0.0
O83 O 0.682 0.02086 0.00242 0.0
Mg84 Mg 0.67525 0.67158 0.32884 0.0
O85 O 0.6608 0.68062 0.35007 0.0
O86 O 0.64313 0.68453 0.32935 0.0
Mg87 Mg 0.64644 0.67865 0.29544 0.0
C88 C 0.64946 0.68484 0.34733 0.0
C89 C 0.69617 0.65942 0.35383 0.0
O90 O 0.70159 0.66014 0.3348 0.0
O91 O 0.65187 0.6446 0.32412 0.0
O92 O 0.63602 0.65001 0.30204 0.0
O93 O 0.69494 0.69928 0.32439 0.0
O94 O 0.67212 0.68446 0.30408 0.0
C95 C 0.6387 0.63951 0.31236 0.0
C96 C 0.68538 0.69895 0.30907 0.0
O97 O 0.68475 0.66329 0.35707 0.0
Mg98 Mg 0.333 0.99787 0.37145 0.0
O99 O 0.31261 0.99081 0.34593 0.0
O100 O 0.28928 0.98793 0.36054 0.0
Mg101 Mg 0.29499 0.99355 0.39569 0.0
C102 C 0.29733 0.98754 0.34461 0.0
C103 C 0.36007 0.99611 0.3445 0.0
O104 O 0.35673 0.98368 0.35744 0.0
O105 O 0.338 0.02542 0.37361 0.0
O106 O 0.31517 0.02187 0.39037 0.0
O107 O 0.32293 0.96987 0.37733 0.0
O108 O 0.31452 0.9861 0.39366 0.0
C109 C 0.32956 0.03152 0.38232 0.0
C110 C 0.31298 0.97119 0.3905 0.0
O111 O 0.3525 0.00468 0.34629 0.0
Mg112 Mg 0.00891 0.32446 0.32289 0.0
O113 O 0.0282 0.33655 0.35007 0.0
O114 O 0.05337 0.35514 0.33721 0.0
Mg115 Mg 0.05009 0.35499 0.30169 0.0
C116 C 0.04394 0.34752 0.35252 0.0
C117 C 0.97764 0.29824 0.34766 0.0
O118 O 0.9797 0.28725 0.336 0.0
O119 O 0.008 0.34918 0.31979 0.0
O120 O 0.03268 0.36657 0.30492 0.0
O121 O 0.01577 0.30381 0.31824 0.0
O122 O 0.02802 0.32884 0.3026 0.0
C123 C 0.01836 0.36348 0.31175 0.0
C124 C 0.02728 0.31441 0.30596 0.0
O125 O 0.9876 0.31431 0.34596 0.0
Mg126 Mg 0.65544 0.98664 0.36933 0.0
O127 O 0.67118 0.97868 0.34905 0.0
O128 O 0.68596 0.97143 0.37056 0.0
Mg129 Mg 0.6803 0.97528 0.40417 0.0
C130 C 0.68156 0.97327 0.35227 0.0
C131 C 0.634 0.99464 0.33932 0.0
O132 O 0.62325 0.98583 0.35381 0.0
O133 O 0.67885 0.01265 0.37814 0.0
O134 O 0.69271 0.00456 0.40006 0.0
O135 O 0.63486 0.95901 0.36932 0.0
O136 O 0.65558 0.97115 0.39316 0.0
C137 C 0.69127 0.0162 0.39066 0.0
C138 C 0.64257 0.95744 0.38548 0.0
O139 O 0.64912 0.99762 0.34095 0.0
Mg140 Mg 0.00379 0.67967 0.31189 0.0
O141 O 0.02596 0.68868 0.33564 0.0
O142 O 0.04989 0.69807 0.31814 0.0
Mg143 Mg 0.04304 0.69467 0.28333 0.0
C144 C 0.04199 0.69519 0.3352 0.0
C145 C 0.98651 0.6762 0.35401 0.0
O146 O -0.00063 0.69203 0.3558 0.0
O147 O 0.00421 0.65491 0.30406 0.0
O148 O 0.02797 0.66518 0.28593 0.0
O149 O 0.00839 0.70653 0.31174 0.0
O150 O 0.02038 0.69647 0.29024 0.0
C151 C 0.01473 0.65266 0.29346 0.0
C152 C 0.01916 0.70935 0.29732 0.0
O153 O 0.98485 0.66711 0.33773 0.0
Mg154 Mg 0.333 0.34843 0.36398 0.0
O155 O 0.30968 0.33386 0.34196 0.0
O156 O 0.28812 0.31524 0.36101 0.0
Mg157 Mg 0.29752 0.31791 0.39493 0.0
C158 C 0.29421 0.32212 0.34366 0.0
C159 C 0.36567 0.36339 0.33963 0.0
O160 O 0.37073 0.36199 0.35838 0.0
O161 O 0.33653 0.32503 0.3654 0.0
O162 O 0.31556 0.30802 0.38628 0.0
O163 O 0.32524 0.368 0.37161 0.0
O164 O 0.31766 0.34434 0.38921 0.0
C165 C 0.32858 0.31132 0.37575 0.0
C166 C 0.31662 0.35792 0.38642 0.0
O167 O 0.35017 0.35864 0.33625 0.0
Mg168 Mg 0.34133 0.00573 0.66404 0.0
O169 O 0.32889 0.01412 0.6892 0.0
O170 O 0.31287 0.02291 0.67282 0.0
Mg171 Mg 0.31453 0.01969 0.63764 0.0
C172 C 0.31896 0.02031 0.6895 0.0
C173 C 0.36566 0.99907 0.69054 0.0
O174 O 0.37596 0.01157 0.67856 0.0
O175 O 0.31657 0.9805 0.65673 0.0
O176 O 0.30157 0.99015 0.63959 0.0
O177 O 0.36265 0.03302 0.66308 0.0
O178 O 0.33954 0.02222 0.64293 0.0
C179 C 0.30328 0.97785 0.64657 0.0
C180 C 0.3537 0.03537 0.64913 0.0
O181 O 0.34982 0.99328 0.68865 0.0
Mg182 Mg 0.99641 0.31573 0.69794 0.0
O183 O 0.97207 0.30593 0.67802 0.0
O184 O 0.95045 0.2979 0.69951 0.0
Mg185 Mg 0.96106 0.30276 0.73309 0.0
C186 C 0.95632 0.29979 0.68121 0.0
C187 C 0.02813 0.33527 0.67158 0.0
O188 O 0.03489 0.33794 0.69049 0.0
O189 O 0.99685 0.34087 0.70576 0.0
O190 O 0.97594 0.33212 0.72852 0.0
O191 O 0.99186 0.28888 0.69874 0.0
O192 O 0.98253 0.30028 0.72227 0.0
C193 C 0.98804 0.34401 0.71847 0.0
C194 C 0.98301 0.28702 0.71508 0.0
O195 O 0.01213 0.32682 0.66918 0.0
Mg196 Mg 0.66894 0.63874 0.65156 0.0
O197 O 0.69137 0.65423 0.67432 0.0
O198 O 0.71494 0.66867 0.65613 0.0
Mg199 Mg 0.70736 0.66242 0.62147 0.0
C200 C 0.70731 0.66443 0.67341 0.0
C201 C 0.63557 0.62955 0.67375 0.0
O202 O 0.63041 0.62791 0.65419 0.0
O203 O 0.6688 0.6631 0.64254 0.0
O204 O 0.69175 0.67605 0.62288 0.0
O205 O 0.67415 0.61686 0.65219 0.0
O206 O 0.68499 0.63788 0.62964 0.0
C207 C 0.67866 0.6753 0.63084 0.0
C208 C 0.68423 0.62425 0.63699 0.0
O209 O 0.6509 0.63405 0.67793 0.0
Mg210 Mg 0.31943 0.32634 0.7081 0.0
O211 O 0.33596 0.31884 0.68893 0.0
O212 O 0.35449 0.3174 0.71082 0.0
Mg213 Mg 0.34955 0.32346 0.74394 0.0
C214 C 0.3482 0.31611 0.69254 0.0
C215 C 0.30211 0.34088 0.6792 0.0
O216 O 0.30032 0.34653 0.6975 0.0
O217 O 0.34118 0.35427 0.71212 0.0
O218 O 0.358 0.35132 0.73534 0.0
O219 O 0.30152 0.29829 0.71329 0.0
O220 O 0.32335 0.3152 0.73422 0.0
C221 C 0.3544 0.36069 0.72402 0.0
C222 C 0.31107 0.30001 0.72935 0.0
O223 O 0.30971 0.33229 0.67814 0.0
Mg224 Mg 0.67885 0.0112 0.65227 0.0
O225 O 0.70032 0.02163 0.6771 0.0
O226 O 0.72452 0.02835 0.6615 0.0
Mg227 Mg 0.71836 0.02176 0.62663 0.0
C228 C 0.71625 0.02745 0.67778 0.0
C229 C 0.64792 0.00535 0.67741 0.0
O230 O 0.64674 0.01372 0.66147 0.0
O231 O 0.67813 0.98548 0.64963 0.0
O232 O 0.70206 0.99274 0.63287 0.0
O233 O 0.68462 0.0381 0.64648 0.0
O234 O 0.69602 0.02488 0.62943 0.0
C235 C 0.6883 0.98152 0.64101 0.0
C236 C 0.6952 0.03861 0.63287 0.0
O237 O 0.65979 0.00189 0.67819 0.0
Mg238 Mg 0.00177 0.68822 0.6936 0.0
O239 O 0.98001 0.67474 0.66927 0.0
O240 O 0.95596 0.65958 0.6864 0.0
Mg241 Mg 0.96233 0.66342 0.72145 0.0
C242 C 0.96398 0.66476 0.66947 0.0
C243 C 0.03548 0.69652 0.67357 0.0
O244 O 0.03853 0.69443 0.69304 0.0
O245 O 0.00085 0.66289 0.70015 0.0
O246 O 0.97743 0.64924 0.71883 0.0
O247 O 0.9975 0.71067 0.69502 0.0
O248 O 0.98516 0.68819 0.71535 0.0
C249 C 0.99057 0.65012 0.7108 0.0
C250 C 0.9867 0.70251 0.70931 0.0
O251 O 0.0211 0.6945 0.66838 0.0
C252 C 0.21729 0.32139 0.13348 0.0
C253 C 0.21418 0.31022 0.1162 0.0
C254 C 0.20419 0.31882 0.14663 0.0
C255 C 0.18776 0.30482 0.14295 0.0
C256 C 0.19768 0.29615 0.11261 0.0
C257 C 0.18459 0.29361 0.12577 0.0
C258 C 0.17365 0.30216 0.15635 0.0
C259 C 0.21055 0.29552 0.19792 0.0
C260 C 0.21634 0.30665 0.21563 0.0
C261 C 0.19695 0.29378 0.18558 0.0
C262 C 0.18917 0.30349 0.1905 0.0
C263 C 0.20859 0.31644 0.22037 0.0
C264 C 0.1951 0.31476 0.20803 0.0
C265 C 0.17436 0.30158 0.17834 0.0
C266 C 0.10249 0.27907 0.20134 0.0
C267 C 0.10578 0.28847 0.22027 0.0
C268 C 0.11568 0.28219 0.18804 0.0
C269 C 0.13242 0.29486 0.19342 0.0
C270 C 0.12264 0.30075 0.22594 0.0
C271 C 0.13579 0.30388 0.21263 0.0
C272 C 0.14667 0.29805 0.17989 0.0
C273 C 0.11547 0.31434 0.14244 0.0
C274 C 0.10857 0.30521 0.12345 0.0
C275 C 0.12753 0.31236 0.15378 0.0
C276 C 0.13277 0.3009 0.1466 0.0
C277 C 0.11375 0.29365 0.11631 0.0
C278 C 0.12584 0.29165 0.1277 0.0
C279 C 0.14627 0.29946 0.158 0.0
H280 H 0.22985 0.33232 0.13664 0.0
H281 H 0.20687 0.32789 0.15952 0.0
H282 H 0.19476 0.28694 0.09986 0.0
H283 H 0.17199 0.28274 0.12264 0.0
H284 H 0.21634 0.2879 0.19385 0.0
H285 H 0.19239 0.28469 0.17242 0.0
H286 H 0.21303 0.32561 0.23342 0.0
H287 H 0.18936 0.32243 0.21213 0.0
H288 H 0.08966 0.26936 0.19673 0.0
H289 H 0.11279 0.27457 0.17368 0.0
H290 H 0.12584 0.30782 0.24073 0.0
H291 H 0.14865 0.31345 0.21735 0.0
H292 H 0.11177 0.32335 0.14835 0.0
H293 H 0.13302 0.32007 0.16798 0.0
H294 H 0.10852 0.28601 0.10205 0.0
H295 H 0.12973 0.28281 0.12178 0.0
N296 N 0.15966 0.30114 0.14706 0.0
N297 N 0.16079 0.29944 0.18915 0.0
C298 C 0.68383 0.89395 0.1473 0.0
C299 C 0.69329 0.90031 0.12923 0.0
C300 C 0.6872 0.88407 0.16103 0.0
C301 C 0.70043 0.88076 0.15726 0.0
C302 C 0.70651 0.89694 0.12542 0.0
C303 C 0.70996 0.88717 0.13926 0.0
C304 C 0.70351 0.86946 0.17093 0.0
C305 C 0.71206 0.91507 0.21156 0.0
C306 C 0.70131 0.91049 0.22864 0.0
C307 C 0.71342 0.90246 0.19991 0.0
C308 C 0.70375 0.88498 0.2049 0.0
C309 C 0.69166 0.89296 0.23355 0.0
C310 C 0.693 0.88041 0.22192 0.0
C311 C 0.7048 0.87124 0.19296 0.0
C312 C 0.72281 0.81705 0.21597 0.0
C313 C 0.71294 0.81054 0.23369 0.0
C314 C 0.72105 0.82863 0.20334 0.0
C315 C 0.70935 0.83391 0.20822 0.0
C316 C 0.70173 0.8164 0.23903 0.0
C317 C 0.7 0.828 0.22642 0.0
C318 C 0.70701 0.84584 0.19472 0.0
C319 C 0.68712 0.79691 0.1562 0.0
C320 C 0.69582 0.79822 0.1378 0.0
C321 C 0.69035 0.81164 0.16776 0.0
C322 C 0.70257 0.82807 0.16136 0.0
C323 C 0.70811 0.81474 0.1314 0.0
C324 C 0.71132 0.82951 0.14301 0.0
C325 C 0.70514 0.84375 0.17277 0.0
H326 H 0.67357 0.89634 0.1506 0.0
H327 H 0.67926 0.87879 0.17439 0.0
H328 H 0.71435 0.90196 0.11195 0.0
H329 H 0.72012 0.88462 0.13594 0.0
H330 H 0.71956 0.92846 0.20736 0.0
H331 H 0.72206 0.90637 0.18709 0.0
H332 H 0.68277 0.88876 0.24608 0.0
H333 H 0.68535 0.86701 0.22602 0.0
H334 H 0.73173 0.81297 0.21167 0.0
H335 H 0.72882 0.83343 0.18975 0.0
H336 H 0.69435 0.8122 0.25297 0.0
H337 H 0.69113 0.83215 0.23072 0.0
H338 H 0.67757 0.78442 0.16153 0.0
H339 H 0.68301 0.81018 0.18147 0.0
H340 H 0.71531 0.81646 0.11754 0.0
H341 H 0.72067 0.84208 0.13767 0.0
N342 N 0.70373 0.85578 0.16175 0.0
N343 N 0.70655 0.85937 0.20394 0.0
C344 C 0.12136 0.80981 0.13415 0.0
C345 C 0.1136 0.81238 0.11662 0.0
C346 C 0.1322 0.82363 0.14743 0.0
C347 C 0.13519 0.84032 0.1438 0.0
C348 C 0.11695 0.82919 0.11263 0.0
C349 C 0.12775 0.84305 0.12607 0.0
C350 C 0.14661 0.85495 0.15806 0.0
C351 C 0.10185 0.81898 0.19526 0.0
C352 C 0.1057 0.81284 0.21327 0.0
C353 C 0.1147 0.83259 0.18456 0.0
C354 C 0.13172 0.83981 0.19121 0.0
C355 C 0.12265 0.82036 0.22027 0.0
C356 C 0.13552 0.8337 0.20934 0.0
C357 C 0.14568 0.85411 0.18003 0.0
C358 C 0.20428 0.92234 0.21219 0.0
C359 C 0.20908 0.9156 0.22892 0.0
C360 C 0.19239 0.91123 0.19699 0.0
C361 C 0.18532 0.89326 0.19814 0.0
C362 C 0.20195 0.89768 0.22997 0.0
C363 C 0.19028 0.88667 0.21477 0.0
C364 C 0.17181 0.88087 0.1834 0.0
C365 C 0.21604 0.91179 0.14129 0.0
C366 C 0.21236 0.92003 0.12524 0.0
C367 C 0.20311 0.89988 0.15365 0.0
C368 C 0.18636 0.89619 0.15038 0.0
C369 C 0.19571 0.91675 0.12255 0.0
C370 C 0.1828 0.9048 0.13484 0.0
C371 C 0.17225 0.88218 0.16147 0.0
H372 H 0.11908 0.79703 0.13756 0.0
H373 H 0.13823 0.82124 0.16059 0.0
H374 H 0.111 0.83167 0.09948 0.0
H375 H 0.13004 0.85586 0.12283 0.0
H376 H 0.08885 0.81338 0.18963 0.0
H377 H 0.11128 0.83744 0.17112 0.0
H378 H 0.12606 0.81564 0.23386 0.0
H379 H 0.14851 0.83908 0.2149 0.0
H380 H 0.20921 0.93608 0.21118 0.0
H381 H 0.18839 0.91666 0.18474 0.0
H382 H 0.20536 0.89213 0.2427 0.0
H383 H 0.18498 0.87288 0.21614 0.0
H384 H 0.22879 0.91432 0.14419 0.0
H385 H 0.20611 0.89318 0.16532 0.0
H386 H 0.19255 0.92297 0.11039 0.0
H387 H 0.16994 0.90204 0.13197 0.0
N388 N 0.15967 0.86912 0.14967 0.0
N389 N 0.15843 0.86697 0.19171 0.0
C390 C 0.30391 0.09613 0.81742 0.0
C391 C 0.29116 0.08756 0.8018 0.0
C392 C 0.30329 0.10797 0.83142 0.0
C393 C 0.28989 0.11142 0.83024 0.0
C394 C 0.27774 0.09099 0.80081 0.0
C395 C 0.27715 0.10282 0.8148 0.0
C396 C 0.29003 0.12526 0.84347 0.0
C397 C 0.2858 0.08523 0.88837 0.0
C398 C 0.29951 0.09117 0.90273 0.0
C399 C 0.28375 0.0968 0.87603 0.0
C400 C 0.29551 0.11454 0.87767 0.0
C401 C 0.31121 0.10901 0.90435 0.0
C402 C 0.30912 0.12053 0.89209 0.0
C403 C 0.29345 0.12714 0.86522 0.0
C404 C 0.28722 0.18979 0.88876 0.0
C405 C 0.29988 0.19663 0.9046 0.0
C406 C 0.28479 0.17572 0.87624 0.0
C407 C 0.29538 0.16863 0.87885 0.0
C408 C 0.30988 0.18905 0.90787 0.0
C409 C 0.30776 0.1753 0.89504 0.0
C410 C 0.29327 0.15374 0.86578 0.0
C411 C 0.30178 0.19442 0.81944 0.0
C412 C 0.28764 0.18976 0.80613 0.0
C413 C 0.30248 0.18212 0.83184 0.0
C414 C 0.28899 0.16502 0.83138 0.0
C415 C 0.27418 0.17264 0.80574 0.0
C416 C 0.27493 0.16033 0.81805 0.0
C417 C 0.28976 0.1518 0.84401 0.0
H418 H 0.31475 0.09435 0.81853 0.0
H419 H 0.31363 0.11488 0.84266 0.0
H420 H 0.26782 0.08473 0.7889 0.0
H421 H 0.26682 0.10544 0.81336 0.0
H422 H 0.27663 0.07158 0.88668 0.0
H423 H 0.27291 0.09188 0.86537 0.0
H424 H 0.32223 0.11424 0.91469 0.0
H425 H 0.31833 0.13418 0.89365 0.0
H426 H 0.27896 0.19507 0.88634 0.0
H427 H 0.27452 0.17033 0.86472 0.0
H428 H 0.31961 0.19401 0.92012 0.0
H429 H 0.31593 0.16995 0.8977 0.0
H430 H 0.31222 0.20757 0.82057 0.0
H431 H 0.31356 0.18597 0.84179 0.0
H432 H 0.2631 0.16873 0.79574 0.0
H433 H 0.26445 0.14716 0.81734 0.0
N434 N 0.28818 0.1376 0.8338 0.0
N435 N 0.295 0.14131 0.87541 0.0
C436 C 0.90904 0.18009 0.89704 0.0
C437 C 0.90473 0.18866 0.9122 0.0
C438 C 0.89659 0.16703 0.88408 0.0
C439 C 0.87951 0.16235 0.88584 0.0
C440 C 0.88747 0.18344 0.91446 0.0
C441 C 0.87503 0.17036 0.90148 0.0
C442 C 0.86626 0.14911 0.87153 0.0
C443 C 0.89805 0.19385 0.83125 0.0
C444 C 0.90634 0.19048 0.81514 0.0
C445 C 0.88578 0.18042 0.8427 0.0
C446 C 0.88179 0.16332 0.83857 0.0
C447 C 0.90244 0.17334 0.81112 0.0
C448 C 0.89016 0.15989 0.82264 0.0
C449 C 0.86797 0.14893 0.84967 0.0
C450 C 0.79945 0.0959 0.81639 0.0
C451 C 0.80423 0.08814 0.80062 0.0
C452 C 0.81126 0.10684 0.83169 0.0
C453 C 0.82799 0.11004 0.83172 0.0
C454 C 0.82085 0.09105 0.80106 0.0
C455 C 0.83264 0.102 0.81631 0.0
C456 C 0.84114 0.12298 0.84633 0.0
C457 C 0.80387 0.08103 0.88759 0.0
C458 C 0.79632 0.08681 0.90217 0.0
C459 C 0.81759 0.09284 0.87608 0.0
C460 C 0.82402 0.11064 0.87902 0.0
C461 C 0.80291 0.10468 0.90516 0.0
C462 C 0.8166 0.11643 0.89371 0.0
C463 C 0.83916 0.12349 0.86811 0.0
H464 H 0.92216 0.1837 0.89494 0.0
H465 H 0.90036 0.16071 0.87254 0.0
H466 H 0.88338 0.18955 0.92579 0.0
H467 H 0.86191 0.16684 0.90328 0.0
H468 H 0.90077 0.20689 0.83469 0.0
H469 H 0.87915 0.18338 0.85446 0.0
H470 H 0.90879 0.17019 0.79921 0.0
H471 H 0.88719 0.14678 0.81911 0.0
H472 H 0.78668 0.09369 0.81696 0.0
H473 H 0.80743 0.11317 0.84313 0.0
H474 H 0.82488 0.0852 0.78921 0.0
H475 H 0.84549 0.10438 0.8159 0.0
H476 H 0.79925 0.06737 0.88526 0.0
H477 H 0.82341 0.08806 0.86527 0.0
H478 H 0.79795 0.10975 0.91678 0.0
H479 H 0.82153 0.13011 0.8965 0.0
N480 N 0.85183 0.1365 0.87983 0.0
N481 N 0.85547 0.13576 0.838 0.0
C482 C 0.7966 0.71122 0.87961 0.0
C483 C 0.78867 0.69754 0.89335 0.0
C484 C 0.81063 0.71357 0.86842 0.0
C485 C 0.81671 0.70203 0.87048 0.0
C486 C 0.79462 0.68585 0.89507 0.0
C487 C 0.80856 0.68817 0.88388 0.0
C488 C 0.83206 0.70466 0.85978 0.0
C489 C 0.79433 0.69343 0.807 0.0
C490 C 0.79953 0.70625 0.79195 0.0
C491 C 0.80566 0.69452 0.82266 0.0
C492 C 0.82235 0.70848 0.82375 0.0
C493 C 0.81618 0.72025 0.79319 0.0
C494 C 0.82748 0.72135 0.8089 0.0
C495 C 0.83505 0.7086 0.83848 0.0
C496 C 0.89295 0.69758 0.82035 0.0
C497 C 0.90192 0.711 0.80658 0.0
C498 C 0.87996 0.6971 0.83209 0.0
C499 C 0.87602 0.71032 0.83071 0.0
C500 C 0.89802 0.72428 0.80526 0.0
C501 C 0.8851 0.72386 0.81714 0.0
C502 C 0.86152 0.70934 0.84188 0.0
C503 C 0.89851 0.71259 0.89165 0.0
C504 C 0.8919 0.69842 0.9049 0.0
C505 C 0.88775 0.71495 0.87805 0.0
C506 C 0.87025 0.70311 0.87726 0.0
C507 C 0.87436 0.6869 0.90442 0.0
C508 C 0.86366 0.6892 0.89077 0.0
C509 C 0.85849 0.70532 0.86317 0.0
H510 H 0.79221 0.72035 0.87793 0.0
H511 H 0.8169 0.72458 0.85851 0.0
H512 H 0.78848 0.67479 0.9049 0.0
H513 H 0.81296 0.67905 0.88565 0.0
H514 H 0.78185 0.68209 0.80622 0.0
H515 H 0.80155 0.68402 0.83333 0.0
H516 H 0.8206 0.73019 0.78168 0.0
H517 H 0.84037 0.73209 0.80919 0.0
H518 H 0.8957 0.68719 0.82165 0.0
H519 H 0.87279 0.6862 0.8419 0.0
H520 H 0.90494 0.73507 0.79522 0.0
H521 H 0.88218 0.73412 0.81571 0.0
H522 H 0.91187 0.7221 0.89205 0.0
H523 H 0.8931 0.72615 0.86836 0.0
H524 H 0.86889 0.67599 0.91458 0.0
H525 H 0.8502 0.67999 0.89066 0.0
N526 N 0.84386 0.70312 0.87119 0.0
N527 N 0.84973 0.71091 0.83047 0.0
C528 C 0.77279 0.62232 0.4552 0.0
C529 C 0.77902 0.63689 0.44263 0.0
C530 C 0.78392 0.61944 0.46743 0.0
C531 C 0.80146 0.63113 0.46749 0.0
C532 C 0.79658 0.64826 0.44236 0.0
C533 C 0.80767 0.64541 0.45462 0.0
C534 C 0.81356 0.62844 0.48032 0.0
C535 C 0.78111 0.63592 0.52715 0.0
C536 C 0.77211 0.62187 0.54013 0.0
C537 C 0.79361 0.63661 0.51426 0.0
C538 C 0.79717 0.62309 0.51382 0.0
C539 C 0.77556 0.60821 0.53945 0.0
C540 C 0.78808 0.60893 0.52653 0.0
C541 C 0.81129 0.62428 0.50162 0.0
C542 C 0.87962 0.63974 0.53151 0.0
C543 C 0.87485 0.6274 0.5471 0.0
C544 C 0.86771 0.63855 0.51662 0.0
C545 C 0.8509 0.62483 0.51672 0.0
C546 C 0.85819 0.61339 0.54669 0.0
C547 C 0.8463 0.6122 0.53179 0.0
C548 C 0.83765 0.6247 0.50294 0.0
C549 C 0.87288 0.61921 0.4594 0.0
C550 C 0.88104 0.63269 0.44546 0.0
C551 C 0.85957 0.61781 0.47133 0.0
C552 C 0.85418 0.62993 0.46957 0.0
C553 C 0.87536 0.6446 0.44342 0.0
C554 C 0.86207 0.6432 0.45534 0.0
C555 C 0.83971 0.62835 0.4815 0.0
H556 H 0.75943 0.61289 0.45536 0.0
H557 H 0.77883 0.60798 0.47664 0.0
H558 H 0.80178 0.65948 0.43269 0.0
H559 H 0.82114 0.65452 0.45419 0.0
H560 H 0.77872 0.64661 0.52734 0.0
H561 H 0.80077 0.64791 0.50501 0.0
H562 H 0.76869 0.59694 0.54874 0.0
H563 H 0.79071 0.59841 0.5265 0.0
H564 H 0.89243 0.65049 0.53087 0.0
H565 H 0.87155 0.64872 0.50551 0.0
H566 H 0.85417 0.60363 0.5584 0.0
H567 H 0.83339 0.60158 0.5323 0.0
H568 H 0.87679 0.60968 0.46102 0.0
H569 H 0.85332 0.60709 0.48166 0.0
H570 H 0.88079 0.65479 0.43229 0.0
H571 H 0.85793 0.65251 0.45341 0.0
N572 N 0.82768 0.63026 0.47112 0.0
N573 N 0.82341 0.62259 0.51203 0.0
C574 C 0.34548 0.23266 0.48677 0.0
C575 C 0.3566 0.23956 0.47018 0.0
C576 C 0.34712 0.22181 0.50076 0.0
C577 C 0.36026 0.21807 0.4988 0.0
C578 C 0.36987 0.23599 0.46833 0.0
C579 C 0.37162 0.22528 0.48248 0.0
C580 C 0.36111 0.20515 0.512 0.0
C581 C 0.36652 0.24673 0.55832 0.0
C582 C 0.35318 0.24075 0.57246 0.0
C583 C 0.36838 0.23504 0.5454 0.0
C584 C 0.35694 0.21723 0.54638 0.0
C585 C 0.34165 0.22298 0.57304 0.0
C586 C 0.3436 0.21134 0.56032 0.0
C587 C 0.35906 0.20445 0.53384 0.0
C588 C 0.37113 0.14624 0.55665 0.0
C589 C 0.35841 0.13816 0.57144 0.0
C590 C 0.37184 0.15943 0.54462 0.0
C591 C 0.35976 0.16463 0.54695 0.0
C592 C 0.34651 0.14357 0.57387 0.0
C593 C 0.34728 0.15679 0.56191 0.0
C594 C 0.36012 0.17837 0.53414 0.0
C595 C 0.34641 0.13407 0.48909 0.0
C596 C 0.35725 0.13758 0.47229 0.0
C597 C 0.34802 0.14738 0.50231 0.0
C598 C 0.36085 0.16448 0.49938 0.0
C599 C 0.37015 0.1547 0.46935 0.0
C600 C 0.37185 0.16803 0.48273 0.0
C601 C 0.36176 0.17884 0.51225 0.0
H602 H 0.33514 0.23521 0.48852 0.0
H603 H 0.33775 0.21591 0.51264 0.0
H604 H 0.37892 0.24143 0.45604 0.0
H605 H 0.38176 0.22246 0.48053 0.0
H606 H 0.37547 0.26036 0.55711 0.0
H607 H 0.37889 0.23986 0.5349 0.0
H608 H 0.33125 0.21801 0.58372 0.0
H609 H 0.33464 0.19767 0.56137 0.0
H610 H 0.3803 0.1422 0.55392 0.0
H611 H 0.38178 0.1655 0.53341 0.0
H612 H 0.33654 0.13752 0.58505 0.0
H613 H 0.33787 0.16064 0.56406 0.0
H614 H 0.33635 0.12101 0.49168 0.0
H615 H 0.33892 0.14431 0.51448 0.0
H616 H 0.37899 0.15787 0.45686 0.0
H617 H 0.38173 0.18114 0.48002 0.0
N618 N 0.36239 0.19231 0.50213 0.0
N619 N 0.35867 0.19109 0.544 0.0
C620 C 0.7772 0.13571 0.46751 0.0
C621 C 0.77028 0.13911 0.44968 0.0
C622 C 0.78931 0.14923 0.48026 0.0
C623 C 0.79474 0.16644 0.47558 0.0
C624 C 0.77593 0.15637 0.44489 0.0
C625 C 0.78807 0.1699 0.45767 0.0
C626 C 0.80851 0.18081 0.48813 0.0
C627 C 0.76491 0.15349 0.53156 0.0
C628 C 0.76872 0.14669 0.54901 0.0
C629 C 0.77781 0.1649 0.51874 0.0
C630 C 0.79474 0.16964 0.52317 0.0
C631 C 0.78576 0.15197 0.5538 0.0
C632 C 0.79858 0.16328 0.54099 0.0
C633 C 0.80878 0.18184 0.51018 0.0
C634 C 0.87414 0.24786 0.53202 0.0
C635 C 0.87884 0.24208 0.54972 0.0
C636 C 0.86062 0.23624 0.5189 0.0
C637 C 0.85177 0.21855 0.5231 0.0
C638 C 0.87011 0.22431 0.55364 0.0
C639 C 0.85666 0.21275 0.54058 0.0
C640 C 0.83693 0.20595 0.51016 0.0
C641 C 0.88086 0.22415 0.46732 0.0
C642 C 0.87973 0.23248 0.44958 0.0
C643 C 0.86704 0.21562 0.48022 0.0
C644 C 0.8518 0.2153 0.47566 0.0
C645 C 0.8644 0.23208 0.44496 0.0
C646 C 0.85055 0.22349 0.45787 0.0
C647 C 0.83668 0.20496 0.48815 0.0
H648 H 0.77379 0.12269 0.47139 0.0
H649 H 0.79478 0.14621 0.49347 0.0
H650 H 0.77103 0.1594 0.43112 0.0
H651 H 0.79233 0.18309 0.45351 0.0
H652 H 0.75192 0.14986 0.52774 0.0
H653 H 0.77455 0.1701 0.5055 0.0
H654 H 0.78933 0.14762 0.56756 0.0
H655 H 0.81157 0.16699 0.54498 0.0
H656 H 0.88073 0.26145 0.52854 0.0
H657 H 0.85692 0.24111 0.50573 0.0
H658 H 0.87371 0.21918 0.56661 0.0
H659 H 0.85011 0.19916 0.54408 0.0
H660 H 0.89242 0.22404 0.47106 0.0
H661 H 0.86814 0.20887 0.49344 0.0
H662 H 0.86281 0.23784 0.43108 0.0
H663 H 0.83877 0.22304 0.45381 0.0
N664 N 0.82244 0.19251 0.478 0.0
N665 N 0.82298 0.19433 0.52023 0.0
C666 C 0.96295 0.52367 0.13525 0.0
C667 C 0.97419 0.53292 0.11947 0.0
C668 C 0.9657 0.51258 0.1476 0.0
C669 C 0.97983 0.51059 0.14448 0.0
C670 C 0.98796 0.53036 0.11581 0.0
C671 C 0.99071 0.51928 0.12819 0.0
C672 C 0.98307 0.49911 0.15768 0.0
C673 C 0.98995 0.54214 0.20174 0.0
C674 C 0.97868 0.53692 0.21838 0.0
C675 C 0.99081 0.52989 0.18881 0.0
C676 C 0.98026 0.5122 0.19203 0.0
C677 C 0.9679 0.51922 0.22129 0.0
C678 C 0.96881 0.50697 0.20839 0.0
C679 C 0.98215 0.49917 0.17968 0.0
C680 C 0.0095 0.45365 0.20526 0.0
C681 C 0.99859 0.44496 0.22153 0.0
C682 C 0.00608 0.46371 0.19189 0.0
C683 C 0.99141 0.46487 0.19421 0.0
C684 C 0.98395 0.44624 0.22394 0.0
C685 C 0.98048 0.45619 0.21046 0.0
C686 C 0.98797 0.47606 0.18079 0.0
C687 C 0.98599 0.43476 0.13776 0.0
C688 C -0.00027 0.4412 0.12424 0.0
C689 C 0.9825 0.44608 0.14904 0.0
C690 C 0.99264 0.464 0.14696 0.0
C691 C 0.0099 0.45912 0.12235 0.0
C692 C 0.00624 0.47041 0.13337 0.0
C693 C 0.98915 0.47614 0.15885 0.0
H694 H 0.95209 0.52516 0.13821 0.0
H695 H 0.95675 0.50556 0.15957 0.0
H696 H 0.99659 0.53671 0.10335 0.0
H697 H 0.0015 0.51767 0.12521 0.0
H698 H 0.99813 0.55565 0.1986 0.0
H699 H 1e-05 0.53429 0.17659 0.0
H700 H 0.95902 0.51485 0.23388 0.0
H701 H 0.96065 0.49339 0.21128 0.0
H702 H 0.02085 0.45288 0.20306 0.0
H703 H 0.01506 0.47077 0.17998 0.0
H704 H 0.97501 0.43937 0.23595 0.0
H705 H 0.96916 0.45702 0.21263 0.0
H706 H 0.9781 0.42102 0.13987 0.0
H707 H 0.97186 0.44086 0.15935 0.0
H708 H 0.02056 0.46439 0.11206 0.0
H709 H 0.01421 0.48418 0.13154 0.0
N710 N 0.98669 0.48769 0.14813 0.0
N711 N 0.98449 0.48754 0.19031 0.0
C712 C 0.45751 0.42214 0.13458 0.0
C713 C 0.45158 0.42754 0.11764 0.0
C714 C 0.46898 0.43418 0.14941 0.0
C715 C 0.47481 0.45186 0.14741 0.0
C716 C 0.45749 0.44528 0.11571 0.0
C717 C 0.469 0.45727 0.1304 0.0
C718 C 0.48789 0.46501 0.16191 0.0
C719 C 0.44182 0.43662 0.20118 0.0
C720 C 0.44405 0.42857 0.21852 0.0
C721 C 0.45564 0.44781 0.18944 0.0
C722 C 0.472 0.45111 0.19478 0.0
C723 C 0.46046 0.43184 0.22378 0.0
C724 C 0.47427 0.44305 0.21204 0.0
C725 C 0.48694 0.46427 0.18388 0.0
C726 C 0.54133 0.53554 0.21075 0.0
C727 C 0.54919 0.53242 0.22775 0.0
C728 C 0.52962 0.522 0.19773 0.0
C729 C 0.52565 0.50498 0.2012 0.0
C730 C 0.5449 0.51526 0.23153 0.0
C731 C 0.53313 0.50168 0.21843 0.0
C732 C 0.51338 0.49066 0.18716 0.0
C733 C 0.55914 0.523 0.14934 0.0
C734 C 0.55607 0.53128 0.13281 0.0
C735 C 0.54564 0.50992 0.15986 0.0
C736 C 0.52887 0.50504 0.15425 0.0
C737 C 0.53927 0.52627 0.12719 0.0
C738 C 0.5258 0.51316 0.13766 0.0
C739 C 0.51442 0.49123 0.1652 0.0
H740 H 0.45338 0.4086 0.13625 0.0
H741 H 0.47361 0.42972 0.16209 0.0
H742 H 0.45374 0.45006 0.10251 0.0
H743 H 0.47353 0.47086 0.12836 0.0
H744 H 0.42939 0.43457 0.19698 0.0
H745 H 0.45361 0.45433 0.17664 0.0
H746 H 0.46287 0.42639 0.23739 0.0
H747 H 0.48683 0.44568 0.21668 0.0
H748 H 0.54426 0.54856 0.20747 0.0
H749 H 0.52366 0.52486 0.18491 0.0
H750 H 0.55069 0.51218 0.24428 0.0
H751 H 0.53011 0.48861 0.22151 0.0
H752 H 0.5719 0.52675 0.15448 0.0
H753 H 0.54832 0.50362 0.17238 0.0
H754 H 0.53655 0.53248 0.1146 0.0
H755 H 0.51295 0.50954 0.13301 0.0
N756 N 0.50159 0.47848 0.15347 0.0
N757 N 0.49975 0.47711 0.19565 0.0
C758 C 0.45572 0.01503 0.22811 0.0
C759 C 0.44837 0.0002 0.24028 0.0
C760 C 0.46877 0.01809 0.21463 0.0
C761 C 0.47471 0.0064 0.21297 0.0
C762 C 0.45442 0.98859 0.23859 0.0
C763 C 0.46749 0.99168 0.22514 0.0
C764 C 0.48929 0.01008 0.19985 0.0
C765 C 0.44759 0.00086 0.15418 0.0
C766 C 0.45098 0.01465 0.14127 0.0
C767 C 0.4604 0.0013 0.16682 0.0
C768 C 0.47683 0.01574 0.16716 0.0
C769 C 0.46737 0.02925 0.14189 0.0
C770 C 0.48018 0.0297 0.15459 0.0
C771 C 0.49083 0.01575 0.17917 0.0
C772 C 0.55205 0.01489 0.14884 0.0
C773 C 0.56018 0.03064 0.13846 0.0
C774 C 0.5386 0.01115 0.16192 0.0
C775 C 0.53318 0.02313 0.1651 0.0
C776 C 0.55483 0.04266 0.14185 0.0
C777 C 0.54131 0.03886 0.15485 0.0
C778 C 0.51841 0.01897 0.17801 0.0
C779 C 0.5588 0.02229 0.22288 0.0
C780 C 0.55393 0.00711 0.23392 0.0
C781 C 0.54682 0.02414 0.21105 0.0
C782 C 0.52982 0.01081 0.20979 0.0
C783 C 0.53694 0.9938 0.23241 0.0
C784 C 0.52502 0.99566 0.22061 0.0
C785 C 0.51665 0.0128 0.19847 0.0
H786 H 0.4519 0.02463 0.2293 0.0
H787 H 0.47453 0.02985 0.20593 0.0
H788 H 0.44914 0.97715 0.24788 0.0
H789 H 0.472 0.98258 0.22431 0.0
H790 H 0.43511 0.98945 0.15401 0.0
H791 H 0.45755 0.99012 0.17585 0.0
H792 H 0.47042 0.04035 0.13264 0.0
H793 H 0.49275 0.04095 0.15454 0.0
H794 H 0.55611 0.00549 0.14709 0.0
H795 H 0.53231 0.99879 0.16936 0.0
H796 H 0.56095 0.05491 0.13417 0.0
H797 H 0.53723 0.04823 0.15698 0.0
H798 H 0.57171 0.03288 0.22339 0.0
H799 H 0.55079 0.03615 0.20327 0.0
H800 H 0.53276 0.98196 0.24068 0.0
H801 H 0.51198 0.98522 0.22 0.0
N802 N 0.50216 0.00865 0.20856 0.0
N803 N 0.50543 0.02017 0.16917 0.0
C804 C 0.55548 0.99379 0.79531 0.0
C805 C 0.55093 0.98263 0.77764 0.0
C806 C 0.54319 0.99212 0.80933 0.0
C807 C 0.52619 0.97916 0.8061 0.0
C808 C 0.5339 0.96985 0.77435 0.0
C809 C 0.52165 0.96812 0.78843 0.0
C810 C 0.51282 0.97799 0.81989 0.0
C811 C 0.54742 0.96808 0.86146 0.0
C812 C 0.55399 0.9791 0.8792 0.0
C813 C 0.53454 0.96785 0.84909 0.0
C814 C 0.52836 0.97903 0.85394 0.0
C815 C 0.54791 0.99038 0.88388 0.0
C816 C 0.53519 0.99027 0.87145 0.0
C817 C 0.5141 0.97851 0.84194 0.0
C818 C 0.44511 0.96428 0.8672 0.0
C819 C 0.44975 0.97627 0.88401 0.0
C820 C 0.45743 0.96478 0.85408 0.0
C821 C 0.47454 0.97736 0.85741 0.0
C822 C 0.46687 0.98878 0.88729 0.0
C823 C 0.47919 0.9892 0.87426 0.0
C824 C 0.48773 0.97794 0.8438 0.0
C825 C 0.45786 0.99442 0.80394 0.0
C826 C 0.44879 0.98301 0.78717 0.0
C827 C 0.4699 0.99251 0.81543 0.0
C828 C 0.47315 0.97915 0.81037 0.0
C829 C 0.45214 0.96968 0.782 0.0
C830 C 0.46429 0.96785 0.79344 0.0
C831 C 0.48655 0.97768 0.82183 0.0
H832 H 0.56834 0.00423 0.79799 0.0
H833 H 0.54692 0.00128 0.82236 0.0
H834 H 0.53002 0.96123 0.76074 0.0
H835 H 0.50857 0.95822 0.78542 0.0
H836 H 0.55196 0.95932 0.85749 0.0
H837 H 0.52921 0.95872 0.83602 0.0
H838 H 0.55305 0.99944 0.89703 0.0
H839 H 0.53068 0.99903 0.87553 0.0
H840 H 0.43199 0.95472 0.86384 0.0
H841 H 0.45358 0.95533 0.84137 0.0
H842 H 0.47075 0.99822 0.90004 0.0
H843 H 0.49234 0.99895 0.87716 0.0
H844 H 0.45574 0.00495 0.80806 0.0
H845 H 0.47693 0.00173 0.82802 0.0
H846 H 0.44582 0.96097 0.76877 0.0
H847 H 0.46682 0.95765 0.78903 0.0
N848 N 0.49906 0.97755 0.81073 0.0
N849 N 0.50149 0.97849 0.85297 0.0
C850 C 0.98729 0.54906 0.81208 0.0
C851 C 0.99722 0.55587 0.79444 0.0
C852 C 0.9896 0.53799 0.82499 0.0
C853 C 0.00204 0.53364 0.82065 0.0
C854 C 0.00944 0.55117 0.78986 0.0
C855 C 0.01178 0.54015 0.80285 0.0
C856 C 0.00411 0.52127 0.83356 0.0
C857 C 0.01729 0.56701 0.87681 0.0
C858 C 0.00654 0.56298 0.89391 0.0
C859 C 0.01679 0.55384 0.86417 0.0
C860 C 0.00544 0.53644 0.86824 0.0
C861 C 0.99514 0.54557 0.89777 0.0
C862 C 0.99471 0.53245 0.88521 0.0
C863 C 0.00511 0.52225 0.85563 0.0
C864 C 0.02201 0.46715 0.87565 0.0
C865 C 0.01077 0.45868 0.89181 0.0
C866 C 0.02064 0.47949 0.86416 0.0
C867 C 0.00797 0.48353 0.8685 0.0
C868 C 0.99822 0.46288 0.89622 0.0
C869 C 0.99697 0.47536 0.88485 0.0
C870 C 0.00609 0.49615 0.85592 0.0
C871 C 0.98878 0.44892 0.81541 0.0
C872 C 0.99912 0.45109 0.79839 0.0
C873 C 0.99055 0.46315 0.82686 0.0
C874 C 0.00288 0.47993 0.82173 0.0
C875 C 0.01128 0.46799 0.79298 0.0
C876 C 0.01303 0.48225 0.80448 0.0
C877 C 0.00479 0.49502 0.83392 0.0
H878 H 0.97762 0.55223 0.81585 0.0
H879 H 0.98144 0.53262 0.83816 0.0
H880 H 0.01706 0.55564 0.77616 0.0
H881 H 0.02121 0.53666 0.79894 0.0
H882 H 0.02602 0.58024 0.87301 0.0
H883 H 0.02541 0.55724 0.85136 0.0
H884 H 0.98669 0.54207 0.91077 0.0
H885 H 0.9859 0.51914 0.88873 0.0
H886 H 0.03157 0.46395 0.87146 0.0
H887 H 0.02939 0.48579 0.85174 0.0
H888 H 0.98935 0.45647 0.9085 0.0
H889 H 0.98713 0.47833 0.88847 0.0
H890 H 0.97924 0.43613 0.81992 0.0
H891 H 0.98221 0.46102 0.83971 0.0
H892 H 0.0196 0.47039 0.7801 0.0
H893 H 0.0225 0.49511 0.80012 0.0
N894 N 0.00403 0.5077 0.82358 0.0
N895 N 0.00602 0.50961 0.86594 0.0
C896 C 0.5472 0.58745 0.81107 0.0
C897 C 0.55459 0.58096 0.79723 0.0
C898 C 0.53298 0.57618 0.8223 0.0
C899 C 0.52618 0.55824 0.82013 0.0
C900 C 0.54798 0.56302 0.79553 0.0
C901 C 0.53386 0.55182 0.80673 0.0
C902 C 0.51052 0.54586 0.83058 0.0
C903 C 0.54868 0.57397 0.88321 0.0
C904 C 0.54389 0.58263 0.89772 0.0
C905 C 0.53706 0.56264 0.86803 0.0
C906 C 0.52053 0.55996 0.86682 0.0
C907 C 0.52746 0.58018 0.89616 0.0
C908 C 0.51584 0.56882 0.88101 0.0
C909 C 0.50768 0.54689 0.85204 0.0
C910 C 0.44977 0.47621 0.86603 0.0
C911 C 0.43921 0.47939 0.87883 0.0
C912 C 0.46339 0.4897 0.85625 0.0
C913 C 0.4666 0.50668 0.85875 0.0
C914 C 0.44264 0.4965 0.88164 0.0
C915 C 0.45632 0.51003 0.8718 0.0
C916 C 0.48095 0.5209 0.84814 0.0
C917 C 0.44236 0.48723 0.79933 0.0
C918 C 0.44784 0.4783 0.7862 0.0
C919 C 0.454 0.5011 0.8121 0.0
C920 C 0.47127 0.50616 0.81224 0.0
C921 C 0.4652 0.48378 0.78593 0.0
C922 C 0.47681 0.49766 0.79868 0.0
C923 C 0.48362 0.52012 0.8266 0.0
H924 H 0.55214 0.60122 0.81277 0.0
H925 H 0.5271 0.58145 0.83227 0.0
H926 H 0.55372 0.55755 0.78565 0.0
H927 H 0.52892 0.53805 0.8049 0.0
H928 H 0.56134 0.57581 0.88351 0.0
H929 H 0.54091 0.55568 0.85757 0.0
H930 H 0.52345 0.58673 0.90705 0.0
H931 H 0.50312 0.56684 0.88049 0.0
H932 H 0.44752 0.46322 0.86361 0.0
H933 H 0.47143 0.48685 0.84671 0.0
H934 H 0.43473 0.49956 0.89109 0.0
H935 H 0.45868 0.52307 0.87405 0.0
H936 H 0.4291 0.48327 0.8004 0.0
H937 H 0.44945 0.50769 0.82213 0.0
H938 H 0.46977 0.47712 0.77606 0.0
H939 H 0.49008 0.5014 0.79841 0.0
N940 N 0.49836 0.53252 0.81874 0.0
N941 N 0.49297 0.53435 0.85998 0.0
C942 C 0.65585 0.76689 0.48814 0.0
C943 C 0.64429 0.75787 0.4716 0.0
C944 C 0.65354 0.77807 0.50141 0.0
C945 C 0.6396 0.78046 0.49839 0.0
C946 C 0.63034 0.76034 0.46855 0.0
C947 C 0.6281 0.77159 0.48177 0.0
C948 C 0.63772 0.79322 0.51138 0.0
C949 C 0.63165 0.75156 0.55507 0.0
C950 C 0.64207 0.75754 0.57321 0.0
C951 C 0.63047 0.76323 0.54195 0.0
C952 C 0.64007 0.78109 0.54645 0.0
C953 C 0.65119 0.77526 0.57803 0.0
C954 C 0.65032 0.78691 0.56472 0.0
C955 C 0.63872 0.7939 0.53346 0.0
C956 C 0.6275 0.8531 0.55661 0.0
C957 C 0.64024 0.86117 0.57222 0.0
C958 C 0.62654 0.8397 0.54401 0.0
C959 C 0.63831 0.83413 0.54687 0.0
C960 C 0.65163 0.85514 0.57552 0.0
C961 C 0.65063 0.84175 0.56298 0.0
C962 C 0.63767 0.82 0.53381 0.0
C963 C 0.6506 0.86376 0.49159 0.0
C964 C 0.63818 0.86024 0.47606 0.0
C965 C 0.65018 0.85048 0.50306 0.0
C966 C 0.63714 0.83336 0.49949 0.0
C967 C 0.62526 0.84299 0.47225 0.0
C968 C 0.62486 0.82968 0.48377 0.0
C969 C 0.63658 0.8193 0.5118 0.0
H970 H 0.66684 0.76546 0.49067 0.0
H971 H 0.66288 0.78514 0.51375 0.0
H972 H 0.62145 0.75409 0.4556 0.0
H973 H 0.61744 0.7735 0.4789 0.0
H974 H 0.62413 0.73787 0.55131 0.0
H975 H 0.62182 0.75824 0.52858 0.0
H976 H 0.65923 0.78013 0.59198 0.0
H977 H 0.65771 0.80057 0.56877 0.0
H978 H 0.61842 0.85734 0.55396 0.0
H979 H 0.61658 0.83366 0.5321 0.0
H980 H 0.66122 0.86059 0.58788 0.0
H981 H 0.65965 0.83745 0.56575 0.0
H982 H 0.66073 0.87687 0.49486 0.0
H983 H 0.66007 0.85361 0.51473 0.0
H984 H 0.61527 0.83964 0.46071 0.0
H985 H 0.61476 0.81653 0.48068 0.0
N986 N 0.63653 0.80588 0.50144 0.0
N987 N 0.6387 0.80731 0.54367 0.0
C988 C 0.13624 0.75433 0.4726 0.0
C989 C 0.12987 0.76006 0.45648 0.0
C990 C 0.14756 0.76599 0.48782 0.0
C991 C 0.15283 0.78363 0.487 0.0
C992 C 0.13522 0.77774 0.45572 0.0
C993 C 0.14663 0.78938 0.47077 0.0
C994 C 0.16568 0.79639 0.50201 0.0
C995 C 0.11933 0.7659 0.53972 0.0
C996 C 0.1214 0.75737 0.55665 0.0
C997 C 0.13331 0.77776 0.52874 0.0
C998 C 0.14965 0.78108 0.53419 0.0
C999 C 0.13775 0.76044 0.56184 0.0
C1000 C 0.15174 0.77231 0.55081 0.0
C1001 C 0.16467 0.79474 0.52387 0.0
C1002 C 0.21837 0.86464 0.55595 0.0
C1003 C 0.22546 0.86023 0.57273 0.0
C1004 C 0.20736 0.85203 0.54137 0.0
C1005 C 0.2032 0.83476 0.54317 0.0
C1006 C 0.22094 0.84286 0.57473 0.0
C1007 C 0.20989 0.83025 0.56015 0.0
C1008 C 0.19097 0.82122 0.52828 0.0
C1009 C 0.23616 0.85564 0.48971 0.0
C1010 C 0.23254 0.86341 0.47314 0.0
C1011 C 0.22307 0.84267 0.50092 0.0
C1012 C 0.20609 0.83729 0.49576 0.0
C1013 C 0.2155 0.85779 0.46783 0.0
C1014 C 0.20246 0.84489 0.47904 0.0
C1015 C 0.19193 0.82285 0.50638 0.0
H1016 H 0.13252 0.74082 0.47335 0.0
H1017 H 0.15249 0.7613 0.4999 0.0
H1018 H 0.13106 0.78275 0.44315 0.0
H1019 H 0.15073 0.80297 0.46965 0.0
H1020 H 0.10691 0.76382 0.5354 0.0
H1021 H 0.13138 0.78473 0.51641 0.0
H1022 H 0.13986 0.75381 0.57441 0.0
H1023 H 0.16425 0.77472 0.55533 0.0
H1024 H 0.22089 0.87768 0.55419 0.0
H1025 H 0.20182 0.85575 0.52891 0.0
H1026 H 0.226 0.83902 0.58761 0.0
H1027 H 0.20662 0.81696 0.56208 0.0
H1028 H 0.24915 0.85953 0.49393 0.0
H1029 H 0.22621 0.83662 0.51329 0.0
H1030 H 0.21206 0.86292 0.45472 0.0
H1031 H 0.18946 0.84073 0.4745 0.0
N1032 N 0.17922 0.8104 0.49419 0.0
N1033 N 0.17741 0.80716 0.53614 0.0
C1034 C 0.2372 0.38553 0.48947 0.0
C1035 C 0.23193 0.37512 0.47112 0.0
C1036 C 0.22523 0.38442 0.50374 0.0
C1037 C 0.2079 0.37255 0.50011 0.0
C1038 C 0.21468 0.36337 0.46753 0.0
C1039 C 0.20283 0.36197 0.48193 0.0
C1040 C 0.19461 0.37226 0.51344 0.0
C1041 C 0.2252 0.35999 0.55859 0.0
C1042 C 0.23231 0.37144 0.57598 0.0
C1043 C 0.21368 0.36113 0.54502 0.0
C1044 C 0.20912 0.37379 0.54842 0.0
C1045 C 0.22771 0.38408 0.57928 0.0
C1046 C 0.21622 0.38522 0.5657 0.0
C1047 C 0.19564 0.37399 0.53545 0.0
C1048 C 0.12556 0.35711 0.55834 0.0
C1049 C 0.12949 0.36952 0.57447 0.0
C1050 C 0.13821 0.35819 0.54538 0.0
C1051 C 0.15499 0.3718 0.5481 0.0
C1052 C 0.14631 0.38296 0.57735 0.0
C1053 C 0.15894 0.3841 0.56429 0.0
C1054 C 0.16871 0.37254 0.53536 0.0
C1055 C 0.13326 0.37646 0.4875 0.0
C1056 C 0.12735 0.36355 0.47156 0.0
C1057 C 0.14597 0.37845 0.50174 0.0
C1058 C 0.15282 0.36749 0.50033 0.0
C1059 C 0.13409 0.35254 0.47048 0.0
C1060 C 0.14664 0.35447 0.48467 0.0
C1061 C 0.1675 0.37028 0.51345 0.0
H1062 H 0.25044 0.39497 0.49238 0.0
H1063 H 0.2295 0.39324 0.51714 0.0
H1064 H 0.21035 0.35522 0.45349 0.0
H1065 H 0.18956 0.3528 0.4786 0.0
H1066 H 0.22788 0.34969 0.55576 0.0
H1067 H 0.2079 0.35171 0.53229 0.0
H1068 H 0.23283 0.39296 0.59263 0.0
H1069 H 0.21271 0.39491 0.56886 0.0
H1070 H 0.11291 0.34616 0.55614 0.0
H1071 H 0.13495 0.3481 0.53362 0.0
H1072 H 0.14973 0.39253 0.58985 0.0
H1073 H 0.17184 0.39454 0.56692 0.0
H1074 H 0.12866 0.38545 0.48855 0.0
H1075 H 0.15085 0.3889 0.51333 0.0
H1076 H 0.12982 0.34254 0.45835 0.0
H1077 H 0.15178 0.34593 0.48317 0.0
N1078 N 0.18054 0.37036 0.5035 0.0
N1079 N 0.18274 0.37431 0.54548 0.0
H1080 H 0.98394 0.36795 0.02903 0.0
C1081 C 0.99379 0.36454 0.03049 0.0
H1082 H 0.01431 0.36737 0.0494 0.0
H1083 H 0.00439 0.43437 0.07201 0.0
H1084 H 0.01963 0.44533 0.0402 0.0
H1085 H 0.0282 0.42791 0.01896 0.0
H1086 H 0.02071 0.39899 0.02889 0.0
C1087 C 0.00414 0.37023 0.04746 0.0
C1088 C 0.00275 0.38206 0.06291 0.0
C1089 C 0.00797 0.39925 0.05748 0.0
C1090 C 0.00413 0.40977 0.07056 0.0
C1091 C 0.00799 0.42622 0.06355 0.0
C1092 C 0.01658 0.43262 0.04513 0.0
C1093 C 0.0213 0.42277 0.03309 0.0
C1094 C 0.0169 0.4062 0.03896 0.0
H1095 H 0.01699 0.43455 0.10793 0.0
C1096 C 0.00384 0.42965 0.11193 0.0
H1097 H 0.97866 0.40922 0.10721 0.0
H1098 H 0.99252 0.35035 0.0786 0.0
H1099 H 0.97939 0.34 0.11197 0.0
H1100 H 0.97415 0.3587 0.13574 0.0
H1101 H 0.98182 0.38777 0.12627 0.0
C1102 C 0.99191 0.41426 0.10377 0.0
C1103 C 0.99621 0.4035 0.08991 0.0
C1104 C 0.99188 0.38662 0.09584 0.0
C1105 C 0.99508 0.37587 0.08227 0.0
C1106 C 0.99037 0.359 0.08839 0.0
C1107 C 0.98287 0.35293 0.1075 0.0
C1108 C 0.97991 0.36346 0.12087 0.0
C1109 C 0.98434 0.38011 0.11522 0.0
H1110 H 0.64578 0.60007 0.06064 0.0
C1111 C 0.6458 0.61164 0.0661 0.0
H1112 H 0.63542 0.62212 0.08697 0.0
H1113 H 0.57625 0.53896 0.08168 0.0
H1114 H 0.57364 0.54269 0.04468 0.0
H1115 H 0.59315 0.57017 0.02834 0.0
H1116 H 0.61528 0.59399 0.04875 0.0
C1117 C 0.63501 0.61054 0.08081 0.0
C1118 C 0.62304 0.59392 0.09037 0.0
C1119 C 0.60959 0.58044 0.07827 0.0
C1120 C 0.59788 0.56489 0.08787 0.0
C1121 C 0.58509 0.55128 0.07531 0.0
C1122 C 0.58351 0.55321 0.05404 0.0
C1123 C 0.59449 0.56867 0.04483 0.0
C1124 C 0.60731 0.58221 0.05674 0.0
H1125 H 0.56703 0.55442 0.11356 0.0
C1126 C 0.56995 0.5456 0.12159 0.0
H1127 H 0.58915 0.53942 0.12781 0.0
H1128 H 0.64787 0.61679 0.11775 0.0
H1129 H 0.65004 0.61318 0.15484 0.0
H1130 H 0.62889 0.58674 0.17175 0.0
H1131 H 0.60553 0.56369 0.15162 0.0
C1132 C 0.58567 0.54799 0.12032 0.0
C1133 C 0.59909 0.56322 0.10969 0.0
C1134 C 0.61267 0.57654 0.12168 0.0
C1135 C 0.62469 0.59188 0.112 0.0
C1136 C 0.63821 0.60496 0.12434 0.0
C1137 C 0.63964 0.60304 0.14565 0.0
C1138 C 0.62775 0.58815 0.15517 0.0
C1139 C 0.6144 0.57501 0.14341 0.0
H1140 H 0.40496 0.02659 0.0282 0.0
C1141 C 0.39166 0.01726 0.03036 0.0
H1142 H 0.3738 0.99946 0.05089 0.0
H1143 H 0.43223 0.99133 0.09488 0.0
H1144 H 0.41724 0.96446 0.07477 0.0
H1145 H 0.39395 0.95903 0.05018 0.0
H1146 H 0.38559 0.98053 0.04549 0.0
C1147 C 0.38683 0.00953 0.04875 0.0
C1148 C 0.39972 0.01232 0.06516 0.0
C1149 C 0.40406 0.99938 0.06825 0.0
C1150 C 0.41729 0.00239 0.08271 0.0
C1151 C 0.42195 0.98958 0.08463 0.0
C1152 C 0.41353 0.97411 0.07304 0.0
C1153 C 0.40043 0.97106 0.05918 0.0
C1154 C 0.39574 0.98352 0.05668 0.0
H1155 H 0.42425 0.00337 0.13047 0.0
C1156 C 0.4372 0.01303 0.12706 0.0
H1157 H 0.4527 0.03115 0.10487 0.0
H1158 H 0.39366 0.03924 0.064 0.0
H1159 H 0.40853 0.06616 0.08429 0.0
H1160 H 0.43143 0.07139 0.10946 0.0
H1161 H 0.4396 0.04974 0.11455 0.0
C1162 C 0.44 0.02164 0.10924 0.0
C1163 C 0.42585 0.01819 0.09447 0.0
C1164 C 0.42131 0.03101 0.09159 0.0
C1165 C 0.40819 0.02805 0.07697 0.0
C1166 C 0.40373 0.04096 0.07466 0.0
C1167 C 0.4121 0.05642 0.08627 0.0
C1168 C 0.42499 0.05936 0.10045 0.0
C1169 C 0.42958 0.04685 0.10318 0.0
H1170 H 0.36662 0.95736 0.96917 0.0
C1171 C 0.36636 0.96853 0.9633 0.0
H1172 H 0.37518 0.9877 0.94063 0.0
H1173 H 0.43539 0.96718 0.9387 0.0
H1174 H 0.44168 0.97742 0.97484 0.0
H1175 H 0.42334 0.98576 0.99361 0.0
H1176 H 0.39848 0.98359 0.97656 0.0
C1177 C 0.37597 0.97703 0.94719 0.0
C1178 C 0.38687 0.97154 0.93648 0.0
C1179 C 0.40165 0.97343 0.94663 0.0
C1180 C 0.41267 0.96942 0.93553 0.0
C1181 C 0.42697 0.9707 0.94619 0.0
C1182 C 0.43066 0.97646 0.96696 0.0
C1183 C 0.4203 0.98109 0.97755 0.0
C1184 C 0.40598 0.97967 0.96758 0.0
H1185 H 0.44027 0.98887 0.90547 0.0
C1186 C 0.43704 0.97662 0.8978 0.0
H1187 H 0.41838 0.95015 0.89447 0.0
H1188 H 0.35891 0.96521 0.91304 0.0
H1189 H 0.35297 0.95545 0.87675 0.0
H1190 H 0.37275 0.94971 0.8571 0.0
H1191 H 0.39852 0.95356 0.87364 0.0
C1192 C 0.42199 0.96266 0.90154 0.0
C1193 C 0.40931 0.96433 0.91411 0.0
C1194 C 0.39426 0.96189 0.9042 0.0
C1195 C 0.38301 0.96546 0.91543 0.0
C1196 C 0.36805 0.96294 0.90516 0.0
C1197 C 0.36445 0.95729 0.88435 0.0
C1198 C 0.37558 0.95404 0.87329 0.0
C1199 C 0.39033 0.9563 0.883 0.0
H1200 H 0.04125 0.39554 0.96529 0.0
C1201 C 0.03066 0.38335 0.95948 0.0
H1202 H 0.01009 0.37111 0.93776 0.0
H1203 H 0.01774 0.44822 0.94495 0.0
H1204 H 0.0065 0.43983 0.97952 0.0
H1205 H 0.00173 0.41247 0.99392 0.0
H1206 H 0.0091 0.39385 0.97442 0.0
C1207 C 0.02027 0.38323 0.94433 0.0
C1208 C 0.02252 0.39941 0.93543 0.0
C1209 C 0.01792 0.41001 0.94699 0.0
C1210 C 0.01966 0.42523 0.93815 0.0
C1211 C 0.01587 0.43608 0.95048 0.0
C1212 C 0.00954 0.43149 0.97042 0.0
C1213 C 0.00698 0.41615 0.9786 0.0
C1214 C 0.01126 0.40557 0.9672 0.0
H1215 H -0.00061 0.43475 0.90968 0.0
C1216 C 0.01122 0.44481 0.90352 0.0
H1217 H 0.03754 0.45429 0.90149 0.0
H1218 H 0.03252 0.38191 0.90928 0.0
H1219 H 0.04195 0.38921 0.87381 0.0
H1220 H 0.04363 0.41481 0.85777 0.0
H1221 H 0.03606 0.43334 0.87711 0.0
C1222 C 0.0255 0.44428 0.90714 0.0
C1223 C 0.02508 0.42928 0.91733 0.0
C1224 C 0.02964 0.41863 0.90578 0.0
C1225 C 0.02842 0.40372 0.91488 0.0
C1226 C 0.03305 0.3933 0.90303 0.0
C1227 C 0.0385 0.39735 0.88266 0.0
C1228 C 0.03947 0.41177 0.87364 0.0
C1229 C 0.03511 0.42233 0.88497 0.0
H1230 H 0.6312 0.63509 0.98307 0.0
C1231 C 0.62522 0.63599 0.99722 0.0
H1232 H 0.60226 0.63055 0.011 0.0
H1233 H 0.58669 0.62247 0.90736 0.0
H1234 H 0.60696 0.65312 0.90629 0.0
H1235 H 0.62269 0.66957 0.93815 0.0
H1236 H 0.61845 0.65541 0.97119 0.0
C1237 C 0.60848 0.63021 0.99682 0.0
C1238 C 0.59765 0.62099 0.97801 0.0
C1239 C 0.59985 0.62962 0.95897 0.0
C1240 C 0.5903 0.62028 0.94076 0.0
C1241 C 0.59327 0.62903 0.92177 0.0
C1242 C 0.60491 0.64662 0.92092 0.0
C1243 C 0.61381 0.65586 0.93885 0.0
C1244 C 0.61134 0.64755 0.95769 0.0
H1245 H 0.55268 0.60327 0.92231 0.0
C1246 C 0.55549 0.59401 0.91488 0.0
H1247 H 0.57068 0.58237 0.91698 0.0
H1248 H 0.58954 0.60062 0.01224 0.0
H1249 H 0.56786 0.57049 0.0137 0.0
H1250 H 0.55081 0.55458 0.98235 0.0
H1251 H 0.55515 0.56877 0.94935 0.0
C1252 C 0.56835 0.59242 0.92279 0.0
C1253 C 0.57815 0.60248 0.94179 0.0
C1254 C 0.57545 0.59403 0.961 0.0
C1255 C 0.58521 0.60327 0.97912 0.0
C1256 C 0.58236 0.59437 0.99802 0.0
C1257 C 0.57001 0.57702 0.99908 0.0
C1258 C 0.56039 0.56806 0.98143 0.0
C1259 C 0.56304 0.57637 0.96257 0.0
H1260 H 0.03656 0.64614 0.98812 0.0
C1261 C 0.02493 0.64667 0.98722 0.0
H1262 H 0.00166 0.63794 0.97082 0.0
H1263 H 0.0205 0.61522 0.88659 0.0
H1264 H 0.01928 0.64038 0.87574 0.0
H1265 H 0.01675 0.6596 0.90167 0.0
H1266 H 0.01531 0.65374 0.93861 0.0
C1267 C 0.01344 0.63771 0.97188 0.0
C1268 C 0.01594 0.62658 0.95644 0.0
C1269 C 0.01697 0.63029 0.93494 0.0
C1270 C 0.01864 0.61932 0.92 0.0
C1271 C 0.01936 0.6232 0.8986 0.0
C1272 C 0.01867 0.63759 0.89216 0.0
C1273 C 0.01723 0.64841 0.90676 0.0
C1274 C 0.01639 0.64487 0.92791 0.0
H1275 H 0.99582 0.57241 0.91803 0.0
C1276 C 0.0067 0.57635 0.90817 0.0
H1277 H 0.03111 0.59716 0.90157 0.0
H1278 H 0.01217 0.61418 0.99617 0.0
H1279 H 0.01545 0.59033 0.0071 0.0
H1280 H 0.02106 0.57303 0.98153 0.0
H1281 H 0.02333 0.57949 0.94479 0.0
C1282 C 0.01985 0.59254 0.91078 0.0
C1283 C 0.01934 0.60468 0.92658 0.0
C1284 C 0.01896 0.60132 0.94815 0.0
C1285 C 0.01668 0.61191 0.96304 0.0
C1286 C 0.01492 0.6073 0.98427 0.0
C1287 C 0.01655 0.59346 0.99077 0.0
C1288 C 0.01966 0.58369 0.97637 0.0
C1289 C 0.02082 0.58748 0.9553 0.0
H1290 H 0.35337 0.40652 0.95644 0.0
C1291 C 0.35401 0.39582 0.94914 0.0
H1292 H 0.36568 0.38828 0.92634 0.0
H1293 H 0.39274 0.45509 0.87357 0.0
H1294 H 0.36851 0.43496 0.85194 0.0
H1295 H 0.34815 0.4061 0.86443 0.0
H1296 H 0.35168 0.39736 0.89886 0.0
C1297 C 0.36539 0.3989 0.93438 0.0
C1298 C 0.3772 0.41664 0.92746 0.0
C1299 C 0.37512 0.42139 0.90716 0.0
C1300 C 0.38707 0.43785 0.89974 0.0
C1301 C 0.38434 0.44252 0.8797 0.0
C1302 C 0.37043 0.43113 0.86717 0.0
C1303 C 0.35894 0.4149 0.87424 0.0
C1304 C 0.36115 0.41004 0.89401 0.0
H1305 H 0.42173 0.45157 0.88281 0.0
C1306 C 0.42469 0.46436 0.88838 0.0
H1307 H 0.41808 0.47767 0.91068 0.0
H1308 H 0.38481 0.41176 0.96744 0.0
H1309 H 0.40818 0.43245 0.98956 0.0
H1310 H 0.429 0.46096 0.97662 0.0
H1311 H 0.42626 0.46908 0.94151 0.0
C1312 C 0.41522 0.46538 0.90362 0.0
C1313 C 0.40135 0.44932 0.91243 0.0
C1314 C 0.40298 0.44493 0.93311 0.0
C1315 C 0.39094 0.4285 0.94061 0.0
C1316 C 0.39328 0.42418 0.96105 0.0
C1317 C 0.40678 0.43589 0.97388 0.0
C1318 C 0.41847 0.45196 0.9666 0.0
C1319 C 0.41673 0.45645 0.94643 0.0
H1320 H 0.60158 0.96996 0.99111 0.0
C1321 C 0.61502 0.97892 0.9893 0.0
H1322 H 0.6337 0.99649 0.96942 0.0
H1323 H 0.56229 0.95012 0.91082 0.0
H1324 H 0.56592 0.92555 0.91681 0.0
H1325 H 0.58928 0.92839 0.93953 0.0
H1326 H 0.60895 0.95582 0.95673 0.0
C1327 C 0.62039 0.98706 0.97121 0.0
C1328 C 0.60804 0.9858 0.95483 0.0
C1329 C 0.59715 0.96991 0.94412 0.0
C1330 C 0.58415 0.96847 0.93026 0.0
C1331 C 0.57278 0.95215 0.92085 0.0
C1332 C 0.57466 0.93789 0.92425 0.0
C1333 C 0.58778 0.93948 0.9371 0.0
C1334 C 0.59892 0.95526 0.94697 0.0
H1335 H 0.5762 0.97578 0.88515 0.0
C1336 C 0.56731 0.97883 0.89248 0.0
H1337 H 0.55936 0.98446 0.92086 0.0
H1338 H 0.62718 0.01841 0.97225 0.0
H1339 H 0.6245 0.04333 0.96487 0.0
H1340 H 0.60292 0.04119 0.93951 0.0
H1341 H 0.58377 0.01404 0.92155 0.0
C1342 C 0.56837 0.98177 0.91325 0.0
C1343 C 0.58256 0.98315 0.92648 0.0
C1344 C 0.59398 0.99923 0.93645 0.0
C1345 C 0.60666 0.00055 0.95072 0.0
C1346 C 0.61749 0.01668 0.96098 0.0
C1347 C 0.61608 0.03112 0.95693 0.0
C1348 C 0.60391 0.02991 0.94268 0.0
C1349 C 0.59296 0.01421 0.93253 0.0
H1350 H 0.62755 0.00992 0.07566 0.0
C1351 C 0.63431 0.01945 0.06394 0.0
H1352 H 0.63706 0.04164 0.04925 0.0
H1353 H 0.56148 0.01779 0.07836 0.0
H1354 H 0.55699 0.01292 0.04084 0.0
H1355 H 0.58036 0.01722 0.0182 0.0
H1356 H 0.6084 0.02651 0.03295 0.0
C1357 C 0.63097 0.03225 0.06129 0.0
C1358 C 0.61793 0.03293 0.07424 0.0
C1359 C 0.60175 0.02779 0.06534 0.0
C1360 C 0.58826 0.02517 0.07841 0.0
C1361 C 0.57213 0.01981 0.06916 0.0
C1362 C 0.5694 0.01701 0.04765 0.0
C1363 C 0.58256 0.01944 0.0349 0.0
C1364 C 0.59857 0.02474 0.04355 0.0
H1365 H 0.58357 0.0486 0.1222 0.0
C1366 C 0.57449 0.03504 0.12443 0.0
H1367 H 0.5669 0.00946 0.11454 0.0
H1368 H 0.64819 0.04592 0.09556 0.0
H1369 H 0.65286 0.05087 0.13307 0.0
H1370 H 0.62919 0.04486 0.15607 0.0
H1371 H 0.60084 0.03413 0.14177 0.0
C1372 C 0.57645 0.02302 0.11403 0.0
C1373 C 0.59103 0.02777 0.10031 0.0
C1374 C 0.60748 0.03381 0.1091 0.0
C1375 C 0.621 0.03669 0.09596 0.0
C1376 C 0.63739 0.04306 0.10497 0.0
C1377 C 0.64025 0.04603 0.12644 0.0
C1378 C 0.62694 0.0427 0.13938 0.0
C1379 C 0.61071 0.03661 0.13092 0.0
H1380 H 0.9973 0.62916 0.06891 0.0
C1381 C 0.98713 0.6265 0.05776 0.0
H1382 H 0.96452 0.60717 0.04289 0.0
H1383 H 0.98351 0.54911 0.05909 0.0
H1384 H 0.98348 0.54997 0.02127 0.0
H1385 H 0.9795 0.57177 0.00317 0.0
H1386 H 0.97571 0.59296 0.02273 0.0
C1387 C 0.97451 0.61018 0.05445 0.0
C1388 C 0.97483 0.59578 0.06526 0.0
C1389 C 0.97708 0.58353 0.05356 0.0
C1390 C 0.97946 0.57101 0.064 0.0
C1391 C 0.98175 0.55896 0.05195 0.0
C1392 C 0.98173 0.55929 0.03024 0.0
C1393 C 0.97949 0.57157 0.02005 0.0
C1394 C 0.9773 0.58365 0.03148 0.0
H1395 H 0.95853 0.54368 0.10785 0.0
C1396 C 0.97105 0.54504 0.10726 0.0
H1397 H 0.99589 0.56047 0.09611 0.0
H1398 H 0.96753 0.61516 0.09209 0.0
H1399 H 0.96771 0.61447 0.12989 0.0
H1400 H 0.97398 0.59425 0.14815 0.0
H1401 H 0.97976 0.5744 0.12875 0.0
C1402 C 0.98313 0.55833 0.0969 0.0
C1403 C 0.97956 0.57075 0.0861 0.0
C1404 C 0.97681 0.58269 0.09779 0.0
C1405 C 0.97402 0.59492 0.08732 0.0
C1406 C 0.97045 0.60611 0.0993 0.0
C1407 C 0.97039 0.60576 0.121 0.0
C1408 C 0.97385 0.59434 0.13127 0.0
C1409 C 0.97706 0.58293 0.1199 0.0
H1410 H 0.36833 0.37165 0.02839 0.0
C1411 C 0.3746 0.37008 0.01494 0.0
H1412 H 0.39752 0.37373 0.003 0.0
H1413 H 0.44593 0.4375 0.06097 0.0
H1414 H 0.4529 0.44904 0.02636 0.0
H1415 H 0.43645 0.43162 0.99541 0.0
H1416 H 0.41292 0.40264 0.99883 0.0
C1417 C 0.39117 0.37509 0.01648 0.0
C1418 C 0.40173 0.38502 0.03521 0.0
C1419 C 0.41531 0.40213 0.03289 0.0
C1420 C 0.42462 0.41231 0.05077 0.0
C1421 C 0.43824 0.42927 0.04798 0.0
C1422 C 0.44243 0.43606 0.02818 0.0
C1423 C 0.43319 0.42625 0.01076 0.0
C1424 C 0.41972 0.40955 0.01298 0.0
H1425 H 0.44114 0.4031 0.09891 0.0
C1426 C 0.44027 0.41466 0.1014 0.0
H1427 H 0.428 0.4282 0.09187 0.0
H1428 H 0.37891 0.35171 0.04487 0.0
H1429 H 0.37183 0.34024 0.07957 0.0
H1430 H 0.38636 0.35866 0.11076 0.0
H1431 H 0.40829 0.38854 0.10742 0.0
C1432 C 0.42931 0.4169 0.08949 0.0
C1433 C 0.42025 0.40549 0.07097 0.0
C1434 C 0.40702 0.38824 0.07328 0.0
C1435 C 0.39803 0.37786 0.05533 0.0
C1436 C 0.38556 0.36039 0.058 0.0
C1437 C 0.38148 0.3536 0.07782 0.0
C1438 C 0.3897 0.36396 0.09538 0.0
C1439 C 0.40232 0.38108 0.09323 0.0
H1440 H 0.63435 0.69488 0.36204 0.0
C1441 C 0.64433 0.69187 0.36499 0.0
H1442 H 0.66268 0.69366 0.38701 0.0
H1443 H 0.64928 0.75716 0.41661 0.0
H1444 H 0.66402 0.77079 0.38524 0.0
H1445 H 0.67255 0.75539 0.36039 0.0
H1446 H 0.66641 0.72629 0.36674 0.0
C1447 C 0.65266 0.69649 0.38356 0.0
C1448 C 0.6489 0.70635 0.3995 0.0
C1449 C 0.65332 0.7237 0.39601 0.0
C1450 C 0.64891 0.7328 0.4107 0.0
C1451 C 0.65276 0.74981 0.40632 0.0
C1452 C 0.66116 0.75778 0.38831 0.0
C1453 C 0.66595 0.74911 0.37431 0.0
C1454 C 0.66219 0.73232 0.37807 0.0
H1455 H 0.66088 0.74979 0.4562 0.0
C1456 C 0.64787 0.74706 0.45698 0.0
H1457 H 0.6227 0.7303 0.44584 0.0
H1458 H 0.63921 0.6736 0.41128 0.0
H1459 H 0.62509 0.66019 0.44316 0.0
H1460 H 0.61801 0.67619 0.469 0.0
H1461 H 0.62497 0.7057 0.46313 0.0
C1462 C 0.636 0.73427 0.44462 0.0
C1463 C 0.64063 0.72476 0.42922 0.0
C1464 C 0.63654 0.70757 0.4329 0.0
C1465 C 0.64071 0.69837 0.41805 0.0
C1466 C 0.63639 0.68118 0.42209 0.0
C1467 C 0.62828 0.67334 0.44031 0.0
C1468 C 0.62429 0.68235 0.45486 0.0
C1469 C 0.62834 0.69926 0.45129 0.0
H1470 H 0.29181 0.95841 0.41179 0.0
C1471 C 0.30003 0.95628 0.40155 0.0
H1472 H 0.30642 0.93806 0.39 0.0
H1473 H 0.26656 0.9079 0.47942 0.0
H1474 H 0.29247 0.93071 0.49578 0.0
H1475 H 0.31594 0.9514 0.47449 0.0
H1476 H 0.31348 0.94956 0.43669 0.0
C1477 C 0.29858 0.94063 0.40037 0.0
C1478 C 0.28584 0.92641 0.41299 0.0
C1479 C 0.28781 0.92717 0.43504 0.0
C1480 C 0.27458 0.91478 0.44727 0.0
C1481 C 0.27644 0.91653 0.4693 0.0
C1482 C 0.29123 0.92964 0.47892 0.0
C1483 C 0.30441 0.94133 0.46695 0.0
C1484 C 0.3028 0.94018 0.44526 0.0
H1485 H 0.25886 0.87718 0.46203 0.0
C1486 C 0.24675 0.87676 0.46117 0.0
H1487 H 0.23374 0.88882 0.44887 0.0
H1488 H 0.27867 0.92067 0.37106 0.0
H1489 H 0.25332 0.89706 0.35449 0.0
H1490 H 0.23074 0.87496 0.37561 0.0
H1491 H 0.23332 0.87639 0.41341 0.0
C1492 C 0.24548 0.88857 0.44987 0.0
C1493 C 0.25973 0.90123 0.43734 0.0
C1494 C 0.25812 0.90005 0.41525 0.0
C1495 C 0.2712 0.91267 0.40306 0.0
C1496 C 0.26914 0.91136 0.38105 0.0
C1497 C 0.25466 0.89788 0.37134 0.0
C1498 C 0.24195 0.88545 0.38323 0.0
C1499 C 0.24358 0.88644 0.40492 0.0
H1500 H 0.04294 0.34525 0.38676 0.0
C1501 C 0.05143 0.35075 0.37383 0.0
H1502 H 0.0769 0.36475 0.36475 0.0
H1503 H 0.11267 0.39916 0.45015 0.0
H1504 H 0.11605 0.42397 0.43156 0.0
H1505 H 0.10077 0.42024 0.39809 0.0
H1506 H 0.08215 0.39167 0.38287 0.0
C1507 C 0.06826 0.359 0.37749 0.0
C1508 C 0.07579 0.36094 0.39884 0.0
C1509 C 0.08629 0.3777 0.4078 0.0
C1510 C 0.09488 0.37986 0.42728 0.0
C1511 C 0.10572 0.39677 0.4355 0.0
C1512 C 0.10777 0.41114 0.425 0.0
C1513 C 0.09918 0.40903 0.40614 0.0
C1514 C 0.08856 0.39256 0.39756 0.0
H1515 H 0.11488 0.35482 0.44055 0.0
C1516 C 0.11511 0.36172 0.45482 0.0
H1517 H 0.10375 0.37444 0.47001 0.0
H1518 H 0.05766 0.32678 0.38568 0.0
H1519 H 0.05245 0.3021 0.40573 0.0
H1520 H 0.0647 0.3059 0.4413 0.0
H1521 H 0.0827 0.33456 0.4567 0.0
C1522 C 0.10413 0.36753 0.45615 0.0
C1523 C 0.09281 0.36522 0.43788 0.0
C1524 C 0.08123 0.34842 0.42976 0.0
C1525 C 0.07324 0.34625 0.40985 0.0
C1526 C 0.06324 0.32929 0.40123 0.0
C1527 C 0.06027 0.31495 0.41251 0.0
C1528 C 0.06722 0.31709 0.43248 0.0
C1529 C 0.07762 0.33359 0.44107 0.0
H1530 H 0.04897 0.32064 0.28641 0.0
C1531 C 0.03944 0.31062 0.29588 0.0
H1532 H 0.02946 0.28503 0.30604 0.0
H1533 H 0.0714 0.29548 0.21759 0.0
H1534 H 0.04633 0.29333 0.20126 0.0
H1535 H 0.02253 0.28991 0.22244 0.0
H1536 H 0.0239 0.28896 0.26021 0.0
C1537 C 0.03866 0.29529 0.29658 0.0
C1538 C 0.05054 0.29232 0.28394 0.0
C1539 C 0.04914 0.2918 0.26186 0.0
C1540 C 0.06253 0.29298 0.24964 0.0
C1541 C 0.06135 0.29386 0.22768 0.0
C1542 C 0.04705 0.29276 0.21807 0.0
C1543 C 0.03368 0.2909 0.22999 0.0
C1544 C 0.03466 0.29046 0.25163 0.0
H1545 H 0.07956 0.27297 0.23137 0.0
C1546 C 0.09137 0.28513 0.2337 0.0
H1547 H 0.10325 0.30942 0.24979 0.0
H1548 H 0.05591 0.2912 0.32573 0.0
H1549 H 0.08015 0.29144 0.34228 0.0
H1550 H 0.10299 0.29244 0.32113 0.0
H1551 H 0.10181 0.29332 0.28333 0.0
C1552 C 0.09184 0.29698 0.2473 0.0
C1553 C 0.07691 0.29379 0.25959 0.0
C1554 C 0.07764 0.29291 0.28161 0.0
C1555 C 0.06442 0.29217 0.29381 0.0
C1556 C 0.06563 0.29174 0.31579 0.0
C1557 C 0.07945 0.29184 0.32545 0.0
C1558 C 0.09231 0.29241 0.31354 0.0
C1559 C 0.0915 0.29295 0.29187 0.0
H1560 H 0.67908 0.7133 0.2868 0.0
C1561 C 0.68853 0.71461 0.29834 0.0
H1562 H 0.71183 0.7318 0.31372 0.0
H1563 H 0.70274 0.76742 0.22629 0.0
H1564 H 0.70528 0.74509 0.20772 0.0
H1565 H 0.70847 0.72322 0.22682 0.0
H1566 H 0.70873 0.72335 0.26466 0.0
C1567 C 0.70242 0.73011 0.30192 0.0
C1568 C 0.70454 0.74545 0.29066 0.0
C1569 C 0.70548 0.74584 0.26858 0.0
C1570 C 0.70462 0.75903 0.25762 0.0
C1571 C 0.70417 0.75825 0.23551 0.0
C1572 C 0.7055 0.7454 0.22461 0.0
C1573 C 0.70723 0.73304 0.23535 0.0
C1574 C 0.70722 0.73319 0.25707 0.0
H1575 H 0.72622 0.79706 0.24476 0.0
C1576 C 0.71467 0.79767 0.24616 0.0
H1577 H 0.69026 0.78578 0.2591 0.0
H1578 H 0.70424 0.74948 0.33307 0.0
H1579 H 0.70401 0.77311 0.35185 0.0
H1580 H 0.70372 0.79667 0.33294 0.0
H1581 H 0.70377 0.79681 0.29509 0.0
C1582 C 0.70212 0.78585 0.25762 0.0
C1583 C 0.70387 0.77243 0.26886 0.0
C1584 C 0.70405 0.77264 0.29098 0.0
C1585 C 0.70436 0.75912 0.3019 0.0
C1586 C 0.70416 0.75949 0.32398 0.0
C1587 C 0.704 0.77296 0.33497 0.0
C1588 C 0.70385 0.78623 0.32432 0.0
C1589 C 0.70384 0.78613 0.30259 0.0
H1590 H 0.29614 0.98322 0.31049 0.0
C1591 C 0.28861 0.98217 0.32397 0.0
H1592 H 0.26398 0.97359 0.33483 0.0
H1593 H 0.22706 0.96808 0.24938 0.0
H1594 H 0.22663 0.9923 0.26632 0.0
H1595 H 0.24304 0.00559 0.29902 0.0
H1596 H 0.25985 0.99464 0.31512 0.0
C1597 C 0.27169 0.9746 0.32159 0.0
C1598 C 0.2629 0.96735 0.30099 0.0
C1599 C 0.25342 0.97413 0.29154 0.0
C1600 C 0.24417 0.96664 0.27249 0.0
C1601 C 0.23444 0.97337 0.26373 0.0
C1602 C 0.23409 0.98727 0.27328 0.0
C1603 C 0.24332 0.99475 0.2917 0.0
C1604 C 0.25288 0.98831 0.3008 0.0
H1605 H 0.21994 0.92025 0.26087 0.0
C1606 C 0.22079 0.92649 0.24619 0.0
H1607 H 0.23448 0.94989 0.23023 0.0
H1608 H 0.27808 0.94959 0.31582 0.0
H1609 H 0.28025 0.92698 0.29748 0.0
H1610 H 0.26716 0.91658 0.26239 0.0
H1611 H 0.25132 0.92841 0.24581 0.0
C1612 C 0.23298 0.94308 0.24456 0.0
C1613 C 0.24455 0.9525 0.2628 0.0
C1614 C 0.25491 0.94645 0.27155 0.0
C1615 C 0.26351 0.95336 0.29108 0.0
C1616 C 0.27221 0.94571 0.30043 0.0
C1617 C 0.27342 0.93255 0.29016 0.0
C1618 C 0.26597 0.92662 0.27046 0.0
C1619 C 0.2568 0.93343 0.2612 0.0
H1620 H 0.69568 0.96191 0.33809 0.0
C1621 C 0.68768 0.96737 0.33452 0.0
H1622 H 0.67392 0.97157 0.3109 0.0
H1623 H 0.72603 0.94836 0.26528 0.0
H1624 H 0.74901 0.97609 0.27805 0.0
H1625 H 0.74327 0.99561 0.29957 0.0
H1626 H 0.71449 0.98739 0.3087 0.0
C1627 C 0.68246 0.96681 0.31467 0.0
C1628 C 0.68579 0.95691 0.29832 0.0
C1629 C 0.70258 0.9622 0.29242 0.0
C1630 C 0.70583 0.95117 0.27944 0.0
C1631 C 0.7228 0.95639 0.27468 0.0
C1632 C 0.73611 0.97226 0.28195 0.0
C1633 C 0.73289 0.98323 0.29411 0.0
C1634 C 0.71634 0.97833 0.29934 0.0
H1635 H 0.70276 0.93587 0.2328 0.0
C1636 C 0.69991 0.92409 0.24061 0.0
H1637 H 0.69287 0.91099 0.26908 0.0
H1638 H 0.65188 0.94359 0.30495 0.0
H1639 H 0.62884 0.91667 0.29054 0.0
H1640 H 0.63444 0.89801 0.26719 0.0
H1641 H 0.66318 0.90614 0.25821 0.0
C1642 C 0.69542 0.92242 0.2607 0.0
C1643 C 0.69221 0.93513 0.27192 0.0
C1644 C 0.67533 0.93041 0.27664 0.0
C1645 C 0.6721 0.9413 0.28986 0.0
C1646 C 0.65512 0.93596 0.2948 0.0
C1647 C 0.64174 0.9205 0.28665 0.0
C1648 C 0.64489 0.90999 0.27352 0.0
C1649 C 0.66145 0.91479 0.26855 0.0
H1650 H 0.03043 0.73768 0.2987 0.0
C1651 C 0.03068 0.72703 0.29065 0.0
H1652 H 0.04204 0.71968 0.26722 0.0
H1653 H 0.06454 0.79846 0.23786 0.0
H1654 H 0.03459 0.78763 0.23117 0.0
H1655 H 0.01322 0.75826 0.2411 0.0
H1656 H 0.02162 0.73975 0.25824 0.0
C1657 C 0.04145 0.73019 0.27511 0.0
C1658 C 0.05403 0.74802 0.26936 0.0
C1659 C 0.04886 0.75835 0.25861 0.0
C1660 C 0.06123 0.7749 0.25184 0.0
C1661 C 0.05572 0.78543 0.24232 0.0
C1662 C 0.03856 0.77943 0.23857 0.0
C1663 C 0.02653 0.76293 0.24424 0.0
C1664 C 0.03154 0.75245 0.25414 0.0
H1665 H 0.08161 0.78811 0.21431 0.0
C1666 C 0.09197 0.79803 0.22391 0.0
H1667 H 0.10187 0.80654 0.25454 0.0
H1668 H 0.0679 0.73239 0.29208 0.0
H1669 H 0.09781 0.74331 0.29904 0.0
H1670 H 0.11938 0.77122 0.28545 0.0
H1671 H 0.1112 0.78846 0.26505 0.0
C1672 C 0.09179 0.79653 0.24475 0.0
C1673 C 0.07873 0.7806 0.25474 0.0
C1674 C 0.08383 0.77062 0.26643 0.0
C1675 C 0.07144 0.75436 0.27388 0.0
C1676 C 0.07681 0.7447 0.28574 0.0
C1677 C 0.09394 0.75083 0.2899 0.0
C1678 C 0.10608 0.76656 0.28227 0.0
C1679 C 0.10118 0.77635 0.2706 0.0
H1680 H 0.26905 0.30813 0.32799 0.0
C1681 C 0.28239 0.31705 0.32547 0.0
H1682 H 0.30042 0.3333 0.30402 0.0
H1683 H 0.22776 0.28115 0.24992 0.0
H1684 H 0.23251 0.25777 0.25907 0.0
H1685 H 0.25685 0.26317 0.28174 0.0
H1686 H 0.27642 0.29197 0.29569 0.0
C1687 C 0.28722 0.32395 0.30661 0.0
C1688 C 0.27436 0.32104 0.29001 0.0
C1689 C 0.26349 0.30428 0.28122 0.0
C1690 C 0.24985 0.30131 0.26744 0.0
C1691 C 0.23862 0.28426 0.25989 0.0
C1692 C 0.24117 0.2707 0.2651 0.0
C1693 C 0.25484 0.27373 0.27791 0.0
C1694 C 0.26591 0.29029 0.28592 0.0
H1695 H 0.23981 0.3055 0.22128 0.0
C1696 C 0.23066 0.30814 0.22864 0.0
H1697 H 0.22327 0.31454 0.25701 0.0
H1698 H 0.2936 0.35502 0.30283 0.0
H1699 H 0.28985 0.37866 0.29203 0.0
H1700 H 0.26693 0.37368 0.26706 0.0
H1701 H 0.24754 0.34497 0.25284 0.0
C1702 C 0.23244 0.31222 0.24919 0.0
C1703 C 0.24753 0.31524 0.26186 0.0
C1704 C 0.25901 0.33215 0.26969 0.0
C1705 C 0.2724 0.33506 0.28381 0.0
C1706 C 0.28335 0.35204 0.29183 0.0
C1707 C 0.28133 0.36576 0.28579 0.0
C1708 C 0.26841 0.36296 0.27176 0.0
C1709 C 0.25734 0.34639 0.26376 0.0
H1710 H 0.29934 0.35224 0.41217 0.0
C1711 C 0.30526 0.36099 0.39945 0.0
H1712 H 0.30779 0.38278 0.38411 0.0
H1713 H 0.24042 0.34617 0.44699 0.0
H1714 H 0.22934 0.32147 0.42308 0.0
H1715 H 0.2453 0.32179 0.39219 0.0
H1716 H 0.27278 0.34664 0.38561 0.0
C1717 C 0.30173 0.37363 0.39638 0.0
C1718 C 0.29011 0.37569 0.41071 0.0
C1719 C 0.27341 0.36176 0.41321 0.0
C1720 C 0.2636 0.36219 0.42995 0.0
C1721 C 0.24789 0.34715 0.43362 0.0
C1722 C 0.24145 0.33275 0.42014 0.0
C1723 C 0.25048 0.33289 0.40283 0.0
C1724 C 0.26628 0.34717 0.39935 0.0
H1725 H 0.23932 0.37401 0.43883 0.0
C1726 C 0.24389 0.37647 0.455 0.0
H1727 H 0.26391 0.38054 0.4756 0.0
H1728 H 0.32109 0.40514 0.40922 0.0
H1729 H 0.33125 0.43091 0.43125 0.0
H1730 H 0.31329 0.43267 0.45846 0.0
H1731 H 0.28514 0.40856 0.464 0.0
C1732 C 0.25914 0.37838 0.45956 0.0
C1733 C 0.26978 0.37736 0.44281 0.0
C1734 C 0.28605 0.39172 0.43946 0.0
C1735 C 0.29629 0.39083 0.4235 0.0
C1736 C 0.31271 0.40516 0.42095 0.0
C1737 C 0.3187 0.42005 0.43349 0.0
C1738 C 0.30859 0.42104 0.44881 0.0
C1739 C 0.29246 0.40709 0.45184 0.0
H1740 H 0.62734 0.92895 0.3854 0.0
C1741 C 0.63742 0.94026 0.39361 0.0
H1742 H 0.65453 0.94955 0.4195 0.0
H1743 H 0.61476 0.8834 0.47296 0.0
H1744 H 0.60708 0.90271 0.49026 0.0
H1745 H 0.61429 0.93062 0.47515 0.0
H1746 H 0.62911 0.93932 0.44258 0.0
C1747 C 0.64497 0.93833 0.41065 0.0
C1748 C 0.63985 0.92106 0.41896 0.0
C1749 C 0.63136 0.91626 0.43812 0.0
C1750 C 0.62746 0.90031 0.447 0.0
C1751 C 0.6185 0.8956 0.46583 0.0
C1752 C 0.61389 0.90651 0.47585 0.0
C1753 C 0.61793 0.92221 0.46733 0.0
C1754 C 0.6265 0.92707 0.44866 0.0
H1755 H 0.64793 0.88793 0.47098 0.0
C1756 C 0.63911 0.87502 0.46476 0.0
H1757 H 0.62185 0.86119 0.43962 0.0
H1758 H 0.65651 0.92645 0.38213 0.0
H1759 H 0.66379 0.90695 0.36464 0.0
H1760 H 0.65672 0.87913 0.37987 0.0
H1761 H 0.64239 0.8707 0.41278 0.0
C1762 C 0.6301 0.87361 0.44729 0.0
C1763 C 0.63241 0.88936 0.43693 0.0
C1764 C 0.64034 0.89386 0.41738 0.0
C1765 C 0.64421 0.90981 0.40845 0.0
C1766 C 0.65287 0.91434 0.3894 0.0
C1767 C 0.65723 0.90329 0.37923 0.0
C1768 C 0.65327 0.88764 0.38782 0.0
C1769 C 0.64501 0.88295 0.40671 0.0
H1770 H 0.04517 0.70167 0.36893 0.0
C1771 C 0.05177 0.70129 0.35512 0.0
H1772 H 0.07536 0.70788 0.34237 0.0
H1773 H 0.11964 0.77207 0.40145 0.0
H1774 H 0.12335 0.7849 0.36764 0.0
H1775 H 0.10655 0.76749 0.33684 0.0
H1776 H 0.08612 0.73714 0.33962 0.0
C1777 C 0.06864 0.70788 0.35623 0.0
C1778 C 0.07889 0.71807 0.37497 0.0
C1779 C 0.09064 0.73592 0.3731 0.0
C1780 C 0.10001 0.74607 0.39095 0.0
C1781 C 0.11192 0.76379 0.38852 0.0
C1782 C 0.11422 0.77134 0.36917 0.0
C1783 C 0.1048 0.76153 0.35183 0.0
C1784 C 0.09312 0.74406 0.35366 0.0
H1785 H 0.12011 0.73658 0.43609 0.0
C1786 C 0.11863 0.74762 0.43988 0.0
H1787 H 0.10497 0.76032 0.43314 0.0
H1788 H 0.05927 0.68383 0.38347 0.0
H1789 H 0.05466 0.67118 0.41757 0.0
H1790 H 0.06892 0.68927 0.44906 0.0
H1791 H 0.08817 0.72003 0.4466 0.0
C1792 C 0.10686 0.74955 0.42936 0.0
C1793 C 0.09741 0.73846 0.41075 0.0
C1794 C 0.08564 0.72061 0.41264 0.0
C1795 C 0.07671 0.71032 0.39463 0.0
C1796 C 0.0658 0.69236 0.39676 0.0
C1797 C 0.06313 0.68491 0.41622 0.0
C1798 C 0.07121 0.69509 0.43394 0.0
C1799 C 0.08233 0.71273 0.43228 0.0
H1800 H 0.32192 0.02482 0.72373 0.0
C1801 C 0.31574 0.02608 0.70981 0.0
H1802 H 0.30051 0.03566 0.69755 0.0
H1803 H 0.27456 0.04044 0.78836 0.0
H1804 H 0.25156 0.012 0.77774 0.0
H1805 H 0.25324 0.99733 0.74567 0.0
H1806 H 0.27801 0.01098 0.72407 0.0
C1807 C 0.30677 0.03422 0.71125 0.0
C1808 C 0.30609 0.04267 0.73112 0.0
C1809 C 0.29149 0.03463 0.74343 0.0
C1810 C 0.29042 0.04322 0.76176 0.0
C1811 C 0.27586 0.03468 0.77404 0.0
C1812 C 0.26262 0.01832 0.76818 0.0
C1813 C 0.26357 0.01005 0.75013 0.0
C1814 C 0.27783 0.01803 0.73787 0.0
H1815 H 0.28347 0.07271 0.77176 0.0
C1816 C 0.2919 0.07596 0.78536 0.0
H1817 H 0.31121 0.07239 0.799 0.0
H1818 H 0.3357 0.06195 0.71067 0.0
H1819 H 0.35866 0.09035 0.72122 0.0
H1820 H 0.35695 0.10512 0.75316 0.0
H1821 H 0.3322 0.09163 0.77467 0.0
C1822 C 0.30249 0.0696 0.78592 0.0
C1823 C 0.30386 0.05996 0.76754 0.0
C1824 C 0.31862 0.06785 0.75543 0.0
C1825 C 0.31968 0.05927 0.73711 0.0
C1826 C 0.33431 0.06774 0.7249 0.0
C1827 C 0.34758 0.08409 0.73074 0.0
C1828 C 0.34661 0.09241 0.74872 0.0
C1829 C 0.33232 0.08448 0.76094 0.0
H1830 H 0.97237 0.25882 0.71635 0.0
C1831 C 0.97296 0.26996 0.72425 0.0
H1832 H 0.96585 0.27907 0.75066 0.0
H1833 H 0.90428 0.19876 0.75272 0.0
H1834 H 0.89333 0.20544 0.72181 0.0
H1835 H 0.91035 0.233 0.70427 0.0
H1836 H 0.93843 0.25403 0.71752 0.0
C1837 C 0.96478 0.26796 0.74212 0.0
C1838 C 0.95496 0.25084 0.75164 0.0
C1839 C 0.93862 0.23864 0.74355 0.0
C1840 C 0.92878 0.22279 0.75373 0.0
C1841 C 0.91236 0.21097 0.74557 0.0
C1842 C 0.90589 0.21465 0.72784 0.0
C1843 C 0.91548 0.23016 0.71796 0.0
C1844 C 0.93162 0.2421 0.7257 0.0
H1845 H 0.9232 0.21816 0.80937 0.0
C1846 C 0.91881 0.20523 0.80295 0.0
H1847 H 0.91929 0.19114 0.77627 0.0
H1848 H 0.98615 0.27111 0.77042 0.0
H1849 H 0.99753 0.26406 0.80067 0.0
H1850 H 0.98079 0.23621 0.81774 0.0
H1851 H 0.95252 0.21532 0.80477 0.0
C1852 C 0.92415 0.20366 0.78402 0.0
C1853 C 0.93526 0.21929 0.77207 0.0
C1854 C 0.95193 0.23115 0.77955 0.0
C1855 C 0.9617 0.24705 0.76947 0.0
C1856 C 0.97818 0.25883 0.77748 0.0
C1857 C 0.98489 0.25492 0.79479 0.0
C1858 C 0.97546 0.23926 0.80442 0.0
C1859 C 0.95919 0.22744 0.79692 0.0
H1860 H 0.71037 0.66579 0.70768 0.0
C1861 C 0.71717 0.67041 0.69327 0.0
H1862 H 0.74126 0.68518 0.68005 0.0
H1863 H 0.77324 0.72403 0.76797 0.0
H1864 H 0.77035 0.74631 0.75069 0.0
H1865 H 0.75533 0.74034 0.71658 0.0
H1866 H 0.743 0.71199 0.69957 0.0
C1867 C 0.73413 0.68019 0.69414 0.0
C1868 C 0.74369 0.68395 0.71436 0.0
C1869 C 0.75108 0.70064 0.72389 0.0
C1870 C 0.75998 0.70416 0.74341 0.0
C1871 C 0.76673 0.72078 0.75291 0.0
C1872 C 0.76507 0.73366 0.74322 0.0
C1873 C 0.75659 0.73029 0.72403 0.0
C1874 C 0.7496 0.71398 0.71442 0.0
H1875 H 0.79477 0.71149 0.75974 0.0
C1876 C 0.78857 0.70459 0.77365 0.0
H1877 H 0.76486 0.68763 0.78666 0.0
H1878 H 0.73212 0.65088 0.69954 0.0
H1879 H 0.73507 0.62866 0.71671 0.0
H1880 H 0.75017 0.63462 0.75076 0.0
H1881 H 0.76247 0.66287 0.76778 0.0
C1882 C 0.77159 0.69462 0.7731 0.0
C1883 C 0.7617 0.69102 0.75315 0.0
C1884 C 0.75427 0.67431 0.74362 0.0
C1885 C 0.74539 0.67081 0.72412 0.0
C1886 C 0.73865 0.65417 0.71459 0.0
C1887 C 0.74034 0.6413 0.72421 0.0
C1888 C 0.74885 0.64466 0.74337 0.0
C1889 C 0.75582 0.66095 0.75299 0.0
H1890 H 0.69607 0.60788 0.63741 0.0
C1891 C 0.6954 0.61804 0.62924 0.0
H1892 H 0.70415 0.63508 0.60418 0.0
H1893 H 0.77365 0.63911 0.59302 0.0
H1894 H 0.78285 0.6649 0.61485 0.0
H1895 H 0.76201 0.67033 0.63241 0.0
H1896 H 0.73186 0.64998 0.62831 0.0
C1897 C 0.70467 0.62482 0.6123 0.0
C1898 C 0.717 0.61994 0.60474 0.0
C1899 C 0.73454 0.63193 0.60739 0.0
C1900 C 0.74652 0.62888 0.59716 0.0
C1901 C 0.76399 0.64099 0.60015 0.0
C1902 C 0.76945 0.65578 0.61272 0.0
C1903 C 0.75772 0.65884 0.62262 0.0
C1904 C 0.74045 0.64709 0.62006 0.0
H1905 H 0.75556 0.63161 0.55116 0.0
C1906 C 0.75941 0.62213 0.55412 0.0
H1907 H 0.75649 0.60256 0.57478 0.0
H1908 H 0.68431 0.59377 0.59761 0.0
H1909 H 0.67526 0.56748 0.57694 0.0
H1910 H 0.69616 0.56204 0.55958 0.0
H1911 H 0.72626 0.58293 0.56271 0.0
C1912 C 0.75306 0.61211 0.57075 0.0
C1913 C 0.74089 0.61394 0.58414 0.0
C1914 C 0.72345 0.60135 0.58273 0.0
C1915 C 0.71143 0.60441 0.59293 0.0
C1916 C 0.69401 0.592 0.59046 0.0
C1917 C 0.68864 0.57687 0.57859 0.0
C1918 C 0.7004 0.57381 0.5688 0.0
C1919 C 0.71762 0.58589 0.57072 0.0
H1920 H 0.37084 0.06357 0.6479 0.0
C1921 C 0.35923 0.05272 0.64137 0.0
H1922 H 0.33934 0.04441 0.61891 0.0
H1923 H 0.3651 0.12787 0.62583 0.0
H1924 H 0.35552 0.1228 0.66148 0.0
H1925 H 0.34582 0.09449 0.6771 0.0
H1926 H 0.34586 0.07121 0.6573 0.0
C1927 C 0.35051 0.05528 0.62621 0.0
C1928 C 0.35659 0.07252 0.61725 0.0
C1929 C 0.35604 0.08582 0.62894 0.0
C1930 C 0.36101 0.10192 0.61968 0.0
C1931 C 0.36092 0.11521 0.63188 0.0
C1932 C 0.35555 0.1125 0.6524 0.0
C1933 C 0.35013 0.09659 0.66121 0.0
C1934 C 0.35031 0.08335 0.64969 0.0
H1935 H 0.34409 0.11476 0.58981 0.0
C1936 C 0.35653 0.12347 0.58376 0.0
H1937 H 0.38191 0.12884 0.58245 0.0
H1938 H 0.36013 0.0501 0.59105 0.0
H1939 H 0.3694 0.0551 0.55531 0.0
H1940 H 0.37712 0.08268 0.53891 0.0
H1941 H 0.37572 0.10545 0.55816 0.0
C1942 C 0.36925 0.12041 0.58793 0.0
C1943 C 0.36592 0.10443 0.59856 0.0
C1944 C 0.3669 0.0913 0.58709 0.0
C1945 C 0.36223 0.07533 0.59645 0.0
C1946 C 0.36332 0.06242 0.58463 0.0
C1947 C 0.36866 0.06513 0.56411 0.0
C1948 C 0.37303 0.08066 0.55488 0.0
C1949 C 0.37217 0.09363 0.56614 0.0
H1950 H 0.93072 0.28741 0.66665 0.0
C1951 C 0.94413 0.29348 0.66334 0.0
H1952 H 0.96216 0.29918 0.64 0.0
H1953 H 0.91054 0.23564 0.58244 0.0
H1954 H 0.93098 0.22716 0.59257 0.0
H1955 H 0.95392 0.24466 0.61835 0.0
H1956 H 0.9566 0.27074 0.63411 0.0
C1957 C 0.94886 0.29375 0.64352 0.0
C1958 C 0.93599 0.28425 0.62652 0.0
C1959 C 0.93474 0.26912 0.61733 0.0
C1960 C 0.92141 0.25892 0.60265 0.0
C1961 C 0.92033 0.24377 0.59384 0.0
C1962 C 0.932 0.23877 0.59947 0.0
C1963 C 0.94492 0.24863 0.61397 0.0
C1964 C 0.94632 0.26361 0.62288 0.0
H1965 H 0.90264 0.26672 0.55703 0.0
C1966 C 0.89308 0.2547 0.56357 0.0
H1967 H 0.88484 0.24032 0.59108 0.0
H1968 H 0.93639 0.31388 0.63868 0.0
H1969 H 0.91598 0.3224 0.62841 0.0
H1970 H 0.8922 0.3041 0.604 0.0
H1971 H 0.88878 0.27728 0.58951 0.0
C1972 C 0.89439 0.25195 0.58389 0.0
C1973 C 0.9094 0.26387 0.59716 0.0
C1974 C 0.91106 0.27938 0.60564 0.0
C1975 C 0.92451 0.2897 0.62018 0.0
C1976 C 0.92613 0.30534 0.62806 0.0
C1977 C 0.91457 0.31042 0.6222 0.0
C1978 C 0.90119 0.30013 0.60842 0.0
C1979 C 0.89939 0.28477 0.6002 0.0
H1980 H 0.36591 0.30903 0.67857 0.0
C1981 C 0.35463 0.3099 0.67544 0.0
H1982 H 0.3347 0.30424 0.6538 0.0
H1983 H 0.36845 0.29434 0.57376 0.0
H1984 H 0.36893 0.32102 0.56617 0.0
H1985 H 0.36155 0.33607 0.59299 0.0
H1986 H 0.35354 0.3245 0.62754 0.0
C1987 C 0.34598 0.30345 0.65726 0.0
C1988 C 0.35122 0.29474 0.64147 0.0
C1989 C 0.35608 0.30178 0.62144 0.0
C1990 C 0.36053 0.29322 0.60603 0.0
C1991 C 0.36506 0.30039 0.58606 0.0
C1992 C 0.36539 0.31569 0.5815 0.0
C1993 C 0.36122 0.32416 0.59661 0.0
C1994 C 0.35662 0.31735 0.61636 0.0
H1995 H 0.33842 0.24734 0.59387 0.0
C1996 C 0.35083 0.25238 0.58709 0.0
H1997 H 0.37607 0.27346 0.5881 0.0
H1998 H 0.34058 0.27632 0.67745 0.0
H1999 H 0.34215 0.25094 0.68571 0.0
H2000 H 0.35256 0.23778 0.66013 0.0
H2001 H 0.36132 0.24991 0.62602 0.0
C2002 C 0.36338 0.2679 0.59404 0.0
C2003 C 0.36019 0.27767 0.61071 0.0
C2004 C 0.35604 0.271 0.63102 0.0
C2005 C 0.35098 0.27918 0.64619 0.0
C2006 C 0.3455 0.27133 0.66571 0.0
C2007 C 0.34611 0.25657 0.67059 0.0
C2008 C 0.35193 0.24914 0.65618 0.0
C2009 C 0.35682 0.25618 0.63659 0.0
H2010 H 0.71503 0.05366 0.61072 0.0
C2011 C 0.70641 0.05433 0.62173 0.0
H2012 H 0.69781 0.07025 0.63514 0.0
H2013 H 0.76889 0.13507 0.60928 0.0
H2014 H 0.7731 0.13608 0.64688 0.0
H2015 H 0.7518 0.11336 0.66865 0.0
H2016 H 0.72611 0.08951 0.65296 0.0
C2017 C 0.70602 0.06904 0.62398 0.0
C2018 C 0.71736 0.08409 0.61141 0.0
C2019 C 0.73212 0.09803 0.62086 0.0
C2020 C 0.74444 0.11101 0.60828 0.0
C2021 C 0.75919 0.12474 0.61808 0.0
C2022 C 0.76174 0.1255 0.63965 0.0
C2023 C 0.74975 0.11271 0.65191 0.0
C2024 C 0.73508 0.0991 0.64271 0.0
H2025 H 0.74293 0.13444 0.56186 0.0
C2026 C 0.75477 0.1343 0.56209 0.0
H2027 H 0.76739 0.12155 0.57338 0.0
H2028 H 0.68906 0.06069 0.58906 0.0
H2029 H 0.68484 0.05931 0.55143 0.0
H2030 H 0.70694 0.08077 0.52925 0.0
H2031 H 0.7332 0.10384 0.5445 0.0
C2032 C 0.75592 0.12234 0.57321 0.0
C2033 C 0.74195 0.10998 0.58629 0.0
C2034 C 0.72681 0.09641 0.57693 0.0
C2035 C 0.71435 0.08364 0.5896 0.0
C2036 C 0.69914 0.07042 0.58004 0.0
C2037 C 0.69652 0.06953 0.55849 0.0
C2038 C 0.70894 0.08164 0.54601 0.0
C2039 C 0.72395 0.09491 0.55502 0.0
H2040 H 0.96141 0.66556 0.63527 0.0
C2041 C 0.95442 0.6601 0.64935 0.0
H2042 H 0.93024 0.64544 0.66217 0.0
H2043 H 0.89093 0.66146 0.59331 0.0
H2044 H 0.88951 0.67757 0.62322 0.0
H2045 H 0.90576 0.6808 0.65569 0.0
H2046 H 0.9234 0.6678 0.65853 0.0
C2047 C 0.93743 0.65043 0.64812 0.0
C2048 C 0.92785 0.64847 0.6283 0.0
C2049 C 0.9177 0.65629 0.62685 0.0
C2050 C 0.90859 0.65472 0.60799 0.0
C2051 C 0.89835 0.66246 0.60712 0.0
C2052 C 0.89737 0.67172 0.62421 0.0
C2053 C 0.90649 0.67351 0.6425 0.0
C2054 C 0.91655 0.66593 0.64391 0.0
H2055 H 0.88317 0.61758 0.57351 0.0
C2056 C 0.88658 0.62896 0.56448 0.0
H2057 H 0.90324 0.65594 0.56335 0.0
H2058 H 0.9448 0.63049 0.62642 0.0
H2059 H 0.94696 0.61515 0.59613 0.0
H2060 H 0.93259 0.61396 0.56275 0.0
H2061 H 0.91574 0.62786 0.55956 0.0
C2062 C 0.90016 0.64401 0.57088 0.0
C2063 C 0.90972 0.64542 0.59054 0.0
C2064 C 0.91995 0.63768 0.59192 0.0
C2065 C 0.92879 0.63894 0.61095 0.0
C2066 C 0.9383 0.63044 0.61217 0.0
C2067 C 0.93957 0.62151 0.59493 0.0
C2068 C 0.93143 0.62079 0.57615 0.0
C2069 C 0.92173 0.62876 0.57457 0.0
H2070 H 0.97639 0.72019 0.71075 0.0
C2071 C 0.97587 0.70895 0.7176 0.0
H2072 H 0.96541 0.69039 0.741 0.0
H2073 H 0.94805 0.7389 0.79619 0.0
H2074 H 0.97697 0.75029 0.80911 0.0
H2075 H 0.9961 0.74229 0.7917 0.0
H2076 H 0.98647 0.72297 0.76116 0.0
C2077 C 0.96571 0.70134 0.73362 0.0
C2078 C 0.95494 0.70777 0.74247 0.0
C2079 C 0.96075 0.71898 0.76032 0.0
C2080 C 0.94965 0.72333 0.77056 0.0
C2081 C 0.95585 0.73482 0.78815 0.0
C2082 C 0.97244 0.74153 0.79564 0.0
C2083 C 0.98322 0.73705 0.78582 0.0
C2084 C 0.97752 0.72592 0.76834 0.0
H2085 H 0.92055 0.7029 0.79942 0.0
C2086 C 0.91525 0.71066 0.79396 0.0
H2087 H 0.91442 0.7252 0.76872 0.0
H2088 H 0.94038 0.68702 0.70765 0.0
H2089 H 0.91166 0.67606 0.69431 0.0
H2090 H 0.89228 0.68348 0.71216 0.0
H2091 H 0.90147 0.70182 0.74353 0.0
C2092 C 0.92028 0.71843 0.77559 0.0
C2093 C 0.93267 0.71616 0.76313 0.0
C2094 C 0.92718 0.70579 0.74454 0.0
C2095 C 0.93834 0.70152 0.73423 0.0
C2096 C 0.93242 0.6907 0.71605 0.0
C2097 C 0.91597 0.68433 0.70822 0.0
C2098 C 0.90506 0.6885 0.71828 0.0
C2099 C 0.91051 0.69905 0.73627 0.0
H2100 H 0.3178 0.28778 0.75414 0.0
C2101 C 0.30899 0.28517 0.74112 0.0
H2102 H 0.28834 0.26584 0.72316 0.0
H2103 H 0.30642 0.20884 0.75042 0.0
H2104 H 0.3123 0.21074 0.71345 0.0
H2105 H 0.3107 0.23258 0.69224 0.0
H2106 H 0.30344 0.2528 0.70788 0.0
C2107 C 0.29692 0.26883 0.73651 0.0
C2108 C 0.29595 0.25442 0.74877 0.0
C2109 C 0.30023 0.24273 0.73937 0.0
C2110 C 0.3012 0.23017 0.75161 0.0
C2111 C 0.30561 0.2187 0.74186 0.0
C2112 C 0.30899 0.21964 0.72066 0.0
C2113 C 0.30812 0.23195 0.70872 0.0
C2114 C 0.30389 0.24346 0.71789 0.0
H2115 H 0.27367 0.19992 0.78841 0.0
C2116 C 0.28627 0.20251 0.79302 0.0
H2117 H 0.31254 0.21916 0.78905 0.0
H2118 H 0.28453 0.27288 0.77078 0.0
H2119 H 0.27859 0.27098 0.8077 0.0
H2120 H 0.2818 0.2503 0.82939 0.0
H2121 H 0.29072 0.23126 0.81424 0.0
C2122 C 0.29979 0.21679 0.78616 0.0
C2123 C 0.29779 0.22927 0.77319 0.0
C2124 C 0.29296 0.24059 0.78246 0.0
C2125 C 0.29174 0.25297 0.77014 0.0
C2126 C 0.28626 0.26368 0.77959 0.0
C2127 C 0.2827 0.26264 0.80073 0.0
C2128 C 0.28446 0.25097 0.81292 0.0
C2129 C 0.28953 0.24005 0.80399 0.0
H2130 H 0.71803 0.03334 0.71165 0.0
C2131 C 0.72538 0.03419 0.69806 0.0
H2132 H 0.74994 0.04386 0.68638 0.0
H2133 H 0.78639 0.10379 0.75414 0.0
H2134 H 0.78711 0.11977 0.72373 0.0
H2135 H 0.77139 0.1046 0.69129 0.0
H2136 H 0.75491 0.07337 0.68904 0.0
C2137 C 0.74235 0.04221 0.69998 0.0
C2138 C 0.75138 0.05114 0.71988 0.0
C2139 C 0.76083 0.06943 0.72101 0.0
C2140 C 0.76968 0.07818 0.73982 0.0
C2141 C 0.77922 0.09646 0.74037 0.0
C2142 C 0.77979 0.10581 0.72299 0.0
C2143 C 0.77095 0.09727 0.70473 0.0
C2144 C 0.76157 0.07932 0.70365 0.0
H2145 H 0.796 0.06918 0.77416 0.0
C2146 C 0.79253 0.07728 0.78321 0.0
H2147 H 0.77553 0.08684 0.78449 0.0
H2148 H 0.73537 0.01599 0.72262 0.0
H2149 H 0.73374 0.0 0.75344 0.0
H2150 H 0.74772 0.0152 0.78664 0.0
H2151 H 0.76364 0.04647 0.78915 0.0
C2152 C 0.77876 0.07798 0.77694 0.0
C2153 C 0.76903 0.06864 0.75753 0.0
C2154 C 0.75931 0.05034 0.75652 0.0
C2155 C 0.7507 0.04158 0.73758 0.0
C2156 C 0.74171 0.02331 0.73677 0.0
C2157 C 0.74073 0.01397 0.75432 0.0
C2158 C 0.74865 0.02252 0.773 0.0
C2159 C 0.75783 0.04049 0.77419 0.0
H2160 H 0.05122 0.31014 0.01686 0.0
C2161 C 0.04589 0.31761 0.02337 0.0
H2162 H 0.0437 0.32999 0.05061 0.0
H2163 H 0.06304 0.28342 0.10668 0.0
H2164 H 0.0329 0.26967 0.11258 0.0
H2165 H 0.01496 0.27831 0.09314 0.0
H2166 H 0.02707 0.30071 0.06756 0.0
C2167 C 0.04912 0.3228 0.04354 0.0
C2168 C 0.06024 0.31875 0.05666 0.0
C2169 C 0.05308 0.30598 0.07194 0.0
C2170 C 0.0635 0.3012 0.0834 0.0
C2171 C 0.05584 0.28787 0.09792 0.0
C2172 C 0.03852 0.2798 0.10137 0.0
C2173 C 0.02841 0.28465 0.09041 0.0
C2174 C 0.03553 0.29753 0.07579 0.0
H2175 H 0.09065 0.31494 0.11987 0.0
C2176 C 0.09616 0.30828 0.11167 0.0
H2177 H 0.0983 0.29881 0.08202 0.0
H2178 H 0.07834 0.34512 0.03024 0.0
H2179 H 0.10856 0.35927 0.02473 0.0
H2180 H 0.12659 0.35085 0.04434 0.0
H2181 H 0.11453 0.32828 0.06963 0.0
C2182 C 0.09219 0.3043 0.09124 0.0
C2183 C 0.08114 0.30945 0.07982 0.0
C2184 C 0.08836 0.32254 0.06488 0.0
C2185 C 0.07793 0.32728 0.05342 0.0
C2186 C 0.08559 0.34072 0.03903 0.0
C2187 C 0.10294 0.34904 0.03581 0.0
C2188 C 0.1131 0.34431 0.04686 0.0
C2189 C 0.10598 0.33128 0.06129 0.0
H2190 H 0.68563 0.7148 0.04969 0.0
C2191 C 0.67422 0.70572 0.05755 0.0
H2192 H 0.6568 0.70269 0.0808 0.0
H2193 H 0.71336 0.76994 0.12946 0.0
H2194 H 0.71878 0.74886 0.14559 0.0
H2195 H 0.70496 0.71884 0.13177 0.0
H2196 H 0.68582 0.70979 0.10157 0.0
C2197 C 0.66776 0.71161 0.07211 0.0
C2198 C 0.67685 0.72995 0.07942 0.0
C2199 C 0.68776 0.73492 0.0973 0.0
C2200 C 0.69534 0.75207 0.10563 0.0
C2201 C 0.70674 0.75689 0.12299 0.0
C2202 C 0.71009 0.74496 0.13228 0.0
C2203 C 0.70233 0.72807 0.12448 0.0
C2204 C 0.69134 0.72305 0.10716 0.0
H2205 H 0.68289 0.76991 0.1333 0.0
C2206 C 0.69152 0.782 0.12604 0.0
H2207 H 0.70514 0.79262 0.09848 0.0
H2208 H 0.6577 0.72485 0.04404 0.0
H2209 H 0.65251 0.74602 0.02756 0.0
H2210 H 0.66505 0.77562 0.04248 0.0
H2211 H 0.68287 0.78428 0.07388 0.0
C2212 C 0.69719 0.78112 0.10704 0.0
C2213 C 0.69147 0.76404 0.09651 0.0
C2214 C 0.68127 0.7593 0.07798 0.0
C2215 C 0.67396 0.74221 0.06941 0.0
C2216 C 0.66355 0.73768 0.05115 0.0
C2217 C 0.66047 0.74969 0.04155 0.0
C2218 C 0.66754 0.76636 0.04995 0.0
C2219 C 0.67777 0.77117 0.06799 0.0
H2220 H 0.30321 0.96975 0.05174 0.0
C2221 C 0.29774 0.97093 0.03713 0.0
H2222 H 0.27535 0.96615 0.02112 0.0
H2223 H 0.22822 0.90495 0.07906 0.0
H2224 H 0.2262 0.88947 0.04673 0.0
H2225 H 0.24421 0.9046 0.01718 0.0
H2226 H 0.26428 0.93531 0.01972 0.0
C2227 C 0.28116 0.96572 0.03583 0.0
C2228 C 0.26993 0.95693 0.0535 0.0
C2229 C 0.25828 0.93896 0.05173 0.0
C2230 C 0.24805 0.9302 0.06885 0.0
C2231 C 0.23645 0.91224 0.06663 0.0
C2232 C 0.23513 0.90318 0.04814 0.0
C2233 C 0.24525 0.9117 0.03149 0.0
C2234 C 0.25672 0.92936 0.03317 0.0
H2235 H 0.22289 0.94044 0.10184 0.0
C2236 C 0.22532 0.93153 0.11047 0.0
H2237 H 0.24082 0.92024 0.11242 0.0
H2238 H 0.28976 0.99171 0.06128 0.0
H2239 H 0.29206 0.00715 0.0938 0.0
H2240 H 0.27521 0.99173 0.12403 0.0
H2241 H 0.25581 0.96081 0.12185 0.0
C2242 C 0.23878 0.93003 0.10548 0.0
C2243 C 0.24949 0.93943 0.08769 0.0
C2244 C 0.26102 0.95743 0.08941 0.0
C2245 C 0.27111 0.96624 0.07219 0.0
C2246 C 0.28214 0.98431 0.07407 0.0
C2247 C 0.28352 0.99334 0.09261 0.0
C2248 C 0.274 0.98467 0.10961 0.0
C2249 C 0.26287 0.96692 0.10813 0.0
H2250 H 0.35312 0.04986 0.96604 0.0
C2251 C 0.34359 0.03764 0.97221 0.0
H2252 H 0.31739 0.0213 0.97697 0.0
H2253 H 0.3018 0.08292 0.9674 0.0
H2254 H 0.29619 0.07694 0.00408 0.0
H2255 H 0.30256 0.05641 0.02137 0.0
H2256 H 0.31447 0.04161 0.00202 0.0
C2257 C 0.32728 0.0336 0.97146 0.0
C2258 C 0.32226 0.04504 0.96078 0.0
C2259 C 0.31539 0.05361 0.97229 0.0
C2260 C 0.31194 0.06563 0.96236 0.0
C2261 C 0.30489 0.07386 0.97421 0.0
C2262 C 0.30157 0.07051 0.99527 0.0
C2263 C 0.30515 0.05894 0.005 0.0
C2264 C 0.31199 0.05055 0.99373 0.0
H2265 H 0.29413 0.06482 0.9097 0.0
C2266 C 0.30163 0.0783 0.91477 0.0
H2267 H 0.31963 0.09541 0.93754 0.0
H2268 H 0.3316 0.02784 0.93296 0.0
H2269 H 0.33832 0.03453 0.8967 0.0
H2270 H 0.33589 0.05799 0.88059 0.0
H2271 H 0.3262 0.07445 0.90042 0.0
C2272 C 0.31269 0.08239 0.93095 0.0
C2273 C 0.31555 0.06917 0.94097 0.0
C2274 C 0.32232 0.06046 0.9294 0.0
C2275 C 0.32496 0.04785 0.9391 0.0
C2276 C 0.33034 0.03829 0.92674 0.0
C2277 C 0.3341 0.04187 0.90584 0.0
C2278 C 0.33264 0.05501 0.89674 0.0
C2279 C 0.32687 0.06425 0.9083 0.0
H2280 H 0.9543 0.28794 0.97078 0.0
C2281 C 0.96691 0.29077 0.97573 0.0
H2282 H 0.98308 0.28035 0.9792 0.0
H2283 H 0.91663 0.20407 0.97651 0.0
H2284 H 0.92419 0.20671 0.01341 0.0
H2285 H 0.94718 0.23412 0.02879 0.0
H2286 H 0.96285 0.25909 0.00732 0.0
C2287 C 0.97048 0.27795 0.97511 0.0
C2288 C 0.95784 0.26083 0.96562 0.0
C2289 C 0.94886 0.2464 0.9783 0.0
C2290 C 0.9355 0.23064 0.96942 0.0
C2291 C 0.92677 0.2164 0.98247 0.0
C2292 C 0.931 0.21773 0.00366 0.0
C2293 C 0.94396 0.23317 0.01233 0.0
C2294 C 0.95282 0.24739 0.99986 0.0
H2295 H 0.93162 0.20759 0.91982 0.0
C2296 C 0.91871 0.20356 0.92419 0.0
H2297 H 0.9041 0.2095 0.94464 0.0
H2298 H 0.97463 0.285 0.93619 0.0
H2299 H 0.96668 0.28285 0.89956 0.0
H2300 H 0.94179 0.2566 0.88481 0.0
H2301 H 0.92502 0.23226 0.9064 0.0
C2302 C 0.91652 0.21316 0.93889 0.0
C2303 C 0.93111 0.22938 0.94789 0.0
C2304 C 0.9403 0.24381 0.93512 0.0
C2305 C 0.95403 0.25933 0.94387 0.0
C2306 C 0.96361 0.27319 0.93056 0.0
C2307 C 0.95926 0.27209 0.90946 0.0
C2308 C 0.9453 0.25729 0.90114 0.0
C2309 C 0.93586 0.24331 0.91373 0.0
H2310 H 0.73371 0.68669 0.00366 0.0
C2311 C 0.72038 0.68017 0.99898 0.0
H2312 H 0.7026 0.66964 0.97381 0.0
H2313 H 0.77967 0.72034 0.93446 0.0
H2314 H 0.77823 0.74423 0.95061 0.0
H2315 H 0.75385 0.73908 0.97177 0.0
H2316 H 0.7309 0.70995 0.9772 0.0
C2317 C 0.71589 0.67658 0.97867 0.0
C2318 C 0.72885 0.68001 0.96277 0.0
C2319 C 0.74176 0.69714 0.95897 0.0
C2320 C 0.75546 0.70013 0.94606 0.0
C2321 C 0.76869 0.71732 0.94355 0.0
C2322 C 0.76806 0.73116 0.95281 0.0
C2323 C 0.75436 0.72827 0.96478 0.0
C2324 C 0.74133 0.71148 0.96788 0.0
H2325 H 0.76651 0.70077 0.89936 0.0
C2326 C 0.77421 0.69568 0.90562 0.0
H2327 H 0.77852 0.68385 0.9314 0.0
H2328 H 0.70532 0.64562 0.96529 0.0
H2329 H 0.70586 0.62184 0.94741 0.0
H2330 H 0.7291 0.6271 0.92403 0.0
H2331 H 0.752 0.6562 0.91848 0.0
C2332 C 0.7708 0.68864 0.92453 0.0
C2333 C 0.75584 0.68598 0.93635 0.0
C2334 C 0.74237 0.66893 0.9391 0.0
C2335 C 0.72887 0.66593 0.95234 0.0
C2336 C 0.71582 0.6487 0.95523 0.0
C2337 C 0.71597 0.63491 0.94507 0.0
C2338 C 0.72906 0.63786 0.93193 0.0
C2339 C 0.74215 0.65463 0.92893 0.0
H2340 H 0.96796 0.67944 0.96653 0.0
C2341 C 0.965 0.68176 0.9822 0.0
H2342 H 0.95129 0.69023 1.00035 0.0
H2343 H 0.93933 0.73235 0.93197 0.0
H2344 H 0.96041 0.75549 0.95445 0.0
H2345 H 0.97523 0.74944 0.98258 0.0
H2346 H 0.969 0.7202 0.9885 0.0
C2347 C 0.95396 0.68737 0.98479 0.0
C2348 C 0.94586 0.69097 0.96675 0.0
C2349 C 0.94981 0.70817 0.9633 0.0
C2350 C 0.94143 0.71169 0.9469 0.0
C2351 C 0.94541 0.72895 0.94408 0.0
C2352 C 0.95749 0.74237 0.95687 0.0
C2353 C 0.96582 0.73896 0.97272 0.0
C2354 C 0.96209 0.7221 0.97598 0.0
H2355 H 0.89638 0.6872 0.93298 0.0
C2356 C 0.90264 0.69544 0.91995 0.0
H2357 H 0.92617 0.70974 0.90515 0.0
H2358 H 0.93435 0.65632 0.96975 0.0
H2359 H 0.91449 0.63348 0.94606 0.0
H2360 H 0.9017 0.63994 0.91596 0.0
H2361 H 0.90845 0.66929 0.90966 0.0
C2362 C 0.91935 0.70162 0.91798 0.0
C2363 C 0.92913 0.69802 0.93392 0.0
C2364 C 0.92573 0.68092 0.93676 0.0
C2365 C 0.93377 0.67731 0.95351 0.0
C2366 C 0.92921 0.65994 0.9568 0.0
C2367 C 0.91772 0.64666 0.94338 0.0
C2368 C 0.91047 0.65029 0.92648 0.0
C2369 C 0.91437 0.66718 0.92313 0.0
H2370 H 0.34059 0.30168 0.93632 0.0
C2371 C 0.33293 0.30325 0.94804 0.0
H2372 H 0.31169 0.29049 0.96705 0.0
H2373 H 0.27432 0.22414 0.90753 0.0
H2374 H 0.2539 0.23382 0.90968 0.0
H2375 H 0.26106 0.261 0.92846 0.0
H2376 H 0.28855 0.27854 0.94543 0.0
C2377 C 0.31971 0.28913 0.95571 0.0
C2378 C 0.31462 0.27161 0.94677 0.0
C2379 C 0.29848 0.26156 0.93679 0.0
C2380 C 0.29449 0.24608 0.9255 0.0
C2381 C 0.27817 0.23617 0.91595 0.0
C2382 C 0.26629 0.24155 0.91711 0.0
C2383 C 0.27031 0.25684 0.9277 0.0
C2384 C 0.28618 0.26679 0.93742 0.0
H2385 H 0.30654 0.21181 0.93435 0.0
C2386 C 0.30283 0.21154 0.91809 0.0
H2387 H 0.29942 0.22537 0.89413 0.0
H2388 H 0.34476 0.28515 0.96863 0.0
H2389 H 0.3658 0.27631 0.96538 0.0
H2390 H 0.36064 0.25202 0.94173 0.0
H2391 H 0.33427 0.23606 0.9219 0.0
C2392 C 0.30279 0.22537 0.91045 0.0
C2393 C 0.30675 0.24085 0.92379 0.0
C2394 C 0.3228 0.25075 0.93414 0.0
C2395 C 0.32638 0.26565 0.94644 0.0
C2396 C 0.34186 0.2744 0.95808 0.0
C2397 C 0.35398 0.26938 0.95649 0.0
C2398 C 0.35103 0.25564 0.94328 0.0
C2399 C 0.33569 0.24644 0.93215 0.0
H2400 H 0.70412 0.03616 0.9734 0.0
C2401 C 0.70819 0.0308 0.98576 0.0
H2402 H 0.72827 0.0281 0.99817 0.0
H2403 H 0.75016 0.0517 0.89996 0.0
H2404 H 0.7265 0.02356 0.88972 0.0
H2405 H 0.70733 0.0041 0.91604 0.0
H2406 H 0.71157 0.01276 0.95273 0.0
C2407 C 0.72382 0.03288 0.98556 0.0
C2408 C 0.73618 0.04372 0.96977 0.0
C2409 C 0.73382 0.03821 0.94848 0.0
C2410 C 0.74521 0.04919 0.93339 0.0
C2411 C 0.74217 0.04369 0.91213 0.0
C2412 C 0.7286 0.02759 0.90603 0.0
C2413 C 0.71777 0.01665 0.92085 0.0
C2414 C 0.72029 0.02182 0.94184 0.0
H2415 H 0.78175 0.06172 0.91749 0.0
C2416 C 0.78248 0.07406 0.91509 0.0
H2417 H 0.77124 0.08924 0.9219 0.0
H2418 H 0.74461 0.05799 0.0094 0.0
H2419 H 0.76882 0.08566 0.01976 0.0
H2420 H 0.78902 0.10433 0.99373 0.0
H2421 H 0.78507 0.09546 0.95716 0.0
C2422 C 0.77109 0.07721 0.92422 0.0
C2423 C 0.7592 0.06541 0.93974 0.0
C2424 C 0.76179 0.07072 0.96109 0.0
C2425 C 0.75027 0.05986 0.97612 0.0
C2426 C 0.75305 0.06562 0.99731 0.0
C2427 C 0.76689 0.0815 0.00349 0.0
C2428 C 0.77825 0.09201 0.98884 0.0
C2429 C 0.7758 0.08677 0.96788 0.0
H2430 H 0.68057 0.96544 0.03446 0.0
C2431 C 0.66861 0.96141 0.04201 0.0
H2432 H 0.65085 0.94429 0.06317 0.0
H2433 H 0.67263 0.88881 0.06833 0.0
H2434 H 0.64947 0.87414 0.04286 0.0
H2435 H 0.63689 0.88969 0.02577 0.0
H2436 H 0.64739 0.92003 0.03411 0.0
C2437 C 0.66279 0.94849 0.05552 0.0
C2438 C 0.67274 0.94036 0.06223 0.0
C2439 C 0.66677 0.92281 0.05683 0.0
C2440 C 0.67412 0.9139 0.06654 0.0
C2441 C 0.66757 0.89622 0.06132 0.0
C2442 C 0.65428 0.88765 0.04673 0.0
C2443 C 0.64719 0.8964 0.03712 0.0
C2444 C 0.65329 0.91377 0.04208 0.0
H2445 H 0.68206 0.91639 0.12145 0.0
C2446 C 0.68914 0.91064 0.11506 0.0
H2447 H 0.6988 0.90613 0.0872 0.0
H2448 H 0.68784 0.97435 0.07582 0.0
H2449 H 0.71218 0.98931 0.09933 0.0
H2450 H 0.726 0.97419 0.11434 0.0
H2451 H 0.71525 0.94383 0.10612 0.0
C2452 C 0.69286 0.91262 0.0947 0.0
C2453 C 0.68742 0.9226 0.08163 0.0
C2454 C 0.69439 0.94054 0.08563 0.0
C2455 C 0.68684 0.94939 0.07628 0.0
C2456 C 0.69335 0.96703 0.08182 0.0
C2457 C 0.70732 0.9758 0.09542 0.0
C2458 C 0.71507 0.96728 0.10392 0.0
C2459 C 0.70872 0.94985 0.09917 0.0
H2460 H 0.03748 0.72808 0.0301 0.0
C2461 C 0.04198 0.72036 0.03777 0.0
H2462 H 0.06067 0.72062 0.05787 0.0
H2463 H 0.11651 0.79817 0.05465 0.0
H2464 H 0.12722 0.78674 0.02804 0.0
H2465 H 0.10949 0.7571 0.01352 0.0
H2466 H 0.08091 0.73867 0.02558 0.0
C2467 C 0.05594 0.72816 0.05026 0.0
C2468 C 0.06499 0.74697 0.05548 0.0
C2469 C 0.08147 0.7577 0.04796 0.0
C2470 C 0.09165 0.77482 0.05622 0.0
C2471 C 0.10824 0.78509 0.04884 0.0
C2472 C 0.11452 0.77869 0.03357 0.0
C2473 C 0.10454 0.76199 0.0254 0.0
C2474 C 0.0882 0.75154 0.03249 0.0
H2475 H 0.09677 0.78446 0.11043 0.0
C2476 C 0.10167 0.79704 0.10354 0.0
H2477 H 0.10231 0.80958 0.07552 0.0
H2478 H 0.03349 0.73024 0.07265 0.0
H2479 H 0.0223 0.74235 0.09755 0.0
H2480 H 0.03953 0.77253 0.11048 0.0
H2481 H 0.06822 0.79071 0.09872 0.0
C2482 C 0.09698 0.79755 0.08369 0.0
C2483 C 0.08531 0.78113 0.07204 0.0
C2484 C 0.06831 0.77095 0.07822 0.0
C2485 C 0.0582 0.75374 0.07021 0.0
C2486 C 0.04163 0.74353 0.07773 0.0
C2487 C 0.03504 0.75031 0.0921 0.0
C2488 C 0.04475 0.76729 0.09942 0.0
C2489 C 0.06121 0.77754 0.09264 0.0
H2490 H 0.26679 0.30896 0.00374 0.0
C2491 C 0.27969 0.31844 0.00862 0.0
H2492 H 0.29564 0.33486 0.03316 0.0
H2493 H 0.23609 0.33959 0.07608 0.0
H2494 H 0.25313 0.3685 0.06344 0.0
H2495 H 0.27763 0.3759 0.04136 0.0
H2496 H 0.28516 0.3544 0.0317 0.0
C2497 C 0.28292 0.3249 0.0283 0.0
C2498 C 0.26892 0.32056 0.04296 0.0
C2499 C 0.26495 0.33343 0.04889 0.0
C2500 C 0.25097 0.32923 0.06187 0.0
C2501 C 0.24684 0.34214 0.06676 0.0
C2502 C 0.25645 0.35879 0.05948 0.0
C2503 C 0.27023 0.36296 0.04703 0.0
C2504 C 0.27444 0.35047 0.04166 0.0
H2505 H 0.24127 0.32244 0.10838 0.0
C2506 C 0.22846 0.31373 0.1024 0.0
H2507 H 0.21394 0.29916 0.07569 0.0
H2508 H 0.27421 0.29336 0.03634 0.0
H2509 H 0.25724 0.26443 0.04917 0.0
H2510 H 0.23274 0.25704 0.07126 0.0
H2511 H 0.22512 0.27856 0.08076 0.0
C2512 C 0.22641 0.30766 0.08258 0.0
C2513 C 0.24121 0.31225 0.06925 0.0
C2514 C 0.24532 0.29945 0.06355 0.0
C2515 C 0.25929 0.30364 0.05054 0.0
C2516 C 0.26345 0.29076 0.04569 0.0
C2517 C 0.25389 0.27413 0.05307 0.0
C2518 C 0.24011 0.26997 0.06553 0.0
C2519 C 0.23585 0.28244 0.07083 0.0
H2520 H 0.69913 0.65472 0.387 0.0
C2521 C 0.70359 0.65473 0.37138 0.0
H2522 H 0.72005 0.65029 0.35284 0.0
H2523 H 0.76052 0.66496 0.44362 0.0
H2524 H 0.76561 0.69418 0.44149 0.0
H2525 H 0.75197 0.70193 0.4136 0.0
H2526 H 0.73296 0.68049 0.38791 0.0
C2527 C 0.71587 0.65084 0.36848 0.0
C2528 C 0.72362 0.64623 0.38598 0.0
C2529 C 0.73503 0.65907 0.40058 0.0
C2530 C 0.74343 0.65477 0.41617 0.0
C2531 C 0.75428 0.66767 0.43102 0.0
C2532 C 0.75723 0.68447 0.43005 0.0
C2533 C 0.74951 0.68882 0.41439 0.0
C2534 C 0.73855 0.67634 0.39978 0.0
H2535 H 0.77383 0.64964 0.41669 0.0
C2536 C 0.76786 0.64049 0.42904 0.0
H2537 H 0.74446 0.62459 0.4435 0.0
H2538 H 0.70173 0.61835 0.36135 0.0
H2539 H 0.69683 0.58919 0.36339 0.0
H2540 H 0.71202 0.58195 0.38977 0.0
H2541 H 0.73218 0.6038 0.41433 0.0
C2542 C 0.75108 0.63367 0.43138 0.0
C2543 C 0.74091 0.63781 0.41667 0.0
C2544 C 0.72909 0.62487 0.40253 0.0
C2545 C 0.72046 0.62908 0.38717 0.0
C2546 C 0.70878 0.6159 0.37318 0.0
C2547 C 0.70581 0.5991 0.3742 0.0
C2548 C 0.71435 0.59502 0.38907 0.0
C2549 C 0.72588 0.60769 0.40308 0.0
H2550 H 0.35025 0.05851 0.3793 0.0
C2551 C 0.33772 0.05042 0.38546 0.0
H2552 H 0.31858 0.04959 0.40443 0.0
H2553 H 0.381 0.1161 0.45242 0.0
H2554 H 0.39068 0.09642 0.46253 0.0
H2555 H 0.37727 0.0669 0.44717 0.0
H2556 H 0.35442 0.05699 0.42143 0.0
C2557 C 0.3311 0.05747 0.39817 0.0
C2558 C 0.34076 0.07581 0.40555 0.0
C2559 C 0.35395 0.0812 0.42089 0.0
C2560 C 0.36122 0.09795 0.43041 0.0
C2561 C 0.37467 0.10327 0.44526 0.0
C2562 C 0.38041 0.09216 0.45111 0.0
C2563 C 0.3729 0.07556 0.44241 0.0
C2564 C 0.3598 0.07006 0.42753 0.0
H2565 H 0.34738 0.11006 0.46436 0.0
C2566 C 0.35462 0.12299 0.45835 0.0
H2567 H 0.36572 0.13712 0.43124 0.0
H2568 H 0.31728 0.07021 0.37496 0.0
H2569 H 0.30782 0.09007 0.36479 0.0
H2570 H 0.3198 0.11878 0.38217 0.0
H2571 H 0.34134 0.12785 0.40972 0.0
C2572 C 0.35956 0.12464 0.43845 0.0
C2573 C 0.3548 0.10894 0.42527 0.0
C2574 C 0.34246 0.10401 0.40896 0.0
C2575 C 0.33543 0.0874 0.39909 0.0
C2576 C 0.32289 0.08263 0.38309 0.0
C2577 C 0.3174 0.09391 0.37709 0.0
C2578 C 0.32415 0.11008 0.38686 0.0
C2579 C 0.33651 0.11513 0.40266 0.0
H2580 H 0.96245 0.3019 0.37146 0.0
C2581 C 0.96385 0.29224 0.36261 0.0
H2582 H 0.95401 0.26561 0.35644 0.0
H2583 H 0.92246 0.27024 0.44829 0.0
H2584 H 0.95147 0.28432 0.46164 0.0
H2585 H 0.97503 0.29121 0.43808 0.0
H2586 H 0.96975 0.2844 0.40101 0.0
C2587 C 0.95313 0.27543 0.36561 0.0
C2588 C 0.93893 0.26981 0.38025 0.0
C2589 C 0.94223 0.2732 0.40204 0.0
C2590 C 0.92858 0.26841 0.41578 0.0
C2591 C 0.93228 0.27289 0.43728 0.0
C2592 C 0.94889 0.28109 0.44514 0.0
C2593 C 0.96216 0.28503 0.43186 0.0
C2594 C 0.95895 0.28116 0.41057 0.0
H2595 H 0.90353 0.23602 0.43665 0.0
C2596 C 0.89441 0.24044 0.43566 0.0
H2597 H 0.88858 0.25785 0.42085 0.0
H2598 H 0.92827 0.26164 0.33934 0.0
H2599 H 0.89918 0.24666 0.3262 0.0
H2600 H 0.87545 0.23716 0.35022 0.0
H2601 H 0.88066 0.24271 0.38751 0.0
C2602 C 0.89721 0.25289 0.42225 0.0
C2603 C 0.91164 0.2594 0.40784 0.0
C2604 C 0.90835 0.25596 0.38609 0.0
C2605 C 0.92201 0.26121 0.37228 0.0
C2606 C 0.91837 0.25777 0.35059 0.0
C2607 C 0.90173 0.2492 0.34281 0.0
C2608 C 0.88837 0.24387 0.35634 0.0
C2609 C 0.89155 0.24715 0.37773 0.0
H2610 H -0.0001 0.37254 0.3125 0.0
C2611 C 0.01255 0.37585 0.30778 0.0
H2612 H 0.03396 0.39307 0.29084 0.0
H2613 H 0.97676 0.40031 0.23716 0.0
H2614 H 0.96721 0.37091 0.22526 0.0
H2615 H 0.97916 0.35427 0.24093 0.0
H2616 H 0.00044 0.36677 0.26875 0.0
C2617 C 0.02131 0.38953 0.2958 0.0
C2618 C 0.01353 0.39919 0.28695 0.0
C2619 C 0.0014 0.39172 0.27026 0.0
C2620 C 0.99505 0.40153 0.26059 0.0
C2621 C 0.98246 0.39362 0.24451 0.0
C2622 C 0.97679 0.37672 0.23762 0.0
C2623 C 0.98348 0.36734 0.24649 0.0
C2624 C 0.99565 0.37468 0.26258 0.0
H2625 H 0.01083 0.42978 0.22902 0.0
C2626 C 0.00258 0.43423 0.23513 0.0
H2627 H 0.9897 0.43519 0.26197 0.0
H2628 H 0.03578 0.41679 0.31934 0.0
H2629 H 0.04549 0.44635 0.33094 0.0
H2630 H 0.03512 0.46368 0.31338 0.0
H2631 H 0.01493 0.45156 0.28418 0.0
C2632 C 0.99693 0.43005 0.2546 0.0
C2633 C 0.00142 0.41899 0.26695 0.0
C2634 C 0.01303 0.42623 0.28412 0.0
C2635 C 0.01911 0.41629 0.29413 0.0
C2636 C 0.03086 0.42385 0.3111 0.0
C2637 C 0.03651 0.44077 0.31793 0.0
C2638 C 0.03066 0.45053 0.30805 0.0
C2639 C 0.01908 0.44342 0.2913 0.0
H2640 H 0.62957 0.61174 0.31707 0.0
C2641 C 0.62696 0.62074 0.30899 0.0
H2642 H 0.61191 0.62367 0.28592 0.0
H2643 H 0.59509 0.55666 0.23411 0.0
H2644 H 0.62097 0.57678 0.21714 0.0
H2645 H 0.63958 0.60605 0.23223 0.0
H2646 H 0.6325 0.61531 0.26448 0.0
C2647 C 0.61422 0.61476 0.29465 0.0
C2648 C 0.60446 0.59632 0.28762 0.0
C2649 C 0.60874 0.59114 0.26874 0.0
C2650 C 0.59784 0.57441 0.25981 0.0
C2651 C 0.60264 0.56943 0.2412 0.0
C2652 C 0.61753 0.5808 0.23139 0.0
C2653 C 0.62802 0.59726 0.2399 0.0
C2654 C 0.62377 0.60244 0.25837 0.0
H2655 H 0.56564 0.56029 0.23482 0.0
C2656 C 0.56204 0.54757 0.24051 0.0
H2657 H 0.56603 0.53463 0.26548 0.0
H2658 H 0.59358 0.60163 0.325 0.0
H2659 H 0.56802 0.58127 0.34245 0.0
H2660 H 0.54885 0.55236 0.32676 0.0
H2661 H 0.55509 0.5436 0.29354 0.0
C2662 C 0.56957 0.54682 0.25837 0.0
C2663 C 0.58242 0.56306 0.26949 0.0
C2664 C 0.57877 0.56779 0.28914 0.0
C2665 C 0.58981 0.58448 0.2982 0.0
C2666 C 0.58562 0.5891 0.3175 0.0
C2667 C 0.57101 0.57754 0.32766 0.0
C2668 C 0.56021 0.56126 0.31882 0.0
C2669 C 0.56395 0.55639 0.29975 0.0
H2670 H 0.37439 0.01029 0.31722 0.0
C2671 C 0.37224 6e-05 0.32775 0.0
H2672 H 0.37813 0.98074 0.33504 0.0
H2673 H 0.40139 0.97514 0.24438 0.0
H2674 H 0.37493 0.94799 0.24596 0.0
H2675 H 0.35605 0.94203 0.27564 0.0
H2676 H 0.36348 0.9632 0.30388 0.0
C2677 C 0.38056 0.99138 0.32508 0.0
C2678 C 0.3922 0.995 0.30746 0.0
C2679 C 0.38774 0.98238 0.29122 0.0
C2680 C 0.39869 0.98574 0.27421 0.0
C2681 C 0.39372 0.97311 0.2579 0.0
C2682 C 0.37852 0.9575 0.25854 0.0
C2683 C 0.36788 0.95415 0.27524 0.0
C2684 C 0.37233 0.96641 0.29139 0.0
H2685 H 0.43256 0.98697 0.26715 0.0
C2686 C 0.43511 0.99675 0.25572 0.0
H2687 H 0.42801 0.01473 0.24557 0.0
H2688 H 0.40534 0.0214 0.33697 0.0
H2689 H 0.43167 0.04858 0.33518 0.0
H2690 H 0.45023 0.05471 0.30513 0.0
H2691 H 0.44262 0.03359 0.27678 0.0
C2692 C 0.42614 0.00491 0.25652 0.0
C2693 C 0.41416 0.00162 0.27362 0.0
C2694 C 0.41855 0.0143 0.28975 0.0
C2695 C 0.40768 0.01091 0.30685 0.0
C2696 C 0.41282 0.02348 0.32326 0.0
C2697 C 0.42798 0.03911 0.32252 0.0
C2698 C 0.43845 0.04255 0.30562 0.0
C2699 C 0.4339 0.03032 0.28944 0.0
H2700 H 0.63766 0.00771 0.30926 0.0
C2701 C 0.62855 0.00075 0.32118 0.0
H2702 H 0.60355 0.99128 0.33124 0.0
H2703 H 0.5865 0.0397 0.28024 0.0
H2704 H 0.59354 0.05474 0.31393 0.0
H2705 H 0.60694 0.04691 0.34204 0.0
H2706 H 0.61332 0.02392 0.33664 0.0
C2707 C 0.61261 0.99775 0.3191 0.0
C2708 C 0.60689 0.00399 0.30112 0.0
C2709 C 0.60351 0.01765 0.30437 0.0
C2710 C 0.59597 0.0223 0.28807 0.0
C2711 C 0.59237 0.03573 0.29197 0.0
C2712 C 0.59633 0.04447 0.31126 0.0
C2713 C 0.60385 0.04005 0.3271 0.0
C2714 C 0.60741 0.0268 0.3238 0.0
H2715 H 0.56068 0.99214 0.25502 0.0
C2716 C 0.56577 0.00456 0.24767 0.0
H2717 H 0.58756 0.02951 0.24648 0.0
H2718 H 0.61199 0.97738 0.28947 0.0
H2719 H 0.60645 0.96346 0.25518 0.0
H2720 H 0.5948 0.97259 0.2264 0.0
H2721 H 0.58837 0.99556 0.23185 0.0
C2722 C 0.58191 0.01665 0.25253 0.0
C2723 C 0.59182 0.01325 0.26853 0.0
C2724 C 0.59618 0.00032 0.26486 0.0
C2725 C 0.60347 0.99548 0.28127 0.0
C2726 C 0.60686 0.9819 0.27746 0.0
C2727 C 0.60369 0.97375 0.25785 0.0
C2728 C 0.59709 0.97886 0.24165 0.0
C2729 C 0.59336 0.99198 0.24502 0.0
H2730 H 0.021 0.63397 0.27984 0.0
C2731 C 0.01114 0.63511 0.28779 0.0
H2732 H 0.98542 0.62198 0.29602 0.0
H2733 H 0.97038 0.57219 0.21642 0.0
H2734 H 0.95491 0.5867 0.20754 0.0
H2735 H 0.956 0.60945 0.23087 0.0
H2736 H 0.97267 0.61789 0.26317 0.0
C2737 C 0.99577 0.62101 0.28928 0.0
C2738 C 0.99204 0.60475 0.27799 0.0
C2739 C 0.98164 0.59946 0.25961 0.0
C2740 C 0.9808 0.58613 0.24631 0.0
C2741 C 0.97115 0.58187 0.22739 0.0
C2742 C 0.96227 0.59018 0.22202 0.0
C2743 C 0.9629 0.60301 0.23514 0.0
C2744 C 0.97252 0.60772 0.25366 0.0
H2745 H 0.96613 0.54554 0.24111 0.0
C2746 C 0.9778 0.54958 0.23286 0.0
H2747 H 0.00328 0.56941 0.23023 0.0
H2748 H 0.01058 0.60971 0.31389 0.0
H2749 H 0.02534 0.5945 0.32354 0.0
H2750 H 0.024 0.57145 0.3005 0.0
H2751 H 0.00786 0.56342 0.26773 0.0
C2752 C 0.99103 0.5655 0.23682 0.0
C2753 C 0.99006 0.57787 0.25174 0.0
C2754 C -0.00049 0.58237 0.27083 0.0
C2755 C 0.00042 0.59575 0.28403 0.0
C2756 C 0.0098 0.59988 0.30311 0.0
C2757 C 0.01823 0.59119 0.30889 0.0
C2758 C 0.01746 0.5782 0.29592 0.0
C2759 C 0.00821 0.57376 0.27712 0.0
H2760 H 0.39145 0.37598 0.32749 0.0
C2761 C 0.37823 0.37124 0.32325 0.0
H2762 H 0.36092 0.36816 0.29895 0.0
H2763 H 0.43569 0.43268 0.27058 0.0
H2764 H 0.43186 0.4491 0.29824 0.0
H2765 H 0.40732 0.43525 0.32112 0.0
H2766 H 0.38663 0.4048 0.31667 0.0
C2767 C 0.37407 0.37322 0.30375 0.0
C2768 C 0.38743 0.38206 0.28816 0.0
C2769 C 0.39901 0.40003 0.29043 0.0
C2770 C 0.41274 0.40816 0.27668 0.0
C2771 C 0.42466 0.42593 0.28005 0.0
C2772 C 0.42268 0.43552 0.29597 0.0
C2773 C 0.4089 0.42771 0.3089 0.0
C2774 C 0.39717 0.41019 0.30624 0.0
H2775 H 0.41855 0.42023 0.23049 0.0
C2776 C 0.4293 0.41818 0.23178 0.0
H2777 H 0.4386 0.40352 0.24665 0.0
H2778 H 0.36696 0.34761 0.27895 0.0
H2779 H 0.3701 0.33135 0.25036 0.0
H2780 H 0.39347 0.34563 0.22587 0.0
H2781 H 0.41389 0.37625 0.22984 0.0
C2782 C 0.42876 0.40691 0.24571 0.0
C2783 C 0.41443 0.39843 0.26013 0.0
C2784 C 0.40257 0.38058 0.25751 0.0
C2785 C 0.38903 0.37238 0.27153 0.0
C2786 C 0.37744 0.35449 0.26868 0.0
C2787 C 0.3791 0.34501 0.25234 0.0
C2788 C 0.39226 0.35305 0.23855 0.0
C2789 C 0.4039 0.37062 0.24102 0.0
H2790 H 0.348 0.30385 0.37051 0.0
C2791 C 0.33617 0.30024 0.37814 0.0
H2792 H 0.31845 0.28395 0.39991 0.0
H2793 H 0.33906 0.22789 0.40847 0.0
H2794 H 0.31643 0.21301 0.38237 0.0
H2795 H 0.30457 0.22854 0.36363 0.0
H2796 H 0.31527 0.25907 0.37094 0.0
C2797 C 0.33026 0.28771 0.39216 0.0
C2798 C 0.34007 0.27962 0.39952 0.0
C2799 C 0.33402 0.26197 0.39469 0.0
C2800 C 0.34096 0.25307 0.40536 0.0
C2801 C 0.3343 0.23528 0.40074 0.0
C2802 C 0.32132 0.2266 0.38579 0.0
C2803 C 0.31463 0.23534 0.37525 0.0
C2804 C 0.32084 0.25282 0.37962 0.0
H2805 H 0.34687 0.25653 0.46047 0.0
C2806 C 0.3539 0.25038 0.45518 0.0
H2807 H 0.36438 0.24499 0.42875 0.0
H2808 H 0.35551 0.31393 0.41179 0.0
H2809 H 0.37937 0.32905 0.43598 0.0
H2810 H 0.39236 0.31384 0.45291 0.0
H2811 H 0.38127 0.28323 0.4459 0.0
C2812 C 0.35852 0.25197 0.43515 0.0
C2813 C 0.35389 0.2619 0.42085 0.0
C2814 C 0.36107 0.27992 0.4242 0.0
C2815 C 0.35396 0.28878 0.41383 0.0
C2816 C 0.36065 0.30657 0.41866 0.0
C2817 C 0.37435 0.31543 0.43262 0.0
C2818 C 0.38164 0.30687 0.44219 0.0
C2819 C 0.3751 0.28931 0.43812 0.0
H2820 H 0.71464 0.0365 0.40611 0.0
C2821 C 0.70402 0.0343 0.396 0.0
H2822 H 0.69129 0.04586 0.38184 0.0
H2823 H 0.72052 0.10469 0.45329 0.0
H2824 H 0.69022 0.09052 0.45852 0.0
H2825 H 0.6704 0.06462 0.43744 0.0
H2826 H 0.68071 0.05276 0.41096 0.0
C2827 C 0.70226 0.04781 0.39099 0.0
C2828 C 0.71384 0.06513 0.40086 0.0
C2829 C 0.70755 0.07202 0.41606 0.0
C2830 C 0.71898 0.08684 0.4284 0.0
C2831 C 0.71239 0.09334 0.44366 0.0
C2832 C 0.69504 0.08537 0.44679 0.0
C2833 C 0.68388 0.07079 0.43491 0.0
C2834 C 0.68998 0.06412 0.41975 0.0
H2835 H 0.75646 0.12849 0.41938 0.0
C2836 C 0.75795 0.1251 0.43515 0.0
H2837 H 0.74868 0.10483 0.45652 0.0
H2838 H 0.72959 0.05736 0.37017 0.0
H2839 H 0.75989 0.07157 0.36472 0.0
H2840 H 0.77992 0.09623 0.38738 0.0
H2841 H 0.76983 0.107 0.41535 0.0
C2842 C 0.74857 0.10854 0.44055 0.0
C2843 C 0.73667 0.09474 0.42551 0.0
C2844 C 0.74289 0.08847 0.40943 0.0
C2845 C 0.73141 0.07384 0.39686 0.0
C2846 C 0.73785 0.06808 0.38058 0.0
C2847 C 0.75518 0.07618 0.37721 0.0
C2848 C 0.76645 0.09009 0.38993 0.0
C2849 C 0.76047 0.0962 0.40591 0.0
H2850 H 0.97516 0.67884 0.38286 0.0
C2851 C 0.97337 0.67006 0.36986 0.0
H2852 H 0.95653 0.64626 0.35457 0.0
H2853 H 0.92658 0.64487 0.45027 0.0
H2854 H 0.95089 0.64333 0.46316 0.0
H2855 H 0.97232 0.64471 0.43901 0.0
H2856 H 0.96965 0.64785 0.40183 0.0
C2857 C 0.95884 0.65489 0.36792 0.0
C2858 C 0.94463 0.65098 0.38205 0.0
C2859 C 0.94608 0.64855 0.40361 0.0
C2860 C 0.93347 0.64724 0.41744 0.0
C2861 C 0.93559 0.64556 0.43901 0.0
C2862 C 0.94951 0.6447 0.44663 0.0
C2863 C 0.9616 0.64552 0.43304 0.0
C2864 C 0.95997 0.64742 0.41176 0.0
H2865 H 0.89534 0.6217 0.43026 0.0
C2866 C 0.89481 0.63347 0.43259 0.0
H2867 H 0.90682 0.6601 0.42617 0.0
H2868 H 0.93729 0.65415 0.34131 0.0
H2869 H 0.91234 0.65433 0.32826 0.0
H2870 H 0.89016 0.6514 0.35216 0.0
H2871 H 0.89286 0.64833 0.38931 0.0
C2872 C 0.90666 0.648 0.42392 0.0
C2873 C 0.91924 0.64792 0.40955 0.0
C2874 C 0.91735 0.64943 0.38786 0.0
C2875 C 0.93004 0.65093 0.37407 0.0
C2876 C 0.92799 0.6528 0.35251 0.0
C2877 C 0.91372 0.65294 0.34479 0.0
C2878 C 0.90124 0.65131 0.35825 0.0
C2879 C 0.90297 0.64959 0.37954 0.0
H2880 H 0.36349 0.9807 0.7146 0.0
C2881 C 0.37237 0.99167 0.70575 0.0
H2882 H 0.39803 0.00882 0.69943 0.0
H2883 H 0.40693 0.98043 0.7907 0.0
H2884 H 0.39129 0.9933 0.80524 0.0
H2885 H 0.37831 0.00555 0.78233 0.0
H2886 H 0.38057 0.00467 0.74478 0.0
C2887 C 0.38913 0.99817 0.70869 0.0
C2888 C 0.39629 0.99031 0.72285 0.0
C2889 C 0.39525 0.99143 0.74484 0.0
C2890 C 0.40342 0.98512 0.75812 0.0
C2891 C 0.40156 0.98567 0.77996 0.0
C2892 C 0.39252 0.99292 0.7885 0.0
C2893 C 0.38516 -0.00024 0.77559 0.0
C2894 C 0.38649 0.99908 0.75402 0.0
H2895 H 0.43888 0.99923 0.775 0.0
C2896 C 0.43685 0.98618 0.77465 0.0
H2897 H 0.42111 0.9607 0.7626 0.0
H2898 H 0.39959 0.98485 0.68146 0.0
H2899 H 0.41559 0.97237 0.66703 0.0
H2900 H 0.4308 0.96262 0.69008 0.0
H2901 H 0.43001 0.96519 0.72768 0.0
C2902 C 0.42371 0.97392 0.76315 0.0
C2903 C 0.41327 0.97844 0.74945 0.0
C2904 C 0.41383 0.9768 0.72749 0.0
C2905 C 0.4053 0.98269 0.7142 0.0
C2906 C 0.40605 0.98085 0.6923 0.0
C2907 C 0.41515 0.97366 0.6838 0.0
C2908 C 0.42369 0.96815 0.69677 0.0
C2909 C 0.42311 0.96969 0.71836 0.0
H2910 H 0.00323 0.37223 0.71435 0.0
C2911 C 0.99279 0.36217 0.72276 0.0
H2912 H 0.97553 0.35666 0.74702 0.0
H2913 H 0.02041 0.42631 0.79745 0.0
H2914 H 0.02676 0.40723 0.81697 0.0
H2915 H 0.01733 0.37767 0.80372 0.0
H2916 H 0.00164 0.36708 0.7708 0.0
C2917 C 0.98545 0.36655 0.73785 0.0
C2918 C 0.99211 0.38479 0.74481 0.0
C2919 C 0.0011 0.3907 0.7642 0.0
C2920 C 0.00624 0.4076 0.77203 0.0
C2921 C 0.0157 0.41338 0.79111 0.0
C2922 C 0.01956 0.40261 0.80239 0.0
C2923 C 0.01427 0.38598 0.79492 0.0
C2924 C 0.00521 0.38004 0.77603 0.0
H2925 H 0.98781 0.42294 0.7936 0.0
C2926 C 0.99686 0.43531 0.78726 0.0
H2927 H 0.01388 0.44687 0.76251 0.0
H2928 H 0.97566 0.37768 0.70674 0.0
H2929 H 0.96979 0.39698 0.68694 0.0
H2930 H 0.97862 0.42629 0.7006 0.0
H2931 H 0.99337 0.4365 0.73417 0.0
C2932 C 0.0052 0.43513 0.7702 0.0
C2933 C 0.00197 0.4184 0.76072 0.0
C2934 C 0.99373 0.41281 0.74085 0.0
C2935 C 0.98872 0.39594 0.73291 0.0
C2936 C 0.97996 0.39044 0.71338 0.0
C2937 C 0.97646 0.40137 0.70188 0.0
C2938 C 0.98142 0.41788 0.70957 0.0
C2939 C 0.9899 0.42358 0.72886 0.0
H2940 H 0.60986 0.61861 0.6859 0.0
C2941 C 0.62318 0.62458 0.69044 0.0
H2942 H 0.64097 0.63179 0.71544 0.0
H2943 H 0.56608 0.61306 0.75579 0.0
H2944 H 0.56979 0.63863 0.73876 0.0
H2945 H 0.59443 0.65553 0.7168 0.0
H2946 H 0.61538 0.64677 0.71149 0.0
C2947 C 0.62772 0.62622 0.71075 0.0
C2948 C 0.61468 0.61818 0.72691 0.0
C2949 C 0.60297 0.6239 0.73056 0.0
C2950 C 0.5891 0.61451 0.74383 0.0
C2951 C 0.57709 0.61995 0.74631 0.0
C2952 C 0.57904 0.63459 0.73658 0.0
C2953 C 0.59289 0.64408 0.72417 0.0
C2954 C 0.60476 0.63886 0.72114 0.0
H2955 H 0.57774 0.60593 0.79119 0.0
C2956 C 0.56922 0.59301 0.78479 0.0
H2957 H 0.56334 0.57589 0.75878 0.0
H2958 H 0.63581 0.6047 0.72486 0.0
H2959 H 0.63305 0.58024 0.74358 0.0
H2960 H 0.60953 0.56458 0.7675 0.0
H2961 H 0.58858 0.57328 0.77275 0.0
C2962 C 0.57193 0.58855 0.76571 0.0
C2963 C 0.58735 0.5998 0.75393 0.0
C2964 C 0.5997 0.5948 0.7514 0.0
C2965 C 0.61338 0.60398 0.73785 0.0
C2966 C 0.62526 0.59836 0.73515 0.0
C2967 C 0.62382 0.5843 0.74578 0.0
C2968 C 0.61057 0.57547 0.75923 0.0
C2969 C 0.5986 0.58058 0.76205 0.0
H2970 H 0.68226 0.69743 0.61295 0.0
C2971 C 0.67435 0.68835 0.62453 0.0
H2972 H 0.65226 0.67941 0.64212 0.0
H2973 H 0.67526 0.75476 0.59463 0.0
H2974 H 0.70035 0.76717 0.61709 0.0
H2975 H 0.70467 0.74943 0.64268 0.0
H2976 H 0.68407 0.71895 0.64533 0.0
C2977 C 0.66059 0.68871 0.63104 0.0
C2978 C 0.65545 0.70027 0.62092 0.0
C2979 C 0.66684 0.71832 0.6208 0.0
C2980 C 0.66369 0.72879 0.6072 0.0
C2981 C 0.67633 0.74638 0.60567 0.0
C2982 C 0.69094 0.75366 0.61834 0.0
C2983 C 0.69342 0.74366 0.63265 0.0
C2984 C 0.68157 0.72618 0.63391 0.0
H2985 H 0.64567 0.74918 0.6041 0.0
C2986 C 0.64367 0.74568 0.58754 0.0
H2987 H 0.64325 0.72861 0.56409 0.0
H2988 H 0.63006 0.66635 0.61894 0.0
H2989 H 0.60368 0.65437 0.59896 0.0
H2990 H 0.59717 0.67293 0.57743 0.0
H2991 H 0.61715 0.70358 0.57555 0.0
C2992 C 0.64487 0.73212 0.58062 0.0
C2993 C 0.64833 0.72143 0.59515 0.0
C2994 C 0.63632 0.70362 0.59655 0.0
C2995 C 0.63992 0.69299 0.60931 0.0
C2996 C 0.62795 0.67512 0.60975 0.0
C2997 C 0.61271 0.66804 0.59834 0.0
C2998 C 0.60905 0.67848 0.5862 0.0
C2999 C 0.62066 0.69606 0.58523 0.0
H3000 H 0.27887 0.95867 0.63206 0.0
C3001 C 0.29 0.96013 0.64039 0.0
H3002 H 0.30357 0.94774 0.64895 0.0
H3003 H 0.22468 0.88836 0.614 0.0
H3004 H 0.21478 0.89554 0.64543 0.0
H3005 H 0.23489 0.91814 0.67035 0.0
H3006 H 0.26504 0.93389 0.66378 0.0
C3007 C 0.29211 0.94637 0.64171 0.0
C3008 C 0.28052 0.93015 0.62956 0.0
C3009 C 0.26306 0.92051 0.63407 0.0
C3010 C 0.25155 0.90704 0.62006 0.0
C3011 C 0.23406 0.89836 0.62436 0.0
C3012 C 0.22819 0.9024 0.64233 0.0
C3013 C 0.2395 0.91515 0.65633 0.0
C3014 C 0.25674 0.92416 0.65232 0.0
H3015 H 0.23903 0.86852 0.6035 0.0
C3016 C 0.23709 0.8732 0.58878 0.0
H3017 H 0.24513 0.89543 0.57081 0.0
H3018 H 0.31347 0.94483 0.61732 0.0
H3019 H 0.32358 0.93648 0.58705 0.0
H3020 H 0.30375 0.9125 0.56344 0.0
H3021 H 0.27363 0.89677 0.56992 0.0
C3022 C 0.24565 0.8903 0.58581 0.0
C3023 C 0.25764 0.90286 0.60192 0.0
C3024 C 0.27526 0.91166 0.59824 0.0
C3025 C 0.28671 0.92533 0.61204 0.0
C3026 C 0.30418 0.93422 0.60754 0.0
C3027 C 0.31018 0.92957 0.59018 0.0
C3028 C 0.29901 0.91608 0.57688 0.0
C3029 C 0.28175 0.9072 0.58075 0.0
H3030 H 0.03265 0.33672 0.63776 0.0
C3031 C 0.03883 0.34027 0.65312 0.0
H3032 H 0.06221 0.35174 0.66999 0.0
H3033 H 0.08533 0.32693 0.58603 0.0
H3034 H 0.06783 0.29809 0.59874 0.0
H3035 H 0.0496 0.29301 0.62892 0.0
H3036 H 0.04874 0.31669 0.64649 0.0
C3037 C 0.05577 0.34785 0.65481 0.0
C3038 C 0.06624 0.35078 0.63616 0.0
C3039 C 0.06658 0.33673 0.62608 0.0
C3040 C 0.07722 0.33968 0.60883 0.0
C3041 C 0.07746 0.32545 0.59917 0.0
C3042 C 0.06749 0.30881 0.60633 0.0
C3043 C 0.05722 0.30594 0.6233 0.0
C3044 C 0.05678 0.31968 0.63318 0.0
H3045 H 0.12124 0.37401 0.60503 0.0
C3046 C 0.11671 0.36809 0.58957 0.0
H3047 H 0.09495 0.3539 0.5699 0.0
H3048 H 0.06817 0.38035 0.65169 0.0
H3049 H 0.08531 0.40919 0.63856 0.0
H3050 H 0.10334 0.41424 0.60817 0.0
H3051 H 0.10445 0.39052 0.59083 0.0
C3052 C 0.09996 0.35976 0.58522 0.0
C3053 C 0.08771 0.3567 0.60194 0.0
C3054 C 0.08698 0.37067 0.61162 0.0
C3055 C 0.07636 0.36771 0.6289 0.0
C3056 C 0.07601 0.3819 0.63848 0.0
C3057 C 0.08575 0.39849 0.63108 0.0
C3058 C 0.09592 0.40134 0.61399 0.0
C3059 C 0.09654 0.38764 0.60426 0.0
H3060 H 0.29592 0.33817 0.64538 0.0
C3061 C 0.29465 0.3436 0.66008 0.0
H3062 H 0.2849 0.35789 0.67497 0.0
H3063 H 0.27788 0.39189 0.59276 0.0
H3064 H 0.30311 0.41607 0.60868 0.0
H3065 H 0.317 0.41219 0.63971 0.0
H3066 H 0.30581 0.38406 0.65492 0.0
C3067 C 0.28589 0.35199 0.66051 0.0
C3068 C 0.27777 0.35407 0.64132 0.0
C3069 C 0.28431 0.37063 0.6328 0.0
C3070 C 0.27615 0.37293 0.6151 0.0
C3071 C 0.28329 0.38951 0.60653 0.0
C3072 C 0.29784 0.40348 0.61543 0.0
C3073 C 0.30567 0.40129 0.63288 0.0
C3074 C 0.29908 0.38509 0.64149 0.0
H3075 H 0.245 0.37622 0.60703 0.0
C3076 C 0.24352 0.36991 0.59185 0.0
H3077 H 0.25084 0.35472 0.57387 0.0
H3078 H 0.26144 0.32063 0.65418 0.0
H3079 H 0.23648 0.29645 0.63797 0.0
H3080 H 0.22259 0.30037 0.60699 0.0
H3081 H 0.23354 0.32855 0.59211 0.0
C3082 C 0.25177 0.36116 0.58873 0.0
C3083 C 0.26124 0.3587 0.60619 0.0
C3084 C 0.25496 0.34205 0.61437 0.0
C3085 C 0.26312 0.33974 0.63207 0.0
C3086 C 0.25606 0.32309 0.64045 0.0
C3087 C 0.24165 0.30908 0.63137 0.0
C3088 C 0.23382 0.31129 0.61395 0.0
C3089 C 0.24027 0.32755 0.60554 0.0
H3090 H 0.69298 0.96045 0.63234 0.0
C3091 C 0.68335 0.96326 0.63777 0.0
H3092 H 0.6571 0.95328 0.64126 0.0
H3093 H 0.64751 0.90297 0.56373 0.0
H3094 H 0.64126 0.92334 0.54752 0.0
H3095 H 0.64415 0.94851 0.56752 0.0
H3096 H 0.65355 0.95351 0.60382 0.0
C3097 C 0.66709 0.95054 0.63743 0.0
C3098 C 0.66227 0.93367 0.62701 0.0
C3099 C 0.65591 0.93044 0.60612 0.0
C3100 C 0.65372 0.91562 0.5948 0.0
C3101 C 0.64867 0.91351 0.57343 0.0
C3102 C 0.64519 0.92524 0.56382 0.0
C3103 C 0.64686 0.93942 0.57506 0.0
C3104 C 0.65225 0.94212 0.59591 0.0
H3105 H 0.62988 0.87653 0.58654 0.0
C3106 C 0.64132 0.87577 0.58485 0.0
H3107 H 0.66778 0.8885 0.59097 0.0
H3108 H 0.67313 0.93541 0.66733 0.0
H3109 H 0.67859 0.91455 0.68419 0.0
H3110 H 0.67406 0.88839 0.66499 0.0
H3111 H 0.66413 0.88292 0.62883 0.0
C3112 C 0.65608 0.8887 0.59282 0.0
C3113 C 0.65719 0.90366 0.60476 0.0
C3114 C 0.66285 0.90656 0.62595 0.0
C3115 C 0.66544 0.92162 0.63706 0.0
C3116 C 0.67115 0.92425 0.65816 0.0
C3117 C 0.67425 0.91236 0.66803 0.0
C3118 C 0.6717 0.89762 0.65722 0.0
C3119 C 0.66604 0.89467 0.63644 0.0
H3120 H 0.06163 0.7053 0.66421 0.0
C3121 C 0.04923 0.7026 0.65854 0.0
H3122 H 0.03504 0.7038 0.633 0.0
H3123 H 0.09983 0.76622 0.59467 0.0
H3124 H 0.08424 0.78006 0.60607 0.0
H3125 H 0.05827 0.76421 0.6262 0.0
H3126 H 0.04779 0.73445 0.63511 0.0
C3127 C 0.0472 0.70585 0.63868 0.0
C3128 C 0.06202 0.71472 0.62501 0.0
C3129 C 0.06773 0.73199 0.61951 0.0
C3130 C 0.08258 0.74106 0.60769 0.0
C3131 C 0.0884 0.75855 0.60316 0.0
C3132 C 0.07963 0.76671 0.60973 0.0
C3133 C 0.06502 0.75779 0.62108 0.0
C3134 C 0.05912 0.74068 0.62604 0.0
H3135 H 0.09387 0.74164 0.5617 0.0
C3136 C 0.10629 0.74595 0.56884 0.0
H3137 H 0.11914 0.74655 0.59699 0.0
H3138 H 0.05349 0.68117 0.63106 0.0
H3139 H 0.06907 0.66727 0.61951 0.0
H3140 H 0.0951 0.68318 0.59948 0.0
H3141 H 0.10567 0.71307 0.59076 0.0
C3142 C 0.10712 0.74221 0.58888 0.0
C3143 C 0.09149 0.73271 0.60105 0.0
C3144 C 0.08566 0.71537 0.60631 0.0
C3145 C 0.07081 0.7063 0.61814 0.0
C3146 C 0.06495 0.68881 0.62259 0.0
C3147 C 0.07371 0.68064 0.61594 0.0
C3148 C 0.08836 0.68959 0.60463 0.0
C3149 C 0.0943 0.70674 0.59977 0.0
H3150 H 0.00638 0.63785 0.7091 0.0
C3151 C 0.99495 0.63677 0.7156 0.0
H3152 H 0.97472 0.62315 0.73597 0.0
H3153 H 0.98076 0.55635 0.74069 0.0
H3154 H 0.95682 0.54593 0.71629 0.0
H3155 H 0.94882 0.56601 0.7011 0.0
H3156 H 0.96475 0.59665 0.71014 0.0
C3157 C 0.98625 0.62454 0.72946 0.0
C3158 C 0.99213 0.61282 0.73708 0.0
C3159 C 0.98265 0.59498 0.7317 0.0
C3160 C 0.98715 0.58338 0.74063 0.0
C3161 C 0.97765 0.56566 0.73471 0.0
C3162 C 0.96395 0.55953 0.72063 0.0
C3163 C 0.95945 0.57084 0.71206 0.0
C3164 C 0.96867 0.58837 0.71744 0.0
H3165 H 0.98279 0.56827 0.78404 0.0
C3166 C 0.99408 0.56744 0.78112 0.0
H3167 H 0.01653 0.57801 0.76363 0.0
H3168 H 0.01286 0.64629 0.75128 0.0
H3169 H 0.03705 0.65665 0.77502 0.0
H3170 H 0.04522 0.63657 0.78979 0.0
H3171 H 0.02911 0.60596 0.78097 0.0
C3172 C 0.00458 0.57744 0.76638 0.0
C3173 C 0.00098 0.58965 0.75512 0.0
C3174 C 0.01091 0.60758 0.75983 0.0
C3175 C 0.00636 0.61918 0.75101 0.0
C3176 C 0.01595 0.63691 0.75697 0.0
C3177 C 0.02985 0.64304 0.77073 0.0
C3178 C 0.03443 0.63174 0.77906 0.0
C3179 C 0.02508 0.6142 0.77383 0.0
H3180 H 0.36151 0.38772 0.71763 0.0
C3181 C 0.36518 0.37967 0.72613 0.0
H3182 H 0.38182 0.37902 0.74884 0.0
H3183 H 0.42948 0.46118 0.73063 0.0
H3184 H 0.43327 0.45212 0.69612 0.0
H3185 H 0.41625 0.4217 0.68399 0.0
H3186 H 0.39522 0.40016 0.70616 0.0
C3187 C 0.37849 0.38702 0.73969 0.0
C3188 C 0.38739 0.4057 0.74553 0.0
C3189 C 0.39965 0.41805 0.73239 0.0
C3190 C 0.40976 0.43552 0.73958 0.0
C3191 C 0.42177 0.44767 0.72609 0.0
C3192 C 0.42401 0.44266 0.70624 0.0
C3193 C 0.4144 0.42553 0.69939 0.0
C3194 C 0.40236 0.4133 0.71225 0.0
H3195 H 0.44026 0.45366 0.76931 0.0
C3196 C 0.43583 0.46245 0.77392 0.0
H3197 H 0.41476 0.46635 0.77295 0.0
H3198 H 0.3638 0.38558 0.77373 0.0
H3199 H 0.36001 0.39466 0.80815 0.0
H3200 H 0.37801 0.42476 0.82093 0.0
H3201 H 0.39978 0.44602 0.79937 0.0
C3202 C 0.41977 0.45801 0.76887 0.0
C3203 C 0.40778 0.44047 0.76001 0.0
C3204 C 0.39492 0.4283 0.77272 0.0
C3205 C 0.38472 0.4109 0.76546 0.0
C3206 C 0.37207 0.39894 0.77857 0.0
C3207 C 0.36972 0.40397 0.79834 0.0
C3208 C 0.37983 0.42093 0.80553 0.0
C3209 C 0.39229 0.43301 0.79296 0.0
H3210 H 0.63813 0.99447 0.7081 0.0
C3211 C 0.63616 0.00066 0.69479 0.0
H3212 H 0.6218 0.01094 0.68195 0.0
H3213 H 0.57315 0.96074 0.75714 0.0
H3214 H 0.57121 0.93672 0.73671 0.0
H3215 H 0.58769 0.94173 0.70483 0.0
H3216 H 0.60644 0.97076 0.69345 0.0
C3217 C 0.62352 0.00422 0.69484 0.0
C3218 C 0.61274 0.00089 0.7133 0.0
C3219 C 0.60133 0.98377 0.71922 0.0
C3220 C 0.59119 0.98084 0.737 0.0
C3221 C 0.58059 0.96367 0.74326 0.0
C3222 C 0.57945 0.94976 0.73175 0.0
C3223 C 0.58877 0.95259 0.71386 0.0
C3224 C 0.59959 0.96935 0.70757 0.0
H3225 H 0.5584 0.97968 0.74589 0.0
C3226 C 0.5633 0.98465 0.7616 0.0
H3227 H 0.58548 0.99701 0.78094 0.0
H3228 H 0.63377 0.03531 0.70669 0.0
H3229 H 0.63509 0.05924 0.72659 0.0
H3230 H 0.61655 0.0541 0.75644 0.0
H3231 H 0.59668 0.02501 0.76668 0.0
C3232 C 0.58007 0.99207 0.76545 0.0
C3233 C 0.59185 0.99499 0.74817 0.0
C3234 C 0.60334 0.01209 0.74236 0.0
C3235 C 0.61383 0.01505 0.72494 0.0
C3236 C 0.62532 0.03228 0.7196 0.0
C3237 C 0.62624 0.04616 0.73092 0.0
C3238 C 0.61582 0.04327 0.74774 0.0
C3239 C 0.60448 0.02648 0.75346 0.0
loop_
_geom_bond_atom_site_label_1
_geom_bond_atom_site_label_2
_geom_bond_distance
_geom_bond_site_symmetry_2
_ccdc_geom_bond_type
Mg0 O1 2.028 1_556 S
Mg0 O7 1.986 1_455 S
Mg0 O9 2.114 . S
Mg0 O10 2.236 1_455 S
Mg0 O13 2.010 1_556 S
O1 Mg0 2.028 1_554 S
O1 C4 1.250 1_455 S
O2 Mg3 2.028 1_554 S
O2 C4 1.248 . S
Mg3 O2 2.028 1_556 S
Mg3 O8 2.032 . S
Mg3 O10 2.098 . S
C4 O1 1.250 1_655 S
C4 O2 1.248 . S
C5 O6 1.264 . S
C5 O13 1.249 . S
O6 C5 1.264 . S
O7 Mg0 1.986 1_655 S
O7 C11 1.246 . S
O8 Mg3 2.032 . S
O8 C11 1.259 . S
O9 Mg0 2.114 . S
O9 C12 1.252 . S
O10 Mg0 2.236 1_655 S
O10 Mg3 2.098 . S
O10 C12 1.258 1_655 S
C11 O7 1.246 . S
C11 O8 1.259 . S
C12 O9 1.252 . S
C12 O10 1.258 1_455 S
O13 Mg0 2.010 1_554 S
O13 C5 1.249 . S
Mg14 O15 2.028 1_554 S
Mg14 O21 1.986 . S
Mg14 O23 2.114 . S
Mg14 O24 2.251 . S
Mg14 O27 2.010 . S
O15 Mg14 2.028 1_556 S
O15 C18 1.250 . S
O16 Mg17 2.028 . S
O16 C18 1.248 1_554 S
Mg17 O16 2.028 . S
Mg17 O22 2.032 . S
Mg17 O24 2.079 . S
C18 O15 1.250 . S
C18 O16 1.248 1_556 S
C19 O20 1.264 1_556 S
C19 O27 1.249 1_556 S
O20 C19 1.264 1_554 S
O21 Mg14 1.986 . S
O21 C25 1.246 . S
O22 Mg17 2.032 . S
O22 C25 1.259 . S
O23 Mg14 2.114 . S
O23 C26 1.252 . S
O24 Mg14 2.251 . S
O24 Mg17 2.079 . S
O24 C26 1.273 . S
C25 O21 1.246 . S
C25 O22 1.259 . S
C26 O23 1.252 . S
C26 O24 1.273 . S
O27 Mg14 2.010 . S
O27 C19 1.249 1_554 S
Mg28 O29 1.995 1_566 S
Mg28 O35 1.986 1_565 S
Mg28 O37 2.127 . S
Mg28 O38 2.273 1_565 S
Mg28 O41 1.996 1_556 S
O29 Mg28 1.995 1_544 S
O29 C32 1.250 . S
O30 Mg31 2.028 1_554 S
O30 C32 1.248 . S
Mg31 O30 2.028 1_556 S
Mg31 O36 2.032 . S
Mg31 O38 2.079 . S
C32 O29 1.250 . S
C32 O30 1.248 . S
C33 O34 1.264 . S
C33 O41 1.249 . S
O34 C33 1.264 . S
O35 Mg28 1.986 1_545 S
O35 C39 1.250 . S
O36 Mg31 2.032 . S
O36 C39 1.259 . S
O37 Mg28 2.127 . S
O37 C40 1.252 . S
O38 Mg28 2.273 1_545 S
O38 Mg31 2.079 . S
O38 C40 1.273 1_545 S
C39 O35 1.250 . S
C39 O36 1.259 . S
C40 O37 1.252 . S
C40 O38 1.273 1_565 S
O41 Mg28 1.996 1_554 S
O41 C33 1.249 . S
Mg42 O43 2.008 1_654 S
Mg42 O49 1.986 1_655 S
Mg42 O51 2.114 . S
Mg42 O52 2.251 1_655 S
Mg42 O55 2.010 . S
O43 Mg42 2.008 1_456 S
O43 C46 1.300 . S
O44 Mg45 2.033 1_556 S
O44 C46 1.244 . S
Mg45 O44 2.033 1_554 S
Mg45 O50 2.032 . S
Mg45 O52 2.079 . S
C46 O43 1.300 . S
C46 O44 1.244 . S
C47 O48 1.264 . S
C47 O55 1.249 . S
O48 C47 1.264 . S
O49 Mg42 1.986 1_455 S
O49 C53 1.246 . S
O50 Mg45 2.032 . S
O50 C53 1.259 . S
O51 Mg42 2.114 . S
O51 C54 1.252 . S
O52 Mg42 2.251 1_455 S
O52 Mg45 2.079 . S
O52 C54 1.273 1_455 S
C53 O49 1.246 . S
C53 O50 1.259 . S
C54 O51 1.252 . S
C54 O52 1.273 1_655 S
O55 Mg42 2.010 . S
O55 C47 1.249 . S
Mg56 O57 2.052 . S
Mg56 O63 1.985 1_554 S
Mg56 O65 2.105 1_554 S
Mg56 O66 2.235 1_554 S
Mg56 O69 2.022 . S
O57 Mg56 2.052 . S
O57 C60 1.250 . S
O58 Mg59 2.028 1_554 S
O58 C60 1.248 . S
Mg59 O58 2.028 1_556 S
Mg59 O64 2.032 . S
Mg59 O66 2.079 . S
C60 O57 1.250 . S
C60 O58 1.248 . S
C61 O62 1.264 . S
C61 O69 1.249 . S
O62 C61 1.264 . S
O63 Mg56 1.985 1_556 S
O63 C67 1.246 . S
O64 Mg59 2.032 . S
O64 C67 1.259 . S
O65 Mg56 2.105 1_556 S
O65 C68 1.252 . S
O66 Mg56 2.235 1_556 S
O66 Mg59 2.079 . S
O66 C68 1.273 . S
C67 O63 1.246 . S
C67 O64 1.259 . S
C68 O65 1.252 . S
C68 O66 1.273 . S
O69 Mg56 2.022 . S
O69 C61 1.249 . S
Mg70 O71 2.028 1_554 S
Mg70 O77 1.986 1_545 S
Mg70 O79 2.114 . S
Mg70 O80 2.251 1_545 S
Mg70 O83 2.010 . S
O71 Mg70 2.028 1_556 S
O71 C74 1.250 1_545 S
O72 Mg73 2.028 . S
O72 C74 1.248 1_554 S
Mg73 O72 2.028 . S
Mg73 O78 2.032 . S
Mg73 O80 2.079 . S
C74 O71 1.250 1_565 S
C74 O72 1.248 1_556 S
C75 O76 1.264 . S
C75 O83 1.249 . S
O76 C75 1.264 . S
O77 Mg70 1.986 1_565 S
O77 C81 1.246 . S
O78 Mg73 2.032 . S
O78 C81 1.259 . S
O79 Mg70 2.114 . S
O79 C82 1.252 . S
O80 Mg70 2.251 1_565 S
O80 Mg73 2.079 . S
O80 C82 1.273 1_565 S
C81 O77 1.246 . S
C81 O78 1.259 . S
C82 O79 1.252 . S
C82 O80 1.273 1_545 S
O83 Mg70 2.010 . S
O83 C75 1.249 . S
Mg84 O85 2.028 . S
Mg84 O91 1.986 . S
Mg84 O93 2.114 . S
Mg84 O94 2.251 . S
Mg84 O97 2.010 . S
O85 Mg84 2.028 . S
O85 C88 1.250 . S
O86 Mg87 2.028 . S
O86 C88 1.248 . S
Mg87 O86 2.028 . S
Mg87 O92 2.032 . S
Mg87 O94 2.079 . S
C88 O85 1.250 . S
C88 O86 1.248 . S
C89 O90 1.264 . S
C89 O97 1.249 . S
O90 C89 1.264 . S
O91 Mg84 1.986 . S
O91 C95 1.246 . S
O92 Mg87 2.032 . S
O92 C95 1.259 . S
O93 Mg84 2.114 . S
O93 C96 1.252 . S
O94 Mg84 2.251 . S
O94 Mg87 2.079 . S
O94 C96 1.273 . S
C95 O91 1.246 . S
C95 O92 1.259 . S
C96 O93 1.252 . S
C96 O94 1.273 . S
O97 Mg84 2.010 . S
O97 C89 1.249 . S
Mg98 O99 2.028 . S
Mg98 O105 1.986 1_565 S
Mg98 O107 2.114 . S
Mg98 O108 2.251 . S
Mg98 O111 2.010 . S
O99 Mg98 2.028 . S
O99 C102 1.250 . S
O100 Mg101 2.028 . S
O100 C102 1.248 . S
Mg101 O100 2.028 . S
Mg101 O106 2.032 1_565 S
Mg101 O108 2.079 . S
C102 O99 1.250 . S
C102 O100 1.248 . S
C103 O104 1.264 . S
C103 O111 1.249 . S
O104 C103 1.264 . S
O105 Mg98 1.986 1_545 S
O105 C109 1.246 . S
O106 Mg101 2.032 1_545 S
O106 C109 1.259 . S
O107 Mg98 2.114 . S
O107 C110 1.252 . S
O108 Mg98 2.251 . S
O108 Mg101 2.079 . S
O108 C110 1.273 . S
C109 O105 1.246 . S
C109 O106 1.259 . S
C110 O107 1.252 . S
C110 O108 1.273 . S
O111 Mg98 2.010 . S
O111 C103 1.249 . S
Mg112 O113 2.028 . S
Mg112 O119 1.986 . S
Mg112 O121 2.114 . S
Mg112 O122 2.251 . S
Mg112 O125 2.010 1_455 S
O113 Mg112 2.028 . S
O113 C116 1.250 . S
O114 Mg115 2.028 . S
O114 C116 1.248 . S
Mg115 O114 2.028 . S
Mg115 O120 2.032 . S
Mg115 O122 2.079 . S
C116 O113 1.250 . S
C116 O114 1.248 . S
C117 O118 1.264 . S
C117 O125 1.249 . S
O118 C117 1.264 . S
O119 Mg112 1.986 . S
O119 C123 1.246 . S
O120 Mg115 2.032 . S
O120 C123 1.259 . S
O121 Mg112 2.114 . S
O121 C124 1.252 . S
O122 Mg112 2.251 . S
O122 Mg115 2.079 . S
O122 C124 1.273 . S
C123 O119 1.246 . S
C123 O120 1.259 . S
C124 O121 1.252 . S
C124 O122 1.273 . S
O125 Mg112 2.010 1_655 S
O125 C117 1.249 . S
Mg126 O127 2.028 . S
Mg126 O133 1.986 1_565 S
Mg126 O135 2.114 . S
Mg126 O136 2.251 . S
Mg126 O139 2.010 . S
O127 Mg126 2.028 . S
O127 C130 1.250 . S
O128 Mg129 2.028 . S
O128 C130 1.248 . S
Mg129 O128 2.028 . S
Mg129 O134 2.032 1_565 S
Mg129 O136 2.079 . S
C130 O127 1.250 . S
C130 O128 1.248 . S
C131 O132 1.264 . S
C131 O139 1.249 . S
O132 C131 1.264 . S
O133 Mg126 1.986 1_545 S
O133 C137 1.246 . S
O134 Mg129 2.032 1_545 S
O134 C137 1.259 . S
O135 Mg126 2.114 . S
O135 C138 1.252 . S
O136 Mg126 2.251 . S
O136 Mg129 2.079 . S
O136 C138 1.273 . S
C137 O133 1.246 . S
C137 O134 1.259 . S
C138 O135 1.252 . S
C138 O136 1.273 . S
O139 Mg126 2.010 . S
O139 C131 1.249 . S
Mg140 O141 2.028 . S
Mg140 O147 1.986 . S
Mg140 O149 2.114 . S
Mg140 O150 2.251 . S
Mg140 O153 2.010 1_455 S
O141 Mg140 2.028 . S
O141 C144 1.250 . S
O142 Mg143 2.028 . S
O142 C144 1.248 . S
Mg143 O142 2.028 . S
Mg143 O148 2.032 . S
Mg143 O150 2.079 . S
C144 O141 1.250 . S
C144 O142 1.248 . S
C145 O146 1.264 . S
C145 O153 1.249 . S
O146 C145 1.264 . S
O147 Mg140 1.986 . S
O147 C151 1.246 . S
O148 Mg143 2.032 . S
O148 C151 1.259 . S
O149 Mg140 2.114 . S
O149 C152 1.252 . S
O150 Mg140 2.251 . S
O150 Mg143 2.079 . S
O150 C152 1.273 . S
C151 O147 1.246 . S
C151 O148 1.259 . S
C152 O149 1.252 . S
C152 O150 1.273 . S
O153 Mg140 2.010 1_655 S
O153 C145 1.249 . S
Mg154 O155 2.028 . S
Mg154 O161 1.986 . S
Mg154 O163 2.114 . S
Mg154 O164 2.251 . S
Mg154 O167 2.010 . S
O155 Mg154 2.028 . S
O155 C158 1.250 . S
O156 Mg157 2.028 . S
O156 C158 1.248 . S
Mg157 O156 2.028 . S
Mg157 O162 2.032 . S
Mg157 O164 2.079 . S
C158 O155 1.250 . S
C158 O156 1.248 . S
C159 O160 1.264 . S
C159 O167 1.249 . S
O160 C159 1.264 . S
O161 Mg154 1.986 . S
O161 C165 1.246 . S
O162 Mg157 2.032 . S
O162 C165 1.259 . S
O163 Mg154 2.114 . S
O163 C166 1.252 . S
O164 Mg154 2.251 . S
O164 Mg157 2.079 . S
O164 C166 1.273 . S
C165 O161 1.246 . S
C165 O162 1.259 . S
C166 O163 1.252 . S
C166 O164 1.273 . S
O167 Mg154 2.010 . S
O167 C159 1.249 . S
Mg168 O169 2.028 . S
Mg168 O175 1.986 1_545 S
Mg168 O177 2.114 . S
Mg168 O178 2.251 . S
Mg168 O181 2.010 . S
O169 Mg168 2.028 . S
O169 C172 1.250 . S
O170 Mg171 2.028 . S
O170 C172 1.248 . S
Mg171 O170 2.028 . S
Mg171 O176 2.032 1_545 S
Mg171 O178 2.079 . S
C172 O169 1.250 . S
C172 O170 1.248 . S
C173 O174 1.264 . S
C173 O181 1.249 . S
O174 C173 1.264 . S
O175 Mg168 1.986 1_565 S
O175 C179 1.246 . S
O176 Mg171 2.032 1_565 S
O176 C179 1.259 . S
O177 Mg168 2.114 . S
O177 C180 1.252 . S
O178 Mg168 2.251 . S
O178 Mg171 2.079 . S
O178 C180 1.273 . S
C179 O175 1.246 . S
C179 O176 1.259 . S
C180 O177 1.252 . S
C180 O178 1.273 . S
O181 Mg168 2.010 . S
O181 C173 1.249 . S
Mg182 O183 2.028 . S
Mg182 O189 1.986 . S
Mg182 O191 2.114 . S
Mg182 O192 2.251 . S
Mg182 O195 2.010 1_655 S
O183 Mg182 2.028 . S
O183 C186 1.250 . S
O184 Mg185 2.028 . S
O184 C186 1.248 . S
Mg185 O184 2.028 . S
Mg185 O190 2.032 . S
Mg185 O192 2.079 . S
C186 O183 1.250 . S
C186 O184 1.248 . S
C187 O188 1.264 . S
C187 O195 1.249 . S
O188 C187 1.264 . S
O189 Mg182 1.986 . S
O189 C193 1.246 . S
O190 Mg185 2.032 . S
O190 C193 1.259 . S
O191 Mg182 2.114 . S
O191 C194 1.252 . S
O192 Mg182 2.251 . S
O192 Mg185 2.079 . S
O192 C194 1.273 . S
C193 O189 1.246 . S
C193 O190 1.259 . S
C194 O191 1.252 . S
C194 O192 1.273 . S
O195 Mg182 2.010 1_455 S
O195 C187 1.249 . S
Mg196 O197 2.028 . S
Mg196 O203 1.986 . S
Mg196 O205 2.114 . S
Mg196 O206 2.251 . S
Mg196 O209 2.010 . S
O197 Mg196 2.028 . S
O197 C200 1.250 . S
O198 Mg199 2.028 . S
O198 C200 1.248 . S
Mg199 O198 2.028 . S
Mg199 O204 2.032 . S
Mg199 O206 2.079 . S
C200 O197 1.250 . S
C200 O198 1.248 . S
C201 O202 1.264 . S
C201 O209 1.249 . S
O202 C201 1.264 . S
O203 Mg196 1.986 . S
O203 C207 1.246 . S
O204 Mg199 2.032 . S
O204 C207 1.259 . S
O205 Mg196 2.114 . S
O205 C208 1.252 . S
O206 Mg196 2.251 . S
O206 Mg199 2.079 . S
O206 C208 1.273 . S
C207 O203 1.246 . S
C207 O204 1.259 . S
C208 O205 1.252 . S
C208 O206 1.273 . S
O209 Mg196 2.010 . S
O209 C201 1.249 . S
Mg210 O211 2.028 . S
Mg210 O217 1.986 . S
Mg210 O219 2.114 . S
Mg210 O220 2.251 . S
Mg210 O223 2.010 . S
O211 Mg210 2.028 . S
O211 C214 1.250 . S
O212 Mg213 2.028 . S
O212 C214 1.248 . S
Mg213 O212 2.028 . S
Mg213 O218 2.032 . S
Mg213 O220 2.079 . S
C214 O211 1.250 . S
C214 O212 1.248 . S
C215 O216 1.264 . S
C215 O223 1.249 . S
O216 C215 1.264 . S
O217 Mg210 1.986 . S
O217 C221 1.246 . S
O218 Mg213 2.032 . S
O218 C221 1.259 . S
O219 Mg210 2.114 . S
O219 C222 1.252 . S
O220 Mg210 2.251 . S
O220 Mg213 2.079 . S
O220 C222 1.273 . S
C221 O217 1.246 . S
C221 O218 1.259 . S
C222 O219 1.252 . S
C222 O220 1.273 . S
O223 Mg210 2.010 . S
O223 C215 1.249 . S
Mg224 O225 2.028 . S
Mg224 O231 1.986 1_545 S
Mg224 O233 2.114 . S
Mg224 O234 2.251 . S
Mg224 O237 2.010 . S
O225 Mg224 2.028 . S
O225 C228 1.250 . S
O226 Mg227 2.028 . S
O226 C228 1.248 . S
Mg227 O226 2.028 . S
Mg227 O232 2.032 1_545 S
Mg227 O234 2.079 . S
C228 O225 1.250 . S
C228 O226 1.248 . S
C229 O230 1.264 . S
C229 O237 1.249 . S
O230 C229 1.264 . S
O231 Mg224 1.986 1_565 S
O231 C235 1.246 . S
O232 Mg227 2.032 1_565 S
O232 C235 1.259 . S
O233 Mg224 2.114 . S
O233 C236 1.252 . S
O234 Mg224 2.251 . S
O234 Mg227 2.079 . S
O234 C236 1.273 . S
C235 O231 1.246 . S
C235 O232 1.259 . S
C236 O233 1.252 . S
C236 O234 1.273 . S
O237 Mg224 2.010 . S
O237 C229 1.249 . S
Mg238 O239 2.028 . S
Mg238 O245 1.986 . S
Mg238 O247 2.114 . S
Mg238 O248 2.251 . S
Mg238 O251 2.010 1_655 S
O239 Mg238 2.028 . S
O239 C242 1.250 . S
O240 Mg241 2.028 . S
O240 C242 1.248 . S
Mg241 O240 2.028 . S
Mg241 O246 2.032 . S
Mg241 O248 2.079 . S
C242 O239 1.250 . S
C242 O240 1.248 . S
C243 O244 1.264 . S
C243 O251 1.249 . S
O244 C243 1.264 . S
O245 Mg238 1.986 . S
O245 C249 1.246 . S
O246 Mg241 2.032 . S
O246 C249 1.259 . S
O247 Mg238 2.114 . S
O247 C250 1.252 . S
O248 Mg238 2.251 . S
O248 Mg241 2.079 . S
O248 C250 1.273 . S
C249 O245 1.246 . S
C249 O246 1.259 . S
C250 O247 1.252 . S
C250 O248 1.273 . S
O251 Mg238 2.010 1_455 S
O251 C243 1.249 . S
C252 C253 1.384 . S
C252 C254 1.384 . S
C252 H280 0.931 . S
C253 C252 1.384 . S
C253 C256 1.382 . S
C254 C252 1.384 . S
C254 C255 1.381 . S
C254 H281 0.930 . S
C255 C254 1.381 . S
C255 C257 1.381 . S
C255 C258 1.487 . S
C256 C253 1.382 . S
C256 C257 1.387 . S
C256 H282 0.930 . S
C257 C255 1.381 . S
C257 C256 1.387 . S
C257 H283 0.931 . S
C258 C255 1.487 . S
C258 C265 1.399 . S
C258 N296 1.343 . S
C259 C260 1.384 . S
C259 C261 1.384 . S
C259 H284 0.931 . S
C260 C259 1.384 . S
C260 C263 1.382 . S
C261 C259 1.384 . S
C261 C262 1.381 . S
C261 H285 0.930 . S
C262 C261 1.381 . S
C262 C264 1.381 . S
C262 C265 1.487 . S
C263 C260 1.382 . S
C263 C264 1.387 . S
C263 H286 0.930 . S
C264 C262 1.381 . S
C264 C263 1.387 . S
C264 H287 0.931 . S
C265 C258 1.399 . S
C265 C262 1.487 . S
C265 N297 1.343 . S
C266 C267 1.384 . S
C266 C268 1.384 . S
C266 H288 0.931 . S
C267 C266 1.384 . S
C267 C270 1.382 . S
C268 C266 1.384 . S
C268 C269 1.381 . S
C268 H289 0.930 . S
C269 C268 1.381 . S
C269 C271 1.381 . S
C269 C272 1.487 . S
C270 C267 1.382 . S
C270 C271 1.387 . S
C270 H290 0.930 . S
C271 C269 1.381 . S
C271 C270 1.387 . S
C271 H291 0.931 . S
C272 C269 1.487 . S
C272 C279 1.399 . S
C272 N297 1.343 . S
C273 C274 1.384 . S
C273 C275 1.384 . S
C273 H292 0.931 . S
C274 C273 1.384 . S
C274 C277 1.382 . S
C275 C273 1.384 . S
C275 C276 1.381 . S
C275 H293 0.930 . S
C276 C275 1.381 . S
C276 C278 1.381 . S
C276 C279 1.487 . S
C277 C274 1.382 . S
C277 C278 1.387 . S
C277 H294 0.930 . S
C278 C276 1.381 . S
C278 C277 1.387 . S
C278 H295 0.931 . S
C279 C272 1.399 . S
C279 C276 1.487 . S
C279 N296 1.343 . S
H280 C252 0.931 . S
H281 C254 0.930 . S
H282 C256 0.930 . S
H283 C257 0.931 . S
H284 C259 0.931 . S
H285 C261 0.930 . S
H286 C263 0.930 . S
H287 C264 0.931 . S
H288 C266 0.931 . S
H289 C268 0.930 . S
H290 C270 0.930 . S
H291 C271 0.931 . S
H292 C273 0.931 . S
H293 C275 0.930 . S
H294 C277 0.930 . S
H295 C278 0.931 . S
N296 C258 1.343 . S
N296 C279 1.343 . S
N297 C265 1.343 . S
N297 C272 1.343 . S
C298 C299 1.384 . S
C298 C300 1.384 . S
C298 H326 0.931 . S
C299 C298 1.384 . S
C299 C302 1.382 . S
C300 C298 1.384 . S
C300 C301 1.381 . S
C300 H327 0.930 . S
C301 C300 1.381 . S
C301 C303 1.381 . S
C301 C304 1.487 . S
C302 C299 1.382 . S
C302 C303 1.387 . S
C302 H328 0.930 . S
C303 C301 1.381 . S
C303 C302 1.387 . S
C303 H329 0.931 . S
C304 C301 1.487 . S
C304 C311 1.399 . S
C304 N342 1.343 . S
C305 C306 1.384 . S
C305 C307 1.384 . S
C305 H330 0.931 . S
C306 C305 1.384 . S
C306 C309 1.382 . S
C307 C305 1.384 . S
C307 C308 1.381 . S
C307 H331 0.930 . S
C308 C307 1.381 . S
C308 C310 1.381 . S
C308 C311 1.487 . S
C309 C306 1.382 . S
C309 C310 1.387 . S
C309 H332 0.930 . S
C310 C308 1.381 . S
C310 C309 1.387 . S
C310 H333 0.931 . S
C311 C304 1.399 . S
C311 C308 1.487 . S
C311 N343 1.343 . S
C312 C313 1.384 . S
C312 C314 1.384 . S
C312 H334 0.931 . S
C313 C312 1.384 . S
C313 C316 1.382 . S
C314 C312 1.384 . S
C314 C315 1.381 . S
C314 H335 0.930 . S
C315 C314 1.381 . S
C315 C317 1.381 . S
C315 C318 1.487 . S
C316 C313 1.382 . S
C316 C317 1.387 . S
C316 H336 0.930 . S
C317 C315 1.381 . S
C317 C316 1.387 . S
C317 H337 0.931 . S
C318 C315 1.487 . S
C318 C325 1.399 . S
C318 N343 1.343 . S
C319 C320 1.384 . S
C319 C321 1.384 . S
C319 H338 0.931 . S
C320 C319 1.384 . S
C320 C323 1.382 . S
C321 C319 1.384 . S
C321 C322 1.381 . S
C321 H339 0.930 . S
C322 C321 1.381 . S
C322 C324 1.381 . S
C322 C325 1.487 . S
C323 C320 1.382 . S
C323 C324 1.387 . S
C323 H340 0.930 . S
C324 C322 1.381 . S
C324 C323 1.387 . S
C324 H341 0.931 . S
C325 C318 1.399 . S
C325 C322 1.487 . S
C325 N342 1.343 . S
H326 C298 0.931 . S
H327 C300 0.930 . S
H328 C302 0.930 . S
H329 C303 0.931 . S
H330 C305 0.931 . S
H331 C307 0.930 . S
H332 C309 0.930 . S
H333 C310 0.931 . S
H334 C312 0.931 . S
H335 C314 0.930 . S
H336 C316 0.930 . S
H337 C317 0.931 . S
H338 C319 0.931 . S
H339 C321 0.930 . S
H340 C323 0.930 . S
H341 C324 0.931 . S
N342 C304 1.343 . S
N342 C325 1.343 . S
N343 C311 1.343 . S
N343 C318 1.343 . S
C344 C345 1.384 . S
C344 C346 1.384 . S
C344 H372 0.931 . S
C345 C344 1.384 . S
C345 C348 1.382 . S
C346 C344 1.384 . S
C346 C347 1.381 . S
C346 H373 0.930 . S
C347 C346 1.381 . S
C347 C349 1.381 . S
C347 C350 1.487 . S
C348 C345 1.382 . S
C348 C349 1.387 . S
C348 H374 0.930 . S
C349 C347 1.381 . S
C349 C348 1.387 . S
C349 H375 0.931 . S
C350 C347 1.487 . S
C350 C357 1.399 . S
C350 N388 1.343 . S
C351 C352 1.384 . S
C351 C353 1.384 . S
C351 H376 0.931 . S
C352 C351 1.384 . S
C352 C355 1.382 . S
C353 C351 1.384 . S
C353 C354 1.381 . S
C353 H377 0.930 . S
C354 C353 1.381 . S
C354 C356 1.381 . S
C354 C357 1.487 . S
C355 C352 1.382 . S
C355 C356 1.387 . S
C355 H378 0.930 . S
C356 C354 1.381 . S
C356 C355 1.387 . S
C356 H379 0.931 . S
C357 C350 1.399 . S
C357 C354 1.487 . S
C357 N389 1.343 . S
C358 C359 1.384 . S
C358 C360 1.384 . S
C358 H380 0.931 . S
C359 C358 1.384 . S
C359 C362 1.382 . S
C360 C358 1.384 . S
C360 C361 1.381 . S
C360 H381 0.930 . S
C361 C360 1.381 . S
C361 C363 1.381 . S
C361 C364 1.487 . S
C362 C359 1.382 . S
C362 C363 1.387 . S
C362 H382 0.930 . S
C363 C361 1.381 . S
C363 C362 1.387 . S
C363 H383 0.931 . S
C364 C361 1.487 . S
C364 C371 1.399 . S
C364 N389 1.343 . S
C365 C366 1.384 . S
C365 C367 1.384 . S
C365 H384 0.931 . S
C366 C365 1.384 . S
C366 C369 1.382 . S
C367 C365 1.384 . S
C367 C368 1.381 . S
C367 H385 0.930 . S
C368 C367 1.381 . S
C368 C370 1.381 . S
C368 C371 1.487 . S
C369 C366 1.382 . S
C369 C370 1.387 . S
C369 H386 0.930 . S
C370 C368 1.381 . S
C370 C369 1.387 . S
C370 H387 0.931 . S
C371 C364 1.399 . S
C371 C368 1.487 . S
C371 N388 1.343 . S
H372 C344 0.931 . S
H373 C346 0.930 . S
H374 C348 0.930 . S
H375 C349 0.931 . S
H376 C351 0.931 . S
H377 C353 0.930 . S
H378 C355 0.930 . S
H379 C356 0.931 . S
H380 C358 0.931 . S
H381 C360 0.930 . S
H382 C362 0.930 . S
H383 C363 0.931 . S
H384 C365 0.931 . S
H385 C367 0.930 . S
H386 C369 0.930 . S
H387 C370 0.931 . S
N388 C350 1.343 . S
N388 C371 1.343 . S
N389 C357 1.343 . S
N389 C364 1.343 . S
C390 C391 1.384 . S
C390 C392 1.384 . S
C390 H418 0.931 . S
C391 C390 1.384 . S
C391 C394 1.382 . S
C392 C390 1.384 . S
C392 C393 1.381 . S
C392 H419 0.930 . S
C393 C392 1.381 . S
C393 C395 1.381 . S
C393 C396 1.487 . S
C394 C391 1.382 . S
C394 C395 1.387 . S
C394 H420 0.930 . S
C395 C393 1.381 . S
C395 C394 1.387 . S
C395 H421 0.931 . S
C396 C393 1.487 . S
C396 C403 1.399 . S
C396 N434 1.343 . S
C397 C398 1.384 . S
C397 C399 1.384 . S
C397 H422 0.931 . S
C398 C397 1.384 . S
C398 C401 1.382 . S
C399 C397 1.384 . S
C399 C400 1.381 . S
C399 H423 0.930 . S
C400 C399 1.381 . S
C400 C402 1.381 . S
C400 C403 1.487 . S
C401 C398 1.382 . S
C401 C402 1.387 . S
C401 H424 0.930 . S
C402 C400 1.381 . S
C402 C401 1.387 . S
C402 H425 0.931 . S
C403 C396 1.399 . S
C403 C400 1.487 . S
C403 N435 1.343 . S
C404 C405 1.384 . S
C404 C406 1.384 . S
C404 H426 0.931 . S
C405 C404 1.384 . S
C405 C408 1.382 . S
C406 C404 1.384 . S
C406 C407 1.381 . S
C406 H427 0.930 . S
C407 C406 1.381 . S
C407 C409 1.381 . S
C407 C410 1.487 . S
C408 C405 1.382 . S
C408 C409 1.387 . S
C408 H428 0.930 . S
C409 C407 1.381 . S
C409 C408 1.387 . S
C409 H429 0.931 . S
C410 C407 1.487 . S
C410 C417 1.399 . S
C410 N435 1.343 . S
C411 C412 1.384 . S
C411 C413 1.384 . S
C411 H430 0.931 . S
C412 C411 1.384 . S
C412 C415 1.382 . S
C413 C411 1.384 . S
C413 C414 1.381 . S
C413 H431 0.930 . S
C414 C413 1.381 . S
C414 C416 1.381 . S
C414 C417 1.487 . S
C415 C412 1.382 . S
C415 C416 1.387 . S
C415 H432 0.930 . S
C416 C414 1.381 . S
C416 C415 1.387 . S
C416 H433 0.931 . S
C417 C410 1.399 . S
C417 C414 1.487 . S
C417 N434 1.343 . S
H418 C390 0.931 . S
H419 C392 0.930 . S
H420 C394 0.930 . S
H421 C395 0.931 . S
H422 C397 0.931 . S
H423 C399 0.930 . S
H424 C401 0.930 . S
H425 C402 0.931 . S
H426 C404 0.931 . S
H427 C406 0.930 . S
H428 C408 0.930 . S
H429 C409 0.931 . S
H430 C411 0.931 . S
H431 C413 0.930 . S
H432 C415 0.930 . S
H433 C416 0.931 . S
N434 C396 1.343 . S
N434 C417 1.343 . S
N435 C403 1.343 . S
N435 C410 1.343 . S
C436 C437 1.384 . S
C436 C438 1.384 . S
C436 H464 0.931 . S
C437 C436 1.384 . S
C437 C440 1.382 . S
C438 C436 1.384 . S
C438 C439 1.381 . S
C438 H465 0.930 . S
C439 C438 1.381 . S
C439 C441 1.381 . S
C439 C442 1.487 . S
C440 C437 1.382 . S
C440 C441 1.387 . S
C440 H466 0.930 . S
C441 C439 1.381 . S
C441 C440 1.387 . S
C441 H467 0.931 . S
C442 C439 1.487 . S
C442 C449 1.399 . S
C442 N480 1.343 . S
C443 C444 1.384 . S
C443 C445 1.384 . S
C443 H468 0.931 . S
C444 C443 1.384 . S
C444 C447 1.382 . S
C445 C443 1.384 . S
C445 C446 1.381 . S
C445 H469 0.930 . S
C446 C445 1.381 . S
C446 C448 1.381 . S
C446 C449 1.487 . S
C447 C444 1.382 . S
C447 C448 1.387 . S
C447 H470 0.930 . S
C448 C446 1.381 . S
C448 C447 1.387 . S
C448 H471 0.931 . S
C449 C442 1.399 . S
C449 C446 1.487 . S
C449 N481 1.343 . S
C450 C451 1.384 . S
C450 C452 1.384 . S
C450 H472 0.931 . S
C451 C450 1.384 . S
C451 C454 1.382 . S
C452 C450 1.384 . S
C452 C453 1.381 . S
C452 H473 0.930 . S
C453 C452 1.381 . S
C453 C455 1.381 . S
C453 C456 1.487 . S
C454 C451 1.382 . S
C454 C455 1.387 . S
C454 H474 0.930 . S
C455 C453 1.381 . S
C455 C454 1.387 . S
C455 H475 0.931 . S
C456 C453 1.487 . S
C456 C463 1.399 . S
C456 N481 1.343 . S
C457 C458 1.384 . S
C457 C459 1.384 . S
C457 H476 0.931 . S
C458 C457 1.384 . S
C458 C461 1.382 . S
C459 C457 1.384 . S
C459 C460 1.381 . S
C459 H477 0.930 . S
C460 C459 1.381 . S
C460 C462 1.381 . S
C460 C463 1.487 . S
C461 C458 1.382 . S
C461 C462 1.387 . S
C461 H478 0.930 . S
C462 C460 1.381 . S
C462 C461 1.387 . S
C462 H479 0.931 . S
C463 C456 1.399 . S
C463 C460 1.487 . S
C463 N480 1.343 . S
H464 C436 0.931 . S
H465 C438 0.930 . S
H466 C440 0.930 . S
H467 C441 0.931 . S
H468 C443 0.931 . S
H469 C445 0.930 . S
H470 C447 0.930 . S
H471 C448 0.931 . S
H472 C450 0.931 . S
H473 C452 0.930 . S
H474 C454 0.930 . S
H475 C455 0.931 . S
H476 C457 0.931 . S
H477 C459 0.930 . S
H478 C461 0.930 . S
H479 C462 0.931 . S
N480 C442 1.343 . S
N480 C463 1.343 . S
N481 C449 1.343 . S
N481 C456 1.343 . S
C482 C483 1.384 . S
C482 C484 1.384 . S
C482 H510 0.931 . S
C483 C482 1.384 . S
C483 C486 1.382 . S
C484 C482 1.384 . S
C484 C485 1.381 . S
C484 H511 0.930 . S
C485 C484 1.381 . S
C485 C487 1.381 . S
C485 C488 1.487 . S
C486 C483 1.382 . S
C486 C487 1.387 . S
C486 H512 0.930 . S
C487 C485 1.381 . S
C487 C486 1.387 . S
C487 H513 0.931 . S
C488 C485 1.487 . S
C488 C495 1.399 . S
C488 N526 1.343 . S
C489 C490 1.384 . S
C489 C491 1.384 . S
C489 H514 0.931 . S
C490 C489 1.384 . S
C490 C493 1.382 . S
C491 C489 1.384 . S
C491 C492 1.381 . S
C491 H515 0.930 . S
C492 C491 1.381 . S
C492 C494 1.381 . S
C492 C495 1.487 . S
C493 C490 1.382 . S
C493 C494 1.387 . S
C493 H516 0.930 . S
C494 C492 1.381 . S
C494 C493 1.387 . S
C494 H517 0.931 . S
C495 C488 1.399 . S
C495 C492 1.487 . S
C495 N527 1.343 . S
C496 C497 1.384 . S
C496 C498 1.384 . S
C496 H518 0.931 . S
C497 C496 1.384 . S
C497 C500 1.382 . S
C498 C496 1.384 . S
C498 C499 1.381 . S
C498 H519 0.930 . S
C499 C498 1.381 . S
C499 C501 1.381 . S
C499 C502 1.487 . S
C500 C497 1.382 . S
C500 C501 1.387 . S
C500 H520 0.930 . S
C501 C499 1.381 . S
C501 C500 1.387 . S
C501 H521 0.931 . S
C502 C499 1.487 . S
C502 C509 1.399 . S
C502 N527 1.343 . S
C503 C504 1.384 . S
C503 C505 1.384 . S
C503 H522 0.931 . S
C504 C503 1.384 . S
C504 C507 1.382 . S
C505 C503 1.384 . S
C505 C506 1.381 . S
C505 H523 0.930 . S
C506 C505 1.381 . S
C506 C508 1.381 . S
C506 C509 1.487 . S
C507 C504 1.382 . S
C507 C508 1.387 . S
C507 H524 0.930 . S
C508 C506 1.381 . S
C508 C507 1.387 . S
C508 H525 0.931 . S
C509 C502 1.399 . S
C509 C506 1.487 . S
C509 N526 1.343 . S
H510 C482 0.931 . S
H511 C484 0.930 . S
H512 C486 0.930 . S
H513 C487 0.931 . S
H514 C489 0.931 . S
H515 C491 0.930 . S
H516 C493 0.930 . S
H517 C494 0.931 . S
H518 C496 0.931 . S
H519 C498 0.930 . S
H520 C500 0.930 . S
H521 C501 0.931 . S
H522 C503 0.931 . S
H523 C505 0.930 . S
H524 C507 0.930 . S
H525 C508 0.931 . S
N526 C488 1.343 . S
N526 C509 1.343 . S
N527 C495 1.343 . S
N527 C502 1.343 . S
C528 C529 1.384 . S
C528 C530 1.384 . S
C528 H556 0.931 . S
C529 C528 1.384 . S
C529 C532 1.382 . S
C530 C528 1.384 . S
C530 C531 1.381 . S
C530 H557 0.930 . S
C531 C530 1.381 . S
C531 C533 1.381 . S
C531 C534 1.487 . S
C532 C529 1.382 . S
C532 C533 1.387 . S
C532 H558 0.930 . S
C533 C531 1.381 . S
C533 C532 1.387 . S
C533 H559 0.931 . S
C534 C531 1.487 . S
C534 C541 1.399 . S
C534 N572 1.343 . S
C535 C536 1.384 . S
C535 C537 1.384 . S
C535 H560 0.931 . S
C536 C535 1.384 . S
C536 C539 1.382 . S
C537 C535 1.384 . S
C537 C538 1.381 . S
C537 H561 0.930 . S
C538 C537 1.381 . S
C538 C540 1.381 . S
C538 C541 1.487 . S
C539 C536 1.382 . S
C539 C540 1.387 . S
C539 H562 0.930 . S
C540 C538 1.381 . S
C540 C539 1.387 . S
C540 H563 0.931 . S
C541 C534 1.399 . S
C541 C538 1.487 . S
C541 N573 1.343 . S
C542 C543 1.384 . S
C542 C544 1.384 . S
C542 H564 0.931 . S
C543 C542 1.384 . S
C543 C546 1.382 . S
C544 C542 1.384 . S
C544 C545 1.381 . S
C544 H565 0.930 . S
C545 C544 1.381 . S
C545 C547 1.381 . S
C545 C548 1.487 . S
C546 C543 1.382 . S
C546 C547 1.387 . S
C546 H566 0.930 . S
C547 C545 1.381 . S
C547 C546 1.387 . S
C547 H567 0.931 . S
C548 C545 1.487 . S
C548 C555 1.399 . S
C548 N573 1.343 . S
C549 C550 1.384 . S
C549 C551 1.384 . S
C549 H568 0.931 . S
C550 C549 1.384 . S
C550 C553 1.382 . S
C551 C549 1.384 . S
C551 C552 1.381 . S
C551 H569 0.930 . S
C552 C551 1.381 . S
C552 C554 1.381 . S
C552 C555 1.487 . S
C553 C550 1.382 . S
C553 C554 1.387 . S
C553 H570 0.930 . S
C554 C552 1.381 . S
C554 C553 1.387 . S
C554 H571 0.931 . S
C555 C548 1.399 . S
C555 C552 1.487 . S
C555 N572 1.343 . S
H556 C528 0.931 . S
H557 C530 0.930 . S
H558 C532 0.930 . S
H559 C533 0.931 . S
H560 C535 0.931 . S
H561 C537 0.930 . S
H562 C539 0.930 . S
H563 C540 0.931 . S
H564 C542 0.931 . S
H565 C544 0.930 . S
H566 C546 0.930 . S
H567 C547 0.931 . S
H568 C549 0.931 . S
H569 C551 0.930 . S
H570 C553 0.930 . S
H571 C554 0.931 . S
N572 C534 1.343 . S
N572 C555 1.343 . S
N573 C541 1.343 . S
N573 C548 1.343 . S
C574 C575 1.384 . S
C574 C576 1.384 . S
C574 H602 0.931 . S
C575 C574 1.384 . S
C575 C578 1.382 . S
C576 C574 1.384 . S
C576 C577 1.381 . S
C576 H603 0.930 . S
C577 C576 1.381 . S
C577 C579 1.381 . S
C577 C580 1.487 . S
C578 C575 1.382 . S
C578 C579 1.387 . S
C578 H604 0.930 . S
C579 C577 1.381 . S
C579 C578 1.387 . S
C579 H605 0.931 . S
C580 C577 1.487 . S
C580 C587 1.399 . S
C580 N618 1.343 . S
C581 C582 1.384 . S
C581 C583 1.384 . S
C581 H606 0.931 . S
C582 C581 1.384 . S
C582 C585 1.382 . S
C583 C581 1.384 . S
C583 C584 1.381 . S
C583 H607 0.930 . S
C584 C583 1.381 . S
C584 C586 1.381 . S
C584 C587 1.487 . S
C585 C582 1.382 . S
C585 C586 1.387 . S
C585 H608 0.930 . S
C586 C584 1.381 . S
C586 C585 1.387 . S
C586 H609 0.931 . S
C587 C580 1.399 . S
C587 C584 1.487 . S
C587 N619 1.343 . S
C588 C589 1.384 . S
C588 C590 1.384 . S
C588 H610 0.931 . S
C589 C588 1.384 . S
C589 C592 1.382 . S
C590 C588 1.384 . S
C590 C591 1.381 . S
C590 H611 0.930 . S
C591 C590 1.381 . S
C591 C593 1.381 . S
C591 C594 1.487 . S
C592 C589 1.382 . S
C592 C593 1.387 . S
C592 H612 0.930 . S
C593 C591 1.381 . S
C593 C592 1.387 . S
C593 H613 0.931 . S
C594 C591 1.487 . S
C594 C601 1.399 . S
C594 N619 1.343 . S
C595 C596 1.384 . S
C595 C597 1.384 . S
C595 H614 0.931 . S
C596 C595 1.384 . S
C596 C599 1.382 . S
C597 C595 1.384 . S
C597 C598 1.381 . S
C597 H615 0.930 . S
C598 C597 1.381 . S
C598 C600 1.381 . S
C598 C601 1.487 . S
C599 C596 1.382 . S
C599 C600 1.387 . S
C599 H616 0.930 . S
C600 C598 1.381 . S
C600 C599 1.387 . S
C600 H617 0.931 . S
C601 C594 1.399 . S
C601 C598 1.487 . S
C601 N618 1.343 . S
H602 C574 0.931 . S
H603 C576 0.930 . S
H604 C578 0.930 . S
H605 C579 0.931 . S
H606 C581 0.931 . S
H607 C583 0.930 . S
H608 C585 0.930 . S
H609 C586 0.931 . S
H610 C588 0.931 . S
H611 C590 0.930 . S
H612 C592 0.930 . S
H613 C593 0.931 . S
H614 C595 0.931 . S
H615 C597 0.930 . S
H616 C599 0.930 . S
H617 C600 0.931 . S
N618 C580 1.343 . S
N618 C601 1.343 . S
N619 C587 1.343 . S
N619 C594 1.343 . S
C620 C621 1.384 . S
C620 C622 1.384 . S
C620 H648 0.931 . S
C621 C620 1.384 . S
C621 C624 1.382 . S
C622 C620 1.384 . S
C622 C623 1.381 . S
C622 H649 0.930 . S
C623 C622 1.381 . S
C623 C625 1.381 . S
C623 C626 1.487 . S
C624 C621 1.382 . S
C624 C625 1.387 . S
C624 H650 0.930 . S
C625 C623 1.381 . S
C625 C624 1.387 . S
C625 H651 0.931 . S
C626 C623 1.487 . S
C626 C633 1.399 . S
C626 N664 1.343 . S
C627 C628 1.384 . S
C627 C629 1.384 . S
C627 H652 0.931 . S
C628 C627 1.384 . S
C628 C631 1.382 . S
C629 C627 1.384 . S
C629 C630 1.381 . S
C629 H653 0.930 . S
C630 C629 1.381 . S
C630 C632 1.381 . S
C630 C633 1.487 . S
C631 C628 1.382 . S
C631 C632 1.387 . S
C631 H654 0.930 . S
C632 C630 1.381 . S
C632 C631 1.387 . S
C632 H655 0.931 . S
C633 C626 1.399 . S
C633 C630 1.487 . S
C633 N665 1.343 . S
C634 C635 1.384 . S
C634 C636 1.384 . S
C634 H656 0.931 . S
C635 C634 1.384 . S
C635 C638 1.382 . S
C636 C634 1.384 . S
C636 C637 1.381 . S
C636 H657 0.930 . S
C637 C636 1.381 . S
C637 C639 1.381 . S
C637 C640 1.487 . S
C638 C635 1.382 . S
C638 C639 1.387 . S
C638 H658 0.930 . S
C639 C637 1.381 . S
C639 C638 1.387 . S
C639 H659 0.931 . S
C640 C637 1.487 . S
C640 C647 1.399 . S
C640 N665 1.343 . S
C641 C642 1.384 . S
C641 C643 1.384 . S
C641 H660 0.931 . S
C642 C641 1.384 . S
C642 C645 1.382 . S
C643 C641 1.384 . S
C643 C644 1.381 . S
C643 H661 0.930 . S
C644 C643 1.381 . S
C644 C646 1.381 . S
C644 C647 1.487 . S
C645 C642 1.382 . S
C645 C646 1.387 . S
C645 H662 0.930 . S
C646 C644 1.381 . S
C646 C645 1.387 . S
C646 H663 0.931 . S
C647 C640 1.399 . S
C647 C644 1.487 . S
C647 N664 1.343 . S
H648 C620 0.931 . S
H649 C622 0.930 . S
H650 C624 0.930 . S
H651 C625 0.931 . S
H652 C627 0.931 . S
H653 C629 0.930 . S
H654 C631 0.930 . S
H655 C632 0.931 . S
H656 C634 0.931 . S
H657 C636 0.930 . S
H658 C638 0.930 . S
H659 C639 0.931 . S
H660 C641 0.931 . S
H661 C643 0.930 . S
H662 C645 0.930 . S
H663 C646 0.931 . S
N664 C626 1.343 . S
N664 C647 1.343 . S
N665 C633 1.343 . S
N665 C640 1.343 . S
C666 C667 1.384 . S
C666 C668 1.384 . S
C666 H694 0.931 . S
C667 C666 1.384 . S
C667 C670 1.382 1_655 S
C668 C666 1.384 . S
C668 C669 1.389 . S
C668 H695 0.930 . S
C669 C668 1.389 . S
C669 C671 1.377 1_655 S
C669 C672 1.477 1_655 S
C670 C667 1.382 1_455 S
C670 C671 1.387 . S
C670 H696 0.930 . S
C671 C669 1.377 1_455 S
C671 C670 1.387 . S
C671 H697 0.931 . S
C672 C669 1.477 1_455 S
C672 C679 1.398 1_455 S
C672 N710 1.350 . S
C673 C674 1.384 . S
C673 C675 1.384 . S
C673 H698 0.931 . S
C674 C673 1.384 . S
C674 C677 1.382 1_455 S
C675 C673 1.384 . S
C675 C676 1.383 1_455 S
C675 H699 0.930 . S
C676 C675 1.383 1_655 S
C676 C678 1.377 . S
C676 C679 1.496 . S
C677 C674 1.382 1_655 S
C677 C678 1.387 . S
C677 H700 0.930 . S
C678 C676 1.377 . S
C678 C677 1.387 . S
C678 H701 0.931 . S
C679 C672 1.398 1_655 S
C679 C676 1.496 . S
C679 N711 1.363 . S
C680 C681 1.384 . S
C680 C682 1.384 . S
C680 H702 0.931 . S
C681 C680 1.384 . S
C681 C684 1.382 1_455 S
C682 C680 1.384 . S
C682 C683 1.407 . S
C682 H703 0.930 . S
C683 C682 1.407 . S
C683 C685 1.368 1_455 S
C683 C686 1.477 1_455 S
C684 C681 1.382 1_655 S
C684 C685 1.387 . S
C684 H704 0.930 . S
C685 C683 1.368 1_655 S
C685 C684 1.387 . S
C685 H705 0.931 . S
C686 C683 1.477 1_655 S
C686 C693 1.398 1_655 S
C686 N711 1.312 . S
C687 C688 1.384 . S
C687 C689 1.384 . S
C687 H706 0.931 . S
C688 C687 1.384 . S
C688 C691 1.382 1_655 S
C689 C687 1.384 . S
C689 C690 1.379 1_655 S
C689 H707 0.930 . S
C690 C689 1.379 1_455 S
C690 C692 1.388 . S
C690 C693 1.496 . S
C691 C688 1.382 1_455 S
C691 C692 1.387 . S
C691 H708 0.930 . S
C692 C690 1.388 . S
C692 C691 1.387 . S
C692 H709 0.931 . S
C693 C686 1.398 1_455 S
C693 C690 1.496 . S
C693 N710 1.330 . S
H694 C666 0.931 . S
H695 C668 0.930 . S
H696 C670 0.930 . S
H697 C671 0.931 . S
H698 C673 0.931 . S
H699 C675 0.930 . S
H700 C677 0.930 . S
H701 C678 0.931 . S
H702 C680 0.931 . S
H703 C682 0.930 . S
H704 C684 0.930 . S
H705 C685 0.931 . S
H706 C687 0.931 . S
H707 C689 0.930 . S
H708 C691 0.930 . S
H709 C692 0.931 . S
N710 C672 1.350 . S
N710 C693 1.330 . S
N711 C679 1.363 . S
N711 C686 1.312 . S
C712 C713 1.384 . S
C712 C714 1.384 . S
C712 H740 0.931 . S
C713 C712 1.384 . S
C713 C716 1.382 . S
C714 C712 1.384 . S
C714 C715 1.381 . S
C714 H741 0.930 . S
C715 C714 1.381 . S
C715 C717 1.381 . S
C715 C718 1.487 . S
C716 C713 1.382 . S
C716 C717 1.387 . S
C716 H742 0.930 . S
C717 C715 1.381 . S
C717 C716 1.387 . S
C717 H743 0.931 . S
C718 C715 1.487 . S
C718 C725 1.399 . S
C718 N756 1.343 . S
C719 C720 1.384 . S
C719 C721 1.384 . S
C719 H744 0.931 . S
C720 C719 1.384 . S
C720 C723 1.382 . S
C721 C719 1.384 . S
C721 C722 1.381 . S
C721 H745 0.930 . S
C722 C721 1.381 . S
C722 C724 1.381 . S
C722 C725 1.487 . S
C723 C720 1.382 . S
C723 C724 1.387 . S
C723 H746 0.930 . S
C724 C722 1.381 . S
C724 C723 1.387 . S
C724 H747 0.931 . S
C725 C718 1.399 . S
C725 C722 1.487 . S
C725 N757 1.343 . S
C726 C727 1.384 . S
C726 C728 1.384 . S
C726 H748 0.931 . S
C727 C726 1.384 . S
C727 C730 1.382 . S
C728 C726 1.384 . S
C728 C729 1.381 . S
C728 H749 0.930 . S
C729 C728 1.381 . S
C729 C731 1.381 . S
C729 C732 1.487 . S
C730 C727 1.382 . S
C730 C731 1.387 . S
C730 H750 0.930 . S
C731 C729 1.381 . S
C731 C730 1.387 . S
C731 H751 0.931 . S
C732 C729 1.487 . S
C732 C739 1.399 . S
C732 N757 1.343 . S
C733 C734 1.384 . S
C733 C735 1.384 . S
C733 H752 0.931 . S
C734 C733 1.384 . S
C734 C737 1.382 . S
C735 C733 1.384 . S
C735 C736 1.381 . S
C735 H753 0.930 . S
C736 C735 1.381 . S
C736 C738 1.381 . S
C736 C739 1.487 . S
C737 C734 1.382 . S
C737 C738 1.387 . S
C737 H754 0.930 . S
C738 C736 1.381 . S
C738 C737 1.387 . S
C738 H755 0.931 . S
C739 C732 1.399 . S
C739 C736 1.487 . S
C739 N756 1.343 . S
H740 C712 0.931 . S
H741 C714 0.930 . S
H742 C716 0.930 . S
H743 C717 0.931 . S
H744 C719 0.931 . S
H745 C721 0.930 . S
H746 C723 0.930 . S
H747 C724 0.931 . S
H748 C726 0.931 . S
H749 C728 0.930 . S
H750 C730 0.930 . S
H751 C731 0.931 . S
H752 C733 0.931 . S
H753 C735 0.930 . S
H754 C737 0.930 . S
H755 C738 0.931 . S
N756 C718 1.343 . S
N756 C739 1.343 . S
N757 C725 1.343 . S
N757 C732 1.343 . S
C758 C759 1.384 1_545 S
C758 C760 1.384 . S
C758 H786 0.931 . S
C759 C758 1.384 1_565 S
C759 C762 1.382 . S
C760 C758 1.384 . S
C760 C761 1.381 1_545 S
C760 H787 0.930 . S
C761 C760 1.381 1_565 S
C761 C763 1.381 . S
C761 C764 1.487 . S
C762 C759 1.382 . S
C762 C763 1.387 . S
C762 H788 0.930 . S
C763 C761 1.381 . S
C763 C762 1.387 . S
C763 H789 0.931 . S
C764 C761 1.487 . S
C764 C771 1.399 1_565 S
C764 N802 1.343 . S
C765 C766 1.384 1_565 S
C765 C767 1.384 . S
C765 H790 0.931 . S
C766 C765 1.384 1_545 S
C766 C769 1.382 . S
C767 C765 1.384 . S
C767 C768 1.381 1_565 S
C767 H791 0.930 . S
C768 C767 1.381 1_545 S
C768 C770 1.381 . S
C768 C771 1.487 . S
C769 C766 1.382 . S
C769 C770 1.387 . S
C769 H792 0.930 . S
C770 C768 1.381 . S
C770 C769 1.387 . S
C770 H793 0.931 . S
C771 C764 1.399 1_545 S
C771 C768 1.487 . S
C771 N803 1.343 . S
C772 C773 1.384 1_565 S
C772 C774 1.384 . S
C772 H794 0.931 . S
C773 C772 1.384 1_545 S
C773 C776 1.382 . S
C774 C772 1.384 . S
C774 C775 1.381 1_565 S
C774 H795 0.930 . S
C775 C774 1.381 1_545 S
C775 C777 1.381 . S
C775 C778 1.487 . S
C776 C773 1.382 . S
C776 C777 1.387 . S
C776 H796 0.930 . S
C777 C775 1.381 . S
C777 C776 1.387 . S
C777 H797 0.931 . S
C778 C775 1.487 . S
C778 C785 1.399 1_545 S
C778 N803 1.343 . S
C779 C780 1.384 1_545 S
C779 C781 1.384 . S
C779 H798 0.931 . S
C780 C779 1.384 1_565 S
C780 C783 1.382 . S
C781 C779 1.384 . S
C781 C782 1.381 1_545 S
C781 H799 0.930 . S
C782 C781 1.381 1_565 S
C782 C784 1.381 . S
C782 C785 1.487 . S
C783 C780 1.382 . S
C783 C784 1.387 . S
C783 H800 0.930 . S
C784 C782 1.381 . S
C784 C783 1.387 . S
C784 H801 0.931 . S
C785 C778 1.399 1_565 S
C785 C782 1.487 . S
C785 N802 1.343 . S
H786 C758 0.931 . S
H787 C760 0.930 . S
H788 C762 0.930 . S
H789 C763 0.931 . S
H790 C765 0.931 . S
H791 C767 0.930 . S
H792 C769 0.930 . S
H793 C770 0.931 . S
H794 C772 0.931 . S
H795 C774 0.930 . S
H796 C776 0.930 . S
H797 C777 0.931 . S
H798 C779 0.931 . S
H799 C781 0.930 . S
H800 C783 0.930 . S
H801 C784 0.931 . S
N802 C764 1.343 . S
N802 C785 1.343 . S
N803 C771 1.343 . S
N803 C778 1.343 . S
C804 C805 1.384 . S
C804 C806 1.384 . S
C804 H832 0.931 . S
C805 C804 1.384 . S
C805 C808 1.382 1_545 S
C806 C804 1.384 . S
C806 C807 1.385 . S
C806 H833 0.930 . S
C807 C806 1.385 . S
C807 C809 1.371 1_545 S
C807 C810 1.495 1_545 S
C808 C805 1.382 1_565 S
C808 C809 1.387 . S
C808 H834 0.930 . S
C809 C807 1.371 1_565 S
C809 C808 1.387 . S
C809 H835 0.931 . S
C810 C807 1.495 1_565 S
C810 C817 1.399 1_565 S
C810 N848 1.367 . S
C811 C812 1.384 . S
C811 C813 1.384 . S
C811 H836 0.931 . S
C812 C811 1.384 . S
C812 C815 1.382 1_565 S
C813 C811 1.384 . S
C813 C814 1.378 . S
C813 H837 0.930 . S
C814 C813 1.378 . S
C814 C816 1.383 1_565 S
C814 C817 1.479 1_565 S
C815 C812 1.382 1_545 S
C815 C816 1.387 . S
C815 H838 0.930 . S
C816 C814 1.383 1_545 S
C816 C815 1.387 . S
C816 H839 0.931 . S
C817 C810 1.399 1_545 S
C817 C814 1.479 1_545 S
C817 N849 1.320 . S
C818 C819 1.384 . S
C818 C820 1.384 . S
C818 H840 0.931 . S
C819 C818 1.384 . S
C819 C822 1.382 1_565 S
C820 C818 1.384 . S
C820 C821 1.382 . S
C820 H841 0.930 . S
C821 C820 1.382 . S
C821 C823 1.381 1_565 S
C821 C824 1.495 1_565 S
C822 C819 1.382 1_545 S
C822 C823 1.387 . S
C822 H842 0.930 . S
C823 C821 1.381 1_545 S
C823 C822 1.387 . S
C823 H843 0.931 . S
C824 C821 1.495 1_545 S
C824 C831 1.399 1_545 S
C824 N849 1.367 . S
C825 C826 1.384 . S
C825 C827 1.384 . S
C825 H844 0.931 . S
C826 C825 1.384 . S
C826 C829 1.382 1_545 S
C827 C825 1.384 . S
C827 C828 1.395 . S
C827 H845 0.930 . S
C828 C827 1.395 . S
C828 C830 1.374 1_545 S
C828 C831 1.479 1_545 S
C829 C826 1.382 1_565 S
C829 C830 1.387 . S
C829 H846 0.930 . S
C830 C828 1.374 1_565 S
C830 C829 1.387 . S
C830 H847 0.931 . S
C831 C824 1.399 1_565 S
C831 C828 1.479 1_565 S
C831 N848 1.320 . S
H832 C804 0.931 . S
H833 C806 0.930 . S
H834 C808 0.930 . S
H835 C809 0.931 . S
H836 C811 0.931 . S
H837 C813 0.930 . S
H838 C815 0.930 . S
H839 C816 0.931 . S
H840 C818 0.931 . S
H841 C820 0.930 . S
H842 C822 0.930 . S
H843 C823 0.931 . S
H844 C825 0.931 . S
H845 C827 0.930 . S
H846 C829 0.930 . S
H847 C830 0.931 . S
N848 C810 1.367 . S
N848 C831 1.320 . S
N849 C817 1.320 . S
N849 C824 1.367 . S
C850 C851 1.384 . S
C850 C852 1.384 . S
C850 H878 0.931 . S
C851 C850 1.384 . S
C851 C854 1.382 1_655 S
C852 C850 1.384 . S
C852 C853 1.424 . S
C852 H879 0.930 . S
C853 C852 1.424 . S
C853 C855 1.359 1_655 S
C853 C856 1.466 . S
C854 C851 1.382 1_455 S
C854 C855 1.387 . S
C854 H880 0.930 . S
C855 C853 1.359 1_455 S
C855 C854 1.387 . S
C855 H881 0.931 . S
C856 C853 1.466 . S
C856 C863 1.398 . S
C856 N894 1.324 1_655 S
C857 C858 1.384 . S
C857 C859 1.384 . S
C857 H882 0.931 . S
C858 C857 1.384 . S
C858 C861 1.382 1_455 S
C859 C857 1.384 . S
C859 C860 1.383 1_455 S
C859 H883 0.930 . S
C860 C859 1.383 1_655 S
C860 C862 1.377 . S
C860 C863 1.500 . S
C861 C858 1.382 1_655 S
C861 C862 1.387 . S
C861 H884 0.930 . S
C862 C860 1.377 . S
C862 C861 1.387 . S
C862 H885 0.931 . S
C863 C856 1.398 . S
C863 C860 1.500 . S
C863 N895 1.360 . S
C864 C865 1.384 . S
C864 C866 1.384 . S
C864 H886 0.931 . S
C865 C864 1.384 . S
C865 C868 1.382 1_455 S
C866 C864 1.384 . S
C866 C867 1.407 . S
C866 H887 0.930 . S
C867 C866 1.407 . S
C867 C869 1.368 1_455 S
C867 C870 1.473 1_455 S
C868 C865 1.382 1_655 S
C868 C869 1.387 . S
C868 H888 0.930 . S
C869 C867 1.368 1_655 S
C869 C868 1.387 . S
C869 H889 0.931 . S
C870 C867 1.473 1_655 S
C870 C877 1.399 1_655 S
C870 N895 1.316 . S
C871 C872 1.384 . S
C871 C873 1.384 . S
C871 H890 0.931 . S
C872 C871 1.384 . S
C872 C875 1.382 1_655 S
C873 C871 1.384 . S
C873 C874 1.383 . S
C873 H891 0.930 . S
C874 C873 1.383 . S
C874 C876 1.377 1_655 S
C874 C877 1.493 1_655 S
C875 C872 1.382 1_455 S
C875 C876 1.387 . S
C875 H892 0.930 . S
C876 C874 1.377 1_455 S
C876 C875 1.387 . S
C876 H893 0.931 . S
C877 C870 1.399 1_455 S
C877 C874 1.493 1_455 S
C877 N894 1.360 . S
H878 C850 0.931 . S
H879 C852 0.930 . S
H880 C854 0.930 . S
H881 C855 0.931 . S
H882 C857 0.931 . S
H883 C859 0.930 . S
H884 C861 0.930 . S
H885 C862 0.931 . S
H886 C864 0.931 . S
H887 C866 0.930 . S
H888 C868 0.930 . S
H889 C869 0.931 . S
H890 C871 0.931 . S
H891 C873 0.930 . S
H892 C875 0.930 . S
H893 C876 0.931 . S
N894 C856 1.324 1_455 S
N894 C877 1.360 . S
N895 C863 1.360 . S
N895 C870 1.316 . S
C896 C897 1.384 . S
C896 C898 1.384 . S
C896 H924 0.931 . S
C897 C896 1.384 . S
C897 C900 1.382 . S
C898 C896 1.384 . S
C898 C899 1.381 . S
C898 H925 0.930 . S
C899 C898 1.381 . S
C899 C901 1.381 . S
C899 C902 1.487 . S
C900 C897 1.382 . S
C900 C901 1.387 . S
C900 H926 0.930 . S
C901 C899 1.381 . S
C901 C900 1.387 . S
C901 H927 0.931 . S
C902 C899 1.487 . S
C902 C909 1.399 . S
C902 N940 1.343 . S
C903 C904 1.384 . S
C903 C905 1.384 . S
C903 H928 0.931 . S
C904 C903 1.384 . S
C904 C907 1.382 . S
C905 C903 1.384 . S
C905 C906 1.381 . S
C905 H929 0.930 . S
C906 C905 1.381 . S
C906 C908 1.381 . S
C906 C909 1.487 . S
C907 C904 1.382 . S
C907 C908 1.387 . S
C907 H930 0.930 . S
C908 C906 1.381 . S
C908 C907 1.387 . S
C908 H931 0.931 . S
C909 C902 1.399 . S
C909 C906 1.487 . S
C909 N941 1.343 . S
C910 C911 1.384 . S
C910 C912 1.384 . S
C910 H932 0.931 . S
C911 C910 1.384 . S
C911 C914 1.382 . S
C912 C910 1.384 . S
C912 C913 1.381 . S
C912 H933 0.930 . S
C913 C912 1.381 . S
C913 C915 1.381 . S
C913 C916 1.487 . S
C914 C911 1.382 . S
C914 C915 1.387 . S
C914 H934 0.930 . S
C915 C913 1.381 . S
C915 C914 1.387 . S
C915 H935 0.931 . S
C916 C913 1.487 . S
C916 C923 1.399 . S
C916 N941 1.343 . S
C917 C918 1.384 . S
C917 C919 1.384 . S
C917 H936 0.931 . S
C918 C917 1.384 . S
C918 C921 1.382 . S
C919 C917 1.384 . S
C919 C920 1.381 . S
C919 H937 0.930 . S
C920 C919 1.381 . S
C920 C922 1.381 . S
C920 C923 1.487 . S
C921 C918 1.382 . S
C921 C922 1.387 . S
C921 H938 0.930 . S
C922 C920 1.381 . S
C922 C921 1.387 . S
C922 H939 0.931 . S
C923 C916 1.399 . S
C923 C920 1.487 . S
C923 N940 1.343 . S
H924 C896 0.931 . S
H925 C898 0.930 . S
H926 C900 0.930 . S
H927 C901 0.931 . S
H928 C903 0.931 . S
H929 C905 0.930 . S
H930 C907 0.930 . S
H931 C908 0.931 . S
H932 C910 0.931 . S
H933 C912 0.930 . S
H934 C914 0.930 . S
H935 C915 0.931 . S
H936 C917 0.931 . S
H937 C919 0.930 . S
H938 C921 0.930 . S
H939 C922 0.931 . S
N940 C902 1.343 . S
N940 C923 1.343 . S
N941 C909 1.343 . S
N941 C916 1.343 . S
C942 C943 1.384 . S
C942 C944 1.384 . S
C942 H970 0.931 . S
C943 C942 1.384 . S
C943 C946 1.382 . S
C944 C942 1.384 . S
C944 C945 1.381 . S
C944 H971 0.930 . S
C945 C944 1.381 . S
C945 C947 1.381 . S
C945 C948 1.487 . S
C946 C943 1.382 . S
C946 C947 1.387 . S
C946 H972 0.930 . S
C947 C945 1.381 . S
C947 C946 1.387 . S
C947 H973 0.931 . S
C948 C945 1.487 . S
C948 C955 1.399 . S
C948 N986 1.343 . S
C949 C950 1.384 . S
C949 C951 1.384 . S
C949 H974 0.931 . S
C950 C949 1.384 . S
C950 C953 1.382 . S
C951 C949 1.384 . S
C951 C952 1.381 . S
C951 H975 0.930 . S
C952 C951 1.381 . S
C952 C954 1.381 . S
C952 C955 1.487 . S
C953 C950 1.382 . S
C953 C954 1.387 . S
C953 H976 0.930 . S
C954 C952 1.381 . S
C954 C953 1.387 . S
C954 H977 0.931 . S
C955 C948 1.399 . S
C955 C952 1.487 . S
C955 N987 1.343 . S
C956 C957 1.384 . S
C956 C958 1.384 . S
C956 H978 0.931 . S
C957 C956 1.384 . S
C957 C960 1.382 . S
C958 C956 1.384 . S
C958 C959 1.381 . S
C958 H979 0.930 . S
C959 C958 1.381 . S
C959 C961 1.381 . S
C959 C962 1.487 . S
C960 C957 1.382 . S
C960 C961 1.387 . S
C960 H980 0.930 . S
C961 C959 1.381 . S
C961 C960 1.387 . S
C961 H981 0.931 . S
C962 C959 1.487 . S
C962 C969 1.399 . S
C962 N987 1.343 . S
C963 C964 1.384 . S
C963 C965 1.384 . S
C963 H982 0.931 . S
C964 C963 1.384 . S
C964 C967 1.382 . S
C965 C963 1.384 . S
C965 C966 1.381 . S
C965 H983 0.930 . S
C966 C965 1.381 . S
C966 C968 1.381 . S
C966 C969 1.487 . S
C967 C964 1.382 . S
C967 C968 1.387 . S
C967 H984 0.930 . S
C968 C966 1.381 . S
C968 C967 1.387 . S
C968 H985 0.931 . S
C969 C962 1.399 . S
C969 C966 1.487 . S
C969 N986 1.343 . S
H970 C942 0.931 . S
H971 C944 0.930 . S
H972 C946 0.930 . S
H973 C947 0.931 . S
H974 C949 0.931 . S
H975 C951 0.930 . S
H976 C953 0.930 . S
H977 C954 0.931 . S
H978 C956 0.931 . S
H979 C958 0.930 . S
H980 C960 0.930 . S
H981 C961 0.931 . S
H982 C963 0.931 . S
H983 C965 0.930 . S
H984 C967 0.930 . S
H985 C968 0.931 . S
N986 C948 1.343 . S
N986 C969 1.343 . S
N987 C955 1.343 . S
N987 C962 1.343 . S
C988 C989 1.384 . S
C988 C990 1.384 . S
C988 H1016 0.931 . S
C989 C988 1.384 . S
C989 C992 1.382 . S
C990 C988 1.384 . S
C990 C991 1.381 . S
C990 H1017 0.930 . S
C991 C990 1.381 . S
C991 C993 1.381 . S
C991 C994 1.487 . S
C992 C989 1.382 . S
C992 C993 1.387 . S
C992 H1018 0.930 . S
C993 C991 1.381 . S
C993 C992 1.387 . S
C993 H1019 0.931 . S
C994 C991 1.487 . S
C994 C1001 1.399 . S
C994 N1032 1.343 . S
C995 C996 1.384 . S
C995 C997 1.384 . S
C995 H1020 0.931 . S
C996 C995 1.384 . S
C996 C999 1.382 . S
C997 C995 1.384 . S
C997 C998 1.381 . S
C997 H1021 0.930 . S
C998 C997 1.381 . S
C998 C1000 1.381 . S
C998 C1001 1.487 . S
C999 C996 1.382 . S
C999 C1000 1.387 . S
C999 H1022 0.930 . S
C1000 C998 1.381 . S
C1000 C999 1.387 . S
C1000 H1023 0.931 . S
C1001 C994 1.399 . S
C1001 C998 1.487 . S
C1001 N1033 1.343 . S
C1002 C1003 1.384 . S
C1002 C1004 1.384 . S
C1002 H1024 0.931 . S
C1003 C1002 1.384 . S
C1003 C1006 1.382 . S
C1004 C1002 1.384 . S
C1004 C1005 1.381 . S
C1004 H1025 0.930 . S
C1005 C1004 1.381 . S
C1005 C1007 1.381 . S
C1005 C1008 1.487 . S
C1006 C1003 1.382 . S
C1006 C1007 1.387 . S
C1006 H1026 0.930 . S
C1007 C1005 1.381 . S
C1007 C1006 1.387 . S
C1007 H1027 0.931 . S
C1008 C1005 1.487 . S
C1008 C1015 1.399 . S
C1008 N1033 1.343 . S
C1009 C1010 1.384 . S
C1009 C1011 1.384 . S
C1009 H1028 0.931 . S
C1010 C1009 1.384 . S
C1010 C1013 1.382 . S
C1011 C1009 1.384 . S
C1011 C1012 1.381 . S
C1011 H1029 0.930 . S
C1012 C1011 1.381 . S
C1012 C1014 1.381 . S
C1012 C1015 1.487 . S
C1013 C1010 1.382 . S
C1013 C1014 1.387 . S
C1013 H1030 0.930 . S
C1014 C1012 1.381 . S
C1014 C1013 1.387 . S
C1014 H1031 0.931 . S
C1015 C1008 1.399 . S
C1015 C1012 1.487 . S
C1015 N1032 1.343 . S
H1016 C988 0.931 . S
H1017 C990 0.930 . S
H1018 C992 0.930 . S
H1019 C993 0.931 . S
H1020 C995 0.931 . S
H1021 C997 0.930 . S
H1022 C999 0.930 . S
H1023 C1000 0.931 . S
H1024 C1002 0.931 . S
H1025 C1004 0.930 . S
H1026 C1006 0.930 . S
H1027 C1007 0.931 . S
H1028 C1009 0.931 . S
H1029 C1011 0.930 . S
H1030 C1013 0.930 . S
H1031 C1014 0.931 . S
N1032 C994 1.343 . S
N1032 C1015 1.343 . S
N1033 C1001 1.343 . S
N1033 C1008 1.343 . S
C1034 C1035 1.384 . S
C1034 C1036 1.384 . S
C1034 H1062 0.931 . S
C1035 C1034 1.384 . S
C1035 C1038 1.382 . S
C1036 C1034 1.384 . S
C1036 C1037 1.381 . S
C1036 H1063 0.930 . S
C1037 C1036 1.381 . S
C1037 C1039 1.381 . S
C1037 C1040 1.487 . S
C1038 C1035 1.382 . S
C1038 C1039 1.387 . S
C1038 H1064 0.930 . S
C1039 C1037 1.381 . S
C1039 C1038 1.387 . S
C1039 H1065 0.931 . S
C1040 C1037 1.487 . S
C1040 C1047 1.399 . S
C1040 N1078 1.343 . S
C1041 C1042 1.384 . S
C1041 C1043 1.384 . S
C1041 H1066 0.931 . S
C1042 C1041 1.384 . S
C1042 C1045 1.382 . S
C1043 C1041 1.384 . S
C1043 C1044 1.381 . S
C1043 H1067 0.930 . S
C1044 C1043 1.381 . S
C1044 C1046 1.381 . S
C1044 C1047 1.487 . S
C1045 C1042 1.382 . S
C1045 C1046 1.387 . S
C1045 H1068 0.930 . S
C1046 C1044 1.381 . S
C1046 C1045 1.387 . S
C1046 H1069 0.931 . S
C1047 C1040 1.399 . S
C1047 C1044 1.487 . S
C1047 N1079 1.343 . S
C1048 C1049 1.384 . S
C1048 C1050 1.384 . S
C1048 H1070 0.931 . S
C1049 C1048 1.384 . S
C1049 C1052 1.382 . S
C1050 C1048 1.384 . S
C1050 C1051 1.381 . S
C1050 H1071 0.930 . S
C1051 C1050 1.381 . S
C1051 C1053 1.381 . S
C1051 C1054 1.487 . S
C1052 C1049 1.382 . S
C1052 C1053 1.387 . S
C1052 H1072 0.930 . S
C1053 C1051 1.381 . S
C1053 C1052 1.387 . S
C1053 H1073 0.931 . S
C1054 C1051 1.487 . S
C1054 C1061 1.399 . S
C1054 N1079 1.343 . S
C1055 C1056 1.384 . S
C1055 C1057 1.384 . S
C1055 H1074 0.931 . S
C1056 C1055 1.384 . S
C1056 C1059 1.382 . S
C1057 C1055 1.384 . S
C1057 C1058 1.381 . S
C1057 H1075 0.930 . S
C1058 C1057 1.381 . S
C1058 C1060 1.381 . S
C1058 C1061 1.487 . S
C1059 C1056 1.382 . S
C1059 C1060 1.387 . S
C1059 H1076 0.930 . S
C1060 C1058 1.381 . S
C1060 C1059 1.387 . S
C1060 H1077 0.931 . S
C1061 C1054 1.399 . S
C1061 C1058 1.487 . S
C1061 N1078 1.343 . S
H1062 C1034 0.931 . S
H1063 C1036 0.930 . S
H1064 C1038 0.930 . S
H1065 C1039 0.931 . S
H1066 C1041 0.931 . S
H1067 C1043 0.930 . S
H1068 C1045 0.930 . S
H1069 C1046 0.931 . S
H1070 C1048 0.931 . S
H1071 C1050 0.930 . S
H1072 C1052 0.930 . S
H1073 C1053 0.931 . S
H1074 C1055 0.931 . S
H1075 C1057 0.930 . S
H1076 C1059 0.930 . S
H1077 C1060 0.931 . S
N1078 C1040 1.343 . S
N1078 C1061 1.343 . S
N1079 C1047 1.343 . S
N1079 C1054 1.343 . S
H1080 C1081 0.951 . S
C1081 H1080 0.951 . S
C1081 C1087 1.265 1_655 S
H1082 C1087 0.950 . S
H1083 C1091 0.949 . S
H1084 C1092 0.950 . S
H1085 C1093 0.951 . S
H1086 C1094 0.951 . S
C1087 C1081 1.265 1_455 S
C1087 H1082 0.950 . S
C1087 C1088 1.497 . S
C1088 C1087 1.497 . S
C1088 C1089 1.399 . S
C1088 C1105 1.375 1_455 S
C1089 C1088 1.399 . S
C1089 C1090 1.438 . S
C1089 C1094 1.429 . S
C1090 C1089 1.438 . S
C1090 C1091 1.428 . S
C1090 C1103 1.394 1_455 S
C1091 H1083 0.949 . S
C1091 C1090 1.428 . S
C1091 C1092 1.345 . S
C1092 H1084 0.950 . S
C1092 C1091 1.345 . S
C1092 C1093 1.424 . S
C1093 H1085 0.951 . S
C1093 C1092 1.424 . S
C1093 C1094 1.347 . S
C1094 H1086 0.951 . S
C1094 C1089 1.429 . S
C1094 C1093 1.347 . S
H1095 C1096 0.943 1_455 S
C1096 H1095 0.943 1_655 S
C1096 C1102 1.267 . S
H1097 C1102 0.950 . S
H1098 C1106 0.949 . S
H1099 C1107 0.950 . S
H1100 C1108 0.951 . S
H1101 C1109 0.951 . S
C1102 C1096 1.267 . S
C1102 H1097 0.950 . S
C1102 C1103 1.478 . S
C1103 C1090 1.394 1_655 S
C1103 C1102 1.478 . S
C1103 C1104 1.397 . S
C1104 C1103 1.397 . S
C1104 C1105 1.438 . S
C1104 C1109 1.429 . S
C1105 C1088 1.375 1_655 S
C1105 C1104 1.438 . S
C1105 C1106 1.428 . S
C1106 H1098 0.949 . S
C1106 C1105 1.428 . S
C1106 C1107 1.345 . S
C1107 H1099 0.950 . S
C1107 C1106 1.345 . S
C1107 C1108 1.424 . S
C1108 H1100 0.951 . S
C1108 C1107 1.424 . S
C1108 C1109 1.347 . S
C1109 H1101 0.951 . S
C1109 C1104 1.429 . S
C1109 C1108 1.347 . S
H1110 C1111 0.951 . S
C1111 H1110 0.951 . S
C1111 C1117 1.265 . S
H1112 C1117 0.950 . S
H1113 C1121 0.949 . S
H1114 C1122 0.950 . S
H1115 C1123 0.951 . S
H1116 C1124 0.951 . S
C1117 C1111 1.265 . S
C1117 H1112 0.950 . S
C1117 C1118 1.478 . S
C1118 C1117 1.478 . S
C1118 C1119 1.397 . S
C1118 C1135 1.394 . S
C1119 C1118 1.397 . S
C1119 C1120 1.438 . S
C1119 C1124 1.429 . S
C1120 C1119 1.438 . S
C1120 C1121 1.428 . S
C1120 C1133 1.394 . S
C1121 H1113 0.949 . S
C1121 C1120 1.428 . S
C1121 C1122 1.345 . S
C1122 H1114 0.950 . S
C1122 C1121 1.345 . S
C1122 C1123 1.424 . S
C1123 H1115 0.951 . S
C1123 C1122 1.424 . S
C1123 C1124 1.347 . S
C1124 H1116 0.951 . S
C1124 C1119 1.429 . S
C1124 C1123 1.347 . S
H1125 C1126 0.951 . S
C1126 H1125 0.951 . S
C1126 C1132 1.265 . S
H1127 C1132 0.950 . S
H1128 C1136 0.949 . S
H1129 C1137 0.950 . S
H1130 C1138 0.951 . S
H1131 C1139 0.951 . S
C1132 C1126 1.265 . S
C1132 H1127 0.950 . S
C1132 C1133 1.478 . S
C1133 C1120 1.394 . S
C1133 C1132 1.478 . S
C1133 C1134 1.397 . S
C1134 C1133 1.397 . S
C1134 C1135 1.438 . S
C1134 C1139 1.429 . S
C1135 C1118 1.394 . S
C1135 C1134 1.438 . S
C1135 C1136 1.428 . S
C1136 H1128 0.949 . S
C1136 C1135 1.428 . S
C1136 C1137 1.345 . S
C1137 H1129 0.950 . S
C1137 C1136 1.345 . S
C1137 C1138 1.424 . S
C1138 H1130 0.951 . S
C1138 C1137 1.424 . S
C1138 C1139 1.347 . S
C1139 H1131 0.951 . S
C1139 C1134 1.429 . S
C1139 C1138 1.347 . S
H1140 C1141 0.951 . S
C1141 H1140 0.951 . S
C1141 C1147 1.265 . S
H1142 C1147 0.950 . S
H1143 C1151 0.949 . S
H1144 C1152 0.950 . S
H1145 C1153 0.951 . S
H1146 C1154 0.951 . S
C1147 C1141 1.265 . S
C1147 H1142 0.950 . S
C1147 C1148 1.478 . S
C1148 C1147 1.478 . S
C1148 C1149 1.397 1_545 S
C1148 C1165 1.394 . S
C1149 C1148 1.397 1_565 S
C1149 C1150 1.438 . S
C1149 C1154 1.429 . S
C1150 C1149 1.438 . S
C1150 C1151 1.428 . S
C1150 C1163 1.394 1_565 S
C1151 H1143 0.949 . S
C1151 C1150 1.428 . S
C1151 C1152 1.345 . S
C1152 H1144 0.950 . S
C1152 C1151 1.345 . S
C1152 C1153 1.424 . S
C1153 H1145 0.951 . S
C1153 C1152 1.424 . S
C1153 C1154 1.347 . S
C1154 H1146 0.951 . S
C1154 C1149 1.429 . S
C1154 C1153 1.347 . S
H1155 C1156 0.951 1_565 S
C1156 H1155 0.951 1_545 S
C1156 C1162 1.265 . S
H1157 C1162 0.950 . S
H1158 C1166 0.949 . S
H1159 C1167 0.950 . S
H1160 C1168 0.951 . S
H1161 C1169 0.951 . S
C1162 C1156 1.265 . S
C1162 H1157 0.950 . S
C1162 C1163 1.478 . S
C1163 C1150 1.394 1_545 S
C1163 C1162 1.478 . S
C1163 C1164 1.397 . S
C1164 C1163 1.397 . S
C1164 C1165 1.438 . S
C1164 C1169 1.429 . S
C1165 C1148 1.394 . S
C1165 C1164 1.438 . S
C1165 C1166 1.428 . S
C1166 H1158 0.949 . S
C1166 C1165 1.428 . S
C1166 C1167 1.345 . S
C1167 H1159 0.950 . S
C1167 C1166 1.345 . S
C1167 C1168 1.424 . S
C1168 H1160 0.951 . S
C1168 C1167 1.424 . S
C1168 C1169 1.347 . S
C1169 H1161 0.951 . S
C1169 C1164 1.429 . S
C1169 C1168 1.347 . S
H1170 C1171 0.951 . S
C1171 H1170 0.951 . S
C1171 C1177 1.265 . S
H1172 C1177 0.950 . S
H1173 C1181 0.949 . S
H1174 C1182 0.950 . S
H1175 C1183 0.951 . S
H1176 C1184 0.951 . S
C1177 C1171 1.265 . S
C1177 H1172 0.950 . S
C1177 C1178 1.478 . S
C1178 C1177 1.478 . S
C1178 C1179 1.397 . S
C1178 C1195 1.394 1_565 S
C1179 C1178 1.397 . S
C1179 C1180 1.438 . S
C1179 C1184 1.429 . S
C1180 C1179 1.438 . S
C1180 C1181 1.428 . S
C1180 C1193 1.394 . S
C1181 H1173 0.949 . S
C1181 C1180 1.428 . S
C1181 C1182 1.345 . S
C1182 H1174 0.950 . S
C1182 C1181 1.345 . S
C1182 C1183 1.424 . S
C1183 H1175 0.951 . S
C1183 C1182 1.424 . S
C1183 C1184 1.347 . S
C1184 H1176 0.951 . S
C1184 C1179 1.429 . S
C1184 C1183 1.347 . S
H1185 C1186 0.951 1_545 S
C1186 H1185 0.951 1_565 S
C1186 C1192 1.265 . S
H1187 C1192 0.950 . S
H1188 C1196 0.949 . S
H1189 C1197 0.950 . S
H1190 C1198 0.951 . S
H1191 C1199 0.951 . S
C1192 C1186 1.265 . S
C1192 H1187 0.950 . S
C1192 C1193 1.478 . S
C1193 C1180 1.394 . S
C1193 C1192 1.478 . S
C1193 C1194 1.397 1_565 S
C1194 C1193 1.397 1_545 S
C1194 C1195 1.438 . S
C1194 C1199 1.429 . S
C1195 C1178 1.394 1_545 S
C1195 C1194 1.438 . S
C1195 C1196 1.428 . S
C1196 H1188 0.949 . S
C1196 C1195 1.428 . S
C1196 C1197 1.345 . S
C1197 H1189 0.950 . S
C1197 C1196 1.345 . S
C1197 C1198 1.424 . S
C1198 H1190 0.951 . S
C1198 C1197 1.424 . S
C1198 C1199 1.347 . S
C1199 H1191 0.951 . S
C1199 C1194 1.429 . S
C1199 C1198 1.347 . S
H1200 C1201 0.951 . S
C1201 H1200 0.951 . S
C1201 C1207 1.265 . S
H1202 C1207 0.950 1_655 S
H1203 C1211 0.949 . S
H1204 C1212 0.950 . S
H1205 C1213 0.951 . S
H1206 C1214 0.951 . S
C1207 C1201 1.265 . S
C1207 H1202 0.950 1_455 S
C1207 C1208 1.478 . S
C1208 C1207 1.478 . S
C1208 C1209 1.397 . S
C1208 C1225 1.394 . S
C1209 C1208 1.397 . S
C1209 C1210 1.438 . S
C1209 C1214 1.429 . S
C1210 C1209 1.438 . S
C1210 C1211 1.428 . S
C1210 C1223 1.394 . S
C1211 H1203 0.949 . S
C1211 C1210 1.428 . S
C1211 C1212 1.345 . S
C1212 H1204 0.950 . S
C1212 C1211 1.345 . S
C1212 C1213 1.424 . S
C1213 H1205 0.951 . S
C1213 C1212 1.424 . S
C1213 C1214 1.347 . S
C1214 H1206 0.951 . S
C1214 C1209 1.429 . S
C1214 C1213 1.347 . S
H1215 C1216 0.951 1_655 S
C1216 H1215 0.951 1_455 S
C1216 C1222 1.265 . S
H1217 C1222 0.950 . S
H1218 C1226 0.949 . S
H1219 C1227 0.950 . S
H1220 C1228 0.951 . S
H1221 C1229 0.951 . S
C1222 C1216 1.265 . S
C1222 H1217 0.950 . S
C1222 C1223 1.478 . S
C1223 C1210 1.394 . S
C1223 C1222 1.478 . S
C1223 C1224 1.397 . S
C1224 C1223 1.397 . S
C1224 C1225 1.438 . S
C1224 C1229 1.429 . S
C1225 C1208 1.394 . S
C1225 C1224 1.438 . S
C1225 C1226 1.428 . S
C1226 H1218 0.949 . S
C1226 C1225 1.428 . S
C1226 C1227 1.345 . S
C1227 H1219 0.950 . S
C1227 C1226 1.345 . S
C1227 C1228 1.424 . S
C1228 H1220 0.951 . S
C1228 C1227 1.424 . S
C1228 C1229 1.347 . S
C1229 H1221 0.951 . S
C1229 C1224 1.429 . S
C1229 C1228 1.347 . S
H1230 C1231 0.951 . S
C1231 H1230 0.951 . S
C1231 C1237 1.265 . S
H1232 C1237 0.950 . S
H1233 C1241 0.949 . S
H1234 C1242 0.950 . S
H1235 C1243 0.951 . S
H1236 C1244 0.951 . S
C1237 C1231 1.265 . S
C1237 H1232 0.950 . S
C1237 C1238 1.478 . S
C1238 C1237 1.478 . S
C1238 C1239 1.397 . S
C1238 C1255 1.394 . S
C1239 C1238 1.397 . S
C1239 C1240 1.438 . S
C1239 C1244 1.429 . S
C1240 C1239 1.438 . S
C1240 C1241 1.428 . S
C1240 C1253 1.394 . S
C1241 H1233 0.949 . S
C1241 C1240 1.428 . S
C1241 C1242 1.345 . S
C1242 H1234 0.950 . S
C1242 C1241 1.345 . S
C1242 C1243 1.424 . S
C1243 H1235 0.951 . S
C1243 C1242 1.424 . S
C1243 C1244 1.347 . S
C1244 H1236 0.951 . S
C1244 C1239 1.429 . S
C1244 C1243 1.347 . S
H1245 C1246 0.951 . S
C1246 H1245 0.951 . S
C1246 C1252 1.265 . S
H1247 C1252 0.950 . S
H1248 C1256 0.949 . S
H1249 C1257 0.950 . S
H1250 C1258 0.951 . S
H1251 C1259 0.951 . S
C1252 C1246 1.265 . S
C1252 H1247 0.950 . S
C1252 C1253 1.478 . S
C1253 C1240 1.394 . S
C1253 C1252 1.478 . S
C1253 C1254 1.397 . S
C1254 C1253 1.397 . S
C1254 C1255 1.438 . S
C1254 C1259 1.429 . S
C1255 C1238 1.394 . S
C1255 C1254 1.438 . S
C1255 C1256 1.428 . S
C1256 H1248 0.949 . S
C1256 C1255 1.428 . S
C1256 C1257 1.345 . S
C1257 H1249 0.950 . S
C1257 C1256 1.345 . S
C1257 C1258 1.424 . S
C1258 H1250 0.951 . S
C1258 C1257 1.424 . S
C1258 C1259 1.347 . S
C1259 H1251 0.951 . S
C1259 C1254 1.429 . S
C1259 C1258 1.347 . S
H1260 C1261 0.951 . S
C1261 H1260 0.951 . S
C1261 C1267 1.265 . S
H1262 C1267 0.950 1_655 S
H1263 C1271 0.949 . S
H1264 C1272 0.960 . S
H1265 C1273 0.973 . S
H1266 C1274 0.913 1_655 S
C1267 C1261 1.265 . S
C1267 H1262 0.950 1_455 S
C1267 C1268 1.478 . S
C1268 C1267 1.478 . S
C1268 C1269 1.397 . S
C1268 C1285 1.394 . S
C1269 C1268 1.397 . S
C1269 C1270 1.438 . S
C1269 C1274 1.457 . S
C1270 C1269 1.438 . S
C1270 C1271 1.428 . S
C1270 C1283 1.394 . S
C1271 H1263 0.949 . S
C1271 C1270 1.428 . S
C1271 C1272 1.345 . S
C1272 H1264 0.960 . S
C1272 C1271 1.345 . S
C1272 C1273 1.406 1_455 S
C1273 H1265 0.973 . S
C1273 C1272 1.406 1_655 S
C1273 C1274 1.342 1_655 S
C1274 H1266 0.913 1_455 S
C1274 C1269 1.457 . S
C1274 C1273 1.342 1_455 S
H1275 C1276 0.951 1_655 S
C1276 H1275 0.951 1_455 S
C1276 C1282 1.265 . S
H1277 C1282 0.950 . S
H1278 C1286 0.949 . S
H1279 C1287 0.950 . S
H1280 C1288 0.951 . S
H1281 C1289 0.951 . S
C1282 C1276 1.265 . S
C1282 H1277 0.950 . S
C1282 C1283 1.478 . S
C1283 C1270 1.394 . S
C1283 C1282 1.478 . S
C1283 C1284 1.397 . S
C1284 C1283 1.397 . S
C1284 C1285 1.438 . S
C1284 C1289 1.429 . S
C1285 C1268 1.394 . S
C1285 C1284 1.438 . S
C1285 C1286 1.428 . S
C1286 H1278 0.949 . S
C1286 C1285 1.428 . S
C1286 C1287 1.345 . S
C1287 H1279 0.950 . S
C1287 C1286 1.345 . S
C1287 C1288 1.424 . S
C1288 H1280 0.951 . S
C1288 C1287 1.424 . S
C1288 C1289 1.347 . S
C1289 H1281 0.951 . S
C1289 C1284 1.429 . S
C1289 C1288 1.347 . S
H1290 C1291 0.951 . S
C1291 H1290 0.951 . S
C1291 C1297 1.265 . S
H1292 C1297 0.950 . S
H1293 C1301 0.949 . S
H1294 C1302 0.950 . S
H1295 C1303 0.951 . S
H1296 C1304 0.951 . S
C1297 C1291 1.265 . S
C1297 H1292 0.950 . S
C1297 C1298 1.478 . S
C1298 C1297 1.478 . S
C1298 C1299 1.397 . S
C1298 C1315 1.394 . S
C1299 C1298 1.397 . S
C1299 C1300 1.438 . S
C1299 C1304 1.429 . S
C1300 C1299 1.438 . S
C1300 C1301 1.428 . S
C1300 C1313 1.394 . S
C1301 H1293 0.949 . S
C1301 C1300 1.428 . S
C1301 C1302 1.345 . S
C1302 H1294 0.950 . S
C1302 C1301 1.345 . S
C1302 C1303 1.424 . S
C1303 H1295 0.951 . S
C1303 C1302 1.424 . S
C1303 C1304 1.347 . S
C1304 H1296 0.951 . S
C1304 C1299 1.429 . S
C1304 C1303 1.347 . S
H1305 C1306 0.951 . S
C1306 H1305 0.951 . S
C1306 C1312 1.265 . S
H1307 C1312 0.950 . S
H1308 C1316 0.949 . S
H1309 C1317 0.950 . S
H1310 C1318 0.951 . S
H1311 C1319 0.951 . S
C1312 C1306 1.265 . S
C1312 H1307 0.950 . S
C1312 C1313 1.478 . S
C1313 C1300 1.394 . S
C1313 C1312 1.478 . S
C1313 C1314 1.397 . S
C1314 C1313 1.397 . S
C1314 C1315 1.438 . S
C1314 C1319 1.429 . S
C1315 C1298 1.394 . S
C1315 C1314 1.438 . S
C1315 C1316 1.428 . S
C1316 H1308 0.949 . S
C1316 C1315 1.428 . S
C1316 C1317 1.345 . S
C1317 H1309 0.950 . S
C1317 C1316 1.345 . S
C1317 C1318 1.424 . S
C1318 H1310 0.951 . S
C1318 C1317 1.424 . S
C1318 C1319 1.347 . S
C1319 H1311 0.951 . S
C1319 C1314 1.429 . S
C1319 C1318 1.347 . S
H1320 C1321 0.951 . S
C1321 H1320 0.951 . S
C1321 C1327 1.265 . S
H1322 C1327 0.950 . S
H1323 C1331 0.949 . S
H1324 C1332 0.950 . S
H1325 C1333 0.951 . S
H1326 C1334 0.951 . S
C1327 C1321 1.265 . S
C1327 H1322 0.950 . S
C1327 C1328 1.478 . S
C1328 C1327 1.478 . S
C1328 C1329 1.397 . S
C1328 C1345 1.394 1_565 S
C1329 C1328 1.397 . S
C1329 C1330 1.438 . S
C1329 C1334 1.429 . S
C1330 C1329 1.438 . S
C1330 C1331 1.428 . S
C1330 C1343 1.394 . S
C1331 H1323 0.949 . S
C1331 C1330 1.428 . S
C1331 C1332 1.345 . S
C1332 H1324 0.950 . S
C1332 C1331 1.345 . S
C1332 C1333 1.424 . S
C1333 H1325 0.951 . S
C1333 C1332 1.424 . S
C1333 C1334 1.347 . S
C1334 H1326 0.951 . S
C1334 C1329 1.429 . S
C1334 C1333 1.347 . S
H1335 C1336 0.951 . S
C1336 H1335 0.951 . S
C1336 C1342 1.265 . S
H1337 C1342 0.950 . S
H1338 C1346 0.949 . S
H1339 C1347 0.950 . S
H1340 C1348 0.951 . S
H1341 C1349 0.951 . S
C1342 C1336 1.265 . S
C1342 H1337 0.950 . S
C1342 C1343 1.478 . S
C1343 C1330 1.394 . S
C1343 C1342 1.478 . S
C1343 C1344 1.397 1_565 S
C1344 C1343 1.397 1_545 S
C1344 C1345 1.438 . S
C1344 C1349 1.429 . S
C1345 C1328 1.394 1_545 S
C1345 C1344 1.438 . S
C1345 C1346 1.428 . S
C1346 H1338 0.949 . S
C1346 C1345 1.428 . S
C1346 C1347 1.345 . S
C1347 H1339 0.950 . S
C1347 C1346 1.345 . S
C1347 C1348 1.424 . S
C1348 H1340 0.951 . S
C1348 C1347 1.424 . S
C1348 C1349 1.347 . S
C1349 H1341 0.951 . S
C1349 C1344 1.429 . S
C1349 C1348 1.347 . S
H1350 C1351 0.968 . S
C1351 H1350 0.968 . S
C1351 C1357 1.265 . S
H1352 C1357 0.950 . S
H1353 C1361 0.949 . S
H1354 C1362 0.950 . S
H1355 C1363 0.951 . S
H1356 C1364 0.951 . S
C1357 C1351 1.265 . S
C1357 H1352 0.950 . S
C1357 C1358 1.478 . S
C1358 C1357 1.478 . S
C1358 C1359 1.397 . S
C1358 C1375 1.394 . S
C1359 C1358 1.397 . S
C1359 C1360 1.438 . S
C1359 C1364 1.429 . S
C1360 C1359 1.438 . S
C1360 C1361 1.428 . S
C1360 C1373 1.394 . S
C1361 H1353 0.949 . S
C1361 C1360 1.428 . S
C1361 C1362 1.345 . S
C1362 H1354 0.950 . S
C1362 C1361 1.345 . S
C1362 C1363 1.424 . S
C1363 H1355 0.951 . S
C1363 C1362 1.424 . S
C1363 C1364 1.347 . S
C1364 H1356 0.951 . S
C1364 C1359 1.429 . S
C1364 C1363 1.347 . S
H1365 C1366 0.951 . S
C1366 H1365 0.951 . S
C1366 C1372 1.265 1_545 S
H1367 C1372 0.950 . S
H1368 C1376 0.949 . S
H1369 C1377 0.950 . S
H1370 C1378 0.951 . S
H1371 C1379 0.951 . S
C1372 C1366 1.265 1_565 S
C1372 H1367 0.950 . S
C1372 C1373 1.478 1_565 S
C1373 C1360 1.394 . S
C1373 C1372 1.478 1_545 S
C1373 C1374 1.397 1_545 S
C1374 C1373 1.397 1_565 S
C1374 C1375 1.438 1_565 S
C1374 C1379 1.429 . S
C1375 C1358 1.394 . S
C1375 C1374 1.438 1_545 S
C1375 C1376 1.428 . S
C1376 H1368 0.949 . S
C1376 C1375 1.428 . S
C1376 C1377 1.345 1_545 S
C1377 H1369 0.950 . S
C1377 C1376 1.345 1_565 S
C1377 C1378 1.424 . S
C1378 H1370 0.951 . S
C1378 C1377 1.424 . S
C1378 C1379 1.347 . S
C1379 H1371 0.951 . S
C1379 C1374 1.429 . S
C1379 C1378 1.347 . S
H1380 C1381 0.951 1_455 S
C1381 H1380 0.951 1_655 S
C1381 C1387 1.265 . S
H1382 C1387 0.950 . S
H1383 C1391 0.949 . S
H1384 C1392 0.950 . S
H1385 C1393 0.951 . S
H1386 C1394 0.951 . S
C1387 C1381 1.265 . S
C1387 H1382 0.950 . S
C1387 C1388 1.478 . S
C1388 C1387 1.478 . S
C1388 C1389 1.397 . S
C1388 C1405 1.394 . S
C1389 C1388 1.397 . S
C1389 C1390 1.438 . S
C1389 C1394 1.429 . S
C1390 C1389 1.438 . S
C1390 C1391 1.428 . S
C1390 C1403 1.394 . S
C1391 H1383 0.949 . S
C1391 C1390 1.428 . S
C1391 C1392 1.345 . S
C1392 H1384 0.950 . S
C1392 C1391 1.345 . S
C1392 C1393 1.424 . S
C1393 H1385 0.951 . S
C1393 C1392 1.424 . S
C1393 C1394 1.347 . S
C1394 H1386 0.951 . S
C1394 C1389 1.429 . S
C1394 C1393 1.347 . S
H1395 C1396 0.951 . S
C1396 H1395 0.951 . S
C1396 C1402 1.265 1_655 S
H1397 C1402 0.950 . S
H1398 C1406 0.949 1_655 S
H1399 C1407 0.950 . S
H1400 C1408 0.951 . S
H1401 C1409 0.951 . S
C1402 C1396 1.265 1_455 S
C1402 H1397 0.950 . S
C1402 C1403 1.478 1_455 S
C1403 C1390 1.394 . S
C1403 C1402 1.478 1_655 S
C1403 C1404 1.397 1_655 S
C1404 C1403 1.397 1_455 S
C1404 C1405 1.438 1_455 S
C1404 C1409 1.429 . S
C1405 C1388 1.394 . S
C1405 C1404 1.438 1_655 S
C1405 C1406 1.428 1_655 S
C1406 H1398 0.949 1_455 S
C1406 C1405 1.428 1_455 S
C1406 C1407 1.345 . S
C1407 H1399 0.950 . S
C1407 C1406 1.345 . S
C1407 C1408 1.424 . S
C1408 H1400 0.951 . S
C1408 C1407 1.424 . S
C1408 C1409 1.347 . S
C1409 H1401 0.951 . S
C1409 C1404 1.429 . S
C1409 C1408 1.347 . S
H1410 C1411 0.951 . S
C1411 H1410 0.951 . S
C1411 C1417 1.265 . S
H1412 C1417 0.950 . S
H1413 C1421 0.949 . S
H1414 C1422 0.950 . S
H1415 C1423 0.951 . S
H1416 C1424 0.951 . S
C1417 C1411 1.265 . S
C1417 H1412 0.950 . S
C1417 C1418 1.478 . S
C1418 C1417 1.478 . S
C1418 C1419 1.397 . S
C1418 C1435 1.394 . S
C1419 C1418 1.397 . S
C1419 C1420 1.438 . S
C1419 C1424 1.429 . S
C1420 C1419 1.438 . S
C1420 C1421 1.428 . S
C1420 C1433 1.394 . S
C1421 H1413 0.949 . S
C1421 C1420 1.428 . S
C1421 C1422 1.345 . S
C1422 H1414 0.950 . S
C1422 C1421 1.345 . S
C1422 C1423 1.424 . S
C1423 H1415 0.951 . S
C1423 C1422 1.424 . S
C1423 C1424 1.347 . S
C1424 H1416 0.951 . S
C1424 C1419 1.429 . S
C1424 C1423 1.347 . S
H1425 C1426 0.951 . S
C1426 H1425 0.951 . S
C1426 C1432 1.265 . S
H1427 C1432 0.950 . S
H1428 C1436 0.949 . S
H1429 C1437 0.950 . S
H1430 C1438 0.951 . S
H1431 C1439 0.951 . S
C1432 C1426 1.265 . S
C1432 H1427 0.950 . S
C1432 C1433 1.478 . S
C1433 C1420 1.394 . S
C1433 C1432 1.478 . S
C1433 C1434 1.397 . S
C1434 C1433 1.397 . S
C1434 C1435 1.438 . S
C1434 C1439 1.429 . S
C1435 C1418 1.394 . S
C1435 C1434 1.438 . S
C1435 C1436 1.428 . S
C1436 H1428 0.949 . S
C1436 C1435 1.428 . S
C1436 C1437 1.345 . S
C1437 H1429 0.950 . S
C1437 C1436 1.345 . S
C1437 C1438 1.424 . S
C1438 H1430 0.951 . S
C1438 C1437 1.424 . S
C1438 C1439 1.347 . S
C1439 H1431 0.951 . S
C1439 C1434 1.429 . S
C1439 C1438 1.347 . S
H1440 C1441 0.951 . S
C1441 H1440 0.951 . S
C1441 C1447 1.265 . S
H1442 C1447 0.950 . S
H1443 C1451 0.949 . S
H1444 C1452 0.950 . S
H1445 C1453 0.951 . S
H1446 C1454 0.951 . S
C1447 C1441 1.265 . S
C1447 H1442 0.950 . S
C1447 C1448 1.478 . S
C1448 C1447 1.478 . S
C1448 C1449 1.397 . S
C1448 C1465 1.394 . S
C1449 C1448 1.397 . S
C1449 C1450 1.438 . S
C1449 C1454 1.429 . S
C1450 C1449 1.438 . S
C1450 C1451 1.428 . S
C1450 C1463 1.394 . S
C1451 H1443 0.949 . S
C1451 C1450 1.428 . S
C1451 C1452 1.345 . S
C1452 H1444 0.950 . S
C1452 C1451 1.345 . S
C1452 C1453 1.424 . S
C1453 H1445 0.951 . S
C1453 C1452 1.424 . S
C1453 C1454 1.347 . S
C1454 H1446 0.951 . S
C1454 C1449 1.429 . S
C1454 C1453 1.347 . S
H1455 C1456 0.951 . S
C1456 H1455 0.951 . S
C1456 C1462 1.265 . S
H1457 C1462 0.950 . S
H1458 C1466 0.949 . S
H1459 C1467 0.950 . S
H1460 C1468 0.951 . S
H1461 C1469 0.951 . S
C1462 C1456 1.265 . S
C1462 H1457 0.950 . S
C1462 C1463 1.478 . S
C1463 C1450 1.394 . S
C1463 C1462 1.478 . S
C1463 C1464 1.397 . S
C1464 C1463 1.397 . S
C1464 C1465 1.438 . S
C1464 C1469 1.429 . S
C1465 C1448 1.394 . S
C1465 C1464 1.438 . S
C1465 C1466 1.428 . S
C1466 H1458 0.949 . S
C1466 C1465 1.428 . S
C1466 C1467 1.345 . S
C1467 H1459 0.950 . S
C1467 C1466 1.345 . S
C1467 C1468 1.424 . S
C1468 H1460 0.951 . S
C1468 C1467 1.424 . S
C1468 C1469 1.347 . S
C1469 H1461 0.951 . S
C1469 C1464 1.429 . S
C1469 C1468 1.347 . S
H1470 C1471 0.951 . S
C1471 H1470 0.951 . S
C1471 C1477 1.265 . S
H1472 C1477 0.950 . S
H1473 C1481 0.949 . S
H1474 C1482 0.950 . S
H1475 C1483 0.951 . S
H1476 C1484 0.951 . S
C1477 C1471 1.265 . S
C1477 H1472 0.950 . S
C1477 C1478 1.478 . S
C1478 C1477 1.478 . S
C1478 C1479 1.397 . S
C1478 C1495 1.394 . S
C1479 C1478 1.397 . S
C1479 C1480 1.438 . S
C1479 C1484 1.429 . S
C1480 C1479 1.438 . S
C1480 C1481 1.428 . S
C1480 C1493 1.394 . S
C1481 H1473 0.949 . S
C1481 C1480 1.428 . S
C1481 C1482 1.345 . S
C1482 H1474 0.950 . S
C1482 C1481 1.345 . S
C1482 C1483 1.424 . S
C1483 H1475 0.951 . S
C1483 C1482 1.424 . S
C1483 C1484 1.347 . S
C1484 H1476 0.951 . S
C1484 C1479 1.429 . S
C1484 C1483 1.347 . S
H1485 C1486 0.951 . S
C1486 H1485 0.951 . S
C1486 C1492 1.265 . S
H1487 C1492 0.950 . S
H1488 C1496 0.949 . S
H1489 C1497 0.950 . S
H1490 C1498 0.951 . S
H1491 C1499 0.951 . S
C1492 C1486 1.265 . S
C1492 H1487 0.950 . S
C1492 C1493 1.478 . S
C1493 C1480 1.394 . S
C1493 C1492 1.478 . S
C1493 C1494 1.397 . S
C1494 C1493 1.397 . S
C1494 C1495 1.438 . S
C1494 C1499 1.429 . S
C1495 C1478 1.394 . S
C1495 C1494 1.438 . S
C1495 C1496 1.428 . S
C1496 H1488 0.949 . S
C1496 C1495 1.428 . S
C1496 C1497 1.345 . S
C1497 H1489 0.950 . S
C1497 C1496 1.345 . S
C1497 C1498 1.424 . S
C1498 H1490 0.951 . S
C1498 C1497 1.424 . S
C1498 C1499 1.347 . S
C1499 H1491 0.951 . S
C1499 C1494 1.429 . S
C1499 C1498 1.347 . S
H1500 C1501 0.951 . S
C1501 H1500 0.951 . S
C1501 C1507 1.265 . S
H1502 C1507 0.950 . S
H1503 C1511 0.949 . S
H1504 C1512 0.950 . S
H1505 C1513 0.951 . S
H1506 C1514 0.951 . S
C1507 C1501 1.265 . S
C1507 H1502 0.950 . S
C1507 C1508 1.478 . S
C1508 C1507 1.478 . S
C1508 C1509 1.397 . S
C1508 C1525 1.394 . S
C1509 C1508 1.397 . S
C1509 C1510 1.438 . S
C1509 C1514 1.429 . S
C1510 C1509 1.438 . S
C1510 C1511 1.428 . S
C1510 C1523 1.394 . S
C1511 H1503 0.949 . S
C1511 C1510 1.428 . S
C1511 C1512 1.345 . S
C1512 H1504 0.950 . S
C1512 C1511 1.345 . S
C1512 C1513 1.424 . S
C1513 H1505 0.951 . S
C1513 C1512 1.424 . S
C1513 C1514 1.347 . S
C1514 H1506 0.951 . S
C1514 C1509 1.429 . S
C1514 C1513 1.347 . S
H1515 C1516 0.951 . S
C1516 H1515 0.951 . S
C1516 C1522 1.265 . S
H1517 C1522 0.950 . S
H1518 C1526 0.949 . S
H1519 C1527 0.950 . S
H1520 C1528 0.951 . S
H1521 C1529 0.951 . S
C1522 C1516 1.265 . S
C1522 H1517 0.950 . S
C1522 C1523 1.478 . S
C1523 C1510 1.394 . S
C1523 C1522 1.478 . S
C1523 C1524 1.397 . S
C1524 C1523 1.397 . S
C1524 C1525 1.438 . S
C1524 C1529 1.429 . S
C1525 C1508 1.394 . S
C1525 C1524 1.438 . S
C1525 C1526 1.428 . S
C1526 H1518 0.949 . S
C1526 C1525 1.428 . S
C1526 C1527 1.345 . S
C1527 H1519 0.950 . S
C1527 C1526 1.345 . S
C1527 C1528 1.424 . S
C1528 H1520 0.951 . S
C1528 C1527 1.424 . S
C1528 C1529 1.347 . S
C1529 H1521 0.951 . S
C1529 C1524 1.429 . S
C1529 C1528 1.347 . S
H1530 C1531 0.951 . S
C1531 H1530 0.951 . S
C1531 C1537 1.265 . S
H1532 C1537 0.950 . S
H1533 C1541 0.949 . S
H1534 C1542 0.950 . S
H1535 C1543 0.951 . S
H1536 C1544 0.951 . S
C1537 C1531 1.265 . S
C1537 H1532 0.950 . S
C1537 C1538 1.478 . S
C1538 C1537 1.478 . S
C1538 C1539 1.397 . S
C1538 C1555 1.394 . S
C1539 C1538 1.397 . S
C1539 C1540 1.438 . S
C1539 C1544 1.429 . S
C1540 C1539 1.438 . S
C1540 C1541 1.428 . S
C1540 C1553 1.394 . S
C1541 H1533 0.949 . S
C1541 C1540 1.428 . S
C1541 C1542 1.345 . S
C1542 H1534 0.950 . S
C1542 C1541 1.345 . S
C1542 C1543 1.424 . S
C1543 H1535 0.951 . S
C1543 C1542 1.424 . S
C1543 C1544 1.347 . S
C1544 H1536 0.951 . S
C1544 C1539 1.429 . S
C1544 C1543 1.347 . S
H1545 C1546 0.951 . S
C1546 H1545 0.951 . S
C1546 C1552 1.265 . S
H1547 C1552 0.950 . S
H1548 C1556 0.949 . S
H1549 C1557 0.950 . S
H1550 C1558 0.951 . S
H1551 C1559 0.951 . S
C1552 C1546 1.265 . S
C1552 H1547 0.950 . S
C1552 C1553 1.478 . S
C1553 C1540 1.394 . S
C1553 C1552 1.478 . S
C1553 C1554 1.397 . S
C1554 C1553 1.397 . S
C1554 C1555 1.438 . S
C1554 C1559 1.429 . S
C1555 C1538 1.394 . S
C1555 C1554 1.438 . S
C1555 C1556 1.428 . S
C1556 H1548 0.949 . S
C1556 C1555 1.428 . S
C1556 C1557 1.345 . S
C1557 H1549 0.950 . S
C1557 C1556 1.345 . S
C1557 C1558 1.424 . S
C1558 H1550 0.951 . S
C1558 C1557 1.424 . S
C1558 C1559 1.347 . S
C1559 H1551 0.951 . S
C1559 C1554 1.429 . S
C1559 C1558 1.347 . S
H1560 C1561 0.951 . S
C1561 H1560 0.951 . S
C1561 C1567 1.265 . S
H1562 C1567 0.950 . S
H1563 C1571 0.949 . S
H1564 C1572 0.950 . S
H1565 C1573 0.951 . S
H1566 C1574 0.951 . S
C1567 C1561 1.265 . S
C1567 H1562 0.950 . S
C1567 C1568 1.478 . S
C1568 C1567 1.478 . S
C1568 C1569 1.397 . S
C1568 C1585 1.394 . S
C1569 C1568 1.397 . S
C1569 C1570 1.438 . S
C1569 C1574 1.429 . S
C1570 C1569 1.438 . S
C1570 C1571 1.428 . S
C1570 C1583 1.394 . S
C1571 H1563 0.949 . S
C1571 C1570 1.428 . S
C1571 C1572 1.345 . S
C1572 H1564 0.950 . S
C1572 C1571 1.345 . S
C1572 C1573 1.424 . S
C1573 H1565 0.951 . S
C1573 C1572 1.424 . S
C1573 C1574 1.347 . S
C1574 H1566 0.951 . S
C1574 C1569 1.429 . S
C1574 C1573 1.347 . S
H1575 C1576 0.951 . S
C1576 H1575 0.951 . S
C1576 C1582 1.265 . S
H1577 C1582 0.950 . S
H1578 C1586 0.949 . S
H1579 C1587 0.950 . S
H1580 C1588 0.951 . S
H1581 C1589 0.951 . S
C1582 C1576 1.265 . S
C1582 H1577 0.950 . S
C1582 C1583 1.478 . S
C1583 C1570 1.394 . S
C1583 C1582 1.478 . S
C1583 C1584 1.397 . S
C1584 C1583 1.397 . S
C1584 C1585 1.438 . S
C1584 C1589 1.429 . S
C1585 C1568 1.394 . S
C1585 C1584 1.438 . S
C1585 C1586 1.428 . S
C1586 H1578 0.949 . S
C1586 C1585 1.428 . S
C1586 C1587 1.345 . S
C1587 H1579 0.950 . S
C1587 C1586 1.345 . S
C1587 C1588 1.424 . S
C1588 H1580 0.951 . S
C1588 C1587 1.424 . S
C1588 C1589 1.347 . S
C1589 H1581 0.951 . S
C1589 C1584 1.429 . S
C1589 C1588 1.347 . S
H1590 C1591 0.951 . S
C1591 H1590 0.951 . S
C1591 C1597 1.265 . S
H1592 C1597 0.950 . S
H1593 C1601 0.949 . S
H1594 C1602 0.950 . S
H1595 C1603 0.951 . S
H1596 C1604 0.951 . S
C1597 C1591 1.265 . S
C1597 H1592 0.950 . S
C1597 C1598 1.478 . S
C1598 C1597 1.478 . S
C1598 C1599 1.397 . S
C1598 C1615 1.394 . S
C1599 C1598 1.397 . S
C1599 C1600 1.438 . S
C1599 C1604 1.429 . S
C1600 C1599 1.438 . S
C1600 C1601 1.428 . S
C1600 C1613 1.394 . S
C1601 H1593 0.949 . S
C1601 C1600 1.428 . S
C1601 C1602 1.345 . S
C1602 H1594 0.950 . S
C1602 C1601 1.345 . S
C1602 C1603 1.424 . S
C1603 H1595 0.951 . S
C1603 C1602 1.424 . S
C1603 C1604 1.347 . S
C1604 H1596 0.951 . S
C1604 C1599 1.429 . S
C1604 C1603 1.347 . S
H1605 C1606 0.951 . S
C1606 H1605 0.951 . S
C1606 C1612 1.265 . S
H1607 C1612 0.950 . S
H1608 C1616 0.949 . S
H1609 C1617 0.950 . S
H1610 C1618 0.951 . S
H1611 C1619 0.951 . S
C1612 C1606 1.265 . S
C1612 H1607 0.950 . S
C1612 C1613 1.478 . S
C1613 C1600 1.394 . S
C1613 C1612 1.478 . S
C1613 C1614 1.397 . S
C1614 C1613 1.397 . S
C1614 C1615 1.438 . S
C1614 C1619 1.429 . S
C1615 C1598 1.394 . S
C1615 C1614 1.438 . S
C1615 C1616 1.428 . S
C1616 H1608 0.949 . S
C1616 C1615 1.428 . S
C1616 C1617 1.345 . S
C1617 H1609 0.950 . S
C1617 C1616 1.345 . S
C1617 C1618 1.424 . S
C1618 H1610 0.951 . S
C1618 C1617 1.424 . S
C1618 C1619 1.347 . S
C1619 H1611 0.951 . S
C1619 C1614 1.429 . S
C1619 C1618 1.347 . S
H1620 C1621 0.951 . S
C1621 H1620 0.951 . S
C1621 C1627 1.265 . S
H1622 C1627 0.950 . S
H1623 C1631 0.949 . S
H1624 C1632 0.950 . S
H1625 C1633 0.951 . S
H1626 C1634 0.951 . S
C1627 C1621 1.265 . S
C1627 H1622 0.950 . S
C1627 C1628 1.478 . S
C1628 C1627 1.478 . S
C1628 C1629 1.397 . S
C1628 C1645 1.394 . S
C1629 C1628 1.397 . S
C1629 C1630 1.438 . S
C1629 C1634 1.429 . S
C1630 C1629 1.438 . S
C1630 C1631 1.428 . S
C1630 C1643 1.394 . S
C1631 H1623 0.949 . S
C1631 C1630 1.428 . S
C1631 C1632 1.345 . S
C1632 H1624 0.950 . S
C1632 C1631 1.345 . S
C1632 C1633 1.424 . S
C1633 H1625 0.951 . S
C1633 C1632 1.424 . S
C1633 C1634 1.347 . S
C1634 H1626 0.951 . S
C1634 C1629 1.429 . S
C1634 C1633 1.347 . S
H1635 C1636 0.951 . S
C1636 H1635 0.951 . S
C1636 C1642 1.265 . S
H1637 C1642 0.950 . S
H1638 C1646 0.949 . S
H1639 C1647 0.950 . S
H1640 C1648 0.951 . S
H1641 C1649 0.951 . S
C1642 C1636 1.265 . S
C1642 H1637 0.950 . S
C1642 C1643 1.478 . S
C1643 C1630 1.394 . S
C1643 C1642 1.478 . S
C1643 C1644 1.397 . S
C1644 C1643 1.397 . S
C1644 C1645 1.438 . S
C1644 C1649 1.429 . S
C1645 C1628 1.394 . S
C1645 C1644 1.438 . S
C1645 C1646 1.428 . S
C1646 H1638 0.949 . S
C1646 C1645 1.428 . S
C1646 C1647 1.345 . S
C1647 H1639 0.950 . S
C1647 C1646 1.345 . S
C1647 C1648 1.424 . S
C1648 H1640 0.951 . S
C1648 C1647 1.424 . S
C1648 C1649 1.347 . S
C1649 H1641 0.951 . S
C1649 C1644 1.429 . S
C1649 C1648 1.347 . S
H1650 C1651 0.951 . S
C1651 H1650 0.951 . S
C1651 C1657 1.265 . S
H1652 C1657 0.950 . S
H1653 C1661 0.949 . S
H1654 C1662 0.950 . S
H1655 C1663 0.951 . S
H1656 C1664 0.951 . S
C1657 C1651 1.265 . S
C1657 H1652 0.950 . S
C1657 C1658 1.478 . S
C1658 C1657 1.478 . S
C1658 C1659 1.397 . S
C1658 C1675 1.394 . S
C1659 C1658 1.397 . S
C1659 C1660 1.438 . S
C1659 C1664 1.429 . S
C1660 C1659 1.438 . S
C1660 C1661 1.428 . S
C1660 C1673 1.394 . S
C1661 H1653 0.949 . S
C1661 C1660 1.428 . S
C1661 C1662 1.345 . S
C1662 H1654 0.950 . S
C1662 C1661 1.345 . S
C1662 C1663 1.424 . S
C1663 H1655 0.951 . S
C1663 C1662 1.424 . S
C1663 C1664 1.347 . S
C1664 H1656 0.951 . S
C1664 C1659 1.429 . S
C1664 C1663 1.347 . S
H1665 C1666 0.951 . S
C1666 H1665 0.951 . S
C1666 C1672 1.265 . S
H1667 C1672 0.950 . S
H1668 C1676 0.949 . S
H1669 C1677 0.950 . S
H1670 C1678 0.951 . S
H1671 C1679 0.951 . S
C1672 C1666 1.265 . S
C1672 H1667 0.950 . S
C1672 C1673 1.478 . S
C1673 C1660 1.394 . S
C1673 C1672 1.478 . S
C1673 C1674 1.397 . S
C1674 C1673 1.397 . S
C1674 C1675 1.438 . S
C1674 C1679 1.429 . S
C1675 C1658 1.394 . S
C1675 C1674 1.438 . S
C1675 C1676 1.428 . S
C1676 H1668 0.949 . S
C1676 C1675 1.428 . S
C1676 C1677 1.345 . S
C1677 H1669 0.950 . S
C1677 C1676 1.345 . S
C1677 C1678 1.424 . S
C1678 H1670 0.951 . S
C1678 C1677 1.424 . S
C1678 C1679 1.347 . S
C1679 H1671 0.951 . S
C1679 C1674 1.429 . S
C1679 C1678 1.347 . S
H1680 C1681 0.951 . S
C1681 H1680 0.951 . S
C1681 C1687 1.265 . S
H1682 C1687 0.950 . S
H1683 C1691 0.949 . S
H1684 C1692 0.950 . S
H1685 C1693 0.951 . S
H1686 C1694 0.951 . S
C1687 C1681 1.265 . S
C1687 H1682 0.950 . S
C1687 C1688 1.478 . S
C1688 C1687 1.478 . S
C1688 C1689 1.397 . S
C1688 C1705 1.394 . S
C1689 C1688 1.397 . S
C1689 C1690 1.438 . S
C1689 C1694 1.429 . S
C1690 C1689 1.438 . S
C1690 C1691 1.428 . S
C1690 C1703 1.394 . S
C1691 H1683 0.949 . S
C1691 C1690 1.428 . S
C1691 C1692 1.345 . S
C1692 H1684 0.950 . S
C1692 C1691 1.345 . S
C1692 C1693 1.424 . S
C1693 H1685 0.951 . S
C1693 C1692 1.424 . S
C1693 C1694 1.347 . S
C1694 H1686 0.951 . S
C1694 C1689 1.429 . S
C1694 C1693 1.347 . S
H1695 C1696 0.951 . S
C1696 H1695 0.951 . S
C1696 C1702 1.265 . S
H1697 C1702 0.950 . S
H1698 C1706 0.949 . S
H1699 C1707 0.950 . S
H1700 C1708 0.951 . S
H1701 C1709 0.951 . S
C1702 C1696 1.265 . S
C1702 H1697 0.950 . S
C1702 C1703 1.478 . S
C1703 C1690 1.394 . S
C1703 C1702 1.478 . S
C1703 C1704 1.397 . S
C1704 C1703 1.397 . S
C1704 C1705 1.438 . S
C1704 C1709 1.429 . S
C1705 C1688 1.394 . S
C1705 C1704 1.438 . S
C1705 C1706 1.428 . S
C1706 H1698 0.949 . S
C1706 C1705 1.428 . S
C1706 C1707 1.345 . S
C1707 H1699 0.950 . S
C1707 C1706 1.345 . S
C1707 C1708 1.424 . S
C1708 H1700 0.951 . S
C1708 C1707 1.424 . S
C1708 C1709 1.347 . S
C1709 H1701 0.951 . S
C1709 C1704 1.429 . S
C1709 C1708 1.347 . S
H1710 C1711 0.951 . S
C1711 H1710 0.951 . S
C1711 C1717 1.265 . S
H1712 C1717 0.950 . S
H1713 C1721 0.949 . S
H1714 C1722 0.950 . S
H1715 C1723 0.951 . S
H1716 C1724 0.951 . S
C1717 C1711 1.265 . S
C1717 H1712 0.950 . S
C1717 C1718 1.478 . S
C1718 C1717 1.478 . S
C1718 C1719 1.397 . S
C1718 C1735 1.394 . S
C1719 C1718 1.397 . S
C1719 C1720 1.438 . S
C1719 C1724 1.429 . S
C1720 C1719 1.438 . S
C1720 C1721 1.428 . S
C1720 C1733 1.394 . S
C1721 H1713 0.949 . S
C1721 C1720 1.428 . S
C1721 C1722 1.345 . S
C1722 H1714 0.950 . S
C1722 C1721 1.345 . S
C1722 C1723 1.424 . S
C1723 H1715 0.951 . S
C1723 C1722 1.424 . S
C1723 C1724 1.347 . S
C1724 H1716 0.951 . S
C1724 C1719 1.429 . S
C1724 C1723 1.347 . S
H1725 C1726 0.951 . S
C1726 H1725 0.951 . S
C1726 C1732 1.265 . S
H1727 C1732 0.950 . S
H1728 C1736 0.949 . S
H1729 C1737 0.950 . S
H1730 C1738 0.951 . S
H1731 C1739 0.951 . S
C1732 C1726 1.265 . S
C1732 H1727 0.950 . S
C1732 C1733 1.478 . S
C1733 C1720 1.394 . S
C1733 C1732 1.478 . S
C1733 C1734 1.397 . S
C1734 C1733 1.397 . S
C1734 C1735 1.438 . S
C1734 C1739 1.429 . S
C1735 C1718 1.394 . S
C1735 C1734 1.438 . S
C1735 C1736 1.428 . S
C1736 H1728 0.949 . S
C1736 C1735 1.428 . S
C1736 C1737 1.345 . S
C1737 H1729 0.950 . S
C1737 C1736 1.345 . S
C1737 C1738 1.424 . S
C1738 H1730 0.951 . S
C1738 C1737 1.424 . S
C1738 C1739 1.347 . S
C1739 H1731 0.951 . S
C1739 C1734 1.429 . S
C1739 C1738 1.347 . S
H1740 C1741 0.951 . S
C1741 H1740 0.951 . S
C1741 C1747 1.265 . S
H1742 C1747 0.950 . S
H1743 C1751 0.949 . S
H1744 C1752 0.950 . S
H1745 C1753 0.951 . S
H1746 C1754 0.951 . S
C1747 C1741 1.265 . S
C1747 H1742 0.950 . S
C1747 C1748 1.478 . S
C1748 C1747 1.478 . S
C1748 C1749 1.397 . S
C1748 C1765 1.394 . S
C1749 C1748 1.397 . S
C1749 C1750 1.438 . S
C1749 C1754 1.429 . S
C1750 C1749 1.438 . S
C1750 C1751 1.428 . S
C1750 C1763 1.394 . S
C1751 H1743 0.949 . S
C1751 C1750 1.428 . S
C1751 C1752 1.345 . S
C1752 H1744 0.950 . S
C1752 C1751 1.345 . S
C1752 C1753 1.424 . S
C1753 H1745 0.951 . S
C1753 C1752 1.424 . S
C1753 C1754 1.347 . S
C1754 H1746 0.951 . S
C1754 C1749 1.429 . S
C1754 C1753 1.347 . S
H1755 C1756 0.951 . S
C1756 H1755 0.951 . S
C1756 C1762 1.265 . S
H1757 C1762 0.950 . S
H1758 C1766 0.949 . S
H1759 C1767 0.950 . S
H1760 C1768 0.951 . S
H1761 C1769 0.951 . S
C1762 C1756 1.265 . S
C1762 H1757 0.950 . S
C1762 C1763 1.478 . S
C1763 C1750 1.394 . S
C1763 C1762 1.478 . S
C1763 C1764 1.397 . S
C1764 C1763 1.397 . S
C1764 C1765 1.438 . S
C1764 C1769 1.429 . S
C1765 C1748 1.394 . S
C1765 C1764 1.438 . S
C1765 C1766 1.428 . S
C1766 H1758 0.949 . S
C1766 C1765 1.428 . S
C1766 C1767 1.345 . S
C1767 H1759 0.950 . S
C1767 C1766 1.345 . S
C1767 C1768 1.424 . S
C1768 H1760 0.951 . S
C1768 C1767 1.424 . S
C1768 C1769 1.347 . S
C1769 H1761 0.951 . S
C1769 C1764 1.429 . S
C1769 C1768 1.347 . S
H1770 C1771 0.951 . S
C1771 H1770 0.951 . S
C1771 C1777 1.265 . S
H1772 C1777 0.950 . S
H1773 C1781 0.949 . S
H1774 C1782 0.950 . S
H1775 C1783 0.951 . S
H1776 C1784 0.951 . S
C1777 C1771 1.265 . S
C1777 H1772 0.950 . S
C1777 C1778 1.478 . S
C1778 C1777 1.478 . S
C1778 C1779 1.397 . S
C1778 C1795 1.394 . S
C1779 C1778 1.397 . S
C1779 C1780 1.438 . S
C1779 C1784 1.429 . S
C1780 C1779 1.438 . S
C1780 C1781 1.428 . S
C1780 C1793 1.394 . S
C1781 H1773 0.949 . S
C1781 C1780 1.428 . S
C1781 C1782 1.345 . S
C1782 H1774 0.950 . S
C1782 C1781 1.345 . S
C1782 C1783 1.424 . S
C1783 H1775 0.951 . S
C1783 C1782 1.424 . S
C1783 C1784 1.347 . S
C1784 H1776 0.951 . S
C1784 C1779 1.429 . S
C1784 C1783 1.347 . S
H1785 C1786 0.951 . S
C1786 H1785 0.951 . S
C1786 C1792 1.265 . S
H1787 C1792 0.950 . S
H1788 C1796 0.949 . S
H1789 C1797 0.950 . S
H1790 C1798 0.951 . S
H1791 C1799 0.951 . S
C1792 C1786 1.265 . S
C1792 H1787 0.950 . S
C1792 C1793 1.478 . S
C1793 C1780 1.394 . S
C1793 C1792 1.478 . S
C1793 C1794 1.397 . S
C1794 C1793 1.397 . S
C1794 C1795 1.438 . S
C1794 C1799 1.429 . S
C1795 C1778 1.394 . S
C1795 C1794 1.438 . S
C1795 C1796 1.428 . S
C1796 H1788 0.949 . S
C1796 C1795 1.428 . S
C1796 C1797 1.345 . S
C1797 H1789 0.950 . S
C1797 C1796 1.345 . S
C1797 C1798 1.424 . S
C1798 H1790 0.951 . S
C1798 C1797 1.424 . S
C1798 C1799 1.347 . S
C1799 H1791 0.951 . S
C1799 C1794 1.429 . S
C1799 C1798 1.347 . S
H1800 C1801 0.951 . S
C1801 H1800 0.951 . S
C1801 C1807 1.265 . S
H1802 C1807 0.950 . S
H1803 C1811 0.949 . S
H1804 C1812 0.950 . S
H1805 C1813 0.951 . S
H1806 C1814 0.951 . S
C1807 C1801 1.265 . S
C1807 H1802 0.950 . S
C1807 C1808 1.478 . S
C1808 C1807 1.478 . S
C1808 C1809 1.397 . S
C1808 C1825 1.394 . S
C1809 C1808 1.397 . S
C1809 C1810 1.438 . S
C1809 C1814 1.429 . S
C1810 C1809 1.438 . S
C1810 C1811 1.428 . S
C1810 C1823 1.394 . S
C1811 H1803 0.949 . S
C1811 C1810 1.428 . S
C1811 C1812 1.345 . S
C1812 H1804 0.950 . S
C1812 C1811 1.345 . S
C1812 C1813 1.424 . S
C1813 H1805 0.951 . S
C1813 C1812 1.424 . S
C1813 C1814 1.347 . S
C1814 H1806 0.951 . S
C1814 C1809 1.429 . S
C1814 C1813 1.347 . S
H1815 C1816 0.951 . S
C1816 H1815 0.951 . S
C1816 C1822 1.265 . S
H1817 C1822 0.950 . S
H1818 C1826 0.949 . S
H1819 C1827 0.950 . S
H1820 C1828 0.951 . S
H1821 C1829 0.951 . S
C1822 C1816 1.265 . S
C1822 H1817 0.950 . S
C1822 C1823 1.478 . S
C1823 C1810 1.394 . S
C1823 C1822 1.478 . S
C1823 C1824 1.397 . S
C1824 C1823 1.397 . S
C1824 C1825 1.438 . S
C1824 C1829 1.429 . S
C1825 C1808 1.394 . S
C1825 C1824 1.438 . S
C1825 C1826 1.428 . S
C1826 H1818 0.949 . S
C1826 C1825 1.428 . S
C1826 C1827 1.345 . S
C1827 H1819 0.950 . S
C1827 C1826 1.345 . S
C1827 C1828 1.424 . S
C1828 H1820 0.951 . S
C1828 C1827 1.424 . S
C1828 C1829 1.347 . S
C1829 H1821 0.951 . S
C1829 C1824 1.429 . S
C1829 C1828 1.347 . S
H1830 C1831 0.951 . S
C1831 H1830 0.951 . S
C1831 C1837 1.265 . S
H1832 C1837 0.950 . S
H1833 C1841 0.949 . S
H1834 C1842 0.950 . S
H1835 C1843 0.951 . S
H1836 C1844 0.951 . S
C1837 C1831 1.265 . S
C1837 H1832 0.950 . S
C1837 C1838 1.478 . S
C1838 C1837 1.478 . S
C1838 C1839 1.397 . S
C1838 C1855 1.394 . S
C1839 C1838 1.397 . S
C1839 C1840 1.438 . S
C1839 C1844 1.429 . S
C1840 C1839 1.438 . S
C1840 C1841 1.428 . S
C1840 C1853 1.394 . S
C1841 H1833 0.949 . S
C1841 C1840 1.428 . S
C1841 C1842 1.345 . S
C1842 H1834 0.950 . S
C1842 C1841 1.345 . S
C1842 C1843 1.424 . S
C1843 H1835 0.951 . S
C1843 C1842 1.424 . S
C1843 C1844 1.347 . S
C1844 H1836 0.951 . S
C1844 C1839 1.429 . S
C1844 C1843 1.347 . S
H1845 C1846 0.951 . S
C1846 H1845 0.951 . S
C1846 C1852 1.265 . S
H1847 C1852 0.950 . S
H1848 C1856 0.949 . S
H1849 C1857 0.950 . S
H1850 C1858 0.951 . S
H1851 C1859 0.951 . S
C1852 C1846 1.265 . S
C1852 H1847 0.950 . S
C1852 C1853 1.478 . S
C1853 C1840 1.394 . S
C1853 C1852 1.478 . S
C1853 C1854 1.397 . S
C1854 C1853 1.397 . S
C1854 C1855 1.438 . S
C1854 C1859 1.429 . S
C1855 C1838 1.394 . S
C1855 C1854 1.438 . S
C1855 C1856 1.428 . S
C1856 H1848 0.949 . S
C1856 C1855 1.428 . S
C1856 C1857 1.345 . S
C1857 H1849 0.950 . S
C1857 C1856 1.345 . S
C1857 C1858 1.424 . S
C1858 H1850 0.951 . S
C1858 C1857 1.424 . S
C1858 C1859 1.347 . S
C1859 H1851 0.951 . S
C1859 C1854 1.429 . S
C1859 C1858 1.347 . S
H1860 C1861 0.951 . S
C1861 H1860 0.951 . S
C1861 C1867 1.265 . S
H1862 C1867 0.950 . S
H1863 C1871 0.949 . S
H1864 C1872 0.950 . S
H1865 C1873 0.951 . S
H1866 C1874 0.951 . S
C1867 C1861 1.265 . S
C1867 H1862 0.950 . S
C1867 C1868 1.478 . S
C1868 C1867 1.478 . S
C1868 C1869 1.397 . S
C1868 C1885 1.394 . S
C1869 C1868 1.397 . S
C1869 C1870 1.438 . S
C1869 C1874 1.429 . S
C1870 C1869 1.438 . S
C1870 C1871 1.428 . S
C1870 C1883 1.394 . S
C1871 H1863 0.949 . S
C1871 C1870 1.428 . S
C1871 C1872 1.345 . S
C1872 H1864 0.950 . S
C1872 C1871 1.345 . S
C1872 C1873 1.424 . S
C1873 H1865 0.951 . S
C1873 C1872 1.424 . S
C1873 C1874 1.347 . S
C1874 H1866 0.951 . S
C1874 C1869 1.429 . S
C1874 C1873 1.347 . S
H1875 C1876 0.951 . S
C1876 H1875 0.951 . S
C1876 C1882 1.265 . S
H1877 C1882 0.950 . S
H1878 C1886 0.949 . S
H1879 C1887 0.950 . S
H1880 C1888 0.951 . S
H1881 C1889 0.951 . S
C1882 C1876 1.265 . S
C1882 H1877 0.950 . S
C1882 C1883 1.478 . S
C1883 C1870 1.394 . S
C1883 C1882 1.478 . S
C1883 C1884 1.397 . S
C1884 C1883 1.397 . S
C1884 C1885 1.438 . S
C1884 C1889 1.429 . S
C1885 C1868 1.394 . S
C1885 C1884 1.438 . S
C1885 C1886 1.428 . S
C1886 H1878 0.949 . S
C1886 C1885 1.428 . S
C1886 C1887 1.345 . S
C1887 H1879 0.950 . S
C1887 C1886 1.345 . S
C1887 C1888 1.424 . S
C1888 H1880 0.951 . S
C1888 C1887 1.424 . S
C1888 C1889 1.347 . S
C1889 H1881 0.951 . S
C1889 C1884 1.429 . S
C1889 C1888 1.347 . S
H1890 C1891 0.951 . S
C1891 H1890 0.951 . S
C1891 C1897 1.265 . S
H1892 C1897 0.950 . S
H1893 C1901 0.949 . S
H1894 C1902 0.950 . S
H1895 C1903 0.951 . S
H1896 C1904 0.951 . S
C1897 C1891 1.265 . S
C1897 H1892 0.950 . S
C1897 C1898 1.478 . S
C1898 C1897 1.478 . S
C1898 C1899 1.397 . S
C1898 C1915 1.394 . S
C1899 C1898 1.397 . S
C1899 C1900 1.438 . S
C1899 C1904 1.429 . S
C1900 C1899 1.438 . S
C1900 C1901 1.428 . S
C1900 C1913 1.394 . S
C1901 H1893 0.949 . S
C1901 C1900 1.428 . S
C1901 C1902 1.345 . S
C1902 H1894 0.950 . S
C1902 C1901 1.345 . S
C1902 C1903 1.424 . S
C1903 H1895 0.951 . S
C1903 C1902 1.424 . S
C1903 C1904 1.347 . S
C1904 H1896 0.951 . S
C1904 C1899 1.429 . S
C1904 C1903 1.347 . S
H1905 C1906 0.951 . S
C1906 H1905 0.951 . S
C1906 C1912 1.265 . S
H1907 C1912 0.950 . S
H1908 C1916 0.949 . S
H1909 C1917 0.950 . S
H1910 C1918 0.951 . S
H1911 C1919 0.951 . S
C1912 C1906 1.265 . S
C1912 H1907 0.950 . S
C1912 C1913 1.478 . S
C1913 C1900 1.394 . S
C1913 C1912 1.478 . S
C1913 C1914 1.397 . S
C1914 C1913 1.397 . S
C1914 C1915 1.438 . S
C1914 C1919 1.429 . S
C1915 C1898 1.394 . S
C1915 C1914 1.438 . S
C1915 C1916 1.428 . S
C1916 H1908 0.949 . S
C1916 C1915 1.428 . S
C1916 C1917 1.345 . S
C1917 H1909 0.950 . S
C1917 C1916 1.345 . S
C1917 C1918 1.424 . S
C1918 H1910 0.951 . S
C1918 C1917 1.424 . S
C1918 C1919 1.347 . S
C1919 H1911 0.951 . S
C1919 C1914 1.429 . S
C1919 C1918 1.347 . S
H1920 C1921 0.951 . S
C1921 H1920 0.951 . S
C1921 C1927 1.265 . S
H1922 C1927 0.950 . S
H1923 C1931 0.949 . S
H1924 C1932 0.950 . S
H1925 C1933 0.951 . S
H1926 C1934 0.951 . S
C1927 C1921 1.265 . S
C1927 H1922 0.950 . S
C1927 C1928 1.478 . S
C1928 C1927 1.478 . S
C1928 C1929 1.397 . S
C1928 C1945 1.394 . S
C1929 C1928 1.397 . S
C1929 C1930 1.438 . S
C1929 C1934 1.429 . S
C1930 C1929 1.438 . S
C1930 C1931 1.428 . S
C1930 C1943 1.394 . S
C1931 H1923 0.949 . S
C1931 C1930 1.428 . S
C1931 C1932 1.345 . S
C1932 H1924 0.950 . S
C1932 C1931 1.345 . S
C1932 C1933 1.424 . S
C1933 H1925 0.951 . S
C1933 C1932 1.424 . S
C1933 C1934 1.347 . S
C1934 H1926 0.951 . S
C1934 C1929 1.429 . S
C1934 C1933 1.347 . S
H1935 C1936 0.951 . S
C1936 H1935 0.951 . S
C1936 C1942 1.265 . S
H1937 C1942 0.950 . S
H1938 C1946 0.949 . S
H1939 C1947 0.950 . S
H1940 C1948 0.951 . S
H1941 C1949 0.951 . S
C1942 C1936 1.265 . S
C1942 H1937 0.950 . S
C1942 C1943 1.478 . S
C1943 C1930 1.394 . S
C1943 C1942 1.478 . S
C1943 C1944 1.397 . S
C1944 C1943 1.397 . S
C1944 C1945 1.438 . S
C1944 C1949 1.429 . S
C1945 C1928 1.394 . S
C1945 C1944 1.438 . S
C1945 C1946 1.428 . S
C1946 H1938 0.949 . S
C1946 C1945 1.428 . S
C1946 C1947 1.345 . S
C1947 H1939 0.950 . S
C1947 C1946 1.345 . S
C1947 C1948 1.424 . S
C1948 H1940 0.951 . S
C1948 C1947 1.424 . S
C1948 C1949 1.347 . S
C1949 H1941 0.951 . S
C1949 C1944 1.429 . S
C1949 C1948 1.347 . S
H1950 C1951 0.951 . S
C1951 H1950 0.951 . S
C1951 C1957 1.265 . S
H1952 C1957 0.950 . S
H1953 C1961 0.949 . S
H1954 C1962 0.950 . S
H1955 C1963 0.951 . S
H1956 C1964 0.951 . S
C1957 C1951 1.265 . S
C1957 H1952 0.950 . S
C1957 C1958 1.478 . S
C1958 C1957 1.478 . S
C1958 C1959 1.397 . S
C1958 C1975 1.394 . S
C1959 C1958 1.397 . S
C1959 C1960 1.438 . S
C1959 C1964 1.429 . S
C1960 C1959 1.438 . S
C1960 C1961 1.428 . S
C1960 C1973 1.394 . S
C1961 H1953 0.949 . S
C1961 C1960 1.428 . S
C1961 C1962 1.345 . S
C1962 H1954 0.950 . S
C1962 C1961 1.345 . S
C1962 C1963 1.424 . S
C1963 H1955 0.951 . S
C1963 C1962 1.424 . S
C1963 C1964 1.347 . S
C1964 H1956 0.951 . S
C1964 C1959 1.429 . S
C1964 C1963 1.347 . S
H1965 C1966 0.951 . S
C1966 H1965 0.951 . S
C1966 C1972 1.265 . S
H1967 C1972 0.950 . S
H1968 C1976 0.949 . S
H1969 C1977 0.950 . S
H1970 C1978 0.951 . S
H1971 C1979 0.951 . S
C1972 C1966 1.265 . S
C1972 H1967 0.950 . S
C1972 C1973 1.478 . S
C1973 C1960 1.394 . S
C1973 C1972 1.478 . S
C1973 C1974 1.397 . S
C1974 C1973 1.397 . S
C1974 C1975 1.438 . S
C1974 C1979 1.429 . S
C1975 C1958 1.394 . S
C1975 C1974 1.438 . S
C1975 C1976 1.428 . S
C1976 H1968 0.949 . S
C1976 C1975 1.428 . S
C1976 C1977 1.345 . S
C1977 H1969 0.950 . S
C1977 C1976 1.345 . S
C1977 C1978 1.424 . S
C1978 H1970 0.951 . S
C1978 C1977 1.424 . S
C1978 C1979 1.347 . S
C1979 H1971 0.951 . S
C1979 C1974 1.429 . S
C1979 C1978 1.347 . S
H1980 C1981 0.951 . S
C1981 H1980 0.951 . S
C1981 C1987 1.265 . S
H1982 C1987 0.950 . S
H1983 C1991 0.949 . S
H1984 C1992 0.950 . S
H1985 C1993 0.951 . S
H1986 C1994 0.951 . S
C1987 C1981 1.265 . S
C1987 H1982 0.950 . S
C1987 C1988 1.478 . S
C1988 C1987 1.478 . S
C1988 C1989 1.397 . S
C1988 C2005 1.394 . S
C1989 C1988 1.397 . S
C1989 C1990 1.438 . S
C1989 C1994 1.429 . S
C1990 C1989 1.438 . S
C1990 C1991 1.428 . S
C1990 C2003 1.394 . S
C1991 H1983 0.949 . S
C1991 C1990 1.428 . S
C1991 C1992 1.345 . S
C1992 H1984 0.950 . S
C1992 C1991 1.345 . S
C1992 C1993 1.424 . S
C1993 H1985 0.951 . S
C1993 C1992 1.424 . S
C1993 C1994 1.347 . S
C1994 H1986 0.951 . S
C1994 C1989 1.429 . S
C1994 C1993 1.347 . S
H1995 C1996 0.951 . S
C1996 H1995 0.951 . S
C1996 C2002 1.265 . S
H1997 C2002 0.950 . S
H1998 C2006 0.949 . S
H1999 C2007 0.950 . S
H2000 C2008 0.951 . S
H2001 C2009 0.951 . S
C2002 C1996 1.265 . S
C2002 H1997 0.950 . S
C2002 C2003 1.478 . S
C2003 C1990 1.394 . S
C2003 C2002 1.478 . S
C2003 C2004 1.397 . S
C2004 C2003 1.397 . S
C2004 C2005 1.438 . S
C2004 C2009 1.429 . S
C2005 C1988 1.394 . S
C2005 C2004 1.438 . S
C2005 C2006 1.428 . S
C2006 H1998 0.949 . S
C2006 C2005 1.428 . S
C2006 C2007 1.345 . S
C2007 H1999 0.950 . S
C2007 C2006 1.345 . S
C2007 C2008 1.424 . S
C2008 H2000 0.951 . S
C2008 C2007 1.424 . S
C2008 C2009 1.347 . S
C2009 H2001 0.951 . S
C2009 C2004 1.429 . S
C2009 C2008 1.347 . S
H2010 C2011 0.951 . S
C2011 H2010 0.951 . S
C2011 C2017 1.265 . S
H2012 C2017 0.950 . S
H2013 C2021 0.949 . S
H2014 C2022 0.950 . S
H2015 C2023 0.951 . S
H2016 C2024 0.951 . S
C2017 C2011 1.265 . S
C2017 H2012 0.950 . S
C2017 C2018 1.478 . S
C2018 C2017 1.478 . S
C2018 C2019 1.397 . S
C2018 C2035 1.394 . S
C2019 C2018 1.397 . S
C2019 C2020 1.438 . S
C2019 C2024 1.429 . S
C2020 C2019 1.438 . S
C2020 C2021 1.428 . S
C2020 C2033 1.394 . S
C2021 H2013 0.949 . S
C2021 C2020 1.428 . S
C2021 C2022 1.345 . S
C2022 H2014 0.950 . S
C2022 C2021 1.345 . S
C2022 C2023 1.424 . S
C2023 H2015 0.951 . S
C2023 C2022 1.424 . S
C2023 C2024 1.347 . S
C2024 H2016 0.951 . S
C2024 C2019 1.429 . S
C2024 C2023 1.347 . S
H2025 C2026 0.951 . S
C2026 H2025 0.951 . S
C2026 C2032 1.265 . S
H2027 C2032 0.950 . S
H2028 C2036 0.949 . S
H2029 C2037 0.950 . S
H2030 C2038 0.951 . S
H2031 C2039 0.951 . S
C2032 C2026 1.265 . S
C2032 H2027 0.950 . S
C2032 C2033 1.478 . S
C2033 C2020 1.394 . S
C2033 C2032 1.478 . S
C2033 C2034 1.397 . S
C2034 C2033 1.397 . S
C2034 C2035 1.438 . S
C2034 C2039 1.429 . S
C2035 C2018 1.394 . S
C2035 C2034 1.438 . S
C2035 C2036 1.428 . S
C2036 H2028 0.949 . S
C2036 C2035 1.428 . S
C2036 C2037 1.345 . S
C2037 H2029 0.950 . S
C2037 C2036 1.345 . S
C2037 C2038 1.424 . S
C2038 H2030 0.951 . S
C2038 C2037 1.424 . S
C2038 C2039 1.347 . S
C2039 H2031 0.951 . S
C2039 C2034 1.429 . S
C2039 C2038 1.347 . S
H2040 C2041 0.951 . S
C2041 H2040 0.951 . S
C2041 C2047 1.265 . S
H2042 C2047 0.950 . S
H2043 C2051 0.949 . S
H2044 C2052 0.950 . S
H2045 C2053 0.951 . S
H2046 C2054 0.951 . S
C2047 C2041 1.265 . S
C2047 H2042 0.950 . S
C2047 C2048 1.478 . S
C2048 C2047 1.478 . S
C2048 C2049 1.397 . S
C2048 C2065 1.394 . S
C2049 C2048 1.397 . S
C2049 C2050 1.438 . S
C2049 C2054 1.429 . S
C2050 C2049 1.438 . S
C2050 C2051 1.428 . S
C2050 C2063 1.394 . S
C2051 H2043 0.949 . S
C2051 C2050 1.428 . S
C2051 C2052 1.345 . S
C2052 H2044 0.950 . S
C2052 C2051 1.345 . S
C2052 C2053 1.424 . S
C2053 H2045 0.951 . S
C2053 C2052 1.424 . S
C2053 C2054 1.347 . S
C2054 H2046 0.951 . S
C2054 C2049 1.429 . S
C2054 C2053 1.347 . S
H2055 C2056 0.951 . S
C2056 H2055 0.951 . S
C2056 C2062 1.265 . S
H2057 C2062 0.950 . S
H2058 C2066 0.949 . S
H2059 C2067 0.950 . S
H2060 C2068 0.951 . S
H2061 C2069 0.951 . S
C2062 C2056 1.265 . S
C2062 H2057 0.950 . S
C2062 C2063 1.478 . S
C2063 C2050 1.394 . S
C2063 C2062 1.478 . S
C2063 C2064 1.397 . S
C2064 C2063 1.397 . S
C2064 C2065 1.438 . S
C2064 C2069 1.429 . S
C2065 C2048 1.394 . S
C2065 C2064 1.438 . S
C2065 C2066 1.428 . S
C2066 H2058 0.949 . S
C2066 C2065 1.428 . S
C2066 C2067 1.345 . S
C2067 H2059 0.950 . S
C2067 C2066 1.345 . S
C2067 C2068 1.424 . S
C2068 H2060 0.951 . S
C2068 C2067 1.424 . S
C2068 C2069 1.347 . S
C2069 H2061 0.951 . S
C2069 C2064 1.429 . S
C2069 C2068 1.347 . S
H2070 C2071 0.951 . S
C2071 H2070 0.951 . S
C2071 C2077 1.265 . S
H2072 C2077 0.950 . S
H2073 C2081 0.949 . S
H2074 C2082 0.950 . S
H2075 C2083 0.951 . S
H2076 C2084 0.951 . S
C2077 C2071 1.265 . S
C2077 H2072 0.950 . S
C2077 C2078 1.478 . S
C2078 C2077 1.478 . S
C2078 C2079 1.397 . S
C2078 C2095 1.394 . S
C2079 C2078 1.397 . S
C2079 C2080 1.438 . S
C2079 C2084 1.429 . S
C2080 C2079 1.438 . S
C2080 C2081 1.428 . S
C2080 C2093 1.394 . S
C2081 H2073 0.949 . S
C2081 C2080 1.428 . S
C2081 C2082 1.345 . S
C2082 H2074 0.950 . S
C2082 C2081 1.345 . S
C2082 C2083 1.424 . S
C2083 H2075 0.951 . S
C2083 C2082 1.424 . S
C2083 C2084 1.347 . S
C2084 H2076 0.951 . S
C2084 C2079 1.429 . S
C2084 C2083 1.347 . S
H2085 C2086 0.951 . S
C2086 H2085 0.951 . S
C2086 C2092 1.265 . S
H2087 C2092 0.950 . S
H2088 C2096 0.949 . S
H2089 C2097 0.950 . S
H2090 C2098 0.951 . S
H2091 C2099 0.951 . S
C2092 C2086 1.265 . S
C2092 H2087 0.950 . S
C2092 C2093 1.478 . S
C2093 C2080 1.394 . S
C2093 C2092 1.478 . S
C2093 C2094 1.397 . S
C2094 C2093 1.397 . S
C2094 C2095 1.438 . S
C2094 C2099 1.429 . S
C2095 C2078 1.394 . S
C2095 C2094 1.438 . S
C2095 C2096 1.428 . S
C2096 H2088 0.949 . S
C2096 C2095 1.428 . S
C2096 C2097 1.345 . S
C2097 H2089 0.950 . S
C2097 C2096 1.345 . S
C2097 C2098 1.424 . S
C2098 H2090 0.951 . S
C2098 C2097 1.424 . S
C2098 C2099 1.347 . S
C2099 H2091 0.951 . S
C2099 C2094 1.429 . S
C2099 C2098 1.347 . S
H2100 C2101 0.951 . S
C2101 H2100 0.951 . S
C2101 C2107 1.265 . S
H2102 C2107 0.950 . S
H2103 C2111 0.949 . S
H2104 C2112 0.950 . S
H2105 C2113 0.951 . S
H2106 C2114 0.951 . S
C2107 C2101 1.265 . S
C2107 H2102 0.950 . S
C2107 C2108 1.478 . S
C2108 C2107 1.478 . S
C2108 C2109 1.397 . S
C2108 C2125 1.394 . S
C2109 C2108 1.397 . S
C2109 C2110 1.438 . S
C2109 C2114 1.429 . S
C2110 C2109 1.438 . S
C2110 C2111 1.428 . S
C2110 C2123 1.394 . S
C2111 H2103 0.949 . S
C2111 C2110 1.428 . S
C2111 C2112 1.345 . S
C2112 H2104 0.950 . S
C2112 C2111 1.345 . S
C2112 C2113 1.424 . S
C2113 H2105 0.951 . S
C2113 C2112 1.424 . S
C2113 C2114 1.347 . S
C2114 H2106 0.951 . S
C2114 C2109 1.429 . S
C2114 C2113 1.347 . S
H2115 C2116 0.951 . S
C2116 H2115 0.951 . S
C2116 C2122 1.265 . S
H2117 C2122 0.950 . S
H2118 C2126 0.949 . S
H2119 C2127 0.950 . S
H2120 C2128 0.951 . S
H2121 C2129 0.951 . S
C2122 C2116 1.265 . S
C2122 H2117 0.950 . S
C2122 C2123 1.478 . S
C2123 C2110 1.394 . S
C2123 C2122 1.478 . S
C2123 C2124 1.397 . S
C2124 C2123 1.397 . S
C2124 C2125 1.438 . S
C2124 C2129 1.429 . S
C2125 C2108 1.394 . S
C2125 C2124 1.438 . S
C2125 C2126 1.428 . S
C2126 H2118 0.949 . S
C2126 C2125 1.428 . S
C2126 C2127 1.345 . S
C2127 H2119 0.950 . S
C2127 C2126 1.345 . S
C2127 C2128 1.424 . S
C2128 H2120 0.951 . S
C2128 C2127 1.424 . S
C2128 C2129 1.347 . S
C2129 H2121 0.951 . S
C2129 C2124 1.429 . S
C2129 C2128 1.347 . S
H2130 C2131 0.951 . S
C2131 H2130 0.951 . S
C2131 C2137 1.265 . S
H2132 C2137 0.950 . S
H2133 C2141 0.949 . S
H2134 C2142 0.950 . S
H2135 C2143 0.951 . S
H2136 C2144 0.951 . S
C2137 C2131 1.265 . S
C2137 H2132 0.950 . S
C2137 C2138 1.478 . S
C2138 C2137 1.478 . S
C2138 C2139 1.397 . S
C2138 C2155 1.394 . S
C2139 C2138 1.397 . S
C2139 C2140 1.438 . S
C2139 C2144 1.429 . S
C2140 C2139 1.438 . S
C2140 C2141 1.428 . S
C2140 C2153 1.394 . S
C2141 H2133 0.949 . S
C2141 C2140 1.428 . S
C2141 C2142 1.345 . S
C2142 H2134 0.950 . S
C2142 C2141 1.345 . S
C2142 C2143 1.424 . S
C2143 H2135 0.951 . S
C2143 C2142 1.424 . S
C2143 C2144 1.347 . S
C2144 H2136 0.951 . S
C2144 C2139 1.429 . S
C2144 C2143 1.347 . S
H2145 C2146 0.951 . S
C2146 H2145 0.951 . S
C2146 C2152 1.265 . S
H2147 C2152 0.950 . S
H2148 C2156 0.949 . S
H2149 C2157 0.950 . S
H2150 C2158 0.951 . S
H2151 C2159 0.951 . S
C2152 C2146 1.265 . S
C2152 H2147 0.950 . S
C2152 C2153 1.478 . S
C2153 C2140 1.394 . S
C2153 C2152 1.478 . S
C2153 C2154 1.397 . S
C2154 C2153 1.397 . S
C2154 C2155 1.438 . S
C2154 C2159 1.429 . S
C2155 C2138 1.394 . S
C2155 C2154 1.438 . S
C2155 C2156 1.428 . S
C2156 H2148 0.949 . S
C2156 C2155 1.428 . S
C2156 C2157 1.345 . S
C2157 H2149 0.950 . S
C2157 C2156 1.345 . S
C2157 C2158 1.424 . S
C2158 H2150 0.951 . S
C2158 C2157 1.424 . S
C2158 C2159 1.347 . S
C2159 H2151 0.951 . S
C2159 C2154 1.429 . S
C2159 C2158 1.347 . S
H2160 C2161 0.951 . S
C2161 H2160 0.951 . S
C2161 C2167 1.265 . S
H2162 C2167 0.950 . S
H2163 C2171 0.949 . S
H2164 C2172 0.950 . S
H2165 C2173 0.951 . S
H2166 C2174 0.951 . S
C2167 C2161 1.265 . S
C2167 H2162 0.950 . S
C2167 C2168 1.478 . S
C2168 C2167 1.478 . S
C2168 C2169 1.397 . S
C2168 C2185 1.394 . S
C2169 C2168 1.397 . S
C2169 C2170 1.438 . S
C2169 C2174 1.429 . S
C2170 C2169 1.438 . S
C2170 C2171 1.428 . S
C2170 C2183 1.394 . S
C2171 H2163 0.949 . S
C2171 C2170 1.428 . S
C2171 C2172 1.345 . S
C2172 H2164 0.950 . S
C2172 C2171 1.345 . S
C2172 C2173 1.424 . S
C2173 H2165 0.951 . S
C2173 C2172 1.424 . S
C2173 C2174 1.347 . S
C2174 H2166 0.951 . S
C2174 C2169 1.429 . S
C2174 C2173 1.347 . S
H2175 C2176 0.951 . S
C2176 H2175 0.951 . S
C2176 C2182 1.265 . S
H2177 C2182 0.950 . S
H2178 C2186 0.949 . S
H2179 C2187 0.950 . S
H2180 C2188 0.951 . S
H2181 C2189 0.951 . S
C2182 C2176 1.265 . S
C2182 H2177 0.950 . S
C2182 C2183 1.478 . S
C2183 C2170 1.394 . S
C2183 C2182 1.478 . S
C2183 C2184 1.397 . S
C2184 C2183 1.397 . S
C2184 C2185 1.438 . S
C2184 C2189 1.429 . S
C2185 C2168 1.394 . S
C2185 C2184 1.438 . S
C2185 C2186 1.428 . S
C2186 H2178 0.949 . S
C2186 C2185 1.428 . S
C2186 C2187 1.345 . S
C2187 H2179 0.950 . S
C2187 C2186 1.345 . S
C2187 C2188 1.424 . S
C2188 H2180 0.951 . S
C2188 C2187 1.424 . S
C2188 C2189 1.347 . S
C2189 H2181 0.951 . S
C2189 C2184 1.429 . S
C2189 C2188 1.347 . S
H2190 C2191 0.951 . S
C2191 H2190 0.951 . S
C2191 C2197 1.265 . S
H2192 C2197 0.950 . S
H2193 C2201 0.949 . S
H2194 C2202 0.950 . S
H2195 C2203 0.951 . S
H2196 C2204 0.951 . S
C2197 C2191 1.265 . S
C2197 H2192 0.950 . S
C2197 C2198 1.478 . S
C2198 C2197 1.478 . S
C2198 C2199 1.397 . S
C2198 C2215 1.394 . S
C2199 C2198 1.397 . S
C2199 C2200 1.438 . S
C2199 C2204 1.429 . S
C2200 C2199 1.438 . S
C2200 C2201 1.428 . S
C2200 C2213 1.394 . S
C2201 H2193 0.949 . S
C2201 C2200 1.428 . S
C2201 C2202 1.345 . S
C2202 H2194 0.950 . S
C2202 C2201 1.345 . S
C2202 C2203 1.424 . S
C2203 H2195 0.951 . S
C2203 C2202 1.424 . S
C2203 C2204 1.347 . S
C2204 H2196 0.951 . S
C2204 C2199 1.429 . S
C2204 C2203 1.347 . S
H2205 C2206 0.951 . S
C2206 H2205 0.951 . S
C2206 C2212 1.265 . S
H2207 C2212 0.950 . S
H2208 C2216 0.949 . S
H2209 C2217 0.950 1_556 S
H2210 C2218 0.951 . S
H2211 C2219 0.951 . S
C2212 C2206 1.265 . S
C2212 H2207 0.950 . S
C2212 C2213 1.478 . S
C2213 C2200 1.394 . S
C2213 C2212 1.478 . S
C2213 C2214 1.397 . S
C2214 C2213 1.397 . S
C2214 C2215 1.438 . S
C2214 C2219 1.429 . S
C2215 C2198 1.394 . S
C2215 C2214 1.438 . S
C2215 C2216 1.428 . S
C2216 H2208 0.949 . S
C2216 C2215 1.428 . S
C2216 C2217 1.345 . S
C2217 H2209 0.950 1_554 S
C2217 C2216 1.345 . S
C2217 C2218 1.424 . S
C2218 H2210 0.951 . S
C2218 C2217 1.424 . S
C2218 C2219 1.347 . S
C2219 H2211 0.951 . S
C2219 C2214 1.429 . S
C2219 C2218 1.347 . S
H2220 C2221 0.951 . S
C2221 H2220 0.951 . S
C2221 C2227 1.265 . S
H2222 C2227 0.950 . S
H2223 C2231 0.949 . S
H2224 C2232 0.950 . S
H2225 C2233 0.951 . S
H2226 C2234 0.951 . S
C2227 C2221 1.265 . S
C2227 H2222 0.950 . S
C2227 C2228 1.478 . S
C2228 C2227 1.478 . S
C2228 C2229 1.397 . S
C2228 C2245 1.394 . S
C2229 C2228 1.397 . S
C2229 C2230 1.438 . S
C2229 C2234 1.429 . S
C2230 C2229 1.438 . S
C2230 C2231 1.428 . S
C2230 C2243 1.394 . S
C2231 H2223 0.949 . S
C2231 C2230 1.428 . S
C2231 C2232 1.345 . S
C2232 H2224 0.950 . S
C2232 C2231 1.345 . S
C2232 C2233 1.424 . S
C2233 H2225 0.951 . S
C2233 C2232 1.424 . S
C2233 C2234 1.347 . S
C2234 H2226 0.951 . S
C2234 C2229 1.429 . S
C2234 C2233 1.347 . S
H2235 C2236 0.951 . S
C2236 H2235 0.951 . S
C2236 C2242 1.265 . S
H2237 C2242 0.950 . S
H2238 C2246 0.949 . S
H2239 C2247 0.950 . S
H2240 C2248 0.951 . S
H2241 C2249 0.951 . S
C2242 C2236 1.265 . S
C2242 H2237 0.950 . S
C2242 C2243 1.478 . S
C2243 C2230 1.394 . S
C2243 C2242 1.478 . S
C2243 C2244 1.397 . S
C2244 C2243 1.397 . S
C2244 C2245 1.438 . S
C2244 C2249 1.429 . S
C2245 C2228 1.394 . S
C2245 C2244 1.438 . S
C2245 C2246 1.428 . S
C2246 H2238 0.949 . S
C2246 C2245 1.428 . S
C2246 C2247 1.345 . S
C2247 H2239 0.950 . S
C2247 C2246 1.345 . S
C2247 C2248 1.424 . S
C2248 H2240 0.951 . S
C2248 C2247 1.424 . S
C2248 C2249 1.347 . S
C2249 H2241 0.951 . S
C2249 C2244 1.429 . S
C2249 C2248 1.347 . S
H2250 C2251 0.951 . S
C2251 H2250 0.951 . S
C2251 C2257 1.265 . S
H2252 C2257 0.950 . S
H2253 C2261 0.949 . S
H2254 C2262 0.950 . S
H2255 C2263 0.951 1_554 S
H2256 C2264 0.956 . S
C2257 C2251 1.265 . S
C2257 H2252 0.950 . S
C2257 C2258 1.478 . S
C2258 C2257 1.478 . S
C2258 C2259 1.397 . S
C2258 C2275 1.394 . S
C2259 C2258 1.397 . S
C2259 C2260 1.438 . S
C2259 C2264 1.429 . S
C2260 C2259 1.438 . S
C2260 C2261 1.428 . S
C2260 C2273 1.394 . S
C2261 H2253 0.949 . S
C2261 C2260 1.428 . S
C2261 C2262 1.345 . S
C2262 H2254 0.950 . S
C2262 C2261 1.345 . S
C2262 C2263 1.424 . S
C2263 H2255 0.951 1_556 S
C2263 C2262 1.424 . S
C2263 C2264 1.347 . S
C2264 H2256 0.956 . S
C2264 C2259 1.429 . S
C2264 C2263 1.347 . S
H2265 C2266 0.951 . S
C2266 H2265 0.951 . S
C2266 C2272 1.265 . S
H2267 C2272 0.950 . S
H2268 C2276 0.949 . S
H2269 C2277 0.950 . S
H2270 C2278 0.951 . S
H2271 C2279 0.951 . S
C2272 C2266 1.265 . S
C2272 H2267 0.950 . S
C2272 C2273 1.478 . S
C2273 C2260 1.394 . S
C2273 C2272 1.478 . S
C2273 C2274 1.397 . S
C2274 C2273 1.397 . S
C2274 C2275 1.438 . S
C2274 C2279 1.429 . S
C2275 C2258 1.394 . S
C2275 C2274 1.438 . S
C2275 C2276 1.428 . S
C2276 H2268 0.949 . S
C2276 C2275 1.428 . S
C2276 C2277 1.345 . S
C2277 H2269 0.950 . S
C2277 C2276 1.345 . S
C2277 C2278 1.424 . S
C2278 H2270 0.951 . S
C2278 C2277 1.424 . S
C2278 C2279 1.347 . S
C2279 H2271 0.951 . S
C2279 C2274 1.429 . S
C2279 C2278 1.347 . S
H2280 C2281 0.951 . S
C2281 H2280 0.951 . S
C2281 C2287 1.265 . S
H2282 C2287 0.950 . S
H2283 C2291 0.949 . S
H2284 C2292 0.950 . S
H2285 C2293 0.951 . S
H2286 C2294 0.927 1_554 S
C2287 C2281 1.265 . S
C2287 H2282 0.950 . S
C2287 C2288 1.478 . S
C2288 C2287 1.478 . S
C2288 C2289 1.397 . S
C2288 C2305 1.394 . S
C2289 C2288 1.397 . S
C2289 C2290 1.438 . S
C2289 C2294 1.429 . S
C2290 C2289 1.438 . S
C2290 C2291 1.428 . S
C2290 C2303 1.394 . S
C2291 H2283 0.949 . S
C2291 C2290 1.428 . S
C2291 C2292 1.345 . S
C2292 H2284 0.950 . S
C2292 C2291 1.345 . S
C2292 C2293 1.424 1_556 S
C2293 H2285 0.951 . S
C2293 C2292 1.424 1_554 S
C2293 C2294 1.347 1_554 S
C2294 H2286 0.927 1_556 S
C2294 C2289 1.429 . S
C2294 C2293 1.347 1_556 S
H2295 C2296 0.951 . S
C2296 H2295 0.951 . S
C2296 C2302 1.265 . S
H2297 C2302 0.950 . S
H2298 C2306 0.949 . S
H2299 C2307 0.950 . S
H2300 C2308 0.951 . S
H2301 C2309 0.951 . S
C2302 C2296 1.265 . S
C2302 H2297 0.950 . S
C2302 C2303 1.478 . S
C2303 C2290 1.394 . S
C2303 C2302 1.478 . S
C2303 C2304 1.397 . S
C2304 C2303 1.397 . S
C2304 C2305 1.438 . S
C2304 C2309 1.429 . S
C2305 C2288 1.394 . S
C2305 C2304 1.438 . S
C2305 C2306 1.428 . S
C2306 H2298 0.949 . S
C2306 C2305 1.428 . S
C2306 C2307 1.345 . S
C2307 H2299 0.950 . S
C2307 C2306 1.345 . S
C2307 C2308 1.424 . S
C2308 H2300 0.951 . S
C2308 C2307 1.424 . S
C2308 C2309 1.347 . S
C2309 H2301 0.951 . S
C2309 C2304 1.429 . S
C2309 C2308 1.347 . S
H2310 C2311 0.951 . S
C2311 H2310 0.951 . S
C2311 C2317 1.265 . S
H2312 C2317 0.950 . S
H2313 C2321 0.949 . S
H2314 C2322 0.950 . S
H2315 C2323 0.951 . S
H2316 C2324 0.951 . S
C2317 C2311 1.265 . S
C2317 H2312 0.950 . S
C2317 C2318 1.478 . S
C2318 C2317 1.478 . S
C2318 C2319 1.397 . S
C2318 C2335 1.394 . S
C2319 C2318 1.397 . S
C2319 C2320 1.438 . S
C2319 C2324 1.429 . S
C2320 C2319 1.438 . S
C2320 C2321 1.428 . S
C2320 C2333 1.394 . S
C2321 H2313 0.949 . S
C2321 C2320 1.428 . S
C2321 C2322 1.345 . S
C2322 H2314 0.950 . S
C2322 C2321 1.345 . S
C2322 C2323 1.424 . S
C2323 H2315 0.951 . S
C2323 C2322 1.424 . S
C2323 C2324 1.347 . S
C2324 H2316 0.951 . S
C2324 C2319 1.429 . S
C2324 C2323 1.347 . S
H2325 C2326 0.951 . S
C2326 H2325 0.951 . S
C2326 C2332 1.265 . S
H2327 C2332 0.950 . S
H2328 C2336 0.949 . S
H2329 C2337 0.950 . S
H2330 C2338 0.951 . S
H2331 C2339 0.951 . S
C2332 C2326 1.265 . S
C2332 H2327 0.950 . S
C2332 C2333 1.478 . S
C2333 C2320 1.394 . S
C2333 C2332 1.478 . S
C2333 C2334 1.397 . S
C2334 C2333 1.397 . S
C2334 C2335 1.438 . S
C2334 C2339 1.429 . S
C2335 C2318 1.394 . S
C2335 C2334 1.438 . S
C2335 C2336 1.428 . S
C2336 H2328 0.949 . S
C2336 C2335 1.428 . S
C2336 C2337 1.345 . S
C2337 H2329 0.950 . S
C2337 C2336 1.345 . S
C2337 C2338 1.424 . S
C2338 H2330 0.951 . S
C2338 C2337 1.424 . S
C2338 C2339 1.347 . S
C2339 H2331 0.951 . S
C2339 C2334 1.429 . S
C2339 C2338 1.347 . S
H2340 C2341 0.951 . S
C2341 H2340 0.951 . S
C2341 C2347 1.265 . S
H2342 C2347 0.950 1_554 S
H2343 C2351 0.949 . S
H2344 C2352 0.950 . S
H2345 C2353 0.951 1_554 S
H2346 C2354 0.951 1_554 S
C2347 C2341 1.265 . S
C2347 H2342 0.950 1_556 S
C2347 C2348 1.478 . S
C2348 C2347 1.478 . S
C2348 C2349 1.397 . S
C2348 C2365 1.394 . S
C2349 C2348 1.397 . S
C2349 C2350 1.438 . S
C2349 C2354 1.429 . S
C2350 C2349 1.438 . S
C2350 C2351 1.428 . S
C2350 C2363 1.394 . S
C2351 H2343 0.949 . S
C2351 C2350 1.428 . S
C2351 C2352 1.345 . S
C2352 H2344 0.950 . S
C2352 C2351 1.345 . S
C2352 C2353 1.424 . S
C2353 H2345 0.951 1_556 S
C2353 C2352 1.424 . S
C2353 C2354 1.347 . S
C2354 H2346 0.951 1_556 S
C2354 C2349 1.429 . S
C2354 C2353 1.347 . S
H2355 C2356 0.951 . S
C2356 H2355 0.951 . S
C2356 C2362 1.265 . S
H2357 C2362 0.950 . S
H2358 C2366 0.949 . S
H2359 C2367 0.950 . S
H2360 C2368 0.951 . S
H2361 C2369 0.951 . S
C2362 C2356 1.265 . S
C2362 H2357 0.950 . S
C2362 C2363 1.478 . S
C2363 C2350 1.394 . S
C2363 C2362 1.478 . S
C2363 C2364 1.397 . S
C2364 C2363 1.397 . S
C2364 C2365 1.438 . S
C2364 C2369 1.429 . S
C2365 C2348 1.394 . S
C2365 C2364 1.438 . S
C2365 C2366 1.428 . S
C2366 H2358 0.949 . S
C2366 C2365 1.428 . S
C2366 C2367 1.345 . S
C2367 H2359 0.950 . S
C2367 C2366 1.345 . S
C2367 C2368 1.424 . S
C2368 H2360 0.951 . S
C2368 C2367 1.424 . S
C2368 C2369 1.347 . S
C2369 H2361 0.951 . S
C2369 C2364 1.429 . S
C2369 C2368 1.347 . S
H2370 C2371 0.951 . S
C2371 H2370 0.951 . S
C2371 C2377 1.265 . S
H2372 C2377 0.950 . S
H2373 C2381 0.949 . S
H2374 C2382 0.950 . S
H2375 C2383 0.951 . S
H2376 C2384 0.951 . S
C2377 C2371 1.265 . S
C2377 H2372 0.950 . S
C2377 C2378 1.478 . S
C2378 C2377 1.478 . S
C2378 C2379 1.397 . S
C2378 C2395 1.394 . S
C2379 C2378 1.397 . S
C2379 C2380 1.438 . S
C2379 C2384 1.429 . S
C2380 C2379 1.438 . S
C2380 C2381 1.428 . S
C2380 C2393 1.394 . S
C2381 H2373 0.949 . S
C2381 C2380 1.428 . S
C2381 C2382 1.345 . S
C2382 H2374 0.950 . S
C2382 C2381 1.345 . S
C2382 C2383 1.424 . S
C2383 H2375 0.951 . S
C2383 C2382 1.424 . S
C2383 C2384 1.347 . S
C2384 H2376 0.951 . S
C2384 C2379 1.429 . S
C2384 C2383 1.347 . S
H2385 C2386 0.951 . S
C2386 H2385 0.951 . S
C2386 C2392 1.265 . S
H2387 C2392 0.950 . S
H2388 C2396 0.949 . S
H2389 C2397 0.950 . S
H2390 C2398 0.951 . S
H2391 C2399 0.951 . S
C2392 C2386 1.265 . S
C2392 H2387 0.950 . S
C2392 C2393 1.478 . S
C2393 C2380 1.394 . S
C2393 C2392 1.478 . S
C2393 C2394 1.397 . S
C2394 C2393 1.397 . S
C2394 C2395 1.438 . S
C2394 C2399 1.429 . S
C2395 C2378 1.394 . S
C2395 C2394 1.438 . S
C2395 C2396 1.428 . S
C2396 H2388 0.949 . S
C2396 C2395 1.428 . S
C2396 C2397 1.345 . S
C2397 H2389 0.950 . S
C2397 C2396 1.345 . S
C2397 C2398 1.424 . S
C2398 H2390 0.951 . S
C2398 C2397 1.424 . S
C2398 C2399 1.347 . S
C2399 H2391 0.951 . S
C2399 C2394 1.429 . S
C2399 C2398 1.347 . S
H2400 C2401 0.951 . S
C2401 H2400 0.951 . S
C2401 C2407 1.265 . S
H2402 C2407 0.950 . S
H2403 C2411 0.949 . S
H2404 C2412 0.950 . S
H2405 C2413 0.951 . S
H2406 C2414 0.951 . S
C2407 C2401 1.265 . S
C2407 H2402 0.950 . S
C2407 C2408 1.478 . S
C2408 C2407 1.478 . S
C2408 C2409 1.397 . S
C2408 C2425 1.394 . S
C2409 C2408 1.397 . S
C2409 C2410 1.438 . S
C2409 C2414 1.429 . S
C2410 C2409 1.438 . S
C2410 C2411 1.428 . S
C2410 C2423 1.394 . S
C2411 H2403 0.949 . S
C2411 C2410 1.428 . S
C2411 C2412 1.345 . S
C2412 H2404 0.950 . S
C2412 C2411 1.345 . S
C2412 C2413 1.424 . S
C2413 H2405 0.951 . S
C2413 C2412 1.424 . S
C2413 C2414 1.347 . S
C2414 H2406 0.951 . S
C2414 C2409 1.429 . S
C2414 C2413 1.347 . S
H2415 C2416 0.951 . S
C2416 H2415 0.951 . S
C2416 C2422 1.265 . S
H2417 C2422 0.950 . S
H2418 C2426 0.949 . S
H2419 C2427 0.950 . S
H2420 C2428 0.951 . S
H2421 C2429 0.951 . S
C2422 C2416 1.265 . S
C2422 H2417 0.950 . S
C2422 C2423 1.478 . S
C2423 C2410 1.394 . S
C2423 C2422 1.478 . S
C2423 C2424 1.397 . S
C2424 C2423 1.397 . S
C2424 C2425 1.438 . S
C2424 C2429 1.429 . S
C2425 C2408 1.394 . S
C2425 C2424 1.438 . S
C2425 C2426 1.428 . S
C2426 H2418 0.949 . S
C2426 C2425 1.428 . S
C2426 C2427 1.345 . S
C2427 H2419 0.950 . S
C2427 C2426 1.345 . S
C2427 C2428 1.424 . S
C2428 H2420 0.951 . S
C2428 C2427 1.424 . S
C2428 C2429 1.347 . S
C2429 H2421 0.951 . S
C2429 C2424 1.429 . S
C2429 C2428 1.347 . S
H2430 C2431 0.951 . S
C2431 H2430 0.951 . S
C2431 C2437 1.265 . S
H2432 C2437 0.950 . S
H2433 C2441 0.949 . S
H2434 C2442 0.950 . S
H2435 C2443 0.951 . S
H2436 C2444 0.951 . S
C2437 C2431 1.265 . S
C2437 H2432 0.950 . S
C2437 C2438 1.478 . S
C2438 C2437 1.478 . S
C2438 C2439 1.397 . S
C2438 C2455 1.394 . S
C2439 C2438 1.397 . S
C2439 C2440 1.438 . S
C2439 C2444 1.429 . S
C2440 C2439 1.438 . S
C2440 C2441 1.428 . S
C2440 C2453 1.394 . S
C2441 H2433 0.949 . S
C2441 C2440 1.428 . S
C2441 C2442 1.345 . S
C2442 H2434 0.950 . S
C2442 C2441 1.345 . S
C2442 C2443 1.424 . S
C2443 H2435 0.951 . S
C2443 C2442 1.424 . S
C2443 C2444 1.347 . S
C2444 H2436 0.951 . S
C2444 C2439 1.429 . S
C2444 C2443 1.347 . S
H2445 C2446 0.951 . S
C2446 H2445 0.951 . S
C2446 C2452 1.265 . S
H2447 C2452 0.950 . S
H2448 C2456 0.949 . S
H2449 C2457 0.950 . S
H2450 C2458 0.951 . S
H2451 C2459 0.951 . S
C2452 C2446 1.265 . S
C2452 H2447 0.950 . S
C2452 C2453 1.478 . S
C2453 C2440 1.394 . S
C2453 C2452 1.478 . S
C2453 C2454 1.397 . S
C2454 C2453 1.397 . S
C2454 C2455 1.438 . S
C2454 C2459 1.429 . S
C2455 C2438 1.394 . S
C2455 C2454 1.438 . S
C2455 C2456 1.428 . S
C2456 H2448 0.949 . S
C2456 C2455 1.428 . S
C2456 C2457 1.345 . S
C2457 H2449 0.950 . S
C2457 C2456 1.345 . S
C2457 C2458 1.424 . S
C2458 H2450 0.951 . S
C2458 C2457 1.424 . S
C2458 C2459 1.347 . S
C2459 H2451 0.951 . S
C2459 C2454 1.429 . S
C2459 C2458 1.347 . S
H2460 C2461 0.951 . S
C2461 H2460 0.951 . S
C2461 C2467 1.265 . S
H2462 C2467 0.950 . S
H2463 C2471 0.949 . S
H2464 C2472 0.950 . S
H2465 C2473 0.951 . S
H2466 C2474 0.951 . S
C2467 C2461 1.265 . S
C2467 H2462 0.950 . S
C2467 C2468 1.478 . S
C2468 C2467 1.478 . S
C2468 C2469 1.397 . S
C2468 C2485 1.394 . S
C2469 C2468 1.397 . S
C2469 C2470 1.438 . S
C2469 C2474 1.429 . S
C2470 C2469 1.438 . S
C2470 C2471 1.428 . S
C2470 C2483 1.394 . S
C2471 H2463 0.949 . S
C2471 C2470 1.428 . S
C2471 C2472 1.345 . S
C2472 H2464 0.950 . S
C2472 C2471 1.345 . S
C2472 C2473 1.424 . S
C2473 H2465 0.951 . S
C2473 C2472 1.424 . S
C2473 C2474 1.347 . S
C2474 H2466 0.951 . S
C2474 C2469 1.429 . S
C2474 C2473 1.347 . S
H2475 C2476 0.951 . S
C2476 H2475 0.951 . S
C2476 C2482 1.265 . S
H2477 C2482 0.950 . S
H2478 C2486 0.949 . S
H2479 C2487 0.950 . S
H2480 C2488 0.951 . S
H2481 C2489 0.951 . S
C2482 C2476 1.265 . S
C2482 H2477 0.950 . S
C2482 C2483 1.478 . S
C2483 C2470 1.394 . S
C2483 C2482 1.478 . S
C2483 C2484 1.397 . S
C2484 C2483 1.397 . S
C2484 C2485 1.438 . S
C2484 C2489 1.429 . S
C2485 C2468 1.394 . S
C2485 C2484 1.438 . S
C2485 C2486 1.428 . S
C2486 H2478 0.949 . S
C2486 C2485 1.428 . S
C2486 C2487 1.345 . S
C2487 H2479 0.950 . S
C2487 C2486 1.345 . S
C2487 C2488 1.424 . S
C2488 H2480 0.951 . S
C2488 C2487 1.424 . S
C2488 C2489 1.347 . S
C2489 H2481 0.951 . S
C2489 C2484 1.429 . S
C2489 C2488 1.347 . S
H2490 C2491 0.951 . S
C2491 H2490 0.951 . S
C2491 C2497 1.265 . S
H2492 C2497 0.950 . S
H2493 C2501 0.949 . S
H2494 C2502 0.950 . S
H2495 C2503 0.951 . S
H2496 C2504 0.951 . S
C2497 C2491 1.265 . S
C2497 H2492 0.950 . S
C2497 C2498 1.478 . S
C2498 C2497 1.478 . S
C2498 C2499 1.397 . S
C2498 C2515 1.394 . S
C2499 C2498 1.397 . S
C2499 C2500 1.438 . S
C2499 C2504 1.429 . S
C2500 C2499 1.438 . S
C2500 C2501 1.428 . S
C2500 C2513 1.394 . S
C2501 H2493 0.949 . S
C2501 C2500 1.428 . S
C2501 C2502 1.345 . S
C2502 H2494 0.950 . S
C2502 C2501 1.345 . S
C2502 C2503 1.424 . S
C2503 H2495 0.951 . S
C2503 C2502 1.424 . S
C2503 C2504 1.347 . S
C2504 H2496 0.951 . S
C2504 C2499 1.429 . S
C2504 C2503 1.347 . S
H2505 C2506 0.951 . S
C2506 H2505 0.951 . S
C2506 C2512 1.265 . S
H2507 C2512 0.950 . S
H2508 C2516 0.949 . S
H2509 C2517 0.950 . S
H2510 C2518 0.951 . S
H2511 C2519 0.951 . S
C2512 C2506 1.265 . S
C2512 H2507 0.950 . S
C2512 C2513 1.478 . S
C2513 C2500 1.394 . S
C2513 C2512 1.478 . S
C2513 C2514 1.397 . S
C2514 C2513 1.397 . S
C2514 C2515 1.438 . S
C2514 C2519 1.429 . S
C2515 C2498 1.394 . S
C2515 C2514 1.438 . S
C2515 C2516 1.428 . S
C2516 H2508 0.949 . S
C2516 C2515 1.428 . S
C2516 C2517 1.345 . S
C2517 H2509 0.950 . S
C2517 C2516 1.345 . S
C2517 C2518 1.424 . S
C2518 H2510 0.951 . S
C2518 C2517 1.424 . S
C2518 C2519 1.347 . S
C2519 H2511 0.951 . S
C2519 C2514 1.429 . S
C2519 C2518 1.347 . S
H2520 C2521 0.951 . S
C2521 H2520 0.951 . S
C2521 C2527 1.265 . S
H2522 C2527 0.950 . S
H2523 C2531 0.949 . S
H2524 C2532 0.950 . S
H2525 C2533 0.951 . S
H2526 C2534 0.951 . S
C2527 C2521 1.265 . S
C2527 H2522 0.950 . S
C2527 C2528 1.478 . S
C2528 C2527 1.478 . S
C2528 C2529 1.397 . S
C2528 C2545 1.394 . S
C2529 C2528 1.397 . S
C2529 C2530 1.438 . S
C2529 C2534 1.429 . S
C2530 C2529 1.438 . S
C2530 C2531 1.428 . S
C2530 C2543 1.394 . S
C2531 H2523 0.949 . S
C2531 C2530 1.428 . S
C2531 C2532 1.345 . S
C2532 H2524 0.950 . S
C2532 C2531 1.345 . S
C2532 C2533 1.424 . S
C2533 H2525 0.951 . S
C2533 C2532 1.424 . S
C2533 C2534 1.347 . S
C2534 H2526 0.951 . S
C2534 C2529 1.429 . S
C2534 C2533 1.347 . S
H2535 C2536 0.951 . S
C2536 H2535 0.951 . S
C2536 C2542 1.265 . S
H2537 C2542 0.950 . S
H2538 C2546 0.949 . S
H2539 C2547 0.950 . S
H2540 C2548 0.951 . S
H2541 C2549 0.951 . S
C2542 C2536 1.265 . S
C2542 H2537 0.950 . S
C2542 C2543 1.478 . S
C2543 C2530 1.394 . S
C2543 C2542 1.478 . S
C2543 C2544 1.397 . S
C2544 C2543 1.397 . S
C2544 C2545 1.438 . S
C2544 C2549 1.429 . S
C2545 C2528 1.394 . S
C2545 C2544 1.438 . S
C2545 C2546 1.428 . S
C2546 H2538 0.949 . S
C2546 C2545 1.428 . S
C2546 C2547 1.345 . S
C2547 H2539 0.950 . S
C2547 C2546 1.345 . S
C2547 C2548 1.424 . S
C2548 H2540 0.951 . S
C2548 C2547 1.424 . S
C2548 C2549 1.347 . S
C2549 H2541 0.951 . S
C2549 C2544 1.429 . S
C2549 C2548 1.347 . S
H2550 C2551 0.951 . S
C2551 H2550 0.951 . S
C2551 C2557 1.265 . S
H2552 C2557 0.950 . S
H2553 C2561 0.949 . S
H2554 C2562 0.950 . S
H2555 C2563 0.951 . S
H2556 C2564 0.951 . S
C2557 C2551 1.265 . S
C2557 H2552 0.950 . S
C2557 C2558 1.478 . S
C2558 C2557 1.478 . S
C2558 C2559 1.397 . S
C2558 C2575 1.394 . S
C2559 C2558 1.397 . S
C2559 C2560 1.438 . S
C2559 C2564 1.429 . S
C2560 C2559 1.438 . S
C2560 C2561 1.428 . S
C2560 C2573 1.394 . S
C2561 H2553 0.949 . S
C2561 C2560 1.428 . S
C2561 C2562 1.345 . S
C2562 H2554 0.950 . S
C2562 C2561 1.345 . S
C2562 C2563 1.424 . S
C2563 H2555 0.951 . S
C2563 C2562 1.424 . S
C2563 C2564 1.347 . S
C2564 H2556 0.951 . S
C2564 C2559 1.429 . S
C2564 C2563 1.347 . S
H2565 C2566 0.951 . S
C2566 H2565 0.951 . S
C2566 C2572 1.265 . S
H2567 C2572 0.950 . S
H2568 C2576 0.949 . S
H2569 C2577 0.950 . S
H2570 C2578 0.951 . S
H2571 C2579 0.951 . S
C2572 C2566 1.265 . S
C2572 H2567 0.950 . S
C2572 C2573 1.478 . S
C2573 C2560 1.394 . S
C2573 C2572 1.478 . S
C2573 C2574 1.397 . S
C2574 C2573 1.397 . S
C2574 C2575 1.438 . S
C2574 C2579 1.429 . S
C2575 C2558 1.394 . S
C2575 C2574 1.438 . S
C2575 C2576 1.428 . S
C2576 H2568 0.949 . S
C2576 C2575 1.428 . S
C2576 C2577 1.345 . S
C2577 H2569 0.950 . S
C2577 C2576 1.345 . S
C2577 C2578 1.424 . S
C2578 H2570 0.951 . S
C2578 C2577 1.424 . S
C2578 C2579 1.347 . S
C2579 H2571 0.951 . S
C2579 C2574 1.429 . S
C2579 C2578 1.347 . S
H2580 C2581 0.951 . S
C2581 H2580 0.951 . S
C2581 C2587 1.265 . S
H2582 C2587 0.950 . S
H2583 C2591 0.949 . S
H2584 C2592 0.950 . S
H2585 C2593 0.951 . S
H2586 C2594 0.951 . S
C2587 C2581 1.265 . S
C2587 H2582 0.950 . S
C2587 C2588 1.478 . S
C2588 C2587 1.478 . S
C2588 C2589 1.397 . S
C2588 C2605 1.394 . S
C2589 C2588 1.397 . S
C2589 C2590 1.438 . S
C2589 C2594 1.429 . S
C2590 C2589 1.438 . S
C2590 C2591 1.428 . S
C2590 C2603 1.394 . S
C2591 H2583 0.949 . S
C2591 C2590 1.428 . S
C2591 C2592 1.345 . S
C2592 H2584 0.950 . S
C2592 C2591 1.345 . S
C2592 C2593 1.424 . S
C2593 H2585 0.951 . S
C2593 C2592 1.424 . S
C2593 C2594 1.347 . S
C2594 H2586 0.951 . S
C2594 C2589 1.429 . S
C2594 C2593 1.347 . S
H2595 C2596 0.951 . S
C2596 H2595 0.951 . S
C2596 C2602 1.265 . S
H2597 C2602 0.950 . S
H2598 C2606 0.949 . S
H2599 C2607 0.950 . S
H2600 C2608 0.951 . S
H2601 C2609 0.951 . S
C2602 C2596 1.265 . S
C2602 H2597 0.950 . S
C2602 C2603 1.478 . S
C2603 C2590 1.394 . S
C2603 C2602 1.478 . S
C2603 C2604 1.397 . S
C2604 C2603 1.397 . S
C2604 C2605 1.438 . S
C2604 C2609 1.429 . S
C2605 C2588 1.394 . S
C2605 C2604 1.438 . S
C2605 C2606 1.428 . S
C2606 H2598 0.949 . S
C2606 C2605 1.428 . S
C2606 C2607 1.345 . S
C2607 H2599 0.950 . S
C2607 C2606 1.345 . S
C2607 C2608 1.424 . S
C2608 H2600 0.951 . S
C2608 C2607 1.424 . S
C2608 C2609 1.347 . S
C2609 H2601 0.951 . S
C2609 C2604 1.429 . S
C2609 C2608 1.347 . S
H2610 C2611 0.951 . S
C2611 H2610 0.951 . S
C2611 C2617 1.265 . S
H2612 C2617 0.950 . S
H2613 C2621 0.922 1_655 S
H2614 C2622 0.950 . S
H2615 C2623 0.951 . S
H2616 C2624 0.951 . S
C2617 C2611 1.265 . S
C2617 H2612 0.950 . S
C2617 C2618 1.478 . S
C2618 C2617 1.478 . S
C2618 C2619 1.397 . S
C2618 C2635 1.394 . S
C2619 C2618 1.397 . S
C2619 C2620 1.438 . S
C2619 C2624 1.429 . S
C2620 C2619 1.438 . S
C2620 C2621 1.428 . S
C2620 C2633 1.394 . S
C2621 H2613 0.922 1_455 S
C2621 C2620 1.428 . S
C2621 C2622 1.345 . S
C2622 H2614 0.950 . S
C2622 C2621 1.345 . S
C2622 C2623 1.424 . S
C2623 H2615 0.951 . S
C2623 C2622 1.424 . S
C2623 C2624 1.347 . S
C2624 H2616 0.951 . S
C2624 C2619 1.429 . S
C2624 C2623 1.347 . S
H2625 C2626 0.951 . S
C2626 H2625 0.951 . S
C2626 C2632 1.265 1_455 S
H2627 C2632 0.950 . S
H2628 C2636 0.949 . S
H2629 C2637 0.950 . S
H2630 C2638 0.951 . S
H2631 C2639 0.951 . S
C2632 C2626 1.265 1_655 S
C2632 H2627 0.950 . S
C2632 C2633 1.478 1_655 S
C2633 C2620 1.394 . S
C2633 C2632 1.478 1_455 S
C2633 C2634 1.397 . S
C2634 C2633 1.397 . S
C2634 C2635 1.438 . S
C2634 C2639 1.429 . S
C2635 C2618 1.394 . S
C2635 C2634 1.438 . S
C2635 C2636 1.428 . S
C2636 H2628 0.949 . S
C2636 C2635 1.428 . S
C2636 C2637 1.345 . S
C2637 H2629 0.950 . S
C2637 C2636 1.345 . S
C2637 C2638 1.424 . S
C2638 H2630 0.951 . S
C2638 C2637 1.424 . S
C2638 C2639 1.347 . S
C2639 H2631 0.951 . S
C2639 C2634 1.429 . S
C2639 C2638 1.347 . S
H2640 C2641 0.951 . S
C2641 H2640 0.951 . S
C2641 C2647 1.265 . S
H2642 C2647 0.950 . S
H2643 C2651 0.949 . S
H2644 C2652 0.950 . S
H2645 C2653 0.951 . S
H2646 C2654 0.951 . S
C2647 C2641 1.265 . S
C2647 H2642 0.950 . S
C2647 C2648 1.478 . S
C2648 C2647 1.478 . S
C2648 C2649 1.397 . S
C2648 C2665 1.394 . S
C2649 C2648 1.397 . S
C2649 C2650 1.438 . S
C2649 C2654 1.429 . S
C2650 C2649 1.438 . S
C2650 C2651 1.428 . S
C2650 C2663 1.394 . S
C2651 H2643 0.949 . S
C2651 C2650 1.428 . S
C2651 C2652 1.345 . S
C2652 H2644 0.950 . S
C2652 C2651 1.345 . S
C2652 C2653 1.424 . S
C2653 H2645 0.951 . S
C2653 C2652 1.424 . S
C2653 C2654 1.347 . S
C2654 H2646 0.951 . S
C2654 C2649 1.429 . S
C2654 C2653 1.347 . S
H2655 C2656 0.951 . S
C2656 H2655 0.951 . S
C2656 C2662 1.265 . S
H2657 C2662 0.950 . S
H2658 C2666 0.949 . S
H2659 C2667 0.950 . S
H2660 C2668 0.951 . S
H2661 C2669 0.951 . S
C2662 C2656 1.265 . S
C2662 H2657 0.950 . S
C2662 C2663 1.478 . S
C2663 C2650 1.394 . S
C2663 C2662 1.478 . S
C2663 C2664 1.397 . S
C2664 C2663 1.397 . S
C2664 C2665 1.438 . S
C2664 C2669 1.429 . S
C2665 C2648 1.394 . S
C2665 C2664 1.438 . S
C2665 C2666 1.428 . S
C2666 H2658 0.949 . S
C2666 C2665 1.428 . S
C2666 C2667 1.345 . S
C2667 H2659 0.950 . S
C2667 C2666 1.345 . S
C2667 C2668 1.424 . S
C2668 H2660 0.951 . S
C2668 C2667 1.424 . S
C2668 C2669 1.347 . S
C2669 H2661 0.951 . S
C2669 C2664 1.429 . S
C2669 C2668 1.347 . S
H2670 C2671 0.951 . S
C2671 H2670 0.951 . S
C2671 C2677 1.265 . S
H2672 C2677 0.950 . S
H2673 C2681 0.949 . S
H2674 C2682 0.950 . S
H2675 C2683 0.951 . S
H2676 C2684 0.951 . S
C2677 C2671 1.265 . S
C2677 H2672 0.950 . S
C2677 C2678 1.478 . S
C2678 C2677 1.478 . S
C2678 C2679 1.397 . S
C2678 C2695 1.394 1_565 S
C2679 C2678 1.397 . S
C2679 C2680 1.438 . S
C2679 C2684 1.429 . S
C2680 C2679 1.438 . S
C2680 C2681 1.428 . S
C2680 C2693 1.394 . S
C2681 H2673 0.949 . S
C2681 C2680 1.428 . S
C2681 C2682 1.345 . S
C2682 H2674 0.950 . S
C2682 C2681 1.345 . S
C2682 C2683 1.424 . S
C2683 H2675 0.951 . S
C2683 C2682 1.424 . S
C2683 C2684 1.347 . S
C2684 H2676 0.951 . S
C2684 C2679 1.429 . S
C2684 C2683 1.347 . S
H2685 C2686 0.951 . S
C2686 H2685 0.951 . S
C2686 C2692 1.265 . S
H2687 C2692 0.941 1_545 S
H2688 C2696 0.949 . S
H2689 C2697 0.950 . S
H2690 C2698 0.951 . S
H2691 C2699 0.951 . S
C2692 C2686 1.265 . S
C2692 H2687 0.941 1_565 S
C2692 C2693 1.478 . S
C2693 C2680 1.394 . S
C2693 C2692 1.478 . S
C2693 C2694 1.397 1_565 S
C2694 C2693 1.397 1_545 S
C2694 C2695 1.438 . S
C2694 C2699 1.429 . S
C2695 C2678 1.394 1_545 S
C2695 C2694 1.438 . S
C2695 C2696 1.428 . S
C2696 H2688 0.949 . S
C2696 C2695 1.428 . S
C2696 C2697 1.345 . S
C2697 H2689 0.950 . S
C2697 C2696 1.345 . S
C2697 C2698 1.424 . S
C2698 H2690 0.951 . S
C2698 C2697 1.424 . S
C2698 C2699 1.347 . S
C2699 H2691 0.951 . S
C2699 C2694 1.429 . S
C2699 C2698 1.347 . S
H2700 C2701 0.951 . S
C2701 H2700 0.951 . S
C2701 C2707 1.265 . S
H2702 C2707 0.950 . S
H2703 C2711 0.949 . S
H2704 C2712 0.950 . S
H2705 C2713 0.951 . S
H2706 C2714 0.951 . S
C2707 C2701 1.265 . S
C2707 H2702 0.950 . S
C2707 C2708 1.478 . S
C2708 C2707 1.478 . S
C2708 C2709 1.397 1_565 S
C2708 C2725 1.394 . S
C2709 C2708 1.397 1_545 S
C2709 C2710 1.438 . S
C2709 C2714 1.429 . S
C2710 C2709 1.438 . S
C2710 C2711 1.428 . S
C2710 C2723 1.394 1_545 S
C2711 H2703 0.949 . S
C2711 C2710 1.428 . S
C2711 C2712 1.345 . S
C2712 H2704 0.950 . S
C2712 C2711 1.345 . S
C2712 C2713 1.424 . S
C2713 H2705 0.951 . S
C2713 C2712 1.424 . S
C2713 C2714 1.347 . S
C2714 H2706 0.951 . S
C2714 C2709 1.429 . S
C2714 C2713 1.347 . S
H2715 C2716 0.951 . S
C2716 H2715 0.951 . S
C2716 C2722 1.265 . S
H2717 C2722 0.950 . S
H2718 C2726 0.949 . S
H2719 C2727 0.950 . S
H2720 C2728 0.951 . S
H2721 C2729 0.951 . S
C2722 C2716 1.265 . S
C2722 H2717 0.950 . S
C2722 C2723 1.478 . S
C2723 C2710 1.394 1_565 S
C2723 C2722 1.478 . S
C2723 C2724 1.397 . S
C2724 C2723 1.397 . S
C2724 C2725 1.438 . S
C2724 C2729 1.429 . S
C2725 C2708 1.394 . S
C2725 C2724 1.438 . S
C2725 C2726 1.428 . S
C2726 H2718 0.949 . S
C2726 C2725 1.428 . S
C2726 C2727 1.345 . S
C2727 H2719 0.950 . S
C2727 C2726 1.345 . S
C2727 C2728 1.424 . S
C2728 H2720 0.951 . S
C2728 C2727 1.424 . S
C2728 C2729 1.347 . S
C2729 H2721 0.951 . S
C2729 C2724 1.429 . S
C2729 C2728 1.347 . S
H2730 C2731 0.951 . S
C2731 H2730 0.951 . S
C2731 C2737 1.265 . S
H2732 C2737 0.950 1_655 S
H2733 C2741 0.975 . S
H2734 C2742 0.950 . S
H2735 C2743 0.951 . S
H2736 C2744 0.951 . S
C2737 C2731 1.265 . S
C2737 H2732 0.950 1_455 S
C2737 C2738 1.478 . S
C2738 C2737 1.478 . S
C2738 C2739 1.397 . S
C2738 C2755 1.394 . S
C2739 C2738 1.397 . S
C2739 C2740 1.438 . S
C2739 C2744 1.429 1_455 S
C2740 C2739 1.438 . S
C2740 C2741 1.428 1_455 S
C2740 C2753 1.394 . S
C2741 H2733 0.975 . S
C2741 C2740 1.428 1_655 S
C2741 C2742 1.345 . S
C2742 H2734 0.950 . S
C2742 C2741 1.345 . S
C2742 C2743 1.424 . S
C2743 H2735 0.951 . S
C2743 C2742 1.424 . S
C2743 C2744 1.347 . S
C2744 H2736 0.951 . S
C2744 C2739 1.429 1_655 S
C2744 C2743 1.347 . S
H2745 C2746 0.892 1_655 S
C2746 H2745 0.892 1_455 S
C2746 C2752 1.288 . S
H2747 C2752 0.950 . S
H2748 C2756 0.949 . S
H2749 C2757 0.950 . S
H2750 C2758 0.951 . S
H2751 C2759 0.951 . S
C2752 C2746 1.288 . S
C2752 H2747 0.950 . S
C2752 C2753 1.478 . S
C2753 C2740 1.394 . S
C2753 C2752 1.478 . S
C2753 C2754 1.397 . S
C2754 C2753 1.397 . S
C2754 C2755 1.438 . S
C2754 C2759 1.429 . S
C2755 C2738 1.394 . S
C2755 C2754 1.438 . S
C2755 C2756 1.428 . S
C2756 H2748 0.949 . S
C2756 C2755 1.428 . S
C2756 C2757 1.345 . S
C2757 H2749 0.950 . S
C2757 C2756 1.345 . S
C2757 C2758 1.424 . S
C2758 H2750 0.951 . S
C2758 C2757 1.424 . S
C2758 C2759 1.347 . S
C2759 H2751 0.951 . S
C2759 C2754 1.429 . S
C2759 C2758 1.347 . S
H2760 C2761 0.951 . S
C2761 H2760 0.951 . S
C2761 C2767 1.265 . S
H2762 C2767 0.950 . S
H2763 C2771 0.949 . S
H2764 C2772 0.950 . S
H2765 C2773 0.951 . S
H2766 C2774 0.951 . S
C2767 C2761 1.265 . S
C2767 H2762 0.950 . S
C2767 C2768 1.478 . S
C2768 C2767 1.478 . S
C2768 C2769 1.397 . S
C2768 C2785 1.394 . S
C2769 C2768 1.397 . S
C2769 C2770 1.438 . S
C2769 C2774 1.429 . S
C2770 C2769 1.438 . S
C2770 C2771 1.428 . S
C2770 C2783 1.394 . S
C2771 H2763 0.949 . S
C2771 C2770 1.428 . S
C2771 C2772 1.345 . S
C2772 H2764 0.950 . S
C2772 C2771 1.345 . S
C2772 C2773 1.424 . S
C2773 H2765 0.951 . S
C2773 C2772 1.424 . S
C2773 C2774 1.347 . S
C2774 H2766 0.951 . S
C2774 C2769 1.429 . S
C2774 C2773 1.347 . S
H2775 C2776 0.951 . S
C2776 H2775 0.951 . S
C2776 C2782 1.265 . S
H2777 C2782 0.950 . S
H2778 C2786 0.949 . S
H2779 C2787 0.950 . S
H2780 C2788 0.951 . S
H2781 C2789 0.951 . S
C2782 C2776 1.265 . S
C2782 H2777 0.950 . S
C2782 C2783 1.478 . S
C2783 C2770 1.394 . S
C2783 C2782 1.478 . S
C2783 C2784 1.397 . S
C2784 C2783 1.397 . S
C2784 C2785 1.438 . S
C2784 C2789 1.429 . S
C2785 C2768 1.394 . S
C2785 C2784 1.438 . S
C2785 C2786 1.428 . S
C2786 H2778 0.949 . S
C2786 C2785 1.428 . S
C2786 C2787 1.345 . S
C2787 H2779 0.950 . S
C2787 C2786 1.345 . S
C2787 C2788 1.424 . S
C2788 H2780 0.951 . S
C2788 C2787 1.424 . S
C2788 C2789 1.347 . S
C2789 H2781 0.951 . S
C2789 C2784 1.429 . S
C2789 C2788 1.347 . S
H2790 C2791 0.951 . S
C2791 H2790 0.951 . S
C2791 C2797 1.265 . S
H2792 C2797 0.950 . S
H2793 C2801 0.949 . S
H2794 C2802 0.950 . S
H2795 C2803 0.951 . S
H2796 C2804 0.951 . S
C2797 C2791 1.265 . S
C2797 H2792 0.950 . S
C2797 C2798 1.478 . S
C2798 C2797 1.478 . S
C2798 C2799 1.397 . S
C2798 C2815 1.394 . S
C2799 C2798 1.397 . S
C2799 C2800 1.438 . S
C2799 C2804 1.429 . S
C2800 C2799 1.438 . S
C2800 C2801 1.428 . S
C2800 C2813 1.394 . S
C2801 H2793 0.949 . S
C2801 C2800 1.428 . S
C2801 C2802 1.345 . S
C2802 H2794 0.950 . S
C2802 C2801 1.345 . S
C2802 C2803 1.424 . S
C2803 H2795 0.951 . S
C2803 C2802 1.424 . S
C2803 C2804 1.347 . S
C2804 H2796 0.951 . S
C2804 C2799 1.429 . S
C2804 C2803 1.347 . S
H2805 C2806 0.951 . S
C2806 H2805 0.951 . S
C2806 C2812 1.265 . S
H2807 C2812 0.950 . S
H2808 C2816 0.949 . S
H2809 C2817 0.950 . S
H2810 C2818 0.951 . S
H2811 C2819 0.951 . S
C2812 C2806 1.265 . S
C2812 H2807 0.950 . S
C2812 C2813 1.478 . S
C2813 C2800 1.394 . S
C2813 C2812 1.478 . S
C2813 C2814 1.397 . S
C2814 C2813 1.397 . S
C2814 C2815 1.438 . S
C2814 C2819 1.429 . S
C2815 C2798 1.394 . S
C2815 C2814 1.438 . S
C2815 C2816 1.428 . S
C2816 H2808 0.949 . S
C2816 C2815 1.428 . S
C2816 C2817 1.345 . S
C2817 H2809 0.950 . S
C2817 C2816 1.345 . S
C2817 C2818 1.424 . S
C2818 H2810 0.951 . S
C2818 C2817 1.424 . S
C2818 C2819 1.347 . S
C2819 H2811 0.951 . S
C2819 C2814 1.429 . S
C2819 C2818 1.347 . S
H2820 C2821 0.951 . S
C2821 H2820 0.951 . S
C2821 C2827 1.265 . S
H2822 C2827 0.950 . S
H2823 C2831 0.949 . S
H2824 C2832 0.950 . S
H2825 C2833 0.951 . S
H2826 C2834 0.951 . S
C2827 C2821 1.265 . S
C2827 H2822 0.950 . S
C2827 C2828 1.478 . S
C2828 C2827 1.478 . S
C2828 C2829 1.397 . S
C2828 C2845 1.394 . S
C2829 C2828 1.397 . S
C2829 C2830 1.438 . S
C2829 C2834 1.429 . S
C2830 C2829 1.438 . S
C2830 C2831 1.428 . S
C2830 C2843 1.394 . S
C2831 H2823 0.949 . S
C2831 C2830 1.428 . S
C2831 C2832 1.345 . S
C2832 H2824 0.950 . S
C2832 C2831 1.345 . S
C2832 C2833 1.424 . S
C2833 H2825 0.951 . S
C2833 C2832 1.424 . S
C2833 C2834 1.347 . S
C2834 H2826 0.951 . S
C2834 C2829 1.429 . S
C2834 C2833 1.347 . S
H2835 C2836 0.951 . S
C2836 H2835 0.951 . S
C2836 C2842 1.265 . S
H2837 C2842 0.950 . S
H2838 C2846 0.949 . S
H2839 C2847 0.950 . S
H2840 C2848 0.951 . S
H2841 C2849 0.951 . S
C2842 C2836 1.265 . S
C2842 H2837 0.950 . S
C2842 C2843 1.478 . S
C2843 C2830 1.394 . S
C2843 C2842 1.478 . S
C2843 C2844 1.397 . S
C2844 C2843 1.397 . S
C2844 C2845 1.438 . S
C2844 C2849 1.429 . S
C2845 C2828 1.394 . S
C2845 C2844 1.438 . S
C2845 C2846 1.428 . S
C2846 H2838 0.949 . S
C2846 C2845 1.428 . S
C2846 C2847 1.345 . S
C2847 H2839 0.950 . S
C2847 C2846 1.345 . S
C2847 C2848 1.424 . S
C2848 H2840 0.951 . S
C2848 C2847 1.424 . S
C2848 C2849 1.347 . S
C2849 H2841 0.951 . S
C2849 C2844 1.429 . S
C2849 C2848 1.347 . S
H2850 C2851 0.951 . S
C2851 H2850 0.951 . S
C2851 C2857 1.265 . S
H2852 C2857 0.950 . S
H2853 C2861 0.949 . S
H2854 C2862 0.950 . S
H2855 C2863 0.951 . S
H2856 C2864 0.951 . S
C2857 C2851 1.265 . S
C2857 H2852 0.950 . S
C2857 C2858 1.478 . S
C2858 C2857 1.478 . S
C2858 C2859 1.397 . S
C2858 C2875 1.394 . S
C2859 C2858 1.397 . S
C2859 C2860 1.438 . S
C2859 C2864 1.429 . S
C2860 C2859 1.438 . S
C2860 C2861 1.428 . S
C2860 C2873 1.394 . S
C2861 H2853 0.949 . S
C2861 C2860 1.428 . S
C2861 C2862 1.345 . S
C2862 H2854 0.950 . S
C2862 C2861 1.345 . S
C2862 C2863 1.424 . S
C2863 H2855 0.951 . S
C2863 C2862 1.424 . S
C2863 C2864 1.347 . S
C2864 H2856 0.951 . S
C2864 C2859 1.429 . S
C2864 C2863 1.347 . S
H2865 C2866 0.951 . S
C2866 H2865 0.951 . S
C2866 C2872 1.265 . S
H2867 C2872 0.950 . S
H2868 C2876 0.949 . S
H2869 C2877 0.950 . S
H2870 C2878 0.951 . S
H2871 C2879 0.951 . S
C2872 C2866 1.265 . S
C2872 H2867 0.950 . S
C2872 C2873 1.478 . S
C2873 C2860 1.394 . S
C2873 C2872 1.478 . S
C2873 C2874 1.397 . S
C2874 C2873 1.397 . S
C2874 C2875 1.438 . S
C2874 C2879 1.429 . S
C2875 C2858 1.394 . S
C2875 C2874 1.438 . S
C2875 C2876 1.428 . S
C2876 H2868 0.949 . S
C2876 C2875 1.428 . S
C2876 C2877 1.345 . S
C2877 H2869 0.950 . S
C2877 C2876 1.345 . S
C2877 C2878 1.424 . S
C2878 H2870 0.951 . S
C2878 C2877 1.424 . S
C2878 C2879 1.347 . S
C2879 H2871 0.951 . S
C2879 C2874 1.429 . S
C2879 C2878 1.347 . S
H2880 C2881 0.951 . S
C2881 H2880 0.951 . S
C2881 C2887 1.265 . S
H2882 C2887 0.950 . S
H2883 C2891 0.949 . S
H2884 C2892 0.950 . S
H2885 C2893 0.951 . S
H2886 C2894 0.951 . S
C2887 C2881 1.265 . S
C2887 H2882 0.950 . S
C2887 C2888 1.478 . S
C2888 C2887 1.478 . S
C2888 C2889 1.397 . S
C2888 C2905 1.355 1_545 S
C2889 C2888 1.397 . S
C2889 C2890 1.438 . S
C2889 C2894 1.429 . S
C2890 C2889 1.438 . S
C2890 C2891 1.428 . S
C2890 C2903 1.394 . S
C2891 H2883 0.949 . S
C2891 C2890 1.428 . S
C2891 C2892 1.345 . S
C2892 H2884 0.950 . S
C2892 C2891 1.345 . S
C2892 C2893 1.424 . S
C2893 H2885 0.951 . S
C2893 C2892 1.424 . S
C2893 C2894 1.347 . S
C2894 H2886 0.951 . S
C2894 C2889 1.429 . S
C2894 C2893 1.347 . S
H2895 C2896 0.951 . S
C2896 H2895 0.951 . S
C2896 C2902 1.265 1_545 S
H2897 C2902 0.950 . S
H2898 C2906 0.949 . S
H2899 C2907 0.950 . S
H2900 C2908 0.951 . S
H2901 C2909 0.951 . S
C2902 C2896 1.265 1_565 S
C2902 H2897 0.950 . S
C2902 C2903 1.478 1_565 S
C2903 C2890 1.394 . S
C2903 C2902 1.478 1_545 S
C2903 C2904 1.397 1_545 S
C2904 C2903 1.397 1_565 S
C2904 C2905 1.463 . S
C2904 C2909 1.429 . S
C2905 C2888 1.355 1_565 S
C2905 C2904 1.463 . S
C2905 C2906 1.443 . S
C2906 H2898 0.949 . S
C2906 C2905 1.443 . S
C2906 C2907 1.345 . S
C2907 H2899 0.950 . S
C2907 C2906 1.345 . S
C2907 C2908 1.424 . S
C2908 H2900 0.951 . S
C2908 C2907 1.424 . S
C2908 C2909 1.347 . S
C2909 H2901 0.951 . S
C2909 C2904 1.429 . S
C2909 C2908 1.347 . S
H2910 C2911 0.898 1_455 S
C2911 H2910 0.898 1_655 S
C2911 C2917 1.265 . S
H2912 C2917 0.950 . S
H2913 C2921 0.949 . S
H2914 C2922 0.950 . S
H2915 C2923 0.951 . S
H2916 C2924 0.951 . S
C2917 C2911 1.265 . S
C2917 H2912 0.950 . S
C2917 C2918 1.478 . S
C2918 C2917 1.478 . S
C2918 C2919 1.397 . S
C2918 C2935 1.394 . S
C2919 C2918 1.397 . S
C2919 C2920 1.438 . S
C2919 C2924 1.429 . S
C2920 C2919 1.438 . S
C2920 C2921 1.428 . S
C2920 C2933 1.394 . S
C2921 H2913 0.949 . S
C2921 C2920 1.428 . S
C2921 C2922 1.345 . S
C2922 H2914 0.950 . S
C2922 C2921 1.345 . S
C2922 C2923 1.424 . S
C2923 H2915 0.951 . S
C2923 C2922 1.424 . S
C2923 C2924 1.347 . S
C2924 H2916 0.951 . S
C2924 C2919 1.429 . S
C2924 C2923 1.347 . S
H2925 C2926 0.951 . S
C2926 H2925 0.951 . S
C2926 C2932 1.265 1_655 S
H2927 C2932 0.950 . S
H2928 C2936 0.949 . S
H2929 C2937 0.950 . S
H2930 C2938 0.951 . S
H2931 C2939 0.951 . S
C2932 C2926 1.265 1_455 S
C2932 H2927 0.950 . S
C2932 C2933 1.478 1_455 S
C2933 C2920 1.394 . S
C2933 C2932 1.478 1_655 S
C2933 C2934 1.397 1_655 S
C2934 C2933 1.397 1_455 S
C2934 C2935 1.438 1_455 S
C2934 C2939 1.429 . S
C2935 C2918 1.394 . S
C2935 C2934 1.438 1_655 S
C2935 C2936 1.428 1_655 S
C2936 H2928 0.949 . S
C2936 C2935 1.428 1_455 S
C2936 C2937 1.345 . S
C2937 H2929 0.950 . S
C2937 C2936 1.345 . S
C2937 C2938 1.424 . S
C2938 H2930 0.951 . S
C2938 C2937 1.424 . S
C2938 C2939 1.347 . S
C2939 H2931 0.951 . S
C2939 C2934 1.429 . S
C2939 C2938 1.347 . S
H2940 C2941 0.951 . S
C2941 H2940 0.951 . S
C2941 C2947 1.265 . S
H2942 C2947 0.950 . S
H2943 C2951 0.949 . S
H2944 C2952 0.950 . S
H2945 C2953 0.951 . S
H2946 C2954 0.951 . S
C2947 C2941 1.265 . S
C2947 H2942 0.950 . S
C2947 C2948 1.478 . S
C2948 C2947 1.478 . S
C2948 C2949 1.397 . S
C2948 C2965 1.394 . S
C2949 C2948 1.397 . S
C2949 C2950 1.438 . S
C2949 C2954 1.429 . S
C2950 C2949 1.438 . S
C2950 C2951 1.428 . S
C2950 C2963 1.394 . S
C2951 H2943 0.949 . S
C2951 C2950 1.428 . S
C2951 C2952 1.345 . S
C2952 H2944 0.950 . S
C2952 C2951 1.345 . S
C2952 C2953 1.424 . S
C2953 H2945 0.951 . S
C2953 C2952 1.424 . S
C2953 C2954 1.347 . S
C2954 H2946 0.951 . S
C2954 C2949 1.429 . S
C2954 C2953 1.347 . S
H2955 C2956 0.951 . S
C2956 H2955 0.951 . S
C2956 C2962 1.265 . S
H2957 C2962 0.950 . S
H2958 C2966 0.949 . S
H2959 C2967 0.950 . S
H2960 C2968 0.951 . S
H2961 C2969 0.951 . S
C2962 C2956 1.265 . S
C2962 H2957 0.950 . S
C2962 C2963 1.478 . S
C2963 C2950 1.394 . S
C2963 C2962 1.478 . S
C2963 C2964 1.397 . S
C2964 C2963 1.397 . S
C2964 C2965 1.438 . S
C2964 C2969 1.429 . S
C2965 C2948 1.394 . S
C2965 C2964 1.438 . S
C2965 C2966 1.428 . S
C2966 H2958 0.949 . S
C2966 C2965 1.428 . S
C2966 C2967 1.345 . S
C2967 H2959 0.950 . S
C2967 C2966 1.345 . S
C2967 C2968 1.424 . S
C2968 H2960 0.951 . S
C2968 C2967 1.424 . S
C2968 C2969 1.347 . S
C2969 H2961 0.951 . S
C2969 C2964 1.429 . S
C2969 C2968 1.347 . S
H2970 C2971 0.951 . S
C2971 H2970 0.951 . S
C2971 C2977 1.265 . S
H2972 C2977 0.950 . S
H2973 C2981 0.949 . S
H2974 C2982 0.950 . S
H2975 C2983 0.951 . S
H2976 C2984 0.951 . S
C2977 C2971 1.265 . S
C2977 H2972 0.950 . S
C2977 C2978 1.478 . S
C2978 C2977 1.478 . S
C2978 C2979 1.397 . S
C2978 C2995 1.394 . S
C2979 C2978 1.397 . S
C2979 C2980 1.438 . S
C2979 C2984 1.429 . S
C2980 C2979 1.438 . S
C2980 C2981 1.428 . S
C2980 C2993 1.394 . S
C2981 H2973 0.949 . S
C2981 C2980 1.428 . S
C2981 C2982 1.345 . S
C2982 H2974 0.950 . S
C2982 C2981 1.345 . S
C2982 C2983 1.424 . S
C2983 H2975 0.951 . S
C2983 C2982 1.424 . S
C2983 C2984 1.347 . S
C2984 H2976 0.951 . S
C2984 C2979 1.429 . S
C2984 C2983 1.347 . S
H2985 C2986 0.951 . S
C2986 H2985 0.951 . S
C2986 C2992 1.265 . S
H2987 C2992 0.950 . S
H2988 C2996 0.949 . S
H2989 C2997 0.950 . S
H2990 C2998 0.951 . S
H2991 C2999 0.951 . S
C2992 C2986 1.265 . S
C2992 H2987 0.950 . S
C2992 C2993 1.478 . S
C2993 C2980 1.394 . S
C2993 C2992 1.478 . S
C2993 C2994 1.397 . S
C2994 C2993 1.397 . S
C2994 C2995 1.438 . S
C2994 C2999 1.429 . S
C2995 C2978 1.394 . S
C2995 C2994 1.438 . S
C2995 C2996 1.428 . S
C2996 H2988 0.949 . S
C2996 C2995 1.428 . S
C2996 C2997 1.345 . S
C2997 H2989 0.950 . S
C2997 C2996 1.345 . S
C2997 C2998 1.424 . S
C2998 H2990 0.951 . S
C2998 C2997 1.424 . S
C2998 C2999 1.347 . S
C2999 H2991 0.951 . S
C2999 C2994 1.429 . S
C2999 C2998 1.347 . S
H3000 C3001 0.951 . S
C3001 H3000 0.951 . S
C3001 C3007 1.265 . S
H3002 C3007 0.950 . S
H3003 C3011 0.949 . S
H3004 C3012 0.950 . S
H3005 C3013 0.951 . S
H3006 C3014 0.951 . S
C3007 C3001 1.265 . S
C3007 H3002 0.950 . S
C3007 C3008 1.478 . S
C3008 C3007 1.478 . S
C3008 C3009 1.397 . S
C3008 C3025 1.394 . S
C3009 C3008 1.397 . S
C3009 C3010 1.438 . S
C3009 C3014 1.429 . S
C3010 C3009 1.438 . S
C3010 C3011 1.428 . S
C3010 C3023 1.394 . S
C3011 H3003 0.949 . S
C3011 C3010 1.428 . S
C3011 C3012 1.345 . S
C3012 H3004 0.950 . S
C3012 C3011 1.345 . S
C3012 C3013 1.424 . S
C3013 H3005 0.951 . S
C3013 C3012 1.424 . S
C3013 C3014 1.347 . S
C3014 H3006 0.951 . S
C3014 C3009 1.429 . S
C3014 C3013 1.347 . S
H3015 C3016 0.951 . S
C3016 H3015 0.951 . S
C3016 C3022 1.265 . S
H3017 C3022 0.950 . S
H3018 C3026 0.949 . S
H3019 C3027 0.950 . S
H3020 C3028 0.951 . S
H3021 C3029 0.951 . S
C3022 C3016 1.265 . S
C3022 H3017 0.950 . S
C3022 C3023 1.478 . S
C3023 C3010 1.394 . S
C3023 C3022 1.478 . S
C3023 C3024 1.397 . S
C3024 C3023 1.397 . S
C3024 C3025 1.438 . S
C3024 C3029 1.429 . S
C3025 C3008 1.394 . S
C3025 C3024 1.438 . S
C3025 C3026 1.428 . S
C3026 H3018 0.949 . S
C3026 C3025 1.428 . S
C3026 C3027 1.345 . S
C3027 H3019 0.950 . S
C3027 C3026 1.345 . S
C3027 C3028 1.424 . S
C3028 H3020 0.951 . S
C3028 C3027 1.424 . S
C3028 C3029 1.347 . S
C3029 H3021 0.951 . S
C3029 C3024 1.429 . S
C3029 C3028 1.347 . S
H3030 C3031 0.951 . S
C3031 H3030 0.951 . S
C3031 C3037 1.265 . S
H3032 C3037 0.950 . S
H3033 C3041 0.949 . S
H3034 C3042 0.950 . S
H3035 C3043 0.951 . S
H3036 C3044 0.951 . S
C3037 C3031 1.265 . S
C3037 H3032 0.950 . S
C3037 C3038 1.478 . S
C3038 C3037 1.478 . S
C3038 C3039 1.397 . S
C3038 C3055 1.394 . S
C3039 C3038 1.397 . S
C3039 C3040 1.438 . S
C3039 C3044 1.429 . S
C3040 C3039 1.438 . S
C3040 C3041 1.428 . S
C3040 C3053 1.394 . S
C3041 H3033 0.949 . S
C3041 C3040 1.428 . S
C3041 C3042 1.345 . S
C3042 H3034 0.950 . S
C3042 C3041 1.345 . S
C3042 C3043 1.424 . S
C3043 H3035 0.951 . S
C3043 C3042 1.424 . S
C3043 C3044 1.347 . S
C3044 H3036 0.951 . S
C3044 C3039 1.429 . S
C3044 C3043 1.347 . S
H3045 C3046 0.951 . S
C3046 H3045 0.951 . S
C3046 C3052 1.265 . S
H3047 C3052 0.950 . S
H3048 C3056 0.949 . S
H3049 C3057 0.950 . S
H3050 C3058 0.951 . S
H3051 C3059 0.951 . S
C3052 C3046 1.265 . S
C3052 H3047 0.950 . S
C3052 C3053 1.478 . S
C3053 C3040 1.394 . S
C3053 C3052 1.478 . S
C3053 C3054 1.397 . S
C3054 C3053 1.397 . S
C3054 C3055 1.438 . S
C3054 C3059 1.429 . S
C3055 C3038 1.394 . S
C3055 C3054 1.438 . S
C3055 C3056 1.428 . S
C3056 H3048 0.949 . S
C3056 C3055 1.428 . S
C3056 C3057 1.345 . S
C3057 H3049 0.950 . S
C3057 C3056 1.345 . S
C3057 C3058 1.424 . S
C3058 H3050 0.951 . S
C3058 C3057 1.424 . S
C3058 C3059 1.347 . S
C3059 H3051 0.951 . S
C3059 C3054 1.429 . S
C3059 C3058 1.347 . S
H3060 C3061 0.951 . S
C3061 H3060 0.951 . S
C3061 C3067 1.265 . S
H3062 C3067 0.950 . S
H3063 C3071 0.949 . S
H3064 C3072 0.950 . S
H3065 C3073 0.951 . S
H3066 C3074 0.951 . S
C3067 C3061 1.265 . S
C3067 H3062 0.950 . S
C3067 C3068 1.478 . S
C3068 C3067 1.478 . S
C3068 C3069 1.397 . S
C3068 C3085 1.394 . S
C3069 C3068 1.397 . S
C3069 C3070 1.438 . S
C3069 C3074 1.429 . S
C3070 C3069 1.438 . S
C3070 C3071 1.428 . S
C3070 C3083 1.394 . S
C3071 H3063 0.949 . S
C3071 C3070 1.428 . S
C3071 C3072 1.345 . S
C3072 H3064 0.950 . S
C3072 C3071 1.345 . S
C3072 C3073 1.424 . S
C3073 H3065 0.951 . S
C3073 C3072 1.424 . S
C3073 C3074 1.347 . S
C3074 H3066 0.951 . S
C3074 C3069 1.429 . S
C3074 C3073 1.347 . S
H3075 C3076 0.951 . S
C3076 H3075 0.951 . S
C3076 C3082 1.265 . S
H3077 C3082 0.950 . S
H3078 C3086 0.949 . S
H3079 C3087 0.950 . S
H3080 C3088 0.951 . S
H3081 C3089 0.951 . S
C3082 C3076 1.265 . S
C3082 H3077 0.950 . S
C3082 C3083 1.478 . S
C3083 C3070 1.394 . S
C3083 C3082 1.478 . S
C3083 C3084 1.397 . S
C3084 C3083 1.397 . S
C3084 C3085 1.438 . S
C3084 C3089 1.429 . S
C3085 C3068 1.394 . S
C3085 C3084 1.438 . S
C3085 C3086 1.428 . S
C3086 H3078 0.949 . S
C3086 C3085 1.428 . S
C3086 C3087 1.345 . S
C3087 H3079 0.950 . S
C3087 C3086 1.345 . S
C3087 C3088 1.424 . S
C3088 H3080 0.951 . S
C3088 C3087 1.424 . S
C3088 C3089 1.347 . S
C3089 H3081 0.951 . S
C3089 C3084 1.429 . S
C3089 C3088 1.347 . S
H3090 C3091 0.951 . S
C3091 H3090 0.951 . S
C3091 C3097 1.265 . S
H3092 C3097 0.950 . S
H3093 C3101 0.949 . S
H3094 C3102 0.950 . S
H3095 C3103 0.951 . S
H3096 C3104 0.951 . S
C3097 C3091 1.265 . S
C3097 H3092 0.950 . S
C3097 C3098 1.478 . S
C3098 C3097 1.478 . S
C3098 C3099 1.397 . S
C3098 C3115 1.394 . S
C3099 C3098 1.397 . S
C3099 C3100 1.438 . S
C3099 C3104 1.429 . S
C3100 C3099 1.438 . S
C3100 C3101 1.428 . S
C3100 C3113 1.394 . S
C3101 H3093 0.949 . S
C3101 C3100 1.428 . S
C3101 C3102 1.345 . S
C3102 H3094 0.950 . S
C3102 C3101 1.345 . S
C3102 C3103 1.424 . S
C3103 H3095 0.951 . S
C3103 C3102 1.424 . S
C3103 C3104 1.347 . S
C3104 H3096 0.951 . S
C3104 C3099 1.429 . S
C3104 C3103 1.347 . S
H3105 C3106 0.951 . S
C3106 H3105 0.951 . S
C3106 C3112 1.265 . S
H3107 C3112 0.950 . S
H3108 C3116 0.949 . S
H3109 C3117 0.950 . S
H3110 C3118 0.951 . S
H3111 C3119 0.951 . S
C3112 C3106 1.265 . S
C3112 H3107 0.950 . S
C3112 C3113 1.478 . S
C3113 C3100 1.394 . S
C3113 C3112 1.478 . S
C3113 C3114 1.397 . S
C3114 C3113 1.397 . S
C3114 C3115 1.438 . S
C3114 C3119 1.429 . S
C3115 C3098 1.394 . S
C3115 C3114 1.438 . S
C3115 C3116 1.428 . S
C3116 H3108 0.949 . S
C3116 C3115 1.428 . S
C3116 C3117 1.345 . S
C3117 H3109 0.950 . S
C3117 C3116 1.345 . S
C3117 C3118 1.424 . S
C3118 H3110 0.951 . S
C3118 C3117 1.424 . S
C3118 C3119 1.347 . S
C3119 H3111 0.951 . S
C3119 C3114 1.429 . S
C3119 C3118 1.347 . S
H3120 C3121 0.951 . S
C3121 H3120 0.951 . S
C3121 C3127 1.265 . S
H3122 C3127 0.950 . S
H3123 C3131 0.949 . S
H3124 C3132 0.950 . S
H3125 C3133 0.951 . S
H3126 C3134 0.951 . S
C3127 C3121 1.265 . S
C3127 H3122 0.950 . S
C3127 C3128 1.478 . S
C3128 C3127 1.478 . S
C3128 C3129 1.397 . S
C3128 C3145 1.394 . S
C3129 C3128 1.397 . S
C3129 C3130 1.438 . S
C3129 C3134 1.429 . S
C3130 C3129 1.438 . S
C3130 C3131 1.428 . S
C3130 C3143 1.394 . S
C3131 H3123 0.949 . S
C3131 C3130 1.428 . S
C3131 C3132 1.345 . S
C3132 H3124 0.950 . S
C3132 C3131 1.345 . S
C3132 C3133 1.424 . S
C3133 H3125 0.951 . S
C3133 C3132 1.424 . S
C3133 C3134 1.347 . S
C3134 H3126 0.951 . S
C3134 C3129 1.429 . S
C3134 C3133 1.347 . S
H3135 C3136 0.951 . S
C3136 H3135 0.951 . S
C3136 C3142 1.265 . S
H3137 C3142 0.950 . S
H3138 C3146 0.949 . S
H3139 C3147 0.950 . S
H3140 C3148 0.951 . S
H3141 C3149 0.951 . S
C3142 C3136 1.265 . S
C3142 H3137 0.950 . S
C3142 C3143 1.478 . S
C3143 C3130 1.394 . S
C3143 C3142 1.478 . S
C3143 C3144 1.397 . S
C3144 C3143 1.397 . S
C3144 C3145 1.438 . S
C3144 C3149 1.429 . S
C3145 C3128 1.394 . S
C3145 C3144 1.438 . S
C3145 C3146 1.428 . S
C3146 H3138 0.949 . S
C3146 C3145 1.428 . S
C3146 C3147 1.345 . S
C3147 H3139 0.950 . S
C3147 C3146 1.345 . S
C3147 C3148 1.424 . S
C3148 H3140 0.951 . S
C3148 C3147 1.424 . S
C3148 C3149 1.347 . S
C3149 H3141 0.951 . S
C3149 C3144 1.429 . S
C3149 C3148 1.347 . S
H3150 C3151 0.951 1_455 S
C3151 H3150 0.951 1_655 S
C3151 C3157 1.265 . S
H3152 C3157 0.950 . S
H3153 C3161 0.949 . S
H3154 C3162 0.950 . S
H3155 C3163 0.951 . S
H3156 C3164 0.951 . S
C3157 C3151 1.265 . S
C3157 H3152 0.950 . S
C3157 C3158 1.478 . S
C3158 C3157 1.478 . S
C3158 C3159 1.397 . S
C3158 C3175 1.394 . S
C3159 C3158 1.397 . S
C3159 C3160 1.438 . S
C3159 C3164 1.429 . S
C3160 C3159 1.438 . S
C3160 C3161 1.428 . S
C3160 C3173 1.394 . S
C3161 H3153 0.949 . S
C3161 C3160 1.428 . S
C3161 C3162 1.345 . S
C3162 H3154 0.950 . S
C3162 C3161 1.345 . S
C3162 C3163 1.424 . S
C3163 H3155 0.951 . S
C3163 C3162 1.424 . S
C3163 C3164 1.347 . S
C3164 H3156 0.951 . S
C3164 C3159 1.429 . S
C3164 C3163 1.347 . S
H3165 C3166 0.951 . S
C3166 H3165 0.951 . S
C3166 C3172 1.265 1_655 S
H3167 C3172 0.950 . S
H3168 C3176 0.949 . S
H3169 C3177 0.950 . S
H3170 C3178 0.951 . S
H3171 C3179 0.951 . S
C3172 C3166 1.265 1_455 S
C3172 H3167 0.950 . S
C3172 C3173 1.478 1_455 S
C3173 C3160 1.394 . S
C3173 C3172 1.478 1_655 S
C3173 C3174 1.397 1_655 S
C3174 C3173 1.397 1_455 S
C3174 C3175 1.438 1_455 S
C3174 C3179 1.429 . S
C3175 C3158 1.394 . S
C3175 C3174 1.438 1_655 S
C3175 C3176 1.428 1_655 S
C3176 H3168 0.949 . S
C3176 C3175 1.428 1_455 S
C3176 C3177 1.345 . S
C3177 H3169 0.950 . S
C3177 C3176 1.345 . S
C3177 C3178 1.424 . S
C3178 H3170 0.951 . S
C3178 C3177 1.424 . S
C3178 C3179 1.347 . S
C3179 H3171 0.951 . S
C3179 C3174 1.429 . S
C3179 C3178 1.347 . S
H3180 C3181 0.951 . S
C3181 H3180 0.951 . S
C3181 C3187 1.265 . S
H3182 C3187 0.950 . S
H3183 C3191 0.949 . S
H3184 C3192 0.950 . S
H3185 C3193 0.951 . S
H3186 C3194 0.951 . S
C3187 C3181 1.265 . S
C3187 H3182 0.950 . S
C3187 C3188 1.478 . S
C3188 C3187 1.478 . S
C3188 C3189 1.397 . S
C3188 C3205 1.394 . S
C3189 C3188 1.397 . S
C3189 C3190 1.438 . S
C3189 C3194 1.429 . S
C3190 C3189 1.438 . S
C3190 C3191 1.428 . S
C3190 C3203 1.394 . S
C3191 H3183 0.949 . S
C3191 C3190 1.428 . S
C3191 C3192 1.345 . S
C3192 H3184 0.950 . S
C3192 C3191 1.345 . S
C3192 C3193 1.424 . S
C3193 H3185 0.951 . S
C3193 C3192 1.424 . S
C3193 C3194 1.347 . S
C3194 H3186 0.951 . S
C3194 C3189 1.429 . S
C3194 C3193 1.347 . S
H3195 C3196 0.951 . S
C3196 H3195 0.951 . S
C3196 C3202 1.265 . S
H3197 C3202 0.950 . S
H3198 C3206 0.949 . S
H3199 C3207 0.950 . S
H3200 C3208 0.951 . S
H3201 C3209 0.951 . S
C3202 C3196 1.265 . S
C3202 H3197 0.950 . S
C3202 C3203 1.478 . S
C3203 C3190 1.394 . S
C3203 C3202 1.478 . S
C3203 C3204 1.397 . S
C3204 C3203 1.397 . S
C3204 C3205 1.438 . S
C3204 C3209 1.429 . S
C3205 C3188 1.394 . S
C3205 C3204 1.438 . S
C3205 C3206 1.428 . S
C3206 H3198 0.949 . S
C3206 C3205 1.428 . S
C3206 C3207 1.345 . S
C3207 H3199 0.950 . S
C3207 C3206 1.345 . S
C3207 C3208 1.424 . S
C3208 H3200 0.951 . S
C3208 C3207 1.424 . S
C3208 C3209 1.347 . S
C3209 H3201 0.951 . S
C3209 C3204 1.429 . S
C3209 C3208 1.347 . S
H3210 C3211 0.951 . S
C3211 H3210 0.951 . S
C3211 C3217 1.265 . S
H3212 C3217 0.950 . S
H3213 C3221 0.949 . S
H3214 C3222 0.950 . S
H3215 C3223 0.951 . S
H3216 C3224 0.951 . S
C3217 C3211 1.265 . S
C3217 H3212 0.950 . S
C3217 C3218 1.478 . S
C3218 C3217 1.478 . S
C3218 C3219 1.397 1_545 S
C3218 C3235 1.394 . S
C3219 C3218 1.397 1_565 S
C3219 C3220 1.438 . S
C3219 C3224 1.429 . S
C3220 C3219 1.438 . S
C3220 C3221 1.428 . S
C3220 C3233 1.394 1_565 S
C3221 H3213 0.949 . S
C3221 C3220 1.428 . S
C3221 C3222 1.345 . S
C3222 H3214 0.950 . S
C3222 C3221 1.345 . S
C3222 C3223 1.424 . S
C3223 H3215 0.951 . S
C3223 C3222 1.424 . S
C3223 C3224 1.347 . S
C3224 H3216 0.951 . S
C3224 C3219 1.429 . S
C3224 C3223 1.347 . S
H3225 C3226 0.951 . S
C3226 H3225 0.951 . S
C3226 C3232 1.265 . S
H3227 C3232 0.950 . S
H3228 C3236 0.949 . S
H3229 C3237 0.950 . S
H3230 C3238 0.951 . S
H3231 C3239 0.951 . S
C3232 C3226 1.265 . S
C3232 H3227 0.950 . S
C3232 C3233 1.478 . S
C3233 C3220 1.394 1_545 S
C3233 C3232 1.478 . S
C3233 C3234 1.397 . S
C3234 C3233 1.397 . S
C3234 C3235 1.438 . S
C3234 C3239 1.429 . S
C3235 C3218 1.394 . S
C3235 C3234 1.438 . S
C3235 C3236 1.428 . S
C3236 H3228 0.949 . S
C3236 C3235 1.428 . S
C3236 C3237 1.345 . S
C3237 H3229 0.950 . S
C3237 C3236 1.345 . S
C3237 C3238 1.424 . S
C3238 H3230 0.951 . S
C3238 C3237 1.424 . S
C3238 C3239 1.347 . S
C3239 H3231 0.951 . S
C3239 C3234 1.429 . S
C3239 C3238 1.347 . S
C1081 C4 1.385 . S
C1096 C688 1.448 . S
C1111 C26 1.546 . S
C1126 C734 1.501 . S
C1156 C766 1.402 . S
C1141 C32 1.310 . S
C1171 C40 1.402 . S
C1186 C819 1.405 . S
C1201 C12 1.464 . S
C1216 C865 1.461 . S
C1231 C18 1.465 . S
C1246 C904 1.513 . S
C1261 C46 1.378 . S
C1276 C858 1.430 . S
C1306 C911 1.514 . S
C1291 C68 1.542 . S
C1336 C812 1.414 . S
C1321 C74 1.319 . S
C1351 C82 1.335 . S
C1366 C773 1.383 . S
C1396 C667 1.465 . S
C1381 C54 1.416 . S
C1411 C60 1.452 . S
C1426 C713 1.510 . S
C1441 C88 1.571 . S
C1456 C943 1.611 . S
C1471 C110 1.606 . S
C1486 C1010 1.612 . S
C1516 C1056 1.565 . S
C1501 C116 1.577 . S
C1531 C124 1.439 . S
C1546 C267 1.470 . S
C1561 C96 1.524 . S
C1576 C313 1.549 . S
C1591 C102 1.544 . S
C1606 C359 1.525 . S
C1621 C130 1.456 . S
C1636 C306 1.512 . S
C1651 C152 1.589 . S
C1666 C352 1.590 . S
C1696 C260 1.588 . S
C1681 C158 1.513 . S
C1726 C1035 1.526 . S
C1711 C166 1.555 . S
C1756 C964 1.501 . S
C1741 C138 1.528 . S
C1786 C989 1.589 . S
C1771 C144 1.567 . S
C1801 C172 1.547 . S
C1816 C391 1.544 . S
C1831 C194 1.603 . S
C1846 C444 1.566 . S
C1861 C200 1.587 . S
C1876 C490 1.588 . S
C1891 C208 1.520 . S
C1906 C536 1.538 . S
C1936 C589 1.496 . S
C1921 C180 1.530 . S
C1966 C635 1.550 . S
C1951 C186 1.485 . S
C1996 C582 1.608 . S
C1981 C214 1.558 . S
C2026 C628 1.612 . S
C2011 C236 1.601 . S
C2041 C242 1.524 . S
C2056 C543 1.586 . S
C2086 C497 1.457 . S
C2071 C250 1.436 . S
C2101 C222 1.528 . S
C2116 C412 1.554 . S
C2146 C451 1.558 . S
C2131 C228 1.546 . S
C2176 C274 1.510 . S
C2161 C5 1.242 . S
C2191 C25 1.446 . S
C2206 C320 1.396 . S
C2236 C366 1.565 . S
C2221 C33 1.434 . S
C2266 C398 1.452 . S
C2251 C39 1.435 . S
C2296 C437 1.507 . S
C2281 C11 1.506 . S
C2326 C483 1.382 . S
C2311 C19 1.115 . S
C2341 C47 1.409 1_556 S
C2356 C504 1.544 . S
C2371 C67 1.422 . S
C2386 C405 1.436 . S
C2401 C75 1.432 1_556 S
C2416 C458 1.574 . S
C2431 C81 1.460 . S
C2446 C299 1.414 . S
C2476 C345 1.448 . S
C2461 C53 1.481 . S
C2491 C61 1.149 . S
C2506 C253 1.417 . S
C2536 C529 1.440 . S
C2521 C89 1.293 . S
C2551 C109 1.557 . S
C2566 C596 1.492 . S
C2581 C117 1.282 . S
C2596 C642 1.505 . S
C2626 C681 1.210 . S
C2611 C123 1.234 . S
C2641 C95 1.432 . S
C2656 C727 1.378 . S
C2671 C103 1.178 . S
C2686 C759 1.249 . S
C2701 C131 1.177 . S
C2716 C780 1.247 . S
C2731 C151 1.203 . S
C2746 C674 1.280 . S
C2776 C720 1.412 . S
C2761 C159 1.167 . S
C2791 C165 1.425 . S
C2806 C575 1.366 . S
C2821 C137 1.495 . S
C2836 C621 1.528 . S
C2866 C550 1.532 . S
C2851 C145 1.351 . S
C2896 C826 1.261 . S
C2881 C173 1.132 . S
C2911 C193 1.233 . S
C2926 C872 1.228 . S
C2941 C201 1.129 . S
C2956 C897 1.396 . S
C2986 C950 1.400 . S
C2971 C207 1.374 . S
C3016 C1003 1.541 . S
C3001 C179 1.513 . S
C3031 C187 1.352 . S
C3046 C1049 1.513 . S
C3061 C215 1.346 . S
C3076 C1042 1.496 . S
C3091 C235 1.530 . S
C3106 C957 1.529 . S
C3136 C996 1.499 . S
C3121 C243 1.216 . S
C3166 C851 1.199 . S
C3151 C249 1.214 . S
C3196 C918 1.378 . S
C3181 C221 1.427 . S
C3211 C229 1.185 . S
C3226 C805 1.257 . S
