# Generated by pormake.
# Topology zzz, (3,6)-cn, num edge types: 1
# Building blocks:
#     Node 0, Type 0, BuildingBlock: PAMTOO_clean_linker_0, # of connection points: 3
#     Node 1, Type 0, BuildingBlock: PAMTOO_clean_linker_0, # of connection points: 3
#     Node 2, Type 0, BuildingBlock: PAMTOO_clean_linker_0, # of connection points: 3
#     Node 3, Type 0, BuildingBlock: PAMTOO_clean_linker_0, # of connection points: 3
#     Node 4, Type 0, BuildingBlock: PAMTOO_clean_linker_0, # of connection points: 3
#     Node 5, Type 0, BuildingBlock: PAMTOO_clean_linker_0, # of connection points: 3
#     Node 6, Type 0, BuildingBlock: PAMTOO_clean_linker_0, # of connection points: 3
#     Node 7, Type 0, BuildingBlock: PAMTOO_clean_linker_0, # of connection points: 3
#     Node 8, Type 1, BuildingBlock: BETGAK_clean_sbu_0, # of connection points: 6
#     Node 9, Type 1, BuildingBlock: BETGAK_clean_sbu_0, # of connection points: 6
#     Node 10, Type 1, BuildingBlock: BETGAK_clean_sbu_0, # of connection points: 6
#     Node 11, Type 1, BuildingBlock: BETGAK_clean_sbu_0, # of connection points: 6
#     Edge 12, Type (0, 1), BuildingBlock: MIFKUJ_clean_linker_0, # of connection points: 2
#     Edge 13, Type (0, 1), BuildingBlock: MIFKUJ_clean_linker_0, # of connection points: 2
#     Edge 14, Type (0, 1), BuildingBlock: MIFKUJ_clean_linker_0, # of connection points: 2
#     Edge 15, Type (0, 1), BuildingBlock: MIFKUJ_clean_linker_0, # of connection points: 2
#     Edge 16, Type (0, 1), BuildingBlock: MIFKUJ_clean_linker_0, # of connection points: 2
#     Edge 17, Type (0, 1), BuildingBlock: MIFKUJ_clean_linker_0, # of connection points: 2
#     Edge 18, Type (0, 1), BuildingBlock: MIFKUJ_clean_linker_0, # of connection points: 2
#     Edge 19, Type (0, 1), BuildingBlock: MIFKUJ_clean_linker_0, # of connection points: 2
#     Edge 20, Type (0, 1), BuildingBlock: MIFKUJ_clean_linker_0, # of connection points: 2
#     Edge 21, Type (0, 1), BuildingBlock: MIFKUJ_clean_linker_0, # of connection points: 2
#     Edge 22, Type (0, 1), BuildingBlock: MIFKUJ_clean_linker_0, # of connection points: 2
#     Edge 23, Type (0, 1), BuildingBlock: MIFKUJ_clean_linker_0, # of connection points: 2
#     Edge 24, Type (0, 1), BuildingBlock: MIFKUJ_clean_linker_0, # of connection points: 2
#     Edge 25, Type (0, 1), BuildingBlock: MIFKUJ_clean_linker_0, # of connection points: 2
#     Edge 26, Type (0, 1), BuildingBlock: MIFKUJ_clean_linker_0, # of connection points: 2
#     Edge 27, Type (0, 1), BuildingBlock: MIFKUJ_clean_linker_0, # of connection points: 2
#     Edge 28, Type (0, 1), BuildingBlock: MIFKUJ_clean_linker_0, # of connection points: 2
#     Edge 29, Type (0, 1), BuildingBlock: MIFKUJ_clean_linker_0, # of connection points: 2
#     Edge 30, Type (0, 1), BuildingBlock: MIFKUJ_clean_linker_0, # of connection points: 2
#     Edge 31, Type (0, 1), BuildingBlock: MIFKUJ_clean_linker_0, # of connection points: 2
#     Edge 32, Type (0, 1), BuildingBlock: MIFKUJ_clean_linker_0, # of connection points: 2
#     Edge 33, Type (0, 1), BuildingBlock: MIFKUJ_clean_linker_0, # of connection points: 2
#     Edge 34, Type (0, 1), BuildingBlock: MIFKUJ_clean_linker_0, # of connection points: 2
#     Edge 35, Type (0, 1), BuildingBlock: MIFKUJ_clean_linker_0, # of connection points: 2
# Relax obj value: 0.231
# Max RMSD: 0.178
# Mean RMSD: 0.158
data_MOF--net-zzz--node1-BETGAK_clean_sbu_0--node2-PAMTOO_clean_linker_0--edge1-MIFKUJ_clean_linker_0
_symmetry_space_group_name_H-M    P1
_symmetry_Int_Tables_number       1
_symmetry_cell_setting            triclinic
loop_
_symmetry_equiv_pos_as_xyz
'x, y, z'
_cell_length_a     68.293011
_cell_length_b     68.269927
_cell_length_c     17.338033
_cell_angle_alpha  90.295292
_cell_angle_beta   90.047587
_cell_angle_gamma 90.474099
loop_
_atom_site_label
_atom_site_type_symbol
_atom_site_fract_x
_atom_site_fract_y
_atom_site_fract_z
_atom_type_partial_charge
H0 H 0.80527 0.52931 0.20598 0.0
H1 H 0.74422 0.53336 0.15253 0.0
H2 H 0.76238 0.51152 0.37437 0.0
H3 H 0.71763 0.49326 0.30903 0.0
C4 C 0.72127 0.50213 0.25736 0.0
O5 O 0.73162 0.51869 0.28148 0.0
H6 H 0.73049 0.49263 0.21988 0.0
C7 C 0.79015 0.52723 0.22343 0.0
C8 C 0.78601 0.52012 0.29732 0.0
C9 C 0.77523 0.53183 0.17134 0.0
C10 C 0.75569 0.52962 0.19278 0.0
C11 C 0.75088 0.52181 0.26488 0.0
C12 C 0.76607 0.51733 0.3182 0.0
H13 H 0.977 0.79203 0.23983 0.0
H14 H 0.98495 0.73271 0.16292 0.0
H15 H 0.0151 0.75384 0.36548 0.0
H16 H 0.03667 0.71297 0.2723 0.0
C17 C 0.02508 0.71696 0.23039 0.0
O18 O 1.0087 0.72292 0.27163 0.0
H19 H 0.03103 0.72932 0.19545 0.0
C20 C 0.98286 0.77754 0.24936 0.0
C21 C 0.99569 0.77486 0.3117 0.0
C22 C 0.97913 0.76268 0.19461 0.0
C23 C 0.98767 0.74432 0.20451 0.0
C24 C 1.00062 0.74101 0.26543 0.0
C25 C 1.00491 0.75637 0.31881 0.0
H26 H 0.7231 1.00332 0.18385 0.0
H27 H 0.7821 0.99763 0.10005 0.0
H28 H 0.77088 0.99848 0.34418 0.0
H29 H 0.81536 0.01652 0.29013 0.0
C30 C 0.81169 1.01198 0.23014 0.0
O31 O 0.79858 0.99631 0.23396 0.0
H32 H 0.80484 0.02479 0.20159 0.0
C33 C 0.73861 1.00148 0.19454 0.0
C34 C 0.74511 1.00049 0.27112 0.0
C35 C 0.75176 1.00064 0.13225 0.0
C36 C 0.77181 0.99867 0.1473 0.0
C37 C 0.77891 0.99821 0.22296 0.0
C38 C 0.76551 0.99916 0.28549 0.0
H39 H 0.49302 0.72148 0.21121 0.0
H40 H 0.50524 0.77958 0.12985 0.0
H41 H 0.52568 0.76209 0.35388 0.0
H42 H 0.5179 0.81192 0.33105 0.0
C43 C 0.51375 0.80776 0.27114 0.0
O44 O 0.52437 0.79125 0.25061 0.0
H45 H 0.49774 0.8045 0.27126 0.0
C46 C 0.4991 0.73598 0.22147 0.0
C47 C 0.50916 0.73983 0.29078 0.0
C48 C 0.4976 0.75016 0.16335 0.0
C49 C 0.5063 0.76856 0.17438 0.0
C50 C 0.51615 0.7731 0.24295 0.0
C51 C 0.51779 0.75866 0.30125 0.0
H52 H 0.22196 0.51946 0.21832 0.0
H53 H 0.28138 0.51978 0.29929 0.0
H54 H 0.26873 0.50437 0.0629 0.0
H55 H 0.3123 0.4855 0.1324 0.0
C56 C 0.3074 0.49249 0.18699 0.0
O57 O 0.29693 0.5092 0.16899 0.0
H58 H 0.29788 0.48151 0.21644 0.0
C59 C 0.23737 0.51689 0.2074 0.0
C60 C 0.24341 0.51176 0.13267 0.0
C61 C 0.25084 0.51978 0.26756 0.0
C62 C 0.27082 0.5171 0.25366 0.0
C63 C 0.27733 0.51104 0.1808 0.0
C64 C 0.26361 0.50831 0.11994 0.0
H65 H 0.99309 0.22404 0.15974 0.0
H66 H 0.99875 0.28399 0.23531 0.0
H67 H 0.02914 0.2644 0.03204 0.0
H68 H 0.04963 0.30574 0.12617 0.0
C69 C 0.03753 0.3025 0.16706 0.0
O70 O 0.02171 0.29508 0.12534 0.0
H71 H 0.0433 0.29133 0.20766 0.0
C72 C 0.99875 0.23875 0.15127 0.0
C73 C 1.01118 0.24232 0.0885 0.0
C74 C 0.99447 0.25353 0.20535 0.0
C75 C 1.00211 0.27241 0.19453 0.0
C76 C 0.01467 0.27647 0.13296 0.0
C77 C 0.01941 0.26132 0.07984 0.0
H78 H 0.29863 0.97797 0.16179 0.0
H79 H 0.23894 0.98779 0.22774 0.0
H80 H 0.26363 0.01907 0.03529 0.0
H81 H 0.22307 0.04169 0.12866 0.0
C82 C 0.2252 0.02885 0.16675 0.0
O83 O 0.23145 0.01319 0.12174 0.0
H84 H 0.23667 0.0333 0.20927 0.0
C85 C 0.28465 0.98485 0.15072 0.0
C86 C 0.28317 0.99832 0.09007 0.0
C87 C 0.26894 0.9811 0.2008 0.0
C88 C 0.25115 0.99061 0.18935 0.0
C89 C 0.24912 1.00438 0.13053 0.0
C90 C 0.26523 1.00846 0.08101 0.0
H91 H 0.51697 0.30252 0.21872 0.0
H92 H 0.50856 0.2434 0.29694 0.0
H93 H 0.50927 0.25578 0.05372 0.0
H94 H 0.53561 0.22145 0.18733 0.0
C95 C 0.52227 0.2145 0.1618 0.0
O96 O 0.50675 0.22757 0.16119 0.0
H97 H 0.5258 0.21071 0.10099 0.0
C98 C 0.51443 0.28712 0.20623 0.0
C99 C 0.51303 0.28108 0.129 0.0
C100 C 0.51265 0.27376 0.26727 0.0
C101 C 0.50994 0.25384 0.25052 0.0
C102 C 0.50906 0.24716 0.17416 0.0
C103 C 0.51028 0.26085 0.11287 0.0
La104 La 0.02831 1.00216 0.77343 0.0
La105 La 1.00724 0.01442 0.62786 0.0
C106 C 0.03184 0.98886 0.90771 0.0
C107 C 0.02251 0.97194 0.94444 0.0
C108 C 0.03318 0.96065 0.99667 0.0
C109 C 0.0263 0.94214 0.01794 0.0
C110 C 1.00866 0.93475 0.98711 0.0
C111 C 0.99728 0.94677 0.93961 0.0
C112 C 1.00423 0.96517 0.91799 0.0
C113 C 0.05521 1.0088 0.66538 0.0
C114 C 0.01728 0.97055 0.6412 0.0
C115 C 0.99653 0.03442 0.51526 0.0
C116 C 0.99096 0.0553 0.51713 0.0
C117 C 0.97264 0.061 0.54667 0.0
C118 C 0.96892 0.08064 0.56342 0.0
C119 C 0.98343 0.09494 0.55104 0.0
C120 C 1.00135 0.08939 0.51799 0.0
C121 C 1.00504 0.06979 0.50088 0.0
C122 C 0.98418 1.00079 0.73879 0.0
C123 C 0.02058 0.04715 0.75424 0.0
O124 O 0.04355 0.98437 0.85083 0.0
O125 O 0.0203 1.0034 0.89025 0.0
O126 O 0.05897 1.00438 0.73643 0.0
O127 O 0.0368 1.01029 0.65975 0.0
O128 O 0.01978 0.97406 0.71634 0.0
O129 O 0.01466 0.98493 0.59148 0.0
O130 O 0.98481 0.02237 0.55171 0.0
O131 O 0.01496 0.03085 0.53031 0.0
O132 O 0.98145 0.99774 0.66562 0.0
O133 O 0.99923 1.01157 0.74641 0.0
O134 O 1.01001 0.0424 0.69234 0.0
O135 O 0.03029 0.03377 0.7937 0.0
H136 H 0.04739 0.96562 0.01709 0.0
H137 H 0.03527 0.93315 0.05494 0.0
H138 H 0.98378 0.94134 0.91412 0.0
H139 H 0.99593 0.97352 0.87653 0.0
H140 H 0.96143 0.05022 0.55993 0.0
H141 H 0.95494 0.08455 0.58831 0.0
H142 H 1.01259 0.10021 0.50572 0.0
H143 H 0.01924 0.06591 0.47785 0.0
La144 La 0.52409 0.02011 0.7718 0.0
La145 La 0.51153 0.9987 0.64129 0.0
C146 C 0.5442 0.0342 0.87995 0.0
C147 C 0.56361 0.04337 0.87184 0.0
C148 C 0.56864 0.05261 0.80218 0.0
C149 C 0.58809 0.05739 0.78611 0.0
C150 C 0.60289 0.0529 0.83919 0.0
C151 C 0.59764 0.04471 0.91082 0.0
C152 C 0.57814 0.03995 0.92689 0.0
C153 C 0.51249 0.04316 0.65738 0.0
C154 C 0.55585 1.00735 0.64376 0.0
C155 C 0.4916 0.98656 0.52872 0.0
C156 C 0.47095 0.97992 0.52608 0.0
C157 C 0.46579 0.96053 0.54511 0.0
C158 C 0.44612 0.95505 0.5525 0.0
C159 C 0.4313 0.96886 0.54124 0.0
C160 C 0.43643 0.98802 0.51946 0.0
C161 C 0.45603 0.99346 0.5116 0.0
C162 C 0.52342 0.9755 0.75427 0.0
C163 C 0.47999 1.0102 0.77211 0.0
O164 O 0.52976 0.04355 0.84778 0.0
O165 O 0.54371 0.01551 0.86327 0.0
O166 O 0.50853 0.04577 0.72945 0.0
O167 O 0.52279 0.02794 0.65114 0.0
O168 O 0.55236 1.01212 0.71661 0.0
O169 O 0.54102 1.0037 0.59691 0.0
O170 O 0.50371 0.97552 0.56704 0.0
O171 O 0.49439 1.00515 0.54443 0.0
O172 O 0.52699 0.97286 0.68169 0.0
O173 O 0.51317 0.99074 0.76188 0.0
O174 O 0.48331 1.00571 0.6988 0.0
O175 O 0.49494 0.01412 0.81818 0.0
H176 H 0.55768 0.05513 0.75814 0.0
H177 H 0.59164 0.0638 0.73078 0.0
H178 H 0.60873 0.04076 0.9525 0.0
H179 H 0.57459 0.03253 0.98024 0.0
H180 H 0.47693 0.94971 0.5563 0.0
H181 H 0.44251 0.94015 0.56872 0.0
H182 H 0.42525 0.99882 0.50833 0.0
H183 H 0.45948 1.00845 0.49609 0.0
La184 La 0.50429 0.51755 0.7855 0.0
La185 La 0.52549 0.50542 0.65544 0.0
C186 C 0.4907 0.53695 0.8965 0.0
C187 C 0.48359 0.55731 0.89574 0.0
C188 C 0.46338 0.56108 0.89952 0.0
C189 C 0.45624 0.57971 0.88231 0.0
C190 C 0.46921 0.5947 0.86031 0.0
C191 C 0.48942 0.59123 0.86108 0.0
C192 C 0.49656 0.57279 0.87906 0.0
C193 C 0.481 0.50527 0.67173 0.0
C194 C 0.51634 0.54935 0.65704 0.0
C195 C 0.53915 0.48598 0.54499 0.0
C196 C 0.54871 0.46685 0.54913 0.0
C197 C 0.55861 0.46144 0.61681 0.0
C198 C 0.56431 0.44208 0.62791 0.0
C199 C 0.56004 0.42776 0.57186 0.0
C200 C 0.55098 0.43348 0.50251 0.0
C201 C 0.54536 0.45288 0.49132 0.0
C202 C 0.54878 0.51717 0.77023 0.0
C203 C 0.5132 0.4734 0.7829 0.0
O204 O 0.48027 0.52458 0.85578 0.0
O205 O 0.50947 0.53453 0.88493 0.0
O206 O 0.47878 0.50121 0.7439 0.0
O207 O 0.49612 0.51594 0.66463 0.0
O208 O 0.51252 0.54593 0.73077 0.0
O209 O 0.51918 0.53441 0.61001 0.0
O210 O 0.54855 0.50053 0.5778 0.0
O211 O 0.52062 0.48569 0.5639 0.0
O212 O 0.55133 0.52112 0.69819 0.0
O213 O 0.5335 0.50674 0.77636 0.0
O214 O 0.51795 0.47698 0.71023 0.0
O215 O 0.50944 0.48817 0.82982 0.0
H216 H 0.45308 0.5494 0.91237 0.0
H217 H 0.4406 0.58221 0.88339 0.0
H218 H 0.49974 0.60274 0.84641 0.0
H219 H 0.51222 0.57052 0.87623 0.0
H220 H 0.56107 0.47196 0.66289 0.0
H221 H 0.57135 0.4382 0.68162 0.0
H222 H 0.54709 0.42276 0.45872 0.0
H223 H 0.53744 0.45671 0.43945 0.0
La224 La 1.01077 0.50244 0.76849 0.0
La225 La 0.02535 0.51936 0.61582 0.0
C226 C 0.99734 0.50109 0.90286 0.0
C227 C 0.9803 0.51122 0.93642 0.0
C228 C 0.96277 0.50072 0.94752 0.0
C229 C 0.94523 0.51064 0.95873 0.0
C230 C 0.94498 0.53117 0.95852 0.0
C231 C 0.96263 0.54168 0.95409 0.0
C232 C 0.98026 0.53172 0.94482 0.0
C233 C 0.01785 0.47318 0.66796 0.0
C234 C 0.97978 0.51138 0.63956 0.0
C235 C 0.03458 0.53053 0.48334 0.0
C236 C 0.05046 0.5439 0.45927 0.0
C237 C 0.0528 0.56243 0.49424 0.0
C238 C 0.07018 0.57305 0.48499 0.0
C239 C 0.08561 0.56528 0.44127 0.0
C240 C 0.08257 0.54749 0.4013 0.0
C241 C 0.06513 0.53694 0.41008 0.0
C242 C 0.0236 0.54459 0.73305 0.0
C243 C 0.05685 0.50651 0.73859 0.0
O244 O 0.9929 0.48826 0.84898 0.0
O245 O 1.01248 0.51204 0.88367 0.0
O246 O 1.01198 0.47082 0.73831 0.0
O247 O 0.0199 0.49135 0.65954 0.0
O248 O 0.98296 0.51043 0.71474 0.0
O249 O 0.99453 0.51209 0.58986 0.0
O250 O 0.02038 0.5384 0.52357 0.0
O251 O 0.04042 0.51387 0.51263 0.0
O252 O 0.03686 0.54462 0.67999 0.0
O253 O 1.01134 0.53114 0.71748 0.0
O254 O 0.05337 0.50983 0.66439 0.0
O255 O 0.04244 0.50483 0.78964 0.0
H256 H 0.96242 0.48489 0.94241 0.0
H257 H 0.9317 0.5023 0.96274 0.0
H258 H 0.9627 0.55755 0.95545 0.0
H259 H 0.99369 0.5401 0.93999 0.0
H260 H 0.04172 0.56826 0.53245 0.0
H261 H 0.07193 0.58685 0.5154 0.0
H262 H 0.09418 0.54091 0.36777 0.0
H263 H 0.06367 0.5227 0.38273 0.0
H264 H 0.2203 0.01315 0.31171 0.0
H265 H 0.18996 1.0089 0.38547 0.0
H266 H 0.15664 0.03007 0.19208 0.0
H267 H 0.18711 0.03452 0.11859 0.0
H268 H 0.14355 0.04684 0.32099 0.0
H269 H 0.15627 0.98086 0.24475 0.0
H270 H 0.17588 0.95097 0.22831 0.0
H271 H 0.18302 0.94691 0.47376 0.0
H272 H 0.16368 0.97695 0.49165 0.0
H273 H 0.05204 0.01973 0.51061 0.0
H274 H 0.07885 0.02237 0.41563 0.0
H275 H 0.12021 1.00501 0.58982 0.0
H276 H 0.09386 1.00254 0.68362 0.0
H277 H 0.12693 0.98537 0.45816 0.0
H278 H 0.11657 0.05257 0.53327 0.0
H279 H 0.09711 0.08253 0.55077 0.0
H280 H 0.08535 0.08402 0.30754 0.0
H281 H 0.10454 0.05389 0.28877 0.0
C282 C 0.20647 0.01664 0.28458 0.0
C283 C 0.20615 0.02419 0.20925 0.0
C284 C 0.18906 0.01421 0.32683 0.0
C285 C 0.17077 0.01905 0.2947 0.0
C286 C 0.17043 0.02625 0.21874 0.0
C287 C 0.18787 0.02867 0.17644 0.0
C288 C 0.15217 0.01699 0.34095 0.0
C289 C 0.13978 0.03325 0.34975 0.0
C290 C 0.14715 0.99943 0.37992 0.0
C291 C 0.15865 0.98126 0.36948 0.0
C292 C 0.16213 0.97367 0.2952 0.0
C293 C 0.17319 0.95669 0.28562 0.0
C294 C 0.18073 0.94707 0.34994 0.0
C295 C 0.17718 0.95439 0.42399 0.0
C296 C 0.16615 0.97138 0.43389 0.0
C297 C 0.06685 0.0166 0.52852 0.0
C298 C 0.07072 1.01102 0.60503 0.0
C299 C 0.08222 0.01811 0.4742 0.0
C300 C 0.10173 0.01391 0.49521 0.0
C301 C 0.10542 1.00825 0.5715 0.0
C302 C 0.09024 1.00694 0.62543 0.0
C303 C 0.11851 0.01527 0.43912 0.0
C304 C 0.13059 0.99887 0.42858 0.0
C305 C 0.12322 0.03268 0.39868 0.0
C306 C 0.11179 0.05085 0.40975 0.0
C307 C 0.1097 0.05919 0.48361 0.0
C308 C 0.09874 0.07622 0.49375 0.0
C309 C 0.08994 0.08513 0.43035 0.0
C310 C 0.09214 0.07707 0.35663 0.0
C311 C 0.10306 0.06003 0.34619 0.0
H312 H 0.08146 0.09831 0.43831 0.0
H313 H 0.18929 0.93393 0.3424 0.0
H314 H 0.53509 0.1774 0.13205 0.0
H315 H 0.53207 0.14798 0.21116 0.0
H316 H 0.4978 0.1801 0.377 0.0
H317 H 0.50099 0.20966 0.29801 0.0
H318 H 0.52439 0.15905 0.44977 0.0
H319 H 0.47724 0.14446 0.25208 0.0
H320 H 0.46526 0.14023 0.11876 0.0
H321 H 0.50781 0.09535 0.079 0.0
H322 H 0.52022 0.09949 0.21183 0.0
H323 H 0.49379 0.07802 0.67268 0.0
H324 H 0.49411 0.10596 0.58518 0.0
H325 H 0.52987 0.07356 0.42515 0.0
H326 H 0.52937 0.0453 0.51281 0.0
H327 H 0.50255 0.0944 0.34826 0.0
H328 H 0.54987 0.10885 0.54392 0.0
H329 H 0.56216 0.11274 0.67691 0.0
H330 H 0.51995 0.15779 0.71954 0.0
H331 H 0.50719 0.15395 0.58709 0.0
C332 C 0.52653 0.17811 0.18456 0.0
C333 C 0.51787 0.19587 0.20736 0.0
C334 C 0.52483 0.16121 0.23 0.0
C335 C 0.51443 0.16153 0.30003 0.0
C336 C 0.50581 0.17929 0.3232 0.0
C337 C 0.50753 0.19624 0.27761 0.0
C338 C 0.51327 0.1436 0.3502 0.0
C339 C 0.51929 0.14502 0.42766 0.0
C340 C 0.50724 0.12498 0.3215 0.0
C341 C 0.49977 0.12242 0.24169 0.0
C342 C 0.48414 0.13379 0.21473 0.0
C343 C 0.47725 0.13139 0.13928 0.0
C344 C 0.4858 0.11756 0.09038 0.0
C345 C 0.50122 0.10607 0.11691 0.0
C346 C 0.50817 0.10842 0.1923 0.0
C347 C 0.50164 0.07675 0.61865 0.0
C348 C 0.51165 0.05941 0.60011 0.0
C349 C 0.5019 0.09284 0.56865 0.0
C350 C 0.51231 0.09217 0.49871 0.0
C351 C 0.52179 0.07459 0.47872 0.0
C352 C 0.52151 0.05841 0.52892 0.0
C353 C 0.51352 0.10993 0.44779 0.0
C354 C 0.50758 0.10846 0.37029 0.0
C355 C 0.5197 0.1285 0.47629 0.0
C356 C 0.52745 0.13098 0.55578 0.0
C357 C 0.54311 0.11949 0.58182 0.0
C358 C 0.55017 0.1217 0.65709 0.0
C359 C 0.54181 0.13547 0.7067 0.0
C360 C 0.5264 0.14711 0.68107 0.0
C361 C 0.51925 0.14493 0.60588 0.0
H362 H 0.5473 0.13716 0.76496 0.0
H363 H 0.48045 0.11573 0.03199 0.0
H364 H 0.31259 0.48603 0.34242 0.0
H365 H 0.34242 0.49012 0.41947 0.0
H366 H 0.37244 0.51378 0.22148 0.0
H367 H 0.3426 0.50915 0.14376 0.0
H368 H 0.39565 0.48898 0.28904 0.0
H369 H 0.35812 0.54273 0.3812 0.0
H370 H 0.32923 0.55956 0.43393 0.0
H371 H 0.33217 0.52455 0.63858 0.0
H372 H 0.36092 0.50729 0.58658 0.0
H373 H 0.47921 0.51892 0.52194 0.0
H374 H 0.45062 0.51867 0.43519 0.0
H375 H 0.41646 0.48935 0.60956 0.0
H376 H 0.44479 0.48947 0.69553 0.0
H377 H 0.39631 0.51964 0.54889 0.0
H378 H 0.43317 0.46497 0.45113 0.0
H379 H 0.46216 0.44861 0.39684 0.0
H380 H 0.46076 0.48678 0.20086 0.0
H381 H 0.43192 0.50357 0.2546 0.0
C382 C 0.3255 0.49231 0.31556 0.0
C383 C 0.32524 0.49722 0.23687 0.0
C384 C 0.3426 0.49472 0.35979 0.0
C385 C 0.35987 0.50243 0.32698 0.0
C386 C 0.35946 0.50776 0.24861 0.0
C387 C 0.34234 0.50526 0.20423 0.0
C388 C 0.37841 0.50429 0.37375 0.0
C389 C 0.39581 0.49602 0.34526 0.0
C390 C 0.37882 0.51318 0.44794 0.0
C391 C 0.36159 0.5236 0.47965 0.0
C392 C 0.35253 0.53852 0.43721 0.0
C393 C 0.33619 0.54815 0.467 0.0
C394 C 0.32884 0.54309 0.53947 0.0
C395 C 0.33787 0.52843 0.5824 0.0
C396 C 0.3542 0.51873 0.55283 0.0
C397 C 0.46564 0.51228 0.54137 0.0
C398 C 0.46434 0.50422 0.6158 0.0
C399 C 0.44927 0.51213 0.49173 0.0
C400 C 0.43123 0.50399 0.51552 0.0
C401 C 0.43007 0.49582 0.5896 0.0
C402 C 0.44638 0.49582 0.63874 0.0
C403 C 0.4134 0.50412 0.46454 0.0
C404 C 0.39615 0.51277 0.49234 0.0
C405 C 0.41317 0.49572 0.38958 0.0
C406 C 0.43054 0.48568 0.35735 0.0
C407 C 0.43916 0.47 0.39682 0.0
C408 C 0.45554 0.46063 0.36608 0.0
C409 C 0.46334 0.46669 0.29556 0.0
C410 C 0.45474 0.48212 0.25556 0.0
C411 C 0.43837 0.49157 0.28612 0.0
H412 H 0.47601 0.4594 0.27182 0.0
H413 H 0.31619 0.55057 0.56243 0.0
H414 H 0.02467 0.30596 0.31724 0.0
H415 H 0.02017 0.33583 0.39412 0.0
H416 H 0.03425 0.37093 0.19531 0.0
H417 H 0.03911 0.34096 0.11883 0.0
H418 H 0.05316 0.38533 0.31541 0.0
H419 H 0.98646 0.36695 0.27074 0.0
H420 H 0.95766 0.34493 0.26836 0.0
H421 H 0.96146 0.33804 0.51392 0.0
H422 H 0.99047 0.35981 0.51766 0.0
H423 H 0.02674 0.47526 0.51174 0.0
H424 H 0.0288 0.44783 0.41912 0.0
H425 H 0.01583 0.40713 0.60187 0.0
H426 H 0.01358 0.43428 0.69327 0.0
H427 H 0.9952 0.39715 0.48064 0.0
H428 H 0.0631 0.41381 0.52362 0.0
H429 H 0.09197 0.43575 0.52607 0.0
H430 H 0.08568 0.44599 0.28319 0.0
H431 H 0.0566 0.4243 0.27952 0.0
C432 C 0.02655 0.32006 0.28971 0.0
C433 C 0.03232 0.32105 0.21192 0.0
C434 C 0.02394 0.33721 0.33374 0.0
C435 C 0.02676 0.35589 0.30099 0.0
C436 C 0.03203 0.35685 0.22256 0.0
C437 C 0.03467 0.33968 0.17856 0.0
C438 C 0.02481 0.37427 0.34903 0.0
C439 C 0.04031 0.38802 0.35047 0.0
C440 C 1.00826 0.37789 0.39631 0.0
C441 C 0.99075 0.36488 0.39436 0.0
C442 C 0.98124 0.36063 0.32417 0.0
C443 C 0.96487 0.34821 0.32259 0.0
C444 C 0.95776 0.34006 0.39092 0.0
C445 C 0.96699 0.34435 0.46102 0.0
C446 C 0.98339 0.35675 0.46292 0.0
C447 C 0.02448 0.46044 0.53203 0.0
C448 C 0.0201 0.45701 0.61011 0.0
C449 C 0.02567 0.44471 0.47904 0.0
C450 C 0.02258 0.42518 0.50304 0.0
C451 C 0.01822 0.4219 0.58114 0.0
C452 C 0.01703 0.43752 0.6337 0.0
C453 C 0.02367 0.40804 0.44789 0.0
C454 C 1.00799 0.39452 0.44513 0.0
C455 C 0.04004 0.40465 0.39943 0.0
C456 C 0.05755 0.41762 0.40148 0.0
C457 C 0.06779 0.42086 0.47086 0.0
C458 C 0.0842 0.43323 0.47245 0.0
C459 C 0.09062 0.44231 0.40488 0.0
C460 C 0.08067 0.43898 0.33551 0.0
C461 C 0.06423 0.42664 0.33363 0.0
H462 H 0.10333 0.45188 0.40622 0.0
H463 H 0.94509 0.33044 0.38957 0.0
H464 H 0.81633 0.9906 0.0939 0.0
H465 H 0.84602 0.98693 0.01578 0.0
H466 H 0.87893 0.01993 0.18517 0.0
H467 H 0.84924 0.02384 0.26249 0.0
H468 H 0.88797 0.03279 0.0472 0.0
H469 H 0.88367 0.9689 0.16033 0.0
H470 H 0.86804 0.93737 0.19353 0.0
H471 H 0.86106 0.92369 0.95302 0.0
H472 H 0.87641 0.95527 0.91836 0.0
H473 H 0.98226 0.01642 0.88562 0.0
H474 H 0.95424 0.0161 0.97407 0.0
H475 H 0.92085 0.98216 0.80896 0.0
H476 H 0.949 0.98196 0.72171 0.0
H477 H 0.91242 0.96941 0.94693 0.0
H478 H 0.91567 0.03333 0.83318 0.0
H479 H 0.9315 0.06466 0.79834 0.0
H480 H 0.94012 0.07831 0.03806 0.0
H481 H 0.9246 0.04691 0.07432 0.0
C482 C 0.82995 0.99675 0.11524 0.0
C483 C 0.8304 1.0071 0.18572 0.0
C484 C 0.84701 0.99465 0.07038 0.0
C485 C 0.865 1.00296 0.09447 0.0
C486 C 0.86541 0.01329 0.16487 0.0
C487 C 0.84839 0.01536 0.20959 0.0
C488 C 0.88319 1.00157 0.0455 0.0
C489 C 0.89342 0.01886 0.02635 0.0
C490 C 0.89027 0.98353 0.01609 0.0
C491 C 0.881 0.96455 0.03678 0.0
C492 C 0.87865 0.95924 0.11452 0.0
C493 C 0.86987 0.94135 0.1336 0.0
C494 C 0.86351 0.92856 0.07543 0.0
C495 C 0.86596 0.93362 0.99803 0.0
C496 C 0.87471 0.95151 0.97863 0.0
C497 C 0.96905 1.00866 0.86863 0.0
C498 C 0.96792 0.99927 0.79629 0.0
C499 C 0.9529 1.00863 0.91907 0.0
C500 C 0.93509 0.99943 0.89811 0.0
C501 C 0.93425 0.98945 0.82696 0.0
C502 C 0.95041 0.98939 0.77681 0.0
C503 C 0.91719 1.00062 0.94879 0.0
C504 C 0.90699 0.98332 0.96804 0.0
C505 C 0.91007 0.01867 0.97804 0.0
C506 C 0.91915 0.03768 0.95643 0.0
C507 C 0.92105 0.04296 0.87845 0.0
C508 C 0.92996 0.06073 0.85845 0.0
C509 C 0.93686 0.07344 0.91594 0.0
C510 C 0.9348 0.06844 0.99358 0.0
C511 C 0.92593 0.05066 0.0139 0.0
H512 H 0.94377 0.08719 0.90034 0.0
H513 H 0.85672 0.9147 0.09032 0.0
H514 H 0.52666 0.80865 0.11736 0.0
H515 H 0.5292 0.83713 0.0321 0.0
H516 H 0.51021 0.87471 0.2176 0.0
H517 H 0.50746 0.84627 0.30253 0.0
H518 H 0.49148 0.88402 0.08837 0.0
H519 H 0.55892 0.87317 0.15668 0.0
H520 H 0.58913 0.85389 0.16906 0.0
H521 H 0.58982 0.84412 0.92423 0.0
H522 H 0.55946 0.86315 0.91051 0.0
H523 H 0.51197 0.97547 0.90676 0.0
H524 H 0.51172 0.94773 0.99642 0.0
H525 H 0.53563 0.91057 0.81853 0.0
H526 H 0.53658 0.93833 0.73035 0.0
H527 H 0.55201 0.90104 0.94508 0.0
H528 H 0.48494 0.91083 0.87414 0.0
H529 H 0.45452 0.92962 0.85805 0.0
H530 H 0.45238 0.9403 0.10216 0.0
H531 H 0.48295 0.92181 0.11957 0.0
C532 C 0.52327 0.82299 0.14037 0.0
C533 C 0.51728 0.82518 0.21768 0.0
C534 C 0.52474 0.83934 0.0914 0.0
C535 C 0.52012 0.85829 0.11821 0.0
C536 C 0.51394 0.86039 0.1951 0.0
C537 C 0.51253 0.8441 0.24393 0.0
C538 C 0.52136 0.87588 0.06637 0.0
C539 C 0.50482 0.88785 0.05786 0.0
C540 C 0.53854 0.88079 0.02456 0.0
C541 C 0.55682 0.86942 0.03269 0.0
C542 C 0.56543 0.86679 0.10556 0.0
C543 C 0.5826 0.85593 0.11281 0.0
C544 C 0.59136 0.84774 0.0475 0.0
C545 C 0.583 0.85045 0.97478 0.0
C546 C 0.56583 0.86128 0.96723 0.0
C547 C 0.51731 0.96141 0.88709 0.0
C548 C 0.5242 0.95915 0.81116 0.0
C549 C 0.51702 0.94545 0.93825 0.0
C550 C 0.5233 0.92673 0.91437 0.0
C551 C 0.53064 0.92469 0.839 0.0
C552 C 0.53113 0.94064 0.7883 0.0
C553 C 0.52211 0.90923 0.96691 0.0
C554 C 0.53865 0.89725 0.97554 0.0
C555 C 0.50486 0.90419 0.00821 0.0
C556 C 0.48635 0.91511 0.99805 0.0
C557 C 0.47805 0.91729 0.92433 0.0
C558 C 0.46077 0.92788 0.91498 0.0
C559 C 0.45155 0.9362 0.97902 0.0
C560 C 0.45955 0.93388 0.05259 0.0
C561 C 0.47685 0.92334 0.06224 0.0
H562 H 0.43819 0.9444 0.97166 0.0
H563 H 0.60464 0.83934 0.05323 0.0
H564 H 0.68286 0.49982 0.30636 0.0
H565 H 0.65284 0.5041 0.23048 0.0
H566 H 0.68747 0.51989 0.03234 0.0
H567 H 0.7175 0.51504 0.10741 0.0
H568 H 0.65402 0.54395 0.05228 0.0
H569 H 0.66974 0.47531 0.04174 0.0
H570 H 0.67726 0.44298 0.09663 0.0
H571 H 0.62192 0.44231 0.21402 0.0
H572 H 0.61419 0.47479 0.16065 0.0
H573 H 0.58575 0.53146 0.7485 0.0
H574 H 0.61357 0.53066 0.83659 0.0
H575 H 0.57716 0.5038 0.01031 0.0
H576 H 0.54926 0.50397 0.92045 0.0
H577 H 0.6106 0.48625 0.01044 0.0
H578 H 0.59361 0.55372 0.01887 0.0
H579 H 0.58557 0.58627 0.96722 0.0
H580 H 0.64214 0.58997 0.86018 0.0
H581 H 0.65044 0.55731 0.91031 0.0
C582 C 0.68408 0.50445 0.2469 0.0
C583 C 0.70265 0.50726 0.21327 0.0
C584 C 0.66688 0.50681 0.20339 0.0
C585 C 0.66778 0.51222 0.12525 0.0
C586 C 0.6863 0.51579 0.09243 0.0
C587 C 0.70351 0.51316 0.13565 0.0
C588 C 0.64955 0.51341 0.07704 0.0
C589 C 0.64462 0.53129 0.04252 0.0
C590 C 0.63687 0.49709 0.06581 0.0
C591 C 0.64149 0.47758 0.09795 0.0
C592 C 0.65926 0.46835 0.07984 0.0
C593 C 0.66354 0.44999 0.11055 0.0
C594 C 0.65011 0.44062 0.15898 0.0
C595 C 0.63233 0.44959 0.17663 0.0
C596 C 0.62799 0.46798 0.14614 0.0
C597 C 0.58356 0.5255 0.80566 0.0
C598 C 0.56519 0.51784 0.82733 0.0
C599 C 0.59955 0.52515 0.85648 0.0
C600 C 0.59762 0.51747 0.93129 0.0
C601 C 0.57919 0.50988 0.95327 0.0
C602 C 0.56317 0.51007 0.90197 0.0
C603 C 0.61498 0.51683 0.98499 0.0
C604 C 0.61981 0.49902 0.02052 0.0
C605 C 0.62746 0.5333 0.99782 0.0
C606 C 0.62258 0.55299 0.96783 0.0
C607 C 0.60429 0.56141 0.98388 0.0
C608 C 0.59969 0.57989 0.95493 0.0
C609 C 0.61332 0.59016 0.9103 0.0
C610 C 0.6316 0.58199 0.8947 0.0
C611 C 0.63626 0.56351 0.92344 0.0
H612 H 0.60973 0.60446 0.88793 0.0
H613 H 0.65344 0.4264 0.18267 0.0
H614 H 0.99507 0.68846 0.2339 0.0
H615 H 0.99148 0.65925 0.15157 0.0
H616 H 0.0441 0.67549 0.02926 0.0
H617 H 0.04725 0.70487 0.10945 0.0
H618 H 0.02029 0.66247 0.92894 0.0
H619 H 0.04105 0.63771 0.17381 0.0
H620 H 0.03964 0.63202 0.31406 0.0
H621 H 0.98372 0.6035 0.28831 0.0
H622 H 0.9847 0.60923 0.1479 0.0
H623 H 0.05131 0.57105 0.7772 0.0
H624 H 0.04791 0.59962 0.86171 0.0
H625 H 0.98729 0.58473 0.90017 0.0
H626 H 0.99049 0.55629 0.8125 0.0
H627 H 1.01124 0.59637 0.04146 0.0
H628 H 0.99344 0.61955 0.78952 0.0
H629 H 0.99814 0.62373 0.64957 0.0
H630 H 0.05234 0.65434 0.69111 0.0
H631 H 0.04811 0.65007 0.83137 0.0
C632 C 1.0057 0.68595 0.18871 0.0
C633 C 0.02127 0.69931 0.17743 0.0
C634 C 1.00377 0.66905 0.14196 0.0
C635 C 0.01762 0.66479 0.08389 0.0
C636 C 0.03307 0.67824 0.07278 0.0
C637 C 0.03489 0.69513 0.11886 0.0
C638 C 0.01631 0.64646 0.03473 0.0
C639 C 0.01843 0.64807 0.95416 0.0
C640 C 0.01355 0.62743 0.06615 0.0
C641 C 0.01283 0.62413 0.15053 0.0
C642 C 0.02837 0.63038 0.19816 0.0
C643 C 0.02767 0.62712 0.27765 0.0
C644 C 1.01157 0.61747 0.31012 0.0
C645 C 0.99616 0.61102 0.2631 0.0
C646 C 0.99678 0.61426 0.18357 0.0
C647 C 0.03724 0.57375 0.80387 0.0
C648 C 0.02124 0.56114 0.78904 0.0
C649 C 0.03533 0.59014 0.85235 0.0
C650 C 0.01737 0.5944 0.8879 0.0
C651 C 1.00136 0.5817 0.87417 0.0
C652 C 1.00322 0.56538 0.8244 0.0
C653 C 0.01544 0.61255 0.93668 0.0
C654 C 0.01281 0.61086 0.01676 0.0
C655 C 0.01808 0.63149 0.90517 0.0
C656 C 0.02053 0.63435 0.82094 0.0
C657 C 1.00643 0.62704 0.7688 0.0
C658 C 1.009 0.62945 0.68942 0.0
C659 C 0.02555 0.63926 0.66145 0.0
C660 C 0.03953 0.64673 0.71286 0.0
C661 C 0.03705 0.64434 0.79231 0.0
H662 H 0.02751 0.6411 0.59997 0.0
H663 H 1.01107 0.61494 0.37166 0.0
H664 H 1.00461 0.26449 0.35149 0.0
H665 H 0.99561 0.24718 0.46881 0.0
H666 H 0.95321 0.2129 0.3415 0.0
H667 H 0.96183 0.23041 0.22372 0.0
H668 H 0.9497 0.21842 0.53058 0.0
H669 H 0.98988 0.187 0.30928 0.0
H670 H 0.01393 0.19306 0.20547 0.0
H671 H 0.05071 0.22482 0.36451 0.0
H672 H 0.02688 0.21878 0.4692 0.0
H673 H 0.95073 0.11621 0.52012 0.0
H674 H 0.94795 0.15176 0.5241 0.0
H675 H 1.00525 0.15625 0.62823 0.0
H676 H 1.00812 0.1206 0.62381 0.0
H677 H 1.00422 0.17189 0.48883 0.0
H678 H 0.96701 0.17913 0.71526 0.0
H679 H 0.94119 0.17222 0.81072 0.0
H680 H 0.89707 0.18662 0.64436 0.0
H681 H 0.92259 0.19342 0.54745 0.0
C682 C 0.99256 0.25409 0.34909 0.0
C683 C 0.98431 0.24836 0.27802 0.0
C684 C 0.98733 0.24431 0.41657 0.0
C685 C 0.97392 0.22868 0.4134 0.0
C686 C 0.96352 0.22502 0.34501 0.0
C687 C 0.96871 0.2348 0.27748 0.0
C688 C 0.97615 0.21238 0.4679 0.0
C689 C 0.96167 0.20827 0.52286 0.0
C690 C 0.99198 0.19946 0.45809 0.0
C691 C 1.00672 0.20243 0.39667 0.0
C692 C 1.00319 0.19514 0.32199 0.0
C693 C 0.01674 0.19859 0.26309 0.0
C694 C 0.03383 0.20933 0.2784 0.0
C695 C 0.03747 0.2165 0.35277 0.0
C696 C 0.024 0.21302 0.41194 0.0
C697 C 0.96241 0.12472 0.54656 0.0
C698 C 0.97986 0.11575 0.56983 0.0
C699 C 0.96074 0.14507 0.54951 0.0
C700 C 0.97643 0.15667 0.57618 0.0
C701 C 0.99298 0.14756 0.60732 0.0
C702 C 0.99471 0.12724 0.60392 0.0
C703 C 0.97761 0.17741 0.55233 0.0
C704 C 0.99268 0.1823 0.50088 0.0
C705 C 0.96228 0.19084 0.56597 0.0
C706 C 0.94677 0.18674 0.62385 0.0
C707 C 0.95181 0.1807 0.69874 0.0
C708 C 0.93722 0.17682 0.75321 0.0
C709 C 0.91751 0.17895 0.73359 0.0
C710 C 0.91235 0.18499 0.65949 0.0
C711 C 0.92688 0.18892 0.6048 0.0
H712 H 0.90624 0.17593 0.77584 0.0
H713 H 0.04425 0.21208 0.23268 0.0
H714 H 0.28606 0.94519 0.21266 0.0
H715 H 0.30444 0.93439 0.32521 0.0
H716 H 0.27918 0.98089 0.46057 0.0
H717 H 0.2608 0.99177 0.34835 0.0
H718 H 0.3185 0.98604 0.40361 0.0
H719 H 0.28017 0.93968 0.54328 0.0
H720 H 0.25954 0.91024 0.56051 0.0
H721 H 0.30671 0.8739 0.48319 0.0
H722 H 0.32755 0.90313 0.46429 0.0
H723 H 0.40287 0.98907 0.6166 0.0
H724 H 0.36752 0.98386 0.60571 0.0
H725 H 0.3773 0.93144 0.47184 0.0
H726 H 0.41269 0.93645 0.48321 0.0
H727 H 0.34235 0.92941 0.55386 0.0
H728 H 0.37764 0.97253 0.38903 0.0
H729 H 0.39851 1.00015 0.3487 0.0
H730 H 0.35707 0.04075 0.44253 0.0
H731 H 0.33626 0.01329 0.48631 0.0
C732 C 0.28361 0.95242 0.26756 0.0
C733 C 0.27255 0.96966 0.27149 0.0
C734 C 0.29396 0.94611 0.33211 0.0
C735 C 0.29339 0.95708 0.40066 0.0
C736 C 0.27976 0.97224 0.40804 0.0
C737 C 0.26932 0.9785 0.34364 0.0
C738 C 0.31115 0.95763 0.44903 0.0
C739 C 0.32343 0.97397 0.43907 0.0
C740 C 0.31789 0.94131 0.49081 0.0
C741 C 0.30541 0.92366 0.50196 0.0
C742 C 0.28611 0.92543 0.52927 0.0
C743 C 0.27438 0.90877 0.53949 0.0
C744 C 0.2818 0.89021 0.52286 0.0
C745 C 0.30098 0.88828 0.49608 0.0
C746 C 0.31277 0.9049 0.48573 0.0
C747 C 0.39746 0.97614 0.58678 0.0
C748 C 0.41043 0.96339 0.54922 0.0
C749 C 0.37731 0.9731 0.5812 0.0
C750 C 0.36988 0.95749 0.53687 0.0
C751 C 0.38279 0.94357 0.50636 0.0
C752 C 0.40299 0.94652 0.51245 0.0
C753 C 0.34945 0.95798 0.50916 0.0
C754 C 0.337 0.94179 0.52131 0.0
C755 C 0.34263 0.97419 0.4664 0.0
C756 C 0.35557 0.99076 0.44273 0.0
C757 C 0.37315 0.98731 0.40276 0.0
C758 C 0.38496 1.00296 0.379 0.0
C759 C 0.37919 0.0222 0.39345 0.0
C760 C 0.36156 0.02582 0.43156 0.0
C761 C 0.34981 1.01021 0.45631 0.0
H762 H 0.38831 0.03431 0.37476 0.0
H763 H 0.2727 0.87733 0.53083 0.0
H764 H 0.49723 0.307 0.32872 0.0
H765 H 0.50654 0.32277 0.44841 0.0
H766 H 0.5392 0.27156 0.51438 0.0
H767 H 0.5314 0.25638 0.38986 0.0
H768 H 0.50629 0.32191 0.59256 0.0
H769 H 0.57802 0.28589 0.61168 0.0
H770 H 0.60039 0.26396 0.54069 0.0
H771 H 0.58335 0.29032 0.32669 0.0
H772 H 0.56099 0.31243 0.3967 0.0
H773 H 0.55356 0.40864 0.7084 0.0
H774 H 0.54948 0.37324 0.72471 0.0
H775 H 0.56795 0.36393 0.4902 0.0
H776 H 0.57251 0.39903 0.47355 0.0
H777 H 0.57792 0.33358 0.57775 0.0
H778 H 0.52099 0.37575 0.54069 0.0
H779 H 0.49657 0.40052 0.57701 0.0
H780 H 0.48118 0.36713 0.77754 0.0
H781 H 0.50552 0.34221 0.74224 0.0
C782 C 0.50639 0.29903 0.36859 0.0
C783 C 0.5143 0.28084 0.34816 0.0
C784 C 0.51142 0.30792 0.43818 0.0
C785 C 0.52413 0.29863 0.49002 0.0
C786 C 0.52989 0.2793 0.47443 0.0
C787 C 0.52527 0.27056 0.40337 0.0
C788 C 0.53375 0.31088 0.55055 0.0
C789 C 0.52204 0.32415 0.59164 0.0
C790 C 0.55435 0.31361 0.55137 0.0
C791 C 0.56777 0.30056 0.50911 0.0
C792 C 0.5791 0.28696 0.5495 0.0
C793 C 0.59175 0.27453 0.50949 0.0
C794 C 0.59324 0.27571 0.42921 0.0
C795 C 0.58216 0.28939 0.38881 0.0
C796 C 0.56952 0.30188 0.42857 0.0
C797 C 0.55739 0.39903 0.6611 0.0
C798 C 0.5627 0.40666 0.58864 0.0
C799 C 0.55506 0.37883 0.67088 0.0
C800 C 0.55797 0.36608 0.6086 0.0
C801 C 0.56548 0.37353 0.53916 0.0
C802 C 0.56784 0.39363 0.52929 0.0
C803 C 0.5501 0.34584 0.60916 0.0
C804 C 0.5623 0.33081 0.58293 0.0
C805 C 0.52976 0.34207 0.61769 0.0
C806 C 0.51562 0.35745 0.64045 0.0
C807 C 0.51264 0.37386 0.59325 0.0
C808 C 0.49868 0.38785 0.61323 0.0
C809 C 0.48735 0.38543 0.67964 0.0
C810 C 0.49001 0.36904 0.72627 0.0
C811 C 0.50396 0.35501 0.70648 0.0
H812 H 0.47654 0.39627 0.69495 0.0
H813 H 0.60302 0.26605 0.39834 0.0
H814 H 0.26261 0.5532 0.34167 0.0
H815 H 0.24284 0.57171 0.43407 0.0
H816 H 0.20214 0.52307 0.44733 0.0
H817 H 0.22209 0.5046 0.35755 0.0
H818 H 0.21057 0.58332 0.38582 0.0
H819 H 0.17003 0.52444 0.58143 0.0
H820 H 0.17835 0.50093 0.68321 0.0
H821 H 0.23365 0.52997 0.71849 0.0
H822 H 0.22553 0.55399 0.61803 0.0
H823 H 0.11308 0.56843 0.32672 0.0
H824 H 0.14807 0.57342 0.34473 0.0
H825 H 0.1386 0.58739 0.58463 0.0
H826 H 0.10369 0.58104 0.56851 0.0
H827 H 0.16227 0.55854 0.57522 0.0
H828 H 0.16308 0.62063 0.46675 0.0
H829 H 0.15461 0.64749 0.37866 0.0
H830 H 0.18046 0.61626 0.18937 0.0
H831 H 0.18882 0.58907 0.27587 0.0
C832 C 0.25001 0.54614 0.3678 0.0
C833 C 0.2436 0.52766 0.34173 0.0
C834 C 0.23866 0.55675 0.42039 0.0
C835 C 0.22081 0.54897 0.44729 0.0
C836 C 0.2159 0.52946 0.42871 0.0
C837 C 0.22723 0.5189 0.37654 0.0
C838 C 0.20505 0.5621 0.47534 0.0
C839 C 0.20024 0.5782 0.42878 0.0
C840 C 0.19185 0.55617 0.53379 0.0
C841 C 0.19714 0.54113 0.59192 0.0
C842 C 0.18395 0.52592 0.61093 0.0
C843 C 0.18864 0.51246 0.66846 0.0
C844 C 0.20652 0.51395 0.70731 0.0
C845 C 0.2198 0.52883 0.68831 0.0
C846 C 0.21518 0.54236 0.63094 0.0
C847 C 0.11838 0.57291 0.38305 0.0
C848 C 0.10562 0.57387 0.44641 0.0
C849 C 0.13842 0.57608 0.39312 0.0
C850 C 0.14604 0.58064 0.46644 0.0
C851 C 0.13308 0.58366 0.52792 0.0
C852 C 0.11304 0.58022 0.5182 0.0
C853 C 0.1673 0.57826 0.48073 0.0
C854 C 0.17302 0.56426 0.53516 0.0
C855 C 0.18149 0.58644 0.43096 0.0
C856 C 0.17664 0.60279 0.37812 0.0
C857 C 0.1669 0.61944 0.40628 0.0
C858 C 0.16211 0.63473 0.35658 0.0
C859 C 0.16702 0.63359 0.2785 0.0
C860 C 0.17673 0.61715 0.24994 0.0
C861 C 0.18155 0.60181 0.29937 0.0
H862 H 0.16329 0.64545 0.24011 0.0
H863 H 0.21006 0.50359 0.75215 0.0
H864 H 0.99038 0.7524 0.04813 0.0
H865 H 0.98819 0.77511 0.94117 0.0
H866 H 0.94608 0.80916 0.06764 0.0
H867 H 0.94675 0.78553 0.17168 0.0
H868 H 0.9506 0.8221 0.91276 0.0
H869 H 1.00029 0.81176 0.15022 0.0
H870 H 0.02471 0.78998 0.20991 0.0
H871 H 0.04622 0.7741 0.98597 0.0
H872 H 0.02254 0.79645 0.92527 0.0
H873 H 0.97309 0.91781 0.01965 0.0
H874 H 0.96451 0.88308 0.00904 0.0
H875 H 0.02442 0.87003 0.94901 0.0
H876 H 0.03316 0.90431 0.96528 0.0
H877 H 0.01477 0.84325 0.01997 0.0
H878 H 0.98218 0.87053 0.81089 0.0
H879 H 0.96184 0.89362 0.73773 0.0
H880 H 0.91123 0.87599 0.8677 0.0
H881 H 0.93135 0.853 0.94247 0.0
C882 C 0.9795 0.76383 0.05103 0.0
C883 C 0.96972 0.76806 0.12052 0.0
C884 C 0.97837 0.77695 0.98962 0.0
C885 C 0.96821 0.79456 0.99958 0.0
C886 C 0.95465 0.796 0.06004 0.0
C887 C 0.95522 0.78256 0.12019 0.0
C888 C 0.97681 0.81313 0.97117 0.0
C889 C 0.96479 0.8268 0.93449 0.0
C890 C 0.99562 0.8191 0.99703 0.0
C891 C 1.00958 0.80553 0.03344 0.0
C892 C 1.0103 0.80366 0.11395 0.0
C893 C 0.02398 0.79124 0.14789 0.0
C894 C 0.0368 0.78047 0.10181 0.0
C895 C 0.03621 0.78235 0.02162 0.0
C896 C 0.02277 0.79499 0.98746 0.0
C897 C 0.9844 0.90739 0.00523 0.0
C898 C 1.00375 0.91371 0.99287 0.0
C899 C 0.97945 0.88759 0.9975 0.0
C900 C 0.99359 0.87388 0.97434 0.0
C901 C 0.0131 0.88018 0.96593 0.0
C902 C 0.01816 0.89982 0.97586 0.0
C903 C 0.98837 0.85284 0.96331 0.0
C904 C 1.00098 0.83879 0.99401 0.0
C905 C 0.97066 0.84652 0.9278 0.0
C906 C 0.95832 0.8601 0.88255 0.0
C907 C 0.96673 0.87165 0.82413 0.0
C908 C 0.95524 0.88472 0.78236 0.0
C909 C 0.93526 0.88629 0.79812 0.0
C910 C 0.92672 0.87475 0.85554 0.0
C911 C 0.93815 0.86166 0.89754 0.0
H912 H 0.92638 0.89643 0.76579 0.0
H913 H 0.04726 0.77075 0.12826 0.0
H914 H 0.71787 0.98586 0.0701 0.0
H915 H 0.7026 0.99535 0.95037 0.0
H916 H 0.75442 0.02833 0.88784 0.0
H917 H 0.76907 0.02041 0.01202 0.0
H918 H 0.72743 0.05051 0.86939 0.0
H919 H 0.73475 0.9884 0.77677 0.0
H920 H 0.73691 0.95245 0.77281 0.0
H921 H 0.67474 0.94759 0.80383 0.0
H922 H 0.67219 0.98338 0.81199 0.0
H923 H 0.61937 0.0434 0.70065 0.0
H924 H 0.65414 0.03814 0.67436 0.0
H925 H 0.66815 0.05985 0.90245 0.0
H926 H 0.6337 0.06535 0.92774 0.0
H927 H 0.6743 1.01228 0.74315 0.0
H928 H 0.70997 0.07697 0.92732 0.0
H929 H 0.70886 0.11299 0.92708 0.0
H930 H 0.68753 0.11217 0.6941 0.0
H931 H 0.68882 0.07612 0.69218 0.0
C932 C 0.7261 0.99507 0.03089 0.0
C933 C 0.74447 1.00281 0.05192 0.0
C934 C 0.71752 1.00013 0.96102 0.0
C935 C 0.72735 1.0125 0.90897 0.0
C936 C 0.74646 0.01881 0.92683 0.0
C937 C 0.7549 0.01414 0.99785 0.0
C938 C 0.71613 0.02152 0.84488 0.0
C939 C 0.71603 0.04208 0.84072 0.0
C940 C 0.70214 1.01061 0.80161 0.0
C941 C 0.7033 0.98883 0.79474 0.0
C942 C 0.72152 0.97973 0.78356 0.0
C943 C 0.72283 0.95931 0.78112 0.0
C944 C 0.70598 0.94775 0.78829 0.0
C945 C 0.68779 0.95657 0.79819 0.0
C946 C 0.68641 0.97697 0.80181 0.0
C947 C 0.62998 0.04766 0.74398 0.0
C948 C 0.62381 0.05435 0.81688 0.0
C949 C 0.64985 0.04465 0.72886 0.0
C950 C 0.66386 0.04864 0.78614 0.0
C951 C 0.65776 0.05697 0.85646 0.0
C952 C 0.63798 0.05986 0.87155 0.0
C953 C 0.68402 0.04082 0.78077 0.0
C954 C 0.68612 0.02055 0.76978 0.0
C955 C 0.7001 0.05194 0.80843 0.0
C956 C 0.69962 0.07373 0.80942 0.0
C957 C 0.70529 0.08442 0.87555 0.0
C958 C 0.70455 0.10488 0.87594 0.0
C959 C 0.69816 0.11487 0.81059 0.0
C960 C 0.69248 0.10442 0.7447 0.0
C961 C 0.69319 0.08396 0.74397 0.0
H962 H 0.69758 0.1307 0.81106 0.0
H963 H 0.70702 0.93195 0.78578 0.0
H964 H 0.51081 0.75711 0.01695 0.0
H965 H 0.49844 0.74207 0.89791 0.0
H966 H 0.45071 0.71601 0.02557 0.0
H967 H 0.46261 0.73148 0.14318 0.0
H968 H 0.50055 0.70499 0.88841 0.0
H969 H 0.41455 0.70014 0.92641 0.0
H970 H 0.38724 0.72312 0.94282 0.0
H971 H 0.42233 0.76961 0.84836 0.0
H972 H 0.44979 0.74687 0.8301 0.0
H973 H 0.44455 0.61825 0.94103 0.0
H974 H 0.44136 0.65362 0.92493 0.0
H975 H 0.47529 0.65069 0.71592 0.0
H976 H 0.47853 0.61532 0.73154 0.0
H977 H 0.43272 0.68447 0.82229 0.0
H978 H 0.51168 0.68251 0.73583 0.0
H979 H 0.53892 0.65916 0.72406 0.0
H980 H 0.51881 0.62917 0.92662 0.0
H981 H 0.49118 0.65209 0.938 0.0
C982 C 0.49722 0.74884 0.01878 0.0
C983 C 0.48788 0.74506 0.08946 0.0
C984 C 0.49015 0.74028 0.95068 0.0
C985 C 0.47364 0.72786 0.95241 0.0
C986 C 0.46326 0.72576 0.02188 0.0
C987 C 0.47028 0.73432 0.08966 0.0
C988 C 0.47012 0.71334 0.88987 0.0
C989 C 0.48577 0.70103 0.8709 0.0
C990 C 0.45092 0.70806 0.86639 0.0
C991 C 0.43429 0.72173 0.87675 0.0
C992 C 0.41642 0.7152 0.90833 0.0
C993 C 0.40091 0.72822 0.91821 0.0
C994 C 0.40305 0.74781 0.89665 0.0
C995 C 0.4207 0.75443 0.86516 0.0
C996 C 0.43626 0.74149 0.85516 0.0
C997 C 0.45055 0.62504 0.8898 0.0
C998 C 0.46219 0.61428 0.83858 0.0
C999 C 0.44863 0.64523 0.8803 0.0
C1000 C 0.45836 0.65477 0.81958 0.0
C1001 C 0.4677 0.64358 0.76279 0.0
C1002 C 0.46973 0.62344 0.77243 0.0
C1003 C 0.46289 0.67587 0.82792 0.0
C1004 C 0.44751 0.6892 0.83603 0.0
C1005 C 0.48237 0.68223 0.84161 0.0
C1006 C 0.49921 0.66875 0.83667 0.0
C1007 C 0.513 0.67083 0.77725 0.0
C1008 C 0.5285 0.65768 0.77072 0.0
C1009 C 0.53055 0.64262 0.82438 0.0
C1010 C 0.51715 0.64076 0.88485 0.0
C1011 C 0.50153 0.65377 0.89115 0.0
H1012 H 0.54254 0.63243 0.81922 0.0
H1013 H 0.39102 0.75785 0.90438 0.0
H1014 H 0.79236 0.50982 0.06263 0.0
H1015 H 0.81481 0.52246 0.96683 0.0
H1016 H 0.79356 0.58102 0.00795 0.0
H1017 H 0.7716 0.56819 0.10803 0.0
H1018 H 0.82478 0.54305 0.85204 0.0
H1019 H 0.8305 0.6094 0.03987 0.0
H1020 H 0.81731 0.62277 0.16187 0.0
H1021 H 0.81613 0.56501 0.25903 0.0
H1022 H 0.82976 0.55147 0.13826 0.0
H1023 H 0.93031 0.55343 0.84296 0.0
H1024 H 0.89662 0.56572 0.83189 0.0
H1025 H 0.88377 0.54323 0.05877 0.0
H1026 H 0.91711 0.53078 0.06905 0.0
H1027 H 0.8677 0.57896 0.03611 0.0
H1028 H 0.87759 0.51797 0.90234 0.0
H1029 H 0.88761 0.49409 0.80363 0.0
H1030 H 0.8556 0.52556 0.63198 0.0
H1031 H 0.84679 0.55064 0.72805 0.0
C1032 C 0.79181 0.52525 0.04843 0.0
C1033 C 0.78084 0.53816 0.0936 0.0
C1034 C 0.8046 0.53254 0.99317 0.0
C1035 C 0.80653 0.55287 0.98259 0.0
C1036 C 0.79273 0.56536 0.01702 0.0
C1037 C 0.78011 0.55804 0.07379 0.0
C1038 C 0.82585 0.56031 0.95589 0.0
C1039 C 0.83416 0.55153 0.89044 0.0
C1040 C 0.8381 0.57125 0.00658 0.0
C1041 C 0.83087 0.57946 0.08017 0.0
C1042 C 0.82753 0.59963 0.08757 0.0
C1043 C 0.82 0.60722 0.15641 0.0
C1044 C 0.8158 0.59473 0.21801 0.0
C1045 C 0.81931 0.57466 0.21121 0.0
C1046 C 0.82707 0.56705 0.1429 0.0
C1047 C 0.92032 0.55162 0.89096 0.0
C1048 C 0.9261 0.54132 0.95708 0.0
C1049 C 0.90116 0.55855 0.88445 0.0
C1050 C 0.88777 0.55539 0.94447 0.0
C1051 C 0.89396 0.54597 0.01205 0.0
C1052 C 0.91292 0.53882 0.01798 0.0
C1053 C 0.86679 0.56009 0.93632 0.0
C1054 C 0.85831 0.57159 0.99433 0.0
C1055 C 0.85456 0.55041 0.88177 0.0
C1056 C 0.8621 0.53668 0.8222 0.0
C1057 C 0.87342 0.52037 0.84295 0.0
C1058 C 0.87887 0.50656 0.78731 0.0
C1059 C 0.87253 0.5085 0.71118 0.0
C1060 C 0.86097 0.52438 0.69034 0.0
C1061 C 0.85593 0.53852 0.74521 0.0
H1062 H 0.87631 0.49755 0.6686 0.0
H1063 H 0.8099 0.60062 0.27113 0.0
H1064 H 0.98737 0.22708 0.97681 0.0
H1065 H 0.99027 0.19537 0.91095 0.0
H1066 H 0.04601 0.18632 0.02163 0.0
H1067 H 0.0433 0.21844 0.08561 0.0
H1068 H 0.04717 0.17074 0.8801 0.0
H1069 H 1.00254 0.1664 0.09159 0.0
H1070 H 0.97392 0.17589 0.16945 0.0
H1071 H 0.93576 0.16216 0.97934 0.0
H1072 H 0.96421 0.1529 0.89988 0.0
H1073 H 0.04628 0.0654 0.85487 0.0
H1074 H 0.0459 0.09938 0.90155 0.0
H1075 H 0.99428 0.11035 0.76602 0.0
H1076 H 0.99486 0.07656 0.71751 0.0
H1077 H 0.99122 0.12495 0.91754 0.0
H1078 H 0.03649 0.12902 0.70721 0.0
H1079 H 0.06539 0.11928 0.63144 0.0
H1080 H 0.10273 0.1327 0.82432 0.0
H1081 H 0.07397 0.14223 0.90162 0.0
C1082 C 1.00054 0.21861 0.98499 0.0
C1083 C 0.01528 0.22549 0.03522 0.0
C1084 C 1.00209 0.20028 0.94816 0.0
C1085 C 0.0182 0.18801 0.96206 0.0
C1086 C 0.0334 0.19532 0.00951 0.0
C1087 C 0.03192 0.21378 0.04584 0.0
C1088 C 0.01859 0.16728 0.9309 0.0
C1089 C 0.035 0.16072 0.88924 0.0
C1090 C 1.00269 0.15398 0.94132 0.0
C1091 C 0.98552 0.15916 0.98949 0.0
C1092 C 0.98805 0.16551 0.06623 0.0
C1093 C 0.97186 0.17084 0.11068 0.0
C1094 C 0.95303 0.16966 0.07932 0.0
C1095 C 0.95035 0.16309 0.00352 0.0
C1096 C 0.96651 0.1578 0.95875 0.0
C1097 C 0.03489 0.07503 0.83456 0.0
C1098 C 0.02064 0.06807 0.78205 0.0
C1099 C 0.03471 0.09456 0.86126 0.0
C1100 C 0.02012 0.10766 0.83724 0.0
C1101 C 1.00576 0.10069 0.78547 0.0
C1102 C 1.00615 0.08128 0.75751 0.0
C1103 C 0.01974 0.12848 0.86673 0.0
C1104 C 1.00335 0.13502 0.9083 0.0
C1105 C 0.03571 0.14166 0.85682 0.0
C1106 C 0.05305 0.13613 0.81042 0.0
C1107 C 0.05084 0.12973 0.73364 0.0
C1108 C 0.0672 0.12428 0.69039 0.0
C1109 C 0.08588 0.12532 0.72312 0.0
C1110 C 0.08824 0.13187 0.79909 0.0
C1111 C 0.07192 0.13731 0.84263 0.0
H1112 H 0.09853 0.12109 0.68956 0.0
H1113 H 0.94051 0.1738 0.11381 0.0
H1114 H 0.30669 0.9705 0.0258 0.0
H1115 H 0.33918 0.9747 0.96956 0.0
H1116 H 0.33344 0.03737 0.9856 0.0
H1117 H 0.30072 0.03322 0.04391 0.0
H1118 H 0.35253 0.02375 0.84482 0.0
H1119 H 0.35842 0.01623 0.11995 0.0
H1120 H 0.35114 0.9996 0.24275 0.0
H1121 H 0.3781 0.94714 0.15801 0.0
H1122 H 0.38526 0.96335 0.03422 0.0
H1123 H 0.4668 0.02215 0.91498 0.0
H1124 H 0.43316 0.022 0.96425 0.0
H1125 H 0.41288 0.9965 0.75049 0.0
H1126 H 0.44631 0.9972 0.70002 0.0
H1127 H 0.40681 0.99487 0.99579 0.0
H1128 H 0.36702 1.00904 0.71125 0.0
H1129 H 0.3738 0.02396 0.58505 0.0
H1130 H 0.4145 0.06417 0.69054 0.0
H1131 H 0.408 0.04939 0.81771 0.0
C1132 C 0.31215 0.98525 0.01659 0.0
C1133 C 0.30102 1.00152 0.0404 0.0
C1134 C 0.33085 0.98761 0.98441 0.0
C1135 C 0.33907 1.00634 0.97433 0.0
C1136 C 0.32753 0.02274 0.99299 0.0
C1137 C 0.30873 0.02036 0.02593 0.0
C1138 C 0.36005 1.00846 0.94869 0.0
C1139 C 0.36438 0.01753 0.87809 0.0
C1140 C 0.37572 1.00044 0.99183 0.0
C1141 C 0.37223 0.99096 0.06751 0.0
C1142 C 0.36274 1.00113 0.12739 0.0
C1143 C 0.35862 0.99177 0.19716 0.0
C1144 C 0.36406 0.9723 0.20797 0.0
C1145 C 0.37384 0.96221 0.14943 0.0
C1146 C 0.37796 0.97148 0.07949 0.0
C1147 C 0.45518 0.01659 0.87815 0.0
C1148 C 0.45941 1.00989 0.80299 0.0
C1149 C 0.43586 0.01644 0.90664 0.0
C1150 C 0.42015 1.00958 0.86097 0.0
C1151 C 0.42446 1.00241 0.78656 0.0
C1152 C 0.44372 1.00273 0.75776 0.0
C1153 C 0.39937 1.00993 0.891 0.0
C1154 C 0.39504 1.00128 0.96262 0.0
C1155 C 0.38371 0.01836 0.84888 0.0
C1156 C 0.38708 0.02804 0.77373 0.0
C1157 C 0.3773 0.02116 0.70754 0.0
C1158 C 0.38114 0.02956 0.6358 0.0
C1159 C 0.39455 0.04502 0.62958 0.0
C1160 C 0.40413 0.05217 0.69534 0.0
C1161 C 0.40041 0.04375 0.76728 0.0
H1162 H 0.39752 0.05146 0.57384 0.0
H1163 H 0.36068 0.965 0.26164 0.0
H1164 H 0.48468 0.29289 0.02687 0.0
H1165 H 0.48429 0.32357 0.95285 0.0
H1166 H 0.54333 0.3363 0.02711 0.0
H1167 H 0.54369 0.30577 0.10028 0.0
H1168 H 0.48552 0.35939 0.0033 0.0
H1169 H 0.5671 0.36754 0.89313 0.0
H1170 H 0.59259 0.3476 0.83108 0.0
H1171 H 0.54954 0.30418 0.76868 0.0
H1172 H 0.52381 0.32375 0.83019 0.0
H1173 H 0.50618 0.46025 0.93059 0.0
H1174 H 0.50598 0.4265 0.97752 0.0
H1175 H 0.51909 0.4057 0.7484 0.0
H1176 H 0.51976 0.43936 0.70148 0.0
H1177 H 0.53886 0.38551 0.83922 0.0
H1178 H 0.47115 0.40228 0.84014 0.0
H1179 H 0.44223 0.42203 0.87287 0.0
H1180 H 0.45248 0.41227 0.11398 0.0
H1181 H 0.4816 0.39261 0.08263 0.0
C1182 C 0.4978 0.30191 0.02499 0.0
C1183 C 0.51433 0.29668 0.06848 0.0
C1184 C 0.49749 0.31963 0.98349 0.0
C1185 C 0.51378 0.33249 0.98386 0.0
C1186 C 0.53062 0.32673 0.02444 0.0
C1187 C 0.53086 0.30915 0.06622 0.0
C1188 C 0.51279 0.3525 0.94743 0.0
C1189 C 0.49716 0.36494 0.9667 0.0
C1190 C 0.52771 0.35993 0.89825 0.0
C1191 C 0.54342 0.34722 0.86668 0.0
C1192 C 0.56304 0.3537 0.86654 0.0
C1193 C 0.57756 0.34244 0.83137 0.0
C1194 C 0.57269 0.32463 0.79603 0.0
C1195 C 0.55332 0.31795 0.79637 0.0
C1196 C 0.53875 0.32911 0.83165 0.0
C1197 C 0.50894 0.4485 0.88994 0.0
C1198 C 0.51284 0.4527 0.8119 0.0
C1199 C 0.50869 0.42907 0.91688 0.0
C1200 C 0.51207 0.41319 0.86646 0.0
C1201 C 0.51622 0.41745 0.78876 0.0
C1202 C 0.51657 0.43684 0.76183 0.0
C1203 C 0.51166 0.39223 0.89439 0.0
C1204 C 0.52712 0.37972 0.87439 0.0
C1205 C 0.49622 0.38444 0.93996 0.0
C1206 C 0.47864 0.3961 0.95901 0.0
C1207 C 0.46729 0.40442 0.90012 0.0
C1208 C 0.45086 0.41559 0.91843 0.0
C1209 C 0.44554 0.41843 0.99546 0.0
C1210 C 0.45662 0.41006 0.05433 0.0
C1211 C 0.47307 0.39888 0.03632 0.0
H1212 H 0.43282 0.4271 0.00954 0.0
H1213 H 0.58393 0.31601 0.76827 0.0
H1214 H 0.21631 0.53968 0.10258 0.0
H1215 H 0.18735 0.53725 0.02159 0.0
H1216 H 0.20657 0.48108 0.93679 0.0
H1217 H 0.23544 0.48312 0.02201 0.0
H1218 H 0.17738 0.53599 0.88409 0.0
H1219 H 0.16676 0.45211 0.89262 0.0
H1220 H 0.17528 0.42406 0.97509 0.0
H1221 H 0.17847 0.46213 0.17273 0.0
H1222 H 0.16975 0.49033 0.09161 0.0
H1223 H 0.09128 0.51406 0.65942 0.0
H1224 H 0.12492 0.51383 0.70955 0.0
H1225 H 0.10322 0.49657 0.9327 0.0
H1226 H 0.06978 0.49661 0.88316 0.0
H1227 H 0.135 0.47701 0.90493 0.0
H1228 H 0.11553 0.54301 0.88368 0.0
H1229 H 0.10483 0.57403 0.8263 0.0
H1230 H 0.15811 0.57746 0.69581 0.0
H1231 H 0.1686 0.54585 0.74842 0.0
C1232 C 0.21451 0.52681 0.06636 0.0
C1233 C 0.22814 0.51144 0.07006 0.0
C1234 C 0.19787 0.52548 0.01938 0.0
C1235 C 0.19427 0.5088 0.97353 0.0
C1236 C 0.20858 0.49395 0.97277 0.0
C1237 C 0.22529 0.49522 0.02079 0.0
C1238 C 0.17509 0.50691 0.93052 0.0
C1239 C 0.16824 0.52297 0.88785 0.0
C1240 C 0.16271 0.49019 0.93659 0.0
C1241 C 0.16787 0.47334 0.98585 0.0
C1242 C 0.16926 0.45447 0.95369 0.0
C1243 C 0.17412 0.43855 1.0002 0.0
C1244 C 0.17749 0.44132 0.07903 0.0
C1245 C 0.17594 0.46001 0.11161 0.0
C1246 C 0.17106 0.47596 0.0654 0.0
C1247 C 0.09365 0.51005 0.71903 0.0
C1248 C 0.07762 0.50539 0.76702 0.0
C1249 C 0.11297 0.51001 0.74782 0.0
C1250 C 0.11682 0.5053 0.82542 0.0
C1251 C 0.10085 0.5002 0.87269 0.0
C1252 C 0.0816 0.50032 0.84414 0.0
C1253 C 0.13724 0.50615 0.85859 0.0
C1254 C 0.14429 0.48989 0.89949 0.0
C1255 C 0.14945 0.52306 0.85354 0.0
C1256 C 0.14261 0.54162 0.81837 0.0
C1257 C 0.12472 0.55002 0.84089 0.0
C1258 C 0.11868 0.56775 0.80916 0.0
C1259 C 0.13062 0.57756 0.75636 0.0
C1260 C 0.14865 0.56964 0.73526 0.0
C1261 C 0.15458 0.55172 0.76559 0.0
H1262 H 0.12601 0.59139 0.73246 0.0
H1263 H 0.18126 0.42899 0.11491 0.0
H1264 H 0.96922 0.80051 0.37254 0.0
H1265 H 0.97539 0.83263 0.43031 0.0
H1266 H 0.03742 0.82189 0.42614 0.0
H1267 H 0.03133 0.78962 0.36542 0.0
H1268 H 0.0222 0.84158 0.56873 0.0
H1269 H 0.02313 0.85083 0.29276 0.0
H1270 H 1.01039 0.84681 0.1607 0.0
H1271 H 0.9564 0.87378 0.22763 0.0
H1272 H 0.96897 0.87821 0.36025 0.0
H1273 H 0.04502 0.94186 0.65412 0.0
H1274 H 0.04425 0.90868 0.59934 0.0
H1275 H 0.98614 0.91899 0.51091 0.0
H1276 H 0.98786 0.95273 0.55954 0.0
H1277 H 1.00185 0.89851 0.412 0.0
H1278 H 1.0006 0.89042 0.68684 0.0
H1279 H 0.01386 0.89697 0.81597 0.0
H1280 H 0.0666 0.8664 0.75727 0.0
H1281 H 0.05395 0.86054 0.62574 0.0
C1282 C 0.98423 0.80479 0.38452 0.0
C1283 C 0.99977 0.79235 0.36326 0.0
C1284 C 0.98773 0.82329 0.41757 0.0
C1285 C 1.00689 0.82999 0.43177 0.0
C1286 C 0.02248 0.81717 0.41561 0.0
C1287 C 0.01897 0.7986 0.38143 0.0
C1288 C 1.01031 0.85067 0.46001 0.0
C1289 C 0.01803 0.85405 0.53405 0.0
C1290 C 1.00446 0.86708 0.4161 0.0
C1291 C 0.99691 0.86468 0.33646 0.0
C1292 C 1.00851 0.85582 0.27937 0.0
C1293 C 1.00133 0.85351 0.20437 0.0
C1294 C 0.9825 0.85983 0.18588 0.0
C1295 C 0.97094 0.8688 0.24213 0.0
C1296 C 0.97813 0.87132 0.31712 0.0
C1297 C 0.03209 0.93698 0.62308 0.0
C1298 C 0.01642 0.94989 0.61191 0.0
C1299 C 0.03154 0.91784 0.59201 0.0
C1300 C 0.01487 0.91066 0.55215 0.0
C1301 C 0.99924 0.92376 0.5411 0.0
C1302 C 1.00013 0.94311 0.56955 0.0
C1303 C 0.01356 0.88972 0.52199 0.0
C1304 C 1.00612 0.88619 0.44728 0.0
C1305 C 0.01945 0.87316 0.56585 0.0
C1306 C 0.02642 0.87526 0.6463 0.0
C1307 C 0.01502 0.88509 0.70147 0.0
C1308 C 0.02249 0.88875 0.77508 0.0
C1309 C 0.04111 0.88208 0.79512 0.0
C1310 C 0.05221 0.8716 0.7416 0.0
C1311 C 0.04494 0.86819 0.66734 0.0
H1312 H 0.04701 0.88506 0.85191 0.0
H1313 H 0.97686 0.85781 0.12806 0.0
H1314 H 0.73437 0.03075 0.36701 0.0
H1315 H 0.70427 0.03292 0.44479 0.0
H1316 H 0.68979 0.97319 0.3845 0.0
H1317 H 0.71978 0.97108 0.30758 0.0
H1318 H 0.66684 0.03044 0.39899 0.0
H1319 H 0.66155 0.95212 0.52893 0.0
H1320 H 0.6842 0.9262 0.56968 0.0
H1321 H 0.7291 0.96931 0.61206 0.0
H1322 H 0.70644 0.99557 0.57562 0.0
H1323 H 0.56853 1.00645 0.49319 0.0
H1324 H 0.60218 1.00611 0.44481 0.0
H1325 H 0.624 1.00617 0.67809 0.0
H1326 H 0.5903 1.00696 0.72697 0.0
H1327 H 0.6453 0.98186 0.59377 0.0
H1328 H 0.62612 0.04844 0.56563 0.0
H1329 H 0.6046 0.07542 0.52612 0.0
H1330 H 0.61087 0.05826 0.28884 0.0
H1331 H 0.63218 0.03096 0.32731 0.0
C1332 C 0.72509 0.0179 0.37275 0.0
C1333 C 0.72978 1.00055 0.33291 0.0
C1334 C 0.70769 0.01922 0.4163 0.0
C1335 C 0.69458 1.0032 0.42137 0.0
C1336 C 0.69962 0.98571 0.38311 0.0
C1337 C 0.7169 0.98444 0.33943 0.0
C1338 C 0.67525 1.00492 0.46302 0.0
C1339 C 0.66222 0.0198 0.44162 0.0
C1340 C 0.66909 0.99136 0.52018 0.0
C1341 C 0.68235 0.97581 0.54821 0.0
C1342 C 0.67616 0.95611 0.54797 0.0
C1343 C 0.689 0.94135 0.57045 0.0
C1344 C 0.70811 0.94609 0.59291 0.0
C1345 C 0.71432 0.96564 0.5943 0.0
C1346 C 0.70144 0.98048 0.57324 0.0
C1347 C 0.58044 1.00644 0.53442 0.0
C1348 C 0.57653 1.00682 0.61419 0.0
C1349 C 0.59979 1.00635 0.50655 0.0
C1350 C 0.61589 1.00649 0.55746 0.0
C1351 C 0.612 1.00626 0.6372 0.0
C1352 C 0.59264 1.00674 0.66519 0.0
C1353 C 0.63664 1.0069 0.52732 0.0
C1354 C 0.64996 0.9925 0.55121 0.0
C1355 C 0.64318 0.02104 0.47313 0.0
C1356 C 0.63057 0.03755 0.44952 0.0
C1357 C 0.62277 0.05033 0.50517 0.0
C1358 C 0.61063 0.06569 0.48293 0.0
C1359 C 0.60632 0.06852 0.40501 0.0
C1360 C 0.6142 0.05603 0.34919 0.0
C1361 C 0.62632 0.04062 0.37119 0.0
H1362 H 0.59692 0.08042 0.38787 0.0
H1363 H 0.71808 0.93464 0.60976 0.0
H1364 H 0.47994 0.71558 0.3422 0.0
H1365 H 0.48285 0.68536 0.41544 0.0
H1366 H 0.54477 0.69609 0.44339 0.0
H1367 H 0.54193 0.72631 0.36747 0.0
H1368 H 0.53982 0.65958 0.4042 0.0
H1369 H 0.51077 0.69936 0.59581 0.0
H1370 H 0.48754 0.72164 0.65942 0.0
H1371 H 0.44102 0.67988 0.62446 0.0
H1372 H 0.46391 0.65741 0.55972 0.0
H1373 H 0.51765 0.58406 0.73873 0.0
H1374 H 0.51789 0.6176 0.68918 0.0
H1375 H 0.51617 0.59507 0.45652 0.0
H1376 H 0.51601 0.56158 0.50598 0.0
H1377 H 0.49419 0.63913 0.61138 0.0
H1378 H 0.53863 0.62544 0.33145 0.0
H1379 H 0.56484 0.60375 0.28476 0.0
H1380 H 0.58515 0.596 0.51698 0.0
H1381 H 0.55924 0.61785 0.56494 0.0
C1382 C 0.49418 0.71171 0.3648 0.0
C1383 C 0.51071 0.7235 0.34858 0.0
C1384 C 0.49582 0.69436 0.40729 0.0
C1385 C 0.51402 0.68822 0.43593 0.0
C1386 C 0.5305 0.70032 0.42218 0.0
C1387 C 0.52885 0.71779 0.37945 0.0
C1388 C 0.51585 0.66873 0.47608 0.0
C1389 C 0.52983 0.65522 0.4497 0.0
C1390 C 0.50315 0.66286 0.53678 0.0
C1391 C 0.48909 0.6767 0.57255 0.0
C1392 C 0.49553 0.69503 0.60059 0.0
C1393 C 0.48243 0.70767 0.63716 0.0
C1394 C 0.46281 0.70221 0.64574 0.0
C1395 C 0.45622 0.68412 0.61756 0.0
C1396 C 0.46926 0.67141 0.58098 0.0
C1397 C 0.51718 0.58622 0.67707 0.0
C1398 C 0.51671 0.56996 0.62672 0.0
C1399 C 0.5174 0.60551 0.64856 0.0
C1400 C 0.51733 0.60917 0.56866 0.0
C1401 C 0.51668 0.5929 0.5183 0.0
C1402 C 0.51651 0.57363 0.54682 0.0
C1403 C 0.51774 0.62988 0.53805 0.0
C1404 C 0.50417 0.64359 0.56617 0.0
C1405 C 0.53109 0.6361 0.4802 0.0
C1406 C 0.54687 0.62314 0.45179 0.0
C1407 C 0.54874 0.61918 0.3725 0.0
C1408 C 0.56354 0.60684 0.34582 0.0
C1409 C 0.57662 0.59845 0.39789 0.0
C1410 C 0.57497 0.60245 0.47673 0.0
C1411 C 0.56022 0.61479 0.5037 0.0
H1412 H 0.58804 0.58889 0.37713 0.0
H1413 H 0.45272 0.71197 0.67449 0.0
H1414 H 0.79481 0.53466 0.44287 0.0
H1415 H 0.82642 0.53262 0.51085 0.0
H1416 H 0.84842 0.49509 0.33032 0.0
H1417 H 0.8169 0.49661 0.26459 0.0
H1418 H 0.86286 0.48262 0.45385 0.0
H1419 H 0.86053 0.54736 0.34588 0.0
H1420 H 0.84847 0.58074 0.32208 0.0
H1421 H 0.84989 0.59316 0.56487 0.0
H1422 H 0.8627 0.56014 0.58995 0.0
H1423 H 0.96618 0.50182 0.49481 0.0
H1424 H 0.93233 0.50224 0.44736 0.0
H1425 H 0.91266 0.523 0.66901 0.0
H1426 H 0.94641 0.52206 0.71764 0.0
H1427 H 0.8968 0.5439 0.53407 0.0
H1428 H 0.90496 0.47819 0.6304 0.0
H1429 H 0.92116 0.44618 0.63881 0.0
H1430 H 0.91103 0.43622 0.39729 0.0
H1431 H 0.89497 0.46833 0.38711 0.0
C1432 C 0.80621 0.52552 0.4191 0.0
C1433 C 0.8032 0.51569 0.34845 0.0
C1434 C 0.82449 0.52464 0.45722 0.0
C1435 C 0.84025 0.51403 0.4253 0.0
C1436 C 0.83678 0.50345 0.35677 0.0
C1437 C 0.81862 0.50427 0.3191 0.0
C1438 C 0.86042 0.51404 0.46145 0.0
C1439 C 0.87023 0.49611 0.47062 0.0
C1440 C 0.87038 0.53149 0.48438 0.0
C1441 C 0.86215 0.55113 0.46994 0.0
C1442 C 0.85806 0.55714 0.39425 0.0
C1443 C 0.85117 0.57602 0.38048 0.0
C1444 C 0.84807 0.58894 0.44193 0.0
C1445 C 0.85215 0.58309 0.51732 0.0
C1446 C 0.85934 0.56433 0.53134 0.0
C1447 C 0.95467 0.50646 0.5336 0.0
C1448 C 0.95912 0.51184 0.61024 0.0
C1449 C 0.93527 0.50667 0.50635 0.0
C1450 C 0.91981 0.51259 0.55449 0.0
C1451 C 0.92424 0.51832 0.63062 0.0
C1452 C 0.94359 0.51771 0.65845 0.0
C1453 C 0.89908 0.51259 0.5254 0.0
C1454 C 0.88927 0.53047 0.5175 0.0
C1455 C 0.88936 0.49518 0.50145 0.0
C1456 C 0.89885 0.47577 0.50788 0.0
C1457 C 0.90626 0.46926 0.57893 0.0
C1458 C 0.91542 0.45107 0.58404 0.0
C1459 C 0.91715 0.43919 0.51861 0.0
C1460 C 0.90968 0.44545 0.44794 0.0
C1461 C 0.90053 0.46363 0.44248 0.0
H1462 H 0.92426 0.42512 0.52268 0.0
H1463 H 0.84269 0.60353 0.43105 0.0
loop_
_geom_bond_atom_site_label_1
_geom_bond_atom_site_label_2
_geom_bond_distance
_geom_bond_site_symmetry_2
_ccdc_geom_bond_type
H0 C7 0.929 . S
H1 C10 0.930 . S
H2 C12 0.929 . S
H3 C4 0.969 . S
C4 H3 0.969 . S
C4 O5 1.550 . S
C4 H6 0.973 . S
O5 C4 1.550 . S
O5 C11 1.412 . S
H6 C4 0.973 . S
C7 H0 0.929 . S
C7 C8 1.400 . S
C7 C9 1.364 . S
C8 C7 1.400 . S
C8 C12 1.377 . S
C9 C7 1.364 . S
C9 C10 1.374 . S
C10 H1 0.930 . S
C10 C9 1.374 . S
C10 C11 1.383 . S
C11 O5 1.412 . S
C11 C10 1.383 . S
C11 C12 1.394 . S
C12 H2 0.929 . S
C12 C8 1.377 . S
C12 C11 1.394 . S
H13 C20 0.928 . S
H14 C23 0.935 . S
H15 C25 0.931 . S
H16 C17 0.969 . S
C17 H16 0.969 . S
C17 O18 1.550 1_455 S
C17 H19 0.973 1_455 S
O18 C17 1.550 1_655 S
O18 C24 1.415 . S
H19 C17 0.973 1_655 S
C20 H13 0.928 . S
C20 C21 1.400 . S
C20 C22 1.364 . S
C21 C20 1.400 . S
C21 C25 1.377 . S
C22 C20 1.364 . S
C22 C23 1.374 . S
C23 H14 0.935 . S
C23 C22 1.374 . S
C23 C24 1.382 . S
C24 O18 1.415 . S
C24 C23 1.382 . S
C24 C25 1.394 . S
C25 H15 0.931 . S
C25 C21 1.377 . S
C25 C24 1.394 . S
H26 C33 0.931 . S
H27 C36 0.930 . S
H28 C38 0.932 . S
H29 C30 0.969 . S
C30 H29 0.969 . S
C30 O31 1.550 1_545 S
C30 H32 0.973 1_545 S
O31 C30 1.550 1_565 S
O31 C37 1.419 . S
H32 C30 0.973 1_565 S
C33 H26 0.931 . S
C33 C34 1.400 . S
C33 C35 1.364 . S
C34 C33 1.400 . S
C34 C38 1.377 . S
C35 C33 1.364 . S
C35 C36 1.376 . S
C36 H27 0.930 . S
C36 C35 1.376 . S
C36 C37 1.384 . S
C37 O31 1.419 . S
C37 C36 1.384 . S
C37 C38 1.394 . S
C38 H28 0.932 . S
C38 C34 1.377 . S
C38 C37 1.394 . S
H39 C46 0.929 . S
H40 C49 0.930 . S
H41 C51 0.929 . S
H42 C43 0.969 . S
C43 H42 0.969 . S
C43 O44 1.550 . S
C43 H45 0.973 . S
O44 C43 1.550 . S
O44 C50 1.412 . S
H45 C43 0.973 . S
C46 H39 0.929 . S
C46 C47 1.400 . S
C46 C48 1.364 . S
C47 C46 1.400 . S
C47 C51 1.377 . S
C48 C46 1.364 . S
C48 C49 1.374 . S
C49 H40 0.930 . S
C49 C48 1.374 . S
C49 C50 1.383 . S
C50 O44 1.412 . S
C50 C49 1.383 . S
C50 C51 1.394 . S
C51 H41 0.929 . S
C51 C47 1.377 . S
C51 C50 1.394 . S
H52 C59 0.929 . S
H53 C62 0.930 . S
H54 C64 0.929 . S
H55 C56 0.969 . S
C56 H55 0.969 . S
C56 O57 1.550 . S
C56 H58 0.973 . S
O57 C56 1.550 . S
O57 C63 1.412 . S
H58 C56 0.973 . S
C59 H52 0.929 . S
C59 C60 1.400 1_554 S
C59 C61 1.364 . S
C60 C59 1.400 1_556 S
C60 C64 1.377 . S
C61 C59 1.364 . S
C61 C62 1.374 . S
C62 H53 0.930 . S
C62 C61 1.374 . S
C62 C63 1.383 . S
C63 O57 1.412 . S
C63 C62 1.383 . S
C63 C64 1.394 1_554 S
C64 H54 0.929 . S
C64 C60 1.377 . S
C64 C63 1.394 1_556 S
H65 C72 0.929 . S
H66 C75 0.933 . S
H67 C77 0.929 . S
H68 C69 0.969 . S
C69 H68 0.969 . S
C69 O70 1.550 1_455 S
C69 H71 0.973 1_455 S
O70 C69 1.550 1_655 S
O70 C76 1.412 1_655 S
H71 C69 0.973 1_655 S
C72 H65 0.929 . S
C72 C73 1.400 1_554 S
C72 C74 1.364 . S
C73 C72 1.400 1_556 S
C73 C77 1.377 . S
C74 C72 1.364 . S
C74 C75 1.374 . S
C75 H66 0.933 . S
C75 C74 1.374 . S
C75 C76 1.383 . S
C76 O70 1.412 1_455 S
C76 C75 1.383 . S
C76 C77 1.394 1_554 S
C77 H67 0.929 . S
C77 C73 1.377 . S
C77 C76 1.394 1_556 S
H78 C85 0.931 . S
H79 C88 0.930 . S
H80 C90 0.931 . S
H81 C82 0.969 . S
C82 H81 0.969 . S
C82 O83 1.550 1_545 S
C82 H84 0.973 1_545 S
O83 C82 1.550 1_565 S
O83 C89 1.412 1_565 S
H84 C82 0.973 1_565 S
C85 H78 0.931 . S
C85 C86 1.400 1_554 S
C85 C87 1.364 . S
C86 C85 1.400 1_556 S
C86 C90 1.377 . S
C87 C85 1.364 . S
C87 C88 1.376 . S
C88 H79 0.930 . S
C88 C87 1.376 . S
C88 C89 1.386 . S
C89 O83 1.412 1_545 S
C89 C88 1.386 . S
C89 C90 1.394 1_554 S
C90 H80 0.931 . S
C90 C86 1.377 . S
C90 C89 1.394 1_556 S
H91 C98 0.929 . S
H92 C101 0.930 . S
H93 C103 0.929 . S
H94 C95 0.969 . S
C95 H94 0.969 . S
C95 O96 1.550 . S
C95 H97 0.973 . S
O96 C95 1.550 . S
O96 C102 1.412 . S
H97 C95 0.973 . S
C98 H91 0.929 . S
C98 C99 1.400 1_554 S
C98 C100 1.364 . S
C99 C98 1.400 1_556 S
C99 C103 1.377 . S
C100 C98 1.364 . S
C100 C101 1.374 . S
C101 H92 0.930 . S
C101 C100 1.374 . S
C101 C102 1.383 . S
C102 O96 1.412 . S
C102 C101 1.383 . S
C102 C103 1.394 1_554 S
C103 H93 0.929 . S
C103 C99 1.377 . S
C103 C102 1.394 1_556 S
La104 C106 2.928 . S
La104 O124 2.521 . S
La104 O125 2.629 . S
La104 O126 2.554 . S
La104 O127 2.757 1_565 S
La104 O128 2.470 . S
La104 O133 2.482 1_455 S
La104 O135 2.503 1_565 S
La105 C115 2.928 . S
La105 O127 2.482 1_655 S
La105 O129 2.503 1_545 S
La105 O130 2.521 . S
La105 O131 2.620 1_655 S
La105 O132 2.554 . S
La105 O133 2.757 1_545 S
La105 O134 2.470 . S
C106 La104 2.928 . S
C106 C107 1.503 . S
C106 O124 1.261 . S
C106 O125 1.247 . S
C107 C106 1.503 . S
C107 C108 1.394 . S
C107 C112 1.373 . S
C108 C107 1.394 . S
C108 C109 1.380 . S
C108 H136 0.930 . S
C109 C108 1.380 . S
C109 C110 1.376 . S
C109 H137 0.930 . S
C110 C109 1.376 . S
C110 C111 1.370 . S
C111 C110 1.370 . S
C111 C112 1.396 . S
C111 H138 0.929 1_455 S
C112 C107 1.373 . S
C112 C111 1.396 . S
C112 H139 0.929 1_455 S
C113 O126 1.265 . S
C113 O127 1.275 1_565 S
C114 O128 1.258 1_655 S
C114 O129 1.256 . S
C115 La105 2.928 . S
C115 C116 1.503 . S
C115 O130 1.261 . S
C115 O131 1.224 1_655 S
C116 C115 1.503 . S
C116 C117 1.394 . S
C116 C121 1.373 . S
C117 C116 1.394 . S
C117 C118 1.380 . S
C117 H140 0.930 . S
C118 C117 1.380 . S
C118 C119 1.376 . S
C118 H141 0.930 . S
C119 C118 1.376 . S
C119 C120 1.370 . S
C120 C119 1.370 . S
C120 C121 1.396 . S
C120 H142 0.929 1_655 S
C121 C116 1.373 . S
C121 C120 1.396 . S
C121 H143 0.929 1_655 S
C122 O132 1.272 . S
C122 O133 1.271 1_545 S
C123 O134 1.258 1_455 S
C123 O135 1.256 . S
O124 La104 2.521 . S
O124 C106 1.261 . S
O125 La104 2.629 . S
O125 C106 1.247 . S
O126 La104 2.554 . S
O126 C113 1.265 . S
O127 La104 2.757 1_545 S
O127 La105 2.482 1_455 S
O127 C113 1.275 1_545 S
O128 La104 2.470 . S
O128 C114 1.258 1_455 S
O129 La105 2.503 1_565 S
O129 C114 1.256 . S
O130 La105 2.521 . S
O130 C115 1.261 . S
O131 La105 2.620 1_455 S
O131 C115 1.224 1_455 S
O132 La105 2.554 . S
O132 C122 1.272 . S
O133 La104 2.482 1_655 S
O133 La105 2.757 1_565 S
O133 C122 1.271 1_565 S
O134 La105 2.470 . S
O134 C123 1.258 1_655 S
O135 La104 2.503 1_545 S
O135 C123 1.256 . S
H136 C108 0.930 . S
H137 C109 0.930 . S
H138 C111 0.929 1_655 S
H139 C112 0.929 1_655 S
H140 C117 0.930 . S
H141 C118 0.930 . S
H142 C120 0.929 1_455 S
H143 C121 0.929 1_455 S
La144 C146 2.928 . S
La144 O164 2.521 . S
La144 O165 2.630 1_545 S
La144 O166 2.554 . S
La144 O167 2.757 . S
La144 O168 2.470 . S
La144 O173 2.482 1_545 S
La144 O175 2.503 . S
La145 C155 2.928 . S
La145 O167 2.482 1_565 S
La145 O169 2.503 . S
La145 O170 2.521 . S
La145 O171 2.625 1_565 S
La145 O172 2.554 . S
La145 O173 2.757 . S
La145 O174 2.470 . S
C146 La144 2.928 . S
C146 C147 1.503 . S
C146 O164 1.261 . S
C146 O165 1.249 1_545 S
C147 C146 1.503 . S
C147 C148 1.394 . S
C147 C152 1.373 . S
C148 C147 1.394 . S
C148 C149 1.380 . S
C148 H176 0.930 . S
C149 C148 1.380 . S
C149 C150 1.376 . S
C149 H177 0.930 . S
C150 C149 1.376 . S
C150 C151 1.370 . S
C151 C150 1.370 . S
C151 C152 1.396 . S
C151 H178 0.929 1_545 S
C152 C147 1.373 . S
C152 C151 1.396 . S
C152 H179 0.929 1_545 S
C153 O166 1.240 . S
C153 O167 1.289 . S
C154 O168 1.258 1_565 S
C154 O169 1.256 . S
C155 La145 2.928 . S
C155 C156 1.503 . S
C155 O170 1.261 . S
C155 O171 1.236 1_565 S
C156 C155 1.503 . S
C156 C157 1.394 . S
C156 C161 1.373 . S
C157 C156 1.394 . S
C157 C158 1.380 . S
C157 H180 0.930 . S
C158 C157 1.380 . S
C158 C159 1.376 . S
C158 H181 0.930 . S
C159 C158 1.376 . S
C159 C160 1.370 . S
C160 C159 1.370 . S
C160 C161 1.396 . S
C160 H182 0.929 1_565 S
C161 C156 1.373 . S
C161 C160 1.396 . S
C161 H183 0.929 1_565 S
C162 O172 1.240 . S
C162 O173 1.289 . S
C163 O174 1.258 1_545 S
C163 O175 1.256 . S
O164 La144 2.521 . S
O164 C146 1.261 . S
O165 La144 2.630 1_565 S
O165 C146 1.249 1_565 S
O166 La144 2.554 . S
O166 C153 1.240 . S
O167 La144 2.757 . S
O167 La145 2.482 1_545 S
O167 C153 1.289 . S
O168 La144 2.470 . S
O168 C154 1.258 1_545 S
O169 La145 2.503 . S
O169 C154 1.256 . S
O170 La145 2.521 . S
O170 C155 1.261 . S
O171 La145 2.625 1_545 S
O171 C155 1.236 1_545 S
O172 La145 2.554 . S
O172 C162 1.240 . S
O173 La144 2.482 1_565 S
O173 La145 2.757 . S
O173 C162 1.289 . S
O174 La145 2.470 . S
O174 C163 1.258 1_565 S
O175 La144 2.503 . S
O175 C163 1.256 . S
H176 C148 0.930 . S
H177 C149 0.930 . S
H178 C151 0.929 1_565 S
H179 C152 0.929 1_565 S
H180 C157 0.930 . S
H181 C158 0.930 . S
H182 C160 0.929 1_545 S
H183 C161 0.929 1_545 S
La184 C186 2.928 . S
La184 O204 2.521 . S
La184 O205 2.628 . S
La184 O206 2.554 . S
La184 O207 2.757 . S
La184 O208 2.470 . S
La184 O213 2.482 . S
La184 O215 2.503 . S
La185 C195 2.928 . S
La185 O207 2.482 . S
La185 O209 2.503 . S
La185 O210 2.521 . S
La185 O211 2.628 . S
La185 O212 2.554 . S
La185 O213 2.757 . S
La185 O214 2.470 . S
C186 La184 2.928 . S
C186 C187 1.503 . S
C186 O204 1.261 . S
C186 O205 1.243 . S
C187 C186 1.503 . S
C187 C188 1.394 . S
C187 C192 1.373 . S
C188 C187 1.394 . S
C188 C189 1.380 . S
C188 H216 0.930 . S
C189 C188 1.380 . S
C189 C190 1.376 . S
C189 H217 0.930 . S
C190 C189 1.376 . S
C190 C191 1.370 . S
C191 C190 1.370 . S
C191 C192 1.396 . S
C191 H218 0.929 . S
C192 C187 1.373 . S
C192 C191 1.396 . S
C192 H219 0.929 . S
C193 O206 1.240 . S
C193 O207 1.289 . S
C194 O208 1.258 . S
C194 O209 1.256 . S
C195 La185 2.928 . S
C195 C196 1.503 . S
C195 O210 1.261 . S
C195 O211 1.243 . S
C196 C195 1.503 . S
C196 C197 1.394 . S
C196 C201 1.373 . S
C197 C196 1.394 . S
C197 C198 1.380 . S
C197 H220 0.930 . S
C198 C197 1.380 . S
C198 C199 1.376 . S
C198 H221 0.930 . S
C199 C198 1.376 . S
C199 C200 1.370 . S
C200 C199 1.370 . S
C200 C201 1.396 . S
C200 H222 0.929 . S
C201 C196 1.373 . S
C201 C200 1.396 . S
C201 H223 0.929 . S
C202 O212 1.240 . S
C202 O213 1.289 . S
C203 O214 1.258 . S
C203 O215 1.256 . S
O204 La184 2.521 . S
O204 C186 1.261 . S
O205 La184 2.628 . S
O205 C186 1.243 . S
O206 La184 2.554 . S
O206 C193 1.240 . S
O207 La184 2.757 . S
O207 La185 2.482 . S
O207 C193 1.289 . S
O208 La184 2.470 . S
O208 C194 1.258 . S
O209 La185 2.503 . S
O209 C194 1.256 . S
O210 La185 2.521 . S
O210 C195 1.261 . S
O211 La185 2.628 . S
O211 C195 1.243 . S
O212 La185 2.554 . S
O212 C202 1.240 . S
O213 La184 2.482 . S
O213 La185 2.757 . S
O213 C202 1.289 . S
O214 La185 2.470 . S
O214 C203 1.258 . S
O215 La184 2.503 . S
O215 C203 1.256 . S
H216 C188 0.930 . S
H217 C189 0.930 . S
H218 C191 0.929 . S
H219 C192 0.929 . S
H220 C197 0.930 . S
H221 C198 0.930 . S
H222 C200 0.929 . S
H223 C201 0.929 . S
La224 C226 2.928 . S
La224 O244 2.521 . S
La224 O245 2.628 . S
La224 O246 2.554 . S
La224 O247 2.757 1_655 S
La224 O248 2.470 . S
La224 O253 2.482 . S
La224 O255 2.503 1_655 S
La225 C235 2.928 . S
La225 O247 2.482 . S
La225 O249 2.503 1_455 S
La225 O250 2.521 . S
La225 O251 2.628 . S
La225 O252 2.554 . S
La225 O253 2.757 1_455 S
La225 O254 2.470 . S
C226 La224 2.928 . S
C226 C227 1.503 . S
C226 O244 1.261 . S
C226 O245 1.243 . S
C227 C226 1.503 . S
C227 C228 1.394 . S
C227 C232 1.373 . S
C228 C227 1.394 . S
C228 C229 1.380 . S
C228 H256 0.930 . S
C229 C228 1.380 . S
C229 C230 1.376 . S
C229 H257 0.930 . S
C230 C229 1.376 . S
C230 C231 1.370 . S
C231 C230 1.370 . S
C231 C232 1.396 . S
C231 H258 0.929 . S
C232 C227 1.373 . S
C232 C231 1.396 . S
C232 H259 0.929 . S
C233 O246 1.257 . S
C233 O247 1.279 1_655 S
C234 O248 1.258 . S
C234 O249 1.256 . S
C235 La225 2.928 . S
C235 C236 1.503 . S
C235 O250 1.261 . S
C235 O251 1.243 . S
C236 C235 1.503 . S
C236 C237 1.394 . S
C236 C241 1.373 . S
C237 C236 1.394 . S
C237 C238 1.380 . S
C237 H260 0.930 . S
C238 C237 1.380 . S
C238 C239 1.376 . S
C238 H261 0.930 . S
C239 C238 1.376 . S
C239 C240 1.370 . S
C240 C239 1.370 . S
C240 C241 1.396 . S
C240 H262 0.929 . S
C241 C236 1.373 . S
C241 C240 1.396 . S
C241 H263 0.929 . S
C242 O252 1.240 . S
C242 O253 1.289 1_455 S
C243 O254 1.258 . S
C243 O255 1.256 . S
O244 La224 2.521 . S
O244 C226 1.261 . S
O245 La224 2.628 . S
O245 C226 1.243 . S
O246 La224 2.554 . S
O246 C233 1.257 . S
O247 La224 2.757 1_455 S
O247 La225 2.482 . S
O247 C233 1.279 1_455 S
O248 La224 2.470 . S
O248 C234 1.258 . S
O249 La225 2.503 1_655 S
O249 C234 1.256 . S
O250 La225 2.521 . S
O250 C235 1.261 . S
O251 La225 2.628 . S
O251 C235 1.243 . S
O252 La225 2.554 . S
O252 C242 1.240 . S
O253 La224 2.482 . S
O253 La225 2.757 1_655 S
O253 C242 1.289 1_655 S
O254 La225 2.470 . S
O254 C243 1.258 . S
O255 La224 2.503 1_455 S
O255 C243 1.256 . S
H256 C228 0.930 . S
H257 C229 0.930 . S
H258 C231 0.929 . S
H259 C232 0.929 . S
H260 C237 0.930 . S
H261 C238 0.930 . S
H262 C240 0.929 . S
H263 C241 0.929 . S
H264 C282 0.951 . S
H265 C284 0.951 . S
H266 C286 0.950 . S
H267 C287 0.950 . S
H268 C289 0.950 . S
H269 C292 0.950 . S
H270 C293 0.950 . S
H271 C295 0.950 . S
H272 C296 0.950 . S
H273 C297 0.951 . S
H274 C299 0.951 . S
H275 C301 0.950 . S
H276 C302 0.950 . S
H277 C304 0.950 . S
H278 C307 0.950 . S
H279 C308 0.950 . S
H280 C310 0.950 . S
H281 C311 0.950 . S
C282 H264 0.951 . S
C282 C283 1.366 1_565 S
C282 C284 1.388 . S
C283 C282 1.366 1_545 S
C283 C287 1.385 . S
C284 H265 0.951 . S
C284 C282 1.388 . S
C284 C285 1.337 1_565 S
C285 C284 1.337 1_545 S
C285 C286 1.444 . S
C285 C288 1.500 . S
C286 H266 0.950 . S
C286 C285 1.444 . S
C286 C287 1.374 . S
C287 H267 0.950 . S
C287 C283 1.385 . S
C287 C286 1.374 . S
C288 C285 1.500 . S
C288 C289 1.373 . S
C288 C290 1.389 1_545 S
C289 H268 0.950 . S
C289 C288 1.373 . S
C289 C305 1.377 . S
C290 C288 1.389 1_565 S
C290 C291 1.524 . S
C290 C304 1.377 . S
C291 C290 1.524 . S
C291 C292 1.397 . S
C291 C296 1.363 . S
C292 H269 0.950 . S
C292 C291 1.397 . S
C292 C293 1.334 . S
C293 H270 0.950 . S
C293 C292 1.334 . S
C293 C294 1.287 . S
C294 C293 1.287 . S
C294 C295 1.524 . S
C294 H313 0.913 . S
C295 H271 0.950 . S
C295 C294 1.524 . S
C295 C296 1.415 . S
C296 H272 0.950 . S
C296 C291 1.363 . S
C296 C295 1.415 . S
C297 H273 0.951 . S
C297 C298 1.366 . S
C297 C299 1.388 . S
C298 C297 1.366 . S
C298 C302 1.385 1_545 S
C299 H274 0.951 . S
C299 C297 1.388 . S
C299 C300 1.366 . S
C300 C299 1.366 . S
C300 C301 1.414 1_545 S
C300 C303 1.499 . S
C301 H275 0.950 . S
C301 C300 1.414 1_565 S
C301 C302 1.374 . S
C302 H276 0.950 . S
C302 C298 1.385 1_565 S
C302 C301 1.374 . S
C303 C300 1.499 . S
C303 C304 1.373 1_545 S
C303 C305 1.389 . S
C304 H277 0.950 . S
C304 C290 1.377 . S
C304 C303 1.373 1_565 S
C305 C289 1.377 . S
C305 C303 1.389 . S
C305 C306 1.524 . S
C306 C305 1.524 . S
C306 C307 1.397 . S
C306 C311 1.363 . S
C307 H278 0.950 . S
C307 C306 1.397 . S
C307 C308 1.334 . S
C308 H279 0.950 . S
C308 C307 1.334 . S
C308 C309 1.287 . S
C309 C308 1.287 . S
C309 C310 1.524 . S
C309 H312 0.999 . S
C310 H280 0.950 . S
C310 C309 1.524 . S
C310 C311 1.415 . S
C311 H281 0.950 . S
C311 C306 1.363 . S
C311 C310 1.415 . S
H312 C309 0.999 . S
H313 C294 0.913 . S
H314 C332 0.951 . S
H315 C334 0.951 . S
H316 C336 0.950 . S
H317 C337 0.950 . S
H318 C339 0.950 . S
H319 C342 0.950 . S
H320 C343 0.950 . S
H321 C345 0.950 . S
H322 C346 0.950 . S
H323 C347 0.951 . S
H324 C349 0.951 . S
H325 C351 0.950 . S
H326 C352 0.950 . S
H327 C354 0.950 . S
H328 C357 0.950 . S
H329 C358 0.950 . S
H330 C360 0.950 . S
H331 C361 0.950 . S
C332 H314 0.951 . S
C332 C333 1.366 . S
C332 C334 1.388 . S
C333 C332 1.366 . S
C333 C337 1.385 . S
C334 H315 0.951 . S
C334 C332 1.388 . S
C334 C335 1.366 . S
C335 C334 1.366 . S
C335 C336 1.414 . S
C335 C338 1.499 . S
C336 H316 0.950 . S
C336 C335 1.414 . S
C336 C337 1.374 . S
C337 H317 0.950 . S
C337 C333 1.385 . S
C337 C336 1.374 . S
C338 C335 1.499 . S
C338 C339 1.373 . S
C338 C340 1.389 . S
C339 H318 0.950 . S
C339 C338 1.373 . S
C339 C355 1.377 . S
C340 C338 1.389 . S
C340 C341 1.524 . S
C340 C354 1.377 . S
C341 C340 1.524 . S
C341 C342 1.397 . S
C341 C346 1.363 . S
C342 H319 0.950 . S
C342 C341 1.397 . S
C342 C343 1.334 . S
C343 H320 0.950 . S
C343 C342 1.334 . S
C343 C344 1.287 . S
C344 C343 1.287 . S
C344 C345 1.524 . S
C344 H363 0.913 . S
C345 H321 0.950 . S
C345 C344 1.524 . S
C345 C346 1.415 . S
C346 H322 0.950 . S
C346 C341 1.363 . S
C346 C345 1.415 . S
C347 H323 0.951 . S
C347 C348 1.366 . S
C347 C349 1.388 . S
C348 C347 1.366 . S
C348 C352 1.385 . S
C349 H324 0.951 . S
C349 C347 1.388 . S
C349 C350 1.366 . S
C350 C349 1.366 . S
C350 C351 1.414 . S
C350 C353 1.499 . S
C351 H325 0.950 . S
C351 C350 1.414 . S
C351 C352 1.374 . S
C352 H326 0.950 . S
C352 C348 1.385 . S
C352 C351 1.374 . S
C353 C350 1.499 . S
C353 C354 1.373 . S
C353 C355 1.389 . S
C354 H327 0.950 . S
C354 C340 1.377 . S
C354 C353 1.373 . S
C355 C339 1.377 . S
C355 C353 1.389 . S
C355 C356 1.524 . S
C356 C355 1.524 . S
C356 C357 1.397 . S
C356 C361 1.363 . S
C357 H328 0.950 . S
C357 C356 1.397 . S
C357 C358 1.334 . S
C358 H329 0.950 . S
C358 C357 1.334 . S
C358 C359 1.287 . S
C359 C358 1.287 . S
C359 C360 1.524 . S
C359 H362 0.999 . S
C360 H330 0.950 . S
C360 C359 1.524 . S
C360 C361 1.415 . S
C361 H331 0.950 . S
C361 C356 1.363 . S
C361 C360 1.415 . S
H362 C359 0.999 . S
H363 C344 0.913 . S
H364 C382 0.951 . S
H365 C384 0.951 . S
H366 C386 0.950 . S
H367 C387 0.950 . S
H368 C389 0.950 . S
H369 C392 0.950 . S
H370 C393 0.950 . S
H371 C395 0.950 . S
H372 C396 0.950 . S
H373 C397 0.951 . S
H374 C399 0.951 . S
H375 C401 0.950 . S
H376 C402 0.950 . S
H377 C404 0.950 . S
H378 C407 0.950 . S
H379 C408 0.950 . S
H380 C410 0.950 . S
H381 C411 0.950 . S
C382 H364 0.951 . S
C382 C383 1.366 . S
C382 C384 1.388 . S
C383 C382 1.366 . S
C383 C387 1.385 . S
C384 H365 0.951 . S
C384 C382 1.388 . S
C384 C385 1.366 . S
C385 C384 1.366 . S
C385 C386 1.414 . S
C385 C388 1.499 . S
C386 H366 0.950 . S
C386 C385 1.414 . S
C386 C387 1.374 . S
C387 H367 0.950 . S
C387 C383 1.385 . S
C387 C386 1.374 . S
C388 C385 1.499 . S
C388 C389 1.373 . S
C388 C390 1.389 . S
C389 H368 0.950 . S
C389 C388 1.373 . S
C389 C405 1.377 . S
C390 C388 1.389 . S
C390 C391 1.524 . S
C390 C404 1.377 . S
C391 C390 1.524 . S
C391 C392 1.397 . S
C391 C396 1.363 . S
C392 H369 0.950 . S
C392 C391 1.397 . S
C392 C393 1.334 . S
C393 H370 0.950 . S
C393 C392 1.334 . S
C393 C394 1.287 . S
C394 C393 1.287 . S
C394 C395 1.524 . S
C394 H413 0.913 . S
C395 H371 0.950 . S
C395 C394 1.524 . S
C395 C396 1.415 . S
C396 H372 0.950 . S
C396 C391 1.363 . S
C396 C395 1.415 . S
C397 H373 0.951 . S
C397 C398 1.366 . S
C397 C399 1.388 . S
C398 C397 1.366 . S
C398 C402 1.385 . S
C399 H374 0.951 . S
C399 C397 1.388 . S
C399 C400 1.366 . S
C400 C399 1.366 . S
C400 C401 1.414 . S
C400 C403 1.499 . S
C401 H375 0.950 . S
C401 C400 1.414 . S
C401 C402 1.374 . S
C402 H376 0.950 . S
C402 C398 1.385 . S
C402 C401 1.374 . S
C403 C400 1.499 . S
C403 C404 1.373 . S
C403 C405 1.389 . S
C404 H377 0.950 . S
C404 C390 1.377 . S
C404 C403 1.373 . S
C405 C389 1.377 . S
C405 C403 1.389 . S
C405 C406 1.524 . S
C406 C405 1.524 . S
C406 C407 1.397 . S
C406 C411 1.363 . S
C407 H378 0.950 . S
C407 C406 1.397 . S
C407 C408 1.334 . S
C408 H379 0.950 . S
C408 C407 1.334 . S
C408 C409 1.287 . S
C409 C408 1.287 . S
C409 C410 1.524 . S
C409 H412 0.999 . S
C410 H380 0.950 . S
C410 C409 1.524 . S
C410 C411 1.415 . S
C411 H381 0.950 . S
C411 C406 1.363 . S
C411 C410 1.415 . S
H412 C409 0.999 . S
H413 C394 0.913 . S
H414 C432 0.951 . S
H415 C434 0.951 . S
H416 C436 0.950 . S
H417 C437 0.950 . S
H418 C439 0.950 . S
H419 C442 0.950 . S
H420 C443 0.950 . S
H421 C445 0.950 . S
H422 C446 0.950 . S
H423 C447 0.951 . S
H424 C449 0.951 . S
H425 C451 0.950 . S
H426 C452 0.950 . S
H427 C454 0.950 . S
H428 C457 0.950 . S
H429 C458 0.950 . S
H430 C460 0.950 . S
H431 C461 0.950 . S
C432 H414 0.951 . S
C432 C433 1.366 1_655 S
C432 C434 1.388 . S
C433 C432 1.366 1_455 S
C433 C437 1.385 . S
C434 H415 0.951 . S
C434 C432 1.388 . S
C434 C435 1.356 1_655 S
C435 C434 1.356 1_455 S
C435 C436 1.426 . S
C435 C438 1.499 . S
C436 H416 0.950 . S
C436 C435 1.426 . S
C436 C437 1.374 . S
C437 H417 0.950 . S
C437 C433 1.385 . S
C437 C436 1.374 . S
C438 C435 1.499 . S
C438 C439 1.410 . S
C438 C440 1.355 1_455 S
C439 H418 0.950 . S
C439 C438 1.410 . S
C439 C455 1.377 . S
C440 C438 1.355 1_655 S
C440 C441 1.524 . S
C440 C454 1.377 . S
C441 C440 1.524 . S
C441 C442 1.397 . S
C441 C446 1.363 . S
C442 H419 0.950 . S
C442 C441 1.397 . S
C442 C443 1.334 . S
C443 H420 0.950 . S
C443 C442 1.334 . S
C443 C444 1.287 . S
C444 C443 1.287 . S
C444 C445 1.524 . S
C444 H463 0.913 . S
C445 H421 0.950 . S
C445 C444 1.524 . S
C445 C446 1.415 . S
C446 H422 0.950 . S
C446 C441 1.363 . S
C446 C445 1.415 . S
C447 H423 0.951 . S
C447 C448 1.366 . S
C447 C449 1.388 . S
C448 C447 1.366 . S
C448 C452 1.385 1_455 S
C449 H424 0.951 . S
C449 C447 1.388 . S
C449 C450 1.366 . S
C450 C449 1.366 . S
C450 C451 1.414 1_455 S
C450 C453 1.499 . S
C451 H425 0.950 . S
C451 C450 1.414 1_655 S
C451 C452 1.374 . S
C452 H426 0.950 . S
C452 C448 1.385 1_655 S
C452 C451 1.374 . S
C453 C450 1.499 . S
C453 C454 1.373 1_455 S
C453 C455 1.389 . S
C454 H427 0.950 . S
C454 C440 1.377 . S
C454 C453 1.373 1_655 S
C455 C439 1.377 . S
C455 C453 1.389 . S
C455 C456 1.524 . S
C456 C455 1.524 . S
C456 C457 1.397 . S
C456 C461 1.363 . S
C457 H428 0.950 . S
C457 C456 1.397 . S
C457 C458 1.334 . S
C458 H429 0.950 . S
C458 C457 1.334 . S
C458 C459 1.287 . S
C459 C458 1.287 . S
C459 C460 1.524 . S
C459 H462 0.999 . S
C460 H430 0.950 . S
C460 C459 1.524 . S
C460 C461 1.415 . S
C461 H431 0.950 . S
C461 C456 1.363 . S
C461 C460 1.415 . S
H462 C459 0.999 . S
H463 C444 0.913 . S
H464 C482 0.951 . S
H465 C484 0.951 . S
H466 C486 0.950 . S
H467 C487 0.950 . S
H468 C489 0.950 . S
H469 C492 0.950 . S
H470 C493 0.950 . S
H471 C495 0.950 . S
H472 C496 0.950 . S
H473 C497 0.951 . S
H474 C499 0.951 . S
H475 C501 0.950 . S
H476 C502 0.950 . S
H477 C504 0.950 1_556 S
H478 C507 0.950 . S
H479 C508 0.950 . S
H480 C510 0.950 . S
H481 C511 0.950 . S
C482 H464 0.951 . S
C482 C483 1.398 . S
C482 C484 1.388 . S
C483 C482 1.398 . S
C483 C487 1.355 1_565 S
C484 H465 0.951 . S
C484 C482 1.388 . S
C484 C485 1.366 . S
C485 C484 1.366 . S
C485 C486 1.414 1_565 S
C485 C488 1.499 . S
C486 H466 0.950 . S
C486 C485 1.414 1_545 S
C486 C487 1.374 . S
C487 H467 0.950 . S
C487 C483 1.355 1_545 S
C487 C486 1.374 . S
C488 C485 1.499 . S
C488 C489 1.373 1_565 S
C488 C490 1.389 . S
C489 H468 0.950 . S
C489 C488 1.373 1_545 S
C489 C505 1.377 . S
C490 C488 1.389 . S
C490 C491 1.524 . S
C490 C504 1.377 . S
C491 C490 1.524 . S
C491 C492 1.397 . S
C491 C496 1.363 . S
C492 H469 0.950 . S
C492 C491 1.397 . S
C492 C493 1.334 . S
C493 H470 0.950 . S
C493 C492 1.334 . S
C493 C494 1.287 . S
C494 C493 1.287 . S
C494 C495 1.524 . S
C494 H513 0.913 . S
C495 H471 0.950 . S
C495 C494 1.524 . S
C495 C496 1.415 . S
C496 H472 0.950 . S
C496 C491 1.363 . S
C496 C495 1.415 . S
C497 H473 0.951 . S
C497 C498 1.366 1_545 S
C497 C499 1.388 . S
C498 C497 1.366 1_565 S
C498 C502 1.385 . S
C499 H474 0.951 . S
C499 C497 1.388 . S
C499 C500 1.356 1_545 S
C500 C499 1.356 1_565 S
C500 C501 1.424 . S
C500 C503 1.499 . S
C501 H475 0.950 . S
C501 C500 1.424 . S
C501 C502 1.374 . S
C502 H476 0.950 . S
C502 C498 1.385 . S
C502 C501 1.374 . S
C503 C500 1.499 . S
C503 C504 1.406 1_556 S
C503 C505 1.358 1_566 S
C504 H477 0.950 1_554 S
C504 C490 1.377 . S
C504 C503 1.406 1_554 S
C505 C489 1.377 . S
C505 C503 1.358 1_544 S
C505 C506 1.524 1_554 S
C506 C505 1.524 1_556 S
C506 C507 1.397 . S
C506 C511 1.363 1_556 S
C507 H478 0.950 . S
C507 C506 1.397 . S
C507 C508 1.334 . S
C508 H479 0.950 . S
C508 C507 1.334 . S
C508 C509 1.287 . S
C509 C508 1.287 . S
C509 C510 1.524 1_556 S
C509 H512 0.999 . S
C510 H480 0.950 . S
C510 C509 1.524 1_554 S
C510 C511 1.415 . S
C511 H481 0.950 . S
C511 C506 1.363 1_554 S
C511 C510 1.415 . S
H512 C509 0.999 . S
H513 C494 0.913 . S
H514 C532 0.951 . S
H515 C534 0.951 . S
H516 C536 0.950 . S
H517 C537 0.950 . S
H518 C539 0.950 . S
H519 C542 0.950 . S
H520 C543 0.950 . S
H521 C545 0.950 1_556 S
H522 C546 0.950 . S
H523 C547 0.951 . S
H524 C549 0.951 1_554 S
H525 C551 0.950 . S
H526 C552 0.950 . S
H527 C554 0.957 . S
H528 C557 0.950 . S
H529 C558 0.950 . S
H530 C560 0.950 . S
H531 C561 0.950 . S
C532 H514 0.951 . S
C532 C533 1.366 . S
C532 C534 1.388 . S
C533 C532 1.366 . S
C533 C537 1.385 . S
C534 H515 0.951 . S
C534 C532 1.388 . S
C534 C535 1.366 . S
C535 C534 1.366 . S
C535 C536 1.414 . S
C535 C538 1.499 . S
C536 H516 0.950 . S
C536 C535 1.414 . S
C536 C537 1.374 . S
C537 H517 0.950 . S
C537 C533 1.385 . S
C537 C536 1.374 . S
C538 C535 1.499 . S
C538 C539 1.373 . S
C538 C540 1.389 . S
C539 H518 0.950 . S
C539 C538 1.373 . S
C539 C555 1.377 . S
C540 C538 1.389 . S
C540 C541 1.524 . S
C540 C554 1.369 1_554 S
C541 C540 1.524 . S
C541 C542 1.397 . S
C541 C546 1.363 1_554 S
C542 H519 0.950 . S
C542 C541 1.397 . S
C542 C543 1.334 . S
C543 H520 0.950 . S
C543 C542 1.334 . S
C543 C544 1.287 . S
C544 C543 1.287 . S
C544 C545 1.524 . S
C544 H563 0.913 . S
C545 H521 0.950 1_554 S
C545 C544 1.524 . S
C545 C546 1.415 1_554 S
C546 H522 0.950 . S
C546 C541 1.363 1_556 S
C546 C545 1.415 1_556 S
C547 H523 0.951 . S
C547 C548 1.366 . S
C547 C549 1.388 . S
C548 C547 1.366 . S
C548 C552 1.385 . S
C549 H524 0.951 1_556 S
C549 C547 1.388 . S
C549 C550 1.366 . S
C550 C549 1.366 . S
C550 C551 1.414 . S
C550 C553 1.499 . S
C551 H525 0.950 . S
C551 C550 1.414 . S
C551 C552 1.374 . S
C552 H526 0.950 . S
C552 C548 1.385 . S
C552 C551 1.374 . S
C553 C550 1.499 . S
C553 C554 1.374 . S
C553 C555 1.389 1_556 S
C554 H527 0.957 . S
C554 C540 1.369 1_556 S
C554 C553 1.374 . S
C555 C539 1.377 . S
C555 C553 1.389 1_554 S
C555 C556 1.524 . S
C556 C555 1.524 . S
C556 C557 1.397 1_554 S
C556 C561 1.363 . S
C557 H528 0.950 . S
C557 C556 1.397 1_556 S
C557 C558 1.334 . S
C558 H529 0.950 . S
C558 C557 1.334 . S
C558 C559 1.287 1_556 S
C559 C558 1.287 1_554 S
C559 C560 1.524 . S
C559 H562 0.999 . S
C560 H530 0.950 . S
C560 C559 1.524 . S
C560 C561 1.415 . S
C561 H531 0.950 . S
C561 C556 1.363 . S
C561 C560 1.415 . S
H562 C559 0.999 . S
H563 C544 0.913 . S
H564 C582 0.951 . S
H565 C584 0.951 . S
H566 C586 0.950 . S
H567 C587 0.950 . S
H568 C589 0.950 . S
H569 C592 0.950 . S
H570 C593 0.950 . S
H571 C595 0.950 . S
H572 C596 0.950 . S
H573 C597 0.951 . S
H574 C599 0.951 . S
H575 C601 0.950 1_554 S
H576 C602 0.950 . S
H577 C604 0.950 . S
H578 C607 0.950 . S
H579 C608 0.950 . S
H580 C610 0.950 . S
H581 C611 0.950 . S
C582 H564 0.951 . S
C582 C583 1.366 . S
C582 C584 1.388 . S
C583 C582 1.366 . S
C583 C587 1.385 . S
C584 H565 0.951 . S
C584 C582 1.388 . S
C584 C585 1.366 . S
C585 C584 1.366 . S
C585 C586 1.414 . S
C585 C588 1.499 . S
C586 H566 0.950 . S
C586 C585 1.414 . S
C586 C587 1.374 . S
C587 H567 0.950 . S
C587 C583 1.385 . S
C587 C586 1.374 . S
C588 C585 1.499 . S
C588 C589 1.373 . S
C588 C590 1.389 . S
C589 H568 0.950 . S
C589 C588 1.373 . S
C589 C605 1.377 . S
C590 C588 1.389 . S
C590 C591 1.524 . S
C590 C604 1.377 . S
C591 C590 1.524 . S
C591 C592 1.397 . S
C591 C596 1.363 . S
C592 H569 0.950 . S
C592 C591 1.397 . S
C592 C593 1.334 . S
C593 H570 0.950 . S
C593 C592 1.334 . S
C593 C594 1.287 . S
C594 C593 1.287 . S
C594 C595 1.524 . S
C594 H613 0.913 . S
C595 H571 0.950 . S
C595 C594 1.524 . S
C595 C596 1.415 . S
C596 H572 0.950 . S
C596 C591 1.363 . S
C596 C595 1.415 . S
C597 H573 0.951 . S
C597 C598 1.366 . S
C597 C599 1.388 . S
C598 C597 1.366 . S
C598 C602 1.385 . S
C599 H574 0.951 . S
C599 C597 1.388 . S
C599 C600 1.366 . S
C600 C599 1.366 . S
C600 C601 1.414 . S
C600 C603 1.499 . S
C601 H575 0.950 1_556 S
C601 C600 1.414 . S
C601 C602 1.374 . S
C602 H576 0.950 . S
C602 C598 1.385 . S
C602 C601 1.374 . S
C603 C600 1.499 . S
C603 C604 1.373 1_556 S
C603 C605 1.389 1_556 S
C604 H577 0.950 . S
C604 C590 1.377 . S
C604 C603 1.373 1_554 S
C605 C589 1.377 . S
C605 C603 1.389 1_554 S
C605 C606 1.524 1_554 S
C606 C605 1.524 1_556 S
C606 C607 1.397 . S
C606 C611 1.363 . S
C607 H578 0.950 . S
C607 C606 1.397 . S
C607 C608 1.334 . S
C608 H579 0.950 . S
C608 C607 1.334 . S
C608 C609 1.287 . S
C609 C608 1.287 . S
C609 C610 1.524 . S
C609 H612 0.999 . S
C610 H580 0.950 . S
C610 C609 1.524 . S
C610 C611 1.415 . S
C611 H581 0.950 . S
C611 C606 1.363 . S
C611 C610 1.415 . S
H612 C609 0.999 . S
H613 C594 0.913 . S
H614 C632 0.951 . S
H615 C634 0.951 . S
H616 C636 0.950 . S
H617 C637 0.950 . S
H618 C639 0.956 . S
H619 C642 0.950 . S
H620 C643 0.950 . S
H621 C645 0.950 . S
H622 C646 0.950 . S
H623 C647 0.951 . S
H624 C649 0.951 . S
H625 C651 0.950 . S
H626 C652 0.950 . S
H627 C654 0.950 . S
H628 C657 0.950 . S
H629 C658 0.950 . S
H630 C660 0.950 . S
H631 C661 0.950 . S
C632 H614 0.951 . S
C632 C633 1.401 . S
C632 C634 1.388 . S
C633 C632 1.401 . S
C633 C637 1.349 1_655 S
C634 H615 0.951 . S
C634 C632 1.388 . S
C634 C635 1.371 . S
C635 C634 1.371 . S
C635 C636 1.409 1_655 S
C635 C638 1.498 1_655 S
C636 H616 0.950 . S
C636 C635 1.409 1_455 S
C636 C637 1.374 . S
C637 H617 0.950 . S
C637 C633 1.349 1_455 S
C637 C636 1.374 . S
C638 C635 1.498 1_455 S
C638 C639 1.373 . S
C638 C640 1.388 1_455 S
C639 H618 0.956 . S
C639 C638 1.373 . S
C639 C655 1.374 1_454 S
C640 C638 1.388 1_655 S
C640 C641 1.525 . S
C640 C654 1.377 . S
C641 C640 1.525 . S
C641 C642 1.384 1_655 S
C641 C646 1.373 . S
C642 H619 0.950 . S
C642 C641 1.384 1_455 S
C642 C643 1.334 . S
C643 H620 0.950 . S
C643 C642 1.334 . S
C643 C644 1.287 . S
C644 C643 1.287 . S
C644 C645 1.524 1_455 S
C644 H663 0.913 . S
C645 H621 0.950 . S
C645 C644 1.524 1_655 S
C645 C646 1.415 . S
C646 H622 0.950 . S
C646 C641 1.373 . S
C646 C645 1.415 . S
C647 H623 0.951 . S
C647 C648 1.366 1_455 S
C647 C649 1.388 . S
C648 C647 1.366 1_655 S
C648 C652 1.385 . S
C649 H624 0.951 . S
C649 C647 1.388 . S
C649 C650 1.366 1_455 S
C650 C649 1.366 1_655 S
C650 C651 1.414 . S
C650 C653 1.499 . S
C651 H625 0.950 . S
C651 C650 1.414 . S
C651 C652 1.374 . S
C652 H626 0.950 . S
C652 C648 1.385 . S
C652 C651 1.374 . S
C653 C650 1.499 . S
C653 C654 1.373 1_556 S
C653 C655 1.392 . S
C654 H627 0.950 . S
C654 C640 1.377 . S
C654 C653 1.373 1_554 S
C655 C639 1.374 1_656 S
C655 C653 1.392 . S
C655 C656 1.526 . S
C656 C655 1.526 . S
C656 C657 1.397 . S
C656 C661 1.363 1_655 S
C657 H628 0.950 . S
C657 C656 1.397 . S
C657 C658 1.334 . S
C658 H629 0.950 . S
C658 C657 1.334 . S
C658 C659 1.287 . S
C659 C658 1.287 . S
C659 C660 1.524 1_655 S
C659 H662 0.999 . S
C660 H630 0.950 . S
C660 C659 1.524 1_455 S
C660 C661 1.415 . S
C661 H631 0.950 . S
C661 C656 1.363 1_455 S
C661 C660 1.415 . S
H662 C659 0.999 . S
H663 C644 0.913 . S
H664 C682 0.951 . S
H665 C684 0.951 . S
H666 C686 0.950 . S
H667 C687 0.950 . S
H668 C689 0.950 . S
H669 C692 0.950 . S
H670 C693 0.950 1_556 S
H671 C695 0.950 . S
H672 C696 0.950 . S
H673 C697 0.951 . S
H674 C699 0.951 . S
H675 C701 0.950 1_455 S
H676 C702 0.950 1_455 S
H677 C704 0.973 . S
H678 C707 0.950 . S
H679 C708 0.950 . S
H680 C710 0.950 . S
H681 C711 0.950 . S
C682 H664 0.951 . S
C682 C683 1.366 . S
C682 C684 1.388 . S
C683 C682 1.366 . S
C683 C687 1.385 1_455 S
C684 H665 0.951 . S
C684 C682 1.388 . S
C684 C685 1.366 1_455 S
C685 C684 1.366 1_655 S
C685 C686 1.414 . S
C685 C688 1.499 . S
C686 H666 0.950 . S
C686 C685 1.414 . S
C686 C687 1.374 . S
C687 H667 0.950 . S
C687 C683 1.385 1_655 S
C687 C686 1.374 . S
C688 C685 1.499 . S
C688 C689 1.373 . S
C688 C690 1.389 1_655 S
C689 H668 0.950 . S
C689 C688 1.373 . S
C689 C705 1.377 . S
C690 C688 1.389 1_455 S
C690 C691 1.524 . S
C690 C704 1.382 . S
C691 C690 1.524 . S
C691 C692 1.397 . S
C691 C696 1.363 . S
C692 H669 0.950 . S
C692 C691 1.397 . S
C692 C693 1.334 . S
C693 H670 0.950 1_554 S
C693 C692 1.334 . S
C693 C694 1.287 . S
C694 C693 1.287 . S
C694 C695 1.524 . S
C694 H713 0.913 . S
C695 H671 0.950 . S
C695 C694 1.524 . S
C695 C696 1.415 . S
C696 H672 0.950 . S
C696 C691 1.363 . S
C696 C695 1.415 . S
C697 H673 0.951 . S
C697 C698 1.366 . S
C697 C699 1.388 . S
C698 C697 1.366 . S
C698 C702 1.385 . S
C699 H674 0.951 . S
C699 C697 1.388 . S
C699 C700 1.366 . S
C700 C699 1.366 . S
C700 C701 1.414 . S
C700 C703 1.499 . S
C701 H675 0.950 1_655 S
C701 C700 1.414 . S
C701 C702 1.374 . S
C702 H676 0.950 1_655 S
C702 C698 1.385 . S
C702 C701 1.374 . S
C703 C700 1.499 . S
C703 C704 1.346 1_655 S
C703 C705 1.389 . S
C704 H677 0.973 . S
C704 C690 1.382 . S
C704 C703 1.346 1_455 S
C705 C689 1.377 . S
C705 C703 1.389 . S
C705 C706 1.524 . S
C706 C705 1.524 . S
C706 C707 1.397 . S
C706 C711 1.363 . S
C707 H678 0.950 . S
C707 C706 1.397 . S
C707 C708 1.334 . S
C708 H679 0.950 . S
C708 C707 1.334 . S
C708 C709 1.287 . S
C709 C708 1.287 . S
C709 C710 1.524 . S
C709 H712 0.999 . S
C710 H680 0.950 . S
C710 C709 1.524 . S
C710 C711 1.415 . S
C711 H681 0.950 . S
C711 C706 1.363 . S
C711 C710 1.415 . S
H712 C709 0.999 . S
H713 C694 0.913 . S
H714 C732 0.951 . S
H715 C734 0.951 . S
H716 C736 0.950 . S
H717 C737 0.950 . S
H718 C739 0.950 . S
H719 C742 0.950 . S
H720 C743 0.950 . S
H721 C745 0.950 . S
H722 C746 0.950 . S
H723 C747 0.932 1_545 S
H724 C749 0.951 1_545 S
H725 C751 0.950 . S
H726 C752 0.950 . S
H727 C754 0.950 . S
H728 C757 0.950 1_565 S
H729 C758 0.950 . S
H730 C760 0.950 . S
H731 C761 0.950 . S
C732 H714 0.951 . S
C732 C733 1.366 1_565 S
C732 C734 1.388 . S
C733 C732 1.366 1_545 S
C733 C737 1.385 . S
C734 H715 0.951 . S
C734 C732 1.388 . S
C734 C735 1.366 . S
C735 C734 1.366 . S
C735 C736 1.414 1_565 S
C735 C738 1.499 . S
C736 H716 0.950 . S
C736 C735 1.414 1_545 S
C736 C737 1.374 . S
C737 H717 0.950 . S
C737 C733 1.385 . S
C737 C736 1.374 . S
C738 C735 1.499 . S
C738 C739 1.373 1_565 S
C738 C740 1.389 . S
C739 H718 0.950 . S
C739 C738 1.373 1_545 S
C739 C755 1.377 . S
C740 C738 1.389 . S
C740 C741 1.524 . S
C740 C754 1.377 . S
C741 C740 1.524 . S
C741 C742 1.397 . S
C741 C746 1.363 . S
C742 H719 0.950 . S
C742 C741 1.397 . S
C742 C743 1.334 . S
C743 H720 0.950 . S
C743 C742 1.334 . S
C743 C744 1.287 . S
C744 C743 1.287 . S
C744 C745 1.524 . S
C744 H763 0.913 . S
C745 H721 0.950 . S
C745 C744 1.524 . S
C745 C746 1.415 . S
C746 H722 0.950 . S
C746 C741 1.363 . S
C746 C745 1.415 . S
C747 H723 0.932 1_565 S
C747 C748 1.366 . S
C747 C749 1.388 . S
C748 C747 1.366 . S
C748 C752 1.385 . S
C749 H724 0.951 1_565 S
C749 C747 1.388 . S
C749 C750 1.366 . S
C750 C749 1.366 . S
C750 C751 1.414 . S
C750 C753 1.499 . S
C751 H725 0.950 . S
C751 C750 1.414 . S
C751 C752 1.374 . S
C752 H726 0.950 . S
C752 C748 1.385 . S
C752 C751 1.374 . S
C753 C750 1.499 . S
C753 C754 1.373 . S
C753 C755 1.389 1_565 S
C754 H727 0.950 . S
C754 C740 1.377 . S
C754 C753 1.373 . S
C755 C739 1.377 . S
C755 C753 1.389 1_545 S
C755 C756 1.524 . S
C756 C755 1.524 . S
C756 C757 1.397 . S
C756 C761 1.363 . S
C757 H728 0.950 1_545 S
C757 C756 1.397 . S
C757 C758 1.334 . S
C758 H729 0.950 . S
C758 C757 1.334 . S
C758 C759 1.287 . S
C759 C758 1.287 . S
C759 C760 1.524 . S
C759 H762 0.999 . S
C760 H730 0.950 . S
C760 C759 1.524 . S
C760 C761 1.415 . S
C761 H731 0.950 . S
C761 C756 1.363 . S
C761 C760 1.415 . S
H762 C759 0.999 . S
H763 C744 0.913 . S
H764 C782 0.951 . S
H765 C784 0.951 . S
H766 C786 0.950 . S
H767 C787 0.950 . S
H768 C789 0.950 . S
H769 C792 0.950 . S
H770 C793 0.950 . S
H771 C795 0.950 . S
H772 C796 0.950 . S
H773 C797 0.951 . S
H774 C799 0.951 . S
H775 C801 0.950 . S
H776 C802 0.950 . S
H777 C804 0.950 . S
H778 C807 0.950 . S
H779 C808 0.950 . S
H780 C810 0.950 . S
H781 C811 0.950 . S
C782 H764 0.951 . S
C782 C783 1.366 . S
C782 C784 1.388 . S
C783 C782 1.366 . S
C783 C787 1.385 . S
C784 H765 0.951 . S
C784 C782 1.388 . S
C784 C785 1.366 . S
C785 C784 1.366 . S
C785 C786 1.414 . S
C785 C788 1.499 . S
C786 H766 0.950 . S
C786 C785 1.414 . S
C786 C787 1.374 . S
C787 H767 0.950 . S
C787 C783 1.385 . S
C787 C786 1.374 . S
C788 C785 1.499 . S
C788 C789 1.373 . S
C788 C790 1.389 . S
C789 H768 0.950 . S
C789 C788 1.373 . S
C789 C805 1.377 . S
C790 C788 1.389 . S
C790 C791 1.524 . S
C790 C804 1.377 . S
C791 C790 1.524 . S
C791 C792 1.397 . S
C791 C796 1.363 . S
C792 H769 0.950 . S
C792 C791 1.397 . S
C792 C793 1.334 1_554 S
C793 H770 0.950 . S
C793 C792 1.334 1_556 S
C793 C794 1.287 . S
C794 C793 1.287 . S
C794 C795 1.524 . S
C794 H813 0.913 . S
C795 H771 0.950 . S
C795 C794 1.524 . S
C795 C796 1.415 1_556 S
C796 H772 0.950 . S
C796 C791 1.363 . S
C796 C795 1.415 1_554 S
C797 H773 0.951 . S
C797 C798 1.366 . S
C797 C799 1.388 . S
C798 C797 1.366 . S
C798 C802 1.385 . S
C799 H774 0.951 . S
C799 C797 1.388 . S
C799 C800 1.366 . S
C800 C799 1.366 . S
C800 C801 1.414 . S
C800 C803 1.499 . S
C801 H775 0.950 . S
C801 C800 1.414 . S
C801 C802 1.374 . S
C802 H776 0.950 . S
C802 C798 1.385 . S
C802 C801 1.374 . S
C803 C800 1.499 . S
C803 C804 1.373 . S
C803 C805 1.389 . S
C804 H777 0.950 . S
C804 C790 1.377 . S
C804 C803 1.373 . S
C805 C789 1.377 . S
C805 C803 1.389 . S
C805 C806 1.524 . S
C806 C805 1.524 . S
C806 C807 1.397 . S
C806 C811 1.363 . S
C807 H778 0.950 . S
C807 C806 1.397 . S
C807 C808 1.334 . S
C808 H779 0.950 . S
C808 C807 1.334 . S
C808 C809 1.287 . S
C809 C808 1.287 . S
C809 C810 1.524 . S
C809 H812 0.999 . S
C810 H780 0.950 . S
C810 C809 1.524 . S
C810 C811 1.415 . S
C811 H781 0.950 . S
C811 C806 1.363 . S
C811 C810 1.415 . S
H812 C809 0.999 . S
H813 C794 0.913 . S
H814 C832 0.951 . S
H815 C834 0.951 . S
H816 C836 0.950 . S
H817 C837 0.950 . S
H818 C839 0.950 . S
H819 C842 0.950 . S
H820 C843 0.950 . S
H821 C845 0.950 . S
H822 C846 0.950 . S
H823 C847 0.951 . S
H824 C849 0.951 . S
H825 C851 0.950 . S
H826 C852 0.950 . S
H827 C854 0.950 . S
H828 C857 0.950 . S
H829 C858 0.950 . S
H830 C860 0.950 . S
H831 C861 0.950 . S
C832 H814 0.951 . S
C832 C833 1.366 . S
C832 C834 1.388 . S
C833 C832 1.366 . S
C833 C837 1.385 . S
C834 H815 0.951 . S
C834 C832 1.388 . S
C834 C835 1.366 . S
C835 C834 1.366 . S
C835 C836 1.414 . S
C835 C838 1.499 . S
C836 H816 0.950 . S
C836 C835 1.414 . S
C836 C837 1.374 . S
C837 H817 0.950 . S
C837 C833 1.385 . S
C837 C836 1.374 . S
C838 C835 1.499 . S
C838 C839 1.373 . S
C838 C840 1.389 . S
C839 H818 0.950 . S
C839 C838 1.373 . S
C839 C855 1.377 . S
C840 C838 1.389 . S
C840 C841 1.524 . S
C840 C854 1.377 . S
C841 C840 1.524 . S
C841 C842 1.397 . S
C841 C846 1.363 . S
C842 H819 0.950 . S
C842 C841 1.397 . S
C842 C843 1.334 . S
C843 H820 0.950 . S
C843 C842 1.334 . S
C843 C844 1.287 . S
C844 C843 1.287 . S
C844 C845 1.524 . S
C844 H863 0.913 . S
C845 H821 0.950 . S
C845 C844 1.524 . S
C845 C846 1.415 . S
C846 H822 0.950 . S
C846 C841 1.363 . S
C846 C845 1.415 . S
C847 H823 0.951 . S
C847 C848 1.366 . S
C847 C849 1.388 . S
C848 C847 1.366 . S
C848 C852 1.385 . S
C849 H824 0.951 . S
C849 C847 1.388 . S
C849 C850 1.366 . S
C850 C849 1.366 . S
C850 C851 1.414 . S
C850 C853 1.499 . S
C851 H825 0.950 . S
C851 C850 1.414 . S
C851 C852 1.374 . S
C852 H826 0.950 . S
C852 C848 1.385 . S
C852 C851 1.374 . S
C853 C850 1.499 . S
C853 C854 1.373 . S
C853 C855 1.389 . S
C854 H827 0.950 . S
C854 C840 1.377 . S
C854 C853 1.373 . S
C855 C839 1.377 . S
C855 C853 1.389 . S
C855 C856 1.524 . S
C856 C855 1.524 . S
C856 C857 1.397 . S
C856 C861 1.363 . S
C857 H828 0.950 . S
C857 C856 1.397 . S
C857 C858 1.334 . S
C858 H829 0.950 . S
C858 C857 1.334 . S
C858 C859 1.287 . S
C859 C858 1.287 . S
C859 C860 1.524 . S
C859 H862 0.999 . S
C860 H830 0.950 . S
C860 C859 1.524 . S
C860 C861 1.415 . S
C861 H831 0.950 . S
C861 C856 1.363 . S
C861 C860 1.415 . S
H862 C859 0.999 . S
H863 C844 0.913 . S
H864 C882 0.951 . S
H865 C884 0.951 . S
H866 C886 0.950 . S
H867 C887 0.950 . S
H868 C889 0.950 . S
H869 C892 0.950 . S
H870 C893 0.950 . S
H871 C895 0.950 . S
H872 C896 0.950 . S
H873 C897 0.951 . S
H874 C899 0.951 . S
H875 C901 0.950 . S
H876 C902 0.950 . S
H877 C904 0.950 . S
H878 C907 0.943 1_556 S
H879 C908 0.950 1_556 S
H880 C910 0.950 . S
H881 C911 0.950 . S
C882 H864 0.951 . S
C882 C883 1.366 1_455 S
C882 C884 1.388 . S
C883 C882 1.366 1_655 S
C883 C887 1.385 . S
C884 H865 0.951 . S
C884 C882 1.388 . S
C884 C885 1.366 . S
C885 C884 1.366 . S
C885 C886 1.414 1_455 S
C885 C888 1.499 . S
C886 H866 0.950 . S
C886 C885 1.414 1_655 S
C886 C887 1.374 . S
C887 H867 0.950 . S
C887 C883 1.385 . S
C887 C886 1.374 . S
C888 C885 1.499 . S
C888 C889 1.373 1_455 S
C888 C890 1.389 . S
C889 H868 0.950 . S
C889 C888 1.373 1_655 S
C889 C905 1.377 . S
C890 C888 1.389 . S
C890 C891 1.524 . S
C890 C904 1.377 . S
C891 C890 1.524 . S
C891 C892 1.397 . S
C891 C896 1.363 . S
C892 H869 0.950 . S
C892 C891 1.397 . S
C892 C893 1.334 . S
C893 H870 0.950 . S
C893 C892 1.334 . S
C893 C894 1.287 . S
C894 C893 1.287 . S
C894 C895 1.524 . S
C894 H913 0.913 . S
C895 H871 0.950 . S
C895 C894 1.524 . S
C895 C896 1.415 . S
C896 H872 0.950 . S
C896 C891 1.363 . S
C896 C895 1.415 . S
C897 H873 0.951 . S
C897 C898 1.366 1_554 S
C897 C899 1.388 . S
C898 C897 1.366 1_556 S
C898 C902 1.385 . S
C899 H874 0.951 . S
C899 C897 1.388 . S
C899 C900 1.366 . S
C900 C899 1.366 . S
C900 C901 1.414 1_554 S
C900 C903 1.499 . S
C901 H875 0.950 . S
C901 C900 1.414 1_556 S
C901 C902 1.374 . S
C902 H876 0.950 . S
C902 C898 1.385 . S
C902 C901 1.374 . S
C903 C900 1.499 . S
C903 C904 1.373 . S
C903 C905 1.389 1_455 S
C904 H877 0.950 . S
C904 C890 1.377 . S
C904 C903 1.373 . S
C905 C889 1.377 . S
C905 C903 1.389 1_655 S
C905 C906 1.524 . S
C906 C905 1.524 . S
C906 C907 1.397 . S
C906 C911 1.363 . S
C907 H878 0.943 1_554 S
C907 C906 1.397 . S
C907 C908 1.334 . S
C908 H879 0.950 1_554 S
C908 C907 1.334 . S
C908 C909 1.287 . S
C909 C908 1.287 . S
C909 C910 1.524 . S
C909 H912 0.999 . S
C910 H880 0.950 . S
C910 C909 1.524 . S
C910 C911 1.415 . S
C911 H881 0.950 . S
C911 C906 1.363 . S
C911 C910 1.415 . S
H912 C909 0.999 . S
H913 C894 0.913 . S
H914 C932 0.951 . S
H915 C934 0.951 . S
H916 C936 0.950 . S
H917 C937 0.950 . S
H918 C939 0.950 . S
H919 C942 0.950 . S
H920 C943 0.950 . S
H921 C945 0.950 . S
H922 C946 0.950 . S
H923 C947 0.951 . S
H924 C949 0.951 . S
H925 C951 0.950 . S
H926 C952 0.950 . S
H927 C954 0.950 . S
H928 C957 0.950 . S
H929 C958 0.950 . S
H930 C960 0.950 1_556 S
H931 C961 0.950 . S
C932 H914 0.951 . S
C932 C933 1.366 . S
C932 C934 1.388 . S
C933 C932 1.366 . S
C933 C937 1.385 1_565 S
C934 H915 0.951 . S
C934 C932 1.388 . S
C934 C935 1.366 1_565 S
C935 C934 1.366 1_545 S
C935 C936 1.414 . S
C935 C938 1.499 . S
C936 H916 0.950 . S
C936 C935 1.414 . S
C936 C937 1.374 . S
C937 H917 0.950 . S
C937 C933 1.385 1_545 S
C937 C936 1.374 . S
C938 C935 1.499 . S
C938 C939 1.373 . S
C938 C940 1.389 1_545 S
C939 H918 0.950 . S
C939 C938 1.373 . S
C939 C955 1.377 . S
C940 C938 1.389 1_565 S
C940 C941 1.524 . S
C940 C954 1.377 . S
C941 C940 1.524 . S
C941 C942 1.397 . S
C941 C946 1.363 . S
C942 H919 0.950 . S
C942 C941 1.397 . S
C942 C943 1.334 . S
C943 H920 0.950 . S
C943 C942 1.334 . S
C943 C944 1.287 . S
C944 C943 1.287 . S
C944 C945 1.524 . S
C944 H963 0.913 . S
C945 H921 0.950 . S
C945 C944 1.524 . S
C945 C946 1.415 . S
C946 H922 0.950 . S
C946 C941 1.363 . S
C946 C945 1.415 . S
C947 H923 0.951 . S
C947 C948 1.366 . S
C947 C949 1.388 . S
C948 C947 1.366 . S
C948 C952 1.385 1_556 S
C949 H924 0.951 . S
C949 C947 1.388 . S
C949 C950 1.366 1_556 S
C950 C949 1.366 1_554 S
C950 C951 1.414 . S
C950 C953 1.499 . S
C951 H925 0.950 . S
C951 C950 1.414 . S
C951 C952 1.374 . S
C952 H926 0.950 . S
C952 C948 1.385 1_554 S
C952 C951 1.374 . S
C953 C950 1.499 . S
C953 C954 1.373 1_545 S
C953 C955 1.389 . S
C954 H927 0.950 . S
C954 C940 1.377 . S
C954 C953 1.373 1_565 S
C955 C939 1.377 . S
C955 C953 1.389 . S
C955 C956 1.524 . S
C956 C955 1.524 . S
C956 C957 1.397 . S
C956 C961 1.363 . S
C957 H928 0.950 . S
C957 C956 1.397 . S
C957 C958 1.334 . S
C958 H929 0.950 . S
C958 C957 1.334 . S
C958 C959 1.287 . S
C959 C958 1.287 . S
C959 C960 1.524 . S
C959 H962 0.999 . S
C960 H930 0.950 1_554 S
C960 C959 1.524 . S
C960 C961 1.415 . S
C961 H931 0.950 . S
C961 C956 1.363 . S
C961 C960 1.415 . S
H962 C959 0.999 . S
H963 C944 0.913 . S
H964 C982 0.951 . S
H965 C984 0.951 . S
H966 C986 0.950 . S
H967 C987 0.950 . S
H968 C989 0.950 . S
H969 C992 0.950 . S
H970 C993 0.950 . S
H971 C995 0.950 . S
H972 C996 0.950 . S
H973 C997 0.951 . S
H974 C999 0.951 . S
H975 C1001 0.950 . S
H976 C1002 0.950 . S
H977 C1004 0.950 . S
H978 C1007 0.950 . S
H979 C1008 0.950 . S
H980 C1010 0.950 . S
H981 C1011 0.950 . S
C982 H964 0.951 . S
C982 C983 1.366 . S
C982 C984 1.388 . S
C983 C982 1.366 . S
C983 C987 1.385 . S
C984 H965 0.951 . S
C984 C982 1.388 . S
C984 C985 1.366 . S
C985 C984 1.366 . S
C985 C986 1.414 . S
C985 C988 1.499 . S
C986 H966 0.950 . S
C986 C985 1.414 . S
C986 C987 1.374 . S
C987 H967 0.950 . S
C987 C983 1.385 . S
C987 C986 1.374 . S
C988 C985 1.499 . S
C988 C989 1.373 . S
C988 C990 1.389 . S
C989 H968 0.950 . S
C989 C988 1.373 . S
C989 C1005 1.377 . S
C990 C988 1.389 . S
C990 C991 1.524 . S
C990 C1004 1.377 . S
C991 C990 1.524 . S
C991 C992 1.397 . S
C991 C996 1.363 1_554 S
C992 H969 0.950 . S
C992 C991 1.397 . S
C992 C993 1.334 . S
C993 H970 0.950 . S
C993 C992 1.334 . S
C993 C994 1.287 1_554 S
C994 C993 1.287 1_556 S
C994 C995 1.524 . S
C994 H1013 0.913 . S
C995 H971 0.950 . S
C995 C994 1.524 . S
C995 C996 1.415 . S
C996 H972 0.950 . S
C996 C991 1.363 1_556 S
C996 C995 1.415 . S
C997 H973 0.951 . S
C997 C998 1.366 1_554 S
C997 C999 1.388 . S
C998 C997 1.366 1_556 S
C998 C1002 1.385 . S
C999 H974 0.951 . S
C999 C997 1.388 . S
C999 C1000 1.366 . S
C1000 C999 1.366 . S
C1000 C1001 1.414 1_554 S
C1000 C1003 1.499 . S
C1001 H975 0.950 . S
C1001 C1000 1.414 1_556 S
C1001 C1002 1.374 . S
C1002 H976 0.950 . S
C1002 C998 1.385 . S
C1002 C1001 1.374 . S
C1003 C1000 1.499 . S
C1003 C1004 1.373 . S
C1003 C1005 1.389 . S
C1004 H977 0.950 . S
C1004 C990 1.377 . S
C1004 C1003 1.373 . S
C1005 C989 1.377 . S
C1005 C1003 1.389 . S
C1005 C1006 1.524 . S
C1006 C1005 1.524 . S
C1006 C1007 1.397 . S
C1006 C1011 1.363 . S
C1007 H978 0.950 . S
C1007 C1006 1.397 . S
C1007 C1008 1.334 . S
C1008 H979 0.950 . S
C1008 C1007 1.334 . S
C1008 C1009 1.287 . S
C1009 C1008 1.287 . S
C1009 C1010 1.524 . S
C1009 H1012 0.999 . S
C1010 H980 0.950 . S
C1010 C1009 1.524 . S
C1010 C1011 1.415 . S
C1011 H981 0.950 . S
C1011 C1006 1.363 . S
C1011 C1010 1.415 . S
H1012 C1009 0.999 . S
H1013 C994 0.913 . S
H1014 C1032 0.951 . S
H1015 C1034 0.951 . S
H1016 C1036 0.950 . S
H1017 C1037 0.950 . S
H1018 C1039 0.950 . S
H1019 C1042 0.950 . S
H1020 C1043 0.950 . S
H1021 C1045 0.950 . S
H1022 C1046 0.950 . S
H1023 C1047 0.951 . S
H1024 C1049 0.951 . S
H1025 C1051 0.950 . S
H1026 C1052 0.950 . S
H1027 C1054 0.950 . S
H1028 C1057 0.950 . S
H1029 C1058 0.950 . S
H1030 C1060 0.950 . S
H1031 C1061 0.950 . S
C1032 H1014 0.951 . S
C1032 C1033 1.366 . S
C1032 C1034 1.388 . S
C1033 C1032 1.366 . S
C1033 C1037 1.385 . S
C1034 H1015 0.951 . S
C1034 C1032 1.388 . S
C1034 C1035 1.366 . S
C1035 C1034 1.366 . S
C1035 C1036 1.414 . S
C1035 C1038 1.499 . S
C1036 H1016 0.950 . S
C1036 C1035 1.414 . S
C1036 C1037 1.374 . S
C1037 H1017 0.950 . S
C1037 C1033 1.385 . S
C1037 C1036 1.374 . S
C1038 C1035 1.499 . S
C1038 C1039 1.373 . S
C1038 C1040 1.389 . S
C1039 H1018 0.950 . S
C1039 C1038 1.373 . S
C1039 C1055 1.377 . S
C1040 C1038 1.389 . S
C1040 C1041 1.524 . S
C1040 C1054 1.377 . S
C1041 C1040 1.524 . S
C1041 C1042 1.397 . S
C1041 C1046 1.363 . S
C1042 H1019 0.950 . S
C1042 C1041 1.397 . S
C1042 C1043 1.334 . S
C1043 H1020 0.950 . S
C1043 C1042 1.334 . S
C1043 C1044 1.287 . S
C1044 C1043 1.287 . S
C1044 C1045 1.524 . S
C1044 H1063 0.913 . S
C1045 H1021 0.950 . S
C1045 C1044 1.524 . S
C1045 C1046 1.415 . S
C1046 H1022 0.950 . S
C1046 C1041 1.363 . S
C1046 C1045 1.415 . S
C1047 H1023 0.951 . S
C1047 C1048 1.366 . S
C1047 C1049 1.388 . S
C1048 C1047 1.366 . S
C1048 C1052 1.385 1_556 S
C1049 H1024 0.951 . S
C1049 C1047 1.388 . S
C1049 C1050 1.366 1_556 S
C1050 C1049 1.366 1_554 S
C1050 C1051 1.414 . S
C1050 C1053 1.499 . S
C1051 H1025 0.950 . S
C1051 C1050 1.414 . S
C1051 C1052 1.374 . S
C1052 H1026 0.950 . S
C1052 C1048 1.385 1_554 S
C1052 C1051 1.374 . S
C1053 C1050 1.499 . S
C1053 C1054 1.373 . S
C1053 C1055 1.389 . S
C1054 H1027 0.950 . S
C1054 C1040 1.377 . S
C1054 C1053 1.373 . S
C1055 C1039 1.377 . S
C1055 C1053 1.389 . S
C1055 C1056 1.524 . S
C1056 C1055 1.524 . S
C1056 C1057 1.397 . S
C1056 C1061 1.363 1_554 S
C1057 H1028 0.950 . S
C1057 C1056 1.397 . S
C1057 C1058 1.334 1_554 S
C1058 H1029 0.950 . S
C1058 C1057 1.334 1_556 S
C1058 C1059 1.287 . S
C1059 C1058 1.287 . S
C1059 C1060 1.524 . S
C1059 H1062 0.999 . S
C1060 H1030 0.950 . S
C1060 C1059 1.524 . S
C1060 C1061 1.415 . S
C1061 H1031 0.950 . S
C1061 C1056 1.363 1_556 S
C1061 C1060 1.415 . S
H1062 C1059 0.999 . S
H1063 C1044 0.913 . S
H1064 C1082 0.951 . S
H1065 C1084 0.951 . S
H1066 C1086 0.950 . S
H1067 C1087 0.950 . S
H1068 C1089 0.950 . S
H1069 C1092 0.950 . S
H1070 C1093 0.950 1_554 S
H1071 C1095 0.950 . S
H1072 C1096 0.950 . S
H1073 C1097 0.951 . S
H1074 C1099 0.951 . S
H1075 C1101 0.950 . S
H1076 C1102 0.950 . S
H1077 C1104 0.950 . S
H1078 C1107 0.950 . S
H1079 C1108 0.950 . S
H1080 C1110 0.950 . S
H1081 C1111 0.950 . S
C1082 H1064 0.951 . S
C1082 C1083 1.366 1_655 S
C1082 C1084 1.388 . S
C1083 C1082 1.366 1_455 S
C1083 C1087 1.385 . S
C1084 H1065 0.951 . S
C1084 C1082 1.388 . S
C1084 C1085 1.366 1_655 S
C1085 C1084 1.366 1_455 S
C1085 C1086 1.414 . S
C1085 C1088 1.499 . S
C1086 H1066 0.950 . S
C1086 C1085 1.414 . S
C1086 C1087 1.374 . S
C1087 H1067 0.950 . S
C1087 C1083 1.385 . S
C1087 C1086 1.374 . S
C1088 C1085 1.499 . S
C1088 C1089 1.373 . S
C1088 C1090 1.389 1_455 S
C1089 H1068 0.950 . S
C1089 C1088 1.373 . S
C1089 C1105 1.377 . S
C1090 C1088 1.389 1_655 S
C1090 C1091 1.524 . S
C1090 C1104 1.377 . S
C1091 C1090 1.524 . S
C1091 C1092 1.397 . S
C1091 C1096 1.363 . S
C1092 H1069 0.950 . S
C1092 C1091 1.397 . S
C1092 C1093 1.334 . S
C1093 H1070 0.950 1_556 S
C1093 C1092 1.334 . S
C1093 C1094 1.287 . S
C1094 C1093 1.287 . S
C1094 C1095 1.524 . S
C1094 H1113 0.913 . S
C1095 H1071 0.950 . S
C1095 C1094 1.524 . S
C1095 C1096 1.415 . S
C1096 H1072 0.950 . S
C1096 C1091 1.363 . S
C1096 C1095 1.415 . S
C1097 H1073 0.951 . S
C1097 C1098 1.366 . S
C1097 C1099 1.388 . S
C1098 C1097 1.366 . S
C1098 C1102 1.385 1_455 S
C1099 H1074 0.951 . S
C1099 C1097 1.388 . S
C1099 C1100 1.366 . S
C1100 C1099 1.366 . S
C1100 C1101 1.414 1_455 S
C1100 C1103 1.499 . S
C1101 H1075 0.950 . S
C1101 C1100 1.414 1_655 S
C1101 C1102 1.374 . S
C1102 H1076 0.950 . S
C1102 C1098 1.385 1_655 S
C1102 C1101 1.374 . S
C1103 C1100 1.499 . S
C1103 C1104 1.373 1_455 S
C1103 C1105 1.389 . S
C1104 H1077 0.950 . S
C1104 C1090 1.377 . S
C1104 C1103 1.373 1_655 S
C1105 C1089 1.377 . S
C1105 C1103 1.389 . S
C1105 C1106 1.524 . S
C1106 C1105 1.524 . S
C1106 C1107 1.397 . S
C1106 C1111 1.363 . S
C1107 H1078 0.950 . S
C1107 C1106 1.397 . S
C1107 C1108 1.334 . S
C1108 H1079 0.950 . S
C1108 C1107 1.334 . S
C1108 C1109 1.287 . S
C1109 C1108 1.287 . S
C1109 C1110 1.524 . S
C1109 H1112 0.999 . S
C1110 H1080 0.950 . S
C1110 C1109 1.524 . S
C1110 C1111 1.415 . S
C1111 H1081 0.950 . S
C1111 C1106 1.363 . S
C1111 C1110 1.415 . S
H1112 C1109 0.999 . S
H1113 C1094 0.913 . S
H1114 C1132 0.951 . S
H1115 C1134 0.951 . S
H1116 C1136 0.950 . S
H1117 C1137 0.950 . S
H1118 C1139 0.950 . S
H1119 C1142 0.950 . S
H1120 C1143 0.950 . S
H1121 C1145 0.950 . S
H1122 C1146 0.950 1_556 S
H1123 C1147 0.951 . S
H1124 C1149 0.951 . S
H1125 C1151 0.950 . S
H1126 C1152 0.950 . S
H1127 C1154 0.950 . S
H1128 C1157 0.950 1_565 S
H1129 C1158 0.950 1_565 S
H1130 C1160 0.950 . S
H1131 C1161 0.950 . S
C1132 H1114 0.951 . S
C1132 C1133 1.366 1_565 S
C1132 C1134 1.388 . S
C1133 C1132 1.366 1_545 S
C1133 C1137 1.385 . S
C1134 H1115 0.951 . S
C1134 C1132 1.388 . S
C1134 C1135 1.366 1_565 S
C1135 C1134 1.366 1_545 S
C1135 C1136 1.414 . S
C1135 C1138 1.499 . S
C1136 H1116 0.950 . S
C1136 C1135 1.414 . S
C1136 C1137 1.374 . S
C1137 H1117 0.950 . S
C1137 C1133 1.385 . S
C1137 C1136 1.374 . S
C1138 C1135 1.499 . S
C1138 C1139 1.373 . S
C1138 C1140 1.373 1_545 S
C1139 H1118 0.950 . S
C1139 C1138 1.373 . S
C1139 C1155 1.377 . S
C1140 C1138 1.373 1_565 S
C1140 C1141 1.540 . S
C1140 C1154 1.378 . S
C1141 C1140 1.540 . S
C1141 C1142 1.397 1_566 S
C1141 C1146 1.363 1_556 S
C1142 H1119 0.950 . S
C1142 C1141 1.397 1_544 S
C1142 C1143 1.334 . S
C1143 H1120 0.950 . S
C1143 C1142 1.334 . S
C1143 C1144 1.287 1_545 S
C1144 C1143 1.287 1_565 S
C1144 C1145 1.524 . S
C1144 H1163 0.913 . S
C1145 H1121 0.950 . S
C1145 C1144 1.524 . S
C1145 C1146 1.415 . S
C1146 H1122 0.950 1_554 S
C1146 C1141 1.363 1_554 S
C1146 C1145 1.415 . S
C1147 H1123 0.951 . S
C1147 C1148 1.366 . S
C1147 C1149 1.388 . S
C1148 C1147 1.366 . S
C1148 C1152 1.385 1_545 S
C1149 H1124 0.951 . S
C1149 C1147 1.388 . S
C1149 C1150 1.366 . S
C1150 C1149 1.366 . S
C1150 C1151 1.414 1_545 S
C1150 C1153 1.499 . S
C1151 H1125 0.950 . S
C1151 C1150 1.414 1_565 S
C1151 C1152 1.374 . S
C1152 H1126 0.950 . S
C1152 C1148 1.385 1_565 S
C1152 C1151 1.374 . S
C1153 C1150 1.499 . S
C1153 C1154 1.373 1_545 S
C1153 C1155 1.389 . S
C1154 H1127 0.950 . S
C1154 C1140 1.378 . S
C1154 C1153 1.373 1_565 S
C1155 C1139 1.377 . S
C1155 C1153 1.389 . S
C1155 C1156 1.524 . S
C1156 C1155 1.524 . S
C1156 C1157 1.397 . S
C1156 C1161 1.363 . S
C1157 H1128 0.950 1_545 S
C1157 C1156 1.397 . S
C1157 C1158 1.334 . S
C1158 H1129 0.950 1_545 S
C1158 C1157 1.334 . S
C1158 C1159 1.287 . S
C1159 C1158 1.287 . S
C1159 C1160 1.524 . S
C1159 H1162 0.999 . S
C1160 H1130 0.950 . S
C1160 C1159 1.524 . S
C1160 C1161 1.415 . S
C1161 H1131 0.950 . S
C1161 C1156 1.363 . S
C1161 C1160 1.415 . S
H1162 C1159 0.999 . S
H1163 C1144 0.913 . S
H1164 C1182 0.951 . S
H1165 C1184 0.951 . S
H1166 C1186 0.950 . S
H1167 C1187 0.950 . S
H1168 C1189 0.950 . S
H1169 C1192 0.950 . S
H1170 C1193 0.950 . S
H1171 C1195 0.950 . S
H1172 C1196 0.950 . S
H1173 C1197 0.951 . S
H1174 C1199 0.951 . S
H1175 C1201 0.950 . S
H1176 C1202 0.950 . S
H1177 C1204 0.950 . S
H1178 C1207 0.950 . S
H1179 C1208 0.950 1_556 S
H1180 C1210 0.950 . S
H1181 C1211 0.950 . S
C1182 H1164 0.951 . S
C1182 C1183 1.366 . S
C1182 C1184 1.388 . S
C1183 C1182 1.366 . S
C1183 C1187 1.385 . S
C1184 H1165 0.951 . S
C1184 C1182 1.388 . S
C1184 C1185 1.366 . S
C1185 C1184 1.366 . S
C1185 C1186 1.414 . S
C1185 C1188 1.499 . S
C1186 H1166 0.950 . S
C1186 C1185 1.414 . S
C1186 C1187 1.374 . S
C1187 H1167 0.950 . S
C1187 C1183 1.385 . S
C1187 C1186 1.374 . S
C1188 C1185 1.499 . S
C1188 C1189 1.373 . S
C1188 C1190 1.389 . S
C1189 H1168 0.950 . S
C1189 C1188 1.373 . S
C1189 C1205 1.377 . S
C1190 C1188 1.389 . S
C1190 C1191 1.524 . S
C1190 C1204 1.377 . S
C1191 C1190 1.524 . S
C1191 C1192 1.397 . S
C1191 C1196 1.363 . S
C1192 H1169 0.950 . S
C1192 C1191 1.397 . S
C1192 C1193 1.334 . S
C1193 H1170 0.950 . S
C1193 C1192 1.334 . S
C1193 C1194 1.287 . S
C1194 C1193 1.287 . S
C1194 C1195 1.524 . S
C1194 H1213 0.913 . S
C1195 H1171 0.950 . S
C1195 C1194 1.524 . S
C1195 C1196 1.415 . S
C1196 H1172 0.950 . S
C1196 C1191 1.363 . S
C1196 C1195 1.415 . S
C1197 H1173 0.951 . S
C1197 C1198 1.366 . S
C1197 C1199 1.388 . S
C1198 C1197 1.366 . S
C1198 C1202 1.385 . S
C1199 H1174 0.951 . S
C1199 C1197 1.388 . S
C1199 C1200 1.366 . S
C1200 C1199 1.366 . S
C1200 C1201 1.414 . S
C1200 C1203 1.499 . S
C1201 H1175 0.950 . S
C1201 C1200 1.414 . S
C1201 C1202 1.374 . S
C1202 H1176 0.950 . S
C1202 C1198 1.385 . S
C1202 C1201 1.374 . S
C1203 C1200 1.499 . S
C1203 C1204 1.373 . S
C1203 C1205 1.389 . S
C1204 H1177 0.950 . S
C1204 C1190 1.377 . S
C1204 C1203 1.373 . S
C1205 C1189 1.377 . S
C1205 C1203 1.389 . S
C1205 C1206 1.524 . S
C1206 C1205 1.524 . S
C1206 C1207 1.397 . S
C1206 C1211 1.363 1_556 S
C1207 H1178 0.950 . S
C1207 C1206 1.397 . S
C1207 C1208 1.334 1_556 S
C1208 H1179 0.950 1_554 S
C1208 C1207 1.334 1_554 S
C1208 C1209 1.287 . S
C1209 C1208 1.287 . S
C1209 C1210 1.524 . S
C1209 H1212 0.999 . S
C1210 H1180 0.950 . S
C1210 C1209 1.524 . S
C1210 C1211 1.415 . S
C1211 H1181 0.950 . S
C1211 C1206 1.363 1_554 S
C1211 C1210 1.415 . S
H1212 C1209 0.999 . S
H1213 C1194 0.913 . S
H1214 C1232 0.951 . S
H1215 C1234 0.951 . S
H1216 C1236 0.950 . S
H1217 C1237 0.950 . S
H1218 C1239 0.950 . S
H1219 C1242 0.950 . S
H1220 C1243 0.950 . S
H1221 C1245 0.950 . S
H1222 C1246 0.950 . S
H1223 C1247 0.951 . S
H1224 C1249 0.951 . S
H1225 C1251 0.950 . S
H1226 C1252 0.950 . S
H1227 C1254 0.950 . S
H1228 C1257 0.950 . S
H1229 C1258 0.950 . S
H1230 C1260 0.950 . S
H1231 C1261 0.950 . S
C1232 H1214 0.951 . S
C1232 C1233 1.366 . S
C1232 C1234 1.388 . S
C1233 C1232 1.366 . S
C1233 C1237 1.385 . S
C1234 H1215 0.951 . S
C1234 C1232 1.388 . S
C1234 C1235 1.366 . S
C1235 C1234 1.366 . S
C1235 C1236 1.414 . S
C1235 C1238 1.499 . S
C1236 H1216 0.950 . S
C1236 C1235 1.414 . S
C1236 C1237 1.374 . S
C1237 H1217 0.950 . S
C1237 C1233 1.385 . S
C1237 C1236 1.374 . S
C1238 C1235 1.499 . S
C1238 C1239 1.373 . S
C1238 C1240 1.389 . S
C1239 H1218 0.950 . S
C1239 C1238 1.373 . S
C1239 C1255 1.377 . S
C1240 C1238 1.389 . S
C1240 C1241 1.524 . S
C1240 C1254 1.377 . S
C1241 C1240 1.524 . S
C1241 C1242 1.397 . S
C1241 C1246 1.363 1_556 S
C1242 H1219 0.950 . S
C1242 C1241 1.397 . S
C1242 C1243 1.334 1_556 S
C1243 H1220 0.950 . S
C1243 C1242 1.334 1_554 S
C1243 C1244 1.287 . S
C1244 C1243 1.287 . S
C1244 C1245 1.524 . S
C1244 H1263 0.913 . S
C1245 H1221 0.950 . S
C1245 C1244 1.524 . S
C1245 C1246 1.415 . S
C1246 H1222 0.950 . S
C1246 C1241 1.363 1_554 S
C1246 C1245 1.415 . S
C1247 H1223 0.951 . S
C1247 C1248 1.366 . S
C1247 C1249 1.388 . S
C1248 C1247 1.366 . S
C1248 C1252 1.385 . S
C1249 H1224 0.951 . S
C1249 C1247 1.388 . S
C1249 C1250 1.366 . S
C1250 C1249 1.366 . S
C1250 C1251 1.414 . S
C1250 C1253 1.499 . S
C1251 H1225 0.950 . S
C1251 C1250 1.414 . S
C1251 C1252 1.374 . S
C1252 H1226 0.950 . S
C1252 C1248 1.385 . S
C1252 C1251 1.374 . S
C1253 C1250 1.499 . S
C1253 C1254 1.373 . S
C1253 C1255 1.389 . S
C1254 H1227 0.950 . S
C1254 C1240 1.377 . S
C1254 C1253 1.373 . S
C1255 C1239 1.377 . S
C1255 C1253 1.389 . S
C1255 C1256 1.524 . S
C1256 C1255 1.524 . S
C1256 C1257 1.397 . S
C1256 C1261 1.363 . S
C1257 H1228 0.950 . S
C1257 C1256 1.397 . S
C1257 C1258 1.334 . S
C1258 H1229 0.950 . S
C1258 C1257 1.334 . S
C1258 C1259 1.287 . S
C1259 C1258 1.287 . S
C1259 C1260 1.524 . S
C1259 H1262 0.999 . S
C1260 H1230 0.950 . S
C1260 C1259 1.524 . S
C1260 C1261 1.415 . S
C1261 H1231 0.950 . S
C1261 C1256 1.363 . S
C1261 C1260 1.415 . S
H1262 C1259 0.999 . S
H1263 C1244 0.913 . S
H1264 C1282 0.951 . S
H1265 C1284 0.951 . S
H1266 C1286 0.950 . S
H1267 C1287 0.950 . S
H1268 C1289 0.950 . S
H1269 C1292 0.929 1_455 S
H1270 C1293 0.950 . S
H1271 C1295 0.950 . S
H1272 C1296 0.950 . S
H1273 C1297 0.951 . S
H1274 C1299 0.951 . S
H1275 C1301 0.950 . S
H1276 C1302 0.950 . S
H1277 C1304 0.950 . S
H1278 C1307 0.950 1_655 S
H1279 C1308 0.950 . S
H1280 C1310 0.950 . S
H1281 C1311 0.950 . S
C1282 H1264 0.951 . S
C1282 C1283 1.366 . S
C1282 C1284 1.388 . S
C1283 C1282 1.366 . S
C1283 C1287 1.385 1_655 S
C1284 H1265 0.951 . S
C1284 C1282 1.388 . S
C1284 C1285 1.366 . S
C1285 C1284 1.366 . S
C1285 C1286 1.414 1_655 S
C1285 C1288 1.499 . S
C1286 H1266 0.950 . S
C1286 C1285 1.414 1_455 S
C1286 C1287 1.374 . S
C1287 H1267 0.950 . S
C1287 C1283 1.385 1_455 S
C1287 C1286 1.374 . S
C1288 C1285 1.499 . S
C1288 C1289 1.373 1_655 S
C1288 C1290 1.389 . S
C1289 H1268 0.950 . S
C1289 C1288 1.373 1_455 S
C1289 C1305 1.377 . S
C1290 C1288 1.389 . S
C1290 C1291 1.524 . S
C1290 C1304 1.377 . S
C1291 C1290 1.524 . S
C1291 C1292 1.397 . S
C1291 C1296 1.363 . S
C1292 H1269 0.929 1_655 S
C1292 C1291 1.397 . S
C1292 C1293 1.334 . S
C1293 H1270 0.950 . S
C1293 C1292 1.334 . S
C1293 C1294 1.287 . S
C1294 C1293 1.287 . S
C1294 C1295 1.524 . S
C1294 H1313 0.913 . S
C1295 H1271 0.950 . S
C1295 C1294 1.524 . S
C1295 C1296 1.415 . S
C1296 H1272 0.950 . S
C1296 C1291 1.363 . S
C1296 C1295 1.415 . S
C1297 H1273 0.951 . S
C1297 C1298 1.366 1_455 S
C1297 C1299 1.388 . S
C1298 C1297 1.366 1_655 S
C1298 C1302 1.385 . S
C1299 H1274 0.951 . S
C1299 C1297 1.388 . S
C1299 C1300 1.366 1_455 S
C1300 C1299 1.366 1_655 S
C1300 C1301 1.414 . S
C1300 C1303 1.499 . S
C1301 H1275 0.950 . S
C1301 C1300 1.414 . S
C1301 C1302 1.374 . S
C1302 H1276 0.950 . S
C1302 C1298 1.385 . S
C1302 C1301 1.374 . S
C1303 C1300 1.499 . S
C1303 C1304 1.373 . S
C1303 C1305 1.389 1_655 S
C1304 H1277 0.950 . S
C1304 C1290 1.377 . S
C1304 C1303 1.373 . S
C1305 C1289 1.377 . S
C1305 C1303 1.389 1_455 S
C1305 C1306 1.524 . S
C1306 C1305 1.524 . S
C1306 C1307 1.397 . S
C1306 C1311 1.363 . S
C1307 H1278 0.950 1_455 S
C1307 C1306 1.397 . S
C1307 C1308 1.334 . S
C1308 H1279 0.950 . S
C1308 C1307 1.334 . S
C1308 C1309 1.287 . S
C1309 C1308 1.287 . S
C1309 C1310 1.524 . S
C1309 H1312 0.999 . S
C1310 H1280 0.950 . S
C1310 C1309 1.524 . S
C1310 C1311 1.415 . S
C1311 H1281 0.950 . S
C1311 C1306 1.363 . S
C1311 C1310 1.415 . S
H1312 C1309 0.999 . S
H1313 C1294 0.913 . S
H1314 C1332 0.951 . S
H1315 C1334 0.951 . S
H1316 C1336 0.950 . S
H1317 C1337 0.950 . S
H1318 C1339 0.950 . S
H1319 C1342 0.950 . S
H1320 C1343 0.950 . S
H1321 C1345 0.950 . S
H1322 C1346 0.950 . S
H1323 C1347 0.951 . S
H1324 C1349 0.951 . S
H1325 C1351 0.950 . S
H1326 C1352 0.950 . S
H1327 C1354 0.950 . S
H1328 C1357 0.950 . S
H1329 C1358 0.950 . S
H1330 C1360 0.950 . S
H1331 C1361 0.950 . S
C1332 H1314 0.951 . S
C1332 C1333 1.366 . S
C1332 C1334 1.388 . S
C1333 C1332 1.366 . S
C1333 C1337 1.385 . S
C1334 H1315 0.951 . S
C1334 C1332 1.388 . S
C1334 C1335 1.366 . S
C1335 C1334 1.366 . S
C1335 C1336 1.414 . S
C1335 C1338 1.499 . S
C1336 H1316 0.950 . S
C1336 C1335 1.414 . S
C1336 C1337 1.374 . S
C1337 H1317 0.950 . S
C1337 C1333 1.385 . S
C1337 C1336 1.374 . S
C1338 C1335 1.499 . S
C1338 C1339 1.373 1_565 S
C1338 C1340 1.389 . S
C1339 H1318 0.950 . S
C1339 C1338 1.373 1_545 S
C1339 C1355 1.377 . S
C1340 C1338 1.389 . S
C1340 C1341 1.524 . S
C1340 C1354 1.377 . S
C1341 C1340 1.524 . S
C1341 C1342 1.397 . S
C1341 C1346 1.363 . S
C1342 H1319 0.950 . S
C1342 C1341 1.397 . S
C1342 C1343 1.334 . S
C1343 H1320 0.950 . S
C1343 C1342 1.334 . S
C1343 C1344 1.287 . S
C1344 C1343 1.287 . S
C1344 C1345 1.524 . S
C1344 H1363 0.913 . S
C1345 H1321 0.950 . S
C1345 C1344 1.524 . S
C1345 C1346 1.415 . S
C1346 H1322 0.950 . S
C1346 C1341 1.363 . S
C1346 C1345 1.415 . S
C1347 H1323 0.951 . S
C1347 C1348 1.366 . S
C1347 C1349 1.388 . S
C1348 C1347 1.366 . S
C1348 C1352 1.385 . S
C1349 H1324 0.951 . S
C1349 C1347 1.388 . S
C1349 C1350 1.366 . S
C1350 C1349 1.366 . S
C1350 C1351 1.414 . S
C1350 C1353 1.499 . S
C1351 H1325 0.950 . S
C1351 C1350 1.414 . S
C1351 C1352 1.374 . S
C1352 H1326 0.950 . S
C1352 C1348 1.385 . S
C1352 C1351 1.374 . S
C1353 C1350 1.499 . S
C1353 C1354 1.373 . S
C1353 C1355 1.389 1_565 S
C1354 H1327 0.950 . S
C1354 C1340 1.377 . S
C1354 C1353 1.373 . S
C1355 C1339 1.377 . S
C1355 C1353 1.389 1_545 S
C1355 C1356 1.524 . S
C1356 C1355 1.524 . S
C1356 C1357 1.397 . S
C1356 C1361 1.363 . S
C1357 H1328 0.950 . S
C1357 C1356 1.397 . S
C1357 C1358 1.334 . S
C1358 H1329 0.950 . S
C1358 C1357 1.334 . S
C1358 C1359 1.287 . S
C1359 C1358 1.287 . S
C1359 C1360 1.524 . S
C1359 H1362 0.999 . S
C1360 H1330 0.950 . S
C1360 C1359 1.524 . S
C1360 C1361 1.415 . S
C1361 H1331 0.950 . S
C1361 C1356 1.363 . S
C1361 C1360 1.415 . S
H1362 C1359 0.999 . S
H1363 C1344 0.913 . S
H1364 C1382 0.951 . S
H1365 C1384 0.951 . S
H1366 C1386 0.950 . S
H1367 C1387 0.950 . S
H1368 C1389 0.950 . S
H1369 C1392 0.950 . S
H1370 C1393 0.950 . S
H1371 C1395 0.950 . S
H1372 C1396 0.950 . S
H1373 C1397 0.951 . S
H1374 C1399 0.951 . S
H1375 C1401 0.950 . S
H1376 C1402 0.950 . S
H1377 C1404 0.950 . S
H1378 C1407 0.950 . S
H1379 C1408 0.950 . S
H1380 C1410 0.950 . S
H1381 C1411 0.950 . S
C1382 H1364 0.951 . S
C1382 C1383 1.366 . S
C1382 C1384 1.388 . S
C1383 C1382 1.366 . S
C1383 C1387 1.385 . S
C1384 H1365 0.951 . S
C1384 C1382 1.388 . S
C1384 C1385 1.366 . S
C1385 C1384 1.366 . S
C1385 C1386 1.414 . S
C1385 C1388 1.499 . S
C1386 H1366 0.950 . S
C1386 C1385 1.414 . S
C1386 C1387 1.374 . S
C1387 H1367 0.950 . S
C1387 C1383 1.385 . S
C1387 C1386 1.374 . S
C1388 C1385 1.499 . S
C1388 C1389 1.373 . S
C1388 C1390 1.389 . S
C1389 H1368 0.950 . S
C1389 C1388 1.373 . S
C1389 C1405 1.377 . S
C1390 C1388 1.389 . S
C1390 C1391 1.524 . S
C1390 C1404 1.377 . S
C1391 C1390 1.524 . S
C1391 C1392 1.397 . S
C1391 C1396 1.363 . S
C1392 H1369 0.950 . S
C1392 C1391 1.397 . S
C1392 C1393 1.334 . S
C1393 H1370 0.950 . S
C1393 C1392 1.334 . S
C1393 C1394 1.287 . S
C1394 C1393 1.287 . S
C1394 C1395 1.524 . S
C1394 H1413 0.913 . S
C1395 H1371 0.950 . S
C1395 C1394 1.524 . S
C1395 C1396 1.415 . S
C1396 H1372 0.950 . S
C1396 C1391 1.363 . S
C1396 C1395 1.415 . S
C1397 H1373 0.951 . S
C1397 C1398 1.366 . S
C1397 C1399 1.388 . S
C1398 C1397 1.366 . S
C1398 C1402 1.385 . S
C1399 H1374 0.951 . S
C1399 C1397 1.388 . S
C1399 C1400 1.366 . S
C1400 C1399 1.366 . S
C1400 C1401 1.414 . S
C1400 C1403 1.499 . S
C1401 H1375 0.950 . S
C1401 C1400 1.414 . S
C1401 C1402 1.374 . S
C1402 H1376 0.950 . S
C1402 C1398 1.385 . S
C1402 C1401 1.374 . S
C1403 C1400 1.499 . S
C1403 C1404 1.373 . S
C1403 C1405 1.389 . S
C1404 H1377 0.950 . S
C1404 C1390 1.377 . S
C1404 C1403 1.373 . S
C1405 C1389 1.377 . S
C1405 C1403 1.389 . S
C1405 C1406 1.524 . S
C1406 C1405 1.524 . S
C1406 C1407 1.397 . S
C1406 C1411 1.363 . S
C1407 H1378 0.950 . S
C1407 C1406 1.397 . S
C1407 C1408 1.334 . S
C1408 H1379 0.950 . S
C1408 C1407 1.334 . S
C1408 C1409 1.287 . S
C1409 C1408 1.287 . S
C1409 C1410 1.524 . S
C1409 H1412 0.999 . S
C1410 H1380 0.950 . S
C1410 C1409 1.524 . S
C1410 C1411 1.415 . S
C1411 H1381 0.950 . S
C1411 C1406 1.363 . S
C1411 C1410 1.415 . S
H1412 C1409 0.999 . S
H1413 C1394 0.913 . S
H1414 C1432 0.951 . S
H1415 C1434 0.951 . S
H1416 C1436 0.950 . S
H1417 C1437 0.950 . S
H1418 C1439 0.950 . S
H1419 C1442 0.950 . S
H1420 C1443 0.950 . S
H1421 C1445 0.950 . S
H1422 C1446 0.950 . S
H1423 C1447 0.951 . S
H1424 C1449 0.951 . S
H1425 C1451 0.950 . S
H1426 C1452 0.950 . S
H1427 C1454 0.950 . S
H1428 C1457 0.950 . S
H1429 C1458 0.950 . S
H1430 C1460 0.950 . S
H1431 C1461 0.950 . S
C1432 H1414 0.951 . S
C1432 C1433 1.366 . S
C1432 C1434 1.388 . S
C1433 C1432 1.366 . S
C1433 C1437 1.385 . S
C1434 H1415 0.951 . S
C1434 C1432 1.388 . S
C1434 C1435 1.366 . S
C1435 C1434 1.366 . S
C1435 C1436 1.414 . S
C1435 C1438 1.499 . S
C1436 H1416 0.950 . S
C1436 C1435 1.414 . S
C1436 C1437 1.374 . S
C1437 H1417 0.950 . S
C1437 C1433 1.385 . S
C1437 C1436 1.374 . S
C1438 C1435 1.499 . S
C1438 C1439 1.373 . S
C1438 C1440 1.389 . S
C1439 H1418 0.950 . S
C1439 C1438 1.373 . S
C1439 C1455 1.377 . S
C1440 C1438 1.389 . S
C1440 C1441 1.524 . S
C1440 C1454 1.377 . S
C1441 C1440 1.524 . S
C1441 C1442 1.397 . S
C1441 C1446 1.363 . S
C1442 H1419 0.950 . S
C1442 C1441 1.397 . S
C1442 C1443 1.334 . S
C1443 H1420 0.950 . S
C1443 C1442 1.334 . S
C1443 C1444 1.287 . S
C1444 C1443 1.287 . S
C1444 C1445 1.524 . S
C1444 H1463 0.913 . S
C1445 H1421 0.950 . S
C1445 C1444 1.524 . S
C1445 C1446 1.415 . S
C1446 H1422 0.950 . S
C1446 C1441 1.363 . S
C1446 C1445 1.415 . S
C1447 H1423 0.951 . S
C1447 C1448 1.366 . S
C1447 C1449 1.388 . S
C1448 C1447 1.366 . S
C1448 C1452 1.385 . S
C1449 H1424 0.951 . S
C1449 C1447 1.388 . S
C1449 C1450 1.366 . S
C1450 C1449 1.366 . S
C1450 C1451 1.414 . S
C1450 C1453 1.499 . S
C1451 H1425 0.950 . S
C1451 C1450 1.414 . S
C1451 C1452 1.374 . S
C1452 H1426 0.950 . S
C1452 C1448 1.385 . S
C1452 C1451 1.374 . S
C1453 C1450 1.499 . S
C1453 C1454 1.373 . S
C1453 C1455 1.389 . S
C1454 H1427 0.950 . S
C1454 C1440 1.377 . S
C1454 C1453 1.373 . S
C1455 C1439 1.377 . S
C1455 C1453 1.389 . S
C1455 C1456 1.524 . S
C1456 C1455 1.524 . S
C1456 C1457 1.397 . S
C1456 C1461 1.363 . S
C1457 H1428 0.950 . S
C1457 C1456 1.397 . S
C1457 C1458 1.334 . S
C1458 H1429 0.950 . S
C1458 C1457 1.334 . S
C1458 C1459 1.287 . S
C1459 C1458 1.287 . S
C1459 C1460 1.524 . S
C1459 H1462 0.999 . S
C1460 H1430 0.950 . S
C1460 C1459 1.524 . S
C1460 C1461 1.415 . S
C1461 H1431 0.950 . S
C1461 C1456 1.363 . S
C1461 C1460 1.415 . S
H1462 C1459 0.999 . S
H1463 C1444 0.913 . S
C283 C82 1.611 . S
C298 C113 1.813 1_545 S
C348 C153 1.818 . S
C333 C95 1.608 . S
C398 C193 1.817 . S
C383 C56 1.612 . S
C448 C233 1.814 1_455 S
C433 C69 1.611 . S
C498 C122 1.813 1_565 S
C483 C30 1.605 1_565 S
C533 C43 1.612 . S
C548 C162 1.820 . S
C583 C4 1.612 . S
C598 C202 1.817 . S
C633 C17 1.606 1_655 S
C648 C242 1.817 1_655 S
C698 C119 0.322 . S
C683 C74 0.380 . S
C748 C159 0.324 . S
C733 C87 0.379 . S
C798 C199 0.324 . S
C783 C100 0.381 . S
C833 C61 0.377 . S
C848 C239 0.323 . S
C883 C22 0.397 . S
C898 C110 0.329 . S
C948 C150 0.322 . S
C933 C35 0.398 . S
C998 C190 0.325 . S
C983 C48 0.383 . S
C1033 C9 0.384 . S
C1048 C230 0.322 . S
C1083 C73 1.876 . S
C1098 C123 2.040 . S
C1133 C86 1.876 . S
C1148 C163 2.045 . S
C1198 C203 2.046 . S
C1183 C99 1.875 . S
C1248 C243 2.046 . S
C1233 C60 1.876 . S
C1283 C21 1.879 . S
C1298 C114 2.051 . S
C1348 C154 2.046 . S
C1333 C34 1.878 . S
C1398 C194 2.045 . S
C1383 C47 1.876 . S
C1433 C8 1.877 . S
C1448 C234 2.046 . S
