# Generated by pormake.
# Topology pyr, (3,6)-cn, num edge types: 1
# Building blocks:
#     Node 0, Type 0, BuildingBlock: ESEHIV_clean_linker_0, # of connection points: 3
#     Node 1, Type 0, BuildingBlock: ESEHIV_clean_linker_0, # of connection points: 3
#     Node 2, Type 0, BuildingBlock: ESEHIV_clean_linker_0, # of connection points: 3
#     Node 3, Type 0, BuildingBlock: ESEHIV_clean_linker_0, # of connection points: 3
#     Node 4, Type 0, BuildingBlock: ESEHIV_clean_linker_0, # of connection points: 3
#     Node 5, Type 0, BuildingBlock: ESEHIV_clean_linker_0, # of connection points: 3
#     Node 6, Type 0, BuildingBlock: ESEHIV_clean_linker_0, # of connection points: 3
#     Node 7, Type 0, BuildingBlock: ESEHIV_clean_linker_0, # of connection points: 3
#     Node 8, Type 1, BuildingBlock: FUNLAD_clean_sbu_0, # of connection points: 6
#     Node 9, Type 1, BuildingBlock: FUNLAD_clean_sbu_0, # of connection points: 6
#     Node 10, Type 1, BuildingBlock: FUNLAD_clean_sbu_0, # of connection points: 6
#     Node 11, Type 1, BuildingBlock: FUNLAD_clean_sbu_0, # of connection points: 6
#     Edge 12, Type (0, 1), BuildingBlock: KIFKEQ_clean_linker_1, # of connection points: 2
#     Edge 13, Type (0, 1), BuildingBlock: KIFKEQ_clean_linker_1, # of connection points: 2
#     Edge 14, Type (0, 1), BuildingBlock: KIFKEQ_clean_linker_1, # of connection points: 2
#     Edge 15, Type (0, 1), BuildingBlock: KIFKEQ_clean_linker_1, # of connection points: 2
#     Edge 16, Type (0, 1), BuildingBlock: KIFKEQ_clean_linker_1, # of connection points: 2
#     Edge 17, Type (0, 1), BuildingBlock: KIFKEQ_clean_linker_1, # of connection points: 2
#     Edge 18, Type (0, 1), BuildingBlock: KIFKEQ_clean_linker_1, # of connection points: 2
#     Edge 19, Type (0, 1), BuildingBlock: KIFKEQ_clean_linker_1, # of connection points: 2
#     Edge 20, Type (0, 1), BuildingBlock: KIFKEQ_clean_linker_1, # of connection points: 2
#     Edge 21, Type (0, 1), BuildingBlock: KIFKEQ_clean_linker_1, # of connection points: 2
#     Edge 22, Type (0, 1), BuildingBlock: KIFKEQ_clean_linker_1, # of connection points: 2
#     Edge 23, Type (0, 1), BuildingBlock: KIFKEQ_clean_linker_1, # of connection points: 2
#     Edge 24, Type (0, 1), BuildingBlock: KIFKEQ_clean_linker_1, # of connection points: 2
#     Edge 25, Type (0, 1), BuildingBlock: KIFKEQ_clean_linker_1, # of connection points: 2
#     Edge 26, Type (0, 1), BuildingBlock: KIFKEQ_clean_linker_1, # of connection points: 2
#     Edge 27, Type (0, 1), BuildingBlock: KIFKEQ_clean_linker_1, # of connection points: 2
#     Edge 28, Type (0, 1), BuildingBlock: KIFKEQ_clean_linker_1, # of connection points: 2
#     Edge 29, Type (0, 1), BuildingBlock: KIFKEQ_clean_linker_1, # of connection points: 2
#     Edge 30, Type (0, 1), BuildingBlock: KIFKEQ_clean_linker_1, # of connection points: 2
#     Edge 31, Type (0, 1), BuildingBlock: KIFKEQ_clean_linker_1, # of connection points: 2
#     Edge 32, Type (0, 1), BuildingBlock: KIFKEQ_clean_linker_1, # of connection points: 2
#     Edge 33, Type (0, 1), BuildingBlock: KIFKEQ_clean_linker_1, # of connection points: 2
#     Edge 34, Type (0, 1), BuildingBlock: KIFKEQ_clean_linker_1, # of connection points: 2
#     Edge 35, Type (0, 1), BuildingBlock: KIFKEQ_clean_linker_1, # of connection points: 2
# Relax obj value: 0.086
# Max RMSD: 0.071
# Mean RMSD: 0.035
data_MOF--net-pry--node1-FUNLAD_clean_sbu_0--node2-ESEHIV_clean_linker_0--edge1-KIFKEQ_clean_linker_1
_symmetry_space_group_name_H-M    P1
_symmetry_Int_Tables_number       1
_symmetry_cell_setting            triclinic
loop_
_symmetry_equiv_pos_as_xyz
'x, y, z'
_cell_length_a     34.285459
_cell_length_b     36.919747
_cell_length_c     37.02321
_cell_angle_alpha  90.177626
_cell_angle_beta   90.178709
_cell_angle_gamma 84.313023
loop_
_atom_site_label
_atom_site_type_symbol
_atom_site_fract_x
_atom_site_fract_y
_atom_site_fract_z
_atom_type_partial_charge
H0 H 0.09498 0.20494 0.21739 0.0
H1 H 0.19097 0.11963 0.2188 0.0
H2 H 0.18701 0.2025 0.138 0.0
C3 C 0.1223 0.19245 0.20638 0.0
C4 C 0.13834 0.20795 0.17521 0.0
C5 C 0.14066 0.16001 0.22248 0.0
C6 C 0.17577 0.14372 0.20671 0.0
C7 C 0.19255 0.15878 0.1762 0.0
C8 C 0.17377 0.19086 0.16119 0.0
H9 H 0.33259 0.91366 0.71906 0.0
H10 H 0.4261 0.82651 0.72233 0.0
H11 H 0.34122 0.83112 0.63624 0.0
C12 C 0.34703 0.88882 0.70766 0.0
C13 C 0.33268 0.87489 0.6751 0.0
C14 C 0.3808 0.87184 0.7251 0.0
C15 C 0.40023 0.83988 0.70935 0.0
C16 C 0.38627 0.82517 0.67688 0.0
C17 C 0.35259 0.84297 0.66041 0.0
H18 H 0.64648 0.40895 1.01488 0.0
H19 H 0.66012 0.50162 0.94777 0.0
H20 H 0.56057 0.44138 0.93353 0.0
C21 C 0.6346 0.42852 0.99496 0.0
C22 C 0.6 0.42268 0.97632 0.0
C23 C 0.65591 0.45767 0.98541 0.0
C24 C 0.6422 0.48098 0.95725 0.0
C25 C 0.60826 0.47479 0.93801 0.0
C26 C 0.58618 0.44696 0.94908 0.0
H27 H 0.87591 0.62319 0.50902 0.0
H28 H 0.96463 0.59146 0.43036 0.0
H29 H 0.86495 0.53076 0.44019 0.0
C30 C 0.88858 0.60369 0.48932 0.0
C31 C 0.86779 0.57447 0.47864 0.0
C32 C 0.92372 0.60973 0.47198 0.0
C33 C 0.93863 0.58558 0.44499 0.0
C34 C 0.917 0.55783 0.43265 0.0
C35 C 0.8825 0.55136 0.45063 0.0
H36 H 0.83202 0.91311 0.81908 0.0
H37 H 0.92798 0.82783 0.81985 0.0
H38 H 0.83642 0.82998 0.89966 0.0
C39 C 0.84728 0.88899 0.83105 0.0
C40 C 0.83069 0.87387 0.86164 0.0
C41 C 0.88225 0.87268 0.81504 0.0
C42 C 0.90071 0.84025 0.831 0.0
C43 C 0.88487 0.82462 0.86217 0.0
C44 C 0.84954 0.8417 0.87645 0.0
H45 H 0.59563 0.20639 0.32006 0.0
H46 H 0.69078 0.12023 0.32202 0.0
H47 H 0.68192 0.20192 0.40504 0.0
C48 C 0.62209 0.1933 0.33225 0.0
C49 C 0.63657 0.20827 0.36446 0.0
C50 C 0.64074 0.16068 0.31677 0.0
C51 C 0.67505 0.1442 0.3339 0.0
C52 C 0.69032 0.1589 0.36556 0.0
C53 C 0.67062 0.19068 0.3805 0.0
H54 H 0.38115 0.62281 0.02718 0.0
H55 H 0.3656 0.53154 0.09563 0.0
H56 H 0.46477 0.59207 0.11098 0.0
C57 C 0.39243 0.6037 0.04776 0.0
C58 C 0.42645 0.61 0.06709 0.0
C59 C 0.37085 0.57474 0.05733 0.0
C60 C 0.38373 0.55204 0.08623 0.0
C61 C 0.41723 0.55855 0.10601 0.0
C62 C 0.43953 0.58625 0.09502 0.0
H63 H 0.04425 0.43844 0.58113 0.0
H64 H 0.15347 0.41324 0.52697 0.0
H65 H 0.14289 0.49742 0.60718 0.0
C66 C 0.07354 0.44554 0.57536 0.0
C67 C 0.09063 0.47024 0.59788 0.0
C68 C 0.09697 0.42304 0.55202 0.0
C69 C 0.13504 0.43124 0.54445 0.0
C70 C 0.15092 0.45974 0.56281 0.0
C71 C 0.12872 0.47892 0.58987 0.0
C72 C 0.04518 0.03979 0.45362 0.0
N73 N 0.02248 0.09119 0.55336 0.0
C74 C 0.05886 0.1018 0.54798 0.0
C75 C 0.06589 0.13776 0.55329 0.0
C76 C 0.03517 0.16334 0.56405 0.0
C77 C 0.99822 0.15152 0.57107 0.0
C78 C 0.99248 0.11492 0.56558 0.0
Zn79 Zn 0.01418 0.04154 0.53306 0.0
C80 C 0.93846 0.04356 0.49111 0.0
N81 N 1.00224 0.93989 0.48408 0.0
C82 C 0.03341 0.91664 0.47349 0.0
C83 C 0.96621 0.92824 0.48877 0.0
C84 C 0.96101 0.89156 0.48524 0.0
C85 C 0.99334 0.86642 0.47755 0.0
C86 C 0.02961 0.87945 0.47014 0.0
Zn87 Zn 0.00982 0.9898 0.50435 0.0
O88 O 0.04027 0.05865 0.48244 0.0
C89 C 0.08549 0.98794 0.5467 0.0
O90 O 0.03575 1.0072 0.45416 0.0
H91 H 0.94194 0.94694 0.4978 0.0
H92 H 0.08202 0.08292 0.53719 0.0
H93 H 0.06184 0.92649 0.47007 0.0
O94 O 0.07056 0.01995 0.55421 0.0
O95 O 0.0669 0.96883 0.52523 0.0
H96 H 0.96368 0.10593 0.56924 0.0
O97 O 0.98372 0.97266 0.55492 0.0
O98 O 0.98812 0.02422 0.58312 0.0
O99 O 0.95311 1.01143 0.48347 0.0
O100 O 0.95741 0.06263 0.51236 0.0
C101 C 0.9787 0.99163 0.58369 0.0
H102 H 0.0946 0.14579 0.54685 0.0
H103 H 0.97386 0.1705 0.5796 0.0
H104 H 0.93227 0.88281 0.49018 0.0
H105 H 0.05531 0.86099 0.46406 0.0
C106 C 0.5849 0.98948 0.99019 0.0
N107 N 0.52061 0.09285 0.98542 0.0
C108 C 0.55662 0.10474 0.98982 0.0
C109 C 0.56146 0.1415 0.98663 0.0
C110 C 0.52882 0.16649 0.97955 0.0
C111 C 0.49251 0.15327 0.97245 0.0
C112 C 0.48905 0.11599 0.9755 0.0
Zn113 Zn 0.51416 0.04253 1.0052 0.0
C114 C 0.47706 0.9928 0.95485 0.0
N115 N 0.50321 0.94044 0.05349 0.0
C116 C 0.53487 0.91757 0.0637 0.0
C117 C 0.4673 0.92833 0.04925 0.0
C118 C 0.46265 0.89157 0.05292 0.0
C119 C 0.4954 0.86682 0.0604 0.0
C120 C 0.53161 0.88032 0.06728 0.0
Zn121 Zn 0.50959 0.99069 0.03356 0.0
O122 O 0.57048 0.02183 0.98339 0.0
C123 C 0.54637 0.04058 0.08406 0.0
O124 O 0.56605 0.97029 1.01117 0.0
H125 H 0.44262 0.94675 0.04056 0.0
H126 H 0.58121 0.08616 0.99837 0.0
H127 H 0.5632 0.92777 0.06673 0.0
O128 O 0.54094 0.05965 0.05551 0.0
O129 O 0.53698 1.00798 0.0833 0.0
H130 H 0.46064 0.10598 0.97237 0.0
O131 O 0.45368 1.01153 0.05587 0.0
O132 O 0.45734 0.06262 0.02702 0.0
O133 O 0.48178 0.97394 0.98361 0.0
O134 O 0.48757 0.02501 0.95521 0.0
C135 C 0.43887 0.04362 0.04851 0.0
H136 H 0.5902 0.15043 0.99135 0.0
H137 H 0.46661 0.17164 0.96684 0.0
H138 H 0.43398 0.88243 0.04834 0.0
H139 H 0.5576 0.86215 0.07316 0.0
C140 C 0.53563 0.44541 0.49513 0.0
N141 N 0.53617 0.49206 0.60056 0.0
C142 C 0.52697 0.46271 0.61971 0.0
C143 C 0.53713 0.45953 0.65634 0.0
C144 C 0.5567 0.48693 0.67305 0.0
C145 C 0.56627 0.51637 0.65222 0.0
C146 C 0.55592 0.51829 0.61608 0.0
Zn147 Zn 0.51815 0.50382 0.54918 0.0
C148 C 0.58494 0.5356 0.5104 0.0
N149 N 0.4854 0.53973 0.44434 0.0
C150 C 0.46534 0.51379 0.4287 0.0
C151 C 0.49515 0.56893 0.42526 0.0
C152 C 0.48532 0.57221 0.38857 0.0
C153 C 0.46555 0.54505 0.37168 0.0
C154 C 0.45532 0.5158 0.39245 0.0
Zn155 Zn 0.50331 0.52783 0.4957 0.0
O156 O 0.53764 0.44922 0.52935 0.0
C157 C 0.43639 0.4967 0.53532 0.0
O158 O 0.52279 0.47298 0.47646 0.0
H159 H 0.51135 0.58908 0.43821 0.0
H160 H 0.51099 0.44234 0.60686 0.0
H161 H 0.45829 0.49046 0.44401 0.0
O162 O 0.46166 0.48807 0.55976 0.0
O163 O 0.44669 0.51267 0.50711 0.0
H164 H 0.56256 0.54175 0.60076 0.0
O165 O 0.48411 0.58232 0.51529 0.0
O166 O 0.49844 0.5587 0.56834 0.0
O167 O 0.56022 0.54372 0.48534 0.0
O168 O 0.57423 0.51932 0.5382 0.0
C169 C 0.48588 0.58623 0.54948 0.0
H170 H 0.52941 0.43622 0.67144 0.0
H171 H 0.58036 0.53862 0.66396 0.0
H172 H 0.4935 0.5954 0.37355 0.0
H173 H 0.44102 0.49374 0.3806 0.0
C174 C 0.98748 0.58615 0.99008 0.0
N175 N 0.99471 0.54163 0.09628 0.0
C176 C 1.00363 0.57166 0.11478 0.0
C177 C 0.99381 0.57563 0.15146 0.0
C178 C 0.97475 0.54838 0.16872 0.0
C179 C 0.96614 0.51796 0.14873 0.0
C180 C 0.97614 0.51524 0.11265 0.0
Zn181 Zn 0.00915 0.52895 0.04415 0.0
C182 C 0.93877 0.49647 1.01039 0.0
N183 N 0.0319 0.4903 0.93829 0.0
C184 C 0.05087 0.51544 0.92031 0.0
C185 C 0.01865 0.46146 0.92078 0.0
C186 C 0.0231 0.45799 0.88332 0.0
C187 C 0.0409 0.48472 0.86413 0.0
C188 C 0.0557 0.51314 0.88318 0.0
Zn189 Zn 0.01867 0.50341 0.99046 0.0
O190 O 0.98896 0.58322 0.02441 0.0
C191 C 0.08894 0.53598 0.02444 0.0
O192 O 0.99772 0.55793 0.97119 0.0
H193 H 1.00329 0.44205 0.93558 0.0
H194 H 0.01867 0.59217 0.1013 0.0
H195 H 0.0608 0.53844 0.9345 0.0
O196 O 0.066 0.54485 0.05058 0.0
O197 O 0.07635 0.51896 0.99763 0.0
H198 H 0.96959 0.49128 0.09794 0.0
O199 O 0.0386 0.44891 1.01023 0.0
O200 O 0.03054 0.47451 0.06332 0.0
O201 O 0.96145 0.48762 0.98412 0.0
O202 O 0.95169 0.51343 0.03699 0.0
C203 C 0.04036 0.44613 0.04456 0.0
H204 H 1.00096 0.59956 0.16606 0.0
H205 H 0.95256 0.49578 0.16101 0.0
H206 H 0.01132 0.43564 0.86936 0.0
H207 H 0.07018 0.5339 0.86938 0.0
H208 H 0.10143 0.19295 0.2817 0.0
H209 H 0.14146 0.08684 0.23921 0.0
H210 H 0.07782 0.16445 0.33581 0.0
H211 H 0.12017 0.05865 0.29379 0.0
H212 H 0.05004 1.01168 0.38415 0.0
H213 H 0.07006 0.04061 0.32893 0.0
H214 H 0.09414 0.13547 0.39049 0.0
H215 H 0.07279 0.10692 0.44531 0.0
C216 C 0.10522 0.16356 0.28365 0.0
C217 C 0.12394 0.14261 0.25556 0.0
C218 C 0.09209 0.14703 0.31523 0.0
C219 C 0.09707 0.10883 0.32008 0.0
C220 C 0.11513 0.08796 0.29162 0.0
C221 C 0.12806 0.10441 0.26012 0.0
C222 C 0.05976 0.03865 0.386 0.0
C223 C 0.05974 0.05665 0.41962 0.0
C224 C 0.07152 0.05541 0.35409 0.0
C225 C 0.084 0.09083 0.35447 0.0
C226 C 0.08422 0.10862 0.3883 0.0
C227 C 0.07225 0.09195 0.42013 0.0
H228 H 0.33926 0.89253 0.78645 0.0
H229 H 0.45546 0.88899 0.7417 0.0
H230 H 0.36185 0.92159 0.84127 0.0
H231 H 0.47791 0.919 0.7963 0.0
H232 H 0.48678 1.01212 0.88358 0.0
H233 H 0.46478 0.98223 0.82883 0.0
H234 H 0.4096 0.90592 0.89463 0.0
H235 H 0.43247 0.93505 0.94925 0.0
C236 C 0.36969 0.89792 0.78829 0.0
C237 C 0.39548 0.88817 0.75948 0.0
C238 C 0.3827 0.91456 0.81985 0.0
C239 C 0.42177 0.92293 0.82342 0.0
C240 C 0.44758 0.91329 0.79456 0.0
C241 C 0.43478 0.89578 0.76331 0.0
C242 C 0.46978 0.98909 0.88644 0.0
C243 C 0.46137 0.97626 0.92112 0.0
C244 C 0.45739 0.97172 0.85495 0.0
C245 C 0.43535 0.94148 0.85706 0.0
C246 C 0.42629 0.92916 0.89175 0.0
C247 C 0.43948 0.94592 0.92318 0.0
H248 H 0.66242 0.47464 0.88526 0.0
H249 H 0.53972 0.50432 0.90691 0.0
H250 H 0.65011 0.48003 0.82115 0.0
H251 H 0.52727 0.51122 0.84208 0.0
H252 H 0.5114 0.46566 0.7285 0.0
H253 H 0.52418 0.4698 0.79305 0.0
H254 H 0.63312 0.51509 0.77051 0.0
H255 H 0.62199 0.508 0.70638 0.0
C256 C 0.63304 0.48401 0.87632 0.0
C257 C 0.60201 0.48916 0.90105 0.0
C258 C 0.62587 0.48693 0.8394 0.0
C259 C 0.58755 0.4955 0.82634 0.0
C260 C 0.55697 0.50363 0.85124 0.0
C261 C 0.56411 0.50026 0.88831 0.0
C262 C 0.53846 0.47574 0.73737 0.0
C263 C 0.56561 0.48654 0.71225 0.0
C264 C 0.54539 0.47891 0.77439 0.0
C265 C 0.57943 0.4933 0.78704 0.0
C266 C 0.60671 0.5037 0.76184 0.0
C267 C 0.60012 0.49995 0.72497 0.0
H268 H 0.86404 0.55966 0.37855 0.0
H269 H 0.98623 0.52915 0.40235 0.0
H270 H 0.87777 0.55648 0.31466 0.0
H271 H 1.00012 0.52442 0.33763 0.0
H272 H 0.01867 0.57064 0.22516 0.0
H273 H 1.00437 0.56665 0.28951 0.0
H274 H 0.89545 0.5223 0.2638 0.0
H275 H 0.90814 0.52921 0.20009 0.0
C276 C 0.89362 0.55054 0.37005 0.0
C277 C 0.92407 0.54446 0.3954 0.0
C278 C 0.90161 0.54894 0.33326 0.0
C279 C 0.94019 0.54072 0.32091 0.0
C280 C 0.97023 0.53176 0.34628 0.0
C281 C 0.96226 0.53383 0.38326 0.0
C282 C 0.9913 0.56088 0.23338 0.0
C283 C 0.96467 0.55006 0.20758 0.0
C284 C 0.98346 0.5578 0.27022 0.0
C285 C 0.94902 0.54359 0.28188 0.0
C286 C 0.92213 0.53355 0.25593 0.0
C287 C 0.9296 0.53722 0.21931 0.0
H288 H 0.21272 0.08603 0.16195 0.0
H289 H 0.25635 0.19115 0.15177 0.0
H290 H 0.2707 0.05783 0.13075 0.0
H291 H 0.3146 0.16311 0.12133 0.0
H292 H 0.3969 0.10988 0.03626 0.0
H293 H 0.33808 0.13652 0.06697 0.0
H294 H 0.3386 0.04036 0.13325 0.0
H295 H 0.39664 1.01331 0.1016 0.0
C296 C 0.23494 0.1031 0.15352 0.0
C297 C 0.22952 0.14098 0.15931 0.0
C298 C 0.26838 0.0869 0.13555 0.0
C299 C 0.29767 0.10801 0.12299 0.0
C300 C 0.29254 0.14582 0.1296 0.0
C301 C 0.25904 0.162 0.14732 0.0
C302 C 0.38434 0.09427 0.05722 0.0
C303 C 0.40172 0.05932 0.06627 0.0
C304 C 0.35063 0.10974 0.07519 0.0
C305 C 0.33325 0.09091 0.10305 0.0
C306 C 0.35048 0.05573 0.11177 0.0
C307 C 0.38407 0.04019 0.09364 0.0
H308 H 0.26558 0.91115 0.70484 0.0
H309 H 0.31823 0.881 0.6018 0.0
H310 H 0.20736 0.93919 0.67369 0.0
H311 H 0.25964 0.90795 0.57101 0.0
H312 H 0.13036 0.92367 0.53155 0.0
H313 H 0.18984 0.89759 0.56233 0.0
H314 H 0.18466 0.99086 0.6333 0.0
H315 H 0.12534 0.01702 0.60249 0.0
C316 C 0.26509 0.91065 0.67561 0.0
C317 C 0.29701 0.89333 0.65614 0.0
C318 C 0.23147 0.9267 0.65768 0.0
C319 C 0.22848 0.92569 0.61972 0.0
C320 C 0.26044 0.90874 0.60024 0.0
C321 C 0.29417 0.89309 0.61808 0.0
C322 C 0.142 0.93876 0.55357 0.0
C323 C 0.12291 0.97258 0.56434 0.0
C324 C 0.17625 0.92382 0.57121 0.0
C325 C 0.19221 0.942 0.60048 0.0
C326 C 0.17312 0.97584 0.61119 0.0
C327 C 0.13917 0.99099 0.59327 0.0
H328 H 0.71566 0.40345 0.98727 0.0
H329 H 0.68722 0.51735 1.01186 0.0
H330 H 0.78516 0.41002 0.9972 0.0
H331 H 0.75668 0.52404 0.02159 0.0
H332 H 0.88291 0.51679 0.06059 0.0
H333 H 0.81459 0.50412 0.06074 0.0
H334 H 0.83294 0.44356 0.96125 0.0
H335 H 0.90166 0.45612 0.96102 0.0
C336 C 0.7242 0.42961 0.99587 0.0
C337 C 0.69618 0.4599 0.999 0.0
C338 C 0.76396 0.43347 1.00105 0.0
C339 C 0.77628 0.46759 1.00979 0.0
C340 C 0.74799 0.49736 1.01505 0.0
C341 C 0.70831 0.49359 1.00951 0.0
C342 C 0.87251 0.50064 0.03876 0.0
C343 C 0.89765 0.48766 1.0106 0.0
C344 C 0.83335 0.49345 0.0389 0.0
C345 C 0.81851 0.47288 1.01106 0.0
C346 C 0.84377 0.45916 0.98329 0.0
C347 C 0.88299 0.46659 0.98299 0.0
H348 H 0.80735 0.62809 0.47859 0.0
H349 H 0.83666 0.51465 0.50416 0.0
H350 H 0.73788 0.62119 0.48831 0.0
H351 H 0.76731 0.50767 0.5138 0.0
H352 H 0.64359 0.51687 0.5583 0.0
H353 H 0.71171 0.52923 0.55493 0.0
H354 H 0.68813 0.58639 0.45443 0.0
H355 H 0.61926 0.57409 0.45771 0.0
C356 C 0.79896 0.60195 0.48723 0.0
C357 C 0.82723 0.57192 0.49098 0.0
C358 C 0.75926 0.5979 0.49226 0.0
C359 C 0.74728 0.56387 0.50153 0.0
C360 C 0.77578 0.53427 0.50687 0.0
C361 C 0.81538 0.53821 0.50142 0.0
C362 C 0.65272 0.53218 0.53544 0.0
C363 C 0.62601 0.5443 0.50807 0.0
C364 C 0.69183 0.53916 0.53356 0.0
C365 C 0.70517 0.55864 0.50442 0.0
C366 C 0.67844 0.57154 0.47738 0.0
C367 C 0.63916 0.5643 0.4791 0.0
H368 H 0.09699 0.27001 0.20455 0.0
H369 H 0.13517 0.22309 0.1022 0.0
H370 H 0.07097 0.32561 0.17359 0.0
H371 H 0.11255 0.27902 0.07188 0.0
H372 H 0.04683 0.37609 0.01676 0.0
H373 H 0.06538 0.31898 0.04814 0.0
H374 H 0.08338 0.37878 0.14639 0.0
H375 H 0.06262 0.43536 0.11533 0.0
C376 C 0.09991 0.27135 0.17549 0.0
C377 C 0.11904 0.24168 0.15636 0.0
C378 C 0.08546 0.30376 0.15755 0.0
C379 C 0.08976 0.30789 0.11975 0.0
C380 C 0.10792 0.27768 0.1007 0.0
C381 C 0.12177 0.24532 0.11848 0.0
C382 C 0.05475 0.37703 0.04506 0.0
C383 C 0.05321 0.41067 0.06324 0.0
C384 C 0.06576 0.34403 0.0633 0.0
C385 C 0.07636 0.34336 0.10034 0.0
C386 C 0.07489 0.37727 0.11831 0.0
C387 C 0.06327 0.41013 0.10023 0.0
H388 H 0.58025 0.38731 0.03784 0.0
H389 H 0.58286 0.37823 0.92151 0.0
H390 H 0.55556 0.32728 0.04148 0.0
H391 H 0.55909 0.31884 0.925 0.0
H392 H 0.4951 0.22112 0.93617 0.0
H393 H 0.50467 0.28569 0.93905 0.0
H394 H 0.58157 0.26525 0.03106 0.0
H395 H 0.57022 0.20143 0.02946 0.0
C396 C 0.57523 0.37261 1.01316 0.0
C397 C 0.58292 0.38758 0.97945 0.0
C398 C 0.5612 0.33833 1.01516 0.0
C399 C 0.55505 0.3184 0.98348 0.0
C400 C 0.56241 0.33376 0.94987 0.0
C401 C 0.57618 0.36785 0.94789 0.0
C402 C 0.51346 0.23058 0.95736 0.0
C403 C 0.53257 0.20606 0.98207 0.0
C404 C 0.51919 0.26749 0.95889 0.0
C405 C 0.54426 0.28054 0.98505 0.0
C406 C 0.56188 0.25623 1.01073 0.0
C407 C 0.55595 0.21947 1.00936 0.0
H408 H 0.94256 0.64527 0.53404 0.0
H409 H 0.94007 0.65453 0.41778 0.0
H410 H 0.96665 0.70559 0.53835 0.0
H411 H 0.9631 0.7142 0.42189 0.0
H412 H 0.02666 0.81185 0.43379 0.0
H413 H 0.01731 0.7473 0.43636 0.0
H414 H 0.94074 0.76763 0.52831 0.0
H415 H 0.95206 0.83146 0.52716 0.0
C416 C 0.94746 0.66009 0.50953 0.0
C417 C 0.94008 0.64511 0.47564 0.0
C418 C 0.96113 0.69452 0.51191 0.0
C419 C 0.96716 0.71454 0.4804 0.0
C420 C 0.95991 0.69921 0.44663 0.0
C421 C 0.94656 0.66498 0.44429 0.0
C422 C 1.00843 0.80239 0.45492 0.0
C423 C 0.98944 0.82689 0.47975 0.0
C424 C 1.00281 0.76548 0.45626 0.0
C425 C 0.97787 0.75241 0.48228 0.0
C426 C 0.96032 0.77668 0.50807 0.0
C427 C 0.96621 0.81345 0.50693 0.0
H428 H 0.40769 0.81463 0.60608 0.0
H429 H 0.4082 0.7581 0.70769 0.0
H430 H 0.43333 0.75872 0.57585 0.0
H431 H 0.43217 0.70133 0.6774 0.0
H432 H 0.50077 0.60672 0.61912 0.0
H433 H 0.48051 0.66387 0.6497 0.0
H434 H 0.42017 0.7037 0.55283 0.0
H435 H 0.44238 0.64701 0.52187 0.0
C436 C 0.4133 0.79011 0.62204 0.0
C437 C 0.40583 0.7911 0.65946 0.0
C438 C 0.4277 0.75765 0.60454 0.0
C439 C 0.43467 0.72458 0.62363 0.0
C440 C 0.42792 0.72586 0.66136 0.0
C441 C 0.41403 0.75858 0.67897 0.0
C442 C 0.48331 0.62774 0.60422 0.0
C443 C 0.47339 0.62197 0.5678 0.0
C444 C 0.47127 0.66073 0.622 0.0
C445 C 0.44831 0.6892 0.60424 0.0
C446 C 0.43838 0.68324 0.56769 0.0
C447 C 0.45093 0.65038 0.54976 0.0
H448 H 0.92139 0.8395 0.75594 0.0
H449 H 0.88114 0.94581 0.79785 0.0
H450 H 0.94517 0.86771 0.70179 0.0
H451 H 0.90258 0.97372 0.74315 0.0
H452 H 0.97347 0.02009 0.65297 0.0
H453 H 0.953 0.9915 0.7082 0.0
H454 H 0.92913 0.89637 0.64695 0.0
H455 H 0.95094 0.92458 0.59212 0.0
C456 C 0.91758 0.86888 0.75385 0.0
C457 C 0.89879 0.88997 0.78182 0.0
C458 C 0.93081 0.88523 0.72224 0.0
C459 C 0.92583 0.9234 0.7172 0.0
C460 C 0.90762 0.94443 0.74549 0.0
C461 C 0.8946 0.92814 0.77705 0.0
C462 C 0.96371 0.99312 0.65119 0.0
C463 C 0.96392 0.97493 0.61766 0.0
C464 C 0.95168 0.97657 0.68311 0.0
C465 C 0.93911 0.94119 0.68281 0.0
C466 C 0.93909 0.92321 0.64906 0.0
C467 C 0.95134 0.93967 0.61723 0.0
H468 H 0.60304 0.1936 0.25675 0.0
H469 H 0.64216 0.08751 0.29944 0.0
H470 H 0.57994 0.16505 0.20221 0.0
H471 H 0.62151 0.05927 0.24437 0.0
H472 H 0.55125 1.01248 0.15333 0.0
H473 H 0.57147 0.04138 0.20876 0.0
H474 H 0.59636 0.13587 0.1477 0.0
H475 H 0.57473 0.10738 0.09267 0.0
C476 C 0.6068 0.16421 0.25474 0.0
C477 C 0.62503 0.14328 0.28305 0.0
C478 C 0.59396 0.14765 0.22291 0.0
C479 C 0.59882 0.10943 0.21801 0.0
C480 C 0.61656 0.08859 0.2466 0.0
C481 C 0.62915 0.10507 0.27838 0.0
C482 C 0.56122 0.03935 0.15164 0.0
C483 C 0.56131 0.0573 0.11811 0.0
C484 C 0.57309 0.05609 0.18367 0.0
C485 C 0.58582 0.09141 0.18348 0.0
C486 C 0.58623 0.10911 0.14972 0.0
C487 C 0.57411 0.09247 0.11778 0.0
H488 H 0.36241 0.55914 0.15824 0.0
H489 H 0.48525 0.5289 0.13784 0.0
H490 H 0.37389 0.5534 0.22251 0.0
H491 H 0.49685 0.52163 0.20275 0.0
H492 H 0.51176 0.56611 0.31681 0.0
H493 H 0.49968 0.56255 0.25213 0.0
H494 H 0.39003 0.51791 0.27313 0.0
H495 H 0.40051 0.5244 0.33745 0.0
C496 C 0.39164 0.54961 0.16749 0.0
C497 C 0.42296 0.54436 0.14309 0.0
C498 C 0.39832 0.54648 0.20449 0.0
C499 C 0.43645 0.5376 0.21793 0.0
C500 C 0.4673 0.52945 0.19331 0.0
C501 C 0.46065 0.53305 0.15619 0.0
C502 C 0.4847 0.55628 0.30759 0.0
C503 C 0.45716 0.54552 0.33235 0.0
C504 C 0.47816 0.55345 0.27048 0.0
C505 C 0.44411 0.53944 0.25734 0.0
C506 C 0.41646 0.52901 0.28218 0.0
C507 C 0.42268 0.53241 0.31916 0.0
H508 H 0.05167 0.42456 0.63959 0.0
H509 H 0.09359 0.53147 0.64089 0.0
H510 H 0.03393 0.43102 0.70196 0.0
H511 H 0.07854 0.53637 0.70536 0.0
H512 H 0.0221 0.54103 0.81792 0.0
H513 H 0.02852 0.54093 0.75225 0.0
H514 H 0.07255 0.42709 0.75547 0.0
H515 H 0.06524 0.42716 0.82089 0.0
C516 C 0.05624 0.45004 0.65267 0.0
C517 C 0.07391 0.47774 0.63459 0.0
C518 C 0.04684 0.45324 0.68904 0.0
C519 C 0.0557 0.48373 0.70886 0.0
C520 C 0.07139 0.51243 0.69075 0.0
C521 C 0.0803 0.50952 0.65387 0.0
C522 C 0.03309 0.51601 0.80443 0.0
C523 C 0.04321 0.48404 0.82433 0.0
C524 C 0.03685 0.51601 0.76691 0.0
C525 C 0.05089 0.48404 0.74863 0.0
C526 C 0.06083 0.45203 0.76865 0.0
C527 C 0.05677 0.45199 0.8061 0.0
H528 H 0.76694 0.8416 0.8864 0.0
H529 H 0.81074 0.94662 0.87611 0.0
H530 H 0.70883 0.86972 0.917 0.0
H531 H 0.75295 0.9749 0.90751 0.0
H532 H 0.62738 0.01989 0.93732 0.0
H533 H 0.68527 0.99273 0.9055 0.0
H534 H 0.68516 0.8962 0.97116 0.0
H535 H 0.62647 0.92295 1.00199 0.0
C536 C 0.76433 0.87074 0.89087 0.0
C537 C 0.79385 0.89171 0.87878 0.0
C538 C 0.7309 0.88698 0.9087 0.0
C539 C 0.72584 0.92479 0.91533 0.0
C540 C 0.75517 0.94584 0.9027 0.0
C541 C 0.78852 0.92958 0.88462 0.0
C542 C 0.63978 0.99291 0.94511 0.0
C543 C 0.62199 0.97371 0.97233 0.0
C544 C 0.67329 0.97728 0.92687 0.0
C545 C 0.69032 0.94196 0.93536 0.0
C546 C 0.67279 0.92308 0.96309 0.0
C547 C 0.63915 0.93861 0.98114 0.0
H548 H 0.71139 0.08598 0.3781 0.0
H549 H 0.75245 0.19168 0.39342 0.0
H550 H 0.76957 0.05775 0.40907 0.0
H551 H 0.81101 0.16364 0.42349 0.0
H552 H 0.89564 0.10888 0.50575 0.0
H553 H 0.83602 0.13557 0.47623 0.0
H554 H 0.8373 0.04133 0.40656 0.0
H555 H 0.89609 0.01416 0.43714 0.0
C556 C 0.73306 0.10321 0.38769 0.0
C557 C 0.7269 0.14122 0.3833 0.0
C558 C 0.76665 0.08698 0.4055 0.0
C559 C 0.79543 0.10819 0.41924 0.0
C560 C 0.78941 0.1462 0.41426 0.0
C561 C 0.75572 0.1624 0.39676 0.0
C562 C 0.88307 0.09371 0.4843 0.0
C563 C 0.90087 0.05925 0.47399 0.0
C564 C 0.84888 0.10922 0.46701 0.0
C565 C 0.83146 0.09096 0.43855 0.0
C566 C 0.84916 0.05626 0.42856 0.0
C567 C 0.88319 0.04063 0.44606 0.0
H568 H 0.34037 0.51426 0.03165 0.0
H569 H 0.31133 0.62895 0.05194 0.0
H570 H 0.27135 0.50748 0.01948 0.0
H571 H 0.24233 0.62228 0.03957 0.0
H572 H 0.14643 0.5141 0.97615 0.0
H573 H 0.21494 0.52646 0.97771 0.0
H574 H 0.1932 0.58991 0.07504 0.0
H575 H 0.12448 0.57764 0.07359 0.0
C576 C 0.3193 0.53813 0.03258 0.0
C577 C 0.33109 0.5721 0.0426 0.0
C578 C 0.27988 0.53431 0.0256 0.0
C579 C 0.25151 0.56433 0.02893 0.0
C580 C 0.26359 0.59866 0.03718 0.0
C581 C 0.30308 0.60255 0.04378 0.0
C582 C 0.15615 0.53085 0.99782 0.0
C583 C 0.13007 0.54471 0.02493 0.0
C584 C 0.1954 0.53785 0.99868 0.0
C585 C 0.20932 0.55914 0.02643 0.0
C586 C 0.1831 0.57374 0.05307 0.0
C587 C 0.14386 0.56648 0.05241 0.0
H588 H 0.18316 0.52335 0.552 0.0
H589 H 0.21316 0.40783 0.56555 0.0
H590 H 0.25285 0.53192 0.54633 0.0
H591 H 0.28266 0.41632 0.55976 0.0
H592 H 0.404 0.45644 0.58756 0.0
H593 H 0.33461 0.44737 0.59484 0.0
H594 H 0.30603 0.51314 0.5004 0.0
H595 H 0.37485 0.52212 0.49294 0.0
C596 C 0.2047 0.49987 0.55364 0.0
C597 C 0.19289 0.46494 0.55867 0.0
C598 C 0.24443 0.5047 0.55033 0.0
C599 C 0.27303 0.47473 0.55256 0.0
C600 C 0.26121 0.43987 0.55814 0.0
C601 C 0.22149 0.43499 0.56101 0.0
C602 C 0.38288 0.46885 0.56834 0.0
C603 C 0.3949 0.48998 0.53971 0.0
C604 C 0.34327 0.46359 0.57245 0.0
C605 C 0.31504 0.47977 0.54828 0.0
C606 C 0.32712 0.50076 0.51966 0.0
C607 C 0.36661 0.50566 0.51531 0.0
H608 H 0.92701 0.76336 0.83214 0.0
H609 H 0.88785 0.80834 0.93503 0.0
H610 H 0.95412 0.70779 0.86239 0.0
H611 H 0.91153 0.7523 0.96461 0.0
H612 H 0.97959 0.65586 0.01857 0.0
H613 H 0.95966 0.71304 0.98786 0.0
H614 H 0.94319 0.65391 0.88888 0.0
H615 H 0.96535 0.59728 0.9193 0.0
C616 C 0.92406 0.7616 0.86117 0.0
C617 C 0.90438 0.79076 0.88065 0.0
C618 C 0.93916 0.72918 0.8787 0.0
C619 C 0.93498 0.72448 0.91641 0.0
C620 C 0.91614 0.75412 0.93582 0.0
C621 C 0.90163 0.78653 0.91845 0.0
C622 C 0.97175 0.65508 0.99024 0.0
C623 C 0.97413 0.62163 0.97166 0.0
C624 C 0.95993 0.68812 0.9724 0.0
C625 C 0.94928 0.68899 0.93538 0.0
C626 C 0.95164 0.65526 0.91699 0.0
C627 C 0.9641 0.62237 0.93468 0.0
H628 H 0.44676 0.64452 1.00524 0.0
H629 H 0.44316 0.65528 0.12143 0.0
H630 H 0.47085 0.70474 1.0009 0.0
H631 H 0.46644 0.71482 0.11723 0.0
H632 H 0.5294 0.81315 0.10471 0.0
H633 H 0.52056 0.74839 0.1028 0.0
H634 H 0.44368 0.76671 1.0105 0.0
H635 H 0.45427 0.83074 1.01116 0.0
C636 C 0.45147 0.65959 0.02975 0.0
C637 C 0.44361 0.64505 0.06362 0.0
C638 C 0.46516 0.69399 0.02734 0.0
C639 C 0.47082 0.71446 0.05877 0.0
C640 C 0.46345 0.69949 0.09256 0.0
C641 C 0.45 0.66529 0.09494 0.0
C642 C 0.51119 0.80318 0.08367 0.0
C643 C 0.49191 0.82717 0.05857 0.0
C644 C 0.50589 0.76616 0.0827 0.0
C645 C 0.48108 0.75247 0.05671 0.0
C646 C 0.4632 0.77625 0.03069 0.0
C647 C 0.46869 0.81312 0.03152 0.0
H648 H 0.06178 0.38595 0.49792 0.0
H649 H 0.11249 0.37532 0.60457 0.0
H650 H 0.04518 0.32253 0.50111 0.0
H651 H 0.09473 0.31358 0.60872 0.0
H652 H 0.09845 0.1934 0.59095 0.0
H653 H 0.11408 0.25562 0.58433 0.0
H654 H 1.0018 0.28431 0.53309 0.0
H655 H 0.98711 0.22099 0.53783 0.0
C656 C 0.0695 0.36987 0.52176 0.0
C657 C 0.08878 0.38482 0.55078 0.0
C658 C 0.05968 0.33394 0.52388 0.0
C659 C 0.06887 0.313 0.55513 0.0
C660 C 0.08803 0.32853 0.58398 0.0
C661 C 0.09811 0.36387 0.58168 0.0
C662 C 0.07707 0.21296 0.57827 0.0
C663 C 0.04162 0.20233 0.56486 0.0
C664 C 0.08589 0.24871 0.57466 0.0
C665 C 0.05918 0.27493 0.55811 0.0
C666 C 0.02319 0.26459 0.5455 0.0
C667 C 0.01448 0.22855 0.54884 0.0
H668 H 0.61591 0.21793 0.43557 0.0
H669 H 0.61344 0.27559 0.33453 0.0
H670 H 0.59006 0.2733 0.4666 0.0
H671 H 0.58922 0.33186 0.36563 0.0
H672 H 0.52046 0.42539 0.42541 0.0
H673 H 0.54108 0.36875 0.39411 0.0
H674 H 0.60233 0.32826 0.49028 0.0
H675 H 0.57977 0.38447 0.52198 0.0
C676 C 0.60984 0.24259 0.4199 0.0
C677 C 0.61684 0.24204 0.38239 0.0
C678 C 0.5953 0.27476 0.43787 0.0
C679 C 0.58768 0.30801 0.41921 0.0
C680 C 0.59397 0.30719 0.38139 0.0
C681 C 0.608 0.27474 0.3633 0.0
C682 C 0.53819 0.40434 0.44002 0.0
C683 C 0.54825 0.40981 0.47647 0.0
C684 C 0.55045 0.37163 0.42181 0.0
C685 C 0.57379 0.34311 0.43912 0.0
C686 C 0.58384 0.34874 0.47571 0.0
C687 C 0.57107 0.38134 0.49408 0.0
loop_
_geom_bond_atom_site_label_1
_geom_bond_atom_site_label_2
_geom_bond_distance
_geom_bond_site_symmetry_2
_ccdc_geom_bond_type
H0 C3 0.931 . S
H1 C6 0.928 . S
H2 C8 0.930 . S
C3 H0 0.931 . S
C3 C4 1.413 . S
C3 C5 1.360 . S
C4 C3 1.413 . S
C4 C8 1.429 . S
C5 C3 1.360 . S
C5 C6 1.372 . S
C6 H1 0.928 . S
C6 C5 1.372 . S
C6 C7 1.404 . S
C7 C6 1.404 . S
C7 C8 1.391 . S
C8 H2 0.930 . S
C8 C4 1.429 . S
C8 C7 1.391 . S
H9 C12 0.931 . S
H10 C15 0.928 . S
H11 C17 0.930 . S
C12 H9 0.931 . S
C12 C13 1.413 . S
C12 C14 1.360 . S
C13 C12 1.413 . S
C13 C17 1.429 . S
C14 C12 1.360 . S
C14 C15 1.372 . S
C15 H10 0.928 . S
C15 C14 1.372 . S
C15 C16 1.404 . S
C16 C15 1.404 . S
C16 C17 1.391 . S
C17 H11 0.930 . S
C17 C13 1.429 . S
C17 C16 1.391 . S
H18 C21 0.931 . S
H19 C24 0.928 . S
H20 C26 0.930 . S
C21 H18 0.931 . S
C21 C22 1.413 . S
C21 C23 1.360 . S
C22 C21 1.413 . S
C22 C26 1.429 . S
C23 C21 1.360 . S
C23 C24 1.372 . S
C24 H19 0.928 . S
C24 C23 1.372 . S
C24 C25 1.404 . S
C25 C24 1.404 . S
C25 C26 1.391 . S
C26 H20 0.930 . S
C26 C22 1.429 . S
C26 C25 1.391 . S
H27 C30 0.931 . S
H28 C33 0.928 . S
H29 C35 0.930 . S
C30 H27 0.931 . S
C30 C31 1.413 . S
C30 C32 1.360 . S
C31 C30 1.413 . S
C31 C35 1.429 . S
C32 C30 1.360 . S
C32 C33 1.372 . S
C33 H28 0.928 . S
C33 C32 1.372 . S
C33 C34 1.404 . S
C34 C33 1.404 . S
C34 C35 1.391 . S
C35 H29 0.930 . S
C35 C31 1.429 . S
C35 C34 1.391 . S
H36 C39 0.931 . S
H37 C42 0.928 . S
H38 C44 0.930 . S
C39 H36 0.931 . S
C39 C40 1.413 . S
C39 C41 1.360 . S
C40 C39 1.413 . S
C40 C44 1.429 . S
C41 C39 1.360 . S
C41 C42 1.372 . S
C42 H37 0.928 . S
C42 C41 1.372 . S
C42 C43 1.404 . S
C43 C42 1.404 . S
C43 C44 1.391 . S
C44 H38 0.930 . S
C44 C40 1.429 . S
C44 C43 1.391 . S
H45 C48 0.931 . S
H46 C51 0.928 . S
H47 C53 0.930 . S
C48 H45 0.931 . S
C48 C49 1.413 . S
C48 C50 1.360 . S
C49 C48 1.413 . S
C49 C53 1.429 . S
C50 C48 1.360 . S
C50 C51 1.372 . S
C51 H46 0.928 . S
C51 C50 1.372 . S
C51 C52 1.404 . S
C52 C51 1.404 . S
C52 C53 1.391 . S
C53 H47 0.930 . S
C53 C49 1.429 . S
C53 C52 1.391 . S
H54 C57 0.931 . S
H55 C60 0.928 . S
H56 C62 0.930 . S
C57 H54 0.931 . S
C57 C58 1.413 . S
C57 C59 1.360 . S
C58 C57 1.413 . S
C58 C62 1.429 . S
C59 C57 1.360 . S
C59 C60 1.372 . S
C60 H55 0.928 . S
C60 C59 1.372 . S
C60 C61 1.404 . S
C61 C60 1.404 . S
C61 C62 1.391 . S
C62 H56 0.930 . S
C62 C58 1.429 . S
C62 C61 1.391 . S
H63 C66 0.931 . S
H64 C69 0.928 . S
H65 C71 0.930 . S
C66 H63 0.931 . S
C66 C67 1.413 . S
C66 C68 1.360 . S
C67 C66 1.413 . S
C67 C71 1.429 . S
C68 C66 1.360 . S
C68 C69 1.372 . S
C69 H64 0.928 . S
C69 C68 1.372 . S
C69 C70 1.404 . S
C70 C69 1.404 . S
C70 C71 1.391 . S
C71 H65 0.930 . S
C71 C67 1.429 . S
C71 C70 1.391 . S
C72 O88 1.251 . S
C72 O90 1.254 1_545 S
N73 C74 1.333 . S
N73 C78 1.307 . S
N73 Zn79 2.020 . S
C74 N73 1.333 . S
C74 C75 1.379 . S
C74 H92 0.952 . S
C75 C74 1.379 . S
C75 C76 1.390 . S
C75 H102 0.949 . S
C76 C75 1.390 . S
C76 C77 1.357 . S
C77 C76 1.357 . S
C77 C78 1.370 . S
C77 H103 0.950 . S
C78 N73 1.307 . S
C78 C77 1.370 . S
C78 H96 0.948 1_455 S
Zn79 N73 2.020 . S
Zn79 O88 2.039 . S
Zn79 O94 2.034 . S
Zn79 O98 2.025 1_455 S
Zn79 O100 2.024 1_455 S
C80 O99 1.246 1_545 S
C80 O100 1.249 . S
N81 C82 1.307 . S
N81 C83 1.333 . S
N81 Zn87 2.020 . S
C82 N81 1.307 . S
C82 C86 1.370 . S
C82 H93 0.948 1_655 S
C83 N81 1.333 . S
C83 C84 1.379 . S
C83 H91 0.952 . S
C84 C83 1.379 . S
C84 C85 1.390 . S
C84 H104 0.949 . S
C85 C84 1.390 . S
C85 C86 1.357 . S
C86 C82 1.370 . S
C86 C85 1.357 . S
C86 H105 0.950 1_655 S
Zn87 N81 2.020 . S
Zn87 O90 2.025 1_655 S
Zn87 O95 2.024 1_655 S
Zn87 O97 2.039 . S
Zn87 O99 2.034 . S
O88 C72 1.251 . S
O88 Zn79 2.039 . S
C89 O94 1.246 1_565 S
C89 O95 1.249 . S
O90 C72 1.254 1_565 S
O90 Zn87 2.025 1_455 S
H91 C83 0.952 . S
H92 C74 0.952 . S
H93 C82 0.948 1_455 S
O94 Zn79 2.034 . S
O94 C89 1.246 1_545 S
O95 Zn87 2.024 1_455 S
O95 C89 1.249 . S
H96 C78 0.948 1_655 S
O97 Zn87 2.039 . S
O97 C101 1.251 . S
O98 Zn79 2.025 1_655 S
O98 C101 1.254 1_545 S
O99 C80 1.246 1_565 S
O99 Zn87 2.034 . S
O100 Zn79 2.024 1_655 S
O100 C80 1.249 . S
C101 O97 1.251 . S
C101 O98 1.254 1_565 S
H102 C75 0.949 . S
H103 C77 0.950 . S
H104 C84 0.949 . S
H105 C86 0.950 1_455 S
C106 O122 1.251 1_565 S
C106 O124 1.254 . S
N107 C108 1.333 . S
N107 C112 1.307 . S
N107 Zn113 2.020 . S
C108 N107 1.333 . S
C108 C109 1.379 . S
C108 H126 0.952 . S
C109 C108 1.379 . S
C109 C110 1.390 . S
C109 H136 0.949 . S
C110 C109 1.390 . S
C110 C111 1.357 . S
C111 C110 1.357 . S
C111 C112 1.370 . S
C111 H137 0.950 . S
C112 N107 1.307 . S
C112 C111 1.370 . S
C112 H130 0.948 . S
Zn113 N107 2.020 . S
Zn113 O122 2.039 . S
Zn113 O128 2.034 1_556 S
Zn113 O132 2.025 1_556 S
Zn113 O134 2.024 . S
C114 O133 1.246 . S
C114 O134 1.249 1_565 S
N115 C116 1.307 . S
N115 C117 1.333 . S
N115 Zn121 2.020 . S
C116 N115 1.307 . S
C116 C120 1.370 . S
C116 H127 0.948 . S
C117 N115 1.333 . S
C117 C118 1.379 . S
C117 H125 0.952 . S
C118 C117 1.379 . S
C118 C119 1.390 . S
C118 H138 0.949 . S
C119 C118 1.390 . S
C119 C120 1.357 . S
C120 C116 1.370 . S
C120 C119 1.357 . S
C120 H139 0.950 . S
Zn121 N115 2.020 . S
Zn121 O124 2.025 1_554 S
Zn121 O129 2.024 . S
Zn121 O131 2.039 . S
Zn121 O133 2.034 1_554 S
O122 C106 1.251 1_545 S
O122 Zn113 2.039 . S
C123 O128 1.246 . S
C123 O129 1.249 1_545 S
O124 C106 1.254 . S
O124 Zn121 2.025 1_556 S
H125 C117 0.952 . S
H126 C108 0.952 . S
H127 C116 0.948 . S
O128 Zn113 2.034 1_554 S
O128 C123 1.246 . S
O129 Zn121 2.024 . S
O129 C123 1.249 1_565 S
H130 C112 0.948 . S
O131 Zn121 2.039 . S
O131 C135 1.251 1_565 S
O132 Zn113 2.025 1_554 S
O132 C135 1.254 . S
O133 C114 1.246 . S
O133 Zn121 2.034 1_556 S
O134 Zn113 2.024 . S
O134 C114 1.249 1_545 S
C135 O131 1.251 1_545 S
C135 O132 1.254 . S
H136 C109 0.949 . S
H137 C111 0.950 . S
H138 C118 0.949 . S
H139 C120 0.950 . S
C140 O156 1.251 . S
C140 O158 1.254 . S
N141 C142 1.333 . S
N141 C146 1.307 . S
N141 Zn147 2.020 . S
C142 N141 1.333 . S
C142 C143 1.379 . S
C142 H160 0.952 . S
C143 C142 1.379 . S
C143 C144 1.390 . S
C143 H170 0.949 . S
C144 C143 1.390 . S
C144 C145 1.357 . S
C145 C144 1.357 . S
C145 C146 1.370 . S
C145 H171 0.950 . S
C146 N141 1.307 . S
C146 C145 1.370 . S
C146 H164 0.948 . S
Zn147 N141 2.020 . S
Zn147 O156 2.039 . S
Zn147 O162 2.034 . S
Zn147 O166 2.025 . S
Zn147 O168 2.024 . S
C148 O167 1.246 . S
C148 O168 1.249 . S
N149 C150 1.307 . S
N149 C151 1.333 . S
N149 Zn155 2.020 . S
C150 N149 1.307 . S
C150 C154 1.370 . S
C150 H161 0.948 . S
C151 N149 1.333 . S
C151 C152 1.379 . S
C151 H159 0.952 . S
C152 C151 1.379 . S
C152 C153 1.390 . S
C152 H172 0.949 . S
C153 C152 1.390 . S
C153 C154 1.357 . S
C154 C150 1.370 . S
C154 C153 1.357 . S
C154 H173 0.950 . S
Zn155 N149 2.020 . S
Zn155 O158 2.025 . S
Zn155 O163 2.024 . S
Zn155 O165 2.039 . S
Zn155 O167 2.034 . S
O156 C140 1.251 . S
O156 Zn147 2.039 . S
C157 O162 1.246 . S
C157 O163 1.249 . S
O158 C140 1.254 . S
O158 Zn155 2.025 . S
H159 C151 0.952 . S
H160 C142 0.952 . S
H161 C150 0.948 . S
O162 Zn147 2.034 . S
O162 C157 1.246 . S
O163 Zn155 2.024 . S
O163 C157 1.249 . S
H164 C146 0.948 . S
O165 Zn155 2.039 . S
O165 C169 1.251 . S
O166 Zn147 2.025 . S
O166 C169 1.254 . S
O167 C148 1.246 . S
O167 Zn155 2.034 . S
O168 Zn147 2.024 . S
O168 C148 1.249 . S
C169 O165 1.251 . S
C169 O166 1.254 . S
H170 C143 0.949 . S
H171 C145 0.950 . S
H172 C152 0.949 . S
H173 C154 0.950 . S
C174 O190 1.251 1_556 S
C174 O192 1.254 . S
N175 C176 1.333 . S
N175 C180 1.307 . S
N175 Zn181 2.020 . S
C176 N175 1.333 . S
C176 C177 1.379 . S
C176 H194 0.952 . S
C177 C176 1.379 . S
C177 C178 1.390 . S
C177 H204 0.949 . S
C178 C177 1.390 . S
C178 C179 1.357 . S
C179 C178 1.357 . S
C179 C180 1.370 . S
C179 H205 0.950 . S
C180 N175 1.307 . S
C180 C179 1.370 . S
C180 H198 0.948 . S
Zn181 N175 2.020 . S
Zn181 O190 2.039 . S
Zn181 O196 2.034 1_655 S
Zn181 O200 2.025 1_655 S
Zn181 O202 2.024 . S
C182 O201 1.246 . S
C182 O202 1.249 1_556 S
N183 C184 1.307 . S
N183 C185 1.333 . S
N183 Zn189 2.020 . S
C184 N183 1.307 . S
C184 C188 1.370 . S
C184 H195 0.948 . S
C185 N183 1.333 . S
C185 C186 1.379 . S
C185 H193 0.952 . S
C186 C185 1.379 . S
C186 C187 1.390 . S
C186 H206 0.949 . S
C187 C186 1.390 . S
C187 C188 1.357 . S
C188 C184 1.370 . S
C188 C187 1.357 . S
C188 H207 0.950 . S
Zn189 N183 2.020 . S
Zn189 O192 2.025 1_455 S
Zn189 O197 2.024 . S
Zn189 O199 2.039 . S
Zn189 O201 2.034 1_455 S
O190 C174 1.251 1_554 S
O190 Zn181 2.039 . S
C191 O196 1.246 . S
C191 O197 1.249 1_554 S
O192 C174 1.254 . S
O192 Zn189 2.025 1_655 S
H193 C185 0.952 . S
H194 C176 0.952 . S
H195 C184 0.948 . S
O196 Zn181 2.034 1_455 S
O196 C191 1.246 . S
O197 Zn189 2.024 . S
O197 C191 1.249 1_556 S
H198 C180 0.948 . S
O199 Zn189 2.039 . S
O199 C203 1.251 1_556 S
O200 Zn181 2.025 1_455 S
O200 C203 1.254 . S
O201 C182 1.246 . S
O201 Zn189 2.034 1_655 S
O202 Zn181 2.024 . S
O202 C182 1.249 1_554 S
C203 O199 1.251 1_554 S
C203 O200 1.254 . S
H204 C177 0.949 . S
H205 C179 0.950 . S
H206 C186 0.949 . S
H207 C188 0.950 . S
H208 C216 0.950 . S
H209 C221 0.950 . S
H210 C218 0.950 . S
H211 C220 0.950 . S
H212 C222 0.950 1_565 S
H213 C224 0.950 . S
H214 C226 0.950 . S
H215 C227 0.950 . S
C216 H208 0.950 . S
C216 C217 1.386 . S
C216 C218 1.391 . S
C217 C216 1.386 . S
C217 C221 1.393 . S
C218 H210 0.950 . S
C218 C216 1.391 . S
C218 C219 1.400 . S
C219 C218 1.400 . S
C219 C220 1.398 . S
C219 C225 1.491 . S
C220 H211 0.950 . S
C220 C219 1.398 . S
C220 C221 1.391 . S
C221 H209 0.950 . S
C221 C217 1.393 . S
C221 C220 1.391 . S
C222 H212 0.950 1_545 S
C222 C223 1.386 . S
C222 C224 1.391 . S
C223 C222 1.386 . S
C223 C227 1.393 . S
C224 H213 0.950 . S
C224 C222 1.391 . S
C224 C225 1.400 . S
C225 C219 1.491 . S
C225 C224 1.400 . S
C225 C226 1.398 . S
C226 H214 0.950 . S
C226 C225 1.398 . S
C226 C227 1.391 . S
C227 H215 0.950 . S
C227 C223 1.393 . S
C227 C226 1.391 . S
H228 C236 0.950 . S
H229 C241 0.950 . S
H230 C238 0.950 . S
H231 C240 0.950 . S
H232 C242 0.950 . S
H233 C244 0.950 . S
H234 C246 0.950 . S
H235 C247 0.950 . S
C236 H228 0.950 . S
C236 C237 1.386 . S
C236 C238 1.391 . S
C237 C236 1.386 . S
C237 C241 1.393 . S
C238 H230 0.950 . S
C238 C236 1.391 . S
C238 C239 1.400 . S
C239 C238 1.400 . S
C239 C240 1.398 . S
C239 C245 1.491 . S
C240 H231 0.950 . S
C240 C239 1.398 . S
C240 C241 1.391 . S
C241 H229 0.950 . S
C241 C237 1.393 . S
C241 C240 1.391 . S
C242 H232 0.950 . S
C242 C243 1.386 . S
C242 C244 1.391 . S
C243 C242 1.386 . S
C243 C247 1.393 . S
C244 H233 0.950 . S
C244 C242 1.391 . S
C244 C245 1.400 . S
C245 C239 1.491 . S
C245 C244 1.400 . S
C245 C246 1.398 . S
C246 H234 0.950 . S
C246 C245 1.398 . S
C246 C247 1.391 . S
C247 H235 0.950 . S
C247 C243 1.393 . S
C247 C246 1.391 . S
H248 C256 0.950 . S
H249 C261 0.950 . S
H250 C258 0.950 . S
H251 C260 0.950 . S
H252 C262 0.950 . S
H253 C264 0.950 . S
H254 C266 0.950 . S
H255 C267 0.950 . S
C256 H248 0.950 . S
C256 C257 1.386 . S
C256 C258 1.391 . S
C257 C256 1.386 . S
C257 C261 1.393 . S
C258 H250 0.950 . S
C258 C256 1.391 . S
C258 C259 1.400 . S
C259 C258 1.400 . S
C259 C260 1.398 . S
C259 C265 1.491 . S
C260 H251 0.950 . S
C260 C259 1.398 . S
C260 C261 1.391 . S
C261 H249 0.950 . S
C261 C257 1.393 . S
C261 C260 1.391 . S
C262 H252 0.950 . S
C262 C263 1.386 . S
C262 C264 1.391 . S
C263 C262 1.386 . S
C263 C267 1.393 . S
C264 H253 0.950 . S
C264 C262 1.391 . S
C264 C265 1.400 . S
C265 C259 1.491 . S
C265 C264 1.400 . S
C265 C266 1.398 . S
C266 H254 0.950 . S
C266 C265 1.398 . S
C266 C267 1.391 . S
C267 H255 0.950 . S
C267 C263 1.393 . S
C267 C266 1.391 . S
H268 C276 0.950 . S
H269 C281 0.950 . S
H270 C278 0.950 . S
H271 C280 0.950 . S
H272 C282 0.950 . S
H273 C284 0.950 . S
H274 C286 0.950 . S
H275 C287 0.950 . S
C276 H268 0.950 . S
C276 C277 1.386 . S
C276 C278 1.391 . S
C277 C276 1.386 . S
C277 C281 1.393 . S
C278 H270 0.950 . S
C278 C276 1.391 . S
C278 C279 1.400 . S
C279 C278 1.400 . S
C279 C280 1.398 . S
C279 C285 1.491 . S
C280 H271 0.950 . S
C280 C279 1.398 . S
C280 C281 1.391 . S
C281 H269 0.950 . S
C281 C277 1.393 . S
C281 C280 1.391 . S
C282 H272 0.950 . S
C282 C283 1.386 . S
C282 C284 1.391 . S
C283 C282 1.386 . S
C283 C287 1.393 . S
C284 H273 0.950 . S
C284 C282 1.391 . S
C284 C285 1.400 . S
C285 C279 1.491 . S
C285 C284 1.400 . S
C285 C286 1.398 . S
C286 H274 0.950 . S
C286 C285 1.398 . S
C286 C287 1.391 . S
C287 H275 0.950 . S
C287 C283 1.393 . S
C287 C286 1.391 . S
H288 C296 0.950 . S
H289 C301 0.950 . S
H290 C298 0.950 . S
H291 C300 0.950 . S
H292 C302 0.950 . S
H293 C304 0.950 . S
H294 C306 0.950 . S
H295 C307 0.950 . S
C296 H288 0.950 . S
C296 C297 1.386 . S
C296 C298 1.391 . S
C297 C296 1.386 . S
C297 C301 1.393 . S
C298 H290 0.950 . S
C298 C296 1.391 . S
C298 C299 1.400 . S
C299 C298 1.400 . S
C299 C300 1.398 . S
C299 C305 1.491 . S
C300 H291 0.950 . S
C300 C299 1.398 . S
C300 C301 1.391 . S
C301 H289 0.950 . S
C301 C297 1.393 . S
C301 C300 1.391 . S
C302 H292 0.950 . S
C302 C303 1.386 . S
C302 C304 1.391 . S
C303 C302 1.386 . S
C303 C307 1.393 . S
C304 H293 0.950 . S
C304 C302 1.391 . S
C304 C305 1.400 . S
C305 C299 1.491 . S
C305 C304 1.400 . S
C305 C306 1.398 . S
C306 H294 0.950 . S
C306 C305 1.398 . S
C306 C307 1.391 . S
C307 H295 0.950 . S
C307 C303 1.393 . S
C307 C306 1.391 . S
H308 C316 0.950 . S
H309 C321 0.950 . S
H310 C318 0.950 . S
H311 C320 0.950 . S
H312 C322 0.950 . S
H313 C324 0.950 . S
H314 C326 0.950 . S
H315 C327 0.950 . S
C316 H308 0.950 . S
C316 C317 1.386 . S
C316 C318 1.391 . S
C317 C316 1.386 . S
C317 C321 1.393 . S
C318 H310 0.950 . S
C318 C316 1.391 . S
C318 C319 1.400 . S
C319 C318 1.400 . S
C319 C320 1.398 . S
C319 C325 1.491 . S
C320 H311 0.950 . S
C320 C319 1.398 . S
C320 C321 1.391 . S
C321 H309 0.950 . S
C321 C317 1.393 . S
C321 C320 1.391 . S
C322 H312 0.950 . S
C322 C323 1.386 . S
C322 C324 1.391 . S
C323 C322 1.386 . S
C323 C327 1.393 . S
C324 H313 0.950 . S
C324 C322 1.391 . S
C324 C325 1.400 . S
C325 C319 1.491 . S
C325 C324 1.400 . S
C325 C326 1.398 . S
C326 H314 0.950 . S
C326 C325 1.398 . S
C326 C327 1.391 . S
C327 H315 0.950 . S
C327 C323 1.393 . S
C327 C326 1.391 . S
H328 C336 0.950 . S
H329 C341 0.950 . S
H330 C338 0.950 . S
H331 C340 0.950 . S
H332 C342 0.950 1_554 S
H333 C344 0.950 1_554 S
H334 C346 0.950 . S
H335 C347 0.950 . S
C336 H328 0.950 . S
C336 C337 1.386 . S
C336 C338 1.391 . S
C337 C336 1.386 . S
C337 C341 1.393 . S
C338 H330 0.950 . S
C338 C336 1.391 . S
C338 C339 1.400 . S
C339 C338 1.400 . S
C339 C340 1.398 . S
C339 C345 1.491 . S
C340 H331 0.950 . S
C340 C339 1.398 . S
C340 C341 1.391 . S
C341 H329 0.950 . S
C341 C337 1.393 . S
C341 C340 1.391 . S
C342 H332 0.950 1_556 S
C342 C343 1.386 . S
C342 C344 1.391 . S
C343 C342 1.386 . S
C343 C347 1.393 . S
C344 H333 0.950 1_556 S
C344 C342 1.391 . S
C344 C345 1.400 . S
C345 C339 1.491 . S
C345 C344 1.400 . S
C345 C346 1.398 . S
C346 H334 0.950 . S
C346 C345 1.398 . S
C346 C347 1.391 . S
C347 H335 0.950 . S
C347 C343 1.393 . S
C347 C346 1.391 . S
H348 C356 0.950 . S
H349 C361 0.950 . S
H350 C358 0.950 . S
H351 C360 0.950 . S
H352 C362 0.950 . S
H353 C364 0.950 . S
H354 C366 0.950 . S
H355 C367 0.950 . S
C356 H348 0.950 . S
C356 C357 1.386 . S
C356 C358 1.391 . S
C357 C356 1.386 . S
C357 C361 1.393 . S
C358 H350 0.950 . S
C358 C356 1.391 . S
C358 C359 1.400 . S
C359 C358 1.400 . S
C359 C360 1.398 . S
C359 C365 1.491 . S
C360 H351 0.950 . S
C360 C359 1.398 . S
C360 C361 1.391 . S
C361 H349 0.950 . S
C361 C357 1.393 . S
C361 C360 1.391 . S
C362 H352 0.950 . S
C362 C363 1.386 . S
C362 C364 1.391 . S
C363 C362 1.386 . S
C363 C367 1.393 . S
C364 H353 0.950 . S
C364 C362 1.391 . S
C364 C365 1.400 . S
C365 C359 1.491 . S
C365 C364 1.400 . S
C365 C366 1.398 . S
C366 H354 0.950 . S
C366 C365 1.398 . S
C366 C367 1.391 . S
C367 H355 0.950 . S
C367 C363 1.393 . S
C367 C366 1.391 . S
H368 C376 0.950 . S
H369 C381 0.950 . S
H370 C378 0.950 . S
H371 C380 0.950 . S
H372 C382 0.950 1_556 S
H373 C384 0.950 . S
H374 C386 0.950 . S
H375 C387 0.950 . S
C376 H368 0.950 . S
C376 C377 1.386 . S
C376 C378 1.391 . S
C377 C376 1.386 . S
C377 C381 1.393 . S
C378 H370 0.950 . S
C378 C376 1.391 . S
C378 C379 1.400 . S
C379 C378 1.400 . S
C379 C380 1.398 . S
C379 C385 1.491 . S
C380 H371 0.950 . S
C380 C379 1.398 . S
C380 C381 1.391 . S
C381 H369 0.950 . S
C381 C377 1.393 . S
C381 C380 1.391 . S
C382 H372 0.950 1_554 S
C382 C383 1.386 . S
C382 C384 1.391 . S
C383 C382 1.386 . S
C383 C387 1.393 . S
C384 H373 0.950 . S
C384 C382 1.391 . S
C384 C385 1.400 . S
C385 C379 1.491 . S
C385 C384 1.400 . S
C385 C386 1.398 . S
C386 H374 0.950 . S
C386 C385 1.398 . S
C386 C387 1.391 . S
C387 H375 0.950 . S
C387 C383 1.393 . S
C387 C386 1.391 . S
H388 C396 0.950 . S
H389 C401 0.950 . S
H390 C398 0.950 . S
H391 C400 0.950 . S
H392 C402 0.950 . S
H393 C404 0.950 . S
H394 C406 0.950 . S
H395 C407 0.950 . S
C396 H388 0.950 . S
C396 C397 1.386 . S
C396 C398 1.391 . S
C397 C396 1.386 . S
C397 C401 1.393 . S
C398 H390 0.950 . S
C398 C396 1.391 . S
C398 C399 1.400 . S
C399 C398 1.400 . S
C399 C400 1.398 . S
C399 C405 1.491 . S
C400 H391 0.950 . S
C400 C399 1.398 . S
C400 C401 1.391 . S
C401 H389 0.950 . S
C401 C397 1.393 . S
C401 C400 1.391 . S
C402 H392 0.950 . S
C402 C403 1.386 . S
C402 C404 1.391 . S
C403 C402 1.386 . S
C403 C407 1.393 . S
C404 H393 0.950 . S
C404 C402 1.391 . S
C404 C405 1.400 . S
C405 C399 1.491 . S
C405 C404 1.400 . S
C405 C406 1.398 . S
C406 H394 0.950 . S
C406 C405 1.398 . S
C406 C407 1.391 . S
C407 H395 0.950 . S
C407 C403 1.393 . S
C407 C406 1.391 . S
H408 C416 0.950 . S
H409 C421 0.950 . S
H410 C418 0.950 . S
H411 C420 0.950 . S
H412 C422 0.950 . S
H413 C424 0.950 . S
H414 C426 0.950 . S
H415 C427 0.950 . S
C416 H408 0.950 . S
C416 C417 1.386 . S
C416 C418 1.391 . S
C417 C416 1.386 . S
C417 C421 1.393 . S
C418 H410 0.950 . S
C418 C416 1.391 . S
C418 C419 1.400 . S
C419 C418 1.400 . S
C419 C420 1.398 . S
C419 C425 1.491 . S
C420 H411 0.950 . S
C420 C419 1.398 . S
C420 C421 1.391 . S
C421 H409 0.950 . S
C421 C417 1.393 . S
C421 C420 1.391 . S
C422 H412 0.950 . S
C422 C423 1.386 . S
C422 C424 1.391 . S
C423 C422 1.386 . S
C423 C427 1.393 . S
C424 H413 0.950 . S
C424 C422 1.391 . S
C424 C425 1.400 . S
C425 C419 1.491 . S
C425 C424 1.400 . S
C425 C426 1.398 . S
C426 H414 0.950 . S
C426 C425 1.398 . S
C426 C427 1.391 . S
C427 H415 0.950 . S
C427 C423 1.393 . S
C427 C426 1.391 . S
H428 C436 0.950 . S
H429 C441 0.950 . S
H430 C438 0.950 . S
H431 C440 0.950 . S
H432 C442 0.950 . S
H433 C444 0.950 . S
H434 C446 0.950 . S
H435 C447 0.950 . S
C436 H428 0.950 . S
C436 C437 1.386 . S
C436 C438 1.391 . S
C437 C436 1.386 . S
C437 C441 1.393 . S
C438 H430 0.950 . S
C438 C436 1.391 . S
C438 C439 1.400 . S
C439 C438 1.400 . S
C439 C440 1.398 . S
C439 C445 1.491 . S
C440 H431 0.950 . S
C440 C439 1.398 . S
C440 C441 1.391 . S
C441 H429 0.950 . S
C441 C437 1.393 . S
C441 C440 1.391 . S
C442 H432 0.950 . S
C442 C443 1.386 . S
C442 C444 1.391 . S
C443 C442 1.386 . S
C443 C447 1.393 . S
C444 H433 0.950 . S
C444 C442 1.391 . S
C444 C445 1.400 . S
C445 C439 1.491 . S
C445 C444 1.400 . S
C445 C446 1.398 . S
C446 H434 0.950 . S
C446 C445 1.398 . S
C446 C447 1.391 . S
C447 H435 0.950 . S
C447 C443 1.393 . S
C447 C446 1.391 . S
H448 C456 0.950 . S
H449 C461 0.950 . S
H450 C458 0.950 . S
H451 C460 0.950 . S
H452 C462 0.950 1_545 S
H453 C464 0.950 . S
H454 C466 0.950 . S
H455 C467 0.949 1_455 S
C456 H448 0.950 . S
C456 C457 1.386 . S
C456 C458 1.391 . S
C457 C456 1.386 . S
C457 C461 1.393 . S
C458 H450 0.950 . S
C458 C456 1.391 . S
C458 C459 1.400 . S
C459 C458 1.400 . S
C459 C460 1.398 . S
C459 C465 1.491 . S
C460 H451 0.950 . S
C460 C459 1.398 . S
C460 C461 1.391 . S
C461 H449 0.950 . S
C461 C457 1.393 . S
C461 C460 1.391 . S
C462 H452 0.950 1_565 S
C462 C463 1.386 . S
C462 C464 1.391 . S
C463 C462 1.386 . S
C463 C467 1.393 . S
C464 H453 0.950 . S
C464 C462 1.391 . S
C464 C465 1.400 . S
C465 C459 1.491 . S
C465 C464 1.400 . S
C465 C466 1.398 . S
C466 H454 0.950 . S
C466 C465 1.398 . S
C466 C467 1.391 . S
C467 H455 0.949 1_655 S
C467 C463 1.393 . S
C467 C466 1.391 . S
H468 C476 0.950 . S
H469 C481 0.950 . S
H470 C478 0.950 . S
H471 C480 0.950 . S
H472 C482 0.950 . S
H473 C484 0.950 . S
H474 C486 0.950 . S
H475 C487 0.950 . S
C476 H468 0.950 . S
C476 C477 1.386 . S
C476 C478 1.391 . S
C477 C476 1.386 . S
C477 C481 1.393 . S
C478 H470 0.950 . S
C478 C476 1.391 . S
C478 C479 1.400 . S
C479 C478 1.400 . S
C479 C480 1.398 . S
C479 C485 1.491 . S
C480 H471 0.950 . S
C480 C479 1.398 . S
C480 C481 1.391 . S
C481 H469 0.950 . S
C481 C477 1.393 . S
C481 C480 1.391 . S
C482 H472 0.950 . S
C482 C483 1.386 . S
C482 C484 1.391 . S
C483 C482 1.386 . S
C483 C487 1.393 . S
C484 H473 0.950 . S
C484 C482 1.391 . S
C484 C485 1.400 . S
C485 C479 1.491 . S
C485 C484 1.400 . S
C485 C486 1.398 . S
C486 H474 0.950 . S
C486 C485 1.398 . S
C486 C487 1.391 . S
C487 H475 0.950 . S
C487 C483 1.393 . S
C487 C486 1.391 . S
H488 C496 0.950 . S
H489 C501 0.950 . S
H490 C498 0.950 . S
H491 C500 0.950 . S
H492 C502 0.950 . S
H493 C504 0.950 . S
H494 C506 0.950 . S
H495 C507 0.950 . S
C496 H488 0.950 . S
C496 C497 1.386 . S
C496 C498 1.391 . S
C497 C496 1.386 . S
C497 C501 1.393 . S
C498 H490 0.950 . S
C498 C496 1.391 . S
C498 C499 1.400 . S
C499 C498 1.400 . S
C499 C500 1.398 . S
C499 C505 1.491 . S
C500 H491 0.950 . S
C500 C499 1.398 . S
C500 C501 1.391 . S
C501 H489 0.950 . S
C501 C497 1.393 . S
C501 C500 1.391 . S
C502 H492 0.950 . S
C502 C503 1.386 . S
C502 C504 1.391 . S
C503 C502 1.386 . S
C503 C507 1.393 . S
C504 H493 0.950 . S
C504 C502 1.391 . S
C504 C505 1.400 . S
C505 C499 1.491 . S
C505 C504 1.400 . S
C505 C506 1.398 . S
C506 H494 0.950 . S
C506 C505 1.398 . S
C506 C507 1.391 . S
C507 H495 0.950 . S
C507 C503 1.393 . S
C507 C506 1.391 . S
H508 C516 0.950 . S
H509 C521 0.950 . S
H510 C518 0.950 . S
H511 C520 0.950 . S
H512 C522 0.950 . S
H513 C524 0.950 . S
H514 C526 0.950 . S
H515 C527 0.950 . S
C516 H508 0.950 . S
C516 C517 1.386 . S
C516 C518 1.391 . S
C517 C516 1.386 . S
C517 C521 1.393 . S
C518 H510 0.950 . S
C518 C516 1.391 . S
C518 C519 1.400 . S
C519 C518 1.400 . S
C519 C520 1.398 . S
C519 C525 1.491 . S
C520 H511 0.950 . S
C520 C519 1.398 . S
C520 C521 1.391 . S
C521 H509 0.950 . S
C521 C517 1.393 . S
C521 C520 1.391 . S
C522 H512 0.950 . S
C522 C523 1.386 . S
C522 C524 1.391 . S
C523 C522 1.386 . S
C523 C527 1.393 . S
C524 H513 0.950 . S
C524 C522 1.391 . S
C524 C525 1.400 . S
C525 C519 1.491 . S
C525 C524 1.400 . S
C525 C526 1.398 . S
C526 H514 0.950 . S
C526 C525 1.398 . S
C526 C527 1.391 . S
C527 H515 0.950 . S
C527 C523 1.393 . S
C527 C526 1.391 . S
H528 C536 0.950 . S
H529 C541 0.950 . S
H530 C538 0.950 . S
H531 C540 0.950 . S
H532 C542 0.950 1_554 S
H533 C544 0.950 . S
H534 C546 0.950 . S
H535 C547 0.950 . S
C536 H528 0.950 . S
C536 C537 1.386 . S
C536 C538 1.391 . S
C537 C536 1.386 . S
C537 C541 1.393 . S
C538 H530 0.950 . S
C538 C536 1.391 . S
C538 C539 1.400 . S
C539 C538 1.400 . S
C539 C540 1.398 . S
C539 C545 1.491 . S
C540 H531 0.950 . S
C540 C539 1.398 . S
C540 C541 1.391 . S
C541 H529 0.950 . S
C541 C537 1.393 . S
C541 C540 1.391 . S
C542 H532 0.950 1_556 S
C542 C543 1.386 . S
C542 C544 1.391 . S
C543 C542 1.386 . S
C543 C547 1.393 . S
C544 H533 0.950 . S
C544 C542 1.391 . S
C544 C545 1.400 . S
C545 C539 1.491 . S
C545 C544 1.400 . S
C545 C546 1.398 . S
C546 H534 0.950 . S
C546 C545 1.398 . S
C546 C547 1.391 . S
C547 H535 0.950 . S
C547 C543 1.393 . S
C547 C546 1.391 . S
H548 C556 0.950 . S
H549 C561 0.950 . S
H550 C558 0.950 . S
H551 C560 0.950 . S
H552 C562 0.950 . S
H553 C564 0.950 . S
H554 C566 0.950 . S
H555 C567 0.950 1_565 S
C556 H548 0.950 . S
C556 C557 1.386 . S
C556 C558 1.391 . S
C557 C556 1.386 . S
C557 C561 1.393 . S
C558 H550 0.950 . S
C558 C556 1.391 . S
C558 C559 1.400 . S
C559 C558 1.400 . S
C559 C560 1.398 . S
C559 C565 1.491 . S
C560 H551 0.950 . S
C560 C559 1.398 . S
C560 C561 1.391 . S
C561 H549 0.950 . S
C561 C557 1.393 . S
C561 C560 1.391 . S
C562 H552 0.950 . S
C562 C563 1.386 . S
C562 C564 1.391 . S
C563 C562 1.386 . S
C563 C567 1.393 . S
C564 H553 0.950 . S
C564 C562 1.391 . S
C564 C565 1.400 . S
C565 C559 1.491 . S
C565 C564 1.400 . S
C565 C566 1.398 . S
C566 H554 0.950 . S
C566 C565 1.398 . S
C566 C567 1.391 . S
C567 H555 0.950 1_545 S
C567 C563 1.393 . S
C567 C566 1.391 . S
H568 C576 0.950 . S
H569 C581 0.950 . S
H570 C578 0.950 . S
H571 C580 0.950 . S
H572 C582 0.950 . S
H573 C584 0.950 . S
H574 C586 0.950 . S
H575 C587 0.950 . S
C576 H568 0.950 . S
C576 C577 1.386 . S
C576 C578 1.391 . S
C577 C576 1.386 . S
C577 C581 1.393 . S
C578 H570 0.950 . S
C578 C576 1.391 . S
C578 C579 1.400 . S
C579 C578 1.400 . S
C579 C580 1.398 . S
C579 C585 1.491 . S
C580 H571 0.950 . S
C580 C579 1.398 . S
C580 C581 1.391 . S
C581 H569 0.950 . S
C581 C577 1.393 . S
C581 C580 1.391 . S
C582 H572 0.950 . S
C582 C583 1.386 . S
C582 C584 1.391 . S
C583 C582 1.386 . S
C583 C587 1.393 . S
C584 H573 0.950 . S
C584 C582 1.391 . S
C584 C585 1.400 . S
C585 C579 1.491 . S
C585 C584 1.400 . S
C585 C586 1.398 . S
C586 H574 0.950 . S
C586 C585 1.398 . S
C586 C587 1.391 . S
C587 H575 0.950 . S
C587 C583 1.393 . S
C587 C586 1.391 . S
H588 C596 0.950 . S
H589 C601 0.950 . S
H590 C598 0.950 . S
H591 C600 0.950 . S
H592 C602 0.950 . S
H593 C604 0.950 . S
H594 C606 0.950 . S
H595 C607 0.950 . S
C596 H588 0.950 . S
C596 C597 1.386 . S
C596 C598 1.391 . S
C597 C596 1.386 . S
C597 C601 1.393 . S
C598 H590 0.950 . S
C598 C596 1.391 . S
C598 C599 1.400 . S
C599 C598 1.400 . S
C599 C600 1.398 . S
C599 C605 1.491 . S
C600 H591 0.950 . S
C600 C599 1.398 . S
C600 C601 1.391 . S
C601 H589 0.950 . S
C601 C597 1.393 . S
C601 C600 1.391 . S
C602 H592 0.950 . S
C602 C603 1.386 . S
C602 C604 1.391 . S
C603 C602 1.386 . S
C603 C607 1.393 . S
C604 H593 0.950 . S
C604 C602 1.391 . S
C604 C605 1.400 . S
C605 C599 1.491 . S
C605 C604 1.400 . S
C605 C606 1.398 . S
C606 H594 0.950 . S
C606 C605 1.398 . S
C606 C607 1.391 . S
C607 H595 0.950 . S
C607 C603 1.393 . S
C607 C606 1.391 . S
H608 C616 0.950 . S
H609 C621 0.950 . S
H610 C618 0.950 . S
H611 C620 0.950 . S
H612 C622 0.950 1_554 S
H613 C624 0.950 . S
H614 C626 0.950 . S
H615 C627 0.950 . S
C616 H608 0.950 . S
C616 C617 1.386 . S
C616 C618 1.391 . S
C617 C616 1.386 . S
C617 C621 1.393 . S
C618 H610 0.950 . S
C618 C616 1.391 . S
C618 C619 1.400 . S
C619 C618 1.400 . S
C619 C620 1.398 . S
C619 C625 1.491 . S
C620 H611 0.950 . S
C620 C619 1.398 . S
C620 C621 1.391 . S
C621 H609 0.950 . S
C621 C617 1.393 . S
C621 C620 1.391 . S
C622 H612 0.950 1_556 S
C622 C623 1.386 . S
C622 C624 1.391 . S
C623 C622 1.386 . S
C623 C627 1.393 . S
C624 H613 0.950 . S
C624 C622 1.391 . S
C624 C625 1.400 . S
C625 C619 1.491 . S
C625 C624 1.400 . S
C625 C626 1.398 . S
C626 H614 0.950 . S
C626 C625 1.398 . S
C626 C627 1.391 . S
C627 H615 0.950 . S
C627 C623 1.393 . S
C627 C626 1.391 . S
H628 C636 0.950 . S
H629 C641 0.950 . S
H630 C638 0.950 . S
H631 C640 0.950 . S
H632 C642 0.950 . S
H633 C644 0.950 . S
H634 C646 0.950 . S
H635 C647 0.950 . S
C636 H628 0.950 . S
C636 C637 1.386 . S
C636 C638 1.391 . S
C637 C636 1.386 . S
C637 C641 1.393 . S
C638 H630 0.950 . S
C638 C636 1.391 . S
C638 C639 1.400 . S
C639 C638 1.400 . S
C639 C640 1.398 . S
C639 C645 1.491 . S
C640 H631 0.950 . S
C640 C639 1.398 . S
C640 C641 1.391 . S
C641 H629 0.950 . S
C641 C637 1.393 . S
C641 C640 1.391 . S
C642 H632 0.950 . S
C642 C643 1.386 . S
C642 C644 1.391 . S
C643 C642 1.386 . S
C643 C647 1.393 . S
C644 H633 0.950 . S
C644 C642 1.391 . S
C644 C645 1.400 . S
C645 C639 1.491 . S
C645 C644 1.400 . S
C645 C646 1.398 . S
C646 H634 0.950 . S
C646 C645 1.398 . S
C646 C647 1.391 . S
C647 H635 0.950 . S
C647 C643 1.393 . S
C647 C646 1.391 . S
H648 C656 0.950 . S
H649 C661 0.950 . S
H650 C658 0.950 . S
H651 C660 0.950 . S
H652 C662 0.950 . S
H653 C664 0.950 . S
H654 C666 0.950 . S
H655 C667 0.950 . S
C656 H648 0.950 . S
C656 C657 1.386 . S
C656 C658 1.391 . S
C657 C656 1.386 . S
C657 C661 1.393 . S
C658 H650 0.950 . S
C658 C656 1.391 . S
C658 C659 1.400 . S
C659 C658 1.400 . S
C659 C660 1.398 . S
C659 C665 1.491 . S
C660 H651 0.950 . S
C660 C659 1.398 . S
C660 C661 1.391 . S
C661 H649 0.950 . S
C661 C657 1.393 . S
C661 C660 1.391 . S
C662 H652 0.950 . S
C662 C663 1.386 . S
C662 C664 1.391 . S
C663 C662 1.386 . S
C663 C667 1.393 . S
C664 H653 0.950 . S
C664 C662 1.391 . S
C664 C665 1.400 . S
C665 C659 1.491 . S
C665 C664 1.400 . S
C665 C666 1.398 . S
C666 H654 0.950 . S
C666 C665 1.398 . S
C666 C667 1.391 . S
C667 H655 0.950 . S
C667 C663 1.393 . S
C667 C666 1.391 . S
H668 C676 0.950 . S
H669 C681 0.950 . S
H670 C678 0.950 . S
H671 C680 0.950 . S
H672 C682 0.950 . S
H673 C684 0.950 . S
H674 C686 0.950 . S
H675 C687 0.950 . S
C676 H668 0.950 . S
C676 C677 1.386 . S
C676 C678 1.391 . S
C677 C676 1.386 . S
C677 C681 1.393 . S
C678 H670 0.950 . S
C678 C676 1.391 . S
C678 C679 1.400 . S
C679 C678 1.400 . S
C679 C680 1.398 . S
C679 C685 1.491 . S
C680 H671 0.950 . S
C680 C679 1.398 . S
C680 C681 1.391 . S
C681 H669 0.950 . S
C681 C677 1.393 . S
C681 C680 1.391 . S
C682 H672 0.950 . S
C682 C683 1.386 . S
C682 C684 1.391 . S
C683 C682 1.386 . S
C683 C687 1.393 . S
C684 H673 0.950 . S
C684 C682 1.391 . S
C684 C685 1.400 . S
C685 C679 1.491 . S
C685 C684 1.400 . S
C685 C686 1.398 . S
C686 H674 0.950 . S
C686 C685 1.398 . S
C686 C687 1.391 . S
C687 H675 0.950 . S
C687 C683 1.393 . S
C687 C686 1.391 . S
C217 C5 2.292 . S
C223 C72 2.302 . S
C237 C14 2.250 . S
C243 C114 2.257 . S
C263 C144 0.925 . S
C257 C25 0.923 . S
C277 C34 0.955 . S
C283 C178 0.963 . S
C303 C135 1.801 . S
C297 C7 1.789 . S
C323 C89 1.820 . S
C317 C13 1.815 . S
C343 C182 1.265 . S
C337 C23 1.262 . S
C363 C148 1.303 . S
C357 C31 1.291 . S
C377 C4 2.160 . S
C383 C203 2.172 . S
C403 C110 1.083 . S
C397 C22 1.079 . S
C417 C32 1.072 . S
C423 C85 1.080 . S
C437 C16 2.138 . S
C443 C169 2.143 . S
C463 C101 2.288 . S
C457 C41 2.274 . S
C477 C50 2.256 . S
C483 C123 2.265 . S
C497 C61 0.931 . S
C503 C153 0.934 . S
C517 C67 0.982 . S
C523 C187 0.986 . S
C537 C40 1.804 . S
C543 C106 1.817 . S
C563 C80 1.799 . S
C557 C52 1.791 . S
C583 C191 1.273 . S
C577 C59 1.254 . S
C603 C157 1.298 . S
C597 C70 1.284 . S
C617 C43 2.167 . S
C623 C174 2.175 . S
C643 C119 1.080 . S
C637 C58 1.070 . S
C663 C76 1.079 . S
C657 C68 1.071 . S
C677 C49 2.141 . S
C683 C140 2.149 . S
