# Generated by pormake.
# Topology pyr, (3,6)-cn, num edge types: 1
# Building blocks:
#     Node 0, Type 0, BuildingBlock: CUQRIR_clean_linker_1, # of connection points: 3
#     Node 1, Type 0, BuildingBlock: CUQRIR_clean_linker_1, # of connection points: 3
#     Node 2, Type 0, BuildingBlock: CUQRIR_clean_linker_1, # of connection points: 3
#     Node 3, Type 0, BuildingBlock: CUQRIR_clean_linker_1, # of connection points: 3
#     Node 4, Type 0, BuildingBlock: CUQRIR_clean_linker_1, # of connection points: 3
#     Node 5, Type 0, BuildingBlock: CUQRIR_clean_linker_1, # of connection points: 3
#     Node 6, Type 0, BuildingBlock: CUQRIR_clean_linker_1, # of connection points: 3
#     Node 7, Type 0, BuildingBlock: CUQRIR_clean_linker_1, # of connection points: 3
#     Node 8, Type 1, BuildingBlock: MIFKUJ_clean_sbu_0, # of connection points: 6
#     Node 9, Type 1, BuildingBlock: MIFKUJ_clean_sbu_0, # of connection points: 6
#     Node 10, Type 1, BuildingBlock: MIFKUJ_clean_sbu_0, # of connection points: 6
#     Node 11, Type 1, BuildingBlock: MIFKUJ_clean_sbu_0, # of connection points: 6
#     Edge 12, Type (0, 1), BuildingBlock: TEMPAE_clean_linker_10, # of connection points: 2
#     Edge 13, Type (0, 1), BuildingBlock: TEMPAE_clean_linker_10, # of connection points: 2
#     Edge 14, Type (0, 1), BuildingBlock: TEMPAE_clean_linker_10, # of connection points: 2
#     Edge 15, Type (0, 1), BuildingBlock: TEMPAE_clean_linker_10, # of connection points: 2
#     Edge 16, Type (0, 1), BuildingBlock: TEMPAE_clean_linker_10, # of connection points: 2
#     Edge 17, Type (0, 1), BuildingBlock: TEMPAE_clean_linker_10, # of connection points: 2
#     Edge 18, Type (0, 1), BuildingBlock: TEMPAE_clean_linker_10, # of connection points: 2
#     Edge 19, Type (0, 1), BuildingBlock: TEMPAE_clean_linker_10, # of connection points: 2
#     Edge 20, Type (0, 1), BuildingBlock: TEMPAE_clean_linker_10, # of connection points: 2
#     Edge 21, Type (0, 1), BuildingBlock: TEMPAE_clean_linker_10, # of connection points: 2
#     Edge 22, Type (0, 1), BuildingBlock: TEMPAE_clean_linker_10, # of connection points: 2
#     Edge 23, Type (0, 1), BuildingBlock: TEMPAE_clean_linker_10, # of connection points: 2
#     Edge 24, Type (0, 1), BuildingBlock: TEMPAE_clean_linker_10, # of connection points: 2
#     Edge 25, Type (0, 1), BuildingBlock: TEMPAE_clean_linker_10, # of connection points: 2
#     Edge 26, Type (0, 1), BuildingBlock: TEMPAE_clean_linker_10, # of connection points: 2
#     Edge 27, Type (0, 1), BuildingBlock: TEMPAE_clean_linker_10, # of connection points: 2
#     Edge 28, Type (0, 1), BuildingBlock: TEMPAE_clean_linker_10, # of connection points: 2
#     Edge 29, Type (0, 1), BuildingBlock: TEMPAE_clean_linker_10, # of connection points: 2
#     Edge 30, Type (0, 1), BuildingBlock: TEMPAE_clean_linker_10, # of connection points: 2
#     Edge 31, Type (0, 1), BuildingBlock: TEMPAE_clean_linker_10, # of connection points: 2
#     Edge 32, Type (0, 1), BuildingBlock: TEMPAE_clean_linker_10, # of connection points: 2
#     Edge 33, Type (0, 1), BuildingBlock: TEMPAE_clean_linker_10, # of connection points: 2
#     Edge 34, Type (0, 1), BuildingBlock: TEMPAE_clean_linker_10, # of connection points: 2
#     Edge 35, Type (0, 1), BuildingBlock: TEMPAE_clean_linker_10, # of connection points: 2
# Relax obj value: 0.096
# Max RMSD: 0.225
# Mean RMSD: 0.152
data_MOF--net-pyr--node1-MIFKUJ_clean_sbu_0--node2-CUQRIR_clean_linker_1--edge1-TEMPAE_clean_linker_10
_symmetry_space_group_name_H-M    P1
_symmetry_Int_Tables_number       1
_symmetry_cell_setting            triclinic
loop_
_symmetry_equiv_pos_as_xyz
'x, y, z'
_cell_length_a     36.956872
_cell_length_b     33.379228
_cell_length_c     34.646473
_cell_angle_alpha  83.52852
_cell_angle_beta   90.286706
_cell_angle_gamma 100.34603
loop_
_atom_site_label
_atom_site_type_symbol
_atom_site_fract_x
_atom_site_fract_y
_atom_site_fract_z
_atom_type_partial_charge
C0 C 0.17594 0.20609 0.19656 0.0
N1 N 0.19888 0.17928 0.20627 0.0
N2 N 0.17947 0.21997 0.15839 0.0
C3 C 0.1474 0.21564 0.22336 0.0
C4 C 0.20492 0.2003 0.14491 0.0
N5 N 0.21656 0.17516 0.17402 0.0
C6 C 0.2196 0.20734 0.10385 0.0
H7 H 0.1352 0.18786 0.24285 0.0
H8 H 0.125 0.22757 0.20695 0.0
H9 H 0.16073 0.23921 0.2416 0.0
H10 H 0.24918 0.2051 0.10314 0.0
H11 H 0.21593 0.2378 0.08963 0.0
H12 H 0.20424 0.18348 0.08712 0.0
C13 C 0.34749 0.85026 0.67791 0.0
N14 N 0.34481 0.87862 0.70235 0.0
N15 N 0.37963 0.83646 0.68283 0.0
C16 C 0.3198 0.83805 0.64737 0.0
C17 C 0.39665 0.85768 0.71089 0.0
N18 N 0.37573 0.88383 0.7225 0.0
C19 C 0.43234 0.8504 0.72905 0.0
H20 H 0.29753 0.81379 0.66087 0.0
H21 H 0.3326 0.82595 0.6233 0.0
H22 H 0.30726 0.86451 0.6353 0.0
H23 H 0.45511 0.87404 0.71559 0.0
H24 H 0.438 0.81976 0.72439 0.0
H25 H 0.43178 0.85285 0.76072 0.0
C26 C 0.62812 0.34622 0.82417 0.0
N27 N 0.65048 0.3416 0.85485 0.0
N28 N 0.63792 0.38379 0.80418 0.0
C29 C 0.59656 0.31415 0.81384 0.0
C30 C 0.66676 0.4021 0.82388 0.0
N31 N 0.67405 0.3767 0.85514 0.0
C32 C 0.68831 0.44445 0.81217 0.0
H33 H 0.60746 0.29189 0.7977 0.0
H34 H 0.57643 0.32773 0.79517 0.0
H35 H 0.5823 0.29721 0.84052 0.0
H36 H 0.68302 0.45588 0.78176 0.0
H37 H 0.7182 0.44461 0.81572 0.0
H38 H 0.68023 0.46582 0.83147 0.0
C39 C 0.83443 0.62264 0.29718 0.0
N40 N 0.86761 0.64703 0.28916 0.0
N41 N 0.82046 0.63014 0.33107 0.0
C42 C 0.81491 0.59294 0.27098 0.0
C43 C 0.84639 0.65951 0.34363 0.0
N44 N 0.87536 0.66952 0.31846 0.0
C45 C 0.84207 0.68079 0.37896 0.0
H46 H 0.80086 0.61 0.24794 0.0
H47 H 0.79394 0.56913 0.28708 0.0
H48 H 0.83489 0.57789 0.25678 0.0
H49 H 0.81972 0.66321 0.39859 0.0
H50 H 0.83557 0.71153 0.36949 0.0
H51 H 0.86807 0.685 0.39532 0.0
C52 C 0.82255 0.87446 0.84673 0.0
N53 N 0.8478 0.86634 0.82203 0.0
N54 N 0.80337 0.90193 0.82893 0.0
C55 C 0.81487 0.85345 0.88741 0.0
C56 C 0.81752 0.90995 0.79233 0.0
N57 N 0.84439 0.88788 0.78796 0.0
C58 C 0.80717 0.9418 0.76213 0.0
H59 H 0.81968 0.8214 0.88957 0.0
H60 H 0.78615 0.8533 0.89667 0.0
H61 H 0.83378 0.87016 0.90759 0.0
H62 H 0.79518 0.96505 0.77578 0.0
H63 H 0.78632 0.92659 0.7428 0.0
H64 H 0.83149 0.95738 0.74413 0.0
C65 C 0.71167 0.19305 0.38947 0.0
N66 N 0.71664 0.16337 0.36714 0.0
N67 N 0.67752 0.20223 0.38472 0.0
C68 C 0.73912 0.21128 0.41771 0.0
C69 C 0.66189 0.17725 0.35882 0.0
N70 N 0.6853 0.15323 0.34854 0.0
C71 C 0.62484 0.17883 0.34093 0.0
H72 H 0.75491 0.18808 0.431 0.0
H73 H 0.7253 0.22353 0.44096 0.0
H74 H 0.75874 0.23687 0.40192 0.0
H75 H 0.6154 0.20788 0.3447 0.0
H76 H 0.60442 0.15281 0.35488 0.0
H77 H 0.62602 0.17581 0.30946 0.0
C78 C 0.31556 0.6257 0.19794 0.0
N79 N 0.34905 0.64814 0.20406 0.0
N80 N 0.30258 0.63858 0.16309 0.0
C81 C 0.29629 0.58975 0.22486 0.0
C82 C 0.32919 0.66943 0.14798 0.0
N83 N 0.35778 0.67498 0.17265 0.0
C84 C 0.3257 0.69637 0.11073 0.0
H85 H 0.31647 0.57274 0.2399 0.0
H86 H 0.2768 0.56853 0.2088 0.0
H87 H 0.28048 0.60114 0.24711 0.0
H88 H 0.29661 0.69394 0.10173 0.0
H89 H 0.34153 0.68672 0.0874 0.0
H90 H 0.33716 0.72888 0.11399 0.0
C91 C 0.13543 0.35678 0.72526 0.0
N92 N 0.16052 0.35383 0.69786 0.0
N93 N 0.14376 0.39331 0.73961 0.0
C94 C 0.10281 0.32405 0.73788 0.0
C95 C 0.17464 0.41264 0.71986 0.0
N96 N 0.18462 0.38881 0.69403 0.0
C97 C 0.1953 0.45444 0.7263 0.0
H98 H 0.09104 0.30877 0.71262 0.0
H99 H 0.08119 0.33665 0.75207 0.0
H100 H 0.11199 0.30055 0.75903 0.0
H101 H 0.18941 0.46252 0.75549 0.0
H102 H 0.18669 0.47758 0.70433 0.0
H103 H 0.22537 0.45593 0.72286 0.0
Zn104 Zn 0.08549 0.02603 0.53909 0.0
Zn105 Zn 0.99591 0.99679 0.46071 0.0
C106 C 0.12271 0.10437 0.55602 0.0
O107 O 0.14971 0.0916 0.53929 0.0
C108 C 0.95764 0.92011 0.43529 0.0
O109 O 0.93217 0.92457 0.45999 0.0
O110 O 0.12594 0.99867 0.56554 0.0
O111 O 0.03588 0.99339 0.55707 0.0
O112 O 0.98835 0.97714 0.51811 0.0
C113 C 0.13311 0.00259 0.60112 0.0
O114 O 0.11301 0.02258 0.62039 0.0
O115 O 0.09114 0.08146 0.55889 0.0
C116 C 0.94129 0.03183 0.41102 0.0
O117 O 0.95363 0.01185 0.38481 0.0
O118 O 0.95606 0.03121 0.44442 0.0
O119 O 0.04721 0.02526 0.44316 0.0
O120 O 0.09584 0.0374 0.48143 0.0
O121 O 0.98693 0.94684 0.43121 0.0
C122 C 1.003 0.97612 0.55145 0.0
C123 C 0.08127 0.03848 0.44805 0.0
Zn124 Zn 0.54485 0.99662 0.01943 0.0
Zn125 Zn 0.49326 0.03577 0.06945 0.0
C126 C 0.49631 0.95877 0.96506 0.0
O127 O 0.51255 0.92875 0.97996 0.0
C128 C 0.54115 0.07498 0.12473 0.0
O129 O 0.52356 0.10474 0.11234 0.0
O130 O 0.58589 0.97632 0.99428 0.0
O131 O 0.56647 0.05474 0.02733 0.0
O132 O 0.51282 0.07361 0.02105 0.0
C133 C 0.60069 0.99767 0.96383 0.0
O134 O 0.58897 0.03159 0.95106 0.0
O135 O 0.50415 0.99314 0.97871 0.0
C136 C 0.4294 0.04121 0.11677 0.0
O137 O 0.43515 0.00594 0.13426 0.0
O138 O 0.45065 0.05914 0.08885 0.0
O139 O 0.47404 0.97515 0.06677 0.0
O140 O 0.52863 0.95764 0.06725 0.0
O141 O 0.5332 0.04113 0.11034 0.0
C142 C 0.54759 0.08207 0.01677 0.0
C143 C 0.49459 0.94891 0.07594 0.0
Zn144 Zn 0.50922 0.4789 0.48122 0.0
Zn145 Zn 0.48535 0.54998 0.52254 0.0
C146 C 0.5643 0.52278 0.43191 0.0
O147 O 0.54115 0.50348 0.40833 0.0
C148 C 0.4301 0.50504 0.57386 0.0
O149 O 0.45268 0.52483 0.59761 0.0
O150 O 0.52176 0.42702 0.46252 0.0
O151 O 0.50351 0.46669 0.5396 0.0
O152 O 0.52802 0.52955 0.54912 0.0
C153 C 0.54922 0.41522 0.47983 0.0
O154 O 0.56428 0.43534 0.50806 0.0
O155 O 0.55592 0.51905 0.46784 0.0
C156 C 0.4559 0.62273 0.53377 0.0
O157 O 0.43705 0.61312 0.50284 0.0
O158 O 0.47929 0.60103 0.54661 0.0
O159 O 0.48805 0.56395 0.46453 0.0
O160 O 0.46932 0.50124 0.44901 0.0
O161 O 0.43859 0.50949 0.5379 0.0
C162 C 0.5232 0.49134 0.55994 0.0
C163 C 0.47253 0.53999 0.44087 0.0
Zn164 Zn 0.97518 0.55928 0.97528 0.0
Zn165 Zn 0.99599 0.48739 0.02486 0.0
C166 C 0.91542 0.51397 0.93747 0.0
O167 O 0.93397 0.53573 0.90761 0.0
C168 C 0.05548 0.52019 0.06667 0.0
O169 O 0.03434 0.49511 0.0927 0.0
O170 O 0.96706 0.61136 0.94398 0.0
O171 O 0.98241 0.5719 0.03048 0.0
O172 O 0.9589 0.50939 0.05639 0.0
C173 C 0.93749 0.62424 0.94995 0.0
O174 O 0.91427 0.6038 0.97689 0.0
O175 O 0.9279 0.51794 0.97138 0.0
C176 C 0.0346 0.42398 0.03256 0.0
O177 O 0.04981 0.4489 1.00266 0.0
O178 O 0.00667 0.43256 0.04913 0.0
O179 O 0.98844 0.47874 0.96822 0.0
O180 O 0.0165 0.54092 0.94861 0.0
O181 O 0.04435 0.52498 0.03193 0.0
C182 C 0.96628 0.54787 0.05877 0.0
C183 C 0.00974 0.50318 0.94401 0.0
C184 C 0.18678 0.11204 0.24515 0.0
C185 C 0.1985 0.15447 0.24303 0.0
C186 C 0.17445 0.0891 0.28061 0.0
C187 C 0.17324 0.10949 0.31419 0.0
C188 C 0.18897 0.15157 0.31282 0.0
C189 C 0.20195 0.17342 0.2772 0.0
C190 C 0.15919 0.04398 0.28116 0.0
C191 C 0.18809 0.17472 0.3477 0.0
C192 C 0.0897 0.07367 0.38051 0.0
C193 C 0.10486 0.05533 0.41358 0.0
C194 C 0.11175 0.09114 0.348 0.0
C195 C 0.14977 0.08924 0.34812 0.0
C196 C 0.16507 0.06969 0.381 0.0
C197 C 0.14251 0.05348 0.41363 0.0
C198 C 0.09446 0.11259 0.31388 0.0
C199 C 0.20521 0.06607 0.38173 0.0
H200 H 0.1842 0.09751 0.21859 0.0
H201 H 0.21149 0.20625 0.27526 0.0
H202 H 0.16675 0.02651 0.30824 0.0
H203 H 0.12872 0.03931 0.28019 0.0
H204 H 0.16923 0.03125 0.2558 0.0
H205 H 0.20639 0.20521 0.34358 0.0
H206 H 0.15956 0.17945 0.35256 0.0
H207 H 0.19635 0.15708 0.37429 0.0
H208 H 0.06067 0.07537 0.38045 0.0
H209 H 0.15426 0.03892 0.43905 0.0
H210 H 0.0986 0.09859 0.28706 0.0
H211 H 0.10794 0.14529 0.30903 0.0
H212 H 0.06448 0.11113 0.31834 0.0
H213 H 0.21236 0.05198 0.35593 0.0
H214 H 0.21222 0.04737 0.40836 0.0
H215 H 0.22258 0.09697 0.38027 0.0
C216 C 0.41794 0.93501 0.75445 0.0
C217 C 0.38402 0.90843 0.7542 0.0
C218 C 0.43223 0.94931 0.78903 0.0
C219 C 0.41179 0.93716 0.82422 0.0
C220 C 0.37568 0.91401 0.82316 0.0
C221 C 0.36227 0.8997 0.78811 0.0
C222 C 0.4708 0.97378 0.78845 0.0
C223 C 0.35252 0.90112 0.85967 0.0
C224 C 0.46966 0.91684 0.9129 0.0
C225 C 0.47219 0.95297 0.93073 0.0
C226 C 0.44949 0.91121 0.87889 0.0
C227 C 0.43069 0.94221 0.8622 0.0
C228 C 0.43199 0.97824 0.88069 0.0
C229 C 0.45297 0.98337 0.91457 0.0
C230 C 0.44933 0.87243 0.86012 0.0
C231 C 0.41187 0.0117 0.86425 0.0
H232 H 0.43458 0.94183 0.72806 0.0
H233 H 0.3361 0.87899 0.78791 0.0
H234 H 0.47223 0.99995 0.80581 0.0
H235 H 0.48969 0.95393 0.80172 0.0
H236 H 0.48081 0.98571 0.75843 0.0
H237 H 0.3231 0.89074 0.85304 0.0
H238 H 0.3626 0.87542 0.87697 0.0
H239 H 0.3547 0.92669 0.87793 0.0
H240 H 0.48431 0.89308 0.92497 0.0
H241 H 0.4546 0.01134 0.92815 0.0
H242 H 0.46197 0.88018 0.83061 0.0
H243 H 0.42067 0.85644 0.85679 0.0
H244 H 0.46468 0.85092 0.87719 0.0
H245 H 0.42479 0.02644 0.83615 0.0
H246 H 0.41227 0.03565 0.88415 0.0
H247 H 0.38285 0.9986 0.8584 0.0
C248 C 0.6407 0.40403 0.73384 0.0
C249 C 0.62193 0.39997 0.76937 0.0
C250 C 0.62515 0.41918 0.69943 0.0
C251 C 0.58994 0.4302 0.70088 0.0
C252 C 0.57096 0.42611 0.73694 0.0
C253 C 0.58733 0.41111 0.77087 0.0
C254 C 0.64629 0.42327 0.66159 0.0
C255 C 0.53334 0.43736 0.73964 0.0
C256 C 0.56233 0.50287 0.61825 0.0
C257 C 0.5402 0.47569 0.59603 0.0
C258 C 0.57878 0.48847 0.65238 0.0
C259 C 0.57288 0.44588 0.66465 0.0
C260 C 0.55059 0.41827 0.6424 0.0
C261 C 0.53455 0.4335 0.60832 0.0
C262 C 0.60252 0.51881 0.67529 0.0
C263 C 0.54362 0.37263 0.65462 0.0
H264 H 0.66748 0.39517 0.73318 0.0
H265 H 0.57316 0.40776 0.79867 0.0
H266 H 0.63022 0.40416 0.64101 0.0
H267 H 0.65059 0.45551 0.64797 0.0
H268 H 0.67352 0.41382 0.66559 0.0
H269 H 0.52233 0.43234 0.76991 0.0
H270 H 0.53457 0.47004 0.72837 0.0
H271 H 0.5138 0.41884 0.7213 0.0
H272 H 0.5669 0.53552 0.60896 0.0
H273 H 0.51755 0.41226 0.59132 0.0
H274 H 0.63063 0.51154 0.67792 0.0
H275 H 0.59108 0.51653 0.70516 0.0
H276 H 0.60459 0.55092 0.66165 0.0
H277 H 0.57008 0.36128 0.65644 0.0
H278 H 0.52553 0.35529 0.63415 0.0
H279 H 0.5306 0.36593 0.68398 0.0
C280 C 0.92269 0.62987 0.26072 0.0
C281 C 0.8906 0.64649 0.25594 0.0
C282 C 0.93939 0.61713 0.22895 0.0
C283 C 0.92332 0.62097 0.19176 0.0
C284 C 0.89259 0.64089 0.18644 0.0
C285 C 0.87677 0.65363 0.21862 0.0
C286 C 0.97258 0.59687 0.23576 0.0
C287 C 0.87459 0.64585 0.1474 0.0
C288 C 0.97258 0.60579 0.09982 0.0
C289 C 0.95671 0.56537 0.09415 0.0
C290 C 0.96294 0.62385 0.13208 0.0
C291 C 0.93639 0.60121 0.1592 0.0
C292 C 0.92077 0.56014 0.1541 0.0
C293 C 0.93132 0.54261 0.12179 0.0
C294 C 0.98063 0.66744 0.13671 0.0
C295 C 0.89214 0.53504 0.18224 0.0
H296 H 0.93301 0.62406 0.28977 0.0
H297 H 0.85184 0.66645 0.21525 0.0
H298 H 0.96441 0.56344 0.23426 0.0
H299 H 0.9939 0.6089 0.21289 0.0
H300 H 0.98482 0.60157 0.26462 0.0
H301 H 0.85311 0.66526 0.14738 0.0
H302 H 0.8954 0.65968 0.12451 0.0
H303 H 0.8616 0.61526 0.13955 0.0
H304 H 0.99256 0.62355 0.07886 0.0
H305 H 0.91895 0.51143 0.11766 0.0
H306 H 0.99241 0.66923 0.16612 0.0
H307 H 0.95955 0.68738 0.13382 0.0
H308 H 1.00279 0.6798 0.11474 0.0
H309 H 0.90308 0.53361 0.21214 0.0
H310 H 0.88335 0.50328 0.17478 0.0
H311 H 0.8676 0.54992 0.18241 0.0
C312 C 0.24259 0.12333 0.14351 0.0
C313 C 0.24477 0.15087 0.1714 0.0
C314 C 0.27192 0.10321 0.13725 0.0
C315 C 0.30419 0.11088 0.15949 0.0
C316 C 0.30575 0.13726 0.18902 0.0
C317 C 0.27589 0.15691 0.19466 0.0
C318 C 0.26892 0.07504 0.10576 0.0
C319 C 0.33956 0.14621 0.21341 0.0
C320 C 0.37262 0.03829 0.15732 0.0
C321 C 0.39801 0.05951 0.12879 0.0
C322 C 0.34222 0.05481 0.16806 0.0
C323 C 0.33711 0.09354 0.14993 0.0
C324 C 0.36295 0.11538 0.12157 0.0
C325 C 0.393 0.0981 0.11132 0.0
C326 C 0.31525 0.03057 0.19835 0.0
C327 C 0.35859 0.15684 0.10164 0.0
H328 H 0.21816 0.11837 0.12601 0.0
H329 H 0.27741 0.17838 0.21612 0.0
H330 H 0.28918 0.08836 0.08216 0.0
H331 H 0.27555 0.04491 0.11745 0.0
H332 H 0.24102 0.07001 0.09308 0.0
H333 H 0.33517 0.16448 0.23731 0.0
H334 H 0.34778 0.11724 0.22614 0.0
H335 H 0.36281 0.16353 0.19481 0.0
H336 H 0.37623 0.00847 0.17102 0.0
H337 H 0.4125 0.11485 0.08937 0.0
H338 H 0.2877 0.02306 0.18535 0.0
H339 H 0.31234 0.04917 0.22237 0.0
H340 H 0.32378 1.00157 0.21068 0.0
H341 H 0.33246 0.15406 0.08542 0.0
H342 H 0.38163 0.17039 0.08104 0.0
H343 H 0.35707 0.1783 0.12357 0.0
C344 C 0.32196 0.94283 0.68514 0.0
C345 C 0.31568 0.90206 0.70202 0.0
C346 C 0.2924 0.96218 0.67264 0.0
C347 C 0.25584 0.94004 0.67715 0.0
C348 C 0.24945 0.89996 0.69723 0.0
C349 C 0.27949 0.88151 0.70941 0.0
C350 C 0.30051 0.00508 0.65183 0.0
C351 C 0.21107 0.87522 0.70298 0.0
C352 C 0.17387 0.99429 0.65864 0.0
C353 C 0.16451 0.98647 0.62047 0.0
C354 C 0.20372 0.97988 0.67732 0.0
C355 C 0.22474 0.95688 0.65752 0.0
C356 C 0.21549 0.94891 0.61898 0.0
C357 C 0.1856 0.96386 0.60093 0.0
C358 C 0.21267 0.98913 0.71831 0.0
C359 C 0.23708 0.92433 0.59685 0.0
H360 H 0.35003 0.95833 0.67892 0.0
H361 H 0.2749 0.84978 0.72209 0.0
H362 H 0.2954 0.00397 0.62035 0.0
H363 H 0.28203 0.02428 0.66262 0.0
H364 H 0.32951 0.02005 0.65546 0.0
H365 H 0.21045 0.84675 0.72314 0.0
H366 H 0.19231 0.89364 0.71454 0.0
H367 H 0.20023 0.86658 0.67457 0.0
H368 H 0.15793 0.01188 0.67403 0.0
H369 H 0.17869 0.95768 0.57148 0.0
H370 H 0.24154 0.00538 0.71958 0.0
H371 H 0.21024 0.96012 0.73797 0.0
H372 H 0.19423 0.00825 0.72941 0.0
H373 H 0.26648 0.93918 0.5948 0.0
H374 H 0.22667 0.92115 0.56701 0.0
H375 H 0.23569 0.89324 0.61263 0.0
C376 C 0.73347 0.36335 0.88048 0.0
C377 C 0.70444 0.38502 0.88091 0.0
C378 C 0.76764 0.37841 0.89641 0.0
C379 C 0.77265 0.41611 0.9127 0.0
C380 C 0.74213 0.43577 0.9165 0.0
C381 C 0.70831 0.41978 0.9007 0.0
C382 C 0.79917 0.35599 0.89247 0.0
C383 C 0.74604 0.47594 0.9336 0.0
C384 C 0.86118 0.46015 0.962 0.0
C385 C 0.87981 0.48695 0.93138 0.0
C386 C 0.82675 0.43571 0.95626 0.0
C387 C 0.81044 0.43863 0.9192 0.0
C388 C 0.82947 0.46515 0.88812 0.0
C389 C 0.86391 0.48871 0.89454 0.0
C390 C 0.80755 0.40738 0.98992 0.0
C391 C 0.81301 0.46954 0.84816 0.0
H392 H 0.73029 0.33649 0.86502 0.0
H393 H 0.68553 0.43613 0.90115 0.0
H394 H 0.81746 0.37193 0.86804 0.0
H395 H 0.81584 0.35587 0.91919 0.0
H396 H 0.78938 0.32384 0.88654 0.0
H397 H 0.7189 0.48403 0.93962 0.0
H398 H 0.76173 0.47482 0.96094 0.0
H399 H 0.7616 0.50075 0.91285 0.0
H400 H 0.87338 0.45841 0.99052 0.0
H401 H 0.87802 0.50928 0.87067 0.0
H402 H 0.79901 0.37602 0.98145 0.0
H403 H 0.78223 0.41813 0.99806 0.0
H404 H 0.82529 0.40583 0.01583 0.0
H405 H 0.80656 0.43924 0.837 0.0
H406 H 0.83169 0.49086 0.82695 0.0
H407 H 0.7868 0.48115 0.84981 0.0
C408 C 0.77209 0.57583 0.36151 0.0
C409 C 0.7837 0.61659 0.34608 0.0
C410 C 0.73621 0.56235 0.37637 0.0
C411 C 0.71175 0.5906 0.37596 0.0
C412 C 0.72371 0.63204 0.3608 0.0
C413 C 0.75963 0.6445 0.34588 0.0
C414 C 0.72435 0.51787 0.39211 0.0
C415 C 0.69848 0.66303 0.35998 0.0
C416 C 0.61013 0.54553 0.37785 0.0
C417 C 0.60107 0.54393 0.41733 0.0
C418 C 0.64591 0.56145 0.36389 0.0
C419 C 0.67325 0.57634 0.39002 0.0
C420 C 0.66404 0.57623 0.42966 0.0
C421 C 0.62799 0.55995 0.44289 0.0
C422 C 0.6547 0.56115 0.32139 0.0
C423 C 0.69251 0.59222 0.45824 0.0
H424 H 0.79118 0.55467 0.36177 0.0
H425 H 0.76909 0.67605 0.33387 0.0
H426 H 0.71464 0.51545 0.42267 0.0
H427 H 0.70095 0.50359 0.37512 0.0
H428 H 0.74695 0.5001 0.39096 0.0
H429 H 0.71255 0.69437 0.34857 0.0
H430 H 0.67447 0.65393 0.3415 0.0
H431 H 0.68771 0.66388 0.38965 0.0
H432 H 0.58947 0.53336 0.35786 0.0
H433 H 0.62115 0.55885 0.47343 0.0
H434 H 0.67518 0.54108 0.31835 0.0
H435 H 0.66715 0.59242 0.30829 0.0
H436 H 0.62994 0.55001 0.30462 0.0
H437 H 0.71414 0.57297 0.46091 0.0
H438 H 0.68041 0.59222 0.48754 0.0
H439 H 0.70615 0.6239 0.44764 0.0
C440 C 0.16289 0.2881 0.14718 0.0
C441 C 0.1594 0.24814 0.13731 0.0
C442 C 0.14132 0.31516 0.12926 0.0
C443 C 0.11528 0.3015 0.10126 0.0
C444 C 0.11183 0.26104 0.09112 0.0
C445 C 0.13423 0.23484 0.10918 0.0
C446 C 0.14631 0.35827 0.14035 0.0
C447 C 0.08416 0.2453 0.0617 0.0
C448 C 0.03934 0.3642 0.08222 0.0
C449 C 0.0528 0.38979 0.04858 0.0
C450 C 0.05875 0.33419 0.09902 0.0
C451 C 0.09248 0.33011 0.08194 0.0
C452 C 0.10557 0.35507 0.04739 0.0
C453 C 0.08549 0.38437 0.03103 0.0
C454 C 0.04373 0.30767 0.13563 0.0
C455 C 0.14157 0.35197 0.02846 0.0
H456 H 0.1824 0.29786 0.16921 0.0
H457 H 0.13148 0.2036 0.10222 0.0
H458 H 0.15367 0.38073 0.11423 0.0
H459 H 0.12013 0.3639 0.15231 0.0
H460 H 0.16809 0.36413 0.16229 0.0
H461 H 0.08473 0.21294 0.05735 0.0
H462 H 0.05606 0.2475 0.07132 0.0
H463 H 0.08967 0.26451 0.03336 0.0
H464 H 0.01408 0.36813 0.09586 0.0
H465 H 0.09612 0.40387 0.00493 0.0
H466 H 0.0624 0.31473 0.16009 0.0
H467 H 0.04245 0.27483 0.13204 0.0
H468 H 0.01583 0.31241 0.14355 0.0
H469 H 0.16455 0.36066 0.04837 0.0
H470 H 0.14694 0.37217 1.00058 0.0
H471 H 0.14171 0.31994 0.02286 0.0
C472 C 0.64677 0.26762 0.87125 0.0
C473 C 0.64711 0.30627 0.88335 0.0
C474 C 0.63413 0.23177 0.89612 0.0
C475 C 0.62222 0.23482 0.9343 0.0
C476 C 0.62575 0.27389 0.94774 0.0
C477 C 0.63802 0.30932 0.92191 0.0
C478 C 0.63087 0.19084 0.8805 0.0
C479 C 0.61423 0.27841 0.98851 0.0
C480 C 0.54625 0.14857 0.97577 0.0
C481 C 0.56619 0.1226 0.99804 0.0
C482 C 0.56412 0.18569 0.95564 0.0
C483 C 0.60279 0.19745 0.95841 0.0
C484 C 0.62285 0.17212 0.98209 0.0
C485 C 0.60437 0.13483 1.00133 0.0
C486 C 0.54178 0.21163 0.9303 0.0
C487 C 0.66395 0.18392 0.98635 0.0
H488 H 0.65426 0.26563 0.84142 0.0
H489 H 0.63827 0.33937 0.93103 0.0
H490 H 0.64349 0.16924 0.90067 0.0
H491 H 0.60137 0.17722 0.87808 0.0
H492 H 0.64421 0.19358 0.85142 0.0
H493 H 0.62396 0.30992 0.99626 0.0
H494 H 0.58378 0.27155 0.99108 0.0
H495 H 0.62504 0.25629 0.00985 0.0
H496 H 0.51678 0.1393 0.97306 0.0
H497 H 0.61994 0.11509 0.01882 0.0
H498 H 0.55105 0.21405 0.89956 0.0
H499 H 0.54611 0.24315 0.93886 0.0
H500 H 0.51187 0.19878 0.93213 0.0
H501 H 0.67792 0.18317 0.95825 0.0
H502 H 0.67491 0.163 0.00883 0.0
H503 H 0.67115 0.2157 0.99413 0.0
C504 C 0.89591 0.74269 0.30015 0.0
C505 C 0.90302 0.70566 0.31899 0.0
C506 C 0.91137 0.78021 0.31338 0.0
C507 C 0.93438 0.78037 0.34625 0.0
C508 C 0.94533 0.7434 0.36196 0.0
C509 C 0.92954 0.70642 0.34796 0.0
C510 C 0.89941 0.81886 0.29519 0.0
C511 C 0.96998 0.74198 0.39675 0.0
C512 C 0.97782 0.88112 0.3836 0.0
C513 C 0.95209 0.8846 0.41223 0.0
C514 C 0.97251 0.84758 0.36161 0.0
C515 C 0.94083 0.81672 0.36853 0.0
C516 C 0.91482 0.82016 0.39738 0.0
C517 C 0.92073 0.85399 0.41874 0.0
C518 C 1.00072 0.84517 0.33102 0.0
C519 C 0.88065 0.78796 0.40588 0.0
H520 H 0.875 0.74184 0.27805 0.0
H521 H 0.93455 0.67757 0.36272 0.0
H522 H 0.87771 0.82633 0.31375 0.0
H523 H 0.92269 0.84515 0.293 0.0
H524 H 0.88804 0.81528 0.26578 0.0
H525 H 0.98146 0.71325 0.40061 0.0
H526 H 0.99301 0.76852 0.39407 0.0
H527 H 0.95382 0.74353 0.42329 0.0
H528 H 1.00211 0.9047 0.37824 0.0
H529 H 0.9007 0.85632 0.44074 0.0
H530 H 0.98752 0.84376 0.30226 0.0
H531 H 0.01217 0.81668 0.33765 0.0
H532 H 0.02373 0.87182 0.32895 0.0
H533 H 0.86408 0.78502 0.37923 0.0
H534 H 0.86311 0.79524 0.42913 0.0
H535 H 0.88848 0.75779 0.41501 0.0
C536 C 0.37165 0.76678 0.66341 0.0
C537 C 0.39257 0.8062 0.66266 0.0
C538 C 0.38326 0.73729 0.64288 0.0
C539 C 0.41648 0.7477 0.6208 0.0
C540 C 0.43785 0.78754 0.62025 0.0
C541 C 0.42567 0.81628 0.64138 0.0
C542 C 0.35985 0.6951 0.64458 0.0
C543 C 0.47321 0.79998 0.59684 0.0
C544 C 0.46089 0.66035 0.59288 0.0
C545 C 0.44782 0.65633 0.55514 0.0
C546 C 0.45129 0.69024 0.61443 0.0
C547 C 0.42838 0.71709 0.59771 0.0
C548 C 0.41588 0.71387 0.55928 0.0
C549 C 0.42557 0.68342 0.53856 0.0
C550 C 0.46491 0.69242 0.65543 0.0
C551 C 0.39174 0.74219 0.54025 0.0
H552 H 0.34616 0.7592 0.68015 0.0
H553 H 0.44157 0.84698 0.64077 0.0
H554 H 0.35031 0.68897 0.61506 0.0
H555 H 0.37638 0.6715 0.65503 0.0
H556 H 0.33541 0.69155 0.66404 0.0
H557 H 0.4869 0.83188 0.60002 0.0
H558 H 0.49253 0.77896 0.60603 0.0
H559 H 0.46753 0.79748 0.56564 0.0
H560 H 0.47794 0.63944 0.60602 0.0
H561 H 0.41546 0.68067 0.50939 0.0
H562 H 0.44116 0.68604 0.67606 0.0
H563 H 0.47994 0.72373 0.65865 0.0
H564 H 0.48339 0.67018 0.66379 0.0
H565 H 0.36531 0.73766 0.5566 0.0
H566 H 0.38572 0.73694 0.50959 0.0
H567 H 0.40521 0.7746 0.54095 0.0
C568 C 0.9061 0.901 0.75777 0.0
C569 C 0.86791 0.89077 0.75438 0.0
C570 C 0.92908 0.9099 0.72462 0.0
C571 C 0.91329 0.90891 0.68731 0.0
C572 C 0.87484 0.89623 0.68395 0.0
C573 C 0.85262 0.88707 0.71764 0.0
C574 C 0.96998 0.92276 0.7295 0.0
C575 C 0.85688 0.8948 0.64478 0.0
C576 C 0.96302 0.98388 0.606 0.0
C577 C 0.97983 0.95828 0.58553 0.0
C578 C 0.94111 0.96803 0.63904 0.0
C579 C 0.9363 0.92558 0.65202 0.0
C580 C 0.9534 0.89957 0.63131 0.0
C581 C 0.97495 0.9163 0.59804 0.0
C582 C 0.92315 0.99676 0.66008 0.0
C583 C 0.94912 0.85429 0.64447 0.0
H584 H 0.91778 0.90405 0.78626 0.0
H585 H 0.82306 0.8785 0.7153 0.0
H586 H 0.98543 0.90636 0.71102 0.0
H587 H 0.9781 0.95604 0.72 0.0
H588 H 0.97832 0.91678 0.76016 0.0
H589 H 0.82735 0.88031 0.64721 0.0
H590 H 0.859 0.92645 0.63004 0.0
H591 H 0.87124 0.87763 0.62601 0.0
H592 H 0.96702 0.01639 0.59605 0.0
H593 H 0.98823 0.89674 0.58201 0.0
H594 H 0.93288 0.99646 0.69044 0.0
H595 H 0.89289 0.98633 0.66136 0.0
H596 H 0.92919 0.0288 0.64581 0.0
H597 H 0.9595 0.8495 0.67443 0.0
H598 H 0.96419 0.83829 0.62515 0.0
H599 H 0.9196 0.83993 0.64524 0.0
C600 C 0.6478 0.09494 0.32214 0.0
C601 C 0.67835 0.12675 0.31824 0.0
C602 C 0.63004 0.08004 0.28935 0.0
C603 C 0.64361 0.09707 0.25176 0.0
C604 C 0.67739 0.12527 0.24801 0.0
C605 C 0.69431 0.13999 0.28143 0.0
C606 C 0.59425 0.04997 0.29506 0.0
C607 C 0.69339 0.14353 0.20863 0.0
C608 C 0.59297 0.0533 0.16493 0.0
C609 C 0.56858 0.08071 0.15609 0.0
C610 C 0.61843 0.05872 0.19521 0.0
C611 C 0.61902 0.09185 0.21758 0.0
C612 C 0.59459 0.11969 0.20844 0.0
C613 C 0.56999 0.11394 0.17777 0.0
C614 C 0.64439 0.02882 0.20353 0.0
C615 C 0.5935 0.15499 0.23188 0.0
H616 H 0.63545 0.08506 0.35073 0.0
H617 H 0.71775 0.16488 0.27849 0.0
H618 H 0.57101 0.06661 0.28909 0.0
H619 H 0.59234 0.02644 0.27461 0.0
H620 H 0.59094 0.03436 0.32522 0.0
H621 H 0.72283 0.15778 0.21043 0.0
H622 H 0.69079 0.1199 0.18819 0.0
H623 H 0.67799 0.16757 0.19642 0.0
H624 H 0.59222 0.02767 0.14813 0.0
H625 H 0.55118 0.13517 0.17135 0.0
H626 H 0.63805 0.01144 0.23264 0.0
H627 H 0.67316 0.04555 0.20405 0.0
H628 H 0.64251 0.00665 0.18165 0.0
H629 H 0.58398 0.1428 0.26194 0.0
H630 H 0.5747 0.1754 0.21942 0.0
H631 H 0.62139 0.17361 0.23358 0.0
C632 C 0.35775 0.63998 0.27462 0.0
C633 C 0.37201 0.64162 0.23702 0.0
C634 C 0.37648 0.62563 0.30712 0.0
C635 C 0.4106 0.61312 0.30183 0.0
C636 C 0.42626 0.6173 0.26399 0.0
C637 C 0.40665 0.63146 0.23192 0.0
C638 C 0.35885 0.62194 0.34689 0.0
C639 C 0.46283 0.60497 0.25718 0.0
C640 C 0.46736 0.60041 0.39267 0.0
C641 C 0.45833 0.55798 0.40393 0.0
C642 C 0.45304 0.61858 0.35884 0.0
C643 C 0.42876 0.59387 0.33579 0.0
C644 C 0.42011 0.55093 0.34648 0.0
C645 C 0.43515 0.53346 0.38031 0.0
C646 C 0.46326 0.66438 0.34827 0.0
C647 C 0.39411 0.52357 0.32274 0.0
H648 H 0.33107 0.64833 0.27831 0.0
H649 H 0.41743 0.63261 0.20271 0.0
H650 H 0.35211 0.58916 0.35885 0.0
H651 H 0.37826 0.63784 0.36712 0.0
H652 H 0.3332 0.63499 0.34621 0.0
H653 H 0.47292 0.61403 0.22674 0.0
H654 H 0.48376 0.6191 0.27703 0.0
H655 H 0.46012 0.57123 0.26362 0.0
H656 H 0.48551 0.61966 0.41049 0.0
H657 H 0.42804 0.50071 0.38873 0.0
H658 H 0.43851 0.67861 0.35022 0.0
H659 H 0.47364 0.6714 0.31783 0.0
H660 H 0.48456 0.67884 0.36763 0.0
H661 H 0.36652 0.53232 0.32274 0.0
H662 H 0.39124 0.49066 0.33411 0.0
H663 H 0.40395 0.52763 0.29211 0.0
C664 C 0.09053 0.42107 0.75951 0.0
C665 C 0.12395 0.40852 0.76861 0.0
C666 C 0.071 0.43647 0.78738 0.0
C667 C 0.08551 0.43944 0.8251 0.0
C668 C 0.11937 0.4266 0.83433 0.0
C669 C 0.13817 0.41117 0.80586 0.0
C670 C 0.03494 0.44961 0.77649 0.0
C671 C 0.13575 0.4293 0.87417 0.0
C672 C 0.05345 0.51367 0.88718 0.0
C673 C 0.02805 0.48724 0.91254 0.0
C674 C 0.0722 0.49855 0.85843 0.0
C675 C 0.06531 0.45601 0.8549 0.0
C676 C 0.0394 0.42924 0.8801 0.0
C677 C 0.0211 0.44516 0.9086 0.0
C678 C 0.0997 0.52804 0.83212 0.0
C679 C 0.0313 0.3837 0.87723 0.0
H680 H 0.07989 0.41885 0.73047 0.0
H681 H 0.1641 0.40126 0.81248 0.0
H682 H 0.01262 0.43204 0.79617 0.0
H683 H 0.03662 0.4825 0.78009 0.0
H684 H 0.02734 0.44496 0.74604 0.0
H685 H 0.16227 0.41801 0.8766 0.0
H686 H 0.14045 0.46155 0.88085 0.0
H687 H 0.11628 0.41105 0.89653 0.0
H688 H 0.05904 0.54619 0.89004 0.0
H689 H 1.00156 0.42447 0.92809 0.0
H690 H 0.09201 0.52604 0.80132 0.0
H691 H 0.12734 0.51962 0.83563 0.0
H692 H 0.10156 0.56028 0.83829 0.0
H693 H 0.02207 0.37787 0.84753 0.0
H694 H 0.00978 0.36716 0.89845 0.0
H695 H 0.05671 0.37068 0.88247 0.0
C696 C 0.78168 0.93891 0.87888 0.0
C697 C 0.77478 0.91879 0.84562 0.0
C698 C 0.7535 0.9531 0.89722 0.0
C699 C 0.71759 0.94667 0.8819 0.0
C700 C 0.71071 0.92698 0.84776 0.0
C701 C 0.73956 0.91337 0.8299 0.0
C702 C 0.76201 0.97428 0.93333 0.0
C703 C 0.67275 0.91938 0.83072 0.0
C704 C 0.63877 0.94523 0.95215 0.0
C705 C 0.6304 0.98447 0.94273 0.0
C706 C 0.66677 0.93234 0.93217 0.0
C707 C 0.68707 0.95949 0.90234 0.0
C708 C 0.67873 0.99912 0.89268 0.0
C709 C 0.65037 0.01107 0.91288 0.0
C710 C 0.67471 0.88971 0.94307 0.0
C711 C 0.70002 0.02902 0.86127 0.0
H712 H 0.80915 0.94309 0.89065 0.0
H713 H 0.73452 0.89747 0.80426 0.0
H714 H 0.75374 0.00482 0.92951 0.0
H715 H 0.74593 0.95613 0.95839 0.0
H716 H 0.79168 0.97836 0.9405 0.0
H717 H 0.67231 0.90491 0.80333 0.0
H718 H 0.6534 0.89906 0.85195 0.0
H719 H 0.66242 0.94864 0.82476 0.0
H720 H 0.6233 0.92443 0.97502 0.0
H721 H 0.64411 0.04149 0.90549 0.0
H722 H 0.70339 0.89152 0.95329 0.0
H723 H 0.67217 0.87263 0.91722 0.0
H724 H 0.6558 0.872 0.96628 0.0
H725 H 0.72956 0.03534 0.86879 0.0
H726 H 0.68984 0.05854 0.85699 0.0
H727 H 0.69811 0.01551 0.83334 0.0
C728 C 0.74492 0.10141 0.37711 0.0
C729 C 0.74845 0.14372 0.36672 0.0
C730 C 0.77619 0.08278 0.38259 0.0
C731 C 0.81189 0.10704 0.37733 0.0
C732 C 0.81541 0.14958 0.36513 0.0
C733 C 0.78368 0.16734 0.36002 0.0
C734 C 0.77103 0.03738 0.39549 0.0
C735 C 0.85274 0.17663 0.35868 0.0
C736 C 0.89223 0.06936 0.43127 0.0
C737 C 0.90901 0.05247 0.40225 0.0
C738 C 0.8607 0.08712 0.42356 0.0
C739 C 0.8455 0.08831 0.38585 0.0
C740 C 0.86255 0.07175 0.35634 0.0
C741 C 0.89392 0.05402 0.36489 0.0
C742 C 0.84344 0.10432 0.45593 0.0
C743 C 0.84754 0.07257 0.31571 0.0
H744 H 0.71767 0.08327 0.38262 0.0
H745 H 0.78632 0.20002 0.35168 0.0
H746 H 0.78638 0.02223 0.37574 0.0
H747 H 0.78236 0.03224 0.42498 0.0
H748 H 0.74161 0.02243 0.39618 0.0
H749 H 0.85078 0.20857 0.3471 0.0
H750 H 0.8677 0.17729 0.3865 0.0
H751 H 0.86941 0.16404 0.33808 0.0
H752 H 0.90345 0.06827 0.46025 0.0
H753 H 0.90654 0.04114 0.34216 0.0
H754 H 0.81454 0.08836 0.46091 0.0
H755 H 0.84282 0.13728 0.44761 0.0
H756 H 0.8585 0.10111 0.48361 0.0
H757 H 0.81882 0.05552 0.31642 0.0
H758 H 0.86415 0.05886 0.29589 0.0
H759 H 0.84688 0.10462 0.30352 0.0
C760 C 0.26606 0.60396 0.11323 0.0
C761 C 0.2677 0.62408 0.14661 0.0
C762 C 0.23206 0.58847 0.09749 0.0
C763 C 0.1992 0.59411 0.11531 0.0
C764 C 0.20099 0.61565 0.14845 0.0
C765 C 0.23536 0.63003 0.16397 0.0
C766 C 0.23125 0.56492 0.06267 0.0
C767 C 0.16662 0.6228 0.16792 0.0
C768 C 0.10964 0.57765 0.05983 0.0
C769 C 0.09267 0.5391 0.0775 0.0
C770 C 0.14448 0.59612 0.07178 0.0
C771 C 0.16291 0.57488 0.1012 0.0
C772 C 0.14625 0.53536 0.11813 0.0
C773 C 0.11113 0.51821 0.10642 0.0
C774 C 0.16117 0.63865 0.05367 0.0
C775 C 0.16538 0.51125 0.14885 0.0
H776 H 0.29145 0.59963 0.10014 0.0
H777 H 0.23716 0.646 0.18966 0.0
H778 H 0.21741 0.53272 0.07076 0.0
H779 H 0.2151 0.57825 0.03909 0.0
H780 H 0.25928 0.56486 0.05125 0.0
H781 H 0.17293 0.64298 0.19139 0.0
H782 H 0.14907 0.6369 0.14624 0.0
H783 H 0.15035 0.59307 0.18066 0.0
H784 H 0.09523 0.59378 0.03753 0.0
H785 H 0.09819 0.48809 0.1197 0.0
H786 H 0.18859 0.6386 0.04084 0.0
H787 H 0.16532 0.65989 0.07639 0.0
H788 H 0.1436 0.65069 0.03067 0.0
H789 H 0.19303 0.50865 0.1382 0.0
H790 H 0.14957 0.4799 0.15728 0.0
H791 H 0.16936 0.52753 0.17518 0.0
C792 C 0.24305 0.37263 0.67189 0.0
C793 C 0.21684 0.39828 0.66913 0.0
C794 C 0.27716 0.38475 0.65233 0.0
C795 C 0.28523 0.42368 0.63008 0.0
C796 C 0.25777 0.44842 0.62528 0.0
C797 C 0.22377 0.43516 0.64461 0.0
C798 C 0.30533 0.35707 0.65754 0.0
C799 C 0.26517 0.49017 0.60199 0.0
C800 C 0.383 0.48291 0.62694 0.0
C801 C 0.39414 0.4811 0.58863 0.0
C802 C 0.34801 0.46343 0.64094 0.0
C803 C 0.32353 0.44103 0.61622 0.0
C804 C 0.33505 0.43764 0.57797 0.0
C805 C 0.37017 0.45799 0.5645 0.0
C806 C 0.33677 0.46809 0.68185 0.0
C807 C 0.30995 0.41342 0.55103 0.0
H808 H 0.23755 0.34408 0.69091 0.0
H809 H 0.20303 0.45445 0.642 0.0
H810 H 0.31906 0.35573 0.62943 0.0
H811 H 0.32687 0.36954 0.67761 0.0
H812 H 0.29283 0.32544 0.66982 0.0
H813 H 0.2399 0.50379 0.59806 0.0
H814 H 0.28579 0.51114 0.6171 0.0
H815 H 0.27683 0.48826 0.57297 0.0
H816 H 0.40129 0.50061 0.64586 0.0
H817 H 0.37865 0.45622 0.53493 0.0
H818 H 0.32796 0.43752 0.69849 0.0
H819 H 0.31295 0.48421 0.68106 0.0
H820 H 0.3594 0.4856 0.69769 0.0
H821 H 0.29873 0.38237 0.56563 0.0
H822 H 0.32426 0.41029 0.52371 0.0
H823 H 0.28623 0.42884 0.54351 0.0
C824 C 0.86524 0.80075 0.81197 0.0
C825 C 0.87113 0.8365 0.83034 0.0
C826 C 0.88083 0.76685 0.82662 0.0
C827 C 0.90273 0.7692 0.86028 0.0
C828 C 0.91142 0.80675 0.87657 0.0
C829 C 0.89539 0.83999 0.86136 0.0
C830 C 0.87114 0.72752 0.80821 0.0
C831 C 0.93488 0.81075 0.91221 0.0
C832 C 0.89551 0.67409 0.9327 0.0
C833 C 0.92878 0.66107 0.92642 0.0
C834 C 0.88661 0.70884 0.91088 0.0
C835 C 0.9116 0.73126 0.882 0.0
C836 C 0.94511 0.71815 0.87518 0.0
C837 C 0.95333 0.68316 0.8975 0.0
C838 C 0.85053 0.72183 0.91905 0.0
C839 C 0.97237 0.74134 0.84466 0.0
H840 H 0.84626 0.79837 0.78805 0.0
H841 H 0.89981 0.86797 0.87521 0.0
H842 H 0.89569 0.71309 0.80576 0.0
H843 H 0.85053 0.70556 0.82684 0.0
H844 H 0.85934 0.73262 0.77889 0.0
H845 H 0.94348 0.84324 0.91765 0.0
H846 H 0.91901 0.79382 0.93797 0.0
H847 H 0.95981 0.79708 0.90932 0.0
H848 H 0.87632 0.65717 0.95485 0.0
H849 H 0.97907 0.67322 0.89237 0.0
H850 H 0.83418 0.7234 0.89216 0.0
H851 H 0.85579 0.75294 0.92865 0.0
H852 H 0.83378 0.70049 0.94186 0.0
H853 H 0.95889 0.74415 0.81605 0.0
H854 H 0.99651 0.72621 0.84184 0.0
H855 H 0.98226 0.77288 0.8521 0.0
C856 C 0.40959 0.71526 0.13364 0.0
C857 C 0.38858 0.70835 0.168 0.0
C858 C 0.43155 0.75354 0.12227 0.0
C859 C 0.43311 0.78528 0.14646 0.0
C860 C 0.41518 0.77683 0.18333 0.0
C861 C 0.3928 0.73838 0.19357 0.0
C862 C 0.44998 0.76111 0.08267 0.0
C863 C 0.41701 0.8094 0.21048 0.0
C864 C 0.50143 0.8833 0.11581 0.0
C865 C 0.47878 0.90776 0.09552 0.0
C866 C 0.48683 0.84387 0.13385 0.0
C867 C 0.44886 0.82823 0.13074 0.0
C868 C 0.42583 0.85298 0.1106 0.0
C869 C 0.441 0.89258 0.09362 0.0
C870 C 0.51206 0.81881 0.15582 0.0
C871 C 0.38525 0.83722 0.10607 0.0
H872 H 0.40633 0.69166 0.11418 0.0
H873 H 0.37636 0.7329 0.22009 0.0
H874 H 0.43529 0.78117 0.06298 0.0
H875 H 0.47883 0.77716 0.08436 0.0
H876 H 0.44983 0.73218 0.0696 0.0
H877 H 0.40774 0.79606 0.2404 0.0
H878 H 0.44542 0.82696 0.21159 0.0
H879 H 0.39899 0.83134 0.19967 0.0
H880 H 0.53062 0.89505 0.11774 0.0
H881 H 0.42337 0.91128 0.07794 0.0
H882 H 0.51389 0.79152 0.1409 0.0
H883 H 0.50079 0.80751 0.18547 0.0
H884 H 0.54026 0.83661 0.15825 0.0
H885 H 0.38137 0.80956 0.09042 0.0
H886 H 0.3711 0.86043 0.08982 0.0
H887 H 0.37175 0.82806 0.13503 0.0
C888 C 0.1611 0.28097 0.69407 0.0
C889 C 0.16003 0.32009 0.67538 0.0
C890 C 0.15696 0.24691 0.67311 0.0
C891 C 0.15141 0.25226 0.6325 0.0
C892 C 0.15157 0.29211 0.61332 0.0
C893 C 0.15603 0.32568 0.63509 0.0
C894 C 0.15749 0.20507 0.69459 0.0
C895 C 0.1457 0.29908 0.57013 0.0
C896 C 0.16576 0.1654 0.57548 0.0
C897 C 0.12973 0.14353 0.57353 0.0
C898 C 0.17319 0.20129 0.59393 0.0
C899 C 0.14387 0.21584 0.6106 0.0
C900 C 0.10735 0.19451 0.60786 0.0
C901 C 0.10073 0.15853 0.58949 0.0
C902 C 0.21251 0.22304 0.5965 0.0
C903 C 0.0753 0.20925 0.62504 0.0
H904 H 0.16462 0.27712 0.72525 0.0
H905 H 0.1551 0.35613 0.62096 0.0
H906 H 0.13021 0.18518 0.69263 0.0
H907 H 0.17801 0.19026 0.68104 0.0
H908 H 0.16416 0.20652 0.72577 0.0
H909 H 0.1488 0.33216 0.55934 0.0
H910 H 0.16554 0.28544 0.55419 0.0
H911 H 0.11767 0.28359 0.56318 0.0
H912 H 0.18838 0.15404 0.56328 0.0
H913 H 0.07281 0.14194 0.58798 0.0
H914 H 0.22074 0.22227 0.62738 0.0
H915 H 0.21513 0.25575 0.58466 0.0
H916 H 0.23199 0.20892 0.58046 0.0
H917 H 0.0782 0.20831 0.657 0.0
H918 H 0.04844 0.19035 0.61879 0.0
H919 H 0.07513 0.24157 0.61339 0.0
C920 C 0.67597 0.27374 0.39524 0.0
C921 C 0.66104 0.23195 0.40218 0.0
C922 C 0.6576 0.30333 0.40819 0.0
C923 C 0.62363 0.29067 0.42878 0.0
C924 C 0.60905 0.24828 0.43671 0.0
C925 C 0.6279 0.21948 0.4232 0.0
C926 C 0.67408 0.34816 0.39906 0.0
C927 C 0.57323 0.23336 0.45891 0.0
C928 C 0.59228 0.36539 0.49098 0.0
C929 C 0.56619 0.38155 0.46729 0.0
C930 C 0.61082 0.3356 0.47898 0.0
C931 C 0.60341 0.32168 0.44217 0.0
C932 C 0.57676 0.33744 0.41825 0.0
C933 C 0.55832 0.36705 0.43117 0.0
C934 C 0.63863 0.31931 0.50561 0.0
C935 C 0.5682 0.32352 0.37872 0.0
H936 H 0.70139 0.28318 0.37856 0.0
H937 H 0.61649 0.18706 0.42834 0.0
H938 H 0.65485 0.36402 0.38103 0.0
H939 H 0.67824 0.36288 0.42628 0.0
H940 H 0.70087 0.35293 0.38327 0.0
H941 H 0.56617 0.19937 0.46357 0.0
H942 H 0.57481 0.2453 0.4876 0.0
H943 H 0.55058 0.24519 0.44286 0.0
H944 H 0.59847 0.37624 0.51903 0.0
H945 H 0.53841 0.37954 0.41259 0.0
H946 H 0.66619 0.32639 0.49129 0.0
H947 H 0.63118 0.28547 0.51158 0.0
H948 H 0.64059 0.33256 0.53372 0.0
H949 H 0.59344 0.33071 0.36019 0.0
H950 H 0.54654 0.33836 0.36381 0.0
H951 H 0.55896 0.2898 0.3815 0.0
loop_
_geom_bond_atom_site_label_1
_geom_bond_atom_site_label_2
_geom_bond_distance
_geom_bond_site_symmetry_2
_ccdc_geom_bond_type
C0 N1 1.317 . S
C0 N2 1.348 . S
C0 C3 1.485 . S
N1 C0 1.317 . S
N1 N5 1.370 . S
N2 C0 1.348 . S
N2 C4 1.346 . S
C3 C0 1.485 . S
C3 H7 0.960 . S
C3 H8 0.961 . S
C3 H9 0.960 . S
C4 N2 1.346 . S
C4 N5 1.307 . S
C4 C6 1.486 . S
N5 N1 1.370 . S
N5 C4 1.307 . S
C6 C4 1.486 . S
C6 H10 0.960 . S
C6 H11 0.960 . S
C6 H12 0.959 . S
H7 C3 0.960 . S
H8 C3 0.961 . S
H9 C3 0.960 . S
H10 C6 0.960 . S
H11 C6 0.960 . S
H12 C6 0.959 . S
C13 N14 1.317 . S
C13 N15 1.348 . S
C13 C16 1.485 . S
N14 C13 1.317 . S
N14 N18 1.370 . S
N15 C13 1.348 . S
N15 C17 1.346 . S
C16 C13 1.485 . S
C16 H20 0.960 . S
C16 H21 0.961 . S
C16 H22 0.960 . S
C17 N15 1.346 . S
C17 N18 1.307 . S
C17 C19 1.486 . S
N18 N14 1.370 . S
N18 C17 1.307 . S
C19 C17 1.486 . S
C19 H23 0.960 . S
C19 H24 0.960 . S
C19 H25 0.959 . S
H20 C16 0.960 . S
H21 C16 0.961 . S
H22 C16 0.960 . S
H23 C19 0.960 . S
H24 C19 0.960 . S
H25 C19 0.959 . S
C26 N27 1.317 . S
C26 N28 1.348 . S
C26 C29 1.485 . S
N27 C26 1.317 . S
N27 N31 1.370 . S
N28 C26 1.348 . S
N28 C30 1.346 . S
C29 C26 1.485 . S
C29 H33 0.960 . S
C29 H34 0.961 . S
C29 H35 0.960 . S
C30 N28 1.346 . S
C30 N31 1.307 . S
C30 C32 1.486 . S
N31 N27 1.370 . S
N31 C30 1.307 . S
C32 C30 1.486 . S
C32 H36 0.960 . S
C32 H37 0.960 . S
C32 H38 0.959 . S
H33 C29 0.960 . S
H34 C29 0.961 . S
H35 C29 0.960 . S
H36 C32 0.960 . S
H37 C32 0.960 . S
H38 C32 0.959 . S
C39 N40 1.317 . S
C39 N41 1.348 . S
C39 C42 1.485 . S
N40 C39 1.317 . S
N40 N44 1.370 . S
N41 C39 1.348 . S
N41 C43 1.346 . S
C42 C39 1.485 . S
C42 H46 0.960 . S
C42 H47 0.961 . S
C42 H48 0.960 . S
C43 N41 1.346 . S
C43 N44 1.307 . S
C43 C45 1.486 . S
N44 N40 1.370 . S
N44 C43 1.307 . S
C45 C43 1.486 . S
C45 H49 0.960 . S
C45 H50 0.960 . S
C45 H51 0.959 . S
H46 C42 0.960 . S
H47 C42 0.961 . S
H48 C42 0.960 . S
H49 C45 0.960 . S
H50 C45 0.960 . S
H51 C45 0.959 . S
C52 N53 1.317 . S
C52 N54 1.348 . S
C52 C55 1.485 . S
N53 C52 1.317 . S
N53 N57 1.370 . S
N54 C52 1.348 . S
N54 C56 1.346 . S
C55 C52 1.485 . S
C55 H59 0.960 . S
C55 H60 0.961 . S
C55 H61 0.960 . S
C56 N54 1.346 . S
C56 N57 1.307 . S
C56 C58 1.486 . S
N57 N53 1.370 . S
N57 C56 1.307 . S
C58 C56 1.486 . S
C58 H62 0.960 . S
C58 H63 0.960 . S
C58 H64 0.959 . S
H59 C55 0.960 . S
H60 C55 0.961 . S
H61 C55 0.960 . S
H62 C58 0.960 . S
H63 C58 0.960 . S
H64 C58 0.959 . S
C65 N66 1.317 . S
C65 N67 1.348 . S
C65 C68 1.485 . S
N66 C65 1.317 . S
N66 N70 1.370 . S
N67 C65 1.348 . S
N67 C69 1.346 . S
C68 C65 1.485 . S
C68 H72 0.960 . S
C68 H73 0.961 . S
C68 H74 0.960 . S
C69 N67 1.346 . S
C69 N70 1.307 . S
C69 C71 1.486 . S
N70 N66 1.370 . S
N70 C69 1.307 . S
C71 C69 1.486 . S
C71 H75 0.960 . S
C71 H76 0.960 . S
C71 H77 0.959 . S
H72 C68 0.960 . S
H73 C68 0.961 . S
H74 C68 0.960 . S
H75 C71 0.960 . S
H76 C71 0.960 . S
H77 C71 0.959 . S
C78 N79 1.317 . S
C78 N80 1.348 . S
C78 C81 1.485 . S
N79 C78 1.317 . S
N79 N83 1.370 . S
N80 C78 1.348 . S
N80 C82 1.346 . S
C81 C78 1.485 . S
C81 H85 0.960 . S
C81 H86 0.961 . S
C81 H87 0.960 . S
C82 N80 1.346 . S
C82 N83 1.307 . S
C82 C84 1.486 . S
N83 N79 1.370 . S
N83 C82 1.307 . S
C84 C82 1.486 . S
C84 H88 0.960 . S
C84 H89 0.960 . S
C84 H90 0.959 . S
H85 C81 0.960 . S
H86 C81 0.961 . S
H87 C81 0.960 . S
H88 C84 0.960 . S
H89 C84 0.960 . S
H90 C84 0.959 . S
C91 N92 1.317 . S
C91 N93 1.348 . S
C91 C94 1.485 . S
N92 C91 1.317 . S
N92 N96 1.370 . S
N93 C91 1.348 . S
N93 C95 1.346 . S
C94 C91 1.485 . S
C94 H98 0.960 . S
C94 H99 0.961 . S
C94 H100 0.960 . S
C95 N93 1.346 . S
C95 N96 1.307 . S
C95 C97 1.486 . S
N96 N92 1.370 . S
N96 C95 1.307 . S
C97 C95 1.486 . S
C97 H101 0.960 . S
C97 H102 0.960 . S
C97 H103 0.959 . S
H98 C94 0.960 . S
H99 C94 0.961 . S
H100 C94 0.960 . S
H101 C97 0.960 . S
H102 C97 0.960 . S
H103 C97 0.959 . S
Zn104 O110 1.969 1_545 S
Zn104 O111 1.965 1_545 S
Zn104 O115 2.024 . S
Zn104 O120 1.969 . S
Zn105 O112 1.977 . S
Zn105 O118 1.950 1_565 S
Zn105 O119 1.950 1_665 S
Zn105 O121 2.045 1_655 S
C106 O107 1.229 . S
C106 O115 1.058 . S
O107 C106 1.229 . S
C108 O109 1.229 . S
C108 O121 1.055 1_655 S
O109 C108 1.229 . S
O110 Zn104 1.969 1_565 S
O110 C113 1.267 . S
O111 Zn104 1.965 1_565 S
O111 C122 1.260 . S
O112 Zn105 1.977 . S
O112 C122 1.258 1_655 S
C113 O110 1.267 . S
C113 O114 1.228 . S
O114 C113 1.228 . S
O115 Zn104 2.024 . S
O115 C106 1.058 . S
C116 O117 1.228 . S
C116 O118 1.267 . S
O117 C116 1.228 . S
O118 Zn105 1.950 1_545 S
O118 C116 1.267 . S
O119 Zn105 1.950 1_445 S
O119 C123 1.260 . S
O120 Zn104 1.969 . S
O120 C123 1.258 . S
O121 Zn105 2.045 1_455 S
O121 C108 1.055 1_455 S
C122 O111 1.260 . S
C122 O112 1.258 1_455 S
C123 O119 1.260 . S
C123 O120 1.258 . S
Zn124 O130 1.969 . S
Zn124 O131 1.965 1_566 S
Zn124 O135 2.024 . S
Zn124 O140 1.969 1_556 S
Zn125 O132 1.969 . S
Zn125 O138 1.969 . S
Zn125 O139 1.965 1_545 S
Zn125 O141 2.024 . S
C126 O127 1.229 . S
C126 O135 1.058 . S
O127 C126 1.229 . S
C128 O129 1.229 . S
C128 O141 1.058 . S
O129 C128 1.229 . S
O130 Zn124 1.969 . S
O130 C133 1.267 . S
O131 Zn124 1.965 1_544 S
O131 C142 1.260 . S
O132 Zn125 1.969 . S
O132 C142 1.258 . S
C133 O130 1.267 . S
C133 O134 1.228 . S
O134 C133 1.228 . S
O135 Zn124 2.024 . S
O135 C126 1.058 . S
C136 O137 1.228 . S
C136 O138 1.267 . S
O137 C136 1.228 . S
O138 Zn125 1.969 . S
O138 C136 1.267 . S
O139 Zn125 1.965 1_565 S
O139 C143 1.260 . S
O140 Zn124 1.969 1_554 S
O140 C143 1.258 . S
O141 Zn125 2.024 . S
O141 C128 1.058 . S
C142 O131 1.260 . S
C142 O132 1.258 . S
C143 O139 1.260 . S
C143 O140 1.258 . S
Zn144 O150 1.969 . S
Zn144 O151 1.965 . S
Zn144 O155 2.024 . S
Zn144 O160 1.969 . S
Zn145 O152 1.969 . S
Zn145 O158 1.969 . S
Zn145 O159 1.965 . S
Zn145 O161 2.024 . S
C146 O147 1.229 . S
C146 O155 1.058 . S
O147 C146 1.229 . S
C148 O149 1.229 . S
C148 O161 1.058 . S
O149 C148 1.229 . S
O150 Zn144 1.969 . S
O150 C153 1.267 . S
O151 Zn144 1.965 . S
O151 C162 1.260 . S
O152 Zn145 1.969 . S
O152 C162 1.258 . S
C153 O150 1.267 . S
C153 O154 1.228 . S
O154 C153 1.228 . S
O155 Zn144 2.024 . S
O155 C146 1.058 . S
C156 O157 1.228 . S
C156 O158 1.267 . S
O157 C156 1.228 . S
O158 Zn145 1.969 . S
O158 C156 1.267 . S
O159 Zn145 1.965 . S
O159 C163 1.260 . S
O160 Zn144 1.969 . S
O160 C163 1.258 . S
O161 Zn145 2.024 . S
O161 C148 1.058 . S
C162 O151 1.260 . S
C162 O152 1.258 . S
C163 O159 1.260 . S
C163 O160 1.258 . S
Zn164 O170 1.969 . S
Zn164 O171 1.965 1_556 S
Zn164 O175 2.024 . S
Zn164 O180 1.962 1_655 S
Zn165 O172 1.969 . S
Zn165 O178 1.969 . S
Zn165 O179 1.965 1_554 S
Zn165 O181 2.024 . S
C166 O167 1.229 . S
C166 O175 1.058 . S
O167 C166 1.229 . S
C168 O169 1.229 . S
C168 O181 1.058 . S
O169 C168 1.229 . S
O170 Zn164 1.969 . S
O170 C173 1.267 . S
O171 Zn164 1.965 1_554 S
O171 C182 1.260 . S
O172 Zn165 1.969 . S
O172 C182 1.258 1_455 S
C173 O170 1.267 . S
C173 O174 1.228 . S
O174 C173 1.228 . S
O175 Zn164 2.024 . S
O175 C166 1.058 . S
C176 O177 1.228 . S
C176 O178 1.267 . S
O177 C176 1.228 . S
O178 Zn165 1.969 . S
O178 C176 1.267 . S
O179 Zn165 1.965 1_556 S
O179 C183 1.260 . S
O180 Zn164 1.962 1_455 S
O180 C183 1.265 . S
O181 Zn165 2.024 . S
O181 C168 1.058 . S
C182 O171 1.260 . S
C182 O172 1.258 1_655 S
C183 O179 1.260 . S
C183 O180 1.265 . S
C184 C185 1.391 . S
C184 C186 1.394 . S
C184 H200 0.931 . S
C185 C184 1.391 . S
C185 C189 1.376 . S
C186 C184 1.394 . S
C186 C187 1.369 . S
C186 C190 1.531 . S
C187 C186 1.369 . S
C187 C188 1.410 . S
C187 C195 1.503 . S
C188 C187 1.410 . S
C188 C189 1.392 . S
C188 C191 1.511 . S
C189 C185 1.376 . S
C189 C188 1.392 . S
C189 H201 0.929 . S
C190 C186 1.531 . S
C190 H202 0.960 . S
C190 H203 0.962 . S
C190 H204 0.960 . S
C191 C188 1.511 . S
C191 H205 0.961 . S
C191 H206 0.961 . S
C191 H207 0.961 . S
C192 C193 1.370 . S
C192 C194 1.363 . S
C192 H208 0.931 . S
C193 C192 1.370 . S
C193 C197 1.408 . S
C194 C192 1.363 . S
C194 C195 1.370 . S
C194 C198 1.524 . S
C195 C187 1.503 . S
C195 C194 1.370 . S
C195 C196 1.403 . S
C196 C195 1.403 . S
C196 C197 1.404 . S
C196 C199 1.539 . S
C197 C193 1.408 . S
C197 C196 1.404 . S
C197 H209 0.930 . S
C198 C194 1.524 . S
C198 H210 0.956 . S
C198 H211 0.961 . S
C198 H212 0.961 . S
C199 C196 1.539 . S
C199 H213 0.958 . S
C199 H214 0.961 . S
C199 H215 0.960 . S
H200 C184 0.931 . S
H201 C189 0.929 . S
H202 C190 0.960 . S
H203 C190 0.962 . S
H204 C190 0.960 . S
H205 C191 0.961 . S
H206 C191 0.961 . S
H207 C191 0.961 . S
H208 C192 0.931 . S
H209 C197 0.930 . S
H210 C198 0.956 . S
H211 C198 0.961 . S
H212 C198 0.961 . S
H213 C199 0.958 . S
H214 C199 0.961 . S
H215 C199 0.960 . S
C216 C217 1.391 . S
C216 C218 1.394 . S
C216 H232 0.931 . S
C217 C216 1.391 . S
C217 C221 1.376 . S
C218 C216 1.394 . S
C218 C219 1.369 . S
C218 C222 1.531 . S
C219 C218 1.369 . S
C219 C220 1.410 . S
C219 C227 1.503 . S
C220 C219 1.410 . S
C220 C221 1.392 . S
C220 C223 1.511 . S
C221 C217 1.376 . S
C221 C220 1.392 . S
C221 H233 0.929 . S
C222 C218 1.531 . S
C222 H234 0.960 . S
C222 H235 0.962 . S
C222 H236 0.960 . S
C223 C220 1.511 . S
C223 H237 0.961 . S
C223 H238 0.961 . S
C223 H239 0.961 . S
C224 C225 1.370 . S
C224 C226 1.363 . S
C224 H240 0.931 . S
C225 C224 1.370 . S
C225 C229 1.408 . S
C226 C224 1.363 . S
C226 C227 1.370 . S
C226 C230 1.524 . S
C227 C219 1.503 . S
C227 C226 1.370 . S
C227 C228 1.403 . S
C228 C227 1.403 . S
C228 C229 1.404 . S
C228 C231 1.539 . S
C229 C225 1.408 . S
C229 C228 1.404 . S
C229 H241 0.930 1_565 S
C230 C226 1.524 . S
C230 H242 0.956 . S
C230 H243 0.961 . S
C230 H244 0.961 . S
C231 C228 1.539 . S
C231 H245 0.958 . S
C231 H246 0.961 1_565 S
C231 H247 0.960 . S
H232 C216 0.931 . S
H233 C221 0.929 . S
H234 C222 0.960 . S
H235 C222 0.962 . S
H236 C222 0.960 . S
H237 C223 0.961 . S
H238 C223 0.961 . S
H239 C223 0.961 . S
H240 C224 0.931 . S
H241 C229 0.930 1_545 S
H242 C230 0.956 . S
H243 C230 0.961 . S
H244 C230 0.961 . S
H245 C231 0.958 . S
H246 C231 0.961 1_545 S
H247 C231 0.960 . S
C248 C249 1.391 . S
C248 C250 1.394 . S
C248 H264 0.931 . S
C249 C248 1.391 . S
C249 C253 1.376 . S
C250 C248 1.394 . S
C250 C251 1.369 . S
C250 C254 1.531 . S
C251 C250 1.369 . S
C251 C252 1.410 . S
C251 C259 1.503 . S
C252 C251 1.410 . S
C252 C253 1.392 . S
C252 C255 1.511 . S
C253 C249 1.376 . S
C253 C252 1.392 . S
C253 H265 0.929 . S
C254 C250 1.531 . S
C254 H266 0.960 . S
C254 H267 0.962 . S
C254 H268 0.960 . S
C255 C252 1.511 . S
C255 H269 0.961 . S
C255 H270 0.961 . S
C255 H271 0.961 . S
C256 C257 1.370 . S
C256 C258 1.363 . S
C256 H272 0.931 . S
C257 C256 1.370 . S
C257 C261 1.408 . S
C258 C256 1.363 . S
C258 C259 1.370 . S
C258 C262 1.524 . S
C259 C251 1.503 . S
C259 C258 1.370 . S
C259 C260 1.403 . S
C260 C259 1.403 . S
C260 C261 1.404 . S
C260 C263 1.539 . S
C261 C257 1.408 . S
C261 C260 1.404 . S
C261 H273 0.930 . S
C262 C258 1.524 . S
C262 H274 0.956 . S
C262 H275 0.961 . S
C262 H276 0.961 . S
C263 C260 1.539 . S
C263 H277 0.958 . S
C263 H278 0.961 . S
C263 H279 0.960 . S
H264 C248 0.931 . S
H265 C253 0.929 . S
H266 C254 0.960 . S
H267 C254 0.962 . S
H268 C254 0.960 . S
H269 C255 0.961 . S
H270 C255 0.961 . S
H271 C255 0.961 . S
H272 C256 0.931 . S
H273 C261 0.930 . S
H274 C262 0.956 . S
H275 C262 0.961 . S
H276 C262 0.961 . S
H277 C263 0.958 . S
H278 C263 0.961 . S
H279 C263 0.960 . S
C280 C281 1.391 . S
C280 C282 1.394 . S
C280 H296 0.931 . S
C281 C280 1.391 . S
C281 C285 1.376 . S
C282 C280 1.394 . S
C282 C283 1.369 . S
C282 C286 1.531 . S
C283 C282 1.369 . S
C283 C284 1.410 . S
C283 C291 1.503 . S
C284 C283 1.410 . S
C284 C285 1.392 . S
C284 C287 1.511 . S
C285 C281 1.376 . S
C285 C284 1.392 . S
C285 H297 0.929 . S
C286 C282 1.531 . S
C286 H298 0.960 . S
C286 H299 0.962 . S
C286 H300 0.960 . S
C287 C284 1.511 . S
C287 H301 0.961 . S
C287 H302 0.961 . S
C287 H303 0.961 . S
C288 C289 1.370 . S
C288 C290 1.363 . S
C288 H304 0.931 . S
C289 C288 1.370 . S
C289 C293 1.408 . S
C290 C288 1.363 . S
C290 C291 1.370 . S
C290 C294 1.524 . S
C291 C283 1.503 . S
C291 C290 1.370 . S
C291 C292 1.403 . S
C292 C291 1.403 . S
C292 C293 1.404 . S
C292 C295 1.539 . S
C293 C289 1.408 . S
C293 C292 1.404 . S
C293 H305 0.930 . S
C294 C290 1.524 . S
C294 H306 0.956 . S
C294 H307 0.961 . S
C294 H308 0.961 . S
C295 C292 1.539 . S
C295 H309 0.958 . S
C295 H310 0.961 . S
C295 H311 0.960 . S
H296 C280 0.931 . S
H297 C285 0.929 . S
H298 C286 0.960 . S
H299 C286 0.962 . S
H300 C286 0.960 . S
H301 C287 0.961 . S
H302 C287 0.961 . S
H303 C287 0.961 . S
H304 C288 0.931 . S
H305 C293 0.930 . S
H306 C294 0.956 . S
H307 C294 0.961 . S
H308 C294 0.961 . S
H309 C295 0.958 . S
H310 C295 0.961 . S
H311 C295 0.960 . S
C312 C313 1.391 . S
C312 C314 1.394 . S
C312 H328 0.931 . S
C313 C312 1.391 . S
C313 C317 1.376 . S
C314 C312 1.394 . S
C314 C315 1.369 . S
C314 C318 1.531 . S
C315 C314 1.369 . S
C315 C316 1.410 . S
C315 C323 1.503 . S
C316 C315 1.410 . S
C316 C317 1.392 . S
C316 C319 1.511 . S
C317 C313 1.376 . S
C317 C316 1.392 . S
C317 H329 0.929 . S
C318 C314 1.531 . S
C318 H330 0.960 . S
C318 H331 0.962 . S
C318 H332 0.960 . S
C319 C316 1.511 . S
C319 H333 0.961 . S
C319 H334 0.961 . S
C319 H335 0.961 . S
C320 C321 1.370 . S
C320 C322 1.363 . S
C320 H336 0.931 . S
C321 C320 1.370 . S
C321 C325 1.408 . S
C322 C320 1.363 . S
C322 C323 1.370 . S
C322 C326 1.524 . S
C323 C315 1.503 . S
C323 C322 1.370 . S
C323 C324 1.403 . S
C324 C323 1.403 . S
C324 C325 1.404 . S
C324 C327 1.539 . S
C325 C321 1.408 . S
C325 C324 1.404 . S
C325 H337 0.930 . S
C326 C322 1.524 . S
C326 H338 0.956 . S
C326 H339 0.961 . S
C326 H340 0.961 . S
C327 C324 1.539 . S
C327 H341 0.958 . S
C327 H342 0.961 . S
C327 H343 0.960 . S
H328 C312 0.931 . S
H329 C317 0.929 . S
H330 C318 0.960 . S
H331 C318 0.962 . S
H332 C318 0.960 . S
H333 C319 0.961 . S
H334 C319 0.961 . S
H335 C319 0.961 . S
H336 C320 0.931 . S
H337 C325 0.930 . S
H338 C326 0.956 . S
H339 C326 0.961 . S
H340 C326 0.961 . S
H341 C327 0.958 . S
H342 C327 0.961 . S
H343 C327 0.960 . S
C344 C345 1.391 . S
C344 C346 1.394 . S
C344 H360 0.931 . S
C345 C344 1.391 . S
C345 C349 1.376 . S
C346 C344 1.394 . S
C346 C347 1.369 . S
C346 C350 1.531 . S
C347 C346 1.369 . S
C347 C348 1.410 . S
C347 C355 1.503 . S
C348 C347 1.410 . S
C348 C349 1.392 . S
C348 C351 1.511 . S
C349 C345 1.376 . S
C349 C348 1.392 . S
C349 H361 0.929 . S
C350 C346 1.531 . S
C350 H362 0.960 . S
C350 H363 0.962 . S
C350 H364 0.960 . S
C351 C348 1.511 . S
C351 H365 0.961 . S
C351 H366 0.961 . S
C351 H367 0.961 . S
C352 C353 1.370 . S
C352 C354 1.363 . S
C352 H368 0.931 . S
C353 C352 1.370 . S
C353 C357 1.408 . S
C354 C352 1.363 . S
C354 C355 1.370 . S
C354 C358 1.524 . S
C355 C347 1.503 . S
C355 C354 1.370 . S
C355 C356 1.403 . S
C356 C355 1.403 . S
C356 C357 1.404 . S
C356 C359 1.539 . S
C357 C353 1.408 . S
C357 C356 1.404 . S
C357 H369 0.930 . S
C358 C354 1.524 . S
C358 H370 0.956 . S
C358 H371 0.961 . S
C358 H372 0.961 . S
C359 C356 1.539 . S
C359 H373 0.958 . S
C359 H374 0.961 . S
C359 H375 0.960 . S
H360 C344 0.931 . S
H361 C349 0.929 . S
H362 C350 0.960 . S
H363 C350 0.962 . S
H364 C350 0.960 . S
H365 C351 0.961 . S
H366 C351 0.961 . S
H367 C351 0.961 . S
H368 C352 0.931 . S
H369 C357 0.930 . S
H370 C358 0.956 . S
H371 C358 0.961 . S
H372 C358 0.961 . S
H373 C359 0.958 . S
H374 C359 0.961 . S
H375 C359 0.960 . S
C376 C377 1.391 . S
C376 C378 1.394 . S
C376 H392 0.931 . S
C377 C376 1.391 . S
C377 C381 1.376 . S
C378 C376 1.394 . S
C378 C379 1.369 . S
C378 C382 1.531 . S
C379 C378 1.369 . S
C379 C380 1.410 . S
C379 C387 1.503 . S
C380 C379 1.410 . S
C380 C381 1.392 . S
C380 C383 1.511 . S
C381 C377 1.376 . S
C381 C380 1.392 . S
C381 H393 0.929 . S
C382 C378 1.531 . S
C382 H394 0.960 . S
C382 H395 0.962 . S
C382 H396 0.960 . S
C383 C380 1.511 . S
C383 H397 0.961 . S
C383 H398 0.961 . S
C383 H399 0.961 . S
C384 C385 1.370 . S
C384 C386 1.363 . S
C384 H400 0.931 . S
C385 C384 1.370 . S
C385 C389 1.408 . S
C386 C384 1.363 . S
C386 C387 1.370 . S
C386 C390 1.524 . S
C387 C379 1.503 . S
C387 C386 1.370 . S
C387 C388 1.403 . S
C388 C387 1.403 . S
C388 C389 1.404 . S
C388 C391 1.539 . S
C389 C385 1.408 . S
C389 C388 1.404 . S
C389 H401 0.930 . S
C390 C386 1.524 . S
C390 H402 0.956 . S
C390 H403 0.961 . S
C390 H404 0.961 . S
C391 C388 1.539 . S
C391 H405 0.958 . S
C391 H406 0.961 . S
C391 H407 0.960 . S
H392 C376 0.931 . S
H393 C381 0.929 . S
H394 C382 0.960 . S
H395 C382 0.962 . S
H396 C382 0.960 . S
H397 C383 0.961 . S
H398 C383 0.961 . S
H399 C383 0.961 . S
H400 C384 0.931 . S
H401 C389 0.930 . S
H402 C390 0.956 . S
H403 C390 0.961 . S
H404 C390 0.961 . S
H405 C391 0.958 . S
H406 C391 0.961 . S
H407 C391 0.960 . S
C408 C409 1.391 . S
C408 C410 1.394 . S
C408 H424 0.931 . S
C409 C408 1.391 . S
C409 C413 1.376 . S
C410 C408 1.394 . S
C410 C411 1.369 . S
C410 C414 1.531 . S
C411 C410 1.369 . S
C411 C412 1.410 . S
C411 C419 1.503 . S
C412 C411 1.410 . S
C412 C413 1.392 . S
C412 C415 1.511 . S
C413 C409 1.376 . S
C413 C412 1.392 . S
C413 H425 0.929 . S
C414 C410 1.531 . S
C414 H426 0.960 . S
C414 H427 0.962 . S
C414 H428 0.960 . S
C415 C412 1.511 . S
C415 H429 0.961 . S
C415 H430 0.961 . S
C415 H431 0.961 . S
C416 C417 1.370 . S
C416 C418 1.363 . S
C416 H432 0.931 . S
C417 C416 1.370 . S
C417 C421 1.408 . S
C418 C416 1.363 . S
C418 C419 1.370 . S
C418 C422 1.524 . S
C419 C411 1.503 . S
C419 C418 1.370 . S
C419 C420 1.403 . S
C420 C419 1.403 . S
C420 C421 1.404 . S
C420 C423 1.539 . S
C421 C417 1.408 . S
C421 C420 1.404 . S
C421 H433 0.930 . S
C422 C418 1.524 . S
C422 H434 0.956 . S
C422 H435 0.961 . S
C422 H436 0.961 . S
C423 C420 1.539 . S
C423 H437 0.958 . S
C423 H438 0.961 . S
C423 H439 0.960 . S
H424 C408 0.931 . S
H425 C413 0.929 . S
H426 C414 0.960 . S
H427 C414 0.962 . S
H428 C414 0.960 . S
H429 C415 0.961 . S
H430 C415 0.961 . S
H431 C415 0.961 . S
H432 C416 0.931 . S
H433 C421 0.930 . S
H434 C422 0.956 . S
H435 C422 0.961 . S
H436 C422 0.961 . S
H437 C423 0.958 . S
H438 C423 0.961 . S
H439 C423 0.960 . S
C440 C441 1.391 . S
C440 C442 1.394 . S
C440 H456 0.931 . S
C441 C440 1.391 . S
C441 C445 1.376 . S
C442 C440 1.394 . S
C442 C443 1.369 . S
C442 C446 1.531 . S
C443 C442 1.369 . S
C443 C444 1.410 . S
C443 C451 1.503 . S
C444 C443 1.410 . S
C444 C445 1.392 . S
C444 C447 1.511 . S
C445 C441 1.376 . S
C445 C444 1.392 . S
C445 H457 0.929 . S
C446 C442 1.531 . S
C446 H458 0.960 . S
C446 H459 0.962 . S
C446 H460 0.960 . S
C447 C444 1.511 . S
C447 H461 0.961 . S
C447 H462 0.961 . S
C447 H463 0.961 . S
C448 C449 1.370 . S
C448 C450 1.363 . S
C448 H464 0.931 . S
C449 C448 1.370 . S
C449 C453 1.408 . S
C450 C448 1.363 . S
C450 C451 1.370 . S
C450 C454 1.524 . S
C451 C443 1.503 . S
C451 C450 1.370 . S
C451 C452 1.403 . S
C452 C451 1.403 . S
C452 C453 1.404 . S
C452 C455 1.539 . S
C453 C449 1.408 . S
C453 C452 1.404 . S
C453 H465 0.930 . S
C454 C450 1.524 . S
C454 H466 0.956 . S
C454 H467 0.961 . S
C454 H468 0.961 . S
C455 C452 1.539 . S
C455 H469 0.958 . S
C455 H470 0.961 . S
C455 H471 0.960 . S
H456 C440 0.931 . S
H457 C445 0.929 . S
H458 C446 0.960 . S
H459 C446 0.962 . S
H460 C446 0.960 . S
H461 C447 0.961 . S
H462 C447 0.961 . S
H463 C447 0.961 . S
H464 C448 0.931 . S
H465 C453 0.930 . S
H466 C454 0.956 . S
H467 C454 0.961 . S
H468 C454 0.961 . S
H469 C455 0.958 . S
H470 C455 0.961 . S
H471 C455 0.960 . S
C472 C473 1.391 . S
C472 C474 1.394 . S
C472 H488 0.931 . S
C473 C472 1.391 . S
C473 C477 1.376 . S
C474 C472 1.394 . S
C474 C475 1.369 . S
C474 C478 1.531 . S
C475 C474 1.369 . S
C475 C476 1.410 . S
C475 C483 1.503 . S
C476 C475 1.410 . S
C476 C477 1.392 . S
C476 C479 1.511 . S
C477 C473 1.376 . S
C477 C476 1.392 . S
C477 H489 0.929 . S
C478 C474 1.531 . S
C478 H490 0.960 . S
C478 H491 0.962 . S
C478 H492 0.960 . S
C479 C476 1.511 . S
C479 H493 0.961 . S
C479 H494 0.961 . S
C479 H495 0.961 . S
C480 C481 1.370 . S
C480 C482 1.363 . S
C480 H496 0.931 . S
C481 C480 1.370 . S
C481 C485 1.408 . S
C482 C480 1.363 . S
C482 C483 1.370 . S
C482 C486 1.524 . S
C483 C475 1.503 . S
C483 C482 1.370 . S
C483 C484 1.403 . S
C484 C483 1.403 . S
C484 C485 1.404 . S
C484 C487 1.539 . S
C485 C481 1.408 . S
C485 C484 1.404 . S
C485 H497 0.930 . S
C486 C482 1.524 . S
C486 H498 0.956 . S
C486 H499 0.961 . S
C486 H500 0.961 . S
C487 C484 1.539 . S
C487 H501 0.958 . S
C487 H502 0.961 . S
C487 H503 0.960 . S
H488 C472 0.931 . S
H489 C477 0.929 . S
H490 C478 0.960 . S
H491 C478 0.962 . S
H492 C478 0.960 . S
H493 C479 0.961 . S
H494 C479 0.961 . S
H495 C479 0.961 . S
H496 C480 0.931 . S
H497 C485 0.930 . S
H498 C486 0.956 . S
H499 C486 0.961 . S
H500 C486 0.961 . S
H501 C487 0.958 . S
H502 C487 0.961 . S
H503 C487 0.960 . S
C504 C505 1.391 . S
C504 C506 1.394 . S
C504 H520 0.931 . S
C505 C504 1.391 . S
C505 C509 1.376 . S
C506 C504 1.394 . S
C506 C507 1.369 . S
C506 C510 1.531 . S
C507 C506 1.369 . S
C507 C508 1.410 . S
C507 C515 1.503 . S
C508 C507 1.410 . S
C508 C509 1.392 . S
C508 C511 1.511 . S
C509 C505 1.376 . S
C509 C508 1.392 . S
C509 H521 0.929 . S
C510 C506 1.531 . S
C510 H522 0.960 . S
C510 H523 0.962 . S
C510 H524 0.960 . S
C511 C508 1.511 . S
C511 H525 0.961 . S
C511 H526 0.961 . S
C511 H527 0.961 . S
C512 C513 1.370 . S
C512 C514 1.363 . S
C512 H528 0.931 . S
C513 C512 1.370 . S
C513 C517 1.408 . S
C514 C512 1.363 . S
C514 C515 1.370 . S
C514 C518 1.524 . S
C515 C507 1.503 . S
C515 C514 1.370 . S
C515 C516 1.403 . S
C516 C515 1.403 . S
C516 C517 1.404 . S
C516 C519 1.539 . S
C517 C513 1.408 . S
C517 C516 1.404 . S
C517 H529 0.930 . S
C518 C514 1.524 . S
C518 H530 0.956 . S
C518 H531 0.961 . S
C518 H532 0.961 . S
C519 C516 1.539 . S
C519 H533 0.958 . S
C519 H534 0.961 . S
C519 H535 0.960 . S
H520 C504 0.931 . S
H521 C509 0.929 . S
H522 C510 0.960 . S
H523 C510 0.962 . S
H524 C510 0.960 . S
H525 C511 0.961 . S
H526 C511 0.961 . S
H527 C511 0.961 . S
H528 C512 0.931 . S
H529 C517 0.930 . S
H530 C518 0.956 . S
H531 C518 0.961 . S
H532 C518 0.961 . S
H533 C519 0.958 . S
H534 C519 0.961 . S
H535 C519 0.960 . S
C536 C537 1.391 . S
C536 C538 1.394 . S
C536 H552 0.931 . S
C537 C536 1.391 . S
C537 C541 1.376 . S
C538 C536 1.394 . S
C538 C539 1.369 . S
C538 C542 1.531 . S
C539 C538 1.369 . S
C539 C540 1.410 . S
C539 C547 1.503 . S
C540 C539 1.410 . S
C540 C541 1.392 . S
C540 C543 1.511 . S
C541 C537 1.376 . S
C541 C540 1.392 . S
C541 H553 0.929 . S
C542 C538 1.531 . S
C542 H554 0.960 . S
C542 H555 0.962 . S
C542 H556 0.960 . S
C543 C540 1.511 . S
C543 H557 0.961 . S
C543 H558 0.961 . S
C543 H559 0.961 . S
C544 C545 1.370 . S
C544 C546 1.363 . S
C544 H560 0.931 . S
C545 C544 1.370 . S
C545 C549 1.408 . S
C546 C544 1.363 . S
C546 C547 1.370 . S
C546 C550 1.524 . S
C547 C539 1.503 . S
C547 C546 1.370 . S
C547 C548 1.403 . S
C548 C547 1.403 . S
C548 C549 1.404 . S
C548 C551 1.539 . S
C549 C545 1.408 . S
C549 C548 1.404 . S
C549 H561 0.930 . S
C550 C546 1.524 . S
C550 H562 0.956 . S
C550 H563 0.961 . S
C550 H564 0.961 . S
C551 C548 1.539 . S
C551 H565 0.958 . S
C551 H566 0.961 . S
C551 H567 0.960 . S
H552 C536 0.931 . S
H553 C541 0.929 . S
H554 C542 0.960 . S
H555 C542 0.962 . S
H556 C542 0.960 . S
H557 C543 0.961 . S
H558 C543 0.961 . S
H559 C543 0.961 . S
H560 C544 0.931 . S
H561 C549 0.930 . S
H562 C550 0.956 . S
H563 C550 0.961 . S
H564 C550 0.961 . S
H565 C551 0.958 . S
H566 C551 0.961 . S
H567 C551 0.960 . S
C568 C569 1.391 . S
C568 C570 1.394 . S
C568 H584 0.931 . S
C569 C568 1.391 . S
C569 C573 1.376 . S
C570 C568 1.394 . S
C570 C571 1.369 . S
C570 C574 1.531 . S
C571 C570 1.369 . S
C571 C572 1.410 . S
C571 C579 1.503 . S
C572 C571 1.410 . S
C572 C573 1.392 . S
C572 C575 1.511 . S
C573 C569 1.376 . S
C573 C572 1.392 . S
C573 H585 0.929 . S
C574 C570 1.531 . S
C574 H586 0.960 . S
C574 H587 0.962 . S
C574 H588 0.960 . S
C575 C572 1.511 . S
C575 H589 0.961 . S
C575 H590 0.961 . S
C575 H591 0.961 . S
C576 C577 1.370 . S
C576 C578 1.363 . S
C576 H592 0.931 . S
C577 C576 1.370 . S
C577 C581 1.408 . S
C578 C576 1.363 . S
C578 C579 1.370 . S
C578 C582 1.524 . S
C579 C571 1.503 . S
C579 C578 1.370 . S
C579 C580 1.403 . S
C580 C579 1.403 . S
C580 C581 1.404 . S
C580 C583 1.539 . S
C581 C577 1.408 . S
C581 C580 1.404 . S
C581 H593 0.930 . S
C582 C578 1.524 . S
C582 H594 0.956 . S
C582 H595 0.961 . S
C582 H596 0.961 . S
C583 C580 1.539 . S
C583 H597 0.958 . S
C583 H598 0.961 . S
C583 H599 0.960 . S
H584 C568 0.931 . S
H585 C573 0.929 . S
H586 C574 0.960 . S
H587 C574 0.962 . S
H588 C574 0.960 . S
H589 C575 0.961 . S
H590 C575 0.961 . S
H591 C575 0.961 . S
H592 C576 0.931 . S
H593 C581 0.930 . S
H594 C582 0.956 . S
H595 C582 0.961 . S
H596 C582 0.961 . S
H597 C583 0.958 . S
H598 C583 0.961 . S
H599 C583 0.960 . S
C600 C601 1.391 . S
C600 C602 1.394 . S
C600 H616 0.931 . S
C601 C600 1.391 . S
C601 C605 1.376 . S
C602 C600 1.394 . S
C602 C603 1.369 . S
C602 C606 1.531 . S
C603 C602 1.369 . S
C603 C604 1.410 . S
C603 C611 1.503 . S
C604 C603 1.410 . S
C604 C605 1.392 . S
C604 C607 1.511 . S
C605 C601 1.376 . S
C605 C604 1.392 . S
C605 H617 0.929 . S
C606 C602 1.531 . S
C606 H618 0.960 . S
C606 H619 0.962 . S
C606 H620 0.960 . S
C607 C604 1.511 . S
C607 H621 0.961 . S
C607 H622 0.961 . S
C607 H623 0.961 . S
C608 C609 1.370 . S
C608 C610 1.363 . S
C608 H624 0.931 . S
C609 C608 1.370 . S
C609 C613 1.408 . S
C610 C608 1.363 . S
C610 C611 1.370 . S
C610 C614 1.524 . S
C611 C603 1.503 . S
C611 C610 1.370 . S
C611 C612 1.403 . S
C612 C611 1.403 . S
C612 C613 1.404 . S
C612 C615 1.539 . S
C613 C609 1.408 . S
C613 C612 1.404 . S
C613 H625 0.930 . S
C614 C610 1.524 . S
C614 H626 0.956 . S
C614 H627 0.961 . S
C614 H628 0.961 . S
C615 C612 1.539 . S
C615 H629 0.958 . S
C615 H630 0.961 . S
C615 H631 0.960 . S
H616 C600 0.931 . S
H617 C605 0.929 . S
H618 C606 0.960 . S
H619 C606 0.962 . S
H620 C606 0.960 . S
H621 C607 0.961 . S
H622 C607 0.961 . S
H623 C607 0.961 . S
H624 C608 0.931 . S
H625 C613 0.930 . S
H626 C614 0.956 . S
H627 C614 0.961 . S
H628 C614 0.961 . S
H629 C615 0.958 . S
H630 C615 0.961 . S
H631 C615 0.960 . S
C632 C633 1.391 . S
C632 C634 1.394 . S
C632 H648 0.931 . S
C633 C632 1.391 . S
C633 C637 1.376 . S
C634 C632 1.394 . S
C634 C635 1.369 . S
C634 C638 1.531 . S
C635 C634 1.369 . S
C635 C636 1.410 . S
C635 C643 1.503 . S
C636 C635 1.410 . S
C636 C637 1.392 . S
C636 C639 1.511 . S
C637 C633 1.376 . S
C637 C636 1.392 . S
C637 H649 0.929 . S
C638 C634 1.531 . S
C638 H650 0.960 . S
C638 H651 0.962 . S
C638 H652 0.960 . S
C639 C636 1.511 . S
C639 H653 0.961 . S
C639 H654 0.961 . S
C639 H655 0.961 . S
C640 C641 1.370 . S
C640 C642 1.363 . S
C640 H656 0.931 . S
C641 C640 1.370 . S
C641 C645 1.408 . S
C642 C640 1.363 . S
C642 C643 1.370 . S
C642 C646 1.524 . S
C643 C635 1.503 . S
C643 C642 1.370 . S
C643 C644 1.403 . S
C644 C643 1.403 . S
C644 C645 1.404 . S
C644 C647 1.539 . S
C645 C641 1.408 . S
C645 C644 1.404 . S
C645 H657 0.930 . S
C646 C642 1.524 . S
C646 H658 0.956 . S
C646 H659 0.961 . S
C646 H660 0.961 . S
C647 C644 1.539 . S
C647 H661 0.958 . S
C647 H662 0.961 . S
C647 H663 0.960 . S
H648 C632 0.931 . S
H649 C637 0.929 . S
H650 C638 0.960 . S
H651 C638 0.962 . S
H652 C638 0.960 . S
H653 C639 0.961 . S
H654 C639 0.961 . S
H655 C639 0.961 . S
H656 C640 0.931 . S
H657 C645 0.930 . S
H658 C646 0.956 . S
H659 C646 0.961 . S
H660 C646 0.961 . S
H661 C647 0.958 . S
H662 C647 0.961 . S
H663 C647 0.960 . S
C664 C665 1.391 . S
C664 C666 1.394 . S
C664 H680 0.931 . S
C665 C664 1.391 . S
C665 C669 1.376 . S
C666 C664 1.394 . S
C666 C667 1.369 . S
C666 C670 1.531 . S
C667 C666 1.369 . S
C667 C668 1.410 . S
C667 C675 1.503 . S
C668 C667 1.410 . S
C668 C669 1.392 . S
C668 C671 1.511 . S
C669 C665 1.376 . S
C669 C668 1.392 . S
C669 H681 0.929 . S
C670 C666 1.531 . S
C670 H682 0.960 . S
C670 H683 0.962 . S
C670 H684 0.960 . S
C671 C668 1.511 . S
C671 H685 0.961 . S
C671 H686 0.961 . S
C671 H687 0.961 . S
C672 C673 1.370 . S
C672 C674 1.363 . S
C672 H688 0.931 . S
C673 C672 1.370 . S
C673 C677 1.408 . S
C674 C672 1.363 . S
C674 C675 1.370 . S
C674 C678 1.524 . S
C675 C667 1.503 . S
C675 C674 1.370 . S
C675 C676 1.403 . S
C676 C675 1.403 . S
C676 C677 1.404 . S
C676 C679 1.539 . S
C677 C673 1.408 . S
C677 C676 1.404 . S
C677 H689 0.930 . S
C678 C674 1.524 . S
C678 H690 0.956 . S
C678 H691 0.961 . S
C678 H692 0.961 . S
C679 C676 1.539 . S
C679 H693 0.958 . S
C679 H694 0.961 1_455 S
C679 H695 0.960 . S
H680 C664 0.931 . S
H681 C669 0.929 . S
H682 C670 0.960 . S
H683 C670 0.962 . S
H684 C670 0.960 . S
H685 C671 0.961 . S
H686 C671 0.961 . S
H687 C671 0.961 . S
H688 C672 0.931 . S
H689 C677 0.930 . S
H690 C678 0.956 . S
H691 C678 0.961 . S
H692 C678 0.961 . S
H693 C679 0.958 . S
H694 C679 0.961 1_655 S
H695 C679 0.960 . S
C696 C697 1.391 . S
C696 C698 1.394 . S
C696 H712 0.931 . S
C697 C696 1.391 . S
C697 C701 1.376 . S
C698 C696 1.394 . S
C698 C699 1.369 . S
C698 C702 1.531 . S
C699 C698 1.369 . S
C699 C700 1.410 . S
C699 C707 1.503 . S
C700 C699 1.410 . S
C700 C701 1.392 . S
C700 C703 1.511 . S
C701 C697 1.376 . S
C701 C700 1.392 . S
C701 H713 0.929 . S
C702 C698 1.531 . S
C702 H714 0.960 . S
C702 H715 0.962 . S
C702 H716 0.960 . S
C703 C700 1.511 . S
C703 H717 0.961 . S
C703 H718 0.961 . S
C703 H719 0.961 . S
C704 C705 1.370 . S
C704 C706 1.363 . S
C704 H720 0.931 . S
C705 C704 1.370 . S
C705 C709 1.408 . S
C706 C704 1.363 . S
C706 C707 1.370 . S
C706 C710 1.524 . S
C707 C699 1.503 . S
C707 C706 1.370 . S
C707 C708 1.403 . S
C708 C707 1.403 . S
C708 C709 1.404 . S
C708 C711 1.539 . S
C709 C705 1.408 . S
C709 C708 1.404 . S
C709 H721 0.930 . S
C710 C706 1.524 . S
C710 H722 0.956 . S
C710 H723 0.961 . S
C710 H724 0.961 . S
C711 C708 1.539 . S
C711 H725 0.958 1_565 S
C711 H726 0.961 1_565 S
C711 H727 0.960 . S
H712 C696 0.931 . S
H713 C701 0.929 . S
H714 C702 0.960 . S
H715 C702 0.962 . S
H716 C702 0.960 . S
H717 C703 0.961 . S
H718 C703 0.961 . S
H719 C703 0.961 . S
H720 C704 0.931 . S
H721 C709 0.930 . S
H722 C710 0.956 . S
H723 C710 0.961 . S
H724 C710 0.961 . S
H725 C711 0.958 1_545 S
H726 C711 0.961 1_545 S
H727 C711 0.960 . S
C728 C729 1.391 . S
C728 C730 1.394 . S
C728 H744 0.931 . S
C729 C728 1.391 . S
C729 C733 1.376 . S
C730 C728 1.394 . S
C730 C731 1.369 . S
C730 C734 1.531 . S
C731 C730 1.369 . S
C731 C732 1.410 . S
C731 C739 1.503 . S
C732 C731 1.410 . S
C732 C733 1.392 . S
C732 C735 1.511 . S
C733 C729 1.376 . S
C733 C732 1.392 . S
C733 H745 0.929 . S
C734 C730 1.531 . S
C734 H746 0.960 . S
C734 H747 0.962 . S
C734 H748 0.960 . S
C735 C732 1.511 . S
C735 H749 0.961 . S
C735 H750 0.961 . S
C735 H751 0.961 . S
C736 C737 1.370 . S
C736 C738 1.363 . S
C736 H752 0.931 . S
C737 C736 1.370 . S
C737 C741 1.408 . S
C738 C736 1.363 . S
C738 C739 1.370 . S
C738 C742 1.524 . S
C739 C731 1.503 . S
C739 C738 1.370 . S
C739 C740 1.403 . S
C740 C739 1.403 . S
C740 C741 1.404 . S
C740 C743 1.539 . S
C741 C737 1.408 . S
C741 C740 1.404 . S
C741 H753 0.930 . S
C742 C738 1.524 . S
C742 H754 0.956 . S
C742 H755 0.961 . S
C742 H756 0.961 . S
C743 C740 1.539 . S
C743 H757 0.958 . S
C743 H758 0.961 . S
C743 H759 0.960 . S
H744 C728 0.931 . S
H745 C733 0.929 . S
H746 C734 0.960 . S
H747 C734 0.962 . S
H748 C734 0.960 . S
H749 C735 0.961 . S
H750 C735 0.961 . S
H751 C735 0.961 . S
H752 C736 0.931 . S
H753 C741 0.930 . S
H754 C742 0.956 . S
H755 C742 0.961 . S
H756 C742 0.961 . S
H757 C743 0.958 . S
H758 C743 0.961 . S
H759 C743 0.960 . S
C760 C761 1.391 . S
C760 C762 1.394 . S
C760 H776 0.931 . S
C761 C760 1.391 . S
C761 C765 1.376 . S
C762 C760 1.394 . S
C762 C763 1.369 . S
C762 C766 1.531 . S
C763 C762 1.369 . S
C763 C764 1.410 . S
C763 C771 1.503 . S
C764 C763 1.410 . S
C764 C765 1.392 . S
C764 C767 1.511 . S
C765 C761 1.376 . S
C765 C764 1.392 . S
C765 H777 0.929 . S
C766 C762 1.531 . S
C766 H778 0.960 . S
C766 H779 0.962 . S
C766 H780 0.960 . S
C767 C764 1.511 . S
C767 H781 0.961 . S
C767 H782 0.961 . S
C767 H783 0.961 . S
C768 C769 1.370 . S
C768 C770 1.363 . S
C768 H784 0.931 . S
C769 C768 1.370 . S
C769 C773 1.408 . S
C770 C768 1.363 . S
C770 C771 1.370 . S
C770 C774 1.524 . S
C771 C763 1.503 . S
C771 C770 1.370 . S
C771 C772 1.403 . S
C772 C771 1.403 . S
C772 C773 1.404 . S
C772 C775 1.539 . S
C773 C769 1.408 . S
C773 C772 1.404 . S
C773 H785 0.930 . S
C774 C770 1.524 . S
C774 H786 0.956 . S
C774 H787 0.961 . S
C774 H788 0.961 . S
C775 C772 1.539 . S
C775 H789 0.958 . S
C775 H790 0.961 . S
C775 H791 0.960 . S
H776 C760 0.931 . S
H777 C765 0.929 . S
H778 C766 0.960 . S
H779 C766 0.962 . S
H780 C766 0.960 . S
H781 C767 0.961 . S
H782 C767 0.961 . S
H783 C767 0.961 . S
H784 C768 0.931 . S
H785 C773 0.930 . S
H786 C774 0.956 . S
H787 C774 0.961 . S
H788 C774 0.961 . S
H789 C775 0.958 . S
H790 C775 0.961 . S
H791 C775 0.960 . S
C792 C793 1.391 . S
C792 C794 1.394 . S
C792 H808 0.931 . S
C793 C792 1.391 . S
C793 C797 1.376 . S
C794 C792 1.394 . S
C794 C795 1.369 . S
C794 C798 1.531 . S
C795 C794 1.369 . S
C795 C796 1.410 . S
C795 C803 1.503 . S
C796 C795 1.410 . S
C796 C797 1.392 . S
C796 C799 1.511 . S
C797 C793 1.376 . S
C797 C796 1.392 . S
C797 H809 0.929 . S
C798 C794 1.531 . S
C798 H810 0.960 . S
C798 H811 0.962 . S
C798 H812 0.960 . S
C799 C796 1.511 . S
C799 H813 0.961 . S
C799 H814 0.961 . S
C799 H815 0.961 . S
C800 C801 1.370 . S
C800 C802 1.363 . S
C800 H816 0.931 . S
C801 C800 1.370 . S
C801 C805 1.408 . S
C802 C800 1.363 . S
C802 C803 1.370 . S
C802 C806 1.524 . S
C803 C795 1.503 . S
C803 C802 1.370 . S
C803 C804 1.403 . S
C804 C803 1.403 . S
C804 C805 1.404 . S
C804 C807 1.539 . S
C805 C801 1.408 . S
C805 C804 1.404 . S
C805 H817 0.930 . S
C806 C802 1.524 . S
C806 H818 0.956 . S
C806 H819 0.961 . S
C806 H820 0.961 . S
C807 C804 1.539 . S
C807 H821 0.958 . S
C807 H822 0.961 . S
C807 H823 0.960 . S
H808 C792 0.931 . S
H809 C797 0.929 . S
H810 C798 0.960 . S
H811 C798 0.962 . S
H812 C798 0.960 . S
H813 C799 0.961 . S
H814 C799 0.961 . S
H815 C799 0.961 . S
H816 C800 0.931 . S
H817 C805 0.930 . S
H818 C806 0.956 . S
H819 C806 0.961 . S
H820 C806 0.961 . S
H821 C807 0.958 . S
H822 C807 0.961 . S
H823 C807 0.960 . S
C824 C825 1.391 . S
C824 C826 1.394 . S
C824 H840 0.931 . S
C825 C824 1.391 . S
C825 C829 1.376 . S
C826 C824 1.394 . S
C826 C827 1.369 . S
C826 C830 1.531 . S
C827 C826 1.369 . S
C827 C828 1.410 . S
C827 C835 1.503 . S
C828 C827 1.410 . S
C828 C829 1.392 . S
C828 C831 1.511 . S
C829 C825 1.376 . S
C829 C828 1.392 . S
C829 H841 0.929 . S
C830 C826 1.531 . S
C830 H842 0.960 . S
C830 H843 0.962 . S
C830 H844 0.960 . S
C831 C828 1.511 . S
C831 H845 0.961 . S
C831 H846 0.961 . S
C831 H847 0.961 . S
C832 C833 1.370 . S
C832 C834 1.363 . S
C832 H848 0.931 . S
C833 C832 1.370 . S
C833 C837 1.408 . S
C834 C832 1.363 . S
C834 C835 1.370 . S
C834 C838 1.524 . S
C835 C827 1.503 . S
C835 C834 1.370 . S
C835 C836 1.403 . S
C836 C835 1.403 . S
C836 C837 1.404 . S
C836 C839 1.539 . S
C837 C833 1.408 . S
C837 C836 1.404 . S
C837 H849 0.930 . S
C838 C834 1.524 . S
C838 H850 0.956 . S
C838 H851 0.961 . S
C838 H852 0.961 . S
C839 C836 1.539 . S
C839 H853 0.958 . S
C839 H854 0.961 . S
C839 H855 0.960 . S
H840 C824 0.931 . S
H841 C829 0.929 . S
H842 C830 0.960 . S
H843 C830 0.962 . S
H844 C830 0.960 . S
H845 C831 0.961 . S
H846 C831 0.961 . S
H847 C831 0.961 . S
H848 C832 0.931 . S
H849 C837 0.930 . S
H850 C838 0.956 . S
H851 C838 0.961 . S
H852 C838 0.961 . S
H853 C839 0.958 . S
H854 C839 0.961 . S
H855 C839 0.960 . S
C856 C857 1.391 . S
C856 C858 1.394 . S
C856 H872 0.931 . S
C857 C856 1.391 . S
C857 C861 1.376 . S
C858 C856 1.394 . S
C858 C859 1.369 . S
C858 C862 1.531 . S
C859 C858 1.369 . S
C859 C860 1.410 . S
C859 C867 1.503 . S
C860 C859 1.410 . S
C860 C861 1.392 . S
C860 C863 1.511 . S
C861 C857 1.376 . S
C861 C860 1.392 . S
C861 H873 0.929 . S
C862 C858 1.531 . S
C862 H874 0.960 . S
C862 H875 0.962 . S
C862 H876 0.960 . S
C863 C860 1.511 . S
C863 H877 0.961 . S
C863 H878 0.961 . S
C863 H879 0.961 . S
C864 C865 1.370 . S
C864 C866 1.363 . S
C864 H880 0.931 . S
C865 C864 1.370 . S
C865 C869 1.408 . S
C866 C864 1.363 . S
C866 C867 1.370 . S
C866 C870 1.524 . S
C867 C859 1.503 . S
C867 C866 1.370 . S
C867 C868 1.403 . S
C868 C867 1.403 . S
C868 C869 1.404 . S
C868 C871 1.539 . S
C869 C865 1.408 . S
C869 C868 1.404 . S
C869 H881 0.930 . S
C870 C866 1.524 . S
C870 H882 0.956 . S
C870 H883 0.961 . S
C870 H884 0.961 . S
C871 C868 1.539 . S
C871 H885 0.958 . S
C871 H886 0.961 . S
C871 H887 0.960 . S
H872 C856 0.931 . S
H873 C861 0.929 . S
H874 C862 0.960 . S
H875 C862 0.962 . S
H876 C862 0.960 . S
H877 C863 0.961 . S
H878 C863 0.961 . S
H879 C863 0.961 . S
H880 C864 0.931 . S
H881 C869 0.930 . S
H882 C870 0.956 . S
H883 C870 0.961 . S
H884 C870 0.961 . S
H885 C871 0.958 . S
H886 C871 0.961 . S
H887 C871 0.960 . S
C888 C889 1.391 . S
C888 C890 1.394 . S
C888 H904 0.931 . S
C889 C888 1.391 . S
C889 C893 1.376 . S
C890 C888 1.394 . S
C890 C891 1.369 . S
C890 C894 1.531 . S
C891 C890 1.369 . S
C891 C892 1.410 . S
C891 C899 1.503 . S
C892 C891 1.410 . S
C892 C893 1.392 . S
C892 C895 1.511 . S
C893 C889 1.376 . S
C893 C892 1.392 . S
C893 H905 0.929 . S
C894 C890 1.531 . S
C894 H906 0.960 . S
C894 H907 0.962 . S
C894 H908 0.960 . S
C895 C892 1.511 . S
C895 H909 0.961 . S
C895 H910 0.961 . S
C895 H911 0.961 . S
C896 C897 1.370 . S
C896 C898 1.363 . S
C896 H912 0.931 . S
C897 C896 1.370 . S
C897 C901 1.408 . S
C898 C896 1.363 . S
C898 C899 1.370 . S
C898 C902 1.524 . S
C899 C891 1.503 . S
C899 C898 1.370 . S
C899 C900 1.403 . S
C900 C899 1.403 . S
C900 C901 1.404 . S
C900 C903 1.539 . S
C901 C897 1.408 . S
C901 C900 1.404 . S
C901 H913 0.930 . S
C902 C898 1.524 . S
C902 H914 0.956 . S
C902 H915 0.961 . S
C902 H916 0.961 . S
C903 C900 1.539 . S
C903 H917 0.958 . S
C903 H918 0.961 . S
C903 H919 0.960 . S
H904 C888 0.931 . S
H905 C893 0.929 . S
H906 C894 0.960 . S
H907 C894 0.962 . S
H908 C894 0.960 . S
H909 C895 0.961 . S
H910 C895 0.961 . S
H911 C895 0.961 . S
H912 C896 0.931 . S
H913 C901 0.930 . S
H914 C902 0.956 . S
H915 C902 0.961 . S
H916 C902 0.961 . S
H917 C903 0.958 . S
H918 C903 0.961 . S
H919 C903 0.960 . S
C920 C921 1.391 . S
C920 C922 1.394 . S
C920 H936 0.931 . S
C921 C920 1.391 . S
C921 C925 1.376 . S
C922 C920 1.394 . S
C922 C923 1.369 . S
C922 C926 1.531 . S
C923 C922 1.369 . S
C923 C924 1.410 . S
C923 C931 1.503 . S
C924 C923 1.410 . S
C924 C925 1.392 . S
C924 C927 1.511 . S
C925 C921 1.376 . S
C925 C924 1.392 . S
C925 H937 0.929 . S
C926 C922 1.531 . S
C926 H938 0.960 . S
C926 H939 0.962 . S
C926 H940 0.960 . S
C927 C924 1.511 . S
C927 H941 0.961 . S
C927 H942 0.961 . S
C927 H943 0.961 . S
C928 C929 1.370 . S
C928 C930 1.363 . S
C928 H944 0.931 . S
C929 C928 1.370 . S
C929 C933 1.408 . S
C930 C928 1.363 . S
C930 C931 1.370 . S
C930 C934 1.524 . S
C931 C923 1.503 . S
C931 C930 1.370 . S
C931 C932 1.403 . S
C932 C931 1.403 . S
C932 C933 1.404 . S
C932 C935 1.539 . S
C933 C929 1.408 . S
C933 C932 1.404 . S
C933 H945 0.930 . S
C934 C930 1.524 . S
C934 H946 0.956 . S
C934 H947 0.961 . S
C934 H948 0.961 . S
C935 C932 1.539 . S
C935 H949 0.958 . S
C935 H950 0.961 . S
C935 H951 0.960 . S
H936 C920 0.931 . S
H937 C925 0.929 . S
H938 C926 0.960 . S
H939 C926 0.962 . S
H940 C926 0.960 . S
H941 C927 0.961 . S
H942 C927 0.961 . S
H943 C927 0.961 . S
H944 C928 0.931 . S
H945 C933 0.930 . S
H946 C934 0.956 . S
H947 C934 0.961 . S
H948 C934 0.961 . S
H949 C935 0.958 . S
H950 C935 0.961 . S
H951 C935 0.960 . S
C185 N1 1.429 . S
C193 C123 1.407 . S
C217 N18 1.539 . S
C225 C126 1.517 . S
C257 C162 1.343 . S
C249 N28 1.360 . S
C281 N40 1.781 . S
C289 C182 1.824 . S
C321 C136 1.989 . S
C313 N5 1.964 . S
C353 C113 1.589 . S
C345 N14 1.542 . S
C385 C166 1.575 . S
C377 N31 1.643 . S
C417 C146 1.113 . S
C409 N41 1.126 . S
C441 N2 1.270 . S
C449 C176 1.211 . S
C481 C142 1.736 1_556 S
C473 N27 1.748 . S
C505 N44 1.690 . S
C513 C108 1.701 . S
C537 N15 1.169 . S
C545 C156 1.168 . S
C577 C122 1.775 1_655 S
C569 N57 1.809 . S
C601 N70 1.111 . S
C609 C128 1.126 . S
C633 N79 1.603 . S
C641 C163 1.607 . S
C665 N93 1.616 . S
C673 C183 1.581 . S
C697 N54 1.579 . S
C705 C133 1.528 . S
C737 C116 1.977 . S
C729 N66 1.968 . S
C769 C168 1.094 . S
C761 N80 1.217 . S
C801 C148 1.357 . S
C793 N96 1.434 . S
C825 N53 1.328 . S
C833 C173 1.288 . S
C865 C143 1.554 . S
C857 N83 1.535 . S
C897 C106 1.796 . S
C889 N92 1.819 . S
C921 N67 1.229 . S
C929 C153 1.198 . S
