# Generated by pormake.
# Topology dag, (6,3)-cn, num edge types: 1
# Building blocks:
#     Node 0, Type 0, BuildingBlock: OJICUG_clean_sbu_0, # of connection points: 6
#     Node 1, Type 0, BuildingBlock: OJICUG_clean_sbu_0, # of connection points: 6
#     Node 2, Type 0, BuildingBlock: OJICUG_clean_sbu_0, # of connection points: 6
#     Node 3, Type 0, BuildingBlock: OJICUG_clean_sbu_0, # of connection points: 6
#     Node 4, Type 1, BuildingBlock: BETDAH_clean_linker_0, # of connection points: 3
#     Node 5, Type 1, BuildingBlock: BETDAH_clean_linker_0, # of connection points: 3
#     Node 6, Type 1, BuildingBlock: BETDAH_clean_linker_0, # of connection points: 3
#     Node 7, Type 1, BuildingBlock: BETDAH_clean_linker_0, # of connection points: 3
#     Node 8, Type 1, BuildingBlock: BETDAH_clean_linker_0, # of connection points: 3
#     Node 9, Type 1, BuildingBlock: BETDAH_clean_linker_0, # of connection points: 3
#     Node 10, Type 1, BuildingBlock: BETDAH_clean_linker_0, # of connection points: 3
#     Node 11, Type 1, BuildingBlock: BETDAH_clean_linker_0, # of connection points: 3
#     Edge 12, Type (0, 1), BuildingBlock: TEMPAE_clean_linker_10, # of connection points: 2
#     Edge 13, Type (0, 1), BuildingBlock: TEMPAE_clean_linker_10, # of connection points: 2
#     Edge 14, Type (0, 1), BuildingBlock: TEMPAE_clean_linker_10, # of connection points: 2
#     Edge 15, Type (0, 1), BuildingBlock: TEMPAE_clean_linker_10, # of connection points: 2
#     Edge 16, Type (0, 1), BuildingBlock: TEMPAE_clean_linker_10, # of connection points: 2
#     Edge 17, Type (0, 1), BuildingBlock: TEMPAE_clean_linker_10, # of connection points: 2
#     Edge 18, Type (0, 1), BuildingBlock: TEMPAE_clean_linker_10, # of connection points: 2
#     Edge 19, Type (0, 1), BuildingBlock: TEMPAE_clean_linker_10, # of connection points: 2
#     Edge 20, Type (0, 1), BuildingBlock: TEMPAE_clean_linker_10, # of connection points: 2
#     Edge 21, Type (0, 1), BuildingBlock: TEMPAE_clean_linker_10, # of connection points: 2
#     Edge 22, Type (0, 1), BuildingBlock: TEMPAE_clean_linker_10, # of connection points: 2
#     Edge 23, Type (0, 1), BuildingBlock: TEMPAE_clean_linker_10, # of connection points: 2
#     Edge 24, Type (0, 1), BuildingBlock: TEMPAE_clean_linker_10, # of connection points: 2
#     Edge 25, Type (0, 1), BuildingBlock: TEMPAE_clean_linker_10, # of connection points: 2
#     Edge 26, Type (0, 1), BuildingBlock: TEMPAE_clean_linker_10, # of connection points: 2
#     Edge 27, Type (0, 1), BuildingBlock: TEMPAE_clean_linker_10, # of connection points: 2
#     Edge 28, Type (0, 1), BuildingBlock: TEMPAE_clean_linker_10, # of connection points: 2
#     Edge 29, Type (0, 1), BuildingBlock: TEMPAE_clean_linker_10, # of connection points: 2
#     Edge 30, Type (0, 1), BuildingBlock: TEMPAE_clean_linker_10, # of connection points: 2
#     Edge 31, Type (0, 1), BuildingBlock: TEMPAE_clean_linker_10, # of connection points: 2
#     Edge 32, Type (0, 1), BuildingBlock: TEMPAE_clean_linker_10, # of connection points: 2
#     Edge 33, Type (0, 1), BuildingBlock: TEMPAE_clean_linker_10, # of connection points: 2
#     Edge 34, Type (0, 1), BuildingBlock: TEMPAE_clean_linker_10, # of connection points: 2
#     Edge 35, Type (0, 1), BuildingBlock: TEMPAE_clean_linker_10, # of connection points: 2
# Relax obj value: 0.096
# Max RMSD: 0.111
# Mean RMSD: 0.094
data_MOF--net-dag--node1-OJICUG_clean_sbu_0--node2-BETDAH_clean_linker_0--edge1-TEMPAE_clean_linker_10
_symmetry_space_group_name_H-M    P1
_symmetry_Int_Tables_number       1
_symmetry_cell_setting            triclinic
loop_
_symmetry_equiv_pos_as_xyz
'x, y, z'
_cell_length_a     36.873767
_cell_length_b     39.509283
_cell_length_c     39.277134
_cell_angle_alpha  94.048763
_cell_angle_beta   90.041904
_cell_angle_gamma 90.045632
loop_
_atom_site_label
_atom_site_type_symbol
_atom_site_fract_x
_atom_site_fract_y
_atom_site_fract_z
_atom_type_partial_charge
Sc0 Sc 0.10726 0.87922 0.05416 0.0
Sc1 Sc 0.11846 0.79093 0.05617 0.0
Sc2 Sc 0.18985 0.84704 0.08248 0.0
O3 O 0.13853 0.83903 0.06428 0.0
C4 C 0.18485 0.90382 0.02928 0.0
C5 C 0.08734 0.82686 0.99152 0.0
C6 C 0.19991 0.78274 0.02889 0.0
C7 C 0.0491 0.83039 0.08637 0.0
C8 C 0.14604 0.90658 0.12358 0.0
C9 C 0.16292 0.78644 0.12566 0.0
O10 O 0.15041 0.90461 0.02949 0.0
O11 O 0.09523 0.80054 0.00697 0.0
O12 O 0.21188 0.80849 0.04676 0.0
O13 O 0.05996 0.85895 0.07734 0.0
O14 O 0.17331 0.88691 0.1199 0.0
O15 O 0.13873 0.77573 0.10443 0.0
O16 O 0.11999 0.90601 0.10228 0.0
O17 O 0.06769 0.80336 0.08166 0.0
O18 O 0.18305 0.81173 0.12089 0.0
O19 O 0.09143 0.85677 0.00511 0.0
O20 O 0.20304 0.88392 0.04669 0.0
O21 O 0.16692 0.77332 0.02965 0.0
Sc22 Sc 0.68396 0.64939 0.45353 0.0
Sc23 Sc 0.61337 0.7079 0.4758 0.0
Sc24 Sc 0.59779 0.62 0.47515 0.0
O25 O 0.63174 0.65916 0.46816 0.0
C26 C 0.641 0.59095 0.4093 0.0
C27 C 0.66117 0.70981 0.40799 0.0
C28 C 0.54394 0.67126 0.44114 0.0
C29 C 0.69375 0.7142 0.50658 0.0
C30 C 0.67179 0.59318 0.5062 0.0
C31 C 0.57748 0.67235 0.53808 0.0
O32 O 0.66907 0.60912 0.41559 0.0
O33 O 0.6363 0.72149 0.42802 0.0
O34 O 0.55376 0.64194 0.44872 0.0
O35 O 0.70555 0.6878 0.48977 0.0
O36 O 0.6376 0.59284 0.50219 0.0
O37 O 0.58842 0.6987 0.52421 0.0
O38 O 0.69258 0.61316 0.49136 0.0
O39 O 0.66128 0.72452 0.50398 0.0
O40 O 0.57942 0.6427 0.52332 0.0
O41 O 0.68049 0.68429 0.41414 0.0
O42 O 0.61283 0.59319 0.42794 0.0
O43 O 0.56254 0.69777 0.44913 0.0
Sc44 Sc 0.88505 0.213 0.98045 0.0
Sc45 Sc 0.81616 0.15369 0.95541 0.0
Sc46 Sc 0.90251 0.12525 0.97771 0.0
O47 O 0.86791 0.16403 0.97117 0.0
C48 C 0.95627 0.1788 0.94698 0.0
C49 C 0.83884 0.21547 0.9117 0.0
C50 C 0.86082 0.09692 0.9106 0.0
C51 C 0.804 0.21713 0.00948 0.0
C52 C 0.92049 0.17648 0.04234 0.0
C53 C 0.82838 0.09657 0.00693 0.0
O54 O 0.93665 0.20457 0.95508 0.0
O55 O 0.81983 0.18948 0.91694 0.0
O56 O 0.88885 0.09924 0.9295 0.0
O57 O 0.8363 0.22815 0.00783 0.0
O58 O 0.91953 0.14714 0.02676 0.0
O59 O 0.80757 0.11669 0.99233 0.0
O60 O 0.90908 0.20299 0.02907 0.0
O61 O 0.7931 0.19087 0.99187 0.0
O62 O 0.86261 0.09657 0.00325 0.0
O63 O 0.86307 0.22724 0.93247 0.0
O64 O 0.94689 0.14889 0.9531 0.0
O65 O 0.8324 0.11447 0.91706 0.0
Sc66 Sc 0.39487 0.37294 0.56313 0.0
Sc67 Sc 0.31047 0.34257 0.58839 0.0
Sc68 Sc 0.38164 0.28504 0.56551 0.0
O69 O 0.36231 0.33343 0.57238 0.0
C70 C 0.41392 0.32028 0.50081 0.0
C71 C 0.31871 0.39891 0.5358 0.0
C72 C 0.30086 0.27711 0.53621 0.0
C73 C 0.35498 0.40144 0.63077 0.0
C74 C 0.45182 0.32302 0.59543 0.0
C75 C 0.33509 0.28312 0.63415 0.0
O76 O 0.40951 0.3504 0.51383 0.0
O77 O 0.29917 0.37765 0.55018 0.0
O78 O 0.33377 0.26766 0.5377 0.0
O79 O 0.38282 0.39883 0.61165 0.0
O80 O 0.4322 0.29651 0.59209 0.0
O81 O 0.3158 0.30871 0.62835 0.0
O82 O 0.44174 0.35137 0.58544 0.0
O83 O 0.32643 0.38375 0.62492 0.0
O84 O 0.35939 0.27125 0.6136 0.0
O85 O 0.35289 0.40042 0.53934 0.0
O86 O 0.40637 0.29414 0.51677 0.0
O87 O 0.28874 0.30306 0.55358 0.0
H88 H 0.09376 0.12152 0.21462 0.0
H89 H 0.1332 0.12189 0.31771 0.0
H90 H 0.0556 0.1968 0.29033 0.0
C91 C 0.09499 0.13333 0.24039 0.0
C92 C 0.07299 0.16148 0.24917 0.0
C93 C 0.11655 0.11868 0.26484 0.0
C94 C 0.11692 0.13322 0.29855 0.0
C95 C 0.09518 0.16178 0.30761 0.0
C96 C 0.07274 0.17522 0.28306 0.0
N97 N 0.09413 0.17674 0.34146 0.0
C98 C 0.12416 0.17926 0.36286 0.0
H99 H 0.40716 0.61838 0.71426 0.0
H100 H 0.44683 0.69536 0.78756 0.0
H101 H 0.36977 0.62136 0.81813 0.0
C102 C 0.40644 0.63077 0.73979 0.0
C103 C 0.38533 0.61676 0.765 0.0
C104 C 0.42856 0.65913 0.7475 0.0
C105 C 0.42959 0.67361 0.7811 0.0
C106 C 0.40773 0.66075 0.80639 0.0
C107 C 0.38571 0.63211 0.79839 0.0
N108 N 0.40947 0.67646 0.83989 0.0
C109 C 0.37956 0.68014 0.86127 0.0
H110 H 0.81383 0.90105 0.13665 0.0
H111 H 0.76342 0.80835 0.16302 0.0
H112 H 0.69792 0.89057 0.13093 0.0
C113 C 0.7895 0.88644 0.14086 0.0
C114 C 0.75554 0.89997 0.13341 0.0
C115 C 0.79262 0.85326 0.15091 0.0
C116 C 0.76117 0.83407 0.15533 0.0
C117 C 0.72683 0.84789 0.1488 0.0
C118 C 0.72428 0.88034 0.13681 0.0
N119 N 0.69458 0.82959 0.1542 0.0
C120 C 0.69072 0.811 0.1826 0.0
H121 H 0.68676 0.39678 0.6378 0.0
H122 H 0.73972 0.30551 0.6647 0.0
H123 H 0.80263 0.38787 0.62917 0.0
C124 C 0.71146 0.38258 0.64153 0.0
C125 C 0.74494 0.39645 0.63291 0.0
C126 C 0.70926 0.3496 0.65237 0.0
C127 C 0.74121 0.33101 0.65627 0.0
C128 C 0.77505 0.34516 0.6485 0.0
C129 C 0.77663 0.37735 0.63582 0.0
N130 N 0.80779 0.32762 0.65375 0.0
C131 C 0.81292 0.3108 0.68315 0.0
H132 H 0.59004 0.37354 0.32877 0.0
H133 H 0.6334 0.36643 0.22691 0.0
H134 H 0.55549 0.29292 0.25701 0.0
C135 C 0.59228 0.36006 0.30383 0.0
C136 C 0.5709 0.33115 0.29633 0.0
C137 C 0.61479 0.37309 0.27908 0.0
C138 C 0.61639 0.35638 0.2463 0.0
C139 C 0.59511 0.32719 0.23847 0.0
C140 C 0.57203 0.31517 0.26333 0.0
N141 N 0.59527 0.30989 0.2056 0.0
C142 C 0.62507 0.30838 0.18394 0.0
H143 H 0.20143 0.12603 0.95415 0.0
H144 H 0.24746 0.20453 0.89715 0.0
H145 H 0.31493 0.12387 0.92979 0.0
C146 C 0.2249 0.13774 0.94315 0.0
C147 C 0.25861 0.12157 0.94412 0.0
C148 C 0.22055 0.16774 0.92651 0.0
C149 C 0.25057 0.1815 0.91029 0.0
C150 C 0.28485 0.16587 0.91205 0.0
C151 C 0.28867 0.13614 0.92909 0.0
N152 N 0.31598 0.17928 0.89678 0.0
C153 C 0.31457 0.19461 0.86616 0.0
H154 H 0.30319 0.59713 0.41843 0.0
H155 H 0.25518 0.68441 0.37677 0.0
H156 H 0.18808 0.60056 0.40268 0.0
C157 C 0.27948 0.61029 0.40968 0.0
C158 C 0.24543 0.59483 0.41107 0.0
C159 C 0.28321 0.64284 0.39806 0.0
C160 C 0.25252 0.65933 0.38602 0.0
C161 C 0.21804 0.64399 0.3878 0.0
C162 C 0.21461 0.61219 0.40111 0.0
N163 N 0.18629 0.66017 0.37689 0.0
C164 C 0.18588 0.67869 0.34824 0.0
H165 H 0.90945 0.88176 0.82227 0.0
H166 H 0.94201 0.8019 0.74889 0.0
H167 H 0.86422 0.87649 0.72107 0.0
C168 C 0.90666 0.86864 0.79719 0.0
C169 C 0.8839 0.88224 0.77299 0.0
C170 C 0.92764 0.83968 0.78895 0.0
C171 C 0.92572 0.82415 0.75578 0.0
C172 C 0.90219 0.83663 0.73151 0.0
C173 C 0.88141 0.86597 0.74005 0.0
N174 N 0.90135 0.81988 0.69839 0.0
C175 C 0.87061 0.81708 0.67787 0.0
C176 C 0.11585 0.95524 0.15641 0.0
C177 C 0.14556 0.93314 0.15236 0.0
C178 C 0.1165 0.98321 0.18038 0.0
C179 C 0.14753 0.98926 0.20122 0.0
C180 C 0.17677 0.96603 0.19879 0.0
C181 C 0.17553 0.93829 0.17426 0.0
C182 C 0.08458 0.00726 0.18216 0.0
C183 C 0.21006 0.9713 0.22089 0.0
C184 C 0.1549 0.08313 0.22434 0.0
C185 C 0.13501 0.0862 0.2548 0.0
C186 C 0.16251 0.05119 0.20815 0.0
C187 C 0.15003 0.02165 0.22291 0.0
C188 C 0.1338 0.02454 0.25568 0.0
C189 C 0.12636 0.05693 0.27128 0.0
C190 C 0.18025 0.04937 0.17343 0.0
C191 C 0.12089 0.99366 0.27266 0.0
H192 H 0.09237 0.95143 0.13997 0.0
H193 H 0.19858 0.92131 0.17157 0.0
H194 H 0.07446 0.01095 0.20875 0.0
H195 H 0.09322 0.03245 0.17423 0.0
H196 H 0.0618 0.99799 0.16546 0.0
H197 H 0.22709 0.94809 0.22054 0.0
H198 H 0.22667 0.9921 0.21146 0.0
H199 H 0.20242 0.97888 0.24767 0.0
H200 H 0.16189 0.10583 0.21178 0.0
H201 H 0.11094 0.05923 0.29482 0.0
H202 H 0.15947 0.04295 0.15354 0.0
H203 H 0.20115 0.02917 0.17141 0.0
H204 H 0.19309 0.07383 0.1679 0.0
H205 H 0.09489 0.98477 0.2609 0.0
H206 H 0.11632 -0.00066 0.30043 0.0
H207 H 0.14071 0.9726 0.26901 0.0
C208 C 0.55111 0.64686 0.58896 0.0
C209 C 0.56038 0.67598 0.57237 0.0
C210 C 0.53201 0.64919 0.61982 0.0
C211 C 0.52193 0.68147 0.6347 0.0
C212 C 0.5326 0.7111 0.61905 0.0
C213 C 0.5517 0.70802 0.58799 0.0
C214 C 0.52129 0.61691 0.63573 0.0
C215 C 0.52261 0.74595 0.63438 0.0
C216 C 0.4372 0.67523 0.68777 0.0
C217 C 0.45176 0.67188 0.72033 0.0
C218 C 0.45965 0.68095 0.66 0.0
C219 C 0.49761 0.68347 0.66496 0.0
C220 C 0.51218 0.68287 0.6983 0.0
C221 C 0.48902 0.67702 0.72568 0.0
C222 C 0.44294 0.68161 0.62493 0.0
C223 C 0.55245 0.68583 0.70466 0.0
H224 H 0.55803 0.62196 0.57745 0.0
H225 H 0.55888 0.73069 0.57551 0.0
H226 H 0.53027 0.61781 0.66274 0.0
H227 H 0.49132 0.61435 0.63555 0.0
H228 H 0.53306 0.59395 0.62199 0.0
H229 H 0.53684 0.76638 0.62163 0.0
H230 H 0.49296 0.74981 0.63189 0.0
H231 H 0.52919 0.74837 0.66201 0.0
H232 H 0.40829 0.67185 0.68372 0.0
H233 H 0.50038 0.67441 0.75082 0.0
H234 H 0.45039 0.65808 0.6094 0.0
H235 H 0.45353 0.70337 0.61159 0.0
H236 H 0.41289 0.68335 0.62599 0.0
H237 H 0.56587 0.66176 0.69549 0.0
H238 H 0.55874 0.69089 0.73222 0.0
H239 H 0.56431 0.70638 0.69036 0.0
C240 C 0.83177 0.04127 0.03335 0.0
C241 C 0.81225 0.07083 0.02791 0.0
C242 C 0.8169 0.01584 0.05207 0.0
C243 C 0.78181 0.02029 0.06629 0.0
C244 C 0.76206 0.05026 0.06138 0.0
C245 C 0.7774 0.07512 0.0419 0.0
C246 C 0.83872 0.98402 0.05635 0.0
C247 C 0.7249 0.05605 0.07678 0.0
C248 C 0.74117 0.9362 0.08601 0.0
C249 C 0.75388 0.93351 0.11927 0.0
C250 C 0.74745 0.96573 0.06907 0.0
C251 C 0.7664 0.99314 0.08617 0.0
C252 C 0.77608 0.99164 0.12091 0.0
C253 C 0.77008 0.96158 0.13697 0.0
C254 C 0.73703 0.96619 0.03193 0.0
C255 C 0.79563 0.02057 0.14024 0.0
H256 H 0.85856 0.03762 0.02235 0.0
H257 H 0.76229 0.09803 0.03791 0.0
H258 H 0.8439 0.98117 0.08382 0.0
H259 H 0.8232 0.96138 0.04632 0.0
H260 H 0.86521 0.98423 0.04291 0.0
H261 H 0.71342 0.08105 0.07118 0.0
H262 H 0.70606 0.03581 0.0668 0.0
H263 H 0.72629 0.05466 0.10486 0.0
H264 H 0.72886 0.9143 0.07235 0.0
H265 H 0.77971 0.95936 0.16281 0.0
H266 H 0.76177 0.96297 0.01595 0.0
H267 H 0.72465 0.99085 0.02665 0.0
H268 H 0.71773 0.9455 0.02402 0.0
H269 H 0.82434 0.02098 0.13185 0.0
H270 H 0.79515 0.01804 0.16823 0.0
H271 H 0.78336 0.04527 0.13488 0.0
C272 C 0.49898 0.29663 0.63184 0.0
C273 C 0.48913 0.32091 0.60913 0.0
C274 C 0.53468 0.29531 0.64457 0.0
C275 C 0.56107 0.31827 0.63362 0.0
C276 C 0.55124 0.3424 0.61027 0.0
C277 C 0.51545 0.34361 0.59866 0.0
C278 C 0.54405 0.26976 0.66997 0.0
C279 C 0.57857 0.36702 0.59735 0.0
C280 C 0.64692 0.34999 0.67678 0.0
C281 C 0.67306 0.33404 0.65538 0.0
C282 C 0.61004 0.34185 0.67282 0.0
C283 C 0.59917 0.31793 0.64619 0.0
C284 C 0.62587 0.2994 0.6268 0.0
C285 C 0.66265 0.30756 0.63183 0.0
C286 C 0.58257 0.36156 0.69467 0.0
C287 C 0.6156 0.27395 0.59794 0.0
H288 H 0.4787 0.2791 0.64007 0.0
H289 H 0.50821 0.36214 0.58073 0.0
H290 H 0.56689 0.25355 0.66031 0.0
H291 H 0.55315 0.28317 0.69426 0.0
H292 H 0.52067 0.25323 0.67537 0.0
H293 H 0.56676 0.38327 0.57821 0.0
H294 H 0.58923 0.38375 0.61894 0.0
H295 H 0.60191 0.35297 0.58548 0.0
H296 H 0.6551 0.37044 0.69506 0.0
H297 H 0.68293 0.29543 0.61512 0.0
H298 H 0.55987 0.34496 0.70164 0.0
H299 H 0.57104 0.38208 0.68009 0.0
H300 H 0.59503 0.37336 0.7184 0.0
H301 H 0.59254 0.25795 0.60522 0.0
H302 H 0.63874 0.25723 0.58999 0.0
H303 H 0.60692 0.28769 0.57563 0.0
C304 C 0.61153 0.54259 0.37536 0.0
C305 C 0.64182 0.5638 0.38105 0.0
C306 C 0.6131 0.51362 0.35273 0.0
C307 C 0.64563 0.50572 0.33474 0.0
C308 C 0.67549 0.52826 0.33837 0.0
C309 C 0.67335 0.55695 0.3617 0.0
C310 C 0.58049 0.49036 0.34971 0.0
C311 C 0.71032 0.52124 0.31903 0.0
C312 C 0.65152 0.41084 0.31915 0.0
C313 C 0.6335 0.40583 0.28777 0.0
C314 C 0.65918 0.44359 0.33336 0.0
C315 C 0.6489 0.47199 0.31552 0.0
C316 C 0.63497 0.46689 0.28191 0.0
C317 C 0.6272 0.43373 0.26842 0.0
C318 C 0.67438 0.44771 0.36913 0.0
C319 C 0.62484 0.49646 0.26157 0.0
H320 H 0.58683 0.54773 0.38974 0.0
H321 H 0.69684 0.57328 0.36559 0.0
H322 H 0.57257 0.48551 0.32256 0.0
H323 H 0.58741 0.46554 0.35961 0.0
H324 H 0.55672 0.50102 0.36413 0.0
H325 H 0.72723 0.54446 0.31824 0.0
H326 H 0.72623 0.50194 0.33177 0.0
H327 H 0.70479 0.51099 0.2925 0.0
H328 H 0.65691 0.38918 0.33389 0.0
H329 H 0.61339 0.42996 0.24407 0.0
H330 H 0.65254 0.45646 0.38709 0.0
H331 H 0.69612 0.46714 0.37088 0.0
H332 H 0.6855 0.42353 0.37755 0.0
H333 H 0.59824 0.50672 0.27052 0.0
H334 H 0.62256 0.48874 0.2339 0.0
H335 H 0.6451 0.51718 0.26521 0.0
C336 C 0.00873 0.21639 0.93332 0.0
C337 C 0.99343 0.18381 0.93351 0.0
C338 C 0.04594 0.22071 0.92698 0.0
C339 C 0.06832 0.1918 0.92102 0.0
C340 C 0.05245 0.15906 0.91841 0.0
C341 C 0.01526 0.15551 0.9245 0.0
C342 C 0.06164 0.25607 0.92908 0.0
C343 C 0.07522 0.12748 0.91193 0.0
C344 C 0.16719 0.18847 0.89423 0.0
C345 C 0.18383 0.18291 0.92544 0.0
C346 C 0.12964 0.19457 0.89254 0.0
C347 C 0.10856 0.19477 0.92272 0.0
C348 C 0.12599 0.19235 0.9546 0.0
C349 C 0.16341 0.18661 0.95554 0.0
C350 C 0.11224 0.198 0.8582 0.0
C351 C 0.10473 0.19263 0.98749 0.0
H352 H 0.99212 0.23851 0.93987 0.0
H353 H 0.00372 0.13023 0.92396 0.0
H354 H 0.07482 0.26135 0.95429 0.0
H355 H 0.08263 0.25859 0.90919 0.0
H356 H 0.04036 0.27555 0.92619 0.0
H357 H 0.05838 0.10424 0.90757 0.0
H358 H 0.09292 0.12975 0.8894 0.0
H359 H 0.09308 0.12434 0.93425 0.0
H360 H 0.18295 0.18568 0.87091 0.0
H361 H 0.17643 0.18281 0.97974 0.0
H362 H 0.09035 0.2173 0.85997 0.0
H363 H 0.09984 0.17341 0.8491 0.0
H364 H 0.1324 0.20508 0.83892 0.0
H365 H 0.08583 0.21449 0.98967 0.0
H366 H 0.12265 0.19397 0.0103 0.0
H367 H 0.08819 0.16915 0.9876 0.0
C368 C 0.26759 0.41837 0.49969 0.0
C369 C 0.30121 0.42452 0.51567 0.0
C370 C 0.25145 0.44301 0.48041 0.0
C371 C 0.26913 0.47455 0.47781 0.0
C372 C 0.3027 0.48102 0.49454 0.0
C373 C 0.31843 0.45584 0.51295 0.0
C374 C 0.21598 0.43512 0.46237 0.0
C375 C 0.32223 0.51454 0.49288 0.0
C376 C 0.26149 0.5338 0.40747 0.0
C377 C 0.24285 0.56094 0.42419 0.0
C378 C 0.26677 0.50354 0.42333 0.0
C379 C 0.25376 0.50092 0.45694 0.0
C380 C 0.23215 0.52724 0.47266 0.0
C381 C 0.22678 0.55705 0.45591 0.0
C382 C 0.28939 0.47586 0.40545 0.0
C383 C 0.218 0.52551 0.50853 0.0
H384 H 0.25427 0.39413 0.50172 0.0
H385 H 0.34416 0.46092 0.52568 0.0
H386 H 0.19564 0.45499 0.46968 0.0
H387 H 0.21994 0.43519 0.43438 0.0
H388 H 0.20488 0.41005 0.46826 0.0
H389 H 0.34728 0.51597 0.50864 0.0
H390 H 0.32976 0.51842 0.46609 0.0
H391 H 0.30413 0.53575 0.50183 0.0
H392 H 0.27373 0.537 0.3828 0.0
H393 H 0.2125 0.57827 0.46874 0.0
H394 H 0.27788 0.45049 0.40939 0.0
H395 H 0.3172 0.47673 0.4163 0.0
H396 H 0.29141 0.47886 0.3776 0.0
H397 H 0.2071 0.49992 0.51249 0.0
H398 H 0.19642 0.54462 0.51453 0.0
H399 H 0.24061 0.53047 0.52688 0.0
C400 C 0.05925 0.79103 0.94277 0.0
C401 C 0.07013 0.82298 0.95721 0.0
C402 C 0.0388 0.78801 0.91242 0.0
C403 C 0.02887 0.81761 0.89634 0.0
C404 C 0.04149 0.84967 0.90977 0.0
C405 C 0.06201 0.85193 0.93985 0.0
C406 C 0.02634 0.75334 0.89856 0.0
C407 C 0.03159 0.88192 0.89342 0.0
C408 C 0.98917 0.82072 0.80739 0.0
C409 C 0.9526 0.8273 0.81505 0.0
C410 C 0.0142 0.81497 0.83341 0.0
C411 C 0.00226 0.81601 0.86775 0.0
C412 C 0.9649 0.82016 0.87518 0.0
C413 C 0.94055 0.82563 0.84874 0.0
C414 C 0.05371 0.81016 0.82439 0.0
C415 C 0.95092 0.82132 0.91139 0.0
H416 H 0.06554 0.76845 0.95576 0.0
H417 H 0.0706 0.87673 0.95042 0.0
H418 H 0.99686 0.75063 0.9033 0.0
H419 H 0.03056 0.75014 0.87055 0.0
H420 H 0.0408 0.73269 0.91074 0.0
H421 H 0.04566 0.90452 0.90561 0.0
H422 H 0.03851 0.87971 0.86588 0.0
H423 H 0.0019 0.88616 0.89547 0.0
H424 H 0.99864 0.82201 0.78139 0.0
H425 H 0.91215 0.83009 0.85464 0.0
H426 H 0.06579 0.78965 0.83861 0.0
H427 H 0.06879 0.83386 0.83178 0.0
H428 H 0.05764 0.80397 0.79661 0.0
H429 H 0.96117 0.79932 0.92457 0.0
H430 H 0.92082 0.82131 0.91249 0.0
H431 H 0.96098 0.84467 0.92574 0.0
C432 C 0.82952 0.06494 0.86104 0.0
C433 C 0.86038 0.07038 0.88175 0.0
C434 C 0.82738 0.03697 0.83683 0.0
C435 C 0.85656 0.01369 0.83361 0.0
C436 C 0.88848 0.0201 0.8531 0.0
C437 C 0.89007 0.04838 0.87668 0.0
C438 C 0.79322 0.03148 0.816 0.0
C439 C 0.92033 0.99599 0.85054 0.0
C440 C 0.84744 0.91942 0.8136 0.0
C441 C 0.86604 0.91516 0.78249 0.0
C442 C 0.84085 0.95185 0.82912 0.0
C443 C 0.85297 0.98073 0.81296 0.0
C444 C 0.86778 0.97663 0.77964 0.0
C445 C 0.8743 0.94375 0.76477 0.0
C446 C 0.82466 0.95492 0.8645 0.0
C447 C 0.88009 0.00677 0.76113 0.0
H448 H 0.8065 0.08189 0.86444 0.0
H449 H 0.91421 0.05237 0.89221 0.0
H450 H 0.7997 0.02292 0.78918 0.0
H451 H 0.77668 0.01133 0.82675 0.0
H452 H 0.77654 0.0549 0.81618 0.0
H453 H 0.94385 0.00557 0.86609 0.0
H454 H 0.91211 0.97105 0.85941 0.0
H455 H 0.9292 0.99168 0.82361 0.0
H456 H 0.84078 0.89725 0.82716 0.0
H457 H 0.88873 0.94053 0.74071 0.0
H458 H 0.80377 0.97513 0.86659 0.0
H459 H 0.84626 0.96204 0.88337 0.0
H460 H 0.81217 0.93075 0.87144 0.0
H461 H 0.86064 0.02811 0.765 0.0
H462 H 0.88323 0.00021 0.73331 0.0
H463 H 0.90671 0.01568 0.77146 0.0
C464 C 0.44208 0.28393 0.45257 0.0
C465 C 0.43095 0.31598 0.4665 0.0
C466 C 0.46219 0.28059 0.42209 0.0
C467 C 0.47154 0.30996 0.40535 0.0
C468 C 0.4587 0.34207 0.41829 0.0
C469 C 0.4385 0.34465 0.44853 0.0
C470 C 0.47491 0.24586 0.40874 0.0
C471 C 0.46797 0.37409 0.40123 0.0
C472 C 0.55901 0.31819 0.35662 0.0
C473 C 0.54643 0.31918 0.32301 0.0
C474 C 0.53514 0.31287 0.38345 0.0
C475 C 0.49773 0.30815 0.37648 0.0
C476 C 0.48529 0.30642 0.34227 0.0
C477 C 0.50982 0.31206 0.31587 0.0
C478 C 0.54963 0.3148 0.41952 0.0
C479 C 0.44571 0.30095 0.33377 0.0
H480 H 0.4362 0.26156 0.46605 0.0
H481 H 0.42971 0.36952 0.45869 0.0
H482 H 0.4704 0.2421 0.3808 0.0
H483 H 0.50447 0.24357 0.41329 0.0
H484 H 0.46085 0.2253 0.42143 0.0
H485 H 0.45384 0.39673 0.41319 0.0
H486 H 0.49765 0.37866 0.40284 0.0
H487 H 0.46064 0.37132 0.37378 0.0
H488 H 0.58745 0.32299 0.36214 0.0
H489 H 0.49993 0.31281 0.28994 0.0
H490 H 0.53989 0.29293 0.43319 0.0
H491 H 0.53946 0.33823 0.43361 0.0
H492 H 0.57975 0.31519 0.4203 0.0
H493 H 0.43415 0.28053 0.34847 0.0
H494 H 0.44145 0.29426 0.30611 0.0
H495 H 0.4304 0.32453 0.34096 0.0
C496 C 0.24042 0.93825 0.01925 0.0
C497 C 0.20428 0.92987 0.01103 0.0
C498 C 0.25676 0.96716 0.00712 0.0
C499 C 0.23648 0.98794 0.98625 0.0
C500 C 0.20109 0.97806 0.97566 0.0
C501 C 0.18541 0.94916 0.9882 0.0
C502 C 0.29469 0.97672 0.01865 0.0
C503 C 0.17873 -0.0007 0.95297 0.0
C504 C 0.24545 0.08317 0.99011 0.0
C505 C 0.26089 0.08799 0.95828 0.0
C506 C 0.23997 0.05048 0.00074 0.0
C507 C 0.24996 0.02203 0.9788 0.0
C508 C 0.26825 0.02684 0.94784 0.0
C509 C 0.27358 0.05992 0.93793 0.0
C510 C 0.22087 0.04644 0.03422 0.0
C511 C 0.2795 0.99715 0.9239 0.0
H512 H 0.2553 0.92341 0.03676 0.0
H513 H 0.15769 0.94257 0.98128 0.0
H514 H 0.3109 0.98548 0.99718 0.0
H515 H 0.29334 0.99801 0.03861 0.0
H516 H 0.30899 0.95518 0.02947 0.0
H517 H 0.15325 0.98636 0.94432 0.0
H518 H 0.17157 0.02369 0.96711 0.0
H519 H 0.19456 0.00537 0.93017 0.0
H520 H 0.23598 0.10499 0.00593 0.0
H521 H 0.28536 0.06369 0.91319 0.0
H522 H 0.23536 0.02786 0.04917 0.0
H523 H 0.19307 0.03654 0.02918 0.0
H524 H 0.21878 0.07085 0.04998 0.0
H525 H 0.29178 0.9768 0.93819 0.0
H526 H 0.29916 0.00481 0.90444 0.0
H527 H 0.2552 0.98632 0.91047 0.0
C528 C 0.48946 0.64499 0.41217 0.0
C529 C 0.50769 0.67436 0.42509 0.0
C530 C 0.45282 0.64595 0.40289 0.0
C531 C 0.43378 0.6771 0.40636 0.0
C532 C 0.45275 0.70736 0.41645 0.0
C533 C 0.48955 0.70565 0.4258 0.0
C534 C 0.43381 0.61303 0.39203 0.0
C535 C 0.43364 0.74117 0.41976 0.0
C536 C 0.33772 0.6686 0.37157 0.0
C537 C 0.31927 0.65931 0.40065 0.0
C538 C 0.37477 0.67731 0.37336 0.0
C539 C 0.39341 0.67652 0.40489 0.0
C540 C 0.37389 0.66991 0.43475 0.0
C541 C 0.3371 0.66141 0.43222 0.0
C542 C 0.39443 0.68485 0.3411 0.0
C543 C 0.39246 0.66898 0.46898 0.0
H544 H 0.50336 0.62077 0.41085 0.0
H545 H 0.50342 0.72856 0.43543 0.0
H546 H 0.41474 0.60638 0.41237 0.0
H547 H 0.41769 0.61576 0.36855 0.0
H548 H 0.45315 0.59169 0.38719 0.0
H549 H 0.45315 0.76266 0.42059 0.0
H550 H 0.41452 0.74365 0.39825 0.0
H551 H 0.4176 0.74312 0.44371 0.0
H552 H 0.32385 0.667 0.34716 0.0
H553 H 0.3226 0.65455 0.45475 0.0
H554 H 0.40982 0.66205 0.33142 0.0
H555 H 0.41418 0.70582 0.34607 0.0
H556 H 0.3753 0.69171 0.32083 0.0
H557 H 0.41103 0.64686 0.46851 0.0
H558 H 0.37279 0.66687 0.49015 0.0
H559 H 0.40904 0.69215 0.47447 0.0
C560 C 0.38535 0.44973 0.66405 0.0
C561 C 0.3551 0.42833 0.65925 0.0
C562 C 0.38452 0.47826 0.68729 0.0
C563 C 0.3528 0.48552 0.70676 0.0
C564 C 0.32303 0.46284 0.70387 0.0
C565 C 0.32441 0.4346 0.67994 0.0
C566 C 0.417 0.50171 0.68952 0.0
C567 C 0.28907 0.46921 0.72473 0.0
C568 C 0.37372 0.5557 0.77426 0.0
C569 C 0.36637 0.58421 0.75608 0.0
C570 C 0.36559 0.52287 0.76012 0.0
C571 C 0.35018 0.51872 0.72704 0.0
C572 C 0.33886 0.54764 0.71053 0.0
C573 C 0.34694 0.58006 0.72538 0.0
C574 C 0.37691 0.4927 0.77907 0.0
C575 C 0.32205 0.5445 0.67538 0.0
H576 H 0.4094 0.44506 0.64858 0.0
H577 H 0.30097 0.41811 0.67674 0.0
H578 H 0.40935 0.52677 0.6806 0.0
H579 H 0.4262 0.50592 0.71637 0.0
H580 H 0.44015 0.49158 0.67385 0.0
H581 H 0.27229 0.44591 0.72547 0.0
H582 H 0.29576 0.47869 0.75127 0.0
H583 H 0.27254 0.48892 0.71328 0.0
H584 H 0.38864 0.5588 0.79808 0.0
H585 H 0.34072 0.60216 0.71157 0.0
H586 H 0.40313 0.48282 0.76872 0.0
H587 H 0.35666 0.47194 0.77565 0.0
H588 H 0.38046 0.49961 0.80678 0.0
H589 H 0.34312 0.53647 0.65633 0.0
H590 H 0.31028 0.56888 0.66822 0.0
H591 H 0.30046 0.52491 0.6739 0.0
C592 C 0.00251 0.80304 0.12242 0.0
C593 C 0.01223 0.82862 0.1011 0.0
C594 C 0.96721 0.80149 0.13589 0.0
C595 C 0.94097 0.82555 0.12708 0.0
C596 C 0.9507 0.85122 0.10536 0.0
C597 C 0.98621 0.85263 0.093 0.0
C598 C 0.95801 0.77431 0.1596 0.0
C599 C 0.92345 0.87709 0.09479 0.0
C600 C 0.8394 0.81368 0.12638 0.0
C601 C 0.82915 0.83815 0.15206 0.0
C602 C 0.87617 0.80673 0.11983 0.0
C603 C 0.90305 0.82436 0.13989 0.0
C604 C 0.89252 0.84618 0.16833 0.0
C605 C 0.8556 0.85324 0.17377 0.0
C606 C 0.88609 0.78361 0.08902 0.0
C607 C 0.92024 0.86478 0.19091 0.0
H608 H 0.0226 0.78453 0.12888 0.0
H609 H 0.99338 0.87225 0.07625 0.0
H610 H 0.94782 0.78613 0.18422 0.0
H611 H 0.936 0.7579 0.14843 0.0
H612 H 0.98175 0.75813 0.16474 0.0
H613 H 0.93516 0.89473 0.07691 0.0
H614 H 0.89981 0.86405 0.08224 0.0
H615 H 0.91325 0.89228 0.11761 0.0
H616 H 0.81886 0.80235 0.10938 0.0
H617 H 0.84753 0.87224 0.19359 0.0
H618 H 0.90916 0.76695 0.09475 0.0
H619 H 0.89466 0.79922 0.06803 0.0
H620 H 0.86285 0.76751 0.07986 0.0
H621 H 0.94329 0.84792 0.19627 0.0
H622 H 0.90821 0.87483 0.2155 0.0
H623 H 0.93121 0.88647 0.17767 0.0
C624 C 0.6682 0.53808 0.53289 0.0
C625 C 0.68781 0.56764 0.52749 0.0
C626 C 0.68295 0.51262 0.55163 0.0
C627 C 0.71802 0.51703 0.56593 0.0
C628 C 0.73785 0.54701 0.56113 0.0
C629 C 0.72263 0.5719 0.54159 0.0
C630 C 0.66104 0.48079 0.55575 0.0
C631 C 0.775 0.55275 0.57663 0.0
C632 C 0.72951 0.45789 0.6363 0.0
C633 C 0.74576 0.42992 0.61854 0.0
C634 C 0.72357 0.48804 0.62039 0.0
C635 C 0.73334 0.48975 0.5857 0.0
C636 C 0.7522 0.4624 0.5685 0.0
C637 C 0.75845 0.43278 0.5853 0.0
C638 C 0.70409 0.51691 0.63982 0.0
C639 C 0.76266 0.46305 0.5314 0.0
H640 H 0.64143 0.53441 0.52179 0.0
H641 H 0.73783 0.59478 0.5376 0.0
H642 H 0.6765 0.45818 0.54565 0.0
H643 H 0.65585 0.47784 0.58319 0.0
H644 H 0.63455 0.48107 0.54228 0.0
H645 H 0.78645 0.57785 0.5713 0.0
H646 H 0.77362 0.55106 0.60468 0.0
H647 H 0.79386 0.53264 0.56647 0.0
H648 H 0.71997 0.4556 0.66216 0.0
H649 H 0.77086 0.41098 0.57161 0.0
H650 H 0.67541 0.51744 0.63133 0.0
H651 H 0.7165 0.54162 0.63466 0.0
H652 H 0.70447 0.51419 0.66778 0.0
H653 H 0.73792 0.46005 0.51535 0.0
H654 H 0.78183 0.44231 0.52339 0.0
H655 H 0.77523 0.48769 0.52631 0.0
C656 C 0.94748 0.15035 0.09263 0.0
C657 C 0.93743 0.17967 0.07675 0.0
C658 C 0.96694 0.15241 0.12333 0.0
C659 C 0.97659 0.18461 0.13877 0.0
C660 C 0.96501 0.21439 0.12393 0.0
C661 C 0.94557 0.21159 0.09301 0.0
C662 C 0.97863 0.11997 0.13837 0.0
C663 C 0.97448 0.24914 0.13987 0.0
C664 C 0.01174 0.17896 0.22893 0.0
C665 C 0.04896 0.17464 0.22283 0.0
C666 C 0.98781 0.1849 0.20213 0.0
C667 C 0.00157 0.18645 0.1686 0.0
C668 C 0.03946 0.1848 0.16294 0.0
C669 C 0.06268 0.17895 0.19014 0.0
C670 C 0.94764 0.18692 0.20925 0.0
C671 C 0.05532 0.18654 0.12766 0.0
H672 H 0.94099 0.12554 0.08062 0.0
H673 H 0.9378 0.23442 0.0811 0.0
H674 H 0.00864 0.11792 0.1376 0.0
H675 H 0.97028 0.12019 0.16551 0.0
H676 H 0.96697 0.09705 0.1244 0.0
H677 H 0.95934 0.26955 0.12795 0.0
H678 H 0.96866 0.25077 0.16764 0.0
H679 H 0.00393 0.25378 0.13681 0.0
H680 H 0.00104 0.17558 0.25417 0.0
H681 H 0.09155 0.17616 0.18552 0.0
H682 H 0.93457 0.16272 0.19988 0.0
H683 H 0.93496 0.2075 0.19557 0.0
H684 H 0.94189 0.19135 0.23697 0.0
H685 H 0.08535 0.18882 0.12823 0.0
H686 H 0.04397 0.20841 0.11502 0.0
H687 H 0.04801 0.16318 0.11177 0.0
C688 C 0.19368 0.7813 0.18186 0.0
C689 C 0.16744 0.7695 0.15791 0.0
C690 C 0.19759 0.76657 0.21306 0.0
C691 C 0.17477 0.73932 0.22055 0.0
C692 C 0.14852 0.72695 0.19645 0.0
C693 C 0.14514 0.74221 0.1654 0.0
C694 C 0.2259 0.78043 0.23816 0.0
C695 C 0.12378 0.69783 0.20363 0.0
C696 C 0.20501 0.68235 0.28898 0.0
C697 C 0.18435 0.69505 0.31679 0.0
C698 C 0.20221 0.69657 0.25737 0.0
C699 C 0.17815 0.72404 0.25385 0.0
C700 C 0.1575 0.73709 0.28222 0.0
C701 C 0.16083 0.72229 0.3135 0.0
C702 C 0.22467 0.68204 0.22771 0.0
C703 C 0.13172 0.76644 0.27943 0.0
H704 H 0.21111 0.80235 0.17643 0.0
H705 H 0.12479 0.73289 0.14713 0.0
H706 H 0.21268 0.78994 0.26233 0.0
H707 H 0.24484 0.75995 0.2444 0.0
H708 H 0.24187 0.80144 0.2282 0.0
H709 H 0.10524 0.69081 0.18195 0.0
H710 H 0.14009 0.67525 0.20906 0.0
H711 H 0.1072 0.7047 0.22664 0.0
H712 H 0.22303 0.66104 0.29187 0.0
H713 H 0.14479 0.73176 0.33526 0.0
H714 H 0.24212 0.7021 0.21799 0.0
H715 H 0.20663 0.67268 0.20646 0.0
H716 H 0.2422 0.66078 0.2348 0.0
H717 H 0.14663 0.78883 0.27114 0.0
H718 H 0.11789 0.77371 0.30398 0.0
H719 H 0.11081 0.75971 0.25977 0.0
C720 C 0.754 0.72109 0.53607 0.0
C721 C 0.71866 0.73303 0.53105 0.0
C722 C 0.77733 0.73756 0.56017 0.0
C723 C 0.76522 0.76682 0.5798 0.0
C724 C 0.72989 0.77943 0.5745 0.0
C725 C 0.70703 0.76239 0.55026 0.0
C726 C 0.8148 0.72323 0.56505 0.0
C727 C 0.71606 0.81062 0.59484 0.0
C728 C 0.81509 0.7848 0.66382 0.0
C729 C 0.84088 0.80857 0.65495 0.0
C730 C 0.7892 0.77206 0.63998 0.0
C731 C 0.78935 0.78339 0.60653 0.0
C732 C 0.81454 0.80859 0.59805 0.0
C733 C 0.8402 0.82081 0.62242 0.0
C734 C 0.76289 0.74525 0.65009 0.0
C735 C 0.8155 0.82144 0.56277 0.0
H736 H 0.76339 0.69849 0.52148 0.0
H737 H 0.67985 0.77194 0.54663 0.0
H738 H 0.83562 0.74287 0.56115 0.0
H739 H 0.81783 0.71568 0.59158 0.0
H740 H 0.82041 0.70077 0.54721 0.0
H741 H 0.68848 0.818 0.58673 0.0
H742 H 0.71525 0.80592 0.62234 0.0
H743 H 0.73477 0.83226 0.59206 0.0
H744 H 0.81605 0.77522 0.68902 0.0
H745 H 0.86052 0.83902 0.61566 0.0
H746 H 0.76889 0.72085 0.63545 0.0
H747 H 0.73472 0.75242 0.64378 0.0
H748 H 0.76437 0.7412 0.67777 0.0
H749 H 0.82447 0.80077 0.54409 0.0
H750 H 0.83425 0.84331 0.56126 0.0
H751 H 0.78798 0.82924 0.55502 0.0
C752 C 0.78881 0.26412 0.05378 0.0
C753 C 0.77833 0.2347 0.034 0.0
C754 C 0.76538 0.27972 0.07837 0.0
C755 C 0.73071 0.26553 0.08342 0.0
C756 C 0.7197 0.23628 0.06312 0.0
C757 C 0.74355 0.2213 0.03867 0.0
C758 C 0.77799 0.31098 0.09941 0.0
C759 C 0.68296 0.2203 0.06776 0.0
C760 C 0.68157 0.27869 0.16819 0.0
C761 C 0.65452 0.30161 0.16034 0.0
C762 C 0.70761 0.26782 0.14377 0.0
C763 C 0.7063 0.28023 0.1108 0.0
C764 C 0.67976 0.3046 0.10337 0.0
C765 C 0.65398 0.31492 0.12831 0.0
C766 C 0.73538 0.24182 0.15272 0.0
C767 C 0.67758 0.31854 0.06863 0.0
H768 H 0.81555 0.27479 0.0504 0.0
H769 H 0.73506 0.19862 0.02362 0.0
H770 H 0.75808 0.33182 0.09763 0.0
H771 H 0.77976 0.30548 0.12667 0.0
H772 H 0.80494 0.31994 0.09113 0.0
H773 H 0.67808 0.19821 0.04922 0.0
H774 H 0.68069 0.21169 0.09396 0.0
H775 H 0.66123 0.23926 0.06475 0.0
H776 H 0.68157 0.26832 0.19304 0.0
H777 H 0.6327 0.33252 0.12239 0.0
H778 H 0.76306 0.25047 0.14649 0.0
H779 H 0.7304 0.21763 0.1373 0.0
H780 H 0.73451 0.23674 0.18017 0.0
H781 H 0.70456 0.32777 0.06089 0.0
H782 H 0.65778 0.33967 0.06803 0.0
H783 H 0.66928 0.29807 0.04941 0.0
C784 C 0.30095 0.27822 0.68859 0.0
C785 C 0.32983 0.26764 0.66709 0.0
C786 C 0.29687 0.26577 0.72089 0.0
C787 C 0.32229 0.24219 0.73206 0.0
C788 C 0.351 0.23073 0.71028 0.0
C789 C 0.35441 0.24355 0.678 0.0
C790 C 0.26579 0.27845 0.74336 0.0
C791 C 0.37862 0.20555 0.72141 0.0
C792 C 0.33474 0.23685 0.82741 0.0
C793 C 0.31484 0.2077 0.83298 0.0
C794 C 0.33724 0.24852 0.79459 0.0
C795 C 0.31945 0.23035 0.76699 0.0
C796 C 0.29895 0.20098 0.77281 0.0
C797 C 0.29691 0.18997 0.80592 0.0
C798 C 0.3592 0.28001 0.78936 0.0
C799 C 0.27959 0.18104 0.74404 0.0
H800 H 0.28165 0.29667 0.6804 0.0
H801 H 0.37683 0.23525 0.66166 0.0
H802 H 0.24962 0.25674 0.75148 0.0
H803 H 0.27654 0.29223 0.76682 0.0
H804 H 0.2475 0.29573 0.7303 0.0
H805 H 0.39846 0.19817 0.70095 0.0
H806 H 0.39365 0.21662 0.74402 0.0
H807 H 0.36481 0.18234 0.72913 0.0
H808 H 0.3487 0.25025 0.84863 0.0
H809 H 0.28172 0.16723 0.81061 0.0
H810 H 0.34191 0.29929 0.77809 0.0
H811 H 0.38157 0.27379 0.77111 0.0
H812 H 0.37101 0.29136 0.81358 0.0
H813 H 0.26033 0.1977 0.7314 0.0
H814 H 0.26438 0.15907 0.75299 0.0
H815 H 0.29949 0.17154 0.72446 0.0
C816 C 0.69246 0.71178 0.3516 0.0
C817 C 0.66702 0.72561 0.37528 0.0
C818 C 0.69712 0.72527 0.31984 0.0
C819 C 0.67594 0.75334 0.31154 0.0
C820 C 0.65057 0.76776 0.33538 0.0
C821 C 0.64638 0.7537 0.36697 0.0
C822 C 0.72445 0.70923 0.29502 0.0
C823 C 0.62763 0.79784 0.32739 0.0
C824 C 0.70941 0.80729 0.24189 0.0
C825 C 0.68788 0.7953 0.21436 0.0
C826 C 0.70593 0.79372 0.27374 0.0
C827 C 0.6803 0.7676 0.27782 0.0
C828 C 0.65877 0.75521 0.24972 0.0
C829 C 0.6628 0.76936 0.21816 0.0
C830 C 0.72933 0.80756 0.30308 0.0
C831 C 0.63131 0.72728 0.25312 0.0
H832 H 0.70854 0.69005 0.35765 0.0
H833 H 0.62666 0.76461 0.38501 0.0
H834 H 0.7106 0.69985 0.27109 0.0
H835 H 0.74466 0.72842 0.28817 0.0
H836 H 0.73904 0.6877 0.30554 0.0
H837 H 0.60951 0.80637 0.34889 0.0
H838 H 0.64529 0.81936 0.32136 0.0
H839 H 0.6107 0.79124 0.30451 0.0
H840 H 0.72869 0.82755 0.23857 0.0
H841 H 0.64616 0.7604 0.19658 0.0
H842 H 0.74546 0.7868 0.31319 0.0
H843 H 0.71195 0.81831 0.32421 0.0
H844 H 0.7482 0.82763 0.29551 0.0
H845 H 0.64486 0.70442 0.26195 0.0
H846 H 0.61715 0.72018 0.22867 0.0
H847 H 0.61077 0.73547 0.27261 0.0
C848 C 0.80746 0.21861 0.85552 0.0
C849 C 0.83362 0.23149 0.87903 0.0
C850 C 0.80367 0.23182 0.82355 0.0
C851 C 0.82652 0.25862 0.81482 0.0
C852 C 0.85251 0.27222 0.83855 0.0
C853 C 0.85577 0.25849 0.8704 0.0
C854 C 0.77557 0.21673 0.79889 0.0
C855 C 0.87722 0.30094 0.83008 0.0
C856 C 0.84021 0.27055 0.72065 0.0
C857 C 0.81622 0.29711 0.71588 0.0
C858 C 0.844 0.25779 0.75292 0.0
C859 C 0.82331 0.27219 0.78069 0.0
C860 C 0.79903 0.29914 0.7757 0.0
C861 C 0.79576 0.31129 0.74318 0.0
C862 C 0.87003 0.22894 0.7573 0.0
C863 C 0.77653 0.31509 0.80467 0.0
H864 H 0.79014 0.19779 0.86185 0.0
H865 H 0.87608 0.26862 0.88831 0.0
H866 H 0.75671 0.23677 0.7914 0.0
H867 H 0.78901 0.206 0.77528 0.0
H868 H 0.75949 0.19634 0.80986 0.0
H869 H 0.89542 0.30919 0.85166 0.0
H870 H 0.89415 0.29295 0.8076 0.0
H871 H 0.8609 0.32303 0.8232 0.0
H872 H 0.856 0.25986 0.69923 0.0
H873 H 0.7773 0.33199 0.73908 0.0
H874 H 0.85518 0.20685 0.76635 0.0
H875 H 0.89058 0.23665 0.77699 0.0
H876 H 0.88426 0.22079 0.73319 0.0
H877 H 0.7588 0.29566 0.81515 0.0
H878 H 0.75925 0.33609 0.79654 0.0
H879 H 0.79449 0.32517 0.82569 0.0
C880 C 0.23983 0.26901 0.50864 0.0
C881 C 0.27582 0.25813 0.51204 0.0
C882 C 0.21646 0.25297 0.48434 0.0
C883 C 0.22922 0.22523 0.46288 0.0
C884 C 0.26512 0.21344 0.46673 0.0
C885 C 0.28802 0.23005 0.49122 0.0
C886 C 0.17834 0.26636 0.48104 0.0
C887 C 0.27962 0.18384 0.44442 0.0
C888 C 0.15522 0.17234 0.41744 0.0
C889 C 0.15372 0.18702 0.38613 0.0
C890 C 0.18095 0.18337 0.44224 0.0
C891 C 0.20529 0.20984 0.4354 0.0
C892 C 0.20462 0.22367 0.40307 0.0
C893 C 0.17872 0.21205 0.37879 0.0
C894 C 0.18095 0.16786 0.47627 0.0
C895 C 0.23002 0.25193 0.39476 0.0
H896 H 0.22998 0.29058 0.52454 0.0
H897 H 0.3157 0.22132 0.49362 0.0
H898 H 0.17457 0.27588 0.45536 0.0
H899 H 0.15838 0.24567 0.48358 0.0
H900 H 0.17216 0.28729 0.50055 0.0
H901 H 0.30733 0.17638 0.45207 0.0
H902 H 0.26136 0.16161 0.44552 0.0
H903 H 0.28043 0.19053 0.41747 0.0
H904 H 0.13553 0.15307 0.42298 0.0
H905 H 0.17714 0.22344 0.35449 0.0
H906 H 0.17148 0.18691 0.49641 0.0
H907 H 0.20883 0.16035 0.48318 0.0
H908 H 0.16301 0.14525 0.47626 0.0
H909 H 0.2236 0.27515 0.4112 0.0
H910 H 0.22795 0.25801 0.36764 0.0
H911 H 0.25848 0.24496 0.40015 0.0
C912 C 0.2139 0.73452 0.98563 0.0
C913 C 0.22534 0.7637 0.00527 0.0
C914 C 0.23729 0.7174 0.96201 0.0
C915 C 0.2729 0.72982 0.9578 0.0
C916 C 0.28483 0.75883 0.97794 0.0
C917 C 0.26099 0.77534 0.00143 0.0
C918 C 0.2237 0.68643 0.94111 0.0
C919 C 0.32259 0.77295 0.97413 0.0
C920 C 0.34841 0.67617 0.91623 0.0
C921 C 0.34983 0.68887 0.88395 0.0
C922 C 0.32228 0.68812 0.94017 0.0
C923 C 0.29745 0.71349 0.93145 0.0
C924 C 0.2981 0.7253 0.89822 0.0
C925 C 0.32442 0.7128 0.87482 0.0
C926 C 0.32231 0.67476 0.97524 0.0
C927 C 0.27218 0.75234 0.88792 0.0
H928 H 0.18649 0.7252 0.9884 0.0
H929 H 0.27022 0.79781 0.01639 0.0
H930 H 0.22335 0.69146 0.91368 0.0
H931 H 0.24228 0.66472 0.94391 0.0
H932 H 0.19596 0.67897 0.94868 0.0
H933 H 0.32802 0.79513 0.99241 0.0
H934 H 0.34308 0.75308 0.9782 0.0
H935 H 0.32635 0.78088 0.94782 0.0
H936 H 0.36841 0.65773 0.92312 0.0
H937 H 0.32593 0.72263 0.84975 0.0
H938 H 0.29455 0.66695 0.98226 0.0
H939 H 0.33097 0.69516 0.99439 0.0
H940 H 0.34086 0.65279 0.97685 0.0
H941 H 0.24382 0.7451 0.89342 0.0
H942 H 0.27439 0.75683 0.86039 0.0
H943 H 0.27791 0.77653 0.90308 0.0
loop_
_geom_bond_atom_site_label_1
_geom_bond_atom_site_label_2
_geom_bond_distance
_geom_bond_site_symmetry_2
_ccdc_geom_bond_type
Sc0 O3 2.025 . S
Sc0 O10 2.105 . S
Sc0 O13 2.105 . S
Sc0 O16 2.105 . S
Sc0 O19 2.105 1_554 S
Sc1 O3 2.025 . S
Sc1 O11 2.105 1_554 S
Sc1 O15 2.105 . S
Sc1 O17 2.105 . S
Sc1 O21 2.105 . S
Sc2 O3 2.025 . S
Sc2 O12 2.105 . S
Sc2 O14 2.105 . S
Sc2 O18 2.105 . S
Sc2 O20 2.105 . S
O3 Sc0 2.025 . S
O3 Sc1 2.025 . S
O3 Sc2 2.025 . S
C4 O10 1.268 . S
C4 O20 1.268 . S
C5 O11 1.268 . S
C5 O19 1.268 . S
C6 O12 1.278 . S
C6 O21 1.271 . S
C7 O13 1.268 . S
C7 O17 1.268 . S
C8 O14 1.268 . S
C8 O16 1.268 . S
C9 O15 1.268 . S
C9 O18 1.268 . S
O10 Sc0 2.105 . S
O10 C4 1.268 . S
O11 Sc1 2.105 1_556 S
O11 C5 1.268 . S
O12 Sc2 2.105 . S
O12 C6 1.278 . S
O13 Sc0 2.105 . S
O13 C7 1.268 . S
O14 Sc2 2.105 . S
O14 C8 1.268 . S
O15 Sc1 2.105 . S
O15 C9 1.268 . S
O16 Sc0 2.105 . S
O16 C8 1.268 . S
O17 Sc1 2.105 . S
O17 C7 1.268 . S
O18 Sc2 2.105 . S
O18 C9 1.268 . S
O19 Sc0 2.105 1_556 S
O19 C5 1.268 . S
O20 Sc2 2.105 . S
O20 C4 1.268 . S
O21 Sc1 2.105 . S
O21 C6 1.271 . S
Sc22 O25 2.025 . S
Sc22 O32 2.105 . S
Sc22 O35 2.105 . S
Sc22 O38 2.105 . S
Sc22 O41 2.105 . S
Sc23 O25 2.025 . S
Sc23 O33 2.105 . S
Sc23 O37 2.105 . S
Sc23 O39 2.105 . S
Sc23 O43 2.105 . S
Sc24 O25 2.025 . S
Sc24 O34 2.105 . S
Sc24 O36 2.105 . S
Sc24 O40 2.105 . S
Sc24 O42 2.105 . S
O25 Sc22 2.025 . S
O25 Sc23 2.025 . S
O25 Sc24 2.025 . S
C26 O32 1.268 . S
C26 O42 1.268 . S
C27 O33 1.268 . S
C27 O41 1.268 . S
C28 O34 1.268 . S
C28 O43 1.268 . S
C29 O35 1.268 . S
C29 O39 1.268 . S
C30 O36 1.268 . S
C30 O38 1.268 . S
C31 O37 1.268 . S
C31 O40 1.268 . S
O32 Sc22 2.105 . S
O32 C26 1.268 . S
O33 Sc23 2.105 . S
O33 C27 1.268 . S
O34 Sc24 2.105 . S
O34 C28 1.268 . S
O35 Sc22 2.105 . S
O35 C29 1.268 . S
O36 Sc24 2.105 . S
O36 C30 1.268 . S
O37 Sc23 2.105 . S
O37 C31 1.268 . S
O38 Sc22 2.105 . S
O38 C30 1.268 . S
O39 Sc23 2.105 . S
O39 C29 1.268 . S
O40 Sc24 2.105 . S
O40 C31 1.268 . S
O41 Sc22 2.105 . S
O41 C27 1.268 . S
O42 Sc24 2.105 . S
O42 C26 1.268 . S
O43 Sc23 2.105 . S
O43 C28 1.268 . S
Sc44 O47 2.025 . S
Sc44 O54 2.105 1_554 S
Sc44 O57 2.105 . S
Sc44 O60 2.105 . S
Sc44 O63 2.105 1_554 S
Sc45 O47 2.025 1_556 S
Sc45 O55 2.105 . S
Sc45 O59 2.105 1_556 S
Sc45 O61 2.105 1_556 S
Sc45 O65 2.105 . S
Sc46 O47 2.025 . S
Sc46 O56 2.105 1_554 S
Sc46 O58 2.105 . S
Sc46 O62 2.105 . S
Sc46 O64 2.105 1_554 S
O47 Sc44 2.025 . S
O47 Sc45 2.025 1_554 S
O47 Sc46 2.025 . S
C48 O54 1.268 . S
C48 O64 1.268 . S
C49 O55 1.268 . S
C49 O63 1.268 . S
C50 O56 1.268 . S
C50 O65 1.268 . S
C51 O57 1.268 . S
C51 O61 1.268 . S
C52 O58 1.268 . S
C52 O60 1.268 . S
C53 O59 1.268 . S
C53 O62 1.268 . S
O54 Sc44 2.105 1_556 S
O54 C48 1.268 . S
O55 Sc45 2.105 . S
O55 C49 1.268 . S
O56 Sc46 2.105 1_556 S
O56 C50 1.268 . S
O57 Sc44 2.105 . S
O57 C51 1.268 . S
O58 Sc46 2.105 . S
O58 C52 1.268 . S
O59 Sc45 2.105 1_554 S
O59 C53 1.268 . S
O60 Sc44 2.105 . S
O60 C52 1.268 . S
O61 Sc45 2.105 1_554 S
O61 C51 1.268 . S
O62 Sc46 2.105 . S
O62 C53 1.268 . S
O63 Sc44 2.105 1_556 S
O63 C49 1.268 . S
O64 Sc46 2.105 1_556 S
O64 C48 1.268 . S
O65 Sc45 2.105 . S
O65 C50 1.268 . S
Sc66 O69 2.025 . S
Sc66 O76 2.105 . S
Sc66 O79 2.105 . S
Sc66 O82 2.105 . S
Sc66 O85 2.105 . S
Sc67 O69 2.025 . S
Sc67 O77 2.105 . S
Sc67 O81 2.105 . S
Sc67 O83 2.105 . S
Sc67 O87 2.105 . S
Sc68 O69 2.025 . S
Sc68 O78 2.105 . S
Sc68 O80 2.105 . S
Sc68 O84 2.105 . S
Sc68 O86 2.105 . S
O69 Sc66 2.025 . S
O69 Sc67 2.025 . S
O69 Sc68 2.025 . S
C70 O76 1.268 . S
C70 O86 1.268 . S
C71 O77 1.268 . S
C71 O85 1.268 . S
C72 O78 1.268 . S
C72 O87 1.268 . S
C73 O79 1.268 . S
C73 O83 1.268 . S
C74 O80 1.268 . S
C74 O82 1.268 . S
C75 O81 1.268 . S
C75 O84 1.268 . S
O76 Sc66 2.105 . S
O76 C70 1.268 . S
O77 Sc67 2.105 . S
O77 C71 1.268 . S
O78 Sc68 2.105 . S
O78 C72 1.268 . S
O79 Sc66 2.105 . S
O79 C73 1.268 . S
O80 Sc68 2.105 . S
O80 C74 1.268 . S
O81 Sc67 2.105 . S
O81 C75 1.268 . S
O82 Sc66 2.105 . S
O82 C74 1.268 . S
O83 Sc67 2.105 . S
O83 C73 1.268 . S
O84 Sc68 2.105 . S
O84 C75 1.268 . S
O85 Sc66 2.105 . S
O85 C71 1.268 . S
O86 Sc68 2.105 . S
O86 C70 1.268 . S
O87 Sc67 2.105 . S
O87 C72 1.268 . S
H88 C91 0.929 . S
H89 C94 0.929 . S
H90 C96 0.930 . S
C91 H88 0.929 . S
C91 C92 1.398 . S
C91 C93 1.396 . S
C92 C91 1.398 . S
C92 C96 1.407 . S
C93 C91 1.396 . S
C93 C94 1.394 . S
C94 H89 0.929 . S
C94 C93 1.394 . S
C94 C95 1.382 . S
C95 C94 1.382 . S
C95 C96 1.392 . S
C95 N97 1.420 . S
C96 H90 0.930 . S
C96 C92 1.407 . S
C96 C95 1.392 . S
N97 C95 1.420 . S
N97 C98 1.244 . S
C98 N97 1.244 . S
H99 C102 0.929 . S
H100 C105 0.929 . S
H101 C107 0.930 . S
C102 H99 0.929 . S
C102 C103 1.398 . S
C102 C104 1.396 . S
C103 C102 1.398 . S
C103 C107 1.407 . S
C104 C102 1.396 . S
C104 C105 1.394 . S
C105 H100 0.929 . S
C105 C104 1.394 . S
C105 C106 1.382 . S
C106 C105 1.382 . S
C106 C107 1.392 . S
C106 N108 1.420 . S
C107 H101 0.930 . S
C107 C103 1.407 . S
C107 C106 1.392 . S
N108 C106 1.420 . S
N108 C109 1.244 . S
C109 N108 1.244 . S
H110 C113 0.929 . S
H111 C116 0.929 . S
H112 C118 0.930 . S
C113 H110 0.929 . S
C113 C114 1.398 . S
C113 C115 1.396 . S
C114 C113 1.398 . S
C114 C118 1.407 . S
C115 C113 1.396 . S
C115 C116 1.394 . S
C116 H111 0.929 . S
C116 C115 1.394 . S
C116 C117 1.382 . S
C117 C116 1.382 . S
C117 C118 1.392 . S
C117 N119 1.420 . S
C118 H112 0.930 . S
C118 C114 1.407 . S
C118 C117 1.392 . S
N119 C117 1.420 . S
N119 C120 1.244 . S
C120 N119 1.244 . S
H121 C124 0.929 . S
H122 C127 0.929 . S
H123 C129 0.930 . S
C124 H121 0.929 . S
C124 C125 1.398 . S
C124 C126 1.396 . S
C125 C124 1.398 . S
C125 C129 1.407 . S
C126 C124 1.396 . S
C126 C127 1.394 . S
C127 H122 0.929 . S
C127 C126 1.394 . S
C127 C128 1.382 . S
C128 C127 1.382 . S
C128 C129 1.392 . S
C128 N130 1.420 . S
C129 H123 0.930 . S
C129 C125 1.407 . S
C129 C128 1.392 . S
N130 C128 1.420 . S
N130 C131 1.244 . S
C131 N130 1.244 . S
H132 C135 0.929 . S
H133 C138 0.929 . S
H134 C140 0.930 . S
C135 H132 0.929 . S
C135 C136 1.398 . S
C135 C137 1.396 . S
C136 C135 1.398 . S
C136 C140 1.407 . S
C137 C135 1.396 . S
C137 C138 1.394 . S
C138 H133 0.929 . S
C138 C137 1.394 . S
C138 C139 1.382 . S
C139 C138 1.382 . S
C139 C140 1.392 . S
C139 N141 1.420 . S
C140 H134 0.930 . S
C140 C136 1.407 . S
C140 C139 1.392 . S
N141 C139 1.420 . S
N141 C142 1.244 . S
C142 N141 1.244 . S
H143 C146 0.929 . S
H144 C149 0.929 . S
H145 C151 0.930 . S
C146 H143 0.929 . S
C146 C147 1.398 . S
C146 C148 1.396 . S
C147 C146 1.398 . S
C147 C151 1.407 . S
C148 C146 1.396 . S
C148 C149 1.394 . S
C149 H144 0.929 . S
C149 C148 1.394 . S
C149 C150 1.382 . S
C150 C149 1.382 . S
C150 C151 1.392 . S
C150 N152 1.420 . S
C151 H145 0.930 . S
C151 C147 1.407 . S
C151 C150 1.392 . S
N152 C150 1.420 . S
N152 C153 1.244 . S
C153 N152 1.244 . S
H154 C157 0.929 . S
H155 C160 0.929 . S
H156 C162 0.930 . S
C157 H154 0.929 . S
C157 C158 1.398 . S
C157 C159 1.396 . S
C158 C157 1.398 . S
C158 C162 1.407 . S
C159 C157 1.396 . S
C159 C160 1.394 . S
C160 H155 0.929 . S
C160 C159 1.394 . S
C160 C161 1.382 . S
C161 C160 1.382 . S
C161 C162 1.392 . S
C161 N163 1.420 . S
C162 H156 0.930 . S
C162 C158 1.407 . S
C162 C161 1.392 . S
N163 C161 1.420 . S
N163 C164 1.244 . S
C164 N163 1.244 . S
H165 C168 0.929 . S
H166 C171 0.929 . S
H167 C173 0.930 . S
C168 H165 0.929 . S
C168 C169 1.398 . S
C168 C170 1.396 . S
C169 C168 1.398 . S
C169 C173 1.407 . S
C170 C168 1.396 . S
C170 C171 1.394 . S
C171 H166 0.929 . S
C171 C170 1.394 . S
C171 C172 1.382 . S
C172 C171 1.382 . S
C172 C173 1.392 . S
C172 N174 1.420 . S
C173 H167 0.930 . S
C173 C169 1.407 . S
C173 C172 1.392 . S
N174 C172 1.420 . S
N174 C175 1.244 . S
C175 N174 1.244 . S
C176 C177 1.391 . S
C176 C178 1.394 . S
C176 H192 0.931 . S
C177 C176 1.391 . S
C177 C181 1.376 . S
C178 C176 1.394 . S
C178 C179 1.369 . S
C178 C182 1.531 . S
C179 C178 1.369 . S
C179 C180 1.410 . S
C179 C187 1.503 1_565 S
C180 C179 1.410 . S
C180 C181 1.392 . S
C180 C183 1.511 1_565 S
C181 C177 1.376 . S
C181 C180 1.392 . S
C181 H193 0.929 . S
C182 C178 1.531 . S
C182 H194 0.960 . S
C182 H195 0.962 . S
C182 H196 0.960 . S
C183 C180 1.511 1_545 S
C183 H197 0.961 . S
C183 H198 0.961 . S
C183 H199 0.961 . S
C184 C185 1.370 . S
C184 C186 1.363 . S
C184 H200 0.931 . S
C185 C184 1.370 . S
C185 C189 1.408 . S
C186 C184 1.363 . S
C186 C187 1.370 . S
C186 C190 1.524 . S
C187 C179 1.503 1_545 S
C187 C186 1.370 . S
C187 C188 1.403 . S
C188 C187 1.403 . S
C188 C189 1.404 . S
C188 C191 1.539 1_545 S
C189 C185 1.408 . S
C189 C188 1.404 . S
C189 H201 0.930 . S
C190 C186 1.524 . S
C190 H202 0.956 . S
C190 H203 0.961 . S
C190 H204 0.961 . S
C191 C188 1.539 1_565 S
C191 H205 0.958 . S
C191 H206 0.961 . S
C191 H207 0.960 . S
H192 C176 0.931 . S
H193 C181 0.929 . S
H194 C182 0.960 . S
H195 C182 0.962 . S
H196 C182 0.960 . S
H197 C183 0.961 . S
H198 C183 0.961 . S
H199 C183 0.961 . S
H200 C184 0.931 . S
H201 C189 0.930 . S
H202 C190 0.956 . S
H203 C190 0.961 . S
H204 C190 0.961 . S
H205 C191 0.958 . S
H206 C191 0.961 . S
H207 C191 0.960 . S
C208 C209 1.391 . S
C208 C210 1.394 . S
C208 H224 0.931 . S
C209 C208 1.391 . S
C209 C213 1.376 . S
C210 C208 1.394 . S
C210 C211 1.369 . S
C210 C214 1.531 . S
C211 C210 1.369 . S
C211 C212 1.410 . S
C211 C219 1.503 . S
C212 C211 1.410 . S
C212 C213 1.392 . S
C212 C215 1.511 . S
C213 C209 1.376 . S
C213 C212 1.392 . S
C213 H225 0.929 . S
C214 C210 1.531 . S
C214 H226 0.960 . S
C214 H227 0.962 . S
C214 H228 0.960 . S
C215 C212 1.511 . S
C215 H229 0.961 . S
C215 H230 0.961 . S
C215 H231 0.961 . S
C216 C217 1.370 . S
C216 C218 1.363 . S
C216 H232 0.931 . S
C217 C216 1.370 . S
C217 C221 1.408 . S
C218 C216 1.363 . S
C218 C219 1.370 . S
C218 C222 1.524 . S
C219 C211 1.503 . S
C219 C218 1.370 . S
C219 C220 1.403 . S
C220 C219 1.403 . S
C220 C221 1.404 . S
C220 C223 1.539 . S
C221 C217 1.408 . S
C221 C220 1.404 . S
C221 H233 0.930 . S
C222 C218 1.524 . S
C222 H234 0.956 . S
C222 H235 0.961 . S
C222 H236 0.961 . S
C223 C220 1.539 . S
C223 H237 0.958 . S
C223 H238 0.961 . S
C223 H239 0.960 . S
H224 C208 0.931 . S
H225 C213 0.929 . S
H226 C214 0.960 . S
H227 C214 0.962 . S
H228 C214 0.960 . S
H229 C215 0.961 . S
H230 C215 0.961 . S
H231 C215 0.961 . S
H232 C216 0.931 . S
H233 C221 0.930 . S
H234 C222 0.956 . S
H235 C222 0.961 . S
H236 C222 0.961 . S
H237 C223 0.958 . S
H238 C223 0.961 . S
H239 C223 0.960 . S
C240 C241 1.391 . S
C240 C242 1.394 1_545 S
C240 H256 0.931 . S
C241 C240 1.391 . S
C241 C245 1.376 . S
C242 C240 1.394 1_565 S
C242 C243 1.369 1_565 S
C242 C246 1.531 . S
C243 C242 1.369 1_545 S
C243 C244 1.410 . S
C243 C251 1.503 1_545 S
C244 C243 1.410 . S
C244 C245 1.392 . S
C244 C247 1.511 . S
C245 C241 1.376 . S
C245 C244 1.392 . S
C245 H257 0.929 . S
C246 C242 1.531 . S
C246 H258 0.960 . S
C246 H259 0.962 . S
C246 H260 0.960 . S
C247 C244 1.511 . S
C247 H261 0.961 . S
C247 H262 0.961 . S
C247 H263 0.961 . S
C248 C249 1.370 . S
C248 C250 1.363 . S
C248 H264 0.931 . S
C249 C248 1.370 . S
C249 C253 1.408 . S
C250 C248 1.363 . S
C250 C251 1.370 . S
C250 C254 1.524 . S
C251 C243 1.503 1_565 S
C251 C250 1.370 . S
C251 C252 1.403 . S
C252 C251 1.403 . S
C252 C253 1.404 . S
C252 C255 1.539 . S
C253 C249 1.408 . S
C253 C252 1.404 . S
C253 H265 0.930 . S
C254 C250 1.524 . S
C254 H266 0.956 . S
C254 H267 0.961 1_565 S
C254 H268 0.961 . S
C255 C252 1.539 . S
C255 H269 0.958 . S
C255 H270 0.961 . S
C255 H271 0.960 . S
H256 C240 0.931 . S
H257 C245 0.929 . S
H258 C246 0.960 . S
H259 C246 0.962 . S
H260 C246 0.960 . S
H261 C247 0.961 . S
H262 C247 0.961 . S
H263 C247 0.961 . S
H264 C248 0.931 . S
H265 C253 0.930 . S
H266 C254 0.956 . S
H267 C254 0.961 1_545 S
H268 C254 0.961 . S
H269 C255 0.958 . S
H270 C255 0.961 . S
H271 C255 0.960 . S
C272 C273 1.391 . S
C272 C274 1.394 . S
C272 H288 0.931 . S
C273 C272 1.391 . S
C273 C277 1.376 . S
C274 C272 1.394 . S
C274 C275 1.369 . S
C274 C278 1.531 . S
C275 C274 1.369 . S
C275 C276 1.410 . S
C275 C283 1.503 . S
C276 C275 1.410 . S
C276 C277 1.392 . S
C276 C279 1.511 . S
C277 C273 1.376 . S
C277 C276 1.392 . S
C277 H289 0.929 . S
C278 C274 1.531 . S
C278 H290 0.960 . S
C278 H291 0.962 . S
C278 H292 0.960 . S
C279 C276 1.511 . S
C279 H293 0.961 . S
C279 H294 0.961 . S
C279 H295 0.961 . S
C280 C281 1.370 . S
C280 C282 1.363 . S
C280 H296 0.931 . S
C281 C280 1.370 . S
C281 C285 1.408 . S
C282 C280 1.363 . S
C282 C283 1.370 . S
C282 C286 1.524 . S
C283 C275 1.503 . S
C283 C282 1.370 . S
C283 C284 1.403 . S
C284 C283 1.403 . S
C284 C285 1.404 . S
C284 C287 1.539 . S
C285 C281 1.408 . S
C285 C284 1.404 . S
C285 H297 0.930 . S
C286 C282 1.524 . S
C286 H298 0.956 . S
C286 H299 0.961 . S
C286 H300 0.961 . S
C287 C284 1.539 . S
C287 H301 0.958 . S
C287 H302 0.961 . S
C287 H303 0.960 . S
H288 C272 0.931 . S
H289 C277 0.929 . S
H290 C278 0.960 . S
H291 C278 0.962 . S
H292 C278 0.960 . S
H293 C279 0.961 . S
H294 C279 0.961 . S
H295 C279 0.961 . S
H296 C280 0.931 . S
H297 C285 0.930 . S
H298 C286 0.956 . S
H299 C286 0.961 . S
H300 C286 0.961 . S
H301 C287 0.958 . S
H302 C287 0.961 . S
H303 C287 0.960 . S
C304 C305 1.391 . S
C304 C306 1.394 . S
C304 H320 0.931 . S
C305 C304 1.391 . S
C305 C309 1.376 . S
C306 C304 1.394 . S
C306 C307 1.369 . S
C306 C310 1.531 . S
C307 C306 1.369 . S
C307 C308 1.410 . S
C307 C315 1.503 . S
C308 C307 1.410 . S
C308 C309 1.392 . S
C308 C311 1.511 . S
C309 C305 1.376 . S
C309 C308 1.392 . S
C309 H321 0.929 . S
C310 C306 1.531 . S
C310 H322 0.960 . S
C310 H323 0.962 . S
C310 H324 0.960 . S
C311 C308 1.511 . S
C311 H325 0.961 . S
C311 H326 0.961 . S
C311 H327 0.961 . S
C312 C313 1.370 . S
C312 C314 1.363 . S
C312 H328 0.931 . S
C313 C312 1.370 . S
C313 C317 1.408 . S
C314 C312 1.363 . S
C314 C315 1.370 . S
C314 C318 1.524 . S
C315 C307 1.503 . S
C315 C314 1.370 . S
C315 C316 1.403 . S
C316 C315 1.403 . S
C316 C317 1.404 . S
C316 C319 1.539 . S
C317 C313 1.408 . S
C317 C316 1.404 . S
C317 H329 0.930 . S
C318 C314 1.524 . S
C318 H330 0.956 . S
C318 H331 0.961 . S
C318 H332 0.961 . S
C319 C316 1.539 . S
C319 H333 0.958 . S
C319 H334 0.961 . S
C319 H335 0.960 . S
H320 C304 0.931 . S
H321 C309 0.929 . S
H322 C310 0.960 . S
H323 C310 0.962 . S
H324 C310 0.960 . S
H325 C311 0.961 . S
H326 C311 0.961 . S
H327 C311 0.961 . S
H328 C312 0.931 . S
H329 C317 0.930 . S
H330 C318 0.956 . S
H331 C318 0.961 . S
H332 C318 0.961 . S
H333 C319 0.958 . S
H334 C319 0.961 . S
H335 C319 0.960 . S
C336 C337 1.391 1_455 S
C336 C338 1.394 . S
C336 H352 0.937 . S
C337 C336 1.391 1_655 S
C337 C341 1.376 . S
C338 C336 1.394 . S
C338 C339 1.369 . S
C338 C342 1.531 . S
C339 C338 1.369 . S
C339 C340 1.410 . S
C339 C347 1.503 . S
C340 C339 1.410 . S
C340 C341 1.392 1_455 S
C340 C343 1.511 . S
C341 C337 1.376 . S
C341 C340 1.392 1_655 S
C341 H353 0.929 . S
C342 C338 1.531 . S
C342 H354 0.960 . S
C342 H355 0.962 . S
C342 H356 0.960 1_556 S
C343 C340 1.511 . S
C343 H357 0.961 . S
C343 H358 0.961 . S
C343 H359 0.961 . S
C344 C345 1.370 . S
C344 C346 1.363 . S
C344 H360 0.931 . S
C345 C344 1.370 . S
C345 C349 1.408 . S
C346 C344 1.363 . S
C346 C347 1.370 . S
C346 C350 1.524 . S
C347 C339 1.503 . S
C347 C346 1.370 . S
C347 C348 1.403 . S
C348 C347 1.403 . S
C348 C349 1.404 . S
C348 C351 1.539 . S
C349 C345 1.408 . S
C349 C348 1.404 . S
C349 H361 0.930 . S
C350 C346 1.524 . S
C350 H362 0.956 . S
C350 H363 0.961 . S
C350 H364 0.961 . S
C351 C348 1.539 . S
C351 H365 0.958 . S
C351 H366 0.961 . S
C351 H367 0.960 . S
H352 C336 0.937 . S
H353 C341 0.929 . S
H354 C342 0.960 . S
H355 C342 0.962 . S
H356 C342 0.960 1_554 S
H357 C343 0.961 . S
H358 C343 0.961 . S
H359 C343 0.961 . S
H360 C344 0.931 . S
H361 C349 0.930 . S
H362 C350 0.956 . S
H363 C350 0.961 . S
H364 C350 0.961 . S
H365 C351 0.958 . S
H366 C351 0.961 . S
H367 C351 0.960 . S
C368 C369 1.391 . S
C368 C370 1.394 . S
C368 H384 0.931 . S
C369 C368 1.391 . S
C369 C373 1.376 . S
C370 C368 1.394 . S
C370 C371 1.369 . S
C370 C374 1.531 . S
C371 C370 1.369 . S
C371 C372 1.410 . S
C371 C379 1.503 . S
C372 C371 1.410 . S
C372 C373 1.392 . S
C372 C375 1.511 . S
C373 C369 1.376 . S
C373 C372 1.392 . S
C373 H385 0.929 . S
C374 C370 1.531 . S
C374 H386 0.960 . S
C374 H387 0.962 . S
C374 H388 0.960 . S
C375 C372 1.511 . S
C375 H389 0.961 . S
C375 H390 0.961 . S
C375 H391 0.961 . S
C376 C377 1.370 . S
C376 C378 1.363 . S
C376 H392 0.931 . S
C377 C376 1.370 . S
C377 C381 1.408 . S
C378 C376 1.363 . S
C378 C379 1.370 . S
C378 C382 1.524 . S
C379 C371 1.503 . S
C379 C378 1.370 . S
C379 C380 1.403 . S
C380 C379 1.403 . S
C380 C381 1.404 . S
C380 C383 1.539 . S
C381 C377 1.408 . S
C381 C380 1.404 . S
C381 H393 0.930 . S
C382 C378 1.524 . S
C382 H394 0.956 . S
C382 H395 0.961 . S
C382 H396 0.961 . S
C383 C380 1.539 . S
C383 H397 0.958 . S
C383 H398 0.961 . S
C383 H399 0.960 . S
H384 C368 0.931 . S
H385 C373 0.929 . S
H386 C374 0.960 . S
H387 C374 0.962 . S
H388 C374 0.960 . S
H389 C375 0.961 . S
H390 C375 0.961 . S
H391 C375 0.961 . S
H392 C376 0.931 . S
H393 C381 0.930 . S
H394 C382 0.956 . S
H395 C382 0.961 . S
H396 C382 0.961 . S
H397 C383 0.958 . S
H398 C383 0.961 . S
H399 C383 0.960 . S
C400 C401 1.391 . S
C400 C402 1.394 . S
C400 H416 0.931 . S
C401 C400 1.391 . S
C401 C405 1.376 . S
C402 C400 1.394 . S
C402 C403 1.369 . S
C402 C406 1.531 . S
C403 C402 1.369 . S
C403 C404 1.410 . S
C403 C411 1.516 . S
C404 C403 1.410 . S
C404 C405 1.392 . S
C404 C407 1.511 1_455 S
C405 C401 1.376 . S
C405 C404 1.392 . S
C405 H417 0.929 . S
C406 C402 1.531 . S
C406 H418 0.960 . S
C406 H419 0.962 . S
C406 H420 0.960 . S
C407 C404 1.511 1_655 S
C407 H421 0.961 . S
C407 H422 0.961 . S
C407 H423 0.961 . S
C408 C409 1.370 . S
C408 C410 1.363 . S
C408 H424 0.931 . S
C409 C408 1.370 . S
C409 C413 1.408 . S
C410 C408 1.363 . S
C410 C411 1.366 1_655 S
C410 C414 1.524 1_655 S
C411 C403 1.516 . S
C411 C410 1.366 1_455 S
C411 C412 1.396 1_455 S
C412 C411 1.396 1_655 S
C412 C413 1.404 . S
C412 C415 1.539 . S
C413 C409 1.408 . S
C413 C412 1.404 . S
C413 H425 0.930 . S
C414 C410 1.524 1_455 S
C414 H426 0.956 . S
C414 H427 0.961 1_455 S
C414 H428 0.961 1_455 S
C415 C412 1.539 . S
C415 H429 0.958 1_655 S
C415 H430 0.961 . S
C415 H431 0.960 . S
H416 C400 0.931 . S
H417 C405 0.929 . S
H418 C406 0.960 . S
H419 C406 0.962 . S
H420 C406 0.960 . S
H421 C407 0.961 . S
H422 C407 0.961 . S
H423 C407 0.961 . S
H424 C408 0.931 . S
H425 C413 0.930 . S
H426 C414 0.956 . S
H427 C414 0.961 1_655 S
H428 C414 0.961 1_655 S
H429 C415 0.958 1_455 S
H430 C415 0.961 . S
H431 C415 0.960 . S
C432 C433 1.391 . S
C432 C434 1.394 . S
C432 H448 0.931 . S
C433 C432 1.391 . S
C433 C437 1.376 . S
C434 C432 1.394 . S
C434 C435 1.369 . S
C434 C438 1.549 . S
C435 C434 1.369 . S
C435 C436 1.410 . S
C435 C443 1.503 1_545 S
C436 C435 1.410 . S
C436 C437 1.392 . S
C436 C439 1.511 . S
C437 C433 1.376 . S
C437 C436 1.392 . S
C437 H449 0.929 . S
C438 C434 1.549 . S
C438 H450 0.954 1_545 S
C438 H451 0.931 1_545 S
C438 H452 0.980 . S
C439 C436 1.511 . S
C439 H453 0.961 . S
C439 H454 0.961 . S
C439 H455 0.961 . S
C440 C441 1.370 . S
C440 C442 1.363 . S
C440 H456 0.931 . S
C441 C440 1.370 . S
C441 C445 1.408 . S
C442 C440 1.363 . S
C442 C443 1.370 . S
C442 C446 1.524 . S
C443 C435 1.503 1_565 S
C443 C442 1.370 . S
C443 C444 1.403 . S
C444 C443 1.403 . S
C444 C445 1.404 . S
C444 C447 1.539 1_565 S
C445 C441 1.408 . S
C445 C444 1.404 . S
C445 H457 0.930 . S
C446 C442 1.524 . S
C446 H458 0.956 . S
C446 H459 0.961 . S
C446 H460 0.961 . S
C447 C444 1.539 1_545 S
C447 H461 0.958 . S
C447 H462 0.961 . S
C447 H463 0.960 . S
H448 C432 0.931 . S
H449 C437 0.929 . S
H450 C438 0.954 1_565 S
H451 C438 0.931 1_565 S
H452 C438 0.980 . S
H453 C439 0.961 . S
H454 C439 0.961 . S
H455 C439 0.961 . S
H456 C440 0.931 . S
H457 C445 0.930 . S
H458 C446 0.956 . S
H459 C446 0.961 . S
H460 C446 0.961 . S
H461 C447 0.958 . S
H462 C447 0.961 . S
H463 C447 0.960 . S
C464 C465 1.391 . S
C464 C466 1.394 . S
C464 H480 0.931 . S
C465 C464 1.391 . S
C465 C469 1.376 . S
C466 C464 1.394 . S
C466 C467 1.369 . S
C466 C470 1.531 . S
C467 C466 1.369 . S
C467 C468 1.410 . S
C467 C475 1.503 . S
C468 C467 1.410 . S
C468 C469 1.392 . S
C468 C471 1.511 . S
C469 C465 1.376 . S
C469 C468 1.392 . S
C469 H481 0.929 . S
C470 C466 1.531 . S
C470 H482 0.960 . S
C470 H483 0.962 . S
C470 H484 0.960 . S
C471 C468 1.511 . S
C471 H485 0.961 . S
C471 H486 0.961 . S
C471 H487 0.961 . S
C472 C473 1.370 . S
C472 C474 1.363 . S
C472 H488 0.931 . S
C473 C472 1.370 . S
C473 C477 1.408 . S
C474 C472 1.363 . S
C474 C475 1.370 . S
C474 C478 1.524 . S
C475 C467 1.503 . S
C475 C474 1.370 . S
C475 C476 1.403 . S
C476 C475 1.403 . S
C476 C477 1.404 . S
C476 C479 1.539 . S
C477 C473 1.408 . S
C477 C476 1.404 . S
C477 H489 0.930 . S
C478 C474 1.524 . S
C478 H490 0.956 . S
C478 H491 0.961 . S
C478 H492 0.961 . S
C479 C476 1.539 . S
C479 H493 0.958 . S
C479 H494 0.961 . S
C479 H495 0.960 . S
H480 C464 0.931 . S
H481 C469 0.929 . S
H482 C470 0.960 . S
H483 C470 0.962 . S
H484 C470 0.960 . S
H485 C471 0.961 . S
H486 C471 0.961 . S
H487 C471 0.961 . S
H488 C472 0.931 . S
H489 C477 0.930 . S
H490 C478 0.956 . S
H491 C478 0.961 . S
H492 C478 0.961 . S
H493 C479 0.958 . S
H494 C479 0.961 . S
H495 C479 0.960 . S
C496 C497 1.391 . S
C496 C498 1.394 . S
C496 H512 0.931 . S
C497 C496 1.391 . S
C497 C501 1.376 . S
C498 C496 1.394 . S
C498 C499 1.369 . S
C498 C502 1.531 . S
C499 C498 1.369 . S
C499 C500 1.410 . S
C499 C507 1.503 1_565 S
C500 C499 1.410 . S
C500 C501 1.392 . S
C500 C503 1.511 1_565 S
C501 C497 1.376 . S
C501 C500 1.392 . S
C501 H513 0.929 . S
C502 C498 1.531 . S
C502 H514 0.960 . S
C502 H515 0.962 . S
C502 H516 0.960 . S
C503 C500 1.511 1_545 S
C503 H517 0.961 . S
C503 H518 0.961 . S
C503 H519 0.961 . S
C504 C505 1.370 . S
C504 C506 1.363 . S
C504 H520 0.931 . S
C505 C504 1.370 . S
C505 C509 1.408 . S
C506 C504 1.363 . S
C506 C507 1.370 . S
C506 C510 1.524 . S
C507 C499 1.503 1_545 S
C507 C506 1.370 . S
C507 C508 1.403 . S
C508 C507 1.403 . S
C508 C509 1.404 . S
C508 C511 1.539 . S
C509 C505 1.408 . S
C509 C508 1.404 . S
C509 H521 0.930 . S
C510 C506 1.524 . S
C510 H522 0.956 . S
C510 H523 0.961 . S
C510 H524 0.961 . S
C511 C508 1.539 . S
C511 H525 0.958 1_545 S
C511 H526 0.961 . S
C511 H527 0.960 1_545 S
H512 C496 0.931 . S
H513 C501 0.929 . S
H514 C502 0.960 . S
H515 C502 0.962 . S
H516 C502 0.960 . S
H517 C503 0.961 . S
H518 C503 0.961 . S
H519 C503 0.961 . S
H520 C504 0.931 . S
H521 C509 0.930 . S
H522 C510 0.956 . S
H523 C510 0.961 . S
H524 C510 0.961 . S
H525 C511 0.958 1_565 S
H526 C511 0.961 . S
H527 C511 0.960 1_565 S
C528 C529 1.391 . S
C528 C530 1.394 . S
C528 H544 0.931 . S
C529 C528 1.391 . S
C529 C533 1.376 . S
C530 C528 1.394 . S
C530 C531 1.369 . S
C530 C534 1.531 . S
C531 C530 1.369 . S
C531 C532 1.410 . S
C531 C539 1.503 . S
C532 C531 1.410 . S
C532 C533 1.392 . S
C532 C535 1.511 . S
C533 C529 1.376 . S
C533 C532 1.392 . S
C533 H545 0.929 . S
C534 C530 1.531 . S
C534 H546 0.960 . S
C534 H547 0.962 . S
C534 H548 0.960 . S
C535 C532 1.511 . S
C535 H549 0.961 . S
C535 H550 0.961 . S
C535 H551 0.961 . S
C536 C537 1.370 . S
C536 C538 1.363 . S
C536 H552 0.931 . S
C537 C536 1.370 . S
C537 C541 1.408 . S
C538 C536 1.363 . S
C538 C539 1.370 . S
C538 C542 1.524 . S
C539 C531 1.503 . S
C539 C538 1.370 . S
C539 C540 1.403 . S
C540 C539 1.403 . S
C540 C541 1.404 . S
C540 C543 1.539 . S
C541 C537 1.408 . S
C541 C540 1.404 . S
C541 H553 0.930 . S
C542 C538 1.524 . S
C542 H554 0.956 . S
C542 H555 0.961 . S
C542 H556 0.961 . S
C543 C540 1.539 . S
C543 H557 0.958 . S
C543 H558 0.961 . S
C543 H559 0.960 . S
H544 C528 0.931 . S
H545 C533 0.929 . S
H546 C534 0.960 . S
H547 C534 0.962 . S
H548 C534 0.960 . S
H549 C535 0.961 . S
H550 C535 0.961 . S
H551 C535 0.961 . S
H552 C536 0.931 . S
H553 C541 0.930 . S
H554 C542 0.956 . S
H555 C542 0.961 . S
H556 C542 0.961 . S
H557 C543 0.958 . S
H558 C543 0.961 . S
H559 C543 0.960 . S
C560 C561 1.391 . S
C560 C562 1.394 . S
C560 H576 0.931 . S
C561 C560 1.391 . S
C561 C565 1.376 . S
C562 C560 1.394 . S
C562 C563 1.369 . S
C562 C566 1.531 . S
C563 C562 1.369 . S
C563 C564 1.410 . S
C563 C571 1.503 . S
C564 C563 1.410 . S
C564 C565 1.392 . S
C564 C567 1.511 . S
C565 C561 1.376 . S
C565 C564 1.392 . S
C565 H577 0.929 . S
C566 C562 1.531 . S
C566 H578 0.960 . S
C566 H579 0.962 . S
C566 H580 0.960 . S
C567 C564 1.511 . S
C567 H581 0.961 . S
C567 H582 0.961 . S
C567 H583 0.961 . S
C568 C569 1.370 . S
C568 C570 1.363 . S
C568 H584 0.931 . S
C569 C568 1.370 . S
C569 C573 1.408 . S
C570 C568 1.363 . S
C570 C571 1.370 . S
C570 C574 1.524 . S
C571 C563 1.503 . S
C571 C570 1.370 . S
C571 C572 1.403 . S
C572 C571 1.403 . S
C572 C573 1.404 . S
C572 C575 1.539 . S
C573 C569 1.408 . S
C573 C572 1.404 . S
C573 H585 0.930 . S
C574 C570 1.524 . S
C574 H586 0.956 . S
C574 H587 0.961 . S
C574 H588 0.961 . S
C575 C572 1.539 . S
C575 H589 0.958 . S
C575 H590 0.961 . S
C575 H591 0.960 . S
H576 C560 0.931 . S
H577 C565 0.929 . S
H578 C566 0.960 . S
H579 C566 0.962 . S
H580 C566 0.960 . S
H581 C567 0.961 . S
H582 C567 0.961 . S
H583 C567 0.961 . S
H584 C568 0.931 . S
H585 C573 0.930 . S
H586 C574 0.956 . S
H587 C574 0.961 . S
H588 C574 0.961 . S
H589 C575 0.958 . S
H590 C575 0.961 . S
H591 C575 0.960 . S
C592 C593 1.391 . S
C592 C594 1.394 1_455 S
C592 H608 0.931 . S
C593 C592 1.391 . S
C593 C597 1.376 1_455 S
C594 C592 1.394 1_655 S
C594 C595 1.369 . S
C594 C598 1.531 . S
C595 C594 1.369 . S
C595 C596 1.410 . S
C595 C603 1.503 . S
C596 C595 1.410 . S
C596 C597 1.392 . S
C596 C599 1.511 . S
C597 C593 1.376 1_655 S
C597 C596 1.392 . S
C597 H609 0.929 1_655 S
C598 C594 1.531 . S
C598 H610 0.960 . S
C598 H611 0.962 . S
C598 H612 0.960 . S
C599 C596 1.511 . S
C599 H613 0.961 . S
C599 H614 0.961 . S
C599 H615 0.961 . S
C600 C601 1.370 . S
C600 C602 1.363 . S
C600 H616 0.931 . S
C601 C600 1.370 . S
C601 C605 1.408 . S
C602 C600 1.363 . S
C602 C603 1.370 . S
C602 C606 1.524 . S
C603 C595 1.503 . S
C603 C602 1.370 . S
C603 C604 1.403 . S
C604 C603 1.403 . S
C604 C605 1.404 . S
C604 C607 1.539 . S
C605 C601 1.408 . S
C605 C604 1.404 . S
C605 H617 0.930 . S
C606 C602 1.524 . S
C606 H618 0.956 . S
C606 H619 0.961 . S
C606 H620 0.961 . S
C607 C604 1.539 . S
C607 H621 0.958 . S
C607 H622 0.961 . S
C607 H623 0.960 . S
H608 C592 0.931 . S
H609 C597 0.929 1_455 S
H610 C598 0.960 . S
H611 C598 0.962 . S
H612 C598 0.960 . S
H613 C599 0.961 . S
H614 C599 0.961 . S
H615 C599 0.961 . S
H616 C600 0.931 . S
H617 C605 0.930 . S
H618 C606 0.956 . S
H619 C606 0.961 . S
H620 C606 0.961 . S
H621 C607 0.958 . S
H622 C607 0.961 . S
H623 C607 0.960 . S
C624 C625 1.391 . S
C624 C626 1.394 . S
C624 H640 0.931 . S
C625 C624 1.391 . S
C625 C629 1.376 . S
C626 C624 1.394 . S
C626 C627 1.369 . S
C626 C630 1.531 . S
C627 C626 1.369 . S
C627 C628 1.410 . S
C627 C635 1.503 . S
C628 C627 1.410 . S
C628 C629 1.392 . S
C628 C631 1.511 . S
C629 C625 1.376 . S
C629 C628 1.392 . S
C629 H641 0.929 . S
C630 C626 1.531 . S
C630 H642 0.960 . S
C630 H643 0.962 . S
C630 H644 0.960 . S
C631 C628 1.511 . S
C631 H645 0.961 . S
C631 H646 0.961 . S
C631 H647 0.961 . S
C632 C633 1.370 . S
C632 C634 1.363 . S
C632 H648 0.931 . S
C633 C632 1.370 . S
C633 C637 1.408 . S
C634 C632 1.363 . S
C634 C635 1.370 . S
C634 C638 1.524 . S
C635 C627 1.503 . S
C635 C634 1.370 . S
C635 C636 1.403 . S
C636 C635 1.403 . S
C636 C637 1.404 . S
C636 C639 1.539 . S
C637 C633 1.408 . S
C637 C636 1.404 . S
C637 H649 0.930 . S
C638 C634 1.524 . S
C638 H650 0.956 . S
C638 H651 0.961 . S
C638 H652 0.961 . S
C639 C636 1.539 . S
C639 H653 0.958 . S
C639 H654 0.961 . S
C639 H655 0.960 . S
H640 C624 0.931 . S
H641 C629 0.929 . S
H642 C630 0.960 . S
H643 C630 0.962 . S
H644 C630 0.960 . S
H645 C631 0.961 . S
H646 C631 0.961 . S
H647 C631 0.961 . S
H648 C632 0.931 . S
H649 C637 0.930 . S
H650 C638 0.956 . S
H651 C638 0.961 . S
H652 C638 0.961 . S
H653 C639 0.958 . S
H654 C639 0.961 . S
H655 C639 0.960 . S
C656 C657 1.391 . S
C656 C658 1.394 . S
C656 H672 0.931 . S
C657 C656 1.391 . S
C657 C661 1.376 . S
C658 C656 1.394 . S
C658 C659 1.369 . S
C658 C662 1.531 . S
C659 C658 1.369 . S
C659 C660 1.410 . S
C659 C667 1.503 . S
C660 C659 1.410 . S
C660 C661 1.392 . S
C660 C663 1.511 1_655 S
C661 C657 1.376 . S
C661 C660 1.392 . S
C661 H673 0.929 . S
C662 C658 1.531 . S
C662 H674 0.960 . S
C662 H675 0.962 . S
C662 H676 0.960 . S
C663 C660 1.511 1_455 S
C663 H677 0.961 . S
C663 H678 0.961 . S
C663 H679 0.961 . S
C664 C665 1.370 . S
C664 C666 1.363 1_455 S
C664 H680 0.931 1_455 S
C665 C664 1.370 . S
C665 C669 1.408 . S
C666 C664 1.363 1_655 S
C666 C667 1.370 . S
C666 C670 1.524 . S
C667 C659 1.503 . S
C667 C666 1.370 . S
C667 C668 1.403 1_655 S
C668 C667 1.403 1_455 S
C668 C669 1.404 . S
C668 C671 1.539 . S
C669 C665 1.408 . S
C669 C668 1.404 . S
C669 H681 0.930 . S
C670 C666 1.524 . S
C670 H682 0.956 . S
C670 H683 0.961 . S
C670 H684 0.961 . S
C671 C668 1.539 . S
C671 H685 0.958 . S
C671 H686 0.961 . S
C671 H687 0.960 . S
H672 C656 0.931 . S
H673 C661 0.929 . S
H674 C662 0.960 . S
H675 C662 0.962 . S
H676 C662 0.960 . S
H677 C663 0.961 . S
H678 C663 0.961 . S
H679 C663 0.961 . S
H680 C664 0.931 1_655 S
H681 C669 0.930 . S
H682 C670 0.956 . S
H683 C670 0.961 . S
H684 C670 0.961 . S
H685 C671 0.958 . S
H686 C671 0.961 . S
H687 C671 0.960 . S
C688 C689 1.391 . S
C688 C690 1.394 . S
C688 H704 0.931 . S
C689 C688 1.391 . S
C689 C693 1.376 . S
C690 C688 1.394 . S
C690 C691 1.369 . S
C690 C694 1.531 . S
C691 C690 1.369 . S
C691 C692 1.410 . S
C691 C699 1.503 . S
C692 C691 1.410 . S
C692 C693 1.392 . S
C692 C695 1.511 . S
C693 C689 1.376 . S
C693 C692 1.392 . S
C693 H705 0.929 . S
C694 C690 1.531 . S
C694 H706 0.960 . S
C694 H707 0.962 . S
C694 H708 0.960 . S
C695 C692 1.511 . S
C695 H709 0.961 . S
C695 H710 0.961 . S
C695 H711 0.961 . S
C696 C697 1.370 . S
C696 C698 1.363 . S
C696 H712 0.931 . S
C697 C696 1.370 . S
C697 C701 1.408 . S
C698 C696 1.363 . S
C698 C699 1.370 . S
C698 C702 1.524 . S
C699 C691 1.503 . S
C699 C698 1.370 . S
C699 C700 1.403 . S
C700 C699 1.403 . S
C700 C701 1.404 . S
C700 C703 1.539 . S
C701 C697 1.408 . S
C701 C700 1.404 . S
C701 H713 0.930 . S
C702 C698 1.524 . S
C702 H714 0.956 . S
C702 H715 0.961 . S
C702 H716 0.961 . S
C703 C700 1.539 . S
C703 H717 0.958 . S
C703 H718 0.961 . S
C703 H719 0.960 . S
H704 C688 0.931 . S
H705 C693 0.929 . S
H706 C694 0.960 . S
H707 C694 0.962 . S
H708 C694 0.960 . S
H709 C695 0.961 . S
H710 C695 0.961 . S
H711 C695 0.961 . S
H712 C696 0.931 . S
H713 C701 0.930 . S
H714 C702 0.956 . S
H715 C702 0.961 . S
H716 C702 0.961 . S
H717 C703 0.958 . S
H718 C703 0.961 . S
H719 C703 0.960 . S
C720 C721 1.391 . S
C720 C722 1.394 . S
C720 H736 0.931 . S
C721 C720 1.391 . S
C721 C725 1.376 . S
C722 C720 1.394 . S
C722 C723 1.369 . S
C722 C726 1.531 . S
C723 C722 1.369 . S
C723 C724 1.410 . S
C723 C731 1.503 . S
C724 C723 1.410 . S
C724 C725 1.392 . S
C724 C727 1.511 . S
C725 C721 1.376 . S
C725 C724 1.392 . S
C725 H737 0.929 . S
C726 C722 1.531 . S
C726 H738 0.960 . S
C726 H739 0.962 . S
C726 H740 0.960 . S
C727 C724 1.511 . S
C727 H741 0.961 . S
C727 H742 0.961 . S
C727 H743 0.961 . S
C728 C729 1.370 . S
C728 C730 1.363 . S
C728 H744 0.931 . S
C729 C728 1.370 . S
C729 C733 1.408 . S
C730 C728 1.363 . S
C730 C731 1.370 . S
C730 C734 1.524 . S
C731 C723 1.503 . S
C731 C730 1.370 . S
C731 C732 1.403 . S
C732 C731 1.403 . S
C732 C733 1.404 . S
C732 C735 1.539 . S
C733 C729 1.408 . S
C733 C732 1.404 . S
C733 H745 0.930 . S
C734 C730 1.524 . S
C734 H746 0.956 . S
C734 H747 0.961 . S
C734 H748 0.961 . S
C735 C732 1.539 . S
C735 H749 0.958 . S
C735 H750 0.961 . S
C735 H751 0.960 . S
H736 C720 0.931 . S
H737 C725 0.929 . S
H738 C726 0.960 . S
H739 C726 0.962 . S
H740 C726 0.960 . S
H741 C727 0.961 . S
H742 C727 0.961 . S
H743 C727 0.961 . S
H744 C728 0.931 . S
H745 C733 0.930 . S
H746 C734 0.956 . S
H747 C734 0.961 . S
H748 C734 0.961 . S
H749 C735 0.958 . S
H750 C735 0.961 . S
H751 C735 0.960 . S
C752 C753 1.391 . S
C752 C754 1.394 . S
C752 H768 0.931 . S
C753 C752 1.391 . S
C753 C757 1.376 . S
C754 C752 1.394 . S
C754 C755 1.369 . S
C754 C758 1.531 . S
C755 C754 1.369 . S
C755 C756 1.410 . S
C755 C763 1.503 . S
C756 C755 1.410 . S
C756 C757 1.392 . S
C756 C759 1.511 . S
C757 C753 1.376 . S
C757 C756 1.392 . S
C757 H769 0.929 . S
C758 C754 1.531 . S
C758 H770 0.960 . S
C758 H771 0.962 . S
C758 H772 0.960 . S
C759 C756 1.511 . S
C759 H773 0.961 . S
C759 H774 0.961 . S
C759 H775 0.961 . S
C760 C761 1.370 . S
C760 C762 1.363 . S
C760 H776 0.931 . S
C761 C760 1.370 . S
C761 C765 1.408 . S
C762 C760 1.363 . S
C762 C763 1.370 . S
C762 C766 1.524 . S
C763 C755 1.503 . S
C763 C762 1.370 . S
C763 C764 1.403 . S
C764 C763 1.403 . S
C764 C765 1.404 . S
C764 C767 1.539 . S
C765 C761 1.408 . S
C765 C764 1.404 . S
C765 H777 0.930 . S
C766 C762 1.524 . S
C766 H778 0.956 . S
C766 H779 0.961 . S
C766 H780 0.961 . S
C767 C764 1.539 . S
C767 H781 0.958 . S
C767 H782 0.961 . S
C767 H783 0.960 . S
H768 C752 0.931 . S
H769 C757 0.929 . S
H770 C758 0.960 . S
H771 C758 0.962 . S
H772 C758 0.960 . S
H773 C759 0.961 . S
H774 C759 0.961 . S
H775 C759 0.961 . S
H776 C760 0.931 . S
H777 C765 0.930 . S
H778 C766 0.956 . S
H779 C766 0.961 . S
H780 C766 0.961 . S
H781 C767 0.958 . S
H782 C767 0.961 . S
H783 C767 0.960 . S
C784 C785 1.391 . S
C784 C786 1.394 . S
C784 H800 0.931 . S
C785 C784 1.391 . S
C785 C789 1.376 . S
C786 C784 1.394 . S
C786 C787 1.369 . S
C786 C790 1.531 . S
C787 C786 1.369 . S
C787 C788 1.410 . S
C787 C795 1.503 . S
C788 C787 1.410 . S
C788 C789 1.392 . S
C788 C791 1.511 . S
C789 C785 1.376 . S
C789 C788 1.392 . S
C789 H801 0.929 . S
C790 C786 1.531 . S
C790 H802 0.960 . S
C790 H803 0.962 . S
C790 H804 0.960 . S
C791 C788 1.511 . S
C791 H805 0.961 . S
C791 H806 0.961 . S
C791 H807 0.961 . S
C792 C793 1.370 . S
C792 C794 1.363 . S
C792 H808 0.931 . S
C793 C792 1.370 . S
C793 C797 1.408 . S
C794 C792 1.363 . S
C794 C795 1.370 . S
C794 C798 1.524 . S
C795 C787 1.503 . S
C795 C794 1.370 . S
C795 C796 1.403 . S
C796 C795 1.403 . S
C796 C797 1.404 . S
C796 C799 1.539 . S
C797 C793 1.408 . S
C797 C796 1.404 . S
C797 H809 0.930 . S
C798 C794 1.524 . S
C798 H810 0.956 . S
C798 H811 0.961 . S
C798 H812 0.961 . S
C799 C796 1.539 . S
C799 H813 0.958 . S
C799 H814 0.961 . S
C799 H815 0.960 . S
H800 C784 0.931 . S
H801 C789 0.929 . S
H802 C790 0.960 . S
H803 C790 0.962 . S
H804 C790 0.960 . S
H805 C791 0.961 . S
H806 C791 0.961 . S
H807 C791 0.961 . S
H808 C792 0.931 . S
H809 C797 0.930 . S
H810 C798 0.956 . S
H811 C798 0.961 . S
H812 C798 0.961 . S
H813 C799 0.958 . S
H814 C799 0.961 . S
H815 C799 0.960 . S
C816 C817 1.391 . S
C816 C818 1.394 . S
C816 H832 0.931 . S
C817 C816 1.391 . S
C817 C821 1.376 . S
C818 C816 1.394 . S
C818 C819 1.369 . S
C818 C822 1.531 . S
C819 C818 1.369 . S
C819 C820 1.410 . S
C819 C827 1.503 . S
C820 C819 1.410 . S
C820 C821 1.392 . S
C820 C823 1.511 . S
C821 C817 1.376 . S
C821 C820 1.392 . S
C821 H833 0.929 . S
C822 C818 1.531 . S
C822 H834 0.960 . S
C822 H835 0.962 . S
C822 H836 0.960 . S
C823 C820 1.511 . S
C823 H837 0.961 . S
C823 H838 0.961 . S
C823 H839 0.961 . S
C824 C825 1.370 . S
C824 C826 1.363 . S
C824 H840 0.931 . S
C825 C824 1.370 . S
C825 C829 1.408 . S
C826 C824 1.363 . S
C826 C827 1.370 . S
C826 C830 1.524 . S
C827 C819 1.503 . S
C827 C826 1.370 . S
C827 C828 1.403 . S
C828 C827 1.403 . S
C828 C829 1.404 . S
C828 C831 1.539 . S
C829 C825 1.408 . S
C829 C828 1.404 . S
C829 H841 0.930 . S
C830 C826 1.524 . S
C830 H842 0.956 . S
C830 H843 0.961 . S
C830 H844 0.961 . S
C831 C828 1.539 . S
C831 H845 0.958 . S
C831 H846 0.961 . S
C831 H847 0.960 . S
H832 C816 0.931 . S
H833 C821 0.929 . S
H834 C822 0.960 . S
H835 C822 0.962 . S
H836 C822 0.960 . S
H837 C823 0.961 . S
H838 C823 0.961 . S
H839 C823 0.961 . S
H840 C824 0.931 . S
H841 C829 0.930 . S
H842 C830 0.956 . S
H843 C830 0.961 . S
H844 C830 0.961 . S
H845 C831 0.958 . S
H846 C831 0.961 . S
H847 C831 0.960 . S
C848 C849 1.391 . S
C848 C850 1.394 . S
C848 H864 0.931 . S
C849 C848 1.391 . S
C849 C853 1.376 . S
C850 C848 1.394 . S
C850 C851 1.369 . S
C850 C854 1.531 . S
C851 C850 1.369 . S
C851 C852 1.410 . S
C851 C859 1.503 . S
C852 C851 1.410 . S
C852 C853 1.392 . S
C852 C855 1.511 . S
C853 C849 1.376 . S
C853 C852 1.392 . S
C853 H865 0.929 . S
C854 C850 1.531 . S
C854 H866 0.960 . S
C854 H867 0.962 . S
C854 H868 0.960 . S
C855 C852 1.511 . S
C855 H869 0.961 . S
C855 H870 0.961 . S
C855 H871 0.961 . S
C856 C857 1.370 . S
C856 C858 1.363 . S
C856 H872 0.931 . S
C857 C856 1.370 . S
C857 C861 1.408 . S
C858 C856 1.363 . S
C858 C859 1.370 . S
C858 C862 1.524 . S
C859 C851 1.503 . S
C859 C858 1.370 . S
C859 C860 1.403 . S
C860 C859 1.403 . S
C860 C861 1.404 . S
C860 C863 1.539 . S
C861 C857 1.408 . S
C861 C860 1.404 . S
C861 H873 0.930 . S
C862 C858 1.524 . S
C862 H874 0.956 . S
C862 H875 0.961 . S
C862 H876 0.961 . S
C863 C860 1.539 . S
C863 H877 0.958 . S
C863 H878 0.961 . S
C863 H879 0.960 . S
H864 C848 0.931 . S
H865 C853 0.929 . S
H866 C854 0.960 . S
H867 C854 0.962 . S
H868 C854 0.960 . S
H869 C855 0.961 . S
H870 C855 0.961 . S
H871 C855 0.961 . S
H872 C856 0.931 . S
H873 C861 0.930 . S
H874 C862 0.956 . S
H875 C862 0.961 . S
H876 C862 0.961 . S
H877 C863 0.958 . S
H878 C863 0.961 . S
H879 C863 0.960 . S
C880 C881 1.391 . S
C880 C882 1.394 . S
C880 H896 0.931 . S
C881 C880 1.391 . S
C881 C885 1.376 . S
C882 C880 1.394 . S
C882 C883 1.369 . S
C882 C886 1.531 . S
C883 C882 1.369 . S
C883 C884 1.410 . S
C883 C891 1.503 . S
C884 C883 1.410 . S
C884 C885 1.392 . S
C884 C887 1.511 . S
C885 C881 1.376 . S
C885 C884 1.392 . S
C885 H897 0.929 . S
C886 C882 1.531 . S
C886 H898 0.960 . S
C886 H899 0.962 . S
C886 H900 0.960 . S
C887 C884 1.511 . S
C887 H901 0.961 . S
C887 H902 0.961 . S
C887 H903 0.961 . S
C888 C889 1.370 . S
C888 C890 1.363 . S
C888 H904 0.931 . S
C889 C888 1.370 . S
C889 C893 1.408 . S
C890 C888 1.363 . S
C890 C891 1.370 . S
C890 C894 1.524 . S
C891 C883 1.503 . S
C891 C890 1.370 . S
C891 C892 1.403 . S
C892 C891 1.403 . S
C892 C893 1.404 . S
C892 C895 1.539 . S
C893 C889 1.408 . S
C893 C892 1.404 . S
C893 H905 0.930 . S
C894 C890 1.524 . S
C894 H906 0.956 . S
C894 H907 0.961 . S
C894 H908 0.961 . S
C895 C892 1.539 . S
C895 H909 0.958 . S
C895 H910 0.961 . S
C895 H911 0.960 . S
H896 C880 0.931 . S
H897 C885 0.929 . S
H898 C886 0.960 . S
H899 C886 0.962 . S
H900 C886 0.960 . S
H901 C887 0.961 . S
H902 C887 0.961 . S
H903 C887 0.961 . S
H904 C888 0.931 . S
H905 C893 0.930 . S
H906 C894 0.956 . S
H907 C894 0.961 . S
H908 C894 0.961 . S
H909 C895 0.958 . S
H910 C895 0.961 . S
H911 C895 0.960 . S
C912 C913 1.391 . S
C912 C914 1.394 . S
C912 H928 0.931 . S
C913 C912 1.391 . S
C913 C917 1.376 . S
C914 C912 1.394 . S
C914 C915 1.369 . S
C914 C918 1.531 . S
C915 C914 1.369 . S
C915 C916 1.410 . S
C915 C923 1.503 . S
C916 C915 1.410 . S
C916 C917 1.392 . S
C916 C919 1.511 . S
C917 C913 1.376 . S
C917 C916 1.392 . S
C917 H929 0.929 . S
C918 C914 1.531 . S
C918 H930 0.960 . S
C918 H931 0.962 . S
C918 H932 0.960 . S
C919 C916 1.511 . S
C919 H933 0.961 . S
C919 H934 0.961 . S
C919 H935 0.961 . S
C920 C921 1.370 . S
C920 C922 1.363 . S
C920 H936 0.931 . S
C921 C920 1.370 . S
C921 C925 1.408 . S
C922 C920 1.363 . S
C922 C923 1.370 . S
C922 C926 1.524 . S
C923 C915 1.503 . S
C923 C922 1.370 . S
C923 C924 1.403 . S
C924 C923 1.403 . S
C924 C925 1.404 . S
C924 C927 1.539 . S
C925 C921 1.408 . S
C925 C924 1.404 . S
C925 H937 0.930 . S
C926 C922 1.524 . S
C926 H938 0.956 . S
C926 H939 0.961 . S
C926 H940 0.961 . S
C927 C924 1.539 . S
C927 H941 0.958 . S
C927 H942 0.961 . S
C927 H943 0.960 . S
H928 C912 0.931 . S
H929 C917 0.929 . S
H930 C918 0.960 . S
H931 C918 0.962 . S
H932 C918 0.960 . S
H933 C919 0.961 . S
H934 C919 0.961 . S
H935 C919 0.961 . S
H936 C920 0.931 . S
H937 C925 0.930 . S
H938 C926 0.956 . S
H939 C926 0.961 . S
H940 C926 0.961 . S
H941 C927 0.958 . S
H942 C927 0.961 . S
H943 C927 0.960 . S
C177 C8 1.450 . S
C185 C93 1.399 . S
C209 C31 1.385 . S
C217 C104 1.321 . S
C241 C53 1.365 . S
C249 C114 1.311 . S
C281 C126 1.362 . S
C273 C74 1.353 . S
C313 C137 1.399 . S
C305 C26 1.450 . S
C337 C48 1.335 . S
C345 C148 1.341 . S
C369 C71 1.379 . S
C377 C158 1.342 . S
C401 C5 1.380 . S
C409 C170 1.317 . S
C433 C50 1.318 . S
C441 C169 1.293 . S
C473 C136 1.188 . S
C465 C70 1.220 . S
C505 C147 1.297 . S
C497 C4 1.351 1_556 S
C529 C28 1.364 . S
C537 C159 1.372 . S
C569 C103 1.266 . S
C561 C73 1.272 . S
C593 C7 1.393 . S
C601 C115 1.355 . S
C633 C125 1.300 . S
C625 C30 1.300 . S
C665 C92 1.154 . S
C657 C52 1.177 . S
C697 C164 1.424 . S
C689 C9 1.445 . S
C729 C175 1.428 . S
C721 C29 1.401 . S
C753 C51 1.341 . S
C761 C142 1.377 . S
C793 C153 1.384 . S
C785 C75 1.401 . S
C825 C120 1.429 . S
C817 C27 1.450 . S
C849 C49 1.393 . S
C857 C131 1.377 . S
C889 C98 1.376 . S
C881 C72 1.372 . S
C921 C109 1.421 . S
C913 C6 1.418 1_556 S
