# Generated by pormake.
# Topology ctn, (3,4)-cn, num edge types: 1
# Building blocks:
#     Node 0, Type 0, BuildingBlock: PAMTOO_clean_linker_0, # of connection points: 3
#     Node 1, Type 0, BuildingBlock: PAMTOO_clean_linker_0, # of connection points: 3
#     Node 2, Type 0, BuildingBlock: PAMTOO_clean_linker_0, # of connection points: 3
#     Node 3, Type 0, BuildingBlock: PAMTOO_clean_linker_0, # of connection points: 3
#     Node 4, Type 0, BuildingBlock: PAMTOO_clean_linker_0, # of connection points: 3
#     Node 5, Type 0, BuildingBlock: PAMTOO_clean_linker_0, # of connection points: 3
#     Node 6, Type 0, BuildingBlock: PAMTOO_clean_linker_0, # of connection points: 3
#     Node 7, Type 0, BuildingBlock: PAMTOO_clean_linker_0, # of connection points: 3
#     Node 8, Type 0, BuildingBlock: PAMTOO_clean_linker_0, # of connection points: 3
#     Node 9, Type 0, BuildingBlock: PAMTOO_clean_linker_0, # of connection points: 3
#     Node 10, Type 0, BuildingBlock: PAMTOO_clean_linker_0, # of connection points: 3
#     Node 11, Type 0, BuildingBlock: PAMTOO_clean_linker_0, # of connection points: 3
#     Node 12, Type 0, BuildingBlock: PAMTOO_clean_linker_0, # of connection points: 3
#     Node 13, Type 0, BuildingBlock: PAMTOO_clean_linker_0, # of connection points: 3
#     Node 14, Type 0, BuildingBlock: PAMTOO_clean_linker_0, # of connection points: 3
#     Node 15, Type 0, BuildingBlock: PAMTOO_clean_linker_0, # of connection points: 3
#     Node 16, Type 1, BuildingBlock: UXUYUI_clean_sbu_0, # of connection points: 4
#     Node 17, Type 1, BuildingBlock: UXUYUI_clean_sbu_0, # of connection points: 4
#     Node 18, Type 1, BuildingBlock: UXUYUI_clean_sbu_0, # of connection points: 4
#     Node 19, Type 1, BuildingBlock: UXUYUI_clean_sbu_0, # of connection points: 4
#     Node 20, Type 1, BuildingBlock: UXUYUI_clean_sbu_0, # of connection points: 4
#     Node 21, Type 1, BuildingBlock: UXUYUI_clean_sbu_0, # of connection points: 4
#     Node 22, Type 1, BuildingBlock: UXUYUI_clean_sbu_0, # of connection points: 4
#     Node 23, Type 1, BuildingBlock: UXUYUI_clean_sbu_0, # of connection points: 4
#     Node 24, Type 1, BuildingBlock: UXUYUI_clean_sbu_0, # of connection points: 4
#     Node 25, Type 1, BuildingBlock: UXUYUI_clean_sbu_0, # of connection points: 4
#     Node 26, Type 1, BuildingBlock: UXUYUI_clean_sbu_0, # of connection points: 4
#     Node 27, Type 1, BuildingBlock: UXUYUI_clean_sbu_0, # of connection points: 4
#     Edge 28, Type (0, 1), BuildingBlock: ZUJKAS_clean_linker_0, # of connection points: 2
#     Edge 29, Type (0, 1), BuildingBlock: ZUJKAS_clean_linker_0, # of connection points: 2
#     Edge 30, Type (0, 1), BuildingBlock: ZUJKAS_clean_linker_0, # of connection points: 2
#     Edge 31, Type (0, 1), BuildingBlock: ZUJKAS_clean_linker_0, # of connection points: 2
#     Edge 32, Type (0, 1), BuildingBlock: ZUJKAS_clean_linker_0, # of connection points: 2
#     Edge 33, Type (0, 1), BuildingBlock: ZUJKAS_clean_linker_0, # of connection points: 2
#     Edge 34, Type (0, 1), BuildingBlock: ZUJKAS_clean_linker_0, # of connection points: 2
#     Edge 35, Type (0, 1), BuildingBlock: ZUJKAS_clean_linker_0, # of connection points: 2
#     Edge 36, Type (0, 1), BuildingBlock: ZUJKAS_clean_linker_0, # of connection points: 2
#     Edge 37, Type (0, 1), BuildingBlock: ZUJKAS_clean_linker_0, # of connection points: 2
#     Edge 38, Type (0, 1), BuildingBlock: ZUJKAS_clean_linker_0, # of connection points: 2
#     Edge 39, Type (0, 1), BuildingBlock: ZUJKAS_clean_linker_0, # of connection points: 2
#     Edge 40, Type (0, 1), BuildingBlock: ZUJKAS_clean_linker_0, # of connection points: 2
#     Edge 41, Type (0, 1), BuildingBlock: ZUJKAS_clean_linker_0, # of connection points: 2
#     Edge 42, Type (0, 1), BuildingBlock: ZUJKAS_clean_linker_0, # of connection points: 2
#     Edge 43, Type (0, 1), BuildingBlock: ZUJKAS_clean_linker_0, # of connection points: 2
#     Edge 44, Type (0, 1), BuildingBlock: ZUJKAS_clean_linker_0, # of connection points: 2
#     Edge 45, Type (0, 1), BuildingBlock: ZUJKAS_clean_linker_0, # of connection points: 2
#     Edge 46, Type (0, 1), BuildingBlock: ZUJKAS_clean_linker_0, # of connection points: 2
#     Edge 47, Type (0, 1), BuildingBlock: ZUJKAS_clean_linker_0, # of connection points: 2
#     Edge 48, Type (0, 1), BuildingBlock: ZUJKAS_clean_linker_0, # of connection points: 2
#     Edge 49, Type (0, 1), BuildingBlock: ZUJKAS_clean_linker_0, # of connection points: 2
#     Edge 50, Type (0, 1), BuildingBlock: ZUJKAS_clean_linker_0, # of connection points: 2
#     Edge 51, Type (0, 1), BuildingBlock: ZUJKAS_clean_linker_0, # of connection points: 2
#     Edge 52, Type (0, 1), BuildingBlock: ZUJKAS_clean_linker_0, # of connection points: 2
#     Edge 53, Type (0, 1), BuildingBlock: ZUJKAS_clean_linker_0, # of connection points: 2
#     Edge 54, Type (0, 1), BuildingBlock: ZUJKAS_clean_linker_0, # of connection points: 2
#     Edge 55, Type (0, 1), BuildingBlock: ZUJKAS_clean_linker_0, # of connection points: 2
#     Edge 56, Type (0, 1), BuildingBlock: ZUJKAS_clean_linker_0, # of connection points: 2
#     Edge 57, Type (0, 1), BuildingBlock: ZUJKAS_clean_linker_0, # of connection points: 2
#     Edge 58, Type (0, 1), BuildingBlock: ZUJKAS_clean_linker_0, # of connection points: 2
#     Edge 59, Type (0, 1), BuildingBlock: ZUJKAS_clean_linker_0, # of connection points: 2
#     Edge 60, Type (0, 1), BuildingBlock: ZUJKAS_clean_linker_0, # of connection points: 2
#     Edge 61, Type (0, 1), BuildingBlock: ZUJKAS_clean_linker_0, # of connection points: 2
#     Edge 62, Type (0, 1), BuildingBlock: ZUJKAS_clean_linker_0, # of connection points: 2
#     Edge 63, Type (0, 1), BuildingBlock: ZUJKAS_clean_linker_0, # of connection points: 2
#     Edge 64, Type (0, 1), BuildingBlock: ZUJKAS_clean_linker_0, # of connection points: 2
#     Edge 65, Type (0, 1), BuildingBlock: ZUJKAS_clean_linker_0, # of connection points: 2
#     Edge 66, Type (0, 1), BuildingBlock: ZUJKAS_clean_linker_0, # of connection points: 2
#     Edge 67, Type (0, 1), BuildingBlock: ZUJKAS_clean_linker_0, # of connection points: 2
#     Edge 68, Type (0, 1), BuildingBlock: ZUJKAS_clean_linker_0, # of connection points: 2
#     Edge 69, Type (0, 1), BuildingBlock: ZUJKAS_clean_linker_0, # of connection points: 2
#     Edge 70, Type (0, 1), BuildingBlock: ZUJKAS_clean_linker_0, # of connection points: 2
#     Edge 71, Type (0, 1), BuildingBlock: ZUJKAS_clean_linker_0, # of connection points: 2
#     Edge 72, Type (0, 1), BuildingBlock: ZUJKAS_clean_linker_0, # of connection points: 2
#     Edge 73, Type (0, 1), BuildingBlock: ZUJKAS_clean_linker_0, # of connection points: 2
#     Edge 74, Type (0, 1), BuildingBlock: ZUJKAS_clean_linker_0, # of connection points: 2
#     Edge 75, Type (0, 1), BuildingBlock: ZUJKAS_clean_linker_0, # of connection points: 2
# Relax obj value: 0.062
# Max RMSD: 0.182
# Mean RMSD: 0.116
data_MOF--net-ctn--node1-UXUYUI_clean_sbu_0--node2-PAMTOO_clean_linker_0--edge1-ZUJKAS_clean_linker_0
_symmetry_space_group_name_H-M    P1
_symmetry_Int_Tables_number       1
_symmetry_cell_setting            triclinic
loop_
_symmetry_equiv_pos_as_xyz
'x, y, z'
_cell_length_a     82.903691
_cell_length_b     83.340367
_cell_length_c     84.775853
_cell_angle_alpha  85.459173
_cell_angle_beta   92.31589
_cell_angle_gamma 96.939037
loop_
_atom_site_label
_atom_site_type_symbol
_atom_site_fract_x
_atom_site_fract_y
_atom_site_fract_z
_atom_type_partial_charge
H0 H 0.02241 0.06976 0.06035 0.0
H1 H 0.04511 0.027 0.07529 0.0
H2 H 0.0577 0.05347 0.03125 0.0
H3 H 0.0517 0.01754 0.03151 0.0
C4 C 0.05838 0.01457 0.04282 0.0
O5 O 0.06304 0.02849 0.05044 0.0
H6 H 0.05005 0.00606 0.0504 0.0
C7 C 0.0308 0.0612 0.05828 0.0
C8 C 0.03983 0.06336 0.04442 0.0
C9 C 0.0325 0.04811 0.06953 0.0
C10 C 0.04343 0.03708 0.06674 0.0
C11 C 0.05246 0.03908 0.05296 0.0
C12 C 0.0507 0.05218 0.04189 0.0
H13 H 0.3082 0.70344 0.25965 0.0
H14 H 0.27842 0.71616 0.21879 0.0
H15 H 0.3192 0.7492 0.23262 0.0
H16 H 0.28916 0.76405 0.22311 0.0
C17 C 0.28443 0.75592 0.21374 0.0
O18 O 0.29487 0.74446 0.21234 0.0
H19 H 0.27226 0.74985 0.21726 0.0
C20 C 0.30563 0.7118 0.24967 0.0
C21 C 0.31549 0.7267 0.24737 0.0
C22 C 0.29213 0.70784 0.23951 0.0
C23 C 0.28861 0.719 0.22691 0.0
C24 C 0.2983 0.73389 0.22457 0.0
C25 C 0.31169 0.73772 0.23474 0.0
H26 H 0.97496 0.49166 0.09699 0.0
H27 H 0.9595 0.47138 0.0528 0.0
H28 H 0.99911 0.45371 0.08006 0.0
H29 H 0.00423 0.45985 0.04609 0.0
C30 C 0.99173 0.45591 0.04149 0.0
O31 O 0.98151 0.45142 0.05393 0.0
H32 H 0.98742 0.46636 0.0342 0.0
C33 C 0.97597 0.48304 0.08826 0.0
C34 C 0.98815 0.4726 0.09035 0.0
C35 C 0.96554 0.48286 0.07471 0.0
C36 C 0.96746 0.47197 0.06324 0.0
C37 C 0.97963 0.46165 0.06515 0.0
C38 C 0.98987 0.46192 0.07868 0.0
H39 H 0.71222 0.81735 0.25806 0.0
H40 H 0.69732 0.77116 0.23925 0.0
H41 H 0.73991 0.80061 0.22203 0.0
H42 H 0.71623 0.78609 0.1985 0.0
C43 C 0.71396 0.77369 0.20453 0.0
O44 O 0.7211 0.77338 0.21952 0.0
H45 H 0.70057 0.77061 0.2054 0.0
C46 C 0.71397 0.80832 0.24996 0.0
C47 C 0.72739 0.81084 0.24006 0.0
C48 C 0.70303 0.79405 0.24984 0.0
C49 C 0.7057 0.78216 0.23969 0.0
C50 C 0.71894 0.78461 0.22966 0.0
C51 C 0.7298 0.79884 0.22995 0.0
H52 H 0.07922 0.97049 0.50868 0.0
H53 H 0.03543 0.95813 0.48096 0.0
H54 H 0.06775 1.00043 0.46687 0.0
H55 H 0.0339 0.00546 0.4639 0.0
C56 C 0.02827 0.99301 0.46166 0.0
O57 O 0.04027 0.98311 0.46037 0.0
H58 H 0.02054 0.98833 0.47186 0.0
C59 C 0.07126 0.97304 0.49856 0.0
C60 C 0.07537 0.98678 0.48813 0.0
C61 C 0.05695 0.96253 0.49606 0.0
C62 C 0.04663 0.96595 0.483 0.0
C63 C 0.05047 0.97971 0.47267 0.0
C64 C 0.06484 0.98999 0.47514 0.0
H65 H 0.21019 0.75614 0.81027 0.0
H66 H 0.22499 0.71776 0.78503 0.0
H67 H 0.25245 0.73317 0.82616 0.0
H68 H 0.27325 0.72454 0.80287 0.0
C69 C 0.2643 0.71697 0.79564 0.0
O70 O 0.25006 0.71314 0.80374 0.0
H71 H 0.26183 0.72403 0.78426 0.0
C72 C 0.21862 0.74744 0.80878 0.0
C73 C 0.2317 0.74611 0.81973 0.0
C74 C 0.21598 0.73723 0.79626 0.0
C75 C 0.22667 0.72563 0.79469 0.0
C76 C 0.23977 0.72425 0.80545 0.0
C77 C 0.24219 0.73434 0.818 0.0
H78 H 0.96218 0.56499 0.51088 0.0
H79 H 0.97969 0.54027 0.4734 0.0
H80 H 0.00943 0.58053 0.4919 0.0
H81 H 0.01331 0.58029 0.45781 0.0
C82 C 0.00764 0.56768 0.45633 0.0
O83 O 0.00712 0.559 0.47088 0.0
H84 H 0.99512 0.56839 0.45122 0.0
C85 C 0.97168 0.56345 0.50292 0.0
C86 C 0.98615 0.57418 0.50292 0.0
C87 C 0.96912 0.55112 0.49235 0.0
C88 C 0.98125 0.54972 0.48159 0.0
C89 C 0.99564 0.5604 0.4814 0.0
C90 C 0.99813 0.5725 0.49208 0.0
H91 H 0.78749 0.80666 0.84783 0.0
H92 H 0.82459 0.7814 0.83013 0.0
H93 H 0.8071 0.8209 0.80181 0.0
H94 H 0.81319 0.79448 0.78317 0.0
C95 C 0.82234 0.78891 0.7911 0.0
O96 O 0.82702 0.79878 0.8032 0.0
H97 H 0.81657 0.77689 0.79602 0.0
C98 C 0.79589 0.80524 0.83872 0.0
C99 C 0.79603 0.8154 0.82463 0.0
C100 C 0.80604 0.79282 0.84084 0.0
C101 C 0.81652 0.79075 0.82871 0.0
C102 C 0.81681 0.80083 0.81471 0.0
C103 C 0.80663 0.81312 0.81269 0.0
H104 H 0.28686 0.30554 0.34733 0.0
H105 H 0.3251 0.28168 0.32985 0.0
H106 H 0.3065 0.32046 0.30141 0.0
H107 H 0.31257 0.29254 0.28376 0.0
C108 C 0.3228 0.28831 0.29122 0.0
O109 O 0.327 0.29893 0.30281 0.0
H110 H 0.31874 0.276 0.29674 0.0
C111 C 0.29542 0.30445 0.33826 0.0
C112 C 0.29535 0.31465 0.32418 0.0
C113 C 0.30603 0.29243 0.34044 0.0
C114 C 0.3167 0.29073 0.32838 0.0
C115 C 0.31671 0.30074 0.31434 0.0
C116 C 0.30614 0.31267 0.31228 0.0
H117 H 0.4758 0.99415 0.59729 0.0
H118 H 0.45918 0.97269 0.55406 0.0
H119 H 0.49907 0.95518 0.58101 0.0
H120 H 0.50265 0.96181 0.54612 0.0
C121 C 0.49026 0.9565 0.54232 0.0
O122 O 0.48083 0.95227 0.55539 0.0
H123 H 0.48474 0.96585 0.53447 0.0
C124 C 0.47675 0.98535 0.58873 0.0
C125 C 0.48881 0.97477 0.59093 0.0
C126 C 0.46589 0.98468 0.57553 0.0
C127 C 0.46725 0.97329 0.56442 0.0
C128 C 0.47935 0.96289 0.56635 0.0
C129 C 0.48999 0.96355 0.57959 0.0
H130 H 0.21555 0.31743 0.7604 0.0
H131 H 0.19806 0.2724 0.74031 0.0
H132 H 0.24137 0.30053 0.72309 0.0
H133 H 0.21667 0.28744 0.69952 0.0
C134 C 0.2142 0.27494 0.70527 0.0
O135 O 0.22143 0.2741 0.72021 0.0
H136 H 0.20079 0.27207 0.70618 0.0
C137 C 0.21676 0.30842 0.75211 0.0
C138 C 0.22987 0.31071 0.74185 0.0
C139 C 0.20513 0.29467 0.7517 0.0
C140 C 0.20692 0.28303 0.74096 0.0
C141 C 0.2199 0.28525 0.73063 0.0
C142 C 0.23132 0.29903 0.73108 0.0
H143 H 0.80683 0.20392 0.76005 0.0
H144 H 0.77761 0.21586 0.71853 0.0
H145 H 0.81871 0.24875 0.73175 0.0
H146 H 0.79025 0.26457 0.72165 0.0
C147 C 0.78449 0.25597 0.7131 0.0
O148 O 0.79426 0.24393 0.71167 0.0
H149 H 0.7725 0.25058 0.71774 0.0
C150 C 0.80447 0.212 0.74979 0.0
C151 C 0.81459 0.22671 0.74714 0.0
C152 C 0.79104 0.20786 0.73959 0.0
C153 C 0.78774 0.21878 0.72668 0.0
C154 C 0.79762 0.23352 0.72405 0.0
C155 C 0.81103 0.23741 0.73416 0.0
H156 H 0.52333 0.56979 0.56048 0.0
H157 H 0.54535 0.52626 0.57372 0.0
H158 H 0.55989 0.55533 0.53159 0.0
H159 H 0.55332 0.51923 0.52973 0.0
C160 C 0.55972 0.51563 0.54103 0.0
O161 O 0.56416 0.52911 0.54939 0.0
H162 H 0.55128 0.50674 0.5481 0.0
C163 C 0.532 0.56153 0.55831 0.0
C164 C 0.5415 0.56443 0.54477 0.0
C165 C 0.53323 0.5478 0.56885 0.0
C166 C 0.54407 0.53683 0.56567 0.0
C167 C 0.55352 0.53954 0.55219 0.0
C168 C 0.55226 0.55328 0.54181 0.0
H169 H 0.57906 0.47139 0.00802 0.0
H170 H 0.53506 0.45895 0.98054 0.0
H171 H 0.56616 0.50242 0.96757 0.0
H172 H 0.53115 0.50582 0.96654 0.0
C173 C 0.5263 0.49362 0.96279 0.0
O174 O 0.53896 0.48471 0.96088 0.0
H175 H 0.51826 0.48748 0.97221 0.0
C176 C 0.57095 0.47391 0.99802 0.0
C177 C 0.57455 0.4881 0.98804 0.0
C178 C 0.55672 0.46326 0.99553 0.0
C179 C 0.54601 0.46702 0.98286 0.0
C180 C 0.54939 0.48119 0.97296 0.0
C181 C 0.56362 0.49164 0.9755 0.0
H182 H 0.71007 0.25679 0.30979 0.0
H183 H 0.72548 0.21899 0.28417 0.0
H184 H 0.75297 0.23465 0.32518 0.0
H185 H 0.77301 0.22829 0.2987 0.0
C186 C 0.76438 0.21892 0.29316 0.0
O187 O 0.75099 0.21501 0.30246 0.0
H188 H 0.76063 0.22405 0.28124 0.0
C189 C 0.71852 0.2481 0.30834 0.0
C190 C 0.73177 0.24703 0.31912 0.0
C191 C 0.71606 0.23803 0.29569 0.0
C192 C 0.72705 0.22679 0.2939 0.0
C193 C 0.74041 0.22577 0.3044 0.0
C194 C 0.74273 0.2358 0.31699 0.0
H195 H 0.4607 0.06383 0.01083 0.0
H196 H 0.47862 0.03989 0.97304 0.0
H197 H 0.50776 0.08043 0.99182 0.0
H198 H 0.51282 0.07992 0.95801 0.0
C199 C 0.50688 0.06742 0.95647 0.0
O200 O 0.5061 0.0587 0.971 0.0
H201 H 0.49443 0.06843 0.9513 0.0
C202 C 0.47013 0.06276 1.00262 0.0
C203 C 0.48446 0.07368 1.00271 0.0
C204 C 0.46784 0.0505 0.99198 0.0
C205 C 0.48008 0.04928 0.98129 0.0
C206 C 0.49442 0.06002 0.98133 0.0
C207 C 0.49666 0.07209 0.99207 0.0
Li208 Li 0.27103 0.9061 1.00282 0.0
Li209 Li 0.257 0.88393 0.01967 0.0
Li210 Li 0.25253 0.88493 0.99014 0.0
Li211 Li 0.24059 0.90337 0.00647 0.0
C212 C 0.28732 0.87948 0.99741 0.0
N213 N 0.31652 0.87332 0.98594 0.0
C214 C 0.29898 0.8731 0.00765 0.0
C215 C 0.29041 0.88246 0.9813 0.0
C216 C 0.31371 0.87016 1.00163 0.0
C217 C 0.30526 0.87933 0.97574 0.0
C218 C 0.26158 0.90816 0.03821 0.0
C219 C 0.25225 0.90321 0.06494 0.0
N220 N 0.26745 0.90836 0.07052 0.0
C221 C 0.27707 0.91355 0.0442 0.0
C222 C 0.24902 0.90309 0.04865 0.0
C223 C 0.27981 0.91352 0.06058 0.0
C224 C 0.29036 0.93507 0.99199 0.0
N225 N 0.29053 0.92069 1.00074 0.0
C226 C 0.31873 0.92711 0.00744 0.0
C227 C 0.3043 0.91662 0.00849 0.0
C228 C 0.319 0.94197 0.99834 0.0
C229 C 0.30456 0.94589 0.99052 0.0
H230 H 0.27916 0.9382 0.98625 0.0
H231 H 0.30402 0.90532 0.0157 0.0
C232 C 0.24728 0.85914 0.04351 0.0
N233 N 0.25979 0.87011 0.03836 0.0
C234 C 0.24908 0.84933 0.05747 0.0
C235 C 0.27667 0.86215 0.06042 0.0
C236 C 0.27433 0.87169 0.04642 0.0
C237 C 0.26392 0.8508 0.06617 0.0
H238 H 0.23587 0.85806 0.03684 0.0
H239 H 0.28408 0.8805 0.04203 0.0
C240 C 0.25255 0.91476 0.97123 0.0
N241 N 0.2514 0.92653 0.93982 0.0
C242 C 0.23806 0.91932 0.96426 0.0
C243 C 0.26654 0.91648 0.96227 0.0
C244 C 0.2377 0.92516 0.94836 0.0
C245 C 0.26569 0.92237 0.9464 0.0
C246 C 0.21989 0.87595 0.00708 0.0
C247 C 0.21129 0.87149 0.99327 0.0
C248 C 0.21144 0.8771 0.02081 0.0
C249 C 0.19435 0.86847 0.99337 0.0
C250 C 0.19449 0.87401 0.02042 0.0
N251 N 0.18637 0.86981 0.00683 0.0
C252 C 0.25606 0.85736 0.97446 0.0
C253 C 0.24185 0.87617 0.95875 0.0
C254 C 0.25496 0.847 0.9622 0.0
N255 N 0.24974 0.87172 0.97249 0.0
C256 C 0.24043 0.86615 0.94617 0.0
C257 C 0.24712 0.85137 0.94777 0.0
H258 H 0.26203 0.85397 0.9856 0.0
H259 H 0.23655 0.88741 0.95753 0.0
C260 C 0.22357 0.92556 0.02055 0.0
N261 N 0.22248 0.91522 0.00883 0.0
C262 C 0.21055 0.93404 0.02331 0.0
C263 C 0.1956 0.92145 1.00159 0.0
C264 C 0.20891 0.91318 0.99928 0.0
C265 C 0.19627 0.93196 0.01383 0.0
H266 H 0.23456 0.92723 0.02782 0.0
H267 H 0.20832 0.90499 0.98996 0.0
O268 O 0.27286 0.88252 1.00314 0.0
O269 O 0.25873 0.90779 0.02222 0.0
O270 O 0.2531 0.90905 0.98681 0.0
O271 O 0.23648 0.87904 0.00717 0.0
H272 H 0.29675 0.87052 0.02011 0.0
H273 H 0.28138 0.88694 0.97314 0.0
H274 H 0.32288 0.86533 0.00945 0.0
H275 H 0.30781 0.88162 0.96329 0.0
H276 H 0.24267 0.89919 0.07315 0.0
H277 H 0.28689 0.91765 0.03632 0.0
H278 H 0.23695 0.89898 0.04421 0.0
H279 H 0.29176 0.91757 0.06538 0.0
H280 H 0.32959 0.92358 0.01362 0.0
H281 H 0.30418 0.95734 0.98359 0.0
H282 H 0.23886 0.84087 0.06152 0.0
H283 H 0.28838 0.86356 0.06659 0.0
H284 H 0.22717 0.91828 0.97102 0.0
H285 H 0.27798 0.91352 0.96753 0.0
H286 H 0.22652 0.92861 0.94281 0.0
H287 H 0.27642 0.92371 0.93934 0.0
H288 H 0.21761 0.87046 0.98256 0.0
H289 H 0.21788 0.88045 0.03162 0.0
H290 H 0.18754 0.86509 0.98275 0.0
H291 H 0.1878 0.87497 0.03093 0.0
H292 H 0.26003 0.83559 0.96409 0.0
H293 H 0.23432 0.87004 0.93526 0.0
H294 H 0.21172 0.94224 0.03269 0.0
H295 H 0.1848 0.91938 0.99407 0.0
Li296 Li 0.13434 0.49552 0.29964 0.0
Li297 Li 0.15308 0.4789 0.28845 0.0
Li298 Li 0.15499 0.50913 0.28114 0.0
Li299 Li 0.1329 0.49013 0.27068 0.0
C300 C 0.16424 0.50204 0.31662 0.0
N301 N 0.17573 0.51156 0.34592 0.0
C302 C 0.1699 0.49078 0.32797 0.0
C303 C 0.16469 0.51821 0.3201 0.0
C304 C 0.1756 0.49581 0.34273 0.0
C305 C 0.17047 0.52277 0.33499 0.0
C306 C 0.12594 0.45874 0.29522 0.0
C307 C 0.12378 0.43024 0.29116 0.0
N308 N 0.12041 0.42667 0.3067 0.0
C309 C 0.12232 0.4548 0.31112 0.0
C310 C 0.12655 0.44638 0.28512 0.0
C311 C 0.1196 0.4385 0.31671 0.0
C312 C 0.10718 0.50477 0.31355 0.0
N313 N 0.12153 0.49877 0.31717 0.0
C314 C 0.11714 0.49911 0.34487 0.0
C315 C 0.12647 0.4956 0.33248 0.0
C316 C 0.10249 0.50575 0.34146 0.0
C317 C 0.09745 0.5084 0.32554 0.0
H318 H 0.10343 0.50701 0.30129 0.0
H319 H 0.13762 0.49035 0.33514 0.0
C320 C 0.17665 0.45887 0.28174 0.0
N321 N 0.16577 0.46116 0.29269 0.0
C322 C 0.18651 0.44639 0.28429 0.0
C323 C 0.17392 0.43887 0.30943 0.0
C324 C 0.16429 0.4515 0.30638 0.0
C325 C 0.18525 0.4362 0.29831 0.0
H326 H 0.17787 0.46689 0.27109 0.0
H327 H 0.15575 0.45366 0.31503 0.0
C328 C 0.12782 0.5263 0.27971 0.0
N329 N 0.12094 0.55805 0.27788 0.0
C330 C 0.12165 0.53334 0.26558 0.0
C331 C 0.13021 0.53533 0.29299 0.0
C332 C 0.11833 0.54943 0.26486 0.0
C333 C 0.12673 0.55138 0.29181 0.0
C334 C 0.15768 0.48831 0.25191 0.0
C335 C 0.16349 0.50089 0.24096 0.0
C336 C 0.15279 0.47287 0.24684 0.0
C337 C 0.16405 0.49785 0.22502 0.0
C338 C 0.15351 0.47033 0.23081 0.0
N339 N 0.15906 0.48277 0.22032 0.0
C340 C 0.18329 0.53147 0.28478 0.0
C341 C 0.16496 0.53911 0.26417 0.0
C342 C 0.19362 0.5458 0.28162 0.0
N343 N 0.16915 0.52853 0.27625 0.0
C344 C 0.17493 0.55356 0.26058 0.0
C345 C 0.18944 0.55714 0.26943 0.0
H346 H 0.18653 0.52271 0.2941 0.0
H347 H 0.15394 0.53624 0.2572 0.0
C348 C 0.10623 0.47446 0.25335 0.0
N349 N 0.11859 0.48678 0.2527 0.0
C350 C 0.0955 0.47218 0.24034 0.0
C351 C 0.11052 0.4952 0.22624 0.0
C352 C 0.12084 0.49713 0.23955 0.0
C353 C 0.09759 0.48263 0.22655 0.0
H354 H 0.10463 0.46649 0.264 0.0
H355 H 0.13059 0.50699 0.23943 0.0
O356 O 0.15856 0.49728 0.30212 0.0
O357 O 0.12871 0.47463 0.28956 0.0
O358 O 0.13121 0.51057 0.28058 0.0
O359 O 0.15683 0.4911 0.26753 0.0
H360 H 0.16983 0.47826 0.32546 0.0
H361 H 0.16082 0.52719 0.31135 0.0
H362 H 0.17991 0.48719 0.35165 0.0
H363 H 0.17084 0.53524 0.33784 0.0
H364 H 0.1243 0.42055 0.2835 0.0
H365 H 0.12172 0.46421 0.31908 0.0
H366 H 0.12914 0.44922 0.27275 0.0
H367 H 0.11688 0.43527 0.329 0.0
H368 H 0.12133 0.49658 0.35697 0.0
H369 H 0.08631 0.51361 0.32236 0.0
H370 H 0.19527 0.44499 0.27552 0.0
H371 H 0.17246 0.43126 0.32035 0.0
H372 H 0.11952 0.5265 0.25523 0.0
H373 H 0.13451 0.52997 0.30414 0.0
H374 H 0.11367 0.55506 0.25396 0.0
H375 H 0.12857 0.5585 0.302 0.0
H376 H 0.16746 0.51287 0.24469 0.0
H377 H 0.14842 0.46298 0.25519 0.0
H378 H 0.16842 0.5075 0.2164 0.0
H379 H 0.14966 0.45846 0.22671 0.0
H380 H 0.20463 0.54806 0.28881 0.0
H381 H 0.1714 0.56174 0.25083 0.0
H382 H 0.08574 0.46229 0.24104 0.0
H383 H 0.11242 0.50369 0.21595 0.0
Li384 Li 0.77155 0.62202 0.03491 0.0
Li385 Li 0.78304 0.64154 0.0533 0.0
Li386 Li 0.79043 0.64572 0.02526 0.0
Li387 Li 0.8005 0.6247 0.04343 0.0
C388 C 0.75734 0.64889 0.02291 0.0
N389 N 0.73463 0.65628 0.99956 0.0
C390 C 0.74545 0.65869 0.02592 0.0
C391 C 0.75767 0.64281 0.00803 0.0
C392 C 0.73408 0.6623 0.01396 0.0
C393 C 0.74608 0.6467 0.99638 0.0
C394 C 0.77654 0.61536 0.0717 0.0
C395 C 0.78253 0.61796 0.09954 0.0
N396 N 0.76682 0.61234 0.10272 0.0
C397 C 0.76051 0.60942 0.07527 0.0
C398 C 0.7877 0.61949 0.08395 0.0
C399 C 0.75581 0.60805 0.09101 0.0
C400 C 0.75142 0.59704 0.01875 0.0
N401 N 0.75191 0.60863 0.02925 0.0
C402 C 0.72319 0.60284 0.03258 0.0
C403 C 0.73811 0.6118 0.03597 0.0
C404 C 0.72245 0.59047 0.02216 0.0
C405 C 0.73681 0.58769 0.01514 0.0
H406 H 0.76225 0.59504 0.01298 0.0
H407 H 0.73872 0.62133 0.044 0.0
C408 C 0.78937 0.66154 0.07912 0.0
N409 N 0.77759 0.6528 0.07071 0.0
C410 C 0.78526 0.67013 0.09158 0.0
C411 C 0.75698 0.66053 0.08649 0.0
C412 C 0.76164 0.65214 0.07413 0.0
C413 C 0.76885 0.66978 0.09536 0.0
H414 H 0.80195 0.66192 0.0761 0.0
H415 H 0.75253 0.64518 0.06713 0.0
C416 C 0.7933 0.60833 0.01578 0.0
N417 N 0.79832 0.57917 0.00449 0.0
C418 C 0.79233 0.5942 0.02594 0.0
C419 C 0.7968 0.60761 0.99988 0.0
C420 C 0.79494 0.57959 0.02001 0.0
C421 C 0.79928 0.59275 0.9944 0.0
C422 C 0.82122 0.65077 0.04633 0.0
C423 C 0.83086 0.65649 0.03345 0.0
C424 C 0.82863 0.64694 0.06103 0.0
C425 C 0.84778 0.65805 0.03544 0.0
C426 C 0.84558 0.64864 0.06253 0.0
N427 N 0.85472 0.6541 0.04981 0.0
C428 C 0.78819 0.67553 0.00756 0.0
C429 C 0.80307 0.65759 0.99539 0.0
C430 C 0.79005 0.68677 0.99445 0.0
N431 N 0.79452 0.66122 0.00771 0.0
C432 C 0.80533 0.66853 0.98208 0.0
C433 C 0.79864 0.68331 0.98139 0.0
H434 H 0.78142 0.67809 0.01753 0.0
H435 H 0.80812 0.6462 0.99592 0.0
C436 C 0.81863 0.6018 0.06062 0.0
N437 N 0.81865 0.61257 0.04772 0.0
C438 C 0.83119 0.59205 0.06333 0.0
C439 C 0.84365 0.60474 0.03949 0.0
C440 C 0.83078 0.61415 0.03718 0.0
C441 C 0.84392 0.59338 0.05266 0.0
H442 H 0.80864 0.60044 0.06859 0.0
H443 H 0.83033 0.62258 0.02684 0.0
O444 O 0.76849 0.64521 0.03457 0.0
O445 O 0.78129 0.61717 0.05631 0.0
O446 O 0.79121 0.62286 0.02138 0.0
O447 O 0.80463 0.64893 0.04454 0.0
H448 H 0.74502 0.66344 0.0374 0.0
H449 H 0.76674 0.63516 0.00549 0.0
H450 H 0.72481 0.66988 0.01612 0.0
H451 H 0.74619 0.64209 0.98482 0.0
H452 H 0.79101 0.62127 0.1091 0.0
H453 H 0.75178 0.60589 0.06602 0.0
H454 H 0.80016 0.62403 0.08143 0.0
H455 H 0.74342 0.60356 0.09392 0.0
H456 H 0.7124 0.60539 0.03825 0.0
H457 H 0.73671 0.57853 0.00675 0.0
H458 H 0.79483 0.67696 0.0982 0.0
H459 H 0.74418 0.66008 0.08881 0.0
H460 H 0.7895 0.59448 0.03825 0.0
H461 H 0.79754 0.6184 0.99183 0.0
H462 H 0.79424 0.56858 0.02774 0.0
H463 H 0.80197 0.59202 0.98211 0.0
H464 H 0.82537 0.6596 0.02202 0.0
H465 H 0.82139 0.64256 0.07114 0.0
H466 H 0.85538 0.66237 0.02556 0.0
H467 H 0.85146 0.64559 0.07381 0.0
H468 H 0.78447 0.69787 0.99441 0.0
H469 H 0.8123 0.66544 0.97245 0.0
H470 H 0.83064 0.58325 0.07345 0.0
H471 H 0.85324 0.60634 0.03101 0.0
Li472 Li 0.87436 0.0357 0.26171 0.0
Li473 Li 0.89338 0.01868 0.27563 0.0
Li474 Li 0.8932 0.02443 0.24587 0.0
Li475 Li 0.87148 0.00568 0.25837 0.0
C476 C 0.90158 0.05554 0.26584 0.0
N477 N 0.90683 0.0878 0.27219 0.0
C478 C 0.9057 0.05982 0.28123 0.0
C479 C 0.90037 0.06767 0.25364 0.0
C480 C 0.90825 0.0762 0.28421 0.0
C481 C 0.90299 0.08391 0.2571 0.0
C482 C 0.86393 0.01019 0.29208 0.0
C483 C 0.85913 0.98676 0.31063 0.0
N484 N 0.85296 0.99602 0.32088 0.0
C485 C 0.85734 0.01943 0.30272 0.0
C486 C 0.86466 0.99369 0.296 0.0
C487 C 0.85195 0.01206 0.31725 0.0
C488 C 0.85341 0.05965 0.25203 0.0
N489 N 0.86291 0.05389 0.26412 0.0
C490 C 0.85641 0.07415 0.28048 0.0
C491 C 0.86447 0.06079 0.27818 0.0
C492 C 0.84655 0.08045 0.26821 0.0
C493 C 0.8451 0.07299 0.25382 0.0
H494 H 0.85226 0.05388 0.24101 0.0
H495 H 0.872 0.05591 0.28764 0.0
C496 C 0.9215 0.01024 0.29249 0.0
N497 N 0.90691 0.01573 0.29413 0.0
C498 C 0.93183 0.00784 0.30568 0.0
C499 C 0.91208 0.0171 0.32197 0.0
C500 C 0.90217 0.01936 0.30846 0.0
C501 C 0.92712 0.01121 0.32069 0.0
H502 H 0.92508 0.00767 0.28091 0.0
H503 H 0.8908 0.02424 0.30941 0.0
C504 C 0.86729 0.02638 0.22614 0.0
N505 N 0.86395 0.03094 0.19359 0.0
C506 C 0.86036 0.01366 0.21735 0.0
C507 C 0.87231 0.04148 0.2184 0.0
C508 C 0.85882 0.01619 0.20089 0.0
C509 C 0.87059 0.04353 0.20193 0.0
C510 C 0.8994 0.98833 0.25989 0.0
C511 C 0.90444 0.98169 0.24653 0.0
C512 C 0.8992 0.97924 0.27448 0.0
C513 C 0.90873 0.96593 0.24791 0.0
C514 C 0.90361 0.96353 0.27539 0.0
N515 N 0.90821 0.95724 0.26218 0.0
C516 C 0.91954 0.03951 0.22762 0.0
C517 C 0.90363 0.01775 0.21592 0.0
C518 C 0.93 0.04158 0.21491 0.0
N519 N 0.90669 0.02771 0.22791 0.0
C520 C 0.91372 0.01942 0.20297 0.0
C521 C 0.92722 0.03138 0.20239 0.0
H522 H 0.92183 0.04713 0.2374 0.0
H523 H 0.89344 0.00835 0.2165 0.0
C524 C 0.84255 0.98416 0.26336 0.0
N525 N 0.85679 0.98653 0.25564 0.0
C526 C 0.83186 0.97003 0.26177 0.0
C527 C 0.85041 0.96132 0.24383 0.0
C528 C 0.86073 0.97559 0.2458 0.0
C529 C 0.83579 0.95831 0.25197 0.0
H530 H 0.83951 0.9932 0.27085 0.0
H531 H 0.87178 0.97804 0.23929 0.0
O532 O 0.89877 0.03957 0.26275 0.0
O533 O 0.86937 0.01727 0.27784 0.0
O534 O 0.86904 0.02407 0.24225 0.0
O535 O 0.89521 0.0038 0.25873 0.0
H536 H 0.90676 0.0506 0.2908 0.0
H537 H 0.89738 0.06459 0.24164 0.0
H538 H 0.91133 0.07968 0.29608 0.0
H539 H 0.90198 0.09343 0.24779 0.0
H540 H 0.85966 0.974 0.31379 0.0
H541 H 0.85644 0.03216 0.29984 0.0
H542 H 0.86919 0.98624 0.28774 0.0
H543 H 0.84693 0.01909 0.32563 0.0
H544 H 0.8577 0.07931 0.29186 0.0
H545 H 0.83776 0.07752 0.24398 0.0
H546 H 0.94328 1.00321 0.30416 0.0
H547 H 0.90813 0.02019 0.33325 0.0
H548 H 0.85625 1.00194 0.22314 0.0
H549 H 0.87758 0.05148 0.22503 0.0
H550 H 0.85356 0.00643 0.19393 0.0
H551 H 0.87454 0.05512 0.19578 0.0
H552 H 0.90492 0.98858 0.23519 0.0
H553 H 0.89593 0.98431 0.28507 0.0
H554 H 0.9125 0.96061 0.23763 0.0
H555 H 0.90345 0.95637 0.28661 0.0
H556 H 0.94037 0.05081 0.21509 0.0
H557 H 0.91095 0.01142 0.19352 0.0
H558 H 0.82077 0.96821 0.26834 0.0
H559 H 0.85375 0.95285 0.23584 0.0
Li560 Li 0.28273 0.14237 0.55392 0.0
Li561 Li 0.27084 0.12284 0.53579 0.0
Li562 Li 0.30006 0.12522 0.54403 0.0
Li563 Li 0.28994 0.1466 0.52573 0.0
C564 C 0.2755 0.11642 0.57217 0.0
N565 N 0.26453 0.11403 0.60272 0.0
C566 C 0.25904 0.11189 0.57504 0.0
C567 C 0.28642 0.11956 0.58486 0.0
C568 C 0.25372 0.11078 0.59056 0.0
C569 C 0.28063 0.11834 0.60021 0.0
C570 C 0.25697 0.15032 0.5237 0.0
C571 C 0.24512 0.14817 0.49739 0.0
N572 N 0.23456 0.15875 0.50044 0.0
C573 C 0.24601 0.16115 0.52659 0.0
C574 C 0.25653 0.14376 0.50899 0.0
C575 C 0.23477 0.16527 0.51467 0.0
C576 C 0.28929 0.16181 0.58025 0.0
N577 N 0.27746 0.15372 0.57133 0.0
C578 C 0.25679 0.16226 0.5865 0.0
C579 C 0.26146 0.1538 0.5742 0.0
C580 C 0.26871 0.17084 0.59588 0.0
C581 C 0.28517 0.17047 0.59266 0.0
H582 H 0.30192 0.16163 0.57765 0.0
H583 H 0.25232 0.14737 0.56681 0.0
C584 C 0.25183 0.095 0.52353 0.0
N585 N 0.25136 0.10903 0.53058 0.0
C586 C 0.23748 0.08529 0.51979 0.0
C587 C 0.22229 0.10447 0.5308 0.0
C588 C 0.23695 0.11381 0.53432 0.0
C589 C 0.22242 0.08998 0.52341 0.0
H590 H 0.26328 0.09123 0.5208 0.0
H591 H 0.23685 0.12485 0.5402 0.0
C592 C 0.32086 0.15126 0.54703 0.0
N593 N 0.35432 0.15433 0.55098 0.0
C594 C 0.33071 0.15736 0.53441 0.0
C595 C 0.32803 0.14689 0.56171 0.0
C596 C 0.3476 0.15879 0.53664 0.0
C597 C 0.34496 0.14847 0.56345 0.0
C598 C 0.29153 0.11129 0.51291 0.0
C599 C 0.2953 0.09628 0.51965 0.0
C600 C 0.28923 0.11361 0.4965 0.0
C601 C 0.29677 0.08387 0.50984 0.0
C602 C 0.29077 0.10089 0.4871 0.0
N603 N 0.2945 0.08641 0.4939 0.0
C604 C 0.31768 0.10186 0.56087 0.0
C605 C 0.33044 0.11467 0.53789 0.0
C606 C 0.33005 0.0919 0.56358 0.0
N607 N 0.31807 0.11293 0.54818 0.0
C608 C 0.34316 0.10506 0.54023 0.0
C609 C 0.34297 0.09337 0.55313 0.0
H610 H 0.30756 0.1005 0.5687 0.0
H611 H 0.33025 0.1233 0.52768 0.0
C612 C 0.28767 0.17621 0.50774 0.0
N613 N 0.29418 0.16197 0.5081 0.0
C614 C 0.2896 0.18737 0.49459 0.0
C615 C 0.30538 0.16927 0.48262 0.0
C616 C 0.30306 0.15841 0.49599 0.0
C617 C 0.29846 0.18394 0.48171 0.0
H618 H 0.28073 0.17876 0.51758 0.0
H619 H 0.30832 0.1471 0.49671 0.0
O620 O 0.28087 0.11797 0.55701 0.0
O621 O 0.26805 0.14623 0.53526 0.0
O622 O 0.3043 0.14954 0.54501 0.0
O623 O 0.29036 0.12376 0.52224 0.0
H624 H 0.25043 0.10934 0.56538 0.0
H625 H 0.29919 0.12311 0.58287 0.0
H626 H 0.241 0.10738 0.59294 0.0
H627 H 0.28893 0.12088 0.61013 0.0
H628 H 0.24465 0.14319 0.48596 0.0
H629 H 0.2462 0.16633 0.53792 0.0
H630 H 0.26489 0.13534 0.50657 0.0
H631 H 0.22621 0.17364 0.51674 0.0
H632 H 0.24397 0.16239 0.58838 0.0
H633 H 0.29476 0.17679 0.59967 0.0
H634 H 0.23818 0.0743 0.51396 0.0
H635 H 0.21099 0.10844 0.53406 0.0
H636 H 0.32539 0.16087 0.523 0.0
H637 H 0.32061 0.14213 0.57159 0.0
H638 H 0.35537 0.16341 0.52695 0.0
H639 H 0.35067 0.14501 0.5747 0.0
H640 H 0.29673 0.09409 0.53233 0.0
H641 H 0.28623 0.12511 0.49105 0.0
H642 H 0.29963 0.07219 0.51491 0.0
H643 H 0.28901 0.10252 0.47438 0.0
H644 H 0.32949 0.08311 0.57371 0.0
H645 H 0.35277 0.10642 0.53178 0.0
H646 H 0.28388 0.1984 0.49438 0.0
H647 H 0.31255 0.16622 0.47313 0.0
Li648 Li 0.39465 0.51858 0.77435 0.0
Li649 Li 0.37576 0.53583 0.76061 0.0
Li650 Li 0.37245 0.50652 0.75832 0.0
Li651 Li 0.39477 0.52417 0.74554 0.0
C652 C 0.3706 0.51757 0.79348 0.0
N653 N 0.37153 0.51678 0.82614 0.0
C654 C 0.36955 0.5317 0.80103 0.0
C655 C 0.37208 0.50303 0.80254 0.0
C656 C 0.37003 0.53105 0.81756 0.0
C657 C 0.37256 0.50289 0.81904 0.0
C658 C 0.41362 0.54841 0.7568 0.0
C659 C 0.42759 0.5682 0.73823 0.0
N660 N 0.44208 0.56481 0.74499 0.0
C661 C 0.42863 0.54514 0.76359 0.0
C662 C 0.41307 0.56006 0.74405 0.0
C663 C 0.44289 0.55357 0.75744 0.0
C664 C 0.41467 0.50169 0.79616 0.0
N665 N 0.40804 0.51577 0.79295 0.0
C666 C 0.4205 0.52635 0.81648 0.0
C667 C 0.41085 0.52807 0.8027 0.0
C668 C 0.42739 0.51186 0.82021 0.0
C669 C 0.42438 0.49944 0.80981 0.0
H670 H 0.4125 0.49222 0.78808 0.0
H671 H 0.40554 0.5392 0.79976 0.0
C672 C 0.3481 0.55104 0.76596 0.0
N673 N 0.36412 0.55397 0.76255 0.0
C674 C 0.33921 0.56387 0.76808 0.0
C675 C 0.36345 0.58251 0.76311 0.0
C676 C 0.37189 0.56931 0.76111 0.0
C677 C 0.3469 0.57987 0.76675 0.0
H678 H 0.34228 0.53869 0.76717 0.0
H679 H 0.38468 0.57129 0.75865 0.0
C680 C 0.39486 0.48749 0.75455 0.0
N681 N 0.39144 0.45562 0.74688 0.0
C682 C 0.39778 0.48381 0.73919 0.0
C683 C 0.39027 0.47496 0.76602 0.0
C684 C 0.39599 0.46762 0.73555 0.0
C685 C 0.38857 0.45892 0.7619 0.0
C686 C 0.3591 0.53182 0.73414 0.0
C687 C 0.34294 0.52492 0.73541 0.0
C688 C 0.36265 0.54714 0.72625 0.0
C689 C 0.33055 0.53354 0.72879 0.0
C690 C 0.34992 0.55538 0.71983 0.0
N691 N 0.33427 0.54846 0.72123 0.0
C692 C 0.34813 0.48116 0.7683 0.0
C693 C 0.35593 0.48109 0.74173 0.0
C694 C 0.33763 0.46689 0.76687 0.0
N695 N 0.35717 0.48779 0.7559 0.0
C696 C 0.3457 0.46675 0.7398 0.0
C697 C 0.33645 0.45935 0.75252 0.0
H698 H 0.34913 0.48689 0.77934 0.0
H699 H 0.36318 0.48673 0.73202 0.0
C700 C 0.42403 0.52346 0.73008 0.0
N701 N 0.40846 0.52688 0.72776 0.0
C702 C 0.43446 0.52487 0.7174 0.0
C703 C 0.41255 0.53305 0.70009 0.0
C704 C 0.40256 0.53157 0.71314 0.0
C705 C 0.42875 0.52965 0.70211 0.0
H706 H 0.42831 0.51953 0.7418 0.0
H707 H 0.39005 0.53393 0.71158 0.0
O708 O 0.3705 0.51802 0.77731 0.0
O709 O 0.39954 0.54007 0.76246 0.0
O710 O 0.39623 0.50329 0.75827 0.0
O711 O 0.37138 0.52372 0.7408 0.0
H712 H 0.36855 0.5431 0.79423 0.0
H713 H 0.37311 0.49202 0.79689 0.0
H714 H 0.36929 0.5419 0.82357 0.0
H715 H 0.37382 0.49175 0.82619 0.0
H716 H 0.42736 0.57717 0.7283 0.0
H717 H 0.42931 0.53609 0.77338 0.0
H718 H 0.40156 0.56262 0.73856 0.0
H719 H 0.4546 0.55112 0.76253 0.0
H720 H 0.42239 0.53619 0.82421 0.0
H721 H 0.42967 0.48819 0.81208 0.0
H722 H 0.32644 0.56128 0.77071 0.0
H723 H 0.36993 0.59462 0.76221 0.0
H724 H 0.40122 0.49333 0.73012 0.0
H725 H 0.38774 0.47759 0.7779 0.0
H726 H 0.39815 0.4646 0.7237 0.0
H727 H 0.38489 0.44912 0.77062 0.0
H728 H 0.33998 0.51311 0.74154 0.0
H729 H 0.37509 0.5527 0.72528 0.0
H730 H 0.31798 0.52838 0.72972 0.0
H731 H 0.35248 0.56729 0.71379 0.0
H732 H 0.33049 0.46185 0.77689 0.0
H733 H 0.34534 0.46135 0.72857 0.0
H734 H 0.44688 0.5223 0.71959 0.0
H735 H 0.40753 0.5365 0.6885 0.0
Li736 Li 0.77188 0.40698 0.50206 0.0
Li737 Li 0.75876 0.38449 0.51929 0.0
Li738 Li 0.75468 0.38587 0.48945 0.0
Li739 Li 0.7416 0.40386 0.50528 0.0
C740 C 0.79122 0.38382 0.50171 0.0
N741 N 0.82456 0.38512 0.49997 0.0
C742 C 0.8006 0.37969 0.51515 0.0
C743 C 0.79877 0.38839 0.48733 0.0
C744 C 0.81745 0.38047 0.51404 0.0
C745 C 0.81565 0.38904 0.48671 0.0
C746 C 0.75778 0.41195 0.5366 0.0
C747 C 0.7415 0.41152 0.55961 0.0
N748 N 0.7543 0.41962 0.56732 0.0
C749 C 0.77072 0.42045 0.54469 0.0
C750 C 0.74301 0.40759 0.54407 0.0
C751 C 0.76874 0.42414 0.56023 0.0
C752 C 0.79305 0.43293 0.48759 0.0
N753 N 0.79107 0.42203 0.50036 0.0
C754 C 0.81709 0.43192 0.51121 0.0
C755 C 0.80266 0.42143 0.51213 0.0
C756 C 0.81958 0.44329 0.49812 0.0
C757 C 0.80729 0.44373 0.48622 0.0
H758 H 0.78357 0.43328 0.47849 0.0
H759 H 0.80074 0.41268 0.52218 0.0
C760 C 0.75369 0.35529 0.53877 0.0
N761 N 0.76143 0.37065 0.53798 0.0
C762 C 0.75543 0.34489 0.55233 0.0
C763 C 0.77337 0.3662 0.56385 0.0
C764 C 0.77129 0.37616 0.55008 0.0
C765 C 0.76535 0.35032 0.56514 0.0
H766 H 0.74619 0.35109 0.52884 0.0
H767 H 0.77769 0.38825 0.54899 0.0
C768 C 0.75065 0.41213 0.46995 0.0
N769 N 0.7431 0.41635 0.43796 0.0
C770 C 0.73512 0.41557 0.4648 0.0
C771 C 0.7624 0.41105 0.45884 0.0
C772 C 0.73153 0.41762 0.44857 0.0
C773 C 0.75833 0.41315 0.44272 0.0
C774 C 0.72308 0.37278 0.50969 0.0
C775 C 0.71236 0.36724 0.49761 0.0
C776 C 0.7181 0.3708 0.52535 0.0
C777 C 0.69669 0.3602 0.50135 0.0
C778 C 0.70234 0.36369 0.52862 0.0
N779 N 0.69204 0.35861 0.51665 0.0
C780 C 0.76365 0.36283 0.46993 0.0
C781 C 0.73944 0.37365 0.46113 0.0
C782 C 0.76254 0.353 0.45724 0.0
N783 N 0.75224 0.37295 0.47161 0.0
C784 C 0.73784 0.36403 0.44825 0.0
C785 C 0.74949 0.35351 0.44618 0.0
H786 H 0.77356 0.36226 0.47855 0.0
H787 H 0.73042 0.38166 0.46276 0.0
C788 C 0.72583 0.42942 0.51474 0.0
N789 N 0.72323 0.41538 0.50737 0.0
C790 C 0.71289 0.43807 0.5173 0.0
C791 C 0.69487 0.4181 0.50399 0.0
C792 C 0.70816 0.40977 0.50178 0.0
C793 C 0.69712 0.43237 0.51201 0.0
H794 H 0.73798 0.43386 0.51873 0.0
H795 H 0.70642 0.39888 0.49555 0.0
O796 O 0.77473 0.38341 0.50263 0.0
O797 O 0.75956 0.40816 0.52139 0.0
O798 O 0.75435 0.41 0.48579 0.0
O799 O 0.7385 0.37965 0.50621 0.0
H800 H 0.79495 0.37603 0.52635 0.0
H801 H 0.79168 0.39149 0.47679 0.0
H802 H 0.82487 0.37741 0.52438 0.0
H803 H 0.82166 0.39267 0.47568 0.0
H804 H 0.73012 0.40818 0.56552 0.0
H805 H 0.78218 0.42411 0.53905 0.0
H806 H 0.73275 0.40145 0.53787 0.0
H807 H 0.77868 0.43062 0.56665 0.0
H808 H 0.82628 0.43097 0.52057 0.0
H809 H 0.80855 0.45244 0.47604 0.0
H810 H 0.74926 0.33265 0.55268 0.0
H811 H 0.78105 0.37097 0.57344 0.0
H812 H 0.72592 0.41657 0.47322 0.0
H813 H 0.7745 0.40852 0.46261 0.0
H814 H 0.71954 0.4202 0.44442 0.0
H815 H 0.76727 0.41223 0.43399 0.0
H816 H 0.71603 0.36847 0.48545 0.0
H817 H 0.72635 0.37451 0.53493 0.0
H818 H 0.68824 0.356 0.49209 0.0
H819 H 0.69833 0.36214 0.54069 0.0
H820 H 0.77164 0.34487 0.4563 0.0
H821 H 0.72766 0.36493 0.43995 0.0
H822 H 0.71522 0.44919 0.52326 0.0
H823 H 0.68292 0.41327 0.49971 0.0
Li824 Li 0.65369 0.97946 0.79022 0.0
Li825 Li 0.63442 0.99536 0.80048 0.0
Li826 Li 0.63307 0.99034 0.77189 0.0
Li827 Li 0.65494 0.00896 0.78307 0.0
C828 C 0.62435 0.96204 0.80168 0.0
N829 N 0.61371 0.9377 0.82423 0.0
C830 C 0.6336 0.95942 0.81557 0.0
C831 C 0.60969 0.95224 0.79922 0.0
C832 C 0.62803 0.94708 0.82684 0.0
C833 C 0.60452 0.94001 0.81077 0.0
C834 C 0.66185 1.0019 0.81917 0.0
C835 C 0.66196 0.02119 0.83896 0.0
N836 N 0.66826 0.01055 0.84981 0.0
C837 C 0.66847 0.99121 0.83049 0.0
C838 C 0.6587 0.01706 0.8234 0.0
C839 C 0.67158 0.99579 0.84593 0.0
C840 C 0.68241 0.96607 0.79944 0.0
N841 N 0.6668 0.96218 0.79428 0.0
C842 C 0.67079 0.93422 0.79448 0.0
C843 C 0.66085 0.94662 0.79176 0.0
C844 C 0.68696 0.93786 0.79992 0.0
C845 C 0.69272 0.95404 0.80244 0.0
H846 H 0.68685 0.97858 0.80116 0.0
H847 H 0.64841 0.94385 0.78758 0.0
C848 C 0.60793 0.00626 0.81393 0.0
N849 N 0.62102 0.9982 0.81775 0.0
C850 C 0.59792 0.00984 0.82571 0.0
C851 C 0.61477 0.99639 0.8452 0.0
C852 C 0.62438 0.99295 0.83301 0.0
C853 C 0.60142 0.00508 0.84162 0.0
H854 H 0.60538 0.01014 0.80171 0.0
H855 H 0.63462 0.98627 0.83581 0.0
C856 C 0.66035 0.98087 0.75826 0.0
N857 N 0.6676 0.95943 0.73708 0.0
C858 C 0.67397 0.98461 0.74889 0.0
C859 C 0.6504 0.96623 0.75686 0.0
C860 C 0.67743 0.97361 0.73825 0.0
C861 C 0.65428 0.95555 0.74609 0.0
C862 C 0.6294 0.02633 0.77722 0.0
C863 C 0.62664 0.03097 0.76123 0.0
C864 C 0.63015 0.03789 0.78839 0.0
C865 C 0.62507 0.04719 0.75662 0.0
C866 C 0.62852 0.05399 0.78332 0.0
N867 N 0.62606 0.05828 0.76767 0.0
C868 C 0.60352 0.98004 0.75595 0.0
C869 C 0.62454 0.99192 0.73911 0.0
C870 C 0.59275 0.97793 0.74297 0.0
N871 N 0.61905 0.98694 0.7538 0.0
C872 C 0.61417 0.9901 0.7258 0.0
C873 C 0.59799 0.98308 0.72762 0.0
H874 H 0.59947 0.97631 0.76779 0.0
H875 H 0.6369 0.99759 0.73776 0.0
C876 C 0.68026 0.03417 0.78902 0.0
N877 N 0.66907 0.02837 0.77808 0.0
C878 C 0.69044 0.04852 0.78553 0.0
C879 C 0.67768 0.05049 0.75943 0.0
C880 C 0.66785 0.03602 0.76338 0.0
C881 C 0.68912 0.05695 0.77061 0.0
H882 H 0.68136 0.02765 0.80045 0.0
H883 H 0.65926 0.03085 0.7547 0.0
O884 O 0.62956 0.97408 0.79048 0.0
O885 O 0.65861 0.99758 0.80401 0.0
O886 O 0.65689 0.9915 0.76878 0.0
O887 O 0.63108 0.01051 0.78193 0.0
H888 H 0.64498 0.96684 0.81762 0.0
H889 H 0.6024 0.95405 0.7885 0.0
H890 H 0.63508 0.94495 0.83766 0.0
H891 H 0.5932 0.93234 0.80903 0.0
H892 H 0.6595 0.03286 0.84239 0.0
H893 H 0.67113 0.97947 0.82744 0.0
H894 H 0.65382 0.02555 0.81476 0.0
H895 H 0.67661 0.98761 0.85482 0.0
H896 H 0.66583 0.92189 0.79249 0.0
H897 H 0.70516 0.95742 0.80642 0.0
H898 H 0.58782 0.01666 0.82243 0.0
H899 H 0.61774 0.99229 0.85729 0.0
H900 H 0.68179 0.9959 0.74985 0.0
H901 H 0.63981 0.96312 0.76402 0.0
H902 H 0.68794 0.97634 0.73092 0.0
H903 H 0.6467 0.94417 0.7449 0.0
H904 H 0.62589 0.02219 0.75243 0.0
H905 H 0.63185 0.03446 0.80085 0.0
H906 H 0.62308 0.05097 0.74427 0.0
H907 H 0.62915 0.06307 0.79184 0.0
H908 H 0.58046 0.97228 0.74495 0.0
H909 H 0.6187 0.99451 0.71426 0.0
H910 H 0.69909 0.05308 0.7945 0.0
H911 H 0.6765 0.05644 0.74768 0.0
Li912 Li 0.0258 0.27144 0.8896 0.0
Li913 Li 0.01005 0.28391 0.90952 0.0
Li914 Li 0.01248 0.25383 0.91023 0.0
Li915 Li 0.9965 0.26653 0.89004 0.0
C916 C 0.04599 0.278 0.91403 0.0
N917 N 0.07853 0.29005 0.91538 0.0
C918 C 0.05066 0.29409 0.91738 0.0
C919 C 0.05787 0.26801 0.91147 0.0
C920 C 0.06718 0.29995 0.918 0.0
C921 C 0.07426 0.27434 0.91216 0.0
C922 C 1.00282 0.29432 0.8731 0.0
C923 C 0.98297 0.31059 0.86077 0.0
N924 N 0.98672 0.30623 0.84636 0.0
C925 C 0.00653 0.29005 0.85817 0.0
C926 C 0.99099 0.30471 0.87445 0.0
C927 C 0.99823 0.29618 0.84479 0.0
C928 C 0.04615 0.26315 0.86655 0.0
N929 N 0.04402 0.27505 0.87607 0.0
C930 C 0.06766 0.29131 0.86594 0.0
C931 C 0.05425 0.28911 0.87572 0.0
C932 C 0.0704 0.27901 0.85628 0.0
C933 C 0.05932 0.26484 0.85659 0.0
H934 H 0.03753 0.25235 0.86658 0.0
H935 H 0.05207 0.29857 0.88311 0.0
C936 C 0.00737 0.29817 0.93797 0.0
N937 N 0.00896 0.30159 0.92214 0.0
C938 C 0.00609 0.31057 0.94785 0.0
C939 C 0.00829 0.32982 0.92494 0.0
C940 C 0.00957 0.31703 0.9155 0.0
C941 C 0.00647 0.32665 0.94136 0.0
H942 H 0.00691 0.28575 0.94289 0.0
H943 H 0.01106 0.31942 0.90289 0.0
C944 C 0.01269 0.23449 0.88811 0.0
N945 N 0.0142 0.20143 0.89091 0.0
C946 C 0.99855 0.2237 0.88639 0.0
C947 C 0.0276 0.22844 0.89122 0.0
C948 C 0.99958 0.20704 0.88783 0.0
C949 C 0.02811 0.21169 0.89263 0.0
C950 C 0.97665 0.26341 0.91467 0.0
C951 C 0.96724 0.24911 0.91077 0.0
C952 C 0.96909 0.27598 0.92005 0.0
C953 C 0.95039 0.24766 0.91223 0.0
C954 C 0.95221 0.27404 0.92139 0.0
N955 N 0.94329 0.26004 0.91748 0.0
C956 C 0.02888 0.23428 0.93284 0.0
C957 C 1.00227 0.22282 0.92585 0.0
C958 C 0.0313 0.22049 0.94271 0.0
N959 N 0.01461 0.23512 0.92451 0.0
C960 C 0.00419 0.20877 0.93549 0.0
C961 C 0.01891 0.20741 0.94403 0.0
H962 H 0.03842 0.24429 0.93179 0.0
H963 H 0.99102 0.22374 0.91918 0.0
C964 C 0.97869 0.25479 0.86359 0.0
N965 N 0.97772 0.26409 0.8759 0.0
C966 C 0.96571 0.25241 0.85271 0.0
C967 C 0.95112 0.2698 0.86691 0.0
C968 C 0.96442 0.27186 0.87752 0.0
C969 C 0.9516 0.25983 0.85437 0.0
H970 H 0.98965 0.24931 0.86212 0.0
H971 H 0.96413 0.27975 0.88699 0.0
O972 O 0.02986 0.27208 0.91323 0.0
O973 O 0.01048 0.28807 0.88636 0.0
O974 O 0.01192 0.25087 0.88703 0.0
O975 O 0.99317 0.26508 0.91339 0.0
H976 H 0.04166 0.302 0.9194 0.0
H977 H 0.05449 0.25556 0.90881 0.0
H978 H 0.07097 0.31239 0.92053 0.0
H979 H 0.08357 0.26678 0.91009 0.0
H980 H 0.97371 0.31854 0.86163 0.0
H981 H 0.01558 0.28193 0.85695 0.0
H982 H 0.98784 0.30796 0.88594 0.0
H983 H 1.0009 0.29291 0.83316 0.0
H984 H 0.07588 0.30243 0.8661 0.0
H985 H 0.06067 0.25523 0.84905 0.0
H986 H 0.00452 0.30753 0.9604 0.0
H987 H 0.00889 0.34205 0.91947 0.0
H988 H 0.98686 0.2281 0.88423 0.0
H989 H 0.03864 0.23657 0.89273 0.0
H990 H 0.98872 0.19856 0.88661 0.0
H991 H 0.03955 0.20686 0.89513 0.0
H992 H 0.97282 0.23939 0.90631 0.0
H993 H 0.97615 0.28714 0.92309 0.0
H994 H 0.94296 0.23672 0.90913 0.0
H995 H 0.9462 0.28367 0.9255 0.0
H996 H 0.04273 0.22015 0.94931 0.0
H997 H 0.99436 0.19895 0.93596 0.0
H998 H 0.96681 0.24498 0.84297 0.0
H999 H 0.94052 0.27581 0.86865 0.0
Li1000 Li 0.5269 0.77433 0.39093 0.0
Li1001 Li 0.51028 0.78459 0.4105 0.0
Li1002 Li 0.51307 0.75467 0.41096 0.0
Li1003 Li 0.4965 0.76834 0.39062 0.0
C1004 C 0.54588 0.77385 0.41985 0.0
N1005 N 0.57781 0.77506 0.4309 0.0
C1006 C 0.5539 0.78815 0.42537 0.0
C1007 C 0.55405 0.76009 0.42019 0.0
C1008 C 0.57006 0.78855 0.43085 0.0
C1009 C 0.5702 0.76097 0.42575 0.0
C1010 C 0.51098 0.80601 0.38537 0.0
C1011 C 0.49842 0.83057 0.38611 0.0
N1012 N 0.51285 0.83943 0.38248 0.0
C1013 C 0.52566 0.81535 0.38156 0.0
C1014 C 0.49722 0.81365 0.38756 0.0
C1015 C 0.52636 0.83223 0.38017 0.0
C1016 C 0.54194 0.77359 0.36237 0.0
N1017 N 0.54506 0.77814 0.37734 0.0
C1018 C 0.57309 0.78587 0.37172 0.0
C1019 C 0.56022 0.78443 0.38209 0.0
C1020 C 0.57031 0.78088 0.35627 0.0
C1021 C 0.55442 0.77485 0.35161 0.0
H1022 H 0.52974 0.76877 0.35886 0.0
H1023 H 0.56242 0.78824 0.39391 0.0
C1024 C 0.49601 0.79999 0.43394 0.0
N1025 N 0.50843 0.8019 0.42371 0.0
C1026 C 0.49394 0.8122 0.44379 0.0
C1027 C 0.51764 0.82809 0.43261 0.0
C1028 C 0.51922 0.81558 0.42294 0.0
C1029 C 0.50483 0.8265 0.44321 0.0
H1030 H 0.48774 0.78893 0.43453 0.0
H1031 H 0.52904 0.81684 0.41478 0.0
C1032 C 0.51831 0.73997 0.38278 0.0
N1033 N 0.52915 0.71249 0.37274 0.0
C1034 C 0.50747 0.72841 0.37553 0.0
C1035 C 0.53471 0.73766 0.38469 0.0
C1036 C 0.51316 0.71456 0.37061 0.0
C1037 C 0.53995 0.72367 0.37959 0.0
C1038 C 0.47705 0.76129 0.41463 0.0
C1039 C 0.47087 0.74528 0.41898 0.0
C1040 C 0.46637 0.77286 0.41078 0.0
C1041 C 0.45405 0.74104 0.4192 0.0
C1042 C 0.44963 0.76815 0.41112 0.0
N1043 N 0.44386 0.75247 0.41528 0.0
C1044 C 0.52278 0.73638 0.43834 0.0
C1045 C 0.50837 0.72069 0.41906 0.0
C1046 C 0.52489 0.72241 0.44805 0.0
N1047 N 0.51488 0.73525 0.42404 0.0
C1048 C 0.51014 0.70641 0.42841 0.0
C1049 C 0.51861 0.70713 0.44308 0.0
H1050 H 0.52762 0.74814 0.44213 0.0
H1051 H 0.5017 0.72015 0.40787 0.0
C1052 C 0.47375 0.77738 0.36669 0.0
N1053 N 0.47771 0.76505 0.37702 0.0
C1054 C 0.46026 0.77506 0.35635 0.0
C1055 C 0.45514 0.7474 0.36752 0.0
C1056 C 0.46875 0.75025 0.37759 0.0
C1057 C 0.45078 0.75987 0.35662 0.0
H1058 H 0.4812 0.78897 0.36634 0.0
H1059 H 0.47221 0.74062 0.38587 0.0
O1060 O 0.53004 0.77327 0.41447 0.0
O1061 O 0.51009 0.78948 0.38688 0.0
O1062 O 0.5129 0.75359 0.38768 0.0
O1063 O 0.49348 0.76562 0.4141 0.0
H1064 H 0.54777 0.79887 0.42537 0.0
H1065 H 0.54797 0.74879 0.41637 0.0
H1066 H 0.57643 0.79957 0.43506 0.0
H1067 H 0.57666 0.75041 0.42604 0.0
H1068 H 0.4879 0.83665 0.38787 0.0
H1069 H 0.53641 0.80963 0.37979 0.0
H1070 H 0.48576 0.8066 0.39048 0.0
H1071 H 0.53765 0.83962 0.3773 0.0
H1072 H 0.58514 0.79051 0.37589 0.0
H1073 H 0.5516 0.77117 0.33975 0.0
H1074 H 0.48406 0.81033 0.45196 0.0
H1075 H 0.52623 0.83897 0.43165 0.0
H1076 H 0.49477 0.73006 0.37378 0.0
H1077 H 0.54337 0.74664 0.38985 0.0
H1078 H 0.50487 0.70547 0.36508 0.0
H1079 H 0.55261 0.72174 0.38102 0.0
H1080 H 0.47897 0.73619 0.42206 0.0
H1081 H 0.47096 0.78532 0.40743 0.0
H1082 H 0.44909 0.72867 0.42247 0.0
H1083 H 0.44122 0.77695 0.40806 0.0
H1084 H 0.53161 0.72357 0.4592 0.0
H1085 H 0.50477 0.69494 0.42425 0.0
H1086 H 0.45753 0.78495 0.34799 0.0
H1087 H 0.44809 0.73557 0.36831 0.0
Li1088 Li 0.01675 0.77581 0.6405 0.0
Li1089 Li 0.99873 0.76198 0.66099 0.0
Li1090 Li 0.02863 0.75906 0.66134 0.0
Li1091 Li 0.01009 0.74538 0.64203 0.0
C1092 C 0.02008 0.79513 0.66441 0.0
N1093 N 0.02457 0.82845 0.6653 0.0
C1094 C 0.00733 0.80336 0.66855 0.0
C1095 C 0.03516 0.80382 0.66092 0.0
C1096 C 0.00983 0.82021 0.66889 0.0
C1097 C 0.03717 0.82066 0.66137 0.0
C1098 C 0.97976 0.7611 0.63176 0.0
C1099 C 0.95435 0.74474 0.62653 0.0
N1100 N 0.94814 0.75811 0.61976 0.0
C1101 C 0.97319 0.77463 0.62455 0.0
C1102 C 0.97033 0.74599 0.6326 0.0
C1103 C 0.95715 0.77289 0.61864 0.0
C1104 C 0.03186 0.79513 0.61516 0.0
N1105 N 0.02027 0.79463 0.62613 0.0
C1106 C 0.01369 0.8208 0.61627 0.0
C1107 C 0.0111 0.80703 0.62676 0.0
C1108 C 0.02563 0.82169 0.60484 0.0
C1109 C 0.03475 0.8086 0.60433 0.0
H1110 H 0.03884 0.78503 0.61477 0.0
H1111 H 1.00172 0.80619 0.63537 0.0
C1112 C 0.98118 0.75746 0.6891 0.0
N1113 N 0.98077 0.76394 0.67388 0.0
C1114 C 0.96864 0.75903 0.6992 0.0
C1115 C 0.95554 0.77402 0.67782 0.0
C1116 C 0.96834 0.77219 0.66816 0.0
C1117 C 0.95558 0.76744 0.69361 0.0
H1118 H 0.99136 0.7512 0.69344 0.0
H1119 H 0.96847 0.77762 0.65618 0.0
C1120 C 0.04704 0.75628 0.63696 0.0
N1121 N 0.07913 0.75081 0.63536 0.0
C1122 C 0.05086 0.74098 0.63385 0.0
C1123 C 0.05953 0.76885 0.63906 0.0
C1124 C 0.06716 0.73845 0.63312 0.0
C1125 C 0.07567 0.76583 0.63827 0.0
C1126 C 1.00279 0.72725 0.67125 0.0
C1127 C 0.01229 0.71588 0.67861 0.0
C1128 C 0.98592 0.72346 0.67007 0.0
C1129 C 0.00476 0.70075 0.68435 0.0
C1130 C 0.97885 0.70822 0.67598 0.0
N1131 N 0.98834 0.69727 0.68292 0.0
C1132 C 0.05336 0.76872 0.68393 0.0
C1133 C 0.05471 0.7429 0.67456 0.0
C1134 C 0.06728 0.76727 0.69355 0.0
N1135 N 0.04745 0.75667 0.67464 0.0
C1136 C 0.0687 0.74098 0.6839 0.0
C1137 C 0.0752 0.75327 0.69358 0.0
H1138 H 0.04723 0.77945 0.68395 0.0
H1139 H 0.0497 0.73345 0.66714 0.0
C1140 C 1.00049 0.72997 0.61438 0.0
N1141 N 0.00618 0.72718 0.62949 0.0
C1142 C 0.99831 0.71747 0.60418 0.0
C1143 C 0.00792 0.69942 0.62525 0.0
C1144 C 0.00993 0.71229 0.63504 0.0
C1145 C 1.00215 0.70195 0.60954 0.0
H1146 H 0.99784 0.742 0.61019 0.0
H1147 H 0.01494 0.71047 0.64691 0.0
O1148 O 0.0178 0.77865 0.66385 0.0
O1149 O 0.99549 0.7626 0.63755 0.0
O1150 O 0.03116 0.75893 0.63795 0.0
O1151 O 0.01 0.74212 0.6656 0.0
H1152 H 0.99561 0.79683 0.67138 0.0
H1153 H 0.04518 0.79764 0.6578 0.0
H1154 H 1.00005 0.82675 0.67199 0.0
H1155 H 0.04875 0.82755 0.65858 0.0
H1156 H 0.94691 0.73313 0.62714 0.0
H1157 H 0.98036 0.78637 0.62362 0.0
H1158 H 0.97534 0.73529 0.63768 0.0
H1159 H 0.95188 0.78328 0.61314 0.0
H1160 H 0.00624 0.83054 0.61691 0.0
H1161 H 0.04413 0.80884 0.59576 0.0
H1162 H 0.96937 0.75399 0.71135 0.0
H1163 H 0.94569 0.78049 0.67293 0.0
H1164 H 0.04136 0.73114 0.63213 0.0
H1165 H 0.05678 0.78079 0.64135 0.0
H1166 H 0.0703 0.72664 0.63082 0.0
H1167 H 0.08546 0.77542 0.63998 0.0
H1168 H 0.02534 0.71866 0.6798 0.0
H1169 H 0.97833 0.73225 0.66484 0.0
H1170 H 0.01198 0.6918 0.68997 0.0
H1171 H 0.96581 0.70513 0.67511 0.0
H1172 H 0.07164 0.77693 0.70102 0.0
H1173 H 0.07447 0.73006 0.68337 0.0
H1174 H 0.99369 0.71995 0.59222 0.0
H1175 H 0.01133 0.68775 0.6298 0.0
Li1176 Li 0.51677 0.27593 0.13972 0.0
Li1177 Li 0.4988 0.26204 0.16013 0.0
Li1178 Li 0.52878 0.25899 0.16047 0.0
Li1179 Li 0.51002 0.24547 0.14114 0.0
C1180 C 0.5211 0.29502 0.16392 0.0
N1181 N 0.52736 0.32822 0.16536 0.0
C1182 C 0.50886 0.30393 0.16802 0.0
C1183 C 0.53659 0.30297 0.1608 0.0
C1184 C 0.51225 0.32071 0.16863 0.0
C1185 C 0.5395 0.31977 0.16151 0.0
C1186 C 0.47934 0.26161 0.13203 0.0
C1187 C 0.45331 0.24576 0.1284 0.0
N1188 N 0.44692 0.25936 0.12249 0.0
C1189 C 0.47258 0.27538 0.1257 0.0
C1190 C 0.46968 0.24664 0.13321 0.0
C1191 C 0.45614 0.27402 0.12104 0.0
C1192 C 0.53196 0.29562 0.1146 0.0
N1193 N 0.52035 0.29491 0.12558 0.0
C1194 C 0.51379 0.32122 0.11614 0.0
C1195 C 0.51121 0.30728 0.12643 0.0
C1196 C 0.5258 0.32238 0.10473 0.0
C1197 C 0.53492 0.30929 0.10403 0.0
H1198 H 0.53886 0.2855 0.11395 0.0
H1199 H 0.50189 0.30634 0.13512 0.0
C1200 C 0.47956 0.25546 0.18728 0.0
N1201 N 0.48078 0.26405 0.17297 0.0
C1202 C 0.46686 0.25705 0.19718 0.0
C1203 C 0.45707 0.27653 0.17759 0.0
C1204 C 0.46991 0.27451 0.16805 0.0
C1205 C 0.45539 0.26775 0.19241 0.0
H1206 H 0.48853 0.24746 0.19107 0.0
H1207 H 0.47146 0.28166 0.15692 0.0
C1208 C 0.54702 0.25658 0.13544 0.0
N1209 N 0.57909 0.25161 0.13243 0.0
C1210 C 0.55087 0.24149 0.13167 0.0
C1211 C 0.55947 0.26921 0.13743 0.0
C1212 C 0.56716 0.23921 0.13026 0.0
C1213 C 0.57561 0.26644 0.13594 0.0
C1214 C 0.5039 0.22679 0.16999 0.0
C1215 C 0.51434 0.216 0.17677 0.0
C1216 C 0.4872 0.22186 0.16896 0.0
C1217 C 0.50792 0.20032 0.18207 0.0
C1218 C 0.48124 0.20608 0.17442 0.0
N1219 N 0.49165 0.19572 0.18078 0.0
C1220 C 0.55262 0.26794 0.18407 0.0
C1221 C 0.55568 0.2434 0.17281 0.0
C1222 C 0.56641 0.26647 0.19385 0.0
N1223 N 0.54761 0.25654 0.17375 0.0
C1224 C 0.56958 0.24149 0.1823 0.0
C1225 C 0.57514 0.25311 0.19303 0.0
H1226 H 0.54584 0.27813 0.18479 0.0
H1227 H 0.55134 0.2344 0.16465 0.0
C1228 C 0.49859 0.22918 0.11424 0.0
N1229 N 0.506 0.22713 0.12874 0.0
C1230 C 0.49624 0.21644 0.10431 0.0
C1231 C 0.50933 0.19974 0.12433 0.0
C1232 C 0.51137 0.21278 0.1339 0.0
C1233 C 0.50175 0.2015 0.10927 0.0
H1234 H 0.49477 0.24082 0.11027 0.0
H1235 H 0.51767 0.21157 0.14523 0.0
O1236 O 0.51795 0.2786 0.16307 0.0
O1237 O 0.49543 0.26274 0.13665 0.0
O1238 O 0.53114 0.25899 0.13705 0.0
O1239 O 0.51 0.2422 0.16472 0.0
H1240 H 0.49685 0.29799 0.17064 0.0
H1241 H 0.54626 0.29626 0.15784 0.0
H1242 H 0.50285 0.32776 0.17169 0.0
H1243 H 0.55141 0.32608 0.15902 0.0
H1244 H 0.44569 0.23425 0.1293 0.0
H1245 H 0.4799 0.28703 0.1245 0.0
H1246 H 0.47481 0.23577 0.13759 0.0
H1247 H 0.45072 0.28461 0.11625 0.0
H1248 H 0.50656 0.33104 0.11723 0.0
H1249 H 0.54409 0.30949 0.09525 0.0
H1250 H 0.46601 0.24992 0.20843 0.0
H1251 H 0.44879 0.2852 0.17355 0.0
H1252 H 0.54142 0.23163 0.12993 0.0
H1253 H 0.55672 0.28102 0.1401 0.0
H1254 H 0.57031 0.22756 0.12745 0.0
H1255 H 0.58536 0.27609 0.13755 0.0
H1256 H 0.52727 0.21966 0.17785 0.0
H1257 H 0.47888 0.23017 0.16422 0.0
H1258 H 0.51588 0.19181 0.18724 0.0
H1259 H 0.46834 0.2021 0.17366 0.0
H1260 H 0.57005 0.27558 0.20213 0.0
H1261 H 0.57597 0.23108 0.18112 0.0
H1262 H 0.49059 0.21843 0.09269 0.0
H1263 H 0.51371 0.18843 0.12866 0.0
H1264 H 0.2291 0.77862 0.81865 0.0
H1265 H 0.23243 0.79627 0.84055 0.0
H1266 H 0.24378 0.75603 0.87252 0.0
H1267 H 0.23999 0.73815 0.85075 0.0
H1268 H 0.22103 0.77382 0.88413 0.0
H1269 H 0.27498 0.81427 0.86244 0.0
H1270 H 0.25825 0.81244 0.84831 0.0
H1271 H 0.26838 0.795 0.8545 0.0
C1272 C 0.23224 0.7735 0.83035 0.0
C1273 C 0.23429 0.75697 0.83295 0.0
C1274 C 0.23432 0.78365 0.84282 0.0
C1275 C 0.23858 0.77751 0.85811 0.0
C1276 C 0.24061 0.76103 0.86077 0.0
H1277 H 0.27051 0.83419 0.9379 0.0
H1278 H 0.2683 0.8159 0.91652 0.0
C1279 C 0.23855 0.75086 0.84831 0.0
C1280 C 0.24038 0.78818 0.87143 0.0
H1281 H 0.26173 0.82263 0.88425 0.0
C1282 C 0.22997 0.78446 0.8842 0.0
C1283 C 0.25217 0.80195 0.87157 0.0
C1284 C 0.2642 0.80611 0.85855 0.0
C1285 C 0.23083 0.79431 0.89697 0.0
C1286 C 0.24224 0.80838 0.89685 0.0
C1287 C 0.25287 0.81193 0.88424 0.0
C1288 C 0.24347 0.81948 0.9098 0.0
C1289 C 0.21965 0.78944 0.91059 0.0
C1290 C 0.2303 0.82772 0.91298 0.0
C1291 C 0.23149 0.83811 0.92525 0.0
C1292 C 0.2459 0.84052 0.93454 0.0
C1293 C 0.25915 0.83241 0.93115 0.0
C1294 C 0.25795 0.82204 0.91887 0.0
H1295 H 0.21469 0.77643 0.91082 0.0
H1296 H 0.22607 0.79174 0.92209 0.0
H1297 H 0.20926 0.79673 0.90934 0.0
H1298 H 0.2191 0.82614 0.90594 0.0
H1299 H 0.22102 0.84408 0.9276 0.0
H1300 H 0.04071 0.57064 0.4541 0.0
H1301 H 0.05665 0.55851 0.43534 0.0
H1302 H 0.01244 0.53436 0.41539 0.0
H1303 H 0.99651 0.54651 0.43409 0.0
H1304 H 0.05746 0.52473 0.42981 0.0
H1305 H 0.03521 0.56075 0.37711 0.0
H1306 H 0.03317 0.56616 0.39709 0.0
H1307 H 0.01969 0.54991 0.38938 0.0
C1308 C 0.03446 0.56275 0.44567 0.0
C1309 C 0.01742 0.55977 0.44523 0.0
C1310 C 0.04353 0.55581 0.43503 0.0
C1311 C 0.03569 0.54579 0.42381 0.0
C1312 C 0.01869 0.54232 0.42375 0.0
H1313 H 0.06938 0.50102 0.344 0.0
H1314 H 0.05323 0.50973 0.36459 0.0
C1315 C 0.00962 0.54922 0.43442 0.0
C1316 C 0.04527 0.53916 0.41199 0.0
H1317 H 0.05188 0.54071 0.37239 0.0
C1318 C 0.05628 0.52822 0.41725 0.0
C1319 C 0.04365 0.54373 0.39564 0.0
C1320 C 0.0324 0.55588 0.38941 0.0
C1321 C 0.06559 0.52152 0.40652 0.0
C1322 C 0.06407 0.52619 0.39015 0.0
C1323 C 0.053 0.5371 0.38493 0.0
C1324 C 0.07399 0.52013 0.37821 0.0
C1325 C 0.07672 0.50927 0.41278 0.0
C1326 C 0.09102 0.52311 0.379 0.0
C1327 C 0.10028 0.51815 0.36725 0.0
C1328 C 0.09267 0.51025 0.35438 0.0
C1329 C 0.07561 0.50721 0.35367 0.0
C1330 C 0.06637 0.51212 0.36546 0.0
H1331 H 0.07304 0.50359 0.4246 0.0
H1332 H 0.07685 0.49957 0.40455 0.0
H1333 H 0.08928 0.51545 0.41407 0.0
H1334 H 0.09716 0.52964 0.3885 0.0
H1335 H 0.11338 0.52093 0.368 0.0
H1336 H 0.80582 0.75987 0.84355 0.0
H1337 H 0.80487 0.74181 0.86778 0.0
H1338 H 0.80438 0.78287 0.89563 0.0
H1339 H 0.80521 0.80099 0.87142 0.0
H1340 H 0.82622 0.74105 0.89321 0.0
H1341 H 0.76573 0.75271 0.91232 0.0
H1342 H 0.77298 0.75903 0.89275 0.0
H1343 H 0.77982 0.77071 0.90922 0.0
C1344 C 0.80557 0.76506 0.85484 0.0
C1345 C 0.80553 0.78186 0.85557 0.0
C1346 C 0.80496 0.75472 0.86867 0.0
C1347 C 0.80428 0.76095 0.8835 0.0
C1348 C 0.80448 0.77774 0.88429 0.0
H1349 H 0.80352 0.71659 0.97998 0.0
H1350 H 0.80531 0.73548 0.95634 0.0
C1351 C 0.80499 0.78808 0.87046 0.0
C1352 C 0.80371 0.74987 0.89813 0.0
H1353 H 0.78111 0.73707 0.93056 0.0
C1354 C 0.81633 0.74014 0.90135 0.0
C1355 C 0.79079 0.7487 0.90874 0.0
C1356 C 0.77648 0.75822 0.90555 0.0
C1357 C 0.81646 0.72941 0.91497 0.0
C1358 C 0.80357 0.72827 0.92556 0.0
C1359 C 0.791 0.73804 0.92242 0.0
C1360 C 0.80274 0.71678 0.93984 0.0
C1361 C 0.8305 0.7195 0.91805 0.0
C1362 C 0.80056 0.70001 0.93836 0.0
C1363 C 0.79935 0.68916 0.95182 0.0
C1364 C 0.8003 0.69488 0.96707 0.0
C1365 C 0.80253 0.71174 0.96846 0.0
C1366 C 0.80365 0.72257 0.95497 0.0
H1367 H 0.84109 0.72437 0.91078 0.0
H1368 H 0.83441 0.71916 0.93075 0.0
H1369 H 0.82658 0.70687 0.91506 0.0
H1370 H 0.79953 0.69531 0.92676 0.0
H1371 H 0.79732 0.6763 0.95026 0.0
H1372 H 0.99598 0.98194 0.45698 0.0
H1373 H 0.97939 0.98427 0.43247 0.0
H1374 H 0.02121 0.00826 0.40791 0.0
H1375 H 0.03786 0.00592 0.43245 0.0
H1376 H 0.97442 0.01402 0.41459 0.0
H1377 H 1.00248 0.97198 0.37915 0.0
H1378 H 0.00496 0.97169 0.40044 0.0
H1379 H 0.01641 0.98713 0.3881 0.0
C1380 C 1.00163 0.98761 0.44632 0.0
C1381 C 0.01817 0.99377 0.44653 0.0
C1382 C 0.99217 0.98893 0.43236 0.0
C1383 C 0.99912 0.99628 0.41837 0.0
C1384 C 0.01568 1.00231 0.41852 0.0
H1385 H 0.96016 0.01874 0.32348 0.0
H1386 H 0.97764 0.01515 0.34716 0.0
C1387 C 0.02514 1.00105 0.43251 0.0
C1388 C 0.98884 0.99831 0.40381 0.0
H1389 H 0.98307 0.98729 0.36586 0.0
C1390 C 0.97626 0.00814 0.40394 0.0
C1391 C 0.99136 0.9907 0.38995 0.0
C1392 C 0.00444 0.97967 0.38934 0.0
C1393 C 0.96621 0.01072 0.39049 0.0
C1394 C 0.9686 1.00296 0.37665 0.0
C1395 C 0.98125 0.9932 0.3765 0.0
C1396 C 0.95802 0.00478 0.36224 0.0
C1397 C 0.95337 0.02203 0.39111 0.0
C1398 C 0.94124 0.99986 0.3628 0.0
C1399 C 0.93124 1.00189 0.34931 0.0
C1400 C 0.93784 0.00874 0.33493 0.0
C1401 C 0.95471 0.01332 0.33433 0.0
C1402 C 0.96471 0.01134 0.34786 0.0
H1403 H 0.95606 0.03033 0.40076 0.0
H1404 H 0.95229 0.02942 0.37971 0.0
H1405 H 0.94145 0.01478 0.39339 0.0
H1406 H 0.93588 0.99439 0.37368 0.0
H1407 H 0.91834 0.99795 0.35009 0.0
H1408 H 0.20192 0.24345 0.70118 0.0
H1409 H 0.21214 0.22452 0.68431 0.0
H1410 H 0.25141 0.26105 0.67031 0.0
H1411 H 0.24131 0.27988 0.68734 0.0
H1412 H 0.21555 0.22896 0.65175 0.0
H1413 H 0.27498 0.22132 0.68208 0.0
H1414 H 0.25906 0.22989 0.69129 0.0
H1415 H 0.27182 0.24209 0.67718 0.0
C1416 C 0.21277 0.24735 0.69454 0.0
C1417 C 0.22072 0.26315 0.69532 0.0
C1418 C 0.21861 0.23657 0.68494 0.0
C1419 C 0.23261 0.24132 0.67615 0.0
C1420 C 0.24074 0.25702 0.67718 0.0
H1421 H 0.28213 0.20106 0.60341 0.0
H1422 H 0.27338 0.21748 0.62343 0.0
C1423 C 0.23491 0.2678 0.68679 0.0
C1424 C 0.23817 0.2302 0.66523 0.0
H1425 H 0.27067 0.21122 0.65654 0.0
C1426 C 0.22755 0.22496 0.65287 0.0
C1427 C 0.25386 0.22506 0.66669 0.0
C1428 C 0.26555 0.22974 0.68011 0.0
C1429 C 0.23231 0.21503 0.64169 0.0
C1430 C 0.24802 0.20998 0.64308 0.0
C1431 C 0.25862 0.21512 0.6555 0.0
C1432 C 0.25377 0.1996 0.63155 0.0
C1433 C 0.22063 0.21044 0.62822 0.0
C1434 C 0.24587 0.18396 0.62971 0.0
C1435 C 0.25086 0.17453 0.61831 0.0
C1436 C 0.26394 0.18051 0.60859 0.0
C1437 C 0.27212 0.19602 0.61079 0.0
C1438 C 0.26709 0.20545 0.62218 0.0
H1439 H 0.21078 0.21842 0.62669 0.0
H1440 H 0.22708 0.21108 0.61692 0.0
H1441 H 0.21491 0.1978 0.63071 0.0
H1442 H 0.23578 0.17908 0.63706 0.0
H1443 H 0.2445 0.16252 0.61713 0.0
H1444 H 0.52762 0.5699 0.58952 0.0
H1445 H 0.51022 0.56561 0.61248 0.0
H1446 H 0.49868 0.51526 0.60347 0.0
H1447 H 0.51594 0.51949 0.58032 0.0
H1448 H 0.4711 0.53261 0.60857 0.0
H1449 H 0.51959 0.53993 0.65553 0.0
H1450 H 0.52064 0.55571 0.63974 0.0
H1451 H 0.52362 0.53547 0.63565 0.0
C1452 C 0.52137 0.55791 0.59242 0.0
C1453 C 0.52315 0.54503 0.58312 0.0
C1454 C 0.51155 0.55546 0.6056 0.0
C1455 C 0.50331 0.54009 0.60973 0.0
C1456 C 0.50503 0.52719 0.6005 0.0
H1457 H 0.45132 0.50955 0.69617 0.0
H1458 H 0.46923 0.5117 0.67369 0.0
C1459 C 0.51495 0.5296 0.58736 0.0
C1460 C 0.49251 0.53765 0.62342 0.0
H1461 H 0.49236 0.53904 0.66356 0.0
C1462 C 0.47573 0.53393 0.62061 0.0
C1463 C 0.49864 0.53927 0.63909 0.0
C1464 C 0.51662 0.54268 0.64278 0.0
C1465 C 0.46484 0.53215 0.63307 0.0
C1466 C 0.47093 0.53424 0.64869 0.0
C1467 C 0.48774 0.53758 0.65154 0.0
C1468 C 0.46002 0.53302 0.66225 0.0
C1469 C 0.44693 0.52793 0.62947 0.0
C1470 C 0.44905 0.54442 0.66332 0.0
C1471 C 0.43891 0.54335 0.67624 0.0
C1472 C 0.43956 0.53084 0.68835 0.0
C1473 C 0.45064 0.51947 0.68721 0.0
C1474 C 0.46082 0.52061 0.67432 0.0
H1475 H 0.44463 0.52325 0.61757 0.0
H1476 H 0.44144 0.51871 0.63849 0.0
H1477 H 0.44071 0.53897 0.62976 0.0
H1478 H 0.44846 0.55425 0.65425 0.0
H1479 H 0.43074 0.55247 0.67686 0.0
H1480 H 0.80668 0.2777 0.6974 0.0
H1481 H 0.80315 0.29284 0.67165 0.0
H1482 H 0.75408 0.26927 0.66735 0.0
H1483 H 0.75758 0.25416 0.69306 0.0
H1484 H 0.79398 0.28022 0.64128 0.0
H1485 H 0.74955 0.31858 0.66142 0.0
H1486 H 0.76236 0.30765 0.67505 0.0
H1487 H 0.74476 0.29711 0.66578 0.0
C1488 C 0.79515 0.27583 0.69092 0.0
C1489 C 0.78231 0.26502 0.69725 0.0
C1490 C 0.79316 0.28442 0.67626 0.0
C1491 C 0.77827 0.28235 0.66775 0.0
C1492 C 0.76555 0.27125 0.67389 0.0
H1493 H 0.74208 0.32908 0.58026 0.0
H1494 H 0.74537 0.31168 0.60452 0.0
C1495 C 0.76756 0.26262 0.68852 0.0
C1496 C 0.77607 0.29178 0.65244 0.0
H1497 H 0.7549 0.32104 0.63414 0.0
C1498 C 0.78546 0.28917 0.63969 0.0
C1499 C 0.7649 0.30338 0.65043 0.0
C1500 C 0.75488 0.307 0.6639 0.0
C1501 C 0.78384 0.29774 0.62488 0.0
C1502 C 0.77279 0.30949 0.62292 0.0
C1503 C 0.76334 0.31202 0.63566 0.0
C1504 C 0.77104 0.31953 0.60784 0.0
C1505 C 0.79375 0.29393 0.61141 0.0
C1506 C 0.78436 0.32977 0.6017 0.0
C1507 C 0.78257 0.33962 0.58776 0.0
C1508 C 0.76735 0.33954 0.57976 0.0
C1509 C 0.75402 0.32927 0.58598 0.0
C1510 C 0.75584 0.3194 0.5999 0.0
H1511 H 0.79788 0.28171 0.61346 0.0
H1512 H 0.78669 0.2945 0.60001 0.0
H1513 H 0.80472 0.30295 0.61034 0.0
H1514 H 0.79613 0.33032 0.60779 0.0
H1515 H 0.79313 0.34725 0.58324 0.0
H1516 H 0.48186 0.97895 0.62159 0.0
H1517 H 0.50062 0.98047 0.64457 0.0
H1518 H 0.54 0.97284 0.61538 0.0
H1519 H 0.52149 0.972 0.5922 0.0
H1520 H 0.5191 0.95762 0.65827 0.0
H1521 H 0.55885 0.01287 0.63713 0.0
H1522 H 0.53938 0.00675 0.62778 0.0
H1523 H 0.55689 0.99716 0.62363 0.0
C1524 C 0.49456 0.97785 0.61999 0.0
C1525 C 0.50017 0.97547 0.605 0.0
C1526 C 0.50524 0.97859 0.63317 0.0
C1527 C 0.52176 0.97703 0.63165 0.0
C1528 C 0.52737 0.97441 0.61678 0.0
H1529 H 0.60438 0.97492 0.69794 0.0
H1530 H 0.58576 0.9731 0.67483 0.0
C1531 C 0.51672 0.97373 0.60357 0.0
C1532 C 0.53303 0.97778 0.64571 0.0
H1533 H 0.5679 0.99829 0.66037 0.0
C1534 C 0.52973 0.96656 0.65876 0.0
C1535 C 0.5469 0.98946 0.64634 0.0
C1536 C 0.55067 1.00235 0.63304 0.0
C1537 C 0.54005 0.96654 0.67231 0.0
C1538 C 0.55394 0.97815 0.67289 0.0
C1539 C 0.55727 0.98936 0.65985 0.0
C1540 C 0.56508 0.97902 0.68699 0.0
C1541 C 0.53618 0.95391 0.68581 0.0
C1542 C 0.55964 0.98311 0.70144 0.0
C1543 C 0.57027 0.98431 0.71464 0.0
C1544 C 0.58659 0.98147 0.71364 0.0
C1545 C 0.59197 0.97738 0.6991 0.0
C1546 C 0.58133 0.97624 0.6859 0.0
H1547 H 0.52736 0.94368 0.6821 0.0
H1548 H 0.5474 0.94904 0.69068 0.0
H1549 H 0.53076 0.95956 0.69544 0.0
H1550 H 0.54722 0.98561 0.70244 0.0
H1551 H 0.56577 0.9878 0.72552 0.0
H1552 H 0.83631 0.20673 0.76006 0.0
H1553 H 0.85936 0.21345 0.77823 0.0
H1554 H 0.84851 0.26289 0.7764 0.0
H1555 H 0.82509 0.25616 0.75863 0.0
H1556 H 0.88656 0.23638 0.77332 0.0
H1557 H 0.85145 0.25023 0.82402 0.0
H1558 H 0.84206 0.23971 0.80757 0.0
H1559 H 0.84719 0.26133 0.80559 0.0
C1560 C 0.83869 0.21899 0.76368 0.0
C1561 C 0.82878 0.23088 0.75797 0.0
C1562 C 0.85194 0.22283 0.77397 0.0
C1563 C 0.8555 0.23861 0.77884 0.0
C1564 C 0.84579 0.25057 0.77302 0.0
H1565 H 0.93196 0.28201 0.84139 0.0
H1566 H 0.90883 0.27735 0.82273 0.0
C1567 C 0.83253 0.24674 0.76272 0.0
C1568 C 0.86958 0.24255 0.78977 0.0
H1569 H 0.88012 0.25535 0.82648 0.0
C1570 C 0.88516 0.24051 0.78495 0.0
C1571 C 0.86771 0.24799 0.80491 0.0
C1572 C 0.8512 0.24983 0.81094 0.0
C1573 C 0.89895 0.24383 0.79485 0.0
C1574 C 0.89706 0.24909 0.81006 0.0
C1575 C 0.88151 0.25133 0.81481 0.0
C1576 C 0.91102 0.25189 0.82137 0.0
C1577 C 0.91545 0.24188 0.78887 0.0
C1578 C 0.91972 0.23907 0.82697 0.0
C1579 C 0.93285 0.24165 0.83768 0.0
C1580 C 0.93751 0.25713 0.84307 0.0
C1581 C 0.92861 0.26992 0.83759 0.0
C1582 C 0.91545 0.2673 0.82687 0.0
H1583 H 0.91532 0.24201 0.77575 0.0
H1584 H 0.92476 0.25165 0.79269 0.0
H1585 H 0.91912 0.23009 0.7938 0.0
H1586 H 0.91625 0.22699 0.82316 0.0
H1587 H 0.93922 0.23147 0.84191 0.0
H1588 H 0.46569 0.93923 0.52622 0.0
H1589 H 0.46732 0.91605 0.51039 0.0
H1590 H 0.51869 0.91818 0.52177 0.0
H1591 H 0.517 0.94106 0.53782 0.0
H1592 H 0.48539 0.9153 0.48421 0.0
H1593 H 0.50368 0.87042 0.53126 0.0
H1594 H 0.49585 0.88882 0.5356 0.0
H1595 H 0.51678 0.88923 0.53056 0.0
C1596 C 0.47725 0.93457 0.52544 0.0
C1597 C 0.4912 0.94186 0.53321 0.0
C1598 C 0.47819 0.92139 0.51641 0.0
C1599 C 0.49308 0.91523 0.51507 0.0
C1600 C 0.50701 0.92247 0.52292 0.0
H1601 H 0.52859 0.84466 0.45967 0.0
H1602 H 0.5253 0.86623 0.47686 0.0
C1603 C 0.50606 0.93561 0.53199 0.0
C1604 C 0.49423 0.9018 0.50481 0.0
H1605 H 0.5061 0.86395 0.50461 0.0
C1606 C 0.48978 0.90401 0.4887 0.0
C1607 C 0.5 0.88709 0.51068 0.0
C1608 C 0.5042 0.88364 0.528 0.0
C1609 C 0.4913 0.89208 0.47822 0.0
C1610 C 0.49726 0.87748 0.48405 0.0
C1611 C 0.5016 0.8752 0.50017 0.0
C1612 C 0.49915 0.86445 0.47357 0.0
C1613 C 0.48692 0.89537 0.46091 0.0
C1614 C 0.48552 0.85623 0.46613 0.0
C1615 C 0.48736 0.84394 0.45626 0.0
C1616 C 0.50288 0.83962 0.45366 0.0
C1617 C 0.5165 0.84784 0.46123 0.0
C1618 C 0.51464 0.86009 0.47114 0.0
H1619 H 0.48609 0.90844 0.45775 0.0
H1620 H 0.49601 0.89126 0.45334 0.0
H1621 H 0.47492 0.88855 0.45819 0.0
H1622 H 0.47344 0.85926 0.46802 0.0
H1623 H 0.47664 0.83793 0.45053 0.0
H1624 H 0.18629 0.31779 0.75864 0.0
H1625 H 0.16369 0.31484 0.77671 0.0
H1626 H 0.16913 0.26417 0.78645 0.0
H1627 H 0.19207 0.26711 0.76867 0.0
H1628 H 0.13422 0.29401 0.77537 0.0
H1629 H 0.17011 0.28136 0.83079 0.0
H1630 H 0.17947 0.28977 0.81261 0.0
H1631 H 0.17251 0.26849 0.81522 0.0
C1632 C 0.18281 0.30605 0.76476 0.0
C1633 C 0.19108 0.29271 0.76233 0.0
C1634 C 0.16982 0.30437 0.775 0.0
C1635 C 0.1649 0.28935 0.78309 0.0
C1636 C 0.17293 0.27593 0.78052 0.0
H1637 H 0.08991 0.25601 0.85047 0.0
H1638 H 0.11251 0.25867 0.83244 0.0
C1639 C 0.18591 0.27759 0.77024 0.0
C1640 C 0.15122 0.28776 0.79406 0.0
H1641 H 0.14152 0.27904 0.83281 0.0
C1642 C 0.1358 0.29079 0.78794 0.0
C1643 C 0.15335 0.28353 0.81043 0.0
C1644 C 0.16977 0.28072 0.81774 0.0
C1645 C 0.12237 0.28946 0.79773 0.0
C1646 C 0.12451 0.28531 0.81413 0.0
C1647 C 0.13992 0.28224 0.82024 0.0
C1648 C 0.11085 0.28389 0.82514 0.0
C1649 C 0.10594 0.29214 0.79037 0.0
C1650 C 0.10258 0.29728 0.82721 0.0
C1651 C 0.08955 0.29577 0.83742 0.0
C1652 C 0.08461 0.28086 0.84583 0.0
C1653 C 0.09319 0.26759 0.84396 0.0
C1654 C 0.10619 0.2691 0.83375 0.0
H1655 H 0.10554 0.29102 0.77738 0.0
H1656 H 0.09619 0.28336 0.79577 0.0
H1657 H 0.10333 0.30455 0.7924 0.0
H1658 H 0.10619 0.30889 0.82092 0.0
H1659 H 0.08317 0.30621 0.83851 0.0
H1660 H 0.54113 0.56681 0.51229 0.0
H1661 H 0.53846 0.59095 0.49438 0.0
H1662 H 0.53532 0.61907 0.53448 0.0
H1663 H 0.53862 0.59523 0.55244 0.0
H1664 H 0.51304 0.60951 0.49134 0.0
H1665 H 0.56984 0.647 0.50872 0.0
H1666 H 0.56617 0.62552 0.51418 0.0
H1667 H 0.55737 0.6397 0.52519 0.0
C1668 C 0.54016 0.5782 0.5173 0.0
C1669 C 0.54014 0.57909 0.53381 0.0
C1670 C 0.53852 0.59195 0.50705 0.0
C1671 C 0.53693 0.60685 0.5131 0.0
C1672 C 0.53685 0.60777 0.52955 0.0
H1673 H 0.51724 0.70203 0.47539 0.0
H1674 H 0.52174 0.67741 0.49183 0.0
C1675 C 0.53853 0.59407 0.5398 0.0
C1676 C 0.53473 0.62132 0.50224 0.0
H1677 H 0.55037 0.66062 0.49304 0.0
C1678 C 0.52128 0.62064 0.4916 0.0
C1679 C 0.5455 0.63583 0.5026 0.0
C1680 C 0.56062 0.63705 0.51318 0.0
C1681 C 0.51806 0.63423 0.48162 0.0
C1682 C 0.52867 0.6488 0.48221 0.0
C1683 C 0.54222 0.64944 0.4927 0.0
C1684 C 0.52584 0.66359 0.47213 0.0
C1685 C 0.5031 0.63305 0.47083 0.0
C1686 C 0.52681 0.66398 0.45563 0.0
C1687 C 0.52438 0.67808 0.44619 0.0
C1688 C 0.52097 0.69206 0.4531 0.0
C1689 C 0.52004 0.69158 0.46968 0.0
C1690 C 0.52253 0.6775 0.47909 0.0
H1691 H 0.49444 0.62219 0.47418 0.0
H1692 H 0.49675 0.64402 0.47104 0.0
H1693 H 0.50676 0.63219 0.45851 0.0
H1694 H 0.52965 0.65345 0.45006 0.0
H1695 H 0.52548 0.6781 0.4335 0.0
H1696 H 0.84019 0.76313 0.7929 0.0
H1697 H 0.86365 0.75966 0.77725 0.0
H1698 H 0.86081 0.80675 0.75293 0.0
H1699 H 0.83739 0.81025 0.76863 0.0
H1700 H 0.86416 0.76027 0.74364 0.0
H1701 H 0.90905 0.80804 0.76742 0.0
H1702 H 0.89063 0.80014 0.77744 0.0
H1703 H 0.88995 0.8147 0.7607 0.0
C1704 C 0.84463 0.77272 0.78422 0.0
C1705 C 0.83692 0.78686 0.78177 0.0
C1706 C 0.858 0.77075 0.77533 0.0
C1707 C 0.86403 0.783 0.76402 0.0
C1708 C 0.85649 0.79725 0.76174 0.0
H1709 H 0.93983 0.79432 0.69533 0.0
H1710 H 0.91752 0.79755 0.71235 0.0
C1711 C 0.84309 0.7992 0.77061 0.0
C1712 C 0.87779 0.78058 0.75416 0.0
H1713 H 0.91662 0.79585 0.74488 0.0
C1714 C 0.87568 0.76797 0.74397 0.0
C1715 C 0.89275 0.7907 0.75459 0.0
C1716 C 0.89585 0.80408 0.76571 0.0
C1717 C 0.88802 0.76542 0.7339 0.0
C1718 C 0.90301 0.77554 0.73432 0.0
C1719 C 0.90513 0.78811 0.74458 0.0
C1720 C 0.91656 0.77343 0.72403 0.0
C1721 C 0.88472 0.75221 0.7226 0.0
C1722 C 0.92357 0.75886 0.72507 0.0
C1723 C 0.93621 0.75689 0.71521 0.0
C1724 C 0.9422 0.76953 0.70421 0.0
C1725 C 0.93532 0.78422 0.70343 0.0
C1726 C 0.92265 0.78615 0.71325 0.0
H1727 H 0.87148 0.74857 0.72075 0.0
H1728 H 0.89009 0.75614 0.71094 0.0
H1729 H 0.89028 0.74137 0.72758 0.0
H1730 H 0.91929 0.74899 0.73353 0.0
H1731 H 0.94114 0.74539 0.71609 0.0
H1732 H 0.04668 0.93153 0.4887 0.0
H1733 H 0.04055 0.90748 0.50707 0.0
H1734 H 0.05191 0.93674 0.54666 0.0
H1735 H 0.05802 0.96083 0.5284 0.0
H1736 H 0.0643 0.89651 0.53318 0.0
H1737 H 0.0049 0.91026 0.5538 0.0
H1738 H 0.01297 0.91852 0.53498 0.0
H1739 H 0.02138 0.92647 0.55297 0.0
C1740 C 0.04771 0.93285 0.50132 0.0
C1741 C 0.05283 0.94804 0.50713 0.0
C1742 C 0.04428 0.91912 0.51177 0.0
C1743 C 0.04569 0.92042 0.52817 0.0
C1744 C 0.05066 0.93556 0.53402 0.0
H1745 H 0.02807 0.85361 0.61101 0.0
H1746 H 0.03316 0.8774 0.59223 0.0
C1747 C 0.05423 0.94926 0.52359 0.0
C1748 C 0.04245 0.90584 0.53921 0.0
H1749 H 0.01569 0.88748 0.56647 0.0
C1750 C 0.05365 0.89445 0.54043 0.0
C1751 C 0.02863 0.90336 0.54869 0.0
C1752 C 0.01617 0.91521 0.54757 0.0
C1753 C 0.05153 0.88068 0.55114 0.0
C1754 C 0.03757 0.87805 0.56054 0.0
C1755 C 0.02636 0.88948 0.55926 0.0
C1756 C 0.03442 0.86357 0.57184 0.0
C1757 C 0.0645 0.86936 0.55259 0.0
C1758 C 0.0332 0.84789 0.56659 0.0
C1759 C 0.0304 0.8343 0.57731 0.0
C1760 C 0.02851 0.83613 0.59345 0.0
C1761 C 0.02939 0.85183 0.59863 0.0
C1762 C 0.03234 0.86542 0.58792 0.0
H1763 H 0.07632 0.87545 0.54821 0.0
H1764 H 0.06634 0.8646 0.56506 0.0
H1765 H 0.06074 0.85894 0.54535 0.0
H1766 H 0.0343 0.84616 0.55417 0.0
H1767 H 0.02949 0.82235 0.57293 0.0
H1768 H 0.20554 0.76486 0.78194 0.0
H1769 H 0.1818 0.76714 0.76408 0.0
H1770 H 0.17107 0.71509 0.76711 0.0
H1771 H 0.19469 0.7127 0.78511 0.0
H1772 H 0.17454 0.75167 0.73385 0.0
H1773 H 0.12839 0.73303 0.77968 0.0
H1774 H 0.14925 0.7403 0.78463 0.0
H1775 H 0.14413 0.7201 0.77861 0.0
C1776 C 0.19808 0.75391 0.77886 0.0
C1777 C 0.20193 0.7386 0.78499 0.0
C1778 C 0.18459 0.75523 0.76861 0.0
C1779 C 0.17463 0.74129 0.76443 0.0
C1780 C 0.17854 0.72599 0.77033 0.0
H1781 H 0.08375 0.72581 0.71023 0.0
H1782 H 0.10829 0.72283 0.7266 0.0
C1783 C 0.19209 0.72465 0.78051 0.0
C1784 C 0.16011 0.74279 0.75392 0.0
H1785 H 0.11863 0.73729 0.75334 0.0
C1786 C 0.1623 0.74856 0.73807 0.0
C1787 C 0.1442 0.73865 0.75951 0.0
C1788 C 0.14124 0.73277 0.77656 0.0
C1789 C 0.14895 0.75009 0.72755 0.0
C1790 C 0.133 0.74614 0.73317 0.0
C1791 C 0.13085 0.74032 0.74904 0.0
C1792 C 0.11835 0.74797 0.72284 0.0
C1793 C 0.15209 0.75558 0.71044 0.0
C1794 C 0.11576 0.76313 0.71538 0.0
C1795 C 0.10184 0.76484 0.70583 0.0
C1796 C 0.09009 0.75145 0.70369 0.0
C1797 C 0.09265 0.73632 0.71136 0.0
C1798 C 0.10662 0.73461 0.72083 0.0
H1799 H 0.16446 0.75351 0.70712 0.0
H1800 H 0.14303 0.74916 0.7024 0.0
H1801 H 0.15117 0.76877 0.70855 0.0
H1802 H 0.12446 0.7737 0.71703 0.0
H1803 H 0.10036 0.77664 0.70002 0.0
H1804 H 0.97876 0.5721 0.53426 0.0
H1805 H 0.98161 0.5939 0.55226 0.0
H1806 H 1.00221 0.62745 0.51501 0.0
H1807 H 0.99898 0.60584 0.49679 0.0
H1808 H 0.00987 0.61368 0.5617 0.0
H1809 H 0.96483 0.64999 0.53024 0.0
H1810 H 0.96616 0.62916 0.52654 0.0
H1811 H 0.98051 0.64508 0.51806 0.0
C1812 C 0.98377 0.58416 0.52985 0.0
C1813 C 0.98853 0.58726 0.51405 0.0
C1814 C 0.98548 0.59657 0.54018 0.0
C1815 C 0.99189 0.61234 0.5349 0.0
C1816 C 0.99697 0.61542 0.51924 0.0
H1817 H 0.01019 0.70378 0.57839 0.0
H1818 H 0.00785 0.68186 0.56059 0.0
C1819 C 0.99529 0.60302 0.5089 0.0
C1820 C 0.99333 0.62552 0.54582 0.0
H1821 H 0.98024 0.66192 0.55135 0.0
C1822 C 1.00336 0.62421 0.55949 0.0
C1823 C 0.98481 0.63922 0.54288 0.0
C1824 C 0.97336 0.64095 0.52871 0.0
C1825 C 0.00533 0.63641 0.57017 0.0
C1826 C 0.9968 0.65011 0.56723 0.0
C1827 C 0.98677 0.6514 0.55356 0.0
C1828 C 0.99817 0.66331 0.57814 0.0
C1829 C 0.01682 0.63469 0.58431 0.0
C1830 C 0.9933 0.66019 0.59386 0.0
C1831 C 0.99456 0.67272 0.60406 0.0
C1832 C 1.0006 0.68863 0.59869 0.0
C1833 C 0.00529 0.69172 0.58286 0.0
C1834 C 1.00405 0.67919 0.57269 0.0
H1835 H 0.02546 0.62579 0.58267 0.0
H1836 H 0.02387 0.64651 0.5866 0.0
H1837 H 0.00969 0.63034 0.59493 0.0
H1838 H 0.98837 0.6481 0.59821 0.0
H1839 H 0.99059 0.66997 0.61609 0.0
H1840 H 0.76068 0.81431 0.23985 0.0
H1841 H 0.77932 0.83934 0.24149 0.0
H1842 H 0.73845 0.86668 0.2425 0.0
H1843 H 0.71978 0.84178 0.24084 0.0
H1844 H 0.78224 0.86795 0.22153 0.0
H1845 H 0.76543 0.87965 0.28193 0.0
H1846 H 0.75991 0.86037 0.27365 0.0
H1847 H 0.74846 0.87706 0.26816 0.0
C1848 C 0.75568 0.82567 0.2403 0.0
C1849 C 0.73876 0.82604 0.24037 0.0
C1850 C 0.76633 0.83994 0.2413 0.0
C1851 C 0.76026 0.85481 0.24243 0.0
C1852 C 0.74339 0.85528 0.24205 0.0
H1853 H 0.80247 0.95437 0.24961 0.0
H1854 H 0.78443 0.92917 0.24699 0.0
C1855 C 0.73275 0.84104 0.24109 0.0
C1856 C 0.77155 0.86986 0.24393 0.0
H1857 H 0.78221 0.90071 0.26792 0.0
C1858 C 0.78232 0.87508 0.2317 0.0
C1859 C 0.7716 0.87912 0.25723 0.0
C1860 C 0.76085 0.87372 0.27107 0.0
C1861 C 0.79291 0.88952 0.23226 0.0
C1862 C 0.79287 0.89883 0.24551 0.0
C1863 C 0.78216 0.89357 0.25776 0.0
C1864 C 0.80388 0.91406 0.24693 0.0
C1865 C 0.80381 0.8949 0.21853 0.0
C1866 C 0.82079 0.91387 0.24796 0.0
C1867 C 0.83113 0.92822 0.24956 0.0
C1868 C 0.82476 0.94305 0.25024 0.0
C1869 C 0.80779 0.94316 0.24931 0.0
C1870 C 0.79746 0.92878 0.24772 0.0
H1871 H 0.79963 0.88859 0.20777 0.0
H1872 H 0.80435 0.90818 0.21565 0.0
H1873 H 0.81631 0.89206 0.22177 0.0
H1874 H 0.82598 0.90257 0.24772 0.0
H1875 H 0.84412 0.92765 0.25055 0.0
H1876 H 0.75261 0.1928 0.27688 0.0
H1877 H 0.76578 0.16855 0.27314 0.0
H1878 H 0.8074 0.18745 0.30108 0.0
H1879 H 0.79413 0.21148 0.30507 0.0
H1880 H 0.79477 0.16688 0.25896 0.0
H1881 H 0.79756 0.1417 0.32141 0.0
H1882 H 0.78504 0.15735 0.3148 0.0
H1883 H 0.80648 0.1624 0.31863 0.0
C1884 C 0.76452 0.19164 0.28229 0.0
C1885 C 0.77238 0.20394 0.29123 0.0
C1886 C 0.77202 0.17785 0.28015 0.0
C1887 C 0.78748 0.17608 0.287 0.0
C1888 C 0.79533 0.18838 0.29596 0.0
H1889 H 0.85763 0.10763 0.28347 0.0
H1890 H 0.84295 0.13061 0.2877 0.0
C1891 C 0.78781 0.20214 0.29815 0.0
C1892 C 0.79566 0.1617 0.28425 0.0
H1893 H 0.81304 0.13005 0.30319 0.0
C1894 C 0.79866 0.15875 0.26862 0.0
C1895 C 0.80073 0.15111 0.29687 0.0
C1896 C 0.79716 0.15318 0.31386 0.0
C1897 C 0.80693 0.14573 0.26528 0.0
C1898 C 0.81216 0.13526 0.27791 0.0
C1899 C 0.80906 0.13814 0.29353 0.0
C1900 C 0.82098 0.12133 0.27518 0.0
C1901 C 0.81039 0.14351 0.2483 0.0
C1902 C 0.81343 0.10842 0.26685 0.0
C1903 C 0.82174 0.09521 0.26449 0.0
C1904 C 0.83776 0.09462 0.27048 0.0
C1905 C 0.84525 0.10758 0.27886 0.0
C1906 C 0.83691 0.12077 0.28123 0.0
H1907 H 0.80898 0.15461 0.24044 0.0
H1908 H 0.8229 0.14028 0.24728 0.0
H1909 H 0.80172 0.13347 0.24399 0.0
H1910 H 0.80101 0.10847 0.26235 0.0
H1911 H 0.8155 0.08532 0.25823 0.0
H1912 H 0.45227 0.03486 0.01764 0.0
H1913 H 0.42701 0.01634 0.01783 0.0
H1914 H 0.42371 0.0219 0.96683 0.0
H1915 H 0.44905 0.04035 0.96654 0.0
H1916 H 0.39669 0.02215 0.00671 0.0
H1917 H 0.41778 0.97298 0.97523 0.0
H1918 H 0.43163 0.98906 0.98302 0.0
H1919 H 0.42066 0.99254 0.96458 0.0
C1920 C 0.44615 0.03214 0.00646 0.0
C1921 C 0.45266 0.03903 0.99207 0.0
C1922 C 0.43176 0.02152 0.00659 0.0
C1923 C 0.4236 0.01755 0.99234 0.0
C1924 C 0.43 0.02448 0.97795 0.0
H1925 H 0.3316 0.95932 0.97196 0.0
H1926 H 0.35672 0.97814 0.97028 0.0
C1927 C 0.44446 0.03504 0.9778 0.0
C1928 C 0.40811 0.00657 0.99264 0.0
H1929 H 0.38956 0.97075 0.98007 0.0
C1930 C 0.39515 0.01089 1.00093 0.0
C1931 C 0.40612 0.99189 0.98506 0.0
C1932 C 0.41982 0.98623 0.97659 0.0
C1933 C 0.38022 1.00098 1.00175 0.0
C1934 C 0.37826 0.98632 0.99421 0.0
C1935 C 0.39113 0.98205 0.98579 0.0
C1936 C 0.36304 0.97506 0.99525 0.0
C1937 C 0.36658 0.00635 0.01054 0.0
C1938 C 0.3584 0.96703 0.00982 0.0
C1939 C 0.34411 0.95629 0.01081 0.0
C1940 C 0.33418 0.95339 0.99724 0.0
C1941 C 0.3389 0.96144 0.98264 0.0
C1942 C 0.35327 0.97211 0.98164 0.0
H1943 H 0.36877 0.01944 0.01261 0.0
H1944 H 0.35481 0.00399 0.00389 0.0
H1945 H 0.3655 0.99935 0.02221 0.0
H1946 H 0.36589 0.96902 0.02041 0.0
H1947 H 0.34074 0.95038 0.02225 0.0
H1948 H 0.27788 0.32299 0.29726 0.0
H1949 H 0.2593 0.34372 0.29341 0.0
H1950 H 0.26772 0.3549 0.34207 0.0
H1951 H 0.28678 0.3346 0.34588 0.0
H1952 H 0.23086 0.34576 0.30891 0.0
H1953 H 0.27583 0.39943 0.31823 0.0
H1954 H 0.28177 0.37986 0.31495 0.0
H1955 H 0.27536 0.38383 0.33413 0.0
C1956 C 0.27598 0.33001 0.30709 0.0
C1957 C 0.28393 0.32719 0.32186 0.0
C1958 C 0.26526 0.34178 0.3049 0.0
C1959 C 0.2623 0.35102 0.31738 0.0
C1960 C 0.27005 0.34812 0.33218 0.0
H1961 H 0.20081 0.42724 0.32619 0.0
H1962 H 0.21882 0.40604 0.33108 0.0
C1963 C 0.2808 0.33637 0.33439 0.0
C1964 C 0.25083 0.36343 0.31497 0.0
H1965 H 0.24809 0.4039 0.31609 0.0
C1966 C 0.23463 0.35848 0.31042 0.0
C1967 C 0.25577 0.38002 0.31699 0.0
C1968 C 0.27316 0.38617 0.3212 0.0
C1969 C 0.22319 0.36964 0.30803 0.0
C1970 C 0.22814 0.38622 0.31 0.0
C1971 C 0.24431 0.39116 0.31462 0.0
C1972 C 0.2168 0.39869 0.3071 0.0
C1973 C 0.20582 0.36353 0.30368 0.0
C1974 C 0.20977 0.40165 0.29198 0.0
C1975 C 0.19941 0.4137 0.28916 0.0
C1976 C 0.19593 0.42309 0.30141 0.0
C1977 C 0.20302 0.42008 0.31656 0.0
C1978 C 0.21341 0.40804 0.31935 0.0
H1979 H 0.20309 0.35028 0.30667 0.0
H1980 H 0.19718 0.36991 0.30983 0.0
H1981 H 0.20373 0.36587 0.29074 0.0
H1982 H 0.21243 0.39477 0.28229 0.0
H1983 H 0.19407 0.41561 0.2774 0.0
H1984 H 0.07966 0.02 0.48517 0.0
H1985 H 0.10464 0.03802 0.49002 0.0
H1986 H 0.13019 0.99655 0.50282 0.0
H1987 H 0.10546 0.97846 0.49746 0.0
H1988 H 0.12287 0.0406 0.51805 0.0
H1989 H 0.15998 0.02289 0.47074 0.0
H1990 H 0.13821 0.01767 0.47118 0.0
H1991 H 0.15145 0.00607 0.48352 0.0
C1992 C 0.09066 0.01471 0.48877 0.0
C1993 C 0.09057 0.99778 0.49087 0.0
C1994 C 0.10489 0.02502 0.49163 0.0
C1995 C 0.11932 0.01862 0.49656 0.0
C1996 C 0.11927 1.00175 0.49873 0.0
H1997 H 0.21624 0.05687 0.52648 0.0
H1998 H 0.19098 0.04008 0.51984 0.0
C1999 C 0.10506 0.99143 0.49585 0.0
C2000 C 0.1343 0.02958 0.49998 0.0
H2001 H 0.17401 0.03905 0.49007 0.0
C2002 C 0.13402 0.04037 0.51185 0.0
C2003 C 0.14882 0.02923 0.49188 0.0
C2004 C 0.14965 0.01846 0.47851 0.0
C2005 C 0.14802 0.05053 0.51613 0.0
C2006 C 0.16259 0.05003 0.50816 0.0
C2007 C 0.16283 0.03935 0.49619 0.0
C2008 C 0.1778 0.06033 0.51219 0.0
C2009 C 0.14723 0.06139 0.52943 0.0
C2010 C 0.17879 0.07728 0.50994 0.0
C2011 C 0.19324 0.08692 0.51364 0.0
C2012 C 0.207 0.07977 0.51958 0.0
C2013 C 0.20595 0.06276 0.52174 0.0
C2014 C 0.19151 0.05315 0.51803 0.0
H2015 H 0.13635 0.05765 0.53668 0.0
H2016 H 0.15828 0.06137 0.53728 0.0
H2017 H 0.14656 0.074 0.52437 0.0
H2018 H 0.16843 0.08305 0.50515 0.0
H2019 H 0.19371 0.09996 0.51158 0.0
H2020 H 0.75781 0.20214 0.73631 0.0
H2021 H 0.74056 0.17638 0.74114 0.0
H2022 H 0.78292 0.15251 0.75446 0.0
H2023 H 0.80034 0.17809 0.74931 0.0
H2024 H 0.74305 0.14562 0.72684 0.0
H2025 H 0.75146 0.14164 0.7924 0.0
H2026 H 0.75564 0.16045 0.78036 0.0
H2027 H 0.76972 0.14562 0.78129 0.0
C2028 C 0.7635 0.19139 0.74011 0.0
C2029 C 0.78048 0.19222 0.74247 0.0
C2030 C 0.75361 0.17671 0.74294 0.0
C2031 C 0.76048 0.16263 0.74832 0.0
C2032 C 0.77739 0.16333 0.75056 0.0
H2033 H 0.72173 0.06377 0.77689 0.0
H2034 H 0.73895 0.08933 0.77084 0.0
C2035 C 0.7873 0.17798 0.74766 0.0
C2036 C 0.74996 0.14714 0.75147 0.0
H2037 H 0.73691 0.119 0.78107 0.0
C2038 C 0.74164 0.13979 0.73869 0.0
C2039 C 0.74825 0.1396 0.76693 0.0
C2040 C 0.75662 0.14724 0.78109 0.0
C2041 C 0.73183 0.12488 0.74093 0.0
C2042 C 0.73 0.11736 0.75643 0.0
C2043 C 0.73833 0.12477 0.7692 0.0
C2044 C 0.71954 0.1018 0.75971 0.0
C2045 C 0.72388 0.11714 0.72663 0.0
C2046 C 0.70288 0.10035 0.75558 0.0
C2047 C 0.69304 0.08574 0.75896 0.0
C2048 C 0.69963 0.07236 0.76674 0.0
C2049 C 0.71628 0.0739 0.77099 0.0
C2050 C 0.72613 0.08847 0.7675 0.0
H2051 H 0.73015 0.12191 0.71559 0.0
H2052 H 0.7238 0.10377 0.72791 0.0
H2053 H 0.7111 0.11989 0.72531 0.0
H2054 H 0.69743 0.1106 0.74995 0.0
H2055 H 0.6802 0.085 0.75578 0.0
H2056 H 0.46946 0.0173 0.57905 0.0
H2057 H 0.44859 0.03588 0.57531 0.0
H2058 H 0.41308 0.99633 0.56303 0.0
H2059 H 0.43382 0.97761 0.56683 0.0
H2060 H 0.42439 0.03689 0.54315 0.0
H2061 H 0.39764 0.02323 0.60269 0.0
H2062 H 0.41888 0.02188 0.59964 0.0
H2063 H 0.40366 0.00698 0.59224 0.0
C2064 C 0.45718 0.01253 0.57566 0.0
C2065 C 0.45327 0.99598 0.57326 0.0
C2066 C 0.44532 0.02317 0.57345 0.0
C2067 C 0.42935 0.01741 0.56894 0.0
C2068 C 0.42537 1.00094 0.56653 0.0
H2069 H 0.33922 0.06065 0.56053 0.0
H2070 H 0.36038 0.0425 0.56397 0.0
C2071 C 0.43724 0.99031 0.56863 0.0
C2072 C 0.41682 0.02866 0.56667 0.0
H2073 H 0.38558 0.04187 0.58505 0.0
C2074 C 0.4159 0.03806 0.55228 0.0
C2075 C 0.40576 0.02996 0.5786 0.0
C2076 C 0.40643 0.02005 0.59423 0.0
C2077 C 0.404 0.04869 0.54942 0.0
C2078 C 0.39303 0.05023 0.56145 0.0
C2079 C 0.39401 0.04075 0.57585 0.0
C2080 C 0.38029 0.06138 0.55929 0.0
C2081 C 0.40303 0.05782 0.53337 0.0
C2082 C 0.38443 0.07808 0.55571 0.0
C2083 C 0.37234 0.08848 0.55366 0.0
C2084 C 0.35588 0.08241 0.55541 0.0
C2085 C 0.35179 0.06572 0.55925 0.0
C2086 C 0.36387 0.05533 0.56117 0.0
H2087 H 0.40898 0.05191 0.52425 0.0
H2088 H 0.39021 0.05876 0.52947 0.0
H2089 H 0.40939 0.07026 0.53406 0.0
H2090 H 0.39704 0.08312 0.55463 0.0
H2091 H 0.37588 0.10131 0.55093 0.0
H2092 H 0.58315 0.50623 0.56227 0.0
H2093 H 0.60702 0.49285 0.55719 0.0
H2094 H 0.59281 0.49294 0.50766 0.0
H2095 H 0.56922 0.50668 0.51265 0.0
H2096 H 0.60832 0.46359 0.54562 0.0
H2097 H 0.63998 0.51195 0.50541 0.0
H2098 H 0.62326 0.51537 0.51721 0.0
H2099 H 0.61946 0.50569 0.49897 0.0
C2100 C 0.5853 0.50357 0.55028 0.0
C2101 C 0.57456 0.50776 0.5378 0.0
C2102 C 0.59887 0.49589 0.54739 0.0
C2103 C 0.60189 0.49219 0.53198 0.0
C2104 C 0.59099 0.49609 0.51956 0.0
H2105 H 0.67205 0.43913 0.49146 0.0
H2106 H 0.64885 0.45345 0.49655 0.0
C2107 C 0.57747 0.50385 0.52243 0.0
C2108 C 0.6161 0.48369 0.52904 0.0
H2109 H 0.65018 0.48632 0.50715 0.0
C2110 C 0.61753 0.46861 0.53729 0.0
C2111 C 0.62812 0.49026 0.51815 0.0
C2112 C 0.62775 0.50678 0.50954 0.0
C2113 C 0.63047 0.4598 0.53474 0.0
C2114 C 0.64236 0.4663 0.52376 0.0
C2115 C 0.64098 0.48136 0.51552 0.0
C2116 C 0.65639 0.45766 0.52074 0.0
C2117 C 0.63119 0.44345 0.5436 0.0
C2118 C 0.66836 0.45545 0.53262 0.0
C2119 C 0.6816 0.44729 0.52976 0.0
C2120 C 0.68311 0.44118 0.51496 0.0
C2121 C 0.67113 0.44352 0.50304 0.0
C2122 C 0.65793 0.45176 0.50589 0.0
H2123 H 0.61944 0.4387 0.54906 0.0
H2124 H 0.63447 0.43453 0.53558 0.0
H2125 H 0.64069 0.44457 0.55318 0.0
H2126 H 0.66747 0.46007 0.5441 0.0
H2127 H 0.69056 0.44558 0.53922 0.0
H2128 H 0.76013 0.26328 0.33034 0.0
H2129 H 0.76367 0.28095 0.3523 0.0
H2130 H 0.71211 0.27281 0.35986 0.0
H2131 H 0.70853 0.25478 0.33829 0.0
H2132 H 0.74947 0.30945 0.35523 0.0
H2133 H 0.73179 0.26324 0.40416 0.0
H2134 H 0.73681 0.25793 0.38486 0.0
H2135 H 0.71708 0.26376 0.38804 0.0
C2136 C 0.74958 0.26507 0.33683 0.0
C2137 C 0.73405 0.25759 0.33258 0.0
C2138 C 0.75161 0.27524 0.3493 0.0
C2139 C 0.73819 0.27802 0.35783 0.0
C2140 C 0.72268 0.27061 0.35361 0.0
H2141 H 0.72185 0.33664 0.43426 0.0
H2142 H 0.71943 0.31891 0.4124 0.0
C2143 C 0.72063 0.26046 0.34115 0.0
C2144 C 0.74028 0.28906 0.37084 0.0
H2145 H 0.73443 0.2908 0.41029 0.0
C2146 C 0.7463 0.30537 0.36729 0.0
C2147 C 0.73609 0.28369 0.38656 0.0
C2148 C 0.73022 0.26617 0.39121 0.0
C2149 C 0.74788 0.31656 0.37897 0.0
C2150 C 0.74358 0.31121 0.39467 0.0
C2151 C 0.73766 0.29487 0.39823 0.0
C2152 C 0.7451 0.32235 0.40758 0.0
C2153 C 0.75374 0.33408 0.37433 0.0
C2154 C 0.76034 0.3301 0.41217 0.0
C2155 C 0.76175 0.34032 0.42459 0.0
C2156 C 0.74795 0.34293 0.43272 0.0
C2157 C 0.73269 0.3351 0.4281 0.0
C2158 C 0.7313 0.32487 0.41569 0.0
H2159 H 0.75256 0.33694 0.36134 0.0
H2160 H 0.74684 0.34229 0.3804 0.0
H2161 H 0.76677 0.33661 0.3779 0.0
H2162 H 0.77119 0.32811 0.40626 0.0
H2163 H 0.77366 0.34625 0.42776 0.0
H2164 H 0.49569 0.04934 0.93173 0.0
H2165 H 0.51171 0.03703 0.91324 0.0
H2166 H 0.55585 0.05487 0.93812 0.0
H2167 H 0.53982 0.06719 0.95665 0.0
H2168 H 0.5365 0.05449 0.89375 0.0
H2169 H 0.56021 0.00627 0.93407 0.0
H2170 H 0.54285 0.01605 0.93864 0.0
H2171 H 0.56304 0.02626 0.94105 0.0
C2172 C 0.50881 0.05056 0.93326 0.0
C2173 C 0.51659 0.05934 0.94546 0.0
C2174 C 0.51792 0.04352 0.92274 0.0
C2175 C 0.53494 0.04494 0.92439 0.0
C2176 C 0.54271 0.05344 0.93677 0.0
H2177 H 0.61202 0.01701 0.86985 0.0
H2178 H 0.59567 0.02622 0.89002 0.0
C2179 C 0.5336 0.06054 0.94726 0.0
C2180 C 0.54458 0.03829 0.91265 0.0
H2181 H 0.57099 0.0106 0.90839 0.0
C2182 C 0.54398 0.04483 0.89691 0.0
C2183 C 0.55439 0.02578 0.91687 0.0
C2184 C 0.55513 0.01805 0.93354 0.0
C2185 C 0.55316 0.0394 0.88528 0.0
C2186 C 0.56289 0.02678 0.88944 0.0
C2187 C 0.56349 0.02024 0.90521 0.0
C2188 C 0.57265 0.02036 0.8776 0.0
C2189 C 0.55269 0.04757 0.86875 0.0
C2190 C 0.5651 0.01362 0.86413 0.0
C2191 C 0.57441 0.00841 0.85257 0.0
C2192 C 0.59144 0.00962 0.85437 0.0
C2193 C 0.59892 0.01581 0.86817 0.0
C2194 C 0.5896 0.02113 0.87968 0.0
H2195 H 0.54841 0.05971 0.86861 0.0
H2196 H 0.56487 0.04899 0.86348 0.0
H2197 H 0.54413 0.04003 0.86116 0.0
H2198 H 0.552 0.0125 0.86248 0.0
H2199 H 0.56828 0.00342 0.84221 0.0
H2200 H 0.30457 0.30051 0.37101 0.0
H2201 H 0.30425 0.28242 0.39525 0.0
H2202 H 0.30633 0.24161 0.36743 0.0
H2203 H 0.30678 0.25961 0.3432 0.0
H2204 H 0.28231 0.25661 0.40449 0.0
H2205 H 0.34303 0.23622 0.39966 0.0
H2206 H 0.3366 0.25331 0.38765 0.0
H2207 H 0.33009 0.23297 0.38245 0.0
C2208 C 0.30494 0.28768 0.37007 0.0
C2209 C 0.30581 0.28151 0.35519 0.0
C2210 C 0.30482 0.27737 0.38392 0.0
C2211 C 0.30558 0.2607 0.38318 0.0
C2212 C 0.3062 0.25448 0.36833 0.0
H2213 H 0.29761 0.17676 0.45063 0.0
H2214 H 0.29967 0.19568 0.42704 0.0
C2215 C 0.30641 0.26478 0.35449 0.0
C2216 C 0.3052 0.24975 0.39789 0.0
H2217 H 0.3258 0.22167 0.4191 0.0
C2218 C 0.29188 0.24907 0.40775 0.0
C2219 C 0.31771 0.23991 0.40214 0.0
C2220 C 0.33274 0.24072 0.39251 0.0
C2221 C 0.29055 0.23855 0.42154 0.0
C2222 C 0.30294 0.22857 0.42564 0.0
C2223 C 0.3163 0.2293 0.41586 0.0
C2224 C 0.30218 0.21721 0.44001 0.0
C2225 C 0.27574 0.23789 0.43144 0.0
C2226 C 0.3032 0.22307 0.45512 0.0
C2227 C 0.3022 0.2123 0.46865 0.0
C2228 C 0.30015 0.19543 0.46733 0.0
C2229 C 0.29939 0.18964 0.45213 0.0
C2230 C 0.30046 0.20043 0.43861 0.0
H2231 H 0.26584 0.24383 0.42501 0.0
H2232 H 0.27104 0.22514 0.43508 0.0
H2233 H 0.2791 0.24424 0.44233 0.0
H2234 H 0.30481 0.23599 0.45644 0.0
H2235 H 0.30314 0.2172 0.48015 0.0
H2236 H 0.50338 0.47116 0.95065 0.0
H2237 H 0.48723 0.47369 0.92583 0.0
H2238 H 0.51141 0.52203 0.91581 0.0
H2239 H 0.52772 0.5194 0.94046 0.0
H2240 H 0.4659 0.49623 0.91724 0.0
H2241 H 0.51551 0.50128 0.87447 0.0
H2242 H 0.51824 0.49435 0.89502 0.0
H2243 H 0.51878 0.51565 0.8893 0.0
C2244 C 0.50523 0.48228 0.94307 0.0
C2245 C 0.51659 0.49516 0.94748 0.0
C2246 C 0.49605 0.48371 0.92894 0.0
C2247 C 0.49823 0.49799 0.9189 0.0
C2248 C 0.50973 0.51081 0.92323 0.0
H2249 H 0.45066 0.53399 0.83256 0.0
H2250 H 0.46751 0.53045 0.85669 0.0
C2251 C 0.51893 0.50936 0.93735 0.0
C2252 C 0.48799 0.49971 0.90424 0.0
H2253 H 0.48958 0.50712 0.86409 0.0
C2254 C 0.47106 0.4985 0.9056 0.0
C2255 C 0.49477 0.50271 0.88909 0.0
C2256 C 0.51281 0.50343 0.88681 0.0
C2257 C 0.46073 0.50053 0.89225 0.0
C2258 C 0.46751 0.50362 0.87711 0.0
C2259 C 0.48443 0.50479 0.87573 0.0
C2260 C 0.45723 0.50569 0.86256 0.0
C2261 C 0.44268 0.49973 0.89448 0.0
C2262 C 0.44599 0.49288 0.85779 0.0
C2263 C 0.43629 0.49488 0.84407 0.0
C2264 C 0.4377 0.50973 0.83481 0.0
C2265 C 0.4491 0.52249 0.83956 0.0
C2266 C 0.45881 0.52046 0.85327 0.0
H2267 H 0.43985 0.5012 0.90694 0.0
H2268 H 0.43738 0.50923 0.88669 0.0
H2269 H 0.43667 0.48774 0.89128 0.0
H2270 H 0.44475 0.4813 0.86467 0.0
H2271 H 0.42756 0.48486 0.84081 0.0
H2272 H 0.70254 0.7418 0.20155 0.0
H2273 H 0.71295 0.72274 0.18495 0.0
H2274 H 0.75111 0.75985 0.1695 0.0
H2275 H 0.74083 0.77881 0.18626 0.0
H2276 H 0.71541 0.72658 0.15236 0.0
H2277 H 0.77595 0.72103 0.18114 0.0
H2278 H 0.76009 0.72941 0.19063 0.0
H2279 H 0.77222 0.7416 0.17601 0.0
C2280 C 0.71321 0.74579 0.19468 0.0
C2281 C 0.72077 0.76179 0.19494 0.0
C2282 C 0.71915 0.73493 0.18523 0.0
C2283 C 0.73288 0.73983 0.17608 0.0
C2284 C 0.74067 0.75571 0.17666 0.0
H2285 H 0.78135 0.7005 0.10219 0.0
H2286 H 0.77267 0.71671 0.1224 0.0
C2287 C 0.73474 0.76656 0.18611 0.0
C2288 C 0.73842 0.72866 0.16519 0.0
H2289 H 0.77125 0.71058 0.15575 0.0
C2290 C 0.72757 0.72295 0.15319 0.0
C2291 C 0.75431 0.724 0.16626 0.0
C2292 C 0.76628 0.72919 0.17929 0.0
C2293 C 0.73228 0.71304 0.14198 0.0
C2294 C 0.74821 0.7085 0.14296 0.0
C2295 C 0.75904 0.71409 0.15503 0.0
C2296 C 0.75395 0.69825 0.1313 0.0
C2297 C 0.72033 0.70793 0.12889 0.0
C2298 C 0.74653 0.68237 0.12983 0.0
C2299 C 0.7515 0.67304 0.11833 0.0
C2300 C 0.76407 0.67938 0.10812 0.0
C2301 C 0.77176 0.69517 0.10993 0.0
C2302 C 0.76676 0.70448 0.12144 0.0
H2303 H 0.71013 0.71549 0.12764 0.0
H2304 H 0.72643 0.70872 0.11738 0.0
H2305 H 0.71514 0.69515 0.1316 0.0
H2306 H 0.73684 0.67721 0.13755 0.0
H2307 H 0.74553 0.66083 0.11746 0.0
H2308 H 0.01705 0.01995 0.0836 0.0
H2309 H 0.99972 0.01689 0.10665 0.0
H2310 H 0.00826 0.0684 0.11115 0.0
H2311 H 0.0258 0.07156 0.08834 0.0
H2312 H 0.00723 0.02677 0.13859 0.0
H2313 H 0.95789 0.05795 0.10792 0.0
H2314 H 0.97343 0.05023 0.09736 0.0
H2315 H 0.9779 0.06891 0.10674 0.0
C2316 C 0.01541 0.0306 0.08961 0.0
C2317 C 0.02269 0.04602 0.08403 0.0
C2318 C 0.00544 0.02883 0.10272 0.0
C2319 C 1.00251 0.04245 0.1104 0.0
C2320 C 0.01011 0.05779 0.10516 0.0
H2321 H 0.94208 0.05925 0.18722 0.0
H2322 H 0.96088 0.06167 0.16541 0.0
C2323 C 0.0201 0.05956 0.09211 0.0
C2324 C 0.99143 0.04069 0.12386 0.0
H2325 H 0.95543 0.05127 0.13544 0.0
C2326 C 0.99587 0.03205 0.13792 0.0
C2327 C 0.97665 0.04765 0.12291 0.0
C2328 C 0.97106 0.0566 0.10789 0.0
C2329 C 0.98605 0.03045 0.15121 0.0
C2330 C 0.97124 0.03739 0.15025 0.0
C2331 C 0.9668 0.04599 0.13616 0.0
C2332 C 0.96011 0.03582 0.1637 0.0
C2333 C 0.99183 0.02169 0.16626 0.0
C2334 C 0.9533 0.02049 0.16987 0.0
C2335 C 0.94268 0.01906 0.18243 0.0
C2336 C 0.9385 0.03294 0.18898 0.0
C2337 C 0.94522 0.0483 0.18263 0.0
C2338 C 0.95588 0.04971 0.1701 0.0
H2339 H 0.00516 0.02114 0.16643 0.0
H2340 H 0.98883 0.02768 0.17683 0.0
H2341 H 0.98571 0.00907 0.16713 0.0
H2342 H 0.95612 0.00961 0.16491 0.0
H2343 H 0.93787 0.00704 0.18711 0.0
H2344 H 0.26748 0.74622 0.1872 0.0
H2345 H 0.26459 0.76174 0.16158 0.0
H2346 H 0.29462 0.8026 0.17967 0.0
H2347 H 0.29776 0.787 0.20513 0.0
H2348 H 0.2514 0.79046 0.15528 0.0
H2349 H 0.3159 0.79789 0.1382 0.0
H2350 H 0.30825 0.78358 0.15403 0.0
H2351 H 0.31302 0.80471 0.15734 0.0
C2352 C 0.27348 0.75851 0.18561 0.0
C2353 C 0.28272 0.7655 0.1981 0.0
C2354 C 0.27184 0.76734 0.17103 0.0
C2355 C 0.27955 0.78325 0.16865 0.0
C2356 C 0.28883 0.79024 0.18113 0.0
H2357 H 0.27976 0.85994 0.09361 0.0
H2358 H 0.28336 0.8432 0.11823 0.0
C2359 C 0.29051 0.78139 0.19569 0.0
C2360 C 0.2774 0.79275 0.15332 0.0
H2361 H 0.29817 0.81378 0.12273 0.0
C2362 C 0.2616 0.79546 0.1481 0.0
C2363 C 0.29075 0.79926 0.14398 0.0
C2364 C 0.30792 0.7961 0.14857 0.0
C2365 C 0.25882 0.80483 0.13397 0.0
C2366 C 0.27218 0.81148 0.12473 0.0
C2367 C 0.28796 0.80869 0.12989 0.0
C2368 C 0.27003 0.82148 0.10972 0.0
C2369 C 0.24165 0.80788 0.12922 0.0
C2370 C 0.26151 0.81474 0.09672 0.0
C2371 C 0.25951 0.82424 0.08259 0.0
C2372 C 0.26607 0.84065 0.08117 0.0
C2373 C 0.27472 0.8473 0.09422 0.0
C2374 C 0.27673 0.83778 0.10833 0.0
H2375 H 0.23331 0.80509 0.13926 0.0
H2376 H 0.24124 0.82069 0.12466 0.0
H2377 H 0.23708 0.80003 0.11963 0.0
H2378 H 0.25651 0.80209 0.09747 0.0
H2379 H 0.25303 0.81866 0.0727 0.0
H2380 H 0.02116 0.47249 0.09166 0.0
H2381 H 0.0394 0.47341 0.11513 0.0
H2382 H 0.99853 0.47494 0.14461 0.0
H2383 H 0.98016 0.47385 0.12122 0.0
H2384 H 0.04252 0.49879 0.13779 0.0
H2385 H 0.02322 0.43693 0.16522 0.0
H2386 H 0.01954 0.44256 0.14448 0.0
H2387 H 0.00728 0.44915 0.15912 0.0
C2388 C 0.01603 0.47285 0.10316 0.0
C2389 C 0.99921 0.47304 0.1046 0.0
C2390 C 0.02647 0.47346 0.11653 0.0
C2391 C 0.02027 0.47408 0.13159 0.0
C2392 C 1.00351 0.47428 0.13309 0.0
H2393 H 0.06438 0.47676 0.22633 0.0
H2394 H 0.04567 0.47479 0.20327 0.0
C2395 C 0.99307 0.47379 0.11972 0.0
C2396 C 0.03143 0.47498 0.14567 0.0
H2397 H 0.04202 0.45391 0.17995 0.0
C2398 C 0.04247 0.48898 0.147 0.0
C2399 C 0.03121 0.4622 0.15768 0.0
C2400 C 0.01978 0.44678 0.1566 0.0
C2401 C 0.05321 0.49064 0.16017 0.0
C2402 C 0.05319 0.47774 0.17211 0.0
C2403 C 0.04206 0.46376 0.17078 0.0
C2404 C 0.06461 0.47854 0.18607 0.0
C2405 C 0.06417 0.50637 0.16134 0.0
C2406 C 0.08148 0.48094 0.18409 0.0
C2407 C 0.09218 0.48214 0.19722 0.0
C2408 C 0.08623 0.48071 0.21263 0.0
C2409 C 0.06934 0.47781 0.21462 0.0
C2410 C 0.05864 0.47674 0.20145 0.0
H2411 H 0.05941 0.51646 0.15392 0.0
H2412 H 0.0656 0.50977 0.17376 0.0
H2413 H 0.07635 0.50495 0.15706 0.0
H2414 H 0.08639 0.48189 0.17236 0.0
H2415 H 0.10514 0.48408 0.19533 0.0
H2416 H 0.325 0.7555 0.26043 0.0
H2417 H 0.3483 0.76198 0.2785 0.0
H2418 H 0.36104 0.71346 0.2772 0.0
H2419 H 0.338 0.70698 0.25891 0.0
H2420 H 0.35461 0.74578 0.30883 0.0
H2421 H 0.40374 0.74286 0.26688 0.0
H2422 H 0.383 0.74478 0.26038 0.0
H2423 H 0.38866 0.72544 0.26801 0.0
C2424 C 0.33288 0.74628 0.26384 0.0
C2425 C 0.32969 0.73075 0.25821 0.0
C2426 C 0.34612 0.74997 0.27423 0.0
C2427 C 0.35648 0.73825 0.27902 0.0
C2428 C 0.35332 0.72274 0.27345 0.0
H2429 H 0.4414 0.73275 0.34073 0.0
H2430 H 0.41814 0.72791 0.32238 0.0
C2431 C 0.34007 0.71902 0.26313 0.0
C2432 C 0.37035 0.74209 0.2902 0.0
H2433 H 0.41172 0.74475 0.29393 0.0
C2434 C 0.36711 0.74567 0.30557 0.0
C2435 C 0.38661 0.74188 0.28589 0.0
C2436 C 0.39079 0.73868 0.26936 0.0
C2437 C 0.37972 0.74865 0.31691 0.0
C2438 C 0.39601 0.74837 0.31263 0.0
C2439 C 0.39923 0.74493 0.2972 0.0
C2440 C 0.40989 0.75135 0.32403 0.0
C2441 C 0.37546 0.7516 0.3335 0.0
C2442 C 0.41304 0.7662 0.33097 0.0
C2443 C 0.42624 0.76895 0.34161 0.0
C2444 C 0.43663 0.75695 0.34542 0.0
C2445 C 0.4335 0.74215 0.3383 0.0
C2446 C 0.42028 0.7394 0.3277 0.0
H2447 H 0.36253 0.74725 0.33592 0.0
H2448 H 0.38328 0.74547 0.34243 0.0
H2449 H 0.37742 0.7648 0.33499 0.0
H2450 H 0.40536 0.77571 0.32807 0.0
H2451 H 0.42822 0.78044 0.34694 0.0
H2452 H 0.9758 0.45028 0.01308 0.0
H2453 H 0.97748 0.42773 0.9965 0.0
H2454 H 0.01037 0.40729 0.03106 0.0
H2455 H 0.00861 0.42979 0.04771 0.0
H2456 H 0.00598 0.41941 0.98369 0.0
H2457 H 0.97625 0.36862 0.02266 0.0
H2458 H 0.97439 0.38959 0.02536 0.0
H2459 H 0.99254 0.38098 0.03206 0.0
C2460 C 0.98331 0.44091 0.01714 0.0
C2461 C 0.99223 0.4418 0.03155 0.0
C2462 C 0.98426 0.42806 0.00769 0.0
C2463 C 0.99395 0.41577 0.0126 0.0
C2464 C 1.00264 0.41651 0.02715 0.0
H2465 H 0.02031 0.33116 0.97083 0.0
H2466 H 0.01725 0.35292 0.98785 0.0
C2467 C 1.00171 0.42938 0.03659 0.0
C2468 C 0.99555 0.40261 1.00217 0.0
H2469 H 0.98923 0.36155 1.00018 0.0
C2470 C 1.00223 0.40676 0.98724 0.0
C2471 C 0.99072 0.38612 0.00688 0.0
C2472 C 0.98294 0.38101 0.02255 0.0
C2473 C 0.00451 0.39484 0.97699 0.0
C2474 C 0.99966 0.37835 0.98168 0.0
C2475 C 0.99295 0.3742 0.99661 0.0
C2476 C 1.00147 0.3652 0.97127 0.0
C2477 C 0.01247 0.4 0.96141 0.0
C2478 C 0.99347 0.36477 0.95637 0.0
C2479 C 0.99519 0.35235 0.94662 0.0
C2480 C 0.00482 0.34 0.95164 0.0
C2481 C 0.01268 0.34039 0.96666 0.0
C2482 C 0.01099 0.35285 0.97638 0.0
H2483 H 0.01932 0.41231 0.96146 0.0
H2484 H 0.02092 0.39134 0.95856 0.0
H2485 H 1.00295 0.40029 0.95183 0.0
H2486 H 0.98575 0.37397 0.95234 0.0
H2487 H 0.98872 0.35225 0.93526 0.0
H2488 H 0.68237 0.81613 0.25493 0.0
H2489 H 0.6597 0.8129 0.27298 0.0
H2490 H 0.66866 0.76365 0.28613 0.0
H2491 H 0.69155 0.76685 0.26823 0.0
H2492 H 0.63123 0.78893 0.27333 0.0
H2493 H 0.66936 0.7859 0.32879 0.0
H2494 H 0.67758 0.79378 0.30994 0.0
H2495 H 0.67299 0.77231 0.31421 0.0
C2496 C 0.67957 0.80463 0.26173 0.0
C2497 C 0.68882 0.79178 0.26026 0.0
C2498 C 0.66657 0.80279 0.27195 0.0
C2499 C 0.66265 0.78811 0.281 0.0
C2500 C 0.67164 0.77514 0.27938 0.0
H2501 H 0.57553 0.75895 0.33513 0.0
H2502 H 0.59767 0.76058 0.31666 0.0
C2503 C 0.68461 0.77694 0.26906 0.0
C2504 C 0.64917 0.7865 0.29217 0.0
H2505 H 0.64087 0.78228 0.33151 0.0
C2506 C 0.6333 0.78742 0.28605 0.0
C2507 C 0.65199 0.78473 0.30874 0.0
C2508 C 0.66889 0.78423 0.3159 0.0
C2509 C 0.62011 0.7865 0.29611 0.0
C2510 C 0.6229 0.78452 0.31267 0.0
C2511 C 0.63879 0.78371 0.31879 0.0
C2512 C 0.60949 0.78353 0.32386 0.0
C2513 C 0.60334 0.78796 0.28897 0.0
C2514 C 0.60896 0.79579 0.33418 0.0
C2515 C 0.59625 0.79498 0.34468 0.0
C2516 C 0.58389 0.7818 0.34514 0.0
C2517 C 0.58463 0.76943 0.33488 0.0
C2518 C 0.59731 0.7703 0.32435 0.0
H2519 H 0.60373 0.79273 0.27636 0.0
H2520 H 0.59613 0.77582 0.2896 0.0
H2521 H 0.59691 0.79605 0.29568 0.0
H2522 H 0.61828 0.8061 0.33398 0.0
H2523 H 0.59599 0.80479 0.35227 0.0
H2524 H 0.01172 0.07576 0.03438 0.0
H2525 H 0.00885 0.09994 0.01667 0.0
H2526 H 0.06059 0.1068 0.01016 0.0
H2527 H 0.06368 0.08283 0.02818 0.0
H2528 H 0.02577 0.13228 0.02167 0.0
H2529 H 0.03926 0.1093 0.96434 0.0
H2530 H 0.03289 0.09593 0.98135 0.0
H2531 H 0.05331 0.10589 0.98066 0.0
C2532 C 0.02252 0.08243 0.02924 0.0
C2533 C 0.03795 0.0774 0.03278 0.0
C2534 C 0.02083 0.09617 0.01905 0.0
C2535 C 0.03449 0.10505 0.01206 0.0
C2536 C 0.04988 0.09995 0.01529 0.0
H2537 H 0.04652 0.19223 0.94813 0.0
H2538 H 0.05057 0.16783 0.96507 0.0
C2539 C 0.0516 0.08623 0.02556 0.0
C2540 C 0.03268 0.12009 1.00199 0.0
H2541 H 0.03549 0.13697 0.96404 0.0
C2542 C 0.02786 0.13333 0.00906 0.0
C2543 C 0.03555 0.1214 0.9856 0.0
C2544 C 0.04044 0.10737 0.97743 0.0
C2545 C 0.02595 0.14795 1.00018 0.0
C2546 C 0.02852 0.1492 0.9837 0.0
C2547 C 0.03348 0.13597 0.97666 0.0
C2548 C 0.02603 0.16408 0.97355 0.0
C2549 C 0.02154 0.16203 0.00862 0.0
C2550 C 0.01084 0.16999 0.97255 0.0
C2551 C 0.00855 0.18407 0.96306 0.0
C2552 C 0.02135 0.19243 0.95419 0.0
C2553 C 0.03648 0.1863 0.95502 0.0
C2554 C 0.03879 0.17227 0.96459 0.0
H2555 H 0.02473 0.16073 0.02148 0.0
H2556 H 0.02779 0.17371 1.00352 0.0
H2557 H 0.00822 0.16248 0.00734 0.0
H2558 H 1.00072 0.16368 0.97909 0.0
H2559 H 0.99677 0.18848 0.96281 0.0
H2560 H 0.32442 0.29122 0.25883 0.0
H2561 H 0.34748 0.28784 0.24271 0.0
H2562 H 0.37668 0.27939 0.28516 0.0
H2563 H 0.35347 0.28236 0.30132 0.0
H2564 H 0.37793 0.30477 0.24111 0.0
H2565 H 0.38217 0.24033 0.26114 0.0
H2566 H 0.36496 0.25052 0.26522 0.0
H2567 H 0.38349 0.25358 0.27695 0.0
C2568 C 0.33579 0.2887 0.2647 0.0
C2569 C 0.33725 0.28719 0.2813 0.0
C2570 C 0.34894 0.28676 0.2555 0.0
C2571 C 0.36374 0.28315 0.26272 0.0
C2572 C 0.36529 0.28185 0.27932 0.0
H2573 H 0.45655 0.26877 0.22474 0.0
H2574 H 0.43451 0.27269 0.24185 0.0
C2575 C 0.3521 0.28371 0.28853 0.0
C2576 C 0.37754 0.28084 0.25282 0.0
H2577 H 0.40313 0.25349 0.24484 0.0
C2578 C 0.38341 0.29355 0.2419 0.0
C2579 C 0.38468 0.26618 0.25386 0.0
C2580 C 0.37843 0.25181 0.26481 0.0
C2581 C 0.39631 0.29204 0.23209 0.0
C2582 C 0.40341 0.27738 0.23312 0.0
C2583 C 0.39766 0.26473 0.24412 0.0
C2584 C 0.41668 0.27487 0.22271 0.0
C2585 C 0.40241 0.30622 0.22084 0.0
C2586 C 0.41387 0.27454 0.20631 0.0
C2587 C 0.42638 0.27213 0.1965 0.0
C2588 C 0.44197 0.26999 0.2029 0.0
C2589 C 0.44467 0.27017 0.2194 0.0
C2590 C 0.43212 0.27251 0.2292 0.0
H2591 H 0.39829 0.31771 0.22404 0.0
H2592 H 0.4159 0.30776 0.22068 0.0
H2593 H 0.39769 0.30393 0.20869 0.0
H2594 H 0.40194 0.27602 0.2011 0.0
H2595 H 0.42377 0.27176 0.1839 0.0
H2596 H 0.57788 0.44248 0.00816 0.0
H2597 H 0.57196 0.41854 0.02654 0.0
H2598 H 0.52141 0.42619 0.02548 0.0
H2599 H 0.52724 0.45034 0.00733 0.0
H2600 H 0.5575 0.41768 0.05706 0.0
H2601 H 0.52094 0.37796 0.01581 0.0
H2602 H 0.53425 0.39571 0.00897 0.0
H2603 H 0.51485 0.39785 0.01671 0.0
C2604 C 0.56551 0.43914 0.01189 0.0
C2605 C 0.55303 0.44835 0.00626 0.0
C2606 C 0.56214 0.4254 0.02232 0.0
C2607 C 0.54623 0.42052 0.02722 0.0
C2608 C 0.53373 0.4296 0.02161 0.0
H2609 H 0.50326 0.34038 0.08983 0.0
H2610 H 0.5082 0.36459 0.07161 0.0
C2611 C 0.53708 0.44338 0.01121 0.0
C2612 C 0.54286 0.40621 0.03863 0.0
H2613 H 0.52258 0.36802 0.04266 0.0
C2614 C 0.5499 0.40679 0.05393 0.0
C2615 C 0.53286 0.39211 0.03449 0.0
C2616 C 0.52536 0.39072 0.01807 0.0
C2617 C 0.54708 0.39367 0.0653 0.0
C2618 C 0.53726 0.37945 0.06112 0.0
C2619 C 0.53012 0.37893 0.04583 0.0
C2620 C 0.53435 0.36493 0.07239 0.0
C2621 C 0.55438 0.39529 0.08178 0.0
C2622 C 0.54741 0.35699 0.07875 0.0
C2623 C 0.54465 0.34325 0.0893 0.0
C2624 C 0.52874 0.33706 0.09358 0.0
C2625 C 0.51568 0.34496 0.08702 0.0
C2626 C 0.51846 0.35873 0.0765 0.0
H2627 H 0.5575 0.40821 0.08429 0.0
H2628 H 0.54593 0.38928 0.09086 0.0
H2629 H 0.56575 0.38944 0.08291 0.0
H2630 H 0.55975 0.36136 0.0755 0.0
H2631 H 0.555 0.33757 0.09421 0.0
H2632 H 0.69518 0.21338 0.2842 0.0
H2633 H 0.67165 0.21561 0.26603 0.0
H2634 H 0.68146 0.26772 0.26385 0.0
H2635 H 0.70511 0.2656 0.28181 0.0
H2636 H 0.64414 0.23289 0.27115 0.0
H2637 H 0.67707 0.25653 0.21674 0.0
H2638 H 0.68679 0.24639 0.2335 0.0
H2639 H 0.68297 0.26708 0.23414 0.0
C2640 C 0.69243 0.2253 0.2797 0.0
C2641 C 0.702 0.23931 0.28442 0.0
C2642 C 0.67896 0.22655 0.26939 0.0
C2643 C 0.67495 0.24182 0.26349 0.0
C2644 C 0.68449 0.25583 0.26812 0.0
H2645 H 0.59912 0.27681 0.20146 0.0
H2646 H 0.62294 0.27377 0.2189 0.0
C2647 C 0.6979 0.25459 0.27849 0.0
C2648 C 0.66044 0.24314 0.25291 0.0
H2649 H 0.64844 0.25628 0.2156 0.0
C2650 C 0.64504 0.23791 0.25897 0.0
C2651 C 0.66172 0.24979 0.23708 0.0
C2652 C 0.67801 0.25517 0.22987 0.0
C2653 C 0.63081 0.23945 0.24971 0.0
C2654 C 0.63207 0.24605 0.23383 0.0
C2655 C 0.6475 0.25122 0.22776 0.0
C2656 C 0.61752 0.24779 0.22335 0.0
C2657 C 0.61457 0.23442 0.25715 0.0
C2658 C 0.60665 0.23417 0.21991 0.0
C2659 C 0.5929 0.23589 0.21011 0.0
C2660 C 0.58984 0.25126 0.20338 0.0
C2661 C 0.60092 0.26484 0.20665 0.0
C2662 C 0.61463 0.26311 0.21651 0.0
H2663 H 0.61562 0.23394 0.27029 0.0
H2664 H 0.60565 0.24289 0.25304 0.0
H2665 H 0.60975 0.22213 0.25374 0.0
H2666 H 0.60881 0.22219 0.22479 0.0
H2667 H 0.58458 0.22518 0.20797 0.0
H2668 H 0.51159 0.08391 0.02047 0.0
H2669 H 0.51468 0.10532 0.03896 0.0
H2670 H 0.46523 0.11466 0.02825 0.0
H2671 H 0.46204 0.09331 0.0098 0.0
H2672 H 0.51146 0.13806 0.03353 0.0
H2673 H 0.46627 0.10851 0.07641 0.0
H2674 H 0.47406 0.09773 0.06128 0.0
H2675 H 0.4583 0.11051 0.05644 0.0
C2676 C 0.5014 0.09057 0.02202 0.0
C2677 C 0.48652 0.08682 0.01377 0.0
C2678 C 0.50316 0.10275 0.03262 0.0
C2679 C 0.49009 0.11137 0.03521 0.0
C2680 C 0.47534 0.10787 0.02676 0.0
H2681 H 0.47552 0.19141 0.09032 0.0
H2682 H 0.47312 0.16966 0.07224 0.0
C2683 C 0.47355 0.09567 0.01621 0.0
C2684 C 0.49195 0.12426 0.04647 0.0
H2685 H 0.47622 0.13606 0.07975 0.0
C2686 C 0.50384 0.13758 0.0437 0.0
C2687 C 0.48198 0.1236 0.05973 0.0
C2688 C 0.46953 0.10925 0.06377 0.0
C2689 C 0.50578 0.15043 0.05363 0.0
C2690 C 0.4957 0.14983 0.06679 0.0
C2691 C 0.48388 0.13649 0.06961 0.0
C2692 C 0.49723 0.16296 0.07776 0.0
C2693 C 0.51833 0.16473 0.04976 0.0
C2694 C 0.5115 0.16624 0.08699 0.0
C2695 C 0.51292 0.17867 0.09729 0.0
C2696 C 0.50007 0.18803 0.09859 0.0
C2697 C 0.48571 0.18457 0.08945 0.0
C2698 C 0.48428 0.1721 0.07918 0.0
H2699 H 0.52236 0.16509 0.03738 0.0
H2700 H 0.51348 0.1763 0.0515 0.0
H2701 H 0.52914 0.16385 0.0578 0.0
H2702 H 0.52154 0.15917 0.08624 0.0
H2703 H 0.5242 0.18111 0.10405 0.0
H2704 H 0.24483 0.32399 0.76787 0.0
H2705 H 0.26359 0.34903 0.76866 0.0
H2706 H 0.26071 0.35574 0.71773 0.0
H2707 H 0.24187 0.33072 0.71682 0.0
H2708 H 0.29527 0.35732 0.75 0.0
H2709 H 0.24747 0.39852 0.73698 0.0
H2710 H 0.24282 0.37799 0.7455 0.0
H2711 H 0.24755 0.38163 0.72498 0.0
C2712 C 0.24818 0.33081 0.75685 0.0
C2713 C 0.24184 0.32545 0.74228 0.0
C2714 C 0.25894 0.34504 0.75732 0.0
C2715 C 0.26339 0.35423 0.74327 0.0
C2716 C 0.25731 0.34882 0.72869 0.0
H2717 H 0.31768 0.44974 0.72673 0.0
H2718 H 0.30081 0.42391 0.72401 0.0
C2719 C 0.24665 0.3345 0.7282 0.0
C2720 C 0.27426 0.36961 0.7439 0.0
H2721 H 0.27442 0.41069 0.74006 0.0
C2722 C 0.29077 0.36901 0.74781 0.0
C2723 C 0.26829 0.38476 0.74095 0.0
C2724 C 0.25055 0.38592 0.73693 0.0
C2725 C 0.30157 0.38327 0.74876 0.0
C2726 C 0.29555 0.39849 0.74615 0.0
C2727 C 0.27902 0.39903 0.74209 0.0
C2728 C 0.30612 0.41401 0.74776 0.0
C2729 C 0.31937 0.38186 0.75223 0.0
C2730 C 0.31459 0.41712 0.76208 0.0
C2731 C 0.32443 0.43179 0.76361 0.0
C2732 C 0.32585 0.44378 0.75091 0.0
C2733 C 0.31712 0.44071 0.73666 0.0
C2734 C 0.30736 0.42598 0.73512 0.0
H2735 H 0.32269 0.37002 0.74909 0.0
H2736 H 0.32718 0.39171 0.74565 0.0
H2737 H 0.32202 0.38275 0.76508 0.0
H2738 H 0.31352 0.40824 0.77213 0.0
H2739 H 0.33108 0.43364 0.7747 0.0
H2740 H 0.28129 0.71192 0.76991 0.0
H2741 H 0.29462 0.68813 0.76507 0.0
H2742 H 0.27788 0.66461 0.80955 0.0
H2743 H 0.26467 0.68845 0.81455 0.0
H2744 H 0.31906 0.67404 0.78692 0.0
H2745 H 0.26387 0.63115 0.77492 0.0
H2746 H 0.26379 0.65289 0.77284 0.0
H2747 H 0.26392 0.64246 0.79217 0.0
C2748 C 0.28027 0.70158 0.77854 0.0
C2749 C 0.27155 0.70184 0.79238 0.0
C2750 C 0.28792 0.68805 0.77579 0.0
C2751 C 0.28699 0.67454 0.78683 0.0
C2752 C 0.27846 0.67481 0.80075 0.0
H2753 H 0.32501 0.58156 0.78974 0.0
H2754 H 0.31061 0.60455 0.79464 0.0
C2755 C 0.2709 0.6884 0.80357 0.0
C2756 C 0.29551 0.66044 0.78403 0.0
H2757 H 0.28915 0.62071 0.77573 0.0
C2758 C 0.31256 0.66238 0.78443 0.0
C2759 C 0.28694 0.64526 0.78091 0.0
C2760 C 0.26861 0.64272 0.78006 0.0
C2761 C 0.32131 0.64943 0.78195 0.0
C2762 C 0.31276 0.63428 0.77857 0.0
C2763 C 0.29568 0.63234 0.77827 0.0
C2764 C 0.32132 0.62028 0.77534 0.0
C2765 C 0.33963 0.65202 0.78336 0.0
C2766 C 0.3319 0.62138 0.76268 0.0
C2767 C 0.34015 0.60826 0.75984 0.0
C2768 C 0.33784 0.59371 0.7695 0.0
C2769 C 0.32695 0.59254 0.78197 0.0
C2770 C 0.31877 0.60569 0.78484 0.0
H2771 H 0.344 0.66254 0.7903 0.0
H2772 H 0.34455 0.6411 0.78908 0.0
H2773 H 0.34464 0.65449 0.77135 0.0
H2774 H 0.33374 0.63237 0.75494 0.0
H2775 H 0.34822 0.60946 0.74997 0.0
H2776 H 0.95111 0.53943 0.46694 0.0
H2777 H 0.92564 0.52117 0.46734 0.0
H2778 H 0.92667 0.51932 0.51832 0.0
H2779 H 0.95229 0.53724 0.5181 0.0
H2780 H 0.91947 0.48893 0.48377 0.0
H2781 H 0.88119 0.53313 0.50413 0.0
H2782 H 0.90077 0.53925 0.49553 0.0
H2783 H 0.89955 0.53087 0.51568 0.0
C2784 C 0.94602 0.53502 0.47826 0.0
C2785 C 0.95373 0.53988 0.4925 0.0
C2786 C 0.93142 0.52467 0.47844 0.0
C2787 C 0.92419 0.51911 0.49284 0.0
C2788 C 0.93192 0.52374 0.50707 0.0
H2789 H 0.8367 0.45889 0.52192 0.0
H2790 H 0.86223 0.47684 0.52011 0.0
C2791 C 0.94654 0.53402 0.50691 0.0
C2792 C 0.90866 0.50829 0.49303 0.0
H2793 H 0.86897 0.50602 0.50315 0.0
C2794 C 0.90838 0.49266 0.48791 0.0
C2795 C 0.89428 0.51323 0.49849 0.0
C2796 C 0.89383 0.53007 0.50366 0.0
C2797 C 0.89415 0.48164 0.48848 0.0
C2798 C 0.87975 0.48657 0.49396 0.0
C2799 C 0.88002 0.50227 0.49895 0.0
C2800 C 0.86431 0.47554 0.4949 0.0
C2801 C 0.89482 0.46469 0.48366 0.0
C2802 C 0.85689 0.46899 0.48129 0.0
C2803 C 0.84237 0.45855 0.4823 0.0
C2804 C 0.8349 0.45458 0.49695 0.0
C2805 C 0.84225 0.46143 0.5105 0.0
C2806 C 0.85679 0.4718 0.50948 0.0
H2807 H 0.90749 0.46158 0.48389 0.0
H2808 H 0.88749 0.4556 0.49156 0.0
H2809 H 0.88977 0.4638 0.4714 0.0
H2810 H 0.8623 0.47198 0.46985 0.0
H2811 H 0.83713 0.45343 0.47164 0.0
H2812 H 0.77752 0.82288 0.79824 0.0
H2813 H 0.75908 0.84383 0.79446 0.0
H2814 H 0.77069 0.8575 0.84195 0.0
H2815 H 0.78931 0.8367 0.84579 0.0
H2816 H 0.7314 0.84693 0.81431 0.0
H2817 H 0.77839 0.90063 0.81271 0.0
H2818 H 0.78299 0.88061 0.80915 0.0
H2819 H 0.78004 0.8856 0.82895 0.0
C2820 C 0.77628 0.83046 0.80783 0.0
C2821 C 0.78493 0.82819 0.8223 0.0
C2822 C 0.76567 0.84234 0.80567 0.0
C2823 C 0.76366 0.85229 0.81787 0.0
C2824 C 0.77223 0.85005 0.83234 0.0
H2825 H 0.70814 0.93335 0.82504 0.0
H2826 H 0.72625 0.91222 0.82963 0.0
C2827 C 0.78275 0.8381 0.83455 0.0
C2828 C 0.75234 0.8648 0.81554 0.0
H2829 H 0.75096 0.9057 0.81217 0.0
C2830 C 0.73564 0.85979 0.81381 0.0
C2831 C 0.75795 0.88153 0.81499 0.0
C2832 C 0.77582 0.88751 0.81643 0.0
C2833 C 0.72432 0.8711 0.81174 0.0
C2834 C 0.72993 0.88787 0.81096 0.0
C2835 C 0.74666 0.89285 0.81275 0.0
C2836 C 0.71868 0.90048 0.80823 0.0
C2837 C 0.70645 0.86494 0.81079 0.0
C2838 C 0.7085 0.90102 0.79459 0.0
C2839 C 0.69808 0.91304 0.79198 0.0
C2840 C 0.69781 0.92491 0.80284 0.0
C2841 C 0.70815 0.92445 0.8164 0.0
C2842 C 0.71847 0.91235 0.81906 0.0
H2843 H 0.704 0.85235 0.81623 0.0
H2844 H 0.69911 0.87281 0.81678 0.0
H2845 H 0.70233 0.86488 0.79817 0.0
H2846 H 0.70876 0.89228 0.78584 0.0
H2847 H 0.69048 0.91324 0.78129 0.0
H2848 H 0.57823 0.5213 0.98687 0.0
H2849 H 0.60317 0.53943 0.99175 0.0
H2850 H 0.62979 0.49813 1.00083 0.0
H2851 H 0.60506 0.47995 0.99559 0.0
H2852 H 0.62305 0.53993 0.01985 0.0
H2853 H 0.65718 0.52746 0.96805 0.0
H2854 H 0.63547 0.52218 0.96939 0.0
H2855 H 0.64919 0.50967 0.9799 0.0
C2856 C 0.58944 0.51609 0.98969 0.0
C2857 C 0.58967 0.49918 0.9908 0.0
C2858 C 0.60364 0.52646 0.99257 0.0
C2859 C 0.61835 0.52012 0.99645 0.0
C2860 C 0.61862 0.50327 0.9976 0.0
H2861 H 0.71711 0.55765 0.02054 0.0
H2862 H 0.6915 0.54117 0.01447 0.0
C2863 C 0.60444 0.4929 0.99477 0.0
C2864 C 0.63333 0.53109 0.99978 0.0
H2865 H 0.67207 0.54246 0.98765 0.0
C2866 C 0.63375 0.5406 0.01276 0.0
C2867 C 0.64725 0.53188 0.99052 0.0
C2868 C 0.64727 0.52237 0.97609 0.0
C2869 C 0.6479 0.55057 0.01701 0.0
C2870 C 0.66188 0.55127 0.00781 0.0
C2871 C 0.66137 0.54188 0.99471 0.0
C2872 C 0.67728 0.5614 0.01171 0.0
C2873 C 0.6479 0.55984 0.0316 0.0
C2874 C 0.67783 0.57828 0.01205 0.0
C2875 C 0.69245 0.58773 0.01558 0.0
C2876 C 0.70684 0.58049 0.01861 0.0
C2877 C 0.70627 0.5636 0.01811 0.0
C2878 C 0.69163 0.55416 0.01469 0.0
H2879 H 0.63792 0.55471 0.03955 0.0
H2880 H 0.65965 0.55981 0.03836 0.0
H2881 H 0.64609 0.5726 0.02799 0.0
H2882 H 0.66699 0.58417 0.00939 0.0
H2883 H 0.69257 0.60073 0.01564 0.0
H2884 H 0.25889 0.70236 0.23779 0.0
H2885 H 0.24168 0.67657 0.24271 0.0
H2886 H 0.28439 0.65211 0.2522 0.0
H2887 H 0.30168 0.67782 0.24726 0.0
H2888 H 0.24066 0.6479 0.22762 0.0
H2889 H 0.25755 0.63818 0.2914 0.0
H2890 H 0.26215 0.65746 0.28026 0.0
H2891 H 0.27455 0.64144 0.27859 0.0
C2892 C 0.26462 0.69147 0.24082 0.0
C2893 C 0.28165 0.69215 0.24222 0.0
C2894 C 0.25478 0.67677 0.2437 0.0
C2895 C 0.26176 0.66248 0.24808 0.0
C2896 C 0.27875 0.66305 0.2492 0.0
H2897 H 0.22276 0.56195 0.26932 0.0
H2898 H 0.24021 0.58748 0.26384 0.0
C2899 C 0.2886 0.67775 0.24637 0.0
C2900 C 0.25125 0.64695 0.25124 0.0
H2901 H 0.24152 0.6164 0.27976 0.0
C2902 C 0.24079 0.64104 0.23903 0.0
C2903 C 0.25146 0.63803 0.26614 0.0
C2904 C 0.26191 0.64414 0.27991 0.0
C2905 C 0.23071 0.62629 0.24125 0.0
C2906 C 0.23095 0.61737 0.25615 0.0
C2907 C 0.24141 0.62326 0.26835 0.0
C2908 C 0.22031 0.60195 0.25937 0.0
C2909 C 0.22012 0.62023 0.22756 0.0
C2910 C 0.20335 0.60168 0.25887 0.0
C2911 C 0.19334 0.58715 0.2621 0.0
C2912 C 0.20011 0.57259 0.26596 0.0
C2913 C 0.21714 0.57295 0.26656 0.0
C2914 C 0.22714 0.5875 0.26335 0.0
H2915 H 0.22425 0.62633 0.21605 0.0
H2916 H 0.22001 0.60693 0.22709 0.0
H2917 H 0.20746 0.62274 0.22913 0.0
H2918 H 0.19785 0.61276 0.25615 0.0
H2919 H 0.1803 0.58738 0.26183 0.0
H2920 H 0.9464 0.49244 0.09713 0.0
H2921 H 0.92608 0.51151 0.09335 0.0
H2922 H 0.93534 0.5178 0.04346 0.0
H2923 H 0.95605 0.49917 0.04713 0.0
H2924 H 0.93173 0.54568 0.07818 0.0
H2925 H 0.88447 0.50486 0.04766 0.0
H2926 H 0.9005 0.49728 0.06013 0.0
H2927 H 0.90484 0.50638 0.04064 0.0
C2928 C 0.94426 0.49798 0.08536 0.0
C2929 C 0.95289 0.49421 0.07243 0.0
C2930 C 0.93257 0.5088 0.08323 0.0
C2931 C 0.92914 0.51592 0.06812 0.0
C2932 C 0.93767 0.51224 0.05518 0.0
H2933 H 0.85899 0.5792 0.03005 0.0
H2934 H 0.88028 0.56129 0.03396 0.0
C2935 C 0.94945 0.50152 0.05731 0.0
C2936 C 0.9168 0.52742 0.06589 0.0
H2937 H 0.87914 0.53181 0.04953 0.0
C2938 C 0.9202 0.54267 0.07197 0.0
C2939 C 0.90185 0.52345 0.05768 0.0
C2940 C 0.89755 0.50707 0.05121 0.0
C2941 C 0.90912 0.55422 0.06983 0.0
C2942 C 0.89404 0.55019 0.06177 0.0
C2943 C 0.89068 0.53489 0.0557 0.0
C2944 C 0.88156 0.56164 0.05948 0.0
C2945 C 0.91387 0.57074 0.07586 0.0
C2946 C 0.87513 0.56777 0.07252 0.0
C2947 C 0.86312 0.57825 0.07031 0.0
C2948 C 0.85711 0.58264 0.05501 0.0
C2949 C 0.86352 0.57637 0.04198 0.0
C2950 C 0.8756 0.56599 0.0442 0.0
H2951 H 0.92728 0.57346 0.07734 0.0
H2952 H 0.90931 0.5804 0.06771 0.0
H2953 H 0.90854 0.57109 0.08761 0.0
H2954 H 0.87925 0.56431 0.08445 0.0
H2955 H 0.8586 0.58292 0.08062 0.0
H2956 H 0.07738 0.99865 0.06432 0.0
H2957 H 0.10137 0.98533 0.05942 0.0
H2958 H 0.09632 0.99905 0.00948 0.0
H2959 H 0.07259 0.01265 0.01441 0.0
H2960 H 0.10334 0.95998 0.04104 0.0
H2961 H 0.14396 0.01402 0.0185 0.0
H2962 H 0.1255 0.01556 0.02857 0.0
H2963 H 0.12469 0.01144 0.00802 0.0
C2964 C 0.0815 0.99886 0.05233 0.0
C2965 C 0.07316 0.00656 0.03973 0.0
C2966 C 0.09516 0.99127 0.04953 0.0
C2967 C 0.10077 0.99137 0.03411 0.0
C2968 C 0.09243 0.99911 0.02151 0.0
H2969 H 0.17656 0.94685 0.992 0.0
H2970 H 0.15319 0.96093 0.99702 0.0
C2971 C 0.07881 0.00675 0.02431 0.0
C2972 C 0.11496 0.98286 0.03114 0.0
H2973 H 0.15277 0.98832 0.01554 0.0
C2974 C 0.11419 0.9662 0.03556 0.0
C2975 C 0.1291 0.99099 0.02395 0.0
C2976 C 0.13098 0.00901 0.01961 0.0
C2977 C 0.12705 0.95738 0.03274 0.0
C2978 C 0.14113 0.96548 0.02548 0.0
C2979 C 0.14192 0.98214 0.02106 0.0
C2980 C 0.15523 0.95689 0.0225 0.0
C2981 C 0.12534 0.93938 0.03726 0.0
C2982 C 0.16419 0.95011 0.03518 0.0
C2983 C 0.1775 0.94204 0.03236 0.0
C2984 C 0.18214 0.94062 0.01679 0.0
C2985 C 0.17318 0.94754 0.00412 0.0
C2986 C 0.1599 0.95567 0.00696 0.0
H2987 H 0.11247 0.93438 0.0392 0.0
H2988 H 0.13019 0.93277 0.02797 0.0
H2989 H 0.13241 0.93707 0.04843 0.0
H2990 H 0.16092 0.95112 0.04727 0.0
H2991 H 0.18405 0.93674 0.04238 0.0
loop_
_geom_bond_atom_site_label_1
_geom_bond_atom_site_label_2
_geom_bond_distance
_geom_bond_site_symmetry_2
_ccdc_geom_bond_type
H0 C7 0.929 . S
H1 C10 0.930 . S
H2 C12 0.929 . S
H3 C4 0.969 1_565 S
C4 H3 0.969 1_545 S
C4 O5 1.550 . S
C4 H6 0.973 . S
O5 C4 1.550 . S
O5 C11 1.412 . S
H6 C4 0.973 . S
C7 H0 0.929 . S
C7 C8 1.400 . S
C7 C9 1.364 . S
C8 C7 1.400 . S
C8 C12 1.377 . S
C9 C7 1.364 . S
C9 C10 1.374 . S
C10 H1 0.930 . S
C10 C9 1.374 . S
C10 C11 1.383 . S
C11 O5 1.412 . S
C11 C10 1.383 . S
C11 C12 1.394 . S
C12 H2 0.929 . S
C12 C8 1.377 . S
C12 C11 1.394 . S
H13 C20 0.929 . S
H14 C23 0.930 . S
H15 C25 0.929 . S
H16 C17 0.969 . S
C17 H16 0.969 . S
C17 O18 1.550 . S
C17 H19 0.973 . S
O18 C17 1.550 . S
O18 C24 1.412 . S
H19 C17 0.973 . S
C20 H13 0.929 . S
C20 C21 1.400 . S
C20 C22 1.364 . S
C21 C20 1.400 . S
C21 C25 1.377 . S
C22 C20 1.364 . S
C22 C23 1.374 . S
C23 H14 0.930 . S
C23 C22 1.374 . S
C23 C24 1.383 . S
C24 O18 1.412 . S
C24 C23 1.383 . S
C24 C25 1.394 . S
C25 H15 0.929 . S
C25 C21 1.377 . S
C25 C24 1.394 . S
H26 C33 0.929 . S
H27 C36 0.930 . S
H28 C38 0.929 1_455 S
H29 C30 0.969 . S
C30 H29 0.969 . S
C30 O31 1.550 . S
C30 H32 0.973 . S
O31 C30 1.550 . S
O31 C37 1.412 . S
H32 C30 0.973 . S
C33 H26 0.929 . S
C33 C34 1.400 . S
C33 C35 1.364 . S
C34 C33 1.400 . S
C34 C38 1.377 . S
C35 C33 1.364 . S
C35 C36 1.374 . S
C36 H27 0.930 . S
C36 C35 1.374 . S
C36 C37 1.383 . S
C37 O31 1.412 . S
C37 C36 1.383 . S
C37 C38 1.394 . S
C38 H28 0.929 1_655 S
C38 C34 1.377 . S
C38 C37 1.394 . S
H39 C46 0.929 . S
H40 C49 0.930 . S
H41 C51 0.929 . S
H42 C43 0.969 . S
C43 H42 0.969 . S
C43 O44 1.550 . S
C43 H45 0.973 . S
O44 C43 1.550 . S
O44 C50 1.412 . S
H45 C43 0.973 . S
C46 H39 0.929 . S
C46 C47 1.400 . S
C46 C48 1.364 . S
C47 C46 1.400 . S
C47 C51 1.377 . S
C48 C46 1.364 . S
C48 C49 1.374 . S
C49 H40 0.930 . S
C49 C48 1.374 . S
C49 C50 1.383 . S
C50 O44 1.412 . S
C50 C49 1.383 . S
C50 C51 1.394 . S
C51 H41 0.929 . S
C51 C47 1.377 . S
C51 C50 1.394 . S
H52 C59 0.929 . S
H53 C62 0.930 . S
H54 C64 0.929 1_545 S
H55 C56 0.969 . S
C56 H55 0.969 . S
C56 O57 1.550 . S
C56 H58 0.973 . S
O57 C56 1.550 . S
O57 C63 1.412 . S
H58 C56 0.973 . S
C59 H52 0.929 . S
C59 C60 1.400 . S
C59 C61 1.364 . S
C60 C59 1.400 . S
C60 C64 1.377 . S
C61 C59 1.364 . S
C61 C62 1.374 . S
C62 H53 0.930 . S
C62 C61 1.374 . S
C62 C63 1.383 . S
C63 O57 1.412 . S
C63 C62 1.383 . S
C63 C64 1.394 . S
C64 H54 0.929 1_565 S
C64 C60 1.377 . S
C64 C63 1.394 . S
H65 C72 0.929 . S
H66 C75 0.930 . S
H67 C77 0.929 . S
H68 C69 0.969 . S
C69 H68 0.969 . S
C69 O70 1.550 . S
C69 H71 0.973 . S
O70 C69 1.550 . S
O70 C76 1.412 . S
H71 C69 0.973 . S
C72 H65 0.929 . S
C72 C73 1.400 . S
C72 C74 1.364 . S
C73 C72 1.400 . S
C73 C77 1.377 . S
C74 C72 1.364 . S
C74 C75 1.374 . S
C75 H66 0.930 . S
C75 C74 1.374 . S
C75 C76 1.383 . S
C76 O70 1.412 . S
C76 C75 1.383 . S
C76 C77 1.394 . S
C77 H67 0.929 . S
C77 C73 1.377 . S
C77 C76 1.394 . S
H78 C85 0.929 . S
H79 C88 0.930 . S
H80 C90 0.929 1_455 S
H81 C82 0.969 . S
C82 H81 0.969 . S
C82 O83 1.550 . S
C82 H84 0.973 . S
O83 C82 1.550 . S
O83 C89 1.412 1_455 S
H84 C82 0.973 . S
C85 H78 0.929 . S
C85 C86 1.400 . S
C85 C87 1.364 . S
C86 C85 1.400 . S
C86 C90 1.377 . S
C87 C85 1.364 . S
C87 C88 1.374 . S
C88 H79 0.930 . S
C88 C87 1.374 . S
C88 C89 1.383 . S
C89 O83 1.412 1_655 S
C89 C88 1.383 . S
C89 C90 1.394 . S
C90 H80 0.929 1_655 S
C90 C86 1.377 . S
C90 C89 1.394 . S
H91 C98 0.929 . S
H92 C101 0.930 . S
H93 C103 0.929 . S
H94 C95 0.969 . S
C95 H94 0.969 . S
C95 O96 1.550 . S
C95 H97 0.973 . S
O96 C95 1.550 . S
O96 C102 1.412 . S
H97 C95 0.973 . S
C98 H91 0.929 . S
C98 C99 1.400 . S
C98 C100 1.364 . S
C99 C98 1.400 . S
C99 C103 1.377 . S
C100 C98 1.364 . S
C100 C101 1.374 . S
C101 H92 0.930 . S
C101 C100 1.374 . S
C101 C102 1.383 . S
C102 O96 1.412 . S
C102 C101 1.383 . S
C102 C103 1.394 . S
C103 H93 0.929 . S
C103 C99 1.377 . S
C103 C102 1.394 . S
H104 C111 0.929 . S
H105 C114 0.930 . S
H106 C116 0.929 . S
H107 C108 0.969 . S
C108 H107 0.969 . S
C108 O109 1.550 . S
C108 H110 0.973 . S
O109 C108 1.550 . S
O109 C115 1.412 . S
H110 C108 0.973 . S
C111 H104 0.929 . S
C111 C112 1.400 . S
C111 C113 1.364 . S
C112 C111 1.400 . S
C112 C116 1.377 . S
C113 C111 1.364 . S
C113 C114 1.374 . S
C114 H105 0.930 . S
C114 C113 1.374 . S
C114 C115 1.383 . S
C115 O109 1.412 . S
C115 C114 1.383 . S
C115 C116 1.394 . S
C116 H106 0.929 . S
C116 C112 1.377 . S
C116 C115 1.394 . S
H117 C124 0.929 . S
H118 C127 0.930 . S
H119 C129 0.929 . S
H120 C121 0.969 . S
C121 H120 0.969 . S
C121 O122 1.550 . S
C121 H123 0.973 . S
O122 C121 1.550 . S
O122 C128 1.412 . S
H123 C121 0.973 . S
C124 H117 0.929 . S
C124 C125 1.400 . S
C124 C126 1.364 . S
C125 C124 1.400 . S
C125 C129 1.377 . S
C126 C124 1.364 . S
C126 C127 1.374 . S
C127 H118 0.930 . S
C127 C126 1.374 . S
C127 C128 1.383 . S
C128 O122 1.412 . S
C128 C127 1.383 . S
C128 C129 1.394 . S
C129 H119 0.929 . S
C129 C125 1.377 . S
C129 C128 1.394 . S
H130 C137 0.929 . S
H131 C140 0.930 . S
H132 C142 0.929 . S
H133 C134 0.969 . S
C134 H133 0.969 . S
C134 O135 1.550 . S
C134 H136 0.973 . S
O135 C134 1.550 . S
O135 C141 1.412 . S
H136 C134 0.973 . S
C137 H130 0.929 . S
C137 C138 1.400 . S
C137 C139 1.364 . S
C138 C137 1.400 . S
C138 C142 1.377 . S
C139 C137 1.364 . S
C139 C140 1.374 . S
C140 H131 0.930 . S
C140 C139 1.374 . S
C140 C141 1.383 . S
C141 O135 1.412 . S
C141 C140 1.383 . S
C141 C142 1.394 . S
C142 H132 0.929 . S
C142 C138 1.377 . S
C142 C141 1.394 . S
H143 C150 0.929 . S
H144 C153 0.930 . S
H145 C155 0.929 . S
H146 C147 0.969 . S
C147 H146 0.969 . S
C147 O148 1.550 . S
C147 H149 0.973 . S
O148 C147 1.550 . S
O148 C154 1.412 . S
H149 C147 0.973 . S
C150 H143 0.929 . S
C150 C151 1.400 . S
C150 C152 1.364 . S
C151 C150 1.400 . S
C151 C155 1.377 . S
C152 C150 1.364 . S
C152 C153 1.374 . S
C153 H144 0.930 . S
C153 C152 1.374 . S
C153 C154 1.383 . S
C154 O148 1.412 . S
C154 C153 1.383 . S
C154 C155 1.394 . S
C155 H145 0.929 . S
C155 C151 1.377 . S
C155 C154 1.394 . S
H156 C163 0.929 . S
H157 C166 0.930 . S
H158 C168 0.929 . S
H159 C160 0.969 . S
C160 H159 0.969 . S
C160 O161 1.550 . S
C160 H162 0.973 . S
O161 C160 1.550 . S
O161 C167 1.412 . S
H162 C160 0.973 . S
C163 H156 0.929 . S
C163 C164 1.400 . S
C163 C165 1.364 . S
C164 C163 1.400 . S
C164 C168 1.377 . S
C165 C163 1.364 . S
C165 C166 1.374 . S
C166 H157 0.930 . S
C166 C165 1.374 . S
C166 C167 1.383 . S
C167 O161 1.412 . S
C167 C166 1.383 . S
C167 C168 1.394 . S
C168 H158 0.929 . S
C168 C164 1.377 . S
C168 C167 1.394 . S
H169 C176 0.927 1_554 S
H170 C179 0.930 . S
H171 C181 0.929 . S
H172 C173 0.969 . S
C173 H172 0.969 . S
C173 O174 1.550 . S
C173 H175 0.973 . S
O174 C173 1.550 . S
O174 C180 1.412 . S
H175 C173 0.973 . S
C176 H169 0.927 1_556 S
C176 C177 1.400 . S
C176 C178 1.364 . S
C177 C176 1.400 . S
C177 C181 1.377 . S
C178 C176 1.364 . S
C178 C179 1.374 . S
C179 H170 0.930 . S
C179 C178 1.374 . S
C179 C180 1.383 . S
C180 O174 1.412 . S
C180 C179 1.383 . S
C180 C181 1.394 . S
C181 H171 0.929 . S
C181 C177 1.377 . S
C181 C180 1.394 . S
H182 C189 0.929 . S
H183 C192 0.930 . S
H184 C194 0.929 . S
H185 C186 0.969 . S
C186 H185 0.969 . S
C186 O187 1.550 . S
C186 H188 0.973 . S
O187 C186 1.550 . S
O187 C193 1.412 . S
H188 C186 0.973 . S
C189 H182 0.929 . S
C189 C190 1.400 . S
C189 C191 1.364 . S
C190 C189 1.400 . S
C190 C194 1.377 . S
C191 C189 1.364 . S
C191 C192 1.374 . S
C192 H183 0.930 . S
C192 C191 1.374 . S
C192 C193 1.383 . S
C193 O187 1.412 . S
C193 C192 1.383 . S
C193 C194 1.394 . S
C194 H184 0.929 . S
C194 C190 1.377 . S
C194 C193 1.394 . S
H195 C202 0.929 . S
H196 C205 0.930 . S
H197 C207 0.929 . S
H198 C199 0.969 . S
C199 H198 0.969 . S
C199 O200 1.550 . S
C199 H201 0.973 . S
O200 C199 1.550 . S
O200 C206 1.412 . S
H201 C199 0.973 . S
C202 H195 0.929 . S
C202 C203 1.400 . S
C202 C204 1.364 1_554 S
C203 C202 1.400 . S
C203 C207 1.377 1_554 S
C204 C202 1.364 1_556 S
C204 C205 1.374 . S
C205 H196 0.930 . S
C205 C204 1.374 . S
C205 C206 1.383 . S
C206 O200 1.412 . S
C206 C205 1.383 . S
C206 C207 1.394 . S
C207 H197 0.929 . S
C207 C203 1.377 1_556 S
C207 C206 1.394 . S
Li208 N225 1.990 . S
Li208 O268 1.956 . S
Li208 O269 1.970 1_556 S
Li208 O270 1.961 . S
Li209 N233 1.990 . S
Li209 O268 1.971 1_554 S
Li209 O269 1.956 . S
Li209 O271 1.961 . S
Li210 N255 1.990 . S
Li210 O268 1.960 . S
Li210 O270 1.956 . S
Li210 O271 1.970 1_556 S
Li211 N261 1.990 . S
Li211 O269 1.961 . S
Li211 O270 1.970 1_554 S
Li211 O271 1.956 . S
C212 C214 1.348 1_556 S
C212 C215 1.356 . S
C212 O268 1.325 . S
N213 C216 1.314 1_556 S
N213 C217 1.279 . S
C214 C212 1.348 1_554 S
C214 C216 1.353 . S
C214 H272 0.929 . S
C215 C212 1.356 . S
C215 C217 1.358 . S
C215 H273 0.930 . S
C216 N213 1.314 1_554 S
C216 C214 1.353 . S
C216 H274 0.930 . S
C217 N213 1.279 . S
C217 C215 1.358 . S
C217 H275 0.930 . S
C218 C221 1.348 . S
C218 C222 1.356 . S
C218 O269 1.325 . S
C219 N220 1.279 . S
C219 C222 1.358 . S
C219 H276 0.930 . S
N220 C219 1.279 . S
N220 C223 1.314 . S
C221 C218 1.348 . S
C221 C223 1.353 . S
C221 H277 0.929 . S
C222 C218 1.356 . S
C222 C219 1.358 . S
C222 H278 0.930 . S
C223 N220 1.314 . S
C223 C221 1.353 . S
C223 H279 0.930 . S
C224 N225 1.314 . S
C224 C229 1.353 . S
C224 H230 0.930 . S
N225 Li208 1.990 . S
N225 C224 1.314 . S
N225 C227 1.279 . S
C226 C227 1.358 . S
C226 C228 1.356 . S
C226 H280 0.931 . S
C227 N225 1.279 . S
C227 C226 1.358 . S
C227 H231 0.930 1_556 S
C228 C226 1.356 . S
C228 C229 1.348 . S
C229 C224 1.353 . S
C229 C228 1.348 . S
C229 H281 0.929 . S
H230 C224 0.930 . S
H231 C227 0.930 1_554 S
C232 N233 1.314 . S
C232 C234 1.353 . S
C232 H238 0.930 . S
N233 Li209 1.990 . S
N233 C232 1.314 . S
N233 C236 1.279 . S
C234 C232 1.353 . S
C234 C237 1.348 . S
C234 H282 0.929 . S
C235 C236 1.358 . S
C235 C237 1.356 . S
C235 H283 0.930 . S
C236 N233 1.279 . S
C236 C235 1.358 . S
C236 H239 0.930 . S
C237 C234 1.348 . S
C237 C235 1.356 . S
H238 C232 0.930 . S
H239 C236 0.930 . S
C240 C242 1.348 . S
C240 C243 1.356 . S
C240 O270 1.325 . S
N241 C244 1.314 . S
N241 C245 1.279 . S
C242 C240 1.348 . S
C242 C244 1.353 . S
C242 H284 0.929 . S
C243 C240 1.356 . S
C243 C245 1.358 . S
C243 H285 0.930 . S
C244 N241 1.314 . S
C244 C242 1.353 . S
C244 H286 0.930 . S
C245 N241 1.279 . S
C245 C243 1.358 . S
C245 H287 0.930 . S
C246 C247 1.348 1_554 S
C246 C248 1.356 . S
C246 O271 1.325 . S
C247 C246 1.348 1_556 S
C247 C249 1.353 . S
C247 H288 0.929 . S
C248 C246 1.356 . S
C248 C250 1.358 . S
C248 H289 0.930 . S
C249 C247 1.353 . S
C249 N251 1.314 1_556 S
C249 H290 0.930 . S
C250 C248 1.358 . S
C250 N251 1.279 . S
C250 H291 0.930 . S
N251 C249 1.314 1_554 S
N251 C250 1.279 . S
C252 C254 1.353 . S
C252 N255 1.314 . S
C252 H258 0.930 . S
C253 N255 1.279 . S
C253 C256 1.358 . S
C253 H259 0.930 . S
C254 C252 1.353 . S
C254 C257 1.348 . S
C254 H292 0.929 . S
N255 Li210 1.990 . S
N255 C252 1.314 . S
N255 C253 1.279 . S
C256 C253 1.358 . S
C256 C257 1.356 . S
C256 H293 0.930 . S
C257 C254 1.348 . S
C257 C256 1.356 . S
H258 C252 0.930 . S
H259 C253 0.930 . S
C260 N261 1.314 . S
C260 C262 1.353 . S
C260 H266 0.930 . S
N261 Li211 1.990 . S
N261 C260 1.314 . S
N261 C264 1.279 . S
C262 C260 1.353 . S
C262 C265 1.348 . S
C262 H294 0.929 . S
C263 C264 1.358 . S
C263 C265 1.356 . S
C263 H295 0.933 . S
C264 N261 1.279 . S
C264 C263 1.358 . S
C264 H267 0.917 1_554 S
C265 C262 1.348 . S
C265 C263 1.356 . S
H266 C260 0.930 . S
H267 C264 0.917 1_556 S
O268 Li208 1.956 . S
O268 Li209 1.971 1_556 S
O268 Li210 1.960 . S
O268 C212 1.325 . S
O269 Li208 1.970 1_554 S
O269 Li209 1.956 . S
O269 Li211 1.961 . S
O269 C218 1.325 . S
O270 Li208 1.961 . S
O270 Li210 1.956 . S
O270 Li211 1.970 1_556 S
O270 C240 1.325 . S
O271 Li209 1.961 . S
O271 Li210 1.970 1_554 S
O271 Li211 1.956 . S
O271 C246 1.325 . S
H272 C214 0.929 . S
H273 C215 0.930 . S
H274 C216 0.930 . S
H275 C217 0.930 . S
H276 C219 0.930 . S
H277 C221 0.929 . S
H278 C222 0.930 . S
H279 C223 0.930 . S
H280 C226 0.931 . S
H281 C229 0.929 . S
H282 C234 0.929 . S
H283 C235 0.930 . S
H284 C242 0.929 . S
H285 C243 0.930 . S
H286 C244 0.930 . S
H287 C245 0.930 . S
H288 C247 0.929 . S
H289 C248 0.930 . S
H290 C249 0.930 . S
H291 C250 0.930 . S
H292 C254 0.929 . S
H293 C256 0.930 . S
H294 C262 0.929 . S
H295 C263 0.933 . S
Li296 N313 1.990 . S
Li296 O356 1.956 . S
Li296 O357 1.970 . S
Li296 O358 1.961 . S
Li297 N321 1.990 . S
Li297 O356 1.970 . S
Li297 O357 1.956 . S
Li297 O359 1.961 . S
Li298 N343 1.990 . S
Li298 O356 1.961 . S
Li298 O358 1.956 . S
Li298 O359 1.970 . S
Li299 N349 1.990 . S
Li299 O357 1.961 . S
Li299 O358 1.970 . S
Li299 O359 1.956 . S
C300 C302 1.348 . S
C300 C303 1.356 . S
C300 O356 1.325 . S
N301 C304 1.314 . S
N301 C305 1.279 . S
C302 C300 1.348 . S
C302 C304 1.353 . S
C302 H360 0.929 . S
C303 C300 1.356 . S
C303 C305 1.358 . S
C303 H361 0.930 . S
C304 N301 1.314 . S
C304 C302 1.353 . S
C304 H362 0.930 . S
C305 N301 1.279 . S
C305 C303 1.358 . S
C305 H363 0.930 . S
C306 C309 1.348 . S
C306 C310 1.356 . S
C306 O357 1.325 . S
C307 N308 1.279 . S
C307 C310 1.358 . S
C307 H364 0.930 . S
N308 C307 1.279 . S
N308 C311 1.314 . S
C309 C306 1.348 . S
C309 C311 1.353 . S
C309 H365 0.929 . S
C310 C306 1.356 . S
C310 C307 1.358 . S
C310 H366 0.930 . S
C311 N308 1.314 . S
C311 C309 1.353 . S
C311 H367 0.930 . S
C312 N313 1.314 . S
C312 C317 1.353 . S
C312 H318 0.930 . S
N313 Li296 1.990 . S
N313 C312 1.314 . S
N313 C315 1.279 . S
C314 C315 1.358 . S
C314 C316 1.356 . S
C314 H368 0.930 . S
C315 N313 1.279 . S
C315 C314 1.358 . S
C315 H319 0.930 . S
C316 C314 1.356 . S
C316 C317 1.348 . S
C317 C312 1.353 . S
C317 C316 1.348 . S
C317 H369 0.929 . S
H318 C312 0.930 . S
H319 C315 0.930 . S
C320 N321 1.314 . S
C320 C322 1.353 . S
C320 H326 0.930 . S
N321 Li297 1.990 . S
N321 C320 1.314 . S
N321 C324 1.279 . S
C322 C320 1.353 . S
C322 C325 1.348 . S
C322 H370 0.929 . S
C323 C324 1.358 . S
C323 C325 1.356 . S
C323 H371 0.930 . S
C324 N321 1.279 . S
C324 C323 1.358 . S
C324 H327 0.930 . S
C325 C322 1.348 . S
C325 C323 1.356 . S
H326 C320 0.930 . S
H327 C324 0.930 . S
C328 C330 1.348 . S
C328 C331 1.356 . S
C328 O358 1.325 . S
N329 C332 1.314 . S
N329 C333 1.279 . S
C330 C328 1.348 . S
C330 C332 1.353 . S
C330 H372 0.929 . S
C331 C328 1.356 . S
C331 C333 1.358 . S
C331 H373 0.930 . S
C332 N329 1.314 . S
C332 C330 1.353 . S
C332 H374 0.930 . S
C333 N329 1.279 . S
C333 C331 1.358 . S
C333 H375 0.930 . S
C334 C335 1.348 . S
C334 C336 1.356 . S
C334 O359 1.325 . S
C335 C334 1.348 . S
C335 C337 1.353 . S
C335 H376 0.929 . S
C336 C334 1.356 . S
C336 C338 1.358 . S
C336 H377 0.930 . S
C337 C335 1.353 . S
C337 N339 1.314 . S
C337 H378 0.930 . S
C338 C336 1.358 . S
C338 N339 1.279 . S
C338 H379 0.930 . S
N339 C337 1.314 . S
N339 C338 1.279 . S
C340 C342 1.353 . S
C340 N343 1.314 . S
C340 H346 0.930 . S
C341 N343 1.279 . S
C341 C344 1.358 . S
C341 H347 0.930 . S
C342 C340 1.353 . S
C342 C345 1.348 . S
C342 H380 0.929 . S
N343 Li298 1.990 . S
N343 C340 1.314 . S
N343 C341 1.279 . S
C344 C341 1.358 . S
C344 C345 1.356 . S
C344 H381 0.930 . S
C345 C342 1.348 . S
C345 C344 1.356 . S
H346 C340 0.930 . S
H347 C341 0.930 . S
C348 N349 1.314 . S
C348 C350 1.353 . S
C348 H354 0.930 . S
N349 Li299 1.990 . S
N349 C348 1.314 . S
N349 C352 1.279 . S
C350 C348 1.353 . S
C350 C353 1.348 . S
C350 H382 0.929 . S
C351 C352 1.358 . S
C351 C353 1.356 . S
C351 H383 0.930 . S
C352 N349 1.279 . S
C352 C351 1.358 . S
C352 H355 0.930 . S
C353 C350 1.348 . S
C353 C351 1.356 . S
H354 C348 0.930 . S
H355 C352 0.930 . S
O356 Li296 1.956 . S
O356 Li297 1.970 . S
O356 Li298 1.961 . S
O356 C300 1.325 . S
O357 Li296 1.970 . S
O357 Li297 1.956 . S
O357 Li299 1.961 . S
O357 C306 1.325 . S
O358 Li296 1.961 . S
O358 Li298 1.956 . S
O358 Li299 1.970 . S
O358 C328 1.325 . S
O359 Li297 1.961 . S
O359 Li298 1.970 . S
O359 Li299 1.956 . S
O359 C334 1.325 . S
H360 C302 0.929 . S
H361 C303 0.930 . S
H362 C304 0.930 . S
H363 C305 0.930 . S
H364 C307 0.930 . S
H365 C309 0.929 . S
H366 C310 0.930 . S
H367 C311 0.930 . S
H368 C314 0.930 . S
H369 C317 0.929 . S
H370 C322 0.929 . S
H371 C323 0.930 . S
H372 C330 0.929 . S
H373 C331 0.930 . S
H374 C332 0.930 . S
H375 C333 0.930 . S
H376 C335 0.929 . S
H377 C336 0.930 . S
H378 C337 0.930 . S
H379 C338 0.930 . S
H380 C342 0.929 . S
H381 C344 0.930 . S
H382 C350 0.929 . S
H383 C351 0.930 . S
Li384 N401 1.990 . S
Li384 O444 1.956 . S
Li384 O445 1.970 . S
Li384 O446 1.961 . S
Li385 N409 1.990 . S
Li385 O444 1.970 . S
Li385 O445 1.956 . S
Li385 O447 1.961 . S
Li386 N431 1.990 . S
Li386 O444 1.961 . S
Li386 O446 1.956 . S
Li386 O447 1.970 . S
Li387 N437 1.990 . S
Li387 O445 1.961 . S
Li387 O446 1.970 . S
Li387 O447 1.956 . S
C388 C390 1.348 . S
C388 C391 1.356 . S
C388 O444 1.325 . S
N389 C392 1.314 . S
N389 C393 1.279 . S
C390 C388 1.348 . S
C390 C392 1.353 . S
C390 H448 0.929 . S
C391 C388 1.356 . S
C391 C393 1.358 . S
C391 H449 0.930 . S
C392 N389 1.314 . S
C392 C390 1.353 . S
C392 H450 0.930 . S
C393 N389 1.279 . S
C393 C391 1.358 . S
C393 H451 0.930 . S
C394 C397 1.348 . S
C394 C398 1.356 . S
C394 O445 1.325 . S
C395 N396 1.279 . S
C395 C398 1.358 . S
C395 H452 0.930 . S
N396 C395 1.279 . S
N396 C399 1.314 . S
C397 C394 1.348 . S
C397 C399 1.353 . S
C397 H453 0.929 . S
C398 C394 1.356 . S
C398 C395 1.358 . S
C398 H454 0.930 . S
C399 N396 1.314 . S
C399 C397 1.353 . S
C399 H455 0.930 . S
C400 N401 1.314 . S
C400 C405 1.353 . S
C400 H406 0.930 . S
N401 Li384 1.990 . S
N401 C400 1.314 . S
N401 C403 1.279 . S
C402 C403 1.358 . S
C402 C404 1.356 . S
C402 H456 0.930 . S
C403 N401 1.279 . S
C403 C402 1.358 . S
C403 H407 0.930 . S
C404 C402 1.356 . S
C404 C405 1.348 . S
C405 C400 1.353 . S
C405 C404 1.348 . S
C405 H457 0.929 . S
H406 C400 0.930 . S
H407 C403 0.930 . S
C408 N409 1.314 . S
C408 C410 1.353 . S
C408 H414 0.930 . S
N409 Li385 1.990 . S
N409 C408 1.314 . S
N409 C412 1.279 . S
C410 C408 1.353 . S
C410 C413 1.348 . S
C410 H458 0.929 . S
C411 C412 1.358 . S
C411 C413 1.356 . S
C411 H459 0.930 . S
C412 N409 1.279 . S
C412 C411 1.358 . S
C412 H415 0.930 . S
C413 C410 1.348 . S
C413 C411 1.356 . S
H414 C408 0.930 . S
H415 C412 0.930 . S
C416 C418 1.348 . S
C416 C419 1.385 . S
C416 O446 1.325 . S
N417 C420 1.314 . S
N417 C421 1.279 . S
C418 C416 1.348 . S
C418 C420 1.353 1_554 S
C418 H460 0.929 . S
C419 C416 1.385 . S
C419 C421 1.325 1_554 S
C419 H461 0.935 . S
C420 N417 1.314 . S
C420 C418 1.353 1_556 S
C420 H462 0.930 . S
C421 N417 1.279 . S
C421 C419 1.325 1_556 S
C421 H463 0.930 . S
C422 C423 1.348 . S
C422 C424 1.356 . S
C422 O447 1.325 . S
C423 C422 1.348 . S
C423 C425 1.353 . S
C423 H464 0.929 . S
C424 C422 1.356 . S
C424 C426 1.358 . S
C424 H465 0.930 . S
C425 C423 1.353 . S
C425 N427 1.314 . S
C425 H466 0.930 . S
C426 C424 1.358 . S
C426 N427 1.279 . S
C426 H467 0.930 . S
N427 C425 1.314 . S
N427 C426 1.279 . S
C428 C430 1.353 1_554 S
C428 N431 1.314 . S
C428 H434 0.930 . S
C429 N431 1.279 1_556 S
C429 C432 1.358 . S
C429 H435 0.930 . S
C430 C428 1.353 1_556 S
C430 C433 1.348 . S
C430 H468 0.929 . S
N431 Li386 1.990 . S
N431 C428 1.314 . S
N431 C429 1.279 1_554 S
C432 C429 1.358 . S
C432 C433 1.356 . S
C432 H469 0.930 . S
C433 C430 1.348 . S
C433 C432 1.356 . S
H434 C428 0.930 . S
H435 C429 0.930 . S
C436 N437 1.314 . S
C436 C438 1.353 . S
C436 H442 0.930 . S
N437 Li387 1.990 . S
N437 C436 1.314 . S
N437 C440 1.279 . S
C438 C436 1.353 . S
C438 C441 1.348 . S
C438 H470 0.929 . S
C439 C440 1.358 . S
C439 C441 1.356 . S
C439 H471 0.930 . S
C440 N437 1.279 . S
C440 C439 1.358 . S
C440 H443 0.930 . S
C441 C438 1.348 . S
C441 C439 1.356 . S
H442 C436 0.930 . S
H443 C440 0.930 . S
O444 Li384 1.956 . S
O444 Li385 1.970 . S
O444 Li386 1.961 . S
O444 C388 1.325 . S
O445 Li384 1.970 . S
O445 Li385 1.956 . S
O445 Li387 1.961 . S
O445 C394 1.325 . S
O446 Li384 1.961 . S
O446 Li386 1.956 . S
O446 Li387 1.970 . S
O446 C416 1.325 . S
O447 Li385 1.961 . S
O447 Li386 1.970 . S
O447 Li387 1.956 . S
O447 C422 1.325 . S
H448 C390 0.929 . S
H449 C391 0.930 . S
H450 C392 0.930 . S
H451 C393 0.930 . S
H452 C395 0.930 . S
H453 C397 0.929 . S
H454 C398 0.930 . S
H455 C399 0.930 . S
H456 C402 0.930 . S
H457 C405 0.929 . S
H458 C410 0.929 . S
H459 C411 0.930 . S
H460 C418 0.929 . S
H461 C419 0.935 . S
H462 C420 0.930 . S
H463 C421 0.930 . S
H464 C423 0.929 . S
H465 C424 0.930 . S
H466 C425 0.930 . S
H467 C426 0.930 . S
H468 C430 0.929 . S
H469 C432 0.930 . S
H470 C438 0.929 . S
H471 C439 0.930 . S
Li472 N489 1.990 . S
Li472 O532 1.956 . S
Li472 O533 1.970 . S
Li472 O534 1.961 . S
Li473 N497 1.990 . S
Li473 O532 1.970 . S
Li473 O533 1.956 . S
Li473 O535 1.961 . S
Li474 N519 1.990 . S
Li474 O532 1.961 . S
Li474 O534 1.956 . S
Li474 O535 1.970 . S
Li475 N525 1.990 1_545 S
Li475 O533 1.961 . S
Li475 O534 1.970 . S
Li475 O535 1.956 . S
C476 C478 1.348 . S
C476 C479 1.356 . S
C476 O532 1.325 . S
N477 C480 1.314 . S
N477 C481 1.279 . S
C478 C476 1.348 . S
C478 C480 1.353 . S
C478 H536 0.929 . S
C479 C476 1.356 . S
C479 C481 1.358 . S
C479 H537 0.930 . S
C480 N477 1.314 . S
C480 C478 1.353 . S
C480 H538 0.930 . S
C481 N477 1.279 . S
C481 C479 1.358 . S
C481 H539 0.930 . S
C482 C485 1.348 . S
C482 C486 1.356 1_545 S
C482 O533 1.325 . S
C483 N484 1.279 1_565 S
C483 C486 1.358 . S
C483 H540 0.930 . S
N484 C483 1.279 1_545 S
N484 C487 1.314 . S
C485 C482 1.348 . S
C485 C487 1.353 . S
C485 H541 0.929 . S
C486 C482 1.356 1_565 S
C486 C483 1.358 . S
C486 H542 0.930 . S
C487 N484 1.314 . S
C487 C485 1.353 . S
C487 H543 0.930 . S
C488 N489 1.314 . S
C488 C493 1.353 . S
C488 H494 0.930 . S
N489 Li472 1.990 . S
N489 C488 1.314 . S
N489 C491 1.279 . S
C490 C491 1.358 . S
C490 C492 1.356 . S
C490 H544 0.930 . S
C491 N489 1.279 . S
C491 C490 1.358 . S
C491 H495 0.930 . S
C492 C490 1.356 . S
C492 C493 1.348 . S
C493 C488 1.353 . S
C493 C492 1.348 . S
C493 H545 0.929 . S
H494 C488 0.930 . S
H495 C491 0.930 . S
C496 N497 1.314 . S
C496 C498 1.353 . S
C496 H502 0.930 . S
N497 Li473 1.990 . S
N497 C496 1.314 . S
N497 C500 1.279 . S
C498 C496 1.353 . S
C498 C501 1.348 . S
C498 H546 0.929 . S
C499 C500 1.358 . S
C499 C501 1.356 . S
C499 H547 0.930 . S
C500 N497 1.279 . S
C500 C499 1.358 . S
C500 H503 0.930 . S
C501 C498 1.348 . S
C501 C499 1.356 . S
H502 C496 0.930 . S
H503 C500 0.930 . S
C504 C506 1.348 . S
C504 C507 1.356 . S
C504 O534 1.325 . S
N505 C508 1.314 . S
N505 C509 1.279 . S
C506 C504 1.348 . S
C506 C508 1.353 . S
C506 H548 0.929 1_545 S
C507 C504 1.356 . S
C507 C509 1.358 . S
C507 H549 0.930 . S
C508 N505 1.314 . S
C508 C506 1.353 . S
C508 H550 0.930 . S
C509 N505 1.279 . S
C509 C507 1.358 . S
C509 H551 0.930 . S
C510 C511 1.348 . S
C510 C512 1.356 . S
C510 O535 1.325 1_565 S
C511 C510 1.348 . S
C511 C513 1.353 . S
C511 H552 0.929 . S
C512 C510 1.356 . S
C512 C514 1.358 . S
C512 H553 0.930 . S
C513 C511 1.353 . S
C513 N515 1.314 . S
C513 H554 0.930 . S
C514 C512 1.358 . S
C514 N515 1.279 . S
C514 H555 0.930 . S
N515 C513 1.314 . S
N515 C514 1.279 . S
C516 C518 1.353 . S
C516 N519 1.314 . S
C516 H522 0.930 . S
C517 N519 1.279 . S
C517 C520 1.358 . S
C517 H523 0.930 . S
C518 C516 1.353 . S
C518 C521 1.348 . S
C518 H556 0.929 . S
N519 Li474 1.990 . S
N519 C516 1.314 . S
N519 C517 1.279 . S
C520 C517 1.358 . S
C520 C521 1.356 . S
C520 H557 0.930 . S
C521 C518 1.348 . S
C521 C520 1.356 . S
H522 C516 0.930 . S
H523 C517 0.930 . S
C524 N525 1.314 . S
C524 C526 1.353 . S
C524 H530 0.930 . S
N525 Li475 1.990 1_565 S
N525 C524 1.314 . S
N525 C528 1.279 . S
C526 C524 1.353 . S
C526 C529 1.348 . S
C526 H558 0.929 . S
C527 C528 1.358 . S
C527 C529 1.356 . S
C527 H559 0.930 . S
C528 N525 1.279 . S
C528 C527 1.358 . S
C528 H531 0.930 . S
C529 C526 1.348 . S
C529 C527 1.356 . S
H530 C524 0.930 . S
H531 C528 0.930 . S
O532 Li472 1.956 . S
O532 Li473 1.970 . S
O532 Li474 1.961 . S
O532 C476 1.325 . S
O533 Li472 1.970 . S
O533 Li473 1.956 . S
O533 Li475 1.961 . S
O533 C482 1.325 . S
O534 Li472 1.961 . S
O534 Li474 1.956 . S
O534 Li475 1.970 . S
O534 C504 1.325 . S
O535 Li473 1.961 . S
O535 Li474 1.970 . S
O535 Li475 1.956 . S
O535 C510 1.325 1_545 S
H536 C478 0.929 . S
H537 C479 0.930 . S
H538 C480 0.930 . S
H539 C481 0.930 . S
H540 C483 0.930 . S
H541 C485 0.929 . S
H542 C486 0.930 . S
H543 C487 0.930 . S
H544 C490 0.930 . S
H545 C493 0.929 . S
H546 C498 0.929 . S
H547 C499 0.930 . S
H548 C506 0.929 1_565 S
H549 C507 0.930 . S
H550 C508 0.930 . S
H551 C509 0.930 . S
H552 C511 0.929 . S
H553 C512 0.930 . S
H554 C513 0.930 . S
H555 C514 0.930 . S
H556 C518 0.929 . S
H557 C520 0.930 . S
H558 C526 0.929 . S
H559 C527 0.930 . S
Li560 N577 1.990 . S
Li560 O620 1.956 . S
Li560 O621 1.970 . S
Li560 O622 1.961 . S
Li561 N585 1.990 . S
Li561 O620 1.970 . S
Li561 O621 1.956 . S
Li561 O623 1.961 . S
Li562 N607 1.990 . S
Li562 O620 1.961 . S
Li562 O622 1.956 . S
Li562 O623 1.970 . S
Li563 N613 1.990 . S
Li563 O621 1.961 . S
Li563 O622 1.970 . S
Li563 O623 1.956 . S
C564 C566 1.348 . S
C564 C567 1.356 . S
C564 O620 1.325 . S
N565 C568 1.314 . S
N565 C569 1.279 . S
C566 C564 1.348 . S
C566 C568 1.353 . S
C566 H624 0.929 . S
C567 C564 1.356 . S
C567 C569 1.358 . S
C567 H625 0.930 . S
C568 N565 1.314 . S
C568 C566 1.353 . S
C568 H626 0.930 . S
C569 N565 1.279 . S
C569 C567 1.358 . S
C569 H627 0.930 . S
C570 C573 1.348 . S
C570 C574 1.356 . S
C570 O621 1.325 . S
C571 N572 1.279 . S
C571 C574 1.358 . S
C571 H628 0.930 . S
N572 C571 1.279 . S
N572 C575 1.314 . S
C573 C570 1.348 . S
C573 C575 1.353 . S
C573 H629 0.929 . S
C574 C570 1.356 . S
C574 C571 1.358 . S
C574 H630 0.930 . S
C575 N572 1.314 . S
C575 C573 1.353 . S
C575 H631 0.930 . S
C576 N577 1.314 . S
C576 C581 1.353 . S
C576 H582 0.930 . S
N577 Li560 1.990 . S
N577 C576 1.314 . S
N577 C579 1.279 . S
C578 C579 1.358 . S
C578 C580 1.356 . S
C578 H632 0.930 . S
C579 N577 1.279 . S
C579 C578 1.358 . S
C579 H583 0.930 . S
C580 C578 1.356 . S
C580 C581 1.348 . S
C581 C576 1.353 . S
C581 C580 1.348 . S
C581 H633 0.929 . S
H582 C576 0.930 . S
H583 C579 0.930 . S
C584 N585 1.314 . S
C584 C586 1.353 . S
C584 H590 0.930 . S
N585 Li561 1.990 . S
N585 C584 1.314 . S
N585 C588 1.279 . S
C586 C584 1.353 . S
C586 C589 1.348 . S
C586 H634 0.929 . S
C587 C588 1.358 . S
C587 C589 1.356 . S
C587 H635 0.930 . S
C588 N585 1.279 . S
C588 C587 1.358 . S
C588 H591 0.930 . S
C589 C586 1.348 . S
C589 C587 1.356 . S
H590 C584 0.930 . S
H591 C588 0.930 . S
C592 C594 1.348 . S
C592 C595 1.356 . S
C592 O622 1.325 . S
N593 C596 1.314 . S
N593 C597 1.279 . S
C594 C592 1.348 . S
C594 C596 1.353 . S
C594 H636 0.929 . S
C595 C592 1.356 . S
C595 C597 1.358 . S
C595 H637 0.930 . S
C596 N593 1.314 . S
C596 C594 1.353 . S
C596 H638 0.930 . S
C597 N593 1.279 . S
C597 C595 1.358 . S
C597 H639 0.930 . S
C598 C599 1.348 . S
C598 C600 1.356 . S
C598 O623 1.325 . S
C599 C598 1.348 . S
C599 C601 1.353 . S
C599 H640 0.929 . S
C600 C598 1.356 . S
C600 C602 1.358 . S
C600 H641 0.930 . S
C601 C599 1.353 . S
C601 N603 1.314 . S
C601 H642 0.930 . S
C602 C600 1.358 . S
C602 N603 1.279 . S
C602 H643 0.930 . S
N603 C601 1.314 . S
N603 C602 1.279 . S
C604 C606 1.353 . S
C604 N607 1.314 . S
C604 H610 0.930 . S
C605 N607 1.279 . S
C605 C608 1.358 . S
C605 H611 0.930 . S
C606 C604 1.353 . S
C606 C609 1.348 . S
C606 H644 0.929 . S
N607 Li562 1.990 . S
N607 C604 1.314 . S
N607 C605 1.279 . S
C608 C605 1.358 . S
C608 C609 1.356 . S
C608 H645 0.930 . S
C609 C606 1.348 . S
C609 C608 1.356 . S
H610 C604 0.930 . S
H611 C605 0.930 . S
C612 N613 1.314 . S
C612 C614 1.353 . S
C612 H618 0.930 . S
N613 Li563 1.990 . S
N613 C612 1.314 . S
N613 C616 1.279 . S
C614 C612 1.353 . S
C614 C617 1.348 . S
C614 H646 0.929 . S
C615 C616 1.358 . S
C615 C617 1.356 . S
C615 H647 0.930 . S
C616 N613 1.279 . S
C616 C615 1.358 . S
C616 H619 0.930 . S
C617 C614 1.348 . S
C617 C615 1.356 . S
H618 C612 0.930 . S
H619 C616 0.930 . S
O620 Li560 1.956 . S
O620 Li561 1.970 . S
O620 Li562 1.961 . S
O620 C564 1.325 . S
O621 Li560 1.970 . S
O621 Li561 1.956 . S
O621 Li563 1.961 . S
O621 C570 1.325 . S
O622 Li560 1.961 . S
O622 Li562 1.956 . S
O622 Li563 1.970 . S
O622 C592 1.325 . S
O623 Li561 1.961 . S
O623 Li562 1.970 . S
O623 Li563 1.956 . S
O623 C598 1.325 . S
H624 C566 0.929 . S
H625 C567 0.930 . S
H626 C568 0.930 . S
H627 C569 0.930 . S
H628 C571 0.930 . S
H629 C573 0.929 . S
H630 C574 0.930 . S
H631 C575 0.930 . S
H632 C578 0.930 . S
H633 C581 0.929 . S
H634 C586 0.929 . S
H635 C587 0.930 . S
H636 C594 0.929 . S
H637 C595 0.930 . S
H638 C596 0.930 . S
H639 C597 0.930 . S
H640 C599 0.929 . S
H641 C600 0.930 . S
H642 C601 0.930 . S
H643 C602 0.930 . S
H644 C606 0.929 . S
H645 C608 0.930 . S
H646 C614 0.929 . S
H647 C615 0.930 . S
Li648 N665 1.990 . S
Li648 O708 1.956 . S
Li648 O709 1.970 . S
Li648 O710 1.961 . S
Li649 N673 1.990 . S
Li649 O708 1.970 . S
Li649 O709 1.956 . S
Li649 O711 1.961 . S
Li650 N695 1.990 . S
Li650 O708 1.961 . S
Li650 O710 1.956 . S
Li650 O711 1.970 . S
Li651 N701 1.990 . S
Li651 O709 1.961 . S
Li651 O710 1.970 . S
Li651 O711 1.956 . S
C652 C654 1.348 . S
C652 C655 1.356 . S
C652 O708 1.325 . S
N653 C656 1.314 . S
N653 C657 1.279 . S
C654 C652 1.348 . S
C654 C656 1.353 . S
C654 H712 0.929 . S
C655 C652 1.356 . S
C655 C657 1.358 . S
C655 H713 0.930 . S
C656 N653 1.314 . S
C656 C654 1.353 . S
C656 H714 0.930 . S
C657 N653 1.279 . S
C657 C655 1.358 . S
C657 H715 0.930 . S
C658 C661 1.348 . S
C658 C662 1.356 . S
C658 O709 1.325 . S
C659 N660 1.279 . S
C659 C662 1.358 . S
C659 H716 0.930 . S
N660 C659 1.279 . S
N660 C663 1.314 . S
C661 C658 1.348 . S
C661 C663 1.353 . S
C661 H717 0.929 . S
C662 C658 1.356 . S
C662 C659 1.358 . S
C662 H718 0.930 . S
C663 N660 1.314 . S
C663 C661 1.353 . S
C663 H719 0.930 . S
C664 N665 1.314 . S
C664 C669 1.353 . S
C664 H670 0.930 . S
N665 Li648 1.990 . S
N665 C664 1.314 . S
N665 C667 1.279 . S
C666 C667 1.358 . S
C666 C668 1.356 . S
C666 H720 0.930 . S
C667 N665 1.279 . S
C667 C666 1.358 . S
C667 H671 0.930 . S
C668 C666 1.356 . S
C668 C669 1.348 . S
C669 C664 1.353 . S
C669 C668 1.348 . S
C669 H721 0.929 . S
H670 C664 0.930 . S
H671 C667 0.930 . S
C672 N673 1.314 . S
C672 C674 1.353 . S
C672 H678 0.930 . S
N673 Li649 1.990 . S
N673 C672 1.314 . S
N673 C676 1.279 . S
C674 C672 1.353 . S
C674 C677 1.348 . S
C674 H722 0.929 . S
C675 C676 1.358 . S
C675 C677 1.356 . S
C675 H723 0.930 . S
C676 N673 1.279 . S
C676 C675 1.358 . S
C676 H679 0.930 . S
C677 C674 1.348 . S
C677 C675 1.356 . S
H678 C672 0.930 . S
H679 C676 0.930 . S
C680 C682 1.348 . S
C680 C683 1.356 . S
C680 O710 1.325 . S
N681 C684 1.314 . S
N681 C685 1.279 . S
C682 C680 1.348 . S
C682 C684 1.353 . S
C682 H724 0.929 . S
C683 C680 1.356 . S
C683 C685 1.358 . S
C683 H725 0.930 . S
C684 N681 1.314 . S
C684 C682 1.353 . S
C684 H726 0.930 . S
C685 N681 1.279 . S
C685 C683 1.358 . S
C685 H727 0.930 . S
C686 C687 1.348 . S
C686 C688 1.356 . S
C686 O711 1.325 . S
C687 C686 1.348 . S
C687 C689 1.353 . S
C687 H728 0.929 . S
C688 C686 1.356 . S
C688 C690 1.358 . S
C688 H729 0.930 . S
C689 C687 1.353 . S
C689 N691 1.314 . S
C689 H730 0.930 . S
C690 C688 1.358 . S
C690 N691 1.279 . S
C690 H731 0.930 . S
N691 C689 1.314 . S
N691 C690 1.279 . S
C692 C694 1.353 . S
C692 N695 1.314 . S
C692 H698 0.930 . S
C693 N695 1.279 . S
C693 C696 1.358 . S
C693 H699 0.930 . S
C694 C692 1.353 . S
C694 C697 1.348 . S
C694 H732 0.929 . S
N695 Li650 1.990 . S
N695 C692 1.314 . S
N695 C693 1.279 . S
C696 C693 1.358 . S
C696 C697 1.356 . S
C696 H733 0.930 . S
C697 C694 1.348 . S
C697 C696 1.356 . S
H698 C692 0.930 . S
H699 C693 0.930 . S
C700 N701 1.314 . S
C700 C702 1.353 . S
C700 H706 0.930 . S
N701 Li651 1.990 . S
N701 C700 1.314 . S
N701 C704 1.279 . S
C702 C700 1.353 . S
C702 C705 1.348 . S
C702 H734 0.929 . S
C703 C704 1.358 . S
C703 C705 1.356 . S
C703 H735 0.930 . S
C704 N701 1.279 . S
C704 C703 1.358 . S
C704 H707 0.930 . S
C705 C702 1.348 . S
C705 C703 1.356 . S
H706 C700 0.930 . S
H707 C704 0.930 . S
O708 Li648 1.956 . S
O708 Li649 1.970 . S
O708 Li650 1.961 . S
O708 C652 1.325 . S
O709 Li648 1.970 . S
O709 Li649 1.956 . S
O709 Li651 1.961 . S
O709 C658 1.325 . S
O710 Li648 1.961 . S
O710 Li650 1.956 . S
O710 Li651 1.970 . S
O710 C680 1.325 . S
O711 Li649 1.961 . S
O711 Li650 1.970 . S
O711 Li651 1.956 . S
O711 C686 1.325 . S
H712 C654 0.929 . S
H713 C655 0.930 . S
H714 C656 0.930 . S
H715 C657 0.930 . S
H716 C659 0.930 . S
H717 C661 0.929 . S
H718 C662 0.930 . S
H719 C663 0.930 . S
H720 C666 0.930 . S
H721 C669 0.929 . S
H722 C674 0.929 . S
H723 C675 0.930 . S
H724 C682 0.929 . S
H725 C683 0.930 . S
H726 C684 0.930 . S
H727 C685 0.930 . S
H728 C687 0.929 . S
H729 C688 0.930 . S
H730 C689 0.930 . S
H731 C690 0.930 . S
H732 C694 0.929 . S
H733 C696 0.930 . S
H734 C702 0.929 . S
H735 C703 0.930 . S
Li736 N753 1.990 . S
Li736 O796 1.956 . S
Li736 O797 1.970 . S
Li736 O798 1.961 . S
Li737 N761 1.990 . S
Li737 O796 1.970 . S
Li737 O797 1.956 . S
Li737 O799 1.961 . S
Li738 N783 1.990 . S
Li738 O796 1.961 . S
Li738 O798 1.956 . S
Li738 O799 1.970 . S
Li739 N789 1.990 . S
Li739 O797 1.961 . S
Li739 O798 1.970 . S
Li739 O799 1.956 . S
C740 C742 1.348 . S
C740 C743 1.356 . S
C740 O796 1.325 . S
N741 C744 1.314 . S
N741 C745 1.279 . S
C742 C740 1.348 . S
C742 C744 1.353 . S
C742 H800 0.929 . S
C743 C740 1.356 . S
C743 C745 1.358 . S
C743 H801 0.930 . S
C744 N741 1.314 . S
C744 C742 1.353 . S
C744 H802 0.930 . S
C745 N741 1.279 . S
C745 C743 1.358 . S
C745 H803 0.930 . S
C746 C749 1.348 . S
C746 C750 1.356 . S
C746 O797 1.325 . S
C747 N748 1.279 . S
C747 C750 1.358 . S
C747 H804 0.930 . S
N748 C747 1.279 . S
N748 C751 1.314 . S
C749 C746 1.348 . S
C749 C751 1.353 . S
C749 H805 0.929 . S
C750 C746 1.356 . S
C750 C747 1.358 . S
C750 H806 0.930 . S
C751 N748 1.314 . S
C751 C749 1.353 . S
C751 H807 0.930 . S
C752 N753 1.314 . S
C752 C757 1.353 . S
C752 H758 0.930 . S
N753 Li736 1.990 . S
N753 C752 1.314 . S
N753 C755 1.279 . S
C754 C755 1.358 . S
C754 C756 1.356 . S
C754 H808 0.930 . S
C755 N753 1.279 . S
C755 C754 1.358 . S
C755 H759 0.930 . S
C756 C754 1.356 . S
C756 C757 1.348 . S
C757 C752 1.353 . S
C757 C756 1.348 . S
C757 H809 0.929 . S
H758 C752 0.930 . S
H759 C755 0.930 . S
C760 N761 1.314 . S
C760 C762 1.353 . S
C760 H766 0.930 . S
N761 Li737 1.990 . S
N761 C760 1.314 . S
N761 C764 1.279 . S
C762 C760 1.353 . S
C762 C765 1.348 . S
C762 H810 0.929 . S
C763 C764 1.358 . S
C763 C765 1.356 . S
C763 H811 0.930 . S
C764 N761 1.279 . S
C764 C763 1.358 . S
C764 H767 0.930 . S
C765 C762 1.348 . S
C765 C763 1.356 . S
H766 C760 0.930 . S
H767 C764 0.930 . S
C768 C770 1.348 . S
C768 C771 1.356 . S
C768 O798 1.325 . S
N769 C772 1.314 . S
N769 C773 1.279 . S
C770 C768 1.348 . S
C770 C772 1.353 . S
C770 H812 0.929 . S
C771 C768 1.356 . S
C771 C773 1.358 . S
C771 H813 0.930 . S
C772 N769 1.314 . S
C772 C770 1.353 . S
C772 H814 0.930 . S
C773 N769 1.279 . S
C773 C771 1.358 . S
C773 H815 0.930 . S
C774 C775 1.348 . S
C774 C776 1.356 . S
C774 O799 1.325 . S
C775 C774 1.348 . S
C775 C777 1.353 . S
C775 H816 0.929 . S
C776 C774 1.356 . S
C776 C778 1.358 . S
C776 H817 0.930 . S
C777 C775 1.353 . S
C777 N779 1.314 . S
C777 H818 0.930 . S
C778 C776 1.358 . S
C778 N779 1.279 . S
C778 H819 0.930 . S
N779 C777 1.314 . S
N779 C778 1.279 . S
C780 C782 1.353 . S
C780 N783 1.314 . S
C780 H786 0.930 . S
C781 N783 1.279 . S
C781 C784 1.358 . S
C781 H787 0.930 . S
C782 C780 1.353 . S
C782 C785 1.348 . S
C782 H820 0.929 . S
N783 Li738 1.990 . S
N783 C780 1.314 . S
N783 C781 1.279 . S
C784 C781 1.358 . S
C784 C785 1.356 . S
C784 H821 0.930 . S
C785 C782 1.348 . S
C785 C784 1.356 . S
H786 C780 0.930 . S
H787 C781 0.930 . S
C788 N789 1.314 . S
C788 C790 1.353 . S
C788 H794 0.930 . S
N789 Li739 1.990 . S
N789 C788 1.314 . S
N789 C792 1.279 . S
C790 C788 1.353 . S
C790 C793 1.348 . S
C790 H822 0.929 . S
C791 C792 1.358 . S
C791 C793 1.356 . S
C791 H823 0.930 . S
C792 N789 1.279 . S
C792 C791 1.358 . S
C792 H795 0.930 . S
C793 C790 1.348 . S
C793 C791 1.356 . S
H794 C788 0.930 . S
H795 C792 0.930 . S
O796 Li736 1.956 . S
O796 Li737 1.970 . S
O796 Li738 1.961 . S
O796 C740 1.325 . S
O797 Li736 1.970 . S
O797 Li737 1.956 . S
O797 Li739 1.961 . S
O797 C746 1.325 . S
O798 Li736 1.961 . S
O798 Li738 1.956 . S
O798 Li739 1.970 . S
O798 C768 1.325 . S
O799 Li737 1.961 . S
O799 Li738 1.970 . S
O799 Li739 1.956 . S
O799 C774 1.325 . S
H800 C742 0.929 . S
H801 C743 0.930 . S
H802 C744 0.930 . S
H803 C745 0.930 . S
H804 C747 0.930 . S
H805 C749 0.929 . S
H806 C750 0.930 . S
H807 C751 0.930 . S
H808 C754 0.930 . S
H809 C757 0.929 . S
H810 C762 0.929 . S
H811 C763 0.930 . S
H812 C770 0.929 . S
H813 C771 0.930 . S
H814 C772 0.930 . S
H815 C773 0.930 . S
H816 C775 0.929 . S
H817 C776 0.930 . S
H818 C777 0.930 . S
H819 C778 0.930 . S
H820 C782 0.929 . S
H821 C784 0.930 . S
H822 C790 0.929 . S
H823 C791 0.930 . S
Li824 N841 1.990 . S
Li824 O884 1.956 . S
Li824 O885 1.970 1_565 S
Li824 O886 1.961 . S
Li825 N849 1.990 . S
Li825 O884 1.970 1_545 S
Li825 O885 1.956 . S
Li825 O887 1.961 . S
Li826 N871 1.990 . S
Li826 O884 1.961 . S
Li826 O886 1.956 . S
Li826 O887 1.970 1_565 S
Li827 N877 1.990 . S
Li827 O885 1.961 . S
Li827 O886 1.970 1_545 S
Li827 O887 1.956 . S
C828 C830 1.348 . S
C828 C831 1.356 . S
C828 O884 1.325 . S
N829 C832 1.314 . S
N829 C833 1.279 . S
C830 C828 1.348 . S
C830 C832 1.353 . S
C830 H888 0.929 . S
C831 C828 1.356 . S
C831 C833 1.358 . S
C831 H889 0.930 . S
C832 N829 1.314 . S
C832 C830 1.353 . S
C832 H890 0.930 . S
C833 N829 1.279 . S
C833 C831 1.358 . S
C833 H891 0.930 . S
C834 C837 1.348 1_545 S
C834 C838 1.356 . S
C834 O885 1.325 . S
C835 N836 1.279 . S
C835 C838 1.358 . S
C835 H892 0.930 . S
N836 C835 1.279 . S
N836 C839 1.314 . S
C837 C834 1.348 1_565 S
C837 C839 1.353 1_565 S
C837 H893 0.929 . S
C838 C834 1.356 . S
C838 C835 1.358 . S
C838 H894 0.930 . S
C839 N836 1.314 . S
C839 C837 1.353 1_545 S
C839 H895 0.930 1_545 S
C840 N841 1.314 . S
C840 C845 1.353 . S
C840 H846 0.930 . S
N841 Li824 1.990 . S
N841 C840 1.314 . S
N841 C843 1.279 . S
C842 C843 1.358 . S
C842 C844 1.356 . S
C842 H896 0.930 . S
C843 N841 1.279 . S
C843 C842 1.358 . S
C843 H847 0.930 . S
C844 C842 1.356 . S
C844 C845 1.348 . S
C845 C840 1.353 . S
C845 C844 1.348 . S
C845 H897 0.929 . S
H846 C840 0.930 . S
H847 C843 0.930 . S
C848 N849 1.314 . S
C848 C850 1.353 . S
C848 H854 0.930 . S
N849 Li825 1.990 . S
N849 C848 1.314 . S
N849 C852 1.279 . S
C850 C848 1.353 . S
C850 C853 1.348 . S
C850 H898 0.929 . S
C851 C852 1.358 . S
C851 C853 1.356 . S
C851 H899 0.930 . S
C852 N849 1.279 . S
C852 C851 1.358 . S
C852 H855 0.930 . S
C853 C850 1.348 . S
C853 C851 1.356 . S
H854 C848 0.930 . S
H855 C852 0.930 . S
C856 C858 1.348 1_565 S
C856 C859 1.356 . S
C856 O886 1.325 . S
N857 C860 1.314 1_565 S
N857 C861 1.279 . S
C858 C856 1.348 1_545 S
C858 C860 1.353 . S
C858 H900 0.929 . S
C859 C856 1.356 . S
C859 C861 1.358 . S
C859 H901 0.930 . S
C860 N857 1.314 1_545 S
C860 C858 1.353 . S
C860 H902 0.930 . S
C861 N857 1.279 . S
C861 C859 1.358 . S
C861 H903 0.930 . S
C862 C863 1.348 . S
C862 C864 1.356 . S
C862 O887 1.325 . S
C863 C862 1.348 . S
C863 C865 1.353 . S
C863 H904 0.929 . S
C864 C862 1.356 . S
C864 C866 1.358 . S
C864 H905 0.930 . S
C865 C863 1.353 . S
C865 N867 1.314 . S
C865 H906 0.930 . S
C866 C864 1.358 . S
C866 N867 1.279 . S
C866 H907 0.930 . S
N867 C865 1.314 . S
N867 C866 1.279 . S
C868 C870 1.353 . S
C868 N871 1.314 . S
C868 H874 0.930 . S
C869 N871 1.279 . S
C869 C872 1.358 . S
C869 H875 0.930 . S
C870 C868 1.353 . S
C870 C873 1.348 . S
C870 H908 0.929 . S
N871 Li826 1.990 . S
N871 C868 1.314 . S
N871 C869 1.279 . S
C872 C869 1.358 . S
C872 C873 1.356 . S
C872 H909 0.930 . S
C873 C870 1.348 . S
C873 C872 1.356 . S
H874 C868 0.930 . S
H875 C869 0.930 . S
C876 N877 1.314 . S
C876 C878 1.353 . S
C876 H882 0.930 . S
N877 Li827 1.990 . S
N877 C876 1.314 . S
N877 C880 1.279 . S
C878 C876 1.353 . S
C878 C881 1.348 . S
C878 H910 0.929 . S
C879 C880 1.358 . S
C879 C881 1.356 . S
C879 H911 0.930 . S
C880 N877 1.279 . S
C880 C879 1.358 . S
C880 H883 0.930 . S
C881 C878 1.348 . S
C881 C879 1.356 . S
H882 C876 0.930 . S
H883 C880 0.930 . S
O884 Li824 1.956 . S
O884 Li825 1.970 1_565 S
O884 Li826 1.961 . S
O884 C828 1.325 . S
O885 Li824 1.970 1_545 S
O885 Li825 1.956 . S
O885 Li827 1.961 . S
O885 C834 1.325 . S
O886 Li824 1.961 . S
O886 Li826 1.956 . S
O886 Li827 1.970 1_565 S
O886 C856 1.325 . S
O887 Li825 1.961 . S
O887 Li826 1.970 1_545 S
O887 Li827 1.956 . S
O887 C862 1.325 . S
H888 C830 0.929 . S
H889 C831 0.930 . S
H890 C832 0.930 . S
H891 C833 0.930 . S
H892 C835 0.930 . S
H893 C837 0.929 . S
H894 C838 0.930 . S
H895 C839 0.930 1_565 S
H896 C842 0.930 . S
H897 C845 0.929 . S
H898 C850 0.929 . S
H899 C851 0.930 . S
H900 C858 0.929 . S
H901 C859 0.930 . S
H902 C860 0.930 . S
H903 C861 0.930 . S
H904 C863 0.929 . S
H905 C864 0.930 . S
H906 C865 0.930 . S
H907 C866 0.930 . S
H908 C870 0.929 . S
H909 C872 0.930 . S
H910 C878 0.929 . S
H911 C879 0.930 . S
Li912 N929 1.990 . S
Li912 O972 1.956 . S
Li912 O973 1.962 1_455 S
Li912 O974 2.001 . S
Li913 N937 2.000 . S
Li913 O972 1.933 1_655 S
Li913 O973 1.955 . S
Li913 O975 1.987 . S
Li914 N959 1.990 . S
Li914 O972 1.961 . S
Li914 O974 1.956 . S
Li914 O975 1.970 1_455 S
Li915 N965 1.990 . S
Li915 O973 1.967 . S
Li915 O974 1.916 1_655 S
Li915 O975 1.956 . S
C916 C918 1.348 . S
C916 C919 1.356 . S
C916 O972 1.325 . S
N917 C920 1.314 . S
N917 C921 1.279 . S
C918 C916 1.348 . S
C918 C920 1.353 . S
C918 H976 0.929 . S
C919 C916 1.356 . S
C919 C921 1.358 . S
C919 H977 0.930 . S
C920 N917 1.314 . S
C920 C918 1.353 . S
C920 H978 0.930 . S
C921 N917 1.279 . S
C921 C919 1.358 . S
C921 H979 0.930 . S
C922 C925 1.348 1_655 S
C922 C926 1.356 . S
C922 O973 1.326 . S
C923 N924 1.279 . S
C923 C926 1.358 . S
C923 H980 0.930 . S
N924 C923 1.279 . S
N924 C927 1.314 1_655 S
C925 C922 1.348 1_455 S
C925 C927 1.353 . S
C925 H981 0.929 . S
C926 C922 1.356 . S
C926 C923 1.358 . S
C926 H982 0.930 . S
C927 N924 1.314 1_455 S
C927 C925 1.353 . S
C927 H983 0.930 . S
C928 N929 1.314 . S
C928 C933 1.353 . S
C928 H934 0.930 . S
N929 Li912 1.990 . S
N929 C928 1.314 . S
N929 C931 1.279 . S
C930 C931 1.358 . S
C930 C932 1.356 . S
C930 H984 0.930 . S
C931 N929 1.279 . S
C931 C930 1.358 . S
C931 H935 0.930 . S
C932 C930 1.356 . S
C932 C933 1.348 . S
C933 C928 1.353 . S
C933 C932 1.348 . S
C933 H985 0.929 . S
H934 C928 0.930 . S
H935 C931 0.930 . S
C936 N937 1.314 . S
C936 C938 1.353 . S
C936 H942 0.930 . S
N937 Li913 2.000 . S
N937 C936 1.314 . S
N937 C940 1.277 1_655 S
C938 C936 1.353 . S
C938 C941 1.348 . S
C938 H986 0.929 . S
C939 C940 1.357 . S
C939 C941 1.351 1_455 S
C939 H987 0.931 . S
C940 N937 1.277 1_455 S
C940 C939 1.357 . S
C940 H943 0.940 . S
C941 C938 1.348 . S
C941 C939 1.351 1_655 S
H942 C936 0.930 . S
H943 C940 0.940 . S
C944 C946 1.348 1_455 S
C944 C947 1.356 . S
C944 O974 1.338 . S
N945 C948 1.314 1_455 S
N945 C949 1.279 . S
C946 C944 1.348 1_655 S
C946 C948 1.353 . S
C946 H988 0.929 . S
C947 C944 1.356 . S
C947 C949 1.358 . S
C947 H989 0.930 . S
C948 N945 1.314 1_655 S
C948 C946 1.353 . S
C948 H990 0.930 . S
C949 N945 1.279 . S
C949 C947 1.358 . S
C949 H991 0.930 . S
C950 C951 1.348 . S
C950 C952 1.356 . S
C950 O975 1.325 . S
C951 C950 1.348 . S
C951 C953 1.353 . S
C951 H992 0.929 . S
C952 C950 1.356 . S
C952 C954 1.358 . S
C952 H993 0.930 . S
C953 C951 1.353 . S
C953 N955 1.314 . S
C953 H994 0.930 . S
C954 C952 1.358 . S
C954 N955 1.279 . S
C954 H995 0.930 . S
N955 C953 1.314 . S
N955 C954 1.279 . S
C956 C958 1.353 . S
C956 N959 1.314 . S
C956 H962 0.930 . S
C957 N959 1.280 . S
C957 C960 1.357 . S
C957 H963 0.929 1_455 S
C958 C956 1.353 . S
C958 C961 1.348 . S
C958 H996 0.929 . S
N959 Li914 1.990 . S
N959 C956 1.314 . S
N959 C957 1.280 . S
C960 C957 1.357 . S
C960 C961 1.359 . S
C960 H997 0.929 1_455 S
C961 C958 1.348 . S
C961 C960 1.359 . S
H962 C956 0.930 . S
H963 C957 0.929 1_655 S
C964 N965 1.314 . S
C964 C966 1.353 . S
C964 H970 0.930 . S
N965 Li915 1.990 . S
N965 C964 1.314 . S
N965 C968 1.279 . S
C966 C964 1.353 . S
C966 C969 1.348 . S
C966 H998 0.929 . S
C967 C968 1.358 . S
C967 C969 1.356 . S
C967 H999 0.930 . S
C968 N965 1.279 . S
C968 C967 1.358 . S
C968 H971 0.930 . S
C969 C966 1.348 . S
C969 C967 1.356 . S
H970 C964 0.930 . S
H971 C968 0.930 . S
O972 Li912 1.956 . S
O972 Li913 1.933 1_455 S
O972 Li914 1.961 . S
O972 C916 1.325 . S
O973 Li912 1.962 1_655 S
O973 Li913 1.955 . S
O973 Li915 1.967 . S
O973 C922 1.326 . S
O974 Li912 2.001 . S
O974 Li914 1.956 . S
O974 Li915 1.916 1_455 S
O974 C944 1.338 . S
O975 Li913 1.987 . S
O975 Li914 1.970 1_655 S
O975 Li915 1.956 . S
O975 C950 1.325 . S
H976 C918 0.929 . S
H977 C919 0.930 . S
H978 C920 0.930 . S
H979 C921 0.930 . S
H980 C923 0.930 . S
H981 C925 0.929 . S
H982 C926 0.930 . S
H983 C927 0.930 . S
H984 C930 0.930 . S
H985 C933 0.929 . S
H986 C938 0.929 . S
H987 C939 0.931 . S
H988 C946 0.929 . S
H989 C947 0.930 . S
H990 C948 0.930 . S
H991 C949 0.930 . S
H992 C951 0.929 . S
H993 C952 0.930 . S
H994 C953 0.930 . S
H995 C954 0.930 . S
H996 C958 0.929 . S
H997 C960 0.929 1_655 S
H998 C966 0.929 . S
H999 C967 0.930 . S
Li1000 N1017 1.990 . S
Li1000 O1060 1.956 . S
Li1000 O1061 1.970 . S
Li1000 O1062 1.961 . S
Li1001 N1025 1.990 . S
Li1001 O1060 1.970 . S
Li1001 O1061 1.956 . S
Li1001 O1063 1.961 . S
Li1002 N1047 1.990 . S
Li1002 O1060 1.961 . S
Li1002 O1062 1.956 . S
Li1002 O1063 1.970 . S
Li1003 N1053 1.990 . S
Li1003 O1061 1.961 . S
Li1003 O1062 1.970 . S
Li1003 O1063 1.956 . S
C1004 C1006 1.348 . S
C1004 C1007 1.356 . S
C1004 O1060 1.325 . S
N1005 C1008 1.314 . S
N1005 C1009 1.279 . S
C1006 C1004 1.348 . S
C1006 C1008 1.353 . S
C1006 H1064 0.929 . S
C1007 C1004 1.356 . S
C1007 C1009 1.358 . S
C1007 H1065 0.930 . S
C1008 N1005 1.314 . S
C1008 C1006 1.353 . S
C1008 H1066 0.930 . S
C1009 N1005 1.279 . S
C1009 C1007 1.358 . S
C1009 H1067 0.930 . S
C1010 C1013 1.348 . S
C1010 C1014 1.356 . S
C1010 O1061 1.325 . S
C1011 N1012 1.279 . S
C1011 C1014 1.358 . S
C1011 H1068 0.930 . S
N1012 C1011 1.279 . S
N1012 C1015 1.314 . S
C1013 C1010 1.348 . S
C1013 C1015 1.353 . S
C1013 H1069 0.929 . S
C1014 C1010 1.356 . S
C1014 C1011 1.358 . S
C1014 H1070 0.930 . S
C1015 N1012 1.314 . S
C1015 C1013 1.353 . S
C1015 H1071 0.930 . S
C1016 N1017 1.314 . S
C1016 C1021 1.353 . S
C1016 H1022 0.930 . S
N1017 Li1000 1.990 . S
N1017 C1016 1.314 . S
N1017 C1019 1.279 . S
C1018 C1019 1.358 . S
C1018 C1020 1.356 . S
C1018 H1072 0.930 . S
C1019 N1017 1.279 . S
C1019 C1018 1.358 . S
C1019 H1023 0.930 . S
C1020 C1018 1.356 . S
C1020 C1021 1.348 . S
C1021 C1016 1.353 . S
C1021 C1020 1.348 . S
C1021 H1073 0.929 . S
H1022 C1016 0.930 . S
H1023 C1019 0.930 . S
C1024 N1025 1.314 . S
C1024 C1026 1.353 . S
C1024 H1030 0.930 . S
N1025 Li1001 1.990 . S
N1025 C1024 1.314 . S
N1025 C1028 1.279 . S
C1026 C1024 1.353 . S
C1026 C1029 1.348 . S
C1026 H1074 0.929 . S
C1027 C1028 1.358 . S
C1027 C1029 1.356 . S
C1027 H1075 0.930 . S
C1028 N1025 1.279 . S
C1028 C1027 1.358 . S
C1028 H1031 0.930 . S
C1029 C1026 1.348 . S
C1029 C1027 1.356 . S
H1030 C1024 0.930 . S
H1031 C1028 0.930 . S
C1032 C1034 1.348 . S
C1032 C1035 1.356 . S
C1032 O1062 1.325 . S
N1033 C1036 1.314 . S
N1033 C1037 1.279 . S
C1034 C1032 1.348 . S
C1034 C1036 1.353 . S
C1034 H1076 0.929 . S
C1035 C1032 1.356 . S
C1035 C1037 1.358 . S
C1035 H1077 0.930 . S
C1036 N1033 1.314 . S
C1036 C1034 1.353 . S
C1036 H1078 0.930 . S
C1037 N1033 1.279 . S
C1037 C1035 1.358 . S
C1037 H1079 0.930 . S
C1038 C1039 1.348 . S
C1038 C1040 1.356 . S
C1038 O1063 1.325 . S
C1039 C1038 1.348 . S
C1039 C1041 1.353 . S
C1039 H1080 0.929 . S
C1040 C1038 1.356 . S
C1040 C1042 1.358 . S
C1040 H1081 0.930 . S
C1041 C1039 1.353 . S
C1041 N1043 1.314 . S
C1041 H1082 0.930 . S
C1042 C1040 1.358 . S
C1042 N1043 1.279 . S
C1042 H1083 0.930 . S
N1043 C1041 1.314 . S
N1043 C1042 1.279 . S
C1044 C1046 1.353 . S
C1044 N1047 1.314 . S
C1044 H1050 0.930 . S
C1045 N1047 1.279 . S
C1045 C1048 1.358 . S
C1045 H1051 0.930 . S
C1046 C1044 1.353 . S
C1046 C1049 1.348 . S
C1046 H1084 0.929 . S
N1047 Li1002 1.990 . S
N1047 C1044 1.314 . S
N1047 C1045 1.279 . S
C1048 C1045 1.358 . S
C1048 C1049 1.356 . S
C1048 H1085 0.930 . S
C1049 C1046 1.348 . S
C1049 C1048 1.356 . S
H1050 C1044 0.930 . S
H1051 C1045 0.930 . S
C1052 N1053 1.314 . S
C1052 C1054 1.353 . S
C1052 H1058 0.930 . S
N1053 Li1003 1.990 . S
N1053 C1052 1.314 . S
N1053 C1056 1.279 . S
C1054 C1052 1.353 . S
C1054 C1057 1.348 . S
C1054 H1086 0.929 . S
C1055 C1056 1.358 . S
C1055 C1057 1.356 . S
C1055 H1087 0.930 . S
C1056 N1053 1.279 . S
C1056 C1055 1.358 . S
C1056 H1059 0.930 . S
C1057 C1054 1.348 . S
C1057 C1055 1.356 . S
H1058 C1052 0.930 . S
H1059 C1056 0.930 . S
O1060 Li1000 1.956 . S
O1060 Li1001 1.970 . S
O1060 Li1002 1.961 . S
O1060 C1004 1.325 . S
O1061 Li1000 1.970 . S
O1061 Li1001 1.956 . S
O1061 Li1003 1.961 . S
O1061 C1010 1.325 . S
O1062 Li1000 1.961 . S
O1062 Li1002 1.956 . S
O1062 Li1003 1.970 . S
O1062 C1032 1.325 . S
O1063 Li1001 1.961 . S
O1063 Li1002 1.970 . S
O1063 Li1003 1.956 . S
O1063 C1038 1.325 . S
H1064 C1006 0.929 . S
H1065 C1007 0.930 . S
H1066 C1008 0.930 . S
H1067 C1009 0.930 . S
H1068 C1011 0.930 . S
H1069 C1013 0.929 . S
H1070 C1014 0.930 . S
H1071 C1015 0.930 . S
H1072 C1018 0.930 . S
H1073 C1021 0.929 . S
H1074 C1026 0.929 . S
H1075 C1027 0.930 . S
H1076 C1034 0.929 . S
H1077 C1035 0.930 . S
H1078 C1036 0.930 . S
H1079 C1037 0.930 . S
H1080 C1039 0.929 . S
H1081 C1040 0.930 . S
H1082 C1041 0.930 . S
H1083 C1042 0.930 . S
H1084 C1046 0.929 . S
H1085 C1048 0.930 . S
H1086 C1054 0.929 . S
H1087 C1055 0.930 . S
Li1088 N1105 1.990 . S
Li1088 O1148 1.956 . S
Li1088 O1149 2.010 . S
Li1088 O1150 1.961 . S
Li1089 N1113 1.990 1_455 S
Li1089 O1148 1.970 . S
Li1089 O1149 1.960 . S
Li1089 O1151 1.961 . S
Li1090 N1135 1.990 . S
Li1090 O1148 1.961 . S
Li1090 O1150 1.956 . S
Li1090 O1151 1.970 . S
Li1091 N1141 1.990 . S
Li1091 O1149 1.995 . S
Li1091 O1150 1.970 . S
Li1091 O1151 1.956 . S
C1092 C1094 1.348 . S
C1092 C1095 1.356 . S
C1092 O1148 1.325 . S
N1093 C1096 1.314 . S
N1093 C1097 1.279 . S
C1094 C1092 1.348 . S
C1094 C1096 1.353 . S
C1094 H1152 0.929 . S
C1095 C1092 1.356 . S
C1095 C1097 1.358 . S
C1095 H1153 0.930 . S
C1096 N1093 1.314 . S
C1096 C1094 1.353 . S
C1096 H1154 0.930 . S
C1097 N1093 1.279 . S
C1097 C1095 1.358 . S
C1097 H1155 0.930 . S
C1098 C1101 1.348 . S
C1098 C1102 1.356 . S
C1098 O1149 1.281 1_655 S
C1099 N1100 1.279 . S
C1099 C1102 1.358 . S
C1099 H1156 0.930 . S
N1100 C1099 1.279 . S
N1100 C1103 1.314 . S
C1101 C1098 1.348 . S
C1101 C1103 1.353 . S
C1101 H1157 0.929 . S
C1102 C1098 1.356 . S
C1102 C1099 1.358 . S
C1102 H1158 0.930 . S
C1103 N1100 1.314 . S
C1103 C1101 1.353 . S
C1103 H1159 0.930 . S
C1104 N1105 1.314 . S
C1104 C1109 1.353 . S
C1104 H1110 0.930 . S
N1105 Li1088 1.990 . S
N1105 C1104 1.314 . S
N1105 C1107 1.279 . S
C1106 C1107 1.358 . S
C1106 C1108 1.356 . S
C1106 H1160 0.930 . S
C1107 N1105 1.279 . S
C1107 C1106 1.358 . S
C1107 H1111 0.930 . S
C1108 C1106 1.356 . S
C1108 C1109 1.348 . S
C1109 C1104 1.353 . S
C1109 C1108 1.348 . S
C1109 H1161 0.929 . S
H1110 C1104 0.930 . S
H1111 C1107 0.930 . S
C1112 N1113 1.314 . S
C1112 C1114 1.353 . S
C1112 H1118 0.930 . S
N1113 Li1089 1.990 1_655 S
N1113 C1112 1.314 . S
N1113 C1116 1.279 . S
C1114 C1112 1.353 . S
C1114 C1117 1.348 . S
C1114 H1162 0.929 . S
C1115 C1116 1.358 . S
C1115 C1117 1.356 . S
C1115 H1163 0.930 . S
C1116 N1113 1.279 . S
C1116 C1115 1.358 . S
C1116 H1119 0.930 . S
C1117 C1114 1.348 . S
C1117 C1115 1.356 . S
H1118 C1112 0.930 . S
H1119 C1116 0.930 . S
C1120 C1122 1.348 . S
C1120 C1123 1.356 . S
C1120 O1150 1.325 . S
N1121 C1124 1.314 . S
N1121 C1125 1.279 . S
C1122 C1120 1.348 . S
C1122 C1124 1.353 . S
C1122 H1164 0.929 . S
C1123 C1120 1.356 . S
C1123 C1125 1.358 . S
C1123 H1165 0.930 . S
C1124 N1121 1.314 . S
C1124 C1122 1.353 . S
C1124 H1166 0.930 . S
C1125 N1121 1.279 . S
C1125 C1123 1.358 . S
C1125 H1167 0.930 . S
C1126 C1127 1.348 . S
C1126 C1128 1.351 . S
C1126 O1151 1.325 . S
C1127 C1126 1.348 . S
C1127 C1129 1.353 . S
C1127 H1168 0.929 . S
C1128 C1126 1.351 . S
C1128 C1130 1.359 1_455 S
C1128 H1169 0.934 1_455 S
C1129 C1127 1.353 . S
C1129 N1131 1.314 . S
C1129 H1170 0.930 . S
C1130 C1128 1.359 1_655 S
C1130 N1131 1.279 1_655 S
C1130 H1171 0.930 . S
N1131 C1129 1.314 . S
N1131 C1130 1.279 1_455 S
C1132 C1134 1.353 . S
C1132 N1135 1.314 . S
C1132 H1138 0.930 . S
C1133 N1135 1.279 . S
C1133 C1136 1.358 . S
C1133 H1139 0.930 . S
C1134 C1132 1.353 . S
C1134 C1137 1.348 . S
C1134 H1172 0.929 . S
N1135 Li1090 1.990 . S
N1135 C1132 1.314 . S
N1135 C1133 1.279 . S
C1136 C1133 1.358 . S
C1136 C1137 1.356 . S
C1136 H1173 0.930 . S
C1137 C1134 1.348 . S
C1137 C1136 1.356 . S
H1138 C1132 0.930 . S
H1139 C1133 0.930 . S
C1140 N1141 1.314 . S
C1140 C1142 1.356 . S
C1140 H1146 0.930 . S
N1141 Li1091 1.990 . S
N1141 C1140 1.314 . S
N1141 C1144 1.279 . S
C1142 C1140 1.356 . S
C1142 C1145 1.356 . S
C1142 H1174 0.920 1_455 S
C1143 C1144 1.358 . S
C1143 C1145 1.356 . S
C1143 H1175 0.930 . S
C1144 N1141 1.279 . S
C1144 C1143 1.358 . S
C1144 H1147 0.930 . S
C1145 C1142 1.356 . S
C1145 C1143 1.356 . S
H1146 C1140 0.930 . S
H1147 C1144 0.930 . S
O1148 Li1088 1.956 . S
O1148 Li1089 1.970 . S
O1148 Li1090 1.961 . S
O1148 C1092 1.325 . S
O1149 Li1088 2.010 . S
O1149 Li1089 1.960 . S
O1149 Li1091 1.995 . S
O1149 C1098 1.281 1_455 S
O1150 Li1088 1.961 . S
O1150 Li1090 1.956 . S
O1150 Li1091 1.970 . S
O1150 C1120 1.325 . S
O1151 Li1089 1.961 . S
O1151 Li1090 1.970 . S
O1151 Li1091 1.956 . S
O1151 C1126 1.325 . S
H1152 C1094 0.929 . S
H1153 C1095 0.930 . S
H1154 C1096 0.930 . S
H1155 C1097 0.930 . S
H1156 C1099 0.930 . S
H1157 C1101 0.929 . S
H1158 C1102 0.930 . S
H1159 C1103 0.930 . S
H1160 C1106 0.930 . S
H1161 C1109 0.929 . S
H1162 C1114 0.929 . S
H1163 C1115 0.930 . S
H1164 C1122 0.929 . S
H1165 C1123 0.930 . S
H1166 C1124 0.930 . S
H1167 C1125 0.930 . S
H1168 C1127 0.929 . S
H1169 C1128 0.934 1_655 S
H1170 C1129 0.930 . S
H1171 C1130 0.930 . S
H1172 C1134 0.929 . S
H1173 C1136 0.930 . S
H1174 C1142 0.920 1_655 S
H1175 C1143 0.930 . S
Li1176 N1193 1.990 . S
Li1176 O1236 1.956 . S
Li1176 O1237 1.970 . S
Li1176 O1238 1.961 . S
Li1177 N1201 1.990 . S
Li1177 O1236 1.970 . S
Li1177 O1237 1.956 . S
Li1177 O1239 1.961 . S
Li1178 N1223 1.990 . S
Li1178 O1236 1.961 . S
Li1178 O1238 1.956 . S
Li1178 O1239 1.970 . S
Li1179 N1229 1.990 . S
Li1179 O1237 1.961 . S
Li1179 O1238 1.970 . S
Li1179 O1239 1.956 . S
C1180 C1182 1.348 . S
C1180 C1183 1.356 . S
C1180 O1236 1.325 . S
N1181 C1184 1.314 . S
N1181 C1185 1.279 . S
C1182 C1180 1.348 . S
C1182 C1184 1.353 . S
C1182 H1240 0.929 . S
C1183 C1180 1.356 . S
C1183 C1185 1.358 . S
C1183 H1241 0.930 . S
C1184 N1181 1.314 . S
C1184 C1182 1.353 . S
C1184 H1242 0.930 . S
C1185 N1181 1.279 . S
C1185 C1183 1.358 . S
C1185 H1243 0.930 . S
C1186 C1189 1.348 . S
C1186 C1190 1.356 . S
C1186 O1237 1.325 . S
C1187 N1188 1.279 . S
C1187 C1190 1.358 . S
C1187 H1244 0.930 . S
N1188 C1187 1.279 . S
N1188 C1191 1.314 . S
C1189 C1186 1.348 . S
C1189 C1191 1.353 . S
C1189 H1245 0.929 . S
C1190 C1186 1.356 . S
C1190 C1187 1.358 . S
C1190 H1246 0.930 . S
C1191 N1188 1.314 . S
C1191 C1189 1.353 . S
C1191 H1247 0.930 . S
C1192 N1193 1.314 . S
C1192 C1197 1.353 . S
C1192 H1198 0.930 . S
N1193 Li1176 1.990 . S
N1193 C1192 1.314 . S
N1193 C1195 1.279 . S
C1194 C1195 1.358 . S
C1194 C1196 1.356 . S
C1194 H1248 0.930 . S
C1195 N1193 1.279 . S
C1195 C1194 1.358 . S
C1195 H1199 0.930 . S
C1196 C1194 1.356 . S
C1196 C1197 1.348 . S
C1197 C1192 1.353 . S
C1197 C1196 1.348 . S
C1197 H1249 0.929 . S
H1198 C1192 0.930 . S
H1199 C1195 0.930 . S
C1200 N1201 1.314 . S
C1200 C1202 1.353 . S
C1200 H1206 0.930 . S
N1201 Li1177 1.990 . S
N1201 C1200 1.314 . S
N1201 C1204 1.279 . S
C1202 C1200 1.353 . S
C1202 C1205 1.348 . S
C1202 H1250 0.929 . S
C1203 C1204 1.358 . S
C1203 C1205 1.356 . S
C1203 H1251 0.930 . S
C1204 N1201 1.279 . S
C1204 C1203 1.358 . S
C1204 H1207 0.930 . S
C1205 C1202 1.348 . S
C1205 C1203 1.356 . S
H1206 C1200 0.930 . S
H1207 C1204 0.930 . S
C1208 C1210 1.348 . S
C1208 C1211 1.356 . S
C1208 O1238 1.325 . S
N1209 C1212 1.314 . S
N1209 C1213 1.279 . S
C1210 C1208 1.348 . S
C1210 C1212 1.353 . S
C1210 H1252 0.929 . S
C1211 C1208 1.356 . S
C1211 C1213 1.358 . S
C1211 H1253 0.930 . S
C1212 N1209 1.314 . S
C1212 C1210 1.353 . S
C1212 H1254 0.930 . S
C1213 N1209 1.279 . S
C1213 C1211 1.358 . S
C1213 H1255 0.930 . S
C1214 C1215 1.348 . S
C1214 C1216 1.356 . S
C1214 O1239 1.325 . S
C1215 C1214 1.348 . S
C1215 C1217 1.353 . S
C1215 H1256 0.929 . S
C1216 C1214 1.356 . S
C1216 C1218 1.358 . S
C1216 H1257 0.930 . S
C1217 C1215 1.353 . S
C1217 N1219 1.314 . S
C1217 H1258 0.930 . S
C1218 C1216 1.358 . S
C1218 N1219 1.279 . S
C1218 H1259 0.930 . S
N1219 C1217 1.314 . S
N1219 C1218 1.279 . S
C1220 C1222 1.353 . S
C1220 N1223 1.314 . S
C1220 H1226 0.930 . S
C1221 N1223 1.279 . S
C1221 C1224 1.358 . S
C1221 H1227 0.930 . S
C1222 C1220 1.353 . S
C1222 C1225 1.348 . S
C1222 H1260 0.929 . S
N1223 Li1178 1.990 . S
N1223 C1220 1.314 . S
N1223 C1221 1.279 . S
C1224 C1221 1.358 . S
C1224 C1225 1.356 . S
C1224 H1261 0.930 . S
C1225 C1222 1.348 . S
C1225 C1224 1.356 . S
H1226 C1220 0.930 . S
H1227 C1221 0.930 . S
C1228 N1229 1.314 . S
C1228 C1230 1.353 . S
C1228 H1234 0.930 . S
N1229 Li1179 1.990 . S
N1229 C1228 1.314 . S
N1229 C1232 1.279 . S
C1230 C1228 1.353 . S
C1230 C1233 1.348 . S
C1230 H1262 0.929 . S
C1231 C1232 1.358 . S
C1231 C1233 1.356 . S
C1231 H1263 0.930 . S
C1232 N1229 1.279 . S
C1232 C1231 1.358 . S
C1232 H1235 0.930 . S
C1233 C1230 1.348 . S
C1233 C1231 1.356 . S
H1234 C1228 0.930 . S
H1235 C1232 0.930 . S
O1236 Li1176 1.956 . S
O1236 Li1177 1.970 . S
O1236 Li1178 1.961 . S
O1236 C1180 1.325 . S
O1237 Li1176 1.970 . S
O1237 Li1177 1.956 . S
O1237 Li1179 1.961 . S
O1237 C1186 1.325 . S
O1238 Li1176 1.961 . S
O1238 Li1178 1.956 . S
O1238 Li1179 1.970 . S
O1238 C1208 1.325 . S
O1239 Li1177 1.961 . S
O1239 Li1178 1.970 . S
O1239 Li1179 1.956 . S
O1239 C1214 1.325 . S
H1240 C1182 0.929 . S
H1241 C1183 0.930 . S
H1242 C1184 0.930 . S
H1243 C1185 0.930 . S
H1244 C1187 0.930 . S
H1245 C1189 0.929 . S
H1246 C1190 0.930 . S
H1247 C1191 0.930 . S
H1248 C1194 0.930 . S
H1249 C1197 0.929 . S
H1250 C1202 0.929 . S
H1251 C1203 0.930 . S
H1252 C1210 0.929 . S
H1253 C1211 0.930 . S
H1254 C1212 0.930 . S
H1255 C1213 0.930 . S
H1256 C1215 0.929 . S
H1257 C1216 0.930 . S
H1258 C1217 0.930 . S
H1259 C1218 0.930 . S
H1260 C1222 0.929 . S
H1261 C1224 0.930 . S
H1262 C1230 0.929 . S
H1263 C1231 0.930 . S
H1264 C1272 0.929 . S
H1265 C1274 0.930 . S
H1266 C1276 0.930 . S
H1267 C1279 0.929 . S
H1268 C1282 0.930 . S
H1269 C1284 0.960 . S
H1270 C1284 0.960 . S
H1271 C1284 0.960 . S
C1272 H1264 0.929 . S
C1272 C1273 1.377 . S
C1272 C1274 1.384 . S
C1273 C1272 1.377 . S
C1273 C1279 1.390 . S
C1274 H1265 0.930 . S
C1274 C1272 1.384 . S
C1274 C1275 1.372 . S
C1275 C1274 1.372 . S
C1275 C1276 1.400 . S
C1275 C1280 1.490 . S
C1276 H1266 0.930 . S
C1276 C1275 1.400 . S
C1276 C1279 1.386 . S
H1277 C1293 0.930 . S
H1278 C1294 0.931 . S
C1279 H1267 0.929 . S
C1279 C1273 1.390 . S
C1279 C1276 1.386 . S
C1280 C1275 1.490 . S
C1280 C1282 1.395 . S
C1280 C1283 1.403 . S
H1281 C1287 0.930 . S
C1282 H1268 0.930 . S
C1282 C1280 1.395 . S
C1282 C1285 1.403 . S
C1283 C1280 1.403 . S
C1283 C1284 1.524 . S
C1283 C1287 1.400 . S
C1284 H1269 0.960 . S
C1284 H1270 0.960 . S
C1284 H1271 0.960 . S
C1284 C1283 1.524 . S
C1285 C1282 1.403 . S
C1285 C1286 1.392 . S
C1285 C1289 1.495 . S
C1286 C1285 1.392 . S
C1286 C1287 1.385 . S
C1286 C1288 1.478 . S
C1287 H1281 0.930 . S
C1287 C1283 1.400 . S
C1287 C1286 1.385 . S
C1288 C1286 1.478 . S
C1288 C1290 1.381 . S
C1288 C1294 1.383 . S
C1289 C1285 1.495 . S
C1289 H1295 0.959 . S
C1289 H1296 0.961 . S
C1289 H1297 0.960 . S
C1290 C1288 1.381 . S
C1290 C1291 1.394 . S
C1290 H1298 0.930 . S
C1291 C1290 1.394 . S
C1291 C1292 1.383 . S
C1291 H1299 0.929 . S
C1292 C1291 1.383 . S
C1292 C1293 1.377 . S
C1293 H1277 0.930 . S
C1293 C1292 1.377 . S
C1293 C1294 1.379 . S
C1294 H1278 0.931 . S
C1294 C1288 1.383 . S
C1294 C1293 1.379 . S
H1295 C1289 0.959 . S
H1296 C1289 0.961 . S
H1297 C1289 0.960 . S
H1298 C1290 0.930 . S
H1299 C1291 0.929 . S
H1300 C1308 0.929 . S
H1301 C1310 0.930 . S
H1302 C1312 0.930 . S
H1303 C1315 0.929 . S
H1304 C1318 0.930 . S
H1305 C1320 0.960 . S
H1306 C1320 0.960 . S
H1307 C1320 0.960 . S
C1308 H1300 0.929 . S
C1308 C1309 1.377 . S
C1308 C1310 1.384 . S
C1309 C1308 1.377 . S
C1309 C1315 1.390 . S
C1310 H1301 0.930 . S
C1310 C1308 1.384 . S
C1310 C1311 1.372 . S
C1311 C1310 1.372 . S
C1311 C1312 1.400 . S
C1311 C1316 1.490 . S
C1312 H1302 0.930 . S
C1312 C1311 1.400 . S
C1312 C1315 1.386 . S
H1313 C1329 0.930 . S
H1314 C1330 0.931 . S
C1315 H1303 0.929 . S
C1315 C1309 1.390 . S
C1315 C1312 1.386 . S
C1316 C1311 1.490 . S
C1316 C1318 1.395 . S
C1316 C1319 1.403 . S
H1317 C1323 0.930 . S
C1318 H1304 0.930 . S
C1318 C1316 1.395 . S
C1318 C1321 1.403 . S
C1319 C1316 1.403 . S
C1319 C1320 1.524 . S
C1319 C1323 1.400 . S
C1320 H1305 0.960 . S
C1320 H1306 0.960 . S
C1320 H1307 0.960 . S
C1320 C1319 1.524 . S
C1321 C1318 1.403 . S
C1321 C1322 1.392 . S
C1321 C1325 1.495 . S
C1322 C1321 1.392 . S
C1322 C1323 1.385 . S
C1322 C1324 1.478 . S
C1323 H1317 0.930 . S
C1323 C1319 1.400 . S
C1323 C1322 1.385 . S
C1324 C1322 1.478 . S
C1324 C1326 1.381 . S
C1324 C1330 1.383 . S
C1325 C1321 1.495 . S
C1325 H1331 0.959 . S
C1325 H1332 0.961 . S
C1325 H1333 0.960 . S
C1326 C1324 1.381 . S
C1326 C1327 1.394 . S
C1326 H1334 0.930 . S
C1327 C1326 1.394 . S
C1327 C1328 1.383 . S
C1327 H1335 0.929 . S
C1328 C1327 1.383 . S
C1328 C1329 1.377 . S
C1329 H1313 0.930 . S
C1329 C1328 1.377 . S
C1329 C1330 1.379 . S
C1330 H1314 0.931 . S
C1330 C1324 1.383 . S
C1330 C1329 1.379 . S
H1331 C1325 0.959 . S
H1332 C1325 0.961 . S
H1333 C1325 0.960 . S
H1334 C1326 0.930 . S
H1335 C1327 0.929 . S
H1336 C1344 0.929 . S
H1337 C1346 0.930 . S
H1338 C1348 0.930 . S
H1339 C1351 0.929 . S
H1340 C1354 0.930 . S
H1341 C1356 0.960 . S
H1342 C1356 0.960 . S
H1343 C1356 0.960 . S
C1344 H1336 0.929 . S
C1344 C1345 1.377 . S
C1344 C1346 1.384 . S
C1345 C1344 1.377 . S
C1345 C1351 1.390 . S
C1346 H1337 0.930 . S
C1346 C1344 1.384 . S
C1346 C1347 1.372 . S
C1347 C1346 1.372 . S
C1347 C1348 1.400 . S
C1347 C1352 1.490 . S
C1348 H1338 0.930 . S
C1348 C1347 1.400 . S
C1348 C1351 1.386 . S
H1349 C1365 0.930 . S
H1350 C1366 0.931 . S
C1351 H1339 0.929 . S
C1351 C1345 1.390 . S
C1351 C1348 1.386 . S
C1352 C1347 1.490 . S
C1352 C1354 1.395 . S
C1352 C1355 1.403 . S
H1353 C1359 0.930 . S
C1354 H1340 0.930 . S
C1354 C1352 1.395 . S
C1354 C1357 1.403 . S
C1355 C1352 1.403 . S
C1355 C1356 1.524 . S
C1355 C1359 1.400 . S
C1356 H1341 0.960 . S
C1356 H1342 0.960 . S
C1356 H1343 0.960 . S
C1356 C1355 1.524 . S
C1357 C1354 1.403 . S
C1357 C1358 1.392 . S
C1357 C1361 1.495 . S
C1358 C1357 1.392 . S
C1358 C1359 1.385 . S
C1358 C1360 1.478 . S
C1359 H1353 0.930 . S
C1359 C1355 1.400 . S
C1359 C1358 1.385 . S
C1360 C1358 1.478 . S
C1360 C1362 1.381 . S
C1360 C1366 1.383 . S
C1361 C1357 1.495 . S
C1361 H1367 0.959 . S
C1361 H1368 0.961 . S
C1361 H1369 0.960 . S
C1362 C1360 1.381 . S
C1362 C1363 1.394 . S
C1362 H1370 0.930 . S
C1363 C1362 1.394 . S
C1363 C1364 1.383 . S
C1363 H1371 0.929 . S
C1364 C1363 1.383 . S
C1364 C1365 1.377 . S
C1365 H1349 0.930 . S
C1365 C1364 1.377 . S
C1365 C1366 1.379 . S
C1366 H1350 0.931 . S
C1366 C1360 1.383 . S
C1366 C1365 1.379 . S
H1367 C1361 0.959 . S
H1368 C1361 0.961 . S
H1369 C1361 0.960 . S
H1370 C1362 0.930 . S
H1371 C1363 0.929 . S
H1372 C1380 0.929 . S
H1373 C1382 0.930 . S
H1374 C1384 0.928 . S
H1375 C1387 0.929 . S
H1376 C1390 0.930 . S
H1377 C1392 0.960 . S
H1378 C1392 0.960 . S
H1379 C1392 0.960 1_455 S
C1380 H1372 0.929 . S
C1380 C1381 1.377 1_655 S
C1380 C1382 1.384 . S
C1381 C1380 1.377 1_455 S
C1381 C1387 1.390 . S
C1382 H1373 0.930 . S
C1382 C1380 1.384 . S
C1382 C1383 1.372 . S
C1383 C1382 1.372 . S
C1383 C1384 1.400 1_655 S
C1383 C1388 1.490 . S
C1384 H1374 0.928 . S
C1384 C1383 1.400 1_455 S
C1384 C1387 1.386 . S
H1385 C1401 0.930 . S
H1386 C1402 0.931 . S
C1387 H1375 0.929 . S
C1387 C1381 1.390 . S
C1387 C1384 1.386 . S
C1388 C1383 1.490 . S
C1388 C1390 1.395 1_565 S
C1388 C1391 1.403 . S
H1389 C1395 0.930 . S
C1390 H1376 0.930 . S
C1390 C1388 1.395 1_545 S
C1390 C1393 1.403 . S
C1391 C1388 1.403 . S
C1391 C1392 1.524 . S
C1391 C1395 1.400 . S
C1392 H1377 0.960 . S
C1392 H1378 0.960 . S
C1392 H1379 0.960 1_655 S
C1392 C1391 1.524 . S
C1393 C1390 1.403 . S
C1393 C1394 1.392 . S
C1393 C1397 1.495 . S
C1394 C1393 1.392 . S
C1394 C1395 1.385 1_545 S
C1394 C1396 1.478 . S
C1395 H1389 0.930 . S
C1395 C1391 1.400 . S
C1395 C1394 1.385 1_565 S
C1396 C1394 1.478 . S
C1396 C1398 1.382 . S
C1396 C1402 1.383 . S
C1397 C1393 1.495 . S
C1397 H1403 0.959 . S
C1397 H1404 0.961 . S
C1397 H1405 0.960 . S
C1398 C1396 1.382 . S
C1398 C1399 1.395 . S
C1398 H1406 0.928 1_545 S
C1399 C1398 1.395 . S
C1399 C1400 1.383 . S
C1399 H1407 0.929 1_545 S
C1400 C1399 1.383 . S
C1400 C1401 1.377 . S
C1401 H1385 0.930 . S
C1401 C1400 1.377 . S
C1401 C1402 1.379 . S
C1402 H1386 0.931 . S
C1402 C1396 1.383 . S
C1402 C1401 1.379 . S
H1403 C1397 0.959 . S
H1404 C1397 0.961 . S
H1405 C1397 0.960 . S
H1406 C1398 0.928 1_565 S
H1407 C1399 0.929 1_565 S
H1408 C1416 0.929 . S
H1409 C1418 0.930 . S
H1410 C1420 0.930 . S
H1411 C1423 0.929 . S
H1412 C1426 0.930 . S
H1413 C1428 0.960 . S
H1414 C1428 0.960 . S
H1415 C1428 0.960 . S
C1416 H1408 0.929 . S
C1416 C1417 1.377 . S
C1416 C1418 1.384 . S
C1417 C1416 1.377 . S
C1417 C1423 1.390 . S
C1418 H1409 0.930 . S
C1418 C1416 1.384 . S
C1418 C1419 1.372 . S
C1419 C1418 1.372 . S
C1419 C1420 1.400 . S
C1419 C1424 1.490 . S
C1420 H1410 0.930 . S
C1420 C1419 1.400 . S
C1420 C1423 1.386 . S
H1421 C1437 0.930 . S
H1422 C1438 0.931 . S
C1423 H1411 0.929 . S
C1423 C1417 1.390 . S
C1423 C1420 1.386 . S
C1424 C1419 1.490 . S
C1424 C1426 1.395 . S
C1424 C1427 1.403 . S
H1425 C1431 0.930 . S
C1426 H1412 0.930 . S
C1426 C1424 1.395 . S
C1426 C1429 1.403 . S
C1427 C1424 1.403 . S
C1427 C1428 1.524 . S
C1427 C1431 1.400 . S
C1428 H1413 0.960 . S
C1428 H1414 0.960 . S
C1428 H1415 0.960 . S
C1428 C1427 1.524 . S
C1429 C1426 1.403 . S
C1429 C1430 1.392 . S
C1429 C1433 1.495 . S
C1430 C1429 1.392 . S
C1430 C1431 1.385 . S
C1430 C1432 1.478 . S
C1431 H1425 0.930 . S
C1431 C1427 1.400 . S
C1431 C1430 1.385 . S
C1432 C1430 1.478 . S
C1432 C1434 1.381 . S
C1432 C1438 1.383 . S
C1433 C1429 1.495 . S
C1433 H1439 0.959 . S
C1433 H1440 0.961 . S
C1433 H1441 0.960 . S
C1434 C1432 1.381 . S
C1434 C1435 1.394 . S
C1434 H1442 0.930 . S
C1435 C1434 1.394 . S
C1435 C1436 1.383 . S
C1435 H1443 0.929 . S
C1436 C1435 1.383 . S
C1436 C1437 1.377 . S
C1437 H1421 0.930 . S
C1437 C1436 1.377 . S
C1437 C1438 1.379 . S
C1438 H1422 0.931 . S
C1438 C1432 1.383 . S
C1438 C1437 1.379 . S
H1439 C1433 0.959 . S
H1440 C1433 0.961 . S
H1441 C1433 0.960 . S
H1442 C1434 0.930 . S
H1443 C1435 0.929 . S
H1444 C1452 0.929 . S
H1445 C1454 0.930 . S
H1446 C1456 0.930 . S
H1447 C1459 0.929 . S
H1448 C1462 0.930 . S
H1449 C1464 0.960 . S
H1450 C1464 0.960 . S
H1451 C1464 0.960 . S
C1452 H1444 0.929 . S
C1452 C1453 1.377 . S
C1452 C1454 1.384 . S
C1453 C1452 1.377 . S
C1453 C1459 1.390 . S
C1454 H1445 0.930 . S
C1454 C1452 1.384 . S
C1454 C1455 1.372 . S
C1455 C1454 1.372 . S
C1455 C1456 1.400 . S
C1455 C1460 1.490 . S
C1456 H1446 0.930 . S
C1456 C1455 1.400 . S
C1456 C1459 1.386 . S
H1457 C1473 0.930 . S
H1458 C1474 0.931 . S
C1459 H1447 0.929 . S
C1459 C1453 1.390 . S
C1459 C1456 1.386 . S
C1460 C1455 1.490 . S
C1460 C1462 1.395 . S
C1460 C1463 1.403 . S
H1461 C1467 0.930 . S
C1462 H1448 0.930 . S
C1462 C1460 1.395 . S
C1462 C1465 1.403 . S
C1463 C1460 1.403 . S
C1463 C1464 1.524 . S
C1463 C1467 1.400 . S
C1464 H1449 0.960 . S
C1464 H1450 0.960 . S
C1464 H1451 0.960 . S
C1464 C1463 1.524 . S
C1465 C1462 1.403 . S
C1465 C1466 1.392 . S
C1465 C1469 1.495 . S
C1466 C1465 1.392 . S
C1466 C1467 1.385 . S
C1466 C1468 1.478 . S
C1467 H1461 0.930 . S
C1467 C1463 1.400 . S
C1467 C1466 1.385 . S
C1468 C1466 1.478 . S
C1468 C1470 1.381 . S
C1468 C1474 1.383 . S
C1469 C1465 1.495 . S
C1469 H1475 0.959 . S
C1469 H1476 0.961 . S
C1469 H1477 0.960 . S
C1470 C1468 1.381 . S
C1470 C1471 1.394 . S
C1470 H1478 0.930 . S
C1471 C1470 1.394 . S
C1471 C1472 1.383 . S
C1471 H1479 0.929 . S
C1472 C1471 1.383 . S
C1472 C1473 1.377 . S
C1473 H1457 0.930 . S
C1473 C1472 1.377 . S
C1473 C1474 1.379 . S
C1474 H1458 0.931 . S
C1474 C1468 1.383 . S
C1474 C1473 1.379 . S
H1475 C1469 0.959 . S
H1476 C1469 0.961 . S
H1477 C1469 0.960 . S
H1478 C1470 0.930 . S
H1479 C1471 0.929 . S
H1480 C1488 0.929 . S
H1481 C1490 0.930 . S
H1482 C1492 0.930 . S
H1483 C1495 0.929 . S
H1484 C1498 0.930 . S
H1485 C1500 0.960 . S
H1486 C1500 0.960 . S
H1487 C1500 0.960 . S
C1488 H1480 0.929 . S
C1488 C1489 1.377 . S
C1488 C1490 1.384 . S
C1489 C1488 1.377 . S
C1489 C1495 1.390 . S
C1490 H1481 0.930 . S
C1490 C1488 1.384 . S
C1490 C1491 1.372 . S
C1491 C1490 1.372 . S
C1491 C1492 1.400 . S
C1491 C1496 1.490 . S
C1492 H1482 0.930 . S
C1492 C1491 1.400 . S
C1492 C1495 1.386 . S
H1493 C1509 0.930 . S
H1494 C1510 0.931 . S
C1495 H1483 0.929 . S
C1495 C1489 1.390 . S
C1495 C1492 1.386 . S
C1496 C1491 1.490 . S
C1496 C1498 1.395 . S
C1496 C1499 1.403 . S
H1497 C1503 0.930 . S
C1498 H1484 0.930 . S
C1498 C1496 1.395 . S
C1498 C1501 1.403 . S
C1499 C1496 1.403 . S
C1499 C1500 1.524 . S
C1499 C1503 1.400 . S
C1500 H1485 0.960 . S
C1500 H1486 0.960 . S
C1500 H1487 0.960 . S
C1500 C1499 1.524 . S
C1501 C1498 1.403 . S
C1501 C1502 1.392 . S
C1501 C1505 1.495 . S
C1502 C1501 1.392 . S
C1502 C1503 1.385 . S
C1502 C1504 1.478 . S
C1503 H1497 0.930 . S
C1503 C1499 1.400 . S
C1503 C1502 1.385 . S
C1504 C1502 1.478 . S
C1504 C1506 1.381 . S
C1504 C1510 1.383 . S
C1505 C1501 1.495 . S
C1505 H1511 0.959 . S
C1505 H1512 0.961 . S
C1505 H1513 0.960 . S
C1506 C1504 1.381 . S
C1506 C1507 1.394 . S
C1506 H1514 0.930 . S
C1507 C1506 1.394 . S
C1507 C1508 1.383 . S
C1507 H1515 0.929 . S
C1508 C1507 1.383 . S
C1508 C1509 1.377 . S
C1509 H1493 0.930 . S
C1509 C1508 1.377 . S
C1509 C1510 1.379 . S
C1510 H1494 0.931 . S
C1510 C1504 1.383 . S
C1510 C1509 1.379 . S
H1511 C1505 0.959 . S
H1512 C1505 0.961 . S
H1513 C1505 0.960 . S
H1514 C1506 0.930 . S
H1515 C1507 0.929 . S
H1516 C1524 0.929 . S
H1517 C1526 0.930 . S
H1518 C1528 0.930 . S
H1519 C1531 0.929 . S
H1520 C1534 0.930 . S
H1521 C1536 0.960 . S
H1522 C1536 0.960 . S
H1523 C1536 0.960 . S
C1524 H1516 0.929 . S
C1524 C1525 1.377 . S
C1524 C1526 1.384 . S
C1525 C1524 1.377 . S
C1525 C1531 1.390 . S
C1526 H1517 0.930 . S
C1526 C1524 1.384 . S
C1526 C1527 1.372 . S
C1527 C1526 1.372 . S
C1527 C1528 1.400 . S
C1527 C1532 1.490 . S
C1528 H1518 0.930 . S
C1528 C1527 1.400 . S
C1528 C1531 1.386 . S
H1529 C1545 0.930 . S
H1530 C1546 0.931 . S
C1531 H1519 0.929 . S
C1531 C1525 1.390 . S
C1531 C1528 1.386 . S
C1532 C1527 1.490 . S
C1532 C1534 1.395 . S
C1532 C1535 1.403 . S
H1533 C1539 0.930 . S
C1534 H1520 0.930 . S
C1534 C1532 1.395 . S
C1534 C1537 1.403 . S
C1535 C1532 1.403 . S
C1535 C1536 1.524 . S
C1535 C1539 1.400 . S
C1536 H1521 0.960 . S
C1536 H1522 0.960 . S
C1536 H1523 0.960 . S
C1536 C1535 1.524 . S
C1537 C1534 1.403 . S
C1537 C1538 1.392 . S
C1537 C1541 1.495 . S
C1538 C1537 1.392 . S
C1538 C1539 1.385 . S
C1538 C1540 1.478 . S
C1539 H1533 0.930 . S
C1539 C1535 1.400 . S
C1539 C1538 1.385 . S
C1540 C1538 1.478 . S
C1540 C1542 1.381 . S
C1540 C1546 1.383 . S
C1541 C1537 1.495 . S
C1541 H1547 0.959 . S
C1541 H1548 0.961 . S
C1541 H1549 0.960 . S
C1542 C1540 1.381 . S
C1542 C1543 1.394 . S
C1542 H1550 0.930 . S
C1543 C1542 1.394 . S
C1543 C1544 1.383 . S
C1543 H1551 0.929 . S
C1544 C1543 1.383 . S
C1544 C1545 1.377 . S
C1545 H1529 0.930 . S
C1545 C1544 1.377 . S
C1545 C1546 1.379 . S
C1546 H1530 0.931 . S
C1546 C1540 1.383 . S
C1546 C1545 1.379 . S
H1547 C1541 0.959 . S
H1548 C1541 0.961 . S
H1549 C1541 0.960 . S
H1550 C1542 0.930 . S
H1551 C1543 0.929 . S
H1552 C1560 0.929 . S
H1553 C1562 0.930 . S
H1554 C1564 0.930 . S
H1555 C1567 0.929 . S
H1556 C1570 0.930 . S
H1557 C1572 0.960 . S
H1558 C1572 0.960 . S
H1559 C1572 0.960 . S
C1560 H1552 0.929 . S
C1560 C1561 1.377 . S
C1560 C1562 1.384 . S
C1561 C1560 1.377 . S
C1561 C1567 1.390 . S
C1562 H1553 0.930 . S
C1562 C1560 1.384 . S
C1562 C1563 1.372 . S
C1563 C1562 1.372 . S
C1563 C1564 1.400 . S
C1563 C1568 1.490 . S
C1564 H1554 0.930 . S
C1564 C1563 1.400 . S
C1564 C1567 1.386 . S
H1565 C1581 0.930 . S
H1566 C1582 0.931 . S
C1567 H1555 0.929 . S
C1567 C1561 1.390 . S
C1567 C1564 1.386 . S
C1568 C1563 1.490 . S
C1568 C1570 1.395 . S
C1568 C1571 1.403 . S
H1569 C1575 0.930 . S
C1570 H1556 0.930 . S
C1570 C1568 1.395 . S
C1570 C1573 1.403 . S
C1571 C1568 1.403 . S
C1571 C1572 1.524 . S
C1571 C1575 1.400 . S
C1572 H1557 0.960 . S
C1572 H1558 0.960 . S
C1572 H1559 0.960 . S
C1572 C1571 1.524 . S
C1573 C1570 1.403 . S
C1573 C1574 1.392 . S
C1573 C1577 1.495 . S
C1574 C1573 1.392 . S
C1574 C1575 1.385 . S
C1574 C1576 1.478 . S
C1575 H1569 0.930 . S
C1575 C1571 1.400 . S
C1575 C1574 1.385 . S
C1576 C1574 1.478 . S
C1576 C1578 1.381 . S
C1576 C1582 1.383 . S
C1577 C1573 1.495 . S
C1577 H1583 0.959 . S
C1577 H1584 0.961 . S
C1577 H1585 0.960 . S
C1578 C1576 1.381 . S
C1578 C1579 1.394 . S
C1578 H1586 0.930 . S
C1579 C1578 1.394 . S
C1579 C1580 1.383 . S
C1579 H1587 0.929 . S
C1580 C1579 1.383 . S
C1580 C1581 1.377 . S
C1581 H1565 0.930 . S
C1581 C1580 1.377 . S
C1581 C1582 1.379 . S
C1582 H1566 0.931 . S
C1582 C1576 1.383 . S
C1582 C1581 1.379 . S
H1583 C1577 0.959 . S
H1584 C1577 0.961 . S
H1585 C1577 0.960 . S
H1586 C1578 0.930 . S
H1587 C1579 0.929 . S
H1588 C1596 0.929 . S
H1589 C1598 0.930 . S
H1590 C1600 0.930 . S
H1591 C1603 0.929 . S
H1592 C1606 0.930 . S
H1593 C1608 0.960 . S
H1594 C1608 0.960 . S
H1595 C1608 0.960 . S
C1596 H1588 0.929 . S
C1596 C1597 1.377 . S
C1596 C1598 1.384 . S
C1597 C1596 1.377 . S
C1597 C1603 1.390 . S
C1598 H1589 0.930 . S
C1598 C1596 1.384 . S
C1598 C1599 1.372 . S
C1599 C1598 1.372 . S
C1599 C1600 1.400 . S
C1599 C1604 1.490 . S
C1600 H1590 0.930 . S
C1600 C1599 1.400 . S
C1600 C1603 1.386 . S
H1601 C1617 0.930 . S
H1602 C1618 0.931 . S
C1603 H1591 0.929 . S
C1603 C1597 1.390 . S
C1603 C1600 1.386 . S
C1604 C1599 1.490 . S
C1604 C1606 1.395 . S
C1604 C1607 1.403 . S
H1605 C1611 0.930 . S
C1606 H1592 0.930 . S
C1606 C1604 1.395 . S
C1606 C1609 1.403 . S
C1607 C1604 1.403 . S
C1607 C1608 1.524 . S
C1607 C1611 1.400 . S
C1608 H1593 0.960 . S
C1608 H1594 0.960 . S
C1608 H1595 0.960 . S
C1608 C1607 1.524 . S
C1609 C1606 1.403 . S
C1609 C1610 1.392 . S
C1609 C1613 1.495 . S
C1610 C1609 1.392 . S
C1610 C1611 1.385 . S
C1610 C1612 1.478 . S
C1611 H1605 0.930 . S
C1611 C1607 1.400 . S
C1611 C1610 1.385 . S
C1612 C1610 1.478 . S
C1612 C1614 1.381 . S
C1612 C1618 1.383 . S
C1613 C1609 1.495 . S
C1613 H1619 0.959 . S
C1613 H1620 0.961 . S
C1613 H1621 0.960 . S
C1614 C1612 1.381 . S
C1614 C1615 1.394 . S
C1614 H1622 0.930 . S
C1615 C1614 1.394 . S
C1615 C1616 1.383 . S
C1615 H1623 0.929 . S
C1616 C1615 1.383 . S
C1616 C1617 1.377 . S
C1617 H1601 0.930 . S
C1617 C1616 1.377 . S
C1617 C1618 1.379 . S
C1618 H1602 0.931 . S
C1618 C1612 1.383 . S
C1618 C1617 1.379 . S
H1619 C1613 0.959 . S
H1620 C1613 0.961 . S
H1621 C1613 0.960 . S
H1622 C1614 0.930 . S
H1623 C1615 0.929 . S
H1624 C1632 0.929 . S
H1625 C1634 0.930 . S
H1626 C1636 0.930 . S
H1627 C1639 0.929 . S
H1628 C1642 0.930 . S
H1629 C1644 0.960 . S
H1630 C1644 0.960 . S
H1631 C1644 0.960 . S
C1632 H1624 0.929 . S
C1632 C1633 1.377 . S
C1632 C1634 1.384 . S
C1633 C1632 1.377 . S
C1633 C1639 1.390 . S
C1634 H1625 0.930 . S
C1634 C1632 1.384 . S
C1634 C1635 1.372 . S
C1635 C1634 1.372 . S
C1635 C1636 1.400 . S
C1635 C1640 1.490 . S
C1636 H1626 0.930 . S
C1636 C1635 1.400 . S
C1636 C1639 1.386 . S
H1637 C1653 0.930 . S
H1638 C1654 0.931 . S
C1639 H1627 0.929 . S
C1639 C1633 1.390 . S
C1639 C1636 1.386 . S
C1640 C1635 1.490 . S
C1640 C1642 1.395 . S
C1640 C1643 1.403 . S
H1641 C1647 0.930 . S
C1642 H1628 0.930 . S
C1642 C1640 1.395 . S
C1642 C1645 1.403 . S
C1643 C1640 1.403 . S
C1643 C1644 1.524 . S
C1643 C1647 1.400 . S
C1644 H1629 0.960 . S
C1644 H1630 0.960 . S
C1644 H1631 0.960 . S
C1644 C1643 1.524 . S
C1645 C1642 1.403 . S
C1645 C1646 1.392 . S
C1645 C1649 1.495 . S
C1646 C1645 1.392 . S
C1646 C1647 1.385 . S
C1646 C1648 1.478 . S
C1647 H1641 0.930 . S
C1647 C1643 1.400 . S
C1647 C1646 1.385 . S
C1648 C1646 1.478 . S
C1648 C1650 1.381 . S
C1648 C1654 1.383 . S
C1649 C1645 1.495 . S
C1649 H1655 0.959 . S
C1649 H1656 0.961 . S
C1649 H1657 0.960 . S
C1650 C1648 1.381 . S
C1650 C1651 1.394 . S
C1650 H1658 0.930 . S
C1651 C1650 1.394 . S
C1651 C1652 1.383 . S
C1651 H1659 0.929 . S
C1652 C1651 1.383 . S
C1652 C1653 1.377 . S
C1653 H1637 0.930 . S
C1653 C1652 1.377 . S
C1653 C1654 1.379 . S
C1654 H1638 0.931 . S
C1654 C1648 1.383 . S
C1654 C1653 1.379 . S
H1655 C1649 0.959 . S
H1656 C1649 0.961 . S
H1657 C1649 0.960 . S
H1658 C1650 0.930 . S
H1659 C1651 0.929 . S
H1660 C1668 0.929 . S
H1661 C1670 0.930 . S
H1662 C1672 0.930 . S
H1663 C1675 0.929 . S
H1664 C1678 0.930 . S
H1665 C1680 0.960 . S
H1666 C1680 0.960 . S
H1667 C1680 0.960 . S
C1668 H1660 0.929 . S
C1668 C1669 1.377 . S
C1668 C1670 1.384 . S
C1669 C1668 1.377 . S
C1669 C1675 1.390 . S
C1670 H1661 0.930 . S
C1670 C1668 1.384 . S
C1670 C1671 1.372 . S
C1671 C1670 1.372 . S
C1671 C1672 1.400 . S
C1671 C1676 1.490 . S
C1672 H1662 0.930 . S
C1672 C1671 1.400 . S
C1672 C1675 1.386 . S
H1673 C1689 0.930 . S
H1674 C1690 0.931 . S
C1675 H1663 0.929 . S
C1675 C1669 1.390 . S
C1675 C1672 1.386 . S
C1676 C1671 1.490 . S
C1676 C1678 1.395 . S
C1676 C1679 1.403 . S
H1677 C1683 0.930 . S
C1678 H1664 0.930 . S
C1678 C1676 1.395 . S
C1678 C1681 1.403 . S
C1679 C1676 1.403 . S
C1679 C1680 1.524 . S
C1679 C1683 1.400 . S
C1680 H1665 0.960 . S
C1680 H1666 0.960 . S
C1680 H1667 0.960 . S
C1680 C1679 1.524 . S
C1681 C1678 1.403 . S
C1681 C1682 1.392 . S
C1681 C1685 1.495 . S
C1682 C1681 1.392 . S
C1682 C1683 1.385 . S
C1682 C1684 1.478 . S
C1683 H1677 0.930 . S
C1683 C1679 1.400 . S
C1683 C1682 1.385 . S
C1684 C1682 1.478 . S
C1684 C1686 1.381 . S
C1684 C1690 1.383 . S
C1685 C1681 1.495 . S
C1685 H1691 0.959 . S
C1685 H1692 0.961 . S
C1685 H1693 0.960 . S
C1686 C1684 1.381 . S
C1686 C1687 1.394 . S
C1686 H1694 0.930 . S
C1687 C1686 1.394 . S
C1687 C1688 1.383 . S
C1687 H1695 0.929 . S
C1688 C1687 1.383 . S
C1688 C1689 1.377 . S
C1689 H1673 0.930 . S
C1689 C1688 1.377 . S
C1689 C1690 1.379 . S
C1690 H1674 0.931 . S
C1690 C1684 1.383 . S
C1690 C1689 1.379 . S
H1691 C1685 0.959 . S
H1692 C1685 0.961 . S
H1693 C1685 0.960 . S
H1694 C1686 0.930 . S
H1695 C1687 0.929 . S
H1696 C1704 0.929 . S
H1697 C1706 0.930 . S
H1698 C1708 0.930 . S
H1699 C1711 0.929 . S
H1700 C1714 0.930 . S
H1701 C1716 0.960 . S
H1702 C1716 0.960 . S
H1703 C1716 0.960 . S
C1704 H1696 0.929 . S
C1704 C1705 1.377 . S
C1704 C1706 1.384 . S
C1705 C1704 1.377 . S
C1705 C1711 1.390 . S
C1706 H1697 0.930 . S
C1706 C1704 1.384 . S
C1706 C1707 1.372 . S
C1707 C1706 1.372 . S
C1707 C1708 1.400 . S
C1707 C1712 1.490 . S
C1708 H1698 0.930 . S
C1708 C1707 1.400 . S
C1708 C1711 1.386 . S
H1709 C1725 0.930 . S
H1710 C1726 0.931 . S
C1711 H1699 0.929 . S
C1711 C1705 1.390 . S
C1711 C1708 1.386 . S
C1712 C1707 1.490 . S
C1712 C1714 1.395 . S
C1712 C1715 1.403 . S
H1713 C1719 0.930 . S
C1714 H1700 0.930 . S
C1714 C1712 1.395 . S
C1714 C1717 1.403 . S
C1715 C1712 1.403 . S
C1715 C1716 1.524 . S
C1715 C1719 1.400 . S
C1716 H1701 0.960 . S
C1716 H1702 0.960 . S
C1716 H1703 0.960 . S
C1716 C1715 1.524 . S
C1717 C1714 1.403 . S
C1717 C1718 1.392 . S
C1717 C1721 1.495 . S
C1718 C1717 1.392 . S
C1718 C1719 1.385 . S
C1718 C1720 1.478 . S
C1719 H1713 0.930 . S
C1719 C1715 1.400 . S
C1719 C1718 1.385 . S
C1720 C1718 1.478 . S
C1720 C1722 1.381 . S
C1720 C1726 1.383 . S
C1721 C1717 1.495 . S
C1721 H1727 0.959 . S
C1721 H1728 0.961 . S
C1721 H1729 0.960 . S
C1722 C1720 1.381 . S
C1722 C1723 1.394 . S
C1722 H1730 0.930 . S
C1723 C1722 1.394 . S
C1723 C1724 1.383 . S
C1723 H1731 0.929 . S
C1724 C1723 1.383 . S
C1724 C1725 1.377 . S
C1725 H1709 0.930 . S
C1725 C1724 1.377 . S
C1725 C1726 1.379 . S
C1726 H1710 0.931 . S
C1726 C1720 1.383 . S
C1726 C1725 1.379 . S
H1727 C1721 0.959 . S
H1728 C1721 0.961 . S
H1729 C1721 0.960 . S
H1730 C1722 0.930 . S
H1731 C1723 0.929 . S
H1732 C1740 0.929 . S
H1733 C1742 0.930 . S
H1734 C1744 0.930 . S
H1735 C1747 0.929 . S
H1736 C1750 0.930 . S
H1737 C1752 0.960 . S
H1738 C1752 0.960 . S
H1739 C1752 0.960 . S
C1740 H1732 0.929 . S
C1740 C1741 1.377 . S
C1740 C1742 1.384 . S
C1741 C1740 1.377 . S
C1741 C1747 1.390 . S
C1742 H1733 0.930 . S
C1742 C1740 1.384 . S
C1742 C1743 1.372 . S
C1743 C1742 1.372 . S
C1743 C1744 1.400 . S
C1743 C1748 1.490 . S
C1744 H1734 0.930 . S
C1744 C1743 1.400 . S
C1744 C1747 1.386 . S
H1745 C1761 0.930 . S
H1746 C1762 0.931 . S
C1747 H1735 0.929 . S
C1747 C1741 1.390 . S
C1747 C1744 1.386 . S
C1748 C1743 1.490 . S
C1748 C1750 1.395 . S
C1748 C1751 1.403 . S
H1749 C1755 0.930 . S
C1750 H1736 0.930 . S
C1750 C1748 1.395 . S
C1750 C1753 1.403 . S
C1751 C1748 1.403 . S
C1751 C1752 1.524 . S
C1751 C1755 1.400 . S
C1752 H1737 0.960 . S
C1752 H1738 0.960 . S
C1752 H1739 0.960 . S
C1752 C1751 1.524 . S
C1753 C1750 1.403 . S
C1753 C1754 1.392 . S
C1753 C1757 1.495 . S
C1754 C1753 1.392 . S
C1754 C1755 1.385 . S
C1754 C1756 1.478 . S
C1755 H1749 0.930 . S
C1755 C1751 1.400 . S
C1755 C1754 1.385 . S
C1756 C1754 1.478 . S
C1756 C1758 1.381 . S
C1756 C1762 1.383 . S
C1757 C1753 1.495 . S
C1757 H1763 0.959 . S
C1757 H1764 0.961 . S
C1757 H1765 0.960 . S
C1758 C1756 1.381 . S
C1758 C1759 1.394 . S
C1758 H1766 0.930 . S
C1759 C1758 1.394 . S
C1759 C1760 1.383 . S
C1759 H1767 0.929 . S
C1760 C1759 1.383 . S
C1760 C1761 1.377 . S
C1761 H1745 0.930 . S
C1761 C1760 1.377 . S
C1761 C1762 1.379 . S
C1762 H1746 0.931 . S
C1762 C1756 1.383 . S
C1762 C1761 1.379 . S
H1763 C1757 0.959 . S
H1764 C1757 0.961 . S
H1765 C1757 0.960 . S
H1766 C1758 0.930 . S
H1767 C1759 0.929 . S
H1768 C1776 0.929 . S
H1769 C1778 0.930 . S
H1770 C1780 0.930 . S
H1771 C1783 0.929 . S
H1772 C1786 0.930 . S
H1773 C1788 0.960 . S
H1774 C1788 0.960 . S
H1775 C1788 0.960 . S
C1776 H1768 0.929 . S
C1776 C1777 1.377 . S
C1776 C1778 1.384 . S
C1777 C1776 1.377 . S
C1777 C1783 1.390 . S
C1778 H1769 0.930 . S
C1778 C1776 1.384 . S
C1778 C1779 1.372 . S
C1779 C1778 1.372 . S
C1779 C1780 1.400 . S
C1779 C1784 1.490 . S
C1780 H1770 0.930 . S
C1780 C1779 1.400 . S
C1780 C1783 1.386 . S
H1781 C1797 0.930 . S
H1782 C1798 0.931 . S
C1783 H1771 0.929 . S
C1783 C1777 1.390 . S
C1783 C1780 1.386 . S
C1784 C1779 1.490 . S
C1784 C1786 1.395 . S
C1784 C1787 1.403 . S
H1785 C1791 0.930 . S
C1786 H1772 0.930 . S
C1786 C1784 1.395 . S
C1786 C1789 1.403 . S
C1787 C1784 1.403 . S
C1787 C1788 1.524 . S
C1787 C1791 1.400 . S
C1788 H1773 0.960 . S
C1788 H1774 0.960 . S
C1788 H1775 0.960 . S
C1788 C1787 1.524 . S
C1789 C1786 1.403 . S
C1789 C1790 1.392 . S
C1789 C1793 1.495 . S
C1790 C1789 1.392 . S
C1790 C1791 1.385 . S
C1790 C1792 1.478 . S
C1791 H1785 0.930 . S
C1791 C1787 1.400 . S
C1791 C1790 1.385 . S
C1792 C1790 1.478 . S
C1792 C1794 1.381 . S
C1792 C1798 1.383 . S
C1793 C1789 1.495 . S
C1793 H1799 0.959 . S
C1793 H1800 0.961 . S
C1793 H1801 0.960 . S
C1794 C1792 1.381 . S
C1794 C1795 1.394 . S
C1794 H1802 0.930 . S
C1795 C1794 1.394 . S
C1795 C1796 1.383 . S
C1795 H1803 0.929 . S
C1796 C1795 1.383 . S
C1796 C1797 1.377 . S
C1797 H1781 0.930 . S
C1797 C1796 1.377 . S
C1797 C1798 1.379 . S
C1798 H1782 0.931 . S
C1798 C1792 1.383 . S
C1798 C1797 1.379 . S
H1799 C1793 0.959 . S
H1800 C1793 0.961 . S
H1801 C1793 0.960 . S
H1802 C1794 0.930 . S
H1803 C1795 0.929 . S
H1804 C1812 0.929 . S
H1805 C1814 0.930 . S
H1806 C1816 0.930 . S
H1807 C1819 0.929 . S
H1808 C1822 0.930 . S
H1809 C1824 0.960 . S
H1810 C1824 0.960 . S
H1811 C1824 0.960 . S
C1812 H1804 0.929 . S
C1812 C1813 1.377 . S
C1812 C1814 1.384 . S
C1813 C1812 1.377 . S
C1813 C1819 1.390 . S
C1814 H1805 0.930 . S
C1814 C1812 1.384 . S
C1814 C1815 1.372 . S
C1815 C1814 1.372 . S
C1815 C1816 1.400 . S
C1815 C1820 1.490 . S
C1816 H1806 0.930 . S
C1816 C1815 1.400 . S
C1816 C1819 1.386 . S
H1817 C1833 0.930 . S
H1818 C1834 0.931 . S
C1819 H1807 0.929 . S
C1819 C1813 1.390 . S
C1819 C1816 1.386 . S
C1820 C1815 1.490 . S
C1820 C1822 1.395 1_655 S
C1820 C1823 1.403 . S
H1821 C1827 0.930 . S
C1822 H1808 0.930 . S
C1822 C1820 1.395 1_455 S
C1822 C1825 1.403 . S
C1823 C1820 1.403 . S
C1823 C1824 1.524 . S
C1823 C1827 1.400 . S
C1824 H1809 0.960 . S
C1824 H1810 0.960 . S
C1824 H1811 0.960 . S
C1824 C1823 1.524 . S
C1825 C1822 1.403 . S
C1825 C1826 1.392 1_455 S
C1825 C1829 1.495 . S
C1826 C1825 1.392 1_655 S
C1826 C1827 1.385 . S
C1826 C1828 1.478 . S
C1827 H1821 0.930 . S
C1827 C1823 1.400 . S
C1827 C1826 1.385 . S
C1828 C1826 1.478 . S
C1828 C1830 1.379 . S
C1828 C1834 1.384 1_655 S
C1829 C1825 1.495 . S
C1829 H1835 0.959 . S
C1829 H1836 0.961 . S
C1829 H1837 0.960 . S
C1830 C1828 1.379 . S
C1830 C1831 1.394 . S
C1830 H1838 0.930 . S
C1831 C1830 1.394 . S
C1831 C1832 1.383 1_655 S
C1831 H1839 0.929 . S
C1832 C1831 1.383 1_455 S
C1832 C1833 1.377 . S
C1833 H1817 0.930 . S
C1833 C1832 1.377 . S
C1833 C1834 1.379 . S
C1834 H1818 0.931 . S
C1834 C1828 1.384 1_455 S
C1834 C1833 1.379 . S
H1835 C1829 0.959 . S
H1836 C1829 0.961 . S
H1837 C1829 0.960 . S
H1838 C1830 0.930 . S
H1839 C1831 0.929 . S
H1840 C1848 0.929 . S
H1841 C1850 0.930 . S
H1842 C1852 0.930 . S
H1843 C1855 0.929 . S
H1844 C1858 0.930 . S
H1845 C1860 0.960 . S
H1846 C1860 0.960 . S
H1847 C1860 0.960 . S
C1848 H1840 0.929 . S
C1848 C1849 1.377 . S
C1848 C1850 1.384 . S
C1849 C1848 1.377 . S
C1849 C1855 1.390 . S
C1850 H1841 0.930 . S
C1850 C1848 1.384 . S
C1850 C1851 1.372 . S
C1851 C1850 1.372 . S
C1851 C1852 1.400 . S
C1851 C1856 1.490 . S
C1852 H1842 0.930 . S
C1852 C1851 1.400 . S
C1852 C1855 1.386 . S
H1853 C1869 0.930 . S
H1854 C1870 0.931 . S
C1855 H1843 0.929 . S
C1855 C1849 1.390 . S
C1855 C1852 1.386 . S
C1856 C1851 1.490 . S
C1856 C1858 1.395 . S
C1856 C1859 1.403 . S
H1857 C1863 0.930 . S
C1858 H1844 0.930 . S
C1858 C1856 1.395 . S
C1858 C1861 1.403 . S
C1859 C1856 1.403 . S
C1859 C1860 1.524 . S
C1859 C1863 1.400 . S
C1860 H1845 0.960 . S
C1860 H1846 0.960 . S
C1860 H1847 0.960 . S
C1860 C1859 1.524 . S
C1861 C1858 1.403 . S
C1861 C1862 1.392 . S
C1861 C1865 1.495 . S
C1862 C1861 1.392 . S
C1862 C1863 1.385 . S
C1862 C1864 1.478 . S
C1863 H1857 0.930 . S
C1863 C1859 1.400 . S
C1863 C1862 1.385 . S
C1864 C1862 1.478 . S
C1864 C1866 1.381 . S
C1864 C1870 1.383 . S
C1865 C1861 1.495 . S
C1865 H1871 0.959 . S
C1865 H1872 0.961 . S
C1865 H1873 0.960 . S
C1866 C1864 1.381 . S
C1866 C1867 1.394 . S
C1866 H1874 0.930 . S
C1867 C1866 1.394 . S
C1867 C1868 1.383 . S
C1867 H1875 0.929 . S
C1868 C1867 1.383 . S
C1868 C1869 1.377 . S
C1869 H1853 0.930 . S
C1869 C1868 1.377 . S
C1869 C1870 1.379 . S
C1870 H1854 0.931 . S
C1870 C1864 1.383 . S
C1870 C1869 1.379 . S
H1871 C1865 0.959 . S
H1872 C1865 0.961 . S
H1873 C1865 0.960 . S
H1874 C1866 0.930 . S
H1875 C1867 0.929 . S
H1876 C1884 0.929 . S
H1877 C1886 0.930 . S
H1878 C1888 0.930 . S
H1879 C1891 0.929 . S
H1880 C1894 0.930 . S
H1881 C1896 0.960 . S
H1882 C1896 0.960 . S
H1883 C1896 0.960 . S
C1884 H1876 0.929 . S
C1884 C1885 1.377 . S
C1884 C1886 1.384 . S
C1885 C1884 1.377 . S
C1885 C1891 1.390 . S
C1886 H1877 0.930 . S
C1886 C1884 1.384 . S
C1886 C1887 1.372 . S
C1887 C1886 1.372 . S
C1887 C1888 1.400 . S
C1887 C1892 1.490 . S
C1888 H1878 0.930 . S
C1888 C1887 1.400 . S
C1888 C1891 1.386 . S
H1889 C1905 0.930 . S
H1890 C1906 0.931 . S
C1891 H1879 0.929 . S
C1891 C1885 1.390 . S
C1891 C1888 1.386 . S
C1892 C1887 1.490 . S
C1892 C1894 1.395 . S
C1892 C1895 1.403 . S
H1893 C1899 0.930 . S
C1894 H1880 0.930 . S
C1894 C1892 1.395 . S
C1894 C1897 1.403 . S
C1895 C1892 1.403 . S
C1895 C1896 1.524 . S
C1895 C1899 1.400 . S
C1896 H1881 0.960 . S
C1896 H1882 0.960 . S
C1896 H1883 0.960 . S
C1896 C1895 1.524 . S
C1897 C1894 1.403 . S
C1897 C1898 1.392 . S
C1897 C1901 1.495 . S
C1898 C1897 1.392 . S
C1898 C1899 1.385 . S
C1898 C1900 1.478 . S
C1899 H1893 0.930 . S
C1899 C1895 1.400 . S
C1899 C1898 1.385 . S
C1900 C1898 1.478 . S
C1900 C1902 1.381 . S
C1900 C1906 1.383 . S
C1901 C1897 1.495 . S
C1901 H1907 0.959 . S
C1901 H1908 0.961 . S
C1901 H1909 0.960 . S
C1902 C1900 1.381 . S
C1902 C1903 1.394 . S
C1902 H1910 0.930 . S
C1903 C1902 1.394 . S
C1903 C1904 1.383 . S
C1903 H1911 0.929 . S
C1904 C1903 1.383 . S
C1904 C1905 1.377 . S
C1905 H1889 0.930 . S
C1905 C1904 1.377 . S
C1905 C1906 1.379 . S
C1906 H1890 0.931 . S
C1906 C1900 1.383 . S
C1906 C1905 1.379 . S
H1907 C1901 0.959 . S
H1908 C1901 0.961 . S
H1909 C1901 0.960 . S
H1910 C1902 0.930 . S
H1911 C1903 0.929 . S
H1912 C1920 0.929 . S
H1913 C1922 0.930 . S
H1914 C1924 0.930 . S
H1915 C1927 0.929 . S
H1916 C1930 0.930 . S
H1917 C1932 0.960 . S
H1918 C1932 0.960 . S
H1919 C1932 0.960 . S
C1920 H1912 0.929 . S
C1920 C1921 1.377 1_554 S
C1920 C1922 1.384 . S
C1921 C1920 1.377 1_556 S
C1921 C1927 1.390 . S
C1922 H1913 0.930 . S
C1922 C1920 1.384 . S
C1922 C1923 1.372 1_554 S
C1923 C1922 1.372 1_556 S
C1923 C1924 1.400 . S
C1923 C1928 1.490 . S
C1924 H1914 0.930 . S
C1924 C1923 1.400 . S
C1924 C1927 1.386 . S
H1925 C1941 0.930 . S
H1926 C1942 0.931 . S
C1927 H1915 0.929 . S
C1927 C1921 1.390 . S
C1927 C1924 1.386 . S
C1928 C1923 1.490 . S
C1928 C1930 1.395 1_556 S
C1928 C1931 1.403 1_545 S
H1929 C1935 0.930 . S
C1930 H1916 0.930 . S
C1930 C1928 1.395 1_554 S
C1930 C1933 1.403 . S
C1931 C1928 1.403 1_565 S
C1931 C1932 1.524 . S
C1931 C1935 1.400 . S
C1932 H1917 0.960 . S
C1932 H1918 0.960 . S
C1932 H1919 0.960 . S
C1932 C1931 1.524 . S
C1933 C1930 1.403 . S
C1933 C1934 1.392 1_544 S
C1933 C1937 1.495 . S
C1934 C1933 1.392 1_566 S
C1934 C1935 1.385 . S
C1934 C1936 1.478 . S
C1935 H1929 0.930 . S
C1935 C1931 1.400 . S
C1935 C1934 1.385 . S
C1936 C1934 1.478 . S
C1936 C1938 1.381 1_556 S
C1936 C1942 1.383 . S
C1937 C1933 1.495 . S
C1937 H1943 0.959 . S
C1937 H1944 0.961 . S
C1937 H1945 0.960 . S
C1938 C1936 1.381 1_554 S
C1938 C1939 1.394 . S
C1938 H1946 0.930 . S
C1939 C1938 1.394 . S
C1939 C1940 1.383 1_554 S
C1939 H1947 0.929 . S
C1940 C1939 1.383 1_556 S
C1940 C1941 1.377 . S
C1941 H1925 0.930 . S
C1941 C1940 1.377 . S
C1941 C1942 1.379 . S
C1942 H1926 0.931 . S
C1942 C1936 1.383 . S
C1942 C1941 1.379 . S
H1943 C1937 0.959 . S
H1944 C1937 0.961 . S
H1945 C1937 0.960 . S
H1946 C1938 0.930 . S
H1947 C1939 0.929 . S
H1948 C1956 0.929 . S
H1949 C1958 0.930 . S
H1950 C1960 0.930 . S
H1951 C1963 0.929 . S
H1952 C1966 0.930 . S
H1953 C1968 0.960 . S
H1954 C1968 0.960 . S
H1955 C1968 0.960 . S
C1956 H1948 0.929 . S
C1956 C1957 1.377 . S
C1956 C1958 1.384 . S
C1957 C1956 1.377 . S
C1957 C1963 1.390 . S
C1958 H1949 0.930 . S
C1958 C1956 1.384 . S
C1958 C1959 1.372 . S
C1959 C1958 1.372 . S
C1959 C1960 1.400 . S
C1959 C1964 1.490 . S
C1960 H1950 0.930 . S
C1960 C1959 1.400 . S
C1960 C1963 1.386 . S
H1961 C1977 0.930 . S
H1962 C1978 0.931 . S
C1963 H1951 0.929 . S
C1963 C1957 1.390 . S
C1963 C1960 1.386 . S
C1964 C1959 1.490 . S
C1964 C1966 1.395 . S
C1964 C1967 1.403 . S
H1965 C1971 0.930 . S
C1966 H1952 0.930 . S
C1966 C1964 1.395 . S
C1966 C1969 1.403 . S
C1967 C1964 1.403 . S
C1967 C1968 1.524 . S
C1967 C1971 1.400 . S
C1968 H1953 0.960 . S
C1968 H1954 0.960 . S
C1968 H1955 0.960 . S
C1968 C1967 1.524 . S
C1969 C1966 1.403 . S
C1969 C1970 1.392 . S
C1969 C1973 1.495 . S
C1970 C1969 1.392 . S
C1970 C1971 1.385 . S
C1970 C1972 1.478 . S
C1971 H1965 0.930 . S
C1971 C1967 1.400 . S
C1971 C1970 1.385 . S
C1972 C1970 1.478 . S
C1972 C1974 1.381 . S
C1972 C1978 1.383 . S
C1973 C1969 1.495 . S
C1973 H1979 0.959 . S
C1973 H1980 0.961 . S
C1973 H1981 0.960 . S
C1974 C1972 1.381 . S
C1974 C1975 1.394 . S
C1974 H1982 0.930 . S
C1975 C1974 1.394 . S
C1975 C1976 1.383 . S
C1975 H1983 0.929 . S
C1976 C1975 1.383 . S
C1976 C1977 1.377 . S
C1977 H1961 0.930 . S
C1977 C1976 1.377 . S
C1977 C1978 1.379 . S
C1978 H1962 0.931 . S
C1978 C1972 1.383 . S
C1978 C1977 1.379 . S
H1979 C1973 0.959 . S
H1980 C1973 0.961 . S
H1981 C1973 0.960 . S
H1982 C1974 0.930 . S
H1983 C1975 0.929 . S
H1984 C1992 0.929 . S
H1985 C1994 0.930 . S
H1986 C1996 0.930 1_565 S
H1987 C1999 0.929 . S
H1988 C2002 0.930 . S
H1989 C2004 0.960 . S
H1990 C2004 0.960 . S
H1991 C2004 0.960 1_565 S
C1992 H1984 0.929 . S
C1992 C1993 1.352 1_545 S
C1992 C1994 1.384 . S
C1993 C1992 1.352 1_565 S
C1993 C1999 1.402 . S
C1994 H1985 0.930 . S
C1994 C1992 1.384 . S
C1994 C1995 1.372 . S
C1995 C1994 1.372 . S
C1995 C1996 1.400 . S
C1995 C2000 1.490 . S
C1996 H1986 0.930 1_545 S
C1996 C1995 1.400 . S
C1996 C1999 1.386 1_545 S
H1997 C2013 0.930 . S
H1998 C2014 0.931 . S
C1999 H1987 0.929 . S
C1999 C1993 1.402 . S
C1999 C1996 1.386 1_565 S
C2000 C1995 1.490 . S
C2000 C2002 1.395 . S
C2000 C2003 1.403 . S
H2001 C2007 0.930 . S
C2002 H1988 0.930 . S
C2002 C2000 1.395 . S
C2002 C2005 1.403 . S
C2003 C2000 1.403 . S
C2003 C2004 1.524 . S
C2003 C2007 1.400 . S
C2004 H1989 0.960 . S
C2004 H1990 0.960 . S
C2004 H1991 0.960 1_545 S
C2004 C2003 1.524 . S
C2005 C2002 1.403 . S
C2005 C2006 1.392 . S
C2005 C2009 1.495 . S
C2006 C2005 1.392 . S
C2006 C2007 1.385 . S
C2006 C2008 1.478 . S
C2007 H2001 0.930 . S
C2007 C2003 1.400 . S
C2007 C2006 1.385 . S
C2008 C2006 1.478 . S
C2008 C2010 1.381 . S
C2008 C2014 1.383 . S
C2009 C2005 1.495 . S
C2009 H2015 0.959 . S
C2009 H2016 0.961 . S
C2009 H2017 0.960 . S
C2010 C2008 1.381 . S
C2010 C2011 1.394 . S
C2010 H2018 0.930 . S
C2011 C2010 1.394 . S
C2011 C2012 1.383 . S
C2011 H2019 0.929 . S
C2012 C2011 1.383 . S
C2012 C2013 1.377 . S
C2013 H1997 0.930 . S
C2013 C2012 1.377 . S
C2013 C2014 1.379 . S
C2014 H1998 0.931 . S
C2014 C2008 1.383 . S
C2014 C2013 1.379 . S
H2015 C2009 0.959 . S
H2016 C2009 0.961 . S
H2017 C2009 0.960 . S
H2018 C2010 0.930 . S
H2019 C2011 0.929 . S
H2020 C2028 0.929 . S
H2021 C2030 0.930 . S
H2022 C2032 0.930 . S
H2023 C2035 0.929 . S
H2024 C2038 0.930 . S
H2025 C2040 0.960 . S
H2026 C2040 0.960 . S
H2027 C2040 0.960 . S
C2028 H2020 0.929 . S
C2028 C2029 1.377 . S
C2028 C2030 1.384 . S
C2029 C2028 1.377 . S
C2029 C2035 1.390 . S
C2030 H2021 0.930 . S
C2030 C2028 1.384 . S
C2030 C2031 1.372 . S
C2031 C2030 1.372 . S
C2031 C2032 1.400 . S
C2031 C2036 1.490 . S
C2032 H2022 0.930 . S
C2032 C2031 1.400 . S
C2032 C2035 1.386 . S
H2033 C2049 0.930 . S
H2034 C2050 0.931 . S
C2035 H2023 0.929 . S
C2035 C2029 1.390 . S
C2035 C2032 1.386 . S
C2036 C2031 1.490 . S
C2036 C2038 1.395 . S
C2036 C2039 1.403 . S
H2037 C2043 0.930 . S
C2038 H2024 0.930 . S
C2038 C2036 1.395 . S
C2038 C2041 1.403 . S
C2039 C2036 1.403 . S
C2039 C2040 1.524 . S
C2039 C2043 1.400 . S
C2040 H2025 0.960 . S
C2040 H2026 0.960 . S
C2040 H2027 0.960 . S
C2040 C2039 1.524 . S
C2041 C2038 1.403 . S
C2041 C2042 1.392 . S
C2041 C2045 1.495 . S
C2042 C2041 1.392 . S
C2042 C2043 1.385 . S
C2042 C2044 1.478 . S
C2043 H2037 0.930 . S
C2043 C2039 1.400 . S
C2043 C2042 1.385 . S
C2044 C2042 1.478 . S
C2044 C2046 1.381 . S
C2044 C2050 1.383 . S
C2045 C2041 1.495 . S
C2045 H2051 0.959 . S
C2045 H2052 0.961 . S
C2045 H2053 0.960 . S
C2046 C2044 1.381 . S
C2046 C2047 1.394 . S
C2046 H2054 0.930 . S
C2047 C2046 1.394 . S
C2047 C2048 1.383 . S
C2047 H2055 0.929 . S
C2048 C2047 1.383 . S
C2048 C2049 1.377 . S
C2049 H2033 0.930 . S
C2049 C2048 1.377 . S
C2049 C2050 1.379 . S
C2050 H2034 0.931 . S
C2050 C2044 1.383 . S
C2050 C2049 1.379 . S
H2051 C2045 0.959 . S
H2052 C2045 0.961 . S
H2053 C2045 0.960 . S
H2054 C2046 0.930 . S
H2055 C2047 0.929 . S
H2056 C2064 0.932 . S
H2057 C2066 0.930 . S
H2058 C2068 0.930 . S
H2059 C2071 0.929 . S
H2060 C2074 0.930 . S
H2061 C2076 0.960 . S
H2062 C2076 0.960 . S
H2063 C2076 0.960 . S
C2064 H2056 0.932 . S
C2064 C2065 1.377 . S
C2064 C2066 1.384 1_565 S
C2065 C2064 1.377 . S
C2065 C2071 1.390 . S
C2066 H2057 0.930 . S
C2066 C2064 1.384 1_545 S
C2066 C2067 1.372 . S
C2067 C2066 1.372 . S
C2067 C2068 1.400 1_545 S
C2067 C2072 1.490 . S
C2068 H2058 0.930 . S
C2068 C2067 1.400 1_565 S
C2068 C2071 1.386 . S
H2069 C2085 0.930 . S
H2070 C2086 0.931 . S
C2071 H2059 0.929 . S
C2071 C2065 1.390 . S
C2071 C2068 1.386 . S
C2072 C2067 1.490 . S
C2072 C2074 1.395 . S
C2072 C2075 1.403 . S
H2073 C2079 0.930 . S
C2074 H2060 0.930 . S
C2074 C2072 1.395 . S
C2074 C2077 1.403 . S
C2075 C2072 1.403 . S
C2075 C2076 1.524 1_545 S
C2075 C2079 1.400 . S
C2076 H2061 0.960 . S
C2076 H2062 0.960 . S
C2076 H2063 0.960 . S
C2076 C2075 1.524 1_565 S
C2077 C2074 1.403 . S
C2077 C2078 1.392 . S
C2077 C2081 1.495 . S
C2078 C2077 1.392 . S
C2078 C2079 1.385 . S
C2078 C2080 1.478 . S
C2079 H2073 0.930 . S
C2079 C2075 1.400 . S
C2079 C2078 1.385 . S
C2080 C2078 1.478 . S
C2080 C2082 1.381 . S
C2080 C2086 1.383 . S
C2081 C2077 1.495 . S
C2081 H2087 0.959 . S
C2081 H2088 0.961 . S
C2081 H2089 0.960 . S
C2082 C2080 1.381 . S
C2082 C2083 1.394 . S
C2082 H2090 0.930 . S
C2083 C2082 1.394 . S
C2083 C2084 1.383 . S
C2083 H2091 0.929 . S
C2084 C2083 1.383 . S
C2084 C2085 1.377 . S
C2085 H2069 0.930 . S
C2085 C2084 1.377 . S
C2085 C2086 1.379 . S
C2086 H2070 0.931 . S
C2086 C2080 1.383 . S
C2086 C2085 1.379 . S
H2087 C2081 0.959 . S
H2088 C2081 0.961 . S
H2089 C2081 0.960 . S
H2090 C2082 0.930 . S
H2091 C2083 0.929 . S
H2092 C2100 0.929 . S
H2093 C2102 0.930 . S
H2094 C2104 0.930 . S
H2095 C2107 0.929 . S
H2096 C2110 0.930 . S
H2097 C2112 0.960 . S
H2098 C2112 0.960 . S
H2099 C2112 0.960 . S
C2100 H2092 0.929 . S
C2100 C2101 1.377 . S
C2100 C2102 1.384 . S
C2101 C2100 1.377 . S
C2101 C2107 1.390 . S
C2102 H2093 0.930 . S
C2102 C2100 1.384 . S
C2102 C2103 1.372 . S
C2103 C2102 1.372 . S
C2103 C2104 1.400 . S
C2103 C2108 1.490 . S
C2104 H2094 0.930 . S
C2104 C2103 1.400 . S
C2104 C2107 1.386 . S
H2105 C2121 0.930 . S
H2106 C2122 0.931 . S
C2107 H2095 0.929 . S
C2107 C2101 1.390 . S
C2107 C2104 1.386 . S
C2108 C2103 1.490 . S
C2108 C2110 1.395 . S
C2108 C2111 1.403 . S
H2109 C2115 0.930 . S
C2110 H2096 0.930 . S
C2110 C2108 1.395 . S
C2110 C2113 1.403 . S
C2111 C2108 1.403 . S
C2111 C2112 1.524 . S
C2111 C2115 1.400 . S
C2112 H2097 0.960 . S
C2112 H2098 0.960 . S
C2112 H2099 0.960 . S
C2112 C2111 1.524 . S
C2113 C2110 1.403 . S
C2113 C2114 1.392 . S
C2113 C2117 1.495 . S
C2114 C2113 1.392 . S
C2114 C2115 1.385 . S
C2114 C2116 1.478 . S
C2115 H2109 0.930 . S
C2115 C2111 1.400 . S
C2115 C2114 1.385 . S
C2116 C2114 1.478 . S
C2116 C2118 1.381 . S
C2116 C2122 1.383 . S
C2117 C2113 1.495 . S
C2117 H2123 0.959 . S
C2117 H2124 0.961 . S
C2117 H2125 0.960 . S
C2118 C2116 1.381 . S
C2118 C2119 1.394 . S
C2118 H2126 0.930 . S
C2119 C2118 1.394 . S
C2119 C2120 1.383 . S
C2119 H2127 0.929 . S
C2120 C2119 1.383 . S
C2120 C2121 1.377 . S
C2121 H2105 0.930 . S
C2121 C2120 1.377 . S
C2121 C2122 1.379 . S
C2122 H2106 0.931 . S
C2122 C2116 1.383 . S
C2122 C2121 1.379 . S
H2123 C2117 0.959 . S
H2124 C2117 0.961 . S
H2125 C2117 0.960 . S
H2126 C2118 0.930 . S
H2127 C2119 0.929 . S
H2128 C2136 0.929 . S
H2129 C2138 0.930 . S
H2130 C2140 0.930 . S
H2131 C2143 0.929 . S
H2132 C2146 0.930 . S
H2133 C2148 0.960 . S
H2134 C2148 0.960 . S
H2135 C2148 0.960 . S
C2136 H2128 0.929 . S
C2136 C2137 1.377 . S
C2136 C2138 1.384 . S
C2137 C2136 1.377 . S
C2137 C2143 1.390 . S
C2138 H2129 0.930 . S
C2138 C2136 1.384 . S
C2138 C2139 1.372 . S
C2139 C2138 1.372 . S
C2139 C2140 1.400 . S
C2139 C2144 1.490 . S
C2140 H2130 0.930 . S
C2140 C2139 1.400 . S
C2140 C2143 1.386 . S
H2141 C2157 0.930 . S
H2142 C2158 0.931 . S
C2143 H2131 0.929 . S
C2143 C2137 1.390 . S
C2143 C2140 1.386 . S
C2144 C2139 1.490 . S
C2144 C2146 1.395 . S
C2144 C2147 1.403 . S
H2145 C2151 0.930 . S
C2146 H2132 0.930 . S
C2146 C2144 1.395 . S
C2146 C2149 1.403 . S
C2147 C2144 1.403 . S
C2147 C2148 1.524 . S
C2147 C2151 1.400 . S
C2148 H2133 0.960 . S
C2148 H2134 0.960 . S
C2148 H2135 0.960 . S
C2148 C2147 1.524 . S
C2149 C2146 1.403 . S
C2149 C2150 1.392 . S
C2149 C2153 1.495 . S
C2150 C2149 1.392 . S
C2150 C2151 1.385 . S
C2150 C2152 1.478 . S
C2151 H2145 0.930 . S
C2151 C2147 1.400 . S
C2151 C2150 1.385 . S
C2152 C2150 1.478 . S
C2152 C2154 1.381 . S
C2152 C2158 1.383 . S
C2153 C2149 1.495 . S
C2153 H2159 0.959 . S
C2153 H2160 0.961 . S
C2153 H2161 0.960 . S
C2154 C2152 1.381 . S
C2154 C2155 1.394 . S
C2154 H2162 0.930 . S
C2155 C2154 1.394 . S
C2155 C2156 1.383 . S
C2155 H2163 0.929 . S
C2156 C2155 1.383 . S
C2156 C2157 1.377 . S
C2157 H2141 0.930 . S
C2157 C2156 1.377 . S
C2157 C2158 1.379 . S
C2158 H2142 0.931 . S
C2158 C2152 1.383 . S
C2158 C2157 1.379 . S
H2159 C2153 0.959 . S
H2160 C2153 0.961 . S
H2161 C2153 0.960 . S
H2162 C2154 0.930 . S
H2163 C2155 0.929 . S
H2164 C2172 0.929 . S
H2165 C2174 0.930 . S
H2166 C2176 0.930 . S
H2167 C2179 0.929 . S
H2168 C2182 0.930 . S
H2169 C2184 0.960 . S
H2170 C2184 0.960 . S
H2171 C2184 0.960 . S
C2172 H2164 0.929 . S
C2172 C2173 1.377 . S
C2172 C2174 1.384 . S
C2173 C2172 1.377 . S
C2173 C2179 1.390 . S
C2174 H2165 0.930 . S
C2174 C2172 1.384 . S
C2174 C2175 1.372 . S
C2175 C2174 1.372 . S
C2175 C2176 1.400 . S
C2175 C2180 1.490 . S
C2176 H2166 0.930 . S
C2176 C2175 1.400 . S
C2176 C2179 1.386 . S
H2177 C2193 0.930 . S
H2178 C2194 0.931 . S
C2179 H2167 0.929 . S
C2179 C2173 1.390 . S
C2179 C2176 1.386 . S
C2180 C2175 1.490 . S
C2180 C2182 1.395 . S
C2180 C2183 1.403 . S
H2181 C2187 0.930 . S
C2182 H2168 0.930 . S
C2182 C2180 1.395 . S
C2182 C2185 1.403 . S
C2183 C2180 1.403 . S
C2183 C2184 1.524 . S
C2183 C2187 1.400 . S
C2184 H2169 0.960 . S
C2184 H2170 0.960 . S
C2184 H2171 0.960 . S
C2184 C2183 1.524 . S
C2185 C2182 1.403 . S
C2185 C2186 1.392 . S
C2185 C2189 1.495 . S
C2186 C2185 1.392 . S
C2186 C2187 1.385 . S
C2186 C2188 1.478 . S
C2187 H2181 0.930 . S
C2187 C2183 1.400 . S
C2187 C2186 1.385 . S
C2188 C2186 1.478 . S
C2188 C2190 1.381 1_545 S
C2188 C2194 1.383 . S
C2189 C2185 1.495 . S
C2189 H2195 0.959 . S
C2189 H2196 0.961 . S
C2189 H2197 0.889 1_545 S
C2190 C2188 1.381 1_565 S
C2190 C2191 1.394 . S
C2190 H2198 0.930 . S
C2191 C2190 1.394 . S
C2191 C2192 1.383 1_565 S
C2191 H2199 0.929 . S
C2192 C2191 1.383 1_545 S
C2192 C2193 1.377 . S
C2193 H2177 0.930 . S
C2193 C2192 1.377 . S
C2193 C2194 1.379 . S
C2194 H2178 0.931 . S
C2194 C2188 1.383 . S
C2194 C2193 1.379 . S
H2195 C2189 0.959 . S
H2196 C2189 0.961 . S
H2197 C2189 0.889 1_565 S
H2198 C2190 0.930 . S
H2199 C2191 0.929 . S
H2200 C2208 0.929 . S
H2201 C2210 0.930 . S
H2202 C2212 0.930 . S
H2203 C2215 0.929 . S
H2204 C2218 0.930 . S
H2205 C2220 0.960 . S
H2206 C2220 0.960 . S
H2207 C2220 0.960 . S
C2208 H2200 0.929 . S
C2208 C2209 1.377 . S
C2208 C2210 1.384 . S
C2209 C2208 1.377 . S
C2209 C2215 1.390 . S
C2210 H2201 0.930 . S
C2210 C2208 1.384 . S
C2210 C2211 1.372 . S
C2211 C2210 1.372 . S
C2211 C2212 1.400 . S
C2211 C2216 1.490 . S
C2212 H2202 0.930 . S
C2212 C2211 1.400 . S
C2212 C2215 1.386 . S
H2213 C2229 0.930 . S
H2214 C2230 0.931 . S
C2215 H2203 0.929 . S
C2215 C2209 1.390 . S
C2215 C2212 1.386 . S
C2216 C2211 1.490 . S
C2216 C2218 1.395 . S
C2216 C2219 1.403 . S
H2217 C2223 0.930 . S
C2218 H2204 0.930 . S
C2218 C2216 1.395 . S
C2218 C2221 1.403 . S
C2219 C2216 1.403 . S
C2219 C2220 1.524 . S
C2219 C2223 1.400 . S
C2220 H2205 0.960 . S
C2220 H2206 0.960 . S
C2220 H2207 0.960 . S
C2220 C2219 1.524 . S
C2221 C2218 1.403 . S
C2221 C2222 1.392 . S
C2221 C2225 1.495 . S
C2222 C2221 1.392 . S
C2222 C2223 1.385 . S
C2222 C2224 1.478 . S
C2223 H2217 0.930 . S
C2223 C2219 1.400 . S
C2223 C2222 1.385 . S
C2224 C2222 1.478 . S
C2224 C2226 1.381 . S
C2224 C2230 1.383 . S
C2225 C2221 1.495 . S
C2225 H2231 0.959 . S
C2225 H2232 0.961 . S
C2225 H2233 0.960 . S
C2226 C2224 1.381 . S
C2226 C2227 1.394 . S
C2226 H2234 0.930 . S
C2227 C2226 1.394 . S
C2227 C2228 1.383 . S
C2227 H2235 0.929 . S
C2228 C2227 1.383 . S
C2228 C2229 1.377 . S
C2229 H2213 0.930 . S
C2229 C2228 1.377 . S
C2229 C2230 1.379 . S
C2230 H2214 0.931 . S
C2230 C2224 1.383 . S
C2230 C2229 1.379 . S
H2231 C2225 0.959 . S
H2232 C2225 0.961 . S
H2233 C2225 0.960 . S
H2234 C2226 0.930 . S
H2235 C2227 0.929 . S
H2236 C2244 0.929 . S
H2237 C2246 0.930 . S
H2238 C2248 0.930 . S
H2239 C2251 0.929 . S
H2240 C2254 0.930 . S
H2241 C2256 0.960 . S
H2242 C2256 0.960 . S
H2243 C2256 0.960 . S
C2244 H2236 0.929 . S
C2244 C2245 1.377 . S
C2244 C2246 1.384 . S
C2245 C2244 1.377 . S
C2245 C2251 1.390 . S
C2246 H2237 0.930 . S
C2246 C2244 1.384 . S
C2246 C2247 1.372 . S
C2247 C2246 1.372 . S
C2247 C2248 1.400 . S
C2247 C2252 1.490 . S
C2248 H2238 0.930 . S
C2248 C2247 1.400 . S
C2248 C2251 1.386 . S
H2249 C2265 0.930 . S
H2250 C2266 0.931 . S
C2251 H2239 0.929 . S
C2251 C2245 1.390 . S
C2251 C2248 1.386 . S
C2252 C2247 1.490 . S
C2252 C2254 1.395 . S
C2252 C2255 1.403 . S
H2253 C2259 0.930 . S
C2254 H2240 0.930 . S
C2254 C2252 1.395 . S
C2254 C2257 1.403 . S
C2255 C2252 1.403 . S
C2255 C2256 1.524 . S
C2255 C2259 1.400 . S
C2256 H2241 0.960 . S
C2256 H2242 0.960 . S
C2256 H2243 0.960 . S
C2256 C2255 1.524 . S
C2257 C2254 1.403 . S
C2257 C2258 1.392 . S
C2257 C2261 1.495 . S
C2258 C2257 1.392 . S
C2258 C2259 1.385 . S
C2258 C2260 1.478 . S
C2259 H2253 0.930 . S
C2259 C2255 1.400 . S
C2259 C2258 1.385 . S
C2260 C2258 1.478 . S
C2260 C2262 1.381 . S
C2260 C2266 1.383 . S
C2261 C2257 1.495 . S
C2261 H2267 0.959 . S
C2261 H2268 0.961 . S
C2261 H2269 0.960 . S
C2262 C2260 1.381 . S
C2262 C2263 1.394 . S
C2262 H2270 0.930 . S
C2263 C2262 1.394 . S
C2263 C2264 1.383 . S
C2263 H2271 0.929 . S
C2264 C2263 1.383 . S
C2264 C2265 1.377 . S
C2265 H2249 0.930 . S
C2265 C2264 1.377 . S
C2265 C2266 1.379 . S
C2266 H2250 0.931 . S
C2266 C2260 1.383 . S
C2266 C2265 1.379 . S
H2267 C2261 0.959 . S
H2268 C2261 0.961 . S
H2269 C2261 0.960 . S
H2270 C2262 0.930 . S
H2271 C2263 0.929 . S
H2272 C2280 0.929 . S
H2273 C2282 0.930 . S
H2274 C2284 0.930 . S
H2275 C2287 0.929 . S
H2276 C2290 0.930 . S
H2277 C2292 0.960 . S
H2278 C2292 0.960 . S
H2279 C2292 0.960 . S
C2280 H2272 0.929 . S
C2280 C2281 1.377 . S
C2280 C2282 1.384 . S
C2281 C2280 1.377 . S
C2281 C2287 1.390 . S
C2282 H2273 0.930 . S
C2282 C2280 1.384 . S
C2282 C2283 1.372 . S
C2283 C2282 1.372 . S
C2283 C2284 1.400 . S
C2283 C2288 1.490 . S
C2284 H2274 0.930 . S
C2284 C2283 1.400 . S
C2284 C2287 1.386 . S
H2285 C2301 0.930 . S
H2286 C2302 0.931 . S
C2287 H2275 0.929 . S
C2287 C2281 1.390 . S
C2287 C2284 1.386 . S
C2288 C2283 1.490 . S
C2288 C2290 1.395 . S
C2288 C2291 1.403 . S
H2289 C2295 0.930 . S
C2290 H2276 0.930 . S
C2290 C2288 1.395 . S
C2290 C2293 1.403 . S
C2291 C2288 1.403 . S
C2291 C2292 1.524 . S
C2291 C2295 1.400 . S
C2292 H2277 0.960 . S
C2292 H2278 0.960 . S
C2292 H2279 0.960 . S
C2292 C2291 1.524 . S
C2293 C2290 1.403 . S
C2293 C2294 1.392 . S
C2293 C2297 1.495 . S
C2294 C2293 1.392 . S
C2294 C2295 1.385 . S
C2294 C2296 1.478 . S
C2295 H2289 0.930 . S
C2295 C2291 1.400 . S
C2295 C2294 1.385 . S
C2296 C2294 1.478 . S
C2296 C2298 1.381 . S
C2296 C2302 1.383 . S
C2297 C2293 1.495 . S
C2297 H2303 0.959 . S
C2297 H2304 0.961 . S
C2297 H2305 0.960 . S
C2298 C2296 1.381 . S
C2298 C2299 1.394 . S
C2298 H2306 0.930 . S
C2299 C2298 1.394 . S
C2299 C2300 1.383 . S
C2299 H2307 0.929 . S
C2300 C2299 1.383 . S
C2300 C2301 1.377 . S
C2301 H2285 0.930 . S
C2301 C2300 1.377 . S
C2301 C2302 1.379 . S
C2302 H2286 0.931 . S
C2302 C2296 1.383 . S
C2302 C2301 1.379 . S
H2303 C2297 0.959 . S
H2304 C2297 0.961 . S
H2305 C2297 0.960 . S
H2306 C2298 0.930 . S
H2307 C2299 0.929 . S
H2308 C2316 0.930 1_455 S
H2309 C2318 0.930 . S
H2310 C2320 0.930 . S
H2311 C2323 0.929 . S
H2312 C2326 0.930 . S
H2313 C2328 0.960 . S
H2314 C2328 0.960 . S
H2315 C2328 0.960 . S
C2316 H2308 0.930 1_655 S
C2316 C2317 1.378 1_655 S
C2316 C2318 1.382 . S
C2317 C2316 1.378 1_455 S
C2317 C2323 1.390 1_455 S
C2318 H2309 0.930 . S
C2318 C2316 1.382 . S
C2318 C2319 1.372 . S
C2319 C2318 1.372 . S
C2319 C2320 1.400 . S
C2319 C2324 1.490 . S
C2320 H2310 0.930 . S
C2320 C2319 1.400 . S
C2320 C2323 1.386 . S
H2321 C2337 0.930 . S
H2322 C2338 0.931 . S
C2323 H2311 0.929 . S
C2323 C2317 1.390 1_655 S
C2323 C2320 1.386 . S
C2324 C2319 1.490 . S
C2324 C2326 1.395 . S
C2324 C2327 1.403 . S
H2325 C2331 0.930 . S
C2326 H2312 0.930 . S
C2326 C2324 1.395 . S
C2326 C2329 1.403 . S
C2327 C2324 1.403 . S
C2327 C2328 1.524 . S
C2327 C2331 1.400 . S
C2328 H2313 0.960 . S
C2328 H2314 0.960 . S
C2328 H2315 0.960 . S
C2328 C2327 1.524 . S
C2329 C2326 1.403 . S
C2329 C2330 1.392 . S
C2329 C2333 1.495 . S
C2330 C2329 1.392 . S
C2330 C2331 1.385 . S
C2330 C2332 1.478 . S
C2331 H2325 0.930 . S
C2331 C2327 1.400 . S
C2331 C2330 1.385 . S
C2332 C2330 1.478 . S
C2332 C2334 1.381 . S
C2332 C2338 1.383 . S
C2333 C2329 1.495 . S
C2333 H2339 0.959 . S
C2333 H2340 0.961 . S
C2333 H2341 0.960 . S
C2334 C2332 1.381 . S
C2334 C2335 1.394 . S
C2334 H2342 0.930 . S
C2335 C2334 1.394 . S
C2335 C2336 1.383 . S
C2335 H2343 0.929 . S
C2336 C2335 1.383 . S
C2336 C2337 1.377 . S
C2337 H2321 0.930 . S
C2337 C2336 1.377 . S
C2337 C2338 1.379 . S
C2338 H2322 0.931 . S
C2338 C2332 1.383 . S
C2338 C2337 1.379 . S
H2339 C2333 0.959 . S
H2340 C2333 0.961 . S
H2341 C2333 0.960 . S
H2342 C2334 0.930 . S
H2343 C2335 0.929 . S
H2344 C2352 0.929 . S
H2345 C2354 0.930 . S
H2346 C2356 0.930 . S
H2347 C2359 0.929 . S
H2348 C2362 0.930 . S
H2349 C2364 0.960 . S
H2350 C2364 0.960 . S
H2351 C2364 0.960 . S
C2352 H2344 0.929 . S
C2352 C2353 1.377 . S
C2352 C2354 1.384 . S
C2353 C2352 1.377 . S
C2353 C2359 1.390 . S
C2354 H2345 0.930 . S
C2354 C2352 1.384 . S
C2354 C2355 1.372 . S
C2355 C2354 1.372 . S
C2355 C2356 1.400 . S
C2355 C2360 1.490 . S
C2356 H2346 0.930 . S
C2356 C2355 1.400 . S
C2356 C2359 1.386 . S
H2357 C2373 0.930 . S
H2358 C2374 0.931 . S
C2359 H2347 0.929 . S
C2359 C2353 1.390 . S
C2359 C2356 1.386 . S
C2360 C2355 1.490 . S
C2360 C2362 1.395 . S
C2360 C2363 1.403 . S
H2361 C2367 0.930 . S
C2362 H2348 0.930 . S
C2362 C2360 1.395 . S
C2362 C2365 1.403 . S
C2363 C2360 1.403 . S
C2363 C2364 1.524 . S
C2363 C2367 1.400 . S
C2364 H2349 0.960 . S
C2364 H2350 0.960 . S
C2364 H2351 0.960 . S
C2364 C2363 1.524 . S
C2365 C2362 1.403 . S
C2365 C2366 1.392 . S
C2365 C2369 1.495 . S
C2366 C2365 1.392 . S
C2366 C2367 1.385 . S
C2366 C2368 1.478 . S
C2367 H2361 0.930 . S
C2367 C2363 1.400 . S
C2367 C2366 1.385 . S
C2368 C2366 1.478 . S
C2368 C2370 1.381 . S
C2368 C2374 1.383 . S
C2369 C2365 1.495 . S
C2369 H2375 0.959 . S
C2369 H2376 0.961 . S
C2369 H2377 0.960 . S
C2370 C2368 1.381 . S
C2370 C2371 1.394 . S
C2370 H2378 0.930 . S
C2371 C2370 1.394 . S
C2371 C2372 1.383 . S
C2371 H2379 0.929 . S
C2372 C2371 1.383 . S
C2372 C2373 1.377 . S
C2373 H2357 0.930 . S
C2373 C2372 1.377 . S
C2373 C2374 1.379 . S
C2374 H2358 0.931 . S
C2374 C2368 1.383 . S
C2374 C2373 1.379 . S
H2375 C2369 0.959 . S
H2376 C2369 0.961 . S
H2377 C2369 0.960 . S
H2378 C2370 0.930 . S
H2379 C2371 0.929 . S
H2380 C2388 0.929 . S
H2381 C2390 0.930 . S
H2382 C2392 0.930 . S
H2383 C2395 0.929 1_655 S
H2384 C2398 0.930 . S
H2385 C2400 0.960 . S
H2386 C2400 0.960 . S
H2387 C2400 0.960 . S
C2388 H2380 0.929 . S
C2388 C2389 1.377 . S
C2388 C2390 1.384 . S
C2389 C2388 1.377 . S
C2389 C2395 1.390 . S
C2390 H2381 0.930 . S
C2390 C2388 1.384 . S
C2390 C2391 1.372 . S
C2391 C2390 1.372 . S
C2391 C2392 1.400 . S
C2391 C2396 1.490 . S
C2392 H2382 0.930 . S
C2392 C2391 1.400 . S
C2392 C2395 1.386 . S
H2393 C2409 0.930 . S
H2394 C2410 0.931 . S
C2395 H2383 0.929 1_455 S
C2395 C2389 1.390 . S
C2395 C2392 1.386 . S
C2396 C2391 1.490 . S
C2396 C2398 1.395 . S
C2396 C2399 1.403 . S
H2397 C2403 0.930 . S
C2398 H2384 0.930 . S
C2398 C2396 1.395 . S
C2398 C2401 1.403 . S
C2399 C2396 1.403 . S
C2399 C2400 1.524 . S
C2399 C2403 1.400 . S
C2400 H2385 0.960 . S
C2400 H2386 0.960 . S
C2400 H2387 0.960 . S
C2400 C2399 1.524 . S
C2401 C2398 1.403 . S
C2401 C2402 1.392 . S
C2401 C2405 1.495 . S
C2402 C2401 1.392 . S
C2402 C2403 1.385 . S
C2402 C2404 1.478 . S
C2403 H2397 0.930 . S
C2403 C2399 1.400 . S
C2403 C2402 1.385 . S
C2404 C2402 1.478 . S
C2404 C2406 1.381 . S
C2404 C2410 1.383 . S
C2405 C2401 1.495 . S
C2405 H2411 0.959 . S
C2405 H2412 0.961 . S
C2405 H2413 0.960 . S
C2406 C2404 1.381 . S
C2406 C2407 1.394 . S
C2406 H2414 0.930 . S
C2407 C2406 1.394 . S
C2407 C2408 1.383 . S
C2407 H2415 0.929 . S
C2408 C2407 1.383 . S
C2408 C2409 1.377 . S
C2409 H2393 0.930 . S
C2409 C2408 1.377 . S
C2409 C2410 1.379 . S
C2410 H2394 0.931 . S
C2410 C2404 1.383 . S
C2410 C2409 1.379 . S
H2411 C2405 0.959 . S
H2412 C2405 0.961 . S
H2413 C2405 0.960 . S
H2414 C2406 0.930 . S
H2415 C2407 0.929 . S
H2416 C2424 0.929 . S
H2417 C2426 0.930 . S
H2418 C2428 0.930 . S
H2419 C2431 0.929 . S
H2420 C2434 0.930 . S
H2421 C2436 0.960 . S
H2422 C2436 0.960 . S
H2423 C2436 0.960 . S
C2424 H2416 0.929 . S
C2424 C2425 1.377 . S
C2424 C2426 1.384 . S
C2425 C2424 1.377 . S
C2425 C2431 1.390 . S
C2426 H2417 0.930 . S
C2426 C2424 1.384 . S
C2426 C2427 1.372 . S
C2427 C2426 1.372 . S
C2427 C2428 1.400 . S
C2427 C2432 1.490 . S
C2428 H2418 0.930 . S
C2428 C2427 1.400 . S
C2428 C2431 1.386 . S
H2429 C2445 0.930 . S
H2430 C2446 0.931 . S
C2431 H2419 0.929 . S
C2431 C2425 1.390 . S
C2431 C2428 1.386 . S
C2432 C2427 1.490 . S
C2432 C2434 1.395 . S
C2432 C2435 1.403 . S
H2433 C2439 0.930 . S
C2434 H2420 0.930 . S
C2434 C2432 1.395 . S
C2434 C2437 1.403 . S
C2435 C2432 1.403 . S
C2435 C2436 1.524 . S
C2435 C2439 1.400 . S
C2436 H2421 0.960 . S
C2436 H2422 0.960 . S
C2436 H2423 0.960 . S
C2436 C2435 1.524 . S
C2437 C2434 1.403 . S
C2437 C2438 1.392 . S
C2437 C2441 1.495 . S
C2438 C2437 1.392 . S
C2438 C2439 1.385 . S
C2438 C2440 1.478 . S
C2439 H2433 0.930 . S
C2439 C2435 1.400 . S
C2439 C2438 1.385 . S
C2440 C2438 1.478 . S
C2440 C2442 1.381 . S
C2440 C2446 1.383 . S
C2441 C2437 1.495 . S
C2441 H2447 0.959 . S
C2441 H2448 0.961 . S
C2441 H2449 0.960 . S
C2442 C2440 1.381 . S
C2442 C2443 1.394 . S
C2442 H2450 0.930 . S
C2443 C2442 1.394 . S
C2443 C2444 1.383 . S
C2443 H2451 0.929 . S
C2444 C2443 1.383 . S
C2444 C2445 1.377 . S
C2445 H2429 0.930 . S
C2445 C2444 1.377 . S
C2445 C2446 1.379 . S
C2446 H2430 0.931 . S
C2446 C2440 1.383 . S
C2446 C2445 1.379 . S
H2447 C2441 0.959 . S
H2448 C2441 0.961 . S
H2449 C2441 0.960 . S
H2450 C2442 0.930 . S
H2451 C2443 0.929 . S
H2452 C2460 0.929 . S
H2453 C2462 0.930 . S
H2454 C2464 0.930 1_455 S
H2455 C2467 0.929 1_455 S
H2456 C2470 0.930 . S
H2457 C2472 0.960 . S
H2458 C2472 0.960 . S
H2459 C2472 0.960 . S
C2460 H2452 0.929 . S
C2460 C2461 1.377 . S
C2460 C2462 1.384 . S
C2461 C2460 1.377 . S
C2461 C2467 1.390 . S
C2462 H2453 0.930 . S
C2462 C2460 1.384 . S
C2462 C2463 1.372 . S
C2463 C2462 1.372 . S
C2463 C2464 1.400 . S
C2463 C2468 1.519 . S
C2464 H2454 0.930 1_655 S
C2464 C2463 1.400 . S
C2464 C2467 1.386 . S
H2465 C2481 0.930 . S
H2466 C2482 0.931 . S
C2467 H2455 0.929 1_655 S
C2467 C2461 1.390 . S
C2467 C2464 1.386 . S
C2468 C2463 1.519 . S
C2468 C2470 1.357 1_554 S
C2468 C2471 1.411 . S
H2469 C2475 0.930 . S
C2470 H2456 0.930 . S
C2470 C2468 1.357 1_556 S
C2470 C2473 1.403 . S
C2471 C2468 1.411 . S
C2471 C2472 1.524 . S
C2471 C2475 1.400 1_554 S
C2472 H2457 0.960 . S
C2472 H2458 0.960 . S
C2472 H2459 0.960 . S
C2472 C2471 1.524 . S
C2473 C2470 1.403 . S
C2473 C2474 1.392 . S
C2473 C2477 1.495 . S
C2474 C2473 1.392 . S
C2474 C2475 1.385 . S
C2474 C2476 1.478 . S
C2475 H2469 0.930 . S
C2475 C2471 1.400 1_556 S
C2475 C2474 1.385 . S
C2476 C2474 1.478 . S
C2476 C2478 1.381 . S
C2476 C2482 1.383 1_655 S
C2477 C2473 1.495 . S
C2477 H2483 0.959 . S
C2477 H2484 0.961 1_655 S
C2477 H2485 0.960 . S
C2478 C2476 1.381 . S
C2478 C2479 1.394 . S
C2478 H2486 0.930 . S
C2479 C2478 1.394 . S
C2479 C2480 1.383 . S
C2479 H2487 0.929 . S
C2480 C2479 1.383 . S
C2480 C2481 1.377 1_655 S
C2481 H2465 0.930 . S
C2481 C2480 1.377 1_455 S
C2481 C2482 1.379 . S
C2482 H2466 0.931 . S
C2482 C2476 1.383 1_455 S
C2482 C2481 1.379 . S
H2483 C2477 0.959 . S
H2484 C2477 0.961 1_455 S
H2485 C2477 0.960 . S
H2486 C2478 0.930 . S
H2487 C2479 0.929 . S
H2488 C2496 0.929 . S
H2489 C2498 0.930 . S
H2490 C2500 0.930 . S
H2491 C2503 0.929 . S
H2492 C2506 0.930 . S
H2493 C2508 0.960 . S
H2494 C2508 0.960 . S
H2495 C2508 0.960 . S
C2496 H2488 0.929 . S
C2496 C2497 1.377 . S
C2496 C2498 1.384 . S
C2497 C2496 1.377 . S
C2497 C2503 1.390 . S
C2498 H2489 0.930 . S
C2498 C2496 1.384 . S
C2498 C2499 1.372 . S
C2499 C2498 1.372 . S
C2499 C2500 1.400 . S
C2499 C2504 1.490 . S
C2500 H2490 0.930 . S
C2500 C2499 1.400 . S
C2500 C2503 1.386 . S
H2501 C2517 0.930 . S
H2502 C2518 0.931 . S
C2503 H2491 0.929 . S
C2503 C2497 1.390 . S
C2503 C2500 1.386 . S
C2504 C2499 1.490 . S
C2504 C2506 1.395 . S
C2504 C2507 1.403 . S
H2505 C2511 0.930 . S
C2506 H2492 0.930 . S
C2506 C2504 1.395 . S
C2506 C2509 1.403 . S
C2507 C2504 1.403 . S
C2507 C2508 1.524 . S
C2507 C2511 1.400 . S
C2508 H2493 0.960 . S
C2508 H2494 0.960 . S
C2508 H2495 0.960 . S
C2508 C2507 1.524 . S
C2509 C2506 1.403 . S
C2509 C2510 1.392 . S
C2509 C2513 1.495 . S
C2510 C2509 1.392 . S
C2510 C2511 1.385 . S
C2510 C2512 1.478 . S
C2511 H2505 0.930 . S
C2511 C2507 1.400 . S
C2511 C2510 1.385 . S
C2512 C2510 1.478 . S
C2512 C2514 1.381 . S
C2512 C2518 1.383 . S
C2513 C2509 1.495 . S
C2513 H2519 0.959 . S
C2513 H2520 0.961 . S
C2513 H2521 0.960 . S
C2514 C2512 1.381 . S
C2514 C2515 1.394 . S
C2514 H2522 0.930 . S
C2515 C2514 1.394 . S
C2515 C2516 1.383 . S
C2515 H2523 0.929 . S
C2516 C2515 1.383 . S
C2516 C2517 1.377 . S
C2517 H2501 0.930 . S
C2517 C2516 1.377 . S
C2517 C2518 1.379 . S
C2518 H2502 0.931 . S
C2518 C2512 1.383 . S
C2518 C2517 1.379 . S
H2519 C2513 0.959 . S
H2520 C2513 0.961 . S
H2521 C2513 0.960 . S
H2522 C2514 0.930 . S
H2523 C2515 0.929 . S
H2524 C2532 0.929 1_655 S
H2525 C2534 0.903 1_655 S
H2526 C2536 0.944 . S
H2527 C2539 0.929 . S
H2528 C2542 0.952 1_554 S
H2529 C2544 0.960 . S
H2530 C2544 0.960 . S
H2531 C2544 0.960 . S
C2532 H2524 0.929 1_455 S
C2532 C2533 1.377 . S
C2532 C2534 1.391 . S
C2533 C2532 1.377 . S
C2533 C2539 1.390 . S
C2534 H2525 0.903 1_455 S
C2534 C2532 1.391 . S
C2534 C2535 1.396 1_554 S
C2535 C2534 1.396 1_556 S
C2535 C2536 1.405 . S
C2535 C2540 1.490 . S
C2536 H2526 0.944 . S
C2536 C2535 1.405 . S
C2536 C2539 1.368 1_556 S
H2537 C2553 0.930 . S
H2538 C2554 0.931 . S
C2539 H2527 0.929 . S
C2539 C2533 1.390 . S
C2539 C2536 1.368 1_554 S
C2540 C2535 1.490 . S
C2540 C2542 1.395 . S
C2540 C2543 1.403 . S
H2541 C2547 0.930 . S
C2542 H2528 0.952 1_556 S
C2542 C2540 1.395 . S
C2542 C2545 1.403 . S
C2543 C2540 1.403 . S
C2543 C2544 1.524 . S
C2543 C2547 1.400 . S
C2544 H2529 0.960 . S
C2544 H2530 0.960 . S
C2544 H2531 0.960 . S
C2544 C2543 1.524 . S
C2545 C2542 1.403 . S
C2545 C2546 1.392 . S
C2545 C2549 1.495 1_455 S
C2546 C2545 1.392 . S
C2546 C2547 1.385 . S
C2546 C2548 1.478 . S
C2547 H2541 0.930 . S
C2547 C2543 1.400 . S
C2547 C2546 1.385 . S
C2548 C2546 1.478 . S
C2548 C2550 1.381 1_455 S
C2548 C2554 1.383 . S
C2549 C2545 1.495 1_655 S
C2549 H2555 0.959 1_556 S
C2549 H2556 0.961 1_655 S
C2549 H2557 0.960 . S
C2550 C2548 1.381 1_655 S
C2550 C2551 1.394 . S
C2550 H2558 0.930 . S
C2551 C2550 1.394 . S
C2551 C2552 1.383 1_655 S
C2551 H2559 0.929 . S
C2552 C2551 1.383 1_455 S
C2552 C2553 1.377 . S
C2553 H2537 0.930 . S
C2553 C2552 1.377 . S
C2553 C2554 1.379 . S
C2554 H2538 0.931 . S
C2554 C2548 1.383 . S
C2554 C2553 1.379 . S
H2555 C2549 0.959 1_554 S
H2556 C2549 0.961 1_455 S
H2557 C2549 0.960 . S
H2558 C2550 0.930 . S
H2559 C2551 0.929 . S
H2560 C2568 0.929 . S
H2561 C2570 0.930 . S
H2562 C2572 0.930 . S
H2563 C2575 0.929 . S
H2564 C2578 0.930 . S
H2565 C2580 0.960 . S
H2566 C2580 0.960 . S
H2567 C2580 0.960 . S
C2568 H2560 0.929 . S
C2568 C2569 1.377 . S
C2568 C2570 1.384 . S
C2569 C2568 1.377 . S
C2569 C2575 1.390 . S
C2570 H2561 0.930 . S
C2570 C2568 1.384 . S
C2570 C2571 1.372 . S
C2571 C2570 1.372 . S
C2571 C2572 1.400 . S
C2571 C2576 1.490 . S
C2572 H2562 0.930 . S
C2572 C2571 1.400 . S
C2572 C2575 1.386 . S
H2573 C2589 0.930 . S
H2574 C2590 0.931 . S
C2575 H2563 0.929 . S
C2575 C2569 1.390 . S
C2575 C2572 1.386 . S
C2576 C2571 1.490 . S
C2576 C2578 1.395 . S
C2576 C2579 1.403 . S
H2577 C2583 0.930 . S
C2578 H2564 0.930 . S
C2578 C2576 1.395 . S
C2578 C2581 1.403 . S
C2579 C2576 1.403 . S
C2579 C2580 1.524 . S
C2579 C2583 1.400 . S
C2580 H2565 0.960 . S
C2580 H2566 0.960 . S
C2580 H2567 0.960 . S
C2580 C2579 1.524 . S
C2581 C2578 1.403 . S
C2581 C2582 1.392 . S
C2581 C2585 1.495 . S
C2582 C2581 1.392 . S
C2582 C2583 1.385 . S
C2582 C2584 1.478 . S
C2583 H2577 0.930 . S
C2583 C2579 1.400 . S
C2583 C2582 1.385 . S
C2584 C2582 1.478 . S
C2584 C2586 1.381 . S
C2584 C2590 1.383 . S
C2585 C2581 1.495 . S
C2585 H2591 0.959 . S
C2585 H2592 0.961 . S
C2585 H2593 0.960 . S
C2586 C2584 1.381 . S
C2586 C2587 1.394 . S
C2586 H2594 0.930 . S
C2587 C2586 1.394 . S
C2587 C2588 1.383 . S
C2587 H2595 0.929 . S
C2588 C2587 1.383 . S
C2588 C2589 1.377 . S
C2589 H2573 0.930 . S
C2589 C2588 1.377 . S
C2589 C2590 1.379 . S
C2590 H2574 0.931 . S
C2590 C2584 1.383 . S
C2590 C2589 1.379 . S
H2591 C2585 0.959 . S
H2592 C2585 0.961 . S
H2593 C2585 0.960 . S
H2594 C2586 0.930 . S
H2595 C2587 0.929 . S
H2596 C2604 0.929 . S
H2597 C2606 0.930 . S
H2598 C2608 0.930 . S
H2599 C2611 0.929 . S
H2600 C2614 0.930 . S
H2601 C2616 0.960 . S
H2602 C2616 0.960 . S
H2603 C2616 0.960 . S
C2604 H2596 0.929 . S
C2604 C2605 1.377 . S
C2604 C2606 1.384 1_556 S
C2605 C2604 1.377 . S
C2605 C2611 1.390 1_556 S
C2606 H2597 0.930 . S
C2606 C2604 1.384 1_554 S
C2606 C2607 1.372 . S
C2607 C2606 1.372 . S
C2607 C2608 1.400 . S
C2607 C2612 1.490 . S
C2608 H2598 0.930 . S
C2608 C2607 1.400 . S
C2608 C2611 1.386 . S
H2609 C2625 0.930 . S
H2610 C2626 0.931 . S
C2611 H2599 0.929 . S
C2611 C2605 1.390 1_554 S
C2611 C2608 1.386 . S
C2612 C2607 1.490 . S
C2612 C2614 1.395 . S
C2612 C2615 1.403 . S
H2613 C2619 0.930 . S
C2614 H2600 0.930 . S
C2614 C2612 1.395 . S
C2614 C2617 1.403 . S
C2615 C2612 1.403 . S
C2615 C2616 1.524 . S
C2615 C2619 1.400 . S
C2616 H2601 0.960 . S
C2616 H2602 0.960 . S
C2616 H2603 0.960 . S
C2616 C2615 1.524 . S
C2617 C2614 1.403 . S
C2617 C2618 1.392 . S
C2617 C2621 1.495 . S
C2618 C2617 1.392 . S
C2618 C2619 1.385 . S
C2618 C2620 1.478 . S
C2619 H2613 0.930 . S
C2619 C2615 1.400 . S
C2619 C2618 1.385 . S
C2620 C2618 1.478 . S
C2620 C2622 1.381 . S
C2620 C2626 1.383 . S
C2621 C2617 1.495 . S
C2621 H2627 0.959 . S
C2621 H2628 0.961 . S
C2621 H2629 0.960 . S
C2622 C2620 1.381 . S
C2622 C2623 1.394 . S
C2622 H2630 0.930 . S
C2623 C2622 1.394 . S
C2623 C2624 1.383 . S
C2623 H2631 0.929 . S
C2624 C2623 1.383 . S
C2624 C2625 1.377 . S
C2625 H2609 0.930 . S
C2625 C2624 1.377 . S
C2625 C2626 1.379 . S
C2626 H2610 0.931 . S
C2626 C2620 1.383 . S
C2626 C2625 1.379 . S
H2627 C2621 0.959 . S
H2628 C2621 0.961 . S
H2629 C2621 0.960 . S
H2630 C2622 0.930 . S
H2631 C2623 0.929 . S
H2632 C2640 0.929 . S
H2633 C2642 0.930 . S
H2634 C2644 0.930 . S
H2635 C2647 0.929 . S
H2636 C2650 0.930 . S
H2637 C2652 0.960 . S
H2638 C2652 0.960 . S
H2639 C2652 0.960 . S
C2640 H2632 0.929 . S
C2640 C2641 1.377 . S
C2640 C2642 1.384 . S
C2641 C2640 1.377 . S
C2641 C2647 1.390 . S
C2642 H2633 0.930 . S
C2642 C2640 1.384 . S
C2642 C2643 1.372 . S
C2643 C2642 1.372 . S
C2643 C2644 1.400 . S
C2643 C2648 1.490 . S
C2644 H2634 0.930 . S
C2644 C2643 1.400 . S
C2644 C2647 1.386 . S
H2645 C2661 0.930 . S
H2646 C2662 0.931 . S
C2647 H2635 0.929 . S
C2647 C2641 1.390 . S
C2647 C2644 1.386 . S
C2648 C2643 1.490 . S
C2648 C2650 1.395 . S
C2648 C2651 1.403 . S
H2649 C2655 0.930 . S
C2650 H2636 0.930 . S
C2650 C2648 1.395 . S
C2650 C2653 1.403 . S
C2651 C2648 1.403 . S
C2651 C2652 1.524 . S
C2651 C2655 1.400 . S
C2652 H2637 0.960 . S
C2652 H2638 0.960 . S
C2652 H2639 0.960 . S
C2652 C2651 1.524 . S
C2653 C2650 1.403 . S
C2653 C2654 1.392 . S
C2653 C2657 1.495 . S
C2654 C2653 1.392 . S
C2654 C2655 1.385 . S
C2654 C2656 1.478 . S
C2655 H2649 0.930 . S
C2655 C2651 1.400 . S
C2655 C2654 1.385 . S
C2656 C2654 1.478 . S
C2656 C2658 1.381 . S
C2656 C2662 1.383 . S
C2657 C2653 1.495 . S
C2657 H2663 0.959 . S
C2657 H2664 0.961 . S
C2657 H2665 0.960 . S
C2658 C2656 1.381 . S
C2658 C2659 1.394 . S
C2658 H2666 0.930 . S
C2659 C2658 1.394 . S
C2659 C2660 1.383 . S
C2659 H2667 0.929 . S
C2660 C2659 1.383 . S
C2660 C2661 1.377 . S
C2661 H2645 0.930 . S
C2661 C2660 1.377 . S
C2661 C2662 1.379 . S
C2662 H2646 0.931 . S
C2662 C2656 1.383 . S
C2662 C2661 1.379 . S
H2663 C2657 0.959 . S
H2664 C2657 0.961 . S
H2665 C2657 0.960 . S
H2666 C2658 0.930 . S
H2667 C2659 0.929 . S
H2668 C2676 0.929 . S
H2669 C2678 0.930 . S
H2670 C2680 0.930 . S
H2671 C2683 0.929 . S
H2672 C2686 0.930 . S
H2673 C2688 0.960 . S
H2674 C2688 0.960 . S
H2675 C2688 0.960 . S
C2676 H2668 0.929 . S
C2676 C2677 1.377 . S
C2676 C2678 1.384 . S
C2677 C2676 1.377 . S
C2677 C2683 1.390 . S
C2678 H2669 0.930 . S
C2678 C2676 1.384 . S
C2678 C2679 1.372 . S
C2679 C2678 1.372 . S
C2679 C2680 1.400 . S
C2679 C2684 1.490 . S
C2680 H2670 0.930 . S
C2680 C2679 1.400 . S
C2680 C2683 1.386 . S
H2681 C2697 0.930 . S
H2682 C2698 0.931 . S
C2683 H2671 0.929 . S
C2683 C2677 1.390 . S
C2683 C2680 1.386 . S
C2684 C2679 1.490 . S
C2684 C2686 1.395 . S
C2684 C2687 1.403 . S
H2685 C2691 0.930 . S
C2686 H2672 0.930 . S
C2686 C2684 1.395 . S
C2686 C2689 1.403 . S
C2687 C2684 1.403 . S
C2687 C2688 1.524 . S
C2687 C2691 1.400 . S
C2688 H2673 0.960 . S
C2688 H2674 0.960 . S
C2688 H2675 0.960 . S
C2688 C2687 1.524 . S
C2689 C2686 1.403 . S
C2689 C2690 1.392 . S
C2689 C2693 1.495 . S
C2690 C2689 1.392 . S
C2690 C2691 1.385 . S
C2690 C2692 1.478 . S
C2691 H2685 0.930 . S
C2691 C2687 1.400 . S
C2691 C2690 1.385 . S
C2692 C2690 1.478 . S
C2692 C2694 1.381 . S
C2692 C2698 1.383 . S
C2693 C2689 1.495 . S
C2693 H2699 0.959 . S
C2693 H2700 0.961 . S
C2693 H2701 0.960 . S
C2694 C2692 1.381 . S
C2694 C2695 1.394 . S
C2694 H2702 0.930 . S
C2695 C2694 1.394 . S
C2695 C2696 1.383 . S
C2695 H2703 0.929 . S
C2696 C2695 1.383 . S
C2696 C2697 1.377 . S
C2697 H2681 0.930 . S
C2697 C2696 1.377 . S
C2697 C2698 1.379 . S
C2698 H2682 0.931 . S
C2698 C2692 1.383 . S
C2698 C2697 1.379 . S
H2699 C2693 0.959 . S
H2700 C2693 0.961 . S
H2701 C2693 0.960 . S
H2702 C2694 0.930 . S
H2703 C2695 0.929 . S
H2704 C2712 0.929 . S
H2705 C2714 0.930 . S
H2706 C2716 0.930 . S
H2707 C2719 0.929 . S
H2708 C2722 0.930 . S
H2709 C2724 0.960 . S
H2710 C2724 0.960 . S
H2711 C2724 0.960 . S
C2712 H2704 0.929 . S
C2712 C2713 1.377 . S
C2712 C2714 1.384 . S
C2713 C2712 1.377 . S
C2713 C2719 1.390 . S
C2714 H2705 0.930 . S
C2714 C2712 1.384 . S
C2714 C2715 1.372 . S
C2715 C2714 1.372 . S
C2715 C2716 1.400 . S
C2715 C2720 1.490 . S
C2716 H2706 0.930 . S
C2716 C2715 1.400 . S
C2716 C2719 1.386 . S
H2717 C2733 0.930 . S
H2718 C2734 0.931 . S
C2719 H2707 0.929 . S
C2719 C2713 1.390 . S
C2719 C2716 1.386 . S
C2720 C2715 1.490 . S
C2720 C2722 1.395 . S
C2720 C2723 1.403 . S
H2721 C2727 0.930 . S
C2722 H2708 0.930 . S
C2722 C2720 1.395 . S
C2722 C2725 1.403 . S
C2723 C2720 1.403 . S
C2723 C2724 1.524 . S
C2723 C2727 1.400 . S
C2724 H2709 0.960 . S
C2724 H2710 0.960 . S
C2724 H2711 0.960 . S
C2724 C2723 1.524 . S
C2725 C2722 1.403 . S
C2725 C2726 1.392 . S
C2725 C2729 1.495 . S
C2726 C2725 1.392 . S
C2726 C2727 1.385 . S
C2726 C2728 1.478 . S
C2727 H2721 0.930 . S
C2727 C2723 1.400 . S
C2727 C2726 1.385 . S
C2728 C2726 1.478 . S
C2728 C2730 1.381 . S
C2728 C2734 1.383 . S
C2729 C2725 1.495 . S
C2729 H2735 0.959 . S
C2729 H2736 0.961 . S
C2729 H2737 0.960 . S
C2730 C2728 1.381 . S
C2730 C2731 1.394 . S
C2730 H2738 0.930 . S
C2731 C2730 1.394 . S
C2731 C2732 1.383 . S
C2731 H2739 0.929 . S
C2732 C2731 1.383 . S
C2732 C2733 1.377 . S
C2733 H2717 0.930 . S
C2733 C2732 1.377 . S
C2733 C2734 1.379 . S
C2734 H2718 0.931 . S
C2734 C2728 1.383 . S
C2734 C2733 1.379 . S
H2735 C2729 0.959 . S
H2736 C2729 0.961 . S
H2737 C2729 0.960 . S
H2738 C2730 0.930 . S
H2739 C2731 0.929 . S
H2740 C2748 0.929 . S
H2741 C2750 0.930 . S
H2742 C2752 0.930 . S
H2743 C2755 0.929 . S
H2744 C2758 0.930 . S
H2745 C2760 0.960 . S
H2746 C2760 0.960 . S
H2747 C2760 0.960 . S
C2748 H2740 0.929 . S
C2748 C2749 1.377 . S
C2748 C2750 1.384 . S
C2749 C2748 1.377 . S
C2749 C2755 1.390 . S
C2750 H2741 0.930 . S
C2750 C2748 1.384 . S
C2750 C2751 1.372 . S
C2751 C2750 1.372 . S
C2751 C2752 1.400 . S
C2751 C2756 1.490 . S
C2752 H2742 0.930 . S
C2752 C2751 1.400 . S
C2752 C2755 1.386 . S
H2753 C2769 0.930 . S
H2754 C2770 0.931 . S
C2755 H2743 0.929 . S
C2755 C2749 1.390 . S
C2755 C2752 1.386 . S
C2756 C2751 1.490 . S
C2756 C2758 1.395 . S
C2756 C2759 1.403 . S
H2757 C2763 0.930 . S
C2758 H2744 0.930 . S
C2758 C2756 1.395 . S
C2758 C2761 1.403 . S
C2759 C2756 1.403 . S
C2759 C2760 1.524 . S
C2759 C2763 1.400 . S
C2760 H2745 0.960 . S
C2760 H2746 0.960 . S
C2760 H2747 0.960 . S
C2760 C2759 1.524 . S
C2761 C2758 1.403 . S
C2761 C2762 1.392 . S
C2761 C2765 1.495 . S
C2762 C2761 1.392 . S
C2762 C2763 1.385 . S
C2762 C2764 1.478 . S
C2763 H2757 0.930 . S
C2763 C2759 1.400 . S
C2763 C2762 1.385 . S
C2764 C2762 1.478 . S
C2764 C2766 1.381 . S
C2764 C2770 1.383 . S
C2765 C2761 1.495 . S
C2765 H2771 0.959 . S
C2765 H2772 0.961 . S
C2765 H2773 0.960 . S
C2766 C2764 1.381 . S
C2766 C2767 1.394 . S
C2766 H2774 0.930 . S
C2767 C2766 1.394 . S
C2767 C2768 1.383 . S
C2767 H2775 0.929 . S
C2768 C2767 1.383 . S
C2768 C2769 1.377 . S
C2769 H2753 0.930 . S
C2769 C2768 1.377 . S
C2769 C2770 1.379 . S
C2770 H2754 0.931 . S
C2770 C2764 1.383 . S
C2770 C2769 1.379 . S
H2771 C2765 0.959 . S
H2772 C2765 0.961 . S
H2773 C2765 0.960 . S
H2774 C2766 0.930 . S
H2775 C2767 0.929 . S
H2776 C2784 0.929 . S
H2777 C2786 0.930 . S
H2778 C2788 0.930 . S
H2779 C2791 0.929 . S
H2780 C2794 0.930 . S
H2781 C2796 0.960 . S
H2782 C2796 0.960 . S
H2783 C2796 0.960 . S
C2784 H2776 0.929 . S
C2784 C2785 1.377 . S
C2784 C2786 1.384 . S
C2785 C2784 1.377 . S
C2785 C2791 1.390 . S
C2786 H2777 0.930 . S
C2786 C2784 1.384 . S
C2786 C2787 1.372 . S
C2787 C2786 1.372 . S
C2787 C2788 1.400 . S
C2787 C2792 1.490 . S
C2788 H2778 0.930 . S
C2788 C2787 1.400 . S
C2788 C2791 1.386 . S
H2789 C2805 0.930 . S
H2790 C2806 0.931 . S
C2791 H2779 0.929 . S
C2791 C2785 1.390 . S
C2791 C2788 1.386 . S
C2792 C2787 1.490 . S
C2792 C2794 1.395 . S
C2792 C2795 1.403 . S
H2793 C2799 0.930 . S
C2794 H2780 0.930 . S
C2794 C2792 1.395 . S
C2794 C2797 1.403 . S
C2795 C2792 1.403 . S
C2795 C2796 1.524 . S
C2795 C2799 1.400 . S
C2796 H2781 0.960 . S
C2796 H2782 0.960 . S
C2796 H2783 0.960 . S
C2796 C2795 1.524 . S
C2797 C2794 1.403 . S
C2797 C2798 1.392 . S
C2797 C2801 1.495 . S
C2798 C2797 1.392 . S
C2798 C2799 1.385 . S
C2798 C2800 1.478 . S
C2799 H2793 0.930 . S
C2799 C2795 1.400 . S
C2799 C2798 1.385 . S
C2800 C2798 1.478 . S
C2800 C2802 1.381 . S
C2800 C2806 1.383 . S
C2801 C2797 1.495 . S
C2801 H2807 0.959 . S
C2801 H2808 0.961 . S
C2801 H2809 0.960 . S
C2802 C2800 1.381 . S
C2802 C2803 1.394 . S
C2802 H2810 0.930 . S
C2803 C2802 1.394 . S
C2803 C2804 1.383 . S
C2803 H2811 0.929 . S
C2804 C2803 1.383 . S
C2804 C2805 1.377 . S
C2805 H2789 0.930 . S
C2805 C2804 1.377 . S
C2805 C2806 1.379 . S
C2806 H2790 0.931 . S
C2806 C2800 1.383 . S
C2806 C2805 1.379 . S
H2807 C2801 0.959 . S
H2808 C2801 0.961 . S
H2809 C2801 0.960 . S
H2810 C2802 0.930 . S
H2811 C2803 0.929 . S
H2812 C2820 0.929 . S
H2813 C2822 0.930 . S
H2814 C2824 0.930 . S
H2815 C2827 0.929 . S
H2816 C2830 0.930 . S
H2817 C2832 0.960 . S
H2818 C2832 0.960 . S
H2819 C2832 0.960 . S
C2820 H2812 0.929 . S
C2820 C2821 1.377 . S
C2820 C2822 1.384 . S
C2821 C2820 1.377 . S
C2821 C2827 1.390 . S
C2822 H2813 0.930 . S
C2822 C2820 1.384 . S
C2822 C2823 1.372 . S
C2823 C2822 1.372 . S
C2823 C2824 1.400 . S
C2823 C2828 1.490 . S
C2824 H2814 0.930 . S
C2824 C2823 1.400 . S
C2824 C2827 1.386 . S
H2825 C2841 0.930 . S
H2826 C2842 0.931 . S
C2827 H2815 0.929 . S
C2827 C2821 1.390 . S
C2827 C2824 1.386 . S
C2828 C2823 1.490 . S
C2828 C2830 1.395 . S
C2828 C2831 1.403 . S
H2829 C2835 0.930 . S
C2830 H2816 0.930 . S
C2830 C2828 1.395 . S
C2830 C2833 1.403 . S
C2831 C2828 1.403 . S
C2831 C2832 1.524 . S
C2831 C2835 1.400 . S
C2832 H2817 0.960 . S
C2832 H2818 0.960 . S
C2832 H2819 0.960 . S
C2832 C2831 1.524 . S
C2833 C2830 1.403 . S
C2833 C2834 1.392 . S
C2833 C2837 1.495 . S
C2834 C2833 1.392 . S
C2834 C2835 1.385 . S
C2834 C2836 1.478 . S
C2835 H2829 0.930 . S
C2835 C2831 1.400 . S
C2835 C2834 1.385 . S
C2836 C2834 1.478 . S
C2836 C2838 1.381 . S
C2836 C2842 1.383 . S
C2837 C2833 1.495 . S
C2837 H2843 0.959 . S
C2837 H2844 0.961 . S
C2837 H2845 0.960 . S
C2838 C2836 1.381 . S
C2838 C2839 1.394 . S
C2838 H2846 0.930 . S
C2839 C2838 1.394 . S
C2839 C2840 1.383 . S
C2839 H2847 0.929 . S
C2840 C2839 1.383 . S
C2840 C2841 1.377 . S
C2841 H2825 0.930 . S
C2841 C2840 1.377 . S
C2841 C2842 1.379 . S
C2842 H2826 0.931 . S
C2842 C2836 1.383 . S
C2842 C2841 1.379 . S
H2843 C2837 0.959 . S
H2844 C2837 0.961 . S
H2845 C2837 0.960 . S
H2846 C2838 0.930 . S
H2847 C2839 0.929 . S
H2848 C2856 0.929 . S
H2849 C2858 0.930 . S
H2850 C2860 0.930 . S
H2851 C2863 0.929 . S
H2852 C2866 0.930 . S
H2853 C2868 0.960 . S
H2854 C2868 0.960 . S
H2855 C2868 0.960 . S
C2856 H2848 0.929 . S
C2856 C2857 1.377 . S
C2856 C2858 1.384 . S
C2857 C2856 1.377 . S
C2857 C2863 1.390 . S
C2858 H2849 0.930 . S
C2858 C2856 1.384 . S
C2858 C2859 1.372 . S
C2859 C2858 1.372 . S
C2859 C2860 1.400 . S
C2859 C2864 1.477 1_556 S
C2860 H2850 0.930 . S
C2860 C2859 1.400 . S
C2860 C2863 1.386 . S
H2861 C2877 0.930 . S
H2862 C2878 0.931 . S
C2863 H2851 0.929 . S
C2863 C2857 1.390 . S
C2863 C2860 1.386 . S
C2864 C2859 1.477 1_554 S
C2864 C2866 1.434 . S
C2864 C2867 1.378 1_554 S
H2865 C2871 0.930 . S
C2866 H2852 0.930 . S
C2866 C2864 1.434 . S
C2866 C2869 1.403 . S
C2867 C2864 1.378 1_556 S
C2867 C2868 1.524 . S
C2867 C2871 1.400 . S
C2868 H2853 0.960 . S
C2868 H2854 0.960 . S
C2868 H2855 0.960 . S
C2868 C2867 1.524 . S
C2869 C2866 1.403 . S
C2869 C2870 1.392 . S
C2869 C2873 1.495 . S
C2870 C2869 1.392 . S
C2870 C2871 1.385 1_554 S
C2870 C2872 1.478 . S
C2871 H2865 0.930 . S
C2871 C2867 1.400 . S
C2871 C2870 1.385 1_556 S
C2872 C2870 1.478 . S
C2872 C2874 1.381 . S
C2872 C2878 1.383 . S
C2873 C2869 1.495 . S
C2873 H2879 0.959 . S
C2873 H2880 0.961 . S
C2873 H2881 0.960 . S
C2874 C2872 1.381 . S
C2874 C2875 1.394 . S
C2874 H2882 0.930 . S
C2875 C2874 1.394 . S
C2875 C2876 1.383 . S
C2875 H2883 0.929 . S
C2876 C2875 1.383 . S
C2876 C2877 1.377 . S
C2877 H2861 0.930 . S
C2877 C2876 1.377 . S
C2877 C2878 1.379 . S
C2878 H2862 0.931 . S
C2878 C2872 1.383 . S
C2878 C2877 1.379 . S
H2879 C2873 0.959 . S
H2880 C2873 0.961 . S
H2881 C2873 0.960 . S
H2882 C2874 0.930 . S
H2883 C2875 0.929 . S
H2884 C2892 0.929 . S
H2885 C2894 0.930 . S
H2886 C2896 0.930 . S
H2887 C2899 0.929 . S
H2888 C2902 0.930 . S
H2889 C2904 0.960 . S
H2890 C2904 0.960 . S
H2891 C2904 0.960 . S
C2892 H2884 0.929 . S
C2892 C2893 1.377 . S
C2892 C2894 1.384 . S
C2893 C2892 1.377 . S
C2893 C2899 1.390 . S
C2894 H2885 0.930 . S
C2894 C2892 1.384 . S
C2894 C2895 1.372 . S
C2895 C2894 1.372 . S
C2895 C2896 1.400 . S
C2895 C2900 1.490 . S
C2896 H2886 0.930 . S
C2896 C2895 1.400 . S
C2896 C2899 1.386 . S
H2897 C2913 0.930 . S
H2898 C2914 0.931 . S
C2899 H2887 0.929 . S
C2899 C2893 1.390 . S
C2899 C2896 1.386 . S
C2900 C2895 1.490 . S
C2900 C2902 1.395 . S
C2900 C2903 1.403 . S
H2901 C2907 0.930 . S
C2902 H2888 0.930 . S
C2902 C2900 1.395 . S
C2902 C2905 1.403 . S
C2903 C2900 1.403 . S
C2903 C2904 1.524 . S
C2903 C2907 1.400 . S
C2904 H2889 0.960 . S
C2904 H2890 0.960 . S
C2904 H2891 0.960 . S
C2904 C2903 1.524 . S
C2905 C2902 1.403 . S
C2905 C2906 1.392 . S
C2905 C2909 1.495 . S
C2906 C2905 1.392 . S
C2906 C2907 1.385 . S
C2906 C2908 1.478 . S
C2907 H2901 0.930 . S
C2907 C2903 1.400 . S
C2907 C2906 1.385 . S
C2908 C2906 1.478 . S
C2908 C2910 1.381 . S
C2908 C2914 1.383 . S
C2909 C2905 1.495 . S
C2909 H2915 0.959 . S
C2909 H2916 0.961 . S
C2909 H2917 0.960 . S
C2910 C2908 1.381 . S
C2910 C2911 1.394 . S
C2910 H2918 0.930 . S
C2911 C2910 1.394 . S
C2911 C2912 1.383 . S
C2911 H2919 0.929 . S
C2912 C2911 1.383 . S
C2912 C2913 1.377 . S
C2913 H2897 0.930 . S
C2913 C2912 1.377 . S
C2913 C2914 1.379 . S
C2914 H2898 0.931 . S
C2914 C2908 1.383 . S
C2914 C2913 1.379 . S
H2915 C2909 0.959 . S
H2916 C2909 0.961 . S
H2917 C2909 0.960 . S
H2918 C2910 0.930 . S
H2919 C2911 0.929 . S
H2920 C2928 0.929 . S
H2921 C2930 0.930 . S
H2922 C2932 0.930 . S
H2923 C2935 0.929 . S
H2924 C2938 0.930 . S
H2925 C2940 0.960 . S
H2926 C2940 0.960 . S
H2927 C2940 0.960 . S
C2928 H2920 0.929 . S
C2928 C2929 1.377 . S
C2928 C2930 1.384 . S
C2929 C2928 1.377 . S
C2929 C2935 1.390 . S
C2930 H2921 0.930 . S
C2930 C2928 1.384 . S
C2930 C2931 1.372 . S
C2931 C2930 1.372 . S
C2931 C2932 1.400 . S
C2931 C2936 1.490 . S
C2932 H2922 0.930 . S
C2932 C2931 1.400 . S
C2932 C2935 1.386 . S
H2933 C2949 0.930 . S
H2934 C2950 0.931 . S
C2935 H2923 0.929 . S
C2935 C2929 1.390 . S
C2935 C2932 1.386 . S
C2936 C2931 1.490 . S
C2936 C2938 1.395 . S
C2936 C2939 1.403 . S
H2937 C2943 0.930 . S
C2938 H2924 0.930 . S
C2938 C2936 1.395 . S
C2938 C2941 1.403 . S
C2939 C2936 1.403 . S
C2939 C2940 1.524 . S
C2939 C2943 1.400 . S
C2940 H2925 0.960 . S
C2940 H2926 0.960 . S
C2940 H2927 0.960 . S
C2940 C2939 1.524 . S
C2941 C2938 1.403 . S
C2941 C2942 1.392 . S
C2941 C2945 1.495 . S
C2942 C2941 1.392 . S
C2942 C2943 1.385 . S
C2942 C2944 1.478 . S
C2943 H2937 0.930 . S
C2943 C2939 1.400 . S
C2943 C2942 1.385 . S
C2944 C2942 1.478 . S
C2944 C2946 1.381 . S
C2944 C2950 1.383 . S
C2945 C2941 1.495 . S
C2945 H2951 0.959 . S
C2945 H2952 0.961 . S
C2945 H2953 0.960 . S
C2946 C2944 1.381 . S
C2946 C2947 1.394 . S
C2946 H2954 0.930 . S
C2947 C2946 1.394 . S
C2947 C2948 1.383 . S
C2947 H2955 0.929 . S
C2948 C2947 1.383 . S
C2948 C2949 1.377 . S
C2949 H2933 0.930 . S
C2949 C2948 1.377 . S
C2949 C2950 1.379 . S
C2950 H2934 0.931 . S
C2950 C2944 1.383 . S
C2950 C2949 1.379 . S
H2951 C2945 0.959 . S
H2952 C2945 0.961 . S
H2953 C2945 0.960 . S
H2954 C2946 0.930 . S
H2955 C2947 0.929 . S
H2956 C2964 0.929 . S
H2957 C2966 0.930 . S
H2958 C2968 0.930 . S
H2959 C2971 0.929 . S
H2960 C2974 0.930 . S
H2961 C2976 0.960 . S
H2962 C2976 0.960 . S
H2963 C2976 0.960 . S
C2964 H2956 0.929 . S
C2964 C2965 1.389 . S
C2964 C2966 1.384 . S
C2965 C2964 1.389 . S
C2965 C2971 1.388 1_565 S
C2966 H2957 0.930 . S
C2966 C2964 1.384 . S
C2966 C2967 1.372 . S
C2967 C2966 1.372 . S
C2967 C2968 1.400 . S
C2967 C2972 1.490 . S
C2968 H2958 0.930 . S
C2968 C2967 1.400 . S
C2968 C2971 1.386 1_565 S
H2969 C2985 0.930 . S
H2970 C2986 0.931 . S
C2971 H2959 0.929 . S
C2971 C2965 1.388 1_545 S
C2971 C2968 1.386 1_545 S
C2972 C2967 1.490 . S
C2972 C2974 1.395 . S
C2972 C2975 1.403 . S
H2973 C2979 0.930 . S
C2974 H2960 0.930 . S
C2974 C2972 1.395 . S
C2974 C2977 1.403 . S
C2975 C2972 1.403 . S
C2975 C2976 1.524 1_565 S
C2975 C2979 1.400 . S
C2976 H2961 0.960 . S
C2976 H2962 0.960 . S
C2976 H2963 0.960 . S
C2976 C2975 1.524 1_545 S
C2977 C2974 1.403 . S
C2977 C2978 1.392 . S
C2977 C2981 1.495 . S
C2978 C2977 1.392 . S
C2978 C2979 1.385 . S
C2978 C2980 1.478 . S
C2979 H2973 0.930 . S
C2979 C2975 1.400 . S
C2979 C2978 1.385 . S
C2980 C2978 1.478 . S
C2980 C2982 1.381 . S
C2980 C2986 1.383 1_554 S
C2981 C2977 1.495 . S
C2981 H2987 0.959 . S
C2981 H2988 0.961 . S
C2981 H2989 0.960 . S
C2982 C2980 1.381 . S
C2982 C2983 1.394 . S
C2982 H2990 0.930 . S
C2983 C2982 1.394 . S
C2983 C2984 1.383 . S
C2983 H2991 0.929 . S
C2984 C2983 1.383 . S
C2984 C2985 1.377 1_554 S
C2985 H2969 0.930 . S
C2985 C2984 1.377 1_556 S
C2985 C2986 1.379 . S
C2986 H2970 0.931 . S
C2986 C2980 1.383 1_556 S
C2986 C2985 1.379 . S
H2987 C2981 0.959 . S
H2988 C2981 0.961 . S
H2989 C2981 0.960 . S
H2990 C2982 0.930 . S
H2991 C2983 0.929 . S
C1292 C257 1.913 . S
C1273 C73 1.913 . S
C1328 C316 1.198 . S
C1309 C82 1.147 . S
C1345 C100 1.936 . S
C1364 C433 1.932 . S
C1400 C501 1.265 . S
C1381 C56 1.231 . S
C1436 C580 1.313 . S
C1417 C134 1.296 . S
C1472 C705 1.876 . S
C1453 C165 1.865 . S
C1489 C147 1.077 . S
C1508 C765 1.102 . S
C1544 C873 1.902 . S
C1525 C125 1.904 . S
C1561 C151 1.381 . S
C1580 C969 1.377 . S
C1616 C1029 1.409 . S
C1597 C121 1.373 . S
C1633 C139 1.893 . S
C1652 C932 1.900 . S
C1688 C1049 1.198 . S
C1669 C164 1.202 . S
C1705 C95 1.231 . S
C1724 C1117 1.278 . S
C1741 C61 1.511 . S
C1760 C1108 1.514 . S
C1777 C74 1.392 . S
C1796 C1137 1.393 . S
C1813 C86 1.865 . S
C1832 C1145 1.859 . S
C1849 C47 1.353 . S
C1868 C529 1.344 . S
C1885 C186 1.246 . S
C1904 C492 1.292 . S
C1940 C228 1.520 . S
C1921 C204 1.519 . S
C1976 C325 1.991 . S
C1957 C112 2.000 . S
C1993 C60 1.355 . S
C2012 C589 1.332 . S
C2048 C881 1.411 . S
C2029 C152 1.409 . S
C2084 C609 2.053 . S
C2065 C126 2.053 . S
C2120 C793 1.207 . S
C2101 C160 1.209 . S
C2156 C785 1.905 . S
C2137 C190 1.913 . S
C2173 C199 1.148 . S
C2192 C853 1.192 . S
C2209 C113 1.937 . S
C2228 C617 1.925 . S
C2264 C668 1.259 . S
C2245 C173 1.236 . S
C2281 C43 1.296 . S
C2300 C413 1.316 . S
C2336 C521 1.879 . S
C2317 C9 1.869 . S
C2372 C237 1.107 . S
C2353 C17 1.080 . S
C2408 C353 1.895 . S
C2389 C34 1.903 1_455 S
C2425 C21 1.381 . S
C2444 C1057 1.378 . S
C2461 C30 1.369 . S
C2480 C941 1.413 . S
C2497 C48 1.894 . S
C2516 C1020 1.901 . S
C2533 C8 1.205 . S
C2552 C961 1.207 . S
C2588 C1205 1.274 . S
C2569 C108 1.222 . S
C2624 C1196 1.515 . S
C2605 C178 1.509 . S
C2660 C1225 1.398 . S
C2641 C191 1.395 . S
C2677 C203 1.866 . S
C2696 C1233 1.860 . S
C2713 C138 1.351 . S
C2732 C697 1.336 . S
C2768 C677 1.278 . S
C2749 C69 1.235 . S
C2804 C756 1.503 . S
C2785 C87 1.515 . S
C2840 C844 1.992 . S
C2821 C99 2.001 . S
C2857 C177 1.341 . S
C2876 C404 1.338 . S
C2912 C345 1.411 . S
C2893 C22 1.410 . S
C2929 C35 2.055 . S
C2948 C441 2.058 . S
C2984 C265 1.209 . S
C2965 C4 1.201 1_565 S
