# Generated by pormake.
# Topology rtl, (3,6)-cn, num edge types: 1
# Building blocks:
#     Node 0, Type 0, BuildingBlock: QEWDON_clean_linker_0, # of connection points: 3
#     Node 1, Type 0, BuildingBlock: QEWDON_clean_linker_0, # of connection points: 3
#     Node 2, Type 0, BuildingBlock: QEWDON_clean_linker_0, # of connection points: 3
#     Node 3, Type 0, BuildingBlock: QEWDON_clean_linker_0, # of connection points: 3
#     Node 4, Type 1, BuildingBlock: LEVNOQ01_clean_sbu_1, # of connection points: 6
#     Node 5, Type 1, BuildingBlock: LEVNOQ01_clean_sbu_1, # of connection points: 6
#     Edge 6, Type (0, 1), BuildingBlock: MIFKUJ_clean_linker_0, # of connection points: 2
#     Edge 7, Type (0, 1), BuildingBlock: MIFKUJ_clean_linker_0, # of connection points: 2
#     Edge 8, Type (0, 1), BuildingBlock: MIFKUJ_clean_linker_0, # of connection points: 2
#     Edge 9, Type (0, 1), BuildingBlock: MIFKUJ_clean_linker_0, # of connection points: 2
#     Edge 10, Type (0, 1), BuildingBlock: MIFKUJ_clean_linker_0, # of connection points: 2
#     Edge 11, Type (0, 1), BuildingBlock: MIFKUJ_clean_linker_0, # of connection points: 2
#     Edge 12, Type (0, 1), BuildingBlock: MIFKUJ_clean_linker_0, # of connection points: 2
#     Edge 13, Type (0, 1), BuildingBlock: MIFKUJ_clean_linker_0, # of connection points: 2
#     Edge 14, Type (0, 1), BuildingBlock: MIFKUJ_clean_linker_0, # of connection points: 2
#     Edge 15, Type (0, 1), BuildingBlock: MIFKUJ_clean_linker_0, # of connection points: 2
#     Edge 16, Type (0, 1), BuildingBlock: MIFKUJ_clean_linker_0, # of connection points: 2
#     Edge 17, Type (0, 1), BuildingBlock: MIFKUJ_clean_linker_0, # of connection points: 2
# Relax obj value: 0.039
# Max RMSD: 0.180
# Mean RMSD: 0.140
data_MOF--net-rtl--node1-LEVNOQ01_clean_sbu_1--node2-QEWDON_clean_linker_0--edge1-MIFKUJ_clean_linker_0
_symmetry_space_group_name_H-M    P1
_symmetry_Int_Tables_number       1
_symmetry_cell_setting            triclinic
loop_
_symmetry_equiv_pos_as_xyz
'x, y, z'
_cell_length_a     48.510119
_cell_length_b     48.00565
_cell_length_c     28.298979
_cell_angle_alpha  91.41173
_cell_angle_beta   98.9483
_cell_angle_gamma 89.828115
loop_
_atom_site_label
_atom_site_type_symbol
_atom_site_fract_x
_atom_site_fract_y
_atom_site_fract_z
_atom_type_partial_charge
H0 H 0.23729 0.85355 0.17061 0.0
C1 C 0.22459 0.85778 0.13652 0.0
C2 C 0.19774 0.86928 0.13527 0.0
C3 C 0.23573 0.85313 0.09399 0.0
H4 H 0.16166 0.88512 0.0894 0.0
C5 C 0.18204 0.87558 0.09074 0.0
C6 C 0.19283 0.87104 0.04793 0.0
C7 C 0.21964 0.85958 0.04981 0.0
C8 C 0.26563 0.84599 0.09611 0.0
H9 H 0.22857 0.85698 0.01716 0.0
C10 C 0.27662 0.82028 0.11342 0.0
C11 C 0.30541 0.81457 0.11583 0.0
C12 C 0.28352 0.86579 0.08131 0.0
H13 H 0.27549 0.8857 0.0681 0.0
C14 C 0.31193 0.86034 0.08407 0.0
H15 H 0.26289 0.80486 0.1247 0.0
C16 C 0.32284 0.83498 0.10121 0.0
H17 H 0.34491 0.83108 0.10201 0.0
H18 H 0.32555 0.87578 0.07266 0.0
H19 H 0.7116 0.71384 0.52133 0.0
C20 C 0.7019 0.70803 0.55168 0.0
C21 C 0.67486 0.69643 0.54423 0.0
C22 C 0.7174 0.70979 0.59799 0.0
H23 H 0.64246 0.67866 0.57856 0.0
C24 C 0.66314 0.68783 0.584 0.0
C25 C 0.67843 0.68949 0.63039 0.0
C26 C 0.70555 0.70047 0.63698 0.0
C27 C 0.74738 0.7172 0.60558 0.0
H28 H 0.71777 0.70129 0.67251 0.0
C29 C 0.75655 0.74473 0.60127 0.0
C30 C 0.78519 0.75139 0.61303 0.0
C31 C 0.76698 0.69636 0.62027 0.0
H32 H 0.7603 0.67509 0.62385 0.0
C33 C 0.79529 0.70272 0.63072 0.0
H34 H 0.74143 0.76095 0.59061 0.0
C35 C 0.80437 0.73001 0.62737 0.0
H36 H 0.82651 0.73437 0.63569 0.0
H37 H 0.81026 0.68648 0.64185 0.0
H38 H 0.78813 0.19357 0.06479 0.0
C39 C 0.79584 0.19121 0.03094 0.0
C40 C 0.82284 0.18068 0.02986 0.0
C41 C 0.77789 0.19689 0.98827 0.0
H42 H 0.85253 0.16827 0.98381 0.0
C43 C 0.83188 0.1766 0.98531 0.0
C44 C 0.81395 0.18157 0.94241 0.0
C45 C 0.78695 0.19181 0.94408 0.0
C46 C 0.74829 0.20362 0.9899 0.0
H47 H 0.7727 0.19486 0.9111 0.0
C48 C 0.73777 0.23088 0.98298 0.0
C49 C 0.70963 0.23672 0.98689 0.0
C50 C 0.73051 0.18223 0.99957 0.0
H51 H 0.73828 0.16117 0.00492 0.0
C52 C 0.7026 0.18777 1.00234 0.0
H53 H 0.75158 0.24751 0.97614 0.0
C54 C 0.69222 0.21477 0.99619 0.0
H55 H 0.67044 0.21849 0.99864 0.0
H56 H 0.68898 0.17111 0.00958 0.0
H57 H 0.34259 0.28857 0.55718 0.0
C58 C 0.34374 0.30349 0.52942 0.0
C59 C 0.35466 0.33033 0.54161 0.0
C60 C 0.33637 0.29513 0.4811 0.0
H61 H 0.36462 0.36991 0.51383 0.0
C62 C 0.35691 0.34898 0.50478 0.0
C63 C 0.34992 0.34085 0.45639 0.0
C64 C 0.33947 0.3139 0.44494 0.0
C65 C 0.32946 0.26569 0.4677 0.0
H66 H 0.33493 0.30696 0.40779 0.0
C67 C 0.30456 0.25328 0.47671 0.0
C68 C 0.2981 0.22545 0.46158 0.0
C69 C 0.34794 0.25011 0.44403 0.0
H70 H 0.36717 0.25931 0.43675 0.0
C71 C 0.34181 0.22261 0.42948 0.0
H72 H 0.29025 0.2653 0.49491 0.0
C73 C 0.31709 0.21037 0.43796 0.0
H74 H 0.3126 0.18918 0.42506 0.0
H75 H 0.35615 0.21081 0.41109 0.0
O76 O 0.99849 0.08855 0.62161 0.0
Mg77 Mg 0.03497 0.06813 0.61178 0.0
O78 O 0.97583 0.05249 0.5851 0.0
Mg79 Mg 0.00683 0.02747 0.54117 0.0
O80 O 0.04169 0.06203 0.54265 0.0
O81 O 0.06442 0.09373 0.59437 0.0
O82 O 0.03934 1.00382 0.49718 0.0
O83 O 0.98421 0.05153 0.47451 0.0
Mg84 Mg 0.98785 0.98987 0.47844 0.0
O85 O 0.97025 0.99306 0.54027 0.0
O86 O 0.02128 0.96271 0.47818 0.0
O87 O 0.97883 0.01749 0.42116 0.0
O88 O 0.95316 0.96712 0.47491 0.0
C89 C 0.04419 0.01112 0.6493 0.0
C90 C 0.97601 0.07522 0.60983 0.0
C91 C 0.0601 0.08195 0.55242 0.0
C92 C 0.04186 0.97888 0.4814 0.0
C93 C 0.97682 0.04308 0.43139 0.0
C94 C 0.952 0.97527 0.5182 0.0
O95 O 0.04952 0.03658 0.65914 0.0
O96 O 0.0296 1.00381 0.60927 0.0
O97 O 0.55934 0.52614 0.14177 0.0
Mg98 Mg 0.53846 0.4925 0.10558 0.0
O99 O 0.52794 0.55328 0.10169 0.0
Mg100 Mg 0.50136 0.52466 0.04043 0.0
O101 O 0.53609 0.48985 0.03238 0.0
O102 O 0.56494 0.46436 0.08485 0.0
O103 O 0.47491 0.49574 0.98009 0.0
O104 O 0.52588 0.54915 0.98719 0.0
Mg105 Mg 0.46587 0.55581 0.97544 0.0
O106 O 0.466 0.55901 0.04839 0.0
O107 O 0.44616 0.52294 0.93486 0.0
O108 O 0.49596 0.57749 0.94671 0.0
O109 O 0.43667 0.58175 0.99264 0.0
C110 C 0.48298 0.4829 0.1271 0.0
C111 C 0.5489 0.55005 0.13462 0.0
C112 C 0.5556 0.47097 0.04142 0.0
C113 C 0.4553 0.49887 0.94485 0.0
C114 C 0.52057 0.56855 0.95692 0.0
C115 C 0.44557 0.57665 0.03689 0.0
O116 O 0.50767 0.47432 0.13834 0.0
O117 O 0.47724 0.50063 0.09408 0.0
H118 H 0.29034 0.17225 0.48931 0.0
H119 H 0.2463 0.14832 0.49176 0.0
H120 H 0.20118 0.2239 0.45228 0.0
H121 H 0.24537 0.24803 0.44912 0.0
H122 H 0.18053 0.19672 0.52355 0.0
H123 H 0.20363 0.17317 0.3694 0.0
H124 H 0.23391 0.1565 0.31229 0.0
H125 H 0.24037 0.07653 0.37783 0.0
H126 H 0.21046 0.09286 0.43584 0.0
H127 H 0.05294 0.12844 0.50013 0.0
H128 H 0.09013 0.15318 0.46899 0.0
H129 H 0.14508 0.08311 0.50203 0.0
H130 H 0.10752 0.0581 0.53175 0.0
H131 H 0.15814 0.11017 0.42554 0.0
H132 H 0.14076 0.13492 0.58475 0.0
H133 H 0.11165 0.15084 0.64425 0.0
H134 H 0.09584 0.228 0.57125 0.0
H135 H 0.12454 0.21232 0.51087 0.0
C136 C 0.27107 0.18383 0.48102 0.0
C137 C 0.2714 0.212 0.46845 0.0
C138 C 0.24589 0.17008 0.48239 0.0
C139 C 0.22039 0.18413 0.47117 0.0
C140 C 0.22061 0.21259 0.4607 0.0
C141 C 0.24589 0.2264 0.45921 0.0
C142 C 0.19365 0.16893 0.47051 0.0
C143 C 0.17536 0.17813 0.50138 0.0
C144 C 0.18716 0.14432 0.4423 0.0
C145 C 0.20496 0.13432 0.40721 0.0
C146 C 0.21166 0.15209 0.37186 0.0
C147 C 0.22874 0.14269 0.33929 0.0
C148 C 0.2391 0.11549 0.34149 0.0
C149 C 0.23234 0.09761 0.37619 0.0
C150 C 0.2153 0.10691 0.40889 0.0
C151 C 0.0725 0.11781 0.49828 0.0
C152 C 0.07737 0.0913 0.51764 0.0
C153 C 0.09387 0.13208 0.48114 0.0
C154 C 0.12065 0.12031 0.4844 0.0
C155 C 0.12465 0.09268 0.49932 0.0
C156 C 0.10315 0.07829 0.51597 0.0
C157 C 0.14515 0.13785 0.47884 0.0
C158 C 0.16309 0.12903 0.44706 0.0
C159 C 0.15148 0.16274 0.50646 0.0
C160 C 0.13452 0.17233 0.54304 0.0
C161 C 0.13093 0.15521 0.58124 0.0
C162 C 0.11452 0.16419 0.61512 0.0
C163 C 0.10184 0.19039 0.61146 0.0
C164 C 0.10563 0.20769 0.57399 0.0
C165 C 0.12196 0.19877 0.53993 0.0
H166 H 0.08914 0.19731 0.63773 0.0
H167 H 0.25232 0.10825 0.31625 0.0
H168 H 0.28625 0.76257 0.08567 0.0
H169 H 0.31104 0.71832 0.09919 0.0
H170 H 0.37736 0.76038 0.19326 0.0
H171 H 0.35283 0.80471 0.17899 0.0
H172 H 0.3988 0.73083 0.13102 0.0
H173 H 0.33363 0.71088 0.23458 0.0
H174 H 0.28748 0.70698 0.26004 0.0
H175 H 0.26232 0.64657 0.14729 0.0
H176 H 0.30817 0.65038 0.12068 0.0
H177 H 0.46958 0.60293 0.12099 0.0
H178 H 0.44701 0.63918 0.16478 0.0
H179 H 0.36846 0.62191 0.0744 0.0
H180 H 0.3906 0.58574 0.032 0.0
H181 H 0.35841 0.63901 0.15884 0.0
H182 H 0.41787 0.67032 0.0443 0.0
H183 H 0.46343 0.67406 0.0164 0.0
H184 H 0.49852 0.71324 0.15022 0.0
H185 H 0.45317 0.70943 0.17906 0.0
C186 C 0.30573 0.76222 0.11026 0.0
C187 C 0.31764 0.78713 0.13107 0.0
C188 C 0.31994 0.73688 0.11807 0.0
C189 C 0.34614 0.73585 0.1475 0.0
C190 C 0.35729 0.76055 0.1703 0.0
C191 C 0.34323 0.78588 0.16216 0.0
C192 C 0.36309 0.70974 0.15029 0.0
C193 C 0.39015 0.71088 0.13842 0.0
C194 C 0.35195 0.68353 0.15949 0.0
C195 C 0.32435 0.68103 0.1755 0.0
C196 C 0.31821 0.69688 0.21501 0.0
C197 C 0.2921 0.69467 0.22968 0.0
C198 C 0.27197 0.67656 0.20527 0.0
C199 C 0.27793 0.66058 0.16618 0.0
C200 C 0.30401 0.66272 0.15134 0.0
C201 C 0.44728 0.60616 0.11204 0.0
C202 C 0.43184 0.5918 0.07286 0.0
C203 C 0.43443 0.62705 0.1367 0.0
C204 C 0.40611 0.63383 0.12212 0.0
C205 C 0.39028 0.61732 0.08633 0.0
C206 C 0.40301 0.59664 0.06193 0.0
C207 C 0.39352 0.66018 0.13796 0.0
C208 C 0.36728 0.65914 0.1531 0.0
C209 C 0.4053 0.68653 0.13162 0.0
C210 C 0.4323 0.68934 0.11397 0.0
C211 C 0.43535 0.67966 0.06777 0.0
C212 C 0.46111 0.68177 0.05183 0.0
C213 C 0.48388 0.69379 0.0816 0.0
C214 C 0.48089 0.70385 0.12729 0.0
C215 C 0.45517 0.70174 0.14344 0.0
H216 H 0.50382 0.69538 0.06922 0.0
H217 H 0.25176 0.67489 0.21667 0.0
H218 H 0.82224 0.77943 0.67979 0.0
H219 H 0.84495 0.82398 0.67146 0.0
H220 H 0.79485 0.83354 0.5329 0.0
H221 H 0.77232 0.78854 0.54081 0.0
H222 H 0.84927 0.83983 0.52892 0.0
H223 H 0.786 0.87636 0.62804 0.0
H224 H 0.76155 0.87908 0.69812 0.0
H225 H 0.83968 0.89142 0.79077 0.0
H226 H 0.86468 0.88836 0.72129 0.0
H227 H 0.89824 0.96824 0.47917 0.0
H228 H 0.86467 0.93669 0.50546 0.0
H229 H 0.92235 0.92115 0.63412 0.0
H230 H 0.95614 0.95341 0.60799 0.0
H231 H 0.86307 0.91959 0.64521 0.0
H232 H 0.92619 0.8795 0.54689 0.0
H233 H 0.95073 0.87721 0.47685 0.0
H234 H 0.87226 0.87103 0.38315 0.0
H235 H 0.84722 0.87377 0.45266 0.0
C236 C 0.81581 0.79118 0.64776 0.0
C237 C 0.79567 0.78035 0.61071 0.0
C238 C 0.82865 0.81679 0.64324 0.0
C239 C 0.82159 0.83222 0.60163 0.0
C240 C 0.80062 0.82202 0.56539 0.0
C241 C 0.78764 0.7964 0.57001 0.0
C242 C 0.83804 0.85742 0.59405 0.0
C243 C 0.85179 0.85745 0.55397 0.0
C244 C 0.84219 0.88007 0.62754 0.0
C245 C 0.82725 0.88186 0.66945 0.0
C246 C 0.79801 0.8794 0.66339 0.0
C247 C 0.78404 0.88105 0.703 0.0
C248 C 0.79906 0.88535 0.74888 0.0
C249 C 0.82808 0.88806 0.75522 0.0
C250 C 0.84215 0.8864 0.71572 0.0
C251 C 0.90339 0.95887 0.51389 0.0
C252 C 0.9298 0.96307 0.54145 0.0
C253 C 0.88422 0.9408 0.52881 0.0
C254 C 0.89123 0.92616 0.57125 0.0
C255 C 0.91657 0.93224 0.60119 0.0
C256 C 0.93581 0.9507 0.58636 0.0
C257 C 0.87391 0.90189 0.58 0.0
C258 C 0.86026 0.90196 0.62021 0.0
C259 C 0.86983 0.87916 0.54679 0.0
C260 C 0.88483 0.87713 0.50494 0.0
C261 C 0.91416 0.87788 0.51133 0.0
C262 C 0.92816 0.87647 0.47173 0.0
C263 C 0.91306 0.87405 0.42557 0.0
C264 C 0.88393 0.87295 0.41892 0.0
C265 C 0.86982 0.87442 0.45841 0.0
H266 H 0.92394 0.87296 0.39495 0.0
H267 H 0.7882 0.88664 0.7795 0.0
H268 H 0.71493 0.27552 0.91872 0.0
H269 H 0.69274 0.32174 0.9103 0.0
H270 H 0.65582 0.30846 0.03706 0.0
H271 H 0.67802 0.26287 0.0459 0.0
H272 H 0.63685 0.3362 0.89777 0.0
H273 H 0.65467 0.36798 0.0999 0.0
H274 H 0.69053 0.36217 0.17093 0.0
H275 H 0.75337 0.35121 0.0807 0.0
H276 H 0.71798 0.35737 0.00916 0.0
H277 H 0.53718 0.42368 0.99228 0.0
H278 H 0.56773 0.38949 0.96083 0.0
H279 H 0.63459 0.44962 0.97989 0.0
H280 H 0.60413 0.48363 0.01181 0.0
H281 H 0.64686 0.40456 0.03355 0.0
H282 H 0.61328 0.4228 0.87311 0.0
H283 H 0.58137 0.42955 0.79771 0.0
H284 H 0.55474 0.34435 0.79733 0.0
H285 H 0.5857 0.33727 0.8737 0.0
C286 C 0.70236 0.2827 0.94505 0.0
C287 C 0.69815 0.26553 0.98289 0.0
C288 C 0.68952 0.30897 0.94 0.0
C289 C 0.67269 0.31864 0.97316 0.0
C290 C 0.66889 0.30162 0.01125 0.0
C291 C 0.68148 0.27546 0.01612 0.0
C292 C 0.65851 0.34621 0.96828 0.0
C293 C 0.639 0.35129 0.92726 0.0
C294 C 0.66208 0.36628 0.00617 0.0
C295 C 0.6836 0.36298 0.04912 0.0
C296 C 0.67616 0.3645 0.09521 0.0
C297 C 0.69641 0.36111 0.13557 0.0
C298 C 0.7242 0.35627 0.13033 0.0
C299 C 0.73182 0.35489 0.08471 0.0
C300 C 0.71167 0.35829 0.04423 0.0
C301 C 0.55785 0.4301 0.98695 0.0
C302 C 0.56819 0.45642 0.00365 0.0
C303 C 0.57539 0.41048 0.96919 0.0
C304 C 0.60352 0.41692 0.968 0.0
C305 C 0.61297 0.44418 0.98027 0.0
C306 C 0.59546 0.46374 0.998 0.0
C307 C 0.62399 0.39411 0.96386 0.0
C308 C 0.64473 0.38981 0.00355 0.0
C309 C 0.62164 0.37504 0.9244 0.0
C310 C 0.60176 0.37957 0.87964 0.0
C311 C 0.60028 0.40559 0.85754 0.0
C312 C 0.58241 0.40946 0.81443 0.0
C313 C 0.56612 0.38737 0.79265 0.0
C314 C 0.5675 0.3614 0.8141 0.0
C315 C 0.58513 0.35749 0.85745 0.0
H316 H 0.55232 0.3904 0.75925 0.0
H317 H 0.73983 0.35362 0.16162 0.0
H318 H 0.14484 0.86215 0.15531 0.0
H319 H 0.12495 0.88208 0.22283 0.0
H320 H 0.20557 0.91507 0.28389 0.0
H321 H 0.22563 0.89538 0.21608 0.0
H322 H 0.17575 0.89441 0.35305 0.0
H323 H 0.161 0.9569 0.22088 0.0
H324 H 0.14577 0.96797 0.13618 0.0
H325 H 0.062 0.94366 0.14755 0.0
H326 H 0.07682 0.93205 0.23218 0.0
H327 H 0.0788 0.01113 0.44233 0.0
H328 H 0.11302 0.99463 0.39242 0.0
H329 H 0.0937 0.90956 0.42043 0.0
H330 H 0.05958 0.9258 0.46973 0.0
H331 H 0.09905 0.9622 0.30969 0.0
H332 H 0.1513 0.86923 0.41604 0.0
H333 H 0.16637 0.85656 0.50003 0.0
H334 H 0.17609 0.94309 0.54113 0.0
H335 H 0.16151 0.95629 0.4573 0.0
C336 C 0.15842 0.87343 0.18331 0.0
C337 C 0.18678 0.87741 0.18001 0.0
C338 C 0.14703 0.88478 0.22191 0.0
C339 C 0.16368 0.90047 0.25799 0.0
C340 C 0.19233 0.90309 0.25639 0.0
C341 C 0.20378 0.89171 0.21768 0.0
C342 C 0.15069 0.9156 0.2954 0.0
C343 C 0.15907 0.90932 0.34369 0.0
C344 C 0.12926 0.93545 0.28319 0.0
C345 C 0.12007 0.94347 0.23283 0.0
C346 C 0.13935 0.95385 0.20529 0.0
C347 C 0.13079 0.9602 0.15728 0.0
C348 C 0.10294 0.95648 0.13648 0.0
C349 C 0.08356 0.94654 0.16373 0.0
C350 C 0.09202 0.94011 0.21174 0.0
C351 C 0.08242 0.98895 0.43883 0.0
C352 C 0.06644 0.96975 0.45981 0.0
C353 C 0.10181 0.97954 0.41005 0.0
C354 C 0.10592 0.95085 0.40266 0.0
C355 C 0.09111 0.93177 0.42589 0.0
C356 C 0.07155 0.94111 0.45403 0.0
C357 C 0.1236 0.94052 0.36743 0.0
C358 C 0.11601 0.94762 0.31932 0.0
C359 C 0.14574 0.92146 0.3799 0.0
C360 C 0.15512 0.91374 0.43035 0.0
C361 C 0.15682 0.88556 0.44293 0.0
C362 C 0.16524 0.87828 0.49054 0.0
C363 C 0.17212 0.89901 0.52591 0.0
C364 C 0.17068 0.92706 0.51372 0.0
C365 C 0.1623 0.93445 0.46616 0.0
H366 H 0.17861 0.89331 0.56273 0.0
H367 H 0.09637 0.96132 0.09926 0.0
H368 H 0.70382 0.65421 0.69824 0.0
H369 H 0.68377 0.63333 0.76348 0.0
H370 H 0.6067 0.67726 0.71975 0.0
H371 H 0.62664 0.69821 0.6545 0.0
H372 H 0.62484 0.6793 0.8196 0.0
H373 H 0.6114 0.6113 0.68795 0.0
H374 H 0.62757 0.57994 0.62761 0.0
H375 H 0.67915 0.53607 0.73879 0.0
H376 H 0.66357 0.56747 0.79978 0.0
H377 H 0.51507 0.61288 0.89853 0.0
H378 H 0.54912 0.63244 0.85464 0.0
H379 H 0.61013 0.57234 0.9148 0.0
H380 H 0.57548 0.55197 0.95906 0.0
H381 H 0.60929 0.57713 0.81877 0.0
H382 H 0.61746 0.63996 0.95143 0.0
H383 H 0.60157 0.67086 0.01262 0.0
H384 H 0.56188 0.72437 0.90299 0.0
H385 H 0.57715 0.69356 0.84103 0.0
C386 C 0.68271 0.65966 0.70291 0.0
C387 C 0.66677 0.67787 0.67131 0.0
C388 C 0.67125 0.64759 0.73999 0.0
C389 C 0.64372 0.65366 0.74631 0.0
C390 C 0.628 0.67232 0.7155 0.0
C391 C 0.63933 0.68415 0.67812 0.0
C392 C 0.63086 0.6401 0.78416 0.0
C393 C 0.62134 0.65698 0.8194 0.0
C394 C 0.62734 0.61086 0.78499 0.0
C395 C 0.6366 0.59195 0.74835 0.0
C396 C 0.62639 0.59513 0.69949 0.0
C397 C 0.6354 0.57732 0.66518 0.0
C398 C 0.65445 0.55608 0.67934 0.0
C399 C 0.66445 0.55257 0.72786 0.0
C400 C 0.65553 0.57036 0.76231 0.0
C401 C 0.53573 0.60374 0.90291 0.0
C402 C 0.5425 0.58079 0.9325 0.0
C403 C 0.5553 0.61516 0.87787 0.0
C404 C 0.58236 0.60421 0.88195 0.0
C405 C 0.5894 0.58126 0.9114 0.0
C406 C 0.56964 0.56971 0.93675 0.0
C407 C 0.60241 0.61644 0.85342 0.0
C408 C 0.61331 0.59937 0.81982 0.0
C409 C 0.60745 0.64553 0.85437 0.0
C410 C 0.59837 0.66434 0.89152 0.0
C411 C 0.6052 0.65822 0.94031 0.0
C412 C 0.59631 0.67574 0.97515 0.0
C413 C 0.5807 0.69955 0.9617 0.0
C414 C 0.57399 0.70592 0.91336 0.0
C415 C 0.5828 0.68846 0.87836 0.0
H416 H 0.57383 0.71308 0.98873 0.0
H417 H 0.6614 0.5423 0.65273 0.0
H418 H 0.85326 0.13273 0.04191 0.0
H419 H 0.88001 0.11529 0.11521 0.0
H420 H 0.85839 0.18836 0.19316 0.0
H421 H 0.83184 0.20645 0.1191 0.0
H422 H 0.91493 0.17158 0.21971 0.0
H423 H 0.82385 0.13195 0.20414 0.0
H424 H 0.78169 0.10816 0.16241 0.0
H425 H 0.8302 0.0355 0.1395 0.0
H426 H 0.87276 0.05902 0.18045 0.0
H427 H 0.95954 0.09753 0.44075 0.0
H428 H 0.93403 0.12634 0.37778 0.0
H429 H 0.93995 0.0603 0.27372 0.0
H430 H 0.96498 0.03157 0.33582 0.0
H431 H 0.88736 0.07844 0.26864 0.0
H432 H 0.97906 0.11995 0.27835 0.0
H433 H 0.0212 0.14392 0.31983 0.0
H434 H 0.97125 0.21311 0.35509 0.0
H435 H 0.92874 0.18935 0.31435 0.0
C436 C 0.85457 0.14545 0.07432 0.0
C437 C 0.84043 0.17108 0.07449 0.0
C438 C 0.86972 0.1353 0.11637 0.0
C439 C 0.871 0.15038 0.15978 0.0
C440 C 0.85764 0.17637 0.16006 0.0
C441 C 0.84232 0.18656 0.11782 0.0
C442 C 0.88524 0.13803 0.20479 0.0
C443 C 0.90865 0.15145 0.231 0.0
C444 C 0.87714 0.11169 0.21937 0.0
C445 C 0.85154 0.09733 0.1951 0.0
C446 C 0.82557 0.11097 0.18992 0.0
C447 C 0.80159 0.09752 0.16644 0.0
C448 C 0.80327 0.07035 0.14824 0.0
C449 C 0.82893 0.05655 0.15359 0.0
C450 C 0.85299 0.06992 0.17699 0.0
C451 C 0.9557 0.08934 0.40432 0.0
C452 C 0.96415 0.06215 0.39346 0.0
C453 C 0.94113 0.10583 0.36836 0.0
C454 C 0.93495 0.09544 0.32098 0.0
C455 C 0.94423 0.0687 0.31002 0.0
C456 C 0.95865 0.0523 0.34568 0.0
C457 C 0.91773 0.11145 0.28271 0.0
C458 C 0.89355 0.09873 0.25782 0.0
C459 C 0.92514 0.13839 0.26961 0.0
C460 C 0.95069 0.15273 0.29381 0.0
C461 C 0.97703 0.14017 0.2953 0.0
C462 C 1.00099 0.15374 0.31861 0.0
C463 C 0.99889 0.17998 0.34022 0.0
C464 C 0.97284 0.19275 0.33842 0.0
C465 C 0.94881 0.17925 0.3152 0.0
H466 H 0.01746 0.19045 0.35826 0.0
H467 H 0.78468 0.05998 0.13006 0.0
H468 H 0.33179 0.32061 0.62308 0.0
H469 H 0.3484 0.33837 0.70461 0.0
H470 H 0.4184 0.37726 0.65522 0.0
H471 H 0.40274 0.35865 0.57484 0.0
H472 H 0.43483 0.35923 0.74178 0.0
H473 H 0.35592 0.41276 0.66343 0.0
H474 H 0.30727 0.41891 0.62416 0.0
H475 H 0.27751 0.38843 0.74846 0.0
H476 H 0.32605 0.3818 0.78823 0.0
H477 H 0.42159 0.50178 0.85926 0.0
H478 H 0.40317 0.46415 0.80518 0.0
H479 H 0.44223 0.40404 0.9052 0.0
H480 H 0.46196 0.44224 0.95953 0.0
H481 H 0.36884 0.42337 0.80681 0.0
H482 H 0.45854 0.34782 0.8433 0.0
H483 H 0.50745 0.34853 0.88403 0.0
H484 H 0.51737 0.43163 0.83649 0.0
H485 H 0.46863 0.43128 0.7951 0.0
C486 C 0.35099 0.3325 0.62987 0.0
C487 C 0.36556 0.33874 0.59216 0.0
C488 C 0.36041 0.34276 0.67644 0.0
C489 C 0.38445 0.35959 0.68604 0.0
C490 C 0.39979 0.36444 0.64892 0.0
C491 C 0.39053 0.3541 0.60268 0.0
C492 C 0.39248 0.37447 0.73303 0.0
C493 C 0.42026 0.37295 0.75632 0.0
C494 C 0.37365 0.39248 0.75233 0.0
C495 C 0.34454 0.39644 0.72849 0.0
C496 C 0.33898 0.40719 0.68221 0.0
C497 C 0.31145 0.41079 0.6599 0.0
C498 C 0.28931 0.40397 0.68373 0.0
C499 C 0.29468 0.39362 0.72999 0.0
C500 C 0.32218 0.38994 0.75243 0.0
C501 C 0.4263 0.4806 0.87017 0.0
C502 C 0.44348 0.47509 0.91375 0.0
C503 C 0.41551 0.459 0.83914 0.0
C504 C 0.4213 0.43116 0.85077 0.0
C505 C 0.43772 0.42536 0.89504 0.0
C506 C 0.44899 0.44719 0.92609 0.0
C507 C 0.41135 0.40893 0.81443 0.0
C508 C 0.38319 0.40899 0.79317 0.0
C509 C 0.42998 0.39022 0.79625 0.0
C510 C 0.45997 0.38958 0.81659 0.0
C511 C 0.47129 0.36608 0.8411 0.0
C512 C 0.4989 0.36649 0.86448 0.0
C513 C 0.51532 0.39025 0.86332 0.0
C514 C 0.50449 0.41336 0.83769 0.0
C515 C 0.47694 0.41303 0.81416 0.0
H516 H 0.53649 0.39073 0.8821 0.0
H517 H 0.26801 0.40678 0.66641 0.0
H518 H 0.64985 0.64769 0.51094 0.0
H519 H 0.62729 0.63566 0.42989 0.0
H520 H 0.64397 0.71805 0.38418 0.0
H521 H 0.66702 0.73036 0.46596 0.0
H522 H 0.58127 0.68262 0.35557 0.0
H523 H 0.67981 0.68972 0.33913 0.0
H524 H 0.72986 0.68263 0.36872 0.0
H525 H 0.716 0.59465 0.37624 0.0
H526 H 0.66579 0.60131 0.34743 0.0
H527 H 0.53898 0.60709 0.12791 0.0
H528 H 0.55984 0.64399 0.18449 0.0
H529 H 0.60524 0.58149 0.27213 0.0
H530 H 0.58569 0.54544 0.21624 0.0
H531 H 0.63857 0.62209 0.26467 0.0
H532 H 0.54121 0.61429 0.29231 0.0
H533 H 0.49035 0.61903 0.26778 0.0
H534 H 0.50051 0.706 0.24291 0.0
H535 H 0.55148 0.70161 0.26611 0.0
C536 C 0.64835 0.66349 0.48397 0.0
C537 C 0.66008 0.69007 0.49499 0.0
C538 C 0.63545 0.65655 0.43764 0.0
C539 C 0.63378 0.67602 0.40124 0.0
C540 C 0.64489 0.70282 0.41199 0.0
C541 C 0.65819 0.70973 0.45851 0.0
C542 C 0.62245 0.66684 0.35162 0.0
C543 C 0.59385 0.67001 0.33477 0.0
C544 C 0.63882 0.65021 0.32497 0.0
C545 C 0.66905 0.64606 0.34146 0.0
C546 C 0.68742 0.6689 0.34746 0.0
C547 C 0.71581 0.66495 0.36402 0.0
C548 C 0.7261 0.63821 0.37443 0.0
C549 C 0.70801 0.61535 0.36818 0.0
C550 C 0.67959 0.6192 0.35168 0.0
C551 C 0.55355 0.6014 0.15915 0.0
C552 C 0.56075 0.57328 0.16722 0.0
C553 C 0.56541 0.62246 0.19153 0.0
C554 C 0.58424 0.61559 0.23272 0.0
C555 C 0.59114 0.58753 0.24049 0.0
C556 C 0.57974 0.56679 0.20829 0.0
C557 C 0.59694 0.63672 0.26916 0.0
C558 C 0.62597 0.63561 0.28397 0.0
C559 C 0.58081 0.65501 0.29394 0.0
C560 C 0.55017 0.65754 0.28028 0.0
C561 C 0.5326 0.63436 0.28116 0.0
C562 C 0.50376 0.63698 0.26746 0.0
C563 C 0.49222 0.66277 0.25351 0.0
C564 C 0.50948 0.686 0.25338 0.0
C565 C 0.53835 0.68345 0.26673 0.0
H566 H 0.46989 0.66479 0.24304 0.0
H567 H 0.74808 0.6352 0.38727 0.0
H568 H 0.78904 0.14366 0.87635 0.0
H569 H 0.80752 0.12451 0.80621 0.0
H570 H 0.87741 0.18096 0.8353 0.0
H571 H 0.8594 0.19958 0.90611 0.0
H572 H 0.85063 0.17379 0.73278 0.0
H573 H 0.88897 0.122 0.8745 0.0
H574 H 0.8843 0.09377 0.94445 0.0
H575 H 0.83793 0.03203 0.85259 0.0
H576 H 0.84191 0.06021 0.78213 0.0
H577 H 0.96842 0.12704 0.64565 0.0
H578 H 0.93137 0.1434 0.68743 0.0
H579 H 0.88899 0.06446 0.6588 0.0
H580 H 0.92705 0.0474 0.61741 0.0
H581 H 0.89145 0.07895 0.74987 0.0
H582 H 0.86085 0.12549 0.60646 0.0
H583 H 0.8642 0.15326 0.53547 0.0
H584 H 0.89284 0.22378 0.62589 0.0
H585 H 0.89008 0.19633 0.69749 0.0
C586 C 0.80804 0.15232 0.86708 0.0
C587 C 0.8228 0.17314 0.89634 0.0
C588 C 0.8186 0.14132 0.82724 0.0
C589 C 0.84382 0.15133 0.81567 0.0
C590 C 0.85785 0.17307 0.84354 0.0
C591 C 0.84761 0.18365 0.88391 0.0
C592 C 0.85686 0.13783 0.77694 0.0
C593 C 0.85961 0.15308 0.73634 0.0
C594 C 0.86755 0.1104 0.78089 0.0
C595 C 0.86539 0.09338 0.82316 0.0
C596 C 0.87753 0.10255 0.86928 0.0
C597 C 0.87506 0.08654 0.909 0.0
C598 C 0.86074 0.06117 0.90299 0.0
C599 C 0.84895 0.05172 0.8572 0.0
C600 C 0.8513 0.06771 0.81737 0.0
C601 C 0.95109 0.11314 0.64747 0.0
C602 C 0.95083 0.0858 0.6283 0.0
C603 C 0.92967 0.12269 0.67115 0.0
C604 C 0.90707 0.10538 0.67586 0.0
C605 C 0.90614 0.07829 0.65541 0.0
C606 C 0.9278 0.0686 0.63154 0.0
C607 C 0.88613 0.11523 0.7059 0.0
C608 C 0.8819 0.09937 0.74522 0.0
C609 C 0.87376 0.14201 0.70039 0.0
C610 C 0.87534 0.15877 0.65742 0.0
C611 C 0.86803 0.14687 0.61125 0.0
C612 C 0.8698 0.16257 0.57088 0.0
C613 C 0.87875 0.19026 0.57616 0.0
C614 C 0.88589 0.20233 0.62185 0.0
C615 C 0.88417 0.18672 0.66235 0.0
H616 H 0.88012 0.20238 0.54486 0.0
H617 H 0.85887 0.04879 0.93378 0.0
H618 H 0.39635 0.3727 0.45649 0.0
H619 H 0.4077 0.40227 0.39368 0.0
H620 H 0.32945 0.38079 0.30586 0.0
H621 H 0.31786 0.35086 0.36919 0.0
H622 H 0.37087 0.37834 0.25404 0.0
H623 H 0.33929 0.44651 0.35589 0.0
H624 H 0.33427 0.47104 0.43162 0.0
H625 H 0.42155 0.49131 0.4545 0.0
H626 H 0.42722 0.46653 0.37928 0.0
H627 H 0.4259 0.47808 0.09974 0.0
H628 H 0.3921 0.45932 0.14771 0.0
H629 H 0.45867 0.44808 0.26573 0.0
H630 H 0.49214 0.46597 0.21843 0.0
H631 H 0.40895 0.47356 0.29116 0.0
H632 H 0.43974 0.39465 0.19786 0.0
H633 H 0.44392 0.37027 0.12153 0.0
H634 H 0.35487 0.37232 0.08115 0.0
H635 H 0.35024 0.39706 0.15707 0.0
C636 C 0.38124 0.37462 0.42427 0.0
C637 C 0.35602 0.35965 0.41818 0.0
C638 C 0.38778 0.39158 0.38825 0.0
C639 C 0.36919 0.39426 0.34531 0.0
C640 C 0.34403 0.37922 0.3388 0.0
C641 C 0.33747 0.36209 0.37495 0.0
C642 C 0.37711 0.4118 0.3069 0.0
C643 C 0.37846 0.39945 0.26177 0.0
C644 C 0.38694 0.43943 0.31665 0.0
C645 C 0.38369 0.45455 0.36192 0.0
C646 C 0.35746 0.45605 0.37719 0.0
C647 C 0.35449 0.47002 0.42003 0.0
C648 C 0.37758 0.48271 0.44787 0.0
C649 C 0.40368 0.48148 0.43288 0.0
C650 C 0.40677 0.46752 0.39008 0.0
C651 C 0.43315 0.47173 0.13601 0.0
C652 C 0.46167 0.47326 0.1552 0.0
C653 C 0.4139 0.46104 0.16328 0.0
C654 C 0.42295 0.45237 0.21027 0.0
C655 C 0.45124 0.45474 0.22967 0.0
C656 C 0.47038 0.46481 0.20239 0.0
C657 C 0.4038 0.43957 0.2396 0.0
C658 C 0.4004 0.45282 0.28303 0.0
C659 C 0.39184 0.41297 0.2281 0.0
C660 C 0.39467 0.39801 0.18274 0.0
C661 C 0.42109 0.39012 0.17249 0.0
C662 C 0.42353 0.3762 0.12937 0.0
C663 C 0.39968 0.36985 0.09643 0.0
C664 C 0.37333 0.37732 0.10664 0.0
C665 C 0.37078 0.39129 0.14969 0.0
H666 H 0.40161 0.35906 0.06306 0.0
H667 H 0.37523 0.49351 0.48103 0.0
H668 H 0.16904 0.92179 0.03035 0.0
H669 H 0.14114 0.93766 0.95679 0.0
H670 H 0.15222 0.85809 0.88798 0.0
H671 H 0.18108 0.84232 0.96185 0.0
H672 H 0.15535 0.89962 0.82695 0.0
H673 H 0.09013 0.87402 0.92818 0.0
H674 H 0.07141 0.87281 0.00429 0.0
H675 H 0.06004 0.96152 1.00208 0.0
H676 H 0.079 0.96333 0.92623 0.0
H677 H 0.05189 0.95426 0.6378 0.0
H678 H 0.07339 0.92196 0.69935 0.0
H679 H 0.08269 0.98947 0.80404 0.0
H680 H 0.06153 0.02136 0.74376 0.0
H681 H 0.06367 0.94275 0.84006 0.0
H682 H 0.13684 0.96855 0.74857 0.0
H683 H 0.15735 0.97084 0.67426 0.0
H684 H 0.1535 0.88168 0.65855 0.0
H685 H 0.13264 0.87891 0.73257 0.0
C686 C 0.16548 0.90762 0.99961 0.0
C687 C 0.17686 0.88065 1.00207 0.0
C688 C 0.14947 0.91668 0.95754 0.0
C689 C 0.14387 0.89883 0.91709 0.0
C690 C 0.15601 0.87216 0.91881 0.0
C691 C 0.17245 0.86317 0.96096 0.0
C692 C 0.12511 0.90833 0.87366 0.0
C693 C 0.13502 0.90845 0.82955 0.0
C694 C 0.09852 0.9199 0.87683 0.0
C695 C 0.08607 0.9188 0.92153 0.0
C696 C 0.08366 0.89328 0.94394 0.0
C697 C 0.07303 0.89249 0.98707 0.0
C698 C 0.06457 0.91708 0.00803 0.0
C699 C 0.06657 0.94249 0.98576 0.0
C700 C 0.0772 0.9434 0.94263 0.0
C701 C 0.0583 0.96205 0.67408 0.0
C702 C 0.05516 0.99043 0.68573 0.0
C703 C 0.07067 0.94363 0.70914 0.0
C704 C 0.07979 0.95333 0.75633 0.0
C705 C 0.0758 0.98143 0.76802 0.0
C706 C 0.06379 0.99972 0.73327 0.0
C707 C 0.09442 0.93507 0.79403 0.0
C708 C 0.08367 0.93322 0.83713 0.0
C709 C 0.12012 0.92191 0.78984 0.0
C710 C 0.13288 0.92355 0.74571 0.0
C711 C 0.14019 0.94946 0.72907 0.0
C712 C 0.1519 0.95084 0.68706 0.0
C713 C 0.15663 0.92642 0.66162 0.0
C714 C 0.14976 0.90057 0.67825 0.0
C715 C 0.13801 0.89908 0.72023 0.0
H716 H 0.1657 0.92755 0.62913 0.0
H717 H 0.05646 0.91645 0.04153 0.0
loop_
_geom_bond_atom_site_label_1
_geom_bond_atom_site_label_2
_geom_bond_distance
_geom_bond_site_symmetry_2
_ccdc_geom_bond_type
H0 C1 0.949 . S
C1 H0 0.949 . S
C1 C2 1.395 . S
C1 C3 1.391 . S
C2 C1 1.395 . S
C2 C5 1.390 . S
C3 C1 1.391 . S
C3 C7 1.387 . S
C3 C8 1.491 . S
H4 C5 0.950 . S
C5 C2 1.390 . S
C5 H4 0.950 . S
C5 C6 1.378 . S
C6 C5 1.378 . S
C6 C7 1.409 . S
C7 C3 1.387 . S
C7 C6 1.409 . S
C7 H9 0.951 1_554 S
C8 C3 1.491 . S
C8 C10 1.382 . S
C8 C12 1.404 . S
H9 C7 0.951 1_556 S
C10 C8 1.382 . S
C10 C11 1.390 . S
C10 H15 0.949 . S
C11 C10 1.390 . S
C11 C16 1.399 . S
C12 C8 1.404 . S
C12 H13 0.950 . S
C12 C14 1.375 . S
H13 C12 0.950 . S
C14 C12 1.375 . S
C14 C16 1.382 . S
C14 H18 0.950 . S
H15 C10 0.949 . S
C16 C11 1.399 . S
C16 C14 1.382 . S
C16 H17 0.952 . S
H17 C16 0.952 . S
H18 C14 0.950 . S
H19 C20 0.949 . S
C20 H19 0.949 . S
C20 C21 1.395 . S
C20 C22 1.391 . S
C21 C20 1.395 . S
C21 C24 1.390 . S
C22 C20 1.391 . S
C22 C26 1.387 . S
C22 C27 1.491 . S
H23 C24 0.950 . S
C24 C21 1.390 . S
C24 H23 0.950 . S
C24 C25 1.378 . S
C25 C24 1.378 . S
C25 C26 1.409 . S
C26 C22 1.387 . S
C26 C25 1.409 . S
C26 H28 0.951 . S
C27 C22 1.491 . S
C27 C29 1.382 . S
C27 C31 1.404 . S
H28 C26 0.951 . S
C29 C27 1.382 . S
C29 C30 1.390 . S
C29 H34 0.949 . S
C30 C29 1.390 . S
C30 C35 1.399 . S
C31 C27 1.404 . S
C31 H32 0.950 . S
C31 C33 1.375 . S
H32 C31 0.950 . S
C33 C31 1.375 . S
C33 C35 1.382 . S
C33 H37 0.950 . S
H34 C29 0.949 . S
C35 C30 1.399 . S
C35 C33 1.382 . S
C35 H36 0.952 . S
H36 C35 0.952 . S
H37 C33 0.950 . S
H38 C39 0.949 . S
C39 H38 0.949 . S
C39 C40 1.395 . S
C39 C41 1.391 1_554 S
C40 C39 1.395 . S
C40 C43 1.401 . S
C41 C39 1.391 1_556 S
C41 C45 1.387 . S
C41 C46 1.491 . S
H42 C43 0.951 . S
C43 C40 1.401 . S
C43 H42 0.951 . S
C43 C44 1.366 1_554 S
C44 C43 1.366 1_556 S
C44 C45 1.409 . S
C45 C41 1.387 . S
C45 C44 1.409 . S
C45 H47 0.951 . S
C46 C41 1.491 . S
C46 C48 1.389 . S
C46 C50 1.404 . S
H47 C45 0.951 . S
C48 C46 1.389 . S
C48 C49 1.391 . S
C48 H53 0.941 1_556 S
C49 C48 1.391 . S
C49 C54 1.399 . S
C50 C46 1.404 . S
C50 H51 0.950 . S
C50 C52 1.375 . S
H51 C50 0.950 . S
C52 C50 1.375 . S
C52 C54 1.382 . S
C52 H56 0.950 . S
H53 C48 0.941 1_554 S
C54 C49 1.399 . S
C54 C52 1.382 . S
C54 H55 0.952 . S
H55 C54 0.952 . S
H56 C52 0.950 . S
H57 C58 0.949 . S
C58 H57 0.949 . S
C58 C59 1.395 . S
C58 C60 1.391 . S
C59 C58 1.395 . S
C59 C62 1.390 . S
C60 C58 1.391 . S
C60 C64 1.387 . S
C60 C65 1.491 . S
H61 C62 0.950 . S
C62 C59 1.390 . S
C62 H61 0.950 . S
C62 C63 1.378 . S
C63 C62 1.378 . S
C63 C64 1.409 . S
C64 C60 1.387 . S
C64 C63 1.409 . S
C64 H66 0.951 . S
C65 C60 1.491 . S
C65 C67 1.382 . S
C65 C69 1.404 . S
H66 C64 0.951 . S
C67 C65 1.382 . S
C67 C68 1.390 . S
C67 H72 0.949 . S
C68 C67 1.390 . S
C68 C73 1.399 . S
C69 C65 1.404 . S
C69 H70 0.950 . S
C69 C71 1.375 . S
H70 C69 0.950 . S
C71 C69 1.375 . S
C71 C73 1.382 . S
C71 H75 0.950 . S
H72 C67 0.949 . S
C73 C68 1.399 . S
C73 C71 1.382 . S
C73 H74 0.952 . S
H74 C73 0.952 . S
H75 C71 0.950 . S
O76 Mg77 1.990 . S
O76 C90 1.253 1_455 S
Mg77 O76 1.990 . S
Mg77 O80 2.180 . S
Mg77 O81 2.117 . S
Mg77 O95 2.030 . S
O78 Mg79 2.072 1_655 S
O78 C90 1.260 . S
Mg79 O78 2.072 1_455 S
Mg79 O80 2.099 . S
Mg79 O82 2.079 1_545 S
Mg79 O83 2.072 1_455 S
Mg79 O85 2.099 1_445 S
Mg79 O96 2.079 1_545 S
O80 Mg77 2.180 . S
O80 Mg79 2.099 . S
O80 C91 1.279 . S
O81 Mg77 2.117 . S
O81 C91 1.250 . S
O82 Mg79 2.079 1_565 S
O82 C92 1.264 . S
O83 Mg79 2.072 1_655 S
O83 C93 1.260 . S
Mg84 O85 2.180 . S
Mg84 O86 2.030 1_655 S
Mg84 O87 1.990 1_565 S
Mg84 O88 2.117 . S
O85 Mg79 2.099 1_665 S
O85 Mg84 2.180 . S
O85 C94 1.279 . S
O86 Mg84 2.030 1_455 S
O86 C92 1.248 . S
O87 Mg84 1.990 1_545 S
O87 C93 1.253 . S
O88 Mg84 2.117 . S
O88 C94 1.250 . S
C89 O95 1.248 1_565 S
C89 O96 1.264 . S
C90 O76 1.253 1_655 S
C90 O78 1.260 . S
C91 O80 1.279 . S
C91 O81 1.250 . S
C92 O82 1.264 . S
C92 O86 1.248 . S
C93 O83 1.260 . S
C93 O87 1.253 . S
C94 O85 1.279 . S
C94 O88 1.250 . S
O95 Mg77 2.030 . S
O95 C89 1.248 1_545 S
O96 Mg79 2.079 1_565 S
O96 C89 1.264 . S
O97 Mg98 1.990 . S
O97 C111 1.253 . S
Mg98 O97 1.990 . S
Mg98 O101 2.180 . S
Mg98 O102 2.117 . S
Mg98 O116 2.030 . S
O99 Mg100 2.072 . S
O99 C111 1.260 . S
Mg100 O99 2.072 . S
Mg100 O101 2.099 . S
Mg100 O103 2.079 1_554 S
Mg100 O104 2.072 . S
Mg100 O106 2.099 . S
Mg100 O117 2.079 . S
O101 Mg98 2.180 . S
O101 Mg100 2.099 . S
O101 C112 1.279 . S
O102 Mg98 2.117 . S
O102 C112 1.250 . S
O103 Mg100 2.079 1_556 S
O103 C113 1.264 . S
O104 Mg100 2.072 . S
O104 C114 1.260 1_554 S
Mg105 O106 2.180 1_556 S
Mg105 O107 2.030 . S
Mg105 O108 1.990 . S
Mg105 O109 2.117 1_556 S
O106 Mg100 2.099 . S
O106 Mg105 2.180 1_554 S
O106 C115 1.279 . S
O107 Mg105 2.030 . S
O107 C113 1.248 . S
O108 Mg105 1.990 . S
O108 C114 1.253 . S
O109 Mg105 2.117 1_554 S
O109 C115 1.250 . S
C110 O116 1.248 . S
C110 O117 1.264 . S
C111 O97 1.253 . S
C111 O99 1.260 . S
C112 O101 1.279 . S
C112 O102 1.250 . S
C113 O103 1.264 . S
C113 O107 1.248 . S
C114 O104 1.260 1_556 S
C114 O108 1.253 . S
C115 O106 1.279 . S
C115 O109 1.250 . S
O116 Mg98 2.030 . S
O116 C110 1.248 . S
O117 Mg100 2.079 . S
O117 C110 1.264 . S
H118 C136 0.951 . S
H119 C138 0.951 . S
H120 C140 0.950 . S
H121 C141 0.950 . S
H122 C143 0.950 . S
H123 C146 0.950 . S
H124 C147 0.950 . S
H125 C149 0.950 . S
H126 C150 0.950 . S
H127 C151 0.951 . S
H128 C153 0.951 . S
H129 C155 0.950 . S
H130 C156 0.950 . S
H131 C158 0.950 . S
H132 C161 0.950 . S
H133 C162 0.950 . S
H134 C164 0.950 . S
H135 C165 0.950 . S
C136 H118 0.951 . S
C136 C137 1.366 . S
C136 C138 1.388 . S
C137 C136 1.366 . S
C137 C141 1.385 . S
C138 H119 0.951 . S
C138 C136 1.388 . S
C138 C139 1.366 . S
C139 C138 1.366 . S
C139 C140 1.414 . S
C139 C142 1.499 . S
C140 H120 0.950 . S
C140 C139 1.414 . S
C140 C141 1.374 . S
C141 H121 0.950 . S
C141 C137 1.385 . S
C141 C140 1.374 . S
C142 C139 1.499 . S
C142 C143 1.373 . S
C142 C144 1.389 . S
C143 H122 0.950 . S
C143 C142 1.373 . S
C143 C159 1.377 . S
C144 C142 1.389 . S
C144 C145 1.524 . S
C144 C158 1.377 . S
C145 C144 1.524 . S
C145 C146 1.397 . S
C145 C150 1.363 . S
C146 H123 0.950 . S
C146 C145 1.397 . S
C146 C147 1.334 . S
C147 H124 0.950 . S
C147 C146 1.334 . S
C147 C148 1.287 . S
C148 C147 1.287 . S
C148 C149 1.524 . S
C148 H167 0.913 . S
C149 H125 0.950 . S
C149 C148 1.524 . S
C149 C150 1.415 . S
C150 H126 0.950 . S
C150 C145 1.363 . S
C150 C149 1.415 . S
C151 H127 0.951 . S
C151 C152 1.366 . S
C151 C153 1.388 . S
C152 C151 1.366 . S
C152 C156 1.385 . S
C153 H128 0.951 . S
C153 C151 1.388 . S
C153 C154 1.366 . S
C154 C153 1.366 . S
C154 C155 1.414 . S
C154 C157 1.499 . S
C155 H129 0.950 . S
C155 C154 1.414 . S
C155 C156 1.374 . S
C156 H130 0.950 . S
C156 C152 1.385 . S
C156 C155 1.374 . S
C157 C154 1.499 . S
C157 C158 1.373 . S
C157 C159 1.389 . S
C158 H131 0.950 . S
C158 C144 1.377 . S
C158 C157 1.373 . S
C159 C143 1.377 . S
C159 C157 1.389 . S
C159 C160 1.524 . S
C160 C159 1.524 . S
C160 C161 1.397 . S
C160 C165 1.363 . S
C161 H132 0.950 . S
C161 C160 1.397 . S
C161 C162 1.334 . S
C162 H133 0.950 . S
C162 C161 1.334 . S
C162 C163 1.287 . S
C163 C162 1.287 . S
C163 C164 1.524 . S
C163 H166 0.999 . S
C164 H134 0.950 . S
C164 C163 1.524 . S
C164 C165 1.415 . S
C165 H135 0.950 . S
C165 C160 1.363 . S
C165 C164 1.415 . S
H166 C163 0.999 . S
H167 C148 0.913 . S
H168 C186 0.951 . S
H169 C188 0.951 . S
H170 C190 0.950 . S
H171 C191 0.950 . S
H172 C193 0.950 . S
H173 C196 0.950 . S
H174 C197 0.950 . S
H175 C199 0.950 . S
H176 C200 0.950 . S
H177 C201 0.951 . S
H178 C203 0.951 . S
H179 C205 0.950 . S
H180 C206 0.950 . S
H181 C208 0.950 . S
H182 C211 0.950 . S
H183 C212 0.950 . S
H184 C214 0.950 . S
H185 C215 0.950 . S
C186 H168 0.951 . S
C186 C187 1.366 . S
C186 C188 1.388 . S
C187 C186 1.366 . S
C187 C191 1.385 . S
C188 H169 0.951 . S
C188 C186 1.388 . S
C188 C189 1.366 . S
C189 C188 1.366 . S
C189 C190 1.414 . S
C189 C192 1.499 . S
C190 H170 0.950 . S
C190 C189 1.414 . S
C190 C191 1.374 . S
C191 H171 0.950 . S
C191 C187 1.385 . S
C191 C190 1.374 . S
C192 C189 1.499 . S
C192 C193 1.373 . S
C192 C194 1.389 . S
C193 H172 0.950 . S
C193 C192 1.373 . S
C193 C209 1.377 . S
C194 C192 1.389 . S
C194 C195 1.524 . S
C194 C208 1.377 . S
C195 C194 1.524 . S
C195 C196 1.397 . S
C195 C200 1.363 . S
C196 H173 0.950 . S
C196 C195 1.397 . S
C196 C197 1.334 . S
C197 H174 0.950 . S
C197 C196 1.334 . S
C197 C198 1.287 . S
C198 C197 1.287 . S
C198 C199 1.524 . S
C198 H217 0.913 . S
C199 H175 0.950 . S
C199 C198 1.524 . S
C199 C200 1.415 . S
C200 H176 0.950 . S
C200 C195 1.363 . S
C200 C199 1.415 . S
C201 H177 0.951 . S
C201 C202 1.366 . S
C201 C203 1.388 . S
C202 C201 1.366 . S
C202 C206 1.385 . S
C203 H178 0.951 . S
C203 C201 1.388 . S
C203 C204 1.366 . S
C204 C203 1.366 . S
C204 C205 1.414 . S
C204 C207 1.499 . S
C205 H179 0.950 . S
C205 C204 1.414 . S
C205 C206 1.374 . S
C206 H180 0.950 . S
C206 C202 1.385 . S
C206 C205 1.374 . S
C207 C204 1.499 . S
C207 C208 1.373 . S
C207 C209 1.389 . S
C208 H181 0.950 . S
C208 C194 1.377 . S
C208 C207 1.373 . S
C209 C193 1.377 . S
C209 C207 1.389 . S
C209 C210 1.524 . S
C210 C209 1.524 . S
C210 C211 1.397 1_554 S
C210 C215 1.363 . S
C211 H182 0.950 . S
C211 C210 1.397 1_556 S
C211 C212 1.334 . S
C212 H183 0.950 . S
C212 C211 1.334 . S
C212 C213 1.287 . S
C213 C212 1.287 . S
C213 C214 1.524 . S
C213 H216 0.999 . S
C214 H184 0.950 . S
C214 C213 1.524 . S
C214 C215 1.415 1_556 S
C215 H185 0.950 . S
C215 C210 1.363 . S
C215 C214 1.415 1_554 S
H216 C213 0.999 . S
H217 C198 0.913 . S
H218 C236 0.951 . S
H219 C238 0.951 . S
H220 C240 0.950 . S
H221 C241 0.950 . S
H222 C243 0.950 . S
H223 C246 0.950 . S
H224 C247 0.950 . S
H225 C249 0.950 . S
H226 C250 0.950 . S
H227 C251 0.951 . S
H228 C253 0.951 . S
H229 C255 0.950 . S
H230 C256 0.950 . S
H231 C258 0.950 . S
H232 C261 0.950 . S
H233 C262 0.950 . S
H234 C264 0.950 . S
H235 C265 0.950 . S
C236 H218 0.951 . S
C236 C237 1.366 . S
C236 C238 1.388 . S
C237 C236 1.366 . S
C237 C241 1.385 . S
C238 H219 0.951 . S
C238 C236 1.388 . S
C238 C239 1.366 . S
C239 C238 1.366 . S
C239 C240 1.414 . S
C239 C242 1.499 . S
C240 H220 0.950 . S
C240 C239 1.414 . S
C240 C241 1.374 . S
C241 H221 0.950 . S
C241 C237 1.385 . S
C241 C240 1.374 . S
C242 C239 1.499 . S
C242 C243 1.373 . S
C242 C244 1.389 . S
C243 H222 0.950 . S
C243 C242 1.373 . S
C243 C259 1.377 . S
C244 C242 1.389 . S
C244 C245 1.524 . S
C244 C258 1.377 . S
C245 C244 1.524 . S
C245 C246 1.397 . S
C245 C250 1.363 . S
C246 H223 0.950 . S
C246 C245 1.397 . S
C246 C247 1.334 . S
C247 H224 0.950 . S
C247 C246 1.334 . S
C247 C248 1.287 . S
C248 C247 1.287 . S
C248 C249 1.524 . S
C248 H267 0.913 . S
C249 H225 0.950 . S
C249 C248 1.524 . S
C249 C250 1.415 . S
C250 H226 0.950 . S
C250 C245 1.363 . S
C250 C249 1.415 . S
C251 H227 0.951 . S
C251 C252 1.366 . S
C251 C253 1.388 . S
C252 C251 1.366 . S
C252 C256 1.385 . S
C253 H228 0.951 . S
C253 C251 1.388 . S
C253 C254 1.366 . S
C254 C253 1.366 . S
C254 C255 1.414 . S
C254 C257 1.499 . S
C255 H229 0.950 . S
C255 C254 1.414 . S
C255 C256 1.374 . S
C256 H230 0.950 . S
C256 C252 1.385 . S
C256 C255 1.374 . S
C257 C254 1.499 . S
C257 C258 1.373 . S
C257 C259 1.389 . S
C258 H231 0.950 . S
C258 C244 1.377 . S
C258 C257 1.373 . S
C259 C243 1.377 . S
C259 C257 1.389 . S
C259 C260 1.524 . S
C260 C259 1.524 . S
C260 C261 1.397 . S
C260 C265 1.363 . S
C261 H232 0.950 . S
C261 C260 1.397 . S
C261 C262 1.334 . S
C262 H233 0.950 . S
C262 C261 1.334 . S
C262 C263 1.287 . S
C263 C262 1.287 . S
C263 C264 1.524 . S
C263 H266 0.999 . S
C264 H234 0.950 . S
C264 C263 1.524 . S
C264 C265 1.415 . S
C265 H235 0.950 . S
C265 C260 1.363 . S
C265 C264 1.415 . S
H266 C263 0.999 . S
H267 C248 0.913 . S
H268 C286 0.951 . S
H269 C288 0.951 . S
H270 C290 0.950 . S
H271 C291 0.948 1_556 S
H272 C293 0.950 . S
H273 C296 0.950 . S
H274 C297 0.950 . S
H275 C299 0.950 . S
H276 C300 0.950 . S
H277 C301 0.951 . S
H278 C303 0.951 . S
H279 C305 0.950 . S
H280 C306 0.950 . S
H281 C308 0.950 . S
H282 C311 0.950 . S
H283 C312 0.950 . S
H284 C314 0.950 . S
H285 C315 0.950 . S
C286 H268 0.951 . S
C286 C287 1.366 . S
C286 C288 1.388 . S
C287 C286 1.366 . S
C287 C291 1.385 . S
C288 H269 0.951 . S
C288 C286 1.388 . S
C288 C289 1.366 . S
C289 C288 1.366 . S
C289 C290 1.414 . S
C289 C292 1.499 . S
C290 H270 0.950 . S
C290 C289 1.414 . S
C290 C291 1.374 . S
C291 H271 0.948 1_554 S
C291 C287 1.385 . S
C291 C290 1.374 . S
C292 C289 1.499 . S
C292 C293 1.373 1_554 S
C292 C294 1.389 . S
C293 H272 0.950 . S
C293 C292 1.373 1_556 S
C293 C309 1.377 . S
C294 C292 1.389 . S
C294 C295 1.524 . S
C294 C308 1.377 . S
C295 C294 1.524 . S
C295 C296 1.397 . S
C295 C300 1.363 . S
C296 H273 0.950 . S
C296 C295 1.397 . S
C296 C297 1.334 . S
C297 H274 0.950 . S
C297 C296 1.334 . S
C297 C298 1.287 . S
C298 C297 1.287 . S
C298 C299 1.524 . S
C298 H317 0.913 . S
C299 H275 0.950 . S
C299 C298 1.524 . S
C299 C300 1.415 . S
C300 H276 0.950 . S
C300 C295 1.363 . S
C300 C299 1.415 . S
C301 H277 0.951 . S
C301 C302 1.366 . S
C301 C303 1.388 . S
C302 C301 1.366 . S
C302 C306 1.385 . S
C303 H278 0.951 . S
C303 C301 1.388 . S
C303 C304 1.366 . S
C304 C303 1.366 . S
C304 C305 1.414 . S
C304 C307 1.499 . S
C305 H279 0.950 . S
C305 C304 1.414 . S
C305 C306 1.374 . S
C306 H280 0.950 . S
C306 C302 1.385 . S
C306 C305 1.374 . S
C307 C304 1.499 . S
C307 C308 1.373 . S
C307 C309 1.389 1_554 S
C308 H281 0.950 . S
C308 C294 1.377 . S
C308 C307 1.373 . S
C309 C293 1.377 . S
C309 C307 1.389 1_556 S
C309 C310 1.524 . S
C310 C309 1.524 . S
C310 C311 1.397 . S
C310 C315 1.363 . S
C311 H282 0.950 . S
C311 C310 1.397 . S
C311 C312 1.334 . S
C312 H283 0.950 . S
C312 C311 1.334 . S
C312 C313 1.287 . S
C313 C312 1.287 . S
C313 C314 1.524 . S
C313 H316 0.999 . S
C314 H284 0.950 . S
C314 C313 1.524 . S
C314 C315 1.415 . S
C315 H285 0.950 . S
C315 C310 1.363 . S
C315 C314 1.415 . S
H316 C313 0.999 . S
H317 C298 0.913 . S
H318 C336 0.951 . S
H319 C338 0.951 . S
H320 C340 0.950 . S
H321 C341 0.950 . S
H322 C343 0.950 . S
H323 C346 0.950 . S
H324 C347 0.950 . S
H325 C349 0.950 . S
H326 C350 0.950 . S
H327 C351 0.951 . S
H328 C353 0.951 . S
H329 C355 0.950 . S
H330 C356 0.950 . S
H331 C358 0.950 . S
H332 C361 0.950 . S
H333 C362 0.950 . S
H334 C364 0.950 . S
H335 C365 0.950 . S
C336 H318 0.951 . S
C336 C337 1.366 . S
C336 C338 1.388 . S
C337 C336 1.366 . S
C337 C341 1.385 . S
C338 H319 0.951 . S
C338 C336 1.388 . S
C338 C339 1.366 . S
C339 C338 1.366 . S
C339 C340 1.414 . S
C339 C342 1.499 . S
C340 H320 0.950 . S
C340 C339 1.414 . S
C340 C341 1.374 . S
C341 H321 0.950 . S
C341 C337 1.385 . S
C341 C340 1.374 . S
C342 C339 1.499 . S
C342 C343 1.373 . S
C342 C344 1.389 . S
C343 H322 0.950 . S
C343 C342 1.373 . S
C343 C359 1.377 . S
C344 C342 1.389 . S
C344 C345 1.524 . S
C344 C358 1.377 . S
C345 C344 1.524 . S
C345 C346 1.397 . S
C345 C350 1.363 . S
C346 H323 0.950 . S
C346 C345 1.397 . S
C346 C347 1.334 . S
C347 H324 0.950 . S
C347 C346 1.334 . S
C347 C348 1.287 . S
C348 C347 1.287 . S
C348 C349 1.524 . S
C348 H367 0.913 . S
C349 H325 0.950 . S
C349 C348 1.524 . S
C349 C350 1.415 . S
C350 H326 0.950 . S
C350 C345 1.363 . S
C350 C349 1.415 . S
C351 H327 0.951 . S
C351 C352 1.366 . S
C351 C353 1.388 . S
C352 C351 1.366 . S
C352 C356 1.385 . S
C353 H328 0.951 . S
C353 C351 1.388 . S
C353 C354 1.366 . S
C354 C353 1.366 . S
C354 C355 1.414 . S
C354 C357 1.499 . S
C355 H329 0.950 . S
C355 C354 1.414 . S
C355 C356 1.374 . S
C356 H330 0.950 . S
C356 C352 1.385 . S
C356 C355 1.374 . S
C357 C354 1.499 . S
C357 C358 1.373 . S
C357 C359 1.389 . S
C358 H331 0.950 . S
C358 C344 1.377 . S
C358 C357 1.373 . S
C359 C343 1.377 . S
C359 C357 1.389 . S
C359 C360 1.524 . S
C360 C359 1.524 . S
C360 C361 1.397 . S
C360 C365 1.363 . S
C361 H332 0.950 . S
C361 C360 1.397 . S
C361 C362 1.334 . S
C362 H333 0.950 . S
C362 C361 1.334 . S
C362 C363 1.287 . S
C363 C362 1.287 . S
C363 C364 1.524 . S
C363 H366 0.999 . S
C364 H334 0.950 . S
C364 C363 1.524 . S
C364 C365 1.415 . S
C365 H335 0.950 . S
C365 C360 1.363 . S
C365 C364 1.415 . S
H366 C363 0.999 . S
H367 C348 0.913 . S
H368 C386 0.951 . S
H369 C388 0.951 . S
H370 C390 0.950 . S
H371 C391 0.950 . S
H372 C393 0.950 . S
H373 C396 0.950 . S
H374 C397 0.950 . S
H375 C399 0.950 . S
H376 C400 0.950 . S
H377 C401 0.951 . S
H378 C403 0.951 . S
H379 C405 0.950 . S
H380 C406 0.950 . S
H381 C408 0.950 . S
H382 C411 0.950 . S
H383 C412 0.950 . S
H384 C414 0.950 . S
H385 C415 0.950 . S
C386 H368 0.951 . S
C386 C387 1.366 . S
C386 C388 1.388 . S
C387 C386 1.366 . S
C387 C391 1.385 . S
C388 H369 0.951 . S
C388 C386 1.388 . S
C388 C389 1.366 . S
C389 C388 1.366 . S
C389 C390 1.414 . S
C389 C392 1.499 . S
C390 H370 0.950 . S
C390 C389 1.414 . S
C390 C391 1.374 . S
C391 H371 0.950 . S
C391 C387 1.385 . S
C391 C390 1.374 . S
C392 C389 1.499 . S
C392 C393 1.373 . S
C392 C394 1.389 . S
C393 H372 0.950 . S
C393 C392 1.373 . S
C393 C409 1.377 . S
C394 C392 1.389 . S
C394 C395 1.524 . S
C394 C408 1.377 . S
C395 C394 1.524 . S
C395 C396 1.397 . S
C395 C400 1.363 . S
C396 H373 0.950 . S
C396 C395 1.397 . S
C396 C397 1.334 . S
C397 H374 0.950 . S
C397 C396 1.334 . S
C397 C398 1.287 . S
C398 C397 1.287 . S
C398 C399 1.524 . S
C398 H417 0.913 . S
C399 H375 0.950 . S
C399 C398 1.524 . S
C399 C400 1.415 . S
C400 H376 0.950 . S
C400 C395 1.363 . S
C400 C399 1.415 . S
C401 H377 0.951 . S
C401 C402 1.366 . S
C401 C403 1.388 . S
C402 C401 1.366 . S
C402 C406 1.385 . S
C403 H378 0.951 . S
C403 C401 1.388 . S
C403 C404 1.366 . S
C404 C403 1.366 . S
C404 C405 1.414 . S
C404 C407 1.499 . S
C405 H379 0.950 . S
C405 C404 1.414 . S
C405 C406 1.374 . S
C406 H380 0.950 . S
C406 C402 1.385 . S
C406 C405 1.374 . S
C407 C404 1.499 . S
C407 C408 1.373 . S
C407 C409 1.389 . S
C408 H381 0.950 . S
C408 C394 1.377 . S
C408 C407 1.373 . S
C409 C393 1.377 . S
C409 C407 1.389 . S
C409 C410 1.524 . S
C410 C409 1.524 . S
C410 C411 1.397 . S
C410 C415 1.363 . S
C411 H382 0.950 . S
C411 C410 1.397 . S
C411 C412 1.334 . S
C412 H383 0.950 . S
C412 C411 1.334 . S
C412 C413 1.287 . S
C413 C412 1.287 . S
C413 C414 1.524 . S
C413 H416 0.999 . S
C414 H384 0.950 . S
C414 C413 1.524 . S
C414 C415 1.415 . S
C415 H385 0.950 . S
C415 C410 1.363 . S
C415 C414 1.415 . S
H416 C413 0.999 . S
H417 C398 0.913 . S
H418 C436 0.951 . S
H419 C438 0.951 . S
H420 C440 0.950 . S
H421 C441 0.950 . S
H422 C443 0.950 . S
H423 C446 0.950 . S
H424 C447 0.950 . S
H425 C449 0.950 . S
H426 C450 0.950 . S
H427 C451 0.951 . S
H428 C453 0.951 . S
H429 C455 0.950 . S
H430 C456 0.950 . S
H431 C458 0.950 . S
H432 C461 0.950 . S
H433 C462 0.950 . S
H434 C464 0.950 . S
H435 C465 0.950 . S
C436 H418 0.951 . S
C436 C437 1.366 . S
C436 C438 1.388 . S
C437 C436 1.366 . S
C437 C441 1.385 . S
C438 H419 0.951 . S
C438 C436 1.388 . S
C438 C439 1.366 . S
C439 C438 1.366 . S
C439 C440 1.414 . S
C439 C442 1.499 . S
C440 H420 0.950 . S
C440 C439 1.414 . S
C440 C441 1.374 . S
C441 H421 0.950 . S
C441 C437 1.385 . S
C441 C440 1.374 . S
C442 C439 1.499 . S
C442 C443 1.373 . S
C442 C444 1.389 . S
C443 H422 0.950 . S
C443 C442 1.373 . S
C443 C459 1.377 . S
C444 C442 1.389 . S
C444 C445 1.524 . S
C444 C458 1.377 . S
C445 C444 1.524 . S
C445 C446 1.397 . S
C445 C450 1.363 . S
C446 H423 0.950 . S
C446 C445 1.397 . S
C446 C447 1.334 . S
C447 H424 0.950 . S
C447 C446 1.334 . S
C447 C448 1.287 . S
C448 C447 1.287 . S
C448 C449 1.524 . S
C448 H467 0.913 . S
C449 H425 0.950 . S
C449 C448 1.524 . S
C449 C450 1.415 . S
C450 H426 0.950 . S
C450 C445 1.363 . S
C450 C449 1.415 . S
C451 H427 0.951 . S
C451 C452 1.366 . S
C451 C453 1.388 . S
C452 C451 1.366 . S
C452 C456 1.385 . S
C453 H428 0.951 . S
C453 C451 1.388 . S
C453 C454 1.366 . S
C454 C453 1.366 . S
C454 C455 1.414 . S
C454 C457 1.499 . S
C455 H429 0.950 . S
C455 C454 1.414 . S
C455 C456 1.374 . S
C456 H430 0.950 . S
C456 C452 1.385 . S
C456 C455 1.374 . S
C457 C454 1.499 . S
C457 C458 1.373 . S
C457 C459 1.389 . S
C458 H431 0.950 . S
C458 C444 1.377 . S
C458 C457 1.373 . S
C459 C443 1.377 . S
C459 C457 1.389 . S
C459 C460 1.524 . S
C460 C459 1.524 . S
C460 C461 1.397 . S
C460 C465 1.363 . S
C461 H432 0.950 . S
C461 C460 1.397 . S
C461 C462 1.334 . S
C462 H433 0.950 . S
C462 C461 1.334 . S
C462 C463 1.287 . S
C463 C462 1.287 . S
C463 C464 1.524 . S
C463 H466 0.999 . S
C464 H434 0.950 . S
C464 C463 1.524 . S
C464 C465 1.415 . S
C465 H435 0.950 . S
C465 C460 1.363 . S
C465 C464 1.415 . S
H466 C463 0.999 . S
H467 C448 0.913 . S
H468 C486 0.951 . S
H469 C488 0.951 . S
H470 C490 0.950 . S
H471 C491 0.950 . S
H472 C493 0.950 . S
H473 C496 0.950 . S
H474 C497 0.950 . S
H475 C499 0.950 . S
H476 C500 0.950 . S
H477 C501 0.951 . S
H478 C503 0.951 . S
H479 C505 0.950 . S
H480 C506 0.950 . S
H481 C508 0.950 . S
H482 C511 0.950 . S
H483 C512 0.950 . S
H484 C514 0.950 . S
H485 C515 0.950 . S
C486 H468 0.951 . S
C486 C487 1.366 . S
C486 C488 1.388 . S
C487 C486 1.366 . S
C487 C491 1.385 . S
C488 H469 0.951 . S
C488 C486 1.388 . S
C488 C489 1.366 . S
C489 C488 1.366 . S
C489 C490 1.414 . S
C489 C492 1.499 . S
C490 H470 0.950 . S
C490 C489 1.414 . S
C490 C491 1.374 . S
C491 H471 0.950 . S
C491 C487 1.385 . S
C491 C490 1.374 . S
C492 C489 1.499 . S
C492 C493 1.373 . S
C492 C494 1.389 . S
C493 H472 0.950 . S
C493 C492 1.373 . S
C493 C509 1.377 . S
C494 C492 1.389 . S
C494 C495 1.524 . S
C494 C508 1.377 . S
C495 C494 1.524 . S
C495 C496 1.397 . S
C495 C500 1.363 . S
C496 H473 0.950 . S
C496 C495 1.397 . S
C496 C497 1.334 . S
C497 H474 0.950 . S
C497 C496 1.334 . S
C497 C498 1.287 . S
C498 C497 1.287 . S
C498 C499 1.524 . S
C498 H517 0.913 . S
C499 H475 0.950 . S
C499 C498 1.524 . S
C499 C500 1.415 . S
C500 H476 0.950 . S
C500 C495 1.363 . S
C500 C499 1.415 . S
C501 H477 0.951 . S
C501 C502 1.366 . S
C501 C503 1.388 . S
C502 C501 1.366 . S
C502 C506 1.385 . S
C503 H478 0.951 . S
C503 C501 1.388 . S
C503 C504 1.366 . S
C504 C503 1.366 . S
C504 C505 1.414 . S
C504 C507 1.499 . S
C505 H479 0.950 . S
C505 C504 1.414 . S
C505 C506 1.374 . S
C506 H480 0.950 . S
C506 C502 1.385 . S
C506 C505 1.374 . S
C507 C504 1.499 . S
C507 C508 1.373 . S
C507 C509 1.389 . S
C508 H481 0.950 . S
C508 C494 1.377 . S
C508 C507 1.373 . S
C509 C493 1.377 . S
C509 C507 1.389 . S
C509 C510 1.524 . S
C510 C509 1.524 . S
C510 C511 1.397 . S
C510 C515 1.363 . S
C511 H482 0.950 . S
C511 C510 1.397 . S
C511 C512 1.334 . S
C512 H483 0.950 . S
C512 C511 1.334 . S
C512 C513 1.287 . S
C513 C512 1.287 . S
C513 C514 1.524 . S
C513 H516 0.999 . S
C514 H484 0.950 . S
C514 C513 1.524 . S
C514 C515 1.415 . S
C515 H485 0.950 . S
C515 C510 1.363 . S
C515 C514 1.415 . S
H516 C513 0.999 . S
H517 C498 0.913 . S
H518 C536 0.951 . S
H519 C538 0.951 . S
H520 C540 0.950 . S
H521 C541 0.950 . S
H522 C543 0.950 . S
H523 C546 0.950 . S
H524 C547 0.950 . S
H525 C549 0.950 . S
H526 C550 0.950 . S
H527 C551 0.951 . S
H528 C553 0.951 . S
H529 C555 0.950 . S
H530 C556 0.950 . S
H531 C558 0.950 . S
H532 C561 0.950 . S
H533 C562 0.950 . S
H534 C564 0.950 . S
H535 C565 0.950 . S
C536 H518 0.951 . S
C536 C537 1.366 . S
C536 C538 1.388 . S
C537 C536 1.366 . S
C537 C541 1.385 . S
C538 H519 0.951 . S
C538 C536 1.388 . S
C538 C539 1.366 . S
C539 C538 1.366 . S
C539 C540 1.414 . S
C539 C542 1.499 . S
C540 H520 0.950 . S
C540 C539 1.414 . S
C540 C541 1.374 . S
C541 H521 0.950 . S
C541 C537 1.385 . S
C541 C540 1.374 . S
C542 C539 1.499 . S
C542 C543 1.373 . S
C542 C544 1.389 . S
C543 H522 0.950 . S
C543 C542 1.373 . S
C543 C559 1.377 . S
C544 C542 1.389 . S
C544 C545 1.524 . S
C544 C558 1.377 . S
C545 C544 1.524 . S
C545 C546 1.397 . S
C545 C550 1.363 . S
C546 H523 0.950 . S
C546 C545 1.397 . S
C546 C547 1.334 . S
C547 H524 0.950 . S
C547 C546 1.334 . S
C547 C548 1.287 . S
C548 C547 1.287 . S
C548 C549 1.524 . S
C548 H567 0.913 . S
C549 H525 0.950 . S
C549 C548 1.524 . S
C549 C550 1.415 . S
C550 H526 0.950 . S
C550 C545 1.363 . S
C550 C549 1.415 . S
C551 H527 0.951 . S
C551 C552 1.366 . S
C551 C553 1.388 . S
C552 C551 1.366 . S
C552 C556 1.385 . S
C553 H528 0.951 . S
C553 C551 1.388 . S
C553 C554 1.366 . S
C554 C553 1.366 . S
C554 C555 1.414 . S
C554 C557 1.499 . S
C555 H529 0.950 . S
C555 C554 1.414 . S
C555 C556 1.374 . S
C556 H530 0.950 . S
C556 C552 1.385 . S
C556 C555 1.374 . S
C557 C554 1.499 . S
C557 C558 1.373 . S
C557 C559 1.389 . S
C558 H531 0.950 . S
C558 C544 1.377 . S
C558 C557 1.373 . S
C559 C543 1.377 . S
C559 C557 1.389 . S
C559 C560 1.524 . S
C560 C559 1.524 . S
C560 C561 1.397 . S
C560 C565 1.363 . S
C561 H532 0.950 . S
C561 C560 1.397 . S
C561 C562 1.334 . S
C562 H533 0.950 . S
C562 C561 1.334 . S
C562 C563 1.287 . S
C563 C562 1.287 . S
C563 C564 1.524 . S
C563 H566 0.999 . S
C564 H534 0.950 . S
C564 C563 1.524 . S
C564 C565 1.415 . S
C565 H535 0.950 . S
C565 C560 1.363 . S
C565 C564 1.415 . S
H566 C563 0.999 . S
H567 C548 0.913 . S
H568 C586 0.951 . S
H569 C588 0.951 . S
H570 C590 0.950 . S
H571 C591 0.950 . S
H572 C593 0.950 . S
H573 C596 0.950 . S
H574 C597 0.950 . S
H575 C599 0.950 . S
H576 C600 0.950 . S
H577 C601 0.951 . S
H578 C603 0.951 . S
H579 C605 0.950 . S
H580 C606 0.950 . S
H581 C608 0.950 . S
H582 C611 0.950 . S
H583 C612 0.950 . S
H584 C614 0.950 . S
H585 C615 0.950 . S
C586 H568 0.951 . S
C586 C587 1.366 . S
C586 C588 1.388 . S
C587 C586 1.366 . S
C587 C591 1.385 . S
C588 H569 0.951 . S
C588 C586 1.388 . S
C588 C589 1.366 . S
C589 C588 1.366 . S
C589 C590 1.414 . S
C589 C592 1.499 . S
C590 H570 0.950 . S
C590 C589 1.414 . S
C590 C591 1.374 . S
C591 H571 0.950 . S
C591 C587 1.385 . S
C591 C590 1.374 . S
C592 C589 1.499 . S
C592 C593 1.373 . S
C592 C594 1.389 . S
C593 H572 0.950 . S
C593 C592 1.373 . S
C593 C609 1.377 . S
C594 C592 1.389 . S
C594 C595 1.524 . S
C594 C608 1.377 . S
C595 C594 1.524 . S
C595 C596 1.397 . S
C595 C600 1.363 . S
C596 H573 0.950 . S
C596 C595 1.397 . S
C596 C597 1.334 . S
C597 H574 0.950 . S
C597 C596 1.334 . S
C597 C598 1.287 . S
C598 C597 1.287 . S
C598 C599 1.524 . S
C598 H617 0.913 . S
C599 H575 0.950 . S
C599 C598 1.524 . S
C599 C600 1.415 . S
C600 H576 0.950 . S
C600 C595 1.363 . S
C600 C599 1.415 . S
C601 H577 0.951 . S
C601 C602 1.366 . S
C601 C603 1.388 . S
C602 C601 1.366 . S
C602 C606 1.385 . S
C603 H578 0.951 . S
C603 C601 1.388 . S
C603 C604 1.366 . S
C604 C603 1.366 . S
C604 C605 1.414 . S
C604 C607 1.499 . S
C605 H579 0.950 . S
C605 C604 1.414 . S
C605 C606 1.374 . S
C606 H580 0.950 . S
C606 C602 1.385 . S
C606 C605 1.374 . S
C607 C604 1.499 . S
C607 C608 1.373 . S
C607 C609 1.389 . S
C608 H581 0.950 . S
C608 C594 1.377 . S
C608 C607 1.373 . S
C609 C593 1.377 . S
C609 C607 1.389 . S
C609 C610 1.524 . S
C610 C609 1.524 . S
C610 C611 1.397 . S
C610 C615 1.363 . S
C611 H582 0.950 . S
C611 C610 1.397 . S
C611 C612 1.334 . S
C612 H583 0.950 . S
C612 C611 1.334 . S
C612 C613 1.287 . S
C613 C612 1.287 . S
C613 C614 1.524 . S
C613 H616 0.999 . S
C614 H584 0.950 . S
C614 C613 1.524 . S
C614 C615 1.415 . S
C615 H585 0.950 . S
C615 C610 1.363 . S
C615 C614 1.415 . S
H616 C613 0.999 . S
H617 C598 0.913 . S
H618 C636 0.951 . S
H619 C638 0.951 . S
H620 C640 0.950 . S
H621 C641 0.950 . S
H622 C643 0.950 . S
H623 C646 0.950 . S
H624 C647 0.950 . S
H625 C649 0.950 . S
H626 C650 0.950 . S
H627 C651 0.951 . S
H628 C653 0.951 . S
H629 C655 0.950 . S
H630 C656 0.950 . S
H631 C658 0.950 . S
H632 C661 0.950 . S
H633 C662 0.950 . S
H634 C664 0.950 . S
H635 C665 0.950 . S
C636 H618 0.951 . S
C636 C637 1.366 . S
C636 C638 1.388 . S
C637 C636 1.366 . S
C637 C641 1.385 . S
C638 H619 0.951 . S
C638 C636 1.388 . S
C638 C639 1.366 . S
C639 C638 1.366 . S
C639 C640 1.414 . S
C639 C642 1.499 . S
C640 H620 0.950 . S
C640 C639 1.414 . S
C640 C641 1.374 . S
C641 H621 0.950 . S
C641 C637 1.385 . S
C641 C640 1.374 . S
C642 C639 1.499 . S
C642 C643 1.373 . S
C642 C644 1.389 . S
C643 H622 0.950 . S
C643 C642 1.373 . S
C643 C659 1.377 . S
C644 C642 1.389 . S
C644 C645 1.524 . S
C644 C658 1.377 . S
C645 C644 1.524 . S
C645 C646 1.397 . S
C645 C650 1.363 . S
C646 H623 0.950 . S
C646 C645 1.397 . S
C646 C647 1.334 . S
C647 H624 0.950 . S
C647 C646 1.334 . S
C647 C648 1.287 . S
C648 C647 1.287 . S
C648 C649 1.524 . S
C648 H667 0.913 . S
C649 H625 0.950 . S
C649 C648 1.524 . S
C649 C650 1.415 . S
C650 H626 0.950 . S
C650 C645 1.363 . S
C650 C649 1.415 . S
C651 H627 0.951 . S
C651 C652 1.366 . S
C651 C653 1.388 . S
C652 C651 1.366 . S
C652 C656 1.385 . S
C653 H628 0.951 . S
C653 C651 1.388 . S
C653 C654 1.366 . S
C654 C653 1.366 . S
C654 C655 1.414 . S
C654 C657 1.499 . S
C655 H629 0.950 . S
C655 C654 1.414 . S
C655 C656 1.374 . S
C656 H630 0.950 . S
C656 C652 1.385 . S
C656 C655 1.374 . S
C657 C654 1.499 . S
C657 C658 1.373 . S
C657 C659 1.389 . S
C658 H631 0.950 . S
C658 C644 1.377 . S
C658 C657 1.373 . S
C659 C643 1.377 . S
C659 C657 1.389 . S
C659 C660 1.524 . S
C660 C659 1.524 . S
C660 C661 1.397 . S
C660 C665 1.363 . S
C661 H632 0.950 . S
C661 C660 1.397 . S
C661 C662 1.334 . S
C662 H633 0.950 . S
C662 C661 1.334 . S
C662 C663 1.287 . S
C663 C662 1.287 . S
C663 C664 1.524 . S
C663 H666 0.999 . S
C664 H634 0.950 . S
C664 C663 1.524 . S
C664 C665 1.415 . S
C665 H635 0.950 . S
C665 C660 1.363 . S
C665 C664 1.415 . S
H666 C663 0.999 . S
H667 C648 0.913 . S
H668 C686 0.951 1_554 S
H669 C688 0.951 . S
H670 C690 0.950 . S
H671 C691 0.950 . S
H672 C693 0.950 . S
H673 C696 0.950 . S
H674 C697 0.950 1_554 S
H675 C699 0.950 . S
H676 C700 0.950 . S
H677 C701 0.951 . S
H678 C703 0.951 . S
H679 C705 0.950 . S
H680 C706 0.950 1_545 S
H681 C708 0.950 . S
H682 C711 0.950 . S
H683 C712 0.950 . S
H684 C714 0.950 . S
H685 C715 0.950 . S
C686 H668 0.951 1_556 S
C686 C687 1.366 . S
C686 C688 1.388 . S
C687 C686 1.366 . S
C687 C691 1.385 . S
C688 H669 0.951 . S
C688 C686 1.388 . S
C688 C689 1.366 . S
C689 C688 1.366 . S
C689 C690 1.414 . S
C689 C692 1.499 . S
C690 H670 0.950 . S
C690 C689 1.414 . S
C690 C691 1.374 . S
C691 H671 0.950 . S
C691 C687 1.385 . S
C691 C690 1.374 . S
C692 C689 1.499 . S
C692 C693 1.373 . S
C692 C694 1.389 . S
C693 H672 0.950 . S
C693 C692 1.373 . S
C693 C709 1.377 . S
C694 C692 1.389 . S
C694 C695 1.524 . S
C694 C708 1.377 . S
C695 C694 1.524 . S
C695 C696 1.397 . S
C695 C700 1.363 . S
C696 H673 0.950 . S
C696 C695 1.397 . S
C696 C697 1.334 . S
C697 H674 0.950 1_556 S
C697 C696 1.334 . S
C697 C698 1.287 . S
C698 C697 1.287 . S
C698 C699 1.524 . S
C698 H717 0.913 1_556 S
C699 H675 0.950 . S
C699 C698 1.524 . S
C699 C700 1.415 . S
C700 H676 0.950 . S
C700 C695 1.363 . S
C700 C699 1.415 . S
C701 H677 0.951 . S
C701 C702 1.366 . S
C701 C703 1.388 . S
C702 C701 1.366 . S
C702 C706 1.385 . S
C703 H678 0.951 . S
C703 C701 1.388 . S
C703 C704 1.366 . S
C704 C703 1.366 . S
C704 C705 1.414 . S
C704 C707 1.499 . S
C705 H679 0.950 . S
C705 C704 1.414 . S
C705 C706 1.374 . S
C706 H680 0.950 1_565 S
C706 C702 1.385 . S
C706 C705 1.374 . S
C707 C704 1.499 . S
C707 C708 1.373 . S
C707 C709 1.389 . S
C708 H681 0.950 . S
C708 C694 1.377 . S
C708 C707 1.373 . S
C709 C693 1.377 . S
C709 C707 1.389 . S
C709 C710 1.524 . S
C710 C709 1.524 . S
C710 C711 1.397 . S
C710 C715 1.363 . S
C711 H682 0.950 . S
C711 C710 1.397 . S
C711 C712 1.334 . S
C712 H683 0.950 . S
C712 C711 1.334 . S
C712 C713 1.287 . S
C713 C712 1.287 . S
C713 C714 1.524 . S
C713 H716 0.999 . S
C714 H684 0.950 . S
C714 C713 1.524 . S
C714 C715 1.415 . S
C715 H685 0.950 . S
C715 C710 1.363 . S
C715 C714 1.415 . S
H716 C713 0.999 . S
H717 C698 0.913 1_554 S
C152 C91 1.296 . S
C137 C68 1.396 . S
C187 C11 1.380 . S
C202 C115 1.334 . S
C237 C30 1.577 . S
C252 C94 1.474 . S
C287 C49 1.564 1_554 S
C302 C112 1.452 . S
C352 C92 1.573 . S
C337 C2 1.568 . S
C402 C114 1.626 . S
C387 C25 1.695 . S
C437 C40 1.648 . S
C452 C93 1.617 . S
C487 C59 1.561 . S
C502 C113 1.528 . S
C552 C111 1.504 . S
C537 C21 1.538 . S
C602 C90 1.518 . S
C587 C44 1.581 . S
C652 C110 1.459 . S
C637 C63 1.493 . S
C687 C6 1.493 1_556 S
C702 C89 1.440 . S
