# Generated by pormake.
# Topology tbo, (3,4)-cn, num edge types: 1
# Building blocks:
#     Node 0, Type 0, BuildingBlock: WUSLED_clean_sbu_0, # of connection points: 3
#     Node 1, Type 0, BuildingBlock: WUSLED_clean_sbu_0, # of connection points: 3
#     Node 2, Type 0, BuildingBlock: WUSLED_clean_sbu_0, # of connection points: 3
#     Node 3, Type 0, BuildingBlock: WUSLED_clean_sbu_0, # of connection points: 3
#     Node 4, Type 0, BuildingBlock: WUSLED_clean_sbu_0, # of connection points: 3
#     Node 5, Type 0, BuildingBlock: WUSLED_clean_sbu_0, # of connection points: 3
#     Node 6, Type 0, BuildingBlock: WUSLED_clean_sbu_0, # of connection points: 3
#     Node 7, Type 0, BuildingBlock: WUSLED_clean_sbu_0, # of connection points: 3
#     Node 8, Type 0, BuildingBlock: WUSLED_clean_sbu_0, # of connection points: 3
#     Node 9, Type 0, BuildingBlock: WUSLED_clean_sbu_0, # of connection points: 3
#     Node 10, Type 0, BuildingBlock: WUSLED_clean_sbu_0, # of connection points: 3
#     Node 11, Type 0, BuildingBlock: WUSLED_clean_sbu_0, # of connection points: 3
#     Node 12, Type 0, BuildingBlock: WUSLED_clean_sbu_0, # of connection points: 3
#     Node 13, Type 0, BuildingBlock: WUSLED_clean_sbu_0, # of connection points: 3
#     Node 14, Type 0, BuildingBlock: WUSLED_clean_sbu_0, # of connection points: 3
#     Node 15, Type 0, BuildingBlock: WUSLED_clean_sbu_0, # of connection points: 3
#     Node 16, Type 0, BuildingBlock: WUSLED_clean_sbu_0, # of connection points: 3
#     Node 17, Type 0, BuildingBlock: WUSLED_clean_sbu_0, # of connection points: 3
#     Node 18, Type 0, BuildingBlock: WUSLED_clean_sbu_0, # of connection points: 3
#     Node 19, Type 0, BuildingBlock: WUSLED_clean_sbu_0, # of connection points: 3
#     Node 20, Type 0, BuildingBlock: WUSLED_clean_sbu_0, # of connection points: 3
#     Node 21, Type 0, BuildingBlock: WUSLED_clean_sbu_0, # of connection points: 3
#     Node 22, Type 0, BuildingBlock: WUSLED_clean_sbu_0, # of connection points: 3
#     Node 23, Type 0, BuildingBlock: WUSLED_clean_sbu_0, # of connection points: 3
#     Node 24, Type 0, BuildingBlock: WUSLED_clean_sbu_0, # of connection points: 3
#     Node 25, Type 0, BuildingBlock: WUSLED_clean_sbu_0, # of connection points: 3
#     Node 26, Type 0, BuildingBlock: WUSLED_clean_sbu_0, # of connection points: 3
#     Node 27, Type 0, BuildingBlock: WUSLED_clean_sbu_0, # of connection points: 3
#     Node 28, Type 0, BuildingBlock: WUSLED_clean_sbu_0, # of connection points: 3
#     Node 29, Type 0, BuildingBlock: WUSLED_clean_sbu_0, # of connection points: 3
#     Node 30, Type 0, BuildingBlock: WUSLED_clean_sbu_0, # of connection points: 3
#     Node 31, Type 0, BuildingBlock: WUSLED_clean_sbu_0, # of connection points: 3
#     Node 32, Type 1, BuildingBlock: KUFVIS_clean_linker_0, # of connection points: 4
#     Node 33, Type 1, BuildingBlock: KUFVIS_clean_linker_0, # of connection points: 4
#     Node 34, Type 1, BuildingBlock: KUFVIS_clean_linker_0, # of connection points: 4
#     Node 35, Type 1, BuildingBlock: KUFVIS_clean_linker_0, # of connection points: 4
#     Node 36, Type 1, BuildingBlock: KUFVIS_clean_linker_0, # of connection points: 4
#     Node 37, Type 1, BuildingBlock: KUFVIS_clean_linker_0, # of connection points: 4
#     Node 38, Type 1, BuildingBlock: KUFVIS_clean_linker_0, # of connection points: 4
#     Node 39, Type 1, BuildingBlock: KUFVIS_clean_linker_0, # of connection points: 4
#     Node 40, Type 1, BuildingBlock: KUFVIS_clean_linker_0, # of connection points: 4
#     Node 41, Type 1, BuildingBlock: KUFVIS_clean_linker_0, # of connection points: 4
#     Node 42, Type 1, BuildingBlock: KUFVIS_clean_linker_0, # of connection points: 4
#     Node 43, Type 1, BuildingBlock: KUFVIS_clean_linker_0, # of connection points: 4
#     Node 44, Type 1, BuildingBlock: KUFVIS_clean_linker_0, # of connection points: 4
#     Node 45, Type 1, BuildingBlock: KUFVIS_clean_linker_0, # of connection points: 4
#     Node 46, Type 1, BuildingBlock: KUFVIS_clean_linker_0, # of connection points: 4
#     Node 47, Type 1, BuildingBlock: KUFVIS_clean_linker_0, # of connection points: 4
#     Node 48, Type 1, BuildingBlock: KUFVIS_clean_linker_0, # of connection points: 4
#     Node 49, Type 1, BuildingBlock: KUFVIS_clean_linker_0, # of connection points: 4
#     Node 50, Type 1, BuildingBlock: KUFVIS_clean_linker_0, # of connection points: 4
#     Node 51, Type 1, BuildingBlock: KUFVIS_clean_linker_0, # of connection points: 4
#     Node 52, Type 1, BuildingBlock: KUFVIS_clean_linker_0, # of connection points: 4
#     Node 53, Type 1, BuildingBlock: KUFVIS_clean_linker_0, # of connection points: 4
#     Node 54, Type 1, BuildingBlock: KUFVIS_clean_linker_0, # of connection points: 4
#     Node 55, Type 1, BuildingBlock: KUFVIS_clean_linker_0, # of connection points: 4
#     Edge 56, Type (0, 1), BuildingBlock: UVAHIK_clean_linker_0, # of connection points: 2
#     Edge 57, Type (0, 1), BuildingBlock: UVAHIK_clean_linker_0, # of connection points: 2
#     Edge 58, Type (0, 1), BuildingBlock: UVAHIK_clean_linker_0, # of connection points: 2
#     Edge 59, Type (0, 1), BuildingBlock: UVAHIK_clean_linker_0, # of connection points: 2
#     Edge 60, Type (0, 1), BuildingBlock: UVAHIK_clean_linker_0, # of connection points: 2
#     Edge 61, Type (0, 1), BuildingBlock: UVAHIK_clean_linker_0, # of connection points: 2
#     Edge 62, Type (0, 1), BuildingBlock: UVAHIK_clean_linker_0, # of connection points: 2
#     Edge 63, Type (0, 1), BuildingBlock: UVAHIK_clean_linker_0, # of connection points: 2
#     Edge 64, Type (0, 1), BuildingBlock: UVAHIK_clean_linker_0, # of connection points: 2
#     Edge 65, Type (0, 1), BuildingBlock: UVAHIK_clean_linker_0, # of connection points: 2
#     Edge 66, Type (0, 1), BuildingBlock: UVAHIK_clean_linker_0, # of connection points: 2
#     Edge 67, Type (0, 1), BuildingBlock: UVAHIK_clean_linker_0, # of connection points: 2
#     Edge 68, Type (0, 1), BuildingBlock: UVAHIK_clean_linker_0, # of connection points: 2
#     Edge 69, Type (0, 1), BuildingBlock: UVAHIK_clean_linker_0, # of connection points: 2
#     Edge 70, Type (0, 1), BuildingBlock: UVAHIK_clean_linker_0, # of connection points: 2
#     Edge 71, Type (0, 1), BuildingBlock: UVAHIK_clean_linker_0, # of connection points: 2
#     Edge 72, Type (0, 1), BuildingBlock: UVAHIK_clean_linker_0, # of connection points: 2
#     Edge 73, Type (0, 1), BuildingBlock: UVAHIK_clean_linker_0, # of connection points: 2
#     Edge 74, Type (0, 1), BuildingBlock: UVAHIK_clean_linker_0, # of connection points: 2
#     Edge 75, Type (0, 1), BuildingBlock: UVAHIK_clean_linker_0, # of connection points: 2
#     Edge 76, Type (0, 1), BuildingBlock: UVAHIK_clean_linker_0, # of connection points: 2
#     Edge 77, Type (0, 1), BuildingBlock: UVAHIK_clean_linker_0, # of connection points: 2
#     Edge 78, Type (0, 1), BuildingBlock: UVAHIK_clean_linker_0, # of connection points: 2
#     Edge 79, Type (0, 1), BuildingBlock: UVAHIK_clean_linker_0, # of connection points: 2
#     Edge 80, Type (0, 1), BuildingBlock: UVAHIK_clean_linker_0, # of connection points: 2
#     Edge 81, Type (0, 1), BuildingBlock: UVAHIK_clean_linker_0, # of connection points: 2
#     Edge 82, Type (0, 1), BuildingBlock: UVAHIK_clean_linker_0, # of connection points: 2
#     Edge 83, Type (0, 1), BuildingBlock: UVAHIK_clean_linker_0, # of connection points: 2
#     Edge 84, Type (0, 1), BuildingBlock: UVAHIK_clean_linker_0, # of connection points: 2
#     Edge 85, Type (0, 1), BuildingBlock: UVAHIK_clean_linker_0, # of connection points: 2
#     Edge 86, Type (0, 1), BuildingBlock: UVAHIK_clean_linker_0, # of connection points: 2
#     Edge 87, Type (0, 1), BuildingBlock: UVAHIK_clean_linker_0, # of connection points: 2
#     Edge 88, Type (0, 1), BuildingBlock: UVAHIK_clean_linker_0, # of connection points: 2
#     Edge 89, Type (0, 1), BuildingBlock: UVAHIK_clean_linker_0, # of connection points: 2
#     Edge 90, Type (0, 1), BuildingBlock: UVAHIK_clean_linker_0, # of connection points: 2
#     Edge 91, Type (0, 1), BuildingBlock: UVAHIK_clean_linker_0, # of connection points: 2
#     Edge 92, Type (0, 1), BuildingBlock: UVAHIK_clean_linker_0, # of connection points: 2
#     Edge 93, Type (0, 1), BuildingBlock: UVAHIK_clean_linker_0, # of connection points: 2
#     Edge 94, Type (0, 1), BuildingBlock: UVAHIK_clean_linker_0, # of connection points: 2
#     Edge 95, Type (0, 1), BuildingBlock: UVAHIK_clean_linker_0, # of connection points: 2
#     Edge 96, Type (0, 1), BuildingBlock: UVAHIK_clean_linker_0, # of connection points: 2
#     Edge 97, Type (0, 1), BuildingBlock: UVAHIK_clean_linker_0, # of connection points: 2
#     Edge 98, Type (0, 1), BuildingBlock: UVAHIK_clean_linker_0, # of connection points: 2
#     Edge 99, Type (0, 1), BuildingBlock: UVAHIK_clean_linker_0, # of connection points: 2
#     Edge 100, Type (0, 1), BuildingBlock: UVAHIK_clean_linker_0, # of connection points: 2
#     Edge 101, Type (0, 1), BuildingBlock: UVAHIK_clean_linker_0, # of connection points: 2
#     Edge 102, Type (0, 1), BuildingBlock: UVAHIK_clean_linker_0, # of connection points: 2
#     Edge 103, Type (0, 1), BuildingBlock: UVAHIK_clean_linker_0, # of connection points: 2
#     Edge 104, Type (0, 1), BuildingBlock: UVAHIK_clean_linker_0, # of connection points: 2
#     Edge 105, Type (0, 1), BuildingBlock: UVAHIK_clean_linker_0, # of connection points: 2
#     Edge 106, Type (0, 1), BuildingBlock: UVAHIK_clean_linker_0, # of connection points: 2
#     Edge 107, Type (0, 1), BuildingBlock: UVAHIK_clean_linker_0, # of connection points: 2
#     Edge 108, Type (0, 1), BuildingBlock: UVAHIK_clean_linker_0, # of connection points: 2
#     Edge 109, Type (0, 1), BuildingBlock: UVAHIK_clean_linker_0, # of connection points: 2
#     Edge 110, Type (0, 1), BuildingBlock: UVAHIK_clean_linker_0, # of connection points: 2
#     Edge 111, Type (0, 1), BuildingBlock: UVAHIK_clean_linker_0, # of connection points: 2
#     Edge 112, Type (0, 1), BuildingBlock: UVAHIK_clean_linker_0, # of connection points: 2
#     Edge 113, Type (0, 1), BuildingBlock: UVAHIK_clean_linker_0, # of connection points: 2
#     Edge 114, Type (0, 1), BuildingBlock: UVAHIK_clean_linker_0, # of connection points: 2
#     Edge 115, Type (0, 1), BuildingBlock: UVAHIK_clean_linker_0, # of connection points: 2
#     Edge 116, Type (0, 1), BuildingBlock: UVAHIK_clean_linker_0, # of connection points: 2
#     Edge 117, Type (0, 1), BuildingBlock: UVAHIK_clean_linker_0, # of connection points: 2
#     Edge 118, Type (0, 1), BuildingBlock: UVAHIK_clean_linker_0, # of connection points: 2
#     Edge 119, Type (0, 1), BuildingBlock: UVAHIK_clean_linker_0, # of connection points: 2
#     Edge 120, Type (0, 1), BuildingBlock: UVAHIK_clean_linker_0, # of connection points: 2
#     Edge 121, Type (0, 1), BuildingBlock: UVAHIK_clean_linker_0, # of connection points: 2
#     Edge 122, Type (0, 1), BuildingBlock: UVAHIK_clean_linker_0, # of connection points: 2
#     Edge 123, Type (0, 1), BuildingBlock: UVAHIK_clean_linker_0, # of connection points: 2
#     Edge 124, Type (0, 1), BuildingBlock: UVAHIK_clean_linker_0, # of connection points: 2
#     Edge 125, Type (0, 1), BuildingBlock: UVAHIK_clean_linker_0, # of connection points: 2
#     Edge 126, Type (0, 1), BuildingBlock: UVAHIK_clean_linker_0, # of connection points: 2
#     Edge 127, Type (0, 1), BuildingBlock: UVAHIK_clean_linker_0, # of connection points: 2
#     Edge 128, Type (0, 1), BuildingBlock: UVAHIK_clean_linker_0, # of connection points: 2
#     Edge 129, Type (0, 1), BuildingBlock: UVAHIK_clean_linker_0, # of connection points: 2
#     Edge 130, Type (0, 1), BuildingBlock: UVAHIK_clean_linker_0, # of connection points: 2
#     Edge 131, Type (0, 1), BuildingBlock: UVAHIK_clean_linker_0, # of connection points: 2
#     Edge 132, Type (0, 1), BuildingBlock: UVAHIK_clean_linker_0, # of connection points: 2
#     Edge 133, Type (0, 1), BuildingBlock: UVAHIK_clean_linker_0, # of connection points: 2
#     Edge 134, Type (0, 1), BuildingBlock: UVAHIK_clean_linker_0, # of connection points: 2
#     Edge 135, Type (0, 1), BuildingBlock: UVAHIK_clean_linker_0, # of connection points: 2
#     Edge 136, Type (0, 1), BuildingBlock: UVAHIK_clean_linker_0, # of connection points: 2
#     Edge 137, Type (0, 1), BuildingBlock: UVAHIK_clean_linker_0, # of connection points: 2
#     Edge 138, Type (0, 1), BuildingBlock: UVAHIK_clean_linker_0, # of connection points: 2
#     Edge 139, Type (0, 1), BuildingBlock: UVAHIK_clean_linker_0, # of connection points: 2
#     Edge 140, Type (0, 1), BuildingBlock: UVAHIK_clean_linker_0, # of connection points: 2
#     Edge 141, Type (0, 1), BuildingBlock: UVAHIK_clean_linker_0, # of connection points: 2
#     Edge 142, Type (0, 1), BuildingBlock: UVAHIK_clean_linker_0, # of connection points: 2
#     Edge 143, Type (0, 1), BuildingBlock: UVAHIK_clean_linker_0, # of connection points: 2
#     Edge 144, Type (0, 1), BuildingBlock: UVAHIK_clean_linker_0, # of connection points: 2
#     Edge 145, Type (0, 1), BuildingBlock: UVAHIK_clean_linker_0, # of connection points: 2
#     Edge 146, Type (0, 1), BuildingBlock: UVAHIK_clean_linker_0, # of connection points: 2
#     Edge 147, Type (0, 1), BuildingBlock: UVAHIK_clean_linker_0, # of connection points: 2
#     Edge 148, Type (0, 1), BuildingBlock: UVAHIK_clean_linker_0, # of connection points: 2
#     Edge 149, Type (0, 1), BuildingBlock: UVAHIK_clean_linker_0, # of connection points: 2
#     Edge 150, Type (0, 1), BuildingBlock: UVAHIK_clean_linker_0, # of connection points: 2
#     Edge 151, Type (0, 1), BuildingBlock: UVAHIK_clean_linker_0, # of connection points: 2
# Relax obj value: 0.000
# Max RMSD: 0.054
# Mean RMSD: 0.026
data_MOF--net-tbo--node1-WUSLED_clean_sbu_0--node2-KUFVIS_clean_linker_0--edge1-UVAHIK_clean_linker_0
_symmetry_space_group_name_H-M    P1
_symmetry_Int_Tables_number       1
_symmetry_cell_setting            triclinic
loop_
_symmetry_equiv_pos_as_xyz
'x, y, z'
_cell_length_a     115.52054
_cell_length_b     116.0013
_cell_length_c     115.79062
_cell_angle_alpha  89.65503
_cell_angle_beta   90.300709
_cell_angle_gamma 90.76233
loop_
_atom_site_label
_atom_site_type_symbol
_atom_site_fract_x
_atom_site_fract_y
_atom_site_fract_z
_atom_type_partial_charge
C0 C 0.17759 0.14536 0.19521 0.0
C1 C 0.18839 0.143 0.19031 0.0
C2 C 0.19044 0.12615 0.20291 0.0
C3 C 0.19476 0.13347 0.19413 0.0
C4 C 0.17952 0.12852 0.20763 0.0
C5 C 0.17319 0.13801 0.20382 0.0
U6 U 0.17106 0.17133 0.17532 0.0
O7 O 0.15417 0.17769 0.16931 0.0
O8 O 0.16538 0.1887 0.18003 0.0
C9 C 0.15522 0.18742 0.17501 0.0
C10 C 0.17081 0.15548 0.19167 0.0
C11 C 0.14513 0.19074 0.18193 0.0
C12 C 0.13283 0.18857 0.19883 0.0
C13 C 0.14235 0.18507 0.19231 0.0
C14 C 0.12873 0.20336 0.18459 0.0
C15 C 0.1259 0.19779 0.19506 0.0
C16 C 0.13824 0.19986 0.17811 0.0
C17 C 0.19045 0.17805 0.1491 0.0
C18 C 0.1879 0.19454 0.13628 0.0
C19 C 0.20335 0.18109 0.1328 0.0
C20 C 0.19989 0.17462 0.14245 0.0
C21 C 0.19743 0.19116 0.12959 0.0
C22 C 0.18444 0.18803 0.14595 0.0
C23 C 0.18715 0.17114 0.15932 0.0
O24 O 0.17602 0.16555 0.19277 0.0
O25 O 0.16495 0.15449 0.18196 0.0
O26 O 0.17735 0.16531 0.1585 0.0
O27 O 0.18852 0.17624 0.16935 0.0
H28 H 0.19193 0.14858 0.18364 0.0
H29 H 0.20317 0.13198 0.19036 0.0
H30 H 0.17582 0.12298 0.21424 0.0
H31 H 0.16485 0.13966 0.20767 0.0
H32 H 0.13085 0.18401 0.20677 0.0
H33 H 0.14757 0.17797 0.19538 0.0
H34 H 0.12374 0.21059 0.18149 0.0
H35 H 0.14027 0.20437 0.17013 0.0
H36 H 0.18307 0.20216 0.13401 0.0
H37 H 0.21082 0.17832 0.128 0.0
H38 H 0.20466 0.16696 0.14477 0.0
H39 H 0.17711 0.19079 0.15098 0.0
C40 C 0.83306 0.1743 0.14787 0.0
C41 C 0.83892 0.18383 0.14305 0.0
C42 C 0.82356 0.18607 0.12868 0.0
C43 C 0.83422 0.18966 0.13351 0.0
C44 C 0.81779 0.17646 0.13355 0.0
C45 C 0.8225 0.17065 0.14304 0.0
U46 U 0.85512 0.17022 0.17251 0.0
O47 O 0.85201 0.16494 0.19053 0.0
O48 O 0.86261 0.15421 0.17933 0.0
C49 C 0.85744 0.15513 0.18936 0.0
C50 C 0.83767 0.1681 0.15798 0.0
C51 C 0.85103 0.14482 0.19337 0.0
C52 C 0.83605 0.13016 0.19069 0.0
C53 C 0.8422 0.13983 0.18663 0.0
C54 C 0.84751 0.13037 0.20826 0.0
C55 C 0.8386 0.12532 0.20159 0.0
C56 C 0.85367 0.14002 0.20418 0.0
C57 C 0.88039 0.19142 0.17677 0.0
C58 C 0.89528 0.1886 0.1914 0.0
C59 C 0.89481 0.20643 0.18041 0.0
C60 C 0.8851 0.20236 0.17434 0.0
C61 C 0.90002 0.19962 0.18905 0.0
C62 C 0.88554 0.18455 0.18533 0.0
C63 C 0.87003 0.18741 0.17045 0.0
O64 O 0.84766 0.16302 0.15654 0.0
O65 O 0.83696 0.17353 0.16788 0.0
O66 O 0.86022 0.18821 0.17608 0.0
O67 O 0.87103 0.17759 0.16496 0.0
H68 H 0.84708 0.18679 0.14671 0.0
H69 H 0.83883 0.19709 0.13005 0.0
H70 H 0.80966 0.17335 0.12996 0.0
H71 H 0.81787 0.16328 0.14664 0.0
H72 H 0.82934 0.12643 0.18526 0.0
H73 H 0.84004 0.14344 0.17825 0.0
H74 H 0.8496 0.12702 0.21676 0.0
H75 H 0.86042 0.14381 0.20953 0.0
H76 H 0.89913 0.18307 0.19789 0.0
H77 H 0.89808 0.21502 0.17849 0.0
H78 H 0.88119 0.2078 0.1678 0.0
H79 H 0.88201 0.17607 0.18733 0.0
C80 C 0.8344 0.84831 0.1479 0.0
C81 C 0.8404 0.8383 0.14503 0.0
C82 C 0.82749 0.83507 0.12854 0.0
C83 C 0.83697 0.83173 0.13544 0.0
C84 C 0.82158 0.84518 0.13146 0.0
C85 C 0.825 0.85171 0.14103 0.0
U86 U 0.85403 0.85496 0.17395 0.0
O87 O 0.86027 0.87171 0.18055 0.0
O88 O 0.84939 0.86051 0.19145 0.0
C89 C 0.85457 0.87061 0.1903 0.0
C90 C 0.83769 0.85526 0.15805 0.0
C91 C 0.84782 0.88068 0.19384 0.0
C92 C 0.83056 0.89247 0.19287 0.0
C93 C 0.83688 0.88298 0.18908 0.0
C94 C 0.84611 0.89752 0.20608 0.0
C95 C 0.83506 0.89982 0.20149 0.0
C96 C 0.85239 0.88805 0.2023 0.0
C97 C 0.88009 0.83515 0.18001 0.0
C98 C 0.89162 0.83445 0.19767 0.0
C99 C 0.8973 0.82337 0.18102 0.0
C100 C 0.88783 0.82759 0.17483 0.0
C101 C 0.89925 0.8266 0.19257 0.0
C102 C 0.88211 0.83868 0.19144 0.0
C103 C 0.86983 0.83885 0.1734 0.0
O104 O 0.83648 0.85011 0.16812 0.0
O105 O 0.84743 0.86116 0.15718 0.0
O106 O 0.87082 0.84869 0.16778 0.0
O107 O 0.85979 0.83753 0.17856 0.0
H108 H 0.8477 0.83556 0.15022 0.0
H109 H 0.84181 0.82408 0.13339 0.0
H110 H 0.81414 0.84793 0.12648 0.0
H111 H 0.82024 0.8594 0.14314 0.0
H112 H 0.82205 0.89391 0.18921 0.0
H113 H 0.83321 0.87738 0.18253 0.0
H114 H 0.84995 0.90308 0.21257 0.0
H115 H 0.86085 0.88645 0.20604 0.0
H116 H 0.89281 0.83706 0.20656 0.0
H117 H 0.9031 0.81751 0.17675 0.0
H118 H 0.88646 0.82481 0.166 0.0
H119 H 0.87623 0.84454 0.19559 0.0
C120 C 0.14636 0.83278 0.17835 0.0
C121 C 0.14189 0.83835 0.18805 0.0
C122 C 0.12709 0.82325 0.19018 0.0
C123 C 0.13231 0.83364 0.19391 0.0
C124 C 0.13157 0.81781 0.18036 0.0
C125 C 0.1411 0.82253 0.17453 0.0
U126 U 0.17128 0.85474 0.17407 0.0
O127 O 0.18938 0.85168 0.16924 0.0
O128 O 0.17829 0.86203 0.15791 0.0
C129 C 0.18838 0.85708 0.15929 0.0
C130 C 0.15659 0.83733 0.17219 0.0
C131 C 0.19288 0.85094 0.14918 0.0
C132 C 0.19181 0.8354 0.13517 0.0
C133 C 0.18715 0.84123 0.14462 0.0
C134 C 0.20791 0.84898 0.13475 0.0
C135 C 0.20232 0.83916 0.13017 0.0
C136 C 0.20324 0.8548 0.14415 0.0
C137 C 0.17509 0.88013 0.19506 0.0
C138 C 0.19004 0.895 0.19323 0.0
C139 C 0.17709 0.89505 0.20961 0.0
C140 C 0.17149 0.88518 0.20537 0.0
C141 C 0.18644 0.90012 0.2036 0.0
C142 C 0.18442 0.88509 0.189 0.0
C143 C 0.16904 0.86969 0.19087 0.0
O144 O 0.15526 0.84722 0.16678 0.0
O145 O 0.16647 0.83669 0.17781 0.0
O146 O 0.17472 0.86001 0.19201 0.0
O147 O 0.16375 0.87065 0.18084 0.0
H148 H 0.14586 0.84627 0.19115 0.0
H149 H 0.12916 0.83799 0.20149 0.0
H150 H 0.12768 0.80991 0.17714 0.0
H151 H 0.14441 0.81813 0.16703 0.0
H152 H 0.18734 0.82781 0.13194 0.0
H153 H 0.17915 0.8381 0.14843 0.0
H154 H 0.2159 0.85223 0.13103 0.0
H155 H 0.20776 0.8623 0.14753 0.0
H156 H 0.19713 0.89872 0.18832 0.0
H157 H 0.1742 0.8986 0.21771 0.0
H158 H 0.16434 0.88143 0.2102 0.0
H159 H 0.18732 0.8813 0.18101 0.0
C160 C 0.14303 0.83535 0.85345 0.0
C161 C 0.14039 0.84085 0.84295 0.0
C162 C 0.12358 0.82817 0.84034 0.0
C163 C 0.13076 0.83728 0.83644 0.0
C164 C 0.12625 0.82276 0.85092 0.0
C165 C 0.1359 0.82632 0.8574 0.0
U166 U 0.1689 0.85543 0.85885 0.0
O167 O 0.17589 0.86238 0.87514 0.0
O168 O 0.18667 0.85144 0.86432 0.0
C169 C 0.18564 0.85674 0.87426 0.0
C170 C 0.15324 0.83886 0.86029 0.0
C171 C 0.18903 0.84999 0.88451 0.0
C172 C 0.18616 0.83369 0.89754 0.0
C173 C 0.18269 0.84015 0.8879 0.0
C174 C 0.2023 0.8469 0.90056 0.0
C175 C 0.19604 0.83696 0.90398 0.0
C176 C 0.19882 0.85333 0.89092 0.0
C177 C 0.17371 0.88054 0.83715 0.0
C178 C 0.19026 0.89373 0.83685 0.0
C179 C 0.1748 0.89585 0.8228 0.0
C180 C 0.16895 0.88644 0.82772 0.0
C181 C 0.18559 0.89956 0.82721 0.0
C182 C 0.18437 0.88427 0.84177 0.0
C183 C 0.16749 0.87037 0.84175 0.0
O184 O 0.16326 0.83764 0.85515 0.0
O185 O 0.15239 0.84872 0.86573 0.0
O186 O 0.16225 0.8717 0.85169 0.0
O187 O 0.17287 0.8605 0.84096 0.0
H188 H 0.14581 0.84787 0.83979 0.0
H189 H 0.12888 0.84171 0.8284 0.0
H190 H 0.12102 0.81562 0.85411 0.0
H191 H 0.13783 0.82196 0.86547 0.0
H192 H 0.18107 0.82617 0.89999 0.0
H193 H 0.17508 0.83745 0.88306 0.0
H194 H 0.21003 0.84958 0.90519 0.0
H195 H 0.20384 0.86089 0.8884 0.0
H196 H 0.19858 0.89631 0.8404 0.0
H197 H 0.17086 0.90024 0.81553 0.0
H198 H 0.1607 0.88371 0.82408 0.0
H199 H 0.18818 0.87978 0.84906 0.0
C200 C 0.14632 0.17647 0.83801 0.0
C201 C 0.1477 0.18665 0.83146 0.0
C202 C 0.12675 0.18905 0.83037 0.0
C203 C 0.13805 0.19286 0.82772 0.0
C204 C 0.12538 0.17888 0.83696 0.0
C205 C 0.13503 0.17266 0.84068 0.0
U206 U 0.17234 0.16962 0.85786 0.0
O207 O 0.17858 0.1529 0.86433 0.0
O208 O 0.18984 0.16385 0.85355 0.0
C209 C 0.18853 0.15392 0.85894 0.0
C210 C 0.15648 0.16944 0.84148 0.0
C211 C 0.19254 0.14364 0.85277 0.0
C212 C 0.19316 0.13135 0.83581 0.0
C213 C 0.18865 0.14089 0.8416 0.0
C214 C 0.2053 0.12716 0.85238 0.0
C215 C 0.20167 0.12446 0.84109 0.0
C216 C 0.20079 0.13664 0.85814 0.0
C217 C 0.17878 0.1893 0.88382 0.0
C218 C 0.19573 0.18762 0.89625 0.0
C219 C 0.18095 0.20151 0.9007 0.0
C220 C 0.17462 0.198 0.89098 0.0
C221 C 0.1916 0.19639 0.90347 0.0
C222 C 0.18935 0.1841 0.88652 0.0
C223 C 0.17197 0.18591 0.87356 0.0
O224 O 0.16678 0.17425 0.84024 0.0
O225 O 0.1555 0.16346 0.85112 0.0
O226 O 0.16605 0.1762 0.87447 0.0
O227 O 0.17724 0.18708 0.86358 0.0
H228 H 0.15624 0.18977 0.82907 0.0
H229 H 0.13946 0.20052 0.8225 0.0
H230 H 0.11684 0.17573 0.83929 0.0
H231 H 0.13363 0.16479 0.84559 0.0
H232 H 0.19022 0.12957 0.8271 0.0
H233 H 0.18227 0.14621 0.83731 0.0
H234 H 0.21167 0.12194 0.8568 0.0
H235 H 0.20387 0.13859 0.86677 0.0
H236 H 0.20383 0.18341 0.89818 0.0
H237 H 0.17758 0.20839 0.90593 0.0
H238 H 0.16649 0.20214 0.88901 0.0
H239 H 0.19268 0.17733 0.8811 0.0
C240 C 0.83247 0.1467 0.85542 0.0
C241 C 0.83848 0.14229 0.84595 0.0
C242 C 0.82408 0.12679 0.84392 0.0
C243 C 0.83432 0.13242 0.84025 0.0
C244 C 0.81813 0.13131 0.85343 0.0
C245 C 0.82229 0.14115 0.85911 0.0
U246 U 0.85361 0.17223 0.85929 0.0
O247 O 0.85007 0.1902 0.86395 0.0
O248 O 0.86096 0.1796 0.87525 0.0
C249 C 0.85568 0.18948 0.87383 0.0
C250 C 0.8366 0.15709 0.86152 0.0
C251 C 0.84956 0.19392 0.88399 0.0
C252 C 0.83385 0.19297 0.89791 0.0
C253 C 0.83965 0.18836 0.88841 0.0
C254 C 0.84788 0.20866 0.89868 0.0
C255 C 0.83784 0.20325 0.90311 0.0
C256 C 0.85365 0.20404 0.88923 0.0
C257 C 0.87871 0.1762 0.83768 0.0
C258 C 0.89347 0.19134 0.83868 0.0
C259 C 0.8931 0.17816 0.82254 0.0
C260 C 0.88345 0.17249 0.82726 0.0
C261 C 0.89822 0.18769 0.82814 0.0
C262 C 0.88377 0.18566 0.84339 0.0
C263 C 0.86844 0.17011 0.84229 0.0
O264 O 0.8466 0.15618 0.86691 0.0
O265 O 0.83558 0.16686 0.85581 0.0
O266 O 0.85858 0.17554 0.84123 0.0
O267 O 0.86972 0.16508 0.85241 0.0
H268 H 0.84637 0.14647 0.84298 0.0
H269 H 0.83919 0.12914 0.83304 0.0
H270 H 0.81013 0.12735 0.85639 0.0
H271 H 0.81751 0.14446 0.86637 0.0
H272 H 0.8261 0.18864 0.90102 0.0
H273 H 0.83635 0.18053 0.88445 0.0
H274 H 0.85131 0.21646 0.90256 0.0
H275 H 0.86132 0.20842 0.88596 0.0
H276 H 0.89712 0.19871 0.84317 0.0
H277 H 0.89661 0.17498 0.81453 0.0
H278 H 0.87968 0.16518 0.82275 0.0
H279 H 0.88019 0.18867 0.85145 0.0
C280 C 0.8505 0.8797 0.83504 0.0
C281 C 0.84045 0.88373 0.84037 0.0
C282 C 0.83889 0.8991 0.82593 0.0
C283 C 0.83471 0.89337 0.83587 0.0
C284 C 0.84906 0.89506 0.82076 0.0
C285 C 0.85478 0.88548 0.82527 0.0
U286 U 0.85473 0.85419 0.85617 0.0
O287 O 0.85969 0.83637 0.85232 0.0
O288 O 0.87096 0.84718 0.86318 0.0
C289 C 0.86964 0.83729 0.85781 0.0
C290 C 0.85658 0.86942 0.83932 0.0
C291 C 0.87983 0.83311 0.85156 0.0
C292 C 0.894 0.83475 0.83613 0.0
C293 C 0.88437 0.83906 0.84198 0.0
C294 C 0.8946 0.81856 0.84941 0.0
C295 C 0.8992 0.8244 0.83974 0.0
C296 C 0.88502 0.82287 0.85524 0.0
C297 C 0.83394 0.84908 0.88155 0.0
C298 C 0.83661 0.83419 0.89617 0.0
C299 C 0.81913 0.84547 0.89603 0.0
C300 C 0.82317 0.8516 0.88638 0.0
C301 C 0.82578 0.83667 0.90107 0.0
C302 C 0.84064 0.84033 0.8865 0.0
C303 C 0.83794 0.85563 0.87133 0.0
O304 O 0.86197 0.87049 0.84929 0.0
O305 O 0.85093 0.85957 0.83831 0.0
O306 O 0.83678 0.85033 0.86139 0.0
O307 O 0.84794 0.86106 0.87243 0.0
H308 H 0.83701 0.87936 0.84793 0.0
H309 H 0.82686 0.89617 0.84001 0.0
H310 H 0.85264 0.89935 0.81323 0.0
H311 H 0.86254 0.88252 0.82106 0.0
H312 H 0.89723 0.83942 0.82867 0.0
H313 H 0.88045 0.84697 0.839 0.0
H314 H 0.89847 0.81068 0.85255 0.0
H315 H 0.88165 0.81817 0.86264 0.0
H316 H 0.84203 0.82757 0.89988 0.0
H317 H 0.81068 0.84751 0.8994 0.0
H318 H 0.81785 0.8583 0.88264 0.0
H319 H 0.84899 0.83826 0.88288 0.0
C320 C 0.178 0.645 0.69392 0.0
C321 C 0.18915 0.64624 0.69874 0.0
C322 C 0.19057 0.62538 0.70131 0.0
C323 C 0.19535 0.63656 0.70238 0.0
C324 C 0.17947 0.62417 0.69635 0.0
C325 C 0.17326 0.63385 0.69275 0.0
U326 U 0.17065 0.67148 0.6749 0.0
O327 O 0.15364 0.67767 0.66902 0.0
O328 O 0.16467 0.68864 0.67998 0.0
C329 C 0.15455 0.68732 0.67487 0.0
C330 C 0.17092 0.65518 0.69078 0.0
C331 C 0.14436 0.69049 0.68172 0.0
C332 C 0.13221 0.68856 0.69876 0.0
C333 C 0.14187 0.68519 0.69237 0.0
C334 C 0.1274 0.70246 0.68386 0.0
C335 C 0.12484 0.69726 0.69457 0.0
C336 C 0.13705 0.6991 0.67752 0.0
C337 C 0.18999 0.67878 0.64868 0.0
C338 C 0.18734 0.69524 0.63585 0.0
C339 C 0.20286 0.68188 0.63239 0.0
C340 C 0.19945 0.67541 0.64204 0.0
C341 C 0.19687 0.69189 0.62915 0.0
C342 C 0.18392 0.68872 0.64553 0.0
C343 C 0.1867 0.67179 0.65885 0.0
O344 O 0.17571 0.66542 0.69222 0.0
O345 O 0.16481 0.65441 0.68119 0.0
O346 O 0.17698 0.66585 0.65796 0.0
O347 O 0.18799 0.6768 0.66894 0.0
H348 H 0.19305 0.6547 0.6999 0.0
H349 H 0.20378 0.63789 0.70631 0.0
H350 H 0.17555 0.61572 0.69522 0.0
H351 H 0.16466 0.63261 0.68916 0.0
H352 H 0.13045 0.68429 0.70691 0.0
H353 H 0.14742 0.67849 0.69575 0.0
H354 H 0.12206 0.7093 0.68044 0.0
H355 H 0.13885 0.70332 0.66933 0.0
H356 H 0.18246 0.70283 0.63356 0.0
H357 H 0.21035 0.67914 0.62758 0.0
H358 H 0.20426 0.66778 0.64437 0.0
H359 H 0.17657 0.69144 0.65055 0.0
C360 C 0.83296 0.67357 0.64779 0.0
C361 C 0.83908 0.68287 0.64283 0.0
C362 C 0.82403 0.68501 0.62812 0.0
C363 C 0.83465 0.68854 0.63308 0.0
C364 C 0.81796 0.67567 0.63317 0.0
C365 C 0.8224 0.67002 0.6429 0.0
U366 U 0.85496 0.67014 0.67238 0.0
O367 O 0.85215 0.66554 0.69063 0.0
O368 O 0.86261 0.6544 0.67968 0.0
C369 C 0.85771 0.65577 0.68979 0.0
C370 C 0.83739 0.66754 0.65808 0.0
C371 C 0.85169 0.64557 0.69458 0.0
C372 C 0.83622 0.63114 0.69401 0.0
C373 C 0.84194 0.64071 0.6891 0.0
C374 C 0.85002 0.6312 0.70984 0.0
C375 C 0.84015 0.62632 0.70449 0.0
C376 C 0.85572 0.64072 0.70493 0.0
C377 C 0.88021 0.69161 0.67541 0.0
C378 C 0.89459 0.69019 0.69074 0.0
C379 C 0.89541 0.70618 0.6772 0.0
C380 C 0.88561 0.70178 0.67151 0.0
C381 C 0.90001 0.70047 0.68692 0.0
C382 C 0.88476 0.68581 0.68505 0.0
C383 C 0.86977 0.68728 0.66944 0.0
O384 O 0.84732 0.6623 0.6568 0.0
O385 O 0.83674 0.67325 0.66782 0.0
O386 O 0.86005 0.68825 0.67517 0.0
O387 O 0.87076 0.67724 0.66435 0.0
H388 H 0.84726 0.68573 0.64651 0.0
H389 H 0.83961 0.69561 0.62936 0.0
H390 H 0.80968 0.67284 0.62972 0.0
H391 H 0.81753 0.66289 0.64665 0.0
H392 H 0.82859 0.62768 0.68972 0.0
H393 H 0.8387 0.64438 0.68111 0.0
H394 H 0.85338 0.62761 0.71782 0.0
H395 H 0.86326 0.64434 0.70926 0.0
H396 H 0.89782 0.68565 0.69827 0.0
H397 H 0.89944 0.71401 0.67392 0.0
H398 H 0.88221 0.70636 0.66407 0.0
H399 H 0.88067 0.67796 0.68821 0.0
C400 C 0.83598 0.34815 0.64823 0.0
C401 C 0.84205 0.3382 0.64526 0.0
C402 C 0.82901 0.33495 0.62887 0.0
C403 C 0.83859 0.33165 0.63567 0.0
C404 C 0.82303 0.34497 0.63191 0.0
C405 C 0.82648 0.35149 0.64148 0.0
U406 U 0.8555 0.35487 0.67442 0.0
O407 O 0.86189 0.37167 0.68077 0.0
O408 O 0.85071 0.36085 0.69173 0.0
C409 C 0.85606 0.37084 0.69045 0.0
C410 C 0.83933 0.35512 0.65833 0.0
C411 C 0.84945 0.3811 0.69373 0.0
C412 C 0.83229 0.39302 0.69262 0.0
C413 C 0.83843 0.3833 0.68911 0.0
C414 C 0.84817 0.39847 0.70526 0.0
C415 C 0.83709 0.40073 0.70075 0.0
C416 C 0.85427 0.38877 0.70178 0.0
C417 C 0.8813 0.33529 0.68145 0.0
C418 C 0.8941 0.33788 0.69801 0.0
C419 C 0.89742 0.32237 0.68458 0.0
C420 C 0.88783 0.32582 0.67806 0.0
C421 C 0.90069 0.32833 0.69466 0.0
C422 C 0.88449 0.34134 0.69145 0.0
C423 C 0.87117 0.33862 0.67445 0.0
O424 O 0.83796 0.3501 0.66845 0.0
O425 O 0.84917 0.36087 0.65748 0.0
O426 O 0.87225 0.34829 0.66855 0.0
O427 O 0.86105 0.33748 0.6795 0.0
H428 H 0.84943 0.33551 0.65036 0.0
H429 H 0.84347 0.32406 0.63352 0.0
H430 H 0.81551 0.34768 0.62702 0.0
H431 H 0.82167 0.35912 0.64367 0.0
H432 H 0.82382 0.39454 0.68889 0.0
H433 H 0.83458 0.37748 0.68285 0.0
H434 H 0.85208 0.40408 0.71167 0.0
H435 H 0.86275 0.38719 0.70547 0.0
H436 H 0.89642 0.34275 0.70565 0.0
H437 H 0.90214 0.31487 0.68182 0.0
H438 H 0.88547 0.32102 0.67038 0.0
H439 H 0.87956 0.3487 0.69419 0.0
C440 C 0.1469 0.33235 0.67744 0.0
C441 C 0.14276 0.33757 0.68749 0.0
C442 C 0.12755 0.32282 0.68914 0.0
C443 C 0.13315 0.33285 0.69328 0.0
C444 C 0.13167 0.31776 0.67896 0.0
C445 C 0.14124 0.32248 0.67319 0.0
U446 U 0.17218 0.35397 0.67373 0.0
O447 O 0.19027 0.35069 0.66899 0.0
O448 O 0.17947 0.36149 0.6578 0.0
C449 C 0.18945 0.35632 0.65914 0.0
C450 C 0.15721 0.33684 0.67138 0.0
C451 C 0.19391 0.35031 0.64893 0.0
C452 C 0.19256 0.3352 0.63446 0.0
C453 C 0.188 0.34084 0.64408 0.0
C454 C 0.20893 0.34846 0.63446 0.0
C455 C 0.20313 0.33891 0.62956 0.0
C456 C 0.20436 0.35409 0.64403 0.0
C457 C 0.17596 0.37878 0.69558 0.0
C458 C 0.1915 0.39315 0.69514 0.0
C459 C 0.17749 0.39324 0.71062 0.0
C460 C 0.17182 0.38371 0.70574 0.0
C461 C 0.18746 0.39805 0.70545 0.0
C462 C 0.18581 0.38357 0.69025 0.0
C463 C 0.16994 0.36854 0.69087 0.0
O464 O 0.15608 0.34687 0.66617 0.0
O465 O 0.16706 0.33591 0.67702 0.0
O466 O 0.17549 0.35877 0.69182 0.0
O467 O 0.16486 0.36987 0.68077 0.0
H468 H 0.14704 0.34519 0.69091 0.0
H469 H 0.13028 0.33691 0.70114 0.0
H470 H 0.12748 0.31015 0.67542 0.0
H471 H 0.14429 0.31836 0.66542 0.0
H472 H 0.18792 0.32782 0.63099 0.0
H473 H 0.17992 0.33778 0.64777 0.0
H474 H 0.21698 0.35168 0.63083 0.0
H475 H 0.20903 0.3614 0.64764 0.0
H476 H 0.1992 0.39657 0.69098 0.0
H477 H 0.17402 0.39687 0.71845 0.0
H478 H 0.16421 0.38015 0.70994 0.0
H479 H 0.18915 0.37985 0.6824 0.0
C480 C 0.14405 0.33619 0.35258 0.0
C481 C 0.14149 0.34182 0.34213 0.0
C482 C 0.12443 0.32944 0.33947 0.0
C483 C 0.13177 0.33846 0.33562 0.0
C484 C 0.12706 0.3239 0.34999 0.0
C485 C 0.13678 0.32725 0.35647 0.0
U486 U 0.17034 0.35572 0.35872 0.0
O487 O 0.17717 0.36209 0.3753 0.0
O488 O 0.1879 0.35114 0.36442 0.0
C489 C 0.18682 0.35628 0.37444 0.0
C490 C 0.1543 0.33946 0.35948 0.0
C491 C 0.18997 0.34931 0.38461 0.0
C492 C 0.1863 0.3333 0.39779 0.0
C493 C 0.18307 0.33991 0.38817 0.0
C494 C 0.20332 0.34544 0.40039 0.0
C495 C 0.19649 0.33596 0.40402 0.0
C496 C 0.20009 0.35203 0.39079 0.0
C497 C 0.17674 0.38142 0.33854 0.0
C498 C 0.19385 0.39377 0.34011 0.0
C499 C 0.17923 0.39783 0.32564 0.0
C500 C 0.17273 0.38831 0.32944 0.0
C501 C 0.18992 0.40065 0.33086 0.0
C502 C 0.18732 0.38422 0.34392 0.0
C503 C 0.16981 0.37131 0.34217 0.0
O504 O 0.16433 0.33819 0.35437 0.0
O505 O 0.15356 0.34921 0.36514 0.0
O506 O 0.16421 0.37234 0.35195 0.0
O507 O 0.17484 0.36128 0.34109 0.0
H508 H 0.14701 0.34878 0.33901 0.0
H509 H 0.12994 0.34299 0.32762 0.0
H510 H 0.12172 0.31682 0.35314 0.0
H511 H 0.13865 0.32279 0.3645 0.0
H512 H 0.18076 0.32615 0.4004 0.0
H513 H 0.17521 0.3377 0.38349 0.0
H514 H 0.21131 0.34763 0.40485 0.0
H515 H 0.20554 0.35923 0.38812 0.0
H516 H 0.20209 0.39562 0.34426 0.0
H517 H 0.17582 0.40303 0.31864 0.0
H518 H 0.16455 0.3863 0.32523 0.0
H519 H 0.19055 0.37897 0.35097 0.0
C520 C 0.14487 0.67676 0.33758 0.0
C521 C 0.14211 0.68668 0.34383 0.0
C522 C 0.12554 0.69012 0.33111 0.0
C523 C 0.13254 0.69331 0.34062 0.0
C524 C 0.12836 0.68012 0.32496 0.0
C525 C 0.13792 0.67352 0.32816 0.0
U526 U 0.17118 0.66992 0.35671 0.0
O527 O 0.17767 0.65313 0.36265 0.0
O528 O 0.18857 0.66429 0.35174 0.0
C529 C 0.18735 0.65417 0.35679 0.0
C530 C 0.155 0.66976 0.34065 0.0
C531 C 0.19054 0.64414 0.34979 0.0
C532 C 0.18718 0.63114 0.33366 0.0
C533 C 0.18388 0.64066 0.34023 0.0
C534 C 0.20381 0.62848 0.34618 0.0
C535 C 0.19721 0.62492 0.33655 0.0
C536 C 0.2005 0.63798 0.35271 0.0
C537 C 0.17794 0.68956 0.38281 0.0
C538 C 0.19516 0.68854 0.39497 0.0
C539 C 0.18004 0.70203 0.3995 0.0
C540 C 0.17364 0.69819 0.38996 0.0
C541 C 0.19093 0.69734 0.40209 0.0
C542 C 0.18871 0.68469 0.38539 0.0
C543 C 0.17108 0.686 0.37264 0.0
O544 O 0.16513 0.67486 0.33934 0.0
O545 O 0.15419 0.66383 0.35032 0.0
O546 O 0.16533 0.67619 0.37361 0.0
O547 O 0.17614 0.68731 0.36257 0.0
H548 H 0.14737 0.6893 0.35115 0.0
H549 H 0.13057 0.70088 0.34563 0.0
H550 H 0.12331 0.6775 0.3175 0.0
H551 H 0.13994 0.66592 0.32322 0.0
H552 H 0.18183 0.62858 0.32639 0.0
H553 H 0.17614 0.64531 0.33785 0.0
H554 H 0.21167 0.62406 0.34856 0.0
H555 H 0.20578 0.64057 0.36004 0.0
H556 H 0.20354 0.6848 0.39664 0.0
H557 H 0.17641 0.70866 0.40488 0.0
H558 H 0.16531 0.70201 0.38813 0.0
H559 H 0.19218 0.67801 0.37995 0.0
C560 C 0.83143 0.64664 0.3546 0.0
C561 C 0.83792 0.6419 0.34563 0.0
C562 C 0.823 0.6271 0.34253 0.0
C563 C 0.83375 0.6322 0.33966 0.0
C564 C 0.81657 0.63191 0.35156 0.0
C565 C 0.82076 0.64158 0.35753 0.0
U566 U 0.85286 0.67177 0.35928 0.0
O567 O 0.84954 0.68974 0.36411 0.0
O568 O 0.86003 0.67881 0.37547 0.0
C569 C 0.85496 0.6888 0.37407 0.0
C570 C 0.83558 0.65688 0.36096 0.0
C571 C 0.84878 0.69325 0.38418 0.0
C572 C 0.833 0.69232 0.39803 0.0
C573 C 0.83884 0.6877 0.38855 0.0
C574 C 0.84704 0.70799 0.39888 0.0
C575 C 0.83698 0.70259 0.40325 0.0
C576 C 0.85285 0.70337 0.38945 0.0
C577 C 0.87843 0.67557 0.33817 0.0
C578 C 0.89231 0.69155 0.33841 0.0
C579 C 0.89407 0.67641 0.32423 0.0
C580 C 0.88432 0.67084 0.32882 0.0
C581 C 0.89816 0.68689 0.32889 0.0
C582 C 0.88251 0.68594 0.343 0.0
C583 C 0.86798 0.66961 0.34254 0.0
O584 O 0.84544 0.65574 0.36654 0.0
O585 O 0.83482 0.66674 0.35539 0.0
O586 O 0.85823 0.67523 0.34137 0.0
O587 O 0.86899 0.66444 0.35261 0.0
H588 H 0.84617 0.64573 0.34321 0.0
H589 H 0.83886 0.62882 0.33267 0.0
H590 H 0.80835 0.62814 0.35412 0.0
H591 H 0.81564 0.6451 0.36445 0.0
H592 H 0.82523 0.68799 0.4011 0.0
H593 H 0.83555 0.67988 0.38457 0.0
H594 H 0.85047 0.71579 0.40278 0.0
H595 H 0.86054 0.70774 0.38622 0.0
H596 H 0.89516 0.69964 0.34216 0.0
H597 H 0.89845 0.67247 0.31705 0.0
H598 H 0.88132 0.66282 0.32501 0.0
H599 H 0.87805 0.68973 0.35023 0.0
C600 C 0.85035 0.37974 0.33557 0.0
C601 C 0.84201 0.3849 0.34256 0.0
C602 C 0.83816 0.39926 0.32753 0.0
C603 C 0.83599 0.39457 0.33859 0.0
C604 C 0.84654 0.394 0.32059 0.0
C605 C 0.85256 0.38436 0.32458 0.0
U606 U 0.85505 0.35433 0.35641 0.0
O607 O 0.86 0.33649 0.35273 0.0
O608 O 0.87127 0.34738 0.36352 0.0
C609 C 0.86992 0.33744 0.35827 0.0
C610 C 0.85676 0.36952 0.33952 0.0
C611 C 0.88014 0.33305 0.35221 0.0
C612 C 0.89345 0.33315 0.33597 0.0
C613 C 0.88392 0.33782 0.34169 0.0
C614 C 0.89554 0.31902 0.35129 0.0
C615 C 0.8993 0.3236 0.34065 0.0
C616 C 0.88607 0.32369 0.35699 0.0
C617 C 0.83373 0.34983 0.38169 0.0
C618 C 0.83483 0.3344 0.39598 0.0
C619 C 0.81897 0.34783 0.39647 0.0
C620 C 0.82354 0.35361 0.38686 0.0
C621 C 0.82451 0.3381 0.40114 0.0
C622 C 0.83939 0.3402 0.38631 0.0
C623 C 0.83814 0.35602 0.37143 0.0
O624 O 0.86229 0.37056 0.34942 0.0
O625 O 0.85124 0.3596 0.33849 0.0
O626 O 0.83707 0.35056 0.36156 0.0
O627 O 0.8482 0.36131 0.37262 0.0
H628 H 0.84018 0.38145 0.35108 0.0
H629 H 0.8297 0.39844 0.34423 0.0
H630 H 0.84832 0.39721 0.31197 0.0
H631 H 0.85892 0.38046 0.31903 0.0
H632 H 0.89604 0.33683 0.32775 0.0
H633 H 0.87943 0.34505 0.33787 0.0
H634 H 0.89994 0.31181 0.35526 0.0
H635 H 0.88331 0.31992 0.36512 0.0
H636 H 0.83927 0.32689 0.39928 0.0
H637 H 0.81113 0.35105 0.40031 0.0
H638 H 0.81907 0.36105 0.38343 0.0
H639 H 0.84727 0.33714 0.38241 0.0
C640 C 0.67707 0.14496 0.69431 0.0
C641 C 0.68775 0.14269 0.68912 0.0
C642 C 0.69006 0.1256 0.70132 0.0
C643 C 0.6942 0.13311 0.69261 0.0
C644 C 0.67931 0.12794 0.70642 0.0
C645 C 0.67291 0.13751 0.70295 0.0
U646 U 0.67034 0.17108 0.67478 0.0
O647 O 0.65344 0.17742 0.66879 0.0
O648 O 0.66457 0.18839 0.67963 0.0
C649 C 0.65444 0.18711 0.67455 0.0
C650 C 0.67018 0.15508 0.69099 0.0
C651 C 0.6443 0.19037 0.68142 0.0
C652 C 0.63152 0.18769 0.69789 0.0
C653 C 0.64113 0.18428 0.69145 0.0
C654 C 0.62815 0.20325 0.68431 0.0
C655 C 0.6249 0.19724 0.69441 0.0
C656 C 0.63774 0.19985 0.6779 0.0
C657 C 0.68975 0.178 0.64861 0.0
C658 C 0.68726 0.19458 0.6359 0.0
C659 C 0.70259 0.18105 0.63227 0.0
C660 C 0.69913 0.17455 0.64189 0.0
C661 C 0.69672 0.19118 0.62914 0.0
C662 C 0.6838 0.18804 0.64554 0.0
C663 C 0.68644 0.17104 0.65879 0.0
O664 O 0.67533 0.16517 0.69218 0.0
O665 O 0.66427 0.15418 0.6813 0.0
O666 O 0.67666 0.16519 0.65793 0.0
O667 O 0.68777 0.1761 0.66885 0.0
H668 H 0.69109 0.14834 0.6824 0.0
H669 H 0.70238 0.13152 0.68841 0.0
H670 H 0.67593 0.12248 0.71327 0.0
H671 H 0.6647 0.13915 0.70708 0.0
H672 H 0.62922 0.18278 0.70555 0.0
H673 H 0.64609 0.17691 0.69429 0.0
H674 H 0.62342 0.21075 0.68145 0.0
H675 H 0.64009 0.20469 0.67021 0.0
H676 H 0.68247 0.20226 0.63369 0.0
H677 H 0.71002 0.17825 0.62741 0.0
H678 H 0.70385 0.16684 0.64415 0.0
H679 H 0.67651 0.19083 0.65062 0.0
C680 C 0.33305 0.17374 0.64679 0.0
C681 C 0.33935 0.18282 0.64167 0.0
C682 C 0.3241 0.18532 0.62722 0.0
C683 C 0.33492 0.18856 0.63196 0.0
C684 C 0.31785 0.17621 0.63246 0.0
C685 C 0.32229 0.17048 0.64213 0.0
U686 U 0.35479 0.17012 0.67164 0.0
O687 O 0.35172 0.16512 0.68972 0.0
O688 O 0.36243 0.15426 0.67873 0.0
C689 C 0.35724 0.15534 0.68873 0.0
C690 C 0.33748 0.1676 0.65703 0.0
C691 C 0.351 0.14502 0.69298 0.0
C692 C 0.33392 0.13253 0.69337 0.0
C693 C 0.33989 0.14213 0.68886 0.0
C694 C 0.35021 0.12851 0.70595 0.0
C695 C 0.33896 0.12566 0.70207 0.0
C696 C 0.35614 0.1381 0.70146 0.0
C697 C 0.37969 0.19213 0.67528 0.0
C698 C 0.39378 0.19149 0.69094 0.0
C699 C 0.39437 0.20721 0.67708 0.0
C700 C 0.38486 0.20237 0.67127 0.0
C701 C 0.3989 0.20189 0.68705 0.0
C702 C 0.38423 0.18666 0.68511 0.0
C703 C 0.36942 0.18751 0.66922 0.0
O704 O 0.3475 0.16255 0.65577 0.0
O705 O 0.33661 0.17312 0.66685 0.0
O706 O 0.35961 0.18823 0.67485 0.0
O707 O 0.37069 0.17754 0.66407 0.0
H708 H 0.34768 0.18545 0.64517 0.0
H709 H 0.34002 0.19545 0.6281 0.0
H710 H 0.30942 0.17361 0.62919 0.0
H711 H 0.31728 0.16353 0.64602 0.0
H712 H 0.32524 0.13066 0.69025 0.0
H713 H 0.33578 0.14738 0.68229 0.0
H714 H 0.35444 0.12331 0.71249 0.0
H715 H 0.36474 0.14017 0.70469 0.0
H716 H 0.39698 0.18723 0.69865 0.0
H717 H 0.39819 0.21512 0.67374 0.0
H718 H 0.38148 0.2067 0.66367 0.0
H719 H 0.38031 0.17875 0.68835 0.0
C720 C 0.3349 0.84828 0.64865 0.0
C721 C 0.34101 0.83839 0.6456 0.0
C722 C 0.32806 0.83524 0.62914 0.0
C723 C 0.33762 0.83192 0.63594 0.0
C724 C 0.32203 0.84522 0.63224 0.0
C725 C 0.32542 0.85166 0.64189 0.0
U726 U 0.35425 0.85422 0.67502 0.0
O727 O 0.36078 0.87069 0.68198 0.0
O728 O 0.34948 0.8596 0.69255 0.0
C729 C 0.35497 0.86956 0.69166 0.0
C730 C 0.33815 0.85508 0.6589 0.0
C731 C 0.34853 0.87975 0.69543 0.0
C732 C 0.33427 0.89471 0.6922 0.0
C733 C 0.34014 0.88494 0.68838 0.0
C734 C 0.34506 0.89412 0.71018 0.0
C735 C 0.33669 0.89945 0.70315 0.0
C736 C 0.35091 0.88439 0.70635 0.0
C737 C 0.37986 0.83375 0.68146 0.0
C738 C 0.4007 0.83366 0.68509 0.0
C739 C 0.38824 0.81996 0.695 0.0
C740 C 0.3786 0.82456 0.68935 0.0
C741 C 0.39945 0.82434 0.69284 0.0
C742 C 0.39104 0.83828 0.67944 0.0
C743 C 0.36972 0.83778 0.67464 0.0
O744 O 0.33667 0.84987 0.6689 0.0
O745 O 0.34804 0.86079 0.65825 0.0
O746 O 0.37091 0.84758 0.66897 0.0
O747 O 0.35949 0.83655 0.67947 0.0
H748 H 0.34837 0.83566 0.65072 0.0
H749 H 0.34254 0.82437 0.63375 0.0
H750 H 0.31453 0.84795 0.62734 0.0
H751 H 0.32057 0.85925 0.64414 0.0
H752 H 0.32796 0.89863 0.68652 0.0
H753 H 0.33818 0.88147 0.67991 0.0
H754 H 0.34701 0.89736 0.71873 0.0
H755 H 0.35731 0.88047 0.71194 0.0
H756 H 0.40919 0.83717 0.68309 0.0
H757 H 0.38691 0.81289 0.70102 0.0
H758 H 0.37015 0.82076 0.69102 0.0
H759 H 0.39239 0.84523 0.67328 0.0
C760 C 0.6459 0.83433 0.67984 0.0
C761 C 0.64246 0.84071 0.68947 0.0
C762 C 0.62655 0.82708 0.69304 0.0
C763 C 0.63288 0.83712 0.696 0.0
C764 C 0.63003 0.82079 0.68332 0.0
C765 C 0.63961 0.82439 0.6768 0.0
U766 U 0.67171 0.85449 0.67432 0.0
O767 O 0.68955 0.85055 0.66919 0.0
O768 O 0.67878 0.86141 0.65804 0.0
C769 C 0.68865 0.85601 0.65926 0.0
C770 C 0.65611 0.83783 0.67303 0.0
C771 C 0.69275 0.84975 0.64905 0.0
C772 C 0.69057 0.83475 0.63456 0.0
C773 C 0.68642 0.8405 0.6443 0.0
C774 C 0.70739 0.84742 0.63428 0.0
C775 C 0.70111 0.83816 0.6294 0.0
C776 C 0.70325 0.85314 0.64398 0.0
C777 C 0.67645 0.8798 0.69552 0.0
C778 C 0.69223 0.8939 0.6947 0.0
C779 C 0.67829 0.89456 0.71024 0.0
C780 C 0.67244 0.88503 0.70558 0.0
C781 C 0.68832 0.89907 0.70493 0.0
C782 C 0.68635 0.88431 0.69005 0.0
C783 C 0.67021 0.86958 0.6911 0.0
O784 O 0.65524 0.84764 0.66737 0.0
O785 O 0.66613 0.8367 0.67831 0.0
O786 O 0.67561 0.85972 0.69217 0.0
O787 O 0.66498 0.87078 0.68107 0.0
H788 H 0.64721 0.84843 0.69194 0.0
H789 H 0.63038 0.84225 0.70334 0.0
H790 H 0.6255 0.81294 0.68087 0.0
H791 H 0.64217 0.81933 0.66942 0.0
H792 H 0.68545 0.82773 0.63099 0.0
H793 H 0.67828 0.83776 0.64811 0.0
H794 H 0.71563 0.85017 0.63071 0.0
H795 H 0.70828 0.86023 0.64756 0.0
H796 H 0.69996 0.89709 0.69045 0.0
H797 H 0.67492 0.89842 0.718 0.0
H798 H 0.66479 0.8817 0.7099 0.0
H799 H 0.68958 0.88036 0.68227 0.0
C800 C 0.644 0.83628 0.35256 0.0
C801 C 0.64123 0.84256 0.34254 0.0
C802 C 0.62488 0.82955 0.33872 0.0
C803 C 0.63175 0.83922 0.33568 0.0
C804 C 0.62771 0.82336 0.34883 0.0
C805 C 0.63717 0.82671 0.35566 0.0
U806 U 0.67004 0.85582 0.35964 0.0
O807 O 0.67644 0.86195 0.37649 0.0
O808 O 0.68747 0.85124 0.36568 0.0
C809 C 0.68616 0.85625 0.37573 0.0
C810 C 0.65404 0.8395 0.35978 0.0
C811 C 0.68924 0.84921 0.38588 0.0
C812 C 0.68619 0.83246 0.39828 0.0
C813 C 0.68295 0.83917 0.38872 0.0
C814 C 0.70196 0.84585 0.4023 0.0
C815 C 0.69577 0.83571 0.40517 0.0
C816 C 0.69872 0.85252 0.39275 0.0
C817 C 0.6771 0.88176 0.34011 0.0
C818 C 0.69388 0.8943 0.34308 0.0
C819 C 0.68071 0.89794 0.32716 0.0
C820 C 0.67395 0.88842 0.3305 0.0
C821 C 0.69078 0.901 0.33337 0.0
C822 C 0.68708 0.88476 0.34642 0.0
C823 C 0.66996 0.87165 0.3433 0.0
O824 O 0.66421 0.83834 0.35492 0.0
O825 O 0.65312 0.84918 0.36553 0.0
O826 O 0.66408 0.87254 0.35293 0.0
O827 O 0.67496 0.86161 0.3422 0.0
H828 H 0.64641 0.85 0.34003 0.0
H829 H 0.62976 0.84425 0.32803 0.0
H830 H 0.62274 0.81578 0.35135 0.0
H831 H 0.63922 0.82174 0.36335 0.0
H832 H 0.68116 0.82478 0.40031 0.0
H833 H 0.67558 0.8365 0.38351 0.0
H834 H 0.70947 0.84852 0.40728 0.0
H835 H 0.70369 0.86023 0.39065 0.0
H836 H 0.7015 0.89647 0.34813 0.0
H837 H 0.67816 0.90277 0.31954 0.0
H838 H 0.66629 0.88619 0.3255 0.0
H839 H 0.68963 0.87972 0.35389 0.0
C840 C 0.64464 0.17635 0.33763 0.0
C841 C 0.64207 0.18641 0.34373 0.0
C842 C 0.62537 0.18979 0.33117 0.0
C843 C 0.63253 0.19308 0.34052 0.0
C844 C 0.628 0.17965 0.32516 0.0
C845 C 0.63753 0.17301 0.32837 0.0
U846 U 0.67119 0.16905 0.35643 0.0
O847 O 0.67749 0.15207 0.36204 0.0
O848 O 0.68837 0.16316 0.35105 0.0
C849 C 0.6871 0.15303 0.35606 0.0
C850 C 0.65475 0.16929 0.34063 0.0
C851 C 0.69012 0.14299 0.349 0.0
C852 C 0.68653 0.13003 0.33289 0.0
C853 C 0.68336 0.13958 0.33949 0.0
C854 C 0.70323 0.12723 0.34528 0.0
C855 C 0.69652 0.12372 0.3357 0.0
C856 C 0.70005 0.13675 0.35184 0.0
C857 C 0.67932 0.18793 0.38282 0.0
C858 C 0.69548 0.19882 0.39123 0.0
C859 C 0.68244 0.18809 0.40369 0.0
C860 C 0.67608 0.18444 0.39402 0.0
C861 C 0.69218 0.1954 0.40244 0.0
C862 C 0.68911 0.19517 0.38156 0.0
C863 C 0.67199 0.1848 0.37268 0.0
O864 O 0.66492 0.17429 0.33923 0.0
O865 O 0.65399 0.16333 0.3503 0.0
O866 O 0.6658 0.17523 0.37351 0.0
O867 O 0.67658 0.18629 0.3624 0.0
H868 H 0.64747 0.18911 0.35093 0.0
H869 H 0.63071 0.20076 0.34541 0.0
H870 H 0.62283 0.17694 0.31781 0.0
H871 H 0.63941 0.1653 0.32353 0.0
H872 H 0.6811 0.12752 0.32565 0.0
H873 H 0.67564 0.14429 0.33717 0.0
H874 H 0.71107 0.12274 0.3476 0.0
H875 H 0.70541 0.13929 0.35913 0.0
H876 H 0.7028 0.2046 0.38992 0.0
H877 H 0.67971 0.18517 0.41216 0.0
H878 H 0.6685 0.179 0.39534 0.0
H879 H 0.69177 0.19821 0.37311 0.0
C880 C 0.33277 0.1453 0.35528 0.0
C881 C 0.33873 0.14107 0.3457 0.0
C882 C 0.3246 0.12533 0.34375 0.0
C883 C 0.33468 0.13117 0.33998 0.0
C884 C 0.31869 0.12966 0.35337 0.0
C885 C 0.32274 0.13953 0.35906 0.0
U886 U 0.35346 0.17124 0.3594 0.0
O887 O 0.34943 0.18909 0.36416 0.0
O888 O 0.36048 0.17867 0.37546 0.0
C889 C 0.35489 0.18839 0.37412 0.0
C890 C 0.33674 0.15575 0.36139 0.0
C891 C 0.34839 0.19236 0.38424 0.0
C892 C 0.33341 0.1896 0.39873 0.0
C893 C 0.33953 0.18559 0.38916 0.0
C894 C 0.34496 0.20718 0.39854 0.0
C895 C 0.33604 0.20047 0.40354 0.0
C896 C 0.35106 0.20316 0.38899 0.0
C897 C 0.37871 0.17582 0.33803 0.0
C898 C 0.39278 0.19162 0.33877 0.0
C899 C 0.3934 0.17782 0.32318 0.0
C900 C 0.38391 0.17191 0.3279 0.0
C901 C 0.39792 0.1878 0.32849 0.0
C902 C 0.38322 0.18569 0.34349 0.0
C903 C 0.36853 0.16953 0.34255 0.0
O904 O 0.34672 0.15499 0.36683 0.0
O905 O 0.33559 0.1655 0.3557 0.0
O906 O 0.35856 0.17476 0.34142 0.0
O907 O 0.36982 0.16449 0.35267 0.0
H908 H 0.3465 0.14542 0.34266 0.0
H909 H 0.33951 0.12803 0.33268 0.0
H910 H 0.3108 0.12554 0.35641 0.0
H911 H 0.31799 0.14271 0.3664 0.0
H912 H 0.3267 0.18414 0.40241 0.0
H913 H 0.33735 0.17722 0.3856 0.0
H914 H 0.3471 0.21565 0.40185 0.0
H915 H 0.35784 0.20853 0.38528 0.0
H916 H 0.39596 0.19933 0.34303 0.0
H917 H 0.39724 0.17452 0.31538 0.0
H918 H 0.38057 0.16428 0.32359 0.0
H919 H 0.3793 0.18885 0.35131 0.0
C920 C 0.35085 0.87907 0.33457 0.0
C921 C 0.34107 0.88336 0.34016 0.0
C922 C 0.33901 0.89826 0.3253 0.0
C923 C 0.33521 0.89289 0.33558 0.0
C924 C 0.3489 0.89395 0.31984 0.0
C925 C 0.35474 0.88447 0.32443 0.0
U926 U 0.35526 0.85408 0.35618 0.0
O927 O 0.36037 0.8362 0.35282 0.0
O928 O 0.3715 0.84736 0.36347 0.0
C929 C 0.37027 0.83732 0.35837 0.0
C930 C 0.35706 0.86893 0.339 0.0
C931 C 0.38054 0.83297 0.35237 0.0
C932 C 0.39428 0.8335 0.3365 0.0
C933 C 0.38463 0.83804 0.34211 0.0
C934 C 0.39586 0.81886 0.3514 0.0
C935 C 0.39998 0.82378 0.34104 0.0
C936 C 0.38626 0.8234 0.35699 0.0
C937 C 0.33417 0.84973 0.38156 0.0
C938 C 0.33592 0.83464 0.39615 0.0
C939 C 0.31979 0.84774 0.39672 0.0
C940 C 0.32399 0.85338 0.38686 0.0
C941 C 0.32569 0.8383 0.40153 0.0
C942 C 0.34013 0.84031 0.38626 0.0
C943 C 0.33835 0.85587 0.37117 0.0
O944 O 0.36244 0.87024 0.34895 0.0
O945 O 0.35151 0.85901 0.33817 0.0
O946 O 0.33731 0.85024 0.3614 0.0
O947 O 0.34834 0.86133 0.37222 0.0
H948 H 0.33792 0.87928 0.34801 0.0
H949 H 0.32756 0.8959 0.33995 0.0
H950 H 0.3522 0.89795 0.31202 0.0
H951 H 0.3623 0.88131 0.32001 0.0
H952 H 0.39714 0.83745 0.3285 0.0
H953 H 0.3803 0.84543 0.33841 0.0
H954 H 0.40012 0.81151 0.35527 0.0
H955 H 0.38325 0.8194 0.36492 0.0
H956 H 0.34076 0.82748 0.39966 0.0
H957 H 0.31179 0.85068 0.40047 0.0
H958 H 0.31925 0.8606 0.38333 0.0
H959 H 0.34802 0.83737 0.38228 0.0
C960 C 0.67758 0.64533 0.19494 0.0
C961 C 0.68772 0.64234 0.1891 0.0
C962 C 0.69067 0.62619 0.20241 0.0
C963 C 0.6942 0.63284 0.19279 0.0
C964 C 0.68043 0.62921 0.20813 0.0
C965 C 0.67398 0.63867 0.20443 0.0
U966 U 0.67074 0.67117 0.17504 0.0
O967 O 0.65379 0.6773 0.16894 0.0
O968 O 0.6648 0.68847 0.1797 0.0
C969 C 0.65469 0.68706 0.17461 0.0
C970 C 0.67066 0.65535 0.19142 0.0
C971 C 0.6445 0.69033 0.1814 0.0
C972 C 0.63247 0.68879 0.19855 0.0
C973 C 0.64212 0.68532 0.19221 0.0
C974 C 0.62744 0.70221 0.1833 0.0
C975 C 0.625 0.6973 0.19418 0.0
C976 C 0.63708 0.69876 0.177 0.0
C977 C 0.69007 0.67806 0.14883 0.0
C978 C 0.68721 0.6944 0.13588 0.0
C979 C 0.70293 0.68124 0.13253 0.0
C980 C 0.69959 0.67478 0.14222 0.0
C981 C 0.69681 0.69115 0.12922 0.0
C982 C 0.68387 0.6879 0.1456 0.0
C983 C 0.68686 0.67115 0.15907 0.0
O984 O 0.67575 0.66549 0.19252 0.0
O985 O 0.66482 0.65429 0.18171 0.0
O986 O 0.67715 0.66517 0.15826 0.0
O987 O 0.68814 0.6763 0.16909 0.0
H988 H 0.69064 0.64739 0.18175 0.0
H989 H 0.70209 0.63084 0.18825 0.0
H990 H 0.67732 0.6242 0.21543 0.0
H991 H 0.66615 0.64081 0.20902 0.0
H992 H 0.6308 0.68473 0.20684 0.0
H993 H 0.64774 0.67876 0.19574 0.0
H994 H 0.62202 0.7089 0.17972 0.0
H995 H 0.6388 0.70276 0.16869 0.0
H996 H 0.68222 0.7019 0.13354 0.0
H997 H 0.71046 0.67858 0.12776 0.0
H998 H 0.70451 0.66723 0.14461 0.0
H999 H 0.67647 0.69055 0.15059 0.0
C1000 C 0.33387 0.67477 0.14665 0.0
C1001 C 0.33998 0.68412 0.1418 0.0
C1002 C 0.32506 0.68625 0.12694 0.0
C1003 C 0.33562 0.68982 0.13203 0.0
C1004 C 0.319 0.67687 0.1319 0.0
C1005 C 0.32337 0.67119 0.14164 0.0
U1006 U 0.35533 0.67088 0.17182 0.0
O1007 O 0.35186 0.66576 0.18982 0.0
O1008 O 0.3627 0.65493 0.17894 0.0
C1009 C 0.35734 0.65596 0.18887 0.0
C1010 C 0.3382 0.66865 0.15694 0.0
C1011 C 0.35094 0.64567 0.19292 0.0
C1012 C 0.33605 0.6309 0.19027 0.0
C1013 C 0.34216 0.64059 0.18617 0.0
C1014 C 0.34746 0.63128 0.20788 0.0
C1015 C 0.33859 0.62614 0.2012 0.0
C1016 C 0.35356 0.64094 0.20376 0.0
C1017 C 0.38055 0.69207 0.17639 0.0
C1018 C 0.39501 0.68944 0.19148 0.0
C1019 C 0.39507 0.70699 0.18003 0.0
C1020 C 0.38546 0.70288 0.17381 0.0
C1021 C 0.39996 0.70034 0.18897 0.0
C1022 C 0.38539 0.68535 0.18525 0.0
C1023 C 0.37031 0.68803 0.1699 0.0
O1024 O 0.3482 0.66351 0.15578 0.0
O1025 O 0.33728 0.67418 0.16676 0.0
O1026 O 0.36039 0.68889 0.17531 0.0
O1027 O 0.37141 0.67815 0.16452 0.0
H1028 H 0.34812 0.687 0.14557 0.0
H1029 H 0.34057 0.69694 0.12839 0.0
H1030 H 0.31076 0.674 0.12837 0.0
H1031 H 0.3185 0.66402 0.14531 0.0
H1032 H 0.32938 0.62711 0.18483 0.0
H1033 H 0.34001 0.64414 0.17776 0.0
H1034 H 0.34953 0.62798 0.2164 0.0
H1035 H 0.36028 0.64479 0.20911 0.0
H1036 H 0.39862 0.68402 0.1982 0.0
H1037 H 0.3985 0.71548 0.17798 0.0
H1038 H 0.3818 0.70821 0.16703 0.0
H1039 H 0.3817 0.67697 0.18737 0.0
C1040 C 0.33531 0.34898 0.14896 0.0
C1041 C 0.3415 0.33911 0.14599 0.0
C1042 C 0.32856 0.33575 0.12955 0.0
C1043 C 0.33815 0.33254 0.13638 0.0
C1044 C 0.32246 0.3457 0.13258 0.0
C1045 C 0.32581 0.35224 0.14218 0.0
U1046 U 0.35475 0.35578 0.17514 0.0
O1047 O 0.36086 0.3726 0.18169 0.0
O1048 O 0.34994 0.36141 0.19256 0.0
C1049 C 0.3551 0.37152 0.19141 0.0
C1050 C 0.33854 0.35594 0.15911 0.0
C1051 C 0.34831 0.38158 0.19488 0.0
C1052 C 0.33108 0.39341 0.19369 0.0
C1053 C 0.33746 0.38393 0.18995 0.0
C1054 C 0.34641 0.39833 0.20721 0.0
C1055 C 0.33545 0.40069 0.20245 0.0
C1056 C 0.35275 0.38888 0.20347 0.0
C1057 C 0.38084 0.3365 0.18187 0.0
C1058 C 0.39361 0.33908 0.19847 0.0
C1059 C 0.39705 0.32367 0.18494 0.0
C1060 C 0.38745 0.32709 0.17843 0.0
C1061 C 0.40027 0.32959 0.19506 0.0
C1062 C 0.38398 0.3425 0.19192 0.0
C1063 C 0.37067 0.33978 0.17492 0.0
O1064 O 0.33727 0.35081 0.16919 0.0
O1065 O 0.34827 0.36187 0.15829 0.0
O1066 O 0.3716 0.34954 0.16917 0.0
O1067 O 0.36057 0.3384 0.17996 0.0
H1068 H 0.34889 0.33648 0.15112 0.0
H1069 H 0.34312 0.32501 0.13424 0.0
H1070 H 0.31493 0.34834 0.12767 0.0
H1071 H 0.3209 0.35981 0.14437 0.0
H1072 H 0.32264 0.39489 0.1899 0.0
H1073 H 0.33389 0.37838 0.1833 0.0
H1074 H 0.35015 0.40384 0.2138 0.0
H1075 H 0.36113 0.38724 0.20734 0.0
H1076 H 0.39589 0.34391 0.20614 0.0
H1077 H 0.40183 0.31623 0.18214 0.0
H1078 H 0.38512 0.32233 0.17072 0.0
H1079 H 0.37899 0.34981 0.1947 0.0
C1080 C 0.64623 0.33283 0.17739 0.0
C1081 C 0.64201 0.33823 0.1873 0.0
C1082 C 0.62694 0.32338 0.18923 0.0
C1083 C 0.63242 0.33356 0.19316 0.0
C1084 C 0.63116 0.31813 0.17919 0.0
C1085 C 0.6407 0.32281 0.17335 0.0
U1086 U 0.67146 0.35448 0.17336 0.0
O1087 O 0.6895 0.35118 0.16844 0.0
O1088 O 0.67858 0.36193 0.15733 0.0
C1089 C 0.68856 0.35674 0.15857 0.0
C1090 C 0.65651 0.33731 0.17125 0.0
C1091 C 0.69282 0.35064 0.14833 0.0
C1092 C 0.69088 0.33571 0.13374 0.0
C1093 C 0.6866 0.34137 0.14347 0.0
C1094 C 0.70762 0.3485 0.13368 0.0
C1095 C 0.70145 0.33922 0.1287 0.0
C1096 C 0.70334 0.35414 0.14338 0.0
C1097 C 0.67532 0.37951 0.19495 0.0
C1098 C 0.69155 0.39311 0.19519 0.0
C1099 C 0.67607 0.39493 0.20906 0.0
C1100 C 0.67043 0.38535 0.20425 0.0
C1101 C 0.68676 0.39888 0.20468 0.0
C1102 C 0.68588 0.38348 0.19038 0.0
C1103 C 0.66932 0.3692 0.19039 0.0
O1104 O 0.65532 0.34729 0.16597 0.0
O1105 O 0.66639 0.33644 0.17684 0.0
O1106 O 0.67493 0.35945 0.19137 0.0
O1107 O 0.66413 0.37042 0.18034 0.0
H1108 H 0.6462 0.34598 0.19056 0.0
H1109 H 0.62947 0.33777 0.20091 0.0
H1110 H 0.62706 0.3104 0.17581 0.0
H1111 H 0.64382 0.31854 0.16569 0.0
H1112 H 0.68584 0.32868 0.13008 0.0
H1113 H 0.67845 0.33854 0.14718 0.0
H1114 H 0.71587 0.35132 0.1302 0.0
H1115 H 0.70828 0.36124 0.14706 0.0
H1116 H 0.69981 0.39585 0.19166 0.0
H1117 H 0.67203 0.39926 0.21621 0.0
H1118 H 0.66226 0.38244 0.20786 0.0
H1119 H 0.68979 0.37906 0.18319 0.0
C1120 C 0.64373 0.33536 0.85262 0.0
C1121 C 0.64087 0.34144 0.84251 0.0
C1122 C 0.62449 0.32837 0.83908 0.0
C1123 C 0.63134 0.33797 0.83579 0.0
C1124 C 0.62738 0.32239 0.84928 0.0
C1125 C 0.63691 0.32586 0.85598 0.0
U1126 U 0.66984 0.35501 0.85895 0.0
O1127 O 0.67651 0.36149 0.87557 0.0
O1128 O 0.68737 0.35057 0.86481 0.0
C1129 C 0.6862 0.35575 0.8748 0.0
C1130 C 0.65385 0.33869 0.85967 0.0
C1131 C 0.68937 0.34886 0.88502 0.0
C1132 C 0.68644 0.33227 0.89765 0.0
C1133 C 0.68311 0.33885 0.88804 0.0
C1134 C 0.70222 0.34572 0.90138 0.0
C1135 C 0.69607 0.3356 0.90442 0.0
C1136 C 0.6989 0.35227 0.89177 0.0
C1137 C 0.67641 0.38051 0.83858 0.0
C1138 C 0.69322 0.39321 0.84055 0.0
C1139 C 0.67936 0.3964 0.82512 0.0
C1140 C 0.6728 0.38694 0.82897 0.0
C1141 C 0.6897 0.39963 0.83081 0.0
C1142 C 0.68663 0.38372 0.8444 0.0
C1143 C 0.66944 0.37044 0.84225 0.0
O1144 O 0.66396 0.33742 0.85471 0.0
O1145 O 0.65302 0.34849 0.86523 0.0
O1146 O 0.66376 0.37157 0.85197 0.0
O1147 O 0.67449 0.36041 0.84131 0.0
H1148 H 0.64605 0.34882 0.83981 0.0
H1149 H 0.6293 0.34285 0.82806 0.0
H1150 H 0.62243 0.31487 0.85199 0.0
H1151 H 0.63902 0.32104 0.86374 0.0
H1152 H 0.68143 0.32461 0.89981 0.0
H1153 H 0.6757 0.33611 0.88293 0.0
H1154 H 0.70978 0.34845 0.90627 0.0
H1155 H 0.70385 0.35996 0.88954 0.0
H1156 H 0.70118 0.39538 0.84507 0.0
H1157 H 0.67629 0.40125 0.81772 0.0
H1158 H 0.66491 0.38461 0.8244 0.0
H1159 H 0.68954 0.37882 0.85184 0.0
C1160 C 0.64666 0.67444 0.83529 0.0
C1161 C 0.64197 0.6833 0.84194 0.0
C1162 C 0.62724 0.68671 0.82712 0.0
C1163 C 0.63232 0.68937 0.8379 0.0
C1164 C 0.63202 0.6778 0.82055 0.0
C1165 C 0.64162 0.67175 0.8246 0.0
U1166 U 0.67232 0.66861 0.85593 0.0
O1167 O 0.67866 0.65195 0.86243 0.0
O1168 O 0.68988 0.66292 0.85167 0.0
C1169 C 0.68847 0.65286 0.85679 0.0
C1170 C 0.65678 0.66787 0.83926 0.0
C1171 C 0.69166 0.64276 0.84989 0.0
C1172 C 0.6888 0.63024 0.83331 0.0
C1173 C 0.68549 0.63977 0.83985 0.0
C1174 C 0.7044 0.62657 0.84683 0.0
C1175 C 0.69832 0.62352 0.8367 0.0
C1176 C 0.7011 0.63608 0.85334 0.0
C1177 C 0.67843 0.68867 0.88175 0.0
C1178 C 0.69476 0.68676 0.89497 0.0
C1179 C 0.68097 0.70204 0.89768 0.0
C1180 C 0.67471 0.6982 0.88803 0.0
C1181 C 0.69112 0.69643 0.90125 0.0
C1182 C 0.68848 0.68293 0.88529 0.0
C1183 C 0.67175 0.68502 0.8715 0.0
O1184 O 0.66687 0.67312 0.83824 0.0
O1185 O 0.6556 0.66229 0.84911 0.0
O1186 O 0.66595 0.67524 0.87248 0.0
O1187 O 0.67707 0.68614 0.86154 0.0
H1188 H 0.64578 0.68552 0.85021 0.0
H1189 H 0.62894 0.69625 0.84312 0.0
H1190 H 0.62825 0.67539 0.81231 0.0
H1191 H 0.6451 0.66491 0.81937 0.0
H1192 H 0.68384 0.62809 0.82564 0.0
H1193 H 0.67815 0.64482 0.83707 0.0
H1194 H 0.71188 0.62173 0.84962 0.0
H1195 H 0.70598 0.63829 0.86105 0.0
H1196 H 0.70259 0.6823 0.8974 0.0
H1197 H 0.67778 0.70937 0.90239 0.0
H1198 H 0.66695 0.70271 0.88546 0.0
H1199 H 0.69149 0.67555 0.88052 0.0
C1200 C 0.33301 0.6463 0.85414 0.0
C1201 C 0.33976 0.6418 0.84525 0.0
C1202 C 0.32518 0.62676 0.84168 0.0
C1203 C 0.33589 0.63211 0.83908 0.0
C1204 C 0.31849 0.63135 0.85064 0.0
C1205 C 0.32237 0.64101 0.85679 0.0
U1206 U 0.35374 0.67191 0.85967 0.0
O1207 O 0.3498 0.68972 0.86458 0.0
O1208 O 0.36023 0.67893 0.87614 0.0
C1209 C 0.35503 0.68884 0.87465 0.0
C1210 C 0.3368 0.65656 0.86068 0.0
C1211 C 0.34863 0.69325 0.88463 0.0
C1212 C 0.33271 0.69223 0.8983 0.0
C1213 C 0.33874 0.68759 0.88895 0.0
C1214 C 0.34648 0.70814 0.8991 0.0
C1215 C 0.33646 0.70263 0.90342 0.0
C1216 C 0.35248 0.7035 0.88981 0.0
C1217 C 0.37984 0.67739 0.84 0.0
C1218 C 0.39257 0.69414 0.84198 0.0
C1219 C 0.39626 0.68003 0.82717 0.0
C1220 C 0.3866 0.67359 0.8308 0.0
C1221 C 0.39935 0.69042 0.83267 0.0
C1222 C 0.3829 0.68768 0.84562 0.0
C1223 C 0.36953 0.67062 0.84347 0.0
O1224 O 0.34655 0.65558 0.86649 0.0
O1225 O 0.33595 0.66646 0.85519 0.0
O1226 O 0.35956 0.67577 0.84199 0.0
O1227 O 0.3703 0.66517 0.85342 0.0
H1228 H 0.34801 0.64578 0.84308 0.0
H1229 H 0.34133 0.62876 0.83233 0.0
H1230 H 0.31012 0.62761 0.85277 0.0
H1231 H 0.31701 0.6444 0.8636 0.0
H1232 H 0.32498 0.68781 0.90135 0.0
H1233 H 0.33563 0.67967 0.88503 0.0
H1234 H 0.34973 0.71605 0.90293 0.0
H1235 H 0.36013 0.70796 0.88662 0.0
H1236 H 0.39476 0.70203 0.84651 0.0
H1237 H 0.40116 0.67698 0.81987 0.0
H1238 H 0.38434 0.66569 0.82633 0.0
H1239 H 0.37779 0.69073 0.85277 0.0
C1240 C 0.35089 0.37906 0.83511 0.0
C1241 C 0.3411 0.38335 0.8407 0.0
C1242 C 0.33919 0.39838 0.82594 0.0
C1243 C 0.33531 0.39295 0.83617 0.0
C1244 C 0.34909 0.39407 0.8205 0.0
C1245 C 0.35486 0.38453 0.82504 0.0
U1246 U 0.35518 0.35394 0.85662 0.0
O1247 O 0.35995 0.33599 0.85312 0.0
O1248 O 0.37139 0.34694 0.86366 0.0
C1249 C 0.36994 0.33695 0.85852 0.0
C1250 C 0.357 0.36882 0.83946 0.0
C1251 C 0.38005 0.33249 0.85233 0.0
C1252 C 0.39449 0.33384 0.83712 0.0
C1253 C 0.38495 0.33841 0.8429 0.0
C1254 C 0.39431 0.31745 0.85017 0.0
C1255 C 0.39925 0.32326 0.84065 0.0
C1256 C 0.38482 0.32202 0.85593 0.0
C1257 C 0.3343 0.34981 0.88221 0.0
C1258 C 0.33602 0.3347 0.89678 0.0
C1259 C 0.31996 0.34789 0.89741 0.0
C1260 C 0.32416 0.35351 0.88754 0.0
C1261 C 0.32583 0.33842 0.9022 0.0
C1262 C 0.34022 0.34036 0.88688 0.0
C1263 C 0.33847 0.35592 0.8718 0.0
O1264 O 0.3625 0.37003 0.84935 0.0
O1265 O 0.35129 0.35898 0.83867 0.0
O1266 O 0.33723 0.35035 0.86202 0.0
O1267 O 0.34855 0.36122 0.87277 0.0
H1268 H 0.33789 0.37922 0.84849 0.0
H1269 H 0.32766 0.39596 0.84053 0.0
H1270 H 0.35244 0.39812 0.81273 0.0
H1271 H 0.36242 0.38137 0.82063 0.0
H1272 H 0.398 0.33849 0.82977 0.0
H1273 H 0.38135 0.3465 0.83997 0.0
H1274 H 0.39784 0.30939 0.85326 0.0
H1275 H 0.38119 0.31735 0.86322 0.0
H1276 H 0.34083 0.32752 0.90027 0.0
H1277 H 0.31199 0.35087 0.90119 0.0
H1278 H 0.31944 0.36075 0.88403 0.0
H1279 H 0.34808 0.33737 0.88287 0.0
H1280 H 0.26322 0.2634 0.97584 0.0
H1281 H 0.27338 0.27924 1.00765 0.0
H1282 H 0.25389 0.24703 1.00775 0.0
H1283 H 0.24766 0.25308 0.02458 0.0
H1284 H 0.26371 0.26307 0.05643 0.0
H1285 H 0.27966 0.27313 0.0246 0.0
C1286 C 0.26337 0.26329 0.98521 0.0
C1287 C 0.25771 0.25433 0.99116 0.0
C1288 C 0.26918 0.27215 0.99111 0.0
C1289 C 0.26923 0.27209 1.00326 0.0
C1290 C 0.26364 0.26313 1.0096 0.0
C1291 C 0.25796 0.25423 1.00331 0.0
C1292 C 0.26367 0.26309 0.02267 0.0
C1293 C 0.25481 0.25731 0.02898 0.0
C1294 C 0.25483 0.25724 0.04113 0.0
C1295 C 0.2637 0.26307 0.04706 0.0
C1296 C 0.27254 0.26891 0.04114 0.0
C1297 C 0.27254 0.26887 0.02899 0.0
H1298 H 0.76254 0.26319 0.05677 0.0
H1299 H 0.77168 0.24733 0.02485 0.0
H1300 H 0.75347 0.27974 0.02489 0.0
H1301 H 0.74644 0.27303 1.0082 0.0
H1302 H 0.7624 0.26397 0.97629 0.0
H1303 H 0.77865 0.25424 1.00814 0.0
C1304 C 0.76255 0.2633 0.04741 0.0
C1305 C 0.75722 0.27237 0.04149 0.0
C1306 C 0.76789 0.25436 0.04146 0.0
C1307 C 0.76785 0.25449 0.02931 0.0
C1308 C 0.76258 0.26355 0.02304 0.0
C1309 C 0.7573 0.27249 0.02934 0.0
C1310 C 0.76254 0.26362 1.01002 0.0
C1311 C 0.75358 0.2691 1.00375 0.0
C1312 C 0.75352 0.26924 0.99161 0.0
C1313 C 0.76242 0.26384 0.98566 0.0
C1314 C 0.77141 0.25833 0.99156 0.0
C1315 C 0.77146 0.25824 1.00371 0.0
H1316 H 0.76552 0.75849 0.975 0.0
H1317 H 0.75255 0.74551 1.00711 0.0
H1318 H 0.77469 0.77605 1.00613 0.0
H1319 H 0.77914 0.77144 0.0238 0.0
H1320 H 0.76205 0.76288 0.05541 0.0
H1321 H 0.74674 0.75198 0.02354 0.0
C1322 C 0.76511 0.75902 0.98434 0.0
C1323 C 0.77129 0.76778 0.98999 0.0
C1324 C 0.75811 0.75119 0.99044 0.0
C1325 C 0.75753 0.75202 1.00255 0.0
C1326 C 0.76354 0.7609 1.00861 0.0
C1327 C 0.77021 0.76892 1.00203 0.0
C1328 C 0.763 0.76164 0.02167 0.0
C1329 C 0.77177 0.76752 0.02806 0.0
C1330 C 0.77138 0.76806 0.04019 0.0
C1331 C 0.76228 0.76257 0.04605 0.0
C1332 C 0.75352 0.75664 0.04008 0.0
C1333 C 0.75384 0.75628 0.02794 0.0
H1334 H 0.26265 0.76315 0.05664 0.0
H1335 H 0.27079 0.74755 0.02432 0.0
H1336 H 0.2528 0.78009 0.0252 0.0
H1337 H 0.24569 0.77396 1.00834 0.0
H1338 H 0.26104 0.76483 0.97615 0.0
H1339 H 0.2775 0.75454 1.0077 0.0
C1340 C 0.26238 0.76333 0.04727 0.0
C1341 C 0.25695 0.77249 0.0416 0.0
C1342 C 0.26749 0.75443 0.04109 0.0
C1343 C 0.26713 0.75469 0.02895 0.0
C1344 C 0.26179 0.76387 0.02291 0.0
C1345 C 0.2567 0.77276 0.02945 0.0
C1346 C 0.26159 0.76416 1.00988 0.0
C1347 C 0.25268 0.76991 1.00377 0.0
C1348 C 0.25248 0.77018 0.99163 0.0
C1349 C 0.26119 0.76463 0.98552 0.0
C1350 C 0.27013 0.75889 0.99126 0.0
C1351 C 0.27033 0.7587 1.00341 0.0
H1352 H 0.0532 0.26422 0.2659 0.0
H1353 H 0.02172 0.24686 0.25643 0.0
H1354 H 0.0209 0.27889 0.27554 0.0
H1355 H 1.0045 0.27232 0.28216 0.0
H1356 H 0.97264 0.25875 0.26873 0.0
H1357 H 1.00415 0.25139 0.25118 0.0
C1358 C 0.04381 0.26389 0.26586 0.0
C1359 C 0.03765 0.27245 0.27155 0.0
C1360 C 0.03809 0.25481 0.26021 0.0
C1361 C 0.02592 0.25423 0.2604 0.0
C1362 C 0.01936 0.26278 0.26604 0.0
C1363 C 0.02548 0.27196 0.27146 0.0
C1364 C 1.00629 0.26197 0.26657 0.0
C1365 C 1.00006 0.26746 0.2755 0.0
C1366 C 0.98794 0.26641 0.27623 0.0
C1367 C 0.982 0.25956 0.26821 0.0
C1368 C 0.98783 0.25397 0.25934 0.0
C1369 C 0.99988 0.25547 0.25834 0.0
H1370 H 0.76431 0.97221 0.26675 0.0
H1371 H 0.77188 1.00366 0.24867 0.0
H1372 H 0.75313 1.00405 0.28103 0.0
H1373 H 0.746 0.02009 0.2745 0.0
H1374 H 0.75871 0.05221 0.26104 0.0
H1375 H 0.77678 0.02133 0.25316 0.0
C1376 C 0.76382 0.98153 0.2662 0.0
C1377 C 0.7579 0.98752 0.27475 0.0
C1378 C 0.76903 0.98732 0.25691 0.0
C1379 C 0.76823 0.99941 0.25617 0.0
C1380 C 0.76243 1.00579 0.26477 0.0
C1381 C 0.75737 0.9996 0.27409 0.0
C1382 C 0.76151 0.01877 0.26392 0.0
C1383 C 0.7525 0.02471 0.26956 0.0
C1384 C 0.75152 0.03676 0.26863 0.0
C1385 C 0.75936 0.04291 0.2617 0.0
C1386 C 0.7683 0.03735 0.25594 0.0
C1387 C 0.76955 0.02538 0.25733 0.0
H1388 H 0.05296 0.76246 0.26689 0.0
H1389 H 0.02087 0.75257 0.28254 0.0
H1390 H 0.02132 0.77088 0.24971 0.0
H1391 H 1.00374 0.77587 0.25416 0.0
H1392 H 0.97236 0.75793 0.26275 0.0
H1393 H 1.00432 0.74574 0.27661 0.0
C1394 C 0.04357 0.76234 0.26674 0.0
C1395 C 0.03775 0.76756 0.25752 0.0
C1396 C 0.03752 0.75678 0.27564 0.0
C1397 C 0.02534 0.7566 0.27537 0.0
C1398 C 0.01911 0.76171 0.2661 0.0
C1399 C 0.02558 0.76721 0.25718 0.0
C1400 C 1.00601 0.76096 0.26552 0.0
C1401 C 0.99954 0.7688 0.25867 0.0
C1402 C 0.98748 0.76747 0.25737 0.0
C1403 C 0.9817 0.75871 0.26348 0.0
C1404 C 0.98772 0.7511 0.27065 0.0
C1405 C 0.99984 0.75213 0.27151 0.0
H1406 H 0.26249 0.05289 0.26787 0.0
H1407 H 0.25306 0.02147 0.25079 0.0
H1408 H 0.27293 0.02072 0.28264 0.0
H1409 H 0.27938 1.00421 0.2755 0.0
H1410 H 0.26293 0.97256 0.26528 0.0
H1411 H 0.24656 1.0045 0.25713 0.0
C1412 C 0.26267 0.04356 0.26749 0.0
C1413 C 0.26857 0.03744 0.27611 0.0
C1414 C 0.25695 0.03786 0.25844 0.0
C1415 C 0.2572 0.02573 0.25803 0.0
C1416 C 0.26299 0.01924 0.26667 0.0
C1417 C 0.26868 0.02532 0.2757 0.0
C1418 C 0.26299 1.00623 0.26632 0.0
C1419 C 0.27209 0.99985 0.27147 0.0
C1420 C 0.27206 0.98772 0.27114 0.0
C1421 C 0.26294 0.98191 0.26559 0.0
C1422 C 0.25383 0.98791 0.26042 0.0
C1423 C 0.25386 1.00002 0.26084 0.0
H1424 H 0.05253 0.76255 0.76607 0.0
H1425 H 0.02066 0.74643 0.7558 0.0
H1426 H 0.0207 0.7784 0.77508 0.0
H1427 H 1.0034 0.77371 0.78005 0.0
H1428 H 0.97166 0.76252 0.76441 0.0
H1429 H 1.00358 0.75112 0.75028 0.0
C1430 C 0.04315 0.7625 0.76588 0.0
C1431 C 0.03719 0.77122 0.77154 0.0
C1432 C 0.03721 0.75371 0.75999 0.0
C1433 C 0.02502 0.7536 0.75995 0.0
C1434 C 0.01865 0.76241 0.76543 0.0
C1435 C 0.02502 0.77125 0.77112 0.0
C1436 C 1.00552 0.76241 0.76519 0.0
C1437 C 0.99911 0.76886 0.77331 0.0
C1438 C 0.98694 0.76928 0.77276 0.0
C1439 C 0.98105 0.7625 0.76464 0.0
C1440 C 0.98703 0.75568 0.7568 0.0
C1441 C 0.9992 0.756 0.75681 0.0
H1442 H 0.25883 0.97249 0.76043 0.0
H1443 H 0.27816 1.00358 0.75451 0.0
H1444 H 0.24655 1.00387 0.77467 0.0
H1445 H 0.25274 0.01985 0.78159 0.0
H1446 H 0.26825 0.05183 0.77121 0.0
H1447 H 0.2754 0.02163 0.75174 0.0
C1448 C 0.25973 0.98175 0.76144 0.0
C1449 C 0.25185 0.98758 0.76834 0.0
C1450 C 0.26905 0.98754 0.75623 0.0
C1451 C 0.27061 0.99943 0.7582 0.0
C1452 C 0.26253 1.00577 0.76477 0.0
C1453 C 0.25312 0.99956 0.76977 0.0
C1454 C 0.26393 0.01868 0.76645 0.0
C1455 C 0.25817 0.02447 0.77552 0.0
C1456 C 0.2596 0.03641 0.77715 0.0
C1457 C 0.26715 0.04261 0.76998 0.0
C1458 C 0.27302 0.03724 0.76101 0.0
C1459 C 0.27112 0.02542 0.75904 0.0
H1460 H 0.05375 0.25995 0.76481 0.0
H1461 H 0.02175 0.25107 0.78126 0.0
H1462 H 0.02199 0.27105 0.74946 0.0
H1463 H 1.00534 0.27756 0.75594 0.0
H1464 H 0.97306 0.26204 0.7659 0.0
H1465 H 1.00459 0.24526 0.77504 0.0
C1466 C 0.04437 0.26031 0.76501 0.0
C1467 C 0.03852 0.26633 0.7563 0.0
C1468 C 0.03837 0.25468 0.7739 0.0
C1469 C 0.02621 0.25517 0.77411 0.0
C1470 C 0.01996 0.26112 0.76539 0.0
C1471 C 0.02635 0.26669 0.75649 0.0
C1472 C 1.00688 0.26141 0.76554 0.0
C1473 C 1.00075 0.27048 0.76006 0.0
C1474 C 0.98857 0.27069 0.76014 0.0
C1475 C 0.98244 0.26188 0.76581 0.0
C1476 C 0.98818 0.25281 0.77131 0.0
C1477 C 1.00034 0.25257 0.77111 0.0
H1478 H 0.76219 0.0539 0.76782 0.0
H1479 H 0.75321 0.02219 0.75104 0.0
H1480 H 0.77294 0.02202 0.78298 0.0
H1481 H 0.7798 1.00563 0.77594 0.0
H1482 H 0.76386 0.97358 0.7662 0.0
H1483 H 0.74697 1.00511 0.75753 0.0
C1484 C 0.76247 0.04456 0.76755 0.0
C1485 C 0.7684 0.03861 0.77626 0.0
C1486 C 0.75687 0.0387 0.75854 0.0
C1487 C 0.75727 0.02658 0.75825 0.0
C1488 C 0.76312 0.02026 0.76697 0.0
C1489 C 0.76867 0.02649 0.77597 0.0
C1490 C 0.76336 1.00725 0.76674 0.0
C1491 C 0.77258 1.0011 0.77197 0.0
C1492 C 0.77275 0.98898 0.77179 0.0
C1493 C 0.76373 0.98293 0.76635 0.0
C1494 C 0.75452 0.98871 0.76112 0.0
C1495 C 0.75434 1.00082 0.76132 0.0
H1496 H 0.26303 0.76309 0.47502 0.0
H1497 H 0.25359 0.74681 0.50695 0.0
H1498 H 0.27315 0.77898 0.50682 0.0
H1499 H 0.27938 0.77288 0.5238 0.0
H1500 H 0.26323 0.76306 0.5556 0.0
H1501 H 0.24729 0.75298 0.52373 0.0
C1502 C 0.26317 0.76299 0.48439 0.0
C1503 C 0.26897 0.77185 0.49028 0.0
C1504 C 0.25748 0.75405 0.49034 0.0
C1505 C 0.25769 0.75398 0.5025 0.0
C1506 C 0.26337 0.76289 0.50878 0.0
C1507 C 0.26899 0.77182 0.50243 0.0
C1508 C 0.26335 0.76291 0.52185 0.0
C1509 C 0.27222 0.76867 0.52818 0.0
C1510 C 0.27216 0.76878 0.54033 0.0
C1511 C 0.26327 0.76301 0.54623 0.0
C1512 C 0.2544 0.7572 0.5403 0.0
C1513 C 0.25443 0.7572 0.52815 0.0
H1514 H 0.76188 0.76202 0.55712 0.0
H1515 H 0.77093 0.74635 0.52507 0.0
H1516 H 0.75261 0.7787 0.52536 0.0
H1517 H 0.74565 0.77217 0.50859 0.0
H1518 H 0.76161 0.7633 0.47663 0.0
H1519 H 0.77784 0.75333 0.50841 0.0
C1520 C 0.76184 0.76217 0.54775 0.0
C1521 C 0.75644 0.77124 0.54191 0.0
C1522 C 0.7672 0.75329 0.54173 0.0
C1523 C 0.76709 0.75348 0.52959 0.0
C1524 C 0.76178 0.76255 0.52338 0.0
C1525 C 0.75648 0.77143 0.52975 0.0
C1526 C 0.76174 0.76272 0.51036 0.0
C1527 C 0.75278 0.76825 0.50412 0.0
C1528 C 0.75273 0.76849 0.49198 0.0
C1529 C 0.76163 0.7631 0.486 0.0
C1530 C 0.7706 0.75754 0.49186 0.0
C1531 C 0.77065 0.75737 0.50401 0.0
H1532 H 0.76246 0.26315 0.47534 0.0
H1533 H 0.75314 0.24687 0.5073 0.0
H1534 H 0.77276 0.27902 0.5071 0.0
H1535 H 0.77912 0.27284 0.52403 0.0
H1536 H 0.76323 0.26289 0.55593 0.0
H1537 H 0.74699 0.25301 0.52414 0.0
C1538 C 0.76264 0.26305 0.48471 0.0
C1539 C 0.76848 0.27191 0.49058 0.0
C1540 C 0.75697 0.25413 0.49069 0.0
C1541 C 0.75723 0.25405 0.50284 0.0
C1542 C 0.76297 0.26293 0.5091 0.0
C1543 C 0.76857 0.27187 0.50273 0.0
C1544 C 0.76306 0.26291 0.52217 0.0
C1545 C 0.77199 0.26863 0.52845 0.0
C1546 C 0.77204 0.26868 0.5406 0.0
C1547 C 0.76318 0.26289 0.54656 0.0
C1548 C 0.75426 0.25712 0.54067 0.0
C1549 C 0.75418 0.25719 0.52852 0.0
H1550 H 0.26295 0.2637 0.55638 0.0
H1551 H 0.25299 0.27942 0.52437 0.0
H1552 H 0.27017 0.24641 0.52476 0.0
H1553 H 0.27584 0.25144 0.50735 0.0
H1554 H 0.25794 0.25999 0.47608 0.0
H1555 H 0.24555 0.27314 0.50808 0.0
C1556 C 0.26259 0.26349 0.54702 0.0
C1557 C 0.26743 0.25422 0.54118 0.0
C1558 C 0.25721 0.27247 0.54101 0.0
C1559 C 0.25682 0.2722 0.52886 0.0
C1560 C 0.26157 0.26289 0.52265 0.0
C1561 C 0.26683 0.2539 0.52905 0.0
C1562 C 0.2608 0.26236 0.50963 0.0
C1563 C 0.26873 0.25577 0.50315 0.0
C1564 C 0.26746 0.25457 0.49112 0.0
C1565 C 0.25863 0.26052 0.48541 0.0
C1566 C 0.25095 0.26744 0.49146 0.0
C1567 C 0.25194 0.2682 0.50354 0.0
H1568 H 0.76705 0.47189 0.76908 0.0
H1569 H 0.75397 0.50359 0.78202 0.0
H1570 H 0.77648 0.50346 0.75215 0.0
H1571 H 0.78107 0.52094 0.75756 0.0
H1572 H 0.76376 0.55215 0.76578 0.0
H1573 H 0.74796 0.51993 0.77517 0.0
C1574 C 0.76663 0.48121 0.76864 0.0
C1575 C 0.77295 0.48711 0.76012 0.0
C1576 C 0.75952 0.4871 0.77631 0.0
C1577 C 0.75899 0.49918 0.77559 0.0
C1578 C 0.76508 0.50545 0.76695 0.0
C1579 C 0.77187 0.49914 0.75907 0.0
C1580 C 0.76456 0.51847 0.76637 0.0
C1581 C 0.77355 0.52506 0.76111 0.0
C1582 C 0.77322 0.53716 0.76081 0.0
C1583 C 0.76393 0.5428 0.76588 0.0
C1584 C 0.75495 0.53663 0.77122 0.0
C1585 C 0.75521 0.52451 0.77133 0.0
H1586 H 0.26495 0.5528 0.76377 0.0
H1587 H 0.25185 0.52062 0.75111 0.0
H1588 H 0.2749 0.52163 0.78083 0.0
H1589 H 0.27973 0.5043 0.77534 0.0
H1590 H 0.26258 0.47241 0.76744 0.0
H1591 H 0.24623 0.50401 0.75811 0.0
C1592 C 0.26463 0.54346 0.76429 0.0
C1593 C 0.27108 0.53784 0.77284 0.0
C1594 C 0.25747 0.53731 0.75667 0.0
C1595 C 0.25699 0.5252 0.75746 0.0
C1596 C 0.26334 0.51917 0.76606 0.0
C1597 C 0.27017 0.52577 0.77391 0.0
C1598 C 0.263 0.50613 0.76668 0.0
C1599 C 0.2722 0.49989 0.77187 0.0
C1600 C 0.272 0.48776 0.77221 0.0
C1601 C 0.26266 0.48177 0.76729 0.0
C1602 C 0.25347 0.48759 0.76207 0.0
C1603 C 0.25361 0.49972 0.76186 0.0
H1604 H 0.2637 0.47317 0.26679 0.0
H1605 H 0.25314 0.5051 0.28136 0.0
H1606 H 0.2724 0.50465 0.24931 0.0
H1607 H 0.27716 0.52229 0.25361 0.0
H1608 H 0.25942 0.55331 0.26163 0.0
H1609 H 0.24648 0.52133 0.27512 0.0
C1610 C 0.26348 0.4825 0.2664 0.0
C1611 C 0.26904 0.4883 0.25731 0.0
C1612 C 0.25753 0.48852 0.27491 0.0
C1613 C 0.25735 0.50063 0.27442 0.0
C1614 C 0.26268 0.50683 0.26524 0.0
C1615 C 0.26851 0.50041 0.2567 0.0
C1616 C 0.26193 0.51984 0.26446 0.0
C1617 C 0.27 0.52638 0.25784 0.0
C1618 C 0.26883 0.53836 0.25646 0.0
C1619 C 0.26 0.54401 0.26229 0.0
C1620 C 0.25216 0.53793 0.26927 0.0
C1621 C 0.25301 0.52587 0.27017 0.0
H1622 H 0.76553 0.55308 0.26342 0.0
H1623 H 0.75275 0.52104 0.25009 0.0
H1624 H 0.77407 0.52186 0.28106 0.0
H1625 H 0.778 0.50414 0.27707 0.0
H1626 H 0.75916 0.47298 0.27015 0.0
H1627 H 0.74641 0.50469 0.25653 0.0
C1628 C 0.76513 0.54374 0.26386 0.0
C1629 C 0.77105 0.53805 0.27275 0.0
C1630 C 0.7583 0.53767 0.25589 0.0
C1631 C 0.75763 0.52556 0.25668 0.0
C1632 C 0.76333 0.51946 0.26569 0.0
C1633 C 0.76986 0.526 0.27383 0.0
C1634 C 0.76233 0.50644 0.2667 0.0
C1635 C 0.77055 0.49999 0.27315 0.0
C1636 C 0.76918 0.48801 0.27475 0.0
C1637 C 0.75996 0.48227 0.26931 0.0
C1638 C 0.75197 0.48823 0.26249 0.0
C1639 C 0.75305 0.50027 0.26136 0.0
H1640 H 0.47175 0.26321 0.7649 0.0
H1641 H 0.50391 0.2716 0.78157 0.0
H1642 H 0.50347 0.25379 0.74874 0.0
H1643 H 0.52021 0.24682 0.75518 0.0
H1644 H 0.55244 0.26243 0.76537 0.0
H1645 H 0.52078 0.27835 0.77513 0.0
C1646 C 0.48114 0.26306 0.76499 0.0
C1647 C 0.48696 0.25775 0.75593 0.0
C1648 C 0.4872 0.26817 0.77416 0.0
C1649 C 0.49938 0.26793 0.77424 0.0
C1650 C 0.50556 0.26268 0.76515 0.0
C1651 C 0.49913 0.2576 0.75601 0.0
C1652 C 0.51863 0.26258 0.76518 0.0
C1653 C 0.52478 0.25381 0.75944 0.0
C1654 C 0.53697 0.25376 0.75946 0.0
C1655 C 0.54305 0.26247 0.7653 0.0
C1656 C 0.53726 0.27124 0.77106 0.0
C1657 C 0.52509 0.2713 0.77094 0.0
H1658 H 0.55373 0.76436 0.76925 0.0
H1659 H 0.52189 0.74733 0.77803 0.0
H1660 H 0.52198 0.77783 0.75613 0.0
H1661 H 0.50535 0.77123 0.74999 0.0
H1662 H 0.47304 0.76124 0.76514 0.0
H1663 H 0.50448 0.75265 0.78264 0.0
C1664 C 0.54435 0.76397 0.76878 0.0
C1665 C 0.53849 0.77189 0.76182 0.0
C1666 C 0.53839 0.75527 0.77482 0.0
C1667 C 0.52628 0.75437 0.77365 0.0
C1668 C 0.51998 0.76251 0.76701 0.0
C1669 C 0.52634 0.77126 0.76111 0.0
C1670 C 0.50688 0.76199 0.76639 0.0
C1671 C 0.50078 0.7672 0.7571 0.0
C1672 C 0.48861 0.76703 0.75668 0.0
C1673 C 0.48243 0.76142 0.76547 0.0
C1674 C 0.48813 0.75607 0.7747 0.0
C1675 C 0.5003 0.75644 0.77518 0.0
H1676 H 0.47273 0.75965 0.26945 0.0
H1677 H 0.50511 0.77248 0.28237 0.0
H1678 H 0.50377 0.7516 0.2514 0.0
H1679 H 0.52135 0.74675 0.25637 0.0
H1680 H 0.55324 0.7642 0.26432 0.0
H1681 H 0.52143 0.7789 0.27533 0.0
C1682 C 0.48208 0.76022 0.2688 0.0
C1683 C 0.48765 0.7545 0.25983 0.0
C1684 C 0.48832 0.76694 0.27673 0.0
C1685 C 0.50044 0.76772 0.2758 0.0
C1686 C 0.50639 0.76213 0.26675 0.0
C1687 C 0.49971 0.75574 0.25864 0.0
C1688 C 0.51945 0.76278 0.26591 0.0
C1689 C 0.52574 0.75414 0.2601 0.0
C1690 C 0.53791 0.75467 0.25941 0.0
C1691 C 0.54386 0.76381 0.26472 0.0
C1692 C 0.53796 0.77239 0.27064 0.0
C1693 C 0.52581 0.77194 0.27108 0.0
H1694 H 0.55319 0.262 0.266 0.0
H1695 H 0.52138 0.27221 0.25012 0.0
H1696 H 0.52117 0.25308 0.28244 0.0
H1697 H 0.50406 0.24681 0.27598 0.0
H1698 H 0.4725 0.2633 0.26633 0.0
H1699 H 0.50481 0.27904 0.25675 0.0
C1700 C 0.54381 0.26222 0.26611 0.0
C1701 C 0.53782 0.25678 0.27512 0.0
C1702 C 0.53794 0.26789 0.25718 0.0
C1703 C 0.52577 0.2681 0.25729 0.0
C1704 C 0.51939 0.26271 0.26631 0.0
C1705 C 0.52564 0.25706 0.27523 0.0
C1706 C 0.50632 0.26292 0.26638 0.0
C1707 C 0.4998 0.25405 0.27194 0.0
C1708 C 0.48763 0.2542 0.27195 0.0
C1709 C 0.4819 0.26322 0.26637 0.0
C1710 C 0.48803 0.27209 0.26079 0.0
C1711 C 0.50021 0.27194 0.26083 0.0
C1712 C 0.2016 0.21031 0.11994 0.0
C1713 C 0.20138 0.19819 0.11946 0.0
C1714 C 0.20593 0.21688 0.1107 0.0
C1715 C 0.21361 0.21562 0.07951 0.0
H1716 H 0.23362 0.24154 0.08727 0.0
C1717 C 0.24376 0.23915 0.0464 0.0
C1718 C 0.24583 0.251 0.04796 0.0
C1719 C 0.23696 0.23288 0.05432 0.0
C1720 C 0.2279 0.23446 0.0849 0.0
H1721 H 0.20518 0.18354 0.10862 0.0
H1722 H 0.21291 0.19498 0.09262 0.0
H1723 H 0.22448 0.23039 0.1026 0.0
H1724 H 0.24171 0.26575 0.05847 0.0
H1725 H 0.22964 0.25496 0.07206 0.0
H1726 H 0.2172 0.21966 0.06176 0.0
C1727 C 0.20967 0.19942 0.10012 0.0
C1728 C 0.22265 0.22804 0.09373 0.0
C1729 C 0.20535 0.19284 0.10937 0.0
C1730 C 0.24036 0.25659 0.05714 0.0
C1731 C 0.23353 0.25037 0.06498 0.0
C1732 C 0.21888 0.22207 0.07064 0.0
C1733 C 0.21015 0.21152 0.10071 0.0
C1734 C 0.21544 0.21851 0.09118 0.0
C1735 C 0.23205 0.23837 0.06392 0.0
C1736 C 0.2261 0.23159 0.07323 0.0
H1737 H 0.19871 0.21473 0.12758 0.0
H1738 H 0.20602 0.22618 0.11141 0.0
H1739 H 0.20802 0.20842 0.07721 0.0
H1740 H 0.24795 0.23461 0.03945 0.0
H1741 H 0.23605 0.22365 0.05324 0.0
C1742 C 0.8252 0.19624 0.10943 0.0
C1743 C 0.81834 0.19235 0.11871 0.0
C1744 C 0.82018 0.20193 0.09998 0.0
C1745 C 0.79182 0.20642 0.08539 0.0
H1746 H 0.80702 0.2333 0.07202 0.0
C1747 C 0.76782 0.23982 0.05752 0.0
C1748 C 0.77359 0.24504 0.04817 0.0
C1749 C 0.77358 0.23218 0.06486 0.0
C1750 C 0.80275 0.22569 0.07552 0.0
H1751 H 0.80086 0.19171 0.12543 0.0
H1752 H 0.79215 0.20164 0.10906 0.0
H1753 H 0.81659 0.2226 0.08747 0.0
H1754 H 0.78981 0.24605 0.03891 0.0
H1755 H 0.79995 0.23261 0.05175 0.0
H1756 H 0.77786 0.20968 0.07362 0.0
C1757 C 0.80137 0.20007 0.10893 0.0
C1758 C 0.80823 0.21956 0.0844 0.0
C1759 C 0.80637 0.19439 0.11834 0.0
C1760 C 0.78514 0.2421 0.04602 0.0
C1761 C 0.79096 0.23451 0.05344 0.0
C1762 C 0.78633 0.21257 0.07654 0.0
C1763 C 0.80818 0.20387 0.09958 0.0
C1764 C 0.80275 0.20995 0.08958 0.0
C1765 C 0.7853 0.22961 0.06306 0.0
C1766 C 0.79164 0.22239 0.07162 0.0
H1767 H 0.83443 0.19471 0.10937 0.0
H1768 H 0.82568 0.20463 0.09289 0.0
H1769 H 0.78745 0.19891 0.08899 0.0
H1770 H 0.7589 0.24188 0.05934 0.0
H1771 H 0.76898 0.22865 0.07222 0.0
C1772 C 0.82333 0.81585 0.11924 0.0
C1773 C 0.82358 0.82796 0.1185 0.0
C1774 C 0.81911 0.8092 0.11005 0.0
C1775 C 0.81194 0.81012 0.07866 0.0
H1776 H 0.79175 0.78433 0.08647 0.0
C1777 C 0.78245 0.78617 0.04524 0.0
C1778 C 0.78031 0.77435 0.04707 0.0
C1779 C 0.78911 0.79254 0.0532 0.0
C1780 C 0.79753 0.79137 0.0841 0.0
H1781 H 0.81993 0.84251 0.10726 0.0
H1782 H 0.81238 0.83093 0.09134 0.0
H1783 H 0.80062 0.79567 0.10179 0.0
H1784 H 0.78414 0.75975 0.05812 0.0
H1785 H 0.79599 0.77071 0.07177 0.0
H1786 H 0.8087 0.80585 0.06092 0.0
C1787 C 0.81552 0.82656 0.09901 0.0
C1788 C 0.80261 0.7979 0.09292 0.0
C1789 C 0.81973 0.83322 0.10821 0.0
C1790 C 0.78557 0.76888 0.05656 0.0
C1791 C 0.79226 0.77519 0.06444 0.0
C1792 C 0.80685 0.80356 0.0698 0.0
C1793 C 0.81502 0.81446 0.09985 0.0
C1794 C 0.80988 0.80738 0.09034 0.0
C1795 C 0.7938 0.78718 0.0631 0.0
C1796 C 0.79956 0.79408 0.07241 0.0
H1797 H 0.82613 0.81149 0.12704 0.0
H1798 H 0.819 0.7999 0.11096 0.0
H1799 H 0.81758 0.81729 0.07635 0.0
H1800 H 0.77841 0.79061 0.03805 0.0
H1801 H 0.79006 0.80175 0.0519 0.0
C1802 C 0.21962 0.83099 0.12017 0.0
C1803 C 0.2076 0.83277 0.12041 0.0
C1804 C 0.22467 0.82505 0.11106 0.0
C1805 C 0.22003 0.81593 0.08076 0.0
H1806 H 0.24412 0.79412 0.08819 0.0
C1807 C 0.23977 0.78425 0.04733 0.0
C1808 C 0.25153 0.7816 0.04867 0.0
C1809 C 0.23424 0.79128 0.05539 0.0
C1810 C 0.23754 0.8003 0.08591 0.0
H1811 H 0.19151 0.82975 0.11114 0.0
H1812 H 0.20034 0.81922 0.09526 0.0
H1813 H 0.23472 0.80448 0.10362 0.0
H1814 H 0.26693 0.78487 0.05893 0.0
H1815 H 0.25746 0.79731 0.07276 0.0
H1816 H 0.2229 0.8117 0.06299 0.0
C1817 C 0.20585 0.82253 0.10211 0.0
C1818 C 0.23211 0.80623 0.09479 0.0
C1819 C 0.20077 0.82845 0.11127 0.0
C1820 C 0.25782 0.78666 0.05778 0.0
C1821 C 0.25235 0.79371 0.06575 0.0
C1822 C 0.2255 0.80999 0.07183 0.0
C1823 C 0.21787 0.82071 0.10192 0.0
C1824 C 0.22335 0.81419 0.09235 0.0
C1825 C 0.24041 0.79582 0.06491 0.0
C1826 C 0.2344 0.80216 0.07429 0.0
H1827 H 0.22514 0.83407 0.1271 0.0
H1828 H 0.23397 0.82392 0.11114 0.0
H1829 H 0.21338 0.82207 0.07857 0.0
H1830 H 0.23471 0.78039 0.04043 0.0
H1831 H 0.22504 0.79268 0.05447 0.0
C1832 C 0.20443 0.8352 0.92406 0.0
C1833 C 0.2 0.8299 0.91403 0.0
C1834 C 0.20863 0.82856 0.93328 0.0
C1835 C 0.22048 0.7998 0.93956 0.0
H1836 H 0.21563 0.80801 0.97157 0.0
C1837 C 0.23765 0.77091 0.97587 0.0
C1838 C 0.24347 0.77644 0.98501 0.0
C1839 C 0.23085 0.7772 0.96814 0.0
C1840 C 0.21713 0.80565 0.96268 0.0
H1841 H 0.19644 0.8134 0.90595 0.0
H1842 H 0.20356 0.80185 0.92206 0.0
H1843 H 0.20675 0.81947 0.95618 0.0
H1844 H 0.24626 0.79275 0.99361 0.0
H1845 H 0.23444 0.80385 0.98 0.0
H1846 H 0.231 0.78614 0.94593 0.0
C1847 C 0.2039 0.81116 0.92276 0.0
C1848 C 0.21204 0.81222 0.95385 0.0
C1849 C 0.19969 0.81779 0.91356 0.0
C1850 C 0.24178 0.78828 0.98668 0.0
C1851 C 0.23503 0.79461 0.97887 0.0
C1852 C 0.22556 0.79326 0.94834 0.0
C1853 C 0.20854 0.81645 0.93269 0.0
C1854 C 0.21367 0.80937 0.94217 0.0
C1855 C 0.22978 0.7892 0.96928 0.0
C1856 C 0.22397 0.79608 0.96003 0.0
H1857 H 0.20468 0.8445 0.92479 0.0
H1858 H 0.21222 0.83294 0.94074 0.0
H1859 H 0.22213 0.79749 0.93067 0.0
H1860 H 0.23872 0.76176 0.97445 0.0
H1861 H 0.22669 0.77268 0.96105 0.0
C1862 C 0.21049 0.20177 0.91317 0.0
C1863 C 0.1984 0.20035 0.91374 0.0
C1864 C 0.21678 0.20605 0.92263 0.0
C1865 C 0.21316 0.22329 0.94915 0.0
H1866 H 0.24386 0.21223 0.95654 0.0
C1867 C 0.23975 0.24249 0.98704 0.0
C1868 C 0.2513 0.24537 0.98443 0.0
C1869 C 0.23319 0.23549 0.97957 0.0
C1870 C 0.23532 0.21546 0.95456 0.0
H1871 H 0.18352 0.20191 0.92495 0.0
H1872 H 0.19446 0.20934 0.94142 0.0
H1873 H 0.23262 0.20304 0.94116 0.0
H1874 H 0.26525 0.24253 0.97236 0.0
H1875 H 0.25385 0.23043 0.95936 0.0
H1876 H 0.21593 0.23584 0.96239 0.0
C1877 C 0.19908 0.20736 0.93357 0.0
C1878 C 0.22887 0.21019 0.94572 0.0
C1879 C 0.19279 0.20309 0.92411 0.0
C1880 C 0.25633 0.24056 0.97456 0.0
C1881 C 0.24981 0.23354 0.96714 0.0
C1882 C 0.2196 0.22855 0.95798 0.0
C1883 C 0.21114 0.209 0.93293 0.0
C1884 C 0.21777 0.21414 0.94279 0.0
C1885 C 0.23806 0.23114 0.96938 0.0
C1886 C 0.23082 0.22481 0.96072 0.0
H1887 H 0.21508 0.1999 0.90528 0.0
H1888 H 0.22603 0.20735 0.92174 0.0
H1889 H 0.20472 0.22668 0.94704 0.0
H1890 H 0.23563 0.2461 0.99455 0.0
H1891 H 0.22422 0.23368 0.98166 0.0
C1892 C 0.82685 0.20167 0.92189 0.0
C1893 C 0.83148 0.20851 0.91291 0.0
C1894 C 0.82095 0.20673 0.93109 0.0
C1895 C 0.80529 0.23325 0.93867 0.0
H1896 H 0.81005 0.22337 0.97038 0.0
C1897 C 0.78608 0.25895 0.9758 0.0
C1898 C 0.78058 0.25274 0.9847 0.0
C1899 C 0.79312 0.25337 0.96788 0.0
C1900 C 0.80855 0.22616 0.96156 0.0
H1901 H 0.83335 0.22606 0.90654 0.0
H1902 H 0.82326 0.23485 0.92255 0.0
H1903 H 0.82035 0.2138 0.95476 0.0
H1904 H 0.77858 0.23591 0.99265 0.0
H1905 H 0.79086 0.22604 0.9787 0.0
H1906 H 0.79345 0.2455 0.94534 0.0
C1907 C 0.82412 0.22556 0.92249 0.0
C1908 C 0.81444 0.22067 0.95261 0.0
C1909 C 0.83003 0.22052 0.91335 0.0
C1910 C 0.78279 0.24091 0.98592 0.0
C1911 C 0.78981 0.23527 0.9779 0.0
C1912 C 0.79941 0.2387 0.94758 0.0
C1913 C 0.81946 0.21875 0.93147 0.0
C1914 C 0.81296 0.22423 0.94105 0.0
C1915 C 0.79476 0.24139 0.96856 0.0
C1916 C 0.80103 0.23533 0.95917 0.0
H1917 H 0.82789 0.19241 0.92188 0.0
H1918 H 0.81741 0.20122 0.9378 0.0
H1919 H 0.80372 0.23605 0.92987 0.0
H1920 H 0.78461 0.2681 0.97473 0.0
H1921 H 0.79705 0.25843 0.96101 0.0
C1922 C 0.82298 0.81804 0.9121 0.0
C1923 C 0.82131 0.83 0.91123 0.0
C1924 C 0.81838 0.8117 0.92136 0.0
C1925 C 0.80625 0.81444 0.95096 0.0
H1926 H 0.79258 0.78457 0.94401 0.0
C1927 C 0.77779 0.7876 0.98333 0.0
C1928 C 0.77887 0.77556 0.98298 0.0
C1929 C 0.78374 0.79465 0.97535 0.0
C1930 C 0.79649 0.79282 0.94617 0.0
H1931 H 0.81374 0.84469 0.91973 0.0
H1932 H 0.8055 0.83361 0.93573 0.0
H1933 H 0.80137 0.79594 0.92863 0.0
H1934 H 0.78765 0.76152 0.97461 0.0
H1935 H 0.79812 0.77371 0.96093 0.0
H1936 H 0.8012 0.81128 0.96854 0.0
C1937 C 0.81046 0.82913 0.92928 0.0
C1938 C 0.80156 0.79936 0.93732 0.0
C1939 C 0.81507 0.83547 0.92001 0.0
C1940 C 0.78651 0.77077 0.97497 0.0
C1941 C 0.79245 0.77776 0.96708 0.0
C1942 C 0.80115 0.80787 0.95985 0.0
C1943 C 0.81195 0.81713 0.93003 0.0
C1944 C 0.80656 0.81023 0.93958 0.0
C1945 C 0.7909 0.78976 0.96692 0.0
C1946 C 0.79627 0.79694 0.95757 0.0
H1947 H 0.82764 0.81349 0.90548 0.0
H1948 H 0.81986 0.8025 0.92172 0.0
H1949 H 0.8101 0.82273 0.95306 0.0
H1950 H 0.77192 0.79152 0.98937 0.0
H1951 H 0.78232 0.80385 0.97547 0.0
C1952 C 0.11681 0.20252 0.21418 0.0
C1953 C 0.11594 0.20181 0.20208 0.0
C1954 C 0.10771 0.2069 0.22071 0.0
C1955 C 0.0763 0.2138 0.21969 0.0
H1956 H 0.08459 0.23484 0.24435 0.0
C1957 C 0.04325 0.2436 0.24244 0.0
C1958 C 0.04513 0.24606 0.25418 0.0
C1959 C 0.05117 0.23694 0.23631 0.0
C1960 C 0.08208 0.22884 0.23763 0.0
H1961 H 0.10454 0.2048 0.18745 0.0
H1962 H 0.08879 0.21262 0.19879 0.0
H1963 H 0.09974 0.2257 0.23335 0.0
H1964 H 0.05628 0.24276 0.26889 0.0
H1965 H 0.0699 0.23097 0.25835 0.0
H1966 H 0.0586 0.21709 0.22395 0.0
C1967 C 0.09649 0.20972 0.20325 0.0
C1968 C 0.09081 0.22359 0.23129 0.0
C1969 C 0.1056 0.20536 0.19672 0.0
C1970 C 0.05469 0.24114 0.25981 0.0
C1971 C 0.06254 0.23445 0.25373 0.0
C1972 C 0.06754 0.21906 0.22606 0.0
C1973 C 0.09747 0.21069 0.21533 0.0
C1974 C 0.08806 0.21601 0.22223 0.0
C1975 C 0.06111 0.23256 0.24182 0.0
C1976 C 0.07032 0.22666 0.23512 0.0
H1977 H 0.12465 0.19996 0.21861 0.0
H1978 H 0.10872 0.20736 0.23 0.0
H1979 H 0.07386 0.20792 0.21285 0.0
H1980 H 0.036 0.24735 0.23787 0.0
H1981 H 0.04979 0.23571 0.22714 0.0
C1982 C 0.83723 0.10647 0.21252 0.0
C1983 C 0.83181 0.11526 0.20613 0.0
C1984 C 0.83076 0.09728 0.21718 0.0
C1985 C 0.80086 0.08963 0.22592 0.0
H1986 H 0.81214 0.05829 0.22654 0.0
C1987 C 0.77151 0.05236 0.2407 0.0
C1988 C 0.7762 0.04435 0.24852 0.0
C1989 C 0.77866 0.06016 0.2348 0.0
C1990 C 0.80892 0.06701 0.22651 0.0
H1991 H 0.81526 0.12115 0.19959 0.0
H1992 H 0.80406 0.10505 0.20745 0.0
H1993 H 0.82388 0.07362 0.21764 0.0
H1994 H 0.79211 0.03785 0.25587 0.0
H1995 H 0.80472 0.05159 0.24554 0.0
H1996 H 0.78597 0.08312 0.23479 0.0
C1997 C 0.81331 0.10533 0.209 0.0
C1998 C 0.81565 0.0758 0.22142 0.0
C1999 C 0.81977 0.1145 0.20436 0.0
C2000 C 0.78828 0.0439 0.24985 0.0
C2001 C 0.79548 0.05178 0.24395 0.0
C2002 C 0.79416 0.08088 0.23097 0.0
C2003 C 0.81869 0.09666 0.21558 0.0
C2004 C 0.81166 0.08722 0.22101 0.0
C2005 C 0.7907 0.06021 0.2366 0.0
C2006 C 0.79805 0.06944 0.23127 0.0
H2007 H 0.84651 0.10668 0.21393 0.0
H2008 H 0.83519 0.09082 0.22226 0.0
H2009 H 0.79763 0.09835 0.22602 0.0
H2010 H 0.76223 0.05277 0.23935 0.0
H2011 H 0.77471 0.06633 0.22899 0.0
C2012 C 0.9114 0.80963 0.19817 0.0
C2013 C 0.90894 0.82141 0.19933 0.0
C2014 C 0.92042 0.80462 0.20444 0.0
C2015 C 0.94756 0.81106 0.22037 0.0
H2016 H 0.94202 0.78059 0.23326 0.0
C2017 C 0.98006 0.78681 0.25081 0.0
C2018 C 0.9806 0.77481 0.24941 0.0
C2019 C 0.97197 0.79328 0.24448 0.0
C2020 C 0.94379 0.78904 0.22961 0.0
H2021 H 0.91417 0.83716 0.208 0.0
H2022 H 0.9299 0.82835 0.21909 0.0
H2023 H 0.92653 0.79034 0.22304 0.0
H2024 H 0.97377 0.76028 0.23978 0.0
H2025 H 0.95997 0.77149 0.22859 0.0
H2026 H 0.96491 0.80967 0.22699 0.0
C2027 C 0.92486 0.82303 0.21323 0.0
C2028 C 0.93488 0.79465 0.22375 0.0
C2029 C 0.91577 0.82805 0.20696 0.0
C2030 C 0.97344 0.76951 0.24111 0.0
C2031 C 0.96546 0.77593 0.23478 0.0
C2032 C 0.95654 0.80541 0.22626 0.0
C2033 C 0.92724 0.81123 0.21209 0.0
C2034 C 0.93667 0.80566 0.2189 0.0
C2035 C 0.96434 0.78783 0.23663 0.0
C2036 C 0.9548 0.79424 0.23079 0.0
H2037 H 0.90625 0.8042 0.19249 0.0
H2038 H 0.92208 0.79555 0.20323 0.0
H2039 H 0.94926 0.81952 0.2167 0.0
H2040 H 0.98545 0.79108 0.25721 0.0
H2041 H 0.97135 0.80243 0.24613 0.0
C2042 C 0.18611 0.91936 0.21362 0.0
C2043 C 0.19244 0.91061 0.20827 0.0
C2044 C 0.19175 0.92891 0.21853 0.0
C2045 C 0.21958 0.94533 0.21887 0.0
H2046 H 0.20943 0.95497 0.24914 0.0
C2047 C 0.24151 0.98359 0.24294 0.0
C2048 C 0.24447 0.98125 0.2545 0.0
C2049 C 0.23402 0.97614 0.23687 0.0
C2050 C 0.21237 0.95241 0.24068 0.0
H2051 H 0.20975 0.9052 0.20381 0.0
H2052 H 0.21957 0.92187 0.21231 0.0
H2053 H 0.19899 0.93955 0.23916 0.0
H2054 H 0.24143 0.96966 0.26894 0.0
H2055 H 0.22837 0.95675 0.25845 0.0
H2056 H 0.23317 0.95797 0.22057 0.0
C2057 C 0.21021 0.92139 0.21261 0.0
C2058 C 0.20632 0.94362 0.2349 0.0
C2059 C 0.20456 0.91182 0.20772 0.0
C2060 C 0.23934 0.97166 0.26002 0.0
C2061 C 0.2318 0.9643 0.25402 0.0
C2062 C 0.2256 0.95417 0.22463 0.0
C2063 C 0.20388 0.93 0.21819 0.0
C2064 C 0.20993 0.93985 0.22399 0.0
C2065 C 0.22924 0.96628 0.24229 0.0
C2066 C 0.22217 0.9577 0.23568 0.0
H2067 H 0.17675 0.91885 0.21401 0.0
H2068 H 0.18658 0.93546 0.22258 0.0
H2069 H 0.22252 0.94274 0.21042 0.0
H2070 H 0.24539 0.99088 0.23845 0.0
H2071 H 0.23213 0.97799 0.22789 0.0
C2072 C 0.1143 0.82315 0.82127 0.0
C2073 C 0.11345 0.82416 0.83333 0.0
C2074 C 0.10494 0.81896 0.81474 0.0
C2075 C 0.07825 0.80124 0.81744 0.0
H2076 H 0.07163 0.81337 0.78687 0.0
C2077 C 0.04093 0.78252 0.78967 0.0
C2078 C 0.04388 0.78002 0.7782 0.0
C2079 C 0.04825 0.78942 0.7965 0.0
C2080 C 0.07339 0.80986 0.79538 0.0
H2081 H 0.10193 0.8219 0.84792 0.0
H2082 H 0.08562 0.81461 0.83653 0.0
H2083 H 0.08676 0.82241 0.79865 0.0
H2084 H 0.0564 0.7834 0.76468 0.0
H2085 H 0.06917 0.79533 0.77657 0.0
H2086 H 0.06504 0.78857 0.81411 0.0
C2087 C 0.09359 0.81687 0.83214 0.0
C2088 C 0.08208 0.81502 0.80212 0.0
C2089 C 0.10295 0.82105 0.83867 0.0
C2090 C 0.05395 0.78508 0.77353 0.0
C2091 C 0.06123 0.792 0.78032 0.0
C2092 C 0.06956 0.79609 0.8107 0.0
C2093 C 0.09449 0.81568 0.82009 0.0
C2094 C 0.08474 0.81068 0.81318 0.0
C2095 C 0.05863 0.79403 0.79198 0.0
C2096 C 0.06712 0.80023 0.79952 0.0
H2097 H 0.12231 0.82531 0.81689 0.0
H2098 H 0.10603 0.81799 0.80551 0.0
H2099 H 0.08016 0.79756 0.82584 0.0
H2100 H 0.03325 0.77871 0.79353 0.0
H2101 H 0.0459 0.79095 0.8054 0.0
C2102 C 0.21905 0.1129 0.83569 0.0
C2103 C 0.20706 0.11471 0.83481 0.0
C2104 C 0.22422 0.10376 0.82995 0.0
C2105 C 0.21822 0.07544 0.81645 0.0
H2106 H 0.24776 0.08131 0.80166 0.0
C2107 C 0.24094 0.04279 0.786 0.0
C2108 C 0.2531 0.0428 0.78606 0.0
C2109 C 0.23489 0.05072 0.79272 0.0
C2110 C 0.2396 0.07943 0.8059 0.0
H2111 H 0.19111 0.1082 0.82718 0.0
H2112 H 0.2002 0.09226 0.817 0.0
H2113 H 0.23802 0.0969 0.81139 0.0
H2114 H 0.26844 0.05047 0.7938 0.0
H2115 H 0.25796 0.06399 0.80576 0.0
H2116 H 0.21986 0.05791 0.81089 0.0
C2117 C 0.20557 0.0979 0.82225 0.0
C2118 C 0.23399 0.08842 0.81146 0.0
C2119 C 0.20038 0.10711 0.82798 0.0
C2120 C 0.25906 0.05033 0.79353 0.0
C2121 C 0.25304 0.05816 0.80029 0.0
C2122 C 0.22388 0.0664 0.81088 0.0
C2123 C 0.21757 0.09614 0.82313 0.0
C2124 C 0.22327 0.08654 0.81689 0.0
C2125 C 0.24089 0.05877 0.79966 0.0
C2126 C 0.2347 0.06826 0.80562 0.0
H2127 H 0.2245 0.11864 0.84075 0.0
H2128 H 0.23347 0.10261 0.83093 0.0
H2129 H 0.21002 0.07366 0.82062 0.0
H2130 H 0.23615 0.03715 0.78022 0.0
H2131 H 0.22554 0.05094 0.79198 0.0
C2132 C 0.90883 0.19572 0.8109 0.0
C2133 C 0.90838 0.19379 0.82289 0.0
C2134 C 0.91845 0.20113 0.80585 0.0
C2135 C 0.94381 0.21996 0.81234 0.0
H2136 H 0.95419 0.20932 0.7825 0.0
C2137 C 0.98319 0.24094 0.78892 0.0
C2138 C 0.98118 0.24372 0.77726 0.0
C2139 C 0.97544 0.2337 0.79493 0.0
C2140 C 0.95138 0.21243 0.79082 0.0
H2141 H 0.91779 0.19612 0.83898 0.0
H2142 H 0.93462 0.20557 0.83016 0.0
H2143 H 0.93835 0.19922 0.79223 0.0
H2144 H 0.96987 0.24062 0.76259 0.0
H2145 H 0.95644 0.22801 0.77298 0.0
H2146 H 0.95678 0.23326 0.81083 0.0
C2147 C 0.92744 0.20298 0.82467 0.0
C2148 C 0.94227 0.20666 0.79639 0.0
C2149 C 0.91778 0.19757 0.82973 0.0
C2150 C 0.97161 0.23866 0.77159 0.0
C2151 C 0.96395 0.23138 0.77754 0.0
C2152 C 0.95296 0.22572 0.80677 0.0
C2153 C 0.92793 0.20477 0.81264 0.0
C2154 C 0.9382 0.21047 0.80713 0.0
C2155 C 0.96561 0.22899 0.78935 0.0
C2156 C 0.95673 0.22215 0.79584 0.0
H2157 H 0.90166 0.19315 0.80538 0.0
H2158 H 0.91837 0.20259 0.79661 0.0
H2159 H 0.94086 0.22321 0.82055 0.0
H2160 H 0.99045 0.24477 0.79351 0.0
H2161 H 0.97704 0.23194 0.80399 0.0
C2162 C 0.82778 0.91764 0.82773 0.0
C2163 C 0.8326 0.90906 0.82076 0.0
C2164 C 0.82198 0.92701 0.82276 0.0
C2165 C 0.80698 0.93577 0.79582 0.0
H2166 H 0.81133 0.96692 0.80718 0.0
C2167 C 0.78786 0.97382 0.77092 0.0
C2168 C 0.78215 0.98225 0.77732 0.0
C2169 C 0.79496 0.96579 0.7764 0.0
C2170 C 0.80994 0.95826 0.80397 0.0
H2171 H 0.83491 0.90359 0.80304 0.0
H2172 H 0.825 0.91991 0.79442 0.0
H2173 H 0.82147 0.95096 0.81656 0.0
H2174 H 0.77981 0.98925 0.79441 0.0
H2175 H 0.79219 0.9751 0.80411 0.0
H2176 H 0.79541 0.94292 0.78333 0.0
C2177 C 0.82562 0.91939 0.80374 0.0
C2178 C 0.81575 0.94911 0.80935 0.0
C2179 C 0.83144 0.91008 0.8087 0.0
C2180 C 0.78421 0.9829 0.78927 0.0
C2181 C 0.79128 0.97477 0.79481 0.0
C2182 C 0.80119 0.94487 0.79047 0.0
C2183 C 0.82079 0.92797 0.81069 0.0
C2184 C 0.8144 0.93775 0.80528 0.0
C2185 C 0.79643 0.96588 0.78847 0.0
C2186 C 0.80266 0.95627 0.79438 0.0
H2187 H 0.82859 0.91718 0.83705 0.0
H2188 H 0.81829 0.9334 0.82837 0.0
H2189 H 0.80552 0.92712 0.7926 0.0
H2190 H 0.78646 0.97317 0.76168 0.0
H2191 H 0.79903 0.95928 0.77119 0.0
C2192 C 0.19746 0.11349 0.21917 0.0
C2193 C 0.19729 0.11618 0.2073 0.0
C2194 C 0.20368 0.10406 0.22335 0.0
C2195 C 0.22767 0.08456 0.21616 0.0
H2196 H 0.21485 0.06619 0.24121 0.0
C2197 C 0.25541 0.05498 0.24517 0.0
C2198 C 0.25046 0.0448 0.24974 0.0
C2199 C 0.24882 0.06252 0.23845 0.0
C2200 C 0.21852 0.0711 0.23411 0.0
H2201 H 0.20359 0.11096 0.19054 0.0
H2202 H 0.21448 0.09452 0.19785 0.0
H2203 H 0.20345 0.08156 0.23264 0.0
H2204 H 0.23485 0.03428 0.25031 0.0
H2205 H 0.22333 0.04739 0.2384 0.0
H2206 H 0.24275 0.07408 0.21764 0.0
C2207 C 0.20986 0.09979 0.20394 0.0
C2208 C 0.21202 0.08005 0.22929 0.0
C2209 C 0.20362 0.10923 0.19974 0.0
C2210 C 0.23892 0.04203 0.24689 0.0
C2211 C 0.23229 0.04962 0.24018 0.0
C2212 C 0.23418 0.07562 0.22099 0.0
C2213 C 0.20993 0.09704 0.2158 0.0
C2214 C 0.21658 0.08702 0.22037 0.0
C2215 C 0.23708 0.0601 0.2361 0.0
C2216 C 0.22976 0.06887 0.23015 0.0
H2217 H 0.19291 0.11876 0.22529 0.0
H2218 H 0.20373 0.10239 0.23256 0.0
H2219 H 0.23149 0.08978 0.20935 0.0
H2220 H 0.26432 0.05731 0.24712 0.0
H2221 H 0.25281 0.07052 0.23555 0.0
C2222 C 0.1923 0.91009 0.80941 0.0
C2223 C 0.192 0.90926 0.82152 0.0
C2224 C 0.19819 0.91919 0.80396 0.0
C2225 C 0.20977 0.9487 0.80849 0.0
H2226 H 0.228 0.94179 0.78145 0.0
C2227 C 0.24146 0.98152 0.78643 0.0
C2228 C 0.24269 0.98081 0.77439 0.0
C2229 C 0.23441 0.97357 0.79238 0.0
C2230 C 0.22281 0.94393 0.78888 0.0
H2231 H 0.19764 0.91744 0.83741 0.0
H2232 H 0.20808 0.9333 0.82786 0.0
H2233 H 0.21785 0.9263 0.79154 0.0
H2234 H 0.23683 0.97183 0.75904 0.0
H2235 H 0.22434 0.95818 0.76932 0.0
H2236 H 0.2148 0.96638 0.80579 0.0
C2237 C 0.20365 0.92693 0.82259 0.0
C2238 C 0.217 0.93502 0.79469 0.0
C2239 C 0.19778 0.91777 0.82806 0.0
C2240 C 0.23615 0.97249 0.76835 0.0
C2241 C 0.22907 0.96461 0.77426 0.0
C2242 C 0.21558 0.95766 0.80264 0.0
C2243 C 0.20395 0.92772 0.81046 0.0
C2244 C 0.21035 0.93728 0.80453 0.0
C2245 C 0.22841 0.96479 0.78639 0.0
C2246 C 0.22211 0.95539 0.7927 0.0
H2247 H 0.18807 0.90362 0.80409 0.0
H2248 H 0.19813 0.91958 0.79461 0.0
H2249 H 0.20463 0.95076 0.81598 0.0
H2250 H 0.24647 0.98779 0.79131 0.0
H2251 H 0.23414 0.97394 0.80172 0.0
C2252 C 0.11657 0.20765 0.82575 0.0
C2253 C 0.11645 0.19552 0.8261 0.0
C2254 C 0.10705 0.21371 0.82147 0.0
C2255 C 0.08104 0.21016 0.80276 0.0
H2256 H 0.07253 0.23943 0.81604 0.0
C2257 C 0.04253 0.23635 0.78479 0.0
C2258 C 0.04506 0.24805 0.78266 0.0
C2259 C 0.05007 0.22965 0.79149 0.0
C2260 C 0.07482 0.23128 0.81221 0.0
H2261 H 0.10607 0.1803 0.82218 0.0
H2262 H 0.08939 0.19085 0.81501 0.0
H2263 H 0.08803 0.22827 0.82487 0.0
H2264 H 0.05705 0.26206 0.78642 0.0
H2265 H 0.07013 0.25044 0.79811 0.0
H2266 H 0.0679 0.21324 0.79003 0.0
C2267 C 0.09692 0.1957 0.81791 0.0
C2268 C 0.08374 0.22489 0.81725 0.0
C2269 C 0.10646 0.18964 0.82217 0.0
C2270 C 0.05491 0.25305 0.78788 0.0
C2271 C 0.06237 0.24639 0.79464 0.0
C2272 C 0.07209 0.21653 0.79775 0.0
C2273 C 0.0971 0.20783 0.81743 0.0
C2274 C 0.0871 0.21431 0.8125 0.0
C2275 C 0.06022 0.23454 0.79629 0.0
C2276 C 0.06897 0.22726 0.80231 0.0
H2277 H 0.12403 0.2125 0.82882 0.0
H2278 H 0.10759 0.22303 0.82112 0.0
H2279 H 0.08347 0.20215 0.79874 0.0
H2280 H 0.03504 0.23226 0.78081 0.0
H2281 H 0.04809 0.22057 0.7927 0.0
C2282 C 0.81445 0.10716 0.84408 0.0
C2283 C 0.81951 0.11636 0.83783 0.0
C2284 C 0.80969 0.0976 0.83836 0.0
C2285 C 0.80936 0.08221 0.81029 0.0
H2286 H 0.77957 0.07059 0.8208 0.0
C2287 C 0.78611 0.04357 0.7881 0.0
C2288 C 0.77436 0.04532 0.78552 0.0
C2289 C 0.79209 0.05108 0.79557 0.0
C2290 C 0.78789 0.07372 0.81776 0.0
H2291 H 0.82355 0.12259 0.8206 0.0
H2292 H 0.81527 0.10592 0.81065 0.0
H2293 H 0.78926 0.08614 0.83131 0.0
H2294 H 0.75952 0.05588 0.78921 0.0
H2295 H 0.76987 0.06891 0.80219 0.0
H2296 H 0.80779 0.07003 0.79651 0.0
C2297 C 0.81512 0.10604 0.82 0.0
C2298 C 0.79351 0.08257 0.82385 0.0
C2299 C 0.81987 0.11561 0.82571 0.0
C2300 C 0.76859 0.05436 0.79099 0.0
C2301 C 0.77452 0.06178 0.79849 0.0
C2302 C 0.80376 0.07332 0.80422 0.0
C2303 C 0.80986 0.09695 0.82624 0.0
C2304 C 0.80424 0.08705 0.82011 0.0
C2305 C 0.7864 0.0604 0.80069 0.0
C2306 C 0.79287 0.06908 0.80778 0.0
H2307 H 0.81421 0.10731 0.85342 0.0
H2308 H 0.80589 0.09068 0.84346 0.0
H2309 H 0.81767 0.08535 0.80725 0.0
H2310 H 0.79079 0.03671 0.78396 0.0
H2311 H 0.80121 0.04969 0.79718 0.0
C2312 C 0.91012 0.80768 0.83158 0.0
C2313 C 0.90931 0.81962 0.83345 0.0
C2314 C 0.91961 0.80312 0.8258 0.0
C2315 C 0.94321 0.8111 0.80563 0.0
H2316 H 0.95545 0.7815 0.81504 0.0
C2317 C 0.97125 0.78363 0.77572 0.0
C2318 C 0.98011 0.77685 0.78045 0.0
C2319 C 0.9639 0.78984 0.78283 0.0
C2320 C 0.95226 0.78985 0.81238 0.0
H2321 H 0.91801 0.83609 0.83078 0.0
H2322 H 0.93459 0.82813 0.8207 0.0
H2323 H 0.94019 0.79029 0.82634 0.0
H2324 H 0.98848 0.77164 0.79639 0.0
H2325 H 0.97564 0.78264 0.80891 0.0
H2326 H 0.9553 0.81067 0.79169 0.0
C2327 C 0.92778 0.8223 0.82358 0.0
C2328 C 0.94338 0.79483 0.81877 0.0
C2329 C 0.91826 0.82687 0.82936 0.0
C2330 C 0.98175 0.7768 0.79249 0.0
C2331 C 0.97432 0.78301 0.79965 0.0
C2332 C 0.95208 0.80612 0.79923 0.0
C2333 C 0.9286 0.81035 0.82174 0.0
C2334 C 0.9386 0.80543 0.81538 0.0
C2335 C 0.96518 0.78948 0.7949 0.0
C2336 C 0.9566 0.79534 0.8024 0.0
H2337 H 0.9033 0.80184 0.83441 0.0
H2338 H 0.91979 0.79391 0.82434 0.0
H2339 H 0.93972 0.81923 0.8027 0.0
H2340 H 0.96984 0.78393 0.76646 0.0
H2341 H 0.95692 0.7946 0.77884 0.0
C2342 C 0.82171 0.91665 0.19827 0.0
C2343 C 0.82828 0.90977 0.20584 0.0
C2344 C 0.8155 0.92606 0.20242 0.0
C2345 C 0.81378 0.94586 0.2275 0.0
H2346 H 0.78266 0.95138 0.21628 0.0
C2347 C 0.78677 0.98349 0.24505 0.0
C2348 C 0.77538 0.9805 0.24817 0.0
C2349 C 0.79334 0.97602 0.23831 0.0
C2350 C 0.79134 0.94997 0.21951 0.0
H2351 H 0.83314 0.90728 0.2238 0.0
H2352 H 0.82239 0.9236 0.23098 0.0
H2353 H 0.7939 0.93582 0.20803 0.0
H2354 H 0.76169 0.96773 0.24602 0.0
H2355 H 0.77309 0.95472 0.23439 0.0
H2356 H 0.81108 0.95971 0.23927 0.0
C2357 C 0.82222 0.9219 0.2218 0.0
C2358 C 0.79784 0.9411 0.21469 0.0
C2359 C 0.82839 0.91251 0.21766 0.0
C2360 C 0.77049 0.97022 0.24385 0.0
C2361 C 0.77701 0.9628 0.23709 0.0
C2362 C 0.8073 0.95473 0.23229 0.0
C2363 C 0.81571 0.92884 0.21424 0.0
C2364 C 0.80908 0.9388 0.21876 0.0
C2365 C 0.78862 0.96544 0.23447 0.0
C2366 C 0.79592 0.95679 0.2285 0.0
H2367 H 0.82152 0.91489 0.1891 0.0
H2368 H 0.81068 0.93127 0.19633 0.0
H2369 H 0.82247 0.94446 0.23073 0.0
H2370 H 0.79079 0.99134 0.24827 0.0
H2371 H 0.8022 0.97841 0.23631 0.0
C2372 C 0.10819 0.82465 0.20096 0.0
C2373 C 0.1172 0.8179 0.19661 0.0
C2374 C 0.09892 0.81951 0.20694 0.0
C2375 C 0.09113 0.79308 0.22335 0.0
H2376 H 0.0594 0.80238 0.21805 0.0
C2377 C 0.05369 0.76703 0.24305 0.0
C2378 C 0.04474 0.77317 0.24826 0.0
C2379 C 0.0617 0.77265 0.23592 0.0
C2380 C 0.06822 0.79975 0.2197 0.0
H2381 H 0.12354 0.80044 0.19532 0.0
H2382 H 0.10739 0.79151 0.20556 0.0
H2383 H 0.07516 0.81206 0.20757 0.0
H2384 H 0.03679 0.78988 0.24966 0.0
H2385 H 0.05092 0.79982 0.23722 0.0
H2386 H 0.08432 0.78088 0.23551 0.0
C2387 C 0.10749 0.80079 0.20442 0.0
C2388 C 0.07726 0.80531 0.21371 0.0
C2389 C 0.11671 0.8059 0.19842 0.0
C2390 C 0.04357 0.78494 0.24568 0.0
C2391 C 0.05168 0.79062 0.23857 0.0
C2392 C 0.08214 0.78756 0.22933 0.0
C2393 C 0.09848 0.80751 0.20879 0.0
C2394 C 0.08882 0.80196 0.21538 0.0
C2395 C 0.06106 0.78459 0.23389 0.0
C2396 C 0.07055 0.79072 0.22752 0.0
H2397 H 0.10825 0.8339 0.19964 0.0
H2398 H 0.09218 0.82496 0.21026 0.0
H2399 H 0.09993 0.79044 0.22506 0.0
H2400 H 0.05472 0.75791 0.24482 0.0
H2401 H 0.0686 0.76765 0.23222 0.0
C2402 C 0.91886 0.21081 0.19038 0.0
C2403 C 0.91014 0.20415 0.19578 0.0
C2404 C 0.92808 0.21546 0.19681 0.0
C2405 C 0.93584 0.22361 0.22673 0.0
H2406 H 0.96725 0.22509 0.2151 0.0
C2407 C 0.97313 0.2384 0.25592 0.0
C2408 C 0.98103 0.2465 0.25135 0.0
C2409 C 0.9654 0.23249 0.24872 0.0
C2410 C 0.95851 0.22482 0.21841 0.0
H2411 H 0.90441 0.1971 0.21221 0.0
H2412 H 0.92058 0.20494 0.22333 0.0
H2413 H 0.9519 0.2162 0.20337 0.0
H2414 H 0.98745 0.25435 0.23559 0.0
H2415 H 0.97381 0.24401 0.22289 0.0
H2416 H 0.94234 0.23223 0.24171 0.0
C2417 C 0.92022 0.20672 0.21414 0.0
C2418 C 0.9497 0.21973 0.2117 0.0
C2419 C 0.911 0.20208 0.20773 0.0
C2420 C 0.98147 0.24811 0.23932 0.0
C2421 C 0.97366 0.2422 0.23208 0.0
C2422 C 0.9446 0.22865 0.23341 0.0
C2423 C 0.92881 0.21358 0.2088 0.0
C2424 C 0.93826 0.21901 0.21581 0.0
C2425 C 0.9653 0.23456 0.23675 0.0
C2426 C 0.95607 0.22926 0.2294 0.0
H2427 H 0.91856 0.21245 0.18117 0.0
H2428 H 0.93449 0.22076 0.19242 0.0
H2429 H 0.9271 0.22347 0.23006 0.0
H2430 H 0.97272 0.23686 0.26515 0.0
H2431 H 0.9593 0.22645 0.25259 0.0
C2432 C 0.20471 0.69349 0.60889 0.0
C2433 C 0.20075 0.69888 0.61896 0.0
C2434 C 0.20899 0.70001 0.5996 0.0
C2435 C 0.22192 0.7286 0.59302 0.0
H2436 H 0.21656 0.71994 0.56112 0.0
C2437 C 0.23983 0.75676 0.55621 0.0
C2438 C 0.24533 0.75106 0.54712 0.0
C2439 C 0.23294 0.75064 0.56408 0.0
C2440 C 0.21821 0.72243 0.56998 0.0
H2441 H 0.19804 0.71547 0.62699 0.0
H2442 H 0.20529 0.72684 0.61072 0.0
H2443 H 0.20733 0.70884 0.57664 0.0
H2444 H 0.24744 0.73458 0.5388 0.0
H2445 H 0.23546 0.72379 0.55264 0.0
H2446 H 0.23292 0.74204 0.58646 0.0
C2447 C 0.20522 0.71753 0.61007 0.0
C2448 C 0.21292 0.71606 0.57889 0.0
C2449 C 0.20093 0.711 0.61936 0.0
C2450 C 0.24323 0.7392 0.54567 0.0
C2451 C 0.23638 0.73303 0.55362 0.0
C2452 C 0.2272 0.73494 0.58414 0.0
C2453 C 0.20945 0.71212 0.60012 0.0
C2454 C 0.21473 0.71906 0.59054 0.0
C2455 C 0.23144 0.73863 0.56314 0.0
C2456 C 0.22544 0.73196 0.57249 0.0
H2457 H 0.20456 0.68418 0.6082 0.0
H2458 H 0.21224 0.69553 0.59213 0.0
H2459 H 0.22373 0.73103 0.60187 0.0
H2460 H 0.2412 0.76593 0.55746 0.0
H2461 H 0.22903 0.75531 0.5711 0.0
C2462 C 0.81994 0.70318 0.61685 0.0
C2463 C 0.81918 0.6911 0.61783 0.0
C2464 C 0.81497 0.70891 0.60742 0.0
C2465 C 0.7922 0.70541 0.58522 0.0
H2466 H 0.80705 0.73222 0.57131 0.0
C2467 C 0.76748 0.7388 0.55787 0.0
C2468 C 0.77304 0.74399 0.54836 0.0
C2469 C 0.7734 0.73117 0.5651 0.0
C2470 C 0.80284 0.72466 0.57499 0.0
H2471 H 0.81291 0.67558 0.60936 0.0
H2472 H 0.8042 0.68558 0.59297 0.0
H2473 H 0.81719 0.72133 0.58628 0.0
H2474 H 0.78904 0.74492 0.53872 0.0
H2475 H 0.79943 0.7315 0.55135 0.0
H2476 H 0.77783 0.70876 0.57399 0.0
C2477 C 0.8085 0.69063 0.5996 0.0
C2478 C 0.8086 0.7185 0.58368 0.0
C2479 C 0.81348 0.6849 0.60901 0.0
C2480 C 0.78452 0.74101 0.54596 0.0
C2481 C 0.7905 0.73342 0.55325 0.0
C2482 C 0.78643 0.71159 0.57658 0.0
C2483 C 0.8091 0.70272 0.59872 0.0
C2484 C 0.80329 0.70888 0.589 0.0
C2485 C 0.78506 0.72858 0.56303 0.0
C2486 C 0.79161 0.72138 0.57145 0.0
H2487 H 0.82411 0.70825 0.62354 0.0
H2488 H 0.81546 0.71824 0.60712 0.0
H2489 H 0.78781 0.6981 0.58919 0.0
H2490 H 0.7586 0.74087 0.55989 0.0
H2491 H 0.76897 0.72768 0.57258 0.0
C2492 C 0.82497 0.31578 0.61942 0.0
C2493 C 0.82509 0.32789 0.6188 0.0
C2494 C 0.82071 0.30917 0.61021 0.0
C2495 C 0.81311 0.31038 0.57891 0.0
H2496 H 0.79326 0.28432 0.58671 0.0
C2497 C 0.78311 0.28677 0.54574 0.0
C2498 C 0.78108 0.27491 0.5474 0.0
C2499 C 0.7899 0.29304 0.55365 0.0
C2500 C 0.79894 0.29144 0.58433 0.0
H2501 H 0.82119 0.34251 0.60774 0.0
H2502 H 0.81357 0.33101 0.59179 0.0
H2503 H 0.80229 0.29552 0.60203 0.0
H2504 H 0.78528 0.26015 0.55809 0.0
H2505 H 0.79734 0.27095 0.57167 0.0
H2506 H 0.8096 0.30632 0.56117 0.0
C2507 C 0.81684 0.3266 0.59938 0.0
C2508 C 0.80412 0.29789 0.59316 0.0
C2509 C 0.82109 0.33321 0.6086 0.0
C2510 C 0.7866 0.26931 0.55667 0.0
C2511 C 0.79343 0.27553 0.56451 0.0
C2512 C 0.80792 0.3039 0.57005 0.0
C2513 C 0.81647 0.3145 0.60011 0.0
C2514 C 0.81126 0.30746 0.59059 0.0
C2515 C 0.79485 0.28755 0.56335 0.0
C2516 C 0.80075 0.29434 0.57265 0.0
H2517 H 0.82789 0.31137 0.62715 0.0
H2518 H 0.8207 0.29987 0.61103 0.0
H2519 H 0.81866 0.31762 0.57661 0.0
H2520 H 0.77888 0.2913 0.53872 0.0
H2521 H 0.79076 0.30228 0.55249 0.0
C2522 C 0.22019 0.33096 0.61894 0.0
C2523 C 0.2082 0.33283 0.61948 0.0
C2524 C 0.22505 0.32547 0.60943 0.0
C2525 C 0.21784 0.3063 0.58482 0.0
H2526 H 0.24789 0.31663 0.57376 0.0
C2527 C 0.24007 0.28469 0.54586 0.0
C2528 C 0.25172 0.28184 0.54771 0.0
C2529 C 0.23441 0.2921 0.55345 0.0
C2530 C 0.23951 0.31361 0.57676 0.0
H2531 H 0.19194 0.33038 0.61033 0.0
H2532 H 0.20043 0.32081 0.59372 0.0
H2533 H 0.2386 0.32696 0.58938 0.0
H2534 H 0.26675 0.28502 0.55856 0.0
H2535 H 0.25696 0.29793 0.57172 0.0
H2536 H 0.21885 0.29286 0.57226 0.0
C2537 C 0.20606 0.32348 0.60074 0.0
C2538 C 0.23419 0.31951 0.58575 0.0
C2539 C 0.20119 0.32897 0.61028 0.0
C2540 C 0.25775 0.28702 0.55694 0.0
C2541 C 0.25214 0.29448 0.56445 0.0
C2542 C 0.22316 0.30041 0.57579 0.0
C2543 C 0.21808 0.3217 0.60016 0.0
C2544 C 0.22337 0.31583 0.59005 0.0
C2545 C 0.24033 0.29691 0.56297 0.0
C2546 C 0.23415 0.30387 0.57177 0.0
H2547 H 0.22585 0.3336 0.62596 0.0
H2548 H 0.2343 0.32403 0.60945 0.0
H2549 H 0.20957 0.30314 0.58795 0.0
H2550 H 0.23519 0.28076 0.53887 0.0
H2551 H 0.22534 0.2939 0.55198 0.0
C2552 C 0.19898 0.3167 0.4138 0.0
C2553 C 0.20014 0.32878 0.41409 0.0
C2554 C 0.20293 0.30993 0.42301 0.0
C2555 C 0.21194 0.31095 0.45389 0.0
H2556 H 0.22887 0.28351 0.44598 0.0
C2557 C 0.24137 0.28607 0.48618 0.0
C2558 C 0.24219 0.27408 0.48485 0.0
C2559 C 0.23473 0.2926 0.47843 0.0
C2560 C 0.224 0.29103 0.44839 0.0
H2561 H 0.20601 0.3432 0.42455 0.0
H2562 H 0.21311 0.33137 0.44049 0.0
H2563 H 0.22028 0.29511 0.43074 0.0
H2564 H 0.23599 0.25941 0.47501 0.0
H2565 H 0.22423 0.2707 0.46169 0.0
H2566 H 0.21586 0.30691 0.47157 0.0
C2567 C 0.20906 0.32713 0.43317 0.0
C2568 C 0.21907 0.2977 0.43962 0.0
C2569 C 0.20512 0.33391 0.42395 0.0
C2570 C 0.23563 0.26866 0.47614 0.0
C2571 C 0.22896 0.27515 0.46846 0.0
C2572 C 0.21689 0.30426 0.46269 0.0
C2573 C 0.20814 0.31504 0.43276 0.0
C2574 C 0.21301 0.30777 0.44223 0.0
C2575 C 0.22874 0.28724 0.46925 0.0
C2576 C 0.22301 0.29421 0.46004 0.0
H2577 H 0.19528 0.31244 0.40633 0.0
H2578 H 0.20194 0.30065 0.42246 0.0
H2579 H 0.20722 0.31859 0.45622 0.0
H2580 H 0.2464 0.29048 0.49277 0.0
H2581 H 0.23481 0.30189 0.47928 0.0
C2582 C 0.19815 0.71366 0.41454 0.0
C2583 C 0.19785 0.70179 0.41209 0.0
C2584 C 0.20438 0.7179 0.42402 0.0
C2585 C 0.22819 0.71086 0.44426 0.0
H2586 H 0.21549 0.73606 0.4618 0.0
C2587 C 0.256 0.74034 0.47369 0.0
C2588 C 0.25104 0.7451 0.48361 0.0
C2589 C 0.24941 0.73343 0.46622 0.0
C2590 C 0.21912 0.72891 0.45713 0.0
H2591 H 0.20396 0.68509 0.41778 0.0
H2592 H 0.21489 0.6925 0.43434 0.0
H2593 H 0.20408 0.72732 0.44635 0.0
H2594 H 0.2354 0.74581 0.4938 0.0
H2595 H 0.22389 0.73355 0.48085 0.0
H2596 H 0.24324 0.71247 0.45507 0.0
C2597 C 0.21035 0.69854 0.42884 0.0
C2598 C 0.21263 0.724 0.44814 0.0
C2599 C 0.20409 0.69429 0.41932 0.0
C2600 C 0.23949 0.74224 0.48625 0.0
C2601 C 0.23286 0.73533 0.47874 0.0
C2602 C 0.2347 0.71579 0.45326 0.0
C2603 C 0.21052 0.7104 0.43135 0.0
C2604 C 0.21715 0.71504 0.44145 0.0
C2605 C 0.23766 0.73108 0.46847 0.0
C2606 C 0.23032 0.725 0.4597 0.0
H2607 H 0.19366 0.71973 0.40903 0.0
H2608 H 0.20453 0.7271 0.42551 0.0
H2609 H 0.23198 0.70402 0.43927 0.0
H2610 H 0.26492 0.74229 0.47147 0.0
H2611 H 0.25341 0.7304 0.45839 0.0
C2612 C 0.82596 0.70099 0.42201 0.0
C2613 C 0.8306 0.70784 0.41305 0.0
C2614 C 0.82006 0.70605 0.43122 0.0
C2615 C 0.80444 0.73258 0.43887 0.0
H2616 H 0.8092 0.72261 0.47055 0.0
C2617 C 0.78526 0.75819 0.47607 0.0
C2618 C 0.77976 0.75196 0.48497 0.0
C2619 C 0.79228 0.75264 0.46813 0.0
C2620 C 0.80769 0.72542 0.46174 0.0
H2621 H 0.8325 0.7254 0.40671 0.0
H2622 H 0.82241 0.73417 0.42274 0.0
H2623 H 0.81948 0.71307 0.45491 0.0
H2624 H 0.77776 0.73511 0.49288 0.0
H2625 H 0.79002 0.72528 0.47889 0.0
H2626 H 0.79263 0.74483 0.44556 0.0
C2627 C 0.82325 0.72488 0.42266 0.0
C2628 C 0.81358 0.71995 0.45277 0.0
C2629 C 0.82917 0.71985 0.41351 0.0
C2630 C 0.78197 0.74013 0.48615 0.0
C2631 C 0.78898 0.73451 0.47811 0.0
C2632 C 0.79857 0.73801 0.44779 0.0
C2633 C 0.81859 0.71806 0.43163 0.0
C2634 C 0.8121 0.72354 0.44122 0.0
C2635 C 0.79393 0.74065 0.46878 0.0
C2636 C 0.80019 0.73461 0.45937 0.0
H2637 H 0.82698 0.69173 0.42199 0.0
H2638 H 0.8165 0.70052 0.43793 0.0
H2639 H 0.80288 0.73541 0.43007 0.0
H2640 H 0.78379 0.76735 0.47503 0.0
H2641 H 0.79621 0.75771 0.46127 0.0
C2642 C 0.80735 0.33013 0.412 0.0
C2643 C 0.8194 0.33186 0.41126 0.0
C2644 C 0.80243 0.32458 0.42159 0.0
C2645 C 0.80917 0.30506 0.44613 0.0
H2646 H 0.77985 0.31598 0.45766 0.0
C2647 C 0.78627 0.2836 0.48547 0.0
C2648 C 0.77446 0.28108 0.48373 0.0
C2649 C 0.79227 0.2909 0.47778 0.0
C2650 C 0.78802 0.31279 0.45453 0.0
H2651 H 0.83572 0.32902 0.42008 0.0
H2652 H 0.82713 0.31933 0.43684 0.0
H2653 H 0.7894 0.32625 0.44189 0.0
H2654 H 0.75953 0.28471 0.47298 0.0
H2655 H 0.76988 0.29744 0.45967 0.0
H2656 H 0.80768 0.29151 0.45872 0.0
C2657 C 0.82149 0.32218 0.42993 0.0
C2658 C 0.79349 0.31866 0.44545 0.0
C2659 C 0.82642 0.32774 0.42031 0.0
C2660 C 0.76865 0.28646 0.47451 0.0
C2661 C 0.77458 0.29381 0.46691 0.0
C2662 C 0.8037 0.29919 0.45525 0.0
C2663 C 0.80941 0.3206 0.43073 0.0
C2664 C 0.80404 0.31477 0.44097 0.0
C2665 C 0.78652 0.29594 0.46828 0.0
C2666 C 0.79295 0.30287 0.45944 0.0
H2667 H 0.80168 0.33296 0.4051 0.0
H2668 H 0.79313 0.32329 0.42174 0.0
H2669 H 0.81722 0.30174 0.44286 0.0
H2670 H 0.79098 0.27951 0.49246 0.0
H2671 H 0.80143 0.29245 0.47915 0.0
C2672 C 0.10415 0.70379 0.69579 0.0
C2673 C 0.11462 0.70107 0.70137 0.0
C2674 C 0.09476 0.70796 0.70203 0.0
C2675 C 0.08292 0.71048 0.73174 0.0
H2676 H 0.06612 0.73616 0.71856 0.0
C2677 C 0.05388 0.74006 0.75881 0.0
C2678 C 0.044 0.74493 0.75367 0.0
C2679 C 0.06135 0.73325 0.75239 0.0
C2680 C 0.07056 0.72886 0.7223 0.0
H2681 H 0.12332 0.70052 0.718 0.0
H2682 H 0.10697 0.70778 0.72889 0.0
H2683 H 0.08142 0.72722 0.7075 0.0
H2684 H 0.03395 0.74595 0.73787 0.0
H2685 H 0.04691 0.73386 0.72665 0.0
H2686 H 0.07216 0.71226 0.74662 0.0
C2687 C 0.10596 0.70656 0.71968 0.0
C2688 C 0.07937 0.72373 0.71595 0.0
C2689 C 0.11536 0.70238 0.71342 0.0
C2690 C 0.04145 0.7423 0.7421 0.0
C2691 C 0.04897 0.73549 0.73564 0.0
C2692 C 0.07409 0.71561 0.73809 0.0
C2693 C 0.09557 0.70952 0.71405 0.0
C2694 C 0.08577 0.71456 0.72062 0.0
C2695 C 0.05916 0.7311 0.74063 0.0
C2696 C 0.06788 0.72496 0.73351 0.0
H2697 H 0.10318 0.70269 0.68655 0.0
H2698 H 0.08684 0.70995 0.69743 0.0
H2699 H 0.08751 0.70331 0.73554 0.0
H2700 H 0.05602 0.74183 0.76775 0.0
H2701 H 0.06913 0.73011 0.75654 0.0
C2702 C 0.83214 0.61623 0.72202 0.0
C2703 C 0.83388 0.61644 0.71001 0.0
C2704 C 0.82625 0.60703 0.72729 0.0
C2705 C 0.81726 0.57657 0.72332 0.0
H2706 H 0.79515 0.58371 0.74721 0.0
C2707 C 0.78523 0.54284 0.74361 0.0
C2708 C 0.78249 0.54423 0.75531 0.0
C2709 C 0.79239 0.55093 0.73796 0.0
C2710 C 0.80142 0.58152 0.74068 0.0
H2711 H 0.83089 0.607 0.69415 0.0
H2712 H 0.82045 0.59094 0.70335 0.0
H2713 H 0.80555 0.59926 0.73749 0.0
H2714 H 0.78573 0.55458 0.77051 0.0
H2715 H 0.79843 0.56846 0.76082 0.0
H2716 H 0.81306 0.55877 0.72655 0.0
C2717 C 0.82374 0.5979 0.70869 0.0
C2718 C 0.80737 0.59047 0.73508 0.0
C2719 C 0.82961 0.60716 0.7034 0.0
C2720 C 0.78761 0.55339 0.76144 0.0
C2721 C 0.7948 0.56139 0.75585 0.0
C2722 C 0.8113 0.56757 0.72896 0.0
C2723 C 0.82194 0.59776 0.7207 0.0
C2724 C 0.81543 0.58812 0.72639 0.0
C2725 C 0.79697 0.56051 0.74395 0.0
C2726 C 0.80336 0.56994 0.73779 0.0
H2727 H 0.83519 0.62328 0.72737 0.0
H2728 H 0.82513 0.60715 0.73657 0.0
H2729 H 0.82348 0.57447 0.71671 0.0
H2730 H 0.78132 0.53588 0.73868 0.0
H2731 H 0.79385 0.54999 0.72878 0.0
C2732 C 0.9103 0.32429 0.71384 0.0
C2733 C 0.91079 0.32442 0.70171 0.0
C2734 C 0.91951 0.32 0.72043 0.0
C2735 C 0.95069 0.31227 0.71914 0.0
H2736 H 0.94271 0.29243 0.74502 0.0
C2737 C 0.98347 0.28196 0.74224 0.0
C2738 C 0.98192 0.27983 0.75409 0.0
C2739 C 0.97563 0.28885 0.7361 0.0
C2740 C 0.94515 0.29811 0.73795 0.0
H2741 H 0.92163 0.32052 0.68703 0.0
H2742 H 0.93757 0.31286 0.69849 0.0
H2743 H 0.92744 0.3016 0.73394 0.0
H2744 H 0.97154 0.28395 0.76898 0.0
H2745 H 0.95809 0.29618 0.75841 0.0
H2746 H 0.96844 0.30861 0.72311 0.0
C2747 C 0.93009 0.31614 0.70294 0.0
C2748 C 0.93635 0.30337 0.73158 0.0
C2749 C 0.92087 0.32041 0.69635 0.0
C2750 C 0.97286 0.28535 0.75982 0.0
C2751 C 0.9651 0.29227 0.75373 0.0
C2752 C 0.95952 0.307 0.72555 0.0
C2753 C 0.92948 0.31575 0.71506 0.0
C2754 C 0.93898 0.3105 0.72206 0.0
C2755 C 0.96612 0.2938 0.74171 0.0
C2756 C 0.95686 0.29983 0.73504 0.0
H2757 H 0.90266 0.32722 0.71828 0.0
H2758 H 0.91879 0.31998 0.72975 0.0
H2759 H 0.95305 0.31781 0.71194 0.0
H2760 H 0.99032 0.27774 0.73759 0.0
H2761 H 0.97668 0.28979 0.72685 0.0
C2762 C 0.19814 0.41718 0.70436 0.0
C2763 C 0.19368 0.40795 0.71099 0.0
C2764 C 0.20388 0.42649 0.70968 0.0
C2765 C 0.21945 0.43423 0.73661 0.0
H2766 H 0.21412 0.46581 0.72703 0.0
C2767 C 0.23877 0.4716 0.76274 0.0
C2768 C 0.24406 0.48066 0.75656 0.0
C2769 C 0.23163 0.46356 0.75713 0.0
C2770 C 0.21578 0.45704 0.72975 0.0
H2771 H 0.19196 0.40124 0.72843 0.0
H2772 H 0.20179 0.41744 0.73766 0.0
H2773 H 0.20401 0.45001 0.71715 0.0
H2774 H 0.24559 0.48879 0.73975 0.0
H2775 H 0.23316 0.47466 0.72984 0.0
H2776 H 0.23128 0.44113 0.74909 0.0
C2777 C 0.20091 0.41749 0.72835 0.0
C2778 C 0.21 0.44797 0.72407 0.0
C2779 C 0.19515 0.40825 0.72305 0.0
C2780 C 0.24153 0.48193 0.74474 0.0
C2781 C 0.23443 0.47381 0.73907 0.0
C2782 C 0.22523 0.44325 0.74225 0.0
C2783 C 0.20538 0.42673 0.72175 0.0
C2784 C 0.2117 0.43645 0.7275 0.0
C2785 C 0.2297 0.46431 0.74514 0.0
C2786 C 0.22342 0.45479 0.73898 0.0
H2787 H 0.19708 0.41729 0.69506 0.0
H2788 H 0.20728 0.43341 0.70432 0.0
H2789 H 0.22118 0.42546 0.73932 0.0
H2790 H 0.24051 0.47047 0.77188 0.0
H2791 H 0.22789 0.45656 0.76215 0.0
C2792 C 0.1037 0.32265 0.33791 0.0
C2793 C 0.11419 0.32567 0.3325 0.0
C2794 C 0.09425 0.31857 0.33144 0.0
C2795 C 0.08244 0.31676 0.30155 0.0
H2796 H 0.0656 0.29025 0.31367 0.0
C2797 C 0.05406 0.28677 0.27323 0.0
C2798 C 0.04417 0.28148 0.27806 0.0
C2799 C 0.06132 0.2938 0.27993 0.0
C2800 C 0.07004 0.29779 0.31023 0.0
H2801 H 0.12291 0.32683 0.31599 0.0
H2802 H 0.10647 0.3197 0.30471 0.0
H2803 H 0.08082 0.29924 0.32524 0.0
H2804 H 0.03382 0.27995 0.29356 0.0
H2805 H 0.04642 0.2924 0.30524 0.0
H2806 H 0.07179 0.31514 0.28643 0.0
C2807 C 0.10547 0.32064 0.31395 0.0
C2808 C 0.07881 0.30294 0.31688 0.0
C2809 C 0.11492 0.32473 0.32042 0.0
C2810 C 0.04135 0.28393 0.28958 0.0
C2811 C 0.04865 0.29095 0.2963 0.0
C2812 C 0.07366 0.3116 0.2949 0.0
C2813 C 0.09505 0.3174 0.31939 0.0
C2814 C 0.08523 0.3124 0.31257 0.0
C2815 C 0.05889 0.29573 0.29164 0.0
C2816 C 0.06745 0.30195 0.29909 0.0
H2817 H 0.10276 0.32346 0.34717 0.0
H2818 H 0.0863 0.31634 0.33589 0.0
H2819 H 0.08706 0.32416 0.29804 0.0
H2820 H 0.05639 0.28514 0.26435 0.0
H2821 H 0.06915 0.29726 0.27605 0.0
C2822 C 0.20571 0.60508 0.33478 0.0
C2823 C 0.20094 0.61491 0.32949 0.0
C2824 C 0.20976 0.59595 0.32814 0.0
C2825 C 0.22038 0.58961 0.29881 0.0
H2826 H 0.21687 0.55769 0.30847 0.0
C2827 C 0.23707 0.55322 0.27028 0.0
C2828 C 0.2434 0.54451 0.27582 0.0
C2829 C 0.23045 0.56088 0.27666 0.0
C2830 C 0.21799 0.56656 0.30569 0.0
H2831 H 0.19658 0.62266 0.31296 0.0
H2832 H 0.20343 0.60666 0.30141 0.0
H2833 H 0.20812 0.57292 0.31988 0.0
H2834 H 0.24725 0.53661 0.29236 0.0
H2835 H 0.23573 0.55006 0.30359 0.0
H2836 H 0.23038 0.58336 0.28476 0.0
C2837 C 0.20417 0.60608 0.31072 0.0
C2838 C 0.21298 0.57531 0.31224 0.0
C2839 C 0.20011 0.61522 0.31736 0.0
C2840 C 0.2424 0.54319 0.28785 0.0
C2841 C 0.2358 0.55092 0.29427 0.0
C2842 C 0.22538 0.5809 0.29229 0.0
C2843 C 0.20917 0.59638 0.31601 0.0
C2844 C 0.21414 0.58696 0.3089 0.0
C2845 C 0.23004 0.56009 0.28878 0.0
C2846 C 0.22428 0.56925 0.29563 0.0
H2847 H 0.20635 0.60446 0.3441 0.0
H2848 H 0.21363 0.58867 0.33253 0.0
H2849 H 0.22168 0.59848 0.29609 0.0
H2850 H 0.23757 0.55435 0.261 0.0
H2851 H 0.22589 0.56763 0.2721 0.0
C2852 C 0.91691 0.69826 0.33063 0.0
C2853 C 0.90838 0.69294 0.32368 0.0
C2854 C 0.92661 0.70367 0.32564 0.0
C2855 C 0.94356 0.70478 0.29839 0.0
H2856 H 0.95482 0.73415 0.30999 0.0
C2857 C 0.97246 0.73557 0.27163 0.0
C2858 C 0.98105 0.7422 0.27723 0.0
C2859 C 0.96492 0.72847 0.27795 0.0
C2860 C 0.95192 0.72585 0.30676 0.0
H2861 H 0.90324 0.68953 0.30597 0.0
H2862 H 0.92003 0.69895 0.29731 0.0
H2863 H 0.93888 0.7242 0.31979 0.0
H2864 H 0.98877 0.74623 0.29382 0.0
H2865 H 0.97559 0.73372 0.30494 0.0
H2866 H 0.95642 0.70655 0.28522 0.0
C2867 C 0.9194 0.69871 0.30664 0.0
C2868 C 0.94276 0.72015 0.31237 0.0
C2869 C 0.90974 0.69331 0.31161 0.0
C2870 C 0.98228 0.74117 0.28928 0.0
C2871 C 0.97465 0.73411 0.29564 0.0
C2872 C 0.95269 0.71049 0.29278 0.0
C2873 C 0.92802 0.70391 0.31357 0.0
C2874 C 0.93832 0.70962 0.30814 0.0
C2875 C 0.96574 0.72784 0.29006 0.0
C2876 C 0.95686 0.72119 0.29676 0.0
H2877 H 0.91621 0.69804 0.33995 0.0
H2878 H 0.93311 0.70749 0.33126 0.0
H2879 H 0.94056 0.69656 0.29503 0.0
H2880 H 0.97134 0.73616 0.26235 0.0
H2881 H 0.95813 0.72386 0.27336 0.0
C2882 C 0.83705 0.418 0.31636 0.0
C2883 C 0.83158 0.40941 0.32313 0.0
C2884 C 0.83077 0.42727 0.31186 0.0
C2885 C 0.80075 0.43563 0.30453 0.0
H2886 H 0.81374 0.46658 0.30255 0.0
C2887 C 0.77256 0.47342 0.29032 0.0
C2888 C 0.77718 0.48115 0.28211 0.0
C2889 C 0.77964 0.46556 0.29605 0.0
C2890 C 0.81003 0.45797 0.30296 0.0
H2891 H 0.81516 0.40402 0.33053 0.0
H2892 H 0.80431 0.42028 0.32296 0.0
H2893 H 0.82516 0.45108 0.31114 0.0
H2894 H 0.79297 0.48711 0.2739 0.0
H2895 H 0.80546 0.47327 0.28394 0.0
H2896 H 0.78567 0.44243 0.29634 0.0
C2897 C 0.81344 0.41976 0.32097 0.0
C2898 C 0.81658 0.44907 0.30788 0.0
C2899 C 0.81971 0.41049 0.32545 0.0
C2900 C 0.78919 0.48128 0.28023 0.0
C2901 C 0.79632 0.47335 0.28597 0.0
C2902 C 0.79422 0.4445 0.29966 0.0
C2903 C 0.81885 0.42822 0.31401 0.0
C2904 C 0.81199 0.43778 0.30878 0.0
C2905 C 0.79156 0.46516 0.2937 0.0
C2906 C 0.79873 0.4558 0.29886 0.0
H2907 H 0.84621 0.41756 0.31451 0.0
H2908 H 0.83523 0.43355 0.30648 0.0
H2909 H 0.79701 0.42702 0.3048 0.0
H2910 H 0.76335 0.47323 0.29207 0.0
H2911 H 0.77572 0.45961 0.30217 0.0
C2912 C 0.19112 0.6059 0.71111 0.0
C2913 C 0.197 0.61509 0.7056 0.0
C2914 C 0.19716 0.59638 0.7154 0.0
C2915 C 0.22551 0.58143 0.71362 0.0
H2916 H 0.21636 0.56853 0.74321 0.0
C2917 C 0.25526 0.55287 0.74171 0.0
C2918 C 0.25029 0.54383 0.74822 0.0
C2919 C 0.24833 0.56029 0.73521 0.0
C2920 C 0.21892 0.57189 0.73485 0.0
H2921 H 0.21392 0.62125 0.70011 0.0
H2922 H 0.22446 0.60488 0.70787 0.0
H2923 H 0.2052 0.5841 0.73466 0.0
H2924 H 0.23417 0.53518 0.75261 0.0
H2925 H 0.22198 0.54814 0.74117 0.0
H2926 H 0.23943 0.56939 0.71401 0.0
C2927 C 0.21514 0.60493 0.70874 0.0
C2928 C 0.21251 0.58085 0.72993 0.0
C2929 C 0.20909 0.61443 0.70442 0.0
C2930 C 0.23825 0.54203 0.74763 0.0
C2931 C 0.23127 0.54953 0.74118 0.0
C2932 C 0.23195 0.57251 0.71858 0.0
C2933 C 0.20927 0.59579 0.71434 0.0
C2934 C 0.21578 0.58584 0.7193 0.0
C2935 C 0.23621 0.55891 0.7351 0.0
C2936 C 0.22881 0.5677 0.72931 0.0
H2937 H 0.18184 0.60612 0.71232 0.0
H2938 H 0.1923 0.58947 0.71952 0.0
H2939 H 0.22817 0.58487 0.70533 0.0
H2940 H 0.26453 0.55444 0.74197 0.0
H2941 H 0.25243 0.56745 0.73071 0.0
C2942 C 0.19771 0.41287 0.3146 0.0
C2943 C 0.19693 0.41064 0.32652 0.0
C2944 C 0.20407 0.42234 0.31045 0.0
C2945 C 0.22747 0.44291 0.31824 0.0
H2946 H 0.2155 0.45996 0.29197 0.0
C2947 C 0.25595 0.47216 0.28916 0.0
C2948 C 0.25103 0.4819 0.28389 0.0
C2949 C 0.24925 0.46476 0.29606 0.0
C2950 C 0.21892 0.45543 0.29942 0.0
H2951 H 0.20229 0.41669 0.34344 0.0
H2952 H 0.21344 0.43323 0.33618 0.0
H2953 H 0.20388 0.44452 0.30052 0.0
H2954 H 0.23537 0.49189 0.28231 0.0
H2955 H 0.2237 0.47908 0.29455 0.0
H2956 H 0.24253 0.45384 0.31711 0.0
C2957 C 0.20919 0.42757 0.33004 0.0
C2958 C 0.21231 0.44645 0.30422 0.0
C2959 C 0.2028 0.41807 0.3342 0.0
C2960 C 0.23943 0.48447 0.28627 0.0
C2961 C 0.23271 0.47705 0.29317 0.0
C2962 C 0.2341 0.4519 0.31342 0.0
C2963 C 0.20984 0.42985 0.31811 0.0
C2964 C 0.21657 0.43994 0.31357 0.0
C2965 C 0.23745 0.46692 0.29788 0.0
C2966 C 0.22998 0.45817 0.30383 0.0
H2967 H 0.19352 0.4072 0.30842 0.0
H2968 H 0.20459 0.42367 0.3012 0.0
H2969 H 0.23105 0.43805 0.3254 0.0
H2970 H 0.2649 0.47002 0.28761 0.0
H2971 H 0.2532 0.45704 0.29948 0.0
C2972 C 0.11634 0.7094 0.32748 0.0
C2973 C 0.11551 0.6973 0.32744 0.0
C2974 C 0.10715 0.71612 0.32346 0.0
C2975 C 0.07567 0.71525 0.31635 0.0
H2976 H 0.0836 0.74128 0.29667 0.0
C2977 C 0.04244 0.73888 0.28686 0.0
C2978 C 0.04424 0.75071 0.28476 0.0
C2979 C 0.05033 0.73265 0.29362 0.0
C2980 C 0.08119 0.73417 0.30231 0.0
H2981 H 0.10413 0.6828 0.32351 0.0
H2982 H 0.08823 0.69449 0.31631 0.0
H2983 H 0.09891 0.72994 0.30537 0.0
H2984 H 0.05517 0.76546 0.28879 0.0
H2985 H 0.06873 0.75473 0.3008 0.0
H2986 H 0.0579 0.71944 0.31313 0.0
C2987 C 0.09595 0.69881 0.31952 0.0
C2988 C 0.09001 0.72764 0.3073 0.0
C2989 C 0.10514 0.6921 0.32352 0.0
C2990 C 0.05363 0.75632 0.29018 0.0
C2991 C 0.06145 0.75014 0.29697 0.0
C2992 C 0.06682 0.72181 0.31135 0.0
C2993 C 0.09688 0.71092 0.31931 0.0
C2994 C 0.08738 0.71806 0.31436 0.0
C2995 C 0.06016 0.73814 0.29845 0.0
C2996 C 0.06946 0.73135 0.30424 0.0
H2997 H 0.1242 0.71372 0.33034 0.0
H2998 H 0.10813 0.72542 0.32357 0.0
H2999 H 0.07332 0.70801 0.32184 0.0
H3000 H 0.03533 0.73431 0.2827 0.0
H3001 H 0.04906 0.72342 0.29451 0.0
C3002 C 0.82577 0.60789 0.33288 0.0
C3003 C 0.81842 0.61687 0.33611 0.0
C3004 C 0.82142 0.59828 0.3269 0.0
C3005 C 0.79394 0.58261 0.31982 0.0
H3006 H 0.81178 0.57021 0.29462 0.0
C3007 C 0.77719 0.54372 0.29293 0.0
C3008 C 0.77828 0.545 0.2809 0.0
C3009 C 0.783 0.55132 0.30043 0.0
C3010 C 0.80667 0.57356 0.30163 0.0
H3011 H 0.80071 0.62284 0.33534 0.0
H3012 H 0.79316 0.6062 0.32489 0.0
H3013 H 0.81978 0.58601 0.30605 0.0
H3014 H 0.78681 0.55483 0.26736 0.0
H3015 H 0.7968 0.56807 0.28034 0.0
H3016 H 0.78064 0.57046 0.3151 0.0
C3017 C 0.80226 0.60642 0.32719 0.0
C3018 C 0.81132 0.58256 0.30827 0.0
C3019 C 0.8066 0.616 0.33318 0.0
C3020 C 0.78571 0.55369 0.27658 0.0
C3021 C 0.79153 0.56122 0.28405 0.0
C3022 C 0.78929 0.57361 0.31317 0.0
C3023 C 0.80959 0.59742 0.32396 0.0
C3024 C 0.80494 0.58733 0.31735 0.0
C3025 C 0.7901 0.5603 0.29607 0.0
C3026 C 0.79551 0.56908 0.30386 0.0
H3027 H 0.83488 0.60818 0.33512 0.0
H3028 H 0.82731 0.59146 0.32469 0.0
H3029 H 0.78884 0.58593 0.32685 0.0
H3030 H 0.77149 0.53715 0.29652 0.0
H3031 H 0.78181 0.55027 0.30965 0.0
C3032 C 0.91004 0.30611 0.33408 0.0
C3033 C 0.9091 0.31819 0.33439 0.0
C3034 C 0.91919 0.30093 0.32831 0.0
C3035 C 0.94875 0.30626 0.31702 0.0
H3036 H 0.94189 0.27896 0.29897 0.0
C3037 C 0.98188 0.28455 0.28623 0.0
C3038 C 0.98116 0.2725 0.28515 0.0
C3039 C 0.97386 0.29044 0.293 0.0
C3040 C 0.94403 0.28647 0.30411 0.0
H3041 H 0.91719 0.33426 0.3289 0.0
H3042 H 0.93313 0.32518 0.31868 0.0
H3043 H 0.92634 0.28867 0.30885 0.0
H3044 H 0.97207 0.25711 0.29097 0.0
H3045 H 0.95834 0.26727 0.30299 0.0
H3046 H 0.9665 0.304 0.31221 0.0
C3047 C 0.9268 0.31974 0.323 0.0
C3048 C 0.93507 0.29207 0.30976 0.0
C3049 C 0.91759 0.32494 0.32875 0.0
C3050 C 0.97275 0.26642 0.29155 0.0
C3051 C 0.96482 0.27226 0.29835 0.0
C3052 C 0.95776 0.30062 0.31135 0.0
C3053 C 0.92769 0.30765 0.32267 0.0
C3054 C 0.9373 0.30198 0.31637 0.0
C3055 C 0.96499 0.28438 0.29886 0.0
C3056 C 0.95552 0.29057 0.3049 0.0
H3057 H 0.9036 0.30062 0.33819 0.0
H3058 H 0.91965 0.29161 0.32836 0.0
H3059 H 0.9508 0.31382 0.32211 0.0
H3060 H 0.98822 0.28946 0.28131 0.0
H3061 H 0.97426 0.29977 0.29317 0.0
C3062 C 0.83633 0.42155 0.70675 0.0
C3063 C 0.83056 0.41099 0.70476 0.0
C3064 C 0.83043 0.43095 0.71129 0.0
C3065 C 0.80109 0.44259 0.71667 0.0
H3066 H 0.81674 0.45922 0.74129 0.0
C3067 C 0.78004 0.48106 0.7405 0.0
C3068 C 0.78079 0.48043 0.75261 0.0
C3069 C 0.78661 0.4737 0.73362 0.0
C3070 C 0.81225 0.45468 0.73442 0.0
H3071 H 0.81392 0.40217 0.70576 0.0
H3072 H 0.80363 0.41855 0.71367 0.0
H3073 H 0.82685 0.44406 0.73113 0.0
H3074 H 0.78934 0.47199 0.76698 0.0
H3075 H 0.8008 0.45927 0.75508 0.0
H3076 H 0.78635 0.45302 0.72026 0.0
C3077 C 0.81272 0.4196 0.71161 0.0
C3078 C 0.81808 0.44605 0.72851 0.0
C3079 C 0.81863 0.41019 0.70707 0.0
C3080 C 0.78855 0.47264 0.75767 0.0
C3081 C 0.79518 0.46539 0.75083 0.0
C3082 C 0.79526 0.45128 0.72256 0.0
C3083 C 0.81859 0.43005 0.71395 0.0
C3084 C 0.81254 0.43977 0.71966 0.0
C3085 C 0.79418 0.46569 0.73873 0.0
C3086 C 0.80071 0.4573 0.73164 0.0
H3087 H 0.84546 0.42257 0.70485 0.0
H3088 H 0.83518 0.43892 0.71276 0.0
H3089 H 0.79659 0.43802 0.70982 0.0
H3090 H 0.77408 0.48695 0.73639 0.0
H3091 H 0.78572 0.4742 0.72432 0.0
C3092 C 0.11686 0.30536 0.69674 0.0
C3093 C 0.11765 0.31741 0.69553 0.0
C3094 C 0.10766 0.30019 0.70273 0.0
C3095 C 0.07786 0.30504 0.71315 0.0
H3096 H 0.08485 0.2794 0.73351 0.0
C3097 C 0.04456 0.28409 0.74514 0.0
C3098 C 0.04545 0.27217 0.74714 0.0
C3099 C 0.05262 0.28987 0.73807 0.0
C3100 C 0.08268 0.28643 0.72774 0.0
H3101 H 0.10924 0.33347 0.69961 0.0
H3102 H 0.09322 0.32444 0.71022 0.0
H3103 H 0.1004 0.28903 0.72306 0.0
H3104 H 0.05486 0.25683 0.74267 0.0
H3105 H 0.06866 0.26677 0.73013 0.0
H3106 H 0.06007 0.30239 0.7179 0.0
C3107 C 0.09971 0.31899 0.70643 0.0
C3108 C 0.09164 0.29199 0.72175 0.0
C3109 C 0.10896 0.32417 0.70046 0.0
C3110 C 0.05406 0.26605 0.74137 0.0
C3111 C 0.06203 0.27178 0.73428 0.0
C3112 C 0.06885 0.29945 0.71915 0.0
C3113 C 0.09898 0.30692 0.7077 0.0
C3114 C 0.08936 0.30131 0.7143 0.0
C3115 C 0.06168 0.28382 0.73283 0.0
C3116 C 0.07114 0.28999 0.72645 0.0
H3117 H 0.12345 0.29987 0.69318 0.0
H3118 H 0.10732 0.29088 0.70341 0.0
H3119 H 0.07578 0.31214 0.70742 0.0
H3120 H 0.03805 0.28902 0.74955 0.0
H3121 H 0.05209 0.29915 0.73717 0.0
C3122 C 0.91909 0.69809 0.69727 0.0
C3123 C 0.9103 0.70532 0.69311 0.0
C3124 C 0.92867 0.70268 0.7032 0.0
C3125 C 0.94475 0.73015 0.70871 0.0
H3126 H 0.95543 0.71423 0.73621 0.0
C3127 C 0.98246 0.74821 0.73683 0.0
C3128 C 0.98029 0.74817 0.74876 0.0
C3129 C 0.97521 0.74198 0.7293 0.0
C3130 C 0.95256 0.71879 0.72855 0.0
H3131 H 0.90468 0.72306 0.69207 0.0
H3132 H 0.9213 0.73104 0.70244 0.0
H3133 H 0.94005 0.70564 0.7245 0.0
H3134 H 0.96925 0.74112 0.7622 0.0
H3135 H 0.95662 0.7304 0.74915 0.0
H3136 H 0.95695 0.74352 0.71304 0.0
C3137 C 0.92093 0.72184 0.70092 0.0
C3138 C 0.94381 0.7138 0.72175 0.0
C3139 C 0.91137 0.71726 0.69498 0.0
C3140 C 0.97106 0.74141 0.75304 0.0
C3141 C 0.96389 0.73517 0.74555 0.0
C3142 C 0.95351 0.73514 0.71551 0.0
C3143 C 0.9297 0.71462 0.70514 0.0
C3144 C 0.93964 0.71951 0.71185 0.0
C3145 C 0.96574 0.73551 0.73356 0.0
C3146 C 0.95737 0.72962 0.72563 0.0
H3147 H 0.91863 0.68888 0.69584 0.0
H3148 H 0.93532 0.69687 0.70619 0.0
H3149 H 0.94188 0.73471 0.70104 0.0
H3150 H 0.98949 0.75337 0.7333 0.0
H3151 H 0.97695 0.74233 0.72012 0.0
C3152 C 0.70455 0.1929 0.60889 0.0
C3153 C 0.70068 0.19823 0.61903 0.0
C3154 C 0.70887 0.19948 0.59965 0.0
C3155 C 0.72206 0.22802 0.59333 0.0
H3156 H 0.71639 0.21983 0.56135 0.0
C3157 C 0.73987 0.25655 0.55675 0.0
C3158 C 0.74524 0.25094 0.54753 0.0
C3159 C 0.73302 0.25037 0.56461 0.0
C3160 C 0.71812 0.22219 0.57024 0.0
H3161 H 0.69818 0.21475 0.62725 0.0
H3162 H 0.7055 0.22622 0.61109 0.0
H3163 H 0.70718 0.20861 0.5768 0.0
H3164 H 0.74716 0.23456 0.53896 0.0
H3165 H 0.73524 0.22366 0.55277 0.0
H3166 H 0.73313 0.24145 0.58688 0.0
C3167 C 0.70533 0.21692 0.61033 0.0
C3168 C 0.71284 0.21575 0.5791 0.0
C3169 C 0.701 0.21034 0.61956 0.0
C3170 C 0.74305 0.23911 0.54594 0.0
C3171 C 0.73623 0.23288 0.55387 0.0
C3172 C 0.72733 0.23443 0.5845 0.0
C3173 C 0.70946 0.21158 0.6003 0.0
C3174 C 0.71476 0.21858 0.59077 0.0
C3175 C 0.73143 0.23838 0.56352 0.0
C3176 C 0.72545 0.23162 0.57283 0.0
H3177 H 0.70429 0.1836 0.60809 0.0
H3178 H 0.71204 0.19506 0.59211 0.0
H3179 H 0.72395 0.23032 0.6022 0.0
H3180 H 0.74131 0.26569 0.55812 0.0
H3181 H 0.72922 0.25497 0.57173 0.0
C3182 C 0.32038 0.20352 0.61586 0.0
C3183 C 0.31924 0.19147 0.61697 0.0
C3184 C 0.31539 0.20932 0.60649 0.0
C3185 C 0.29193 0.20638 0.58498 0.0
H3186 H 0.30736 0.23242 0.57023 0.0
C3187 C 0.26773 0.24026 0.55778 0.0
C3188 C 0.27316 0.24495 0.54795 0.0
C3189 C 0.27358 0.2326 0.56501 0.0
C3190 C 0.30298 0.22508 0.57415 0.0
H3191 H 0.31229 0.17607 0.60879 0.0
H3192 H 0.30352 0.18621 0.59252 0.0
H3193 H 0.31751 0.22138 0.58509 0.0
H3194 H 0.28883 0.24498 0.53776 0.0
H3195 H 0.2991 0.23148 0.55043 0.0
H3196 H 0.27738 0.21012 0.57412 0.0
C3197 C 0.30814 0.19118 0.59899 0.0
C3198 C 0.30876 0.21883 0.58277 0.0
C3199 C 0.31316 0.18537 0.60834 0.0
C3200 C 0.28442 0.24146 0.54526 0.0
C3201 C 0.29033 0.23383 0.55257 0.0
C3202 C 0.28615 0.21265 0.57641 0.0
C3203 C 0.30911 0.20324 0.598 0.0
C3204 C 0.30325 0.20949 0.58837 0.0
C3205 C 0.28503 0.22946 0.56263 0.0
C3206 C 0.29155 0.22216 0.57099 0.0
H3207 H 0.32487 0.20852 0.62241 0.0
H3208 H 0.31617 0.21863 0.60608 0.0
H3209 H 0.2874 0.19929 0.58917 0.0
H3210 H 0.25902 0.24274 0.56002 0.0
H3211 H 0.26927 0.22948 0.57273 0.0
C3212 C 0.32018 0.83356 0.60883 0.0
C3213 C 0.32418 0.82822 0.61902 0.0
C3214 C 0.31602 0.82697 0.59956 0.0
C3215 C 0.30354 0.7982 0.59315 0.0
H3216 H 0.30923 0.80674 0.56122 0.0
C3217 C 0.28661 0.76952 0.55649 0.0
C3218 C 0.28112 0.77507 0.54718 0.0
C3219 C 0.29331 0.77579 0.56438 0.0
C3220 C 0.30749 0.80428 0.57009 0.0
H3221 H 0.32704 0.81168 0.62731 0.0
H3222 H 0.31999 0.80021 0.61111 0.0
H3223 H 0.31806 0.81808 0.57676 0.0
H3224 H 0.27885 0.79145 0.53848 0.0
H3225 H 0.29053 0.80252 0.55235 0.0
H3226 H 0.29285 0.78455 0.58658 0.0
C3227 C 0.31995 0.80952 0.61033 0.0
C3228 C 0.31255 0.81079 0.579 0.0
C3229 C 0.32412 0.8161 0.61959 0.0
C3230 C 0.28306 0.78695 0.54553 0.0
C3231 C 0.28974 0.79327 0.5535 0.0
C3232 C 0.29849 0.79172 0.58426 0.0
C3233 C 0.31572 0.81486 0.60024 0.0
C3234 C 0.31062 0.80783 0.59066 0.0
C3235 C 0.29464 0.78782 0.56324 0.0
C3236 C 0.30039 0.79465 0.57261 0.0
H3237 H 0.32023 0.84287 0.60802 0.0
H3238 H 0.31275 0.8314 0.59198 0.0
H3239 H 0.30165 0.7958 0.602 0.0
H3240 H 0.28534 0.76035 0.5579 0.0
H3241 H 0.2972 0.77124 0.57158 0.0
C3242 C 0.71126 0.83831 0.61017 0.0
C3243 C 0.70566 0.83209 0.61905 0.0
C3244 C 0.71607 0.83261 0.60075 0.0
C3245 C 0.71568 0.80486 0.58488 0.0
H3246 H 0.74626 0.81479 0.57498 0.0
C3247 C 0.7391 0.78328 0.54655 0.0
C3248 C 0.75067 0.78033 0.54875 0.0
C3249 C 0.73322 0.79059 0.55408 0.0
C3250 C 0.73772 0.8119 0.57762 0.0
H3251 H 0.70063 0.81493 0.62482 0.0
H3252 H 0.70897 0.805 0.60837 0.0
H3253 H 0.73656 0.82519 0.59029 0.0
H3254 H 0.76532 0.78321 0.56017 0.0
H3255 H 0.75515 0.79594 0.57322 0.0
H3256 H 0.71701 0.79136 0.57241 0.0
C3257 C 0.70954 0.81432 0.60865 0.0
C3258 C 0.7321 0.81794 0.58634 0.0
C3259 C 0.70475 0.82002 0.61809 0.0
C3260 C 0.75639 0.78528 0.55829 0.0
C3261 C 0.75057 0.79264 0.56573 0.0
C3262 C 0.72129 0.79885 0.5761 0.0
C3263 C 0.71538 0.82053 0.59991 0.0
C3264 C 0.72106 0.81442 0.59019 0.0
C3265 C 0.73884 0.79521 0.56387 0.0
C3266 C 0.73245 0.8022 0.57247 0.0
H3267 H 0.71193 0.84762 0.61047 0.0
H3268 H 0.72031 0.83769 0.59409 0.0
H3269 H 0.70714 0.80199 0.58753 0.0
H3270 H 0.73446 0.77955 0.5393 0.0
H3271 H 0.72423 0.7925 0.55232 0.0
C3272 C 0.7035 0.8335 0.42546 0.0
C3273 C 0.69952 0.82842 0.41513 0.0
C3274 C 0.70764 0.82668 0.43456 0.0
C3275 C 0.72034 0.79818 0.44011 0.0
H3276 H 0.71468 0.80523 0.47228 0.0
C3277 C 0.73821 0.76905 0.4759 0.0
C3278 C 0.74366 0.77458 0.48527 0.0
C3279 C 0.73126 0.77525 0.46823 0.0
C3280 C 0.71641 0.80319 0.46334 0.0
H3281 H 0.69664 0.81213 0.40642 0.0
H3282 H 0.70367 0.80025 0.42234 0.0
H3283 H 0.70558 0.81678 0.45709 0.0
H3284 H 0.74565 0.79077 0.4943 0.0
H3285 H 0.73359 0.8017 0.48079 0.0
H3286 H 0.73132 0.78478 0.44625 0.0
C3287 C 0.70371 0.80953 0.42335 0.0
C3288 C 0.71119 0.80981 0.45463 0.0
C3289 C 0.69955 0.81634 0.41426 0.0
C3290 C 0.74148 0.78629 0.48719 0.0
C3291 C 0.73458 0.79253 0.47944 0.0
C3292 C 0.72555 0.7916 0.44878 0.0
C3293 C 0.70794 0.81462 0.43356 0.0
C3294 C 0.71312 0.8074 0.4429 0.0
C3295 C 0.72968 0.78715 0.46965 0.0
C3296 C 0.72368 0.79401 0.46052 0.0
H3297 H 0.70346 0.84277 0.42649 0.0
H3298 H 0.71091 0.83091 0.44225 0.0
H3299 H 0.72223 0.79622 0.43119 0.0
H3300 H 0.73965 0.75999 0.4743 0.0
H3301 H 0.72739 0.77075 0.46098 0.0
C3302 C 0.69278 0.20297 0.42282 0.0
C3303 C 0.69868 0.19972 0.41277 0.0
C3304 C 0.69883 0.2074 0.43236 0.0
C3305 C 0.7283 0.20973 0.44545 0.0
H3306 H 0.71552 0.23604 0.46119 0.0
C3307 C 0.75567 0.24017 0.47426 0.0
C3308 C 0.75054 0.24517 0.48398 0.0
C3309 C 0.74917 0.23315 0.46682 0.0
C3310 C 0.71914 0.22857 0.45704 0.0
H3311 H 0.71568 0.19836 0.40507 0.0
H3312 H 0.72618 0.20631 0.42155 0.0
H3313 H 0.70454 0.22684 0.4457 0.0
H3314 H 0.73471 0.2463 0.4938 0.0
H3315 H 0.72331 0.23391 0.48083 0.0
H3316 H 0.74302 0.21165 0.45664 0.0
C3317 C 0.71687 0.20532 0.42213 0.0
C3318 C 0.71283 0.22328 0.44812 0.0
C3319 C 0.71082 0.20088 0.41259 0.0
C3320 C 0.7389 0.24252 0.48641 0.0
C3321 C 0.73235 0.23554 0.47891 0.0
C3322 C 0.73461 0.21503 0.45435 0.0
C3323 C 0.71095 0.20871 0.43212 0.0
C3324 C 0.71738 0.21388 0.44209 0.0
C3325 C 0.73735 0.23097 0.46888 0.0
C3326 C 0.73019 0.22462 0.46017 0.0
H3327 H 0.68343 0.20232 0.42325 0.0
H3328 H 0.69398 0.2098 0.43993 0.0
H3329 H 0.73199 0.20238 0.44116 0.0
H3330 H 0.76465 0.24199 0.4722 0.0
H3331 H 0.7533 0.22987 0.45916 0.0
C3332 C 0.33494 0.21128 0.42237 0.0
C3333 C 0.32938 0.20493 0.41357 0.0
C3334 C 0.32861 0.21588 0.4315 0.0
C3335 C 0.29884 0.22448 0.43903 0.0
H3336 H 0.31069 0.22518 0.47042 0.0
C3337 C 0.27024 0.23943 0.47615 0.0
C3338 C 0.27515 0.24711 0.4842 0.0
C3339 C 0.27719 0.23355 0.46839 0.0
C3340 C 0.30731 0.22514 0.46168 0.0
H3341 H 0.31272 0.19837 0.40765 0.0
H3342 H 0.30176 0.20613 0.42366 0.0
H3343 H 0.32211 0.21632 0.45519 0.0
H3344 H 0.29128 0.25422 0.49078 0.0
H3345 H 0.30353 0.24393 0.4771 0.0
H3346 H 0.28411 0.23332 0.44543 0.0
C3347 C 0.31102 0.20771 0.42342 0.0
C3348 C 0.31385 0.22006 0.45294 0.0
C3349 C 0.31734 0.20312 0.41429 0.0
C3350 C 0.28727 0.24832 0.48471 0.0
C3351 C 0.29426 0.24243 0.47686 0.0
C3352 C 0.29232 0.22952 0.44774 0.0
C3353 C 0.31654 0.21425 0.43209 0.0
C3354 C 0.30967 0.21962 0.44149 0.0
C3355 C 0.28926 0.23521 0.46839 0.0
C3356 C 0.29642 0.22987 0.4592 0.0
H3357 H 0.34422 0.21273 0.4222 0.0
H3358 H 0.33316 0.22093 0.43797 0.0
H3359 H 0.29545 0.22456 0.43029 0.0
H3360 H 0.26093 0.23819 0.47568 0.0
H3361 H 0.27305 0.22783 0.46221 0.0
C3362 C 0.31602 0.83859 0.421 0.0
C3363 C 0.32108 0.83229 0.41203 0.0
C3364 C 0.31116 0.83297 0.43058 0.0
C3365 C 0.31047 0.8051 0.4466 0.0
H3366 H 0.28072 0.81576 0.45724 0.0
C3367 C 0.2868 0.78361 0.48542 0.0
C3368 C 0.27504 0.781 0.48346 0.0
C3369 C 0.29289 0.7909 0.47781 0.0
C3370 C 0.28903 0.81267 0.45439 0.0
H3371 H 0.32505 0.81504 0.40626 0.0
H3372 H 0.31661 0.80524 0.42297 0.0
H3373 H 0.2906 0.82604 0.44165 0.0
H3374 H 0.2603 0.78448 0.4724 0.0
H3375 H 0.27084 0.7972 0.45921 0.0
H3376 H 0.30871 0.79151 0.45913 0.0
C3377 C 0.31652 0.81457 0.42265 0.0
C3378 C 0.29475 0.81863 0.44551 0.0
C3379 C 0.32137 0.8202 0.41304 0.0
C3380 C 0.26937 0.78629 0.47409 0.0
C3381 C 0.27541 0.79364 0.46657 0.0
C3382 C 0.30476 0.79916 0.45553 0.0
C3383 C 0.31124 0.82087 0.43148 0.0
C3384 C 0.30549 0.81485 0.44139 0.0
C3385 C 0.28731 0.79585 0.46817 0.0
C3386 C 0.29389 0.80278 0.45943 0.0
H3387 H 0.31583 0.84792 0.42065 0.0
H3388 H 0.30736 0.83811 0.43731 0.0
H3389 H 0.31878 0.80201 0.44374 0.0
H3390 H 0.2914 0.7796 0.49253 0.0
H3391 H 0.30202 0.79253 0.47937 0.0
C3392 C 0.61532 0.20117 0.71348 0.0
C3393 C 0.61481 0.20112 0.70134 0.0
C3394 C 0.60611 0.20542 0.71996 0.0
C3395 C 0.57493 0.21318 0.71834 0.0
H3396 H 0.58293 0.23267 0.74433 0.0
C3397 C 0.54209 0.24298 0.74144 0.0
C3398 C 0.54367 0.24484 0.75332 0.0
C3399 C 0.54995 0.23627 0.73527 0.0
C3400 C 0.58049 0.2271 0.73722 0.0
H3401 H 0.60396 0.20513 0.68655 0.0
H3402 H 0.58804 0.21273 0.69782 0.0
H3403 H 0.59819 0.22369 0.73336 0.0
H3404 H 0.55415 0.24044 0.76823 0.0
H3405 H 0.56763 0.22854 0.75761 0.0
H3406 H 0.55718 0.21677 0.72218 0.0
C3407 C 0.59552 0.20941 0.70235 0.0
C3408 C 0.58929 0.22193 0.73091 0.0
C3409 C 0.60473 0.20518 0.69587 0.0
C3410 C 0.5528 0.23925 0.75904 0.0
C3411 C 0.56058 0.23252 0.75292 0.0
C3412 C 0.5661 0.21836 0.72469 0.0
C3413 C 0.59614 0.20972 0.71448 0.0
C3414 C 0.58665 0.21492 0.72137 0.0
C3415 C 0.55951 0.23125 0.74089 0.0
C3416 C 0.56877 0.2254 0.73422 0.0
H3417 H 0.62296 0.1982 0.71801 0.0
H3418 H 0.60684 0.20537 0.72929 0.0
H3419 H 0.57256 0.20774 0.71112 0.0
H3420 H 0.53519 0.24726 0.7368 0.0
H3421 H 0.54886 0.23553 0.72601 0.0
C3422 C 0.32543 0.10843 0.7006 0.0
C3423 C 0.33243 0.11581 0.70736 0.0
C3424 C 0.3192 0.0993 0.70571 0.0
C3425 C 0.30746 0.08986 0.73395 0.0
H3426 H 0.30534 0.05959 0.71998 0.0
C3427 C 0.2893 0.0515 0.75943 0.0
C3428 C 0.28116 0.04429 0.7539 0.0
C3429 C 0.29589 0.05945 0.75312 0.0
C3430 C 0.30577 0.06803 0.72393 0.0
H3431 H 0.33823 0.11936 0.72485 0.0
H3432 H 0.32761 0.10341 0.73366 0.0
H3433 H 0.316 0.07516 0.71014 0.0
H3434 H 0.27396 0.03933 0.73734 0.0
H3435 H 0.28554 0.05336 0.72619 0.0
H3436 H 0.29729 0.08283 0.74771 0.0
C3437 C 0.32684 0.10471 0.72442 0.0
C3438 C 0.31186 0.07695 0.71829 0.0
C3439 C 0.33306 0.11379 0.71933 0.0
C3440 C 0.28021 0.04476 0.7418 0.0
C3441 C 0.28682 0.0528 0.73545 0.0
C3442 C 0.30141 0.08099 0.73956 0.0
C3443 C 0.31976 0.09738 0.7177 0.0
C3444 C 0.3129 0.08794 0.72332 0.0
C3445 C 0.29449 0.06047 0.7411 0.0
C3446 C 0.30062 0.06991 0.73472 0.0
H3447 H 0.32483 0.10966 0.69134 0.0
H3448 H 0.31378 0.09387 0.70028 0.0
H3449 H 0.30782 0.09828 0.73795 0.0
H3450 H 0.29035 0.05119 0.76874 0.0
H3451 H 0.30194 0.065 0.75772 0.0
C3452 C 0.41038 0.80691 0.69961 0.0
C3453 C 0.40979 0.81895 0.69835 0.0
C3454 C 0.42007 0.80179 0.70469 0.0
C3455 C 0.44506 0.80796 0.72397 0.0
H3456 H 0.45595 0.77878 0.71236 0.0
C3457 C 0.48405 0.7847 0.7449 0.0
C3458 C 0.48205 0.77296 0.74735 0.0
C3459 C 0.47651 0.79074 0.73757 0.0
C3460 C 0.453 0.78691 0.71573 0.0
H3461 H 0.419 0.83505 0.70153 0.0
H3462 H 0.43599 0.8261 0.71021 0.0
H3463 H 0.4402 0.78857 0.70242 0.0
H3464 H 0.47104 0.7582 0.74353 0.0
H3465 H 0.45798 0.76864 0.73076 0.0
H3466 H 0.45777 0.8062 0.73738 0.0
C3467 C 0.42889 0.82061 0.70736 0.0
C3468 C 0.44393 0.79252 0.71005 0.0
C3469 C 0.41918 0.82574 0.70227 0.0
C3470 C 0.47277 0.76725 0.74183 0.0
C3471 C 0.46532 0.77324 0.73446 0.0
C3472 C 0.45415 0.80236 0.72964 0.0
C3473 C 0.42947 0.80856 0.70863 0.0
C3474 C 0.43969 0.80302 0.71421 0.0
C3475 C 0.46691 0.78512 0.73246 0.0
C3476 C 0.45811 0.79167 0.7257 0.0
H3477 H 0.4034 0.80138 0.69656 0.0
H3478 H 0.42011 0.7925 0.70565 0.0
H3479 H 0.44196 0.81597 0.7275 0.0
H3480 H 0.49109 0.78933 0.74909 0.0
H3481 H 0.47806 0.79985 0.73611 0.0
C3482 C 0.69927 0.91803 0.70347 0.0
C3483 C 0.69474 0.90895 0.71026 0.0
C3484 C 0.70515 0.92734 0.70862 0.0
C3485 C 0.72097 0.93526 0.73534 0.0
H3486 H 0.71561 0.96682 0.72567 0.0
C3487 C 0.73991 0.97266 0.76155 0.0
C3488 C 0.74527 0.98174 0.75543 0.0
C3489 C 0.73288 0.96462 0.75585 0.0
C3490 C 0.71728 0.95805 0.7284 0.0
H3491 H 0.69307 0.90249 0.7278 0.0
H3492 H 0.70315 0.9187 0.73674 0.0
H3493 H 0.70546 0.95097 0.71587 0.0
H3494 H 0.74701 0.98987 0.73866 0.0
H3495 H 0.73473 0.9757 0.72858 0.0
H3496 H 0.73282 0.9422 0.74777 0.0
C3497 C 0.70221 0.91864 0.72743 0.0
C3498 C 0.71147 0.94896 0.72278 0.0
C3499 C 0.69631 0.90939 0.7223 0.0
C3500 C 0.7429 0.983 0.74359 0.0
C3501 C 0.73589 0.97486 0.73783 0.0
C3502 C 0.72676 0.94429 0.74093 0.0
C3503 C 0.70673 0.92773 0.72067 0.0
C3504 C 0.71317 0.93746 0.72626 0.0
C3505 C 0.7311 0.96535 0.74384 0.0
C3506 C 0.72492 0.95583 0.73764 0.0
H3507 H 0.69814 0.91801 0.69418 0.0
H3508 H 0.70859 0.93416 0.70315 0.0
H3509 H 0.72269 0.9265 0.73809 0.0
H3510 H 0.74153 0.97155 0.77072 0.0
H3511 H 0.72908 0.95761 0.76083 0.0
C3512 C 0.60461 0.82162 0.33626 0.0
C3513 C 0.61498 0.82574 0.3313 0.0
C3514 C 0.59554 0.81747 0.32931 0.0
C3515 C 0.59008 0.80513 0.30048 0.0
H3516 H 0.55783 0.81033 0.3077 0.0
C3517 C 0.55409 0.78705 0.27122 0.0
C3518 C 0.54478 0.78145 0.27677 0.0
C3519 C 0.56182 0.79402 0.27745 0.0
C3520 C 0.56679 0.80874 0.30561 0.0
H3521 H 0.62381 0.82885 0.31507 0.0
H3522 H 0.60794 0.82181 0.30297 0.0
H3523 H 0.57302 0.81945 0.31939 0.0
H3524 H 0.53592 0.77926 0.29308 0.0
H3525 H 0.54948 0.79138 0.30404 0.0
H3526 H 0.58395 0.79427 0.28687 0.0
C3527 C 0.60687 0.82167 0.31225 0.0
C3528 C 0.5755 0.81397 0.31231 0.0
C3529 C 0.61593 0.82584 0.3192 0.0
C3530 C 0.54297 0.78353 0.28856 0.0
C3531 C 0.55076 0.79048 0.29483 0.0
C3532 C 0.5814 0.79991 0.2938 0.0
C3533 C 0.59661 0.81731 0.31722 0.0
C3534 C 0.58727 0.81218 0.30986 0.0
C3535 C 0.56048 0.79552 0.28941 0.0
C3536 C 0.56963 0.8016 0.29629 0.0
H3537 H 0.60351 0.82156 0.34554 0.0
H3538 H 0.58781 0.8141 0.33345 0.0
H3539 H 0.59903 0.80337 0.29847 0.0
H3540 H 0.55561 0.78572 0.2621 0.0
H3541 H 0.56903 0.798 0.27292 0.0
C3542 C 0.69923 0.11398 0.3165 0.0
C3543 C 0.70012 0.11367 0.32862 0.0
C3544 C 0.70323 0.10482 0.30985 0.0
C3545 C 0.71201 0.07403 0.31136 0.0
H3546 H 0.7294 0.08205 0.28387 0.0
C3547 C 0.74164 0.04198 0.28715 0.0
C3548 C 0.74267 0.04327 0.27512 0.0
C3549 C 0.73496 0.04969 0.29352 0.0
C3550 C 0.72441 0.0796 0.2914 0.0
H3551 H 0.70552 0.10319 0.34322 0.0
H3552 H 0.71269 0.08738 0.33162 0.0
H3553 H 0.72067 0.09718 0.29516 0.0
H3554 H 0.73681 0.05302 0.26024 0.0
H3555 H 0.725 0.06625 0.27125 0.0
H3556 H 0.71595 0.05641 0.30764 0.0
C3557 C 0.70883 0.09467 0.32725 0.0
C3558 C 0.71939 0.08832 0.2979 0.0
C3559 C 0.70485 0.10382 0.3339 0.0
C3560 C 0.73629 0.05191 0.26952 0.0
C3561 C 0.7296 0.05955 0.27585 0.0
C3562 C 0.71705 0.06528 0.30483 0.0
C3563 C 0.70821 0.0951 0.31512 0.0
C3564 C 0.71316 0.08568 0.308 0.0
C3565 C 0.72915 0.0588 0.28798 0.0
C3566 C 0.72334 0.06796 0.29478 0.0
H3567 H 0.69573 0.12144 0.31212 0.0
H3568 H 0.70246 0.1054 0.30054 0.0
H3569 H 0.70716 0.07165 0.319 0.0
H3570 H 0.74653 0.03546 0.2917 0.0
H3571 H 0.73487 0.04886 0.30284 0.0
C3572 C 0.40819 0.19587 0.31107 0.0
C3573 C 0.40779 0.19428 0.32312 0.0
C3574 C 0.41742 0.20183 0.30592 0.0
C3575 C 0.44782 0.21132 0.31053 0.0
H3576 H 0.44085 0.23247 0.28549 0.0
C3577 C 0.48182 0.24279 0.28959 0.0
C3578 C 0.48056 0.24508 0.27773 0.0
C3579 C 0.47366 0.23582 0.2954 0.0
C3580 C 0.443 0.22648 0.29235 0.0
H3581 H 0.41691 0.1977 0.33917 0.0
H3582 H 0.43302 0.20826 0.33016 0.0
H3583 H 0.42517 0.22225 0.29519 0.0
H3584 H 0.47035 0.24123 0.26247 0.0
H3585 H 0.45637 0.22887 0.27243 0.0
H3586 H 0.46572 0.21561 0.30763 0.0
C3587 C 0.42619 0.20478 0.32471 0.0
C3588 C 0.43398 0.22062 0.29794 0.0
C3589 C 0.41689 0.19884 0.32988 0.0
C3590 C 0.47146 0.23969 0.27165 0.0
C3591 C 0.46338 0.2327 0.27739 0.0
C3592 C 0.4569 0.21718 0.30489 0.0
C3593 C 0.42654 0.20638 0.31265 0.0
C3594 C 0.43625 0.21289 0.30704 0.0
C3595 C 0.46413 0.23098 0.28941 0.0
C3596 C 0.4546 0.22476 0.29564 0.0
H3597 H 0.40128 0.1926 0.3056 0.0
H3598 H 0.41745 0.20278 0.29661 0.0
H3599 H 0.44989 0.20536 0.31745 0.0
H3600 H 0.48871 0.24691 0.29449 0.0
H3601 H 0.4745 0.2347 0.30465 0.0
C3602 C 0.33094 0.90882 0.30807 0.0
C3603 C 0.33261 0.90813 0.32009 0.0
C3604 C 0.32501 0.91805 0.30309 0.0
C3605 C 0.31565 0.94802 0.30828 0.0
H3606 H 0.29423 0.94134 0.28326 0.0
C3607 C 0.28383 0.9817 0.28846 0.0
C3608 C 0.28136 0.98078 0.2766 0.0
C3609 C 0.29092 0.97358 0.29397 0.0
C3610 C 0.3003 0.94342 0.29011 0.0
H3611 H 0.32937 0.91677 0.33629 0.0
H3612 H 0.31885 0.93284 0.3276 0.0
H3613 H 0.30455 0.92568 0.29255 0.0
H3614 H 0.28501 0.97123 0.26107 0.0
H3615 H 0.29758 0.95733 0.27053 0.0
H3616 H 0.31132 0.96581 0.3058 0.0
C3617 C 0.32224 0.92624 0.32202 0.0
C3618 C 0.30622 0.9344 0.29547 0.0
C3619 C 0.32816 0.91696 0.32701 0.0
C3620 C 0.28669 0.97207 0.27024 0.0
C3621 C 0.2938 0.96404 0.2757 0.0
C3622 C 0.30972 0.95708 0.30288 0.0
C3623 C 0.32055 0.92688 0.30998 0.0
C3624 C 0.31404 0.93657 0.30457 0.0
C3625 C 0.2957 0.96443 0.28771 0.0
C3626 C 0.30204 0.95491 0.29365 0.0
H3627 H 0.33411 0.90213 0.30247 0.0
H3628 H 0.32399 0.9183 0.29379 0.0
H3629 H 0.32168 0.95002 0.3152 0.0
H3630 H 0.27975 0.98828 0.29357 0.0
H3631 H 0.29216 0.97414 0.30323 0.0
C3632 C 0.69145 0.10492 0.70796 0.0
C3633 C 0.69695 0.11548 0.70526 0.0
C3634 C 0.69781 0.09559 0.7122 0.0
C3635 C 0.72773 0.08431 0.71497 0.0
H3636 H 0.71476 0.06673 0.74049 0.0
C3637 C 0.75532 0.0556 0.745 0.0
C3638 C 0.75038 0.04548 0.74971 0.0
C3639 C 0.74874 0.06299 0.73809 0.0
C3640 C 0.71845 0.07139 0.73323 0.0
H3641 H 0.71355 0.12443 0.70486 0.0
H3642 H 0.72462 0.1082 0.71225 0.0
H3643 H 0.70345 0.0819 0.73145 0.0
H3644 H 0.7348 0.03493 0.75041 0.0
H3645 H 0.72329 0.04779 0.73819 0.0
H3646 H 0.74282 0.07391 0.71691 0.0
C3647 C 0.71539 0.10706 0.71094 0.0
C3648 C 0.71195 0.08013 0.72804 0.0
C3649 C 0.70903 0.11639 0.7067 0.0
C3650 C 0.73886 0.04263 0.74687 0.0
C3651 C 0.73224 0.05008 0.73998 0.0
C3652 C 0.73423 0.07556 0.72016 0.0
C3653 C 0.70985 0.09656 0.71385 0.0
C3654 C 0.71655 0.08681 0.71893 0.0
C3655 C 0.73703 0.06049 0.73572 0.0
C3656 C 0.72974 0.06908 0.72946 0.0
H3657 H 0.68219 0.10382 0.70677 0.0
H3658 H 0.69326 0.08759 0.71414 0.0
H3659 H 0.73149 0.08912 0.70784 0.0
H3660 H 0.76421 0.05799 0.74695 0.0
H3661 H 0.75272 0.07094 0.73506 0.0
C3662 C 0.69307 0.92113 0.32535 0.0
C3663 C 0.69814 0.91095 0.32954 0.0
C3664 C 0.69996 0.93022 0.32112 0.0
C3665 C 0.72878 0.93589 0.30861 0.0
H3666 H 0.72124 0.96798 0.31338 0.0
C3667 C 0.75761 0.97183 0.28972 0.0
C3668 C 0.7519 0.98085 0.284 0.0
C3669 C 0.7515 0.9642 0.2969 0.0
C3670 C 0.72342 0.95906 0.31191 0.0
H3671 H 0.71448 0.90248 0.33272 0.0
H3672 H 0.72648 0.91838 0.32553 0.0
H3673 H 0.70971 0.95284 0.3228 0.0
H3674 H 0.73544 0.98932 0.28178 0.0
H3675 H 0.7247 0.97592 0.29424 0.0
H3676 H 0.74231 0.94201 0.29757 0.0
C3677 C 0.71716 0.91929 0.3254 0.0
C3678 C 0.71681 0.95038 0.31731 0.0
C3679 C 0.71028 0.91021 0.32964 0.0
C3680 C 0.74008 0.9825 0.28615 0.0
C3681 C 0.73393 0.9748 0.29329 0.0
C3682 C 0.73536 0.94454 0.30322 0.0
C3683 C 0.71209 0.92935 0.32094 0.0
C3684 C 0.71937 0.93867 0.31567 0.0
C3685 C 0.73951 0.96534 0.29847 0.0
C3686 C 0.73275 0.95624 0.30475 0.0
H3687 H 0.68376 0.92207 0.32528 0.0
H3688 H 0.69574 0.93779 0.31768 0.0
H3689 H 0.73087 0.92698 0.30696 0.0
H3690 H 0.76675 0.97046 0.28834 0.0
H3691 H 0.75614 0.95721 0.30097 0.0
C3692 C 0.61633 0.2091 0.32724 0.0
C3693 C 0.61538 0.197 0.32746 0.0
C3694 C 0.6072 0.21583 0.32312 0.0
C3695 C 0.57569 0.21515 0.31608 0.0
H3696 H 0.58389 0.24067 0.29585 0.0
C3697 C 0.54262 0.23882 0.28635 0.0
C3698 C 0.54459 0.2506 0.28414 0.0
C3699 C 0.55048 0.23253 0.2931 0.0
C3700 C 0.58141 0.23371 0.30164 0.0
H3701 H 0.60381 0.18255 0.32392 0.0
H3702 H 0.588 0.19426 0.31654 0.0
H3703 H 0.59907 0.22933 0.30475 0.0
H3704 H 0.55577 0.26523 0.28795 0.0
H3705 H 0.56926 0.25442 0.29994 0.0
H3706 H 0.55797 0.21949 0.3128 0.0
C3707 C 0.59579 0.19856 0.31962 0.0
C3708 C 0.59015 0.22718 0.30675 0.0
C3709 C 0.60493 0.19183 0.32373 0.0
C3710 C 0.55411 0.25613 0.28942 0.0
C3711 C 0.56189 0.2499 0.2962 0.0
C3712 C 0.56691 0.22171 0.31096 0.0
C3713 C 0.59686 0.21065 0.31912 0.0
C3714 C 0.58743 0.21779 0.31402 0.0
C3715 C 0.56043 0.23793 0.29781 0.0
C3716 C 0.56965 0.23108 0.30365 0.0
H3717 H 0.62426 0.21339 0.32996 0.0
H3718 H 0.60829 0.22512 0.32301 0.0
H3719 H 0.57327 0.20806 0.32173 0.0
H3720 H 0.5354 0.23434 0.28231 0.0
H3721 H 0.54908 0.22334 0.29411 0.0
C3722 C 0.31528 0.10554 0.34389 0.0
C3723 C 0.32011 0.11486 0.33764 0.0
C3724 C 0.31053 0.09598 0.33816 0.0
C3725 C 0.30982 0.08084 0.30996 0.0
H3726 H 0.28032 0.0689 0.3209 0.0
C3727 C 0.28641 0.04227 0.28778 0.0
C3728 C 0.27462 0.04401 0.2854 0.0
C3729 C 0.29248 0.04972 0.29524 0.0
C3730 C 0.28857 0.07211 0.31773 0.0
H3731 H 0.3238 0.12128 0.3204 0.0
H3732 H 0.31555 0.1046 0.31043 0.0
H3733 H 0.29008 0.08441 0.33138 0.0
H3734 H 0.2598 0.05446 0.28944 0.0
H3735 H 0.27031 0.06738 0.30242 0.0
H3736 H 0.3081 0.06877 0.29609 0.0
C3737 C 0.31556 0.10464 0.31978 0.0
C3738 C 0.29423 0.08095 0.32381 0.0
C3739 C 0.32029 0.11422 0.32551 0.0
C3740 C 0.2689 0.05295 0.29107 0.0
C3741 C 0.27492 0.06031 0.29857 0.0
C3742 C 0.30418 0.07196 0.3039 0.0
C3743 C 0.3105 0.09544 0.32603 0.0
C3744 C 0.30486 0.08554 0.31992 0.0
C3745 C 0.28685 0.05896 0.30055 0.0
C3746 C 0.29339 0.0676 0.30762 0.0
H3747 H 0.31518 0.10562 0.35324 0.0
H3748 H 0.30689 0.08898 0.34327 0.0
H3749 H 0.31806 0.08407 0.30679 0.0
H3750 H 0.29105 0.03548 0.28348 0.0
H3751 H 0.30164 0.04836 0.29668 0.0
C3752 C 0.41121 0.8066 0.33443 0.0
C3753 C 0.41006 0.81865 0.335 0.0
C3754 C 0.42075 0.8017 0.32905 0.0
C3755 C 0.44415 0.80787 0.30801 0.0
H3756 H 0.45734 0.78017 0.32126 0.0
C3757 C 0.48326 0.78519 0.2871 0.0
C3758 C 0.48185 0.77322 0.28577 0.0
C3759 C 0.47575 0.79136 0.2942 0.0
C3760 C 0.45374 0.78788 0.31742 0.0
H3761 H 0.41815 0.83496 0.33028 0.0
H3762 H 0.43484 0.8264 0.32087 0.0
H3763 H 0.44167 0.78978 0.33121 0.0
H3764 H 0.47191 0.75824 0.29131 0.0
H3765 H 0.45891 0.7689 0.30369 0.0
H3766 H 0.45616 0.80585 0.29414 0.0
C3767 C 0.42827 0.82074 0.32451 0.0
C3768 C 0.44472 0.79338 0.32311 0.0
C3769 C 0.41868 0.82566 0.3299 0.0
C3770 C 0.47319 0.76747 0.29215 0.0
C3771 C 0.46577 0.77359 0.29929 0.0
C3772 C 0.45321 0.80237 0.30233 0.0
C3773 C 0.42946 0.80868 0.32408 0.0
C3774 C 0.43965 0.80333 0.31839 0.0
C3775 C 0.46676 0.78565 0.30021 0.0
C3776 C 0.45799 0.79218 0.30686 0.0
H3777 H 0.40463 0.80092 0.33804 0.0
H3778 H 0.42121 0.79239 0.32866 0.0
H3779 H 0.44041 0.81544 0.30406 0.0
H3780 H 0.48981 0.78986 0.28223 0.0
H3781 H 0.47684 0.80062 0.29481 0.0
C3782 C 0.3186 0.91124 0.70518 0.0
C3783 C 0.3305 0.90986 0.70733 0.0
C3784 C 0.31274 0.92078 0.70951 0.0
C3785 C 0.31462 0.94283 0.73245 0.0
H3786 H 0.29056 0.95769 0.71453 0.0
C3787 C 0.28914 0.98148 0.75051 0.0
C3788 C 0.27708 0.98085 0.74888 0.0
C3789 C 0.29644 0.97401 0.74454 0.0
C3790 C 0.29721 0.9536 0.71969 0.0
H3791 H 0.34561 0.91773 0.71542 0.0
H3792 H 0.33539 0.93428 0.72299 0.0
H3793 H 0.30165 0.94221 0.70596 0.0
H3794 H 0.2633 0.97236 0.73927 0.0
H3795 H 0.27591 0.95935 0.729 0.0
H3796 H 0.31003 0.95406 0.74627 0.0
C3797 C 0.33054 0.92789 0.71811 0.0
C3798 C 0.30356 0.9447 0.71477 0.0
C3799 C 0.33641 0.91837 0.71377 0.0
C3800 C 0.27255 0.97299 0.74079 0.0
C3801 C 0.27981 0.96559 0.73481 0.0
C3802 C 0.30825 0.95172 0.73739 0.0
C3803 C 0.31861 0.92919 0.71611 0.0
C3804 C 0.31226 0.93909 0.72113 0.0
C3805 C 0.29183 0.96583 0.73675 0.0
C3806 C 0.29935 0.95712 0.73113 0.0
H3807 H 0.31372 0.9048 0.7004 0.0
H3808 H 0.30352 0.9214 0.70793 0.0
H3809 H 0.32115 0.93863 0.73767 0.0
H3810 H 0.29288 0.98741 0.75672 0.0
H3811 H 0.30567 0.97454 0.74614 0.0
C3812 C 0.61701 0.82364 0.7123 0.0
C3813 C 0.61655 0.82303 0.70017 0.0
C3814 C 0.60784 0.81941 0.71902 0.0
C3815 C 0.57674 0.81066 0.71788 0.0
H3816 H 0.5847 0.79299 0.74523 0.0
C3817 C 0.54385 0.78157 0.74305 0.0
C3818 C 0.54537 0.7805 0.75506 0.0
C3819 C 0.55175 0.78805 0.73643 0.0
C3820 C 0.58228 0.79806 0.73774 0.0
H3821 H 0.60583 0.81777 0.68564 0.0
H3822 H 0.58995 0.8102 0.69737 0.0
H3823 H 0.59998 0.80166 0.73362 0.0
H3824 H 0.55578 0.78609 0.76965 0.0
H3825 H 0.56936 0.79758 0.7582 0.0
H3826 H 0.55899 0.8069 0.72199 0.0
C3827 C 0.59738 0.81404 0.70168 0.0
C3828 C 0.59108 0.80303 0.73105 0.0
C3829 C 0.60656 0.81826 0.69495 0.0
C3830 C 0.55448 0.78664 0.76038 0.0
C3831 C 0.56231 0.79315 0.7538 0.0
C3832 C 0.56791 0.80567 0.7246 0.0
C3833 C 0.59794 0.81445 0.71381 0.0
C3834 C 0.58845 0.80939 0.72102 0.0
C3835 C 0.56129 0.79364 0.7417 0.0
C3836 C 0.57056 0.7993 0.73463 0.0
H3837 H 0.62458 0.82716 0.71663 0.0
H3838 H 0.60852 0.82001 0.72833 0.0
H3839 H 0.57438 0.8156 0.71028 0.0
H3840 H 0.53696 0.77685 0.73871 0.0
H3841 H 0.55071 0.78819 0.72713 0.0
C3842 C 0.40902 0.21938 0.69516 0.0
C3843 C 0.40871 0.20738 0.69349 0.0
C3844 C 0.41813 0.22461 0.70124 0.0
C3845 C 0.44833 0.22053 0.71106 0.0
H3846 H 0.44068 0.24448 0.73282 0.0
C3847 C 0.48135 0.24061 0.74385 0.0
C3848 C 0.48003 0.2523 0.74655 0.0
C3849 C 0.47338 0.23502 0.73651 0.0
C3850 C 0.44302 0.23794 0.72666 0.0
H3851 H 0.41787 0.1915 0.69682 0.0
H3852 H 0.43376 0.20066 0.70759 0.0
H3853 H 0.42532 0.23485 0.72203 0.0
H3854 H 0.46993 0.26754 0.74307 0.0
H3855 H 0.45627 0.25795 0.73008 0.0
H3856 H 0.46609 0.22366 0.71575 0.0
C3857 C 0.42696 0.20601 0.70409 0.0
C3858 C 0.43418 0.23239 0.72048 0.0
C3859 C 0.41779 0.20075 0.69803 0.0
C3860 C 0.47106 0.25847 0.74123 0.0
C3861 C 0.46319 0.25295 0.73387 0.0
C3862 C 0.45722 0.22613 0.71724 0.0
C3863 C 0.4272 0.21801 0.70582 0.0
C3864 C 0.43671 0.22367 0.71255 0.0
C3865 C 0.464 0.24106 0.73171 0.0
C3866 C 0.45468 0.23497 0.72506 0.0
H3867 H 0.40212 0.22474 0.69189 0.0
H3868 H 0.41809 0.23388 0.70229 0.0
H3869 H 0.45059 0.21391 0.70495 0.0
H3870 H 0.48814 0.23564 0.7479 0.0
H3871 H 0.47427 0.22586 0.73507 0.0
C3872 C 0.70467 0.69278 0.10898 0.0
C3873 C 0.70061 0.69816 0.11902 0.0
C3874 C 0.70883 0.69934 0.09965 0.0
C3875 C 0.72121 0.72813 0.09289 0.0
H3876 H 0.71596 0.71918 0.06105 0.0
C3877 C 0.7388 0.75624 0.05588 0.0
C3878 C 0.74441 0.75052 0.04687 0.0
C3879 C 0.73194 0.75012 0.06378 0.0
C3880 C 0.71757 0.72175 0.0699 0.0
H3881 H 0.69761 0.71473 0.12696 0.0
H3882 H 0.70465 0.72614 0.11064 0.0
H3883 H 0.70695 0.70801 0.07666 0.0
H3884 H 0.74673 0.73398 0.03871 0.0
H3885 H 0.73479 0.7232 0.05258 0.0
H3886 H 0.73197 0.74171 0.08624 0.0
C3887 C 0.70476 0.71683 0.11004 0.0
C3888 C 0.71241 0.71535 0.07885 0.0
C3889 C 0.70058 0.71028 0.11936 0.0
C3890 C 0.74243 0.73862 0.04552 0.0
C3891 C 0.7356 0.73246 0.05349 0.0
C3892 C 0.72637 0.7345 0.08397 0.0
C3893 C 0.70906 0.71145 0.1001 0.0
C3894 C 0.71419 0.71843 0.09048 0.0
C3895 C 0.73057 0.73808 0.06294 0.0
C3896 C 0.72465 0.73141 0.07234 0.0
H3897 H 0.70468 0.68347 0.10833 0.0
H3898 H 0.71215 0.69488 0.0922 0.0
H3899 H 0.72299 0.73064 0.10172 0.0
H3900 H 0.74008 0.76543 0.05706 0.0
H3901 H 0.72796 0.7548 0.07074 0.0
C3902 C 0.31466 0.68612 0.10777 0.0
C3903 C 0.32026 0.69234 0.11662 0.0
C3904 C 0.30963 0.69184 0.09837 0.0
C3905 C 0.30938 0.71976 0.08254 0.0
H3906 H 0.27866 0.70975 0.07298 0.0
C3907 C 0.28487 0.74214 0.04502 0.0
C3908 C 0.2734 0.74506 0.04755 0.0
C3909 C 0.29095 0.73456 0.05224 0.0
C3910 C 0.28724 0.71264 0.07553 0.0
H3911 H 0.32504 0.70951 0.12241 0.0
H3912 H 0.31632 0.71948 0.10599 0.0
H3913 H 0.28882 0.69914 0.08809 0.0
H3914 H 0.25909 0.74185 0.05922 0.0
H3915 H 0.26963 0.72865 0.07175 0.0
H3916 H 0.30764 0.73348 0.07022 0.0
C3917 C 0.31593 0.71015 0.10626 0.0
C3918 C 0.29312 0.7065 0.08413 0.0
C3919 C 0.32093 0.70443 0.11569 0.0
C3920 C 0.26795 0.7398 0.05709 0.0
C3921 C 0.27398 0.73218 0.06423 0.0
C3922 C 0.30352 0.72587 0.0739 0.0
C3923 C 0.3101 0.70394 0.09754 0.0
C3924 C 0.3042 0.71007 0.08787 0.0
C3925 C 0.28563 0.72966 0.06205 0.0
C3926 C 0.29231 0.72249 0.07041 0.0
H3927 H 0.31416 0.67679 0.10808 0.0
H3928 H 0.30539 0.68677 0.09171 0.0
H3929 H 0.31796 0.72267 0.08512 0.0
H3930 H 0.28929 0.74611 0.03776 0.0
H3931 H 0.29988 0.73269 0.05025 0.0
C3932 C 0.32474 0.31654 0.1201 0.0
C3933 C 0.32474 0.32865 0.11947 0.0
C3934 C 0.32058 0.30989 0.11088 0.0
C3935 C 0.3131 0.31099 0.07956 0.0
H3936 H 0.29343 0.28478 0.08731 0.0
C3937 C 0.28344 0.28709 0.04629 0.0
C3938 C 0.2815 0.27522 0.04797 0.0
C3939 C 0.29015 0.29343 0.05423 0.0
C3940 C 0.29906 0.29194 0.08495 0.0
H3941 H 0.32073 0.34323 0.10839 0.0
H3942 H 0.31328 0.33165 0.09242 0.0
H3943 H 0.30229 0.29608 0.10265 0.0
H3944 H 0.28576 0.26051 0.0587 0.0
H3945 H 0.29768 0.27143 0.07232 0.0
H3946 H 0.3097 0.30688 0.06181 0.0
C3947 C 0.31657 0.32727 0.10002 0.0
C3948 C 0.30415 0.29845 0.09378 0.0
C3949 C 0.32072 0.33393 0.10925 0.0
C3950 C 0.28702 0.26968 0.05727 0.0
C3951 C 0.29376 0.27597 0.06512 0.0
C3952 C 0.308 0.30445 0.07069 0.0
C3953 C 0.31631 0.31517 0.10076 0.0
C3954 C 0.31122 0.30808 0.09123 0.0
C3955 C 0.29509 0.28799 0.06395 0.0
C3956 C 0.3009 0.29484 0.07327 0.0
H3957 H 0.32768 0.31217 0.12784 0.0
H3958 H 0.32066 0.30059 0.1117 0.0
H3959 H 0.31859 0.31828 0.07727 0.0
H3960 H 0.27921 0.29159 0.03925 0.0
H3961 H 0.29094 0.30267 0.05306 0.0
C3962 C 0.70527 0.32114 0.11738 0.0
C3963 C 0.70614 0.3332 0.11838 0.0
C3964 C 0.71013 0.31548 0.10794 0.0
C3965 C 0.73278 0.31918 0.08575 0.0
H3966 H 0.71771 0.29266 0.07168 0.0
C3967 C 0.75714 0.28647 0.05782 0.0
C3968 C 0.75145 0.28151 0.04826 0.0
C3969 C 0.7513 0.29387 0.06521 0.0
C3970 C 0.72198 0.30013 0.07541 0.0
H3971 H 0.71246 0.34878 0.10992 0.0
H3972 H 0.72097 0.33892 0.09356 0.0
H3973 H 0.70779 0.30326 0.08677 0.0
H3974 H 0.73529 0.28076 0.03873 0.0
H3975 H 0.72504 0.29378 0.05165 0.0
H3976 H 0.74699 0.31603 0.07444 0.0
C3977 C 0.71669 0.33381 0.10017 0.0
C3978 C 0.71635 0.30613 0.08417 0.0
C3979 C 0.71181 0.33946 0.10958 0.0
C3980 C 0.73991 0.2845 0.04599 0.0
C3981 C 0.73401 0.29185 0.05346 0.0
C3982 C 0.73843 0.31315 0.07704 0.0
C3983 C 0.71601 0.32173 0.09927 0.0
C3984 C 0.72172 0.31567 0.08954 0.0
C3985 C 0.73959 0.29647 0.06328 0.0
C3986 C 0.73317 0.30347 0.07184 0.0
H3987 H 0.70111 0.316 0.12405 0.0
H3988 H 0.70957 0.30616 0.10762 0.0
H3989 H 0.73723 0.32641 0.08974 0.0
H3990 H 0.76605 0.28438 0.05975 0.0
H3991 H 0.75586 0.29718 0.07271 0.0
C3992 C 0.70396 0.33362 0.92467 0.0
C3993 C 0.69991 0.32843 0.91443 0.0
C3994 C 0.70817 0.3269 0.93381 0.0
C3995 C 0.72092 0.29847 0.93958 0.0
H3996 H 0.71538 0.30578 0.9717 0.0
C3997 C 0.73897 0.26966 0.97555 0.0
C3998 C 0.74443 0.27527 0.98486 0.0
C3999 C 0.73199 0.27578 0.96784 0.0
C4000 C 0.71707 0.30367 0.96278 0.0
H4001 H 0.69699 0.31204 0.9059 0.0
H4002 H 0.70414 0.30033 0.9219 0.0
H4003 H 0.7062 0.31719 0.95645 0.0
H4004 H 0.7464 0.29153 0.99376 0.0
H4005 H 0.73429 0.30233 0.9802 0.0
H4006 H 0.73194 0.28513 0.94579 0.0
C4007 C 0.70417 0.30962 0.92281 0.0
C4008 C 0.71181 0.31021 0.95404 0.0
C4009 C 0.69994 0.31633 0.91368 0.0
C4010 C 0.74223 0.28699 0.9867 0.0
C4011 C 0.73529 0.29316 0.97891 0.0
C4012 C 0.72618 0.29196 0.94829 0.0
C4013 C 0.70847 0.31482 0.93294 0.0
C4014 C 0.7137 0.3077 0.94232 0.0
C4015 C 0.73039 0.2877 0.96918 0.0
C4016 C 0.72435 0.29447 0.96001 0.0
H4017 H 0.70392 0.3429 0.9256 0.0
H4018 H 0.71148 0.3312 0.94144 0.0
H4019 H 0.72278 0.29643 0.93067 0.0
H4020 H 0.74042 0.26059 0.97401 0.0
H4021 H 0.72811 0.27122 0.96063 0.0
C4022 C 0.70282 0.69311 0.91945 0.0
C4023 C 0.69787 0.70077 0.91141 0.0
C4024 C 0.70894 0.69728 0.92909 0.0
C4025 C 0.71292 0.72358 0.947 0.0
H4026 H 0.74148 0.70915 0.95666 0.0
C4027 C 0.73923 0.7411 0.98582 0.0
C4028 C 0.75116 0.74249 0.98386 0.0
C4029 C 0.73235 0.73449 0.97827 0.0
C4030 C 0.73352 0.71329 0.95409 0.0
H4031 H 0.69585 0.71885 0.90708 0.0
H4032 H 0.70648 0.72608 0.92377 0.0
H4033 H 0.73034 0.70102 0.94063 0.0
H4034 H 0.76536 0.73736 0.97295 0.0
H4035 H 0.75343 0.72598 0.95978 0.0
H4036 H 0.7163 0.73609 0.96014 0.0
C4037 C 0.70542 0.71685 0.92281 0.0
C4038 C 0.72706 0.70856 0.94495 0.0
C4039 C 0.69932 0.71269 0.9132 0.0
C4040 C 0.75617 0.73655 0.97463 0.0
C4041 C 0.74932 0.72994 0.96711 0.0
C4042 C 0.71936 0.7283 0.95613 0.0
C4043 C 0.71027 0.70921 0.93093 0.0
C4044 C 0.71677 0.71375 0.94116 0.0
C4045 C 0.73726 0.72908 0.96863 0.0
C4046 C 0.72985 0.72332 0.9597 0.0
H4047 H 0.70177 0.68388 0.91843 0.0
H4048 H 0.71245 0.69114 0.93521 0.0
H4049 H 0.70495 0.72771 0.94445 0.0
H4050 H 0.73511 0.74559 0.99283 0.0
H4051 H 0.72312 0.73387 0.97981 0.0
C4052 C 0.3282 0.71991 0.91326 0.0
C4053 C 0.32988 0.70793 0.91305 0.0
C4054 C 0.32218 0.72501 0.92229 0.0
C4055 C 0.31275 0.72056 0.9525 0.0
H4056 H 0.29138 0.74496 0.94487 0.0
C4057 C 0.28135 0.74133 0.9857 0.0
C4058 C 0.2791 0.75313 0.98426 0.0
C4059 C 0.28825 0.73553 0.97771 0.0
C4060 C 0.29743 0.73828 0.94721 0.0
H4061 H 0.32655 0.69192 0.92229 0.0
H4062 H 0.31588 0.70084 0.93804 0.0
H4063 H 0.30161 0.73528 0.92952 0.0
H4064 H 0.28295 0.76828 0.9739 0.0
H4065 H 0.29516 0.75832 0.96019 0.0
H4066 H 0.30852 0.72363 0.97025 0.0
C4067 C 0.31933 0.70629 0.93122 0.0
C4068 C 0.30329 0.7327 0.93837 0.0
C4069 C 0.32534 0.70116 0.92213 0.0
C4070 C 0.28443 0.75915 0.97513 0.0
C4071 C 0.29135 0.75341 0.96723 0.0
C4072 C 0.30688 0.72618 0.96139 0.0
C4073 C 0.31765 0.71828 0.93139 0.0
C4074 C 0.31111 0.72384 0.94089 0.0
C4075 C 0.29305 0.74146 0.96817 0.0
C4076 C 0.29923 0.73521 0.95885 0.0
H4077 H 0.33146 0.72538 0.90636 0.0
H4078 H 0.32117 0.73428 0.92218 0.0
H4079 H 0.31878 0.71383 0.95476 0.0
H4080 H 0.27728 0.73647 0.99263 0.0
H4081 H 0.28935 0.72633 0.9787 0.0
C4082 C 0.32146 0.32034 0.91373 0.0
C4083 C 0.32122 0.33243 0.91271 0.0
C4084 C 0.31662 0.31473 0.92335 0.0
C4085 C 0.29495 0.31889 0.94628 0.0
H4086 H 0.30885 0.29172 0.95987 0.0
C4087 C 0.26955 0.28662 0.97494 0.0
C4088 C 0.27523 0.28131 0.98429 0.0
C4089 C 0.27559 0.29395 0.96741 0.0
C4090 C 0.30492 0.29938 0.95628 0.0
H4091 H 0.31608 0.34809 0.92135 0.0
H4092 H 0.30761 0.33832 0.93804 0.0
H4093 H 0.31891 0.30218 0.94445 0.0
H4094 H 0.29161 0.27986 0.99331 0.0
H4095 H 0.30223 0.29278 0.98013 0.0
H4096 H 0.28094 0.31607 0.95806 0.0
C4097 C 0.31137 0.33315 0.9313 0.0
C4098 C 0.31062 0.3053 0.94733 0.0
C4099 C 0.31622 0.33876 0.9217 0.0
C4100 C 0.287 0.28389 0.98622 0.0
C4101 C 0.29309 0.29118 0.9786 0.0
C4102 C 0.28923 0.31295 0.95518 0.0
C4103 C 0.3114 0.32106 0.9322 0.0
C4104 C 0.30565 0.31506 0.94213 0.0
C4105 C 0.2875 0.29614 0.96897 0.0
C4106 C 0.29407 0.30304 0.96021 0.0
H4107 H 0.3251 0.31516 0.90693 0.0
H4108 H 0.31667 0.3054 0.92368 0.0
H4109 H 0.2908 0.32631 0.94243 0.0
H4110 H 0.26047 0.28482 0.97327 0.0
H4111 H 0.27101 0.29752 0.96006 0.0
C4112 C 0.60426 0.7037 0.19539 0.0
C4113 C 0.61481 0.70123 0.20094 0.0
C4114 C 0.59489 0.70794 0.20161 0.0
C4115 C 0.58337 0.71112 0.23139 0.0
H4116 H 0.56604 0.7362 0.21776 0.0
C4117 C 0.55475 0.7413 0.25814 0.0
C4118 C 0.54465 0.74584 0.25313 0.0
C4119 C 0.56212 0.73437 0.25173 0.0
C4120 C 0.57063 0.72907 0.22163 0.0
H4121 H 0.62368 0.70124 0.21749 0.0
H4122 H 0.60737 0.70863 0.22834 0.0
H4123 H 0.58126 0.72712 0.2067 0.0
H4124 H 0.53411 0.74619 0.23763 0.0
H4125 H 0.54695 0.73393 0.22641 0.0
H4126 H 0.57286 0.71322 0.2464 0.0
C4127 C 0.60627 0.70714 0.21917 0.0
C4128 C 0.5794 0.72386 0.21528 0.0
C4129 C 0.61565 0.70289 0.21294 0.0
C4130 C 0.5418 0.74279 0.24173 0.0
C4131 C 0.54923 0.73588 0.23528 0.0
C4132 C 0.5746 0.71633 0.23774 0.0
C4133 C 0.59579 0.70983 0.21358 0.0
C4134 C 0.586 0.71491 0.22012 0.0
C4135 C 0.55962 0.73179 0.24013 0.0
C4136 C 0.56821 0.72549 0.233 0.0
H4137 H 0.60321 0.70233 0.1862 0.0
H4138 H 0.5869 0.70971 0.19704 0.0
H4139 H 0.58811 0.70412 0.23533 0.0
H4140 H 0.55713 0.74341 0.26694 0.0
H4141 H 0.57006 0.73147 0.25576 0.0
C4142 C 0.33733 0.60733 0.21221 0.0
C4143 C 0.33186 0.61605 0.20577 0.0
C4144 C 0.33091 0.59814 0.21693 0.0
C4145 C 0.30107 0.59043 0.22577 0.0
H4146 H 0.31249 0.55913 0.22664 0.0
C4147 C 0.27192 0.55321 0.24104 0.0
C4148 C 0.27667 0.54529 0.24891 0.0
C4149 C 0.27902 0.56097 0.23503 0.0
C4150 C 0.30923 0.56785 0.22655 0.0
H4151 H 0.31529 0.6218 0.19918 0.0
H4152 H 0.30417 0.60569 0.20714 0.0
H4153 H 0.32413 0.57443 0.21757 0.0
H4154 H 0.29264 0.53888 0.25623 0.0
H4155 H 0.30516 0.55256 0.24571 0.0
H4156 H 0.28624 0.58394 0.23475 0.0
C4157 C 0.31342 0.60603 0.20869 0.0
C4158 C 0.3159 0.57662 0.22136 0.0
C4159 C 0.31983 0.61521 0.20399 0.0
C4160 C 0.28876 0.54487 0.25018 0.0
C4161 C 0.29591 0.55271 0.24416 0.0
C4162 C 0.29443 0.58169 0.23092 0.0
C4163 C 0.31885 0.59744 0.21534 0.0
C4164 C 0.31187 0.58802 0.22085 0.0
C4165 C 0.29107 0.56106 0.23676 0.0
C4166 C 0.29837 0.57027 0.23132 0.0
H4167 H 0.34661 0.6076 0.21363 0.0
H4168 H 0.33538 0.59173 0.22206 0.0
H4169 H 0.2978 0.59913 0.2258 0.0
H4170 H 0.26264 0.5536 0.23975 0.0
H4171 H 0.27502 0.56707 0.22918 0.0
C4172 C 0.42047 0.32175 0.19678 0.0
C4173 C 0.41035 0.32568 0.20212 0.0
C4174 C 0.42969 0.31748 0.20337 0.0
C4175 C 0.43586 0.30456 0.23196 0.0
H4176 H 0.46797 0.31001 0.22372 0.0
C4177 C 0.47227 0.28667 0.26039 0.0
C4178 C 0.48139 0.28121 0.2547 0.0
C4179 C 0.46452 0.29358 0.25426 0.0
C4180 C 0.45905 0.30834 0.22609 0.0
H4181 H 0.40214 0.32834 0.21868 0.0
H4182 H 0.41826 0.32111 0.23017 0.0
H4183 H 0.4526 0.31919 0.2125 0.0
H4184 H 0.48991 0.27917 0.23826 0.0
H4185 H 0.47628 0.29119 0.22745 0.0
H4186 H 0.4422 0.29359 0.24539 0.0
C4187 C 0.41902 0.32119 0.22085 0.0
C4188 C 0.45023 0.3136 0.21966 0.0
C4189 C 0.40981 0.32548 0.21425 0.0
C4190 C 0.48301 0.28336 0.24286 0.0
C4191 C 0.47518 0.29023 0.23669 0.0
C4192 C 0.44464 0.29931 0.23837 0.0
C4193 C 0.42903 0.31701 0.2155 0.0
C4194 C 0.43851 0.31175 0.2225 0.0
C4195 C 0.46562 0.29513 0.24225 0.0
C4196 C 0.45637 0.30111 0.23553 0.0
H4197 H 0.42127 0.32192 0.18747 0.0
H4198 H 0.4372 0.31426 0.19894 0.0
H4199 H 0.42694 0.30273 0.23427 0.0
H4200 H 0.47089 0.28525 0.26954 0.0
H4201 H 0.45746 0.29745 0.2589 0.0
C4202 C 0.69864 0.41732 0.20356 0.0
C4203 C 0.69295 0.40881 0.21022 0.0
C4204 C 0.70436 0.42664 0.20887 0.0
C4205 C 0.71746 0.43529 0.23682 0.0
H4206 H 0.7153 0.46643 0.22471 0.0
C4207 C 0.73621 0.47323 0.26251 0.0
C4208 C 0.74278 0.48149 0.2564 0.0
C4209 C 0.72921 0.46526 0.25664 0.0
C4210 C 0.71607 0.45777 0.22815 0.0
H4211 H 0.689 0.40339 0.22774 0.0
H4212 H 0.69878 0.41963 0.23695 0.0
H4213 H 0.70528 0.45058 0.21478 0.0
H4214 H 0.74672 0.48829 0.2394 0.0
H4215 H 0.73452 0.47427 0.22907 0.0
H4216 H 0.72829 0.44234 0.25008 0.0
C4217 C 0.6989 0.4191 0.22762 0.0
C4218 C 0.71034 0.44868 0.22245 0.0
C4219 C 0.69316 0.40984 0.22232 0.0
C4220 C 0.74166 0.48206 0.24432 0.0
C4221 C 0.73469 0.47401 0.23842 0.0
C4222 C 0.72317 0.44433 0.24248 0.0
C4223 C 0.7046 0.42761 0.22098 0.0
C4224 C 0.7109 0.43733 0.22677 0.0
C4225 C 0.72867 0.46526 0.2445 0.0
C4226 C 0.72249 0.45572 0.2383 0.0
H4227 H 0.69857 0.41685 0.19422 0.0
H4228 H 0.70875 0.43298 0.2035 0.0
H4229 H 0.71831 0.42664 0.24026 0.0
H4230 H 0.73683 0.47267 0.27183 0.0
H4231 H 0.72445 0.45887 0.26164 0.0
C4232 C 0.61547 0.32426 0.81967 0.0
C4233 C 0.61456 0.3244 0.83177 0.0
C4234 C 0.60639 0.31996 0.81284 0.0
C4235 C 0.57503 0.31234 0.81307 0.0
H4236 H 0.58343 0.29222 0.78794 0.0
C4237 C 0.54224 0.2822 0.78911 0.0
C4238 C 0.54419 0.28009 0.77735 0.0
C4239 C 0.55008 0.289 0.79549 0.0
C4240 C 0.5809 0.29797 0.79479 0.0
H4241 H 0.60314 0.3205 0.84613 0.0
H4242 H 0.58739 0.31282 0.83423 0.0
H4243 H 0.59853 0.30135 0.79949 0.0
H4244 H 0.5553 0.28413 0.76283 0.0
H4245 H 0.56878 0.29618 0.77382 0.0
H4246 H 0.55735 0.3088 0.80839 0.0
C4247 C 0.59511 0.3161 0.83001 0.0
C4248 C 0.58959 0.30321 0.80144 0.0
C4249 C 0.60421 0.32038 0.83685 0.0
C4250 C 0.55368 0.28549 0.77193 0.0
C4251 C 0.56145 0.29232 0.77826 0.0
C4252 C 0.5663 0.30709 0.80638 0.0
C4253 C 0.59614 0.3157 0.81793 0.0
C4254 C 0.58679 0.31044 0.81068 0.0
C4255 C 0.55997 0.29386 0.7902 0.0
C4256 C 0.56913 0.29982 0.79716 0.0
H4257 H 0.62334 0.32719 0.81546 0.0
H4258 H 0.60743 0.31991 0.80355 0.0
H4259 H 0.57256 0.31795 0.82005 0.0
H4260 H 0.53503 0.27807 0.79351 0.0
H4261 H 0.54869 0.28995 0.80467 0.0
C4262 C 0.70602 0.60336 0.83491 0.0
C4263 C 0.7021 0.61356 0.82961 0.0
C4264 C 0.71011 0.59424 0.82827 0.0
C4265 C 0.72266 0.58837 0.79967 0.0
H4266 H 0.71683 0.55633 0.80775 0.0
C4267 C 0.7403 0.55234 0.77133 0.0
C4268 C 0.74571 0.54316 0.77709 0.0
C4269 C 0.73338 0.56001 0.77737 0.0
C4270 C 0.7186 0.56523 0.80542 0.0
H4271 H 0.69931 0.62201 0.81309 0.0
H4272 H 0.70625 0.60605 0.80153 0.0
H4273 H 0.70792 0.57158 0.81901 0.0
H4274 H 0.7476 0.53443 0.79355 0.0
H4275 H 0.73556 0.54791 0.80418 0.0
H4276 H 0.7335 0.58212 0.78625 0.0
C4277 C 0.70628 0.60516 0.81085 0.0
C4278 C 0.71349 0.57398 0.81188 0.0
C4279 C 0.70217 0.61427 0.81748 0.0
C4280 C 0.74345 0.54138 0.78888 0.0
C4281 C 0.73657 0.54913 0.79496 0.0
C4282 C 0.72777 0.57965 0.79324 0.0
C4283 C 0.71043 0.59507 0.81615 0.0
C4284 C 0.71549 0.58567 0.8091 0.0
C4285 C 0.73175 0.55877 0.78935 0.0
C4286 C 0.72584 0.56795 0.79602 0.0
H4287 H 0.70596 0.60244 0.84422 0.0
H4288 H 0.71332 0.58665 0.83267 0.0
H4289 H 0.7246 0.59726 0.79741 0.0
H4290 H 0.74181 0.55385 0.76222 0.0
H4291 H 0.72957 0.56714 0.77268 0.0
C4292 C 0.40876 0.70954 0.82776 0.0
C4293 C 0.40943 0.69746 0.8285 0.0
C4294 C 0.41798 0.71611 0.82329 0.0
C4295 C 0.44936 0.71528 0.81631 0.0
H4296 H 0.44152 0.73995 0.79507 0.0
C4297 C 0.48285 0.73834 0.78624 0.0
C4298 C 0.48108 0.75003 0.78364 0.0
C4299 C 0.47484 0.73216 0.79302 0.0
C4300 C 0.4439 0.73323 0.80113 0.0
H4301 H 0.42055 0.68288 0.82546 0.0
H4302 H 0.43653 0.69431 0.81749 0.0
H4303 H 0.42617 0.7288 0.80429 0.0
H4304 H 0.47007 0.76464 0.7868 0.0
H4305 H 0.45632 0.75401 0.79884 0.0
H4306 H 0.46714 0.71968 0.81301 0.0
C4307 C 0.4289 0.69872 0.82044 0.0
C4308 C 0.43506 0.72681 0.80642 0.0
C4309 C 0.41967 0.69215 0.82488 0.0
C4310 C 0.47158 0.75559 0.78855 0.0
C4311 C 0.46365 0.74946 0.79537 0.0
C4312 C 0.45823 0.72173 0.81101 0.0
C4313 C 0.42812 0.71078 0.81946 0.0
C4314 C 0.43765 0.71774 0.81407 0.0
C4315 C 0.46494 0.73758 0.79739 0.0
C4316 C 0.45562 0.7308 0.80335 0.0
H4317 H 0.40099 0.71393 0.83036 0.0
H4318 H 0.41712 0.72538 0.82281 0.0
H4319 H 0.45167 0.70843 0.82225 0.0
H4320 H 0.49005 0.73383 0.78248 0.0
H4321 H 0.47611 0.72301 0.79434 0.0
C4322 C 0.32838 0.4171 0.82772 0.0
C4323 C 0.33284 0.4083 0.82077 0.0
C4324 C 0.3225 0.42641 0.82275 0.0
C4325 C 0.3065 0.43466 0.79623 0.0
H4326 H 0.31161 0.46605 0.80663 0.0
C4327 C 0.28678 0.47231 0.77116 0.0
C4328 C 0.28146 0.48099 0.77757 0.0
C4329 C 0.29398 0.46432 0.77657 0.0
C4330 C 0.31001 0.45733 0.80369 0.0
H4331 H 0.33439 0.40238 0.80312 0.0
H4332 H 0.32431 0.4186 0.79449 0.0
H4333 H 0.32198 0.45023 0.81598 0.0
H4334 H 0.27992 0.48847 0.79454 0.0
H4335 H 0.29247 0.47439 0.80411 0.0
H4336 H 0.29449 0.44162 0.78405 0.0
C4337 C 0.32531 0.4183 0.80379 0.0
C4338 C 0.31594 0.44825 0.80906 0.0
C4339 C 0.33121 0.40905 0.80874 0.0
C4340 C 0.28401 0.48192 0.7894 0.0
C4341 C 0.29118 0.47383 0.79486 0.0
C4342 C 0.30058 0.44369 0.7909 0.0
C4343 C 0.32083 0.4271 0.81071 0.0
C4344 C 0.31433 0.43681 0.80533 0.0
C4345 C 0.29595 0.4647 0.78856 0.0
C4346 C 0.30232 0.45517 0.79446 0.0
H4347 H 0.32956 0.41686 0.837 0.0
H4348 H 0.31909 0.43298 0.82835 0.0
H4349 H 0.30483 0.42595 0.79329 0.0
H4350 H 0.28501 0.47144 0.76201 0.0
H4351 H 0.29775 0.45762 0.77137 0.0
C4352 C 0.70276 0.60857 0.1988 0.0
C4353 C 0.69762 0.61621 0.2066 0.0
C4354 C 0.70903 0.59907 0.20282 0.0
C4355 C 0.71304 0.58057 0.22885 0.0
H4356 H 0.74186 0.57225 0.21429 0.0
C4357 C 0.73953 0.54206 0.24573 0.0
C4358 C 0.75143 0.54429 0.24721 0.0
C4359 C 0.73266 0.54961 0.23922 0.0
C4360 C 0.73383 0.57445 0.21847 0.0
H4361 H 0.69541 0.61996 0.22478 0.0
H4362 H 0.70629 0.60349 0.23175 0.0
H4363 H 0.7306 0.58815 0.20642 0.0
H4364 H 0.7656 0.55571 0.24233 0.0
H4365 H 0.75368 0.56889 0.23112 0.0
H4366 H 0.71645 0.56719 0.24115 0.0
C4367 C 0.70528 0.60467 0.22251 0.0
C4368 C 0.72731 0.58352 0.21388 0.0
C4369 C 0.69903 0.61415 0.2185 0.0
C4370 C 0.75643 0.55382 0.24144 0.0
C4371 C 0.74959 0.56133 0.23494 0.0
C4372 C 0.71954 0.57151 0.23342 0.0
C4373 C 0.71031 0.59695 0.21474 0.0
C4374 C 0.71691 0.58682 0.21913 0.0
C4375 C 0.73756 0.55953 0.23401 0.0
C4376 C 0.73012 0.56843 0.2284 0.0
H4377 H 0.70175 0.60981 0.18957 0.0
H4378 H 0.71269 0.59326 0.19657 0.0
H4379 H 0.70499 0.58274 0.23302 0.0
H4380 H 0.73541 0.53483 0.25009 0.0
H4381 H 0.72346 0.54784 0.23853 0.0
C4382 C 0.70206 0.41742 0.83412 0.0
C4383 C 0.69679 0.40956 0.82645 0.0
C4384 C 0.70853 0.42685 0.82993 0.0
C4385 C 0.71302 0.44463 0.80352 0.0
H4386 H 0.74215 0.4532 0.81809 0.0
C4387 C 0.74057 0.48267 0.7861 0.0
C4388 C 0.75241 0.48038 0.78475 0.0
C4389 C 0.73351 0.47525 0.79266 0.0
C4390 C 0.73403 0.45092 0.81392 0.0
H4391 H 0.69453 0.40529 0.80836 0.0
H4392 H 0.70577 0.42163 0.8011 0.0
H4393 H 0.73043 0.43754 0.82627 0.0
H4394 H 0.76625 0.46898 0.7899 0.0
H4395 H 0.75396 0.45599 0.80117 0.0
H4396 H 0.71679 0.45769 0.79093 0.0
C4397 C 0.7047 0.42069 0.81034 0.0
C4398 C 0.72725 0.44201 0.81867 0.0
C4399 C 0.69825 0.41129 0.81452 0.0
C4400 C 0.75713 0.4709 0.79065 0.0
C4401 C 0.75009 0.46351 0.79721 0.0
C4402 C 0.71977 0.45354 0.79878 0.0
C4403 C 0.70988 0.42863 0.81798 0.0
C4404 C 0.71675 0.43862 0.81342 0.0
C4405 C 0.73813 0.46541 0.79806 0.0
C4406 C 0.73045 0.4567 0.80381 0.0
H4407 H 0.701 0.41643 0.84336 0.0
H4408 H 0.71231 0.43285 0.83606 0.0
H4409 H 0.70489 0.44238 0.79935 0.0
H4410 H 0.73666 0.48988 0.78164 0.0
H4411 H 0.72437 0.47708 0.79328 0.0
C4412 C 0.60795 0.69623 0.83004 0.0
C4413 C 0.61704 0.69318 0.82267 0.0
C4414 C 0.5983 0.7021 0.82574 0.0
C4415 C 0.58269 0.70891 0.79836 0.0
H4416 H 0.56983 0.73388 0.81607 0.0
C4417 C 0.55371 0.75166 0.78973 0.0
C4418 C 0.54512 0.74724 0.78226 0.0
C4419 C 0.56113 0.7443 0.7957 0.0
C4420 C 0.57331 0.72693 0.811 0.0
H4421 H 0.62319 0.69423 0.80502 0.0
H4422 H 0.60646 0.70448 0.79757 0.0
H4423 H 0.58572 0.72273 0.82412 0.0
H4424 H 0.53728 0.73157 0.77559 0.0
H4425 H 0.55023 0.7186 0.78617 0.0
H4426 H 0.57058 0.7134 0.78506 0.0
C4427 C 0.60664 0.70211 0.80663 0.0
C4428 C 0.58237 0.72045 0.81567 0.0
C4429 C 0.61626 0.69624 0.81091 0.0
C4430 C 0.54379 0.73523 0.78131 0.0
C4431 C 0.55129 0.72782 0.78727 0.0
C4432 C 0.57363 0.71538 0.79369 0.0
C4433 C 0.5975 0.70509 0.81396 0.0
C4434 C 0.58731 0.71147 0.80934 0.0
C4435 C 0.56019 0.73229 0.79439 0.0
C4436 C 0.56895 0.72461 0.79987 0.0
H4437 H 0.60818 0.69389 0.8391 0.0
H4438 H 0.59137 0.70414 0.83163 0.0
H4439 H 0.58615 0.70194 0.7933 0.0
H4440 H 0.55489 0.76089 0.79072 0.0
H4441 H 0.56793 0.74808 0.80099 0.0
C4442 C 0.3224 0.6161 0.82293 0.0
C4443 C 0.32085 0.61661 0.83495 0.0
C4444 C 0.31789 0.60685 0.81654 0.0
C4445 C 0.30631 0.57682 0.81912 0.0
H4446 H 0.29203 0.58404 0.78964 0.0
C4447 C 0.2779 0.54422 0.79258 0.0
C4448 C 0.27872 0.54491 0.78049 0.0
C4449 C 0.28387 0.5522 0.79957 0.0
C4450 C 0.29612 0.58182 0.79778 0.0
H4451 H 0.3136 0.60749 0.8497 0.0
H4452 H 0.30553 0.5915 0.83855 0.0
H4453 H 0.30077 0.5994 0.80104 0.0
H4454 H 0.28704 0.55393 0.76628 0.0
H4455 H 0.29755 0.56764 0.77838 0.0
H4456 H 0.3015 0.55919 0.81584 0.0
C4457 C 0.31033 0.59822 0.83405 0.0
C4458 C 0.30115 0.59066 0.80433 0.0
C4459 C 0.31484 0.60748 0.84044 0.0
C4460 C 0.28611 0.55329 0.77557 0.0
C4461 C 0.29207 0.5612 0.78251 0.0
C4462 C 0.30125 0.56794 0.81255 0.0
C4463 C 0.31168 0.59784 0.822 0.0
C4464 C 0.30636 0.5883 0.81507 0.0
C4465 C 0.29078 0.561 0.79458 0.0
C4466 C 0.29615 0.57033 0.80175 0.0
H4467 H 0.32688 0.623 0.81837 0.0
H4468 H 0.31926 0.60678 0.8073 0.0
H4469 H 0.31033 0.57465 0.8273 0.0
H4470 H 0.27222 0.53788 0.79659 0.0
H4471 H 0.28265 0.55181 0.80883 0.0
C4472 C 0.4186 0.32508 0.83066 0.0
C4473 C 0.40925 0.31816 0.83444 0.0
C4474 C 0.4281 0.32016 0.82513 0.0
C4475 C 0.44265 0.29201 0.82105 0.0
H4476 H 0.45667 0.30709 0.79453 0.0
C4477 C 0.47105 0.26806 0.78849 0.0
C4478 C 0.48053 0.27384 0.78345 0.0
C4479 C 0.46362 0.27381 0.79593 0.0
C4480 C 0.45299 0.30285 0.80204 0.0
H4481 H 0.40245 0.30065 0.83498 0.0
H4482 H 0.41888 0.29212 0.82534 0.0
H4483 H 0.44106 0.31654 0.8048 0.0
H4484 H 0.48992 0.2901 0.78256 0.0
H4485 H 0.47691 0.30022 0.79565 0.0
H4486 H 0.4544 0.27821 0.81815 0.0
C4487 C 0.41905 0.30132 0.82689 0.0
C4488 C 0.44401 0.30827 0.80793 0.0
C4489 C 0.40959 0.30623 0.83241 0.0
C4490 C 0.48271 0.28541 0.78639 0.0
C4491 C 0.47519 0.29122 0.79377 0.0
C4492 C 0.45159 0.28659 0.81516 0.0
C4493 C 0.42849 0.30819 0.82323 0.0
C4494 C 0.43858 0.30283 0.8174 0.0
C4495 C 0.46543 0.28554 0.79847 0.0
C4496 C 0.45676 0.29185 0.80546 0.0
H4497 H 0.4187 0.33429 0.83218 0.0
H4498 H 0.43525 0.32572 0.82254 0.0
H4499 H 0.43888 0.28767 0.82847 0.0
H4500 H 0.46917 0.25913 0.7864 0.0
H4501 H 0.45616 0.26917 0.79929 0.0
C4502 C 0.3285 0.41323 0.2186 0.0
C4503 C 0.3286 0.41061 0.20676 0.0
C4504 C 0.32229 0.42261 0.22271 0.0
C4505 C 0.2982 0.44207 0.21532 0.0
H4506 H 0.31113 0.46034 0.2403 0.0
C4507 C 0.27056 0.47129 0.24413 0.0
C4508 C 0.27549 0.48146 0.24865 0.0
C4509 C 0.27714 0.46384 0.23745 0.0
C4510 C 0.30744 0.45545 0.23321 0.0
H4511 H 0.32219 0.41591 0.18994 0.0
H4512 H 0.3113 0.43229 0.19711 0.0
H4513 H 0.32254 0.44506 0.23185 0.0
H4514 H 0.29104 0.49208 0.24919 0.0
H4515 H 0.30254 0.47913 0.23736 0.0
H4516 H 0.28309 0.45249 0.21669 0.0
C4517 C 0.31597 0.42699 0.20325 0.0
C4518 C 0.31393 0.44657 0.22847 0.0
C4519 C 0.32221 0.41759 0.19913 0.0
C4520 C 0.28699 0.48433 0.24581 0.0
C4521 C 0.2936 0.47683 0.23914 0.0
C4522 C 0.29169 0.45096 0.22008 0.0
C4523 C 0.31598 0.42966 0.21509 0.0
C4524 C 0.30933 0.43963 0.21958 0.0
C4525 C 0.28884 0.46635 0.23511 0.0
C4526 C 0.29616 0.45766 0.22921 0.0
H4527 H 0.33311 0.40792 0.22478 0.0
H4528 H 0.3223 0.42423 0.23191 0.0
H4529 H 0.29435 0.43689 0.20853 0.0
H4530 H 0.26168 0.4689 0.24607 0.0
H4531 H 0.27317 0.45583 0.23458 0.0
C4532 C 0.60826 0.32484 0.20038 0.0
C4533 C 0.61705 0.31804 0.19568 0.0
C4534 C 0.59901 0.31971 0.20641 0.0
C4535 C 0.59105 0.29302 0.2223 0.0
H4536 H 0.55943 0.30307 0.21795 0.0
C4537 C 0.55354 0.26731 0.24235 0.0
C4538 C 0.54485 0.27352 0.24789 0.0
C4539 C 0.56151 0.27291 0.23514 0.0
C4540 C 0.56822 0.30023 0.21934 0.0
H4541 H 0.62302 0.3005 0.1938 0.0
H4542 H 0.6069 0.29161 0.20411 0.0
H4543 H 0.57513 0.31269 0.20735 0.0
H4544 H 0.5373 0.29037 0.2498 0.0
H4545 H 0.55134 0.30027 0.23723 0.0
H4546 H 0.58427 0.28067 0.23432 0.0
C4547 C 0.60716 0.30091 0.20322 0.0
C4548 C 0.57723 0.30575 0.21327 0.0
C4549 C 0.61635 0.30601 0.19718 0.0
C4550 C 0.54388 0.28537 0.24556 0.0
C4551 C 0.55193 0.29102 0.23838 0.0
C4552 C 0.58209 0.28754 0.22835 0.0
C4553 C 0.59837 0.30768 0.20795 0.0
C4554 C 0.58875 0.30214 0.21461 0.0
C4555 C 0.56107 0.2849 0.23337 0.0
C4556 C 0.57053 0.29097 0.22689 0.0
H4557 H 0.60847 0.33412 0.19931 0.0
H4558 H 0.59244 0.3252 0.21001 0.0
H4559 H 0.59983 0.29017 0.22374 0.0
H4560 H 0.55442 0.25814 0.24391 0.0
H4561 H 0.56821 0.26785 0.23118 0.0
C4562 C 0.41892 0.71128 0.19049 0.0
C4563 C 0.40997 0.70489 0.19583 0.0
C4564 C 0.42806 0.71595 0.19702 0.0
C4565 C 0.43527 0.72474 0.22689 0.0
H4566 H 0.46696 0.72533 0.21596 0.0
C4567 C 0.47233 0.73947 0.25651 0.0
C4568 C 0.48057 0.7472 0.2519 0.0
C4569 C 0.46453 0.73363 0.24931 0.0
C4570 C 0.45814 0.72531 0.21908 0.0
H4571 H 0.40373 0.69837 0.21229 0.0
H4572 H 0.41974 0.70626 0.22361 0.0
H4573 H 0.45171 0.71642 0.20412 0.0
H4574 H 0.48748 0.75448 0.23607 0.0
H4575 H 0.47375 0.74426 0.22338 0.0
H4576 H 0.44161 0.73364 0.24178 0.0
C4577 C 0.41963 0.7078 0.21437 0.0
C4578 C 0.4494 0.72022 0.2123 0.0
C4579 C 0.4105 0.70314 0.20785 0.0
C4580 C 0.48124 0.74853 0.23985 0.0
C4581 C 0.47337 0.74269 0.2326 0.0
C4582 C 0.44398 0.7298 0.23364 0.0
C4583 C 0.42847 0.71437 0.20907 0.0
C4584 C 0.43785 0.71982 0.21616 0.0
C4585 C 0.46473 0.7354 0.2373 0.0
C4586 C 0.45554 0.73009 0.22988 0.0
H4587 H 0.41888 0.71268 0.18124 0.0
H4588 H 0.43466 0.72103 0.19265 0.0
H4589 H 0.42646 0.72485 0.23002 0.0
H4590 H 0.47174 0.73812 0.26576 0.0
H4591 H 0.45819 0.72786 0.2532 0.0
loop_
_geom_bond_atom_site_label_1
_geom_bond_atom_site_label_2
_geom_bond_distance
_geom_bond_site_symmetry_2
_ccdc_geom_bond_type
C0 C1 1.264 . S
C0 C5 1.479 . S
C0 C10 1.465 . S
C1 C0 1.264 . S
C1 C3 1.339 . S
C1 H28 0.931 . S
C2 C3 1.395 . S
C2 C4 1.320 . S
C3 C1 1.339 . S
C3 C2 1.395 . S
C3 H29 0.929 . S
C4 C2 1.320 . S
C4 C5 1.405 . S
C4 H30 0.930 . S
C5 C0 1.479 . S
C5 C4 1.405 . S
C5 H31 0.931 . S
U6 O7 2.454 . S
U6 O8 2.458 . S
U6 C9 2.984 . S
U6 C10 2.847 . S
U6 C23 2.882 . S
U6 O24 2.441 . S
U6 O25 2.420 . S
U6 O26 2.455 . S
U6 O27 2.449 . S
O7 U6 2.454 . S
O7 C9 1.353 . S
O8 U6 2.458 . S
O8 C9 1.286 . S
C9 U6 2.984 . S
C9 O7 1.353 . S
C9 O8 1.286 . S
C9 C11 1.363 . S
C10 C0 1.465 . S
C10 U6 2.847 . S
C10 O24 1.249 . S
C10 O25 1.202 . S
C11 C9 1.363 . S
C11 C13 1.408 . S
C11 C16 1.342 . S
C12 C13 1.310 . S
C12 C15 1.461 . S
C12 H32 0.932 . S
C13 C11 1.408 . S
C13 C12 1.310 . S
C13 H33 0.930 . S
C14 C15 1.474 . S
C14 C16 1.285 . S
C14 H34 0.929 . S
C15 C12 1.461 . S
C15 C14 1.474 . S
C16 C11 1.342 . S
C16 C14 1.285 . S
C16 H35 0.930 . S
C17 C20 1.424 . S
C17 C22 1.245 . S
C17 C23 1.428 . S
C18 C21 1.260 . S
C18 C22 1.477 . S
C18 H36 0.932 . S
C19 C20 1.384 . S
C19 C21 1.479 . S
C19 H37 0.929 . S
C20 C17 1.424 . S
C20 C19 1.384 . S
C20 H38 0.928 . S
C21 C18 1.260 . S
C21 C19 1.479 . S
C22 C17 1.245 . S
C22 C18 1.477 . S
C22 H39 0.932 . S
C23 U6 2.882 . S
C23 C17 1.428 . S
C23 O26 1.301 . S
C23 O27 1.282 . S
O24 U6 2.441 . S
O24 C10 1.249 . S
O25 U6 2.420 . S
O25 C10 1.202 . S
O26 U6 2.455 . S
O26 C23 1.301 . S
O27 U6 2.449 . S
O27 C23 1.282 . S
H28 C1 0.931 . S
H29 C3 0.929 . S
H30 C4 0.930 . S
H31 C5 0.931 . S
H32 C12 0.932 . S
H33 C13 0.930 . S
H34 C14 0.929 . S
H35 C16 0.930 . S
H36 C18 0.932 . S
H37 C19 0.929 . S
H38 C20 0.928 . S
H39 C22 0.932 . S
C40 C41 1.264 . S
C40 C45 1.479 . S
C40 C50 1.465 . S
C41 C40 1.264 . S
C41 C43 1.339 . S
C41 H68 0.931 . S
C42 C43 1.395 . S
C42 C44 1.320 . S
C43 C41 1.339 . S
C43 C42 1.395 . S
C43 H69 0.929 . S
C44 C42 1.320 . S
C44 C45 1.405 . S
C44 H70 0.930 . S
C45 C40 1.479 . S
C45 C44 1.405 . S
C45 H71 0.931 . S
U46 O47 2.454 . S
U46 O48 2.458 . S
U46 C49 2.984 . S
U46 C50 2.847 . S
U46 C63 2.882 . S
U46 O64 2.441 . S
U46 O65 2.420 . S
U46 O66 2.455 . S
U46 O67 2.449 . S
O47 U46 2.454 . S
O47 C49 1.353 . S
O48 U46 2.458 . S
O48 C49 1.286 . S
C49 U46 2.984 . S
C49 O47 1.353 . S
C49 O48 1.286 . S
C49 C51 1.363 . S
C50 C40 1.465 . S
C50 U46 2.847 . S
C50 O64 1.249 . S
C50 O65 1.202 . S
C51 C49 1.363 . S
C51 C53 1.408 . S
C51 C56 1.342 . S
C52 C53 1.310 . S
C52 C55 1.461 . S
C52 H72 0.932 . S
C53 C51 1.408 . S
C53 C52 1.310 . S
C53 H73 0.930 . S
C54 C55 1.474 . S
C54 C56 1.285 . S
C54 H74 0.929 . S
C55 C52 1.461 . S
C55 C54 1.474 . S
C56 C51 1.342 . S
C56 C54 1.285 . S
C56 H75 0.930 . S
C57 C60 1.424 . S
C57 C62 1.245 . S
C57 C63 1.428 . S
C58 C61 1.260 . S
C58 C62 1.477 . S
C58 H76 0.932 . S
C59 C60 1.384 . S
C59 C61 1.479 . S
C59 H77 0.929 . S
C60 C57 1.424 . S
C60 C59 1.384 . S
C60 H78 0.928 . S
C61 C58 1.260 . S
C61 C59 1.479 . S
C62 C57 1.245 . S
C62 C58 1.477 . S
C62 H79 0.932 . S
C63 U46 2.882 . S
C63 C57 1.428 . S
C63 O66 1.301 . S
C63 O67 1.282 . S
O64 U46 2.441 . S
O64 C50 1.249 . S
O65 U46 2.420 . S
O65 C50 1.202 . S
O66 U46 2.455 . S
O66 C63 1.301 . S
O67 U46 2.449 . S
O67 C63 1.282 . S
H68 C41 0.931 . S
H69 C43 0.929 . S
H70 C44 0.930 . S
H71 C45 0.931 . S
H72 C52 0.932 . S
H73 C53 0.930 . S
H74 C54 0.929 . S
H75 C56 0.930 . S
H76 C58 0.932 . S
H77 C59 0.929 . S
H78 C60 0.928 . S
H79 C62 0.932 . S
C80 C81 1.264 . S
C80 C85 1.479 . S
C80 C90 1.465 . S
C81 C80 1.264 . S
C81 C83 1.339 . S
C81 H108 0.931 . S
C82 C83 1.395 . S
C82 C84 1.320 . S
C83 C81 1.339 . S
C83 C82 1.395 . S
C83 H109 0.929 . S
C84 C82 1.320 . S
C84 C85 1.405 . S
C84 H110 0.930 . S
C85 C80 1.479 . S
C85 C84 1.405 . S
C85 H111 0.931 . S
U86 O87 2.454 . S
U86 O88 2.458 . S
U86 C89 2.984 . S
U86 C90 2.847 . S
U86 C103 2.882 . S
U86 O104 2.441 . S
U86 O105 2.420 . S
U86 O106 2.455 . S
U86 O107 2.449 . S
O87 U86 2.454 . S
O87 C89 1.353 . S
O88 U86 2.458 . S
O88 C89 1.286 . S
C89 U86 2.984 . S
C89 O87 1.353 . S
C89 O88 1.286 . S
C89 C91 1.363 . S
C90 C80 1.465 . S
C90 U86 2.847 . S
C90 O104 1.249 . S
C90 O105 1.202 . S
C91 C89 1.363 . S
C91 C93 1.408 . S
C91 C96 1.342 . S
C92 C93 1.310 . S
C92 C95 1.461 . S
C92 H112 0.932 . S
C93 C91 1.408 . S
C93 C92 1.310 . S
C93 H113 0.930 . S
C94 C95 1.474 . S
C94 C96 1.285 . S
C94 H114 0.929 . S
C95 C92 1.461 . S
C95 C94 1.474 . S
C96 C91 1.342 . S
C96 C94 1.285 . S
C96 H115 0.930 . S
C97 C100 1.424 . S
C97 C102 1.245 . S
C97 C103 1.428 . S
C98 C101 1.260 . S
C98 C102 1.477 . S
C98 H116 0.932 . S
C99 C100 1.384 . S
C99 C101 1.479 . S
C99 H117 0.929 . S
C100 C97 1.424 . S
C100 C99 1.384 . S
C100 H118 0.928 . S
C101 C98 1.260 . S
C101 C99 1.479 . S
C102 C97 1.245 . S
C102 C98 1.477 . S
C102 H119 0.932 . S
C103 U86 2.882 . S
C103 C97 1.428 . S
C103 O106 1.301 . S
C103 O107 1.282 . S
O104 U86 2.441 . S
O104 C90 1.249 . S
O105 U86 2.420 . S
O105 C90 1.202 . S
O106 U86 2.455 . S
O106 C103 1.301 . S
O107 U86 2.449 . S
O107 C103 1.282 . S
H108 C81 0.931 . S
H109 C83 0.929 . S
H110 C84 0.930 . S
H111 C85 0.931 . S
H112 C92 0.932 . S
H113 C93 0.930 . S
H114 C94 0.929 . S
H115 C96 0.930 . S
H116 C98 0.932 . S
H117 C99 0.929 . S
H118 C100 0.928 . S
H119 C102 0.932 . S
C120 C121 1.264 . S
C120 C125 1.479 . S
C120 C130 1.465 . S
C121 C120 1.264 . S
C121 C123 1.339 . S
C121 H148 0.931 . S
C122 C123 1.395 . S
C122 C124 1.320 . S
C123 C121 1.339 . S
C123 C122 1.395 . S
C123 H149 0.929 . S
C124 C122 1.320 . S
C124 C125 1.405 . S
C124 H150 0.930 . S
C125 C120 1.479 . S
C125 C124 1.405 . S
C125 H151 0.931 . S
U126 O127 2.454 . S
U126 O128 2.458 . S
U126 C129 2.984 . S
U126 C130 2.847 . S
U126 C143 2.882 . S
U126 O144 2.441 . S
U126 O145 2.420 . S
U126 O146 2.455 . S
U126 O147 2.449 . S
O127 U126 2.454 . S
O127 C129 1.353 . S
O128 U126 2.458 . S
O128 C129 1.286 . S
C129 U126 2.984 . S
C129 O127 1.353 . S
C129 O128 1.286 . S
C129 C131 1.363 . S
C130 C120 1.465 . S
C130 U126 2.847 . S
C130 O144 1.249 . S
C130 O145 1.202 . S
C131 C129 1.363 . S
C131 C133 1.408 . S
C131 C136 1.342 . S
C132 C133 1.310 . S
C132 C135 1.461 . S
C132 H152 0.932 . S
C133 C131 1.408 . S
C133 C132 1.310 . S
C133 H153 0.930 . S
C134 C135 1.474 . S
C134 C136 1.285 . S
C134 H154 0.929 . S
C135 C132 1.461 . S
C135 C134 1.474 . S
C136 C131 1.342 . S
C136 C134 1.285 . S
C136 H155 0.930 . S
C137 C140 1.424 . S
C137 C142 1.245 . S
C137 C143 1.428 . S
C138 C141 1.260 . S
C138 C142 1.477 . S
C138 H156 0.932 . S
C139 C140 1.384 . S
C139 C141 1.479 . S
C139 H157 0.929 . S
C140 C137 1.424 . S
C140 C139 1.384 . S
C140 H158 0.928 . S
C141 C138 1.260 . S
C141 C139 1.479 . S
C142 C137 1.245 . S
C142 C138 1.477 . S
C142 H159 0.932 . S
C143 U126 2.882 . S
C143 C137 1.428 . S
C143 O146 1.301 . S
C143 O147 1.282 . S
O144 U126 2.441 . S
O144 C130 1.249 . S
O145 U126 2.420 . S
O145 C130 1.202 . S
O146 U126 2.455 . S
O146 C143 1.301 . S
O147 U126 2.449 . S
O147 C143 1.282 . S
H148 C121 0.931 . S
H149 C123 0.929 . S
H150 C124 0.930 . S
H151 C125 0.931 . S
H152 C132 0.932 . S
H153 C133 0.930 . S
H154 C134 0.929 . S
H155 C136 0.930 . S
H156 C138 0.932 . S
H157 C139 0.929 . S
H158 C140 0.928 . S
H159 C142 0.932 . S
C160 C161 1.264 . S
C160 C165 1.479 . S
C160 C170 1.465 . S
C161 C160 1.264 . S
C161 C163 1.339 . S
C161 H188 0.931 . S
C162 C163 1.395 . S
C162 C164 1.320 . S
C163 C161 1.339 . S
C163 C162 1.395 . S
C163 H189 0.929 . S
C164 C162 1.320 . S
C164 C165 1.405 . S
C164 H190 0.930 . S
C165 C160 1.479 . S
C165 C164 1.405 . S
C165 H191 0.931 . S
U166 O167 2.454 . S
U166 O168 2.458 . S
U166 C169 2.984 . S
U166 C170 2.847 . S
U166 C183 2.882 . S
U166 O184 2.441 . S
U166 O185 2.420 . S
U166 O186 2.455 . S
U166 O187 2.449 . S
O167 U166 2.454 . S
O167 C169 1.353 . S
O168 U166 2.458 . S
O168 C169 1.286 . S
C169 U166 2.984 . S
C169 O167 1.353 . S
C169 O168 1.286 . S
C169 C171 1.363 . S
C170 C160 1.465 . S
C170 U166 2.847 . S
C170 O184 1.249 . S
C170 O185 1.202 . S
C171 C169 1.363 . S
C171 C173 1.408 . S
C171 C176 1.342 . S
C172 C173 1.310 . S
C172 C175 1.461 . S
C172 H192 0.932 . S
C173 C171 1.408 . S
C173 C172 1.310 . S
C173 H193 0.930 . S
C174 C175 1.474 . S
C174 C176 1.285 . S
C174 H194 0.929 . S
C175 C172 1.461 . S
C175 C174 1.474 . S
C176 C171 1.342 . S
C176 C174 1.285 . S
C176 H195 0.930 . S
C177 C180 1.424 . S
C177 C182 1.245 . S
C177 C183 1.428 . S
C178 C181 1.260 . S
C178 C182 1.477 . S
C178 H196 0.932 . S
C179 C180 1.384 . S
C179 C181 1.479 . S
C179 H197 0.929 . S
C180 C177 1.424 . S
C180 C179 1.384 . S
C180 H198 0.928 . S
C181 C178 1.260 . S
C181 C179 1.479 . S
C182 C177 1.245 . S
C182 C178 1.477 . S
C182 H199 0.932 . S
C183 U166 2.882 . S
C183 C177 1.428 . S
C183 O186 1.301 . S
C183 O187 1.282 . S
O184 U166 2.441 . S
O184 C170 1.249 . S
O185 U166 2.420 . S
O185 C170 1.202 . S
O186 U166 2.455 . S
O186 C183 1.301 . S
O187 U166 2.449 . S
O187 C183 1.282 . S
H188 C161 0.931 . S
H189 C163 0.929 . S
H190 C164 0.930 . S
H191 C165 0.931 . S
H192 C172 0.932 . S
H193 C173 0.930 . S
H194 C174 0.929 . S
H195 C176 0.930 . S
H196 C178 0.932 . S
H197 C179 0.929 . S
H198 C180 0.928 . S
H199 C182 0.932 . S
C200 C201 1.264 . S
C200 C205 1.479 . S
C200 C210 1.465 . S
C201 C200 1.264 . S
C201 C203 1.339 . S
C201 H228 0.931 . S
C202 C203 1.395 . S
C202 C204 1.320 . S
C203 C201 1.339 . S
C203 C202 1.395 . S
C203 H229 0.929 . S
C204 C202 1.320 . S
C204 C205 1.405 . S
C204 H230 0.930 . S
C205 C200 1.479 . S
C205 C204 1.405 . S
C205 H231 0.931 . S
U206 O207 2.454 . S
U206 O208 2.458 . S
U206 C209 2.984 . S
U206 C210 2.847 . S
U206 C223 2.882 . S
U206 O224 2.441 . S
U206 O225 2.420 . S
U206 O226 2.455 . S
U206 O227 2.449 . S
O207 U206 2.454 . S
O207 C209 1.353 . S
O208 U206 2.458 . S
O208 C209 1.286 . S
C209 U206 2.984 . S
C209 O207 1.353 . S
C209 O208 1.286 . S
C209 C211 1.363 . S
C210 C200 1.465 . S
C210 U206 2.847 . S
C210 O224 1.249 . S
C210 O225 1.202 . S
C211 C209 1.363 . S
C211 C213 1.408 . S
C211 C216 1.342 . S
C212 C213 1.310 . S
C212 C215 1.461 . S
C212 H232 0.932 . S
C213 C211 1.408 . S
C213 C212 1.310 . S
C213 H233 0.930 . S
C214 C215 1.474 . S
C214 C216 1.285 . S
C214 H234 0.929 . S
C215 C212 1.461 . S
C215 C214 1.474 . S
C216 C211 1.342 . S
C216 C214 1.285 . S
C216 H235 0.930 . S
C217 C220 1.424 . S
C217 C222 1.245 . S
C217 C223 1.428 . S
C218 C221 1.260 . S
C218 C222 1.477 . S
C218 H236 0.932 . S
C219 C220 1.384 . S
C219 C221 1.479 . S
C219 H237 0.929 . S
C220 C217 1.424 . S
C220 C219 1.384 . S
C220 H238 0.928 . S
C221 C218 1.260 . S
C221 C219 1.479 . S
C222 C217 1.245 . S
C222 C218 1.477 . S
C222 H239 0.932 . S
C223 U206 2.882 . S
C223 C217 1.428 . S
C223 O226 1.301 . S
C223 O227 1.282 . S
O224 U206 2.441 . S
O224 C210 1.249 . S
O225 U206 2.420 . S
O225 C210 1.202 . S
O226 U206 2.455 . S
O226 C223 1.301 . S
O227 U206 2.449 . S
O227 C223 1.282 . S
H228 C201 0.931 . S
H229 C203 0.929 . S
H230 C204 0.930 . S
H231 C205 0.931 . S
H232 C212 0.932 . S
H233 C213 0.930 . S
H234 C214 0.929 . S
H235 C216 0.930 . S
H236 C218 0.932 . S
H237 C219 0.929 . S
H238 C220 0.928 . S
H239 C222 0.932 . S
C240 C241 1.264 . S
C240 C245 1.479 . S
C240 C250 1.465 . S
C241 C240 1.264 . S
C241 C243 1.339 . S
C241 H268 0.931 . S
C242 C243 1.395 . S
C242 C244 1.320 . S
C243 C241 1.339 . S
C243 C242 1.395 . S
C243 H269 0.929 . S
C244 C242 1.320 . S
C244 C245 1.405 . S
C244 H270 0.930 . S
C245 C240 1.479 . S
C245 C244 1.405 . S
C245 H271 0.931 . S
U246 O247 2.454 . S
U246 O248 2.458 . S
U246 C249 2.984 . S
U246 C250 2.847 . S
U246 C263 2.882 . S
U246 O264 2.441 . S
U246 O265 2.420 . S
U246 O266 2.455 . S
U246 O267 2.449 . S
O247 U246 2.454 . S
O247 C249 1.353 . S
O248 U246 2.458 . S
O248 C249 1.286 . S
C249 U246 2.984 . S
C249 O247 1.353 . S
C249 O248 1.286 . S
C249 C251 1.363 . S
C250 C240 1.465 . S
C250 U246 2.847 . S
C250 O264 1.249 . S
C250 O265 1.202 . S
C251 C249 1.363 . S
C251 C253 1.408 . S
C251 C256 1.342 . S
C252 C253 1.310 . S
C252 C255 1.461 . S
C252 H272 0.932 . S
C253 C251 1.408 . S
C253 C252 1.310 . S
C253 H273 0.930 . S
C254 C255 1.474 . S
C254 C256 1.285 . S
C254 H274 0.929 . S
C255 C252 1.461 . S
C255 C254 1.474 . S
C256 C251 1.342 . S
C256 C254 1.285 . S
C256 H275 0.930 . S
C257 C260 1.424 . S
C257 C262 1.245 . S
C257 C263 1.428 . S
C258 C261 1.260 . S
C258 C262 1.477 . S
C258 H276 0.932 . S
C259 C260 1.384 . S
C259 C261 1.479 . S
C259 H277 0.929 . S
C260 C257 1.424 . S
C260 C259 1.384 . S
C260 H278 0.928 . S
C261 C258 1.260 . S
C261 C259 1.479 . S
C262 C257 1.245 . S
C262 C258 1.477 . S
C262 H279 0.932 . S
C263 U246 2.882 . S
C263 C257 1.428 . S
C263 O266 1.301 . S
C263 O267 1.282 . S
O264 U246 2.441 . S
O264 C250 1.249 . S
O265 U246 2.420 . S
O265 C250 1.202 . S
O266 U246 2.455 . S
O266 C263 1.301 . S
O267 U246 2.449 . S
O267 C263 1.282 . S
H268 C241 0.931 . S
H269 C243 0.929 . S
H270 C244 0.930 . S
H271 C245 0.931 . S
H272 C252 0.932 . S
H273 C253 0.930 . S
H274 C254 0.929 . S
H275 C256 0.930 . S
H276 C258 0.932 . S
H277 C259 0.929 . S
H278 C260 0.928 . S
H279 C262 0.932 . S
C280 C281 1.264 . S
C280 C285 1.479 . S
C280 C290 1.465 . S
C281 C280 1.264 . S
C281 C283 1.339 . S
C281 H308 0.931 . S
C282 C283 1.395 . S
C282 C284 1.320 . S
C283 C281 1.339 . S
C283 C282 1.395 . S
C283 H309 0.929 . S
C284 C282 1.320 . S
C284 C285 1.405 . S
C284 H310 0.930 . S
C285 C280 1.479 . S
C285 C284 1.405 . S
C285 H311 0.931 . S
U286 O287 2.454 . S
U286 O288 2.458 . S
U286 C289 2.984 . S
U286 C290 2.847 . S
U286 C303 2.882 . S
U286 O304 2.441 . S
U286 O305 2.420 . S
U286 O306 2.455 . S
U286 O307 2.449 . S
O287 U286 2.454 . S
O287 C289 1.353 . S
O288 U286 2.458 . S
O288 C289 1.286 . S
C289 U286 2.984 . S
C289 O287 1.353 . S
C289 O288 1.286 . S
C289 C291 1.363 . S
C290 C280 1.465 . S
C290 U286 2.847 . S
C290 O304 1.249 . S
C290 O305 1.202 . S
C291 C289 1.363 . S
C291 C293 1.408 . S
C291 C296 1.342 . S
C292 C293 1.310 . S
C292 C295 1.461 . S
C292 H312 0.932 . S
C293 C291 1.408 . S
C293 C292 1.310 . S
C293 H313 0.930 . S
C294 C295 1.474 . S
C294 C296 1.285 . S
C294 H314 0.929 . S
C295 C292 1.461 . S
C295 C294 1.474 . S
C296 C291 1.342 . S
C296 C294 1.285 . S
C296 H315 0.930 . S
C297 C300 1.424 . S
C297 C302 1.245 . S
C297 C303 1.428 . S
C298 C301 1.260 . S
C298 C302 1.477 . S
C298 H316 0.932 . S
C299 C300 1.384 . S
C299 C301 1.479 . S
C299 H317 0.929 . S
C300 C297 1.424 . S
C300 C299 1.384 . S
C300 H318 0.928 . S
C301 C298 1.260 . S
C301 C299 1.479 . S
C302 C297 1.245 . S
C302 C298 1.477 . S
C302 H319 0.932 . S
C303 U286 2.882 . S
C303 C297 1.428 . S
C303 O306 1.301 . S
C303 O307 1.282 . S
O304 U286 2.441 . S
O304 C290 1.249 . S
O305 U286 2.420 . S
O305 C290 1.202 . S
O306 U286 2.455 . S
O306 C303 1.301 . S
O307 U286 2.449 . S
O307 C303 1.282 . S
H308 C281 0.931 . S
H309 C283 0.929 . S
H310 C284 0.930 . S
H311 C285 0.931 . S
H312 C292 0.932 . S
H313 C293 0.930 . S
H314 C294 0.929 . S
H315 C296 0.930 . S
H316 C298 0.932 . S
H317 C299 0.929 . S
H318 C300 0.928 . S
H319 C302 0.932 . S
C320 C321 1.264 . S
C320 C325 1.479 . S
C320 C330 1.465 . S
C321 C320 1.264 . S
C321 C323 1.339 . S
C321 H348 0.931 . S
C322 C323 1.395 . S
C322 C324 1.320 . S
C323 C321 1.339 . S
C323 C322 1.395 . S
C323 H349 0.929 . S
C324 C322 1.320 . S
C324 C325 1.405 . S
C324 H350 0.930 . S
C325 C320 1.479 . S
C325 C324 1.405 . S
C325 H351 0.931 . S
U326 O327 2.454 . S
U326 O328 2.458 . S
U326 C329 2.984 . S
U326 C330 2.847 . S
U326 C343 2.882 . S
U326 O344 2.441 . S
U326 O345 2.420 . S
U326 O346 2.455 . S
U326 O347 2.449 . S
O327 U326 2.454 . S
O327 C329 1.353 . S
O328 U326 2.458 . S
O328 C329 1.286 . S
C329 U326 2.984 . S
C329 O327 1.353 . S
C329 O328 1.286 . S
C329 C331 1.363 . S
C330 C320 1.465 . S
C330 U326 2.847 . S
C330 O344 1.249 . S
C330 O345 1.202 . S
C331 C329 1.363 . S
C331 C333 1.408 . S
C331 C336 1.342 . S
C332 C333 1.310 . S
C332 C335 1.461 . S
C332 H352 0.932 . S
C333 C331 1.408 . S
C333 C332 1.310 . S
C333 H353 0.930 . S
C334 C335 1.474 . S
C334 C336 1.285 . S
C334 H354 0.929 . S
C335 C332 1.461 . S
C335 C334 1.474 . S
C336 C331 1.342 . S
C336 C334 1.285 . S
C336 H355 0.930 . S
C337 C340 1.424 . S
C337 C342 1.245 . S
C337 C343 1.428 . S
C338 C341 1.260 . S
C338 C342 1.477 . S
C338 H356 0.932 . S
C339 C340 1.384 . S
C339 C341 1.479 . S
C339 H357 0.929 . S
C340 C337 1.424 . S
C340 C339 1.384 . S
C340 H358 0.928 . S
C341 C338 1.260 . S
C341 C339 1.479 . S
C342 C337 1.245 . S
C342 C338 1.477 . S
C342 H359 0.932 . S
C343 U326 2.882 . S
C343 C337 1.428 . S
C343 O346 1.301 . S
C343 O347 1.282 . S
O344 U326 2.441 . S
O344 C330 1.249 . S
O345 U326 2.420 . S
O345 C330 1.202 . S
O346 U326 2.455 . S
O346 C343 1.301 . S
O347 U326 2.449 . S
O347 C343 1.282 . S
H348 C321 0.931 . S
H349 C323 0.929 . S
H350 C324 0.930 . S
H351 C325 0.931 . S
H352 C332 0.932 . S
H353 C333 0.930 . S
H354 C334 0.929 . S
H355 C336 0.930 . S
H356 C338 0.932 . S
H357 C339 0.929 . S
H358 C340 0.928 . S
H359 C342 0.932 . S
C360 C361 1.264 . S
C360 C365 1.479 . S
C360 C370 1.465 . S
C361 C360 1.264 . S
C361 C363 1.339 . S
C361 H388 0.931 . S
C362 C363 1.395 . S
C362 C364 1.320 . S
C363 C361 1.339 . S
C363 C362 1.395 . S
C363 H389 0.929 . S
C364 C362 1.320 . S
C364 C365 1.405 . S
C364 H390 0.930 . S
C365 C360 1.479 . S
C365 C364 1.405 . S
C365 H391 0.931 . S
U366 O367 2.454 . S
U366 O368 2.458 . S
U366 C369 2.984 . S
U366 C370 2.847 . S
U366 C383 2.882 . S
U366 O384 2.441 . S
U366 O385 2.420 . S
U366 O386 2.455 . S
U366 O387 2.449 . S
O367 U366 2.454 . S
O367 C369 1.353 . S
O368 U366 2.458 . S
O368 C369 1.286 . S
C369 U366 2.984 . S
C369 O367 1.353 . S
C369 O368 1.286 . S
C369 C371 1.363 . S
C370 C360 1.465 . S
C370 U366 2.847 . S
C370 O384 1.249 . S
C370 O385 1.202 . S
C371 C369 1.363 . S
C371 C373 1.408 . S
C371 C376 1.342 . S
C372 C373 1.310 . S
C372 C375 1.461 . S
C372 H392 0.932 . S
C373 C371 1.408 . S
C373 C372 1.310 . S
C373 H393 0.930 . S
C374 C375 1.474 . S
C374 C376 1.285 . S
C374 H394 0.929 . S
C375 C372 1.461 . S
C375 C374 1.474 . S
C376 C371 1.342 . S
C376 C374 1.285 . S
C376 H395 0.930 . S
C377 C380 1.424 . S
C377 C382 1.245 . S
C377 C383 1.428 . S
C378 C381 1.260 . S
C378 C382 1.477 . S
C378 H396 0.932 . S
C379 C380 1.384 . S
C379 C381 1.479 . S
C379 H397 0.929 . S
C380 C377 1.424 . S
C380 C379 1.384 . S
C380 H398 0.928 . S
C381 C378 1.260 . S
C381 C379 1.479 . S
C382 C377 1.245 . S
C382 C378 1.477 . S
C382 H399 0.932 . S
C383 U366 2.882 . S
C383 C377 1.428 . S
C383 O386 1.301 . S
C383 O387 1.282 . S
O384 U366 2.441 . S
O384 C370 1.249 . S
O385 U366 2.420 . S
O385 C370 1.202 . S
O386 U366 2.455 . S
O386 C383 1.301 . S
O387 U366 2.449 . S
O387 C383 1.282 . S
H388 C361 0.931 . S
H389 C363 0.929 . S
H390 C364 0.930 . S
H391 C365 0.931 . S
H392 C372 0.932 . S
H393 C373 0.930 . S
H394 C374 0.929 . S
H395 C376 0.930 . S
H396 C378 0.932 . S
H397 C379 0.929 . S
H398 C380 0.928 . S
H399 C382 0.932 . S
C400 C401 1.264 . S
C400 C405 1.479 . S
C400 C410 1.465 . S
C401 C400 1.264 . S
C401 C403 1.339 . S
C401 H428 0.931 . S
C402 C403 1.395 . S
C402 C404 1.320 . S
C403 C401 1.339 . S
C403 C402 1.395 . S
C403 H429 0.929 . S
C404 C402 1.320 . S
C404 C405 1.405 . S
C404 H430 0.930 . S
C405 C400 1.479 . S
C405 C404 1.405 . S
C405 H431 0.931 . S
U406 O407 2.454 . S
U406 O408 2.458 . S
U406 C409 2.984 . S
U406 C410 2.847 . S
U406 C423 2.882 . S
U406 O424 2.441 . S
U406 O425 2.420 . S
U406 O426 2.455 . S
U406 O427 2.449 . S
O407 U406 2.454 . S
O407 C409 1.353 . S
O408 U406 2.458 . S
O408 C409 1.286 . S
C409 U406 2.984 . S
C409 O407 1.353 . S
C409 O408 1.286 . S
C409 C411 1.363 . S
C410 C400 1.465 . S
C410 U406 2.847 . S
C410 O424 1.249 . S
C410 O425 1.202 . S
C411 C409 1.363 . S
C411 C413 1.408 . S
C411 C416 1.342 . S
C412 C413 1.310 . S
C412 C415 1.461 . S
C412 H432 0.932 . S
C413 C411 1.408 . S
C413 C412 1.310 . S
C413 H433 0.930 . S
C414 C415 1.474 . S
C414 C416 1.285 . S
C414 H434 0.929 . S
C415 C412 1.461 . S
C415 C414 1.474 . S
C416 C411 1.342 . S
C416 C414 1.285 . S
C416 H435 0.930 . S
C417 C420 1.424 . S
C417 C422 1.245 . S
C417 C423 1.428 . S
C418 C421 1.260 . S
C418 C422 1.477 . S
C418 H436 0.932 . S
C419 C420 1.384 . S
C419 C421 1.479 . S
C419 H437 0.929 . S
C420 C417 1.424 . S
C420 C419 1.384 . S
C420 H438 0.928 . S
C421 C418 1.260 . S
C421 C419 1.479 . S
C422 C417 1.245 . S
C422 C418 1.477 . S
C422 H439 0.932 . S
C423 U406 2.882 . S
C423 C417 1.428 . S
C423 O426 1.301 . S
C423 O427 1.282 . S
O424 U406 2.441 . S
O424 C410 1.249 . S
O425 U406 2.420 . S
O425 C410 1.202 . S
O426 U406 2.455 . S
O426 C423 1.301 . S
O427 U406 2.449 . S
O427 C423 1.282 . S
H428 C401 0.931 . S
H429 C403 0.929 . S
H430 C404 0.930 . S
H431 C405 0.931 . S
H432 C412 0.932 . S
H433 C413 0.930 . S
H434 C414 0.929 . S
H435 C416 0.930 . S
H436 C418 0.932 . S
H437 C419 0.929 . S
H438 C420 0.928 . S
H439 C422 0.932 . S
C440 C441 1.264 . S
C440 C445 1.479 . S
C440 C450 1.465 . S
C441 C440 1.264 . S
C441 C443 1.339 . S
C441 H468 0.931 . S
C442 C443 1.395 . S
C442 C444 1.320 . S
C443 C441 1.339 . S
C443 C442 1.395 . S
C443 H469 0.929 . S
C444 C442 1.320 . S
C444 C445 1.405 . S
C444 H470 0.930 . S
C445 C440 1.479 . S
C445 C444 1.405 . S
C445 H471 0.931 . S
U446 O447 2.454 . S
U446 O448 2.458 . S
U446 C449 2.984 . S
U446 C450 2.847 . S
U446 C463 2.882 . S
U446 O464 2.441 . S
U446 O465 2.420 . S
U446 O466 2.455 . S
U446 O467 2.449 . S
O447 U446 2.454 . S
O447 C449 1.353 . S
O448 U446 2.458 . S
O448 C449 1.286 . S
C449 U446 2.984 . S
C449 O447 1.353 . S
C449 O448 1.286 . S
C449 C451 1.363 . S
C450 C440 1.465 . S
C450 U446 2.847 . S
C450 O464 1.249 . S
C450 O465 1.202 . S
C451 C449 1.363 . S
C451 C453 1.408 . S
C451 C456 1.342 . S
C452 C453 1.310 . S
C452 C455 1.461 . S
C452 H472 0.932 . S
C453 C451 1.408 . S
C453 C452 1.310 . S
C453 H473 0.930 . S
C454 C455 1.474 . S
C454 C456 1.285 . S
C454 H474 0.929 . S
C455 C452 1.461 . S
C455 C454 1.474 . S
C456 C451 1.342 . S
C456 C454 1.285 . S
C456 H475 0.930 . S
C457 C460 1.424 . S
C457 C462 1.245 . S
C457 C463 1.428 . S
C458 C461 1.260 . S
C458 C462 1.477 . S
C458 H476 0.932 . S
C459 C460 1.384 . S
C459 C461 1.479 . S
C459 H477 0.929 . S
C460 C457 1.424 . S
C460 C459 1.384 . S
C460 H478 0.928 . S
C461 C458 1.260 . S
C461 C459 1.479 . S
C462 C457 1.245 . S
C462 C458 1.477 . S
C462 H479 0.932 . S
C463 U446 2.882 . S
C463 C457 1.428 . S
C463 O466 1.301 . S
C463 O467 1.282 . S
O464 U446 2.441 . S
O464 C450 1.249 . S
O465 U446 2.420 . S
O465 C450 1.202 . S
O466 U446 2.455 . S
O466 C463 1.301 . S
O467 U446 2.449 . S
O467 C463 1.282 . S
H468 C441 0.931 . S
H469 C443 0.929 . S
H470 C444 0.930 . S
H471 C445 0.931 . S
H472 C452 0.932 . S
H473 C453 0.930 . S
H474 C454 0.929 . S
H475 C456 0.930 . S
H476 C458 0.932 . S
H477 C459 0.929 . S
H478 C460 0.928 . S
H479 C462 0.932 . S
C480 C481 1.264 . S
C480 C485 1.479 . S
C480 C490 1.465 . S
C481 C480 1.264 . S
C481 C483 1.339 . S
C481 H508 0.931 . S
C482 C483 1.395 . S
C482 C484 1.320 . S
C483 C481 1.339 . S
C483 C482 1.395 . S
C483 H509 0.929 . S
C484 C482 1.320 . S
C484 C485 1.405 . S
C484 H510 0.930 . S
C485 C480 1.479 . S
C485 C484 1.405 . S
C485 H511 0.931 . S
U486 O487 2.454 . S
U486 O488 2.458 . S
U486 C489 2.984 . S
U486 C490 2.847 . S
U486 C503 2.882 . S
U486 O504 2.441 . S
U486 O505 2.420 . S
U486 O506 2.455 . S
U486 O507 2.449 . S
O487 U486 2.454 . S
O487 C489 1.353 . S
O488 U486 2.458 . S
O488 C489 1.286 . S
C489 U486 2.984 . S
C489 O487 1.353 . S
C489 O488 1.286 . S
C489 C491 1.363 . S
C490 C480 1.465 . S
C490 U486 2.847 . S
C490 O504 1.249 . S
C490 O505 1.202 . S
C491 C489 1.363 . S
C491 C493 1.408 . S
C491 C496 1.342 . S
C492 C493 1.310 . S
C492 C495 1.461 . S
C492 H512 0.932 . S
C493 C491 1.408 . S
C493 C492 1.310 . S
C493 H513 0.930 . S
C494 C495 1.474 . S
C494 C496 1.285 . S
C494 H514 0.929 . S
C495 C492 1.461 . S
C495 C494 1.474 . S
C496 C491 1.342 . S
C496 C494 1.285 . S
C496 H515 0.930 . S
C497 C500 1.424 . S
C497 C502 1.245 . S
C497 C503 1.428 . S
C498 C501 1.260 . S
C498 C502 1.477 . S
C498 H516 0.932 . S
C499 C500 1.384 . S
C499 C501 1.479 . S
C499 H517 0.929 . S
C500 C497 1.424 . S
C500 C499 1.384 . S
C500 H518 0.928 . S
C501 C498 1.260 . S
C501 C499 1.479 . S
C502 C497 1.245 . S
C502 C498 1.477 . S
C502 H519 0.932 . S
C503 U486 2.882 . S
C503 C497 1.428 . S
C503 O506 1.301 . S
C503 O507 1.282 . S
O504 U486 2.441 . S
O504 C490 1.249 . S
O505 U486 2.420 . S
O505 C490 1.202 . S
O506 U486 2.455 . S
O506 C503 1.301 . S
O507 U486 2.449 . S
O507 C503 1.282 . S
H508 C481 0.931 . S
H509 C483 0.929 . S
H510 C484 0.930 . S
H511 C485 0.931 . S
H512 C492 0.932 . S
H513 C493 0.930 . S
H514 C494 0.929 . S
H515 C496 0.930 . S
H516 C498 0.932 . S
H517 C499 0.929 . S
H518 C500 0.928 . S
H519 C502 0.932 . S
C520 C521 1.264 . S
C520 C525 1.479 . S
C520 C530 1.465 . S
C521 C520 1.264 . S
C521 C523 1.339 . S
C521 H548 0.931 . S
C522 C523 1.395 . S
C522 C524 1.320 . S
C523 C521 1.339 . S
C523 C522 1.395 . S
C523 H549 0.929 . S
C524 C522 1.320 . S
C524 C525 1.405 . S
C524 H550 0.930 . S
C525 C520 1.479 . S
C525 C524 1.405 . S
C525 H551 0.931 . S
U526 O527 2.454 . S
U526 O528 2.458 . S
U526 C529 2.984 . S
U526 C530 2.847 . S
U526 C543 2.882 . S
U526 O544 2.441 . S
U526 O545 2.420 . S
U526 O546 2.455 . S
U526 O547 2.449 . S
O527 U526 2.454 . S
O527 C529 1.353 . S
O528 U526 2.458 . S
O528 C529 1.286 . S
C529 U526 2.984 . S
C529 O527 1.353 . S
C529 O528 1.286 . S
C529 C531 1.363 . S
C530 C520 1.465 . S
C530 U526 2.847 . S
C530 O544 1.249 . S
C530 O545 1.202 . S
C531 C529 1.363 . S
C531 C533 1.408 . S
C531 C536 1.342 . S
C532 C533 1.310 . S
C532 C535 1.461 . S
C532 H552 0.932 . S
C533 C531 1.408 . S
C533 C532 1.310 . S
C533 H553 0.930 . S
C534 C535 1.474 . S
C534 C536 1.285 . S
C534 H554 0.929 . S
C535 C532 1.461 . S
C535 C534 1.474 . S
C536 C531 1.342 . S
C536 C534 1.285 . S
C536 H555 0.930 . S
C537 C540 1.424 . S
C537 C542 1.245 . S
C537 C543 1.428 . S
C538 C541 1.260 . S
C538 C542 1.477 . S
C538 H556 0.932 . S
C539 C540 1.384 . S
C539 C541 1.479 . S
C539 H557 0.929 . S
C540 C537 1.424 . S
C540 C539 1.384 . S
C540 H558 0.928 . S
C541 C538 1.260 . S
C541 C539 1.479 . S
C542 C537 1.245 . S
C542 C538 1.477 . S
C542 H559 0.932 . S
C543 U526 2.882 . S
C543 C537 1.428 . S
C543 O546 1.301 . S
C543 O547 1.282 . S
O544 U526 2.441 . S
O544 C530 1.249 . S
O545 U526 2.420 . S
O545 C530 1.202 . S
O546 U526 2.455 . S
O546 C543 1.301 . S
O547 U526 2.449 . S
O547 C543 1.282 . S
H548 C521 0.931 . S
H549 C523 0.929 . S
H550 C524 0.930 . S
H551 C525 0.931 . S
H552 C532 0.932 . S
H553 C533 0.930 . S
H554 C534 0.929 . S
H555 C536 0.930 . S
H556 C538 0.932 . S
H557 C539 0.929 . S
H558 C540 0.928 . S
H559 C542 0.932 . S
C560 C561 1.264 . S
C560 C565 1.479 . S
C560 C570 1.465 . S
C561 C560 1.264 . S
C561 C563 1.339 . S
C561 H588 0.931 . S
C562 C563 1.395 . S
C562 C564 1.320 . S
C563 C561 1.339 . S
C563 C562 1.395 . S
C563 H589 0.929 . S
C564 C562 1.320 . S
C564 C565 1.405 . S
C564 H590 0.930 . S
C565 C560 1.479 . S
C565 C564 1.405 . S
C565 H591 0.931 . S
U566 O567 2.454 . S
U566 O568 2.458 . S
U566 C569 2.984 . S
U566 C570 2.847 . S
U566 C583 2.882 . S
U566 O584 2.441 . S
U566 O585 2.420 . S
U566 O586 2.455 . S
U566 O587 2.449 . S
O567 U566 2.454 . S
O567 C569 1.353 . S
O568 U566 2.458 . S
O568 C569 1.286 . S
C569 U566 2.984 . S
C569 O567 1.353 . S
C569 O568 1.286 . S
C569 C571 1.363 . S
C570 C560 1.465 . S
C570 U566 2.847 . S
C570 O584 1.249 . S
C570 O585 1.202 . S
C571 C569 1.363 . S
C571 C573 1.408 . S
C571 C576 1.342 . S
C572 C573 1.310 . S
C572 C575 1.461 . S
C572 H592 0.932 . S
C573 C571 1.408 . S
C573 C572 1.310 . S
C573 H593 0.930 . S
C574 C575 1.474 . S
C574 C576 1.285 . S
C574 H594 0.929 . S
C575 C572 1.461 . S
C575 C574 1.474 . S
C576 C571 1.342 . S
C576 C574 1.285 . S
C576 H595 0.930 . S
C577 C580 1.424 . S
C577 C582 1.245 . S
C577 C583 1.428 . S
C578 C581 1.260 . S
C578 C582 1.477 . S
C578 H596 0.932 . S
C579 C580 1.384 . S
C579 C581 1.479 . S
C579 H597 0.929 . S
C580 C577 1.424 . S
C580 C579 1.384 . S
C580 H598 0.928 . S
C581 C578 1.260 . S
C581 C579 1.479 . S
C582 C577 1.245 . S
C582 C578 1.477 . S
C582 H599 0.932 . S
C583 U566 2.882 . S
C583 C577 1.428 . S
C583 O586 1.301 . S
C583 O587 1.282 . S
O584 U566 2.441 . S
O584 C570 1.249 . S
O585 U566 2.420 . S
O585 C570 1.202 . S
O586 U566 2.455 . S
O586 C583 1.301 . S
O587 U566 2.449 . S
O587 C583 1.282 . S
H588 C561 0.931 . S
H589 C563 0.929 . S
H590 C564 0.930 . S
H591 C565 0.931 . S
H592 C572 0.932 . S
H593 C573 0.930 . S
H594 C574 0.929 . S
H595 C576 0.930 . S
H596 C578 0.932 . S
H597 C579 0.929 . S
H598 C580 0.928 . S
H599 C582 0.932 . S
C600 C601 1.264 . S
C600 C605 1.479 . S
C600 C610 1.465 . S
C601 C600 1.264 . S
C601 C603 1.339 . S
C601 H628 0.931 . S
C602 C603 1.395 . S
C602 C604 1.320 . S
C603 C601 1.339 . S
C603 C602 1.395 . S
C603 H629 0.929 . S
C604 C602 1.320 . S
C604 C605 1.405 . S
C604 H630 0.930 . S
C605 C600 1.479 . S
C605 C604 1.405 . S
C605 H631 0.931 . S
U606 O607 2.454 . S
U606 O608 2.458 . S
U606 C609 2.984 . S
U606 C610 2.847 . S
U606 C623 2.882 . S
U606 O624 2.441 . S
U606 O625 2.420 . S
U606 O626 2.455 . S
U606 O627 2.449 . S
O607 U606 2.454 . S
O607 C609 1.353 . S
O608 U606 2.458 . S
O608 C609 1.286 . S
C609 U606 2.984 . S
C609 O607 1.353 . S
C609 O608 1.286 . S
C609 C611 1.363 . S
C610 C600 1.465 . S
C610 U606 2.847 . S
C610 O624 1.249 . S
C610 O625 1.202 . S
C611 C609 1.363 . S
C611 C613 1.408 . S
C611 C616 1.342 . S
C612 C613 1.310 . S
C612 C615 1.461 . S
C612 H632 0.932 . S
C613 C611 1.408 . S
C613 C612 1.310 . S
C613 H633 0.930 . S
C614 C615 1.474 . S
C614 C616 1.285 . S
C614 H634 0.929 . S
C615 C612 1.461 . S
C615 C614 1.474 . S
C616 C611 1.342 . S
C616 C614 1.285 . S
C616 H635 0.930 . S
C617 C620 1.424 . S
C617 C622 1.245 . S
C617 C623 1.428 . S
C618 C621 1.260 . S
C618 C622 1.477 . S
C618 H636 0.932 . S
C619 C620 1.384 . S
C619 C621 1.479 . S
C619 H637 0.929 . S
C620 C617 1.424 . S
C620 C619 1.384 . S
C620 H638 0.928 . S
C621 C618 1.260 . S
C621 C619 1.479 . S
C622 C617 1.245 . S
C622 C618 1.477 . S
C622 H639 0.932 . S
C623 U606 2.882 . S
C623 C617 1.428 . S
C623 O626 1.301 . S
C623 O627 1.282 . S
O624 U606 2.441 . S
O624 C610 1.249 . S
O625 U606 2.420 . S
O625 C610 1.202 . S
O626 U606 2.455 . S
O626 C623 1.301 . S
O627 U606 2.449 . S
O627 C623 1.282 . S
H628 C601 0.931 . S
H629 C603 0.929 . S
H630 C604 0.930 . S
H631 C605 0.931 . S
H632 C612 0.932 . S
H633 C613 0.930 . S
H634 C614 0.929 . S
H635 C616 0.930 . S
H636 C618 0.932 . S
H637 C619 0.929 . S
H638 C620 0.928 . S
H639 C622 0.932 . S
C640 C641 1.264 . S
C640 C645 1.479 . S
C640 C650 1.465 . S
C641 C640 1.264 . S
C641 C643 1.339 . S
C641 H668 0.931 . S
C642 C643 1.395 . S
C642 C644 1.320 . S
C643 C641 1.339 . S
C643 C642 1.395 . S
C643 H669 0.929 . S
C644 C642 1.320 . S
C644 C645 1.405 . S
C644 H670 0.930 . S
C645 C640 1.479 . S
C645 C644 1.405 . S
C645 H671 0.931 . S
U646 O647 2.454 . S
U646 O648 2.458 . S
U646 C649 2.984 . S
U646 C650 2.847 . S
U646 C663 2.882 . S
U646 O664 2.441 . S
U646 O665 2.420 . S
U646 O666 2.455 . S
U646 O667 2.449 . S
O647 U646 2.454 . S
O647 C649 1.353 . S
O648 U646 2.458 . S
O648 C649 1.286 . S
C649 U646 2.984 . S
C649 O647 1.353 . S
C649 O648 1.286 . S
C649 C651 1.363 . S
C650 C640 1.465 . S
C650 U646 2.847 . S
C650 O664 1.249 . S
C650 O665 1.202 . S
C651 C649 1.363 . S
C651 C653 1.408 . S
C651 C656 1.342 . S
C652 C653 1.310 . S
C652 C655 1.461 . S
C652 H672 0.932 . S
C653 C651 1.408 . S
C653 C652 1.310 . S
C653 H673 0.930 . S
C654 C655 1.474 . S
C654 C656 1.285 . S
C654 H674 0.929 . S
C655 C652 1.461 . S
C655 C654 1.474 . S
C656 C651 1.342 . S
C656 C654 1.285 . S
C656 H675 0.930 . S
C657 C660 1.424 . S
C657 C662 1.245 . S
C657 C663 1.428 . S
C658 C661 1.260 . S
C658 C662 1.477 . S
C658 H676 0.932 . S
C659 C660 1.384 . S
C659 C661 1.479 . S
C659 H677 0.929 . S
C660 C657 1.424 . S
C660 C659 1.384 . S
C660 H678 0.928 . S
C661 C658 1.260 . S
C661 C659 1.479 . S
C662 C657 1.245 . S
C662 C658 1.477 . S
C662 H679 0.932 . S
C663 U646 2.882 . S
C663 C657 1.428 . S
C663 O666 1.301 . S
C663 O667 1.282 . S
O664 U646 2.441 . S
O664 C650 1.249 . S
O665 U646 2.420 . S
O665 C650 1.202 . S
O666 U646 2.455 . S
O666 C663 1.301 . S
O667 U646 2.449 . S
O667 C663 1.282 . S
H668 C641 0.931 . S
H669 C643 0.929 . S
H670 C644 0.930 . S
H671 C645 0.931 . S
H672 C652 0.932 . S
H673 C653 0.930 . S
H674 C654 0.929 . S
H675 C656 0.930 . S
H676 C658 0.932 . S
H677 C659 0.929 . S
H678 C660 0.928 . S
H679 C662 0.932 . S
C680 C681 1.264 . S
C680 C685 1.479 . S
C680 C690 1.465 . S
C681 C680 1.264 . S
C681 C683 1.339 . S
C681 H708 0.931 . S
C682 C683 1.395 . S
C682 C684 1.320 . S
C683 C681 1.339 . S
C683 C682 1.395 . S
C683 H709 0.929 . S
C684 C682 1.320 . S
C684 C685 1.405 . S
C684 H710 0.930 . S
C685 C680 1.479 . S
C685 C684 1.405 . S
C685 H711 0.931 . S
U686 O687 2.454 . S
U686 O688 2.458 . S
U686 C689 2.984 . S
U686 C690 2.847 . S
U686 C703 2.882 . S
U686 O704 2.441 . S
U686 O705 2.420 . S
U686 O706 2.455 . S
U686 O707 2.449 . S
O687 U686 2.454 . S
O687 C689 1.353 . S
O688 U686 2.458 . S
O688 C689 1.286 . S
C689 U686 2.984 . S
C689 O687 1.353 . S
C689 O688 1.286 . S
C689 C691 1.363 . S
C690 C680 1.465 . S
C690 U686 2.847 . S
C690 O704 1.249 . S
C690 O705 1.202 . S
C691 C689 1.363 . S
C691 C693 1.408 . S
C691 C696 1.342 . S
C692 C693 1.310 . S
C692 C695 1.461 . S
C692 H712 0.932 . S
C693 C691 1.408 . S
C693 C692 1.310 . S
C693 H713 0.930 . S
C694 C695 1.474 . S
C694 C696 1.285 . S
C694 H714 0.929 . S
C695 C692 1.461 . S
C695 C694 1.474 . S
C696 C691 1.342 . S
C696 C694 1.285 . S
C696 H715 0.930 . S
C697 C700 1.424 . S
C697 C702 1.245 . S
C697 C703 1.428 . S
C698 C701 1.260 . S
C698 C702 1.477 . S
C698 H716 0.932 . S
C699 C700 1.384 . S
C699 C701 1.479 . S
C699 H717 0.929 . S
C700 C697 1.424 . S
C700 C699 1.384 . S
C700 H718 0.928 . S
C701 C698 1.260 . S
C701 C699 1.479 . S
C702 C697 1.245 . S
C702 C698 1.477 . S
C702 H719 0.932 . S
C703 U686 2.882 . S
C703 C697 1.428 . S
C703 O706 1.301 . S
C703 O707 1.282 . S
O704 U686 2.441 . S
O704 C690 1.249 . S
O705 U686 2.420 . S
O705 C690 1.202 . S
O706 U686 2.455 . S
O706 C703 1.301 . S
O707 U686 2.449 . S
O707 C703 1.282 . S
H708 C681 0.931 . S
H709 C683 0.929 . S
H710 C684 0.930 . S
H711 C685 0.931 . S
H712 C692 0.932 . S
H713 C693 0.930 . S
H714 C694 0.929 . S
H715 C696 0.930 . S
H716 C698 0.932 . S
H717 C699 0.929 . S
H718 C700 0.928 . S
H719 C702 0.932 . S
C720 C721 1.264 . S
C720 C725 1.479 . S
C720 C730 1.465 . S
C721 C720 1.264 . S
C721 C723 1.339 . S
C721 H748 0.931 . S
C722 C723 1.395 . S
C722 C724 1.320 . S
C723 C721 1.339 . S
C723 C722 1.395 . S
C723 H749 0.929 . S
C724 C722 1.320 . S
C724 C725 1.405 . S
C724 H750 0.930 . S
C725 C720 1.479 . S
C725 C724 1.405 . S
C725 H751 0.931 . S
U726 O727 2.454 . S
U726 O728 2.458 . S
U726 C729 2.984 . S
U726 C730 2.847 . S
U726 C743 2.882 . S
U726 O744 2.441 . S
U726 O745 2.420 . S
U726 O746 2.455 . S
U726 O747 2.449 . S
O727 U726 2.454 . S
O727 C729 1.353 . S
O728 U726 2.458 . S
O728 C729 1.286 . S
C729 U726 2.984 . S
C729 O727 1.353 . S
C729 O728 1.286 . S
C729 C731 1.363 . S
C730 C720 1.465 . S
C730 U726 2.847 . S
C730 O744 1.249 . S
C730 O745 1.202 . S
C731 C729 1.363 . S
C731 C733 1.408 . S
C731 C736 1.342 . S
C732 C733 1.310 . S
C732 C735 1.461 . S
C732 H752 0.932 . S
C733 C731 1.408 . S
C733 C732 1.310 . S
C733 H753 0.930 . S
C734 C735 1.474 . S
C734 C736 1.285 . S
C734 H754 0.929 . S
C735 C732 1.461 . S
C735 C734 1.474 . S
C736 C731 1.342 . S
C736 C734 1.285 . S
C736 H755 0.930 . S
C737 C740 1.424 . S
C737 C742 1.245 . S
C737 C743 1.428 . S
C738 C741 1.260 . S
C738 C742 1.477 . S
C738 H756 0.932 . S
C739 C740 1.384 . S
C739 C741 1.479 . S
C739 H757 0.929 . S
C740 C737 1.424 . S
C740 C739 1.384 . S
C740 H758 0.928 . S
C741 C738 1.260 . S
C741 C739 1.479 . S
C742 C737 1.245 . S
C742 C738 1.477 . S
C742 H759 0.932 . S
C743 U726 2.882 . S
C743 C737 1.428 . S
C743 O746 1.301 . S
C743 O747 1.282 . S
O744 U726 2.441 . S
O744 C730 1.249 . S
O745 U726 2.420 . S
O745 C730 1.202 . S
O746 U726 2.455 . S
O746 C743 1.301 . S
O747 U726 2.449 . S
O747 C743 1.282 . S
H748 C721 0.931 . S
H749 C723 0.929 . S
H750 C724 0.930 . S
H751 C725 0.931 . S
H752 C732 0.932 . S
H753 C733 0.930 . S
H754 C734 0.929 . S
H755 C736 0.930 . S
H756 C738 0.932 . S
H757 C739 0.929 . S
H758 C740 0.928 . S
H759 C742 0.932 . S
C760 C761 1.264 . S
C760 C765 1.479 . S
C760 C770 1.465 . S
C761 C760 1.264 . S
C761 C763 1.339 . S
C761 H788 0.931 . S
C762 C763 1.395 . S
C762 C764 1.320 . S
C763 C761 1.339 . S
C763 C762 1.395 . S
C763 H789 0.929 . S
C764 C762 1.320 . S
C764 C765 1.405 . S
C764 H790 0.930 . S
C765 C760 1.479 . S
C765 C764 1.405 . S
C765 H791 0.931 . S
U766 O767 2.454 . S
U766 O768 2.458 . S
U766 C769 2.984 . S
U766 C770 2.847 . S
U766 C783 2.882 . S
U766 O784 2.441 . S
U766 O785 2.420 . S
U766 O786 2.455 . S
U766 O787 2.449 . S
O767 U766 2.454 . S
O767 C769 1.353 . S
O768 U766 2.458 . S
O768 C769 1.286 . S
C769 U766 2.984 . S
C769 O767 1.353 . S
C769 O768 1.286 . S
C769 C771 1.363 . S
C770 C760 1.465 . S
C770 U766 2.847 . S
C770 O784 1.249 . S
C770 O785 1.202 . S
C771 C769 1.363 . S
C771 C773 1.408 . S
C771 C776 1.342 . S
C772 C773 1.310 . S
C772 C775 1.461 . S
C772 H792 0.932 . S
C773 C771 1.408 . S
C773 C772 1.310 . S
C773 H793 0.930 . S
C774 C775 1.474 . S
C774 C776 1.285 . S
C774 H794 0.929 . S
C775 C772 1.461 . S
C775 C774 1.474 . S
C776 C771 1.342 . S
C776 C774 1.285 . S
C776 H795 0.930 . S
C777 C780 1.424 . S
C777 C782 1.245 . S
C777 C783 1.428 . S
C778 C781 1.260 . S
C778 C782 1.477 . S
C778 H796 0.932 . S
C779 C780 1.384 . S
C779 C781 1.479 . S
C779 H797 0.929 . S
C780 C777 1.424 . S
C780 C779 1.384 . S
C780 H798 0.928 . S
C781 C778 1.260 . S
C781 C779 1.479 . S
C782 C777 1.245 . S
C782 C778 1.477 . S
C782 H799 0.932 . S
C783 U766 2.882 . S
C783 C777 1.428 . S
C783 O786 1.301 . S
C783 O787 1.282 . S
O784 U766 2.441 . S
O784 C770 1.249 . S
O785 U766 2.420 . S
O785 C770 1.202 . S
O786 U766 2.455 . S
O786 C783 1.301 . S
O787 U766 2.449 . S
O787 C783 1.282 . S
H788 C761 0.931 . S
H789 C763 0.929 . S
H790 C764 0.930 . S
H791 C765 0.931 . S
H792 C772 0.932 . S
H793 C773 0.930 . S
H794 C774 0.929 . S
H795 C776 0.930 . S
H796 C778 0.932 . S
H797 C779 0.929 . S
H798 C780 0.928 . S
H799 C782 0.932 . S
C800 C801 1.264 . S
C800 C805 1.479 . S
C800 C810 1.465 . S
C801 C800 1.264 . S
C801 C803 1.339 . S
C801 H828 0.931 . S
C802 C803 1.395 . S
C802 C804 1.320 . S
C803 C801 1.339 . S
C803 C802 1.395 . S
C803 H829 0.929 . S
C804 C802 1.320 . S
C804 C805 1.405 . S
C804 H830 0.930 . S
C805 C800 1.479 . S
C805 C804 1.405 . S
C805 H831 0.931 . S
U806 O807 2.454 . S
U806 O808 2.458 . S
U806 C809 2.984 . S
U806 C810 2.847 . S
U806 C823 2.882 . S
U806 O824 2.441 . S
U806 O825 2.420 . S
U806 O826 2.455 . S
U806 O827 2.449 . S
O807 U806 2.454 . S
O807 C809 1.353 . S
O808 U806 2.458 . S
O808 C809 1.286 . S
C809 U806 2.984 . S
C809 O807 1.353 . S
C809 O808 1.286 . S
C809 C811 1.363 . S
C810 C800 1.465 . S
C810 U806 2.847 . S
C810 O824 1.249 . S
C810 O825 1.202 . S
C811 C809 1.363 . S
C811 C813 1.408 . S
C811 C816 1.342 . S
C812 C813 1.310 . S
C812 C815 1.461 . S
C812 H832 0.932 . S
C813 C811 1.408 . S
C813 C812 1.310 . S
C813 H833 0.930 . S
C814 C815 1.474 . S
C814 C816 1.285 . S
C814 H834 0.929 . S
C815 C812 1.461 . S
C815 C814 1.474 . S
C816 C811 1.342 . S
C816 C814 1.285 . S
C816 H835 0.930 . S
C817 C820 1.424 . S
C817 C822 1.245 . S
C817 C823 1.428 . S
C818 C821 1.260 . S
C818 C822 1.477 . S
C818 H836 0.932 . S
C819 C820 1.384 . S
C819 C821 1.479 . S
C819 H837 0.929 . S
C820 C817 1.424 . S
C820 C819 1.384 . S
C820 H838 0.928 . S
C821 C818 1.260 . S
C821 C819 1.479 . S
C822 C817 1.245 . S
C822 C818 1.477 . S
C822 H839 0.932 . S
C823 U806 2.882 . S
C823 C817 1.428 . S
C823 O826 1.301 . S
C823 O827 1.282 . S
O824 U806 2.441 . S
O824 C810 1.249 . S
O825 U806 2.420 . S
O825 C810 1.202 . S
O826 U806 2.455 . S
O826 C823 1.301 . S
O827 U806 2.449 . S
O827 C823 1.282 . S
H828 C801 0.931 . S
H829 C803 0.929 . S
H830 C804 0.930 . S
H831 C805 0.931 . S
H832 C812 0.932 . S
H833 C813 0.930 . S
H834 C814 0.929 . S
H835 C816 0.930 . S
H836 C818 0.932 . S
H837 C819 0.929 . S
H838 C820 0.928 . S
H839 C822 0.932 . S
C840 C841 1.264 . S
C840 C845 1.479 . S
C840 C850 1.465 . S
C841 C840 1.264 . S
C841 C843 1.339 . S
C841 H868 0.931 . S
C842 C843 1.395 . S
C842 C844 1.320 . S
C843 C841 1.339 . S
C843 C842 1.395 . S
C843 H869 0.929 . S
C844 C842 1.320 . S
C844 C845 1.405 . S
C844 H870 0.930 . S
C845 C840 1.479 . S
C845 C844 1.405 . S
C845 H871 0.931 . S
U846 O847 2.454 . S
U846 O848 2.458 . S
U846 C849 2.984 . S
U846 C850 2.847 . S
U846 C863 2.882 . S
U846 O864 2.441 . S
U846 O865 2.420 . S
U846 O866 2.455 . S
U846 O867 2.449 . S
O847 U846 2.454 . S
O847 C849 1.353 . S
O848 U846 2.458 . S
O848 C849 1.286 . S
C849 U846 2.984 . S
C849 O847 1.353 . S
C849 O848 1.286 . S
C849 C851 1.363 . S
C850 C840 1.465 . S
C850 U846 2.847 . S
C850 O864 1.249 . S
C850 O865 1.202 . S
C851 C849 1.363 . S
C851 C853 1.408 . S
C851 C856 1.342 . S
C852 C853 1.310 . S
C852 C855 1.461 . S
C852 H872 0.932 . S
C853 C851 1.408 . S
C853 C852 1.310 . S
C853 H873 0.930 . S
C854 C855 1.474 . S
C854 C856 1.285 . S
C854 H874 0.929 . S
C855 C852 1.461 . S
C855 C854 1.474 . S
C856 C851 1.342 . S
C856 C854 1.285 . S
C856 H875 0.930 . S
C857 C860 1.424 . S
C857 C862 1.245 . S
C857 C863 1.428 . S
C858 C861 1.260 . S
C858 C862 1.477 . S
C858 H876 0.932 . S
C859 C860 1.384 . S
C859 C861 1.479 . S
C859 H877 0.929 . S
C860 C857 1.424 . S
C860 C859 1.384 . S
C860 H878 0.928 . S
C861 C858 1.260 . S
C861 C859 1.479 . S
C862 C857 1.245 . S
C862 C858 1.477 . S
C862 H879 0.932 . S
C863 U846 2.882 . S
C863 C857 1.428 . S
C863 O866 1.301 . S
C863 O867 1.282 . S
O864 U846 2.441 . S
O864 C850 1.249 . S
O865 U846 2.420 . S
O865 C850 1.202 . S
O866 U846 2.455 . S
O866 C863 1.301 . S
O867 U846 2.449 . S
O867 C863 1.282 . S
H868 C841 0.931 . S
H869 C843 0.929 . S
H870 C844 0.930 . S
H871 C845 0.931 . S
H872 C852 0.932 . S
H873 C853 0.930 . S
H874 C854 0.929 . S
H875 C856 0.930 . S
H876 C858 0.932 . S
H877 C859 0.929 . S
H878 C860 0.928 . S
H879 C862 0.932 . S
C880 C881 1.264 . S
C880 C885 1.479 . S
C880 C890 1.465 . S
C881 C880 1.264 . S
C881 C883 1.339 . S
C881 H908 0.931 . S
C882 C883 1.395 . S
C882 C884 1.320 . S
C883 C881 1.339 . S
C883 C882 1.395 . S
C883 H909 0.929 . S
C884 C882 1.320 . S
C884 C885 1.405 . S
C884 H910 0.930 . S
C885 C880 1.479 . S
C885 C884 1.405 . S
C885 H911 0.931 . S
U886 O887 2.454 . S
U886 O888 2.458 . S
U886 C889 2.984 . S
U886 C890 2.847 . S
U886 C903 2.882 . S
U886 O904 2.441 . S
U886 O905 2.420 . S
U886 O906 2.455 . S
U886 O907 2.449 . S
O887 U886 2.454 . S
O887 C889 1.353 . S
O888 U886 2.458 . S
O888 C889 1.286 . S
C889 U886 2.984 . S
C889 O887 1.353 . S
C889 O888 1.286 . S
C889 C891 1.363 . S
C890 C880 1.465 . S
C890 U886 2.847 . S
C890 O904 1.249 . S
C890 O905 1.202 . S
C891 C889 1.363 . S
C891 C893 1.408 . S
C891 C896 1.342 . S
C892 C893 1.310 . S
C892 C895 1.461 . S
C892 H912 0.932 . S
C893 C891 1.408 . S
C893 C892 1.310 . S
C893 H913 0.930 . S
C894 C895 1.474 . S
C894 C896 1.285 . S
C894 H914 0.929 . S
C895 C892 1.461 . S
C895 C894 1.474 . S
C896 C891 1.342 . S
C896 C894 1.285 . S
C896 H915 0.930 . S
C897 C900 1.424 . S
C897 C902 1.245 . S
C897 C903 1.428 . S
C898 C901 1.260 . S
C898 C902 1.477 . S
C898 H916 0.932 . S
C899 C900 1.384 . S
C899 C901 1.479 . S
C899 H917 0.929 . S
C900 C897 1.424 . S
C900 C899 1.384 . S
C900 H918 0.928 . S
C901 C898 1.260 . S
C901 C899 1.479 . S
C902 C897 1.245 . S
C902 C898 1.477 . S
C902 H919 0.932 . S
C903 U886 2.882 . S
C903 C897 1.428 . S
C903 O906 1.301 . S
C903 O907 1.282 . S
O904 U886 2.441 . S
O904 C890 1.249 . S
O905 U886 2.420 . S
O905 C890 1.202 . S
O906 U886 2.455 . S
O906 C903 1.301 . S
O907 U886 2.449 . S
O907 C903 1.282 . S
H908 C881 0.931 . S
H909 C883 0.929 . S
H910 C884 0.930 . S
H911 C885 0.931 . S
H912 C892 0.932 . S
H913 C893 0.930 . S
H914 C894 0.929 . S
H915 C896 0.930 . S
H916 C898 0.932 . S
H917 C899 0.929 . S
H918 C900 0.928 . S
H919 C902 0.932 . S
C920 C921 1.264 . S
C920 C925 1.479 . S
C920 C930 1.465 . S
C921 C920 1.264 . S
C921 C923 1.339 . S
C921 H948 0.931 . S
C922 C923 1.395 . S
C922 C924 1.320 . S
C923 C921 1.339 . S
C923 C922 1.395 . S
C923 H949 0.929 . S
C924 C922 1.320 . S
C924 C925 1.405 . S
C924 H950 0.930 . S
C925 C920 1.479 . S
C925 C924 1.405 . S
C925 H951 0.931 . S
U926 O927 2.454 . S
U926 O928 2.458 . S
U926 C929 2.984 . S
U926 C930 2.847 . S
U926 C943 2.882 . S
U926 O944 2.441 . S
U926 O945 2.420 . S
U926 O946 2.455 . S
U926 O947 2.449 . S
O927 U926 2.454 . S
O927 C929 1.353 . S
O928 U926 2.458 . S
O928 C929 1.286 . S
C929 U926 2.984 . S
C929 O927 1.353 . S
C929 O928 1.286 . S
C929 C931 1.363 . S
C930 C920 1.465 . S
C930 U926 2.847 . S
C930 O944 1.249 . S
C930 O945 1.202 . S
C931 C929 1.363 . S
C931 C933 1.408 . S
C931 C936 1.342 . S
C932 C933 1.310 . S
C932 C935 1.461 . S
C932 H952 0.932 . S
C933 C931 1.408 . S
C933 C932 1.310 . S
C933 H953 0.930 . S
C934 C935 1.474 . S
C934 C936 1.285 . S
C934 H954 0.929 . S
C935 C932 1.461 . S
C935 C934 1.474 . S
C936 C931 1.342 . S
C936 C934 1.285 . S
C936 H955 0.930 . S
C937 C940 1.424 . S
C937 C942 1.245 . S
C937 C943 1.428 . S
C938 C941 1.260 . S
C938 C942 1.477 . S
C938 H956 0.932 . S
C939 C940 1.384 . S
C939 C941 1.479 . S
C939 H957 0.929 . S
C940 C937 1.424 . S
C940 C939 1.384 . S
C940 H958 0.928 . S
C941 C938 1.260 . S
C941 C939 1.479 . S
C942 C937 1.245 . S
C942 C938 1.477 . S
C942 H959 0.932 . S
C943 U926 2.882 . S
C943 C937 1.428 . S
C943 O946 1.301 . S
C943 O947 1.282 . S
O944 U926 2.441 . S
O944 C930 1.249 . S
O945 U926 2.420 . S
O945 C930 1.202 . S
O946 U926 2.455 . S
O946 C943 1.301 . S
O947 U926 2.449 . S
O947 C943 1.282 . S
H948 C921 0.931 . S
H949 C923 0.929 . S
H950 C924 0.930 . S
H951 C925 0.931 . S
H952 C932 0.932 . S
H953 C933 0.930 . S
H954 C934 0.929 . S
H955 C936 0.930 . S
H956 C938 0.932 . S
H957 C939 0.929 . S
H958 C940 0.928 . S
H959 C942 0.932 . S
C960 C961 1.264 . S
C960 C965 1.479 . S
C960 C970 1.465 . S
C961 C960 1.264 . S
C961 C963 1.339 . S
C961 H988 0.931 . S
C962 C963 1.395 . S
C962 C964 1.320 . S
C963 C961 1.339 . S
C963 C962 1.395 . S
C963 H989 0.929 . S
C964 C962 1.320 . S
C964 C965 1.405 . S
C964 H990 0.930 . S
C965 C960 1.479 . S
C965 C964 1.405 . S
C965 H991 0.931 . S
U966 O967 2.454 . S
U966 O968 2.458 . S
U966 C969 2.984 . S
U966 C970 2.847 . S
U966 C983 2.882 . S
U966 O984 2.441 . S
U966 O985 2.420 . S
U966 O986 2.455 . S
U966 O987 2.449 . S
O967 U966 2.454 . S
O967 C969 1.353 . S
O968 U966 2.458 . S
O968 C969 1.286 . S
C969 U966 2.984 . S
C969 O967 1.353 . S
C969 O968 1.286 . S
C969 C971 1.363 . S
C970 C960 1.465 . S
C970 U966 2.847 . S
C970 O984 1.249 . S
C970 O985 1.202 . S
C971 C969 1.363 . S
C971 C973 1.408 . S
C971 C976 1.342 . S
C972 C973 1.310 . S
C972 C975 1.461 . S
C972 H992 0.932 . S
C973 C971 1.408 . S
C973 C972 1.310 . S
C973 H993 0.930 . S
C974 C975 1.474 . S
C974 C976 1.285 . S
C974 H994 0.929 . S
C975 C972 1.461 . S
C975 C974 1.474 . S
C976 C971 1.342 . S
C976 C974 1.285 . S
C976 H995 0.930 . S
C977 C980 1.424 . S
C977 C982 1.245 . S
C977 C983 1.428 . S
C978 C981 1.260 . S
C978 C982 1.477 . S
C978 H996 0.932 . S
C979 C980 1.384 . S
C979 C981 1.479 . S
C979 H997 0.929 . S
C980 C977 1.424 . S
C980 C979 1.384 . S
C980 H998 0.928 . S
C981 C978 1.260 . S
C981 C979 1.479 . S
C982 C977 1.245 . S
C982 C978 1.477 . S
C982 H999 0.932 . S
C983 U966 2.882 . S
C983 C977 1.428 . S
C983 O986 1.301 . S
C983 O987 1.282 . S
O984 U966 2.441 . S
O984 C970 1.249 . S
O985 U966 2.420 . S
O985 C970 1.202 . S
O986 U966 2.455 . S
O986 C983 1.301 . S
O987 U966 2.449 . S
O987 C983 1.282 . S
H988 C961 0.931 . S
H989 C963 0.929 . S
H990 C964 0.930 . S
H991 C965 0.931 . S
H992 C972 0.932 . S
H993 C973 0.930 . S
H994 C974 0.929 . S
H995 C976 0.930 . S
H996 C978 0.932 . S
H997 C979 0.929 . S
H998 C980 0.928 . S
H999 C982 0.932 . S
C1000 C1001 1.264 . S
C1000 C1005 1.479 . S
C1000 C1010 1.465 . S
C1001 C1000 1.264 . S
C1001 C1003 1.339 . S
C1001 H1028 0.931 . S
C1002 C1003 1.395 . S
C1002 C1004 1.320 . S
C1003 C1001 1.339 . S
C1003 C1002 1.395 . S
C1003 H1029 0.929 . S
C1004 C1002 1.320 . S
C1004 C1005 1.405 . S
C1004 H1030 0.930 . S
C1005 C1000 1.479 . S
C1005 C1004 1.405 . S
C1005 H1031 0.931 . S
U1006 O1007 2.454 . S
U1006 O1008 2.458 . S
U1006 C1009 2.984 . S
U1006 C1010 2.847 . S
U1006 C1023 2.882 . S
U1006 O1024 2.441 . S
U1006 O1025 2.420 . S
U1006 O1026 2.455 . S
U1006 O1027 2.449 . S
O1007 U1006 2.454 . S
O1007 C1009 1.353 . S
O1008 U1006 2.458 . S
O1008 C1009 1.286 . S
C1009 U1006 2.984 . S
C1009 O1007 1.353 . S
C1009 O1008 1.286 . S
C1009 C1011 1.363 . S
C1010 C1000 1.465 . S
C1010 U1006 2.847 . S
C1010 O1024 1.249 . S
C1010 O1025 1.202 . S
C1011 C1009 1.363 . S
C1011 C1013 1.408 . S
C1011 C1016 1.342 . S
C1012 C1013 1.310 . S
C1012 C1015 1.461 . S
C1012 H1032 0.932 . S
C1013 C1011 1.408 . S
C1013 C1012 1.310 . S
C1013 H1033 0.930 . S
C1014 C1015 1.474 . S
C1014 C1016 1.285 . S
C1014 H1034 0.929 . S
C1015 C1012 1.461 . S
C1015 C1014 1.474 . S
C1016 C1011 1.342 . S
C1016 C1014 1.285 . S
C1016 H1035 0.930 . S
C1017 C1020 1.424 . S
C1017 C1022 1.245 . S
C1017 C1023 1.428 . S
C1018 C1021 1.260 . S
C1018 C1022 1.477 . S
C1018 H1036 0.932 . S
C1019 C1020 1.384 . S
C1019 C1021 1.479 . S
C1019 H1037 0.929 . S
C1020 C1017 1.424 . S
C1020 C1019 1.384 . S
C1020 H1038 0.928 . S
C1021 C1018 1.260 . S
C1021 C1019 1.479 . S
C1022 C1017 1.245 . S
C1022 C1018 1.477 . S
C1022 H1039 0.932 . S
C1023 U1006 2.882 . S
C1023 C1017 1.428 . S
C1023 O1026 1.301 . S
C1023 O1027 1.282 . S
O1024 U1006 2.441 . S
O1024 C1010 1.249 . S
O1025 U1006 2.420 . S
O1025 C1010 1.202 . S
O1026 U1006 2.455 . S
O1026 C1023 1.301 . S
O1027 U1006 2.449 . S
O1027 C1023 1.282 . S
H1028 C1001 0.931 . S
H1029 C1003 0.929 . S
H1030 C1004 0.930 . S
H1031 C1005 0.931 . S
H1032 C1012 0.932 . S
H1033 C1013 0.930 . S
H1034 C1014 0.929 . S
H1035 C1016 0.930 . S
H1036 C1018 0.932 . S
H1037 C1019 0.929 . S
H1038 C1020 0.928 . S
H1039 C1022 0.932 . S
C1040 C1041 1.264 . S
C1040 C1045 1.479 . S
C1040 C1050 1.465 . S
C1041 C1040 1.264 . S
C1041 C1043 1.339 . S
C1041 H1068 0.931 . S
C1042 C1043 1.395 . S
C1042 C1044 1.320 . S
C1043 C1041 1.339 . S
C1043 C1042 1.395 . S
C1043 H1069 0.929 . S
C1044 C1042 1.320 . S
C1044 C1045 1.405 . S
C1044 H1070 0.930 . S
C1045 C1040 1.479 . S
C1045 C1044 1.405 . S
C1045 H1071 0.931 . S
U1046 O1047 2.454 . S
U1046 O1048 2.458 . S
U1046 C1049 2.984 . S
U1046 C1050 2.847 . S
U1046 C1063 2.882 . S
U1046 O1064 2.441 . S
U1046 O1065 2.420 . S
U1046 O1066 2.455 . S
U1046 O1067 2.449 . S
O1047 U1046 2.454 . S
O1047 C1049 1.353 . S
O1048 U1046 2.458 . S
O1048 C1049 1.286 . S
C1049 U1046 2.984 . S
C1049 O1047 1.353 . S
C1049 O1048 1.286 . S
C1049 C1051 1.363 . S
C1050 C1040 1.465 . S
C1050 U1046 2.847 . S
C1050 O1064 1.249 . S
C1050 O1065 1.202 . S
C1051 C1049 1.363 . S
C1051 C1053 1.408 . S
C1051 C1056 1.342 . S
C1052 C1053 1.310 . S
C1052 C1055 1.461 . S
C1052 H1072 0.932 . S
C1053 C1051 1.408 . S
C1053 C1052 1.310 . S
C1053 H1073 0.930 . S
C1054 C1055 1.474 . S
C1054 C1056 1.285 . S
C1054 H1074 0.929 . S
C1055 C1052 1.461 . S
C1055 C1054 1.474 . S
C1056 C1051 1.342 . S
C1056 C1054 1.285 . S
C1056 H1075 0.930 . S
C1057 C1060 1.424 . S
C1057 C1062 1.245 . S
C1057 C1063 1.428 . S
C1058 C1061 1.260 . S
C1058 C1062 1.477 . S
C1058 H1076 0.932 . S
C1059 C1060 1.384 . S
C1059 C1061 1.479 . S
C1059 H1077 0.929 . S
C1060 C1057 1.424 . S
C1060 C1059 1.384 . S
C1060 H1078 0.928 . S
C1061 C1058 1.260 . S
C1061 C1059 1.479 . S
C1062 C1057 1.245 . S
C1062 C1058 1.477 . S
C1062 H1079 0.932 . S
C1063 U1046 2.882 . S
C1063 C1057 1.428 . S
C1063 O1066 1.301 . S
C1063 O1067 1.282 . S
O1064 U1046 2.441 . S
O1064 C1050 1.249 . S
O1065 U1046 2.420 . S
O1065 C1050 1.202 . S
O1066 U1046 2.455 . S
O1066 C1063 1.301 . S
O1067 U1046 2.449 . S
O1067 C1063 1.282 . S
H1068 C1041 0.931 . S
H1069 C1043 0.929 . S
H1070 C1044 0.930 . S
H1071 C1045 0.931 . S
H1072 C1052 0.932 . S
H1073 C1053 0.930 . S
H1074 C1054 0.929 . S
H1075 C1056 0.930 . S
H1076 C1058 0.932 . S
H1077 C1059 0.929 . S
H1078 C1060 0.928 . S
H1079 C1062 0.932 . S
C1080 C1081 1.264 . S
C1080 C1085 1.479 . S
C1080 C1090 1.465 . S
C1081 C1080 1.264 . S
C1081 C1083 1.339 . S
C1081 H1108 0.931 . S
C1082 C1083 1.395 . S
C1082 C1084 1.320 . S
C1083 C1081 1.339 . S
C1083 C1082 1.395 . S
C1083 H1109 0.929 . S
C1084 C1082 1.320 . S
C1084 C1085 1.405 . S
C1084 H1110 0.930 . S
C1085 C1080 1.479 . S
C1085 C1084 1.405 . S
C1085 H1111 0.931 . S
U1086 O1087 2.454 . S
U1086 O1088 2.458 . S
U1086 C1089 2.984 . S
U1086 C1090 2.847 . S
U1086 C1103 2.882 . S
U1086 O1104 2.441 . S
U1086 O1105 2.420 . S
U1086 O1106 2.455 . S
U1086 O1107 2.449 . S
O1087 U1086 2.454 . S
O1087 C1089 1.353 . S
O1088 U1086 2.458 . S
O1088 C1089 1.286 . S
C1089 U1086 2.984 . S
C1089 O1087 1.353 . S
C1089 O1088 1.286 . S
C1089 C1091 1.363 . S
C1090 C1080 1.465 . S
C1090 U1086 2.847 . S
C1090 O1104 1.249 . S
C1090 O1105 1.202 . S
C1091 C1089 1.363 . S
C1091 C1093 1.408 . S
C1091 C1096 1.342 . S
C1092 C1093 1.310 . S
C1092 C1095 1.461 . S
C1092 H1112 0.932 . S
C1093 C1091 1.408 . S
C1093 C1092 1.310 . S
C1093 H1113 0.930 . S
C1094 C1095 1.474 . S
C1094 C1096 1.285 . S
C1094 H1114 0.929 . S
C1095 C1092 1.461 . S
C1095 C1094 1.474 . S
C1096 C1091 1.342 . S
C1096 C1094 1.285 . S
C1096 H1115 0.930 . S
C1097 C1100 1.424 . S
C1097 C1102 1.245 . S
C1097 C1103 1.428 . S
C1098 C1101 1.260 . S
C1098 C1102 1.477 . S
C1098 H1116 0.932 . S
C1099 C1100 1.384 . S
C1099 C1101 1.479 . S
C1099 H1117 0.929 . S
C1100 C1097 1.424 . S
C1100 C1099 1.384 . S
C1100 H1118 0.928 . S
C1101 C1098 1.260 . S
C1101 C1099 1.479 . S
C1102 C1097 1.245 . S
C1102 C1098 1.477 . S
C1102 H1119 0.932 . S
C1103 U1086 2.882 . S
C1103 C1097 1.428 . S
C1103 O1106 1.301 . S
C1103 O1107 1.282 . S
O1104 U1086 2.441 . S
O1104 C1090 1.249 . S
O1105 U1086 2.420 . S
O1105 C1090 1.202 . S
O1106 U1086 2.455 . S
O1106 C1103 1.301 . S
O1107 U1086 2.449 . S
O1107 C1103 1.282 . S
H1108 C1081 0.931 . S
H1109 C1083 0.929 . S
H1110 C1084 0.930 . S
H1111 C1085 0.931 . S
H1112 C1092 0.932 . S
H1113 C1093 0.930 . S
H1114 C1094 0.929 . S
H1115 C1096 0.930 . S
H1116 C1098 0.932 . S
H1117 C1099 0.929 . S
H1118 C1100 0.928 . S
H1119 C1102 0.932 . S
C1120 C1121 1.264 . S
C1120 C1125 1.479 . S
C1120 C1130 1.465 . S
C1121 C1120 1.264 . S
C1121 C1123 1.339 . S
C1121 H1148 0.931 . S
C1122 C1123 1.395 . S
C1122 C1124 1.320 . S
C1123 C1121 1.339 . S
C1123 C1122 1.395 . S
C1123 H1149 0.929 . S
C1124 C1122 1.320 . S
C1124 C1125 1.405 . S
C1124 H1150 0.930 . S
C1125 C1120 1.479 . S
C1125 C1124 1.405 . S
C1125 H1151 0.931 . S
U1126 O1127 2.454 . S
U1126 O1128 2.458 . S
U1126 C1129 2.984 . S
U1126 C1130 2.847 . S
U1126 C1143 2.882 . S
U1126 O1144 2.441 . S
U1126 O1145 2.420 . S
U1126 O1146 2.455 . S
U1126 O1147 2.449 . S
O1127 U1126 2.454 . S
O1127 C1129 1.353 . S
O1128 U1126 2.458 . S
O1128 C1129 1.286 . S
C1129 U1126 2.984 . S
C1129 O1127 1.353 . S
C1129 O1128 1.286 . S
C1129 C1131 1.363 . S
C1130 C1120 1.465 . S
C1130 U1126 2.847 . S
C1130 O1144 1.249 . S
C1130 O1145 1.202 . S
C1131 C1129 1.363 . S
C1131 C1133 1.408 . S
C1131 C1136 1.342 . S
C1132 C1133 1.310 . S
C1132 C1135 1.461 . S
C1132 H1152 0.932 . S
C1133 C1131 1.408 . S
C1133 C1132 1.310 . S
C1133 H1153 0.930 . S
C1134 C1135 1.474 . S
C1134 C1136 1.285 . S
C1134 H1154 0.929 . S
C1135 C1132 1.461 . S
C1135 C1134 1.474 . S
C1136 C1131 1.342 . S
C1136 C1134 1.285 . S
C1136 H1155 0.930 . S
C1137 C1140 1.424 . S
C1137 C1142 1.245 . S
C1137 C1143 1.428 . S
C1138 C1141 1.260 . S
C1138 C1142 1.477 . S
C1138 H1156 0.932 . S
C1139 C1140 1.384 . S
C1139 C1141 1.479 . S
C1139 H1157 0.929 . S
C1140 C1137 1.424 . S
C1140 C1139 1.384 . S
C1140 H1158 0.928 . S
C1141 C1138 1.260 . S
C1141 C1139 1.479 . S
C1142 C1137 1.245 . S
C1142 C1138 1.477 . S
C1142 H1159 0.932 . S
C1143 U1126 2.882 . S
C1143 C1137 1.428 . S
C1143 O1146 1.301 . S
C1143 O1147 1.282 . S
O1144 U1126 2.441 . S
O1144 C1130 1.249 . S
O1145 U1126 2.420 . S
O1145 C1130 1.202 . S
O1146 U1126 2.455 . S
O1146 C1143 1.301 . S
O1147 U1126 2.449 . S
O1147 C1143 1.282 . S
H1148 C1121 0.931 . S
H1149 C1123 0.929 . S
H1150 C1124 0.930 . S
H1151 C1125 0.931 . S
H1152 C1132 0.932 . S
H1153 C1133 0.930 . S
H1154 C1134 0.929 . S
H1155 C1136 0.930 . S
H1156 C1138 0.932 . S
H1157 C1139 0.929 . S
H1158 C1140 0.928 . S
H1159 C1142 0.932 . S
C1160 C1161 1.264 . S
C1160 C1165 1.479 . S
C1160 C1170 1.465 . S
C1161 C1160 1.264 . S
C1161 C1163 1.339 . S
C1161 H1188 0.931 . S
C1162 C1163 1.395 . S
C1162 C1164 1.320 . S
C1163 C1161 1.339 . S
C1163 C1162 1.395 . S
C1163 H1189 0.929 . S
C1164 C1162 1.320 . S
C1164 C1165 1.405 . S
C1164 H1190 0.930 . S
C1165 C1160 1.479 . S
C1165 C1164 1.405 . S
C1165 H1191 0.931 . S
U1166 O1167 2.454 . S
U1166 O1168 2.458 . S
U1166 C1169 2.984 . S
U1166 C1170 2.847 . S
U1166 C1183 2.882 . S
U1166 O1184 2.441 . S
U1166 O1185 2.420 . S
U1166 O1186 2.455 . S
U1166 O1187 2.449 . S
O1167 U1166 2.454 . S
O1167 C1169 1.353 . S
O1168 U1166 2.458 . S
O1168 C1169 1.286 . S
C1169 U1166 2.984 . S
C1169 O1167 1.353 . S
C1169 O1168 1.286 . S
C1169 C1171 1.363 . S
C1170 C1160 1.465 . S
C1170 U1166 2.847 . S
C1170 O1184 1.249 . S
C1170 O1185 1.202 . S
C1171 C1169 1.363 . S
C1171 C1173 1.408 . S
C1171 C1176 1.342 . S
C1172 C1173 1.310 . S
C1172 C1175 1.461 . S
C1172 H1192 0.932 . S
C1173 C1171 1.408 . S
C1173 C1172 1.310 . S
C1173 H1193 0.930 . S
C1174 C1175 1.474 . S
C1174 C1176 1.285 . S
C1174 H1194 0.929 . S
C1175 C1172 1.461 . S
C1175 C1174 1.474 . S
C1176 C1171 1.342 . S
C1176 C1174 1.285 . S
C1176 H1195 0.930 . S
C1177 C1180 1.424 . S
C1177 C1182 1.245 . S
C1177 C1183 1.428 . S
C1178 C1181 1.260 . S
C1178 C1182 1.477 . S
C1178 H1196 0.932 . S
C1179 C1180 1.384 . S
C1179 C1181 1.479 . S
C1179 H1197 0.929 . S
C1180 C1177 1.424 . S
C1180 C1179 1.384 . S
C1180 H1198 0.928 . S
C1181 C1178 1.260 . S
C1181 C1179 1.479 . S
C1182 C1177 1.245 . S
C1182 C1178 1.477 . S
C1182 H1199 0.932 . S
C1183 U1166 2.882 . S
C1183 C1177 1.428 . S
C1183 O1186 1.301 . S
C1183 O1187 1.282 . S
O1184 U1166 2.441 . S
O1184 C1170 1.249 . S
O1185 U1166 2.420 . S
O1185 C1170 1.202 . S
O1186 U1166 2.455 . S
O1186 C1183 1.301 . S
O1187 U1166 2.449 . S
O1187 C1183 1.282 . S
H1188 C1161 0.931 . S
H1189 C1163 0.929 . S
H1190 C1164 0.930 . S
H1191 C1165 0.931 . S
H1192 C1172 0.932 . S
H1193 C1173 0.930 . S
H1194 C1174 0.929 . S
H1195 C1176 0.930 . S
H1196 C1178 0.932 . S
H1197 C1179 0.929 . S
H1198 C1180 0.928 . S
H1199 C1182 0.932 . S
C1200 C1201 1.264 . S
C1200 C1205 1.479 . S
C1200 C1210 1.465 . S
C1201 C1200 1.264 . S
C1201 C1203 1.339 . S
C1201 H1228 0.931 . S
C1202 C1203 1.395 . S
C1202 C1204 1.320 . S
C1203 C1201 1.339 . S
C1203 C1202 1.395 . S
C1203 H1229 0.929 . S
C1204 C1202 1.320 . S
C1204 C1205 1.405 . S
C1204 H1230 0.930 . S
C1205 C1200 1.479 . S
C1205 C1204 1.405 . S
C1205 H1231 0.931 . S
U1206 O1207 2.454 . S
U1206 O1208 2.458 . S
U1206 C1209 2.984 . S
U1206 C1210 2.847 . S
U1206 C1223 2.882 . S
U1206 O1224 2.441 . S
U1206 O1225 2.420 . S
U1206 O1226 2.455 . S
U1206 O1227 2.449 . S
O1207 U1206 2.454 . S
O1207 C1209 1.353 . S
O1208 U1206 2.458 . S
O1208 C1209 1.286 . S
C1209 U1206 2.984 . S
C1209 O1207 1.353 . S
C1209 O1208 1.286 . S
C1209 C1211 1.363 . S
C1210 C1200 1.465 . S
C1210 U1206 2.847 . S
C1210 O1224 1.249 . S
C1210 O1225 1.202 . S
C1211 C1209 1.363 . S
C1211 C1213 1.408 . S
C1211 C1216 1.342 . S
C1212 C1213 1.310 . S
C1212 C1215 1.461 . S
C1212 H1232 0.932 . S
C1213 C1211 1.408 . S
C1213 C1212 1.310 . S
C1213 H1233 0.930 . S
C1214 C1215 1.474 . S
C1214 C1216 1.285 . S
C1214 H1234 0.929 . S
C1215 C1212 1.461 . S
C1215 C1214 1.474 . S
C1216 C1211 1.342 . S
C1216 C1214 1.285 . S
C1216 H1235 0.930 . S
C1217 C1220 1.424 . S
C1217 C1222 1.245 . S
C1217 C1223 1.428 . S
C1218 C1221 1.260 . S
C1218 C1222 1.477 . S
C1218 H1236 0.932 . S
C1219 C1220 1.384 . S
C1219 C1221 1.479 . S
C1219 H1237 0.929 . S
C1220 C1217 1.424 . S
C1220 C1219 1.384 . S
C1220 H1238 0.928 . S
C1221 C1218 1.260 . S
C1221 C1219 1.479 . S
C1222 C1217 1.245 . S
C1222 C1218 1.477 . S
C1222 H1239 0.932 . S
C1223 U1206 2.882 . S
C1223 C1217 1.428 . S
C1223 O1226 1.301 . S
C1223 O1227 1.282 . S
O1224 U1206 2.441 . S
O1224 C1210 1.249 . S
O1225 U1206 2.420 . S
O1225 C1210 1.202 . S
O1226 U1206 2.455 . S
O1226 C1223 1.301 . S
O1227 U1206 2.449 . S
O1227 C1223 1.282 . S
H1228 C1201 0.931 . S
H1229 C1203 0.929 . S
H1230 C1204 0.930 . S
H1231 C1205 0.931 . S
H1232 C1212 0.932 . S
H1233 C1213 0.930 . S
H1234 C1214 0.929 . S
H1235 C1216 0.930 . S
H1236 C1218 0.932 . S
H1237 C1219 0.929 . S
H1238 C1220 0.928 . S
H1239 C1222 0.932 . S
C1240 C1241 1.264 . S
C1240 C1245 1.479 . S
C1240 C1250 1.465 . S
C1241 C1240 1.264 . S
C1241 C1243 1.339 . S
C1241 H1268 0.931 . S
C1242 C1243 1.395 . S
C1242 C1244 1.320 . S
C1243 C1241 1.339 . S
C1243 C1242 1.395 . S
C1243 H1269 0.929 . S
C1244 C1242 1.320 . S
C1244 C1245 1.405 . S
C1244 H1270 0.930 . S
C1245 C1240 1.479 . S
C1245 C1244 1.405 . S
C1245 H1271 0.931 . S
U1246 O1247 2.454 . S
U1246 O1248 2.458 . S
U1246 C1249 2.984 . S
U1246 C1250 2.847 . S
U1246 C1263 2.882 . S
U1246 O1264 2.441 . S
U1246 O1265 2.420 . S
U1246 O1266 2.455 . S
U1246 O1267 2.449 . S
O1247 U1246 2.454 . S
O1247 C1249 1.353 . S
O1248 U1246 2.458 . S
O1248 C1249 1.286 . S
C1249 U1246 2.984 . S
C1249 O1247 1.353 . S
C1249 O1248 1.286 . S
C1249 C1251 1.363 . S
C1250 C1240 1.465 . S
C1250 U1246 2.847 . S
C1250 O1264 1.249 . S
C1250 O1265 1.202 . S
C1251 C1249 1.363 . S
C1251 C1253 1.408 . S
C1251 C1256 1.342 . S
C1252 C1253 1.310 . S
C1252 C1255 1.461 . S
C1252 H1272 0.932 . S
C1253 C1251 1.408 . S
C1253 C1252 1.310 . S
C1253 H1273 0.930 . S
C1254 C1255 1.474 . S
C1254 C1256 1.285 . S
C1254 H1274 0.929 . S
C1255 C1252 1.461 . S
C1255 C1254 1.474 . S
C1256 C1251 1.342 . S
C1256 C1254 1.285 . S
C1256 H1275 0.930 . S
C1257 C1260 1.424 . S
C1257 C1262 1.245 . S
C1257 C1263 1.428 . S
C1258 C1261 1.260 . S
C1258 C1262 1.477 . S
C1258 H1276 0.932 . S
C1259 C1260 1.384 . S
C1259 C1261 1.479 . S
C1259 H1277 0.929 . S
C1260 C1257 1.424 . S
C1260 C1259 1.384 . S
C1260 H1278 0.928 . S
C1261 C1258 1.260 . S
C1261 C1259 1.479 . S
C1262 C1257 1.245 . S
C1262 C1258 1.477 . S
C1262 H1279 0.932 . S
C1263 U1246 2.882 . S
C1263 C1257 1.428 . S
C1263 O1266 1.301 . S
C1263 O1267 1.282 . S
O1264 U1246 2.441 . S
O1264 C1250 1.249 . S
O1265 U1246 2.420 . S
O1265 C1250 1.202 . S
O1266 U1246 2.455 . S
O1266 C1263 1.301 . S
O1267 U1246 2.449 . S
O1267 C1263 1.282 . S
H1268 C1241 0.931 . S
H1269 C1243 0.929 . S
H1270 C1244 0.930 . S
H1271 C1245 0.931 . S
H1272 C1252 0.932 . S
H1273 C1253 0.930 . S
H1274 C1254 0.929 . S
H1275 C1256 0.930 . S
H1276 C1258 0.932 . S
H1277 C1259 0.929 . S
H1278 C1260 0.928 . S
H1279 C1262 0.932 . S
H1280 C1286 0.930 . S
H1281 C1289 0.931 . S
H1282 C1291 0.931 . S
H1283 C1293 0.930 . S
H1284 C1295 0.930 . S
H1285 C1297 0.931 . S
C1286 H1280 0.930 . S
C1286 C1287 1.380 . S
C1286 C1288 1.394 . S
C1287 C1286 1.380 . S
C1287 C1291 1.382 . S
C1288 C1286 1.394 . S
C1288 C1289 1.400 . S
C1289 H1281 0.931 . S
C1289 C1288 1.400 . S
C1289 C1290 1.375 . S
C1290 C1289 1.375 . S
C1290 C1291 1.415 . S
C1290 C1292 1.501 1_556 S
C1291 H1282 0.931 . S
C1291 C1287 1.382 . S
C1291 C1290 1.415 . S
C1292 C1290 1.501 1_554 S
C1292 C1293 1.384 . S
C1292 C1297 1.408 . S
C1293 H1283 0.930 . S
C1293 C1292 1.384 . S
C1293 C1294 1.389 . S
C1294 C1293 1.389 . S
C1294 C1295 1.405 . S
C1295 H1284 0.930 . S
C1295 C1294 1.405 . S
C1295 C1296 1.364 . S
C1296 C1295 1.364 . S
C1296 C1297 1.400 . S
C1297 H1285 0.931 . S
C1297 C1292 1.408 . S
C1297 C1296 1.400 . S
H1298 C1304 0.930 . S
H1299 C1307 0.931 . S
H1300 C1309 0.931 . S
H1301 C1311 0.930 . S
H1302 C1313 0.930 . S
H1303 C1315 0.931 . S
C1304 H1298 0.930 . S
C1304 C1305 1.380 . S
C1304 C1306 1.394 . S
C1305 C1304 1.380 . S
C1305 C1309 1.382 . S
C1306 C1304 1.394 . S
C1306 C1307 1.400 . S
C1307 H1299 0.931 . S
C1307 C1306 1.400 . S
C1307 C1308 1.375 . S
C1308 C1307 1.375 . S
C1308 C1309 1.415 . S
C1308 C1310 1.555 . S
C1309 H1300 0.931 . S
C1309 C1305 1.382 . S
C1309 C1308 1.415 . S
C1310 C1308 1.555 . S
C1310 C1311 1.357 1_554 S
C1310 C1315 1.381 1_554 S
C1311 H1301 0.930 . S
C1311 C1310 1.357 1_556 S
C1311 C1312 1.389 . S
C1312 C1311 1.389 . S
C1312 C1313 1.405 . S
C1313 H1302 0.930 . S
C1313 C1312 1.405 . S
C1313 C1314 1.364 . S
C1314 C1313 1.364 . S
C1314 C1315 1.400 . S
C1315 H1303 0.931 . S
C1315 C1310 1.381 1_556 S
C1315 C1314 1.400 . S
H1316 C1322 0.930 . S
H1317 C1325 0.931 . S
H1318 C1327 0.931 . S
H1319 C1329 0.930 . S
H1320 C1331 0.930 . S
H1321 C1333 0.931 . S
C1322 H1316 0.930 . S
C1322 C1323 1.380 . S
C1322 C1324 1.394 . S
C1323 C1322 1.380 . S
C1323 C1327 1.382 . S
C1324 C1322 1.394 . S
C1324 C1325 1.400 . S
C1325 H1317 0.931 . S
C1325 C1324 1.400 . S
C1325 C1326 1.375 . S
C1326 C1325 1.375 . S
C1326 C1327 1.415 . S
C1326 C1328 1.501 1_556 S
C1327 H1318 0.931 . S
C1327 C1323 1.382 . S
C1327 C1326 1.415 . S
C1328 C1326 1.501 1_554 S
C1328 C1329 1.384 . S
C1328 C1333 1.408 . S
C1329 H1319 0.930 . S
C1329 C1328 1.384 . S
C1329 C1330 1.389 . S
C1330 C1329 1.389 . S
C1330 C1331 1.405 . S
C1331 H1320 0.930 . S
C1331 C1330 1.405 . S
C1331 C1332 1.364 . S
C1332 C1331 1.364 . S
C1332 C1333 1.400 . S
C1333 H1321 0.931 . S
C1333 C1328 1.408 . S
C1333 C1332 1.400 . S
H1334 C1340 0.930 . S
H1335 C1343 0.931 . S
H1336 C1345 0.931 . S
H1337 C1347 0.930 . S
H1338 C1349 0.930 . S
H1339 C1351 0.931 . S
C1340 H1334 0.930 . S
C1340 C1341 1.380 . S
C1340 C1342 1.394 . S
C1341 C1340 1.380 . S
C1341 C1345 1.382 . S
C1342 C1340 1.394 . S
C1342 C1343 1.400 . S
C1343 H1335 0.931 . S
C1343 C1342 1.400 . S
C1343 C1344 1.375 . S
C1344 C1343 1.375 . S
C1344 C1345 1.415 . S
C1344 C1346 1.549 . S
C1345 H1336 0.931 . S
C1345 C1341 1.382 . S
C1345 C1344 1.415 . S
C1346 C1344 1.549 . S
C1346 C1347 1.359 1_554 S
C1346 C1351 1.384 1_554 S
C1347 H1337 0.930 . S
C1347 C1346 1.359 1_556 S
C1347 C1348 1.389 . S
C1348 C1347 1.389 . S
C1348 C1349 1.405 . S
C1349 H1338 0.930 . S
C1349 C1348 1.405 . S
C1349 C1350 1.364 . S
C1350 C1349 1.364 . S
C1350 C1351 1.400 . S
C1351 H1339 0.931 . S
C1351 C1346 1.384 1_556 S
C1351 C1350 1.400 . S
H1352 C1358 0.930 . S
H1353 C1361 0.931 . S
H1354 C1363 0.931 . S
H1355 C1365 0.930 . S
H1356 C1367 0.930 . S
H1357 C1369 0.931 . S
C1358 H1352 0.930 . S
C1358 C1359 1.380 . S
C1358 C1360 1.394 . S
C1359 C1358 1.380 . S
C1359 C1363 1.382 . S
C1360 C1358 1.394 . S
C1360 C1361 1.400 . S
C1361 H1353 0.931 . S
C1361 C1360 1.400 . S
C1361 C1362 1.375 . S
C1362 C1361 1.375 . S
C1362 C1363 1.415 . S
C1362 C1364 1.501 1_455 S
C1363 H1354 0.931 . S
C1363 C1359 1.382 . S
C1363 C1362 1.415 . S
C1364 C1362 1.501 1_655 S
C1364 C1365 1.384 . S
C1364 C1369 1.408 . S
C1365 H1355 0.930 . S
C1365 C1364 1.384 . S
C1365 C1366 1.389 . S
C1366 C1365 1.389 . S
C1366 C1367 1.405 . S
C1367 H1356 0.930 . S
C1367 C1366 1.405 . S
C1367 C1368 1.364 . S
C1368 C1367 1.364 . S
C1368 C1369 1.400 . S
C1369 H1357 0.931 . S
C1369 C1364 1.408 . S
C1369 C1368 1.400 . S
H1370 C1376 0.930 . S
H1371 C1379 0.931 . S
H1372 C1381 0.931 . S
H1373 C1383 0.930 . S
H1374 C1385 0.930 . S
H1375 C1387 0.931 . S
C1376 H1370 0.930 . S
C1376 C1377 1.380 . S
C1376 C1378 1.394 . S
C1377 C1376 1.380 . S
C1377 C1381 1.382 . S
C1378 C1376 1.394 . S
C1378 C1379 1.400 . S
C1379 H1371 0.931 . S
C1379 C1378 1.400 . S
C1379 C1380 1.375 . S
C1380 C1379 1.375 . S
C1380 C1381 1.415 . S
C1380 C1382 1.501 1_565 S
C1381 H1372 0.931 . S
C1381 C1377 1.382 . S
C1381 C1380 1.415 . S
C1382 C1380 1.501 1_545 S
C1382 C1383 1.384 . S
C1382 C1387 1.408 . S
C1383 H1373 0.930 . S
C1383 C1382 1.384 . S
C1383 C1384 1.389 . S
C1384 C1383 1.389 . S
C1384 C1385 1.405 . S
C1385 H1374 0.930 . S
C1385 C1384 1.405 . S
C1385 C1386 1.364 . S
C1386 C1385 1.364 . S
C1386 C1387 1.400 . S
C1387 H1375 0.931 . S
C1387 C1382 1.408 . S
C1387 C1386 1.400 . S
H1388 C1394 0.930 . S
H1389 C1397 0.931 . S
H1390 C1399 0.931 . S
H1391 C1401 0.930 . S
H1392 C1403 0.930 . S
H1393 C1405 0.931 . S
C1394 H1388 0.930 . S
C1394 C1395 1.380 . S
C1394 C1396 1.394 . S
C1395 C1394 1.380 . S
C1395 C1399 1.382 . S
C1396 C1394 1.394 . S
C1396 C1397 1.400 . S
C1397 H1389 0.931 . S
C1397 C1396 1.400 . S
C1397 C1398 1.375 . S
C1398 C1397 1.375 . S
C1398 C1399 1.415 . S
C1398 C1400 1.501 1_455 S
C1399 H1390 0.931 . S
C1399 C1395 1.382 . S
C1399 C1398 1.415 . S
C1400 C1398 1.501 1_655 S
C1400 C1401 1.384 . S
C1400 C1405 1.408 . S
C1401 H1391 0.930 . S
C1401 C1400 1.384 . S
C1401 C1402 1.389 . S
C1402 C1401 1.389 . S
C1402 C1403 1.405 . S
C1403 H1392 0.930 . S
C1403 C1402 1.405 . S
C1403 C1404 1.364 . S
C1404 C1403 1.364 . S
C1404 C1405 1.400 . S
C1405 H1393 0.931 . S
C1405 C1400 1.408 . S
C1405 C1404 1.400 . S
H1406 C1412 0.930 . S
H1407 C1415 0.931 . S
H1408 C1417 0.931 . S
H1409 C1419 0.930 . S
H1410 C1421 0.930 . S
H1411 C1423 0.931 . S
C1412 H1406 0.930 . S
C1412 C1413 1.380 . S
C1412 C1414 1.394 . S
C1413 C1412 1.380 . S
C1413 C1417 1.382 . S
C1414 C1412 1.394 . S
C1414 C1415 1.400 . S
C1415 H1407 0.931 . S
C1415 C1414 1.400 . S
C1415 C1416 1.375 . S
C1416 C1415 1.375 . S
C1416 C1417 1.415 . S
C1416 C1418 1.501 1_545 S
C1417 H1408 0.931 . S
C1417 C1413 1.382 . S
C1417 C1416 1.415 . S
C1418 C1416 1.501 1_565 S
C1418 C1419 1.384 . S
C1418 C1423 1.408 . S
C1419 H1409 0.930 . S
C1419 C1418 1.384 . S
C1419 C1420 1.389 . S
C1420 C1419 1.389 . S
C1420 C1421 1.405 . S
C1421 H1410 0.930 . S
C1421 C1420 1.405 . S
C1421 C1422 1.364 . S
C1422 C1421 1.364 . S
C1422 C1423 1.400 . S
C1423 H1411 0.931 . S
C1423 C1418 1.408 . S
C1423 C1422 1.400 . S
H1424 C1430 0.930 . S
H1425 C1433 0.931 . S
H1426 C1435 0.931 . S
H1427 C1437 0.930 . S
H1428 C1439 0.930 . S
H1429 C1441 0.931 . S
C1430 H1424 0.930 . S
C1430 C1431 1.380 . S
C1430 C1432 1.394 . S
C1431 C1430 1.380 . S
C1431 C1435 1.382 . S
C1432 C1430 1.394 . S
C1432 C1433 1.400 . S
C1433 H1425 0.931 . S
C1433 C1432 1.400 . S
C1433 C1434 1.375 . S
C1434 C1433 1.375 . S
C1434 C1435 1.415 . S
C1434 C1436 1.501 1_455 S
C1435 H1426 0.931 . S
C1435 C1431 1.382 . S
C1435 C1434 1.415 . S
C1436 C1434 1.501 1_655 S
C1436 C1437 1.384 . S
C1436 C1441 1.408 . S
C1437 H1427 0.930 . S
C1437 C1436 1.384 . S
C1437 C1438 1.389 . S
C1438 C1437 1.389 . S
C1438 C1439 1.405 . S
C1439 H1428 0.930 . S
C1439 C1438 1.405 . S
C1439 C1440 1.364 . S
C1440 C1439 1.364 . S
C1440 C1441 1.400 . S
C1441 H1429 0.931 . S
C1441 C1436 1.408 . S
C1441 C1440 1.400 . S
H1442 C1448 0.930 . S
H1443 C1451 0.931 . S
H1444 C1453 0.931 . S
H1445 C1455 0.930 . S
H1446 C1457 0.930 . S
H1447 C1459 0.931 . S
C1448 H1442 0.930 . S
C1448 C1449 1.380 . S
C1448 C1450 1.394 . S
C1449 C1448 1.380 . S
C1449 C1453 1.382 . S
C1450 C1448 1.394 . S
C1450 C1451 1.400 . S
C1451 H1443 0.931 . S
C1451 C1450 1.400 . S
C1451 C1452 1.375 . S
C1452 C1451 1.375 . S
C1452 C1453 1.415 . S
C1452 C1454 1.501 1_565 S
C1453 H1444 0.931 . S
C1453 C1449 1.382 . S
C1453 C1452 1.415 . S
C1454 C1452 1.501 1_545 S
C1454 C1455 1.384 . S
C1454 C1459 1.408 . S
C1455 H1445 0.930 . S
C1455 C1454 1.384 . S
C1455 C1456 1.389 . S
C1456 C1455 1.389 . S
C1456 C1457 1.405 . S
C1457 H1446 0.930 . S
C1457 C1456 1.405 . S
C1457 C1458 1.364 . S
C1458 C1457 1.364 . S
C1458 C1459 1.400 . S
C1459 H1447 0.931 . S
C1459 C1454 1.408 . S
C1459 C1458 1.400 . S
H1460 C1466 0.930 . S
H1461 C1469 0.931 . S
H1462 C1471 0.931 . S
H1463 C1473 0.930 . S
H1464 C1475 0.930 . S
H1465 C1477 0.931 . S
C1466 H1460 0.930 . S
C1466 C1467 1.380 . S
C1466 C1468 1.394 . S
C1467 C1466 1.380 . S
C1467 C1471 1.382 . S
C1468 C1466 1.394 . S
C1468 C1469 1.400 . S
C1469 H1461 0.931 . S
C1469 C1468 1.400 . S
C1469 C1470 1.375 . S
C1470 C1469 1.375 . S
C1470 C1471 1.415 . S
C1470 C1472 1.501 1_455 S
C1471 H1462 0.931 . S
C1471 C1467 1.382 . S
C1471 C1470 1.415 . S
C1472 C1470 1.501 1_655 S
C1472 C1473 1.384 . S
C1472 C1477 1.408 . S
C1473 H1463 0.930 . S
C1473 C1472 1.384 . S
C1473 C1474 1.389 . S
C1474 C1473 1.389 . S
C1474 C1475 1.405 . S
C1475 H1464 0.930 . S
C1475 C1474 1.405 . S
C1475 C1476 1.364 . S
C1476 C1475 1.364 . S
C1476 C1477 1.400 . S
C1477 H1465 0.931 . S
C1477 C1472 1.408 . S
C1477 C1476 1.400 . S
H1478 C1484 0.930 . S
H1479 C1487 0.931 . S
H1480 C1489 0.931 . S
H1481 C1491 0.930 . S
H1482 C1493 0.930 . S
H1483 C1495 0.931 . S
C1484 H1478 0.930 . S
C1484 C1485 1.380 . S
C1484 C1486 1.394 . S
C1485 C1484 1.380 . S
C1485 C1489 1.382 . S
C1486 C1484 1.394 . S
C1486 C1487 1.400 . S
C1487 H1479 0.931 . S
C1487 C1486 1.400 . S
C1487 C1488 1.375 . S
C1488 C1487 1.375 . S
C1488 C1489 1.415 . S
C1488 C1490 1.501 1_545 S
C1489 H1480 0.931 . S
C1489 C1485 1.382 . S
C1489 C1488 1.415 . S
C1490 C1488 1.501 1_565 S
C1490 C1491 1.384 . S
C1490 C1495 1.408 . S
C1491 H1481 0.930 . S
C1491 C1490 1.384 . S
C1491 C1492 1.389 . S
C1492 C1491 1.389 . S
C1492 C1493 1.405 . S
C1493 H1482 0.930 . S
C1493 C1492 1.405 . S
C1493 C1494 1.364 . S
C1494 C1493 1.364 . S
C1494 C1495 1.400 . S
C1495 H1483 0.931 . S
C1495 C1490 1.408 . S
C1495 C1494 1.400 . S
H1496 C1502 0.930 . S
H1497 C1505 0.931 . S
H1498 C1507 0.931 . S
H1499 C1509 0.930 . S
H1500 C1511 0.930 . S
H1501 C1513 0.931 . S
C1502 H1496 0.930 . S
C1502 C1503 1.380 . S
C1502 C1504 1.394 . S
C1503 C1502 1.380 . S
C1503 C1507 1.382 . S
C1504 C1502 1.394 . S
C1504 C1505 1.400 . S
C1505 H1497 0.931 . S
C1505 C1504 1.400 . S
C1505 C1506 1.375 . S
C1506 C1505 1.375 . S
C1506 C1507 1.415 . S
C1506 C1508 1.501 . S
C1507 H1498 0.931 . S
C1507 C1503 1.382 . S
C1507 C1506 1.415 . S
C1508 C1506 1.501 . S
C1508 C1509 1.384 . S
C1508 C1513 1.408 . S
C1509 H1499 0.930 . S
C1509 C1508 1.384 . S
C1509 C1510 1.389 . S
C1510 C1509 1.389 . S
C1510 C1511 1.405 . S
C1511 H1500 0.930 . S
C1511 C1510 1.405 . S
C1511 C1512 1.364 . S
C1512 C1511 1.364 . S
C1512 C1513 1.400 . S
C1513 H1501 0.931 . S
C1513 C1508 1.408 . S
C1513 C1512 1.400 . S
H1514 C1520 0.930 . S
H1515 C1523 0.931 . S
H1516 C1525 0.931 . S
H1517 C1527 0.930 . S
H1518 C1529 0.930 . S
H1519 C1531 0.931 . S
C1520 H1514 0.930 . S
C1520 C1521 1.380 . S
C1520 C1522 1.394 . S
C1521 C1520 1.380 . S
C1521 C1525 1.382 . S
C1522 C1520 1.394 . S
C1522 C1523 1.400 . S
C1523 H1515 0.931 . S
C1523 C1522 1.400 . S
C1523 C1524 1.375 . S
C1524 C1523 1.375 . S
C1524 C1525 1.415 . S
C1524 C1526 1.501 . S
C1525 H1516 0.931 . S
C1525 C1521 1.382 . S
C1525 C1524 1.415 . S
C1526 C1524 1.501 . S
C1526 C1527 1.384 . S
C1526 C1531 1.408 . S
C1527 H1517 0.930 . S
C1527 C1526 1.384 . S
C1527 C1528 1.389 . S
C1528 C1527 1.389 . S
C1528 C1529 1.405 . S
C1529 H1518 0.930 . S
C1529 C1528 1.405 . S
C1529 C1530 1.364 . S
C1530 C1529 1.364 . S
C1530 C1531 1.400 . S
C1531 H1519 0.931 . S
C1531 C1526 1.408 . S
C1531 C1530 1.400 . S
H1532 C1538 0.930 . S
H1533 C1541 0.931 . S
H1534 C1543 0.931 . S
H1535 C1545 0.930 . S
H1536 C1547 0.930 . S
H1537 C1549 0.931 . S
C1538 H1532 0.930 . S
C1538 C1539 1.380 . S
C1538 C1540 1.394 . S
C1539 C1538 1.380 . S
C1539 C1543 1.382 . S
C1540 C1538 1.394 . S
C1540 C1541 1.400 . S
C1541 H1533 0.931 . S
C1541 C1540 1.400 . S
C1541 C1542 1.375 . S
C1542 C1541 1.375 . S
C1542 C1543 1.415 . S
C1542 C1544 1.501 . S
C1543 H1534 0.931 . S
C1543 C1539 1.382 . S
C1543 C1542 1.415 . S
C1544 C1542 1.501 . S
C1544 C1545 1.384 . S
C1544 C1549 1.408 . S
C1545 H1535 0.930 . S
C1545 C1544 1.384 . S
C1545 C1546 1.389 . S
C1546 C1545 1.389 . S
C1546 C1547 1.405 . S
C1547 H1536 0.930 . S
C1547 C1546 1.405 . S
C1547 C1548 1.364 . S
C1548 C1547 1.364 . S
C1548 C1549 1.400 . S
C1549 H1537 0.931 . S
C1549 C1544 1.408 . S
C1549 C1548 1.400 . S
H1550 C1556 0.930 . S
H1551 C1559 0.931 . S
H1552 C1561 0.931 . S
H1553 C1563 0.930 . S
H1554 C1565 0.930 . S
H1555 C1567 0.931 . S
C1556 H1550 0.930 . S
C1556 C1557 1.380 . S
C1556 C1558 1.394 . S
C1557 C1556 1.380 . S
C1557 C1561 1.382 . S
C1558 C1556 1.394 . S
C1558 C1559 1.400 . S
C1559 H1551 0.931 . S
C1559 C1558 1.400 . S
C1559 C1560 1.375 . S
C1560 C1559 1.375 . S
C1560 C1561 1.415 . S
C1560 C1562 1.501 . S
C1561 H1552 0.931 . S
C1561 C1557 1.382 . S
C1561 C1560 1.415 . S
C1562 C1560 1.501 . S
C1562 C1563 1.384 . S
C1562 C1567 1.408 . S
C1563 H1553 0.930 . S
C1563 C1562 1.384 . S
C1563 C1564 1.389 . S
C1564 C1563 1.389 . S
C1564 C1565 1.405 . S
C1565 H1554 0.930 . S
C1565 C1564 1.405 . S
C1565 C1566 1.364 . S
C1566 C1565 1.364 . S
C1566 C1567 1.400 . S
C1567 H1555 0.931 . S
C1567 C1562 1.408 . S
C1567 C1566 1.400 . S
H1568 C1574 0.930 . S
H1569 C1577 0.931 . S
H1570 C1579 0.931 . S
H1571 C1581 0.930 . S
H1572 C1583 0.930 . S
H1573 C1585 0.931 . S
C1574 H1568 0.930 . S
C1574 C1575 1.380 . S
C1574 C1576 1.394 . S
C1575 C1574 1.380 . S
C1575 C1579 1.382 . S
C1576 C1574 1.394 . S
C1576 C1577 1.400 . S
C1577 H1569 0.931 . S
C1577 C1576 1.400 . S
C1577 C1578 1.375 . S
C1578 C1577 1.375 . S
C1578 C1579 1.415 . S
C1578 C1580 1.501 . S
C1579 H1570 0.931 . S
C1579 C1575 1.382 . S
C1579 C1578 1.415 . S
C1580 C1578 1.501 . S
C1580 C1581 1.384 . S
C1580 C1585 1.408 . S
C1581 H1571 0.930 . S
C1581 C1580 1.384 . S
C1581 C1582 1.389 . S
C1582 C1581 1.389 . S
C1582 C1583 1.405 . S
C1583 H1572 0.930 . S
C1583 C1582 1.405 . S
C1583 C1584 1.364 . S
C1584 C1583 1.364 . S
C1584 C1585 1.400 . S
C1585 H1573 0.931 . S
C1585 C1580 1.408 . S
C1585 C1584 1.400 . S
H1586 C1592 0.930 . S
H1587 C1595 0.931 . S
H1588 C1597 0.931 . S
H1589 C1599 0.930 . S
H1590 C1601 0.930 . S
H1591 C1603 0.931 . S
C1592 H1586 0.930 . S
C1592 C1593 1.380 . S
C1592 C1594 1.394 . S
C1593 C1592 1.380 . S
C1593 C1597 1.382 . S
C1594 C1592 1.394 . S
C1594 C1595 1.400 . S
C1595 H1587 0.931 . S
C1595 C1594 1.400 . S
C1595 C1596 1.375 . S
C1596 C1595 1.375 . S
C1596 C1597 1.415 . S
C1596 C1598 1.501 . S
C1597 H1588 0.931 . S
C1597 C1593 1.382 . S
C1597 C1596 1.415 . S
C1598 C1596 1.501 . S
C1598 C1599 1.384 . S
C1598 C1603 1.408 . S
C1599 H1589 0.930 . S
C1599 C1598 1.384 . S
C1599 C1600 1.389 . S
C1600 C1599 1.389 . S
C1600 C1601 1.405 . S
C1601 H1590 0.930 . S
C1601 C1600 1.405 . S
C1601 C1602 1.364 . S
C1602 C1601 1.364 . S
C1602 C1603 1.400 . S
C1603 H1591 0.931 . S
C1603 C1598 1.408 . S
C1603 C1602 1.400 . S
H1604 C1610 0.930 . S
H1605 C1613 0.931 . S
H1606 C1615 0.931 . S
H1607 C1617 0.930 . S
H1608 C1619 0.930 . S
H1609 C1621 0.931 . S
C1610 H1604 0.930 . S
C1610 C1611 1.380 . S
C1610 C1612 1.394 . S
C1611 C1610 1.380 . S
C1611 C1615 1.382 . S
C1612 C1610 1.394 . S
C1612 C1613 1.400 . S
C1613 H1605 0.931 . S
C1613 C1612 1.400 . S
C1613 C1614 1.375 . S
C1614 C1613 1.375 . S
C1614 C1615 1.415 . S
C1614 C1616 1.501 . S
C1615 H1606 0.931 . S
C1615 C1611 1.382 . S
C1615 C1614 1.415 . S
C1616 C1614 1.501 . S
C1616 C1617 1.384 . S
C1616 C1621 1.408 . S
C1617 H1607 0.930 . S
C1617 C1616 1.384 . S
C1617 C1618 1.389 . S
C1618 C1617 1.389 . S
C1618 C1619 1.405 . S
C1619 H1608 0.930 . S
C1619 C1618 1.405 . S
C1619 C1620 1.364 . S
C1620 C1619 1.364 . S
C1620 C1621 1.400 . S
C1621 H1609 0.931 . S
C1621 C1616 1.408 . S
C1621 C1620 1.400 . S
H1622 C1628 0.930 . S
H1623 C1631 0.931 . S
H1624 C1633 0.931 . S
H1625 C1635 0.930 . S
H1626 C1637 0.930 . S
H1627 C1639 0.931 . S
C1628 H1622 0.930 . S
C1628 C1629 1.380 . S
C1628 C1630 1.394 . S
C1629 C1628 1.380 . S
C1629 C1633 1.382 . S
C1630 C1628 1.394 . S
C1630 C1631 1.400 . S
C1631 H1623 0.931 . S
C1631 C1630 1.400 . S
C1631 C1632 1.375 . S
C1632 C1631 1.375 . S
C1632 C1633 1.415 . S
C1632 C1634 1.501 . S
C1633 H1624 0.931 . S
C1633 C1629 1.382 . S
C1633 C1632 1.415 . S
C1634 C1632 1.501 . S
C1634 C1635 1.384 . S
C1634 C1639 1.408 . S
C1635 H1625 0.930 . S
C1635 C1634 1.384 . S
C1635 C1636 1.389 . S
C1636 C1635 1.389 . S
C1636 C1637 1.405 . S
C1637 H1626 0.930 . S
C1637 C1636 1.405 . S
C1637 C1638 1.364 . S
C1638 C1637 1.364 . S
C1638 C1639 1.400 . S
C1639 H1627 0.931 . S
C1639 C1634 1.408 . S
C1639 C1638 1.400 . S
H1640 C1646 0.930 . S
H1641 C1649 0.931 . S
H1642 C1651 0.931 . S
H1643 C1653 0.930 . S
H1644 C1655 0.930 . S
H1645 C1657 0.931 . S
C1646 H1640 0.930 . S
C1646 C1647 1.380 . S
C1646 C1648 1.394 . S
C1647 C1646 1.380 . S
C1647 C1651 1.382 . S
C1648 C1646 1.394 . S
C1648 C1649 1.400 . S
C1649 H1641 0.931 . S
C1649 C1648 1.400 . S
C1649 C1650 1.375 . S
C1650 C1649 1.375 . S
C1650 C1651 1.415 . S
C1650 C1652 1.501 . S
C1651 H1642 0.931 . S
C1651 C1647 1.382 . S
C1651 C1650 1.415 . S
C1652 C1650 1.501 . S
C1652 C1653 1.384 . S
C1652 C1657 1.408 . S
C1653 H1643 0.930 . S
C1653 C1652 1.384 . S
C1653 C1654 1.389 . S
C1654 C1653 1.389 . S
C1654 C1655 1.405 . S
C1655 H1644 0.930 . S
C1655 C1654 1.405 . S
C1655 C1656 1.364 . S
C1656 C1655 1.364 . S
C1656 C1657 1.400 . S
C1657 H1645 0.931 . S
C1657 C1652 1.408 . S
C1657 C1656 1.400 . S
H1658 C1664 0.930 . S
H1659 C1667 0.931 . S
H1660 C1669 0.931 . S
H1661 C1671 0.930 . S
H1662 C1673 0.930 . S
H1663 C1675 0.931 . S
C1664 H1658 0.930 . S
C1664 C1665 1.380 . S
C1664 C1666 1.394 . S
C1665 C1664 1.380 . S
C1665 C1669 1.382 . S
C1666 C1664 1.394 . S
C1666 C1667 1.400 . S
C1667 H1659 0.931 . S
C1667 C1666 1.400 . S
C1667 C1668 1.375 . S
C1668 C1667 1.375 . S
C1668 C1669 1.415 . S
C1668 C1670 1.501 . S
C1669 H1660 0.931 . S
C1669 C1665 1.382 . S
C1669 C1668 1.415 . S
C1670 C1668 1.501 . S
C1670 C1671 1.384 . S
C1670 C1675 1.408 . S
C1671 H1661 0.930 . S
C1671 C1670 1.384 . S
C1671 C1672 1.389 . S
C1672 C1671 1.389 . S
C1672 C1673 1.405 . S
C1673 H1662 0.930 . S
C1673 C1672 1.405 . S
C1673 C1674 1.364 . S
C1674 C1673 1.364 . S
C1674 C1675 1.400 . S
C1675 H1663 0.931 . S
C1675 C1670 1.408 . S
C1675 C1674 1.400 . S
H1676 C1682 0.930 . S
H1677 C1685 0.931 . S
H1678 C1687 0.931 . S
H1679 C1689 0.930 . S
H1680 C1691 0.930 . S
H1681 C1693 0.931 . S
C1682 H1676 0.930 . S
C1682 C1683 1.380 . S
C1682 C1684 1.394 . S
C1683 C1682 1.380 . S
C1683 C1687 1.382 . S
C1684 C1682 1.394 . S
C1684 C1685 1.400 . S
C1685 H1677 0.931 . S
C1685 C1684 1.400 . S
C1685 C1686 1.375 . S
C1686 C1685 1.375 . S
C1686 C1687 1.415 . S
C1686 C1688 1.501 . S
C1687 H1678 0.931 . S
C1687 C1683 1.382 . S
C1687 C1686 1.415 . S
C1688 C1686 1.501 . S
C1688 C1689 1.384 . S
C1688 C1693 1.408 . S
C1689 H1679 0.930 . S
C1689 C1688 1.384 . S
C1689 C1690 1.389 . S
C1690 C1689 1.389 . S
C1690 C1691 1.405 . S
C1691 H1680 0.930 . S
C1691 C1690 1.405 . S
C1691 C1692 1.364 . S
C1692 C1691 1.364 . S
C1692 C1693 1.400 . S
C1693 H1681 0.931 . S
C1693 C1688 1.408 . S
C1693 C1692 1.400 . S
H1694 C1700 0.930 . S
H1695 C1703 0.931 . S
H1696 C1705 0.931 . S
H1697 C1707 0.930 . S
H1698 C1709 0.930 . S
H1699 C1711 0.931 . S
C1700 H1694 0.930 . S
C1700 C1701 1.380 . S
C1700 C1702 1.394 . S
C1701 C1700 1.380 . S
C1701 C1705 1.382 . S
C1702 C1700 1.394 . S
C1702 C1703 1.400 . S
C1703 H1695 0.931 . S
C1703 C1702 1.400 . S
C1703 C1704 1.375 . S
C1704 C1703 1.375 . S
C1704 C1705 1.415 . S
C1704 C1706 1.501 . S
C1705 H1696 0.931 . S
C1705 C1701 1.382 . S
C1705 C1704 1.415 . S
C1706 C1704 1.501 . S
C1706 C1707 1.384 . S
C1706 C1711 1.408 . S
C1707 H1697 0.930 . S
C1707 C1706 1.384 . S
C1707 C1708 1.389 . S
C1708 C1707 1.389 . S
C1708 C1709 1.405 . S
C1709 H1698 0.930 . S
C1709 C1708 1.405 . S
C1709 C1710 1.364 . S
C1710 C1709 1.364 . S
C1710 C1711 1.400 . S
C1711 H1699 0.931 . S
C1711 C1706 1.408 . S
C1711 C1710 1.400 . S
C1712 C1713 1.349 . S
C1712 C1714 1.327 . S
C1712 H1737 0.950 . S
C1713 C1712 1.349 . S
C1713 C1729 1.349 . S
C1714 C1712 1.327 . S
C1714 C1733 1.429 . S
C1714 H1738 0.950 . S
C1715 C1732 1.574 . S
C1715 C1734 1.368 . S
C1715 H1739 0.949 . S
H1716 C1720 0.949 . S
C1717 C1718 1.349 . S
C1717 C1719 1.327 . S
C1717 H1740 0.950 . S
C1718 C1717 1.349 . S
C1718 C1730 1.349 . S
C1719 C1717 1.327 . S
C1719 C1735 1.429 . S
C1719 H1741 0.950 . S
C1720 H1716 0.949 . S
C1720 C1728 1.574 . S
C1720 C1736 1.368 . S
H1721 C1729 0.950 . S
H1722 C1727 0.950 . S
H1723 C1728 0.949 . S
H1724 C1730 0.950 . S
H1725 C1731 0.950 . S
H1726 C1732 0.949 . S
C1727 H1722 0.950 . S
C1727 C1729 1.327 . S
C1727 C1733 1.429 . S
C1728 C1720 1.574 . S
C1728 H1723 0.949 . S
C1728 C1734 1.368 . S
C1729 C1713 1.349 . S
C1729 H1721 0.950 . S
C1729 C1727 1.327 . S
C1730 C1718 1.349 . S
C1730 H1724 0.950 . S
C1730 C1731 1.327 . S
C1731 H1725 0.950 . S
C1731 C1730 1.327 . S
C1731 C1735 1.429 . S
C1732 C1715 1.574 . S
C1732 H1726 0.949 . S
C1732 C1736 1.368 . S
C1733 C1714 1.429 . S
C1733 C1727 1.429 . S
C1733 C1734 1.523 . S
C1734 C1715 1.368 . S
C1734 C1728 1.368 . S
C1734 C1733 1.523 . S
C1735 C1719 1.429 . S
C1735 C1731 1.429 . S
C1735 C1736 1.523 . S
C1736 C1720 1.368 . S
C1736 C1732 1.368 . S
C1736 C1735 1.523 . S
H1737 C1712 0.950 . S
H1738 C1714 0.950 . S
H1739 C1715 0.949 . S
H1740 C1717 0.950 . S
H1741 C1719 0.950 . S
C1742 C1743 1.349 . S
C1742 C1744 1.327 . S
C1742 H1767 0.950 . S
C1743 C1742 1.349 . S
C1743 C1759 1.349 . S
C1744 C1742 1.327 . S
C1744 C1763 1.429 . S
C1744 H1768 0.950 . S
C1745 C1762 1.574 . S
C1745 C1764 1.368 . S
C1745 H1769 0.949 . S
H1746 C1750 0.949 . S
C1747 C1748 1.349 . S
C1747 C1749 1.327 . S
C1747 H1770 0.950 . S
C1748 C1747 1.349 . S
C1748 C1760 1.349 . S
C1749 C1747 1.327 . S
C1749 C1765 1.429 . S
C1749 H1771 0.950 . S
C1750 H1746 0.949 . S
C1750 C1758 1.574 . S
C1750 C1766 1.368 . S
H1751 C1759 0.950 . S
H1752 C1757 0.950 . S
H1753 C1758 0.949 . S
H1754 C1760 0.950 . S
H1755 C1761 0.950 . S
H1756 C1762 0.949 . S
C1757 H1752 0.950 . S
C1757 C1759 1.327 . S
C1757 C1763 1.429 . S
C1758 C1750 1.574 . S
C1758 H1753 0.949 . S
C1758 C1764 1.368 . S
C1759 C1743 1.349 . S
C1759 H1751 0.950 . S
C1759 C1757 1.327 . S
C1760 C1748 1.349 . S
C1760 H1754 0.950 . S
C1760 C1761 1.327 . S
C1761 H1755 0.950 . S
C1761 C1760 1.327 . S
C1761 C1765 1.429 . S
C1762 C1745 1.574 . S
C1762 H1756 0.949 . S
C1762 C1766 1.368 . S
C1763 C1744 1.429 . S
C1763 C1757 1.429 . S
C1763 C1764 1.523 . S
C1764 C1745 1.368 . S
C1764 C1758 1.368 . S
C1764 C1763 1.523 . S
C1765 C1749 1.429 . S
C1765 C1761 1.429 . S
C1765 C1766 1.523 . S
C1766 C1750 1.368 . S
C1766 C1762 1.368 . S
C1766 C1765 1.523 . S
H1767 C1742 0.950 . S
H1768 C1744 0.950 . S
H1769 C1745 0.949 . S
H1770 C1747 0.950 . S
H1771 C1749 0.950 . S
C1772 C1773 1.349 . S
C1772 C1774 1.327 . S
C1772 H1797 0.950 . S
C1773 C1772 1.349 . S
C1773 C1789 1.349 . S
C1774 C1772 1.327 . S
C1774 C1793 1.429 . S
C1774 H1798 0.950 . S
C1775 C1792 1.574 . S
C1775 C1794 1.368 . S
C1775 H1799 0.949 . S
H1776 C1780 0.949 . S
C1777 C1778 1.349 . S
C1777 C1779 1.327 . S
C1777 H1800 0.950 . S
C1778 C1777 1.349 . S
C1778 C1790 1.349 . S
C1779 C1777 1.327 . S
C1779 C1795 1.429 . S
C1779 H1801 0.950 . S
C1780 H1776 0.949 . S
C1780 C1788 1.574 . S
C1780 C1796 1.368 . S
H1781 C1789 0.950 . S
H1782 C1787 0.950 . S
H1783 C1788 0.949 . S
H1784 C1790 0.950 . S
H1785 C1791 0.950 . S
H1786 C1792 0.949 . S
C1787 H1782 0.950 . S
C1787 C1789 1.327 . S
C1787 C1793 1.429 . S
C1788 C1780 1.574 . S
C1788 H1783 0.949 . S
C1788 C1794 1.368 . S
C1789 C1773 1.349 . S
C1789 H1781 0.950 . S
C1789 C1787 1.327 . S
C1790 C1778 1.349 . S
C1790 H1784 0.950 . S
C1790 C1791 1.327 . S
C1791 H1785 0.950 . S
C1791 C1790 1.327 . S
C1791 C1795 1.429 . S
C1792 C1775 1.574 . S
C1792 H1786 0.949 . S
C1792 C1796 1.368 . S
C1793 C1774 1.429 . S
C1793 C1787 1.429 . S
C1793 C1794 1.523 . S
C1794 C1775 1.368 . S
C1794 C1788 1.368 . S
C1794 C1793 1.523 . S
C1795 C1779 1.429 . S
C1795 C1791 1.429 . S
C1795 C1796 1.523 . S
C1796 C1780 1.368 . S
C1796 C1792 1.368 . S
C1796 C1795 1.523 . S
H1797 C1772 0.950 . S
H1798 C1774 0.950 . S
H1799 C1775 0.949 . S
H1800 C1777 0.950 . S
H1801 C1779 0.950 . S
C1802 C1803 1.349 . S
C1802 C1804 1.327 . S
C1802 H1827 0.950 . S
C1803 C1802 1.349 . S
C1803 C1819 1.349 . S
C1804 C1802 1.327 . S
C1804 C1823 1.429 . S
C1804 H1828 0.950 . S
C1805 C1822 1.574 . S
C1805 C1824 1.368 . S
C1805 H1829 0.949 . S
H1806 C1810 0.949 . S
C1807 C1808 1.349 . S
C1807 C1809 1.327 . S
C1807 H1830 0.950 . S
C1808 C1807 1.349 . S
C1808 C1820 1.349 . S
C1809 C1807 1.327 . S
C1809 C1825 1.429 . S
C1809 H1831 0.950 . S
C1810 H1806 0.949 . S
C1810 C1818 1.574 . S
C1810 C1826 1.368 . S
H1811 C1819 0.950 . S
H1812 C1817 0.950 . S
H1813 C1818 0.949 . S
H1814 C1820 0.950 . S
H1815 C1821 0.950 . S
H1816 C1822 0.949 . S
C1817 H1812 0.950 . S
C1817 C1819 1.327 . S
C1817 C1823 1.429 . S
C1818 C1810 1.574 . S
C1818 H1813 0.949 . S
C1818 C1824 1.368 . S
C1819 C1803 1.349 . S
C1819 H1811 0.950 . S
C1819 C1817 1.327 . S
C1820 C1808 1.349 . S
C1820 H1814 0.950 . S
C1820 C1821 1.327 . S
C1821 H1815 0.950 . S
C1821 C1820 1.327 . S
C1821 C1825 1.429 . S
C1822 C1805 1.574 . S
C1822 H1816 0.949 . S
C1822 C1826 1.368 . S
C1823 C1804 1.429 . S
C1823 C1817 1.429 . S
C1823 C1824 1.523 . S
C1824 C1805 1.368 . S
C1824 C1818 1.368 . S
C1824 C1823 1.523 . S
C1825 C1809 1.429 . S
C1825 C1821 1.429 . S
C1825 C1826 1.523 . S
C1826 C1810 1.368 . S
C1826 C1822 1.368 . S
C1826 C1825 1.523 . S
H1827 C1802 0.950 . S
H1828 C1804 0.950 . S
H1829 C1805 0.949 . S
H1830 C1807 0.950 . S
H1831 C1809 0.950 . S
C1832 C1833 1.349 . S
C1832 C1834 1.327 . S
C1832 H1857 0.950 . S
C1833 C1832 1.349 . S
C1833 C1849 1.349 . S
C1834 C1832 1.327 . S
C1834 C1853 1.429 . S
C1834 H1858 0.950 . S
C1835 C1852 1.574 . S
C1835 C1854 1.368 . S
C1835 H1859 0.949 . S
H1836 C1840 0.949 . S
C1837 C1838 1.349 . S
C1837 C1839 1.327 . S
C1837 H1860 0.950 . S
C1838 C1837 1.349 . S
C1838 C1850 1.349 . S
C1839 C1837 1.327 . S
C1839 C1855 1.429 . S
C1839 H1861 0.950 . S
C1840 H1836 0.949 . S
C1840 C1848 1.574 . S
C1840 C1856 1.368 . S
H1841 C1849 0.950 . S
H1842 C1847 0.950 . S
H1843 C1848 0.949 . S
H1844 C1850 0.950 . S
H1845 C1851 0.950 . S
H1846 C1852 0.949 . S
C1847 H1842 0.950 . S
C1847 C1849 1.327 . S
C1847 C1853 1.429 . S
C1848 C1840 1.574 . S
C1848 H1843 0.949 . S
C1848 C1854 1.368 . S
C1849 C1833 1.349 . S
C1849 H1841 0.950 . S
C1849 C1847 1.327 . S
C1850 C1838 1.349 . S
C1850 H1844 0.950 . S
C1850 C1851 1.327 . S
C1851 H1845 0.950 . S
C1851 C1850 1.327 . S
C1851 C1855 1.429 . S
C1852 C1835 1.574 . S
C1852 H1846 0.949 . S
C1852 C1856 1.368 . S
C1853 C1834 1.429 . S
C1853 C1847 1.429 . S
C1853 C1854 1.523 . S
C1854 C1835 1.368 . S
C1854 C1848 1.368 . S
C1854 C1853 1.523 . S
C1855 C1839 1.429 . S
C1855 C1851 1.429 . S
C1855 C1856 1.523 . S
C1856 C1840 1.368 . S
C1856 C1852 1.368 . S
C1856 C1855 1.523 . S
H1857 C1832 0.950 . S
H1858 C1834 0.950 . S
H1859 C1835 0.949 . S
H1860 C1837 0.950 . S
H1861 C1839 0.950 . S
C1862 C1863 1.349 . S
C1862 C1864 1.327 . S
C1862 H1887 0.950 . S
C1863 C1862 1.349 . S
C1863 C1879 1.349 . S
C1864 C1862 1.327 . S
C1864 C1883 1.429 . S
C1864 H1888 0.950 . S
C1865 C1882 1.574 . S
C1865 C1884 1.368 . S
C1865 H1889 0.949 . S
H1866 C1870 0.949 . S
C1867 C1868 1.349 . S
C1867 C1869 1.327 . S
C1867 H1890 0.950 . S
C1868 C1867 1.349 . S
C1868 C1880 1.349 . S
C1869 C1867 1.327 . S
C1869 C1885 1.429 . S
C1869 H1891 0.950 . S
C1870 H1866 0.949 . S
C1870 C1878 1.574 . S
C1870 C1886 1.368 . S
H1871 C1879 0.950 . S
H1872 C1877 0.950 . S
H1873 C1878 0.949 . S
H1874 C1880 0.950 . S
H1875 C1881 0.950 . S
H1876 C1882 0.949 . S
C1877 H1872 0.950 . S
C1877 C1879 1.327 . S
C1877 C1883 1.429 . S
C1878 C1870 1.574 . S
C1878 H1873 0.949 . S
C1878 C1884 1.368 . S
C1879 C1863 1.349 . S
C1879 H1871 0.950 . S
C1879 C1877 1.327 . S
C1880 C1868 1.349 . S
C1880 H1874 0.950 . S
C1880 C1881 1.327 . S
C1881 H1875 0.950 . S
C1881 C1880 1.327 . S
C1881 C1885 1.429 . S
C1882 C1865 1.574 . S
C1882 H1876 0.949 . S
C1882 C1886 1.368 . S
C1883 C1864 1.429 . S
C1883 C1877 1.429 . S
C1883 C1884 1.523 . S
C1884 C1865 1.368 . S
C1884 C1878 1.368 . S
C1884 C1883 1.523 . S
C1885 C1869 1.429 . S
C1885 C1881 1.429 . S
C1885 C1886 1.523 . S
C1886 C1870 1.368 . S
C1886 C1882 1.368 . S
C1886 C1885 1.523 . S
H1887 C1862 0.950 . S
H1888 C1864 0.950 . S
H1889 C1865 0.949 . S
H1890 C1867 0.950 . S
H1891 C1869 0.950 . S
C1892 C1893 1.349 . S
C1892 C1894 1.327 . S
C1892 H1917 0.950 . S
C1893 C1892 1.349 . S
C1893 C1909 1.349 . S
C1894 C1892 1.327 . S
C1894 C1913 1.429 . S
C1894 H1918 0.950 . S
C1895 C1912 1.574 . S
C1895 C1914 1.368 . S
C1895 H1919 0.949 . S
H1896 C1900 0.949 . S
C1897 C1898 1.349 . S
C1897 C1899 1.327 . S
C1897 H1920 0.950 . S
C1898 C1897 1.349 . S
C1898 C1910 1.349 . S
C1899 C1897 1.327 . S
C1899 C1915 1.429 . S
C1899 H1921 0.950 . S
C1900 H1896 0.949 . S
C1900 C1908 1.574 . S
C1900 C1916 1.368 . S
H1901 C1909 0.950 . S
H1902 C1907 0.950 . S
H1903 C1908 0.949 . S
H1904 C1910 0.950 . S
H1905 C1911 0.950 . S
H1906 C1912 0.949 . S
C1907 H1902 0.950 . S
C1907 C1909 1.327 . S
C1907 C1913 1.429 . S
C1908 C1900 1.574 . S
C1908 H1903 0.949 . S
C1908 C1914 1.368 . S
C1909 C1893 1.349 . S
C1909 H1901 0.950 . S
C1909 C1907 1.327 . S
C1910 C1898 1.349 . S
C1910 H1904 0.950 . S
C1910 C1911 1.327 . S
C1911 H1905 0.950 . S
C1911 C1910 1.327 . S
C1911 C1915 1.429 . S
C1912 C1895 1.574 . S
C1912 H1906 0.949 . S
C1912 C1916 1.368 . S
C1913 C1894 1.429 . S
C1913 C1907 1.429 . S
C1913 C1914 1.523 . S
C1914 C1895 1.368 . S
C1914 C1908 1.368 . S
C1914 C1913 1.523 . S
C1915 C1899 1.429 . S
C1915 C1911 1.429 . S
C1915 C1916 1.523 . S
C1916 C1900 1.368 . S
C1916 C1912 1.368 . S
C1916 C1915 1.523 . S
H1917 C1892 0.950 . S
H1918 C1894 0.950 . S
H1919 C1895 0.949 . S
H1920 C1897 0.950 . S
H1921 C1899 0.950 . S
C1922 C1923 1.349 . S
C1922 C1924 1.327 . S
C1922 H1947 0.950 . S
C1923 C1922 1.349 . S
C1923 C1939 1.349 . S
C1924 C1922 1.327 . S
C1924 C1943 1.429 . S
C1924 H1948 0.950 . S
C1925 C1942 1.574 . S
C1925 C1944 1.368 . S
C1925 H1949 0.949 . S
H1926 C1930 0.949 . S
C1927 C1928 1.349 . S
C1927 C1929 1.327 . S
C1927 H1950 0.950 . S
C1928 C1927 1.349 . S
C1928 C1940 1.349 . S
C1929 C1927 1.327 . S
C1929 C1945 1.429 . S
C1929 H1951 0.950 . S
C1930 H1926 0.949 . S
C1930 C1938 1.574 . S
C1930 C1946 1.368 . S
H1931 C1939 0.950 . S
H1932 C1937 0.950 . S
H1933 C1938 0.949 . S
H1934 C1940 0.950 . S
H1935 C1941 0.950 . S
H1936 C1942 0.949 . S
C1937 H1932 0.950 . S
C1937 C1939 1.327 . S
C1937 C1943 1.429 . S
C1938 C1930 1.574 . S
C1938 H1933 0.949 . S
C1938 C1944 1.368 . S
C1939 C1923 1.349 . S
C1939 H1931 0.950 . S
C1939 C1937 1.327 . S
C1940 C1928 1.349 . S
C1940 H1934 0.950 . S
C1940 C1941 1.327 . S
C1941 H1935 0.950 . S
C1941 C1940 1.327 . S
C1941 C1945 1.429 . S
C1942 C1925 1.574 . S
C1942 H1936 0.949 . S
C1942 C1946 1.368 . S
C1943 C1924 1.429 . S
C1943 C1937 1.429 . S
C1943 C1944 1.523 . S
C1944 C1925 1.368 . S
C1944 C1938 1.368 . S
C1944 C1943 1.523 . S
C1945 C1929 1.429 . S
C1945 C1941 1.429 . S
C1945 C1946 1.523 . S
C1946 C1930 1.368 . S
C1946 C1942 1.368 . S
C1946 C1945 1.523 . S
H1947 C1922 0.950 . S
H1948 C1924 0.950 . S
H1949 C1925 0.949 . S
H1950 C1927 0.950 . S
H1951 C1929 0.950 . S
C1952 C1953 1.349 . S
C1952 C1954 1.327 . S
C1952 H1977 0.950 . S
C1953 C1952 1.349 . S
C1953 C1969 1.349 . S
C1954 C1952 1.327 . S
C1954 C1973 1.429 . S
C1954 H1978 0.950 . S
C1955 C1972 1.574 . S
C1955 C1974 1.368 . S
C1955 H1979 0.949 . S
H1956 C1960 0.949 . S
C1957 C1958 1.349 . S
C1957 C1959 1.327 . S
C1957 H1980 0.950 . S
C1958 C1957 1.349 . S
C1958 C1970 1.349 . S
C1959 C1957 1.327 . S
C1959 C1975 1.429 . S
C1959 H1981 0.950 . S
C1960 H1956 0.949 . S
C1960 C1968 1.574 . S
C1960 C1976 1.368 . S
H1961 C1969 0.950 . S
H1962 C1967 0.950 . S
H1963 C1968 0.949 . S
H1964 C1970 0.950 . S
H1965 C1971 0.950 . S
H1966 C1972 0.949 . S
C1967 H1962 0.950 . S
C1967 C1969 1.327 . S
C1967 C1973 1.429 . S
C1968 C1960 1.574 . S
C1968 H1963 0.949 . S
C1968 C1974 1.368 . S
C1969 C1953 1.349 . S
C1969 H1961 0.950 . S
C1969 C1967 1.327 . S
C1970 C1958 1.349 . S
C1970 H1964 0.950 . S
C1970 C1971 1.327 . S
C1971 H1965 0.950 . S
C1971 C1970 1.327 . S
C1971 C1975 1.429 . S
C1972 C1955 1.574 . S
C1972 H1966 0.949 . S
C1972 C1976 1.368 . S
C1973 C1954 1.429 . S
C1973 C1967 1.429 . S
C1973 C1974 1.523 . S
C1974 C1955 1.368 . S
C1974 C1968 1.368 . S
C1974 C1973 1.523 . S
C1975 C1959 1.429 . S
C1975 C1971 1.429 . S
C1975 C1976 1.523 . S
C1976 C1960 1.368 . S
C1976 C1972 1.368 . S
C1976 C1975 1.523 . S
H1977 C1952 0.950 . S
H1978 C1954 0.950 . S
H1979 C1955 0.949 . S
H1980 C1957 0.950 . S
H1981 C1959 0.950 . S
C1982 C1983 1.349 . S
C1982 C1984 1.327 . S
C1982 H2007 0.950 . S
C1983 C1982 1.349 . S
C1983 C1999 1.349 . S
C1984 C1982 1.327 . S
C1984 C2003 1.429 . S
C1984 H2008 0.950 . S
C1985 C2002 1.574 . S
C1985 C2004 1.368 . S
C1985 H2009 0.949 . S
H1986 C1990 0.949 . S
C1987 C1988 1.349 . S
C1987 C1989 1.327 . S
C1987 H2010 0.950 . S
C1988 C1987 1.349 . S
C1988 C2000 1.349 . S
C1989 C1987 1.327 . S
C1989 C2005 1.429 . S
C1989 H2011 0.950 . S
C1990 H1986 0.949 . S
C1990 C1998 1.574 . S
C1990 C2006 1.368 . S
H1991 C1999 0.950 . S
H1992 C1997 0.950 . S
H1993 C1998 0.949 . S
H1994 C2000 0.950 . S
H1995 C2001 0.950 . S
H1996 C2002 0.949 . S
C1997 H1992 0.950 . S
C1997 C1999 1.327 . S
C1997 C2003 1.429 . S
C1998 C1990 1.574 . S
C1998 H1993 0.949 . S
C1998 C2004 1.368 . S
C1999 C1983 1.349 . S
C1999 H1991 0.950 . S
C1999 C1997 1.327 . S
C2000 C1988 1.349 . S
C2000 H1994 0.950 . S
C2000 C2001 1.327 . S
C2001 H1995 0.950 . S
C2001 C2000 1.327 . S
C2001 C2005 1.429 . S
C2002 C1985 1.574 . S
C2002 H1996 0.949 . S
C2002 C2006 1.368 . S
C2003 C1984 1.429 . S
C2003 C1997 1.429 . S
C2003 C2004 1.523 . S
C2004 C1985 1.368 . S
C2004 C1998 1.368 . S
C2004 C2003 1.523 . S
C2005 C1989 1.429 . S
C2005 C2001 1.429 . S
C2005 C2006 1.523 . S
C2006 C1990 1.368 . S
C2006 C2002 1.368 . S
C2006 C2005 1.523 . S
H2007 C1982 0.950 . S
H2008 C1984 0.950 . S
H2009 C1985 0.949 . S
H2010 C1987 0.950 . S
H2011 C1989 0.950 . S
C2012 C2013 1.349 . S
C2012 C2014 1.327 . S
C2012 H2037 0.950 . S
C2013 C2012 1.349 . S
C2013 C2029 1.349 . S
C2014 C2012 1.327 . S
C2014 C2033 1.429 . S
C2014 H2038 0.950 . S
C2015 C2032 1.574 . S
C2015 C2034 1.368 . S
C2015 H2039 0.949 . S
H2016 C2020 0.949 . S
C2017 C2018 1.349 . S
C2017 C2019 1.327 . S
C2017 H2040 0.950 . S
C2018 C2017 1.349 . S
C2018 C2030 1.349 . S
C2019 C2017 1.327 . S
C2019 C2035 1.429 . S
C2019 H2041 0.950 . S
C2020 H2016 0.949 . S
C2020 C2028 1.574 . S
C2020 C2036 1.368 . S
H2021 C2029 0.950 . S
H2022 C2027 0.950 . S
H2023 C2028 0.949 . S
H2024 C2030 0.950 . S
H2025 C2031 0.950 . S
H2026 C2032 0.949 . S
C2027 H2022 0.950 . S
C2027 C2029 1.327 . S
C2027 C2033 1.429 . S
C2028 C2020 1.574 . S
C2028 H2023 0.949 . S
C2028 C2034 1.368 . S
C2029 C2013 1.349 . S
C2029 H2021 0.950 . S
C2029 C2027 1.327 . S
C2030 C2018 1.349 . S
C2030 H2024 0.950 . S
C2030 C2031 1.327 . S
C2031 H2025 0.950 . S
C2031 C2030 1.327 . S
C2031 C2035 1.429 . S
C2032 C2015 1.574 . S
C2032 H2026 0.949 . S
C2032 C2036 1.368 . S
C2033 C2014 1.429 . S
C2033 C2027 1.429 . S
C2033 C2034 1.523 . S
C2034 C2015 1.368 . S
C2034 C2028 1.368 . S
C2034 C2033 1.523 . S
C2035 C2019 1.429 . S
C2035 C2031 1.429 . S
C2035 C2036 1.523 . S
C2036 C2020 1.368 . S
C2036 C2032 1.368 . S
C2036 C2035 1.523 . S
H2037 C2012 0.950 . S
H2038 C2014 0.950 . S
H2039 C2015 0.949 . S
H2040 C2017 0.950 . S
H2041 C2019 0.950 . S
C2042 C2043 1.349 . S
C2042 C2044 1.327 . S
C2042 H2067 0.950 . S
C2043 C2042 1.349 . S
C2043 C2059 1.349 . S
C2044 C2042 1.327 . S
C2044 C2063 1.429 . S
C2044 H2068 0.950 . S
C2045 C2062 1.574 . S
C2045 C2064 1.368 . S
C2045 H2069 0.949 . S
H2046 C2050 0.949 . S
C2047 C2048 1.349 . S
C2047 C2049 1.327 . S
C2047 H2070 0.950 . S
C2048 C2047 1.349 . S
C2048 C2060 1.349 . S
C2049 C2047 1.327 . S
C2049 C2065 1.429 . S
C2049 H2071 0.950 . S
C2050 H2046 0.949 . S
C2050 C2058 1.574 . S
C2050 C2066 1.368 . S
H2051 C2059 0.950 . S
H2052 C2057 0.950 . S
H2053 C2058 0.949 . S
H2054 C2060 0.950 . S
H2055 C2061 0.950 . S
H2056 C2062 0.949 . S
C2057 H2052 0.950 . S
C2057 C2059 1.327 . S
C2057 C2063 1.429 . S
C2058 C2050 1.574 . S
C2058 H2053 0.949 . S
C2058 C2064 1.368 . S
C2059 C2043 1.349 . S
C2059 H2051 0.950 . S
C2059 C2057 1.327 . S
C2060 C2048 1.349 . S
C2060 H2054 0.950 . S
C2060 C2061 1.327 . S
C2061 H2055 0.950 . S
C2061 C2060 1.327 . S
C2061 C2065 1.429 . S
C2062 C2045 1.574 . S
C2062 H2056 0.949 . S
C2062 C2066 1.368 . S
C2063 C2044 1.429 . S
C2063 C2057 1.429 . S
C2063 C2064 1.523 . S
C2064 C2045 1.368 . S
C2064 C2058 1.368 . S
C2064 C2063 1.523 . S
C2065 C2049 1.429 . S
C2065 C2061 1.429 . S
C2065 C2066 1.523 . S
C2066 C2050 1.368 . S
C2066 C2062 1.368 . S
C2066 C2065 1.523 . S
H2067 C2042 0.950 . S
H2068 C2044 0.950 . S
H2069 C2045 0.949 . S
H2070 C2047 0.950 . S
H2071 C2049 0.950 . S
C2072 C2073 1.349 . S
C2072 C2074 1.327 . S
C2072 H2097 0.950 . S
C2073 C2072 1.349 . S
C2073 C2089 1.349 . S
C2074 C2072 1.327 . S
C2074 C2093 1.429 . S
C2074 H2098 0.950 . S
C2075 C2092 1.574 . S
C2075 C2094 1.368 . S
C2075 H2099 0.949 . S
H2076 C2080 0.949 . S
C2077 C2078 1.349 . S
C2077 C2079 1.327 . S
C2077 H2100 0.950 . S
C2078 C2077 1.349 . S
C2078 C2090 1.349 . S
C2079 C2077 1.327 . S
C2079 C2095 1.429 . S
C2079 H2101 0.950 . S
C2080 H2076 0.949 . S
C2080 C2088 1.574 . S
C2080 C2096 1.368 . S
H2081 C2089 0.950 . S
H2082 C2087 0.950 . S
H2083 C2088 0.949 . S
H2084 C2090 0.950 . S
H2085 C2091 0.950 . S
H2086 C2092 0.949 . S
C2087 H2082 0.950 . S
C2087 C2089 1.327 . S
C2087 C2093 1.429 . S
C2088 C2080 1.574 . S
C2088 H2083 0.949 . S
C2088 C2094 1.368 . S
C2089 C2073 1.349 . S
C2089 H2081 0.950 . S
C2089 C2087 1.327 . S
C2090 C2078 1.349 . S
C2090 H2084 0.950 . S
C2090 C2091 1.327 . S
C2091 H2085 0.950 . S
C2091 C2090 1.327 . S
C2091 C2095 1.429 . S
C2092 C2075 1.574 . S
C2092 H2086 0.949 . S
C2092 C2096 1.368 . S
C2093 C2074 1.429 . S
C2093 C2087 1.429 . S
C2093 C2094 1.523 . S
C2094 C2075 1.368 . S
C2094 C2088 1.368 . S
C2094 C2093 1.523 . S
C2095 C2079 1.429 . S
C2095 C2091 1.429 . S
C2095 C2096 1.523 . S
C2096 C2080 1.368 . S
C2096 C2092 1.368 . S
C2096 C2095 1.523 . S
H2097 C2072 0.950 . S
H2098 C2074 0.950 . S
H2099 C2075 0.949 . S
H2100 C2077 0.950 . S
H2101 C2079 0.950 . S
C2102 C2103 1.349 . S
C2102 C2104 1.327 . S
C2102 H2127 0.950 . S
C2103 C2102 1.349 . S
C2103 C2119 1.349 . S
C2104 C2102 1.327 . S
C2104 C2123 1.429 . S
C2104 H2128 0.950 . S
C2105 C2122 1.574 . S
C2105 C2124 1.368 . S
C2105 H2129 0.949 . S
H2106 C2110 0.949 . S
C2107 C2108 1.349 . S
C2107 C2109 1.327 . S
C2107 H2130 0.950 . S
C2108 C2107 1.349 . S
C2108 C2120 1.349 . S
C2109 C2107 1.327 . S
C2109 C2125 1.429 . S
C2109 H2131 0.950 . S
C2110 H2106 0.949 . S
C2110 C2118 1.574 . S
C2110 C2126 1.368 . S
H2111 C2119 0.950 . S
H2112 C2117 0.950 . S
H2113 C2118 0.949 . S
H2114 C2120 0.950 . S
H2115 C2121 0.950 . S
H2116 C2122 0.949 . S
C2117 H2112 0.950 . S
C2117 C2119 1.327 . S
C2117 C2123 1.429 . S
C2118 C2110 1.574 . S
C2118 H2113 0.949 . S
C2118 C2124 1.368 . S
C2119 C2103 1.349 . S
C2119 H2111 0.950 . S
C2119 C2117 1.327 . S
C2120 C2108 1.349 . S
C2120 H2114 0.950 . S
C2120 C2121 1.327 . S
C2121 H2115 0.950 . S
C2121 C2120 1.327 . S
C2121 C2125 1.429 . S
C2122 C2105 1.574 . S
C2122 H2116 0.949 . S
C2122 C2126 1.368 . S
C2123 C2104 1.429 . S
C2123 C2117 1.429 . S
C2123 C2124 1.523 . S
C2124 C2105 1.368 . S
C2124 C2118 1.368 . S
C2124 C2123 1.523 . S
C2125 C2109 1.429 . S
C2125 C2121 1.429 . S
C2125 C2126 1.523 . S
C2126 C2110 1.368 . S
C2126 C2122 1.368 . S
C2126 C2125 1.523 . S
H2127 C2102 0.950 . S
H2128 C2104 0.950 . S
H2129 C2105 0.949 . S
H2130 C2107 0.950 . S
H2131 C2109 0.950 . S
C2132 C2133 1.349 . S
C2132 C2134 1.327 . S
C2132 H2157 0.950 . S
C2133 C2132 1.349 . S
C2133 C2149 1.349 . S
C2134 C2132 1.327 . S
C2134 C2153 1.429 . S
C2134 H2158 0.950 . S
C2135 C2152 1.574 . S
C2135 C2154 1.368 . S
C2135 H2159 0.949 . S
H2136 C2140 0.949 . S
C2137 C2138 1.349 . S
C2137 C2139 1.327 . S
C2137 H2160 0.950 . S
C2138 C2137 1.349 . S
C2138 C2150 1.349 . S
C2139 C2137 1.327 . S
C2139 C2155 1.429 . S
C2139 H2161 0.950 . S
C2140 H2136 0.949 . S
C2140 C2148 1.574 . S
C2140 C2156 1.368 . S
H2141 C2149 0.950 . S
H2142 C2147 0.950 . S
H2143 C2148 0.949 . S
H2144 C2150 0.950 . S
H2145 C2151 0.950 . S
H2146 C2152 0.949 . S
C2147 H2142 0.950 . S
C2147 C2149 1.327 . S
C2147 C2153 1.429 . S
C2148 C2140 1.574 . S
C2148 H2143 0.949 . S
C2148 C2154 1.368 . S
C2149 C2133 1.349 . S
C2149 H2141 0.950 . S
C2149 C2147 1.327 . S
C2150 C2138 1.349 . S
C2150 H2144 0.950 . S
C2150 C2151 1.327 . S
C2151 H2145 0.950 . S
C2151 C2150 1.327 . S
C2151 C2155 1.429 . S
C2152 C2135 1.574 . S
C2152 H2146 0.949 . S
C2152 C2156 1.368 . S
C2153 C2134 1.429 . S
C2153 C2147 1.429 . S
C2153 C2154 1.523 . S
C2154 C2135 1.368 . S
C2154 C2148 1.368 . S
C2154 C2153 1.523 . S
C2155 C2139 1.429 . S
C2155 C2151 1.429 . S
C2155 C2156 1.523 . S
C2156 C2140 1.368 . S
C2156 C2152 1.368 . S
C2156 C2155 1.523 . S
H2157 C2132 0.950 . S
H2158 C2134 0.950 . S
H2159 C2135 0.949 . S
H2160 C2137 0.950 . S
H2161 C2139 0.950 . S
C2162 C2163 1.349 . S
C2162 C2164 1.327 . S
C2162 H2187 0.950 . S
C2163 C2162 1.349 . S
C2163 C2179 1.349 . S
C2164 C2162 1.327 . S
C2164 C2183 1.429 . S
C2164 H2188 0.950 . S
C2165 C2182 1.574 . S
C2165 C2184 1.368 . S
C2165 H2189 0.949 . S
H2166 C2170 0.949 . S
C2167 C2168 1.349 . S
C2167 C2169 1.327 . S
C2167 H2190 0.950 . S
C2168 C2167 1.349 . S
C2168 C2180 1.349 . S
C2169 C2167 1.327 . S
C2169 C2185 1.429 . S
C2169 H2191 0.950 . S
C2170 H2166 0.949 . S
C2170 C2178 1.574 . S
C2170 C2186 1.368 . S
H2171 C2179 0.950 . S
H2172 C2177 0.950 . S
H2173 C2178 0.949 . S
H2174 C2180 0.950 . S
H2175 C2181 0.950 . S
H2176 C2182 0.949 . S
C2177 H2172 0.950 . S
C2177 C2179 1.327 . S
C2177 C2183 1.429 . S
C2178 C2170 1.574 . S
C2178 H2173 0.949 . S
C2178 C2184 1.368 . S
C2179 C2163 1.349 . S
C2179 H2171 0.950 . S
C2179 C2177 1.327 . S
C2180 C2168 1.349 . S
C2180 H2174 0.950 . S
C2180 C2181 1.327 . S
C2181 H2175 0.950 . S
C2181 C2180 1.327 . S
C2181 C2185 1.429 . S
C2182 C2165 1.574 . S
C2182 H2176 0.949 . S
C2182 C2186 1.368 . S
C2183 C2164 1.429 . S
C2183 C2177 1.429 . S
C2183 C2184 1.523 . S
C2184 C2165 1.368 . S
C2184 C2178 1.368 . S
C2184 C2183 1.523 . S
C2185 C2169 1.429 . S
C2185 C2181 1.429 . S
C2185 C2186 1.523 . S
C2186 C2170 1.368 . S
C2186 C2182 1.368 . S
C2186 C2185 1.523 . S
H2187 C2162 0.950 . S
H2188 C2164 0.950 . S
H2189 C2165 0.949 . S
H2190 C2167 0.950 . S
H2191 C2169 0.950 . S
C2192 C2193 1.349 . S
C2192 C2194 1.327 . S
C2192 H2217 0.950 . S
C2193 C2192 1.349 . S
C2193 C2209 1.349 . S
C2194 C2192 1.327 . S
C2194 C2213 1.429 . S
C2194 H2218 0.950 . S
C2195 C2212 1.574 . S
C2195 C2214 1.368 . S
C2195 H2219 0.949 . S
H2196 C2200 0.949 . S
C2197 C2198 1.349 . S
C2197 C2199 1.327 . S
C2197 H2220 0.950 . S
C2198 C2197 1.349 . S
C2198 C2210 1.349 . S
C2199 C2197 1.327 . S
C2199 C2215 1.429 . S
C2199 H2221 0.950 . S
C2200 H2196 0.949 . S
C2200 C2208 1.574 . S
C2200 C2216 1.368 . S
H2201 C2209 0.950 . S
H2202 C2207 0.950 . S
H2203 C2208 0.949 . S
H2204 C2210 0.950 . S
H2205 C2211 0.950 . S
H2206 C2212 0.949 . S
C2207 H2202 0.950 . S
C2207 C2209 1.327 . S
C2207 C2213 1.429 . S
C2208 C2200 1.574 . S
C2208 H2203 0.949 . S
C2208 C2214 1.368 . S
C2209 C2193 1.349 . S
C2209 H2201 0.950 . S
C2209 C2207 1.327 . S
C2210 C2198 1.349 . S
C2210 H2204 0.950 . S
C2210 C2211 1.327 . S
C2211 H2205 0.950 . S
C2211 C2210 1.327 . S
C2211 C2215 1.429 . S
C2212 C2195 1.574 . S
C2212 H2206 0.949 . S
C2212 C2216 1.368 . S
C2213 C2194 1.429 . S
C2213 C2207 1.429 . S
C2213 C2214 1.523 . S
C2214 C2195 1.368 . S
C2214 C2208 1.368 . S
C2214 C2213 1.523 . S
C2215 C2199 1.429 . S
C2215 C2211 1.429 . S
C2215 C2216 1.523 . S
C2216 C2200 1.368 . S
C2216 C2212 1.368 . S
C2216 C2215 1.523 . S
H2217 C2192 0.950 . S
H2218 C2194 0.950 . S
H2219 C2195 0.949 . S
H2220 C2197 0.950 . S
H2221 C2199 0.950 . S
C2222 C2223 1.349 . S
C2222 C2224 1.327 . S
C2222 H2247 0.950 . S
C2223 C2222 1.349 . S
C2223 C2239 1.349 . S
C2224 C2222 1.327 . S
C2224 C2243 1.429 . S
C2224 H2248 0.950 . S
C2225 C2242 1.574 . S
C2225 C2244 1.368 . S
C2225 H2249 0.949 . S
H2226 C2230 0.949 . S
C2227 C2228 1.349 . S
C2227 C2229 1.327 . S
C2227 H2250 0.950 . S
C2228 C2227 1.349 . S
C2228 C2240 1.349 . S
C2229 C2227 1.327 . S
C2229 C2245 1.429 . S
C2229 H2251 0.950 . S
C2230 H2226 0.949 . S
C2230 C2238 1.574 . S
C2230 C2246 1.368 . S
H2231 C2239 0.950 . S
H2232 C2237 0.950 . S
H2233 C2238 0.949 . S
H2234 C2240 0.950 . S
H2235 C2241 0.950 . S
H2236 C2242 0.949 . S
C2237 H2232 0.950 . S
C2237 C2239 1.327 . S
C2237 C2243 1.429 . S
C2238 C2230 1.574 . S
C2238 H2233 0.949 . S
C2238 C2244 1.368 . S
C2239 C2223 1.349 . S
C2239 H2231 0.950 . S
C2239 C2237 1.327 . S
C2240 C2228 1.349 . S
C2240 H2234 0.950 . S
C2240 C2241 1.327 . S
C2241 H2235 0.950 . S
C2241 C2240 1.327 . S
C2241 C2245 1.429 . S
C2242 C2225 1.574 . S
C2242 H2236 0.949 . S
C2242 C2246 1.368 . S
C2243 C2224 1.429 . S
C2243 C2237 1.429 . S
C2243 C2244 1.523 . S
C2244 C2225 1.368 . S
C2244 C2238 1.368 . S
C2244 C2243 1.523 . S
C2245 C2229 1.429 . S
C2245 C2241 1.429 . S
C2245 C2246 1.523 . S
C2246 C2230 1.368 . S
C2246 C2242 1.368 . S
C2246 C2245 1.523 . S
H2247 C2222 0.950 . S
H2248 C2224 0.950 . S
H2249 C2225 0.949 . S
H2250 C2227 0.950 . S
H2251 C2229 0.950 . S
C2252 C2253 1.349 . S
C2252 C2254 1.327 . S
C2252 H2277 0.950 . S
C2253 C2252 1.349 . S
C2253 C2269 1.349 . S
C2254 C2252 1.327 . S
C2254 C2273 1.429 . S
C2254 H2278 0.950 . S
C2255 C2272 1.574 . S
C2255 C2274 1.368 . S
C2255 H2279 0.949 . S
H2256 C2260 0.949 . S
C2257 C2258 1.349 . S
C2257 C2259 1.327 . S
C2257 H2280 0.950 . S
C2258 C2257 1.349 . S
C2258 C2270 1.349 . S
C2259 C2257 1.327 . S
C2259 C2275 1.429 . S
C2259 H2281 0.950 . S
C2260 H2256 0.949 . S
C2260 C2268 1.574 . S
C2260 C2276 1.368 . S
H2261 C2269 0.950 . S
H2262 C2267 0.950 . S
H2263 C2268 0.949 . S
H2264 C2270 0.950 . S
H2265 C2271 0.950 . S
H2266 C2272 0.949 . S
C2267 H2262 0.950 . S
C2267 C2269 1.327 . S
C2267 C2273 1.429 . S
C2268 C2260 1.574 . S
C2268 H2263 0.949 . S
C2268 C2274 1.368 . S
C2269 C2253 1.349 . S
C2269 H2261 0.950 . S
C2269 C2267 1.327 . S
C2270 C2258 1.349 . S
C2270 H2264 0.950 . S
C2270 C2271 1.327 . S
C2271 H2265 0.950 . S
C2271 C2270 1.327 . S
C2271 C2275 1.429 . S
C2272 C2255 1.574 . S
C2272 H2266 0.949 . S
C2272 C2276 1.368 . S
C2273 C2254 1.429 . S
C2273 C2267 1.429 . S
C2273 C2274 1.523 . S
C2274 C2255 1.368 . S
C2274 C2268 1.368 . S
C2274 C2273 1.523 . S
C2275 C2259 1.429 . S
C2275 C2271 1.429 . S
C2275 C2276 1.523 . S
C2276 C2260 1.368 . S
C2276 C2272 1.368 . S
C2276 C2275 1.523 . S
H2277 C2252 0.950 . S
H2278 C2254 0.950 . S
H2279 C2255 0.949 . S
H2280 C2257 0.950 . S
H2281 C2259 0.950 . S
C2282 C2283 1.349 . S
C2282 C2284 1.327 . S
C2282 H2307 0.950 . S
C2283 C2282 1.349 . S
C2283 C2299 1.349 . S
C2284 C2282 1.327 . S
C2284 C2303 1.429 . S
C2284 H2308 0.950 . S
C2285 C2302 1.574 . S
C2285 C2304 1.368 . S
C2285 H2309 0.949 . S
H2286 C2290 0.949 . S
C2287 C2288 1.349 . S
C2287 C2289 1.327 . S
C2287 H2310 0.950 . S
C2288 C2287 1.349 . S
C2288 C2300 1.349 . S
C2289 C2287 1.327 . S
C2289 C2305 1.429 . S
C2289 H2311 0.950 . S
C2290 H2286 0.949 . S
C2290 C2298 1.574 . S
C2290 C2306 1.368 . S
H2291 C2299 0.950 . S
H2292 C2297 0.950 . S
H2293 C2298 0.949 . S
H2294 C2300 0.950 . S
H2295 C2301 0.950 . S
H2296 C2302 0.949 . S
C2297 H2292 0.950 . S
C2297 C2299 1.327 . S
C2297 C2303 1.429 . S
C2298 C2290 1.574 . S
C2298 H2293 0.949 . S
C2298 C2304 1.368 . S
C2299 C2283 1.349 . S
C2299 H2291 0.950 . S
C2299 C2297 1.327 . S
C2300 C2288 1.349 . S
C2300 H2294 0.950 . S
C2300 C2301 1.327 . S
C2301 H2295 0.950 . S
C2301 C2300 1.327 . S
C2301 C2305 1.429 . S
C2302 C2285 1.574 . S
C2302 H2296 0.949 . S
C2302 C2306 1.368 . S
C2303 C2284 1.429 . S
C2303 C2297 1.429 . S
C2303 C2304 1.523 . S
C2304 C2285 1.368 . S
C2304 C2298 1.368 . S
C2304 C2303 1.523 . S
C2305 C2289 1.429 . S
C2305 C2301 1.429 . S
C2305 C2306 1.523 . S
C2306 C2290 1.368 . S
C2306 C2302 1.368 . S
C2306 C2305 1.523 . S
H2307 C2282 0.950 . S
H2308 C2284 0.950 . S
H2309 C2285 0.949 . S
H2310 C2287 0.950 . S
H2311 C2289 0.950 . S
C2312 C2313 1.349 . S
C2312 C2314 1.327 . S
C2312 H2337 0.950 . S
C2313 C2312 1.349 . S
C2313 C2329 1.349 . S
C2314 C2312 1.327 . S
C2314 C2333 1.429 . S
C2314 H2338 0.950 . S
C2315 C2332 1.574 . S
C2315 C2334 1.368 . S
C2315 H2339 0.949 . S
H2316 C2320 0.949 . S
C2317 C2318 1.349 . S
C2317 C2319 1.327 . S
C2317 H2340 0.950 . S
C2318 C2317 1.349 . S
C2318 C2330 1.349 . S
C2319 C2317 1.327 . S
C2319 C2335 1.429 . S
C2319 H2341 0.950 . S
C2320 H2316 0.949 . S
C2320 C2328 1.574 . S
C2320 C2336 1.368 . S
H2321 C2329 0.950 . S
H2322 C2327 0.950 . S
H2323 C2328 0.949 . S
H2324 C2330 0.950 . S
H2325 C2331 0.950 . S
H2326 C2332 0.949 . S
C2327 H2322 0.950 . S
C2327 C2329 1.327 . S
C2327 C2333 1.429 . S
C2328 C2320 1.574 . S
C2328 H2323 0.949 . S
C2328 C2334 1.368 . S
C2329 C2313 1.349 . S
C2329 H2321 0.950 . S
C2329 C2327 1.327 . S
C2330 C2318 1.349 . S
C2330 H2324 0.950 . S
C2330 C2331 1.327 . S
C2331 H2325 0.950 . S
C2331 C2330 1.327 . S
C2331 C2335 1.429 . S
C2332 C2315 1.574 . S
C2332 H2326 0.949 . S
C2332 C2336 1.368 . S
C2333 C2314 1.429 . S
C2333 C2327 1.429 . S
C2333 C2334 1.523 . S
C2334 C2315 1.368 . S
C2334 C2328 1.368 . S
C2334 C2333 1.523 . S
C2335 C2319 1.429 . S
C2335 C2331 1.429 . S
C2335 C2336 1.523 . S
C2336 C2320 1.368 . S
C2336 C2332 1.368 . S
C2336 C2335 1.523 . S
H2337 C2312 0.950 . S
H2338 C2314 0.950 . S
H2339 C2315 0.949 . S
H2340 C2317 0.950 . S
H2341 C2319 0.950 . S
C2342 C2343 1.349 . S
C2342 C2344 1.327 . S
C2342 H2367 0.950 . S
C2343 C2342 1.349 . S
C2343 C2359 1.349 . S
C2344 C2342 1.327 . S
C2344 C2363 1.429 . S
C2344 H2368 0.950 . S
C2345 C2362 1.574 . S
C2345 C2364 1.368 . S
C2345 H2369 0.949 . S
H2346 C2350 0.949 . S
C2347 C2348 1.349 . S
C2347 C2349 1.327 . S
C2347 H2370 0.950 . S
C2348 C2347 1.349 . S
C2348 C2360 1.349 . S
C2349 C2347 1.327 . S
C2349 C2365 1.429 . S
C2349 H2371 0.950 . S
C2350 H2346 0.949 . S
C2350 C2358 1.574 . S
C2350 C2366 1.368 . S
H2351 C2359 0.950 . S
H2352 C2357 0.950 . S
H2353 C2358 0.949 . S
H2354 C2360 0.950 . S
H2355 C2361 0.950 . S
H2356 C2362 0.949 . S
C2357 H2352 0.950 . S
C2357 C2359 1.327 . S
C2357 C2363 1.429 . S
C2358 C2350 1.574 . S
C2358 H2353 0.949 . S
C2358 C2364 1.368 . S
C2359 C2343 1.349 . S
C2359 H2351 0.950 . S
C2359 C2357 1.327 . S
C2360 C2348 1.349 . S
C2360 H2354 0.950 . S
C2360 C2361 1.327 . S
C2361 H2355 0.950 . S
C2361 C2360 1.327 . S
C2361 C2365 1.429 . S
C2362 C2345 1.574 . S
C2362 H2356 0.949 . S
C2362 C2366 1.368 . S
C2363 C2344 1.429 . S
C2363 C2357 1.429 . S
C2363 C2364 1.523 . S
C2364 C2345 1.368 . S
C2364 C2358 1.368 . S
C2364 C2363 1.523 . S
C2365 C2349 1.429 . S
C2365 C2361 1.429 . S
C2365 C2366 1.523 . S
C2366 C2350 1.368 . S
C2366 C2362 1.368 . S
C2366 C2365 1.523 . S
H2367 C2342 0.950 . S
H2368 C2344 0.950 . S
H2369 C2345 0.949 . S
H2370 C2347 0.950 . S
H2371 C2349 0.950 . S
C2372 C2373 1.349 . S
C2372 C2374 1.327 . S
C2372 H2397 0.950 . S
C2373 C2372 1.349 . S
C2373 C2389 1.349 . S
C2374 C2372 1.327 . S
C2374 C2393 1.429 . S
C2374 H2398 0.950 . S
C2375 C2392 1.574 . S
C2375 C2394 1.368 . S
C2375 H2399 0.949 . S
H2376 C2380 0.949 . S
C2377 C2378 1.349 . S
C2377 C2379 1.327 . S
C2377 H2400 0.950 . S
C2378 C2377 1.349 . S
C2378 C2390 1.349 . S
C2379 C2377 1.327 . S
C2379 C2395 1.429 . S
C2379 H2401 0.950 . S
C2380 H2376 0.949 . S
C2380 C2388 1.574 . S
C2380 C2396 1.368 . S
H2381 C2389 0.950 . S
H2382 C2387 0.950 . S
H2383 C2388 0.949 . S
H2384 C2390 0.950 . S
H2385 C2391 0.950 . S
H2386 C2392 0.949 . S
C2387 H2382 0.950 . S
C2387 C2389 1.327 . S
C2387 C2393 1.429 . S
C2388 C2380 1.574 . S
C2388 H2383 0.949 . S
C2388 C2394 1.368 . S
C2389 C2373 1.349 . S
C2389 H2381 0.950 . S
C2389 C2387 1.327 . S
C2390 C2378 1.349 . S
C2390 H2384 0.950 . S
C2390 C2391 1.327 . S
C2391 H2385 0.950 . S
C2391 C2390 1.327 . S
C2391 C2395 1.429 . S
C2392 C2375 1.574 . S
C2392 H2386 0.949 . S
C2392 C2396 1.368 . S
C2393 C2374 1.429 . S
C2393 C2387 1.429 . S
C2393 C2394 1.523 . S
C2394 C2375 1.368 . S
C2394 C2388 1.368 . S
C2394 C2393 1.523 . S
C2395 C2379 1.429 . S
C2395 C2391 1.429 . S
C2395 C2396 1.523 . S
C2396 C2380 1.368 . S
C2396 C2392 1.368 . S
C2396 C2395 1.523 . S
H2397 C2372 0.950 . S
H2398 C2374 0.950 . S
H2399 C2375 0.949 . S
H2400 C2377 0.950 . S
H2401 C2379 0.950 . S
C2402 C2403 1.349 . S
C2402 C2404 1.327 . S
C2402 H2427 0.950 . S
C2403 C2402 1.349 . S
C2403 C2419 1.349 . S
C2404 C2402 1.327 . S
C2404 C2423 1.429 . S
C2404 H2428 0.950 . S
C2405 C2422 1.574 . S
C2405 C2424 1.368 . S
C2405 H2429 0.949 . S
H2406 C2410 0.949 . S
C2407 C2408 1.349 . S
C2407 C2409 1.327 . S
C2407 H2430 0.950 . S
C2408 C2407 1.349 . S
C2408 C2420 1.349 . S
C2409 C2407 1.327 . S
C2409 C2425 1.429 . S
C2409 H2431 0.950 . S
C2410 H2406 0.949 . S
C2410 C2418 1.574 . S
C2410 C2426 1.368 . S
H2411 C2419 0.950 . S
H2412 C2417 0.950 . S
H2413 C2418 0.949 . S
H2414 C2420 0.950 . S
H2415 C2421 0.950 . S
H2416 C2422 0.949 . S
C2417 H2412 0.950 . S
C2417 C2419 1.327 . S
C2417 C2423 1.429 . S
C2418 C2410 1.574 . S
C2418 H2413 0.949 . S
C2418 C2424 1.368 . S
C2419 C2403 1.349 . S
C2419 H2411 0.950 . S
C2419 C2417 1.327 . S
C2420 C2408 1.349 . S
C2420 H2414 0.950 . S
C2420 C2421 1.327 . S
C2421 H2415 0.950 . S
C2421 C2420 1.327 . S
C2421 C2425 1.429 . S
C2422 C2405 1.574 . S
C2422 H2416 0.949 . S
C2422 C2426 1.368 . S
C2423 C2404 1.429 . S
C2423 C2417 1.429 . S
C2423 C2424 1.523 . S
C2424 C2405 1.368 . S
C2424 C2418 1.368 . S
C2424 C2423 1.523 . S
C2425 C2409 1.429 . S
C2425 C2421 1.429 . S
C2425 C2426 1.523 . S
C2426 C2410 1.368 . S
C2426 C2422 1.368 . S
C2426 C2425 1.523 . S
H2427 C2402 0.950 . S
H2428 C2404 0.950 . S
H2429 C2405 0.949 . S
H2430 C2407 0.950 . S
H2431 C2409 0.950 . S
C2432 C2433 1.349 . S
C2432 C2434 1.327 . S
C2432 H2457 0.950 . S
C2433 C2432 1.349 . S
C2433 C2449 1.349 . S
C2434 C2432 1.327 . S
C2434 C2453 1.429 . S
C2434 H2458 0.950 . S
C2435 C2452 1.574 . S
C2435 C2454 1.368 . S
C2435 H2459 0.949 . S
H2436 C2440 0.949 . S
C2437 C2438 1.349 . S
C2437 C2439 1.327 . S
C2437 H2460 0.950 . S
C2438 C2437 1.349 . S
C2438 C2450 1.349 . S
C2439 C2437 1.327 . S
C2439 C2455 1.429 . S
C2439 H2461 0.950 . S
C2440 H2436 0.949 . S
C2440 C2448 1.574 . S
C2440 C2456 1.368 . S
H2441 C2449 0.950 . S
H2442 C2447 0.950 . S
H2443 C2448 0.949 . S
H2444 C2450 0.950 . S
H2445 C2451 0.950 . S
H2446 C2452 0.949 . S
C2447 H2442 0.950 . S
C2447 C2449 1.327 . S
C2447 C2453 1.429 . S
C2448 C2440 1.574 . S
C2448 H2443 0.949 . S
C2448 C2454 1.368 . S
C2449 C2433 1.349 . S
C2449 H2441 0.950 . S
C2449 C2447 1.327 . S
C2450 C2438 1.349 . S
C2450 H2444 0.950 . S
C2450 C2451 1.327 . S
C2451 H2445 0.950 . S
C2451 C2450 1.327 . S
C2451 C2455 1.429 . S
C2452 C2435 1.574 . S
C2452 H2446 0.949 . S
C2452 C2456 1.368 . S
C2453 C2434 1.429 . S
C2453 C2447 1.429 . S
C2453 C2454 1.523 . S
C2454 C2435 1.368 . S
C2454 C2448 1.368 . S
C2454 C2453 1.523 . S
C2455 C2439 1.429 . S
C2455 C2451 1.429 . S
C2455 C2456 1.523 . S
C2456 C2440 1.368 . S
C2456 C2452 1.368 . S
C2456 C2455 1.523 . S
H2457 C2432 0.950 . S
H2458 C2434 0.950 . S
H2459 C2435 0.949 . S
H2460 C2437 0.950 . S
H2461 C2439 0.950 . S
C2462 C2463 1.349 . S
C2462 C2464 1.327 . S
C2462 H2487 0.950 . S
C2463 C2462 1.349 . S
C2463 C2479 1.349 . S
C2464 C2462 1.327 . S
C2464 C2483 1.429 . S
C2464 H2488 0.950 . S
C2465 C2482 1.574 . S
C2465 C2484 1.368 . S
C2465 H2489 0.949 . S
H2466 C2470 0.949 . S
C2467 C2468 1.349 . S
C2467 C2469 1.327 . S
C2467 H2490 0.950 . S
C2468 C2467 1.349 . S
C2468 C2480 1.349 . S
C2469 C2467 1.327 . S
C2469 C2485 1.429 . S
C2469 H2491 0.950 . S
C2470 H2466 0.949 . S
C2470 C2478 1.574 . S
C2470 C2486 1.368 . S
H2471 C2479 0.950 . S
H2472 C2477 0.950 . S
H2473 C2478 0.949 . S
H2474 C2480 0.950 . S
H2475 C2481 0.950 . S
H2476 C2482 0.949 . S
C2477 H2472 0.950 . S
C2477 C2479 1.327 . S
C2477 C2483 1.429 . S
C2478 C2470 1.574 . S
C2478 H2473 0.949 . S
C2478 C2484 1.368 . S
C2479 C2463 1.349 . S
C2479 H2471 0.950 . S
C2479 C2477 1.327 . S
C2480 C2468 1.349 . S
C2480 H2474 0.950 . S
C2480 C2481 1.327 . S
C2481 H2475 0.950 . S
C2481 C2480 1.327 . S
C2481 C2485 1.429 . S
C2482 C2465 1.574 . S
C2482 H2476 0.949 . S
C2482 C2486 1.368 . S
C2483 C2464 1.429 . S
C2483 C2477 1.429 . S
C2483 C2484 1.523 . S
C2484 C2465 1.368 . S
C2484 C2478 1.368 . S
C2484 C2483 1.523 . S
C2485 C2469 1.429 . S
C2485 C2481 1.429 . S
C2485 C2486 1.523 . S
C2486 C2470 1.368 . S
C2486 C2482 1.368 . S
C2486 C2485 1.523 . S
H2487 C2462 0.950 . S
H2488 C2464 0.950 . S
H2489 C2465 0.949 . S
H2490 C2467 0.950 . S
H2491 C2469 0.950 . S
C2492 C2493 1.349 . S
C2492 C2494 1.327 . S
C2492 H2517 0.950 . S
C2493 C2492 1.349 . S
C2493 C2509 1.349 . S
C2494 C2492 1.327 . S
C2494 C2513 1.429 . S
C2494 H2518 0.950 . S
C2495 C2512 1.574 . S
C2495 C2514 1.368 . S
C2495 H2519 0.949 . S
H2496 C2500 0.949 . S
C2497 C2498 1.349 . S
C2497 C2499 1.327 . S
C2497 H2520 0.950 . S
C2498 C2497 1.349 . S
C2498 C2510 1.349 . S
C2499 C2497 1.327 . S
C2499 C2515 1.429 . S
C2499 H2521 0.950 . S
C2500 H2496 0.949 . S
C2500 C2508 1.574 . S
C2500 C2516 1.368 . S
H2501 C2509 0.950 . S
H2502 C2507 0.950 . S
H2503 C2508 0.949 . S
H2504 C2510 0.950 . S
H2505 C2511 0.950 . S
H2506 C2512 0.949 . S
C2507 H2502 0.950 . S
C2507 C2509 1.327 . S
C2507 C2513 1.429 . S
C2508 C2500 1.574 . S
C2508 H2503 0.949 . S
C2508 C2514 1.368 . S
C2509 C2493 1.349 . S
C2509 H2501 0.950 . S
C2509 C2507 1.327 . S
C2510 C2498 1.349 . S
C2510 H2504 0.950 . S
C2510 C2511 1.327 . S
C2511 H2505 0.950 . S
C2511 C2510 1.327 . S
C2511 C2515 1.429 . S
C2512 C2495 1.574 . S
C2512 H2506 0.949 . S
C2512 C2516 1.368 . S
C2513 C2494 1.429 . S
C2513 C2507 1.429 . S
C2513 C2514 1.523 . S
C2514 C2495 1.368 . S
C2514 C2508 1.368 . S
C2514 C2513 1.523 . S
C2515 C2499 1.429 . S
C2515 C2511 1.429 . S
C2515 C2516 1.523 . S
C2516 C2500 1.368 . S
C2516 C2512 1.368 . S
C2516 C2515 1.523 . S
H2517 C2492 0.950 . S
H2518 C2494 0.950 . S
H2519 C2495 0.949 . S
H2520 C2497 0.950 . S
H2521 C2499 0.950 . S
C2522 C2523 1.349 . S
C2522 C2524 1.327 . S
C2522 H2547 0.950 . S
C2523 C2522 1.349 . S
C2523 C2539 1.349 . S
C2524 C2522 1.327 . S
C2524 C2543 1.429 . S
C2524 H2548 0.950 . S
C2525 C2542 1.574 . S
C2525 C2544 1.368 . S
C2525 H2549 0.949 . S
H2526 C2530 0.949 . S
C2527 C2528 1.349 . S
C2527 C2529 1.327 . S
C2527 H2550 0.950 . S
C2528 C2527 1.349 . S
C2528 C2540 1.349 . S
C2529 C2527 1.327 . S
C2529 C2545 1.429 . S
C2529 H2551 0.950 . S
C2530 H2526 0.949 . S
C2530 C2538 1.574 . S
C2530 C2546 1.368 . S
H2531 C2539 0.950 . S
H2532 C2537 0.950 . S
H2533 C2538 0.949 . S
H2534 C2540 0.950 . S
H2535 C2541 0.950 . S
H2536 C2542 0.949 . S
C2537 H2532 0.950 . S
C2537 C2539 1.327 . S
C2537 C2543 1.429 . S
C2538 C2530 1.574 . S
C2538 H2533 0.949 . S
C2538 C2544 1.368 . S
C2539 C2523 1.349 . S
C2539 H2531 0.950 . S
C2539 C2537 1.327 . S
C2540 C2528 1.349 . S
C2540 H2534 0.950 . S
C2540 C2541 1.327 . S
C2541 H2535 0.950 . S
C2541 C2540 1.327 . S
C2541 C2545 1.429 . S
C2542 C2525 1.574 . S
C2542 H2536 0.949 . S
C2542 C2546 1.368 . S
C2543 C2524 1.429 . S
C2543 C2537 1.429 . S
C2543 C2544 1.523 . S
C2544 C2525 1.368 . S
C2544 C2538 1.368 . S
C2544 C2543 1.523 . S
C2545 C2529 1.429 . S
C2545 C2541 1.429 . S
C2545 C2546 1.523 . S
C2546 C2530 1.368 . S
C2546 C2542 1.368 . S
C2546 C2545 1.523 . S
H2547 C2522 0.950 . S
H2548 C2524 0.950 . S
H2549 C2525 0.949 . S
H2550 C2527 0.950 . S
H2551 C2529 0.950 . S
C2552 C2553 1.349 . S
C2552 C2554 1.327 . S
C2552 H2577 0.950 . S
C2553 C2552 1.349 . S
C2553 C2569 1.349 . S
C2554 C2552 1.327 . S
C2554 C2573 1.429 . S
C2554 H2578 0.950 . S
C2555 C2572 1.574 . S
C2555 C2574 1.368 . S
C2555 H2579 0.949 . S
H2556 C2560 0.949 . S
C2557 C2558 1.349 . S
C2557 C2559 1.327 . S
C2557 H2580 0.950 . S
C2558 C2557 1.349 . S
C2558 C2570 1.349 . S
C2559 C2557 1.327 . S
C2559 C2575 1.429 . S
C2559 H2581 0.950 . S
C2560 H2556 0.949 . S
C2560 C2568 1.574 . S
C2560 C2576 1.368 . S
H2561 C2569 0.950 . S
H2562 C2567 0.950 . S
H2563 C2568 0.949 . S
H2564 C2570 0.950 . S
H2565 C2571 0.950 . S
H2566 C2572 0.949 . S
C2567 H2562 0.950 . S
C2567 C2569 1.327 . S
C2567 C2573 1.429 . S
C2568 C2560 1.574 . S
C2568 H2563 0.949 . S
C2568 C2574 1.368 . S
C2569 C2553 1.349 . S
C2569 H2561 0.950 . S
C2569 C2567 1.327 . S
C2570 C2558 1.349 . S
C2570 H2564 0.950 . S
C2570 C2571 1.327 . S
C2571 H2565 0.950 . S
C2571 C2570 1.327 . S
C2571 C2575 1.429 . S
C2572 C2555 1.574 . S
C2572 H2566 0.949 . S
C2572 C2576 1.368 . S
C2573 C2554 1.429 . S
C2573 C2567 1.429 . S
C2573 C2574 1.523 . S
C2574 C2555 1.368 . S
C2574 C2568 1.368 . S
C2574 C2573 1.523 . S
C2575 C2559 1.429 . S
C2575 C2571 1.429 . S
C2575 C2576 1.523 . S
C2576 C2560 1.368 . S
C2576 C2572 1.368 . S
C2576 C2575 1.523 . S
H2577 C2552 0.950 . S
H2578 C2554 0.950 . S
H2579 C2555 0.949 . S
H2580 C2557 0.950 . S
H2581 C2559 0.950 . S
C2582 C2583 1.349 . S
C2582 C2584 1.327 . S
C2582 H2607 0.950 . S
C2583 C2582 1.349 . S
C2583 C2599 1.349 . S
C2584 C2582 1.327 . S
C2584 C2603 1.429 . S
C2584 H2608 0.950 . S
C2585 C2602 1.574 . S
C2585 C2604 1.368 . S
C2585 H2609 0.949 . S
H2586 C2590 0.949 . S
C2587 C2588 1.349 . S
C2587 C2589 1.327 . S
C2587 H2610 0.950 . S
C2588 C2587 1.349 . S
C2588 C2600 1.349 . S
C2589 C2587 1.327 . S
C2589 C2605 1.429 . S
C2589 H2611 0.950 . S
C2590 H2586 0.949 . S
C2590 C2598 1.574 . S
C2590 C2606 1.368 . S
H2591 C2599 0.950 . S
H2592 C2597 0.950 . S
H2593 C2598 0.949 . S
H2594 C2600 0.950 . S
H2595 C2601 0.950 . S
H2596 C2602 0.949 . S
C2597 H2592 0.950 . S
C2597 C2599 1.327 . S
C2597 C2603 1.429 . S
C2598 C2590 1.574 . S
C2598 H2593 0.949 . S
C2598 C2604 1.368 . S
C2599 C2583 1.349 . S
C2599 H2591 0.950 . S
C2599 C2597 1.327 . S
C2600 C2588 1.349 . S
C2600 H2594 0.950 . S
C2600 C2601 1.327 . S
C2601 H2595 0.950 . S
C2601 C2600 1.327 . S
C2601 C2605 1.429 . S
C2602 C2585 1.574 . S
C2602 H2596 0.949 . S
C2602 C2606 1.368 . S
C2603 C2584 1.429 . S
C2603 C2597 1.429 . S
C2603 C2604 1.523 . S
C2604 C2585 1.368 . S
C2604 C2598 1.368 . S
C2604 C2603 1.523 . S
C2605 C2589 1.429 . S
C2605 C2601 1.429 . S
C2605 C2606 1.523 . S
C2606 C2590 1.368 . S
C2606 C2602 1.368 . S
C2606 C2605 1.523 . S
H2607 C2582 0.950 . S
H2608 C2584 0.950 . S
H2609 C2585 0.949 . S
H2610 C2587 0.950 . S
H2611 C2589 0.950 . S
C2612 C2613 1.349 . S
C2612 C2614 1.327 . S
C2612 H2637 0.950 . S
C2613 C2612 1.349 . S
C2613 C2629 1.349 . S
C2614 C2612 1.327 . S
C2614 C2633 1.429 . S
C2614 H2638 0.950 . S
C2615 C2632 1.574 . S
C2615 C2634 1.368 . S
C2615 H2639 0.949 . S
H2616 C2620 0.949 . S
C2617 C2618 1.349 . S
C2617 C2619 1.327 . S
C2617 H2640 0.950 . S
C2618 C2617 1.349 . S
C2618 C2630 1.349 . S
C2619 C2617 1.327 . S
C2619 C2635 1.429 . S
C2619 H2641 0.950 . S
C2620 H2616 0.949 . S
C2620 C2628 1.574 . S
C2620 C2636 1.368 . S
H2621 C2629 0.950 . S
H2622 C2627 0.950 . S
H2623 C2628 0.949 . S
H2624 C2630 0.950 . S
H2625 C2631 0.950 . S
H2626 C2632 0.949 . S
C2627 H2622 0.950 . S
C2627 C2629 1.327 . S
C2627 C2633 1.429 . S
C2628 C2620 1.574 . S
C2628 H2623 0.949 . S
C2628 C2634 1.368 . S
C2629 C2613 1.349 . S
C2629 H2621 0.950 . S
C2629 C2627 1.327 . S
C2630 C2618 1.349 . S
C2630 H2624 0.950 . S
C2630 C2631 1.327 . S
C2631 H2625 0.950 . S
C2631 C2630 1.327 . S
C2631 C2635 1.429 . S
C2632 C2615 1.574 . S
C2632 H2626 0.949 . S
C2632 C2636 1.368 . S
C2633 C2614 1.429 . S
C2633 C2627 1.429 . S
C2633 C2634 1.523 . S
C2634 C2615 1.368 . S
C2634 C2628 1.368 . S
C2634 C2633 1.523 . S
C2635 C2619 1.429 . S
C2635 C2631 1.429 . S
C2635 C2636 1.523 . S
C2636 C2620 1.368 . S
C2636 C2632 1.368 . S
C2636 C2635 1.523 . S
H2637 C2612 0.950 . S
H2638 C2614 0.950 . S
H2639 C2615 0.949 . S
H2640 C2617 0.950 . S
H2641 C2619 0.950 . S
C2642 C2643 1.349 . S
C2642 C2644 1.327 . S
C2642 H2667 0.950 . S
C2643 C2642 1.349 . S
C2643 C2659 1.349 . S
C2644 C2642 1.327 . S
C2644 C2663 1.429 . S
C2644 H2668 0.950 . S
C2645 C2662 1.574 . S
C2645 C2664 1.368 . S
C2645 H2669 0.949 . S
H2646 C2650 0.949 . S
C2647 C2648 1.349 . S
C2647 C2649 1.327 . S
C2647 H2670 0.950 . S
C2648 C2647 1.349 . S
C2648 C2660 1.349 . S
C2649 C2647 1.327 . S
C2649 C2665 1.429 . S
C2649 H2671 0.950 . S
C2650 H2646 0.949 . S
C2650 C2658 1.574 . S
C2650 C2666 1.368 . S
H2651 C2659 0.950 . S
H2652 C2657 0.950 . S
H2653 C2658 0.949 . S
H2654 C2660 0.950 . S
H2655 C2661 0.950 . S
H2656 C2662 0.949 . S
C2657 H2652 0.950 . S
C2657 C2659 1.327 . S
C2657 C2663 1.429 . S
C2658 C2650 1.574 . S
C2658 H2653 0.949 . S
C2658 C2664 1.368 . S
C2659 C2643 1.349 . S
C2659 H2651 0.950 . S
C2659 C2657 1.327 . S
C2660 C2648 1.349 . S
C2660 H2654 0.950 . S
C2660 C2661 1.327 . S
C2661 H2655 0.950 . S
C2661 C2660 1.327 . S
C2661 C2665 1.429 . S
C2662 C2645 1.574 . S
C2662 H2656 0.949 . S
C2662 C2666 1.368 . S
C2663 C2644 1.429 . S
C2663 C2657 1.429 . S
C2663 C2664 1.523 . S
C2664 C2645 1.368 . S
C2664 C2658 1.368 . S
C2664 C2663 1.523 . S
C2665 C2649 1.429 . S
C2665 C2661 1.429 . S
C2665 C2666 1.523 . S
C2666 C2650 1.368 . S
C2666 C2662 1.368 . S
C2666 C2665 1.523 . S
H2667 C2642 0.950 . S
H2668 C2644 0.950 . S
H2669 C2645 0.949 . S
H2670 C2647 0.950 . S
H2671 C2649 0.950 . S
C2672 C2673 1.349 . S
C2672 C2674 1.327 . S
C2672 H2697 0.950 . S
C2673 C2672 1.349 . S
C2673 C2689 1.349 . S
C2674 C2672 1.327 . S
C2674 C2693 1.429 . S
C2674 H2698 0.950 . S
C2675 C2692 1.574 . S
C2675 C2694 1.368 . S
C2675 H2699 0.949 . S
H2676 C2680 0.949 . S
C2677 C2678 1.349 . S
C2677 C2679 1.327 . S
C2677 H2700 0.950 . S
C2678 C2677 1.349 . S
C2678 C2690 1.349 . S
C2679 C2677 1.327 . S
C2679 C2695 1.429 . S
C2679 H2701 0.950 . S
C2680 H2676 0.949 . S
C2680 C2688 1.574 . S
C2680 C2696 1.368 . S
H2681 C2689 0.950 . S
H2682 C2687 0.950 . S
H2683 C2688 0.949 . S
H2684 C2690 0.950 . S
H2685 C2691 0.950 . S
H2686 C2692 0.949 . S
C2687 H2682 0.950 . S
C2687 C2689 1.327 . S
C2687 C2693 1.429 . S
C2688 C2680 1.574 . S
C2688 H2683 0.949 . S
C2688 C2694 1.368 . S
C2689 C2673 1.349 . S
C2689 H2681 0.950 . S
C2689 C2687 1.327 . S
C2690 C2678 1.349 . S
C2690 H2684 0.950 . S
C2690 C2691 1.327 . S
C2691 H2685 0.950 . S
C2691 C2690 1.327 . S
C2691 C2695 1.429 . S
C2692 C2675 1.574 . S
C2692 H2686 0.949 . S
C2692 C2696 1.368 . S
C2693 C2674 1.429 . S
C2693 C2687 1.429 . S
C2693 C2694 1.523 . S
C2694 C2675 1.368 . S
C2694 C2688 1.368 . S
C2694 C2693 1.523 . S
C2695 C2679 1.429 . S
C2695 C2691 1.429 . S
C2695 C2696 1.523 . S
C2696 C2680 1.368 . S
C2696 C2692 1.368 . S
C2696 C2695 1.523 . S
H2697 C2672 0.950 . S
H2698 C2674 0.950 . S
H2699 C2675 0.949 . S
H2700 C2677 0.950 . S
H2701 C2679 0.950 . S
C2702 C2703 1.349 . S
C2702 C2704 1.327 . S
C2702 H2727 0.950 . S
C2703 C2702 1.349 . S
C2703 C2719 1.349 . S
C2704 C2702 1.327 . S
C2704 C2723 1.429 . S
C2704 H2728 0.950 . S
C2705 C2722 1.574 . S
C2705 C2724 1.368 . S
C2705 H2729 0.949 . S
H2706 C2710 0.949 . S
C2707 C2708 1.349 . S
C2707 C2709 1.327 . S
C2707 H2730 0.950 . S
C2708 C2707 1.349 . S
C2708 C2720 1.349 . S
C2709 C2707 1.327 . S
C2709 C2725 1.429 . S
C2709 H2731 0.950 . S
C2710 H2706 0.949 . S
C2710 C2718 1.574 . S
C2710 C2726 1.368 . S
H2711 C2719 0.950 . S
H2712 C2717 0.950 . S
H2713 C2718 0.949 . S
H2714 C2720 0.950 . S
H2715 C2721 0.950 . S
H2716 C2722 0.949 . S
C2717 H2712 0.950 . S
C2717 C2719 1.327 . S
C2717 C2723 1.429 . S
C2718 C2710 1.574 . S
C2718 H2713 0.949 . S
C2718 C2724 1.368 . S
C2719 C2703 1.349 . S
C2719 H2711 0.950 . S
C2719 C2717 1.327 . S
C2720 C2708 1.349 . S
C2720 H2714 0.950 . S
C2720 C2721 1.327 . S
C2721 H2715 0.950 . S
C2721 C2720 1.327 . S
C2721 C2725 1.429 . S
C2722 C2705 1.574 . S
C2722 H2716 0.949 . S
C2722 C2726 1.368 . S
C2723 C2704 1.429 . S
C2723 C2717 1.429 . S
C2723 C2724 1.523 . S
C2724 C2705 1.368 . S
C2724 C2718 1.368 . S
C2724 C2723 1.523 . S
C2725 C2709 1.429 . S
C2725 C2721 1.429 . S
C2725 C2726 1.523 . S
C2726 C2710 1.368 . S
C2726 C2722 1.368 . S
C2726 C2725 1.523 . S
H2727 C2702 0.950 . S
H2728 C2704 0.950 . S
H2729 C2705 0.949 . S
H2730 C2707 0.950 . S
H2731 C2709 0.950 . S
C2732 C2733 1.349 . S
C2732 C2734 1.327 . S
C2732 H2757 0.950 . S
C2733 C2732 1.349 . S
C2733 C2749 1.349 . S
C2734 C2732 1.327 . S
C2734 C2753 1.429 . S
C2734 H2758 0.950 . S
C2735 C2752 1.574 . S
C2735 C2754 1.368 . S
C2735 H2759 0.949 . S
H2736 C2740 0.949 . S
C2737 C2738 1.349 . S
C2737 C2739 1.327 . S
C2737 H2760 0.950 . S
C2738 C2737 1.349 . S
C2738 C2750 1.349 . S
C2739 C2737 1.327 . S
C2739 C2755 1.429 . S
C2739 H2761 0.950 . S
C2740 H2736 0.949 . S
C2740 C2748 1.574 . S
C2740 C2756 1.368 . S
H2741 C2749 0.950 . S
H2742 C2747 0.950 . S
H2743 C2748 0.949 . S
H2744 C2750 0.950 . S
H2745 C2751 0.950 . S
H2746 C2752 0.949 . S
C2747 H2742 0.950 . S
C2747 C2749 1.327 . S
C2747 C2753 1.429 . S
C2748 C2740 1.574 . S
C2748 H2743 0.949 . S
C2748 C2754 1.368 . S
C2749 C2733 1.349 . S
C2749 H2741 0.950 . S
C2749 C2747 1.327 . S
C2750 C2738 1.349 . S
C2750 H2744 0.950 . S
C2750 C2751 1.327 . S
C2751 H2745 0.950 . S
C2751 C2750 1.327 . S
C2751 C2755 1.429 . S
C2752 C2735 1.574 . S
C2752 H2746 0.949 . S
C2752 C2756 1.368 . S
C2753 C2734 1.429 . S
C2753 C2747 1.429 . S
C2753 C2754 1.523 . S
C2754 C2735 1.368 . S
C2754 C2748 1.368 . S
C2754 C2753 1.523 . S
C2755 C2739 1.429 . S
C2755 C2751 1.429 . S
C2755 C2756 1.523 . S
C2756 C2740 1.368 . S
C2756 C2752 1.368 . S
C2756 C2755 1.523 . S
H2757 C2732 0.950 . S
H2758 C2734 0.950 . S
H2759 C2735 0.949 . S
H2760 C2737 0.950 . S
H2761 C2739 0.950 . S
C2762 C2763 1.349 . S
C2762 C2764 1.327 . S
C2762 H2787 0.950 . S
C2763 C2762 1.349 . S
C2763 C2779 1.349 . S
C2764 C2762 1.327 . S
C2764 C2783 1.429 . S
C2764 H2788 0.950 . S
C2765 C2782 1.574 . S
C2765 C2784 1.368 . S
C2765 H2789 0.949 . S
H2766 C2770 0.949 . S
C2767 C2768 1.349 . S
C2767 C2769 1.327 . S
C2767 H2790 0.950 . S
C2768 C2767 1.349 . S
C2768 C2780 1.349 . S
C2769 C2767 1.327 . S
C2769 C2785 1.429 . S
C2769 H2791 0.950 . S
C2770 H2766 0.949 . S
C2770 C2778 1.574 . S
C2770 C2786 1.368 . S
H2771 C2779 0.950 . S
H2772 C2777 0.950 . S
H2773 C2778 0.949 . S
H2774 C2780 0.950 . S
H2775 C2781 0.950 . S
H2776 C2782 0.949 . S
C2777 H2772 0.950 . S
C2777 C2779 1.327 . S
C2777 C2783 1.429 . S
C2778 C2770 1.574 . S
C2778 H2773 0.949 . S
C2778 C2784 1.368 . S
C2779 C2763 1.349 . S
C2779 H2771 0.950 . S
C2779 C2777 1.327 . S
C2780 C2768 1.349 . S
C2780 H2774 0.950 . S
C2780 C2781 1.327 . S
C2781 H2775 0.950 . S
C2781 C2780 1.327 . S
C2781 C2785 1.429 . S
C2782 C2765 1.574 . S
C2782 H2776 0.949 . S
C2782 C2786 1.368 . S
C2783 C2764 1.429 . S
C2783 C2777 1.429 . S
C2783 C2784 1.523 . S
C2784 C2765 1.368 . S
C2784 C2778 1.368 . S
C2784 C2783 1.523 . S
C2785 C2769 1.429 . S
C2785 C2781 1.429 . S
C2785 C2786 1.523 . S
C2786 C2770 1.368 . S
C2786 C2782 1.368 . S
C2786 C2785 1.523 . S
H2787 C2762 0.950 . S
H2788 C2764 0.950 . S
H2789 C2765 0.949 . S
H2790 C2767 0.950 . S
H2791 C2769 0.950 . S
C2792 C2793 1.349 . S
C2792 C2794 1.327 . S
C2792 H2817 0.950 . S
C2793 C2792 1.349 . S
C2793 C2809 1.349 . S
C2794 C2792 1.327 . S
C2794 C2813 1.429 . S
C2794 H2818 0.950 . S
C2795 C2812 1.574 . S
C2795 C2814 1.368 . S
C2795 H2819 0.949 . S
H2796 C2800 0.949 . S
C2797 C2798 1.349 . S
C2797 C2799 1.327 . S
C2797 H2820 0.950 . S
C2798 C2797 1.349 . S
C2798 C2810 1.349 . S
C2799 C2797 1.327 . S
C2799 C2815 1.429 . S
C2799 H2821 0.950 . S
C2800 H2796 0.949 . S
C2800 C2808 1.574 . S
C2800 C2816 1.368 . S
H2801 C2809 0.950 . S
H2802 C2807 0.950 . S
H2803 C2808 0.949 . S
H2804 C2810 0.950 . S
H2805 C2811 0.950 . S
H2806 C2812 0.949 . S
C2807 H2802 0.950 . S
C2807 C2809 1.327 . S
C2807 C2813 1.429 . S
C2808 C2800 1.574 . S
C2808 H2803 0.949 . S
C2808 C2814 1.368 . S
C2809 C2793 1.349 . S
C2809 H2801 0.950 . S
C2809 C2807 1.327 . S
C2810 C2798 1.349 . S
C2810 H2804 0.950 . S
C2810 C2811 1.327 . S
C2811 H2805 0.950 . S
C2811 C2810 1.327 . S
C2811 C2815 1.429 . S
C2812 C2795 1.574 . S
C2812 H2806 0.949 . S
C2812 C2816 1.368 . S
C2813 C2794 1.429 . S
C2813 C2807 1.429 . S
C2813 C2814 1.523 . S
C2814 C2795 1.368 . S
C2814 C2808 1.368 . S
C2814 C2813 1.523 . S
C2815 C2799 1.429 . S
C2815 C2811 1.429 . S
C2815 C2816 1.523 . S
C2816 C2800 1.368 . S
C2816 C2812 1.368 . S
C2816 C2815 1.523 . S
H2817 C2792 0.950 . S
H2818 C2794 0.950 . S
H2819 C2795 0.949 . S
H2820 C2797 0.950 . S
H2821 C2799 0.950 . S
C2822 C2823 1.349 . S
C2822 C2824 1.327 . S
C2822 H2847 0.950 . S
C2823 C2822 1.349 . S
C2823 C2839 1.349 . S
C2824 C2822 1.327 . S
C2824 C2843 1.429 . S
C2824 H2848 0.950 . S
C2825 C2842 1.574 . S
C2825 C2844 1.368 . S
C2825 H2849 0.949 . S
H2826 C2830 0.949 . S
C2827 C2828 1.349 . S
C2827 C2829 1.327 . S
C2827 H2850 0.950 . S
C2828 C2827 1.349 . S
C2828 C2840 1.349 . S
C2829 C2827 1.327 . S
C2829 C2845 1.429 . S
C2829 H2851 0.950 . S
C2830 H2826 0.949 . S
C2830 C2838 1.574 . S
C2830 C2846 1.368 . S
H2831 C2839 0.950 . S
H2832 C2837 0.950 . S
H2833 C2838 0.949 . S
H2834 C2840 0.950 . S
H2835 C2841 0.950 . S
H2836 C2842 0.949 . S
C2837 H2832 0.950 . S
C2837 C2839 1.327 . S
C2837 C2843 1.429 . S
C2838 C2830 1.574 . S
C2838 H2833 0.949 . S
C2838 C2844 1.368 . S
C2839 C2823 1.349 . S
C2839 H2831 0.950 . S
C2839 C2837 1.327 . S
C2840 C2828 1.349 . S
C2840 H2834 0.950 . S
C2840 C2841 1.327 . S
C2841 H2835 0.950 . S
C2841 C2840 1.327 . S
C2841 C2845 1.429 . S
C2842 C2825 1.574 . S
C2842 H2836 0.949 . S
C2842 C2846 1.368 . S
C2843 C2824 1.429 . S
C2843 C2837 1.429 . S
C2843 C2844 1.523 . S
C2844 C2825 1.368 . S
C2844 C2838 1.368 . S
C2844 C2843 1.523 . S
C2845 C2829 1.429 . S
C2845 C2841 1.429 . S
C2845 C2846 1.523 . S
C2846 C2830 1.368 . S
C2846 C2842 1.368 . S
C2846 C2845 1.523 . S
H2847 C2822 0.950 . S
H2848 C2824 0.950 . S
H2849 C2825 0.949 . S
H2850 C2827 0.950 . S
H2851 C2829 0.950 . S
C2852 C2853 1.349 . S
C2852 C2854 1.327 . S
C2852 H2877 0.950 . S
C2853 C2852 1.349 . S
C2853 C2869 1.349 . S
C2854 C2852 1.327 . S
C2854 C2873 1.429 . S
C2854 H2878 0.950 . S
C2855 C2872 1.574 . S
C2855 C2874 1.368 . S
C2855 H2879 0.949 . S
H2856 C2860 0.949 . S
C2857 C2858 1.349 . S
C2857 C2859 1.327 . S
C2857 H2880 0.950 . S
C2858 C2857 1.349 . S
C2858 C2870 1.349 . S
C2859 C2857 1.327 . S
C2859 C2875 1.429 . S
C2859 H2881 0.950 . S
C2860 H2856 0.949 . S
C2860 C2868 1.574 . S
C2860 C2876 1.368 . S
H2861 C2869 0.950 . S
H2862 C2867 0.950 . S
H2863 C2868 0.949 . S
H2864 C2870 0.950 . S
H2865 C2871 0.950 . S
H2866 C2872 0.949 . S
C2867 H2862 0.950 . S
C2867 C2869 1.327 . S
C2867 C2873 1.429 . S
C2868 C2860 1.574 . S
C2868 H2863 0.949 . S
C2868 C2874 1.368 . S
C2869 C2853 1.349 . S
C2869 H2861 0.950 . S
C2869 C2867 1.327 . S
C2870 C2858 1.349 . S
C2870 H2864 0.950 . S
C2870 C2871 1.327 . S
C2871 H2865 0.950 . S
C2871 C2870 1.327 . S
C2871 C2875 1.429 . S
C2872 C2855 1.574 . S
C2872 H2866 0.949 . S
C2872 C2876 1.368 . S
C2873 C2854 1.429 . S
C2873 C2867 1.429 . S
C2873 C2874 1.523 . S
C2874 C2855 1.368 . S
C2874 C2868 1.368 . S
C2874 C2873 1.523 . S
C2875 C2859 1.429 . S
C2875 C2871 1.429 . S
C2875 C2876 1.523 . S
C2876 C2860 1.368 . S
C2876 C2872 1.368 . S
C2876 C2875 1.523 . S
H2877 C2852 0.950 . S
H2878 C2854 0.950 . S
H2879 C2855 0.949 . S
H2880 C2857 0.950 . S
H2881 C2859 0.950 . S
C2882 C2883 1.349 . S
C2882 C2884 1.327 . S
C2882 H2907 0.950 . S
C2883 C2882 1.349 . S
C2883 C2899 1.349 . S
C2884 C2882 1.327 . S
C2884 C2903 1.429 . S
C2884 H2908 0.950 . S
C2885 C2902 1.574 . S
C2885 C2904 1.368 . S
C2885 H2909 0.949 . S
H2886 C2890 0.949 . S
C2887 C2888 1.349 . S
C2887 C2889 1.327 . S
C2887 H2910 0.950 . S
C2888 C2887 1.349 . S
C2888 C2900 1.349 . S
C2889 C2887 1.327 . S
C2889 C2905 1.429 . S
C2889 H2911 0.950 . S
C2890 H2886 0.949 . S
C2890 C2898 1.574 . S
C2890 C2906 1.368 . S
H2891 C2899 0.950 . S
H2892 C2897 0.950 . S
H2893 C2898 0.949 . S
H2894 C2900 0.950 . S
H2895 C2901 0.950 . S
H2896 C2902 0.949 . S
C2897 H2892 0.950 . S
C2897 C2899 1.327 . S
C2897 C2903 1.429 . S
C2898 C2890 1.574 . S
C2898 H2893 0.949 . S
C2898 C2904 1.368 . S
C2899 C2883 1.349 . S
C2899 H2891 0.950 . S
C2899 C2897 1.327 . S
C2900 C2888 1.349 . S
C2900 H2894 0.950 . S
C2900 C2901 1.327 . S
C2901 H2895 0.950 . S
C2901 C2900 1.327 . S
C2901 C2905 1.429 . S
C2902 C2885 1.574 . S
C2902 H2896 0.949 . S
C2902 C2906 1.368 . S
C2903 C2884 1.429 . S
C2903 C2897 1.429 . S
C2903 C2904 1.523 . S
C2904 C2885 1.368 . S
C2904 C2898 1.368 . S
C2904 C2903 1.523 . S
C2905 C2889 1.429 . S
C2905 C2901 1.429 . S
C2905 C2906 1.523 . S
C2906 C2890 1.368 . S
C2906 C2902 1.368 . S
C2906 C2905 1.523 . S
H2907 C2882 0.950 . S
H2908 C2884 0.950 . S
H2909 C2885 0.949 . S
H2910 C2887 0.950 . S
H2911 C2889 0.950 . S
C2912 C2913 1.349 . S
C2912 C2914 1.327 . S
C2912 H2937 0.950 . S
C2913 C2912 1.349 . S
C2913 C2929 1.349 . S
C2914 C2912 1.327 . S
C2914 C2933 1.429 . S
C2914 H2938 0.950 . S
C2915 C2932 1.574 . S
C2915 C2934 1.368 . S
C2915 H2939 0.949 . S
H2916 C2920 0.949 . S
C2917 C2918 1.349 . S
C2917 C2919 1.327 . S
C2917 H2940 0.950 . S
C2918 C2917 1.349 . S
C2918 C2930 1.349 . S
C2919 C2917 1.327 . S
C2919 C2935 1.429 . S
C2919 H2941 0.950 . S
C2920 H2916 0.949 . S
C2920 C2928 1.574 . S
C2920 C2936 1.368 . S
H2921 C2929 0.950 . S
H2922 C2927 0.950 . S
H2923 C2928 0.949 . S
H2924 C2930 0.950 . S
H2925 C2931 0.950 . S
H2926 C2932 0.949 . S
C2927 H2922 0.950 . S
C2927 C2929 1.327 . S
C2927 C2933 1.429 . S
C2928 C2920 1.574 . S
C2928 H2923 0.949 . S
C2928 C2934 1.368 . S
C2929 C2913 1.349 . S
C2929 H2921 0.950 . S
C2929 C2927 1.327 . S
C2930 C2918 1.349 . S
C2930 H2924 0.950 . S
C2930 C2931 1.327 . S
C2931 H2925 0.950 . S
C2931 C2930 1.327 . S
C2931 C2935 1.429 . S
C2932 C2915 1.574 . S
C2932 H2926 0.949 . S
C2932 C2936 1.368 . S
C2933 C2914 1.429 . S
C2933 C2927 1.429 . S
C2933 C2934 1.523 . S
C2934 C2915 1.368 . S
C2934 C2928 1.368 . S
C2934 C2933 1.523 . S
C2935 C2919 1.429 . S
C2935 C2931 1.429 . S
C2935 C2936 1.523 . S
C2936 C2920 1.368 . S
C2936 C2932 1.368 . S
C2936 C2935 1.523 . S
H2937 C2912 0.950 . S
H2938 C2914 0.950 . S
H2939 C2915 0.949 . S
H2940 C2917 0.950 . S
H2941 C2919 0.950 . S
C2942 C2943 1.349 . S
C2942 C2944 1.327 . S
C2942 H2967 0.950 . S
C2943 C2942 1.349 . S
C2943 C2959 1.349 . S
C2944 C2942 1.327 . S
C2944 C2963 1.429 . S
C2944 H2968 0.950 . S
C2945 C2962 1.574 . S
C2945 C2964 1.368 . S
C2945 H2969 0.949 . S
H2946 C2950 0.949 . S
C2947 C2948 1.349 . S
C2947 C2949 1.327 . S
C2947 H2970 0.950 . S
C2948 C2947 1.349 . S
C2948 C2960 1.349 . S
C2949 C2947 1.327 . S
C2949 C2965 1.429 . S
C2949 H2971 0.950 . S
C2950 H2946 0.949 . S
C2950 C2958 1.574 . S
C2950 C2966 1.368 . S
H2951 C2959 0.950 . S
H2952 C2957 0.950 . S
H2953 C2958 0.949 . S
H2954 C2960 0.950 . S
H2955 C2961 0.950 . S
H2956 C2962 0.949 . S
C2957 H2952 0.950 . S
C2957 C2959 1.327 . S
C2957 C2963 1.429 . S
C2958 C2950 1.574 . S
C2958 H2953 0.949 . S
C2958 C2964 1.368 . S
C2959 C2943 1.349 . S
C2959 H2951 0.950 . S
C2959 C2957 1.327 . S
C2960 C2948 1.349 . S
C2960 H2954 0.950 . S
C2960 C2961 1.327 . S
C2961 H2955 0.950 . S
C2961 C2960 1.327 . S
C2961 C2965 1.429 . S
C2962 C2945 1.574 . S
C2962 H2956 0.949 . S
C2962 C2966 1.368 . S
C2963 C2944 1.429 . S
C2963 C2957 1.429 . S
C2963 C2964 1.523 . S
C2964 C2945 1.368 . S
C2964 C2958 1.368 . S
C2964 C2963 1.523 . S
C2965 C2949 1.429 . S
C2965 C2961 1.429 . S
C2965 C2966 1.523 . S
C2966 C2950 1.368 . S
C2966 C2962 1.368 . S
C2966 C2965 1.523 . S
H2967 C2942 0.950 . S
H2968 C2944 0.950 . S
H2969 C2945 0.949 . S
H2970 C2947 0.950 . S
H2971 C2949 0.950 . S
C2972 C2973 1.349 . S
C2972 C2974 1.327 . S
C2972 H2997 0.950 . S
C2973 C2972 1.349 . S
C2973 C2989 1.349 . S
C2974 C2972 1.327 . S
C2974 C2993 1.429 . S
C2974 H2998 0.950 . S
C2975 C2992 1.574 . S
C2975 C2994 1.368 . S
C2975 H2999 0.949 . S
H2976 C2980 0.949 . S
C2977 C2978 1.349 . S
C2977 C2979 1.327 . S
C2977 H3000 0.950 . S
C2978 C2977 1.349 . S
C2978 C2990 1.349 . S
C2979 C2977 1.327 . S
C2979 C2995 1.429 . S
C2979 H3001 0.950 . S
C2980 H2976 0.949 . S
C2980 C2988 1.574 . S
C2980 C2996 1.368 . S
H2981 C2989 0.950 . S
H2982 C2987 0.950 . S
H2983 C2988 0.949 . S
H2984 C2990 0.950 . S
H2985 C2991 0.950 . S
H2986 C2992 0.949 . S
C2987 H2982 0.950 . S
C2987 C2989 1.327 . S
C2987 C2993 1.429 . S
C2988 C2980 1.574 . S
C2988 H2983 0.949 . S
C2988 C2994 1.368 . S
C2989 C2973 1.349 . S
C2989 H2981 0.950 . S
C2989 C2987 1.327 . S
C2990 C2978 1.349 . S
C2990 H2984 0.950 . S
C2990 C2991 1.327 . S
C2991 H2985 0.950 . S
C2991 C2990 1.327 . S
C2991 C2995 1.429 . S
C2992 C2975 1.574 . S
C2992 H2986 0.949 . S
C2992 C2996 1.368 . S
C2993 C2974 1.429 . S
C2993 C2987 1.429 . S
C2993 C2994 1.523 . S
C2994 C2975 1.368 . S
C2994 C2988 1.368 . S
C2994 C2993 1.523 . S
C2995 C2979 1.429 . S
C2995 C2991 1.429 . S
C2995 C2996 1.523 . S
C2996 C2980 1.368 . S
C2996 C2992 1.368 . S
C2996 C2995 1.523 . S
H2997 C2972 0.950 . S
H2998 C2974 0.950 . S
H2999 C2975 0.949 . S
H3000 C2977 0.950 . S
H3001 C2979 0.950 . S
C3002 C3003 1.349 . S
C3002 C3004 1.327 . S
C3002 H3027 0.950 . S
C3003 C3002 1.349 . S
C3003 C3019 1.349 . S
C3004 C3002 1.327 . S
C3004 C3023 1.429 . S
C3004 H3028 0.950 . S
C3005 C3022 1.574 . S
C3005 C3024 1.368 . S
C3005 H3029 0.949 . S
H3006 C3010 0.949 . S
C3007 C3008 1.349 . S
C3007 C3009 1.327 . S
C3007 H3030 0.950 . S
C3008 C3007 1.349 . S
C3008 C3020 1.349 . S
C3009 C3007 1.327 . S
C3009 C3025 1.429 . S
C3009 H3031 0.950 . S
C3010 H3006 0.949 . S
C3010 C3018 1.574 . S
C3010 C3026 1.368 . S
H3011 C3019 0.950 . S
H3012 C3017 0.950 . S
H3013 C3018 0.949 . S
H3014 C3020 0.950 . S
H3015 C3021 0.950 . S
H3016 C3022 0.949 . S
C3017 H3012 0.950 . S
C3017 C3019 1.327 . S
C3017 C3023 1.429 . S
C3018 C3010 1.574 . S
C3018 H3013 0.949 . S
C3018 C3024 1.368 . S
C3019 C3003 1.349 . S
C3019 H3011 0.950 . S
C3019 C3017 1.327 . S
C3020 C3008 1.349 . S
C3020 H3014 0.950 . S
C3020 C3021 1.327 . S
C3021 H3015 0.950 . S
C3021 C3020 1.327 . S
C3021 C3025 1.429 . S
C3022 C3005 1.574 . S
C3022 H3016 0.949 . S
C3022 C3026 1.368 . S
C3023 C3004 1.429 . S
C3023 C3017 1.429 . S
C3023 C3024 1.523 . S
C3024 C3005 1.368 . S
C3024 C3018 1.368 . S
C3024 C3023 1.523 . S
C3025 C3009 1.429 . S
C3025 C3021 1.429 . S
C3025 C3026 1.523 . S
C3026 C3010 1.368 . S
C3026 C3022 1.368 . S
C3026 C3025 1.523 . S
H3027 C3002 0.950 . S
H3028 C3004 0.950 . S
H3029 C3005 0.949 . S
H3030 C3007 0.950 . S
H3031 C3009 0.950 . S
C3032 C3033 1.349 . S
C3032 C3034 1.327 . S
C3032 H3057 0.950 . S
C3033 C3032 1.349 . S
C3033 C3049 1.349 . S
C3034 C3032 1.327 . S
C3034 C3053 1.429 . S
C3034 H3058 0.950 . S
C3035 C3052 1.574 . S
C3035 C3054 1.368 . S
C3035 H3059 0.949 . S
H3036 C3040 0.949 . S
C3037 C3038 1.349 . S
C3037 C3039 1.327 . S
C3037 H3060 0.950 . S
C3038 C3037 1.349 . S
C3038 C3050 1.349 . S
C3039 C3037 1.327 . S
C3039 C3055 1.429 . S
C3039 H3061 0.950 . S
C3040 H3036 0.949 . S
C3040 C3048 1.574 . S
C3040 C3056 1.368 . S
H3041 C3049 0.950 . S
H3042 C3047 0.950 . S
H3043 C3048 0.949 . S
H3044 C3050 0.950 . S
H3045 C3051 0.950 . S
H3046 C3052 0.949 . S
C3047 H3042 0.950 . S
C3047 C3049 1.327 . S
C3047 C3053 1.429 . S
C3048 C3040 1.574 . S
C3048 H3043 0.949 . S
C3048 C3054 1.368 . S
C3049 C3033 1.349 . S
C3049 H3041 0.950 . S
C3049 C3047 1.327 . S
C3050 C3038 1.349 . S
C3050 H3044 0.950 . S
C3050 C3051 1.327 . S
C3051 H3045 0.950 . S
C3051 C3050 1.327 . S
C3051 C3055 1.429 . S
C3052 C3035 1.574 . S
C3052 H3046 0.949 . S
C3052 C3056 1.368 . S
C3053 C3034 1.429 . S
C3053 C3047 1.429 . S
C3053 C3054 1.523 . S
C3054 C3035 1.368 . S
C3054 C3048 1.368 . S
C3054 C3053 1.523 . S
C3055 C3039 1.429 . S
C3055 C3051 1.429 . S
C3055 C3056 1.523 . S
C3056 C3040 1.368 . S
C3056 C3052 1.368 . S
C3056 C3055 1.523 . S
H3057 C3032 0.950 . S
H3058 C3034 0.950 . S
H3059 C3035 0.949 . S
H3060 C3037 0.950 . S
H3061 C3039 0.950 . S
C3062 C3063 1.349 . S
C3062 C3064 1.327 . S
C3062 H3087 0.950 . S
C3063 C3062 1.349 . S
C3063 C3079 1.349 . S
C3064 C3062 1.327 . S
C3064 C3083 1.429 . S
C3064 H3088 0.950 . S
C3065 C3082 1.574 . S
C3065 C3084 1.368 . S
C3065 H3089 0.949 . S
H3066 C3070 0.949 . S
C3067 C3068 1.349 . S
C3067 C3069 1.327 . S
C3067 H3090 0.950 . S
C3068 C3067 1.349 . S
C3068 C3080 1.349 . S
C3069 C3067 1.327 . S
C3069 C3085 1.429 . S
C3069 H3091 0.950 . S
C3070 H3066 0.949 . S
C3070 C3078 1.574 . S
C3070 C3086 1.368 . S
H3071 C3079 0.950 . S
H3072 C3077 0.950 . S
H3073 C3078 0.949 . S
H3074 C3080 0.950 . S
H3075 C3081 0.950 . S
H3076 C3082 0.949 . S
C3077 H3072 0.950 . S
C3077 C3079 1.327 . S
C3077 C3083 1.429 . S
C3078 C3070 1.574 . S
C3078 H3073 0.949 . S
C3078 C3084 1.368 . S
C3079 C3063 1.349 . S
C3079 H3071 0.950 . S
C3079 C3077 1.327 . S
C3080 C3068 1.349 . S
C3080 H3074 0.950 . S
C3080 C3081 1.327 . S
C3081 H3075 0.950 . S
C3081 C3080 1.327 . S
C3081 C3085 1.429 . S
C3082 C3065 1.574 . S
C3082 H3076 0.949 . S
C3082 C3086 1.368 . S
C3083 C3064 1.429 . S
C3083 C3077 1.429 . S
C3083 C3084 1.523 . S
C3084 C3065 1.368 . S
C3084 C3078 1.368 . S
C3084 C3083 1.523 . S
C3085 C3069 1.429 . S
C3085 C3081 1.429 . S
C3085 C3086 1.523 . S
C3086 C3070 1.368 . S
C3086 C3082 1.368 . S
C3086 C3085 1.523 . S
H3087 C3062 0.950 . S
H3088 C3064 0.950 . S
H3089 C3065 0.949 . S
H3090 C3067 0.950 . S
H3091 C3069 0.950 . S
C3092 C3093 1.349 . S
C3092 C3094 1.327 . S
C3092 H3117 0.950 . S
C3093 C3092 1.349 . S
C3093 C3109 1.349 . S
C3094 C3092 1.327 . S
C3094 C3113 1.429 . S
C3094 H3118 0.950 . S
C3095 C3112 1.574 . S
C3095 C3114 1.368 . S
C3095 H3119 0.949 . S
H3096 C3100 0.949 . S
C3097 C3098 1.349 . S
C3097 C3099 1.327 . S
C3097 H3120 0.950 . S
C3098 C3097 1.349 . S
C3098 C3110 1.349 . S
C3099 C3097 1.327 . S
C3099 C3115 1.429 . S
C3099 H3121 0.950 . S
C3100 H3096 0.949 . S
C3100 C3108 1.574 . S
C3100 C3116 1.368 . S
H3101 C3109 0.950 . S
H3102 C3107 0.950 . S
H3103 C3108 0.949 . S
H3104 C3110 0.950 . S
H3105 C3111 0.950 . S
H3106 C3112 0.949 . S
C3107 H3102 0.950 . S
C3107 C3109 1.327 . S
C3107 C3113 1.429 . S
C3108 C3100 1.574 . S
C3108 H3103 0.949 . S
C3108 C3114 1.368 . S
C3109 C3093 1.349 . S
C3109 H3101 0.950 . S
C3109 C3107 1.327 . S
C3110 C3098 1.349 . S
C3110 H3104 0.950 . S
C3110 C3111 1.327 . S
C3111 H3105 0.950 . S
C3111 C3110 1.327 . S
C3111 C3115 1.429 . S
C3112 C3095 1.574 . S
C3112 H3106 0.949 . S
C3112 C3116 1.368 . S
C3113 C3094 1.429 . S
C3113 C3107 1.429 . S
C3113 C3114 1.523 . S
C3114 C3095 1.368 . S
C3114 C3108 1.368 . S
C3114 C3113 1.523 . S
C3115 C3099 1.429 . S
C3115 C3111 1.429 . S
C3115 C3116 1.523 . S
C3116 C3100 1.368 . S
C3116 C3112 1.368 . S
C3116 C3115 1.523 . S
H3117 C3092 0.950 . S
H3118 C3094 0.950 . S
H3119 C3095 0.949 . S
H3120 C3097 0.950 . S
H3121 C3099 0.950 . S
C3122 C3123 1.349 . S
C3122 C3124 1.327 . S
C3122 H3147 0.950 . S
C3123 C3122 1.349 . S
C3123 C3139 1.349 . S
C3124 C3122 1.327 . S
C3124 C3143 1.429 . S
C3124 H3148 0.950 . S
C3125 C3142 1.574 . S
C3125 C3144 1.368 . S
C3125 H3149 0.949 . S
H3126 C3130 0.949 . S
C3127 C3128 1.349 . S
C3127 C3129 1.327 . S
C3127 H3150 0.950 . S
C3128 C3127 1.349 . S
C3128 C3140 1.349 . S
C3129 C3127 1.327 . S
C3129 C3145 1.429 . S
C3129 H3151 0.950 . S
C3130 H3126 0.949 . S
C3130 C3138 1.574 . S
C3130 C3146 1.368 . S
H3131 C3139 0.950 . S
H3132 C3137 0.950 . S
H3133 C3138 0.949 . S
H3134 C3140 0.950 . S
H3135 C3141 0.950 . S
H3136 C3142 0.949 . S
C3137 H3132 0.950 . S
C3137 C3139 1.327 . S
C3137 C3143 1.429 . S
C3138 C3130 1.574 . S
C3138 H3133 0.949 . S
C3138 C3144 1.368 . S
C3139 C3123 1.349 . S
C3139 H3131 0.950 . S
C3139 C3137 1.327 . S
C3140 C3128 1.349 . S
C3140 H3134 0.950 . S
C3140 C3141 1.327 . S
C3141 H3135 0.950 . S
C3141 C3140 1.327 . S
C3141 C3145 1.429 . S
C3142 C3125 1.574 . S
C3142 H3136 0.949 . S
C3142 C3146 1.368 . S
C3143 C3124 1.429 . S
C3143 C3137 1.429 . S
C3143 C3144 1.523 . S
C3144 C3125 1.368 . S
C3144 C3138 1.368 . S
C3144 C3143 1.523 . S
C3145 C3129 1.429 . S
C3145 C3141 1.429 . S
C3145 C3146 1.523 . S
C3146 C3130 1.368 . S
C3146 C3142 1.368 . S
C3146 C3145 1.523 . S
H3147 C3122 0.950 . S
H3148 C3124 0.950 . S
H3149 C3125 0.949 . S
H3150 C3127 0.950 . S
H3151 C3129 0.950 . S
C3152 C3153 1.349 . S
C3152 C3154 1.327 . S
C3152 H3177 0.950 . S
C3153 C3152 1.349 . S
C3153 C3169 1.349 . S
C3154 C3152 1.327 . S
C3154 C3173 1.429 . S
C3154 H3178 0.950 . S
C3155 C3172 1.574 . S
C3155 C3174 1.368 . S
C3155 H3179 0.949 . S
H3156 C3160 0.949 . S
C3157 C3158 1.349 . S
C3157 C3159 1.327 . S
C3157 H3180 0.950 . S
C3158 C3157 1.349 . S
C3158 C3170 1.349 . S
C3159 C3157 1.327 . S
C3159 C3175 1.429 . S
C3159 H3181 0.950 . S
C3160 H3156 0.949 . S
C3160 C3168 1.574 . S
C3160 C3176 1.368 . S
H3161 C3169 0.950 . S
H3162 C3167 0.950 . S
H3163 C3168 0.949 . S
H3164 C3170 0.950 . S
H3165 C3171 0.950 . S
H3166 C3172 0.949 . S
C3167 H3162 0.950 . S
C3167 C3169 1.327 . S
C3167 C3173 1.429 . S
C3168 C3160 1.574 . S
C3168 H3163 0.949 . S
C3168 C3174 1.368 . S
C3169 C3153 1.349 . S
C3169 H3161 0.950 . S
C3169 C3167 1.327 . S
C3170 C3158 1.349 . S
C3170 H3164 0.950 . S
C3170 C3171 1.327 . S
C3171 H3165 0.950 . S
C3171 C3170 1.327 . S
C3171 C3175 1.429 . S
C3172 C3155 1.574 . S
C3172 H3166 0.949 . S
C3172 C3176 1.368 . S
C3173 C3154 1.429 . S
C3173 C3167 1.429 . S
C3173 C3174 1.523 . S
C3174 C3155 1.368 . S
C3174 C3168 1.368 . S
C3174 C3173 1.523 . S
C3175 C3159 1.429 . S
C3175 C3171 1.429 . S
C3175 C3176 1.523 . S
C3176 C3160 1.368 . S
C3176 C3172 1.368 . S
C3176 C3175 1.523 . S
H3177 C3152 0.950 . S
H3178 C3154 0.950 . S
H3179 C3155 0.949 . S
H3180 C3157 0.950 . S
H3181 C3159 0.950 . S
C3182 C3183 1.349 . S
C3182 C3184 1.327 . S
C3182 H3207 0.950 . S
C3183 C3182 1.349 . S
C3183 C3199 1.349 . S
C3184 C3182 1.327 . S
C3184 C3203 1.429 . S
C3184 H3208 0.950 . S
C3185 C3202 1.574 . S
C3185 C3204 1.368 . S
C3185 H3209 0.949 . S
H3186 C3190 0.949 . S
C3187 C3188 1.349 . S
C3187 C3189 1.327 . S
C3187 H3210 0.950 . S
C3188 C3187 1.349 . S
C3188 C3200 1.349 . S
C3189 C3187 1.327 . S
C3189 C3205 1.429 . S
C3189 H3211 0.950 . S
C3190 H3186 0.949 . S
C3190 C3198 1.574 . S
C3190 C3206 1.368 . S
H3191 C3199 0.950 . S
H3192 C3197 0.950 . S
H3193 C3198 0.949 . S
H3194 C3200 0.950 . S
H3195 C3201 0.950 . S
H3196 C3202 0.949 . S
C3197 H3192 0.950 . S
C3197 C3199 1.327 . S
C3197 C3203 1.429 . S
C3198 C3190 1.574 . S
C3198 H3193 0.949 . S
C3198 C3204 1.368 . S
C3199 C3183 1.349 . S
C3199 H3191 0.950 . S
C3199 C3197 1.327 . S
C3200 C3188 1.349 . S
C3200 H3194 0.950 . S
C3200 C3201 1.327 . S
C3201 H3195 0.950 . S
C3201 C3200 1.327 . S
C3201 C3205 1.429 . S
C3202 C3185 1.574 . S
C3202 H3196 0.949 . S
C3202 C3206 1.368 . S
C3203 C3184 1.429 . S
C3203 C3197 1.429 . S
C3203 C3204 1.523 . S
C3204 C3185 1.368 . S
C3204 C3198 1.368 . S
C3204 C3203 1.523 . S
C3205 C3189 1.429 . S
C3205 C3201 1.429 . S
C3205 C3206 1.523 . S
C3206 C3190 1.368 . S
C3206 C3202 1.368 . S
C3206 C3205 1.523 . S
H3207 C3182 0.950 . S
H3208 C3184 0.950 . S
H3209 C3185 0.949 . S
H3210 C3187 0.950 . S
H3211 C3189 0.950 . S
C3212 C3213 1.349 . S
C3212 C3214 1.327 . S
C3212 H3237 0.950 . S
C3213 C3212 1.349 . S
C3213 C3229 1.349 . S
C3214 C3212 1.327 . S
C3214 C3233 1.429 . S
C3214 H3238 0.950 . S
C3215 C3232 1.574 . S
C3215 C3234 1.368 . S
C3215 H3239 0.949 . S
H3216 C3220 0.949 . S
C3217 C3218 1.349 . S
C3217 C3219 1.327 . S
C3217 H3240 0.950 . S
C3218 C3217 1.349 . S
C3218 C3230 1.349 . S
C3219 C3217 1.327 . S
C3219 C3235 1.429 . S
C3219 H3241 0.950 . S
C3220 H3216 0.949 . S
C3220 C3228 1.574 . S
C3220 C3236 1.368 . S
H3221 C3229 0.950 . S
H3222 C3227 0.950 . S
H3223 C3228 0.949 . S
H3224 C3230 0.950 . S
H3225 C3231 0.950 . S
H3226 C3232 0.949 . S
C3227 H3222 0.950 . S
C3227 C3229 1.327 . S
C3227 C3233 1.429 . S
C3228 C3220 1.574 . S
C3228 H3223 0.949 . S
C3228 C3234 1.368 . S
C3229 C3213 1.349 . S
C3229 H3221 0.950 . S
C3229 C3227 1.327 . S
C3230 C3218 1.349 . S
C3230 H3224 0.950 . S
C3230 C3231 1.327 . S
C3231 H3225 0.950 . S
C3231 C3230 1.327 . S
C3231 C3235 1.429 . S
C3232 C3215 1.574 . S
C3232 H3226 0.949 . S
C3232 C3236 1.368 . S
C3233 C3214 1.429 . S
C3233 C3227 1.429 . S
C3233 C3234 1.523 . S
C3234 C3215 1.368 . S
C3234 C3228 1.368 . S
C3234 C3233 1.523 . S
C3235 C3219 1.429 . S
C3235 C3231 1.429 . S
C3235 C3236 1.523 . S
C3236 C3220 1.368 . S
C3236 C3232 1.368 . S
C3236 C3235 1.523 . S
H3237 C3212 0.950 . S
H3238 C3214 0.950 . S
H3239 C3215 0.949 . S
H3240 C3217 0.950 . S
H3241 C3219 0.950 . S
C3242 C3243 1.349 . S
C3242 C3244 1.327 . S
C3242 H3267 0.950 . S
C3243 C3242 1.349 . S
C3243 C3259 1.349 . S
C3244 C3242 1.327 . S
C3244 C3263 1.429 . S
C3244 H3268 0.950 . S
C3245 C3262 1.574 . S
C3245 C3264 1.368 . S
C3245 H3269 0.949 . S
H3246 C3250 0.949 . S
C3247 C3248 1.349 . S
C3247 C3249 1.327 . S
C3247 H3270 0.950 . S
C3248 C3247 1.349 . S
C3248 C3260 1.349 . S
C3249 C3247 1.327 . S
C3249 C3265 1.429 . S
C3249 H3271 0.950 . S
C3250 H3246 0.949 . S
C3250 C3258 1.574 . S
C3250 C3266 1.368 . S
H3251 C3259 0.950 . S
H3252 C3257 0.950 . S
H3253 C3258 0.949 . S
H3254 C3260 0.950 . S
H3255 C3261 0.950 . S
H3256 C3262 0.949 . S
C3257 H3252 0.950 . S
C3257 C3259 1.327 . S
C3257 C3263 1.429 . S
C3258 C3250 1.574 . S
C3258 H3253 0.949 . S
C3258 C3264 1.368 . S
C3259 C3243 1.349 . S
C3259 H3251 0.950 . S
C3259 C3257 1.327 . S
C3260 C3248 1.349 . S
C3260 H3254 0.950 . S
C3260 C3261 1.327 . S
C3261 H3255 0.950 . S
C3261 C3260 1.327 . S
C3261 C3265 1.429 . S
C3262 C3245 1.574 . S
C3262 H3256 0.949 . S
C3262 C3266 1.368 . S
C3263 C3244 1.429 . S
C3263 C3257 1.429 . S
C3263 C3264 1.523 . S
C3264 C3245 1.368 . S
C3264 C3258 1.368 . S
C3264 C3263 1.523 . S
C3265 C3249 1.429 . S
C3265 C3261 1.429 . S
C3265 C3266 1.523 . S
C3266 C3250 1.368 . S
C3266 C3262 1.368 . S
C3266 C3265 1.523 . S
H3267 C3242 0.950 . S
H3268 C3244 0.950 . S
H3269 C3245 0.949 . S
H3270 C3247 0.950 . S
H3271 C3249 0.950 . S
C3272 C3273 1.349 . S
C3272 C3274 1.327 . S
C3272 H3297 0.950 . S
C3273 C3272 1.349 . S
C3273 C3289 1.349 . S
C3274 C3272 1.327 . S
C3274 C3293 1.429 . S
C3274 H3298 0.950 . S
C3275 C3292 1.574 . S
C3275 C3294 1.368 . S
C3275 H3299 0.949 . S
H3276 C3280 0.949 . S
C3277 C3278 1.349 . S
C3277 C3279 1.327 . S
C3277 H3300 0.950 . S
C3278 C3277 1.349 . S
C3278 C3290 1.349 . S
C3279 C3277 1.327 . S
C3279 C3295 1.429 . S
C3279 H3301 0.950 . S
C3280 H3276 0.949 . S
C3280 C3288 1.574 . S
C3280 C3296 1.368 . S
H3281 C3289 0.950 . S
H3282 C3287 0.950 . S
H3283 C3288 0.949 . S
H3284 C3290 0.950 . S
H3285 C3291 0.950 . S
H3286 C3292 0.949 . S
C3287 H3282 0.950 . S
C3287 C3289 1.327 . S
C3287 C3293 1.429 . S
C3288 C3280 1.574 . S
C3288 H3283 0.949 . S
C3288 C3294 1.368 . S
C3289 C3273 1.349 . S
C3289 H3281 0.950 . S
C3289 C3287 1.327 . S
C3290 C3278 1.349 . S
C3290 H3284 0.950 . S
C3290 C3291 1.327 . S
C3291 H3285 0.950 . S
C3291 C3290 1.327 . S
C3291 C3295 1.429 . S
C3292 C3275 1.574 . S
C3292 H3286 0.949 . S
C3292 C3296 1.368 . S
C3293 C3274 1.429 . S
C3293 C3287 1.429 . S
C3293 C3294 1.523 . S
C3294 C3275 1.368 . S
C3294 C3288 1.368 . S
C3294 C3293 1.523 . S
C3295 C3279 1.429 . S
C3295 C3291 1.429 . S
C3295 C3296 1.523 . S
C3296 C3280 1.368 . S
C3296 C3292 1.368 . S
C3296 C3295 1.523 . S
H3297 C3272 0.950 . S
H3298 C3274 0.950 . S
H3299 C3275 0.949 . S
H3300 C3277 0.950 . S
H3301 C3279 0.950 . S
C3302 C3303 1.349 . S
C3302 C3304 1.327 . S
C3302 H3327 0.950 . S
C3303 C3302 1.349 . S
C3303 C3319 1.349 . S
C3304 C3302 1.327 . S
C3304 C3323 1.429 . S
C3304 H3328 0.950 . S
C3305 C3322 1.574 . S
C3305 C3324 1.368 . S
C3305 H3329 0.949 . S
H3306 C3310 0.949 . S
C3307 C3308 1.349 . S
C3307 C3309 1.327 . S
C3307 H3330 0.950 . S
C3308 C3307 1.349 . S
C3308 C3320 1.349 . S
C3309 C3307 1.327 . S
C3309 C3325 1.429 . S
C3309 H3331 0.950 . S
C3310 H3306 0.949 . S
C3310 C3318 1.574 . S
C3310 C3326 1.368 . S
H3311 C3319 0.950 . S
H3312 C3317 0.950 . S
H3313 C3318 0.949 . S
H3314 C3320 0.950 . S
H3315 C3321 0.950 . S
H3316 C3322 0.949 . S
C3317 H3312 0.950 . S
C3317 C3319 1.327 . S
C3317 C3323 1.429 . S
C3318 C3310 1.574 . S
C3318 H3313 0.949 . S
C3318 C3324 1.368 . S
C3319 C3303 1.349 . S
C3319 H3311 0.950 . S
C3319 C3317 1.327 . S
C3320 C3308 1.349 . S
C3320 H3314 0.950 . S
C3320 C3321 1.327 . S
C3321 H3315 0.950 . S
C3321 C3320 1.327 . S
C3321 C3325 1.429 . S
C3322 C3305 1.574 . S
C3322 H3316 0.949 . S
C3322 C3326 1.368 . S
C3323 C3304 1.429 . S
C3323 C3317 1.429 . S
C3323 C3324 1.523 . S
C3324 C3305 1.368 . S
C3324 C3318 1.368 . S
C3324 C3323 1.523 . S
C3325 C3309 1.429 . S
C3325 C3321 1.429 . S
C3325 C3326 1.523 . S
C3326 C3310 1.368 . S
C3326 C3322 1.368 . S
C3326 C3325 1.523 . S
H3327 C3302 0.950 . S
H3328 C3304 0.950 . S
H3329 C3305 0.949 . S
H3330 C3307 0.950 . S
H3331 C3309 0.950 . S
C3332 C3333 1.349 . S
C3332 C3334 1.327 . S
C3332 H3357 0.950 . S
C3333 C3332 1.349 . S
C3333 C3349 1.349 . S
C3334 C3332 1.327 . S
C3334 C3353 1.429 . S
C3334 H3358 0.950 . S
C3335 C3352 1.574 . S
C3335 C3354 1.368 . S
C3335 H3359 0.949 . S
H3336 C3340 0.949 . S
C3337 C3338 1.349 . S
C3337 C3339 1.327 . S
C3337 H3360 0.950 . S
C3338 C3337 1.349 . S
C3338 C3350 1.349 . S
C3339 C3337 1.327 . S
C3339 C3355 1.429 . S
C3339 H3361 0.950 . S
C3340 H3336 0.949 . S
C3340 C3348 1.574 . S
C3340 C3356 1.368 . S
H3341 C3349 0.950 . S
H3342 C3347 0.950 . S
H3343 C3348 0.949 . S
H3344 C3350 0.950 . S
H3345 C3351 0.950 . S
H3346 C3352 0.949 . S
C3347 H3342 0.950 . S
C3347 C3349 1.327 . S
C3347 C3353 1.429 . S
C3348 C3340 1.574 . S
C3348 H3343 0.949 . S
C3348 C3354 1.368 . S
C3349 C3333 1.349 . S
C3349 H3341 0.950 . S
C3349 C3347 1.327 . S
C3350 C3338 1.349 . S
C3350 H3344 0.950 . S
C3350 C3351 1.327 . S
C3351 H3345 0.950 . S
C3351 C3350 1.327 . S
C3351 C3355 1.429 . S
C3352 C3335 1.574 . S
C3352 H3346 0.949 . S
C3352 C3356 1.368 . S
C3353 C3334 1.429 . S
C3353 C3347 1.429 . S
C3353 C3354 1.523 . S
C3354 C3335 1.368 . S
C3354 C3348 1.368 . S
C3354 C3353 1.523 . S
C3355 C3339 1.429 . S
C3355 C3351 1.429 . S
C3355 C3356 1.523 . S
C3356 C3340 1.368 . S
C3356 C3352 1.368 . S
C3356 C3355 1.523 . S
H3357 C3332 0.950 . S
H3358 C3334 0.950 . S
H3359 C3335 0.949 . S
H3360 C3337 0.950 . S
H3361 C3339 0.950 . S
C3362 C3363 1.349 . S
C3362 C3364 1.327 . S
C3362 H3387 0.950 . S
C3363 C3362 1.349 . S
C3363 C3379 1.349 . S
C3364 C3362 1.327 . S
C3364 C3383 1.429 . S
C3364 H3388 0.950 . S
C3365 C3382 1.574 . S
C3365 C3384 1.368 . S
C3365 H3389 0.949 . S
H3366 C3370 0.949 . S
C3367 C3368 1.349 . S
C3367 C3369 1.327 . S
C3367 H3390 0.950 . S
C3368 C3367 1.349 . S
C3368 C3380 1.349 . S
C3369 C3367 1.327 . S
C3369 C3385 1.429 . S
C3369 H3391 0.950 . S
C3370 H3366 0.949 . S
C3370 C3378 1.574 . S
C3370 C3386 1.368 . S
H3371 C3379 0.950 . S
H3372 C3377 0.950 . S
H3373 C3378 0.949 . S
H3374 C3380 0.950 . S
H3375 C3381 0.950 . S
H3376 C3382 0.949 . S
C3377 H3372 0.950 . S
C3377 C3379 1.327 . S
C3377 C3383 1.429 . S
C3378 C3370 1.574 . S
C3378 H3373 0.949 . S
C3378 C3384 1.368 . S
C3379 C3363 1.349 . S
C3379 H3371 0.950 . S
C3379 C3377 1.327 . S
C3380 C3368 1.349 . S
C3380 H3374 0.950 . S
C3380 C3381 1.327 . S
C3381 H3375 0.950 . S
C3381 C3380 1.327 . S
C3381 C3385 1.429 . S
C3382 C3365 1.574 . S
C3382 H3376 0.949 . S
C3382 C3386 1.368 . S
C3383 C3364 1.429 . S
C3383 C3377 1.429 . S
C3383 C3384 1.523 . S
C3384 C3365 1.368 . S
C3384 C3378 1.368 . S
C3384 C3383 1.523 . S
C3385 C3369 1.429 . S
C3385 C3381 1.429 . S
C3385 C3386 1.523 . S
C3386 C3370 1.368 . S
C3386 C3382 1.368 . S
C3386 C3385 1.523 . S
H3387 C3362 0.950 . S
H3388 C3364 0.950 . S
H3389 C3365 0.949 . S
H3390 C3367 0.950 . S
H3391 C3369 0.950 . S
C3392 C3393 1.349 . S
C3392 C3394 1.327 . S
C3392 H3417 0.950 . S
C3393 C3392 1.349 . S
C3393 C3409 1.349 . S
C3394 C3392 1.327 . S
C3394 C3413 1.429 . S
C3394 H3418 0.950 . S
C3395 C3412 1.574 . S
C3395 C3414 1.368 . S
C3395 H3419 0.949 . S
H3396 C3400 0.949 . S
C3397 C3398 1.349 . S
C3397 C3399 1.327 . S
C3397 H3420 0.950 . S
C3398 C3397 1.349 . S
C3398 C3410 1.349 . S
C3399 C3397 1.327 . S
C3399 C3415 1.429 . S
C3399 H3421 0.950 . S
C3400 H3396 0.949 . S
C3400 C3408 1.574 . S
C3400 C3416 1.368 . S
H3401 C3409 0.950 . S
H3402 C3407 0.950 . S
H3403 C3408 0.949 . S
H3404 C3410 0.950 . S
H3405 C3411 0.950 . S
H3406 C3412 0.949 . S
C3407 H3402 0.950 . S
C3407 C3409 1.327 . S
C3407 C3413 1.429 . S
C3408 C3400 1.574 . S
C3408 H3403 0.949 . S
C3408 C3414 1.368 . S
C3409 C3393 1.349 . S
C3409 H3401 0.950 . S
C3409 C3407 1.327 . S
C3410 C3398 1.349 . S
C3410 H3404 0.950 . S
C3410 C3411 1.327 . S
C3411 H3405 0.950 . S
C3411 C3410 1.327 . S
C3411 C3415 1.429 . S
C3412 C3395 1.574 . S
C3412 H3406 0.949 . S
C3412 C3416 1.368 . S
C3413 C3394 1.429 . S
C3413 C3407 1.429 . S
C3413 C3414 1.523 . S
C3414 C3395 1.368 . S
C3414 C3408 1.368 . S
C3414 C3413 1.523 . S
C3415 C3399 1.429 . S
C3415 C3411 1.429 . S
C3415 C3416 1.523 . S
C3416 C3400 1.368 . S
C3416 C3412 1.368 . S
C3416 C3415 1.523 . S
H3417 C3392 0.950 . S
H3418 C3394 0.950 . S
H3419 C3395 0.949 . S
H3420 C3397 0.950 . S
H3421 C3399 0.950 . S
C3422 C3423 1.349 . S
C3422 C3424 1.327 . S
C3422 H3447 0.950 . S
C3423 C3422 1.349 . S
C3423 C3439 1.349 . S
C3424 C3422 1.327 . S
C3424 C3443 1.429 . S
C3424 H3448 0.950 . S
C3425 C3442 1.574 . S
C3425 C3444 1.368 . S
C3425 H3449 0.949 . S
H3426 C3430 0.949 . S
C3427 C3428 1.349 . S
C3427 C3429 1.327 . S
C3427 H3450 0.950 . S
C3428 C3427 1.349 . S
C3428 C3440 1.349 . S
C3429 C3427 1.327 . S
C3429 C3445 1.429 . S
C3429 H3451 0.950 . S
C3430 H3426 0.949 . S
C3430 C3438 1.574 . S
C3430 C3446 1.368 . S
H3431 C3439 0.950 . S
H3432 C3437 0.950 . S
H3433 C3438 0.949 . S
H3434 C3440 0.950 . S
H3435 C3441 0.950 . S
H3436 C3442 0.949 . S
C3437 H3432 0.950 . S
C3437 C3439 1.327 . S
C3437 C3443 1.429 . S
C3438 C3430 1.574 . S
C3438 H3433 0.949 . S
C3438 C3444 1.368 . S
C3439 C3423 1.349 . S
C3439 H3431 0.950 . S
C3439 C3437 1.327 . S
C3440 C3428 1.349 . S
C3440 H3434 0.950 . S
C3440 C3441 1.327 . S
C3441 H3435 0.950 . S
C3441 C3440 1.327 . S
C3441 C3445 1.429 . S
C3442 C3425 1.574 . S
C3442 H3436 0.949 . S
C3442 C3446 1.368 . S
C3443 C3424 1.429 . S
C3443 C3437 1.429 . S
C3443 C3444 1.523 . S
C3444 C3425 1.368 . S
C3444 C3438 1.368 . S
C3444 C3443 1.523 . S
C3445 C3429 1.429 . S
C3445 C3441 1.429 . S
C3445 C3446 1.523 . S
C3446 C3430 1.368 . S
C3446 C3442 1.368 . S
C3446 C3445 1.523 . S
H3447 C3422 0.950 . S
H3448 C3424 0.950 . S
H3449 C3425 0.949 . S
H3450 C3427 0.950 . S
H3451 C3429 0.950 . S
C3452 C3453 1.349 . S
C3452 C3454 1.327 . S
C3452 H3477 0.950 . S
C3453 C3452 1.349 . S
C3453 C3469 1.349 . S
C3454 C3452 1.327 . S
C3454 C3473 1.429 . S
C3454 H3478 0.950 . S
C3455 C3472 1.574 . S
C3455 C3474 1.368 . S
C3455 H3479 0.949 . S
H3456 C3460 0.949 . S
C3457 C3458 1.349 . S
C3457 C3459 1.327 . S
C3457 H3480 0.950 . S
C3458 C3457 1.349 . S
C3458 C3470 1.349 . S
C3459 C3457 1.327 . S
C3459 C3475 1.429 . S
C3459 H3481 0.950 . S
C3460 H3456 0.949 . S
C3460 C3468 1.574 . S
C3460 C3476 1.368 . S
H3461 C3469 0.950 . S
H3462 C3467 0.950 . S
H3463 C3468 0.949 . S
H3464 C3470 0.950 . S
H3465 C3471 0.950 . S
H3466 C3472 0.949 . S
C3467 H3462 0.950 . S
C3467 C3469 1.327 . S
C3467 C3473 1.429 . S
C3468 C3460 1.574 . S
C3468 H3463 0.949 . S
C3468 C3474 1.368 . S
C3469 C3453 1.349 . S
C3469 H3461 0.950 . S
C3469 C3467 1.327 . S
C3470 C3458 1.349 . S
C3470 H3464 0.950 . S
C3470 C3471 1.327 . S
C3471 H3465 0.950 . S
C3471 C3470 1.327 . S
C3471 C3475 1.429 . S
C3472 C3455 1.574 . S
C3472 H3466 0.949 . S
C3472 C3476 1.368 . S
C3473 C3454 1.429 . S
C3473 C3467 1.429 . S
C3473 C3474 1.523 . S
C3474 C3455 1.368 . S
C3474 C3468 1.368 . S
C3474 C3473 1.523 . S
C3475 C3459 1.429 . S
C3475 C3471 1.429 . S
C3475 C3476 1.523 . S
C3476 C3460 1.368 . S
C3476 C3472 1.368 . S
C3476 C3475 1.523 . S
H3477 C3452 0.950 . S
H3478 C3454 0.950 . S
H3479 C3455 0.949 . S
H3480 C3457 0.950 . S
H3481 C3459 0.950 . S
C3482 C3483 1.349 . S
C3482 C3484 1.327 . S
C3482 H3507 0.950 . S
C3483 C3482 1.349 . S
C3483 C3499 1.349 . S
C3484 C3482 1.327 . S
C3484 C3503 1.429 . S
C3484 H3508 0.950 . S
C3485 C3502 1.574 . S
C3485 C3504 1.368 . S
C3485 H3509 0.949 . S
H3486 C3490 0.949 . S
C3487 C3488 1.349 . S
C3487 C3489 1.327 . S
C3487 H3510 0.950 . S
C3488 C3487 1.349 . S
C3488 C3500 1.349 . S
C3489 C3487 1.327 . S
C3489 C3505 1.429 . S
C3489 H3511 0.950 . S
C3490 H3486 0.949 . S
C3490 C3498 1.574 . S
C3490 C3506 1.368 . S
H3491 C3499 0.950 . S
H3492 C3497 0.950 . S
H3493 C3498 0.949 . S
H3494 C3500 0.950 . S
H3495 C3501 0.950 . S
H3496 C3502 0.949 . S
C3497 H3492 0.950 . S
C3497 C3499 1.327 . S
C3497 C3503 1.429 . S
C3498 C3490 1.574 . S
C3498 H3493 0.949 . S
C3498 C3504 1.368 . S
C3499 C3483 1.349 . S
C3499 H3491 0.950 . S
C3499 C3497 1.327 . S
C3500 C3488 1.349 . S
C3500 H3494 0.950 . S
C3500 C3501 1.327 . S
C3501 H3495 0.950 . S
C3501 C3500 1.327 . S
C3501 C3505 1.429 . S
C3502 C3485 1.574 . S
C3502 H3496 0.949 . S
C3502 C3506 1.368 . S
C3503 C3484 1.429 . S
C3503 C3497 1.429 . S
C3503 C3504 1.523 . S
C3504 C3485 1.368 . S
C3504 C3498 1.368 . S
C3504 C3503 1.523 . S
C3505 C3489 1.429 . S
C3505 C3501 1.429 . S
C3505 C3506 1.523 . S
C3506 C3490 1.368 . S
C3506 C3502 1.368 . S
C3506 C3505 1.523 . S
H3507 C3482 0.950 . S
H3508 C3484 0.950 . S
H3509 C3485 0.949 . S
H3510 C3487 0.950 . S
H3511 C3489 0.950 . S
C3512 C3513 1.349 . S
C3512 C3514 1.327 . S
C3512 H3537 0.950 . S
C3513 C3512 1.349 . S
C3513 C3529 1.349 . S
C3514 C3512 1.327 . S
C3514 C3533 1.429 . S
C3514 H3538 0.950 . S
C3515 C3532 1.574 . S
C3515 C3534 1.368 . S
C3515 H3539 0.949 . S
H3516 C3520 0.949 . S
C3517 C3518 1.349 . S
C3517 C3519 1.327 . S
C3517 H3540 0.950 . S
C3518 C3517 1.349 . S
C3518 C3530 1.349 . S
C3519 C3517 1.327 . S
C3519 C3535 1.429 . S
C3519 H3541 0.950 . S
C3520 H3516 0.949 . S
C3520 C3528 1.574 . S
C3520 C3536 1.368 . S
H3521 C3529 0.950 . S
H3522 C3527 0.950 . S
H3523 C3528 0.949 . S
H3524 C3530 0.950 . S
H3525 C3531 0.950 . S
H3526 C3532 0.949 . S
C3527 H3522 0.950 . S
C3527 C3529 1.327 . S
C3527 C3533 1.429 . S
C3528 C3520 1.574 . S
C3528 H3523 0.949 . S
C3528 C3534 1.368 . S
C3529 C3513 1.349 . S
C3529 H3521 0.950 . S
C3529 C3527 1.327 . S
C3530 C3518 1.349 . S
C3530 H3524 0.950 . S
C3530 C3531 1.327 . S
C3531 H3525 0.950 . S
C3531 C3530 1.327 . S
C3531 C3535 1.429 . S
C3532 C3515 1.574 . S
C3532 H3526 0.949 . S
C3532 C3536 1.368 . S
C3533 C3514 1.429 . S
C3533 C3527 1.429 . S
C3533 C3534 1.523 . S
C3534 C3515 1.368 . S
C3534 C3528 1.368 . S
C3534 C3533 1.523 . S
C3535 C3519 1.429 . S
C3535 C3531 1.429 . S
C3535 C3536 1.523 . S
C3536 C3520 1.368 . S
C3536 C3532 1.368 . S
C3536 C3535 1.523 . S
H3537 C3512 0.950 . S
H3538 C3514 0.950 . S
H3539 C3515 0.949 . S
H3540 C3517 0.950 . S
H3541 C3519 0.950 . S
C3542 C3543 1.349 . S
C3542 C3544 1.327 . S
C3542 H3567 0.950 . S
C3543 C3542 1.349 . S
C3543 C3559 1.349 . S
C3544 C3542 1.327 . S
C3544 C3563 1.429 . S
C3544 H3568 0.950 . S
C3545 C3562 1.574 . S
C3545 C3564 1.368 . S
C3545 H3569 0.949 . S
H3546 C3550 0.949 . S
C3547 C3548 1.349 . S
C3547 C3549 1.327 . S
C3547 H3570 0.950 . S
C3548 C3547 1.349 . S
C3548 C3560 1.349 . S
C3549 C3547 1.327 . S
C3549 C3565 1.429 . S
C3549 H3571 0.950 . S
C3550 H3546 0.949 . S
C3550 C3558 1.574 . S
C3550 C3566 1.368 . S
H3551 C3559 0.950 . S
H3552 C3557 0.950 . S
H3553 C3558 0.949 . S
H3554 C3560 0.950 . S
H3555 C3561 0.950 . S
H3556 C3562 0.949 . S
C3557 H3552 0.950 . S
C3557 C3559 1.327 . S
C3557 C3563 1.429 . S
C3558 C3550 1.574 . S
C3558 H3553 0.949 . S
C3558 C3564 1.368 . S
C3559 C3543 1.349 . S
C3559 H3551 0.950 . S
C3559 C3557 1.327 . S
C3560 C3548 1.349 . S
C3560 H3554 0.950 . S
C3560 C3561 1.327 . S
C3561 H3555 0.950 . S
C3561 C3560 1.327 . S
C3561 C3565 1.429 . S
C3562 C3545 1.574 . S
C3562 H3556 0.949 . S
C3562 C3566 1.368 . S
C3563 C3544 1.429 . S
C3563 C3557 1.429 . S
C3563 C3564 1.523 . S
C3564 C3545 1.368 . S
C3564 C3558 1.368 . S
C3564 C3563 1.523 . S
C3565 C3549 1.429 . S
C3565 C3561 1.429 . S
C3565 C3566 1.523 . S
C3566 C3550 1.368 . S
C3566 C3562 1.368 . S
C3566 C3565 1.523 . S
H3567 C3542 0.950 . S
H3568 C3544 0.950 . S
H3569 C3545 0.949 . S
H3570 C3547 0.950 . S
H3571 C3549 0.950 . S
C3572 C3573 1.349 . S
C3572 C3574 1.327 . S
C3572 H3597 0.950 . S
C3573 C3572 1.349 . S
C3573 C3589 1.349 . S
C3574 C3572 1.327 . S
C3574 C3593 1.429 . S
C3574 H3598 0.950 . S
C3575 C3592 1.574 . S
C3575 C3594 1.368 . S
C3575 H3599 0.949 . S
H3576 C3580 0.949 . S
C3577 C3578 1.349 . S
C3577 C3579 1.327 . S
C3577 H3600 0.950 . S
C3578 C3577 1.349 . S
C3578 C3590 1.349 . S
C3579 C3577 1.327 . S
C3579 C3595 1.429 . S
C3579 H3601 0.950 . S
C3580 H3576 0.949 . S
C3580 C3588 1.574 . S
C3580 C3596 1.368 . S
H3581 C3589 0.950 . S
H3582 C3587 0.950 . S
H3583 C3588 0.949 . S
H3584 C3590 0.950 . S
H3585 C3591 0.950 . S
H3586 C3592 0.949 . S
C3587 H3582 0.950 . S
C3587 C3589 1.327 . S
C3587 C3593 1.429 . S
C3588 C3580 1.574 . S
C3588 H3583 0.949 . S
C3588 C3594 1.368 . S
C3589 C3573 1.349 . S
C3589 H3581 0.950 . S
C3589 C3587 1.327 . S
C3590 C3578 1.349 . S
C3590 H3584 0.950 . S
C3590 C3591 1.327 . S
C3591 H3585 0.950 . S
C3591 C3590 1.327 . S
C3591 C3595 1.429 . S
C3592 C3575 1.574 . S
C3592 H3586 0.949 . S
C3592 C3596 1.368 . S
C3593 C3574 1.429 . S
C3593 C3587 1.429 . S
C3593 C3594 1.523 . S
C3594 C3575 1.368 . S
C3594 C3588 1.368 . S
C3594 C3593 1.523 . S
C3595 C3579 1.429 . S
C3595 C3591 1.429 . S
C3595 C3596 1.523 . S
C3596 C3580 1.368 . S
C3596 C3592 1.368 . S
C3596 C3595 1.523 . S
H3597 C3572 0.950 . S
H3598 C3574 0.950 . S
H3599 C3575 0.949 . S
H3600 C3577 0.950 . S
H3601 C3579 0.950 . S
C3602 C3603 1.349 . S
C3602 C3604 1.327 . S
C3602 H3627 0.950 . S
C3603 C3602 1.349 . S
C3603 C3619 1.349 . S
C3604 C3602 1.327 . S
C3604 C3623 1.429 . S
C3604 H3628 0.950 . S
C3605 C3622 1.574 . S
C3605 C3624 1.368 . S
C3605 H3629 0.949 . S
H3606 C3610 0.949 . S
C3607 C3608 1.349 . S
C3607 C3609 1.327 . S
C3607 H3630 0.950 . S
C3608 C3607 1.349 . S
C3608 C3620 1.349 . S
C3609 C3607 1.327 . S
C3609 C3625 1.429 . S
C3609 H3631 0.950 . S
C3610 H3606 0.949 . S
C3610 C3618 1.574 . S
C3610 C3626 1.368 . S
H3611 C3619 0.950 . S
H3612 C3617 0.950 . S
H3613 C3618 0.949 . S
H3614 C3620 0.950 . S
H3615 C3621 0.950 . S
H3616 C3622 0.949 . S
C3617 H3612 0.950 . S
C3617 C3619 1.327 . S
C3617 C3623 1.429 . S
C3618 C3610 1.574 . S
C3618 H3613 0.949 . S
C3618 C3624 1.368 . S
C3619 C3603 1.349 . S
C3619 H3611 0.950 . S
C3619 C3617 1.327 . S
C3620 C3608 1.349 . S
C3620 H3614 0.950 . S
C3620 C3621 1.327 . S
C3621 H3615 0.950 . S
C3621 C3620 1.327 . S
C3621 C3625 1.429 . S
C3622 C3605 1.574 . S
C3622 H3616 0.949 . S
C3622 C3626 1.368 . S
C3623 C3604 1.429 . S
C3623 C3617 1.429 . S
C3623 C3624 1.523 . S
C3624 C3605 1.368 . S
C3624 C3618 1.368 . S
C3624 C3623 1.523 . S
C3625 C3609 1.429 . S
C3625 C3621 1.429 . S
C3625 C3626 1.523 . S
C3626 C3610 1.368 . S
C3626 C3622 1.368 . S
C3626 C3625 1.523 . S
H3627 C3602 0.950 . S
H3628 C3604 0.950 . S
H3629 C3605 0.949 . S
H3630 C3607 0.950 . S
H3631 C3609 0.950 . S
C3632 C3633 1.349 . S
C3632 C3634 1.327 . S
C3632 H3657 0.950 . S
C3633 C3632 1.349 . S
C3633 C3649 1.349 . S
C3634 C3632 1.327 . S
C3634 C3653 1.429 . S
C3634 H3658 0.950 . S
C3635 C3652 1.574 . S
C3635 C3654 1.368 . S
C3635 H3659 0.949 . S
H3636 C3640 0.949 . S
C3637 C3638 1.349 . S
C3637 C3639 1.327 . S
C3637 H3660 0.950 . S
C3638 C3637 1.349 . S
C3638 C3650 1.349 . S
C3639 C3637 1.327 . S
C3639 C3655 1.429 . S
C3639 H3661 0.950 . S
C3640 H3636 0.949 . S
C3640 C3648 1.574 . S
C3640 C3656 1.368 . S
H3641 C3649 0.950 . S
H3642 C3647 0.950 . S
H3643 C3648 0.949 . S
H3644 C3650 0.950 . S
H3645 C3651 0.950 . S
H3646 C3652 0.949 . S
C3647 H3642 0.950 . S
C3647 C3649 1.327 . S
C3647 C3653 1.429 . S
C3648 C3640 1.574 . S
C3648 H3643 0.949 . S
C3648 C3654 1.368 . S
C3649 C3633 1.349 . S
C3649 H3641 0.950 . S
C3649 C3647 1.327 . S
C3650 C3638 1.349 . S
C3650 H3644 0.950 . S
C3650 C3651 1.327 . S
C3651 H3645 0.950 . S
C3651 C3650 1.327 . S
C3651 C3655 1.429 . S
C3652 C3635 1.574 . S
C3652 H3646 0.949 . S
C3652 C3656 1.368 . S
C3653 C3634 1.429 . S
C3653 C3647 1.429 . S
C3653 C3654 1.523 . S
C3654 C3635 1.368 . S
C3654 C3648 1.368 . S
C3654 C3653 1.523 . S
C3655 C3639 1.429 . S
C3655 C3651 1.429 . S
C3655 C3656 1.523 . S
C3656 C3640 1.368 . S
C3656 C3652 1.368 . S
C3656 C3655 1.523 . S
H3657 C3632 0.950 . S
H3658 C3634 0.950 . S
H3659 C3635 0.949 . S
H3660 C3637 0.950 . S
H3661 C3639 0.950 . S
C3662 C3663 1.349 . S
C3662 C3664 1.327 . S
C3662 H3687 0.950 . S
C3663 C3662 1.349 . S
C3663 C3679 1.349 . S
C3664 C3662 1.327 . S
C3664 C3683 1.429 . S
C3664 H3688 0.950 . S
C3665 C3682 1.574 . S
C3665 C3684 1.368 . S
C3665 H3689 0.949 . S
H3666 C3670 0.949 . S
C3667 C3668 1.349 . S
C3667 C3669 1.327 . S
C3667 H3690 0.950 . S
C3668 C3667 1.349 . S
C3668 C3680 1.349 . S
C3669 C3667 1.327 . S
C3669 C3685 1.429 . S
C3669 H3691 0.950 . S
C3670 H3666 0.949 . S
C3670 C3678 1.574 . S
C3670 C3686 1.368 . S
H3671 C3679 0.950 . S
H3672 C3677 0.950 . S
H3673 C3678 0.949 . S
H3674 C3680 0.950 . S
H3675 C3681 0.950 . S
H3676 C3682 0.949 . S
C3677 H3672 0.950 . S
C3677 C3679 1.327 . S
C3677 C3683 1.429 . S
C3678 C3670 1.574 . S
C3678 H3673 0.949 . S
C3678 C3684 1.368 . S
C3679 C3663 1.349 . S
C3679 H3671 0.950 . S
C3679 C3677 1.327 . S
C3680 C3668 1.349 . S
C3680 H3674 0.950 . S
C3680 C3681 1.327 . S
C3681 H3675 0.950 . S
C3681 C3680 1.327 . S
C3681 C3685 1.429 . S
C3682 C3665 1.574 . S
C3682 H3676 0.949 . S
C3682 C3686 1.368 . S
C3683 C3664 1.429 . S
C3683 C3677 1.429 . S
C3683 C3684 1.523 . S
C3684 C3665 1.368 . S
C3684 C3678 1.368 . S
C3684 C3683 1.523 . S
C3685 C3669 1.429 . S
C3685 C3681 1.429 . S
C3685 C3686 1.523 . S
C3686 C3670 1.368 . S
C3686 C3682 1.368 . S
C3686 C3685 1.523 . S
H3687 C3662 0.950 . S
H3688 C3664 0.950 . S
H3689 C3665 0.949 . S
H3690 C3667 0.950 . S
H3691 C3669 0.950 . S
C3692 C3693 1.349 . S
C3692 C3694 1.327 . S
C3692 H3717 0.950 . S
C3693 C3692 1.349 . S
C3693 C3709 1.349 . S
C3694 C3692 1.327 . S
C3694 C3713 1.429 . S
C3694 H3718 0.950 . S
C3695 C3712 1.574 . S
C3695 C3714 1.368 . S
C3695 H3719 0.949 . S
H3696 C3700 0.949 . S
C3697 C3698 1.349 . S
C3697 C3699 1.327 . S
C3697 H3720 0.950 . S
C3698 C3697 1.349 . S
C3698 C3710 1.349 . S
C3699 C3697 1.327 . S
C3699 C3715 1.429 . S
C3699 H3721 0.950 . S
C3700 H3696 0.949 . S
C3700 C3708 1.574 . S
C3700 C3716 1.368 . S
H3701 C3709 0.950 . S
H3702 C3707 0.950 . S
H3703 C3708 0.949 . S
H3704 C3710 0.950 . S
H3705 C3711 0.950 . S
H3706 C3712 0.949 . S
C3707 H3702 0.950 . S
C3707 C3709 1.327 . S
C3707 C3713 1.429 . S
C3708 C3700 1.574 . S
C3708 H3703 0.949 . S
C3708 C3714 1.368 . S
C3709 C3693 1.349 . S
C3709 H3701 0.950 . S
C3709 C3707 1.327 . S
C3710 C3698 1.349 . S
C3710 H3704 0.950 . S
C3710 C3711 1.327 . S
C3711 H3705 0.950 . S
C3711 C3710 1.327 . S
C3711 C3715 1.429 . S
C3712 C3695 1.574 . S
C3712 H3706 0.949 . S
C3712 C3716 1.368 . S
C3713 C3694 1.429 . S
C3713 C3707 1.429 . S
C3713 C3714 1.523 . S
C3714 C3695 1.368 . S
C3714 C3708 1.368 . S
C3714 C3713 1.523 . S
C3715 C3699 1.429 . S
C3715 C3711 1.429 . S
C3715 C3716 1.523 . S
C3716 C3700 1.368 . S
C3716 C3712 1.368 . S
C3716 C3715 1.523 . S
H3717 C3692 0.950 . S
H3718 C3694 0.950 . S
H3719 C3695 0.949 . S
H3720 C3697 0.950 . S
H3721 C3699 0.950 . S
C3722 C3723 1.349 . S
C3722 C3724 1.327 . S
C3722 H3747 0.950 . S
C3723 C3722 1.349 . S
C3723 C3739 1.349 . S
C3724 C3722 1.327 . S
C3724 C3743 1.429 . S
C3724 H3748 0.950 . S
C3725 C3742 1.574 . S
C3725 C3744 1.368 . S
C3725 H3749 0.949 . S
H3726 C3730 0.949 . S
C3727 C3728 1.349 . S
C3727 C3729 1.327 . S
C3727 H3750 0.950 . S
C3728 C3727 1.349 . S
C3728 C3740 1.349 . S
C3729 C3727 1.327 . S
C3729 C3745 1.429 . S
C3729 H3751 0.950 . S
C3730 H3726 0.949 . S
C3730 C3738 1.574 . S
C3730 C3746 1.368 . S
H3731 C3739 0.950 . S
H3732 C3737 0.950 . S
H3733 C3738 0.949 . S
H3734 C3740 0.950 . S
H3735 C3741 0.950 . S
H3736 C3742 0.949 . S
C3737 H3732 0.950 . S
C3737 C3739 1.327 . S
C3737 C3743 1.429 . S
C3738 C3730 1.574 . S
C3738 H3733 0.949 . S
C3738 C3744 1.368 . S
C3739 C3723 1.349 . S
C3739 H3731 0.950 . S
C3739 C3737 1.327 . S
C3740 C3728 1.349 . S
C3740 H3734 0.950 . S
C3740 C3741 1.327 . S
C3741 H3735 0.950 . S
C3741 C3740 1.327 . S
C3741 C3745 1.429 . S
C3742 C3725 1.574 . S
C3742 H3736 0.949 . S
C3742 C3746 1.368 . S
C3743 C3724 1.429 . S
C3743 C3737 1.429 . S
C3743 C3744 1.523 . S
C3744 C3725 1.368 . S
C3744 C3738 1.368 . S
C3744 C3743 1.523 . S
C3745 C3729 1.429 . S
C3745 C3741 1.429 . S
C3745 C3746 1.523 . S
C3746 C3730 1.368 . S
C3746 C3742 1.368 . S
C3746 C3745 1.523 . S
H3747 C3722 0.950 . S
H3748 C3724 0.950 . S
H3749 C3725 0.949 . S
H3750 C3727 0.950 . S
H3751 C3729 0.950 . S
C3752 C3753 1.349 . S
C3752 C3754 1.327 . S
C3752 H3777 0.950 . S
C3753 C3752 1.349 . S
C3753 C3769 1.349 . S
C3754 C3752 1.327 . S
C3754 C3773 1.429 . S
C3754 H3778 0.950 . S
C3755 C3772 1.574 . S
C3755 C3774 1.368 . S
C3755 H3779 0.949 . S
H3756 C3760 0.949 . S
C3757 C3758 1.349 . S
C3757 C3759 1.327 . S
C3757 H3780 0.950 . S
C3758 C3757 1.349 . S
C3758 C3770 1.349 . S
C3759 C3757 1.327 . S
C3759 C3775 1.429 . S
C3759 H3781 0.950 . S
C3760 H3756 0.949 . S
C3760 C3768 1.574 . S
C3760 C3776 1.368 . S
H3761 C3769 0.950 . S
H3762 C3767 0.950 . S
H3763 C3768 0.949 . S
H3764 C3770 0.950 . S
H3765 C3771 0.950 . S
H3766 C3772 0.949 . S
C3767 H3762 0.950 . S
C3767 C3769 1.327 . S
C3767 C3773 1.429 . S
C3768 C3760 1.574 . S
C3768 H3763 0.949 . S
C3768 C3774 1.368 . S
C3769 C3753 1.349 . S
C3769 H3761 0.950 . S
C3769 C3767 1.327 . S
C3770 C3758 1.349 . S
C3770 H3764 0.950 . S
C3770 C3771 1.327 . S
C3771 H3765 0.950 . S
C3771 C3770 1.327 . S
C3771 C3775 1.429 . S
C3772 C3755 1.574 . S
C3772 H3766 0.949 . S
C3772 C3776 1.368 . S
C3773 C3754 1.429 . S
C3773 C3767 1.429 . S
C3773 C3774 1.523 . S
C3774 C3755 1.368 . S
C3774 C3768 1.368 . S
C3774 C3773 1.523 . S
C3775 C3759 1.429 . S
C3775 C3771 1.429 . S
C3775 C3776 1.523 . S
C3776 C3760 1.368 . S
C3776 C3772 1.368 . S
C3776 C3775 1.523 . S
H3777 C3752 0.950 . S
H3778 C3754 0.950 . S
H3779 C3755 0.949 . S
H3780 C3757 0.950 . S
H3781 C3759 0.950 . S
C3782 C3783 1.349 . S
C3782 C3784 1.327 . S
C3782 H3807 0.950 . S
C3783 C3782 1.349 . S
C3783 C3799 1.349 . S
C3784 C3782 1.327 . S
C3784 C3803 1.429 . S
C3784 H3808 0.950 . S
C3785 C3802 1.574 . S
C3785 C3804 1.368 . S
C3785 H3809 0.949 . S
H3786 C3790 0.949 . S
C3787 C3788 1.349 . S
C3787 C3789 1.327 . S
C3787 H3810 0.950 . S
C3788 C3787 1.349 . S
C3788 C3800 1.349 . S
C3789 C3787 1.327 . S
C3789 C3805 1.429 . S
C3789 H3811 0.950 . S
C3790 H3786 0.949 . S
C3790 C3798 1.574 . S
C3790 C3806 1.368 . S
H3791 C3799 0.950 . S
H3792 C3797 0.950 . S
H3793 C3798 0.949 . S
H3794 C3800 0.950 . S
H3795 C3801 0.950 . S
H3796 C3802 0.949 . S
C3797 H3792 0.950 . S
C3797 C3799 1.327 . S
C3797 C3803 1.429 . S
C3798 C3790 1.574 . S
C3798 H3793 0.949 . S
C3798 C3804 1.368 . S
C3799 C3783 1.349 . S
C3799 H3791 0.950 . S
C3799 C3797 1.327 . S
C3800 C3788 1.349 . S
C3800 H3794 0.950 . S
C3800 C3801 1.327 . S
C3801 H3795 0.950 . S
C3801 C3800 1.327 . S
C3801 C3805 1.429 . S
C3802 C3785 1.574 . S
C3802 H3796 0.949 . S
C3802 C3806 1.368 . S
C3803 C3784 1.429 . S
C3803 C3797 1.429 . S
C3803 C3804 1.523 . S
C3804 C3785 1.368 . S
C3804 C3798 1.368 . S
C3804 C3803 1.523 . S
C3805 C3789 1.429 . S
C3805 C3801 1.429 . S
C3805 C3806 1.523 . S
C3806 C3790 1.368 . S
C3806 C3802 1.368 . S
C3806 C3805 1.523 . S
H3807 C3782 0.950 . S
H3808 C3784 0.950 . S
H3809 C3785 0.949 . S
H3810 C3787 0.950 . S
H3811 C3789 0.950 . S
C3812 C3813 1.349 . S
C3812 C3814 1.327 . S
C3812 H3837 0.950 . S
C3813 C3812 1.349 . S
C3813 C3829 1.349 . S
C3814 C3812 1.327 . S
C3814 C3833 1.429 . S
C3814 H3838 0.950 . S
C3815 C3832 1.574 . S
C3815 C3834 1.368 . S
C3815 H3839 0.949 . S
H3816 C3820 0.949 . S
C3817 C3818 1.349 . S
C3817 C3819 1.327 . S
C3817 H3840 0.950 . S
C3818 C3817 1.349 . S
C3818 C3830 1.349 . S
C3819 C3817 1.327 . S
C3819 C3835 1.429 . S
C3819 H3841 0.950 . S
C3820 H3816 0.949 . S
C3820 C3828 1.574 . S
C3820 C3836 1.368 . S
H3821 C3829 0.950 . S
H3822 C3827 0.950 . S
H3823 C3828 0.949 . S
H3824 C3830 0.950 . S
H3825 C3831 0.950 . S
H3826 C3832 0.949 . S
C3827 H3822 0.950 . S
C3827 C3829 1.327 . S
C3827 C3833 1.429 . S
C3828 C3820 1.574 . S
C3828 H3823 0.949 . S
C3828 C3834 1.368 . S
C3829 C3813 1.349 . S
C3829 H3821 0.950 . S
C3829 C3827 1.327 . S
C3830 C3818 1.349 . S
C3830 H3824 0.950 . S
C3830 C3831 1.327 . S
C3831 H3825 0.950 . S
C3831 C3830 1.327 . S
C3831 C3835 1.429 . S
C3832 C3815 1.574 . S
C3832 H3826 0.949 . S
C3832 C3836 1.368 . S
C3833 C3814 1.429 . S
C3833 C3827 1.429 . S
C3833 C3834 1.523 . S
C3834 C3815 1.368 . S
C3834 C3828 1.368 . S
C3834 C3833 1.523 . S
C3835 C3819 1.429 . S
C3835 C3831 1.429 . S
C3835 C3836 1.523 . S
C3836 C3820 1.368 . S
C3836 C3832 1.368 . S
C3836 C3835 1.523 . S
H3837 C3812 0.950 . S
H3838 C3814 0.950 . S
H3839 C3815 0.949 . S
H3840 C3817 0.950 . S
H3841 C3819 0.950 . S
C3842 C3843 1.349 . S
C3842 C3844 1.327 . S
C3842 H3867 0.950 . S
C3843 C3842 1.349 . S
C3843 C3859 1.349 . S
C3844 C3842 1.327 . S
C3844 C3863 1.429 . S
C3844 H3868 0.950 . S
C3845 C3862 1.574 . S
C3845 C3864 1.368 . S
C3845 H3869 0.949 . S
H3846 C3850 0.949 . S
C3847 C3848 1.349 . S
C3847 C3849 1.327 . S
C3847 H3870 0.950 . S
C3848 C3847 1.349 . S
C3848 C3860 1.349 . S
C3849 C3847 1.327 . S
C3849 C3865 1.429 . S
C3849 H3871 0.950 . S
C3850 H3846 0.949 . S
C3850 C3858 1.574 . S
C3850 C3866 1.368 . S
H3851 C3859 0.950 . S
H3852 C3857 0.950 . S
H3853 C3858 0.949 . S
H3854 C3860 0.950 . S
H3855 C3861 0.950 . S
H3856 C3862 0.949 . S
C3857 H3852 0.950 . S
C3857 C3859 1.327 . S
C3857 C3863 1.429 . S
C3858 C3850 1.574 . S
C3858 H3853 0.949 . S
C3858 C3864 1.368 . S
C3859 C3843 1.349 . S
C3859 H3851 0.950 . S
C3859 C3857 1.327 . S
C3860 C3848 1.349 . S
C3860 H3854 0.950 . S
C3860 C3861 1.327 . S
C3861 H3855 0.950 . S
C3861 C3860 1.327 . S
C3861 C3865 1.429 . S
C3862 C3845 1.574 . S
C3862 H3856 0.949 . S
C3862 C3866 1.368 . S
C3863 C3844 1.429 . S
C3863 C3857 1.429 . S
C3863 C3864 1.523 . S
C3864 C3845 1.368 . S
C3864 C3858 1.368 . S
C3864 C3863 1.523 . S
C3865 C3849 1.429 . S
C3865 C3861 1.429 . S
C3865 C3866 1.523 . S
C3866 C3850 1.368 . S
C3866 C3862 1.368 . S
C3866 C3865 1.523 . S
H3867 C3842 0.950 . S
H3868 C3844 0.950 . S
H3869 C3845 0.949 . S
H3870 C3847 0.950 . S
H3871 C3849 0.950 . S
C3872 C3873 1.349 . S
C3872 C3874 1.327 . S
C3872 H3897 0.950 . S
C3873 C3872 1.349 . S
C3873 C3889 1.349 . S
C3874 C3872 1.327 . S
C3874 C3893 1.429 . S
C3874 H3898 0.950 . S
C3875 C3892 1.574 . S
C3875 C3894 1.368 . S
C3875 H3899 0.949 . S
H3876 C3880 0.949 . S
C3877 C3878 1.349 . S
C3877 C3879 1.327 . S
C3877 H3900 0.950 . S
C3878 C3877 1.349 . S
C3878 C3890 1.349 . S
C3879 C3877 1.327 . S
C3879 C3895 1.429 . S
C3879 H3901 0.950 . S
C3880 H3876 0.949 . S
C3880 C3888 1.574 . S
C3880 C3896 1.368 . S
H3881 C3889 0.950 . S
H3882 C3887 0.950 . S
H3883 C3888 0.949 . S
H3884 C3890 0.950 . S
H3885 C3891 0.950 . S
H3886 C3892 0.949 . S
C3887 H3882 0.950 . S
C3887 C3889 1.327 . S
C3887 C3893 1.429 . S
C3888 C3880 1.574 . S
C3888 H3883 0.949 . S
C3888 C3894 1.368 . S
C3889 C3873 1.349 . S
C3889 H3881 0.950 . S
C3889 C3887 1.327 . S
C3890 C3878 1.349 . S
C3890 H3884 0.950 . S
C3890 C3891 1.327 . S
C3891 H3885 0.950 . S
C3891 C3890 1.327 . S
C3891 C3895 1.429 . S
C3892 C3875 1.574 . S
C3892 H3886 0.949 . S
C3892 C3896 1.368 . S
C3893 C3874 1.429 . S
C3893 C3887 1.429 . S
C3893 C3894 1.523 . S
C3894 C3875 1.368 . S
C3894 C3888 1.368 . S
C3894 C3893 1.523 . S
C3895 C3879 1.429 . S
C3895 C3891 1.429 . S
C3895 C3896 1.523 . S
C3896 C3880 1.368 . S
C3896 C3892 1.368 . S
C3896 C3895 1.523 . S
H3897 C3872 0.950 . S
H3898 C3874 0.950 . S
H3899 C3875 0.949 . S
H3900 C3877 0.950 . S
H3901 C3879 0.950 . S
C3902 C3903 1.349 . S
C3902 C3904 1.327 . S
C3902 H3927 0.950 . S
C3903 C3902 1.349 . S
C3903 C3919 1.349 . S
C3904 C3902 1.327 . S
C3904 C3923 1.429 . S
C3904 H3928 0.950 . S
C3905 C3922 1.574 . S
C3905 C3924 1.368 . S
C3905 H3929 0.949 . S
H3906 C3910 0.949 . S
C3907 C3908 1.349 . S
C3907 C3909 1.327 . S
C3907 H3930 0.950 . S
C3908 C3907 1.349 . S
C3908 C3920 1.349 . S
C3909 C3907 1.327 . S
C3909 C3925 1.429 . S
C3909 H3931 0.950 . S
C3910 H3906 0.949 . S
C3910 C3918 1.574 . S
C3910 C3926 1.368 . S
H3911 C3919 0.950 . S
H3912 C3917 0.950 . S
H3913 C3918 0.949 . S
H3914 C3920 0.950 . S
H3915 C3921 0.950 . S
H3916 C3922 0.949 . S
C3917 H3912 0.950 . S
C3917 C3919 1.327 . S
C3917 C3923 1.429 . S
C3918 C3910 1.574 . S
C3918 H3913 0.949 . S
C3918 C3924 1.368 . S
C3919 C3903 1.349 . S
C3919 H3911 0.950 . S
C3919 C3917 1.327 . S
C3920 C3908 1.349 . S
C3920 H3914 0.950 . S
C3920 C3921 1.327 . S
C3921 H3915 0.950 . S
C3921 C3920 1.327 . S
C3921 C3925 1.429 . S
C3922 C3905 1.574 . S
C3922 H3916 0.949 . S
C3922 C3926 1.368 . S
C3923 C3904 1.429 . S
C3923 C3917 1.429 . S
C3923 C3924 1.523 . S
C3924 C3905 1.368 . S
C3924 C3918 1.368 . S
C3924 C3923 1.523 . S
C3925 C3909 1.429 . S
C3925 C3921 1.429 . S
C3925 C3926 1.523 . S
C3926 C3910 1.368 . S
C3926 C3922 1.368 . S
C3926 C3925 1.523 . S
H3927 C3902 0.950 . S
H3928 C3904 0.950 . S
H3929 C3905 0.949 . S
H3930 C3907 0.950 . S
H3931 C3909 0.950 . S
C3932 C3933 1.349 . S
C3932 C3934 1.327 . S
C3932 H3957 0.950 . S
C3933 C3932 1.349 . S
C3933 C3949 1.349 . S
C3934 C3932 1.327 . S
C3934 C3953 1.429 . S
C3934 H3958 0.950 . S
C3935 C3952 1.574 . S
C3935 C3954 1.368 . S
C3935 H3959 0.949 . S
H3936 C3940 0.949 . S
C3937 C3938 1.349 . S
C3937 C3939 1.327 . S
C3937 H3960 0.950 . S
C3938 C3937 1.349 . S
C3938 C3950 1.349 . S
C3939 C3937 1.327 . S
C3939 C3955 1.429 . S
C3939 H3961 0.950 . S
C3940 H3936 0.949 . S
C3940 C3948 1.574 . S
C3940 C3956 1.368 . S
H3941 C3949 0.950 . S
H3942 C3947 0.950 . S
H3943 C3948 0.949 . S
H3944 C3950 0.950 . S
H3945 C3951 0.950 . S
H3946 C3952 0.949 . S
C3947 H3942 0.950 . S
C3947 C3949 1.327 . S
C3947 C3953 1.429 . S
C3948 C3940 1.574 . S
C3948 H3943 0.949 . S
C3948 C3954 1.368 . S
C3949 C3933 1.349 . S
C3949 H3941 0.950 . S
C3949 C3947 1.327 . S
C3950 C3938 1.349 . S
C3950 H3944 0.950 . S
C3950 C3951 1.327 . S
C3951 H3945 0.950 . S
C3951 C3950 1.327 . S
C3951 C3955 1.429 . S
C3952 C3935 1.574 . S
C3952 H3946 0.949 . S
C3952 C3956 1.368 . S
C3953 C3934 1.429 . S
C3953 C3947 1.429 . S
C3953 C3954 1.523 . S
C3954 C3935 1.368 . S
C3954 C3948 1.368 . S
C3954 C3953 1.523 . S
C3955 C3939 1.429 . S
C3955 C3951 1.429 . S
C3955 C3956 1.523 . S
C3956 C3940 1.368 . S
C3956 C3952 1.368 . S
C3956 C3955 1.523 . S
H3957 C3932 0.950 . S
H3958 C3934 0.950 . S
H3959 C3935 0.949 . S
H3960 C3937 0.950 . S
H3961 C3939 0.950 . S
C3962 C3963 1.349 . S
C3962 C3964 1.327 . S
C3962 H3987 0.950 . S
C3963 C3962 1.349 . S
C3963 C3979 1.349 . S
C3964 C3962 1.327 . S
C3964 C3983 1.429 . S
C3964 H3988 0.950 . S
C3965 C3982 1.574 . S
C3965 C3984 1.368 . S
C3965 H3989 0.949 . S
H3966 C3970 0.949 . S
C3967 C3968 1.349 . S
C3967 C3969 1.327 . S
C3967 H3990 0.950 . S
C3968 C3967 1.349 . S
C3968 C3980 1.349 . S
C3969 C3967 1.327 . S
C3969 C3985 1.429 . S
C3969 H3991 0.950 . S
C3970 H3966 0.949 . S
C3970 C3978 1.574 . S
C3970 C3986 1.368 . S
H3971 C3979 0.950 . S
H3972 C3977 0.950 . S
H3973 C3978 0.949 . S
H3974 C3980 0.950 . S
H3975 C3981 0.950 . S
H3976 C3982 0.949 . S
C3977 H3972 0.950 . S
C3977 C3979 1.327 . S
C3977 C3983 1.429 . S
C3978 C3970 1.574 . S
C3978 H3973 0.949 . S
C3978 C3984 1.368 . S
C3979 C3963 1.349 . S
C3979 H3971 0.950 . S
C3979 C3977 1.327 . S
C3980 C3968 1.349 . S
C3980 H3974 0.950 . S
C3980 C3981 1.327 . S
C3981 H3975 0.950 . S
C3981 C3980 1.327 . S
C3981 C3985 1.429 . S
C3982 C3965 1.574 . S
C3982 H3976 0.949 . S
C3982 C3986 1.368 . S
C3983 C3964 1.429 . S
C3983 C3977 1.429 . S
C3983 C3984 1.523 . S
C3984 C3965 1.368 . S
C3984 C3978 1.368 . S
C3984 C3983 1.523 . S
C3985 C3969 1.429 . S
C3985 C3981 1.429 . S
C3985 C3986 1.523 . S
C3986 C3970 1.368 . S
C3986 C3982 1.368 . S
C3986 C3985 1.523 . S
H3987 C3962 0.950 . S
H3988 C3964 0.950 . S
H3989 C3965 0.949 . S
H3990 C3967 0.950 . S
H3991 C3969 0.950 . S
C3992 C3993 1.349 . S
C3992 C3994 1.327 . S
C3992 H4017 0.950 . S
C3993 C3992 1.349 . S
C3993 C4009 1.349 . S
C3994 C3992 1.327 . S
C3994 C4013 1.429 . S
C3994 H4018 0.950 . S
C3995 C4012 1.574 . S
C3995 C4014 1.368 . S
C3995 H4019 0.949 . S
H3996 C4000 0.949 . S
C3997 C3998 1.349 . S
C3997 C3999 1.327 . S
C3997 H4020 0.950 . S
C3998 C3997 1.349 . S
C3998 C4010 1.349 . S
C3999 C3997 1.327 . S
C3999 C4015 1.429 . S
C3999 H4021 0.950 . S
C4000 H3996 0.949 . S
C4000 C4008 1.574 . S
C4000 C4016 1.368 . S
H4001 C4009 0.950 . S
H4002 C4007 0.950 . S
H4003 C4008 0.949 . S
H4004 C4010 0.950 . S
H4005 C4011 0.950 . S
H4006 C4012 0.949 . S
C4007 H4002 0.950 . S
C4007 C4009 1.327 . S
C4007 C4013 1.429 . S
C4008 C4000 1.574 . S
C4008 H4003 0.949 . S
C4008 C4014 1.368 . S
C4009 C3993 1.349 . S
C4009 H4001 0.950 . S
C4009 C4007 1.327 . S
C4010 C3998 1.349 . S
C4010 H4004 0.950 . S
C4010 C4011 1.327 . S
C4011 H4005 0.950 . S
C4011 C4010 1.327 . S
C4011 C4015 1.429 . S
C4012 C3995 1.574 . S
C4012 H4006 0.949 . S
C4012 C4016 1.368 . S
C4013 C3994 1.429 . S
C4013 C4007 1.429 . S
C4013 C4014 1.523 . S
C4014 C3995 1.368 . S
C4014 C4008 1.368 . S
C4014 C4013 1.523 . S
C4015 C3999 1.429 . S
C4015 C4011 1.429 . S
C4015 C4016 1.523 . S
C4016 C4000 1.368 . S
C4016 C4012 1.368 . S
C4016 C4015 1.523 . S
H4017 C3992 0.950 . S
H4018 C3994 0.950 . S
H4019 C3995 0.949 . S
H4020 C3997 0.950 . S
H4021 C3999 0.950 . S
C4022 C4023 1.349 . S
C4022 C4024 1.327 . S
C4022 H4047 0.950 . S
C4023 C4022 1.349 . S
C4023 C4039 1.349 . S
C4024 C4022 1.327 . S
C4024 C4043 1.429 . S
C4024 H4048 0.950 . S
C4025 C4042 1.574 . S
C4025 C4044 1.368 . S
C4025 H4049 0.949 . S
H4026 C4030 0.949 . S
C4027 C4028 1.349 . S
C4027 C4029 1.327 . S
C4027 H4050 0.950 . S
C4028 C4027 1.349 . S
C4028 C4040 1.349 . S
C4029 C4027 1.327 . S
C4029 C4045 1.429 . S
C4029 H4051 0.950 . S
C4030 H4026 0.949 . S
C4030 C4038 1.574 . S
C4030 C4046 1.368 . S
H4031 C4039 0.950 . S
H4032 C4037 0.950 . S
H4033 C4038 0.949 . S
H4034 C4040 0.950 . S
H4035 C4041 0.950 . S
H4036 C4042 0.949 . S
C4037 H4032 0.950 . S
C4037 C4039 1.327 . S
C4037 C4043 1.429 . S
C4038 C4030 1.574 . S
C4038 H4033 0.949 . S
C4038 C4044 1.368 . S
C4039 C4023 1.349 . S
C4039 H4031 0.950 . S
C4039 C4037 1.327 . S
C4040 C4028 1.349 . S
C4040 H4034 0.950 . S
C4040 C4041 1.327 . S
C4041 H4035 0.950 . S
C4041 C4040 1.327 . S
C4041 C4045 1.429 . S
C4042 C4025 1.574 . S
C4042 H4036 0.949 . S
C4042 C4046 1.368 . S
C4043 C4024 1.429 . S
C4043 C4037 1.429 . S
C4043 C4044 1.523 . S
C4044 C4025 1.368 . S
C4044 C4038 1.368 . S
C4044 C4043 1.523 . S
C4045 C4029 1.429 . S
C4045 C4041 1.429 . S
C4045 C4046 1.523 . S
C4046 C4030 1.368 . S
C4046 C4042 1.368 . S
C4046 C4045 1.523 . S
H4047 C4022 0.950 . S
H4048 C4024 0.950 . S
H4049 C4025 0.949 . S
H4050 C4027 0.950 . S
H4051 C4029 0.950 . S
C4052 C4053 1.349 . S
C4052 C4054 1.327 . S
C4052 H4077 0.950 . S
C4053 C4052 1.349 . S
C4053 C4069 1.349 . S
C4054 C4052 1.327 . S
C4054 C4073 1.429 . S
C4054 H4078 0.950 . S
C4055 C4072 1.574 . S
C4055 C4074 1.368 . S
C4055 H4079 0.949 . S
H4056 C4060 0.949 . S
C4057 C4058 1.349 . S
C4057 C4059 1.327 . S
C4057 H4080 0.950 . S
C4058 C4057 1.349 . S
C4058 C4070 1.349 . S
C4059 C4057 1.327 . S
C4059 C4075 1.429 . S
C4059 H4081 0.950 . S
C4060 H4056 0.949 . S
C4060 C4068 1.574 . S
C4060 C4076 1.368 . S
H4061 C4069 0.950 . S
H4062 C4067 0.950 . S
H4063 C4068 0.949 . S
H4064 C4070 0.950 . S
H4065 C4071 0.950 . S
H4066 C4072 0.949 . S
C4067 H4062 0.950 . S
C4067 C4069 1.327 . S
C4067 C4073 1.429 . S
C4068 C4060 1.574 . S
C4068 H4063 0.949 . S
C4068 C4074 1.368 . S
C4069 C4053 1.349 . S
C4069 H4061 0.950 . S
C4069 C4067 1.327 . S
C4070 C4058 1.349 . S
C4070 H4064 0.950 . S
C4070 C4071 1.327 . S
C4071 H4065 0.950 . S
C4071 C4070 1.327 . S
C4071 C4075 1.429 . S
C4072 C4055 1.574 . S
C4072 H4066 0.949 . S
C4072 C4076 1.368 . S
C4073 C4054 1.429 . S
C4073 C4067 1.429 . S
C4073 C4074 1.523 . S
C4074 C4055 1.368 . S
C4074 C4068 1.368 . S
C4074 C4073 1.523 . S
C4075 C4059 1.429 . S
C4075 C4071 1.429 . S
C4075 C4076 1.523 . S
C4076 C4060 1.368 . S
C4076 C4072 1.368 . S
C4076 C4075 1.523 . S
H4077 C4052 0.950 . S
H4078 C4054 0.950 . S
H4079 C4055 0.949 . S
H4080 C4057 0.950 . S
H4081 C4059 0.950 . S
C4082 C4083 1.349 . S
C4082 C4084 1.327 . S
C4082 H4107 0.950 . S
C4083 C4082 1.349 . S
C4083 C4099 1.349 . S
C4084 C4082 1.327 . S
C4084 C4103 1.429 . S
C4084 H4108 0.950 . S
C4085 C4102 1.574 . S
C4085 C4104 1.368 . S
C4085 H4109 0.949 . S
H4086 C4090 0.949 . S
C4087 C4088 1.349 . S
C4087 C4089 1.327 . S
C4087 H4110 0.950 . S
C4088 C4087 1.349 . S
C4088 C4100 1.349 . S
C4089 C4087 1.327 . S
C4089 C4105 1.429 . S
C4089 H4111 0.950 . S
C4090 H4086 0.949 . S
C4090 C4098 1.574 . S
C4090 C4106 1.368 . S
H4091 C4099 0.950 . S
H4092 C4097 0.950 . S
H4093 C4098 0.949 . S
H4094 C4100 0.950 . S
H4095 C4101 0.950 . S
H4096 C4102 0.949 . S
C4097 H4092 0.950 . S
C4097 C4099 1.327 . S
C4097 C4103 1.429 . S
C4098 C4090 1.574 . S
C4098 H4093 0.949 . S
C4098 C4104 1.368 . S
C4099 C4083 1.349 . S
C4099 H4091 0.950 . S
C4099 C4097 1.327 . S
C4100 C4088 1.349 . S
C4100 H4094 0.950 . S
C4100 C4101 1.327 . S
C4101 H4095 0.950 . S
C4101 C4100 1.327 . S
C4101 C4105 1.429 . S
C4102 C4085 1.574 . S
C4102 H4096 0.949 . S
C4102 C4106 1.368 . S
C4103 C4084 1.429 . S
C4103 C4097 1.429 . S
C4103 C4104 1.523 . S
C4104 C4085 1.368 . S
C4104 C4098 1.368 . S
C4104 C4103 1.523 . S
C4105 C4089 1.429 . S
C4105 C4101 1.429 . S
C4105 C4106 1.523 . S
C4106 C4090 1.368 . S
C4106 C4102 1.368 . S
C4106 C4105 1.523 . S
H4107 C4082 0.950 . S
H4108 C4084 0.950 . S
H4109 C4085 0.949 . S
H4110 C4087 0.950 . S
H4111 C4089 0.950 . S
C4112 C4113 1.349 . S
C4112 C4114 1.327 . S
C4112 H4137 0.950 . S
C4113 C4112 1.349 . S
C4113 C4129 1.349 . S
C4114 C4112 1.327 . S
C4114 C4133 1.429 . S
C4114 H4138 0.950 . S
C4115 C4132 1.574 . S
C4115 C4134 1.368 . S
C4115 H4139 0.949 . S
H4116 C4120 0.949 . S
C4117 C4118 1.349 . S
C4117 C4119 1.327 . S
C4117 H4140 0.950 . S
C4118 C4117 1.349 . S
C4118 C4130 1.349 . S
C4119 C4117 1.327 . S
C4119 C4135 1.429 . S
C4119 H4141 0.950 . S
C4120 H4116 0.949 . S
C4120 C4128 1.574 . S
C4120 C4136 1.368 . S
H4121 C4129 0.950 . S
H4122 C4127 0.950 . S
H4123 C4128 0.949 . S
H4124 C4130 0.950 . S
H4125 C4131 0.950 . S
H4126 C4132 0.949 . S
C4127 H4122 0.950 . S
C4127 C4129 1.327 . S
C4127 C4133 1.429 . S
C4128 C4120 1.574 . S
C4128 H4123 0.949 . S
C4128 C4134 1.368 . S
C4129 C4113 1.349 . S
C4129 H4121 0.950 . S
C4129 C4127 1.327 . S
C4130 C4118 1.349 . S
C4130 H4124 0.950 . S
C4130 C4131 1.327 . S
C4131 H4125 0.950 . S
C4131 C4130 1.327 . S
C4131 C4135 1.429 . S
C4132 C4115 1.574 . S
C4132 H4126 0.949 . S
C4132 C4136 1.368 . S
C4133 C4114 1.429 . S
C4133 C4127 1.429 . S
C4133 C4134 1.523 . S
C4134 C4115 1.368 . S
C4134 C4128 1.368 . S
C4134 C4133 1.523 . S
C4135 C4119 1.429 . S
C4135 C4131 1.429 . S
C4135 C4136 1.523 . S
C4136 C4120 1.368 . S
C4136 C4132 1.368 . S
C4136 C4135 1.523 . S
H4137 C4112 0.950 . S
H4138 C4114 0.950 . S
H4139 C4115 0.949 . S
H4140 C4117 0.950 . S
H4141 C4119 0.950 . S
C4142 C4143 1.349 . S
C4142 C4144 1.327 . S
C4142 H4167 0.950 . S
C4143 C4142 1.349 . S
C4143 C4159 1.349 . S
C4144 C4142 1.327 . S
C4144 C4163 1.429 . S
C4144 H4168 0.950 . S
C4145 C4162 1.574 . S
C4145 C4164 1.368 . S
C4145 H4169 0.949 . S
H4146 C4150 0.949 . S
C4147 C4148 1.349 . S
C4147 C4149 1.327 . S
C4147 H4170 0.950 . S
C4148 C4147 1.349 . S
C4148 C4160 1.349 . S
C4149 C4147 1.327 . S
C4149 C4165 1.429 . S
C4149 H4171 0.950 . S
C4150 H4146 0.949 . S
C4150 C4158 1.574 . S
C4150 C4166 1.368 . S
H4151 C4159 0.950 . S
H4152 C4157 0.950 . S
H4153 C4158 0.949 . S
H4154 C4160 0.950 . S
H4155 C4161 0.950 . S
H4156 C4162 0.949 . S
C4157 H4152 0.950 . S
C4157 C4159 1.327 . S
C4157 C4163 1.429 . S
C4158 C4150 1.574 . S
C4158 H4153 0.949 . S
C4158 C4164 1.368 . S
C4159 C4143 1.349 . S
C4159 H4151 0.950 . S
C4159 C4157 1.327 . S
C4160 C4148 1.349 . S
C4160 H4154 0.950 . S
C4160 C4161 1.327 . S
C4161 H4155 0.950 . S
C4161 C4160 1.327 . S
C4161 C4165 1.429 . S
C4162 C4145 1.574 . S
C4162 H4156 0.949 . S
C4162 C4166 1.368 . S
C4163 C4144 1.429 . S
C4163 C4157 1.429 . S
C4163 C4164 1.523 . S
C4164 C4145 1.368 . S
C4164 C4158 1.368 . S
C4164 C4163 1.523 . S
C4165 C4149 1.429 . S
C4165 C4161 1.429 . S
C4165 C4166 1.523 . S
C4166 C4150 1.368 . S
C4166 C4162 1.368 . S
C4166 C4165 1.523 . S
H4167 C4142 0.950 . S
H4168 C4144 0.950 . S
H4169 C4145 0.949 . S
H4170 C4147 0.950 . S
H4171 C4149 0.950 . S
C4172 C4173 1.349 . S
C4172 C4174 1.327 . S
C4172 H4197 0.950 . S
C4173 C4172 1.349 . S
C4173 C4189 1.349 . S
C4174 C4172 1.327 . S
C4174 C4193 1.429 . S
C4174 H4198 0.950 . S
C4175 C4192 1.574 . S
C4175 C4194 1.368 . S
C4175 H4199 0.949 . S
H4176 C4180 0.949 . S
C4177 C4178 1.349 . S
C4177 C4179 1.327 . S
C4177 H4200 0.950 . S
C4178 C4177 1.349 . S
C4178 C4190 1.349 . S
C4179 C4177 1.327 . S
C4179 C4195 1.429 . S
C4179 H4201 0.950 . S
C4180 H4176 0.949 . S
C4180 C4188 1.574 . S
C4180 C4196 1.368 . S
H4181 C4189 0.950 . S
H4182 C4187 0.950 . S
H4183 C4188 0.949 . S
H4184 C4190 0.950 . S
H4185 C4191 0.950 . S
H4186 C4192 0.949 . S
C4187 H4182 0.950 . S
C4187 C4189 1.327 . S
C4187 C4193 1.429 . S
C4188 C4180 1.574 . S
C4188 H4183 0.949 . S
C4188 C4194 1.368 . S
C4189 C4173 1.349 . S
C4189 H4181 0.950 . S
C4189 C4187 1.327 . S
C4190 C4178 1.349 . S
C4190 H4184 0.950 . S
C4190 C4191 1.327 . S
C4191 H4185 0.950 . S
C4191 C4190 1.327 . S
C4191 C4195 1.429 . S
C4192 C4175 1.574 . S
C4192 H4186 0.949 . S
C4192 C4196 1.368 . S
C4193 C4174 1.429 . S
C4193 C4187 1.429 . S
C4193 C4194 1.523 . S
C4194 C4175 1.368 . S
C4194 C4188 1.368 . S
C4194 C4193 1.523 . S
C4195 C4179 1.429 . S
C4195 C4191 1.429 . S
C4195 C4196 1.523 . S
C4196 C4180 1.368 . S
C4196 C4192 1.368 . S
C4196 C4195 1.523 . S
H4197 C4172 0.950 . S
H4198 C4174 0.950 . S
H4199 C4175 0.949 . S
H4200 C4177 0.950 . S
H4201 C4179 0.950 . S
C4202 C4203 1.349 . S
C4202 C4204 1.327 . S
C4202 H4227 0.950 . S
C4203 C4202 1.349 . S
C4203 C4219 1.349 . S
C4204 C4202 1.327 . S
C4204 C4223 1.429 . S
C4204 H4228 0.950 . S
C4205 C4222 1.574 . S
C4205 C4224 1.368 . S
C4205 H4229 0.949 . S
H4206 C4210 0.949 . S
C4207 C4208 1.349 . S
C4207 C4209 1.327 . S
C4207 H4230 0.950 . S
C4208 C4207 1.349 . S
C4208 C4220 1.349 . S
C4209 C4207 1.327 . S
C4209 C4225 1.429 . S
C4209 H4231 0.950 . S
C4210 H4206 0.949 . S
C4210 C4218 1.574 . S
C4210 C4226 1.368 . S
H4211 C4219 0.950 . S
H4212 C4217 0.950 . S
H4213 C4218 0.949 . S
H4214 C4220 0.950 . S
H4215 C4221 0.950 . S
H4216 C4222 0.949 . S
C4217 H4212 0.950 . S
C4217 C4219 1.327 . S
C4217 C4223 1.429 . S
C4218 C4210 1.574 . S
C4218 H4213 0.949 . S
C4218 C4224 1.368 . S
C4219 C4203 1.349 . S
C4219 H4211 0.950 . S
C4219 C4217 1.327 . S
C4220 C4208 1.349 . S
C4220 H4214 0.950 . S
C4220 C4221 1.327 . S
C4221 H4215 0.950 . S
C4221 C4220 1.327 . S
C4221 C4225 1.429 . S
C4222 C4205 1.574 . S
C4222 H4216 0.949 . S
C4222 C4226 1.368 . S
C4223 C4204 1.429 . S
C4223 C4217 1.429 . S
C4223 C4224 1.523 . S
C4224 C4205 1.368 . S
C4224 C4218 1.368 . S
C4224 C4223 1.523 . S
C4225 C4209 1.429 . S
C4225 C4221 1.429 . S
C4225 C4226 1.523 . S
C4226 C4210 1.368 . S
C4226 C4222 1.368 . S
C4226 C4225 1.523 . S
H4227 C4202 0.950 . S
H4228 C4204 0.950 . S
H4229 C4205 0.949 . S
H4230 C4207 0.950 . S
H4231 C4209 0.950 . S
C4232 C4233 1.349 . S
C4232 C4234 1.327 . S
C4232 H4257 0.950 . S
C4233 C4232 1.349 . S
C4233 C4249 1.349 . S
C4234 C4232 1.327 . S
C4234 C4253 1.429 . S
C4234 H4258 0.950 . S
C4235 C4252 1.574 . S
C4235 C4254 1.368 . S
C4235 H4259 0.949 . S
H4236 C4240 0.949 . S
C4237 C4238 1.349 . S
C4237 C4239 1.327 . S
C4237 H4260 0.950 . S
C4238 C4237 1.349 . S
C4238 C4250 1.349 . S
C4239 C4237 1.327 . S
C4239 C4255 1.429 . S
C4239 H4261 0.950 . S
C4240 H4236 0.949 . S
C4240 C4248 1.574 . S
C4240 C4256 1.368 . S
H4241 C4249 0.950 . S
H4242 C4247 0.950 . S
H4243 C4248 0.949 . S
H4244 C4250 0.950 . S
H4245 C4251 0.950 . S
H4246 C4252 0.949 . S
C4247 H4242 0.950 . S
C4247 C4249 1.327 . S
C4247 C4253 1.429 . S
C4248 C4240 1.574 . S
C4248 H4243 0.949 . S
C4248 C4254 1.368 . S
C4249 C4233 1.349 . S
C4249 H4241 0.950 . S
C4249 C4247 1.327 . S
C4250 C4238 1.349 . S
C4250 H4244 0.950 . S
C4250 C4251 1.327 . S
C4251 H4245 0.950 . S
C4251 C4250 1.327 . S
C4251 C4255 1.429 . S
C4252 C4235 1.574 . S
C4252 H4246 0.949 . S
C4252 C4256 1.368 . S
C4253 C4234 1.429 . S
C4253 C4247 1.429 . S
C4253 C4254 1.523 . S
C4254 C4235 1.368 . S
C4254 C4248 1.368 . S
C4254 C4253 1.523 . S
C4255 C4239 1.429 . S
C4255 C4251 1.429 . S
C4255 C4256 1.523 . S
C4256 C4240 1.368 . S
C4256 C4252 1.368 . S
C4256 C4255 1.523 . S
H4257 C4232 0.950 . S
H4258 C4234 0.950 . S
H4259 C4235 0.949 . S
H4260 C4237 0.950 . S
H4261 C4239 0.950 . S
C4262 C4263 1.349 . S
C4262 C4264 1.327 . S
C4262 H4287 0.950 . S
C4263 C4262 1.349 . S
C4263 C4279 1.349 . S
C4264 C4262 1.327 . S
C4264 C4283 1.429 . S
C4264 H4288 0.950 . S
C4265 C4282 1.574 . S
C4265 C4284 1.368 . S
C4265 H4289 0.949 . S
H4266 C4270 0.949 . S
C4267 C4268 1.349 . S
C4267 C4269 1.327 . S
C4267 H4290 0.950 . S
C4268 C4267 1.349 . S
C4268 C4280 1.349 . S
C4269 C4267 1.327 . S
C4269 C4285 1.429 . S
C4269 H4291 0.950 . S
C4270 H4266 0.949 . S
C4270 C4278 1.574 . S
C4270 C4286 1.368 . S
H4271 C4279 0.950 . S
H4272 C4277 0.950 . S
H4273 C4278 0.949 . S
H4274 C4280 0.950 . S
H4275 C4281 0.950 . S
H4276 C4282 0.949 . S
C4277 H4272 0.950 . S
C4277 C4279 1.327 . S
C4277 C4283 1.429 . S
C4278 C4270 1.574 . S
C4278 H4273 0.949 . S
C4278 C4284 1.368 . S
C4279 C4263 1.349 . S
C4279 H4271 0.950 . S
C4279 C4277 1.327 . S
C4280 C4268 1.349 . S
C4280 H4274 0.950 . S
C4280 C4281 1.327 . S
C4281 H4275 0.950 . S
C4281 C4280 1.327 . S
C4281 C4285 1.429 . S
C4282 C4265 1.574 . S
C4282 H4276 0.949 . S
C4282 C4286 1.368 . S
C4283 C4264 1.429 . S
C4283 C4277 1.429 . S
C4283 C4284 1.523 . S
C4284 C4265 1.368 . S
C4284 C4278 1.368 . S
C4284 C4283 1.523 . S
C4285 C4269 1.429 . S
C4285 C4281 1.429 . S
C4285 C4286 1.523 . S
C4286 C4270 1.368 . S
C4286 C4282 1.368 . S
C4286 C4285 1.523 . S
H4287 C4262 0.950 . S
H4288 C4264 0.950 . S
H4289 C4265 0.949 . S
H4290 C4267 0.950 . S
H4291 C4269 0.950 . S
C4292 C4293 1.349 . S
C4292 C4294 1.327 . S
C4292 H4317 0.950 . S
C4293 C4292 1.349 . S
C4293 C4309 1.349 . S
C4294 C4292 1.327 . S
C4294 C4313 1.429 . S
C4294 H4318 0.950 . S
C4295 C4312 1.574 . S
C4295 C4314 1.368 . S
C4295 H4319 0.949 . S
H4296 C4300 0.949 . S
C4297 C4298 1.349 . S
C4297 C4299 1.327 . S
C4297 H4320 0.950 . S
C4298 C4297 1.349 . S
C4298 C4310 1.349 . S
C4299 C4297 1.327 . S
C4299 C4315 1.429 . S
C4299 H4321 0.950 . S
C4300 H4296 0.949 . S
C4300 C4308 1.574 . S
C4300 C4316 1.368 . S
H4301 C4309 0.950 . S
H4302 C4307 0.950 . S
H4303 C4308 0.949 . S
H4304 C4310 0.950 . S
H4305 C4311 0.950 . S
H4306 C4312 0.949 . S
C4307 H4302 0.950 . S
C4307 C4309 1.327 . S
C4307 C4313 1.429 . S
C4308 C4300 1.574 . S
C4308 H4303 0.949 . S
C4308 C4314 1.368 . S
C4309 C4293 1.349 . S
C4309 H4301 0.950 . S
C4309 C4307 1.327 . S
C4310 C4298 1.349 . S
C4310 H4304 0.950 . S
C4310 C4311 1.327 . S
C4311 H4305 0.950 . S
C4311 C4310 1.327 . S
C4311 C4315 1.429 . S
C4312 C4295 1.574 . S
C4312 H4306 0.949 . S
C4312 C4316 1.368 . S
C4313 C4294 1.429 . S
C4313 C4307 1.429 . S
C4313 C4314 1.523 . S
C4314 C4295 1.368 . S
C4314 C4308 1.368 . S
C4314 C4313 1.523 . S
C4315 C4299 1.429 . S
C4315 C4311 1.429 . S
C4315 C4316 1.523 . S
C4316 C4300 1.368 . S
C4316 C4312 1.368 . S
C4316 C4315 1.523 . S
H4317 C4292 0.950 . S
H4318 C4294 0.950 . S
H4319 C4295 0.949 . S
H4320 C4297 0.950 . S
H4321 C4299 0.950 . S
C4322 C4323 1.349 . S
C4322 C4324 1.327 . S
C4322 H4347 0.950 . S
C4323 C4322 1.349 . S
C4323 C4339 1.349 . S
C4324 C4322 1.327 . S
C4324 C4343 1.429 . S
C4324 H4348 0.950 . S
C4325 C4342 1.574 . S
C4325 C4344 1.368 . S
C4325 H4349 0.949 . S
H4326 C4330 0.949 . S
C4327 C4328 1.349 . S
C4327 C4329 1.327 . S
C4327 H4350 0.950 . S
C4328 C4327 1.349 . S
C4328 C4340 1.349 . S
C4329 C4327 1.327 . S
C4329 C4345 1.429 . S
C4329 H4351 0.950 . S
C4330 H4326 0.949 . S
C4330 C4338 1.574 . S
C4330 C4346 1.368 . S
H4331 C4339 0.950 . S
H4332 C4337 0.950 . S
H4333 C4338 0.949 . S
H4334 C4340 0.950 . S
H4335 C4341 0.950 . S
H4336 C4342 0.949 . S
C4337 H4332 0.950 . S
C4337 C4339 1.327 . S
C4337 C4343 1.429 . S
C4338 C4330 1.574 . S
C4338 H4333 0.949 . S
C4338 C4344 1.368 . S
C4339 C4323 1.349 . S
C4339 H4331 0.950 . S
C4339 C4337 1.327 . S
C4340 C4328 1.349 . S
C4340 H4334 0.950 . S
C4340 C4341 1.327 . S
C4341 H4335 0.950 . S
C4341 C4340 1.327 . S
C4341 C4345 1.429 . S
C4342 C4325 1.574 . S
C4342 H4336 0.949 . S
C4342 C4346 1.368 . S
C4343 C4324 1.429 . S
C4343 C4337 1.429 . S
C4343 C4344 1.523 . S
C4344 C4325 1.368 . S
C4344 C4338 1.368 . S
C4344 C4343 1.523 . S
C4345 C4329 1.429 . S
C4345 C4341 1.429 . S
C4345 C4346 1.523 . S
C4346 C4330 1.368 . S
C4346 C4342 1.368 . S
C4346 C4345 1.523 . S
H4347 C4322 0.950 . S
H4348 C4324 0.950 . S
H4349 C4325 0.949 . S
H4350 C4327 0.950 . S
H4351 C4329 0.950 . S
C4352 C4353 1.349 . S
C4352 C4354 1.327 . S
C4352 H4377 0.950 . S
C4353 C4352 1.349 . S
C4353 C4369 1.349 . S
C4354 C4352 1.327 . S
C4354 C4373 1.429 . S
C4354 H4378 0.950 . S
C4355 C4372 1.574 . S
C4355 C4374 1.368 . S
C4355 H4379 0.949 . S
H4356 C4360 0.949 . S
C4357 C4358 1.349 . S
C4357 C4359 1.327 . S
C4357 H4380 0.950 . S
C4358 C4357 1.349 . S
C4358 C4370 1.349 . S
C4359 C4357 1.327 . S
C4359 C4375 1.429 . S
C4359 H4381 0.950 . S
C4360 H4356 0.949 . S
C4360 C4368 1.574 . S
C4360 C4376 1.368 . S
H4361 C4369 0.950 . S
H4362 C4367 0.950 . S
H4363 C4368 0.949 . S
H4364 C4370 0.950 . S
H4365 C4371 0.950 . S
H4366 C4372 0.949 . S
C4367 H4362 0.950 . S
C4367 C4369 1.327 . S
C4367 C4373 1.429 . S
C4368 C4360 1.574 . S
C4368 H4363 0.949 . S
C4368 C4374 1.368 . S
C4369 C4353 1.349 . S
C4369 H4361 0.950 . S
C4369 C4367 1.327 . S
C4370 C4358 1.349 . S
C4370 H4364 0.950 . S
C4370 C4371 1.327 . S
C4371 H4365 0.950 . S
C4371 C4370 1.327 . S
C4371 C4375 1.429 . S
C4372 C4355 1.574 . S
C4372 H4366 0.949 . S
C4372 C4376 1.368 . S
C4373 C4354 1.429 . S
C4373 C4367 1.429 . S
C4373 C4374 1.523 . S
C4374 C4355 1.368 . S
C4374 C4368 1.368 . S
C4374 C4373 1.523 . S
C4375 C4359 1.429 . S
C4375 C4371 1.429 . S
C4375 C4376 1.523 . S
C4376 C4360 1.368 . S
C4376 C4372 1.368 . S
C4376 C4375 1.523 . S
H4377 C4352 0.950 . S
H4378 C4354 0.950 . S
H4379 C4355 0.949 . S
H4380 C4357 0.950 . S
H4381 C4359 0.950 . S
C4382 C4383 1.349 . S
C4382 C4384 1.327 . S
C4382 H4407 0.950 . S
C4383 C4382 1.349 . S
C4383 C4399 1.349 . S
C4384 C4382 1.327 . S
C4384 C4403 1.429 . S
C4384 H4408 0.950 . S
C4385 C4402 1.574 . S
C4385 C4404 1.368 . S
C4385 H4409 0.949 . S
H4386 C4390 0.949 . S
C4387 C4388 1.349 . S
C4387 C4389 1.327 . S
C4387 H4410 0.950 . S
C4388 C4387 1.349 . S
C4388 C4400 1.349 . S
C4389 C4387 1.327 . S
C4389 C4405 1.429 . S
C4389 H4411 0.950 . S
C4390 H4386 0.949 . S
C4390 C4398 1.574 . S
C4390 C4406 1.368 . S
H4391 C4399 0.950 . S
H4392 C4397 0.950 . S
H4393 C4398 0.949 . S
H4394 C4400 0.950 . S
H4395 C4401 0.950 . S
H4396 C4402 0.949 . S
C4397 H4392 0.950 . S
C4397 C4399 1.327 . S
C4397 C4403 1.429 . S
C4398 C4390 1.574 . S
C4398 H4393 0.949 . S
C4398 C4404 1.368 . S
C4399 C4383 1.349 . S
C4399 H4391 0.950 . S
C4399 C4397 1.327 . S
C4400 C4388 1.349 . S
C4400 H4394 0.950 . S
C4400 C4401 1.327 . S
C4401 H4395 0.950 . S
C4401 C4400 1.327 . S
C4401 C4405 1.429 . S
C4402 C4385 1.574 . S
C4402 H4396 0.949 . S
C4402 C4406 1.368 . S
C4403 C4384 1.429 . S
C4403 C4397 1.429 . S
C4403 C4404 1.523 . S
C4404 C4385 1.368 . S
C4404 C4398 1.368 . S
C4404 C4403 1.523 . S
C4405 C4389 1.429 . S
C4405 C4401 1.429 . S
C4405 C4406 1.523 . S
C4406 C4390 1.368 . S
C4406 C4402 1.368 . S
C4406 C4405 1.523 . S
H4407 C4382 0.950 . S
H4408 C4384 0.950 . S
H4409 C4385 0.949 . S
H4410 C4387 0.950 . S
H4411 C4389 0.950 . S
C4412 C4413 1.349 . S
C4412 C4414 1.327 . S
C4412 H4437 0.950 . S
C4413 C4412 1.349 . S
C4413 C4429 1.349 . S
C4414 C4412 1.327 . S
C4414 C4433 1.429 . S
C4414 H4438 0.950 . S
C4415 C4432 1.574 . S
C4415 C4434 1.368 . S
C4415 H4439 0.949 . S
H4416 C4420 0.949 . S
C4417 C4418 1.349 . S
C4417 C4419 1.327 . S
C4417 H4440 0.950 . S
C4418 C4417 1.349 . S
C4418 C4430 1.349 . S
C4419 C4417 1.327 . S
C4419 C4435 1.429 . S
C4419 H4441 0.950 . S
C4420 H4416 0.949 . S
C4420 C4428 1.574 . S
C4420 C4436 1.368 . S
H4421 C4429 0.950 . S
H4422 C4427 0.950 . S
H4423 C4428 0.949 . S
H4424 C4430 0.950 . S
H4425 C4431 0.950 . S
H4426 C4432 0.949 . S
C4427 H4422 0.950 . S
C4427 C4429 1.327 . S
C4427 C4433 1.429 . S
C4428 C4420 1.574 . S
C4428 H4423 0.949 . S
C4428 C4434 1.368 . S
C4429 C4413 1.349 . S
C4429 H4421 0.950 . S
C4429 C4427 1.327 . S
C4430 C4418 1.349 . S
C4430 H4424 0.950 . S
C4430 C4431 1.327 . S
C4431 H4425 0.950 . S
C4431 C4430 1.327 . S
C4431 C4435 1.429 . S
C4432 C4415 1.574 . S
C4432 H4426 0.949 . S
C4432 C4436 1.368 . S
C4433 C4414 1.429 . S
C4433 C4427 1.429 . S
C4433 C4434 1.523 . S
C4434 C4415 1.368 . S
C4434 C4428 1.368 . S
C4434 C4433 1.523 . S
C4435 C4419 1.429 . S
C4435 C4431 1.429 . S
C4435 C4436 1.523 . S
C4436 C4420 1.368 . S
C4436 C4432 1.368 . S
C4436 C4435 1.523 . S
H4437 C4412 0.950 . S
H4438 C4414 0.950 . S
H4439 C4415 0.949 . S
H4440 C4417 0.950 . S
H4441 C4419 0.950 . S
C4442 C4443 1.349 . S
C4442 C4444 1.327 . S
C4442 H4467 0.950 . S
C4443 C4442 1.349 . S
C4443 C4459 1.349 . S
C4444 C4442 1.327 . S
C4444 C4463 1.429 . S
C4444 H4468 0.950 . S
C4445 C4462 1.574 . S
C4445 C4464 1.368 . S
C4445 H4469 0.949 . S
H4446 C4450 0.949 . S
C4447 C4448 1.349 . S
C4447 C4449 1.327 . S
C4447 H4470 0.950 . S
C4448 C4447 1.349 . S
C4448 C4460 1.349 . S
C4449 C4447 1.327 . S
C4449 C4465 1.429 . S
C4449 H4471 0.950 . S
C4450 H4446 0.949 . S
C4450 C4458 1.574 . S
C4450 C4466 1.368 . S
H4451 C4459 0.950 . S
H4452 C4457 0.950 . S
H4453 C4458 0.949 . S
H4454 C4460 0.950 . S
H4455 C4461 0.950 . S
H4456 C4462 0.949 . S
C4457 H4452 0.950 . S
C4457 C4459 1.327 . S
C4457 C4463 1.429 . S
C4458 C4450 1.574 . S
C4458 H4453 0.949 . S
C4458 C4464 1.368 . S
C4459 C4443 1.349 . S
C4459 H4451 0.950 . S
C4459 C4457 1.327 . S
C4460 C4448 1.349 . S
C4460 H4454 0.950 . S
C4460 C4461 1.327 . S
C4461 H4455 0.950 . S
C4461 C4460 1.327 . S
C4461 C4465 1.429 . S
C4462 C4445 1.574 . S
C4462 H4456 0.949 . S
C4462 C4466 1.368 . S
C4463 C4444 1.429 . S
C4463 C4457 1.429 . S
C4463 C4464 1.523 . S
C4464 C4445 1.368 . S
C4464 C4458 1.368 . S
C4464 C4463 1.523 . S
C4465 C4449 1.429 . S
C4465 C4461 1.429 . S
C4465 C4466 1.523 . S
C4466 C4450 1.368 . S
C4466 C4462 1.368 . S
C4466 C4465 1.523 . S
H4467 C4442 0.950 . S
H4468 C4444 0.950 . S
H4469 C4445 0.949 . S
H4470 C4447 0.950 . S
H4471 C4449 0.950 . S
C4472 C4473 1.349 . S
C4472 C4474 1.327 . S
C4472 H4497 0.950 . S
C4473 C4472 1.349 . S
C4473 C4489 1.349 . S
C4474 C4472 1.327 . S
C4474 C4493 1.429 . S
C4474 H4498 0.950 . S
C4475 C4492 1.574 . S
C4475 C4494 1.368 . S
C4475 H4499 0.949 . S
H4476 C4480 0.949 . S
C4477 C4478 1.349 . S
C4477 C4479 1.327 . S
C4477 H4500 0.950 . S
C4478 C4477 1.349 . S
C4478 C4490 1.349 . S
C4479 C4477 1.327 . S
C4479 C4495 1.429 . S
C4479 H4501 0.950 . S
C4480 H4476 0.949 . S
C4480 C4488 1.574 . S
C4480 C4496 1.368 . S
H4481 C4489 0.950 . S
H4482 C4487 0.950 . S
H4483 C4488 0.949 . S
H4484 C4490 0.950 . S
H4485 C4491 0.950 . S
H4486 C4492 0.949 . S
C4487 H4482 0.950 . S
C4487 C4489 1.327 . S
C4487 C4493 1.429 . S
C4488 C4480 1.574 . S
C4488 H4483 0.949 . S
C4488 C4494 1.368 . S
C4489 C4473 1.349 . S
C4489 H4481 0.950 . S
C4489 C4487 1.327 . S
C4490 C4478 1.349 . S
C4490 H4484 0.950 . S
C4490 C4491 1.327 . S
C4491 H4485 0.950 . S
C4491 C4490 1.327 . S
C4491 C4495 1.429 . S
C4492 C4475 1.574 . S
C4492 H4486 0.949 . S
C4492 C4496 1.368 . S
C4493 C4474 1.429 . S
C4493 C4487 1.429 . S
C4493 C4494 1.523 . S
C4494 C4475 1.368 . S
C4494 C4488 1.368 . S
C4494 C4493 1.523 . S
C4495 C4479 1.429 . S
C4495 C4491 1.429 . S
C4495 C4496 1.523 . S
C4496 C4480 1.368 . S
C4496 C4492 1.368 . S
C4496 C4495 1.523 . S
H4497 C4472 0.950 . S
H4498 C4474 0.950 . S
H4499 C4475 0.949 . S
H4500 C4477 0.950 . S
H4501 C4479 0.950 . S
C4502 C4503 1.349 . S
C4502 C4504 1.327 . S
C4502 H4527 0.950 . S
C4503 C4502 1.349 . S
C4503 C4519 1.349 . S
C4504 C4502 1.327 . S
C4504 C4523 1.429 . S
C4504 H4528 0.950 . S
C4505 C4522 1.574 . S
C4505 C4524 1.368 . S
C4505 H4529 0.949 . S
H4506 C4510 0.949 . S
C4507 C4508 1.349 . S
C4507 C4509 1.327 . S
C4507 H4530 0.950 . S
C4508 C4507 1.349 . S
C4508 C4520 1.349 . S
C4509 C4507 1.327 . S
C4509 C4525 1.429 . S
C4509 H4531 0.950 . S
C4510 H4506 0.949 . S
C4510 C4518 1.574 . S
C4510 C4526 1.368 . S
H4511 C4519 0.950 . S
H4512 C4517 0.950 . S
H4513 C4518 0.949 . S
H4514 C4520 0.950 . S
H4515 C4521 0.950 . S
H4516 C4522 0.949 . S
C4517 H4512 0.950 . S
C4517 C4519 1.327 . S
C4517 C4523 1.429 . S
C4518 C4510 1.574 . S
C4518 H4513 0.949 . S
C4518 C4524 1.368 . S
C4519 C4503 1.349 . S
C4519 H4511 0.950 . S
C4519 C4517 1.327 . S
C4520 C4508 1.349 . S
C4520 H4514 0.950 . S
C4520 C4521 1.327 . S
C4521 H4515 0.950 . S
C4521 C4520 1.327 . S
C4521 C4525 1.429 . S
C4522 C4505 1.574 . S
C4522 H4516 0.949 . S
C4522 C4526 1.368 . S
C4523 C4504 1.429 . S
C4523 C4517 1.429 . S
C4523 C4524 1.523 . S
C4524 C4505 1.368 . S
C4524 C4518 1.368 . S
C4524 C4523 1.523 . S
C4525 C4509 1.429 . S
C4525 C4521 1.429 . S
C4525 C4526 1.523 . S
C4526 C4510 1.368 . S
C4526 C4522 1.368 . S
C4526 C4525 1.523 . S
H4527 C4502 0.950 . S
H4528 C4504 0.950 . S
H4529 C4505 0.949 . S
H4530 C4507 0.950 . S
H4531 C4509 0.950 . S
C4532 C4533 1.349 . S
C4532 C4534 1.327 . S
C4532 H4557 0.950 . S
C4533 C4532 1.349 . S
C4533 C4549 1.349 . S
C4534 C4532 1.327 . S
C4534 C4553 1.429 . S
C4534 H4558 0.950 . S
C4535 C4552 1.574 . S
C4535 C4554 1.368 . S
C4535 H4559 0.949 . S
H4536 C4540 0.949 . S
C4537 C4538 1.349 . S
C4537 C4539 1.327 . S
C4537 H4560 0.950 . S
C4538 C4537 1.349 . S
C4538 C4550 1.349 . S
C4539 C4537 1.327 . S
C4539 C4555 1.429 . S
C4539 H4561 0.950 . S
C4540 H4536 0.949 . S
C4540 C4548 1.574 . S
C4540 C4556 1.368 . S
H4541 C4549 0.950 . S
H4542 C4547 0.950 . S
H4543 C4548 0.949 . S
H4544 C4550 0.950 . S
H4545 C4551 0.950 . S
H4546 C4552 0.949 . S
C4547 H4542 0.950 . S
C4547 C4549 1.327 . S
C4547 C4553 1.429 . S
C4548 C4540 1.574 . S
C4548 H4543 0.949 . S
C4548 C4554 1.368 . S
C4549 C4533 1.349 . S
C4549 H4541 0.950 . S
C4549 C4547 1.327 . S
C4550 C4538 1.349 . S
C4550 H4544 0.950 . S
C4550 C4551 1.327 . S
C4551 H4545 0.950 . S
C4551 C4550 1.327 . S
C4551 C4555 1.429 . S
C4552 C4535 1.574 . S
C4552 H4546 0.949 . S
C4552 C4556 1.368 . S
C4553 C4534 1.429 . S
C4553 C4547 1.429 . S
C4553 C4554 1.523 . S
C4554 C4535 1.368 . S
C4554 C4548 1.368 . S
C4554 C4553 1.523 . S
C4555 C4539 1.429 . S
C4555 C4551 1.429 . S
C4555 C4556 1.523 . S
C4556 C4540 1.368 . S
C4556 C4552 1.368 . S
C4556 C4555 1.523 . S
H4557 C4532 0.950 . S
H4558 C4534 0.950 . S
H4559 C4535 0.949 . S
H4560 C4537 0.950 . S
H4561 C4539 0.950 . S
C4562 C4563 1.349 . S
C4562 C4564 1.327 . S
C4562 H4587 0.950 . S
C4563 C4562 1.349 . S
C4563 C4579 1.349 . S
C4564 C4562 1.327 . S
C4564 C4583 1.429 . S
C4564 H4588 0.950 . S
C4565 C4582 1.574 . S
C4565 C4584 1.368 . S
C4565 H4589 0.949 . S
H4566 C4570 0.949 . S
C4567 C4568 1.349 . S
C4567 C4569 1.327 . S
C4567 H4590 0.950 . S
C4568 C4567 1.349 . S
C4568 C4580 1.349 . S
C4569 C4567 1.327 . S
C4569 C4585 1.429 . S
C4569 H4591 0.950 . S
C4570 H4566 0.949 . S
C4570 C4578 1.574 . S
C4570 C4586 1.368 . S
H4571 C4579 0.950 . S
H4572 C4577 0.950 . S
H4573 C4578 0.949 . S
H4574 C4580 0.950 . S
H4575 C4581 0.950 . S
H4576 C4582 0.949 . S
C4577 H4572 0.950 . S
C4577 C4579 1.327 . S
C4577 C4583 1.429 . S
C4578 C4570 1.574 . S
C4578 H4573 0.949 . S
C4578 C4584 1.368 . S
C4579 C4563 1.349 . S
C4579 H4571 0.950 . S
C4579 C4577 1.327 . S
C4580 C4568 1.349 . S
C4580 H4574 0.950 . S
C4580 C4581 1.327 . S
C4581 H4575 0.950 . S
C4581 C4580 1.327 . S
C4581 C4585 1.429 . S
C4582 C4565 1.574 . S
C4582 H4576 0.949 . S
C4582 C4586 1.368 . S
C4583 C4564 1.429 . S
C4583 C4577 1.429 . S
C4583 C4584 1.523 . S
C4584 C4565 1.368 . S
C4584 C4578 1.368 . S
C4584 C4583 1.523 . S
C4585 C4569 1.429 . S
C4585 C4581 1.429 . S
C4585 C4586 1.523 . S
C4586 C4570 1.368 . S
C4586 C4582 1.368 . S
C4586 C4585 1.523 . S
H4587 C4562 0.950 . S
H4588 C4564 0.950 . S
H4589 C4565 0.949 . S
H4590 C4567 0.950 . S
H4591 C4569 0.950 . S
C1718 C1294 1.512 . S
C1713 C21 1.551 . S
C1748 C1306 1.423 . S
C1743 C42 1.484 . S
C1773 C82 1.531 . S
C1778 C1330 1.493 . S
C1808 C1341 1.468 . S
C1803 C135 1.537 . S
C1833 C175 1.475 . S
C1838 C1348 1.414 . S
C1863 C221 1.547 . S
C1868 C1287 1.505 . S
C1893 C255 1.525 . S
C1898 C1314 1.453 . S
C1928 C1323 1.524 . S
C1923 C301 1.591 . S
C1958 C1360 1.482 . S
C1953 C15 1.541 . S
C1983 C55 1.489 . S
C1988 C1386 1.420 . S
C2013 C101 1.558 . S
C2018 C1402 1.520 . S
C2048 C1422 1.475 . S
C2043 C141 1.545 . S
C2073 C162 1.485 . S
C2078 C1431 1.445 . S
C2108 C1456 1.485 . S
C2103 C215 1.547 . S
C2133 C261 1.546 . S
C2138 C1476 1.477 . S
C2168 C1492 1.494 . S
C2163 C282 1.554 . S
C2193 C2 1.530 . S
C2198 C1414 1.495 . S
C2223 C181 1.464 . S
C2228 C1449 1.424 . S
C2258 C1468 1.514 . S
C2253 C202 1.550 . S
C2283 C242 1.546 . S
C2288 C1485 1.479 . S
C2318 C1438 1.478 . S
C2313 C295 1.542 . S
C2348 C1378 1.487 . S
C2343 C95 1.547 . S
C2373 C122 1.536 . S
C2378 C1395 1.469 . S
C2408 C1368 1.435 . S
C2403 C61 1.508 . S
C2438 C1512 1.508 . S
C2433 C341 1.550 . S
C2463 C362 1.486 . S
C2468 C1522 1.425 . S
C2493 C402 1.535 . S
C2498 C1546 1.498 . S
C2528 C1558 1.471 . S
C2523 C455 1.534 . S
C2553 C495 1.473 . S
C2558 C1566 1.410 . S
C2583 C541 1.542 . S
C2588 C1504 1.507 . S
C2613 C575 1.528 . S
C2618 C1530 1.456 . S
C2643 C621 1.592 . S
C2648 C1539 1.525 . S
C2678 C1432 1.483 . S
C2673 C335 1.542 . S
C2703 C375 1.489 . S
C2708 C1582 1.425 . S
C2738 C1474 1.523 . S
C2733 C421 1.560 . S
C2763 C461 1.542 . S
C2768 C1602 1.472 . S
C2793 C482 1.482 . S
C2798 C1359 1.442 . S
C2828 C1620 1.477 . S
C2823 C535 1.543 . S
C2853 C581 1.545 . S
C2858 C1404 1.477 . S
C2888 C1636 1.493 . S
C2883 C602 1.553 . S
C2913 C322 1.527 . S
C2918 C1594 1.492 . S
C2948 C1612 1.426 . S
C2943 C501 1.459 . S
C2973 C522 1.547 . S
C2978 C1396 1.511 . S
C3008 C1629 1.479 . S
C3003 C562 1.545 . S
C3033 C615 1.542 . S
C3038 C1366 1.477 . S
C3063 C415 1.548 . S
C3068 C1575 1.482 . S
C3093 C442 1.535 . S
C3098 C1467 1.469 . S
C3123 C381 1.509 . S
C3128 C1440 1.436 . S
C3153 C661 1.554 . S
C3158 C1548 1.512 . S
C3188 C1557 1.421 . S
C3183 C682 1.487 . S
C3213 C722 1.531 . S
C3218 C1510 1.494 . S
C3243 C775 1.536 . S
C3248 C1521 1.467 . S
C3273 C815 1.473 . S
C3278 C1528 1.412 . S
C3303 C861 1.547 . S
C3308 C1540 1.512 . S
C3338 C1564 1.462 . S
C3333 C895 1.527 . S
C3363 C941 1.588 . S
C3368 C1503 1.520 . S
C3398 C1654 1.484 . S
C3393 C655 1.545 . S
C3423 C695 1.491 . S
C3428 C1458 1.423 . S
C3458 C1672 1.518 . S
C3453 C741 1.556 . S
C3483 C781 1.546 . S
C3488 C1494 1.476 . S
C3513 C802 1.485 . S
C3518 C1692 1.445 . S
C3543 C855 1.545 . S
C3548 C1384 1.482 . S
C3578 C1708 1.482 . S
C3573 C901 1.546 . S
C3603 C922 1.550 . S
C3608 C1420 1.490 . S
C3638 C1486 1.496 . S
C3633 C642 1.531 . S
C3668 C1377 1.423 . S
C3663 C821 1.462 . S
C3693 C842 1.552 . S
C3698 C1701 1.509 . S
C3723 C882 1.547 . S
C3728 C1413 1.481 . S
C3758 C1684 1.476 . S
C3753 C935 1.538 . S
C3788 C1450 1.488 . S
C3783 C735 1.548 . S
C3818 C1665 1.470 . S
C3813 C762 1.536 . S
C3848 C1647 1.436 . S
C3843 C701 1.508 . S
C3873 C981 1.554 . S
C3878 C1332 1.512 . S
C3903 C1002 1.486 . S
C3908 C1342 1.426 . S
C3938 C1296 1.491 . S
C3933 C1042 1.533 . S
C3968 C1305 1.463 . S
C3963 C1095 1.533 . S
C3998 C1312 1.411 . S
C3993 C1135 1.472 . S
C4028 C1324 1.507 . S
C4023 C1181 1.543 . S
C4058 C1350 1.456 . S
C4053 C1215 1.528 . S
C4083 C1261 1.586 . S
C4088 C1288 1.525 . S
C4113 C975 1.547 . S
C4118 C1690 1.486 . S
C4148 C1618 1.426 . S
C4143 C1015 1.490 . S
C4178 C1710 1.516 . S
C4173 C1061 1.559 . S
C4208 C1638 1.474 . S
C4203 C1101 1.544 . S
C4233 C1122 1.484 . S
C4238 C1656 1.444 . S
C4268 C1584 1.475 . S
C4263 C1175 1.541 . S
C4298 C1674 1.477 . S
C4293 C1221 1.546 . S
C4323 C1242 1.547 . S
C4328 C1600 1.487 . S
C4358 C1630 1.496 . S
C4353 C962 1.531 . S
C4388 C1576 1.428 . S
C4383 C1141 1.460 . S
C4418 C1666 1.511 . S
C4413 C1162 1.547 . S
C4443 C1202 1.545 . S
C4448 C1593 1.478 . S
C4473 C1255 1.536 . S
C4478 C1648 1.474 . S
C4503 C1055 1.548 . S
C4508 C1611 1.481 . S
C4533 C1082 1.534 . S
C4538 C1702 1.475 . S
C4568 C1683 1.436 . S
C4563 C1021 1.508 . S
