# Generated by pormake.
# Topology pyr, (3,6)-cn, num edge types: 1
# Building blocks:
#     Node 0, Type 0, BuildingBlock: BETDAH_clean_linker_0, # of connection points: 3
#     Node 1, Type 0, BuildingBlock: BETDAH_clean_linker_0, # of connection points: 3
#     Node 2, Type 0, BuildingBlock: BETDAH_clean_linker_0, # of connection points: 3
#     Node 3, Type 0, BuildingBlock: BETDAH_clean_linker_0, # of connection points: 3
#     Node 4, Type 0, BuildingBlock: BETDAH_clean_linker_0, # of connection points: 3
#     Node 5, Type 0, BuildingBlock: BETDAH_clean_linker_0, # of connection points: 3
#     Node 6, Type 0, BuildingBlock: BETDAH_clean_linker_0, # of connection points: 3
#     Node 7, Type 0, BuildingBlock: BETDAH_clean_linker_0, # of connection points: 3
#     Node 8, Type 1, BuildingBlock: INOVEN_clean_sbu_0, # of connection points: 6
#     Node 9, Type 1, BuildingBlock: INOVEN_clean_sbu_0, # of connection points: 6
#     Node 10, Type 1, BuildingBlock: INOVEN_clean_sbu_0, # of connection points: 6
#     Node 11, Type 1, BuildingBlock: INOVEN_clean_sbu_0, # of connection points: 6
#     Edge 12, Type (0, 1), BuildingBlock: XUDNAN_clean_linker_2, # of connection points: 2
#     Edge 13, Type (0, 1), BuildingBlock: XUDNAN_clean_linker_2, # of connection points: 2
#     Edge 14, Type (0, 1), BuildingBlock: XUDNAN_clean_linker_2, # of connection points: 2
#     Edge 15, Type (0, 1), BuildingBlock: XUDNAN_clean_linker_2, # of connection points: 2
#     Edge 16, Type (0, 1), BuildingBlock: XUDNAN_clean_linker_2, # of connection points: 2
#     Edge 17, Type (0, 1), BuildingBlock: XUDNAN_clean_linker_2, # of connection points: 2
#     Edge 18, Type (0, 1), BuildingBlock: XUDNAN_clean_linker_2, # of connection points: 2
#     Edge 19, Type (0, 1), BuildingBlock: XUDNAN_clean_linker_2, # of connection points: 2
#     Edge 20, Type (0, 1), BuildingBlock: XUDNAN_clean_linker_2, # of connection points: 2
#     Edge 21, Type (0, 1), BuildingBlock: XUDNAN_clean_linker_2, # of connection points: 2
#     Edge 22, Type (0, 1), BuildingBlock: XUDNAN_clean_linker_2, # of connection points: 2
#     Edge 23, Type (0, 1), BuildingBlock: XUDNAN_clean_linker_2, # of connection points: 2
#     Edge 24, Type (0, 1), BuildingBlock: XUDNAN_clean_linker_2, # of connection points: 2
#     Edge 25, Type (0, 1), BuildingBlock: XUDNAN_clean_linker_2, # of connection points: 2
#     Edge 26, Type (0, 1), BuildingBlock: XUDNAN_clean_linker_2, # of connection points: 2
#     Edge 27, Type (0, 1), BuildingBlock: XUDNAN_clean_linker_2, # of connection points: 2
#     Edge 28, Type (0, 1), BuildingBlock: XUDNAN_clean_linker_2, # of connection points: 2
#     Edge 29, Type (0, 1), BuildingBlock: XUDNAN_clean_linker_2, # of connection points: 2
#     Edge 30, Type (0, 1), BuildingBlock: XUDNAN_clean_linker_2, # of connection points: 2
#     Edge 31, Type (0, 1), BuildingBlock: XUDNAN_clean_linker_2, # of connection points: 2
#     Edge 32, Type (0, 1), BuildingBlock: XUDNAN_clean_linker_2, # of connection points: 2
#     Edge 33, Type (0, 1), BuildingBlock: XUDNAN_clean_linker_2, # of connection points: 2
#     Edge 34, Type (0, 1), BuildingBlock: XUDNAN_clean_linker_2, # of connection points: 2
#     Edge 35, Type (0, 1), BuildingBlock: XUDNAN_clean_linker_2, # of connection points: 2
# Relax obj value: 0.141
# Max RMSD: 0.191
# Mean RMSD: 0.141
data_MOF--net-pyr--node1-INOVEN_clean_sbu_0--node2-BETDAH_clean_linker_0--edge1-XUDNAN_clean_linker_2
_symmetry_space_group_name_H-M    P1
_symmetry_Int_Tables_number       1
_symmetry_cell_setting            triclinic
loop_
_symmetry_equiv_pos_as_xyz
'x, y, z'
_cell_length_a     37.047452
_cell_length_b     40.672354
_cell_length_c     37.707507
_cell_angle_alpha  91.579693
_cell_angle_beta   89.743829
_cell_angle_gamma 107.21756
loop_
_atom_site_label
_atom_site_type_symbol
_atom_site_fract_x
_atom_site_fract_y
_atom_site_fract_z
_atom_type_partial_charge
H0 H 0.40576 0.27107 0.27012 0.0
H1 H 0.42534 0.31664 0.1675 0.0
H2 H 0.35026 0.3454 0.2412 0.0
C3 C 0.40181 0.28964 0.25157 0.0
C4 C 0.37664 0.30856 0.25977 0.0
C5 C 0.41909 0.29211 0.2182 0.0
C6 C 0.41244 0.3149 0.19352 0.0
C7 C 0.38775 0.33424 0.20153 0.0
C8 C 0.36988 0.33098 0.23479 0.0
N9 N 0.37984 0.35532 0.17507 0.0
C10 C 0.34744 0.36584 0.17579 0.0
H11 H 0.25624 0.79349 0.75692 0.0
H12 H 0.21446 0.87445 0.72012 0.0
H13 H 0.22161 0.79277 0.64817 0.0
C14 C 0.2432 0.80412 0.73619 0.0
C15 C 0.23928 0.78908 0.702 0.0
C16 C 0.23442 0.83498 0.74282 0.0
C17 C 0.22053 0.85027 0.71512 0.0
C18 C 0.21534 0.83466 0.68101 0.0
C19 C 0.22433 0.804 0.67481 0.0
N20 N 0.20319 0.84995 0.65184 0.0
C21 C 0.2018 0.88365 0.65233 0.0
H22 H 0.73397 0.3838 0.94316 0.0
H23 H 0.71745 0.45426 0.86529 0.0
H24 H 0.63486 0.35545 0.87721 0.0
C25 C 0.71784 0.3897 0.92166 0.0
C26 C 0.68357 0.36504 0.91158 0.0
C27 C 0.73076 0.4222 0.90563 0.0
C28 C 0.70827 0.42976 0.87823 0.0
C29 C 0.67343 0.40578 0.86797 0.0
C30 C 0.66144 0.37386 0.88517 0.0
N31 N 0.64834 0.41267 0.84207 0.0
C32 C 0.65523 0.43717 0.81517 0.0
H33 H 0.84698 0.76397 0.43846 0.0
H34 H 0.94557 0.76463 0.37666 0.0
H35 H 0.85259 0.67254 0.38051 0.0
C36 C 0.86198 0.7509 0.42108 0.0
C37 C 0.84452 0.71606 0.41062 0.0
C38 C 0.89819 0.76928 0.40838 0.0
C39 C 0.91702 0.75179 0.38517 0.0
C40 C 0.90042 0.71719 0.37432 0.0
C41 C 0.86437 0.69967 0.38731 0.0
N42 N 0.92337 0.69801 0.35843 0.0
C43 C 0.92753 0.69147 0.32206 0.0
H44 H 0.77376 0.80032 0.88005 0.0
H45 H 0.67977 0.76531 0.95134 0.0
H46 H 0.67757 0.8378 0.87114 0.0
C47 C 0.74582 0.80007 0.88887 0.0
C48 C 0.7273 0.82072 0.87173 0.0
C49 C 0.72921 0.77993 0.9177 0.0
C50 C 0.69314 0.78047 0.92908 0.0
C51 C 0.67473 0.8017 0.91283 0.0
C52 C 0.69172 0.82143 0.88384 0.0
N53 N 0.64004 0.80411 0.92705 0.0
C54 C 0.63069 0.83476 0.92661 0.0
H55 H 0.83741 0.20777 0.41596 0.0
H56 H 0.90898 0.29128 0.47908 0.0
H57 H 0.81072 0.30331 0.42671 0.0
C58 C 0.84415 0.23393 0.42667 0.0
C59 C 0.82063 0.25407 0.41884 0.0
C60 C 0.8761 0.24714 0.44825 0.0
C61 C 0.88442 0.28086 0.46219 0.0
C62 C 0.86077 0.30108 0.45506 0.0
C63 C 0.8289 0.28773 0.43297 0.0
N64 N 0.86951 0.33452 0.47083 0.0
C65 C 0.84181 0.34995 0.47947 0.0
H66 H 0.35671 0.78261 0.17337 0.0
H67 H 0.36327 0.71662 0.25935 0.0
H68 H 0.44869 0.81399 0.24804 0.0
C69 C 0.37091 0.77773 0.19676 0.0
C70 C 0.40479 0.80245 0.208 0.0
C71 C 0.35532 0.74655 0.21461 0.0
C72 C 0.37462 0.74014 0.24504 0.0
C73 C 0.40823 0.7646 0.25748 0.0
C74 C 0.42265 0.79557 0.23883 0.0
N75 N 0.42855 0.75997 0.28858 0.0
C76 C 0.42414 0.73078 0.30951 0.0
H77 H 0.23376 0.37796 0.67139 0.0
H78 H 0.22313 0.45872 0.74474 0.0
H79 H 0.14089 0.35896 0.74418 0.0
C80 C 0.21845 0.38732 0.69192 0.0
C81 C 0.18557 0.36421 0.70597 0.0
C82 C 0.23293 0.42163 0.70569 0.0
C83 C 0.21304 0.43265 0.73398 0.0
C84 C 0.17954 0.40999 0.74776 0.0
C85 C 0.16647 0.37627 0.73341 0.0
N86 N 0.15689 0.4191 0.7752 0.0
C87 C 0.16405 0.44774 0.79873 0.0
Gd88 Gd 0.06951 0.08404 0.52406 0.0
Gd89 Gd 0.02817 0.0499 0.59086 0.0
C90 C 0.08051 0.12875 0.59642 0.0
C91 C 0.09058 0.11237 0.46427 0.0
C92 C 0.12315 0.14009 0.45174 0.0
C93 C 0.16037 0.13997 0.45846 0.0
C94 C 0.11697 0.16721 0.43293 0.0
C95 C 0.18482 0.19298 0.42622 0.0
C96 C 0.1475 0.19349 0.4204 0.0
C97 C 0.19086 0.16604 0.44567 0.0
C98 C 0.11375 0.06477 0.5712 0.0
C99 C 1.01445 1.00367 0.51749 0.0
C100 C 1.00458 1.01296 0.64591 0.0
C101 C 0.9695 0.9914 0.6615 0.0
C102 C 0.93483 0.99807 0.65641 0.0
C103 C 0.97119 0.96455 0.68321 0.0
C104 C 0.90439 0.95261 0.6969 0.0
C105 C 0.93894 0.94526 0.70071 0.0
C106 C 0.90247 0.9788 0.67402 0.0
C107 C 0.99217 0.08653 0.55367 0.0
O108 O 0.07584 0.12996 0.56171 0.0
O109 O 0.07109 0.09867 0.61238 0.0
O110 O 0.09727 0.08388 0.47368 0.0
O111 O 0.06738 0.12205 0.48567 0.0
O112 O 0.12644 0.09056 0.55048 0.0
O113 O 0.08006 0.04926 0.56337 0.0
O114 O 1.00476 1.00533 0.55132 0.0
O115 O 0.03829 0.03048 0.50194 0.0
O116 O 1.00871 0.04595 0.6451 0.0
O117 O 1.01625 1.00095 0.61704 0.0
O118 O 0.98869 0.08333 0.5877 0.0
O119 O 1.01089 0.06784 0.54158 0.0
H120 H 0.16601 0.11953 0.4732 0.0
H121 H 0.08847 0.16795 0.42777 0.0
H122 H 0.14183 0.21409 0.40598 0.0
H123 H 0.21913 0.16444 0.45018 0.0
H124 H 0.93299 1.01866 0.63954 0.0
H125 H 0.9977 0.95892 0.68718 0.0
H126 H 0.94117 0.9248 0.71755 0.0
H127 H 0.87632 0.98516 0.67067 0.0
Gd128 Gd 0.58188 0.08613 0.07607 0.0
Gd129 Gd 0.51269 0.07662 0.03616 0.0
C130 C 0.52162 0.11869 0.10848 0.0
C131 C 0.64783 0.10317 0.10549 0.0
C132 C 0.65971 0.11417 0.14203 0.0
C133 C 0.6324 0.11262 0.16835 0.0
C134 C 0.69801 0.12899 0.15019 0.0
C135 C 0.68162 0.14141 0.21071 0.0
C136 C 0.70893 0.1425 0.18431 0.0
C137 C 0.64326 0.12602 0.20244 0.0
C138 C 0.52363 0.03161 0.09955 0.0
C139 C 0.57282 0.04064 1.00488 0.0
C140 C 0.44961 0.05744 1.00155 0.0
C141 C 0.42499 1.02807 0.98095 0.0
C142 C 0.4372 1.01617 0.94909 0.0
C143 C 0.38761 1.01335 0.99206 0.0
C144 C 0.37427 0.97678 0.93881 0.0
C145 C 0.36249 0.98779 0.97128 0.0
C146 C 0.41199 0.99082 0.92816 0.0
C147 C 0.56377 0.1402 1.0262 0.0
O148 O 0.558 0.12393 0.1041 0.0
O149 O 0.49694 0.09556 0.08876 0.0
O150 O 0.62712 0.07115 0.10085 0.0
O151 O 0.63471 0.12479 0.08845 0.0
O152 O 0.54721 0.05384 0.12005 0.0
O153 O 0.53179 0.03974 0.06778 0.0
O154 O 0.53711 0.04032 1.0048 0.0
O155 O 0.5972 0.0596 0.02806 0.0
O156 O 0.48183 0.0744 0.98732 0.0
O157 O 0.45193 0.05364 0.03578 0.0
O158 O 0.52785 0.13447 0.03033 0.0
O159 O 0.57117 0.11176 1.02743 0.0
H160 H 0.60261 0.10175 0.16229 0.0
H161 H 0.71937 0.13064 0.13004 0.0
H162 H 0.73873 0.15381 0.19004 0.0
H163 H 0.62156 0.12516 0.22204 0.0
H164 H 0.46592 1.02693 0.93989 0.0
H165 H 0.37752 1.02229 1.01642 0.0
H166 H 0.33351 0.97755 0.97997 0.0
H167 H 0.42188 0.98243 0.90343 0.0
Gd168 Gd 0.53065 0.54209 0.53466 0.0
Gd169 Gd 0.54125 0.60367 0.57696 0.0
C170 C 0.57383 0.54765 0.61038 0.0
C171 C 0.53986 0.48908 0.50071 0.0
C172 C 0.571 0.47379 0.50173 0.0
C173 C 0.56548 0.4395 0.49061 0.0
C174 C 0.60615 0.49317 0.51563 0.0
C175 C 0.62988 0.44386 0.50821 0.0
C176 C 0.63527 0.4783 0.51898 0.0
C177 C 0.59487 0.42464 0.49361 0.0
C178 C 0.46738 0.54008 0.57376 0.0
C179 C 0.49828 0.59751 0.49969 0.0
C180 C 0.53148 0.65509 0.61359 0.0
C181 C 0.49694 0.66256 0.62517 0.0
C182 C 0.49788 0.6961 0.6355 0.0
C183 C 0.46249 0.63615 0.62497 0.0
C184 C 0.43006 0.67674 0.64557 0.0
C185 C 0.42931 0.6431 0.63548 0.0
C186 C 0.46457 0.70321 0.6455 0.0
C187 C 0.60474 0.60628 0.5385 0.0
O188 O 0.5723 0.53662 0.57697 0.0
O189 O 0.55851 0.57217 0.61899 0.0
O190 O 0.52039 0.48681 0.52995 0.0
O191 O 0.54822 0.51971 0.48737 0.0
O192 O 0.46696 0.52853 0.54133 0.0
O193 O 0.50134 0.55177 0.58404 0.0
O194 O 0.50218 0.61147 0.53227 0.0
O195 O 0.51028 0.57059 0.49277 0.0
O196 O 0.53725 0.65586 0.57947 0.0
O197 O 0.53759 0.6284 0.62782 0.0
O198 O 0.60479 0.61882 0.57042 0.0
O199 O 0.5709 0.59419 0.52789 0.0
H200 H 0.53841 0.42419 0.47999 0.0
H201 H 0.61105 0.51979 0.52411 0.0
H202 H 0.66216 0.49386 0.52975 0.0
H203 H 0.59004 0.398 0.4852 0.0
H204 H 0.52425 0.71676 0.63555 0.0
H205 H 0.46128 0.61026 0.61632 0.0
H206 H 0.40297 0.6224 0.63493 0.0
H207 H 0.46574 0.72934 0.65333 0.0
Gd208 Gd 0.04607 0.54671 0.06468 0.0
Gd209 Gd 0.05292 0.6183 0.03472 0.0
C210 C 0.11832 0.61328 0.08825 0.0
C211 C 0.05763 0.48777 0.07228 0.0
C212 C 0.07918 0.4728 0.09629 0.0
C213 C 0.0723 0.43703 0.09633 0.0
C214 C 0.10921 0.49413 0.11643 0.0
C215 C 0.12785 0.44425 0.13334 0.0
C216 C 0.13355 0.47999 0.13463 0.0
C217 C 0.09636 0.42279 0.11492 0.0
C218 C 1.01823 0.58469 0.11368 0.0
C219 C 0.97586 0.55361 1.0192 0.0
C220 C 0.03937 0.67351 1.0143 0.0
C221 C 1.00399 0.68258 1.01064 0.0
C222 C 1.00109 0.70617 0.98525 0.0
C223 C 0.97229 0.66642 0.03118 0.0
C224 C 0.93517 0.69758 1.00108 0.0
C225 C 0.93825 0.67402 1.0266 0.0
C226 C 0.96693 0.71358 0.98043 0.0
C227 C 0.09076 0.58057 0.99731 0.0
O228 O 0.10407 0.57927 0.08445 0.0
O229 O 0.10145 0.63442 0.0741 0.0
O230 O 0.02803 0.49508 0.08547 0.0
O231 O 0.07823 0.51177 0.05195 0.0
O232 O 1.01931 0.55352 0.11861 0.0
O233 O 0.03187 0.59288 0.08339 0.0
O234 O 0.99192 0.58743 1.02182 0.0
O235 O 0.99298 0.53185 0.03127 0.0
O236 O 0.04331 0.64949 0.99215 0.0
O237 O 0.04957 0.66964 0.04676 0.0
O238 O 0.10319 0.61361 1.00335 0.0
O239 O 0.05816 0.56908 1.01095 0.0
H240 H 0.04927 0.42023 0.08082 0.0
H241 H 0.11471 0.52179 0.11688 0.0
H242 H 0.15744 0.49703 0.14891 0.0
H243 H 0.09151 0.39519 0.1133 0.0
H244 H 0.02516 0.71865 0.96897 0.0
H245 H 0.97372 0.64762 0.0505 0.0
H246 H 0.91414 0.661 0.04257 0.0
H247 H 0.96544 0.73206 0.96077 0.0
H248 H 0.30027 0.29036 0.26397 0.0
H249 H 0.40133 0.30804 0.32808 0.0
H250 H 0.36176 0.28797 0.38092 0.0
H251 H 0.23773 0.31128 0.3339 0.0
H252 H 0.19758 0.27694 0.31812 0.0
H253 H 0.23353 0.29898 0.28745 0.0
H254 H 0.24253 0.24059 0.2669 0.0
H255 H 0.20688 0.21844 0.2975 0.0
H256 H 0.25345 0.21314 0.29933 0.0
H257 H 0.31154 0.25984 0.42462 0.0
H258 H 0.25546 0.22318 0.45499 0.0
H259 H 0.18802 0.22088 0.36057 0.0
C260 C 0.31396 0.29121 0.28944 0.0
C261 C 0.35368 0.3013 0.29232 0.0
C262 C 0.37084 0.30073 0.32564 0.0
C263 C 0.34861 0.28955 0.35571 0.0
C264 C 0.30939 0.27894 0.35181 0.0
C265 C 0.29224 0.27967 0.31946 0.0
C266 C 0.25003 0.26276 0.32109 0.0
C267 C 0.22845 0.28907 0.31477 0.0
C268 C 0.23752 0.23191 0.29466 0.0
C269 C 0.24621 0.25127 0.35907 0.0
C270 C 0.28058 0.2615 0.3766 0.0
C271 C 0.28442 0.25198 0.41126 0.0
C272 C 0.25247 0.23088 0.42817 0.0
C273 C 0.21727 0.21902 0.41017 0.0
C274 C 0.21418 0.23006 0.37542 0.0
H275 H 0.27927 0.90057 0.75392 0.0
H276 H 0.21539 0.80969 0.809 0.0
H277 H 0.24088 0.83792 0.86644 0.0
H278 H 0.36085 0.91539 0.80401 0.0
H279 H 0.37332 0.96172 0.80411 0.0
H280 H 0.34583 0.93672 0.76812 0.0
H281 H 0.29331 0.96602 0.77919 0.0
H282 H 0.32091 0.99155 0.81494 0.0
H283 H 0.2731 0.96551 0.82283 0.0
H284 H 0.27742 0.87441 0.91706 0.0
H285 H 0.32268 0.91601 0.9569 0.0
H286 H 0.36405 0.98177 0.86779 0.0
C287 C 0.26971 0.88713 0.77821 0.0
C288 C 0.24492 0.8533 0.77733 0.0
C289 C 0.23407 0.83584 0.8094 0.0
C290 C 0.24837 0.85165 0.84202 0.0
C291 C 0.27359 0.88478 0.84193 0.0
C292 C 0.28408 0.90234 0.81084 0.0
C293 C 0.31415 0.93634 0.81749 0.0
C294 C 0.35069 0.93759 0.79724 0.0
C295 C 0.29948 0.96665 0.80806 0.0
C296 C 0.31949 0.93489 0.85707 0.0
C297 C 0.29553 0.90521 0.8708 0.0
C298 C 0.29608 0.89788 0.90666 0.0
C299 C 0.32182 0.92159 0.92905 0.0
C300 C 0.34688 0.95191 0.91531 0.0
C301 C 0.34547 0.95859 0.87891 0.0
H302 H 0.61333 0.48204 0.80423 0.0
H303 H 0.68933 0.43335 0.7521 0.0
H304 H 0.67861 0.45785 0.69501 0.0
H305 H 0.54632 0.46853 0.73402 0.0
H306 H 0.53682 0.50933 0.73976 0.0
H307 H 0.55223 0.49006 0.77699 0.0
H308 H 0.60814 0.54521 0.78763 0.0
H309 H 0.59273 0.56476 0.75055 0.0
H310 H 0.64027 0.56173 0.75185 0.0
H311 H 0.65529 0.48383 0.64206 0.0
H312 H 0.62511 0.51192 0.59881 0.0
H313 H 0.56536 0.54651 0.68436 0.0
C314 C 0.62844 0.47729 0.78093 0.0
C315 C 0.6529 0.45622 0.78289 0.0
C316 C 0.67116 0.44987 0.75153 0.0
C317 C 0.665 0.46358 0.71886 0.0
C318 C 0.64043 0.48386 0.71763 0.0
C319 C 0.62274 0.49108 0.74796 0.0
C320 C 0.597 0.51299 0.73906 0.0
C321 C 0.55564 0.49409 0.748 0.0
C322 C 0.61033 0.54827 0.75843 0.0
C323 C 0.60255 0.51662 0.69902 0.0
C324 C 0.62764 0.49945 0.68725 0.0
C325 C 0.63602 0.49768 0.65121 0.0
C326 C 0.61855 0.51376 0.62668 0.0
C327 C 0.59297 0.53196 0.6378 0.0
C328 C 0.58517 0.53342 0.67476 0.0
H329 H 0.93839 0.63008 0.30242 0.0
H330 H 0.94172 0.72958 0.26219 0.0
H331 H 0.96426 0.71327 0.20401 0.0
H332 H 0.02216 0.62324 0.25949 0.0
H333 H 1.00416 0.57756 0.25034 0.0
H334 H 0.98678 0.59658 0.28789 0.0
H335 H 0.91825 0.57109 0.26462 0.0
H336 H 0.93542 0.55184 0.22708 0.0
H337 H 0.90679 0.58005 0.2202 0.0
H338 H 0.98927 0.68585 0.14993 0.0
H339 H 1.01238 0.65025 0.10611 0.0
H340 H 0.99236 0.56847 0.18156 0.0
C341 C 0.94336 0.64823 0.28115 0.0
C342 C 0.93782 0.68101 0.2867 0.0
C343 C 0.9453 0.70423 0.25843 0.0
C344 C 0.95826 0.69515 0.2253 0.0
C345 C 0.96374 0.66268 0.22069 0.0
C346 C 0.95631 0.63952 0.24792 0.0
C347 C 0.96513 0.60652 0.23654 0.0
C348 C 0.99642 0.60064 0.25996 0.0
C349 C 0.92926 0.57554 0.23715 0.0
C350 C 0.97888 0.61462 0.19876 0.0
C351 C 0.9779 0.64714 0.19002 0.0
C352 C 0.9899 0.66033 0.15666 0.0
C353 C 1.00305 0.6399 0.13179 0.0
C354 C 1.00419 0.60644 0.14007 0.0
C355 C 0.9918 0.59385 0.17416 0.0
H356 H 0.40467 0.24732 0.16166 0.0
H357 H 0.47961 0.28131 0.25203 0.0
H358 H 0.51261 0.2382 0.23554 0.0
H359 H 0.39516 0.15703 0.16875 0.0
H360 H 0.39365 0.14898 0.12146 0.0
H361 H 0.37669 0.18292 0.13998 0.0
H362 H 0.42258 0.22713 0.09988 0.0
H363 H 0.43932 0.19325 0.08095 0.0
H364 H 0.47232 0.23101 0.10084 0.0
H365 H 0.53906 0.19336 0.20703 0.0
H366 H 0.55592 0.14905 0.1698 0.0
H367 H 0.46026 0.14176 0.10096 0.0
C368 C 0.42832 0.24587 0.1777 0.0
C369 C 0.44017 0.2678 0.20774 0.0
C370 C 0.4705 0.26478 0.22873 0.0
C371 C 0.48924 0.24039 0.21962 0.0
C372 C 0.47669 0.21895 0.18987 0.0
C373 C 0.44678 0.22132 0.16937 0.0
C374 C 0.43838 0.19498 0.13909 0.0
C375 C 0.39861 0.16947 0.14255 0.0
C376 C 0.44347 0.21266 0.10307 0.0
C377 C 0.46863 0.17768 0.14536 0.0
C378 C 0.49056 0.19195 0.17468 0.0
C379 C 0.52175 0.18166 0.18434 0.0
C380 C 0.53109 0.15653 0.16312 0.0
C381 C 0.50895 0.14172 0.13299 0.0
C382 C 0.47701 0.15204 0.12442 0.0
H383 H 0.13966 0.90348 0.6624 0.0
H384 H 0.25797 0.94001 0.63455 0.0
H385 H 0.2509 0.99711 0.62088 0.0
H386 H 0.10711 0.93826 0.59406 0.0
H387 H 0.06977 0.94946 0.61761 0.0
H388 H 0.0862 0.91494 0.63269 0.0
H389 H 0.10028 0.94497 0.69484 0.0
H390 H 0.08375 0.97967 0.67973 0.0
H391 H 0.13038 0.98878 0.69868 0.0
H392 H 0.22805 0.04582 0.60014 0.0
H393 H 0.19125 0.08081 0.57328 0.0
H394 H 0.08837 1.01217 0.61548 0.0
C395 C 0.16425 0.92406 0.65471 0.0
C396 C 0.19939 0.91808 0.64989 0.0
C397 C 0.23097 0.94474 0.63877 0.0
C398 C 0.22721 0.97715 0.63112 0.0
C399 C 0.19174 0.98221 0.63511 0.0
C400 C 0.16087 0.95641 0.64701 0.0
C401 C 0.12488 0.96651 0.64459 0.0
C402 C 0.0953 0.94078 0.62081 0.0
C403 C 0.1089 0.97021 0.68168 0.0
C404 C 0.13988 1.00109 0.6276 0.0
C405 C 0.17859 1.0102 0.62302 0.0
C406 C 0.19788 0.03937 0.60436 0.0
C407 C 0.17684 0.05908 0.58919 0.0
C408 C 0.13707 0.04905 0.59247 0.0
C409 C 0.11877 1.02052 0.61294 0.0
H410 H 0.79656 0.41075 0.9313 0.0
H411 H 0.74757 0.49322 0.91137 0.0
H412 H 0.80451 0.53526 0.9369 0.0
H413 H 0.83692 0.44388 1.01599 0.0
H414 H 0.87862 0.4302 1.0098 0.0
H415 H 0.8351 0.40679 0.98795 0.0
H416 H 0.86891 0.41528 0.92718 0.0
H417 H 0.91257 0.43862 0.94885 0.0
H418 H 0.89404 0.45815 0.91369 0.0
H419 H 0.86701 0.56879 0.96691 0.0
H420 H 0.92877 0.59031 0.99729 0.0
H421 H 0.93624 0.4859 1.00021 0.0
C422 C 0.79744 0.43759 0.93233 0.0
C423 C 0.76687 0.44824 0.91898 0.0
C424 C 0.77034 0.48398 0.9206 0.0
C425 C 0.80264 0.5082 0.93545 0.0
C426 C 0.83169 0.49662 0.94886 0.0
C427 C 0.82938 0.4621 0.94734 0.0
C428 C 0.86414 0.4562 0.96427 0.0
C429 C 0.85302 0.43288 0.99641 0.0
C430 C 0.88622 0.44117 0.93686 0.0
C431 C 0.88635 0.49274 0.97575 0.0
C432 C 0.86718 0.51571 0.96648 0.0
C433 C 0.88213 0.55091 0.9742 0.0
C434 C 0.91741 0.56294 0.99159 0.0
C435 C 0.93778 0.53999 1.00146 0.0
C436 C 0.92163 0.50431 0.99335 0.0
H437 H 0.81388 0.71726 0.47835 0.0
H438 H 0.78682 0.66997 0.37343 0.0
H439 H 0.72412 0.63617 0.39476 0.0
H440 H 0.76694 0.64153 0.5275 0.0
H441 H 0.74997 0.66483 0.56185 0.0
H442 H 0.79283 0.68561 0.53847 0.0
H443 H 0.76526 0.73446 0.52109 0.0
H444 H 0.7224 0.71392 0.54457 0.0
H445 H 0.72034 0.7238 0.49845 0.0
H446 H 0.66309 0.60735 0.42752 0.0
H447 H 0.60947 0.58672 0.46885 0.0
H448 H 0.67553 0.65174 0.55289 0.0
C449 C 0.79471 0.70003 0.45972 0.0
C450 C 0.80582 0.69641 0.42402 0.0
C451 C 0.77962 0.67308 0.40092 0.0
C452 C 0.74368 0.65378 0.4128 0.0
C453 C 0.73384 0.65773 0.44808 0.0
C454 C 0.7586 0.6803 0.47124 0.0
C455 C 0.74099 0.67952 0.50792 0.0
C456 C 0.76406 0.66714 0.53557 0.0
C457 C 0.73701 0.71504 0.51863 0.0
C458 C 0.70247 0.65319 0.50172 0.0
C459 C 0.69892 0.64093 0.46698 0.0
C460 C 0.6657 0.61678 0.45479 0.0
C461 C 0.63531 0.60514 0.47849 0.0
C462 C 0.63807 0.61742 0.51421 0.0
C463 C 0.67242 0.64161 0.52586 0.0
H464 H 0.33272 0.42021 0.14612 0.0
H465 H 0.28347 0.32955 0.20764 0.0
H466 H 0.22174 0.34177 0.2073 0.0
H467 H 0.27991 0.47446 0.18739 0.0
H468 H 0.27485 0.49423 0.14625 0.0
H469 H 0.31545 0.47945 0.15348 0.0
H470 H 0.30005 0.44177 0.09575 0.0
H471 H 0.25949 0.45646 0.08834 0.0
H472 H 0.25393 0.411 0.09024 0.0
H473 H 0.1645 0.3616 0.19592 0.0
H474 H 0.11639 0.38831 0.17566 0.0
H475 H 0.20383 0.46663 0.12278 0.0
C476 C 0.30894 0.40331 0.15986 0.0
C477 C 0.31234 0.37413 0.17705 0.0
C478 C 0.28098 0.35214 0.1945 0.0
C479 C 0.24598 0.35891 0.19445 0.0
C480 C 0.24321 0.38783 0.17694 0.0
C481 C 0.27391 0.40978 0.16013 0.0
C482 C 0.26312 0.43825 0.14201 0.0
C483 C 0.28461 0.47369 0.15827 0.0
C484 C 0.26952 0.43676 0.1017 0.0
C485 C 0.22149 0.42866 0.1508 0.0
C486 C 0.21049 0.39954 0.17099 0.0
C487 C 0.17287 0.38469 0.18053 0.0
C488 C 0.14577 0.39991 0.16886 0.0
C489 C 0.15657 0.42972 0.14814 0.0
C490 C 0.19497 0.44435 0.13937 0.0
H491 H 0.61216 0.32613 0.93512 0.0
H492 H 0.72823 0.32395 0.92644 0.0
H493 H 0.7109 0.2675 0.95486 0.0
H494 H 0.59431 0.287 1.02111 0.0
H495 H 0.54622 0.26248 1.01098 0.0
H496 H 0.5674 0.30258 0.98941 0.0
H497 H 0.55181 0.27161 0.92803 0.0
H498 H 0.53047 0.23145 0.94942 0.0
H499 H 0.56788 0.23472 0.91776 0.0
H500 H 0.68054 0.20974 0.98403 0.0
H501 H 0.63998 0.15712 1.01195 0.0
H502 H 0.54389 0.19669 1.0036 0.0
C503 C 0.63392 0.31371 0.93895 0.0
C504 C 0.6718 0.33001 0.9284 0.0
C505 C 0.6992 0.31262 0.93448 0.0
C506 C 0.68955 0.28028 0.95055 0.0
C507 C 0.65221 0.26515 0.96085 0.0
C508 C 0.6248 0.28135 0.95539 0.0
C509 C 0.58683 0.25963 0.9695 0.0
C510 C 0.57287 0.27909 0.99953 0.0
C511 C 0.55752 0.24871 0.93938 0.0
C512 C 0.59711 0.22872 0.98354 0.0
C513 C 0.63498 0.23234 0.97817 0.0
C514 C 0.65088 0.20681 0.98841 0.0
C515 C 0.62761 0.17691 1.00432 0.0
C516 C 0.58869 0.17254 1.01022 0.0
C517 C 0.57353 0.19912 0.99973 0.0
H518 H 0.89949 0.803 0.47457 0.0
H519 H 0.93896 0.821 0.36621 0.0
H520 H 0.97133 0.88164 0.38236 0.0
H521 H 0.88332 0.88672 0.49042 0.0
H522 H 0.89964 0.89102 0.53576 0.0
H523 H 0.87871 0.84886 0.51593 0.0
H524 H 0.93851 0.8317 0.53163 0.0
H525 H 0.95961 0.87382 0.55145 0.0
H526 H 0.98406 0.85776 0.51678 0.0
H527 H 1.00053 0.94045 0.40982 0.0
H528 H 0.02477 0.99324 0.44659 0.0
H529 H 0.96734 0.93943 0.53829 0.0
C530 C 0.91463 0.81975 0.45413 0.0
C531 C 0.91663 0.80668 0.41894 0.0
C532 C 0.93725 0.82978 0.39336 0.0
C533 C 0.95565 0.86452 0.40227 0.0
C534 C 0.95346 0.87638 0.43704 0.0
C535 C 0.93348 0.85478 0.46266 0.0
C536 C 0.93638 0.87433 0.49824 0.0
C537 C 0.89718 0.87528 0.51083 0.0
C538 C 0.9558 0.85845 0.52618 0.0
C539 C 0.96113 0.91016 0.48856 0.0
C540 C 0.97049 0.9106 0.45303 0.0
C541 C 0.99328 0.94036 0.43766 0.0
C542 C 1.007 0.97041 0.45895 0.0
C543 C 0.99817 0.97103 0.49561 0.0
C544 C 0.97467 0.9402 0.51044 0.0
H545 H 0.29015 0.7904 0.65013 0.0
H546 H 0.23132 0.72866 0.73636 0.0
H547 H 0.26994 0.6887 0.72701 0.0
H548 H 0.30607 0.71935 0.59365 0.0
H549 H 0.35241 0.7457 0.58117 0.0
H550 H 0.31556 0.76529 0.59063 0.0
H551 H 0.35887 0.80589 0.6375 0.0
H552 H 0.39557 0.78617 0.62865 0.0
H553 H 0.37814 0.78761 0.67319 0.0
H554 H 0.31945 0.65919 0.7118 0.0
H555 H 0.37688 0.64378 0.6935 0.0
H556 H 0.40423 0.72716 0.61944 0.0
C557 C 0.28436 0.76769 0.66609 0.0
C558 C 0.25731 0.76201 0.69341 0.0
C559 C 0.25164 0.733 0.71496 0.0
C560 C 0.27334 0.71024 0.70977 0.0
C561 C 0.30058 0.71713 0.6831 0.0
C562 C 0.30604 0.74517 0.66159 0.0
C563 C 0.33983 0.74938 0.63767 0.0
C564 C 0.32773 0.74463 0.59846 0.0
C565 C 0.36986 0.78432 0.6447 0.0
C566 C 0.35326 0.71991 0.64971 0.0
C567 C 0.32993 0.70115 0.67543 0.0
C568 C 0.33767 0.67346 0.69141 0.0
C569 C 0.37024 0.66493 0.68094 0.0
C570 C 0.3948 0.68447 0.65527 0.0
C571 C 0.38593 0.712 0.6393 0.0
H572 H 0.80085 0.86043 0.86821 0.0
H573 H 0.69617 0.82938 0.80796 0.0
H574 H 0.72918 0.86221 0.75689 0.0
H575 H 0.83732 0.94647 0.83343 0.0
H576 H 0.88538 0.94475 0.833 0.0
H577 H 0.85257 0.92102 0.86524 0.0
H578 H 0.86653 0.86479 0.84416 0.0
H579 H 0.8992 0.88828 0.81174 0.0
H580 H 0.86044 0.85165 0.79797 0.0
H581 H 0.77536 0.8957 0.71112 0.0
H582 H 0.83013 0.92753 0.67529 0.0
H583 H 0.90356 0.93579 0.76654 0.0
C584 C 0.7848 0.86056 0.8443 0.0
C585 C 0.74601 0.84224 0.84191 0.0
C586 C 0.72587 0.84349 0.81038 0.0
C587 C 0.7444 0.86193 0.78125 0.0
C588 C 0.78293 0.8791 0.78429 0.0
C589 C 0.80277 0.87871 0.81515 0.0
C590 C 0.84416 0.89814 0.81149 0.0
C591 C 0.85551 0.92946 0.83732 0.0
C592 C 0.86903 0.87429 0.81663 0.0
C593 C 0.84477 0.90909 0.77349 0.0
C594 C 0.80924 0.89811 0.7582 0.0
C595 C 0.80325 0.90465 0.72294 0.0
C596 C 0.83446 0.9228 0.70283 0.0
C597 C 0.87113 0.93399 0.71806 0.0
C598 C 0.87602 0.92717 0.75394 0.0
H599 H 0.81355 0.27144 0.35086 0.0
H600 H 0.75751 0.20177 0.43239 0.0
H601 H 0.7103 0.16869 0.38841 0.0
H602 H 0.72646 0.26705 0.29644 0.0
H603 H 0.75208 0.26795 0.25554 0.0
H604 H 0.77613 0.29012 0.29472 0.0
H605 H 0.82505 0.25612 0.28846 0.0
H606 H 0.80087 0.2334 0.24978 0.0
H607 H 0.80887 0.2097 0.28713 0.0
H608 H 0.67557 0.13864 0.33451 0.0
H609 H 0.65488 0.11422 0.27471 0.0
H610 H 0.73452 0.20282 0.22777 0.0
C611 C 0.79025 0.25014 0.35956 0.0
C612 C 0.78826 0.23945 0.39491 0.0
C613 C 0.75868 0.21058 0.40543 0.0
C614 C 0.73191 0.19169 0.38066 0.0
C615 C 0.73536 0.20206 0.34557 0.0
C616 C 0.76358 0.23081 0.33504 0.0
C617 C 0.76381 0.23406 0.29513 0.0
C618 C 0.75403 0.26673 0.28486 0.0
C619 C 0.8019 0.23326 0.27921 0.0
C620 C 0.7324 0.20194 0.28477 0.0
C621 C 0.7159 0.18416 0.31425 0.0
C622 C 0.68777 0.15267 0.31124 0.0
C623 C 0.67621 0.139 0.27719 0.0
C624 C 0.69305 0.15664 0.24662 0.0
C625 C 0.72126 0.18865 0.25064 0.0
H626 H 0.45051 0.74201 0.37823 0.0
H627 H 0.40846 0.6614 0.29822 0.0
H628 H 0.42012 0.61874 0.33905 0.0
H629 H 0.52505 0.71139 0.41084 0.0
H630 H 0.51979 0.72274 0.45671 0.0
H631 H 0.50644 0.74657 0.42212 0.0
H632 H 0.43937 0.73363 0.44872 0.0
H633 H 0.45255 0.70978 0.48344 0.0
H634 H 0.41206 0.68962 0.45578 0.0
H635 H 0.44001 0.58516 0.38772 0.0
H636 H 0.46461 0.56309 0.43968 0.0
H637 H 0.49301 0.66453 0.49048 0.0
C638 C 0.44321 0.71523 0.36956 0.0
C639 C 0.42803 0.70499 0.33497 0.0
C640 C 0.41959 0.66985 0.32453 0.0
C641 C 0.42627 0.64544 0.34764 0.0
C642 C 0.44145 0.65633 0.38143 0.0
C643 C 0.44963 0.69042 0.39249 0.0
C644 C 0.46661 0.69543 0.42991 0.0
C645 C 0.50686 0.72052 0.42988 0.0
C646 C 0.44113 0.70786 0.45601 0.0
C647 C 0.46707 0.65896 0.43813 0.0
C648 C 0.45243 0.63689 0.40966 0.0
C649 C 0.45117 0.60227 0.41015 0.0
C650 C 0.46534 0.58991 0.44001 0.0
C651 C 0.48062 0.6117 0.46977 0.0
C652 C 0.48102 0.64682 0.46869 0.0
H653 H 0.10301 0.44282 0.84111 0.0
H654 H 0.21749 0.50639 0.8224 0.0
H655 H 0.21149 0.54565 0.8723 0.0
H656 H 0.06356 0.5122 0.86357 0.0
H657 H 0.0326 0.48887 0.89737 0.0
H658 H 0.0461 0.46586 0.86062 0.0
H659 H 0.07109 0.42982 0.90452 0.0
H660 H 0.05783 0.45287 0.94139 0.0
H661 H 0.10585 0.45146 0.93736 0.0
H662 H 0.19244 0.57843 0.9242 0.0
H663 H 0.16238 0.60296 0.9724 0.0
H664 H 0.05952 0.51821 0.95897 0.0
C665 C 0.12679 0.46509 0.84756 0.0
C666 C 0.16081 0.47165 0.82775 0.0
C667 C 0.19125 0.50092 0.83704 0.0
C668 C 0.18802 0.52329 0.86545 0.0
C669 C 0.15414 0.51609 0.88453 0.0
C670 C 0.12399 0.48767 0.87592 0.0
C671 C 0.09059 0.48595 0.90049 0.0
C672 C 0.05618 0.48837 0.87924 0.0
C673 C 0.08077 0.45307 0.92222 0.0
C674 C 0.10646 0.51792 0.92423 0.0
C675 C 0.14323 0.53483 0.91451 0.0
C676 C 0.16374 0.56526 0.93193 0.0
C677 C 0.14631 0.57903 0.95944 0.0
C678 C 0.10853 0.56266 0.96987 0.0
C679 C 0.08852 0.53132 0.95207 0.0
H680 H 0.56707 0.85176 0.94374 0.0
H681 H 0.68453 0.89373 0.91419 0.0
H682 H 0.67983 0.95284 0.92308 0.0
H683 H 0.53315 0.92134 0.9043 0.0
H684 H 0.50071 0.92053 0.94027 0.0
H685 H 0.51173 0.88174 0.92672 0.0
H686 H 0.53218 0.87485 0.99107 0.0
H687 H 0.52123 0.9135 1.00474 0.0
H688 H 0.5678 0.90976 1.01256 0.0
H689 H 0.66543 1.00607 0.94407 0.0
H690 H 0.64156 0.05034 0.97393 0.0
H691 H 0.53227 0.97477 0.98703 0.0
C692 C 0.59135 0.87354 0.93824 0.0
C693 C 0.62604 0.86868 0.92794 0.0
C694 C 0.65766 0.89734 0.92171 0.0
C695 C 0.6552 0.93088 0.92662 0.0
C696 C 0.62077 0.9351 0.93742 0.0
C697 C 0.58924 0.90725 0.94282 0.0
C698 C 0.55657 0.91887 0.95714 0.0
C699 C 0.52359 0.9101 0.93051 0.0
C700 C 0.54372 0.90333 0.99353 0.0
C701 C 0.57515 0.95741 0.96035 0.0
C702 C 0.61209 0.96624 0.94855 0.0
C703 C 0.63627 0.99969 0.95249 0.0
C704 C 0.62255 1.02462 0.9695 0.0
C705 C 0.58495 1.01602 0.98198 0.0
C706 C 0.56074 0.98222 0.97657 0.0
H707 H 0.89853 0.23461 0.51408 0.0
H708 H 0.90532 0.20892 0.40233 0.0
H709 H 0.93864 0.16673 0.41745 0.0
H710 H 0.99086 0.22447 0.54056 0.0
H711 H 0.97273 0.20594 0.58226 0.0
H712 H 0.95322 0.23676 0.56237 0.0
H713 H 0.88636 0.19287 0.56492 0.0
H714 H 0.90567 0.16179 0.58435 0.0
H715 H 0.87811 0.15083 0.54412 0.0
H716 H 0.96652 0.12486 0.44446 0.0
H717 H 0.98886 0.08603 0.48193 0.0
H718 H 0.96328 0.13809 0.57647 0.0
C719 C 0.90796 0.2207 0.49283 0.0
C720 C 0.8997 0.22499 0.45707 0.0
C721 C 0.91148 0.20583 0.42989 0.0
C722 C 0.93046 0.18197 0.4382 0.0
C723 C 0.93736 0.1777 0.47379 0.0
C724 C 0.92672 0.19662 0.5007 0.0
C725 C 0.93545 0.18545 0.53684 0.0
C726 C 0.96482 0.21491 0.55667 0.0
C727 C 0.89924 0.17193 0.55884 0.0
C728 C 0.95183 0.15675 0.52602 0.0
C729 C 0.95301 0.153 0.48951 0.0
C730 C 0.9661 0.12772 0.47306 0.0
C731 C 0.97862 0.10579 0.49453 0.0
C732 C 0.97779 0.10928 0.53194 0.0
C733 C 0.96412 0.13497 0.54789 0.0
H734 H 0.2926 0.75825 0.18226 0.0
H735 H 0.33678 0.67543 0.21294 0.0
H736 H 0.28114 0.63316 0.18554 0.0
H737 H 0.19309 0.71307 0.195 0.0
H738 H 0.17789 0.73137 0.1569 0.0
H739 H 0.22016 0.75505 0.18055 0.0
H740 H 0.25841 0.76029 0.1223 0.0
H741 H 0.2163 0.73655 0.09849 0.0
H742 H 0.25767 0.72187 0.09693 0.0
H743 H 0.22139 0.5995 0.15208 0.0
H744 H 0.16264 0.57746 0.1174 0.0
H745 H 0.15696 0.6818 0.10673 0.0
C746 C 0.29086 0.73126 0.18325 0.0
C747 C 0.31975 0.72056 0.20009 0.0
C748 C 0.31528 0.6847 0.20095 0.0
C749 C 0.28373 0.66036 0.1851 0.0
C750 C 0.25639 0.67193 0.16827 0.0
C751 C 0.25957 0.70657 0.16738 0.0
C752 C 0.22652 0.71228 0.14703 0.0
C753 C 0.20303 0.72893 0.17133 0.0
C754 C 0.24057 0.73404 0.11424 0.0
C755 C 0.20433 0.67546 0.13634 0.0
C756 C 0.22209 0.65261 0.14897 0.0
C757 C 0.20728 0.61726 0.14228 0.0
C758 C 0.17363 0.60493 0.12243 0.0
C759 C 0.15453 0.62762 0.10913 0.0
C760 C 0.17048 0.66352 0.11634 0.0
H761 H 0.25968 0.42758 0.63605 0.0
H762 H 0.29046 0.46874 0.74278 0.0
H763 H 0.35179 0.50482 0.72054 0.0
H764 H 0.35106 0.42239 0.61069 0.0
H765 H 0.34769 0.43483 0.5656 0.0
H766 H 0.30548 0.41342 0.58955 0.0
H767 H 0.27813 0.46368 0.57734 0.0
H768 H 0.32028 0.48525 0.55334 0.0
H769 H 0.30498 0.50705 0.59007 0.0
H770 H 0.4124 0.53441 0.68687 0.0
H771 H 0.46509 0.5557 0.64481 0.0
H772 H 0.3952 0.49665 0.55946 0.0
C773 C 0.27922 0.44415 0.65488 0.0
C774 C 0.26962 0.44506 0.69145 0.0
C775 C 0.29634 0.46764 0.7147 0.0
C776 C 0.33158 0.48819 0.70228 0.0
C777 C 0.34013 0.48636 0.66629 0.0
C778 C 0.31456 0.46504 0.64287 0.0
C779 C 0.33088 0.46757 0.60551 0.0
C780 C 0.33396 0.43246 0.59205 0.0
C781 C 0.30715 0.48173 0.58006 0.0
C782 C 0.36982 0.49325 0.61159 0.0
C783 C 0.37459 0.50379 0.64688 0.0
C784 C 0.40867 0.52651 0.65916 0.0
C785 C 0.43854 0.53858 0.63498 0.0
C786 C 0.43445 0.52835 0.5986 0.0
C787 C 0.39931 0.50544 0.58693 0.0
H788 H 0.77679 0.74526 0.88988 0.0
H789 H 0.73291 0.7726 0.98979 0.0
H790 H 0.77664 0.74865 1.02219 0.0
H791 H 0.79815 0.6668 0.91879 0.0
H792 H 0.84118 0.67652 0.89338 0.0
H793 H 0.80187 0.69005 0.87825 0.0
H794 H 0.84525 0.75301 0.87624 0.0
H795 H 0.88454 0.73979 0.89166 0.0
H796 H 0.87067 0.77302 0.91566 0.0
H797 H 0.83015 0.72771 0.04371 0.0
H798 H 0.88891 0.71177 0.05234 0.0
H799 H 0.9 0.70162 0.93831 0.0
C800 C 0.77594 0.74587 0.91858 0.0
C801 C 0.75121 0.76082 0.93719 0.0
C802 C 0.75096 0.76073 0.9748 0.0
C803 C 0.77592 0.74737 0.99349 0.0
C804 C 0.80095 0.73416 0.97423 0.0
C805 C 0.80099 0.73317 0.93758 0.0
C806 C 0.83298 0.72075 0.92309 0.0
C807 C 0.81761 0.68649 0.90215 0.0
C808 C 0.85995 0.74829 0.90034 0.0
C809 C 0.85166 0.71585 0.95731 0.0
C810 C 0.83242 0.72313 0.98655 0.0
C811 C 0.84516 0.72156 1.02101 0.0
C812 C 0.87851 0.71246 1.02566 0.0
C813 C 0.89897 0.70551 0.996 0.0
C814 C 0.88506 0.707 0.96146 0.0
H815 H 0.44418 0.87043 0.23054 0.0
H816 H 0.40508 0.8076 0.13532 0.0
H817 H 0.42872 0.85864 0.09899 0.0
H818 H 0.42343 0.94703 0.2018 0.0
H819 H 0.46542 0.97677 0.2209 0.0
H820 H 0.44508 0.9354 0.24032 0.0
H821 H 0.50888 0.92202 0.23385 0.0
H822 H 0.52946 0.96344 0.2146 0.0
H823 H 0.53111 0.92479 0.19095 0.0
H824 H 0.45563 0.91686 0.07184 0.0
H825 H 0.48715 0.97709 0.05617 0.0
H826 H 0.51233 1.00394 0.16737 0.0
C827 C 0.44076 0.86726 0.20204 0.0
C828 C 0.42167 0.83441 0.18629 0.0
C829 C 0.41821 0.8321 0.14868 0.0
C830 C 0.43194 0.86113 0.12753 0.0
C831 C 0.44977 0.89294 0.14386 0.0
C832 C 0.45462 0.89624 0.18024 0.0
C833 C 0.47554 0.93361 0.19072 0.0
C834 C 0.45089 0.94911 0.21487 0.0
C835 C 0.5135 0.9361 0.20859 0.0
C836 C 0.48151 0.95065 0.15463 0.0
C837 C 0.46619 0.92659 0.12803 0.0
C838 C 0.46779 0.93584 0.09252 0.0
C839 C 0.48574 0.97031 0.08384 0.0
C840 C 0.50236 0.99563 0.11034 0.0
C841 C 0.49991 0.98543 0.14635 0.0
H842 H 0.17107 0.33422 0.63752 0.0
H843 H 0.16888 0.30887 0.74864 0.0
H844 H 0.14337 0.24719 0.73249 0.0
H845 H 0.08352 0.26968 0.61382 0.0
H846 H 0.09917 0.25933 0.57076 0.0
H847 H 0.11904 0.30174 0.59038 0.0
H848 H 0.18625 0.29543 0.5838 0.0
H849 H 0.16657 0.25304 0.56405 0.0
H850 H 0.1967 0.25897 0.60257 0.0
H851 H 0.11697 0.18803 0.70513 0.0
H852 H 0.09085 0.13538 0.66842 0.0
H853 H 0.10769 0.19677 0.57395 0.0
C854 C 0.1656 0.31561 0.65835 0.0
C855 C 0.17209 0.32669 0.69453 0.0
C856 C 0.16401 0.30132 0.72088 0.0
C857 C 0.14956 0.26608 0.71193 0.0
C858 C 0.14293 0.25604 0.67632 0.0
C859 C 0.1506 0.27995 0.64984 0.0
C860 C 0.13958 0.26185 0.61371 0.0
C861 C 0.10848 0.27387 0.59613 0.0
C862 C 0.17435 0.26767 0.58961 0.0
C863 C 0.12462 0.2242 0.62414 0.0
C864 C 0.12704 0.22161 0.66044 0.0
C865 C 0.115 0.1898 0.67665 0.0
C866 C 0.10012 0.15987 0.65543 0.0
C867 C 0.097 0.16144 0.61807 0.0
C868 C 0.10956 0.19435 0.60236 0.0
H869 H 0.78165 0.35267 0.44068 0.0
H870 H 0.83641 0.37917 0.54321 0.0
H871 H 0.78551 0.4034 0.56329 0.0
H872 H 0.7515 0.42775 0.43348 0.0
H873 H 0.70707 0.40548 0.41244 0.0
H874 H 0.74699 0.3892 0.4069 0.0
H875 H 0.70732 0.33022 0.43045 0.0
H876 H 0.66731 0.34642 0.43626 0.0
H877 H 0.68493 0.32843 0.47319 0.0
H878 H 0.73033 0.4263 0.57119 0.0
H879 H 0.67479 0.44775 0.56627 0.0
H880 H 0.65565 0.40596 0.45853 0.0
C881 C 0.78268 0.36356 0.46734 0.0
C882 C 0.81255 0.36441 0.49059 0.0
C883 C 0.81349 0.37864 0.52523 0.0
C884 C 0.78475 0.39225 0.53682 0.0
C885 C 0.75544 0.39111 0.51332 0.0
C886 C 0.75417 0.37717 0.4793 0.0
C887 C 0.72007 0.37998 0.45906 0.0
C888 C 0.73214 0.40192 0.42603 0.0
C889 C 0.69333 0.34413 0.44917 0.0
C890 C 0.7027 0.39817 0.48681 0.0
C891 C 0.72343 0.40415 0.51797 0.0
C892 C 0.71375 0.42165 0.547 0.0
C893 C 0.68233 0.43383 0.54392 0.0
C894 C 0.66106 0.42845 0.51204 0.0
C895 C 0.67112 0.40996 0.48336 0.0
loop_
_geom_bond_atom_site_label_1
_geom_bond_atom_site_label_2
_geom_bond_distance
_geom_bond_site_symmetry_2
_ccdc_geom_bond_type
H0 C3 0.929 . S
H1 C6 0.929 . S
H2 C8 0.930 . S
C3 H0 0.929 . S
C3 C4 1.398 . S
C3 C5 1.396 . S
C4 C3 1.398 . S
C4 C8 1.407 . S
C5 C3 1.396 . S
C5 C6 1.394 . S
C6 H1 0.929 . S
C6 C5 1.394 . S
C6 C7 1.382 . S
C7 C6 1.382 . S
C7 C8 1.392 . S
C7 N9 1.420 . S
C8 H2 0.930 . S
C8 C4 1.407 . S
C8 C7 1.392 . S
N9 C7 1.420 . S
N9 C10 1.244 . S
C10 N9 1.244 . S
H11 C14 0.929 . S
H12 C17 0.929 . S
H13 C19 0.930 . S
C14 H11 0.929 . S
C14 C15 1.398 . S
C14 C16 1.396 . S
C15 C14 1.398 . S
C15 C19 1.407 . S
C16 C14 1.396 . S
C16 C17 1.394 . S
C17 H12 0.929 . S
C17 C16 1.394 . S
C17 C18 1.382 . S
C18 C17 1.382 . S
C18 C19 1.392 . S
C18 N20 1.420 . S
C19 H13 0.930 . S
C19 C15 1.407 . S
C19 C18 1.392 . S
N20 C18 1.420 . S
N20 C21 1.244 . S
C21 N20 1.244 . S
H22 C25 0.929 . S
H23 C28 0.929 . S
H24 C30 0.930 . S
C25 H22 0.929 . S
C25 C26 1.398 . S
C25 C27 1.396 . S
C26 C25 1.398 . S
C26 C30 1.407 . S
C27 C25 1.396 . S
C27 C28 1.394 . S
C28 H23 0.929 . S
C28 C27 1.394 . S
C28 C29 1.382 . S
C29 C28 1.382 . S
C29 C30 1.392 . S
C29 N31 1.420 . S
C30 H24 0.930 . S
C30 C26 1.407 . S
C30 C29 1.392 . S
N31 C29 1.420 . S
N31 C32 1.244 . S
C32 N31 1.244 . S
H33 C36 0.929 . S
H34 C39 0.929 . S
H35 C41 0.930 . S
C36 H33 0.929 . S
C36 C37 1.398 . S
C36 C38 1.396 . S
C37 C36 1.398 . S
C37 C41 1.407 . S
C38 C36 1.396 . S
C38 C39 1.394 . S
C39 H34 0.929 . S
C39 C38 1.394 . S
C39 C40 1.382 . S
C40 C39 1.382 . S
C40 C41 1.392 . S
C40 N42 1.420 . S
C41 H35 0.930 . S
C41 C37 1.407 . S
C41 C40 1.392 . S
N42 C40 1.420 . S
N42 C43 1.244 . S
C43 N42 1.244 . S
H44 C47 0.929 . S
H45 C50 0.929 . S
H46 C52 0.930 . S
C47 H44 0.929 . S
C47 C48 1.398 . S
C47 C49 1.396 . S
C48 C47 1.398 . S
C48 C52 1.407 . S
C49 C47 1.396 . S
C49 C50 1.394 . S
C50 H45 0.929 . S
C50 C49 1.394 . S
C50 C51 1.382 . S
C51 C50 1.382 . S
C51 C52 1.392 . S
C51 N53 1.420 . S
C52 H46 0.930 . S
C52 C48 1.407 . S
C52 C51 1.392 . S
N53 C51 1.420 . S
N53 C54 1.244 . S
C54 N53 1.244 . S
H55 C58 0.929 . S
H56 C61 0.929 . S
H57 C63 0.930 . S
C58 H55 0.929 . S
C58 C59 1.398 . S
C58 C60 1.396 . S
C59 C58 1.398 . S
C59 C63 1.407 . S
C60 C58 1.396 . S
C60 C61 1.394 . S
C61 H56 0.929 . S
C61 C60 1.394 . S
C61 C62 1.382 . S
C62 C61 1.382 . S
C62 C63 1.392 . S
C62 N64 1.420 . S
C63 H57 0.930 . S
C63 C59 1.407 . S
C63 C62 1.392 . S
N64 C62 1.420 . S
N64 C65 1.244 . S
C65 N64 1.244 . S
H66 C69 0.929 . S
H67 C72 0.929 . S
H68 C74 0.930 . S
C69 H66 0.929 . S
C69 C70 1.398 . S
C69 C71 1.396 . S
C70 C69 1.398 . S
C70 C74 1.407 . S
C71 C69 1.396 . S
C71 C72 1.394 . S
C72 H67 0.929 . S
C72 C71 1.394 . S
C72 C73 1.382 . S
C73 C72 1.382 . S
C73 C74 1.392 . S
C73 N75 1.420 . S
C74 H68 0.930 . S
C74 C70 1.407 . S
C74 C73 1.392 . S
N75 C73 1.420 . S
N75 C76 1.244 . S
C76 N75 1.244 . S
H77 C80 0.929 . S
H78 C83 0.929 . S
H79 C85 0.930 . S
C80 H77 0.929 . S
C80 C81 1.398 . S
C80 C82 1.396 . S
C81 C80 1.398 . S
C81 C85 1.407 . S
C82 C80 1.396 . S
C82 C83 1.394 . S
C83 H78 0.929 . S
C83 C82 1.394 . S
C83 C84 1.382 . S
C84 C83 1.382 . S
C84 C85 1.392 . S
C84 N86 1.420 . S
C85 H79 0.930 . S
C85 C81 1.407 . S
C85 C84 1.392 . S
N86 C84 1.420 . S
N86 C87 1.244 . S
C87 N86 1.244 . S
Gd88 C91 2.818 . S
Gd88 O108 2.377 . S
Gd88 O110 2.448 . S
Gd88 O111 2.506 . S
Gd88 O112 2.435 . S
Gd88 O113 2.717 . S
Gd88 O115 2.395 1_545 S
Gd88 O119 2.327 1_455 S
Gd89 C100 2.818 1_545 S
Gd89 O109 2.395 1_655 S
Gd89 O113 2.327 1_655 S
Gd89 O114 2.377 1_545 S
Gd89 O116 2.448 1_545 S
Gd89 O117 2.506 1_545 S
Gd89 O118 2.435 . S
Gd89 O119 2.717 . S
C90 O108 1.240 . S
C90 O109 1.240 . S
C91 Gd88 2.818 . S
C91 C92 1.510 . S
C91 O110 1.249 . S
C91 O111 1.252 . S
C92 C91 1.510 . S
C92 C93 1.404 . S
C92 C94 1.352 . S
C93 C92 1.404 . S
C93 C97 1.389 . S
C93 H120 0.930 . S
C94 C92 1.352 . S
C94 C96 1.374 . S
C94 H121 0.931 . S
C95 C96 1.359 . S
C95 C97 1.364 . S
C96 C94 1.374 . S
C96 C95 1.359 . S
C96 H122 0.931 . S
C97 C93 1.389 . S
C97 C95 1.364 . S
C97 H123 0.931 . S
C98 O112 1.256 1_565 S
C98 O113 1.257 1_565 S
C99 O114 1.240 . S
C99 O115 1.240 1_655 S
C100 Gd89 2.818 1_565 S
C100 C101 1.510 . S
C100 O116 1.249 . S
C100 O117 1.252 . S
C101 C100 1.510 . S
C101 C102 1.404 . S
C101 C103 1.352 . S
C102 C101 1.404 . S
C102 C106 1.389 . S
C102 H124 0.930 . S
C103 C101 1.352 . S
C103 C105 1.374 . S
C103 H125 0.931 . S
C104 C105 1.359 . S
C104 C106 1.364 . S
C105 C103 1.374 . S
C105 C104 1.359 . S
C105 H126 0.931 . S
C106 C102 1.389 . S
C106 C104 1.364 . S
C106 H127 0.931 . S
C107 O118 1.256 . S
C107 O119 1.257 . S
O108 Gd88 2.377 . S
O108 C90 1.240 . S
O109 Gd89 2.395 1_455 S
O109 C90 1.240 . S
O110 Gd88 2.448 . S
O110 C91 1.249 . S
O111 Gd88 2.506 . S
O111 C91 1.252 . S
O112 Gd88 2.435 . S
O112 C98 1.256 1_545 S
O113 Gd88 2.717 . S
O113 Gd89 2.327 1_455 S
O113 C98 1.257 1_545 S
O114 Gd89 2.377 1_565 S
O114 C99 1.240 . S
O115 Gd88 2.395 1_565 S
O115 C99 1.240 1_455 S
O116 Gd89 2.448 1_565 S
O116 C100 1.249 . S
O117 Gd89 2.506 1_565 S
O117 C100 1.252 . S
O118 Gd89 2.435 . S
O118 C107 1.256 . S
O119 Gd88 2.327 1_655 S
O119 Gd89 2.717 . S
O119 C107 1.257 . S
H120 C93 0.930 . S
H121 C94 0.931 . S
H122 C96 0.931 . S
H123 C97 0.931 . S
H124 C102 0.930 . S
H125 C103 0.931 . S
H126 C105 0.931 . S
H127 C106 0.931 . S
Gd128 C131 2.818 . S
Gd128 O148 2.377 . S
Gd128 O150 2.448 . S
Gd128 O151 2.506 . S
Gd128 O152 2.435 1_545 S
Gd128 O153 2.717 1_545 S
Gd128 O155 2.395 1_545 S
Gd128 O159 2.327 . S
Gd129 C140 2.818 1_544 S
Gd129 O149 2.395 . S
Gd129 O153 2.327 1_545 S
Gd129 O154 2.388 1_554 S
Gd129 O156 2.448 1_554 S
Gd129 O157 2.506 1_544 S
Gd129 O158 2.435 1_554 S
Gd129 O159 2.717 . S
C130 O148 1.240 . S
C130 O149 1.240 . S
C131 Gd128 2.818 . S
C131 C132 1.510 . S
C131 O150 1.249 . S
C131 O151 1.252 . S
C132 C131 1.510 . S
C132 C133 1.404 . S
C132 C134 1.352 . S
C133 C132 1.404 . S
C133 C137 1.389 . S
C133 H160 0.930 . S
C134 C132 1.352 . S
C134 C136 1.374 . S
C134 H161 0.931 . S
C135 C136 1.359 . S
C135 C137 1.364 . S
C136 C134 1.374 . S
C136 C135 1.359 . S
C136 H162 0.931 . S
C137 C133 1.389 . S
C137 C135 1.364 . S
C137 H163 0.931 . S
C138 O152 1.256 . S
C138 O153 1.257 . S
C139 O154 1.227 1_564 S
C139 O155 1.240 . S
C140 Gd129 2.818 1_566 S
C140 C141 1.510 . S
C140 O156 1.249 1_565 S
C140 O157 1.252 . S
C141 C140 1.510 . S
C141 C142 1.404 . S
C141 C143 1.352 . S
C142 C141 1.404 . S
C142 C146 1.389 . S
C142 H164 0.930 . S
C143 C141 1.352 . S
C143 C145 1.374 . S
C143 H165 0.931 . S
C144 C145 1.359 . S
C144 C146 1.364 . S
C145 C143 1.374 . S
C145 C144 1.359 . S
C145 H166 0.931 . S
C146 C142 1.389 . S
C146 C144 1.364 . S
C146 H167 0.931 . S
C147 O158 1.256 1_554 S
C147 O159 1.257 . S
O148 Gd128 2.377 . S
O148 C130 1.240 . S
O149 Gd129 2.395 . S
O149 C130 1.240 . S
O150 Gd128 2.448 . S
O150 C131 1.249 . S
O151 Gd128 2.506 . S
O151 C131 1.252 . S
O152 Gd128 2.435 1_565 S
O152 C138 1.256 . S
O153 Gd128 2.717 1_565 S
O153 Gd129 2.327 1_565 S
O153 C138 1.257 . S
O154 Gd129 2.388 1_556 S
O154 C139 1.227 1_546 S
O155 Gd128 2.395 1_565 S
O155 C139 1.240 . S
O156 Gd129 2.448 1_556 S
O156 C140 1.249 1_545 S
O157 Gd129 2.506 1_566 S
O157 C140 1.252 . S
O158 Gd129 2.435 1_556 S
O158 C147 1.256 1_556 S
O159 Gd128 2.327 . S
O159 Gd129 2.717 . S
O159 C147 1.257 . S
H160 C133 0.930 . S
H161 C134 0.931 . S
H162 C136 0.931 . S
H163 C137 0.931 . S
H164 C142 0.930 . S
H165 C143 0.931 . S
H166 C145 0.931 . S
H167 C146 0.931 . S
Gd168 C171 2.818 . S
Gd168 O188 2.377 . S
Gd168 O190 2.448 . S
Gd168 O191 2.506 . S
Gd168 O192 2.435 . S
Gd168 O193 2.717 . S
Gd168 O195 2.395 . S
Gd168 O199 2.327 . S
Gd169 C180 2.818 . S
Gd169 O189 2.395 . S
Gd169 O193 2.327 . S
Gd169 O194 2.377 . S
Gd169 O196 2.448 . S
Gd169 O197 2.506 . S
Gd169 O198 2.435 . S
Gd169 O199 2.717 . S
C170 O188 1.240 . S
C170 O189 1.240 . S
C171 Gd168 2.818 . S
C171 C172 1.510 . S
C171 O190 1.249 . S
C171 O191 1.252 . S
C172 C171 1.510 . S
C172 C173 1.404 . S
C172 C174 1.352 . S
C173 C172 1.404 . S
C173 C177 1.389 . S
C173 H200 0.930 . S
C174 C172 1.352 . S
C174 C176 1.374 . S
C174 H201 0.931 . S
C175 C176 1.359 . S
C175 C177 1.364 . S
C176 C174 1.374 . S
C176 C175 1.359 . S
C176 H202 0.931 . S
C177 C173 1.389 . S
C177 C175 1.364 . S
C177 H203 0.931 . S
C178 O192 1.256 . S
C178 O193 1.257 . S
C179 O194 1.240 . S
C179 O195 1.240 . S
C180 Gd169 2.818 . S
C180 C181 1.510 . S
C180 O196 1.249 . S
C180 O197 1.252 . S
C181 C180 1.510 . S
C181 C182 1.404 . S
C181 C183 1.352 . S
C182 C181 1.404 . S
C182 C186 1.389 . S
C182 H204 0.930 . S
C183 C181 1.352 . S
C183 C185 1.374 . S
C183 H205 0.931 . S
C184 C185 1.359 . S
C184 C186 1.364 . S
C185 C183 1.374 . S
C185 C184 1.359 . S
C185 H206 0.931 . S
C186 C182 1.389 . S
C186 C184 1.364 . S
C186 H207 0.931 . S
C187 O198 1.256 . S
C187 O199 1.257 . S
O188 Gd168 2.377 . S
O188 C170 1.240 . S
O189 Gd169 2.395 . S
O189 C170 1.240 . S
O190 Gd168 2.448 . S
O190 C171 1.249 . S
O191 Gd168 2.506 . S
O191 C171 1.252 . S
O192 Gd168 2.435 . S
O192 C178 1.256 . S
O193 Gd168 2.717 . S
O193 Gd169 2.327 . S
O193 C178 1.257 . S
O194 Gd169 2.377 . S
O194 C179 1.240 . S
O195 Gd168 2.395 . S
O195 C179 1.240 . S
O196 Gd169 2.448 . S
O196 C180 1.249 . S
O197 Gd169 2.506 . S
O197 C180 1.252 . S
O198 Gd169 2.435 . S
O198 C187 1.256 . S
O199 Gd168 2.327 . S
O199 Gd169 2.717 . S
O199 C187 1.257 . S
H200 C173 0.930 . S
H201 C174 0.931 . S
H202 C176 0.931 . S
H203 C177 0.931 . S
H204 C182 0.930 . S
H205 C183 0.931 . S
H206 C185 0.931 . S
H207 C186 0.931 . S
Gd208 C211 2.818 . S
Gd208 O228 2.377 . S
Gd208 O230 2.448 . S
Gd208 O231 2.506 . S
Gd208 O232 2.435 . S
Gd208 O233 2.717 . S
Gd208 O235 2.395 1_455 S
Gd208 O239 2.327 1_554 S
Gd209 C220 2.818 1_455 S
Gd209 O229 2.395 1_556 S
Gd209 O233 2.327 1_556 S
Gd209 O234 2.377 1_455 S
Gd209 O236 2.448 . S
Gd209 O237 2.506 1_455 S
Gd209 O238 2.435 . S
Gd209 O239 2.717 . S
C210 O228 1.240 . S
C210 O229 1.240 . S
C211 Gd208 2.818 . S
C211 C212 1.510 . S
C211 O230 1.249 . S
C211 O231 1.252 . S
C212 C211 1.510 . S
C212 C213 1.404 . S
C212 C214 1.352 . S
C213 C212 1.404 . S
C213 C217 1.389 . S
C213 H240 0.930 . S
C214 C212 1.352 . S
C214 C216 1.374 . S
C214 H241 0.931 . S
C215 C216 1.359 . S
C215 C217 1.364 . S
C216 C214 1.374 . S
C216 C215 1.359 . S
C216 H242 0.931 . S
C217 C213 1.389 . S
C217 C215 1.364 . S
C217 H243 0.931 . S
C218 O232 1.264 . S
C218 O233 1.262 . S
C219 O234 1.240 . S
C219 O235 1.240 1_556 S
C220 Gd209 2.818 1_655 S
C220 C221 1.510 . S
C220 O236 1.249 1_655 S
C220 O237 1.252 . S
C221 C220 1.510 . S
C221 C222 1.404 . S
C221 C223 1.352 . S
C222 C221 1.404 . S
C222 C226 1.389 . S
C222 H244 0.930 . S
C223 C221 1.352 . S
C223 C225 1.374 . S
C223 H245 0.931 . S
C224 C225 1.359 . S
C224 C226 1.364 . S
C225 C223 1.374 . S
C225 C224 1.359 . S
C225 H246 0.931 . S
C226 C222 1.389 . S
C226 C224 1.364 . S
C226 H247 0.931 . S
C227 O238 1.256 . S
C227 O239 1.257 . S
O228 Gd208 2.377 . S
O228 C210 1.240 . S
O229 Gd209 2.395 1_554 S
O229 C210 1.240 . S
O230 Gd208 2.448 . S
O230 C211 1.249 . S
O231 Gd208 2.506 . S
O231 C211 1.252 . S
O232 Gd208 2.435 . S
O232 C218 1.264 . S
O233 Gd208 2.717 . S
O233 Gd209 2.327 1_554 S
O233 C218 1.262 . S
O234 Gd209 2.377 1_655 S
O234 C219 1.240 . S
O235 Gd208 2.395 1_655 S
O235 C219 1.240 1_554 S
O236 Gd209 2.448 . S
O236 C220 1.249 1_455 S
O237 Gd209 2.506 1_655 S
O237 C220 1.252 . S
O238 Gd209 2.435 . S
O238 C227 1.256 . S
O239 Gd208 2.327 1_556 S
O239 Gd209 2.717 . S
O239 C227 1.257 . S
H240 C213 0.930 . S
H241 C214 0.931 . S
H242 C216 0.931 . S
H243 C217 0.931 . S
H244 C222 0.930 . S
H245 C223 0.931 . S
H246 C225 0.931 . S
H247 C226 0.931 . S
H248 C260 0.930 . S
H249 C262 0.930 . S
H250 C263 0.930 . S
H251 C267 0.959 . S
H252 C267 0.959 . S
H253 C267 0.961 . S
H254 C268 0.960 . S
H255 C268 0.961 . S
H256 C268 0.959 . S
H257 C271 0.929 . S
H258 C272 0.931 . S
H259 C274 0.930 . S
C260 H248 0.930 . S
C260 C261 1.399 . S
C260 C265 1.399 . S
C261 C260 1.399 . S
C261 C262 1.376 . S
C262 H249 0.930 . S
C262 C261 1.376 . S
C262 C263 1.388 . S
C263 H250 0.930 . S
C263 C262 1.388 . S
C263 C264 1.390 . S
C264 C263 1.390 . S
C264 C265 1.394 . S
C264 C270 1.465 . S
C265 C260 1.399 . S
C265 C264 1.394 . S
C265 C266 1.516 . S
C266 C265 1.516 . S
C266 C267 1.502 . S
C266 C268 1.561 . S
C266 C269 1.526 . S
C267 H251 0.959 . S
C267 H252 0.959 . S
C267 H253 0.961 . S
C267 C266 1.502 . S
C268 H254 0.960 . S
C268 H255 0.961 . S
C268 H256 0.959 . S
C268 C266 1.561 . S
C269 C266 1.526 . S
C269 C270 1.396 . S
C269 C274 1.390 . S
C270 C264 1.465 . S
C270 C269 1.396 . S
C270 C271 1.399 . S
C271 H257 0.929 . S
C271 C270 1.399 . S
C271 C272 1.385 . S
C272 H258 0.931 . S
C272 C271 1.385 . S
C272 C273 1.389 . S
C273 C272 1.389 . S
C273 C274 1.387 . S
C274 H259 0.930 . S
C274 C269 1.390 . S
C274 C273 1.387 . S
H275 C287 0.930 . S
H276 C289 0.930 . S
H277 C290 0.930 . S
H278 C294 0.959 . S
H279 C294 0.959 . S
H280 C294 0.961 . S
H281 C295 0.960 . S
H282 C295 0.961 . S
H283 C295 0.959 . S
H284 C298 0.929 . S
H285 C299 0.931 . S
H286 C301 0.930 . S
C287 H275 0.930 . S
C287 C288 1.399 . S
C287 C292 1.399 . S
C288 C287 1.399 . S
C288 C289 1.376 . S
C289 H276 0.930 . S
C289 C288 1.376 . S
C289 C290 1.388 . S
C290 H277 0.930 . S
C290 C289 1.388 . S
C290 C291 1.390 . S
C291 C290 1.390 . S
C291 C292 1.394 . S
C291 C297 1.465 . S
C292 C287 1.399 . S
C292 C291 1.394 . S
C292 C293 1.516 . S
C293 C292 1.516 . S
C293 C294 1.502 . S
C293 C295 1.561 . S
C293 C296 1.526 . S
C294 H278 0.959 . S
C294 H279 0.959 . S
C294 H280 0.961 . S
C294 C293 1.502 . S
C295 H281 0.960 . S
C295 H282 0.961 . S
C295 H283 0.959 . S
C295 C293 1.561 . S
C296 C293 1.526 . S
C296 C297 1.396 . S
C296 C301 1.390 . S
C297 C291 1.465 . S
C297 C296 1.396 . S
C297 C298 1.399 . S
C298 H284 0.929 . S
C298 C297 1.399 . S
C298 C299 1.385 . S
C299 H285 0.931 . S
C299 C298 1.385 . S
C299 C300 1.389 . S
C300 C299 1.389 . S
C300 C301 1.387 . S
C301 H286 0.930 . S
C301 C296 1.390 . S
C301 C300 1.387 . S
H302 C314 0.930 . S
H303 C316 0.930 . S
H304 C317 0.930 . S
H305 C321 0.959 . S
H306 C321 0.959 . S
H307 C321 0.961 . S
H308 C322 0.960 . S
H309 C322 0.961 . S
H310 C322 0.959 . S
H311 C325 0.929 . S
H312 C326 0.931 . S
H313 C328 0.930 . S
C314 H302 0.930 . S
C314 C315 1.399 . S
C314 C319 1.399 . S
C315 C314 1.399 . S
C315 C316 1.376 . S
C316 H303 0.930 . S
C316 C315 1.376 . S
C316 C317 1.388 . S
C317 H304 0.930 . S
C317 C316 1.388 . S
C317 C318 1.390 . S
C318 C317 1.390 . S
C318 C319 1.394 . S
C318 C324 1.465 . S
C319 C314 1.399 . S
C319 C318 1.394 . S
C319 C320 1.516 . S
C320 C319 1.516 . S
C320 C321 1.502 . S
C320 C322 1.561 . S
C320 C323 1.526 . S
C321 H305 0.959 . S
C321 H306 0.959 . S
C321 H307 0.961 . S
C321 C320 1.502 . S
C322 H308 0.960 . S
C322 H309 0.961 . S
C322 H310 0.959 . S
C322 C320 1.561 . S
C323 C320 1.526 . S
C323 C324 1.396 . S
C323 C328 1.390 . S
C324 C318 1.465 . S
C324 C323 1.396 . S
C324 C325 1.399 . S
C325 H311 0.929 . S
C325 C324 1.399 . S
C325 C326 1.385 . S
C326 H312 0.931 . S
C326 C325 1.385 . S
C326 C327 1.389 . S
C327 C326 1.389 . S
C327 C328 1.387 . S
C328 H313 0.930 . S
C328 C323 1.390 . S
C328 C327 1.387 . S
H329 C341 0.930 . S
H330 C343 0.930 . S
H331 C344 0.930 . S
H332 C348 0.959 1_455 S
H333 C348 0.944 1_455 S
H334 C348 0.961 . S
H335 C349 0.960 . S
H336 C349 0.961 . S
H337 C349 0.959 . S
H338 C352 0.929 . S
H339 C353 0.931 . S
H340 C355 0.930 . S
C341 H329 0.930 . S
C341 C342 1.399 . S
C341 C346 1.399 . S
C342 C341 1.399 . S
C342 C343 1.376 . S
C343 H330 0.930 . S
C343 C342 1.376 . S
C343 C344 1.388 . S
C344 H331 0.930 . S
C344 C343 1.388 . S
C344 C345 1.390 . S
C345 C344 1.390 . S
C345 C346 1.394 . S
C345 C351 1.465 . S
C346 C341 1.399 . S
C346 C345 1.394 . S
C346 C347 1.516 . S
C347 C346 1.516 . S
C347 C348 1.518 . S
C347 C349 1.561 . S
C347 C350 1.526 . S
C348 H332 0.959 1_655 S
C348 H333 0.944 1_655 S
C348 H334 0.961 . S
C348 C347 1.518 . S
C349 H335 0.960 . S
C349 H336 0.961 . S
C349 H337 0.959 . S
C349 C347 1.561 . S
C350 C347 1.526 . S
C350 C351 1.396 . S
C350 C355 1.390 . S
C351 C345 1.465 . S
C351 C350 1.396 . S
C351 C352 1.399 . S
C352 H338 0.929 . S
C352 C351 1.399 . S
C352 C353 1.385 . S
C353 H339 0.931 . S
C353 C352 1.385 . S
C353 C354 1.389 . S
C354 C353 1.389 . S
C354 C355 1.387 . S
C355 H340 0.930 . S
C355 C350 1.390 . S
C355 C354 1.387 . S
H356 C368 0.930 . S
H357 C370 0.930 . S
H358 C371 0.930 . S
H359 C375 0.959 . S
H360 C375 0.959 . S
H361 C375 0.961 . S
H362 C376 0.960 . S
H363 C376 0.961 . S
H364 C376 0.959 . S
H365 C379 0.929 . S
H366 C380 0.931 . S
H367 C382 0.930 . S
C368 H356 0.930 . S
C368 C369 1.399 . S
C368 C373 1.399 . S
C369 C368 1.399 . S
C369 C370 1.376 . S
C370 H357 0.930 . S
C370 C369 1.376 . S
C370 C371 1.388 . S
C371 H358 0.930 . S
C371 C370 1.388 . S
C371 C372 1.390 . S
C372 C371 1.390 . S
C372 C373 1.394 . S
C372 C378 1.465 . S
C373 C368 1.399 . S
C373 C372 1.394 . S
C373 C374 1.516 . S
C374 C373 1.516 . S
C374 C375 1.502 . S
C374 C376 1.561 . S
C374 C377 1.526 . S
C375 H359 0.959 . S
C375 H360 0.959 . S
C375 H361 0.961 . S
C375 C374 1.502 . S
C376 H362 0.960 . S
C376 H363 0.961 . S
C376 H364 0.959 . S
C376 C374 1.561 . S
C377 C374 1.526 . S
C377 C378 1.396 . S
C377 C382 1.390 . S
C378 C372 1.465 . S
C378 C377 1.396 . S
C378 C379 1.399 . S
C379 H365 0.929 . S
C379 C378 1.399 . S
C379 C380 1.385 . S
C380 H366 0.931 . S
C380 C379 1.385 . S
C380 C381 1.389 . S
C381 C380 1.389 . S
C381 C382 1.387 . S
C382 H367 0.930 . S
C382 C377 1.390 . S
C382 C381 1.387 . S
H383 C395 0.930 . S
H384 C397 0.930 . S
H385 C398 0.930 . S
H386 C402 0.959 . S
H387 C402 0.959 . S
H388 C402 0.961 . S
H389 C403 0.960 . S
H390 C403 0.961 1_545 S
H391 C403 0.959 . S
H392 C406 0.929 . S
H393 C407 0.931 . S
H394 C409 0.930 . S
C395 H383 0.930 . S
C395 C396 1.399 . S
C395 C400 1.399 . S
C396 C395 1.399 . S
C396 C397 1.376 . S
C397 H384 0.930 . S
C397 C396 1.376 . S
C397 C398 1.388 . S
C398 H385 0.930 . S
C398 C397 1.388 . S
C398 C399 1.390 . S
C399 C398 1.390 . S
C399 C400 1.394 . S
C399 C405 1.465 . S
C400 C395 1.399 . S
C400 C399 1.394 . S
C400 C401 1.516 . S
C401 C400 1.516 . S
C401 C402 1.502 . S
C401 C403 1.561 . S
C401 C404 1.526 . S
C402 H386 0.959 . S
C402 H387 0.959 . S
C402 H388 0.961 . S
C402 C401 1.502 . S
C403 H389 0.960 . S
C403 H390 0.961 1_565 S
C403 H391 0.959 . S
C403 C401 1.561 . S
C404 C401 1.526 . S
C404 C405 1.396 . S
C404 C409 1.390 . S
C405 C399 1.465 . S
C405 C404 1.396 . S
C405 C406 1.399 . S
C406 H392 0.929 . S
C406 C405 1.399 . S
C406 C407 1.385 . S
C407 H393 0.931 . S
C407 C406 1.385 . S
C407 C408 1.389 . S
C408 C407 1.389 . S
C408 C409 1.387 . S
C409 H394 0.930 . S
C409 C404 1.390 . S
C409 C408 1.387 . S
H410 C422 0.930 . S
H411 C424 0.930 . S
H412 C425 0.930 . S
H413 C429 0.959 . S
H414 C429 0.940 1_554 S
H415 C429 0.961 . S
H416 C430 0.960 . S
H417 C430 0.961 . S
H418 C430 0.959 . S
H419 C433 0.929 . S
H420 C434 0.931 . S
H421 C436 0.930 . S
C422 H410 0.930 . S
C422 C423 1.399 . S
C422 C427 1.399 . S
C423 C422 1.399 . S
C423 C424 1.376 . S
C424 H411 0.930 . S
C424 C423 1.376 . S
C424 C425 1.388 . S
C425 H412 0.930 . S
C425 C424 1.388 . S
C425 C426 1.390 . S
C426 C425 1.390 . S
C426 C427 1.394 . S
C426 C432 1.465 . S
C427 C422 1.399 . S
C427 C426 1.394 . S
C427 C428 1.516 . S
C428 C427 1.516 . S
C428 C429 1.502 . S
C428 C430 1.561 . S
C428 C431 1.526 . S
C429 H413 0.959 . S
C429 H414 0.940 1_556 S
C429 H415 0.961 . S
C429 C428 1.502 . S
C430 H416 0.960 . S
C430 H417 0.961 . S
C430 H418 0.959 . S
C430 C428 1.561 . S
C431 C428 1.526 . S
C431 C432 1.396 . S
C431 C436 1.390 . S
C432 C426 1.465 . S
C432 C431 1.396 . S
C432 C433 1.399 . S
C433 H419 0.929 . S
C433 C432 1.399 . S
C433 C434 1.385 . S
C434 H420 0.931 . S
C434 C433 1.385 . S
C434 C435 1.389 . S
C435 C434 1.389 . S
C435 C436 1.387 . S
C436 H421 0.930 . S
C436 C431 1.390 . S
C436 C435 1.387 . S
H437 C449 0.930 . S
H438 C451 0.930 . S
H439 C452 0.930 . S
H440 C456 0.959 . S
H441 C456 0.959 . S
H442 C456 0.961 . S
H443 C457 0.960 . S
H444 C457 0.961 . S
H445 C457 0.959 . S
H446 C460 0.929 . S
H447 C461 0.931 . S
H448 C463 0.930 . S
C449 H437 0.930 . S
C449 C450 1.399 . S
C449 C454 1.399 . S
C450 C449 1.399 . S
C450 C451 1.376 . S
C451 H438 0.930 . S
C451 C450 1.376 . S
C451 C452 1.388 . S
C452 H439 0.930 . S
C452 C451 1.388 . S
C452 C453 1.390 . S
C453 C452 1.390 . S
C453 C454 1.394 . S
C453 C459 1.465 . S
C454 C449 1.399 . S
C454 C453 1.394 . S
C454 C455 1.516 . S
C455 C454 1.516 . S
C455 C456 1.502 . S
C455 C457 1.561 . S
C455 C458 1.526 . S
C456 H440 0.959 . S
C456 H441 0.959 . S
C456 H442 0.961 . S
C456 C455 1.502 . S
C457 H443 0.960 . S
C457 H444 0.961 . S
C457 H445 0.959 . S
C457 C455 1.561 . S
C458 C455 1.526 . S
C458 C459 1.396 . S
C458 C463 1.390 . S
C459 C453 1.465 . S
C459 C458 1.396 . S
C459 C460 1.399 . S
C460 H446 0.929 . S
C460 C459 1.399 . S
C460 C461 1.385 . S
C461 H447 0.931 . S
C461 C460 1.385 . S
C461 C462 1.389 . S
C462 C461 1.389 . S
C462 C463 1.387 . S
C463 H448 0.930 . S
C463 C458 1.390 . S
C463 C462 1.387 . S
H464 C476 0.930 . S
H465 C478 0.930 . S
H466 C479 0.930 . S
H467 C483 0.959 . S
H468 C483 0.959 . S
H469 C483 0.961 . S
H470 C484 0.960 . S
H471 C484 0.961 . S
H472 C484 0.959 . S
H473 C487 0.929 . S
H474 C488 0.931 . S
H475 C490 0.930 . S
C476 H464 0.930 . S
C476 C477 1.399 . S
C476 C481 1.399 . S
C477 C476 1.399 . S
C477 C478 1.376 . S
C478 H465 0.930 . S
C478 C477 1.376 . S
C478 C479 1.388 . S
C479 H466 0.930 . S
C479 C478 1.388 . S
C479 C480 1.390 . S
C480 C479 1.390 . S
C480 C481 1.394 . S
C480 C486 1.465 . S
C481 C476 1.399 . S
C481 C480 1.394 . S
C481 C482 1.516 . S
C482 C481 1.516 . S
C482 C483 1.502 . S
C482 C484 1.561 . S
C482 C485 1.526 . S
C483 H467 0.959 . S
C483 H468 0.959 . S
C483 H469 0.961 . S
C483 C482 1.502 . S
C484 H470 0.960 . S
C484 H471 0.961 . S
C484 H472 0.959 . S
C484 C482 1.561 . S
C485 C482 1.526 . S
C485 C486 1.396 . S
C485 C490 1.390 . S
C486 C480 1.465 . S
C486 C485 1.396 . S
C486 C487 1.399 . S
C487 H473 0.929 . S
C487 C486 1.399 . S
C487 C488 1.385 . S
C488 H474 0.931 . S
C488 C487 1.385 . S
C488 C489 1.389 . S
C489 C488 1.389 . S
C489 C490 1.387 . S
C490 H475 0.930 . S
C490 C485 1.390 . S
C490 C489 1.387 . S
H491 C503 0.930 . S
H492 C505 0.930 . S
H493 C506 0.930 . S
H494 C510 0.959 1_556 S
H495 C510 0.959 . S
H496 C510 0.961 . S
H497 C511 0.960 . S
H498 C511 0.961 . S
H499 C511 0.959 1_556 S
H500 C514 0.929 . S
H501 C515 0.931 . S
H502 C517 0.897 1_554 S
C503 H491 0.930 . S
C503 C504 1.399 . S
C503 C508 1.399 . S
C504 C503 1.399 . S
C504 C505 1.376 . S
C505 H492 0.930 . S
C505 C504 1.376 . S
C505 C506 1.388 . S
C506 H493 0.930 . S
C506 C505 1.388 . S
C506 C507 1.390 . S
C507 C506 1.390 . S
C507 C508 1.394 . S
C507 C513 1.465 . S
C508 C503 1.399 . S
C508 C507 1.394 . S
C508 C509 1.516 . S
C509 C508 1.516 . S
C509 C510 1.502 1_556 S
C509 C511 1.561 1_556 S
C509 C512 1.526 . S
C510 H494 0.959 1_554 S
C510 H495 0.959 . S
C510 H496 0.961 . S
C510 C509 1.502 1_554 S
C511 H497 0.960 . S
C511 H498 0.961 . S
C511 H499 0.959 1_554 S
C511 C509 1.561 1_554 S
C512 C509 1.526 . S
C512 C513 1.396 . S
C512 C517 1.411 . S
C513 C507 1.465 . S
C513 C512 1.396 . S
C513 C514 1.399 . S
C514 H500 0.929 . S
C514 C513 1.399 . S
C514 C515 1.385 . S
C515 H501 0.931 . S
C515 C514 1.385 . S
C515 C516 1.389 . S
C516 C515 1.389 . S
C516 C517 1.399 . S
C517 H502 0.897 1_556 S
C517 C512 1.411 . S
C517 C516 1.399 . S
H518 C530 0.930 . S
H519 C532 0.930 . S
H520 C533 0.930 . S
H521 C537 0.959 . S
H522 C537 0.959 . S
H523 C537 0.961 . S
H524 C538 0.960 . S
H525 C538 0.961 . S
H526 C538 0.959 . S
H527 C541 0.929 . S
H528 C542 0.931 . S
H529 C544 0.930 . S
C530 H518 0.930 . S
C530 C531 1.399 . S
C530 C535 1.399 . S
C531 C530 1.399 . S
C531 C532 1.376 . S
C532 H519 0.930 . S
C532 C531 1.376 . S
C532 C533 1.388 . S
C533 H520 0.930 . S
C533 C532 1.388 . S
C533 C534 1.390 . S
C534 C533 1.390 . S
C534 C535 1.394 . S
C534 C540 1.465 . S
C535 C530 1.399 . S
C535 C534 1.394 . S
C535 C536 1.516 . S
C536 C535 1.516 . S
C536 C537 1.502 . S
C536 C538 1.561 . S
C536 C539 1.526 . S
C537 H521 0.959 . S
C537 H522 0.959 . S
C537 H523 0.961 . S
C537 C536 1.502 . S
C538 H524 0.960 . S
C538 H525 0.961 . S
C538 H526 0.959 . S
C538 C536 1.561 . S
C539 C536 1.526 . S
C539 C540 1.396 . S
C539 C544 1.390 . S
C540 C534 1.465 . S
C540 C539 1.396 . S
C540 C541 1.399 . S
C541 H527 0.929 . S
C541 C540 1.399 . S
C541 C542 1.385 . S
C542 H528 0.931 . S
C542 C541 1.385 . S
C542 C543 1.389 . S
C543 C542 1.389 . S
C543 C544 1.387 . S
C544 H529 0.930 . S
C544 C539 1.390 . S
C544 C543 1.387 . S
H545 C557 0.930 . S
H546 C559 0.930 . S
H547 C560 0.930 . S
H548 C564 0.959 . S
H549 C564 0.959 . S
H550 C564 0.961 . S
H551 C565 0.960 . S
H552 C565 0.961 . S
H553 C565 0.959 . S
H554 C568 0.929 . S
H555 C569 0.931 . S
H556 C571 0.930 . S
C557 H545 0.930 . S
C557 C558 1.399 . S
C557 C562 1.399 . S
C558 C557 1.399 . S
C558 C559 1.376 . S
C559 H546 0.930 . S
C559 C558 1.376 . S
C559 C560 1.388 . S
C560 H547 0.930 . S
C560 C559 1.388 . S
C560 C561 1.390 . S
C561 C560 1.390 . S
C561 C562 1.394 . S
C561 C567 1.465 . S
C562 C557 1.399 . S
C562 C561 1.394 . S
C562 C563 1.516 . S
C563 C562 1.516 . S
C563 C564 1.502 . S
C563 C565 1.561 . S
C563 C566 1.526 . S
C564 H548 0.959 . S
C564 H549 0.959 . S
C564 H550 0.961 . S
C564 C563 1.502 . S
C565 H551 0.960 . S
C565 H552 0.961 . S
C565 H553 0.959 . S
C565 C563 1.561 . S
C566 C563 1.526 . S
C566 C567 1.396 . S
C566 C571 1.390 . S
C567 C561 1.465 . S
C567 C566 1.396 . S
C567 C568 1.399 . S
C568 H554 0.929 . S
C568 C567 1.399 . S
C568 C569 1.385 . S
C569 H555 0.931 . S
C569 C568 1.385 . S
C569 C570 1.389 . S
C570 C569 1.389 . S
C570 C571 1.387 . S
C571 H556 0.930 . S
C571 C566 1.390 . S
C571 C570 1.387 . S
H572 C584 0.930 . S
H573 C586 0.930 . S
H574 C587 0.930 . S
H575 C591 0.959 . S
H576 C591 0.959 . S
H577 C591 0.961 . S
H578 C592 0.960 . S
H579 C592 0.961 . S
H580 C592 0.959 . S
H581 C595 0.929 . S
H582 C596 0.931 . S
H583 C598 0.930 . S
C584 H572 0.930 . S
C584 C585 1.399 . S
C584 C589 1.399 . S
C585 C584 1.399 . S
C585 C586 1.376 . S
C586 H573 0.930 . S
C586 C585 1.376 . S
C586 C587 1.388 . S
C587 H574 0.930 . S
C587 C586 1.388 . S
C587 C588 1.390 . S
C588 C587 1.390 . S
C588 C589 1.394 . S
C588 C594 1.465 . S
C589 C584 1.399 . S
C589 C588 1.394 . S
C589 C590 1.516 . S
C590 C589 1.516 . S
C590 C591 1.502 . S
C590 C592 1.561 . S
C590 C593 1.526 . S
C591 H575 0.959 . S
C591 H576 0.959 . S
C591 H577 0.961 . S
C591 C590 1.502 . S
C592 H578 0.960 . S
C592 H579 0.961 . S
C592 H580 0.959 . S
C592 C590 1.561 . S
C593 C590 1.526 . S
C593 C594 1.396 . S
C593 C598 1.390 . S
C594 C588 1.465 . S
C594 C593 1.396 . S
C594 C595 1.399 . S
C595 H581 0.929 . S
C595 C594 1.399 . S
C595 C596 1.385 . S
C596 H582 0.931 . S
C596 C595 1.385 . S
C596 C597 1.389 . S
C597 C596 1.389 . S
C597 C598 1.387 . S
C598 H583 0.930 . S
C598 C593 1.390 . S
C598 C597 1.387 . S
H599 C611 0.930 . S
H600 C613 0.930 . S
H601 C614 0.930 . S
H602 C618 0.959 . S
H603 C618 0.959 . S
H604 C618 0.961 . S
H605 C619 0.960 . S
H606 C619 0.961 . S
H607 C619 0.959 . S
H608 C622 0.929 . S
H609 C623 0.931 . S
H610 C625 0.930 . S
C611 H599 0.930 . S
C611 C612 1.399 . S
C611 C616 1.399 . S
C612 C611 1.399 . S
C612 C613 1.376 . S
C613 H600 0.930 . S
C613 C612 1.376 . S
C613 C614 1.388 . S
C614 H601 0.930 . S
C614 C613 1.388 . S
C614 C615 1.390 . S
C615 C614 1.390 . S
C615 C616 1.394 . S
C615 C621 1.465 . S
C616 C611 1.399 . S
C616 C615 1.394 . S
C616 C617 1.516 . S
C617 C616 1.516 . S
C617 C618 1.502 . S
C617 C619 1.561 . S
C617 C620 1.526 . S
C618 H602 0.959 . S
C618 H603 0.959 . S
C618 H604 0.961 . S
C618 C617 1.502 . S
C619 H605 0.960 . S
C619 H606 0.961 . S
C619 H607 0.959 . S
C619 C617 1.561 . S
C620 C617 1.526 . S
C620 C621 1.396 . S
C620 C625 1.390 . S
C621 C615 1.465 . S
C621 C620 1.396 . S
C621 C622 1.399 . S
C622 H608 0.929 . S
C622 C621 1.399 . S
C622 C623 1.385 . S
C623 H609 0.931 . S
C623 C622 1.385 . S
C623 C624 1.389 . S
C624 C623 1.389 . S
C624 C625 1.387 . S
C625 H610 0.930 . S
C625 C620 1.390 . S
C625 C624 1.387 . S
H626 C638 0.930 . S
H627 C640 0.930 . S
H628 C641 0.930 . S
H629 C645 0.959 . S
H630 C645 0.959 . S
H631 C645 0.961 . S
H632 C646 0.960 . S
H633 C646 0.961 . S
H634 C646 0.959 . S
H635 C649 0.929 . S
H636 C650 0.931 . S
H637 C652 0.930 . S
C638 H626 0.930 . S
C638 C639 1.399 . S
C638 C643 1.399 . S
C639 C638 1.399 . S
C639 C640 1.376 . S
C640 H627 0.930 . S
C640 C639 1.376 . S
C640 C641 1.388 . S
C641 H628 0.930 . S
C641 C640 1.388 . S
C641 C642 1.390 . S
C642 C641 1.390 . S
C642 C643 1.394 . S
C642 C648 1.465 . S
C643 C638 1.399 . S
C643 C642 1.394 . S
C643 C644 1.516 . S
C644 C643 1.516 . S
C644 C645 1.502 . S
C644 C646 1.561 . S
C644 C647 1.526 . S
C645 H629 0.959 . S
C645 H630 0.959 . S
C645 H631 0.961 . S
C645 C644 1.502 . S
C646 H632 0.960 . S
C646 H633 0.961 . S
C646 H634 0.959 . S
C646 C644 1.561 . S
C647 C644 1.526 . S
C647 C648 1.396 . S
C647 C652 1.390 . S
C648 C642 1.465 . S
C648 C647 1.396 . S
C648 C649 1.399 . S
C649 H635 0.929 . S
C649 C648 1.399 . S
C649 C650 1.385 . S
C650 H636 0.931 . S
C650 C649 1.385 . S
C650 C651 1.389 . S
C651 C650 1.389 . S
C651 C652 1.387 . S
C652 H637 0.930 . S
C652 C647 1.390 . S
C652 C651 1.387 . S
H653 C665 0.930 . S
H654 C667 0.930 . S
H655 C668 0.930 . S
H656 C672 0.959 . S
H657 C672 0.959 . S
H658 C672 0.961 . S
H659 C673 0.960 . S
H660 C673 0.961 . S
H661 C673 0.959 . S
H662 C676 0.929 . S
H663 C677 0.931 . S
H664 C679 0.930 . S
C665 H653 0.930 . S
C665 C666 1.399 . S
C665 C670 1.399 . S
C666 C665 1.399 . S
C666 C667 1.376 . S
C667 H654 0.930 . S
C667 C666 1.376 . S
C667 C668 1.388 . S
C668 H655 0.930 . S
C668 C667 1.388 . S
C668 C669 1.390 . S
C669 C668 1.390 . S
C669 C670 1.394 . S
C669 C675 1.465 . S
C670 C665 1.399 . S
C670 C669 1.394 . S
C670 C671 1.516 . S
C671 C670 1.516 . S
C671 C672 1.502 . S
C671 C673 1.561 . S
C671 C674 1.526 . S
C672 H656 0.959 . S
C672 H657 0.959 . S
C672 H658 0.961 . S
C672 C671 1.502 . S
C673 H659 0.960 . S
C673 H660 0.961 . S
C673 H661 0.959 . S
C673 C671 1.561 . S
C674 C671 1.526 . S
C674 C675 1.396 . S
C674 C679 1.390 . S
C675 C669 1.465 . S
C675 C674 1.396 . S
C675 C676 1.399 . S
C676 H662 0.929 . S
C676 C675 1.399 . S
C676 C677 1.385 . S
C677 H663 0.931 . S
C677 C676 1.385 . S
C677 C678 1.389 . S
C678 C677 1.389 . S
C678 C679 1.387 . S
C679 H664 0.930 . S
C679 C674 1.390 . S
C679 C678 1.387 . S
H680 C692 0.930 . S
H681 C694 0.930 . S
H682 C695 0.930 . S
H683 C699 0.959 . S
H684 C699 0.959 . S
H685 C699 0.961 . S
H686 C700 0.960 . S
H687 C700 0.961 . S
H688 C700 0.959 . S
H689 C703 0.929 . S
H690 C704 0.931 1_554 S
H691 C706 0.930 . S
C692 H680 0.930 . S
C692 C693 1.399 . S
C692 C697 1.399 . S
C693 C692 1.399 . S
C693 C694 1.376 . S
C694 H681 0.930 . S
C694 C693 1.376 . S
C694 C695 1.388 . S
C695 H682 0.930 . S
C695 C694 1.388 . S
C695 C696 1.390 . S
C696 C695 1.390 . S
C696 C697 1.394 . S
C696 C702 1.465 . S
C697 C692 1.399 . S
C697 C696 1.394 . S
C697 C698 1.516 . S
C698 C697 1.516 . S
C698 C699 1.502 . S
C698 C700 1.561 . S
C698 C701 1.526 . S
C699 H683 0.959 . S
C699 H684 0.959 . S
C699 H685 0.961 . S
C699 C698 1.502 . S
C700 H686 0.960 . S
C700 H687 0.961 . S
C700 H688 0.959 . S
C700 C698 1.561 . S
C701 C698 1.526 . S
C701 C702 1.396 . S
C701 C706 1.390 . S
C702 C696 1.465 . S
C702 C701 1.396 . S
C702 C703 1.399 . S
C703 H689 0.929 . S
C703 C702 1.399 . S
C703 C704 1.385 . S
C704 H690 0.931 1_556 S
C704 C703 1.385 . S
C704 C705 1.389 . S
C705 C704 1.389 . S
C705 C706 1.387 . S
C706 H691 0.930 . S
C706 C701 1.390 . S
C706 C705 1.387 . S
H707 C719 0.930 . S
H708 C721 0.930 . S
H709 C722 0.930 . S
H710 C726 0.959 . S
H711 C726 0.959 . S
H712 C726 0.961 . S
H713 C727 0.960 . S
H714 C727 0.961 . S
H715 C727 0.959 . S
H716 C730 0.929 . S
H717 C731 0.931 . S
H718 C733 0.930 . S
C719 H707 0.930 . S
C719 C720 1.399 . S
C719 C724 1.399 . S
C720 C719 1.399 . S
C720 C721 1.376 . S
C721 H708 0.930 . S
C721 C720 1.376 . S
C721 C722 1.388 . S
C722 H709 0.930 . S
C722 C721 1.388 . S
C722 C723 1.390 . S
C723 C722 1.390 . S
C723 C724 1.394 . S
C723 C729 1.465 . S
C724 C719 1.399 . S
C724 C723 1.394 . S
C724 C725 1.516 . S
C725 C724 1.516 . S
C725 C726 1.502 . S
C725 C727 1.561 . S
C725 C728 1.526 . S
C726 H710 0.959 . S
C726 H711 0.959 . S
C726 H712 0.961 . S
C726 C725 1.502 . S
C727 H713 0.960 . S
C727 H714 0.961 . S
C727 H715 0.959 . S
C727 C725 1.561 . S
C728 C725 1.526 . S
C728 C729 1.396 . S
C728 C733 1.390 . S
C729 C723 1.465 . S
C729 C728 1.396 . S
C729 C730 1.399 . S
C730 H716 0.929 . S
C730 C729 1.399 . S
C730 C731 1.385 . S
C731 H717 0.931 . S
C731 C730 1.385 . S
C731 C732 1.389 . S
C732 C731 1.389 . S
C732 C733 1.387 . S
C733 H718 0.930 . S
C733 C728 1.390 . S
C733 C732 1.387 . S
H734 C746 0.930 . S
H735 C748 0.930 . S
H736 C749 0.930 . S
H737 C753 0.959 . S
H738 C753 0.959 . S
H739 C753 0.961 . S
H740 C754 0.960 . S
H741 C754 0.961 . S
H742 C754 0.959 . S
H743 C757 0.929 . S
H744 C758 0.931 . S
H745 C760 0.930 . S
C746 H734 0.930 . S
C746 C747 1.399 . S
C746 C751 1.399 . S
C747 C746 1.399 . S
C747 C748 1.376 . S
C748 H735 0.930 . S
C748 C747 1.376 . S
C748 C749 1.388 . S
C749 H736 0.930 . S
C749 C748 1.388 . S
C749 C750 1.390 . S
C750 C749 1.390 . S
C750 C751 1.394 . S
C750 C756 1.465 . S
C751 C746 1.399 . S
C751 C750 1.394 . S
C751 C752 1.516 . S
C752 C751 1.516 . S
C752 C753 1.502 . S
C752 C754 1.561 . S
C752 C755 1.526 . S
C753 H737 0.959 . S
C753 H738 0.959 . S
C753 H739 0.961 . S
C753 C752 1.502 . S
C754 H740 0.960 . S
C754 H741 0.961 . S
C754 H742 0.959 . S
C754 C752 1.561 . S
C755 C752 1.526 . S
C755 C756 1.396 . S
C755 C760 1.390 . S
C756 C750 1.465 . S
C756 C755 1.396 . S
C756 C757 1.399 . S
C757 H743 0.929 . S
C757 C756 1.399 . S
C757 C758 1.385 . S
C758 H744 0.931 . S
C758 C757 1.385 . S
C758 C759 1.389 . S
C759 C758 1.389 . S
C759 C760 1.387 . S
C760 H745 0.930 . S
C760 C755 1.390 . S
C760 C759 1.387 . S
H761 C773 0.930 . S
H762 C775 0.930 . S
H763 C776 0.930 . S
H764 C780 0.959 . S
H765 C780 0.959 . S
H766 C780 0.961 . S
H767 C781 0.960 . S
H768 C781 0.961 . S
H769 C781 0.959 . S
H770 C784 0.929 . S
H771 C785 0.931 . S
H772 C787 0.930 . S
C773 H761 0.930 . S
C773 C774 1.399 . S
C773 C778 1.399 . S
C774 C773 1.399 . S
C774 C775 1.376 . S
C775 H762 0.930 . S
C775 C774 1.376 . S
C775 C776 1.388 . S
C776 H763 0.930 . S
C776 C775 1.388 . S
C776 C777 1.390 . S
C777 C776 1.390 . S
C777 C778 1.394 . S
C777 C783 1.465 . S
C778 C773 1.399 . S
C778 C777 1.394 . S
C778 C779 1.516 . S
C779 C778 1.516 . S
C779 C780 1.502 . S
C779 C781 1.561 . S
C779 C782 1.526 . S
C780 H764 0.959 . S
C780 H765 0.959 . S
C780 H766 0.961 . S
C780 C779 1.502 . S
C781 H767 0.960 . S
C781 H768 0.961 . S
C781 H769 0.959 . S
C781 C779 1.561 . S
C782 C779 1.526 . S
C782 C783 1.396 . S
C782 C787 1.390 . S
C783 C777 1.465 . S
C783 C782 1.396 . S
C783 C784 1.399 . S
C784 H770 0.929 . S
C784 C783 1.399 . S
C784 C785 1.385 . S
C785 H771 0.931 . S
C785 C784 1.385 . S
C785 C786 1.389 . S
C786 C785 1.389 . S
C786 C787 1.387 . S
C787 H772 0.930 . S
C787 C782 1.390 . S
C787 C786 1.387 . S
H788 C800 0.930 . S
H789 C802 0.930 . S
H790 C803 0.930 . S
H791 C807 0.959 . S
H792 C807 0.959 . S
H793 C807 0.961 . S
H794 C808 0.960 . S
H795 C808 0.961 . S
H796 C808 0.959 . S
H797 C811 0.929 . S
H798 C812 0.931 . S
H799 C814 0.930 . S
C800 H788 0.930 . S
C800 C801 1.399 . S
C800 C805 1.399 . S
C801 C800 1.399 . S
C801 C802 1.376 . S
C802 H789 0.930 . S
C802 C801 1.376 . S
C802 C803 1.388 . S
C803 H790 0.930 . S
C803 C802 1.388 . S
C803 C804 1.390 . S
C804 C803 1.390 . S
C804 C805 1.394 . S
C804 C810 1.465 . S
C805 C800 1.399 . S
C805 C804 1.394 . S
C805 C806 1.516 . S
C806 C805 1.516 . S
C806 C807 1.502 . S
C806 C808 1.561 . S
C806 C809 1.526 . S
C807 H791 0.959 . S
C807 H792 0.959 . S
C807 H793 0.961 . S
C807 C806 1.502 . S
C808 H794 0.960 . S
C808 H795 0.961 . S
C808 H796 0.959 . S
C808 C806 1.561 . S
C809 C806 1.526 . S
C809 C810 1.396 . S
C809 C814 1.390 . S
C810 C804 1.465 . S
C810 C809 1.396 . S
C810 C811 1.399 . S
C811 H797 0.929 . S
C811 C810 1.399 . S
C811 C812 1.385 . S
C812 H798 0.931 . S
C812 C811 1.385 . S
C812 C813 1.389 . S
C813 C812 1.389 . S
C813 C814 1.387 . S
C814 H799 0.930 . S
C814 C809 1.390 . S
C814 C813 1.387 . S
H815 C827 0.930 . S
H816 C829 0.930 . S
H817 C830 0.930 . S
H818 C834 0.959 . S
H819 C834 0.959 . S
H820 C834 0.961 . S
H821 C835 0.960 . S
H822 C835 0.961 . S
H823 C835 0.959 . S
H824 C838 0.929 . S
H825 C839 0.931 . S
H826 C841 0.930 . S
C827 H815 0.930 . S
C827 C828 1.399 . S
C827 C832 1.399 . S
C828 C827 1.399 . S
C828 C829 1.376 . S
C829 H816 0.930 . S
C829 C828 1.376 . S
C829 C830 1.388 . S
C830 H817 0.930 . S
C830 C829 1.388 . S
C830 C831 1.390 . S
C831 C830 1.390 . S
C831 C832 1.394 . S
C831 C837 1.465 . S
C832 C827 1.399 . S
C832 C831 1.394 . S
C832 C833 1.516 . S
C833 C832 1.516 . S
C833 C834 1.502 . S
C833 C835 1.561 . S
C833 C836 1.526 . S
C834 H818 0.959 . S
C834 H819 0.959 . S
C834 H820 0.961 . S
C834 C833 1.502 . S
C835 H821 0.960 . S
C835 H822 0.961 . S
C835 H823 0.959 . S
C835 C833 1.561 . S
C836 C833 1.526 . S
C836 C837 1.396 . S
C836 C841 1.390 . S
C837 C831 1.465 . S
C837 C836 1.396 . S
C837 C838 1.399 . S
C838 H824 0.929 . S
C838 C837 1.399 . S
C838 C839 1.385 . S
C839 H825 0.931 . S
C839 C838 1.385 . S
C839 C840 1.389 . S
C840 C839 1.389 . S
C840 C841 1.387 . S
C841 H826 0.930 . S
C841 C836 1.390 . S
C841 C840 1.387 . S
H842 C854 0.930 . S
H843 C856 0.930 . S
H844 C857 0.930 . S
H845 C861 0.959 . S
H846 C861 0.959 . S
H847 C861 0.961 . S
H848 C862 0.960 . S
H849 C862 0.961 . S
H850 C862 0.959 . S
H851 C865 0.929 . S
H852 C866 0.931 . S
H853 C868 0.930 . S
C854 H842 0.930 . S
C854 C855 1.399 . S
C854 C859 1.399 . S
C855 C854 1.399 . S
C855 C856 1.376 . S
C856 H843 0.930 . S
C856 C855 1.376 . S
C856 C857 1.388 . S
C857 H844 0.930 . S
C857 C856 1.388 . S
C857 C858 1.390 . S
C858 C857 1.390 . S
C858 C859 1.394 . S
C858 C864 1.465 . S
C859 C854 1.399 . S
C859 C858 1.394 . S
C859 C860 1.516 . S
C860 C859 1.516 . S
C860 C861 1.502 . S
C860 C862 1.561 . S
C860 C863 1.526 . S
C861 H845 0.959 . S
C861 H846 0.959 . S
C861 H847 0.961 . S
C861 C860 1.502 . S
C862 H848 0.960 . S
C862 H849 0.961 . S
C862 H850 0.959 . S
C862 C860 1.561 . S
C863 C860 1.526 . S
C863 C864 1.396 . S
C863 C868 1.390 . S
C864 C858 1.465 . S
C864 C863 1.396 . S
C864 C865 1.399 . S
C865 H851 0.929 . S
C865 C864 1.399 . S
C865 C866 1.385 . S
C866 H852 0.931 . S
C866 C865 1.385 . S
C866 C867 1.389 . S
C867 C866 1.389 . S
C867 C868 1.387 . S
C868 H853 0.930 . S
C868 C863 1.390 . S
C868 C867 1.387 . S
H869 C881 0.930 . S
H870 C883 0.930 . S
H871 C884 0.930 . S
H872 C888 0.959 . S
H873 C888 0.959 . S
H874 C888 0.961 . S
H875 C889 0.960 . S
H876 C889 0.961 . S
H877 C889 0.959 . S
H878 C892 0.929 . S
H879 C893 0.931 . S
H880 C895 0.930 . S
C881 H869 0.930 . S
C881 C882 1.399 . S
C881 C886 1.399 . S
C882 C881 1.399 . S
C882 C883 1.376 . S
C883 H870 0.930 . S
C883 C882 1.376 . S
C883 C884 1.388 . S
C884 H871 0.930 . S
C884 C883 1.388 . S
C884 C885 1.390 . S
C885 C884 1.390 . S
C885 C886 1.394 . S
C885 C891 1.465 . S
C886 C881 1.399 . S
C886 C885 1.394 . S
C886 C887 1.516 . S
C887 C886 1.516 . S
C887 C888 1.502 . S
C887 C889 1.561 . S
C887 C890 1.526 . S
C888 H872 0.959 . S
C888 H873 0.959 . S
C888 H874 0.961 . S
C888 C887 1.502 . S
C889 H875 0.960 . S
C889 H876 0.961 . S
C889 H877 0.959 . S
C889 C887 1.561 . S
C890 C887 1.526 . S
C890 C891 1.396 . S
C890 C895 1.390 . S
C891 C885 1.465 . S
C891 C890 1.396 . S
C891 C892 1.399 . S
C892 H878 0.929 . S
C892 C891 1.399 . S
C892 C893 1.385 . S
C893 H879 0.931 . S
C893 C892 1.385 . S
C893 C894 1.389 . S
C894 C893 1.389 . S
C894 C895 1.387 . S
C895 H880 0.930 . S
C895 C890 1.390 . S
C895 C894 1.387 . S
C261 C4 1.122 . S
C273 C95 1.107 . S
C288 C16 1.225 . S
C300 C144 1.296 . S
C327 C170 2.012 . S
C315 C32 2.063 . S
C342 C43 2.262 . S
C354 C218 2.220 1_655 S
C381 C130 2.635 . S
C369 C5 2.529 . S
C408 C98 0.452 . S
C396 C21 0.564 . S
C435 C219 1.876 . S
C423 C27 1.899 . S
C462 C187 1.568 . S
C450 C37 1.572 . S
C477 C10 1.446 . S
C489 C215 1.501 . S
C516 C147 2.484 1_556 S
C504 C26 2.576 . S
C531 C38 2.080 . S
C543 C99 2.061 . S
C558 C15 1.108 . S
C570 C184 1.050 . S
C597 C104 1.289 . S
C585 C48 1.300 . S
C612 C59 1.102 . S
C624 C135 1.034 . S
C639 C76 2.428 . S
C651 C179 2.381 . S
C666 C87 2.085 . S
C678 C227 2.064 . S
C693 C54 1.933 . S
C705 C139 1.995 1_556 S
C732 C107 1.464 . S
C720 C60 1.436 . S
C759 C210 1.756 . S
C747 C71 1.780 . S
C786 C178 1.512 . S
C774 C82 1.575 . S
C801 C49 1.691 . S
C813 C224 1.798 . S
C840 C138 1.974 . S
C828 C70 2.030 . S
C867 C90 2.505 . S
C855 C81 2.520 . S
C882 C65 0.889 . S
C894 C175 0.946 . S
