# Generated by pormake.
# Topology llj, (12,3)-cn, num edge types: 1
# Building blocks:
#     Node 0, Type 0, BuildingBlock: QEWDON_clean_sbu_0, # of connection points: 12
#     Node 1, Type 0, BuildingBlock: QEWDON_clean_sbu_0, # of connection points: 12
#     Node 2, Type 1, BuildingBlock: MIDCAF_clean_linker_0, # of connection points: 3
#     Node 3, Type 1, BuildingBlock: MIDCAF_clean_linker_0, # of connection points: 3
#     Node 4, Type 1, BuildingBlock: MIDCAF_clean_linker_0, # of connection points: 3
#     Node 5, Type 1, BuildingBlock: MIDCAF_clean_linker_0, # of connection points: 3
#     Node 6, Type 1, BuildingBlock: MIDCAF_clean_linker_0, # of connection points: 3
#     Node 7, Type 1, BuildingBlock: MIDCAF_clean_linker_0, # of connection points: 3
#     Node 8, Type 1, BuildingBlock: MIDCAF_clean_linker_0, # of connection points: 3
#     Node 9, Type 1, BuildingBlock: MIDCAF_clean_linker_0, # of connection points: 3
#     Edge 10, Type (0, 1), BuildingBlock: OJICUG_clean_linker_0, # of connection points: 2
#     Edge 11, Type (0, 1), BuildingBlock: OJICUG_clean_linker_0, # of connection points: 2
#     Edge 12, Type (0, 1), BuildingBlock: OJICUG_clean_linker_0, # of connection points: 2
#     Edge 13, Type (0, 1), BuildingBlock: OJICUG_clean_linker_0, # of connection points: 2
#     Edge 14, Type (0, 1), BuildingBlock: OJICUG_clean_linker_0, # of connection points: 2
#     Edge 15, Type (0, 1), BuildingBlock: OJICUG_clean_linker_0, # of connection points: 2
#     Edge 16, Type (0, 1), BuildingBlock: OJICUG_clean_linker_0, # of connection points: 2
#     Edge 17, Type (0, 1), BuildingBlock: OJICUG_clean_linker_0, # of connection points: 2
#     Edge 18, Type (0, 1), BuildingBlock: OJICUG_clean_linker_0, # of connection points: 2
#     Edge 19, Type (0, 1), BuildingBlock: OJICUG_clean_linker_0, # of connection points: 2
#     Edge 20, Type (0, 1), BuildingBlock: OJICUG_clean_linker_0, # of connection points: 2
#     Edge 21, Type (0, 1), BuildingBlock: OJICUG_clean_linker_0, # of connection points: 2
#     Edge 22, Type (0, 1), BuildingBlock: OJICUG_clean_linker_0, # of connection points: 2
#     Edge 23, Type (0, 1), BuildingBlock: OJICUG_clean_linker_0, # of connection points: 2
#     Edge 24, Type (0, 1), BuildingBlock: OJICUG_clean_linker_0, # of connection points: 2
#     Edge 25, Type (0, 1), BuildingBlock: OJICUG_clean_linker_0, # of connection points: 2
#     Edge 26, Type (0, 1), BuildingBlock: OJICUG_clean_linker_0, # of connection points: 2
#     Edge 27, Type (0, 1), BuildingBlock: OJICUG_clean_linker_0, # of connection points: 2
#     Edge 28, Type (0, 1), BuildingBlock: OJICUG_clean_linker_0, # of connection points: 2
#     Edge 29, Type (0, 1), BuildingBlock: OJICUG_clean_linker_0, # of connection points: 2
#     Edge 30, Type (0, 1), BuildingBlock: OJICUG_clean_linker_0, # of connection points: 2
#     Edge 31, Type (0, 1), BuildingBlock: OJICUG_clean_linker_0, # of connection points: 2
#     Edge 32, Type (0, 1), BuildingBlock: OJICUG_clean_linker_0, # of connection points: 2
#     Edge 33, Type (0, 1), BuildingBlock: OJICUG_clean_linker_0, # of connection points: 2
# Relax obj value: 0.011
# Max RMSD: 0.058
# Mean RMSD: 0.054
data_MOF--net-llj--node1-QEWDON_clean_sbu_0--node2-MIDCAF_clean_linker_0--edge1-OJICUG_clean_linker_0
_symmetry_space_group_name_H-M    P1
_symmetry_Int_Tables_number       1
_symmetry_cell_setting            triclinic
loop_
_symmetry_equiv_pos_as_xyz
'x, y, z'
_cell_length_a     36.027024
_cell_length_b     35.988929
_cell_length_c     25.246132
_cell_angle_alpha  89.875052
_cell_angle_beta   90.00348
_cell_angle_gamma 89.990919
loop_
_atom_site_label
_atom_site_type_symbol
_atom_site_fract_x
_atom_site_fract_y
_atom_site_fract_z
_atom_type_partial_charge
Zn0 Zn 0.93502 0.07239 0.94494 0.0
Zn1 Zn 0.9359 0.06904 0.0698 0.0
O2 O 0.9691 0.06501 0.00733 0.0
H3 H 0.99066 0.04919 0.00479 0.0
C4 C 0.90793 0.99224 0.8763 0.0
O5 O 0.89588 0.00278 0.92303 0.0
Zn6 Zn 0.06532 0.93052 0.07061 0.0
Zn7 Zn 0.0668 0.93063 0.94627 0.0
O8 O 0.03248 0.93595 0.00824 0.0
H9 H 0.01075 0.95156 0.00655 0.0
Zn10 Zn 0.93312 0.934 0.94336 0.0
O11 O 0.93881 0.96839 0.00609 0.0
Zn12 Zn 0.93284 0.93549 0.06877 0.0
H13 H 0.9542 0.99031 0.00441 0.0
Zn14 Zn 0.06933 0.06505 0.947 0.0
O15 O 0.06343 0.03047 0.00934 0.0
H16 H 0.04768 0.00886 0.00702 0.0
Zn17 Zn 0.06842 0.06338 0.07193 0.0
C18 C 0.09511 0.00792 0.87919 0.0
O19 O 0.10857 0.99787 0.92543 0.0
O20 O 0.88798 0.10223 0.96277 0.0
O21 O 0.89113 0.10162 0.05086 0.0
O22 O 0.1137 0.90019 0.96297 0.0
O23 O 0.1106 0.89901 0.05101 0.0
O24 O 0.90241 0.88718 0.96025 0.0
O25 O 0.90023 0.89115 0.04824 0.0
C26 C -0.0002 0.08863 0.13126 0.0
O27 O 0.10017 0.11147 0.96446 0.0
O28 O 0.10137 0.10783 0.05251 0.0
O29 O 0.03835 0.92205 0.87703 0.0
C30 C 0.87528 0.11171 0.00788 0.0
O31 O 0.96254 0.08132 0.8745 0.0
C32 C 0.001 0.90833 0.12958 0.0
O33 O 0.92501 0.96148 0.87239 0.0
C34 C 0.12648 0.88986 0.00769 0.0
O35 O 0.0769 0.03802 0.87586 0.0
C36 C 0.91179 -6e-05 0.12885 0.0
O37 O 0.96454 0.08974 0.13244 0.0
O38 O 0.01555 0.07785 0.08897 0.0
C39 C 0.89127 0.87505 0.005 0.0
O40 O 0.03627 0.90745 0.1309 0.0
O41 O 0.98533 0.92078 0.08807 0.0
C42 C 0.08828 0.99891 0.13267 0.0
O43 O 0.91133 0.96463 0.13046 0.0
O44 O 0.92214 0.01577 0.08631 0.0
C45 C 0.11078 0.12378 0.00926 0.0
O46 O 0.08886 0.03421 0.13444 0.0
O47 O 0.07846 0.98341 0.08974 0.0
C48 C 0.00967 0.90171 0.8806 0.0
O49 O 0.00142 0.88637 0.92638 0.0
C50 C 0.99353 0.09785 0.8785 0.0
O51 O 0.0045 0.10928 0.92534 0.0
Zn52 Zn 0.43483 0.5748 0.44548 0.0
Zn53 Zn 0.43527 0.57059 0.57064 0.0
O54 O 0.4684 0.56643 0.50805 0.0
H55 H 0.48973 0.55032 0.50533 0.0
C56 C 0.40581 0.49577 0.37771 0.0
O57 O 0.39416 0.50684 0.42441 0.0
Zn58 Zn 0.56331 0.42822 0.5694 0.0
Zn59 Zn 0.56477 0.42648 0.44411 0.0
O60 O 0.53071 0.43365 0.50645 0.0
H61 H 0.50913 0.44947 0.50436 0.0
Zn62 Zn 0.42942 0.43684 0.44477 0.0
O63 O 0.43722 0.47047 0.50759 0.0
Zn64 Zn 0.43097 0.43719 0.56984 0.0
H65 H 0.45385 0.49146 0.50583 0.0
Zn66 Zn 0.56851 0.56375 0.44672 0.0
O67 O 0.56097 0.52921 0.50886 0.0
H68 H 0.54484 0.50786 0.5065 0.0
Zn69 Zn 0.56712 0.56151 0.5719 0.0
C70 C 0.59405 0.50618 0.37936 0.0
O71 O 0.60616 0.49543 0.42604 0.0
O72 O 0.38779 0.6045 0.46359 0.0
O73 O 0.39048 0.60321 0.55171 0.0
O74 O 0.61134 0.39601 0.46219 0.0
O75 O 0.60819 0.39574 0.55032 0.0
O76 O 0.3977 0.39088 0.46189 0.0
O77 O 0.39712 0.39362 0.54997 0.0
C78 C 0.49934 0.58892 0.63225 0.0
O79 O 0.59992 0.60969 0.46506 0.0
O80 O 0.60084 0.60534 0.55301 0.0
O81 O 0.53738 0.41841 0.37331 0.0
C82 C 0.37483 0.61359 0.50871 0.0
O83 O 0.46259 0.58379 0.37518 0.0
C84 C 0.49861 0.4092 0.62965 0.0
O85 O 0.422 0.46456 0.37397 0.0
C86 C 0.624 0.38602 0.50716 0.0
O87 O 0.57674 0.5368 0.37566 0.0
C88 C 0.41134 0.50175 0.63028 0.0
O89 O 0.46414 0.59117 0.63316 0.0
O90 O 0.5148 0.57718 0.59025 0.0
C91 C 0.38714 0.37829 0.50663 0.0
O92 O 0.53381 0.40692 0.63088 0.0
O93 O 0.48329 0.42108 0.58755 0.0
C94 C 0.58694 0.49629 0.63117 0.0
O95 O 0.41069 0.46645 0.63211 0.0
O96 O 0.42136 0.51741 0.58745 0.0
C97 C 0.61058 0.62149 0.51011 0.0
O98 O 0.58751 0.53156 0.63344 0.0
O99 O 0.57722 0.48103 0.58798 0.0
C100 C 0.50591 0.4028 0.37735 0.0
O101 O 0.49455 0.39178 0.42427 0.0
C102 C 0.49405 0.59939 0.3794 0.0
O103 O 0.50543 0.61 0.42645 0.0
C104 C 0.41063 0.4104 0.15253 0.0
C105 C 0.40946 0.38584 0.19591 0.0
C106 C 0.38565 0.35488 0.19354 0.0
C107 C 0.36443 0.34804 0.14841 0.0
H108 H 0.25752 0.30922 0.08885 0.0
H109 H 0.20759 0.26364 0.08997 0.0
H110 H 0.23304 0.23427 0.928 0.0
H111 H 0.28185 0.28075 0.92625 0.0
H112 H 0.34511 0.32404 0.86543 0.0
H113 H 0.38112 0.33586 0.78577 0.0
H114 H 0.4346 0.42884 0.8625 0.0
H115 H 0.39952 0.41616 0.94296 0.0
H116 H 0.39221 0.42197 0.07357 0.0
H117 H 0.42791 0.43501 0.15343 0.0
H118 H 0.38439 0.33498 0.2257 0.0
H119 H 0.34737 0.32327 0.14729 0.0
N120 N 0.31939 0.3378 0.05376 0.0
N121 N 0.32097 0.33601 0.96093 0.0
N122 N 0.36415 0.37211 0.00736 0.0
C123 C 0.30502 0.32533 0.00732 0.0
C124 C 0.35041 0.3596 0.96068 0.0
C125 C 0.34889 0.36128 0.05399 0.0
C126 C 0.27375 0.29863 0.00748 0.0
C127 C 0.25231 0.29317 0.05337 0.0
C128 C 0.22378 0.26686 0.05411 0.0
C129 C 0.21626 0.2451 0.00915 0.0
C130 C 0.2375 0.25092 0.9631 0.0
C131 C 0.26572 0.2775 0.96217 0.0
C132 C 0.36955 0.36904 0.91064 0.0
C133 C 0.36428 0.34722 0.86521 0.0
C134 C 0.38491 0.35407 0.81942 0.0
C135 C 0.41094 0.38318 0.81782 0.0
C136 C 0.41537 0.4057 0.86277 0.0
C137 C 0.39503 0.3986 0.90876 0.0
C138 C 0.36706 0.37158 0.1042 0.0
C139 C 0.38991 0.40315 0.10695 0.0
C140 C 0.58738 0.40979 0.15574 0.0
C141 C 0.6128 0.4099 0.19805 0.0
C142 C 0.64452 0.38717 0.19475 0.0
C143 C 0.65113 0.36566 0.14985 0.0
H144 H 0.68933 0.25697 0.09149 0.0
H145 H 0.7352 0.20723 0.09184 0.0
H146 H 0.76312 0.23306 0.92929 0.0
H147 H 0.71635 0.28154 0.92832 0.0
H148 H 0.67305 0.34461 0.86849 0.0
H149 H 0.66059 0.38002 0.7885 0.0
H150 H 0.56504 0.4301 0.86353 0.0
H151 H 0.57852 0.39575 0.94455 0.0
H152 H 0.57486 0.3901 0.07776 0.0
H153 H 0.56219 0.42618 0.15738 0.0
H154 H 0.66509 0.38693 0.22599 0.0
H155 H 0.6764 0.34941 0.14799 0.0
N156 N 0.66016 0.31903 0.05641 0.0
N157 N 0.66074 0.31969 0.96355 0.0
N158 N 0.62479 0.36304 0.00994 0.0
C159 C 0.67215 0.3043 0.00996 0.0
C160 C 0.63687 0.34892 0.96325 0.0
C161 C 0.63639 0.34835 0.05662 0.0
C162 C 0.69916 0.27327 0.00989 0.0
C163 C 0.70513 0.25186 0.05574 0.0
C164 C 0.7316 0.22344 0.05602 0.0
C165 C 0.75301 0.21605 0.01064 0.0
C166 C 0.74673 0.23735 0.9647 0.0
C167 C 0.71998 0.26541 0.96422 0.0
C168 C 0.62689 0.36749 0.91297 0.0
C169 C 0.64916 0.36288 0.86781 0.0
C170 C 0.64192 0.38316 0.8218 0.0
C171 C 0.61191 0.40812 0.81958 0.0
C172 C 0.58887 0.41175 0.86423 0.0
C173 C 0.59642 0.39184 0.91054 0.0
C174 C 0.62661 0.36696 0.10671 0.0
C175 C 0.59441 0.38883 0.11032 0.0
C176 C 0.58193 0.59562 0.86595 0.0
C177 C 0.58651 0.61738 0.82015 0.0
C178 C 0.61278 0.6463 0.82063 0.0
C179 C 0.63361 0.65362 0.86605 0.0
H180 H 0.71704 0.72047 0.92511 0.0
H181 H 0.76667 0.76615 0.92546 0.0
H182 H 0.79345 0.73624 0.08696 0.0
H183 H 0.74278 0.69154 0.08727 0.0
H184 H 0.65217 0.6793 0.14784 0.0
H185 H 0.61545 0.66776 0.22678 0.0
H186 H 0.5722 0.5672 0.15631 0.0
H187 H 0.60756 0.58002 0.07606 0.0
H188 H 0.59795 0.58611 0.94635 0.0
H189 H 0.56249 0.57266 0.8666 0.0
H190 H 0.61668 0.66396 0.78629 0.0
H191 H 0.65303 0.67658 0.86534 0.0
N192 N 0.67758 0.66552 0.96109 0.0
N193 N 0.67999 0.6641 0.05396 0.0
N194 N 0.63453 0.62999 0.00887 0.0
C195 C 0.69405 0.67625 0.00706 0.0
C196 C 0.65029 0.64087 0.05505 0.0
C197 C 0.64792 0.6422 0.96176 0.0
C198 C 0.72574 0.70247 0.00626 0.0
C199 C 0.73363 0.72346 0.96063 0.0
C200 C 0.76232 0.74956 0.96074 0.0
C201 C 0.78416 0.75503 0.00628 0.0
C202 C 0.77681 0.73333 0.0515 0.0
C203 C 0.74783 0.70752 0.05158 0.0
C204 C 0.63253 0.63071 0.10568 0.0
C205 C 0.63523 0.65446 0.14951 0.0
C206 C 0.61419 0.64772 0.19491 0.0
C207 C 0.59049 0.61669 0.19787 0.0
C208 C 0.58936 0.59189 0.15492 0.0
C209 C 0.60989 0.59903 0.10912 0.0
C210 C 0.62833 0.63245 0.91223 0.0
C211 C 0.60249 0.60316 0.91154 0.0
C212 C 0.41006 0.58736 0.86175 0.0
C213 C 0.3861 0.58997 0.81794 0.0
C214 C 0.35571 0.61446 0.8205 0.0
C215 C 0.34913 0.63542 0.86598 0.0
H216 H 0.28444 0.71983 0.92517 0.0
H217 H 0.23787 0.76857 0.92661 0.0
H218 H 0.26795 0.79491 0.08803 0.0
H219 H 0.31361 0.74504 0.08724 0.0
H220 H 0.32622 0.65391 0.14574 0.0
H221 H 0.33748 0.61676 0.22431 0.0
H222 H 0.43874 0.57462 0.15448 0.0
H223 H 0.42607 0.61036 0.07433 0.0
H224 H 0.42181 0.60487 0.94094 0.0
H225 H 0.43418 0.56942 0.86073 0.0
H226 H 0.33631 0.61679 0.7879 0.0
H227 H 0.325 0.65336 0.86698 0.0
N228 N 0.33983 0.68085 0.9601 0.0
N229 N 0.34174 0.6827 0.05289 0.0
N230 N 0.37588 0.63765 0.00692 0.0
C231 C 0.32929 0.697 0.00633 0.0
C232 C 0.36512 0.65308 0.05341 0.0
C233 C 0.36333 0.65132 0.96013 0.0
C234 C 0.30265 0.72835 0.00618 0.0
C235 C 0.28133 0.73615 0.9609 0.0
C236 C 0.2547 0.76434 0.96164 0.0
C237 C 0.24902 0.78578 0.00748 0.0
C238 C 0.27104 0.77856 0.05235 0.0
C239 C 0.2974 0.75006 0.05181 0.0
C240 C 0.37516 0.63488 0.10381 0.0
C241 C 0.35116 0.63712 0.14744 0.0
C242 C 0.35774 0.61582 0.19268 0.0
C243 C 0.38893 0.59235 0.1958 0.0
C244 C 0.41394 0.5916 0.15301 0.0
C245 C 0.40691 0.61235 0.10727 0.0
C246 C 0.37244 0.63194 0.91028 0.0
C247 C 0.40315 0.60793 0.90756 0.0
C248 C 0.93581 0.87708 0.64673 0.0
C249 C 0.91833 0.87609 0.69641 0.0
C250 C 0.88056 0.86617 0.69914 0.0
C251 C 0.8609 0.85709 0.65312 0.0
H252 H 0.76491 0.80055 0.59209 0.0
H253 H 0.71275 0.75741 0.59353 0.0
H254 H 0.73421 0.72936 0.42992 0.0
H255 H 0.78509 0.77334 0.42789 0.0
H256 H 0.84896 0.81533 0.3635 0.0
H257 H 0.88356 0.82912 0.28272 0.0
H258 H 0.94211 0.91695 0.36404 0.0
H259 H 0.9085 0.90258 0.44479 0.0
H260 H 0.93085 0.8693 0.56354 0.0
H261 H 0.96505 0.8836 0.64308 0.0
H262 H 0.86612 0.86555 0.73675 0.0
H263 H 0.83192 0.84939 0.65632 0.0
N264 N 0.82776 0.8268 0.55531 0.0
N265 N 0.82734 0.82564 0.46216 0.0
N266 N 0.87358 0.85834 0.50723 0.0
C267 C 0.81183 0.81545 0.50916 0.0
C268 C 0.85806 0.84744 0.46105 0.0
C269 C 0.85885 0.84818 0.5544 0.0
C270 C 0.77922 0.79041 0.5099 0.0
C271 C 0.75829 0.78534 0.55634 0.0
C272 C 0.72848 0.76045 0.55724 0.0
C273 C 0.71919 0.7398 0.51187 0.0
C274 C 0.73997 0.74526 0.46534 0.0
C275 C 0.76942 0.7704 0.46427 0.0
C276 C 0.87618 0.85765 0.41063 0.0
C277 C 0.869 0.83776 0.36394 0.0
C278 C 0.88879 0.84571 0.31767 0.0
C279 C 0.91588 0.87387 0.31717 0.0
C280 C 0.92209 0.89449 0.36345 0.0
C281 C 0.9026 0.88639 0.40967 0.0
C282 C 0.87857 0.85828 0.60357 0.0
C283 C 0.91615 0.86858 0.60096 0.0
C284 C 0.08572 0.90976 0.6571 0.0
C285 C 0.11155 0.91029 0.69892 0.0
C286 C 0.14343 0.88781 0.6952 0.0
C287 C 0.1498 0.86618 0.65037 0.0
H288 H 0.18745 0.75715 0.59186 0.0
H289 H 0.23362 0.70769 0.59224 0.0
H290 H 0.26209 0.7343 0.43015 0.0
H291 H 0.21504 0.78251 0.42913 0.0
H292 H 0.17248 0.84589 0.36984 0.0
H293 H 0.16106 0.88206 0.29025 0.0
H294 H 0.06572 0.93294 0.3647 0.0
H295 H 0.07815 0.89778 0.44539 0.0
H296 H 0.07274 0.88972 0.57942 0.0
H297 H 0.06041 0.92593 0.65907 0.0
H298 H 0.16434 0.8879 0.72597 0.0
H299 H 0.17523 0.85018 0.64815 0.0
N300 N 0.15828 0.81927 0.55713 0.0
N301 N 0.15944 0.82061 0.46431 0.0
N302 N 0.12339 0.86378 0.51089 0.0
C303 C 0.1705 0.80482 0.51063 0.0
C304 C 0.13571 0.84994 0.46414 0.0
C305 C 0.13462 0.84867 0.55747 0.0
C306 C 0.19754 0.77383 0.51048 0.0
C307 C 0.20342 0.75225 0.55621 0.0
C308 C 0.23007 0.724 0.55651 0.0
C309 C 0.25174 0.71694 0.51128 0.0
C310 C 0.24551 0.73836 0.46543 0.0
C311 C 0.2186 0.76625 0.46493 0.0
C312 C 0.12632 0.86906 0.41404 0.0
C313 C 0.14885 0.86451 0.36913 0.0
C314 C 0.14222 0.88523 0.32335 0.0
C315 C 0.11256 0.9106 0.32108 0.0
C316 C 0.08928 0.91426 0.36547 0.0
C317 C 0.09623 0.89387 0.41157 0.0
C318 C 0.12492 0.86714 0.60767 0.0
C319 C 0.09255 0.88871 0.61169 0.0
C320 C 0.08346 0.09388 0.36427 0.0
C321 C 0.08686 0.11672 0.31931 0.0
C322 C 0.1119 0.1467 0.32072 0.0
C323 C 0.13265 0.15397 0.3662 0.0
H324 H 0.21498 0.22158 0.42568 0.0
H325 H 0.26346 0.26845 0.4266 0.0
H326 H 0.29109 0.23814 0.58768 0.0
H327 H 0.2415 0.19222 0.58743 0.0
H328 H 0.15102 0.17868 0.64705 0.0
H329 H 0.11424 0.16699 0.72577 0.0
H330 H 0.07248 0.0656 0.65585 0.0
H331 H 0.10787 0.07863 0.57564 0.0
H332 H 0.10025 0.08357 0.44421 0.0
H333 H 0.06503 0.0701 0.36418 0.0
H334 H 0.11485 0.16521 0.28712 0.0
H335 H 0.15107 0.17776 0.36625 0.0
N336 N 0.17701 0.16539 0.46092 0.0
N337 N 0.1792 0.16376 0.55374 0.0
N338 N 0.1345 0.12891 0.50825 0.0
C339 C 0.19316 0.17628 0.50701 0.0
C340 C 0.14994 0.13999 0.55457 0.0
C341 C 0.14781 0.14149 0.46128 0.0
C342 C 0.2242 0.20324 0.50656 0.0
C343 C 0.23151 0.22473 0.46122 0.0
C344 C 0.25954 0.25153 0.46167 0.0
C345 C 0.28129 0.2572 0.50725 0.0
C346 C 0.27449 0.23507 0.5522 0.0
C347 C 0.24615 0.20856 0.55196 0.0
C348 C 0.13213 0.1297 0.6051 0.0
C349 C 0.1344 0.15362 0.64877 0.0
C350 C 0.11332 0.1468 0.69408 0.0
C351 C 0.09003 0.11547 0.69716 0.0
C352 C 0.08932 0.0905 0.65437 0.0
C353 C 0.10987 0.09775 0.60861 0.0
C354 C 0.12847 0.13175 0.41159 0.0
C355 C 0.10389 0.10143 0.41 0.0
C356 C 0.90897 0.08472 0.36098 0.0
C357 C 0.88524 0.08749 0.31693 0.0
C358 C 0.85477 0.1119 0.31945 0.0
C359 C 0.84786 0.13255 0.36513 0.0
H360 H 0.78201 0.21591 0.42513 0.0
H361 H 0.73522 0.26443 0.42674 0.0
H362 H 0.76466 0.29018 0.58858 0.0
H363 H 0.81057 0.24053 0.58761 0.0
H364 H 0.82476 0.14954 0.64551 0.0
H365 H 0.83697 0.11259 0.72401 0.0
H366 H 0.93895 0.07267 0.65366 0.0
H367 H 0.92534 0.10815 0.5736 0.0
H368 H 0.92026 0.10181 0.44048 0.0
H369 H 0.93315 0.06685 0.36002 0.0
H370 H 0.83556 0.11437 0.28665 0.0
H371 H 0.82368 0.15042 0.36607 0.0
N372 N 0.83763 0.17719 0.45987 0.0
N373 N 0.83968 0.17887 0.55268 0.0
N374 N 0.87436 0.1344 0.5064 0.0
C375 C 0.82693 0.19309 0.50622 0.0
C376 C 0.86347 0.14959 0.55299 0.0
C377 C 0.86154 0.14798 0.45969 0.0
C378 C 0.79997 0.22417 0.50631 0.0
C379 C 0.7787 0.23203 0.461 0.0
C380 C 0.75194 0.2601 0.46185 0.0
C381 C 0.74606 0.28136 0.50781 0.0
C382 C 0.76793 0.27399 0.55279 0.0
C383 C 0.79443 0.24561 0.55213 0.0
C384 C 0.87397 0.13154 0.60332 0.0
C385 C 0.85004 0.13327 0.64708 0.0
C386 C 0.85717 0.1121 0.69228 0.0
C387 C 0.88885 0.08927 0.69523 0.0
C388 C 0.91379 0.0891 0.65233 0.0
C389 C 0.90621 0.10971 0.60663 0.0
C390 C 0.87094 0.12889 0.40967 0.0
C391 C 0.90176 0.10501 0.40696 0.0
C392 C 0.14035 0.17872 0.96542 0.0
C393 C 0.1357 0.15643 0.01072 0.0
H394 H 0.16835 0.22478 0.92991 0.0
C395 C 0.15623 0.16475 0.05649 0.0
H396 H 0.12462 0.17332 0.92968 0.0
C397 C 0.18188 0.19389 0.05632 0.0
C398 C 0.18725 0.21566 0.01056 0.0
H399 H 0.15336 0.14804 0.092 0.0
H400 H 0.19832 0.19854 0.09159 0.0
C401 C 0.16563 0.20811 0.96545 0.0
C402 C 0.81976 0.14089 0.96522 0.0
C403 C 0.84233 0.13617 0.01012 0.0
H404 H 0.77322 0.16862 0.93072 0.0
C405 C 0.83403 0.15628 0.05627 0.0
H406 H 0.82513 0.12545 0.92923 0.0
C407 C 0.80466 0.18167 0.0568 0.0
C408 C 0.78261 0.18716 0.01141 0.0
H409 H 0.85096 0.15334 0.09149 0.0
H410 H 0.80007 0.19785 0.09231 0.0
C411 C 0.7901 0.16586 0.96599 0.0
C412 C 0.84567 0.83438 0.05261 0.0
C413 C 0.86597 0.84266 0.00654 0.0
H414 H 0.80343 0.80105 0.08833 0.0
C415 C 0.86058 0.82069 0.96122 0.0
H416 H 0.84905 0.85084 0.08816 0.0
C417 C 0.83484 0.79166 0.96157 0.0
C418 C 0.81355 0.78413 0.00706 0.0
H419 H 0.87606 0.82609 0.92522 0.0
H420 H 0.83154 0.77523 0.926 0.0
C421 C 0.81962 0.80562 0.05277 0.0
C422 C 0.16843 0.84521 0.05498 0.0
C423 C 0.15951 0.86543 0.00905 0.0
H424 H 0.20294 0.80365 0.0902 0.0
C425 C 0.18152 0.86086 0.96356 0.0
H426 H 0.15195 0.84801 0.09064 0.0
C427 C 0.21121 0.83591 0.96357 0.0
C428 C 0.21935 0.81457 0.00885 0.0
H429 H 0.17564 0.87636 0.92769 0.0
H430 H 0.22763 0.83321 0.92787 0.0
C431 C 0.19786 0.8199 0.05479 0.0
C432 C 0.65712 0.66073 0.55803 0.0
C433 C 0.63602 0.65368 0.51234 0.0
H434 H 0.70045 0.69277 0.59339 0.0
C435 C 0.64065 0.67671 0.46783 0.0
H436 H 0.65423 0.64343 0.59295 0.0
C437 C 0.66661 0.70548 0.46842 0.0
C438 C 0.68898 0.71159 0.51325 0.0
H439 H 0.62444 0.67231 0.43225 0.0
H440 H 0.66939 0.7227 0.43342 0.0
C441 C 0.68349 0.68922 0.55837 0.0
C442 C 0.33306 0.65767 0.55715 0.0
C443 C 0.3417 0.63781 0.51092 0.0
H444 H 0.29862 0.69882 0.59323 0.0
C445 C 0.31925 0.64248 0.46589 0.0
H446 H 0.3499 0.65473 0.59247 0.0
C447 C 0.28939 0.66719 0.4666 0.0
C448 C 0.28155 0.68827 0.51212 0.0
H449 H 0.32488 0.62721 0.42983 0.0
H450 H 0.27261 0.66994 0.43123 0.0
C451 C 0.30347 0.68281 0.55764 0.0
C452 C 0.34176 0.33723 0.55408 0.0
C453 C 0.36184 0.34593 0.50799 0.0
H454 H 0.30003 0.30318 0.5897 0.0
C455 C 0.35655 0.32417 0.46246 0.0
H456 H 0.34512 0.35355 0.58978 0.0
C457 C 0.3312 0.29483 0.46266 0.0
C458 C 0.31015 0.28681 0.5082 0.0
H459 H 0.3719 0.32986 0.42644 0.0
H460 H 0.32805 0.2785 0.42697 0.0
C461 C 0.31605 0.30816 0.5541 0.0
C462 C 0.67911 0.35683 0.46364 0.0
C463 C 0.65689 0.36142 0.50891 0.0
H464 H 0.72527 0.32907 0.4283 0.0
C465 C 0.66546 0.34105 0.55484 0.0
H466 H 0.67353 0.37245 0.42778 0.0
C467 C 0.69478 0.31558 0.55484 0.0
C468 C 0.71646 0.31024 0.50909 0.0
H469 H 0.6488 0.34388 0.59033 0.0
H470 H 0.69961 0.29924 0.59023 0.0
C471 C 0.70867 0.33174 0.46385 0.0
C472 C 0.00586 0.0915 0.22988 0.0
C473 C 0.02151 0.0966 0.17943 0.0
H474 H 0.01409 0.09411 0.31373 0.0
C475 C 0.05826 0.10894 0.17542 0.0
H476 H 0.97743 0.08216 0.2342 0.0
C477 C 0.07954 0.115 0.22064 0.0
C478 C 0.06422 0.10958 0.27123 0.0
H479 H 0.07053 0.11421 0.1373 0.0
H480 H 0.10812 0.12368 0.2158 0.0
C481 C 0.02702 0.09791 0.27538 0.0
C482 C 0.89036 0.05804 0.17304 0.0
C483 C 0.90395 0.0217 0.17703 0.0
H484 H 0.87509 0.10779 0.21335 0.0
C485 C 0.91067 0.00656 0.22744 0.0
H486 H 0.8838 0.06985 0.13499 0.0
C487 C 0.90469 0.02786 0.27289 0.0
C488 C 0.89186 0.06472 0.26879 0.0
H489 H 0.921 0.97842 0.23173 0.0
H490 H 0.90977 0.01529 0.31122 0.0
C491 C 0.88474 0.0795 0.21823 0.0
C492 C 0.94174 0.88914 0.17345 0.0
C493 C 0.97947 0.89824 0.17718 0.0
H494 H 0.89177 0.8751 0.21447 0.0
C495 C 0.99656 0.89808 0.22718 0.0
H496 H 0.92813 0.88808 0.13561 0.0
C497 C 0.97601 0.88985 0.27256 0.0
C498 C 0.93792 0.88164 0.26885 0.0
H499 H 0.02573 0.90479 0.23142 0.0
H500 H 0.99004 0.88978 0.31051 0.0
C501 C 0.92107 0.88113 0.21873 0.0
C502 C 0.1075 0.93995 0.17705 0.0
C503 C 0.0955 0.97686 0.18089 0.0
H504 H 0.12093 0.88967 0.21765 0.0
C505 C 0.08972 0.99232 0.23126 0.0
H506 H 0.11316 0.92772 0.13903 0.0
C507 C 0.09511 0.97085 0.27682 0.0
C508 C 0.10639 0.9335 0.27286 0.0
H509 H 0.08059 0.02086 0.23548 0.0
H510 H 0.09082 0.98367 0.3151 0.0
C511 C 0.11253 0.91836 0.22236 0.0
C512 C 0.08636 0.99431 0.78267 0.0
C513 C 0.09944 0.98346 0.83278 0.0
H514 H 0.08064 0.98023 0.70093 0.0
C515 C 0.11595 0.94838 0.8387 0.0
H516 H 0.07362 0.02128 0.77681 0.0
C517 C 0.11877 0.9243 0.79577 0.0
C518 C 0.10622 0.93515 0.74532 0.0
H519 H 0.12633 0.93921 0.87674 0.0
H520 H 0.13075 0.89709 0.80238 0.0
C521 C 0.08998 0.97052 0.7393 0.0
C522 C 0.00599 0.09137 0.78138 0.0
C523 C 0.01781 0.1025 0.83192 0.0
H524 H 0.01907 0.08747 0.69909 0.0
C525 C 0.05359 0.11733 0.83799 0.0
H526 H 0.9785 0.07994 0.77541 0.0
C527 C 0.07732 0.12052 0.79465 0.0
C528 C 0.0655 0.10988 0.74383 0.0
H529 H 0.06351 0.12614 0.87639 0.0
H530 H 0.10502 0.13124 0.80118 0.0
C531 C 0.02948 0.09528 0.73772 0.0
C532 C 0.91455 0.00536 0.77926 0.0
C533 C 0.90301 0.01669 0.82981 0.0
H534 H 0.91846 0.01887 0.69705 0.0
C535 C 0.88731 0.05213 0.83596 0.0
H536 H 0.92655 0.97813 0.77322 0.0
C537 C 0.88374 0.076 0.79271 0.0
C538 C 0.89482 0.06464 0.74186 0.0
H539 H 0.87818 0.06173 0.87439 0.0
H540 H 0.87238 0.10345 0.79936 0.0
C541 C 0.91028 0.02896 0.73569 0.0
C542 C 0.99088 0.91699 0.78799 0.0
C543 C 0.9855 0.89601 0.83427 0.0
H544 H 0.97297 0.92828 0.70906 0.0
C545 C 0.95668 0.86976 0.83602 0.0
H546 H 0.0125 0.93786 0.78574 0.0
C547 C 0.93432 0.86381 0.7917 0.0
C548 C 0.94012 0.88427 0.74492 0.0
H549 H 0.95179 0.85328 0.87129 0.0
H550 H 0.91324 0.84241 0.79369 0.0
C551 C 0.96828 0.91136 0.74394 0.0
C552 C 0.55855 0.60722 0.67635 0.0
C553 C 0.52118 0.59692 0.68034 0.0
H554 H 0.60879 0.6206 0.71679 0.0
C555 C 0.50497 0.59389 0.73078 0.0
H556 H 0.57138 0.61081 0.63826 0.0
C557 C 0.52612 0.60042 0.77626 0.0
C558 C 0.56386 0.61015 0.77212 0.0
H559 H 0.47608 0.5861 0.73513 0.0
H560 H 0.51277 0.59823 0.81458 0.0
C561 C 0.57978 0.61346 0.72157 0.0
C562 C 0.41095 0.50868 0.72881 0.0
C563 C 0.40394 0.52367 0.67839 0.0
H564 H 0.41053 0.5177 0.81254 0.0
C565 C 0.39034 0.56 0.67429 0.0
H566 H 0.42126 0.48055 0.73318 0.0
C567 C 0.38503 0.58161 0.71936 0.0
C568 C 0.39243 0.56701 0.76994 0.0
H569 H 0.38354 0.57167 0.63623 0.0
H570 H 0.3754 0.60991 0.71439 0.0
C571 C 0.40525 0.53015 0.77418 0.0
C572 C 0.43939 0.39085 0.67378 0.0
C573 C 0.47666 0.40154 0.67774 0.0
H574 H 0.38907 0.37785 0.71438 0.0
C575 C 0.49263 0.40555 0.72815 0.0
H576 H 0.42678 0.38653 0.63568 0.0
C577 C 0.47134 0.39968 0.77369 0.0
C578 C 0.43368 0.38966 0.76963 0.0
H579 H 0.52143 0.41366 0.73245 0.0
H580 H 0.48452 0.40264 0.812 0.0
C581 C 0.418 0.38528 0.71909 0.0
C582 C 0.60624 0.43725 0.67544 0.0
C583 C 0.59394 0.47406 0.6793 0.0
H584 H 0.6202 0.38711 0.71607 0.0
C585 C 0.58795 0.48943 0.72968 0.0
H586 H 0.61209 0.42513 0.63741 0.0
C587 C 0.59357 0.46803 0.77522 0.0
C588 C 0.60526 0.43081 0.77128 0.0
H589 H 0.57861 0.5179 0.73393 0.0
H590 H 0.58921 0.48084 0.81349 0.0
C591 C 0.61147 0.4157 0.72076 0.0
C592 C 0.61509 0.44676 0.33862 0.0
C593 C 0.59904 0.48206 0.3327 0.0
H594 H 0.63021 0.39569 0.30185 0.0
C595 C 0.58712 0.49352 0.28228 0.0
H596 H 0.62457 0.43712 0.37691 0.0
C597 C 0.59136 0.47009 0.23863 0.0
C598 C 0.60711 0.4345 0.24463 0.0
H599 H 0.57477 0.52068 0.27641 0.0
H600 H 0.58284 0.48021 0.20008 0.0
C601 C 0.61861 0.42307 0.29533 0.0
C602 C 0.50624 0.59339 0.28214 0.0
C603 C 0.51836 0.60391 0.3328 0.0
H604 H 0.51909 0.58988 0.19973 0.0
C605 C 0.55439 0.61809 0.33892 0.0
H606 H 0.47855 0.58246 0.27611 0.0
C607 C 0.57807 0.62127 0.2955 0.0
C608 C 0.56596 0.61121 0.24459 0.0
H609 H 0.56454 0.62647 0.3774 0.0
H610 H 0.60594 0.63154 0.30203 0.0
C611 C 0.52971 0.59723 0.23843 0.0
C612 C 0.41282 0.50823 0.28054 0.0
C613 C 0.40146 0.52007 0.33097 0.0
H614 H 0.41704 0.5213 0.19819 0.0
C615 C 0.38651 0.55585 0.33676 0.0
H616 H 0.42432 0.48072 0.27476 0.0
C617 C 0.38348 0.57959 0.29331 0.0
C618 C 0.39435 0.56776 0.24259 0.0
H619 H 0.37751 0.5658 0.37507 0.0
H620 H 0.37271 0.6073 0.2997 0.0
C621 C 0.40905 0.53173 0.23674 0.0
C622 C 0.49376 0.40909 0.28003 0.0
C623 C 0.4816 0.39857 0.33074 0.0
H624 H 0.48092 0.41262 0.19757 0.0
C625 C 0.44549 0.38458 0.33694 0.0
H626 H 0.52151 0.41988 0.27397 0.0
C627 C 0.4218 0.38153 0.29356 0.0
C628 C 0.43397 0.39146 0.24257 0.0
H629 H 0.43531 0.37623 0.37545 0.0
H630 H 0.39388 0.37142 0.30018 0.0
C631 C 0.47027 0.40534 0.23633 0.0
loop_
_geom_bond_atom_site_label_1
_geom_bond_atom_site_label_2
_geom_bond_distance
_geom_bond_site_symmetry_2
_ccdc_geom_bond_type
Zn0 O2 1.933 1_556 S
Zn0 O20 1.985 . S
Zn0 O31 1.955 . S
Zn1 O2 1.911 . S
Zn1 O21 1.970 . S
Zn1 O37 1.945 . S
Zn1 O44 1.981 . S
O2 Zn0 1.933 1_554 S
O2 Zn1 1.911 . S
O2 H3 0.841 1_655 S
H3 O2 0.841 1_455 S
C4 O5 1.246 . S
C4 O33 1.276 1_545 S
O5 C4 1.246 . S
Zn6 O8 1.911 . S
Zn6 O23 1.970 . S
Zn6 O40 1.945 . S
Zn6 O47 1.981 . S
Zn7 O8 1.933 1_556 S
Zn7 O22 1.985 . S
Zn7 O29 1.955 . S
O8 Zn6 1.911 . S
O8 Zn7 1.933 1_554 S
O8 H9 0.841 1_455 S
H9 O8 0.841 1_655 S
Zn10 O11 1.933 1_556 S
Zn10 O24 1.985 . S
Zn10 O33 1.955 . S
O11 Zn10 1.933 1_554 S
O11 Zn12 1.911 . S
O11 H13 0.841 1_565 S
Zn12 O11 1.911 . S
Zn12 O25 1.970 . S
Zn12 O41 1.981 . S
Zn12 O43 1.945 . S
H13 O11 0.841 1_545 S
Zn14 O15 1.933 1_556 S
Zn14 O27 1.985 . S
Zn14 O35 1.955 . S
O15 Zn14 1.933 1_554 S
O15 H16 0.841 1_545 S
O15 Zn17 1.911 . S
H16 O15 0.841 1_565 S
Zn17 O15 1.911 . S
Zn17 O28 1.970 . S
Zn17 O38 1.981 . S
Zn17 O46 1.945 . S
C18 O19 1.246 . S
C18 O35 1.276 1_565 S
O19 C18 1.246 . S
O20 Zn0 1.985 . S
O20 C30 1.245 1_556 S
O21 Zn1 1.970 . S
O21 C30 1.263 . S
O22 Zn7 1.985 . S
O22 C34 1.245 1_556 S
O23 Zn6 1.970 . S
O23 C34 1.263 . S
O24 Zn10 1.985 . S
O24 C39 1.245 1_556 S
O25 Zn12 1.970 . S
O25 C39 1.263 . S
C26 O37 1.262 1_455 S
C26 O38 1.245 . S
O27 Zn14 1.985 . S
O27 C45 1.245 1_556 S
O28 Zn17 1.970 . S
O28 C45 1.263 . S
O29 Zn7 1.955 . S
O29 C48 1.276 1_455 S
C30 O20 1.245 1_554 S
C30 O21 1.263 . S
O31 Zn0 1.955 . S
O31 C50 1.276 1_655 S
C32 O40 1.262 1_655 S
C32 O41 1.245 . S
O33 C4 1.276 1_565 S
O33 Zn10 1.955 . S
C34 O22 1.245 1_554 S
C34 O23 1.263 . S
O35 Zn14 1.955 . S
O35 C18 1.276 1_545 S
C36 O43 1.262 1_545 S
C36 O44 1.245 . S
O37 Zn1 1.945 . S
O37 C26 1.262 1_655 S
O38 Zn17 1.981 . S
O38 C26 1.245 . S
C39 O24 1.245 1_554 S
C39 O25 1.263 . S
O40 Zn6 1.945 . S
O40 C32 1.262 1_455 S
O41 Zn12 1.981 . S
O41 C32 1.245 . S
C42 O46 1.262 1_565 S
C42 O47 1.245 . S
O43 Zn12 1.945 . S
O43 C36 1.262 1_565 S
O44 Zn1 1.981 . S
O44 C36 1.245 . S
C45 O27 1.245 1_554 S
C45 O28 1.263 . S
O46 Zn17 1.945 . S
O46 C42 1.262 1_545 S
O47 Zn6 1.981 . S
O47 C42 1.245 . S
C48 O29 1.276 1_655 S
C48 O49 1.246 . S
O49 C48 1.246 . S
C50 O31 1.276 1_455 S
C50 O51 1.246 . S
O51 C50 1.246 . S
Zn52 O54 1.933 . S
Zn52 O72 1.985 . S
Zn52 O83 1.955 . S
Zn53 O54 1.911 . S
Zn53 O73 1.970 . S
Zn53 O89 1.945 . S
Zn53 O96 1.981 . S
O54 Zn52 1.933 . S
O54 Zn53 1.911 . S
O54 H55 0.841 . S
H55 O54 0.841 . S
C56 O57 1.246 . S
C56 O85 1.276 . S
O57 C56 1.246 . S
Zn58 O60 1.911 . S
Zn58 O75 1.970 . S
Zn58 O92 1.945 . S
Zn58 O99 1.981 . S
Zn59 O60 1.933 . S
Zn59 O74 1.985 . S
Zn59 O81 1.955 . S
O60 Zn58 1.911 . S
O60 Zn59 1.933 . S
O60 H61 0.841 . S
H61 O60 0.841 . S
Zn62 O63 1.933 . S
Zn62 O76 1.985 . S
Zn62 O85 1.955 . S
O63 Zn62 1.933 . S
O63 Zn64 1.911 . S
O63 H65 0.841 . S
Zn64 O63 1.911 . S
Zn64 O77 1.970 . S
Zn64 O93 1.981 . S
Zn64 O95 1.945 . S
H65 O63 0.841 . S
Zn66 O67 1.933 . S
Zn66 O79 1.985 . S
Zn66 O87 1.955 . S
O67 Zn66 1.933 . S
O67 H68 0.841 . S
O67 Zn69 1.911 . S
H68 O67 0.841 . S
Zn69 O67 1.911 . S
Zn69 O80 1.970 . S
Zn69 O90 1.981 . S
Zn69 O98 1.945 . S
C70 O71 1.246 . S
C70 O87 1.276 . S
O71 C70 1.246 . S
O72 Zn52 1.985 . S
O72 C82 1.245 . S
O73 Zn53 1.970 . S
O73 C82 1.263 . S
O74 Zn59 1.985 . S
O74 C86 1.245 . S
O75 Zn58 1.970 . S
O75 C86 1.263 . S
O76 Zn62 1.985 . S
O76 C91 1.245 . S
O77 Zn64 1.970 . S
O77 C91 1.263 . S
C78 O89 1.262 . S
C78 O90 1.245 . S
O79 Zn66 1.985 . S
O79 C97 1.245 . S
O80 Zn69 1.970 . S
O80 C97 1.263 . S
O81 Zn59 1.955 . S
O81 C100 1.276 . S
C82 O72 1.245 . S
C82 O73 1.263 . S
O83 Zn52 1.955 . S
O83 C102 1.276 . S
C84 O92 1.262 . S
C84 O93 1.245 . S
O85 C56 1.276 . S
O85 Zn62 1.955 . S
C86 O74 1.245 . S
C86 O75 1.263 . S
O87 Zn66 1.955 . S
O87 C70 1.276 . S
C88 O95 1.262 . S
C88 O96 1.245 . S
O89 Zn53 1.945 . S
O89 C78 1.262 . S
O90 Zn69 1.981 . S
O90 C78 1.245 . S
C91 O76 1.245 . S
C91 O77 1.263 . S
O92 Zn58 1.945 . S
O92 C84 1.262 . S
O93 Zn64 1.981 . S
O93 C84 1.245 . S
C94 O98 1.262 . S
C94 O99 1.245 . S
O95 Zn64 1.945 . S
O95 C88 1.262 . S
O96 Zn53 1.981 . S
O96 C88 1.245 . S
C97 O79 1.245 . S
C97 O80 1.263 . S
O98 Zn69 1.945 . S
O98 C94 1.262 . S
O99 Zn58 1.981 . S
O99 C94 1.245 . S
C100 O81 1.276 . S
C100 O101 1.246 . S
O101 C100 1.246 . S
C102 O83 1.276 . S
C102 O103 1.246 . S
O103 C102 1.246 . S
C104 C105 1.384 . S
C104 H117 0.947 . S
C104 C139 1.382 . S
C105 C104 1.384 . S
C105 C106 1.378 . S
C106 C105 1.378 . S
C106 C107 1.378 . S
C106 H118 0.952 . S
C107 C106 1.378 . S
C107 H119 0.950 . S
C107 C138 1.383 . S
H108 C127 0.947 . S
H109 C128 0.946 . S
H110 C130 0.953 . S
H111 C131 0.945 . S
H112 C133 0.952 . S
H113 C134 0.949 . S
H114 C136 0.950 . S
H115 C137 0.948 . S
H116 C139 0.951 . S
H117 C104 0.947 . S
H118 C106 0.952 . S
H119 C107 0.950 . S
N120 C123 1.382 . S
N120 C125 1.363 . S
N121 C123 1.371 1_556 S
N121 C124 1.372 . S
N122 C124 1.361 1_554 S
N122 C125 1.377 . S
C123 N120 1.382 . S
C123 N121 1.371 1_554 S
C123 C126 1.480 . S
C124 N121 1.372 . S
C124 N122 1.361 1_556 S
C124 C132 1.457 . S
C125 N120 1.363 . S
C125 N122 1.377 . S
C125 C138 1.479 . S
C126 C123 1.480 . S
C126 C127 1.383 . S
C126 C131 1.385 1_554 S
C127 H108 0.947 . S
C127 C126 1.383 . S
C127 C128 1.388 . S
C128 H109 0.946 . S
C128 C127 1.388 . S
C128 C129 1.384 . S
C129 C128 1.384 . S
C129 C130 1.377 1_554 S
C130 H110 0.953 . S
C130 C129 1.377 1_556 S
C130 C131 1.369 . S
C131 H111 0.945 . S
C131 C126 1.385 1_556 S
C131 C130 1.369 . S
C132 C124 1.457 . S
C132 C133 1.372 . S
C132 C137 1.364 . S
C133 H112 0.952 . S
C133 C132 1.372 . S
C133 C134 1.389 . S
C134 H113 0.949 . S
C134 C133 1.389 . S
C134 C135 1.387 . S
C135 C134 1.387 . S
C135 C136 1.372 . S
C136 H114 0.950 . S
C136 C135 1.372 . S
C136 C137 1.379 . S
C137 H115 0.948 . S
C137 C132 1.364 . S
C137 C136 1.379 . S
C138 C107 1.383 . S
C138 C125 1.479 . S
C138 C139 1.398 . S
C139 C104 1.382 . S
C139 H116 0.951 . S
C139 C138 1.398 . S
C140 C141 1.384 . S
C140 H153 0.947 . S
C140 C175 1.382 . S
C141 C140 1.384 . S
C141 C142 1.378 . S
C142 C141 1.378 . S
C142 C143 1.378 . S
C142 H154 0.952 . S
C143 C142 1.378 . S
C143 H155 0.950 . S
C143 C174 1.383 . S
H144 C163 0.947 . S
H145 C164 0.946 . S
H146 C166 0.953 . S
H147 C167 0.945 . S
H148 C169 0.952 . S
H149 C170 0.949 . S
H150 C172 0.950 . S
H151 C173 0.948 . S
H152 C175 0.951 . S
H153 C140 0.947 . S
H154 C142 0.952 . S
H155 C143 0.950 . S
N156 C159 1.382 . S
N156 C161 1.363 . S
N157 C159 1.371 1_556 S
N157 C160 1.372 . S
N158 C160 1.361 1_554 S
N158 C161 1.377 . S
C159 N156 1.382 . S
C159 N157 1.371 1_554 S
C159 C162 1.480 . S
C160 N157 1.372 . S
C160 N158 1.361 1_556 S
C160 C168 1.457 . S
C161 N156 1.363 . S
C161 N158 1.377 . S
C161 C174 1.479 . S
C162 C159 1.480 . S
C162 C163 1.383 . S
C162 C167 1.385 1_554 S
C163 H144 0.947 . S
C163 C162 1.383 . S
C163 C164 1.388 . S
C164 H145 0.946 . S
C164 C163 1.388 . S
C164 C165 1.384 . S
C165 C164 1.384 . S
C165 C166 1.377 1_554 S
C166 H146 0.953 . S
C166 C165 1.377 1_556 S
C166 C167 1.369 . S
C167 H147 0.945 . S
C167 C162 1.385 1_556 S
C167 C166 1.369 . S
C168 C160 1.457 . S
C168 C169 1.372 . S
C168 C173 1.364 . S
C169 H148 0.952 . S
C169 C168 1.372 . S
C169 C170 1.389 . S
C170 H149 0.949 . S
C170 C169 1.389 . S
C170 C171 1.387 . S
C171 C170 1.387 . S
C171 C172 1.372 . S
C172 H150 0.950 . S
C172 C171 1.372 . S
C172 C173 1.379 . S
C173 H151 0.948 . S
C173 C168 1.364 . S
C173 C172 1.379 . S
C174 C143 1.383 . S
C174 C161 1.479 . S
C174 C175 1.398 . S
C175 C140 1.382 . S
C175 H152 0.951 . S
C175 C174 1.398 . S
C176 C177 1.384 . S
C176 H189 0.947 . S
C176 C211 1.382 . S
C177 C176 1.384 . S
C177 C178 1.378 . S
C178 C177 1.378 . S
C178 C179 1.378 . S
C178 H190 0.952 . S
C179 C178 1.378 . S
C179 H191 0.950 . S
C179 C210 1.383 . S
H180 C199 0.947 . S
H181 C200 0.946 . S
H182 C202 0.953 . S
H183 C203 0.945 . S
H184 C205 0.952 . S
H185 C206 0.949 . S
H186 C208 0.950 . S
H187 C209 0.948 . S
H188 C211 0.951 . S
H189 C176 0.947 . S
H190 C178 0.952 . S
H191 C179 0.950 . S
N192 C195 1.382 1_556 S
N192 C197 1.363 . S
N193 C195 1.371 . S
N193 C196 1.372 . S
N194 C196 1.361 . S
N194 C197 1.377 1_554 S
C195 N192 1.382 1_554 S
C195 N193 1.371 . S
C195 C198 1.480 . S
C196 N193 1.372 . S
C196 N194 1.361 . S
C196 C204 1.457 . S
C197 N192 1.363 . S
C197 N194 1.377 1_556 S
C197 C210 1.479 . S
C198 C195 1.480 . S
C198 C199 1.383 1_554 S
C198 C203 1.385 . S
C199 H180 0.947 . S
C199 C198 1.383 1_556 S
C199 C200 1.388 . S
C200 H181 0.946 . S
C200 C199 1.388 . S
C200 C201 1.384 1_556 S
C201 C200 1.384 1_554 S
C201 C202 1.377 . S
C202 H182 0.953 . S
C202 C201 1.377 . S
C202 C203 1.369 . S
C203 H183 0.945 . S
C203 C198 1.385 . S
C203 C202 1.369 . S
C204 C196 1.457 . S
C204 C205 1.372 . S
C204 C209 1.364 . S
C205 H184 0.952 . S
C205 C204 1.372 . S
C205 C206 1.389 . S
C206 H185 0.949 . S
C206 C205 1.389 . S
C206 C207 1.387 . S
C207 C206 1.387 . S
C207 C208 1.372 . S
C208 H186 0.950 . S
C208 C207 1.372 . S
C208 C209 1.379 . S
C209 H187 0.948 . S
C209 C204 1.364 . S
C209 C208 1.379 . S
C210 C179 1.383 . S
C210 C197 1.479 . S
C210 C211 1.398 . S
C211 C176 1.382 . S
C211 H188 0.951 . S
C211 C210 1.398 . S
C212 C213 1.384 . S
C212 H225 0.947 . S
C212 C247 1.382 . S
C213 C212 1.384 . S
C213 C214 1.378 . S
C214 C213 1.378 . S
C214 C215 1.378 . S
C214 H226 0.952 . S
C215 C214 1.378 . S
C215 H227 0.950 . S
C215 C246 1.383 . S
H216 C235 0.947 . S
H217 C236 0.946 . S
H218 C238 0.953 . S
H219 C239 0.945 . S
H220 C241 0.952 . S
H221 C242 0.949 . S
H222 C244 0.950 . S
H223 C245 0.948 . S
H224 C247 0.951 . S
H225 C212 0.947 . S
H226 C214 0.952 . S
H227 C215 0.950 . S
N228 C231 1.382 1_556 S
N228 C233 1.363 . S
N229 C231 1.371 . S
N229 C232 1.372 . S
N230 C232 1.361 . S
N230 C233 1.377 1_554 S
C231 N228 1.382 1_554 S
C231 N229 1.371 . S
C231 C234 1.480 . S
C232 N229 1.372 . S
C232 N230 1.361 . S
C232 C240 1.457 . S
C233 N228 1.363 . S
C233 N230 1.377 1_556 S
C233 C246 1.479 . S
C234 C231 1.480 . S
C234 C235 1.383 1_554 S
C234 C239 1.385 . S
C235 H216 0.947 . S
C235 C234 1.383 1_556 S
C235 C236 1.388 . S
C236 H217 0.946 . S
C236 C235 1.388 . S
C236 C237 1.384 1_556 S
C237 C236 1.384 1_554 S
C237 C238 1.377 . S
C238 H218 0.953 . S
C238 C237 1.377 . S
C238 C239 1.369 . S
C239 H219 0.945 . S
C239 C234 1.385 . S
C239 C238 1.369 . S
C240 C232 1.457 . S
C240 C241 1.372 . S
C240 C245 1.364 . S
C241 H220 0.952 . S
C241 C240 1.372 . S
C241 C242 1.389 . S
C242 H221 0.949 . S
C242 C241 1.389 . S
C242 C243 1.387 . S
C243 C242 1.387 . S
C243 C244 1.372 . S
C244 H222 0.950 . S
C244 C243 1.372 . S
C244 C245 1.379 . S
C245 H223 0.948 . S
C245 C240 1.364 . S
C245 C244 1.379 . S
C246 C215 1.383 . S
C246 C233 1.479 . S
C246 C247 1.398 . S
C247 C212 1.382 . S
C247 H224 0.951 . S
C247 C246 1.398 . S
C248 C249 1.384 . S
C248 H261 0.947 . S
C248 C283 1.382 . S
C249 C248 1.384 . S
C249 C250 1.378 . S
C250 C249 1.378 . S
C250 C251 1.378 . S
C250 H262 0.952 . S
C251 C250 1.378 . S
C251 H263 0.950 . S
C251 C282 1.383 . S
H252 C271 0.947 . S
H253 C272 0.946 . S
H254 C274 0.953 . S
H255 C275 0.945 . S
H256 C277 0.952 . S
H257 C278 0.949 . S
H258 C280 0.950 . S
H259 C281 0.948 . S
H260 C283 0.951 . S
H261 C248 0.947 . S
H262 C250 0.952 . S
H263 C251 0.950 . S
N264 C267 1.382 . S
N264 C269 1.363 . S
N265 C267 1.371 . S
N265 C268 1.372 . S
N266 C268 1.361 . S
N266 C269 1.377 . S
C267 N264 1.382 . S
C267 N265 1.371 . S
C267 C270 1.480 . S
C268 N265 1.372 . S
C268 N266 1.361 . S
C268 C276 1.457 . S
C269 N264 1.363 . S
C269 N266 1.377 . S
C269 C282 1.479 . S
C270 C267 1.480 . S
C270 C271 1.383 . S
C270 C275 1.385 . S
C271 H252 0.947 . S
C271 C270 1.383 . S
C271 C272 1.388 . S
C272 H253 0.946 . S
C272 C271 1.388 . S
C272 C273 1.384 . S
C273 C272 1.384 . S
C273 C274 1.377 . S
C274 H254 0.953 . S
C274 C273 1.377 . S
C274 C275 1.369 . S
C275 H255 0.945 . S
C275 C270 1.385 . S
C275 C274 1.369 . S
C276 C268 1.457 . S
C276 C277 1.372 . S
C276 C281 1.364 . S
C277 H256 0.952 . S
C277 C276 1.372 . S
C277 C278 1.389 . S
C278 H257 0.949 . S
C278 C277 1.389 . S
C278 C279 1.387 . S
C279 C278 1.387 . S
C279 C280 1.372 . S
C280 H258 0.950 . S
C280 C279 1.372 . S
C280 C281 1.379 . S
C281 H259 0.948 . S
C281 C276 1.364 . S
C281 C280 1.379 . S
C282 C251 1.383 . S
C282 C269 1.479 . S
C282 C283 1.398 . S
C283 C248 1.382 . S
C283 H260 0.951 . S
C283 C282 1.398 . S
C284 C285 1.384 . S
C284 H297 0.947 . S
C284 C319 1.382 . S
C285 C284 1.384 . S
C285 C286 1.378 . S
C286 C285 1.378 . S
C286 C287 1.378 . S
C286 H298 0.952 . S
C287 C286 1.378 . S
C287 H299 0.950 . S
C287 C318 1.383 . S
H288 C307 0.947 . S
H289 C308 0.946 . S
H290 C310 0.953 . S
H291 C311 0.945 . S
H292 C313 0.952 . S
H293 C314 0.949 . S
H294 C316 0.950 . S
H295 C317 0.948 . S
H296 C319 0.951 . S
H297 C284 0.947 . S
H298 C286 0.952 . S
H299 C287 0.950 . S
N300 C303 1.382 . S
N300 C305 1.363 . S
N301 C303 1.371 . S
N301 C304 1.372 . S
N302 C304 1.361 . S
N302 C305 1.377 . S
C303 N300 1.382 . S
C303 N301 1.371 . S
C303 C306 1.480 . S
C304 N301 1.372 . S
C304 N302 1.361 . S
C304 C312 1.457 . S
C305 N300 1.363 . S
C305 N302 1.377 . S
C305 C318 1.479 . S
C306 C303 1.480 . S
C306 C307 1.383 . S
C306 C311 1.385 . S
C307 H288 0.947 . S
C307 C306 1.383 . S
C307 C308 1.388 . S
C308 H289 0.946 . S
C308 C307 1.388 . S
C308 C309 1.384 . S
C309 C308 1.384 . S
C309 C310 1.377 . S
C310 H290 0.953 . S
C310 C309 1.377 . S
C310 C311 1.369 . S
C311 H291 0.945 . S
C311 C306 1.385 . S
C311 C310 1.369 . S
C312 C304 1.457 . S
C312 C313 1.372 . S
C312 C317 1.364 . S
C313 H292 0.952 . S
C313 C312 1.372 . S
C313 C314 1.389 . S
C314 H293 0.949 . S
C314 C313 1.389 . S
C314 C315 1.387 . S
C315 C314 1.387 . S
C315 C316 1.372 . S
C316 H294 0.950 . S
C316 C315 1.372 . S
C316 C317 1.379 . S
C317 H295 0.948 . S
C317 C312 1.364 . S
C317 C316 1.379 . S
C318 C287 1.383 . S
C318 C305 1.479 . S
C318 C319 1.398 . S
C319 C284 1.382 . S
C319 H296 0.951 . S
C319 C318 1.398 . S
C320 C321 1.384 . S
C320 H333 0.947 . S
C320 C355 1.382 . S
C321 C320 1.384 . S
C321 C322 1.378 . S
C322 C321 1.378 . S
C322 C323 1.378 . S
C322 H334 0.952 . S
C323 C322 1.378 . S
C323 H335 0.950 . S
C323 C354 1.383 . S
H324 C343 0.947 . S
H325 C344 0.946 . S
H326 C346 0.953 . S
H327 C347 0.945 . S
H328 C349 0.952 . S
H329 C350 0.949 . S
H330 C352 0.950 . S
H331 C353 0.948 . S
H332 C355 0.951 . S
H333 C320 0.947 . S
H334 C322 0.952 . S
H335 C323 0.950 . S
N336 C339 1.382 . S
N336 C341 1.363 . S
N337 C339 1.371 . S
N337 C340 1.372 . S
N338 C340 1.361 . S
N338 C341 1.377 . S
C339 N336 1.382 . S
C339 N337 1.371 . S
C339 C342 1.480 . S
C340 N337 1.372 . S
C340 N338 1.361 . S
C340 C348 1.457 . S
C341 N336 1.363 . S
C341 N338 1.377 . S
C341 C354 1.479 . S
C342 C339 1.480 . S
C342 C343 1.383 . S
C342 C347 1.385 . S
C343 H324 0.947 . S
C343 C342 1.383 . S
C343 C344 1.388 . S
C344 H325 0.946 . S
C344 C343 1.388 . S
C344 C345 1.384 . S
C345 C344 1.384 . S
C345 C346 1.377 . S
C346 H326 0.953 . S
C346 C345 1.377 . S
C346 C347 1.369 . S
C347 H327 0.945 . S
C347 C342 1.385 . S
C347 C346 1.369 . S
C348 C340 1.457 . S
C348 C349 1.372 . S
C348 C353 1.364 . S
C349 H328 0.952 . S
C349 C348 1.372 . S
C349 C350 1.389 . S
C350 H329 0.949 . S
C350 C349 1.389 . S
C350 C351 1.387 . S
C351 C350 1.387 . S
C351 C352 1.372 . S
C352 H330 0.950 . S
C352 C351 1.372 . S
C352 C353 1.379 . S
C353 H331 0.948 . S
C353 C348 1.364 . S
C353 C352 1.379 . S
C354 C323 1.383 . S
C354 C341 1.479 . S
C354 C355 1.398 . S
C355 C320 1.382 . S
C355 H332 0.951 . S
C355 C354 1.398 . S
C356 C357 1.384 . S
C356 H369 0.947 . S
C356 C391 1.382 . S
C357 C356 1.384 . S
C357 C358 1.378 . S
C358 C357 1.378 . S
C358 C359 1.378 . S
C358 H370 0.952 . S
C359 C358 1.378 . S
C359 H371 0.950 . S
C359 C390 1.383 . S
H360 C379 0.947 . S
H361 C380 0.946 . S
H362 C382 0.953 . S
H363 C383 0.945 . S
H364 C385 0.952 . S
H365 C386 0.949 . S
H366 C388 0.950 . S
H367 C389 0.948 . S
H368 C391 0.951 . S
H369 C356 0.947 . S
H370 C358 0.952 . S
H371 C359 0.950 . S
N372 C375 1.382 . S
N372 C377 1.363 . S
N373 C375 1.371 . S
N373 C376 1.372 . S
N374 C376 1.361 . S
N374 C377 1.377 . S
C375 N372 1.382 . S
C375 N373 1.371 . S
C375 C378 1.480 . S
C376 N373 1.372 . S
C376 N374 1.361 . S
C376 C384 1.457 . S
C377 N372 1.363 . S
C377 N374 1.377 . S
C377 C390 1.479 . S
C378 C375 1.480 . S
C378 C379 1.383 . S
C378 C383 1.385 . S
C379 H360 0.947 . S
C379 C378 1.383 . S
C379 C380 1.388 . S
C380 H361 0.946 . S
C380 C379 1.388 . S
C380 C381 1.384 . S
C381 C380 1.384 . S
C381 C382 1.377 . S
C382 H362 0.953 . S
C382 C381 1.377 . S
C382 C383 1.369 . S
C383 H363 0.945 . S
C383 C378 1.385 . S
C383 C382 1.369 . S
C384 C376 1.457 . S
C384 C385 1.372 . S
C384 C389 1.364 . S
C385 H364 0.952 . S
C385 C384 1.372 . S
C385 C386 1.389 . S
C386 H365 0.949 . S
C386 C385 1.389 . S
C386 C387 1.387 . S
C387 C386 1.387 . S
C387 C388 1.372 . S
C388 H366 0.950 . S
C388 C387 1.372 . S
C388 C389 1.379 . S
C389 H367 0.948 . S
C389 C384 1.364 . S
C389 C388 1.379 . S
C390 C359 1.383 . S
C390 C377 1.479 . S
C390 C391 1.398 . S
C391 C356 1.382 . S
C391 H368 0.951 . S
C391 C390 1.398 . S
C392 C393 1.387 1_556 S
C392 H396 0.950 . S
C392 C401 1.390 . S
C393 C392 1.387 1_554 S
C393 C395 1.387 . S
H394 C401 0.950 . S
C395 C393 1.387 . S
C395 C397 1.390 . S
C395 H399 0.950 . S
H396 C392 0.950 . S
C397 C395 1.390 . S
C397 C398 1.387 . S
C397 H400 0.950 . S
C398 C397 1.387 . S
C398 C401 1.387 1_554 S
H399 C395 0.950 . S
H400 C397 0.950 . S
C401 C392 1.390 . S
C401 H394 0.950 . S
C401 C398 1.387 1_556 S
C402 C403 1.387 1_556 S
C402 H406 0.950 . S
C402 C411 1.390 . S
C403 C402 1.387 1_554 S
C403 C405 1.387 . S
H404 C411 0.950 . S
C405 C403 1.387 . S
C405 C407 1.390 . S
C405 H409 0.950 . S
H406 C402 0.950 . S
C407 C405 1.390 . S
C407 C408 1.387 . S
C407 H410 0.950 . S
C408 C407 1.387 . S
C408 C411 1.387 1_554 S
H409 C405 0.950 . S
H410 C407 0.950 . S
C411 C402 1.390 . S
C411 H404 0.950 . S
C411 C408 1.387 1_556 S
C412 C413 1.387 . S
C412 H416 0.950 . S
C412 C421 1.390 . S
C413 C412 1.387 . S
C413 C415 1.387 1_554 S
H414 C421 0.950 . S
C415 C413 1.387 1_556 S
C415 C417 1.390 . S
C415 H419 0.950 . S
H416 C412 0.950 . S
C417 C415 1.390 . S
C417 C418 1.387 1_556 S
C417 H420 0.950 . S
C418 C417 1.387 1_554 S
C418 C421 1.387 . S
H419 C415 0.950 . S
H420 C417 0.950 . S
C421 C412 1.390 . S
C421 H414 0.950 . S
C421 C418 1.387 . S
C422 C423 1.387 . S
C422 H426 0.950 . S
C422 C431 1.390 . S
C423 C422 1.387 . S
C423 C425 1.387 1_554 S
H424 C431 0.950 . S
C425 C423 1.387 1_556 S
C425 C427 1.390 . S
C425 H429 0.950 . S
H426 C422 0.950 . S
C427 C425 1.390 . S
C427 C428 1.387 1_556 S
C427 H430 0.950 . S
C428 C427 1.387 1_554 S
C428 C431 1.387 . S
H429 C425 0.950 . S
H430 C427 0.950 . S
C431 C422 1.390 . S
C431 H424 0.950 . S
C431 C428 1.387 . S
C432 C433 1.387 . S
C432 H436 0.950 . S
C432 C441 1.390 . S
C433 C432 1.387 . S
C433 C435 1.387 . S
H434 C441 0.950 . S
C435 C433 1.387 . S
C435 C437 1.390 . S
C435 H439 0.950 . S
H436 C432 0.950 . S
C437 C435 1.390 . S
C437 C438 1.387 . S
C437 H440 0.950 . S
C438 C437 1.387 . S
C438 C441 1.387 . S
H439 C435 0.950 . S
H440 C437 0.950 . S
C441 C432 1.390 . S
C441 H434 0.950 . S
C441 C438 1.387 . S
C442 C443 1.387 . S
C442 H446 0.950 . S
C442 C451 1.390 . S
C443 C442 1.387 . S
C443 C445 1.387 . S
H444 C451 0.950 . S
C445 C443 1.387 . S
C445 C447 1.390 . S
C445 H449 0.950 . S
H446 C442 0.950 . S
C447 C445 1.390 . S
C447 C448 1.387 . S
C447 H450 0.950 . S
C448 C447 1.387 . S
C448 C451 1.387 . S
H449 C445 0.950 . S
H450 C447 0.950 . S
C451 C442 1.390 . S
C451 H444 0.950 . S
C451 C448 1.387 . S
C452 C453 1.387 . S
C452 H456 0.950 . S
C452 C461 1.390 . S
C453 C452 1.387 . S
C453 C455 1.387 . S
H454 C461 0.950 . S
C455 C453 1.387 . S
C455 C457 1.390 . S
C455 H459 0.950 . S
H456 C452 0.950 . S
C457 C455 1.390 . S
C457 C458 1.387 . S
C457 H460 0.950 . S
C458 C457 1.387 . S
C458 C461 1.387 . S
H459 C455 0.950 . S
H460 C457 0.950 . S
C461 C452 1.390 . S
C461 H454 0.950 . S
C461 C458 1.387 . S
C462 C463 1.387 . S
C462 H466 0.950 . S
C462 C471 1.390 . S
C463 C462 1.387 . S
C463 C465 1.387 . S
H464 C471 0.950 . S
C465 C463 1.387 . S
C465 C467 1.390 . S
C465 H469 0.950 . S
H466 C462 0.950 . S
C467 C465 1.390 . S
C467 C468 1.387 . S
C467 H470 0.950 . S
C468 C467 1.387 . S
C468 C471 1.387 . S
H469 C465 0.950 . S
H470 C467 0.950 . S
C471 C462 1.390 . S
C471 H464 0.950 . S
C471 C468 1.387 . S
C472 C473 1.387 . S
C472 H476 0.950 1_455 S
C472 C481 1.390 . S
C473 C472 1.387 . S
C473 C475 1.387 . S
H474 C481 0.950 1_655 S
C475 C473 1.387 . S
C475 C477 1.390 . S
C475 H479 0.950 . S
H476 C472 0.950 1_655 S
C477 C475 1.390 . S
C477 C478 1.387 . S
C477 H480 0.950 . S
C478 C477 1.387 . S
C478 C481 1.387 . S
H479 C475 0.950 . S
H480 C477 0.950 . S
C481 C472 1.390 . S
C481 H474 0.950 1_455 S
C481 C478 1.387 . S
C482 C483 1.387 . S
C482 H486 0.950 . S
C482 C491 1.390 . S
C483 C482 1.387 . S
C483 C485 1.387 . S
H484 C491 0.950 . S
C485 C483 1.387 . S
C485 C487 1.390 . S
C485 H489 0.950 1_545 S
H486 C482 0.950 . S
C487 C485 1.390 . S
C487 C488 1.387 . S
C487 H490 0.950 1_545 S
C488 C487 1.387 . S
C488 C491 1.387 . S
H489 C485 0.950 1_565 S
H490 C487 0.950 1_565 S
C491 C482 1.390 . S
C491 H484 0.950 . S
C491 C488 1.387 . S
C492 C493 1.387 . S
C492 H496 0.950 . S
C492 C501 1.390 . S
C493 C492 1.387 . S
C493 C495 1.387 . S
H494 C501 0.950 . S
C495 C493 1.387 . S
C495 C497 1.390 . S
C495 H499 0.950 1_655 S
H496 C492 0.950 . S
C497 C495 1.390 . S
C497 C498 1.387 . S
C497 H500 0.950 1_655 S
C498 C497 1.387 . S
C498 C501 1.387 . S
H499 C495 0.950 1_455 S
H500 C497 0.950 1_455 S
C501 C492 1.390 . S
C501 H494 0.950 . S
C501 C498 1.387 . S
C502 C503 1.387 . S
C502 H506 0.950 . S
C502 C511 1.390 . S
C503 C502 1.387 . S
C503 C505 1.387 . S
H504 C511 0.950 . S
C505 C503 1.387 . S
C505 C507 1.390 . S
C505 H509 0.950 1_565 S
H506 C502 0.950 . S
C507 C505 1.390 . S
C507 C508 1.387 . S
C507 H510 0.950 1_565 S
C508 C507 1.387 . S
C508 C511 1.387 . S
H509 C505 0.950 1_545 S
H510 C507 0.950 1_545 S
C511 C502 1.390 . S
C511 H504 0.950 . S
C511 C508 1.387 . S
C512 C513 1.387 . S
C512 H516 0.950 1_565 S
C512 C521 1.390 . S
C513 C512 1.387 . S
C513 C515 1.387 . S
H514 C521 0.950 1_545 S
C515 C513 1.387 . S
C515 C517 1.390 . S
C515 H519 0.950 . S
H516 C512 0.950 1_545 S
C517 C515 1.390 . S
C517 C518 1.387 . S
C517 H520 0.950 . S
C518 C517 1.387 . S
C518 C521 1.387 . S
H519 C515 0.950 . S
H520 C517 0.950 . S
C521 C512 1.390 . S
C521 H514 0.950 1_565 S
C521 C518 1.387 . S
C522 C523 1.387 . S
C522 H526 0.950 1_455 S
C522 C531 1.390 . S
C523 C522 1.387 . S
C523 C525 1.387 . S
H524 C531 0.950 1_655 S
C525 C523 1.387 . S
C525 C527 1.390 . S
C525 H529 0.950 . S
H526 C522 0.950 1_655 S
C527 C525 1.390 . S
C527 C528 1.387 . S
C527 H530 0.950 . S
C528 C527 1.387 . S
C528 C531 1.387 . S
H529 C525 0.950 . S
H530 C527 0.950 . S
C531 C522 1.390 . S
C531 H524 0.950 1_455 S
C531 C528 1.387 . S
C532 C533 1.387 . S
C532 H536 0.950 1_545 S
C532 C541 1.390 . S
C533 C532 1.387 . S
C533 C535 1.387 . S
H534 C541 0.950 1_565 S
C535 C533 1.387 . S
C535 C537 1.390 . S
C535 H539 0.950 . S
H536 C532 0.950 1_565 S
C537 C535 1.390 . S
C537 C538 1.387 . S
C537 H540 0.950 . S
C538 C537 1.387 . S
C538 C541 1.387 . S
H539 C535 0.950 . S
H540 C537 0.950 . S
C541 C532 1.390 . S
C541 H534 0.950 1_545 S
C541 C538 1.387 . S
C542 C543 1.387 . S
C542 H546 0.950 . S
C542 C551 1.390 . S
C543 C542 1.387 . S
C543 C545 1.387 . S
H544 C551 0.950 . S
C545 C543 1.387 . S
C545 C547 1.390 . S
C545 H549 0.950 . S
H546 C542 0.950 . S
C547 C545 1.390 . S
C547 C548 1.387 . S
C547 H550 0.950 . S
C548 C547 1.387 . S
C548 C551 1.387 . S
H549 C545 0.950 . S
H550 C547 0.950 . S
C551 C542 1.390 . S
C551 H544 0.950 . S
C551 C548 1.387 . S
C552 C553 1.387 . S
C552 H556 0.950 . S
C552 C561 1.390 . S
C553 C552 1.387 . S
C553 C555 1.387 . S
H554 C561 0.950 . S
C555 C553 1.387 . S
C555 C557 1.390 . S
C555 H559 0.950 . S
H556 C552 0.950 . S
C557 C555 1.390 . S
C557 C558 1.387 . S
C557 H560 0.950 . S
C558 C557 1.387 . S
C558 C561 1.387 . S
H559 C555 0.950 . S
H560 C557 0.950 . S
C561 C552 1.390 . S
C561 H554 0.950 . S
C561 C558 1.387 . S
C562 C563 1.387 . S
C562 H566 0.950 . S
C562 C571 1.390 . S
C563 C562 1.387 . S
C563 C565 1.387 . S
H564 C571 0.950 . S
C565 C563 1.387 . S
C565 C567 1.390 . S
C565 H569 0.950 . S
H566 C562 0.950 . S
C567 C565 1.390 . S
C567 C568 1.387 . S
C567 H570 0.950 . S
C568 C567 1.387 . S
C568 C571 1.387 . S
H569 C565 0.950 . S
H570 C567 0.950 . S
C571 C562 1.390 . S
C571 H564 0.950 . S
C571 C568 1.387 . S
C572 C573 1.387 . S
C572 H576 0.950 . S
C572 C581 1.390 . S
C573 C572 1.387 . S
C573 C575 1.387 . S
H574 C581 0.950 . S
C575 C573 1.387 . S
C575 C577 1.390 . S
C575 H579 0.950 . S
H576 C572 0.950 . S
C577 C575 1.390 . S
C577 C578 1.387 . S
C577 H580 0.950 . S
C578 C577 1.387 . S
C578 C581 1.387 . S
H579 C575 0.950 . S
H580 C577 0.950 . S
C581 C572 1.390 . S
C581 H574 0.950 . S
C581 C578 1.387 . S
C582 C583 1.387 . S
C582 H586 0.950 . S
C582 C591 1.390 . S
C583 C582 1.387 . S
C583 C585 1.387 . S
H584 C591 0.950 . S
C585 C583 1.387 . S
C585 C587 1.390 . S
C585 H589 0.950 . S
H586 C582 0.950 . S
C587 C585 1.390 . S
C587 C588 1.387 . S
C587 H590 0.950 . S
C588 C587 1.387 . S
C588 C591 1.387 . S
H589 C585 0.950 . S
H590 C587 0.950 . S
C591 C582 1.390 . S
C591 H584 0.950 . S
C591 C588 1.387 . S
C592 C593 1.387 . S
C592 H596 0.950 . S
C592 C601 1.390 . S
C593 C592 1.387 . S
C593 C595 1.387 . S
H594 C601 0.950 . S
C595 C593 1.387 . S
C595 C597 1.390 . S
C595 H599 0.950 . S
H596 C592 0.950 . S
C597 C595 1.390 . S
C597 C598 1.387 . S
C597 H600 0.950 . S
C598 C597 1.387 . S
C598 C601 1.387 . S
H599 C595 0.950 . S
H600 C597 0.950 . S
C601 C592 1.390 . S
C601 H594 0.950 . S
C601 C598 1.387 . S
C602 C603 1.387 . S
C602 H606 0.950 . S
C602 C611 1.390 . S
C603 C602 1.387 . S
C603 C605 1.387 . S
H604 C611 0.950 . S
C605 C603 1.387 . S
C605 C607 1.390 . S
C605 H609 0.950 . S
H606 C602 0.950 . S
C607 C605 1.390 . S
C607 C608 1.387 . S
C607 H610 0.950 . S
C608 C607 1.387 . S
C608 C611 1.387 . S
H609 C605 0.950 . S
H610 C607 0.950 . S
C611 C602 1.390 . S
C611 H604 0.950 . S
C611 C608 1.387 . S
C612 C613 1.387 . S
C612 H616 0.950 . S
C612 C621 1.390 . S
C613 C612 1.387 . S
C613 C615 1.387 . S
H614 C621 0.950 . S
C615 C613 1.387 . S
C615 C617 1.390 . S
C615 H619 0.950 . S
H616 C612 0.950 . S
C617 C615 1.390 . S
C617 C618 1.387 . S
C617 H620 0.950 . S
C618 C617 1.387 . S
C618 C621 1.387 . S
H619 C615 0.950 . S
H620 C617 0.950 . S
C621 C612 1.390 . S
C621 H614 0.950 . S
C621 C618 1.387 . S
C622 C623 1.387 . S
C622 H626 0.950 . S
C622 C631 1.390 . S
C623 C622 1.387 . S
C623 C625 1.387 . S
H624 C631 0.950 . S
C625 C623 1.387 . S
C625 C627 1.390 . S
C625 H629 0.950 . S
H626 C622 0.950 . S
C627 C625 1.390 . S
C627 C628 1.387 . S
C627 H630 0.950 . S
C628 C627 1.387 . S
C628 C631 1.387 . S
H629 C625 0.950 . S
H630 C627 0.950 . S
C631 C622 1.390 . S
C631 H624 0.950 . S
C631 C628 1.387 . S
C393 C45 1.630 . S
C398 C129 1.672 . S
C403 C30 1.630 . S
C408 C165 1.672 . S
C413 C39 1.633 . S
C418 C201 1.617 . S
C428 C237 1.617 . S
C423 C34 1.633 . S
C433 C97 1.633 . S
C438 C273 1.674 . S
C448 C309 1.674 . S
C443 C82 1.633 . S
C458 C345 1.617 . S
C453 C91 1.633 . S
C468 C381 1.613 . S
C463 C86 1.630 . S
C478 C321 1.553 . S
C473 C26 1.505 . S
C488 C357 1.555 . S
C483 C36 1.508 . S
C498 C279 1.596 . S
C493 C32 1.511 . S
C508 C315 1.596 . S
C503 C42 1.511 . S
C513 C18 1.576 . S
C518 C285 1.689 . S
C528 C351 1.628 . S
C523 C50 1.578 . S
C533 C4 1.579 . S
C538 C387 1.630 . S
C543 C48 1.574 . S
C548 C249 1.689 . S
C558 C177 1.555 . S
C553 C78 1.508 . S
C563 C88 1.505 . S
C568 C213 1.552 . S
C578 C135 1.596 . S
C573 C84 1.511 . S
C588 C171 1.596 . S
C583 C94 1.511 . S
C598 C141 1.687 . S
C593 C70 1.572 . S
C608 C207 1.629 . S
C603 C102 1.578 . S
C613 C56 1.579 . S
C618 C243 1.629 . S
C623 C100 1.574 . S
C628 C105 1.689 . S
