# Generated by pormake.
# Topology rtl, (3,6)-cn, num edge types: 1
# Building blocks:
#     Node 0, Type 0, BuildingBlock: BETDIP_clean_linker_0, # of connection points: 3
#     Node 1, Type 0, BuildingBlock: BETDIP_clean_linker_0, # of connection points: 3
#     Node 2, Type 0, BuildingBlock: BETDIP_clean_linker_0, # of connection points: 3
#     Node 3, Type 0, BuildingBlock: BETDIP_clean_linker_0, # of connection points: 3
#     Node 4, Type 1, BuildingBlock: VOLQOD_clean_sbu_1, # of connection points: 6
#     Node 5, Type 1, BuildingBlock: VOLQOD_clean_sbu_1, # of connection points: 6
#     Edge 6, Type (0, 1), BuildingBlock: TEMPAE_clean_linker_10, # of connection points: 2
#     Edge 7, Type (0, 1), BuildingBlock: TEMPAE_clean_linker_10, # of connection points: 2
#     Edge 8, Type (0, 1), BuildingBlock: TEMPAE_clean_linker_10, # of connection points: 2
#     Edge 9, Type (0, 1), BuildingBlock: TEMPAE_clean_linker_10, # of connection points: 2
#     Edge 10, Type (0, 1), BuildingBlock: TEMPAE_clean_linker_10, # of connection points: 2
#     Edge 11, Type (0, 1), BuildingBlock: TEMPAE_clean_linker_10, # of connection points: 2
#     Edge 12, Type (0, 1), BuildingBlock: TEMPAE_clean_linker_10, # of connection points: 2
#     Edge 13, Type (0, 1), BuildingBlock: TEMPAE_clean_linker_10, # of connection points: 2
#     Edge 14, Type (0, 1), BuildingBlock: TEMPAE_clean_linker_10, # of connection points: 2
#     Edge 15, Type (0, 1), BuildingBlock: TEMPAE_clean_linker_10, # of connection points: 2
#     Edge 16, Type (0, 1), BuildingBlock: TEMPAE_clean_linker_10, # of connection points: 2
#     Edge 17, Type (0, 1), BuildingBlock: TEMPAE_clean_linker_10, # of connection points: 2
# Relax obj value: 0.041
# Max RMSD: 0.143
# Mean RMSD: 0.095
data_MOF--net-rtl--node1-VOLQOD_clean_sbu_1--node2-BETDIP_clean_linker_0--edge1-TEMPAE_clean_linker_10
_symmetry_space_group_name_H-M    P1
_symmetry_Int_Tables_number       1
_symmetry_cell_setting            triclinic
loop_
_symmetry_equiv_pos_as_xyz
'x, y, z'
_cell_length_a     38.156245
_cell_length_b     38.76221
_cell_length_c     22.342423
_cell_angle_alpha  91.010358
_cell_angle_beta   91.52513
_cell_angle_gamma 90.249595
loop_
_atom_site_label
_atom_site_type_symbol
_atom_site_fract_x
_atom_site_fract_y
_atom_site_fract_z
_atom_type_partial_charge
H0 H 0.17866 0.76976 0.89588 0.0
H1 H 0.17902 0.76168 0.08782 0.0
H2 H 0.10832 0.83137 -0.00041 0.0
H3 H 0.19486 0.70436 0.05886 0.0
C4 C 0.2151 0.7113 0.02787 0.0
C5 C 0.16818 0.77742 0.9387 0.0
C6 C 0.14109 0.8017 0.94134 0.0
C7 C 0.18139 0.76229 -0.00894 0.0
C8 C 0.16819 0.7724 0.04693 0.0
C9 C 0.14147 0.79707 0.0501 0.0
C10 C 0.12808 0.8114 -0.00285 0.0
N11 N 0.20894 0.73805 0.98641 0.0
H12 H 0.6763 0.74137 0.63881 0.0
H13 H 0.67799 0.73765 0.44624 0.0
H14 H 0.64782 0.64823 0.54223 0.0
H15 H 0.68626 0.79395 0.45545 0.0
C16 C 0.70278 0.79692 0.49553 0.0
C17 C 0.67264 0.727 0.59707 0.0
C18 C 0.65892 0.69332 0.59683 0.0
C19 C 0.68086 0.74279 0.5431 0.0
C20 C 0.67353 0.72525 0.48825 0.0
C21 C 0.65987 0.69156 0.48764 0.0
C22 C 0.6556 0.67515 0.54226 0.0
N23 N 0.69727 0.77579 0.54577 0.0
H24 H 0.80963 0.22766 0.89256 0.0
H25 H 0.82623 0.22119 0.08396 0.0
H26 H 0.87944 0.15194 0.96616 0.0
H27 H 0.77981 0.2526 0.09079 0.0
C28 C 0.77296 0.26455 0.04862 0.0
C29 C 0.82235 0.21599 0.9311 0.0
C30 C 0.84524 0.18829 0.92304 0.0
C31 C 0.81463 0.22777 -0.01103 0.0
C32 C 0.83127 0.21239 0.0389 0.0
C33 C 0.85437 0.18473 0.03081 0.0
C34 C 0.86125 0.17302 0.97281 0.0
N35 N 0.7893 0.25429 -0.00525 0.0
H36 H 0.30243 0.29165 0.4163 0.0
H37 H 0.31036 0.28225 0.60816 0.0
H38 H 0.37784 0.35241 0.51864 0.0
H39 H 0.29724 0.22429 0.57688 0.0
C40 C 0.27542 0.22939 0.54609 0.0
C41 C 0.31448 0.29926 0.45902 0.0
C42 C 0.34193 0.32343 0.46131 0.0
C43 C 0.30364 0.28355 0.51152 0.0
C44 C 0.31921 0.29349 0.56713 0.0
C45 C 0.34623 0.31817 0.56968 0.0
C46 C 0.35739 0.33284 0.51668 0.0
N47 N 0.27712 0.25783 0.50708 0.0
O48 O 0.91828 0.97661 0.48072 0.0
Zn49 Zn 0.95353 0.01494 0.48139 0.0
O50 O 0.00128 -0.00165 0.48961 0.0
Zn51 Zn 0.02177 0.01614 0.56521 0.0
Zn52 Zn -0.0001 0.9481 0.49014 0.0
Zn53 Zn 0.02875 0.01405 0.42212 0.0
O54 O 0.06288 0.04681 0.54975 0.0
O55 O 0.06933 0.04415 0.45124 0.0
O56 O 0.94144 0.04694 0.5481 0.0
O57 O 0.9875 0.04547 0.6105 0.0
O58 O 0.03877 0.97735 0.61747 0.0
O59 O 0.0235 0.93051 0.56422 0.0
O60 O 0.02628 0.92809 0.42189 0.0
O61 O 0.94683 0.04142 0.40699 0.0
O62 O 0.04789 0.97342 0.37562 0.0
O63 O -0.00106 0.04256 0.36535 0.0
C64 C 0.92071 0.94395 0.48286 0.0
C65 C 0.079 0.05536 0.50307 0.0
C66 C 0.03778 0.94465 0.61059 0.0
C67 C 0.95692 0.05631 0.59673 0.0
C68 C 0.04447 0.94088 0.38079 0.0
C69 C 0.96671 0.05103 0.36566 0.0
O70 O 0.95046 0.92925 0.48611 0.0
O71 O 0.58515 0.46958 0.03342 0.0
Zn72 Zn 0.55669 0.51267 0.0306 0.0
O73 O 0.50641 0.5036 0.02805 0.0
Zn74 Zn 0.48503 0.52213 0.95501 0.0
Zn75 Zn 0.49972 0.45394 0.02903 0.0
Zn76 Zn 0.48482 0.52524 0.09754 0.0
O77 O 0.44363 0.55218 0.97343 0.0
O78 O 0.44624 0.55732 0.07252 0.0
O79 O 0.57082 0.54011 0.96032 0.0
O80 O 0.52014 0.55175 0.91331 0.0
O81 O 0.46699 0.48372 0.89951 0.0
O82 O 0.47506 0.43717 0.95451 0.0
O83 O 0.46992 0.44084 0.09669 0.0
O84 O 0.57064 0.54108 0.10274 0.0
O85 O 0.46225 0.48933 0.14904 0.0
O86 O 0.52023 0.55334 0.14601 0.0
C87 C 0.57711 0.43782 0.03656 0.0
C88 C 0.43214 0.56466 0.02214 0.0
C89 C 0.46393 0.4513 0.9068 0.0
C90 C 0.55327 0.5553 0.91955 0.0
C91 C 0.45733 0.45699 0.14117 0.0
C92 C 0.55337 0.55638 0.14306 0.0
O93 O 0.54523 0.42802 0.03623 0.0
C94 C 0.25121 0.17088 0.56332 0.0
C95 C 0.24687 0.20369 0.53914 0.0
C96 C 0.22474 0.14576 0.55665 0.0
C97 C 0.19295 0.15403 0.52619 0.0
C98 C 0.18833 0.18733 0.50219 0.0
C99 C 0.21552 0.21172 0.50851 0.0
C100 C 0.23081 0.11037 0.58206 0.0
C101 C 0.15452 0.19731 0.47049 0.0
C102 C 0.13336 0.08246 0.46407 0.0
C103 C 0.10876 0.07987 0.5093 0.0
C104 C 0.16129 0.10612 0.46939 0.0
C105 C 0.16419 0.12812 0.52057 0.0
C106 C 0.13937 0.12568 0.56626 0.0
C107 C 0.11216 0.10136 0.56033 0.0
C108 C 0.18766 0.10761 0.42029 0.0
C109 C 0.14125 0.14912 0.621 0.0
H110 H 0.27554 0.16473 0.58687 0.0
H111 H 0.21199 0.23721 0.4902 0.0
H112 H 0.21124 0.10505 0.61657 0.0
H113 H 0.22726 0.09039 0.5462 0.0
H114 H 0.25748 0.10773 0.60262 0.0
H115 H 0.15506 0.22432 0.45469 0.0
H116 H 0.14931 0.17984 0.43138 0.0
H117 H 0.13229 0.19442 0.50107 0.0
H118 H 0.13096 0.06579 0.42469 0.0
H119 H 0.09306 0.0997 0.59524 0.0
H120 H 0.21447 0.10352 0.43922 0.0
H121 H 0.18732 0.13351 0.39997 0.0
H122 H 0.18235 0.08794 0.38439 0.0
H123 H 0.16666 0.14574 0.6454 0.0
H124 H 0.11972 0.14406 0.65225 0.0
H125 H 0.13983 0.17647 0.6073 0.0
C126 C 0.2482 0.65807 0.05217 0.0
C127 C 0.24718 0.6903 0.02498 0.0
C128 C 0.27833 0.63754 0.05003 0.0
C129 C 0.30834 0.65002 0.0212 0.0
C130 C 0.30752 0.68276 -0.00588 0.0
C131 C 0.27677 0.70241 -0.00414 0.0
C132 C 0.27805 0.6025 0.07853 0.0
C133 C 0.33925 0.6972 0.96405 0.0
C134 C 0.39529 0.61049 0.06831 0.0
C135 C 0.40123 0.58748 0.02056 0.0
C136 C 0.36553 0.63157 0.06842 0.0
C137 C 0.34077 0.629 0.02024 0.0
C138 C 0.34667 0.60592 0.97177 0.0
C139 C 0.37707 0.58568 0.97221 0.0
C140 C 0.36049 0.65643 0.12026 0.0
C141 C 0.32052 0.60208 0.92012 0.0
H142 H 0.22523 0.64877 0.0746 0.0
H143 H 0.27614 0.72753 0.97529 0.0
H144 H 0.28478 0.5823 0.04501 0.0
H145 H 0.29822 0.60163 0.11514 0.0
H146 H 0.25218 0.5961 0.09722 0.0
H147 H 0.33434 0.72317 0.94541 0.0
H148 H 0.36165 0.69906 -0.00332 0.0
H149 H 0.34722 0.67962 0.9272 0.0
H150 H 0.41406 0.61217 0.10556 0.0
H151 H 0.38145 0.56775 0.9354 0.0
H152 H 0.3364 0.64954 0.14418 0.0
H153 H 0.35694 0.683 0.10351 0.0
H154 H 0.38302 0.65643 0.15279 0.0
H155 H 0.29483 0.59359 0.93692 0.0
H156 H 0.32913 0.5831 0.88575 0.0
H157 H 0.31637 0.62731 0.89845 0.0
C158 C 0.75358 0.82747 0.54653 0.0
C159 C 0.73325 0.82049 0.49454 0.0
C160 C 0.7837 0.84827 0.54467 0.0
C161 C 0.7938 0.86202 0.48939 0.0
C162 C 0.77307 0.85537 0.43693 0.0
C163 C 0.74286 0.83482 0.44026 0.0
C164 C 0.80491 0.85521 0.60168 0.0
C165 C 0.78317 0.86941 0.37714 0.0
C166 C 0.85576 0.93882 0.49223 0.0
C167 C 0.88822 0.92293 0.4831 0.0
C168 C 0.82481 0.91931 0.49431 0.0
C169 C 0.82629 0.88307 0.48641 0.0
C170 C 0.85886 0.86687 0.47639 0.0
C171 C 0.88949 0.88699 0.47518 0.0
C172 C 0.7906 0.93743 0.50569 0.0
C173 C 0.86134 0.82828 0.46715 0.0
H174 H 0.74613 0.81656 0.5887 0.0
H175 H 0.72715 0.82929 0.40006 0.0
H176 H 0.83172 0.84468 0.59722 0.0
H177 H 0.80762 0.88342 0.60986 0.0
H178 H 0.79285 0.84353 0.64129 0.0
H179 H 0.76398 0.86218 0.34075 0.0
H180 H 0.78519 0.89796 0.37989 0.0
H181 H 0.80933 0.85951 0.36504 0.0
H182 H 0.85453 0.96656 0.49869 0.0
H183 H 0.91442 0.87453 0.46784 0.0
H184 H 0.77898 0.92754 0.54708 0.0
H185 H 0.77156 0.93194 0.46831 0.0
H186 H 0.79391 0.96583 0.51061 0.0
H187 H 0.85214 0.81495 0.5074 0.0
H188 H 0.88852 0.81979 0.45832 0.0
H189 H 0.84404 0.81986 0.42889 0.0
C190 C 0.72834 0.29955 0.10096 0.0
C191 C 0.7442 0.28991 0.04745 0.0
C192 C 0.70068 0.32325 0.1012 0.0
C193 C 0.68864 0.33744 0.0465 0.0
C194 C 0.7045 0.32768 -0.00774 0.0
C195 C 0.7322 0.30405 -0.00661 0.0
C196 C 0.68446 0.33322 0.15991 0.0
C197 C 0.69225 0.34224 0.93307 0.0
C198 C 0.59775 0.37656 0.03628 0.0
C199 C 0.60545 0.41195 0.04053 0.0
C200 C 0.62457 0.35194 0.03873 0.0
C201 C 0.65984 0.36302 0.04594 0.0
C202 C 0.66776 0.39864 0.05115 0.0
C203 C 0.64049 0.42268 0.0482 0.0
C204 C 0.61522 0.31411 0.0328 0.0
C205 C 0.70509 0.41139 0.05927 0.0
H206 H 0.73763 0.28854 0.14271 0.0
H207 H 0.7443 0.29662 0.9518 0.0
H208 H 0.68722 0.36143 0.16799 0.0
H209 H 0.65599 0.32721 0.15807 0.0
H210 H 0.69672 0.31961 0.19842 0.0
H211 H 0.70699 0.33151 0.89482 0.0
H212 H 0.66396 0.33659 0.92519 0.0
H213 H 0.6954 0.37071 0.93402 0.0
H214 H 0.57077 0.36803 0.03032 0.0
H215 H 0.64671 0.44996 0.0519 0.0
H216 H 0.62557 0.30004 0.07225 0.0
H217 H 0.6276 0.30275 -0.00732 0.0
H218 H 0.58645 0.30973 0.02876 0.0
H219 H 0.71756 0.39963 0.09939 0.0
H220 H 0.70671 0.43991 0.06438 0.0
H221 H 0.72057 0.40337 0.0201 0.0
C222 C 0.09253 0.81509 0.11511 0.0
C223 C 0.12856 0.81008 0.10813 0.0
C224 C 0.08002 0.83366 0.16431 0.0
C225 C 0.10416 0.84722 0.20787 0.0
C226 C 0.14036 0.84002 0.20344 0.0
C227 C 0.1522 0.82154 0.15335 0.0
C228 C 0.04119 0.84065 0.16755 0.0
C229 C 0.16678 0.85363 0.24958 0.0
C230 C 0.07507 0.92971 0.28481 0.0
C231 C 0.06171 0.91724 0.33814 0.0
C232 C 0.08984 0.90722 0.24273 0.0
C233 C 0.09164 0.87148 0.25464 0.0
C234 C 0.07934 0.85889 0.30927 0.0
C235 C 0.06431 0.8819 0.35024 0.0
C236 C 0.1025 0.92155 0.18465 0.0
C237 C 0.08126 0.82103 0.32377 0.0
H238 H 0.0742 0.80575 0.08053 0.0
H239 H 0.18008 0.81782 0.14791 0.0
H240 H 0.03146 0.83387 0.21219 0.0
H241 H 0.03632 0.86858 0.16139 0.0
H242 H 0.02573 0.82595 0.13275 0.0
H243 H 0.19302 0.84182 0.2442 0.0
H244 H 0.16944 0.88198 0.24522 0.0
H245 H 0.15783 0.84866 0.29549 0.0
H246 H 0.07319 0.95696 0.27517 0.0
H247 H 0.05441 0.8721 0.3917 0.0
H248 H 0.08671 0.91041 0.14655 0.0
H249 H 0.13018 0.91415 0.17791 0.0
H250 H 0.10055 0.95012 0.18335 0.0
H251 H 0.06378 0.80605 0.29241 0.0
H252 H 0.07336 0.81586 0.37028 0.0
H253 H 0.10829 0.81134 0.31784 0.0
C254 C 0.61471 0.65663 0.64596 0.0
C255 C 0.64497 0.67736 0.65145 0.0
C256 C 0.60223 0.63851 0.6944 0.0
C257 C 0.61909 0.6427 0.7511 0.0
C258 C 0.6483 0.66524 0.75833 0.0
C259 C 0.66131 0.68196 0.70805 0.0
C260 C 0.57136 0.61427 0.68432 0.0
C261 C 0.66595 0.67134 0.81885 0.0
C262 C 0.55894 0.61188 0.87048 0.0
C263 C 0.57176 0.57863 0.88011 0.0
C264 C 0.57621 0.6344 0.83261 0.0
C265 C 0.60596 0.62266 0.8018 0.0
C266 C 0.61952 0.58934 0.81284 0.0
C267 C 0.60257 0.56791 0.85295 0.0
C268 C 0.56178 0.67021 0.82369 0.0
C269 C 0.6504 0.57542 0.77928 0.0
H270 H 0.60079 0.65409 0.60318 0.0
H271 H 0.68451 0.69808 0.71293 0.0
H272 H 0.57836 0.588 0.69944 0.0
H273 H 0.54892 0.62312 0.711 0.0
H274 H 0.56264 0.61249 0.63652 0.0
H275 H 0.68573 0.69243 0.81815 0.0
H276 H 0.64615 0.67792 0.85268 0.0
H277 H 0.67921 0.64743 0.83361 0.0
H278 H 0.53548 0.62028 0.89279 0.0
H279 H 0.61244 0.54217 0.86101 0.0
H280 H 0.54824 0.67151 0.77926 0.0
H281 H 0.58332 0.68956 0.82458 0.0
H282 H 0.54274 0.6774 0.8585 0.0
H283 H 0.64284 0.57186 0.73123 0.0
H284 H 0.65952 0.55025 0.79677 0.0
H285 H 0.67259 0.59397 0.7819 0.0
C286 C 0.87115 0.13082 0.08301 0.0
C287 C 0.8708 0.16698 0.08237 0.0
C288 C 0.88806 0.11321 0.12948 0.0
C289 C 0.90483 0.13225 0.1767 0.0
C290 C 0.90429 0.16877 0.17678 0.0
C291 C 0.88717 0.18578 0.12947 0.0
C292 C 0.88784 0.07422 0.12813 0.0
C293 C 0.92185 0.1898 0.22665 0.0
C294 C 0.91677 0.08395 0.3211 0.0
C295 C 0.95169 0.07293 0.31798 0.0
C296 C 0.90157 0.10419 0.27627 0.0
C297 C 0.92174 0.11362 0.22697 0.0
C298 C 0.95719 0.10326 0.22393 0.0
C299 C 0.97181 0.083 0.26959 0.0
C300 C 0.86364 0.11474 0.28097 0.0
C301 C 0.97938 0.11287 0.17175 0.0
H302 H 0.85805 0.11626 0.04701 0.0
H303 H 0.88715 0.21373 0.12868 0.0
H304 H 0.91511 0.06439 0.12985 0.0
H305 H 0.87455 0.06444 0.16805 0.0
H306 H 0.87427 0.06336 0.08736 0.0
H307 H 0.91935 0.21799 0.21967 0.0
H308 H 0.91015 0.18346 0.27006 0.0
H309 H 0.9501 0.18325 0.23018 0.0
H310 H 0.90102 0.07655 0.3585 0.0
H311 H -0.00117 0.07474 0.26697 0.0
H312 H 0.8479 0.10273 0.24361 0.0
H313 H 0.86117 0.14311 0.27697 0.0
H314 H 0.85221 0.10692 0.32392 0.0
H315 H 0.96844 0.10064 0.13001 0.0
H316 H 0.00707 0.10461 0.17792 0.0
H317 H 0.97888 0.1412 0.16549 0.0
C318 C 0.39931 0.33246 0.6323 0.0
C319 C 0.36269 0.33009 0.62699 0.0
C320 C 0.41557 0.34989 0.68094 0.0
C321 C 0.39463 0.36519 0.72536 0.0
C322 C 0.35772 0.36099 0.72221 0.0
C323 C 0.34212 0.34338 0.67286 0.0
C324 C 0.45502 0.35356 0.68297 0.0
C325 C 0.33464 0.37674 0.76911 0.0
C326 C 0.44082 0.3941 0.86995 0.0
C327 C 0.44614 0.42943 0.86013 0.0
C328 C 0.42353 0.37297 0.82695 0.0
C329 C 0.41136 0.38746 0.77272 0.0
C330 C 0.41645 0.42308 0.7625 0.0
C331 C 0.43376 0.44367 0.80639 0.0
C332 C 0.41855 0.3351 0.83932 0.0
C333 C 0.40391 0.43937 0.70491 0.0
H334 H 0.41518 0.32186 0.59693 0.0
H335 H 0.31379 0.34172 0.66846 0.0
H336 H 0.46231 0.38101 0.67705 0.0
H337 H 0.46587 0.34568 0.72718 0.0
H338 H 0.46757 0.33784 0.64749 0.0
H339 H 0.3069 0.36819 0.76342 0.0
H340 H 0.34429 0.36991 0.81463 0.0
H341 H 0.33559 0.40528 0.76626 0.0
H342 H 0.45014 0.38281 0.91143 0.0
H343 H 0.43765 0.47091 0.79847 0.0
H344 H 0.43244 0.3193 0.80562 0.0
H345 H 0.39035 0.32814 0.83527 0.0
H346 H 0.42852 0.3281 0.88465 0.0
H347 H 0.41715 0.42711 0.66641 0.0
H348 H 0.40915 0.46758 0.70455 0.0
H349 H 0.37533 0.43498 0.69802 0.0
C350 C 0.61697 0.65279 0.43305 0.0
C351 C 0.64689 0.67402 0.43141 0.0
C352 C 0.60456 0.63464 0.38234 0.0
C353 C 0.62108 0.63929 0.32724 0.0
C354 C 0.65029 0.66178 0.32407 0.0
C355 C 0.6633 0.67847 0.37654 0.0
C356 C 0.57377 0.6103 0.38804 0.0
C357 C 0.6676 0.6683 0.26535 0.0
C358 C 0.60305 0.56692 0.21499 0.0
C359 C 0.57233 0.57865 0.18669 0.0
C360 C 0.62035 0.58715 0.25928 0.0
C361 C 0.60721 0.62032 0.27353 0.0
C362 C 0.57746 0.6331 0.242 0.0
C363 C 0.55985 0.61173 0.19975 0.0
C364 C 0.65115 0.5721 0.29349 0.0
C365 C 0.56342 0.6688 0.25453 0.0
H366 H 0.60294 0.65024 0.47427 0.0
H367 H 0.68637 0.69474 0.37451 0.0
H368 H 0.55096 0.61975 0.3614 0.0
H369 H 0.58042 0.58433 0.37011 0.0
H370 H 0.56576 0.60764 0.43519 0.0
H371 H 0.68868 0.68811 0.26983 0.0
H372 H 0.67907 0.64405 0.24775 0.0
H373 H 0.64778 0.67697 0.23166 0.0
H374 H 0.61259 0.54127 0.20442 0.0
H375 H 0.5364 0.6209 0.17674 0.0
H376 H 0.64366 0.56749 0.34036 0.0
H377 H 0.67355 0.59043 0.29522 0.0
H378 H 0.65995 0.54728 0.27343 0.0
H379 H 0.55042 0.6693 0.29834 0.0
H380 H 0.54404 0.67687 0.21958 0.0
H381 H 0.58514 0.68795 0.25723 0.0
C382 C 0.84633 0.13892 0.8517 0.0
C383 C 0.85262 0.17402 0.86331 0.0
C384 C 0.86046 0.1224 0.80183 0.0
C385 C 0.88148 0.14157 0.76301 0.0
C386 C 0.88557 0.17765 0.77196 0.0
C387 C 0.87097 0.19357 0.82236 0.0
C388 C 0.85519 0.08395 0.79353 0.0
C389 C 0.90753 0.19891 0.73107 0.0
C390 C 0.95348 0.08851 0.69433 0.0
C391 C 0.93873 0.08013 0.63781 0.0
C392 C 0.93562 0.10971 0.73463 0.0
C393 C 0.90229 0.12292 0.71785 0.0
C394 C 0.88783 0.11566 0.66012 0.0
C395 C 0.90618 0.09425 0.62079 0.0
C396 C 0.95184 0.11691 0.79603 0.0
C397 C 0.85246 0.12949 0.64068 0.0
H398 H 0.83198 0.124 0.88367 0.0
H399 H 0.8759 0.22071 0.83189 0.0
H400 H 0.8471 0.07755 0.74658 0.0
H401 H 0.88032 0.07053 0.80301 0.0
H402 H 0.83513 0.07367 0.82373 0.0
H403 H 0.90351 0.22702 0.73835 0.0
H404 H 0.93566 0.19315 0.73958 0.0
H405 H 0.90134 0.19226 0.68345 0.0
H406 H 0.97868 0.0779 0.70769 0.0
H407 H 0.89471 0.08822 0.57693 0.0
H408 H 0.93546 0.10512 0.83059 0.0
H409 H 0.95278 0.14511 0.8054 0.0
H410 H 0.97884 0.10649 0.8007 0.0
H411 H 0.83167 0.11709 0.66676 0.0
H412 H 0.84665 0.12458 0.59228 0.0
H413 H 0.85113 0.15767 0.64988 0.0
C414 C 0.33291 0.35573 0.36615 0.0
C415 C 0.35545 0.33904 0.40666 0.0
C416 C 0.34646 0.37471 0.31895 0.0
C417 C 0.38325 0.37677 0.31253 0.0
C418 C 0.40591 0.35864 0.35186 0.0
C419 C 0.39169 0.33994 0.39837 0.0
C420 C 0.32159 0.39356 0.27745 0.0
C421 C 0.44527 0.35994 0.34616 0.0
C422 C 0.4256 0.40351 0.16947 0.0
C423 C 0.43622 0.43747 0.18374 0.0
C424 C 0.40674 0.38398 0.20987 0.0
C425 C 0.39855 0.39865 0.26609 0.0
C426 C 0.40812 0.43326 0.28009 0.0
C427 C 0.42677 0.45235 0.23859 0.0
C428 C 0.39674 0.34722 0.19325 0.0
C429 C 0.39988 0.44968 0.33985 0.0
H430 H 0.30489 0.35514 0.3729 0.0
H431 H 0.40904 0.32665 0.42944 0.0
H432 H 0.32524 0.4218 0.28393 0.0
H433 H 0.32734 0.3873 0.23009 0.0
H434 H 0.29374 0.38706 0.28545 0.0
H435 H 0.45907 0.34338 0.37922 0.0
H436 H 0.45261 0.35149 0.30051 0.0
H437 H 0.45473 0.38687 0.35292 0.0
H438 H 0.43233 0.39193 0.12681 0.0
H439 H 0.4347 0.47861 0.24979 0.0
H440 H 0.36854 0.34265 0.20125 0.0
H441 H 0.41188 0.32922 0.22194 0.0
H442 H 0.40196 0.34083 0.14565 0.0
H443 H 0.37161 0.44666 0.349 0.0
H444 H 0.40669 0.47758 0.34197 0.0
H445 H 0.41479 0.43646 0.37601 0.0
C446 C 0.14917 0.83163 0.84421 0.0
C447 C 0.12673 0.81819 0.88673 0.0
C448 C 0.13583 0.85092 0.79624 0.0
C449 C 0.0993 0.85688 0.79107 0.0
C450 C 0.07645 0.8422 0.83254 0.0
C451 C 0.09045 0.82289 0.87971 0.0
C452 C 0.1609 0.86597 0.75242 0.0
C453 C 0.03731 0.84787 0.82834 0.0
C454 C 0.06624 0.93646 0.71159 0.0
C455 C 0.0541 0.9224 0.65658 0.0
C456 C 0.08151 0.91544 0.75547 0.0
C457 C 0.08491 0.87961 0.74383 0.0
C458 C 0.07322 0.86533 0.68814 0.0
C459 C 0.05784 0.88687 0.64525 0.0
C460 C 0.09348 0.93149 0.81468 0.0
C461 C 0.07662 0.82724 0.67412 0.0
H462 H 0.17725 0.82823 0.84978 0.0
H463 H 0.07301 0.81204 0.91205 0.0
H464 H 0.15241 0.85911 0.70583 0.0
H465 H 0.16077 0.89454 0.75652 0.0
H466 H 0.18818 0.85682 0.76009 0.0
H467 H 0.02308 0.83347 0.8628 0.0
H468 H 0.03159 0.87576 0.83407 0.0
H469 H 0.02689 0.83973 0.78345 0.0
H470 H 0.06347 0.96386 0.72069 0.0
H471 H 0.04879 0.87578 0.6027 0.0
H472 H 0.12161 0.92585 0.82348 0.0
H473 H 0.07859 0.92007 0.8515 0.0
H474 H 0.08981 0.95991 0.81604 0.0
H475 H 0.10432 0.81914 0.68009 0.0
H476 H 0.06758 0.82047 0.62769 0.0
H477 H 0.06096 0.81217 0.70572 0.0
loop_
_geom_bond_atom_site_label_1
_geom_bond_atom_site_label_2
_geom_bond_distance
_geom_bond_site_symmetry_2
_ccdc_geom_bond_type
H0 C5 0.930 . S
H1 C8 0.930 . S
H2 C10 0.930 . S
H3 C4 1.016 . S
C4 H3 1.016 . S
C4 N11 1.286 1_554 S
C5 H0 0.930 . S
C5 C6 1.397 . S
C5 C7 1.361 1_556 S
C6 C5 1.397 . S
C6 C10 1.390 1_556 S
C7 C5 1.361 1_554 S
C7 C8 1.393 . S
C7 N11 1.413 1_554 S
C8 H1 0.930 . S
C8 C7 1.393 . S
C8 C9 1.399 . S
C9 C8 1.399 . S
C9 C10 1.381 . S
C10 H2 0.930 . S
C10 C6 1.390 1_554 S
C10 C9 1.381 . S
N11 C4 1.286 1_556 S
N11 C7 1.413 1_556 S
H12 C17 0.930 . S
H13 C20 0.930 . S
H14 C22 0.930 . S
H15 C16 1.016 . S
C16 H15 1.016 . S
C16 N23 1.286 . S
C17 H12 0.930 . S
C17 C18 1.397 . S
C17 C19 1.361 . S
C18 C17 1.397 . S
C18 C22 1.390 . S
C19 C17 1.361 . S
C19 C20 1.393 . S
C19 N23 1.413 . S
C20 H13 0.930 . S
C20 C19 1.393 . S
C20 C21 1.399 . S
C21 C20 1.399 . S
C21 C22 1.381 . S
C22 H14 0.930 . S
C22 C18 1.390 . S
C22 C21 1.381 . S
N23 C16 1.286 . S
N23 C19 1.413 . S
H24 C29 0.930 . S
H25 C32 0.930 . S
H26 C34 0.930 . S
H27 C28 1.016 . S
C28 H27 1.016 . S
C28 N35 1.286 1_554 S
C29 H24 0.930 . S
C29 C30 1.397 . S
C29 C31 1.361 1_556 S
C30 C29 1.397 . S
C30 C34 1.390 1_556 S
C31 C29 1.361 1_554 S
C31 C32 1.393 . S
C31 N35 1.413 1_554 S
C32 H25 0.930 . S
C32 C31 1.393 . S
C32 C33 1.399 . S
C33 C32 1.399 . S
C33 C34 1.381 . S
C34 H26 0.930 . S
C34 C30 1.390 1_554 S
C34 C33 1.381 . S
N35 C28 1.286 1_556 S
N35 C31 1.413 1_556 S
H36 C41 0.930 . S
H37 C44 0.930 . S
H38 C46 0.930 . S
H39 C40 1.016 . S
C40 H39 1.016 . S
C40 N47 1.286 . S
C41 H36 0.930 . S
C41 C42 1.397 . S
C41 C43 1.361 . S
C42 C41 1.397 . S
C42 C46 1.390 . S
C43 C41 1.361 . S
C43 C44 1.393 . S
C43 N47 1.413 . S
C44 H37 0.930 . S
C44 C43 1.393 . S
C44 C45 1.399 . S
C45 C44 1.399 . S
C45 C46 1.381 . S
C46 H38 0.930 . S
C46 C42 1.390 . S
C46 C45 1.381 . S
N47 C40 1.286 . S
N47 C43 1.413 . S
O48 Zn49 1.953 1_565 S
O48 C64 1.225 . S
Zn49 O48 1.953 1_545 S
Zn49 O50 1.949 1_655 S
Zn49 O56 1.919 . S
Zn49 O61 1.924 . S
O50 Zn49 1.949 1_455 S
O50 Zn51 1.923 . S
O50 Zn52 1.950 1_545 S
O50 Zn53 1.945 . S
Zn51 O50 1.923 . S
Zn51 O54 1.933 . S
Zn51 O57 1.941 1_455 S
Zn51 O58 1.965 1_545 S
Zn52 O50 1.950 1_565 S
Zn52 O59 1.938 . S
Zn52 O60 1.906 . S
Zn52 O70 1.953 1_455 S
Zn53 O50 1.945 . S
Zn53 O55 1.932 . S
Zn53 O62 1.977 1_545 S
Zn53 O63 1.910 1_455 S
O54 Zn51 1.933 . S
O54 C65 1.226 . S
O55 Zn53 1.932 . S
O55 C65 1.307 . S
O56 Zn49 1.919 . S
O56 C67 1.253 . S
O57 Zn51 1.941 1_655 S
O57 C67 1.283 . S
O58 Zn51 1.965 1_565 S
O58 C66 1.303 . S
O59 Zn52 1.938 . S
O59 C66 1.247 . S
O60 Zn52 1.906 . S
O60 C68 1.304 . S
O61 Zn49 1.924 . S
O61 C69 1.311 . S
O62 Zn53 1.977 1_565 S
O62 C68 1.272 . S
O63 Zn53 1.910 1_655 S
O63 C69 1.231 . S
C64 O48 1.225 . S
C64 O70 1.298 . S
C65 O54 1.226 . S
C65 O55 1.307 . S
C66 O58 1.303 . S
C66 O59 1.247 . S
C67 O56 1.253 . S
C67 O57 1.283 . S
C68 O60 1.304 . S
C68 O62 1.272 . S
C69 O61 1.311 . S
C69 O63 1.231 . S
O70 Zn52 1.953 1_655 S
O70 C64 1.298 . S
O71 Zn72 1.953 . S
O71 C87 1.225 . S
Zn72 O71 1.953 . S
Zn72 O73 1.949 . S
Zn72 O79 1.919 1_554 S
Zn72 O84 1.924 . S
O73 Zn72 1.949 . S
O73 Zn74 1.923 1_554 S
O73 Zn75 1.950 . S
O73 Zn76 1.945 . S
Zn74 O73 1.923 1_556 S
Zn74 O77 1.933 . S
Zn74 O80 1.941 . S
Zn74 O81 1.965 . S
Zn75 O73 1.950 . S
Zn75 O82 1.938 1_554 S
Zn75 O83 1.906 . S
Zn75 O93 1.953 . S
Zn76 O73 1.945 . S
Zn76 O78 1.932 . S
Zn76 O85 1.977 . S
Zn76 O86 1.910 . S
O77 Zn74 1.933 . S
O77 C88 1.226 1_556 S
O78 Zn76 1.932 . S
O78 C88 1.307 . S
O79 Zn72 1.919 1_556 S
O79 C90 1.253 . S
O80 Zn74 1.941 . S
O80 C90 1.283 . S
O81 Zn74 1.965 . S
O81 C89 1.303 . S
O82 Zn75 1.938 1_556 S
O82 C89 1.247 . S
O83 Zn75 1.906 . S
O83 C91 1.304 . S
O84 Zn72 1.924 . S
O84 C92 1.311 . S
O85 Zn76 1.977 . S
O85 C91 1.272 . S
O86 Zn76 1.910 . S
O86 C92 1.231 . S
C87 O71 1.225 . S
C87 O93 1.298 . S
C88 O77 1.226 1_554 S
C88 O78 1.307 . S
C89 O81 1.303 . S
C89 O82 1.247 . S
C90 O79 1.253 . S
C90 O80 1.283 . S
C91 O83 1.304 . S
C91 O85 1.272 . S
C92 O84 1.311 . S
C92 O86 1.231 . S
O93 Zn75 1.953 . S
O93 C87 1.298 . S
C94 C95 1.391 . S
C94 C96 1.394 . S
C94 H110 0.931 . S
C95 C94 1.391 . S
C95 C99 1.376 . S
C96 C94 1.394 . S
C96 C97 1.369 . S
C96 C100 1.531 . S
C97 C96 1.369 . S
C97 C98 1.410 . S
C97 C105 1.503 . S
C98 C97 1.410 . S
C98 C99 1.392 . S
C98 C101 1.511 . S
C99 C95 1.376 . S
C99 C98 1.392 . S
C99 H111 0.929 . S
C100 C96 1.531 . S
C100 H112 0.960 . S
C100 H113 0.962 . S
C100 H114 0.960 . S
C101 C98 1.511 . S
C101 H115 0.961 . S
C101 H116 0.961 . S
C101 H117 0.961 . S
C102 C103 1.370 . S
C102 C104 1.363 . S
C102 H118 0.931 . S
C103 C102 1.370 . S
C103 C107 1.408 . S
C104 C102 1.363 . S
C104 C105 1.370 . S
C104 C108 1.524 . S
C105 C97 1.503 . S
C105 C104 1.370 . S
C105 C106 1.403 . S
C106 C105 1.403 . S
C106 C107 1.404 . S
C106 C109 1.539 . S
C107 C103 1.408 . S
C107 C106 1.404 . S
C107 H119 0.930 . S
C108 C104 1.524 . S
C108 H120 0.956 . S
C108 H121 0.961 . S
C108 H122 0.961 . S
C109 C106 1.539 . S
C109 H123 0.958 . S
C109 H124 0.961 . S
C109 H125 0.960 . S
H110 C94 0.931 . S
H111 C99 0.929 . S
H112 C100 0.960 . S
H113 C100 0.962 . S
H114 C100 0.960 . S
H115 C101 0.961 . S
H116 C101 0.961 . S
H117 C101 0.961 . S
H118 C102 0.931 . S
H119 C107 0.930 . S
H120 C108 0.956 . S
H121 C108 0.961 . S
H122 C108 0.961 . S
H123 C109 0.958 . S
H124 C109 0.961 . S
H125 C109 0.960 . S
C126 C127 1.391 . S
C126 C128 1.394 . S
C126 H142 0.931 . S
C127 C126 1.391 . S
C127 C131 1.376 1_554 S
C128 C126 1.394 . S
C128 C129 1.369 . S
C128 C132 1.531 . S
C129 C128 1.369 . S
C129 C130 1.410 1_554 S
C129 C137 1.503 . S
C130 C129 1.410 1_556 S
C130 C131 1.392 . S
C130 C133 1.511 . S
C131 C127 1.376 1_556 S
C131 C130 1.392 . S
C131 H143 0.929 . S
C132 C128 1.531 . S
C132 H144 0.960 . S
C132 H145 0.962 . S
C132 H146 0.960 . S
C133 C130 1.511 . S
C133 H147 0.961 . S
C133 H148 0.961 . S
C133 H149 0.961 . S
C134 C135 1.370 . S
C134 C136 1.363 . S
C134 H150 0.931 . S
C135 C134 1.370 . S
C135 C139 1.408 . S
C136 C134 1.363 . S
C136 C137 1.370 . S
C136 C140 1.524 . S
C137 C129 1.503 . S
C137 C136 1.370 . S
C137 C138 1.403 . S
C138 C137 1.403 . S
C138 C139 1.404 . S
C138 C141 1.539 . S
C139 C135 1.408 . S
C139 C138 1.404 . S
C139 H151 0.930 . S
C140 C136 1.524 . S
C140 H152 0.956 . S
C140 H153 0.961 . S
C140 H154 0.961 . S
C141 C138 1.539 . S
C141 H155 0.958 . S
C141 H156 0.961 1_554 S
C141 H157 0.960 1_554 S
H142 C126 0.931 . S
H143 C131 0.929 . S
H144 C132 0.960 . S
H145 C132 0.962 . S
H146 C132 0.960 . S
H147 C133 0.961 . S
H148 C133 0.961 . S
H149 C133 0.961 . S
H150 C134 0.931 . S
H151 C139 0.930 . S
H152 C140 0.956 . S
H153 C140 0.961 . S
H154 C140 0.961 . S
H155 C141 0.958 . S
H156 C141 0.961 1_556 S
H157 C141 0.960 1_556 S
C158 C159 1.391 . S
C158 C160 1.394 . S
C158 H174 0.931 . S
C159 C158 1.391 . S
C159 C163 1.376 . S
C160 C158 1.394 . S
C160 C161 1.369 . S
C160 C164 1.531 . S
C161 C160 1.369 . S
C161 C162 1.410 . S
C161 C169 1.503 . S
C162 C161 1.410 . S
C162 C163 1.392 . S
C162 C165 1.511 . S
C163 C159 1.376 . S
C163 C162 1.392 . S
C163 H175 0.929 . S
C164 C160 1.531 . S
C164 H176 0.960 . S
C164 H177 0.962 . S
C164 H178 0.960 . S
C165 C162 1.511 . S
C165 H179 0.961 . S
C165 H180 0.961 . S
C165 H181 0.961 . S
C166 C167 1.370 . S
C166 C168 1.363 . S
C166 H182 0.931 . S
C167 C166 1.370 . S
C167 C171 1.408 . S
C168 C166 1.363 . S
C168 C169 1.370 . S
C168 C172 1.524 . S
C169 C161 1.503 . S
C169 C168 1.370 . S
C169 C170 1.403 . S
C170 C169 1.403 . S
C170 C171 1.404 . S
C170 C173 1.539 . S
C171 C167 1.408 . S
C171 C170 1.404 . S
C171 H183 0.930 . S
C172 C168 1.524 . S
C172 H184 0.956 . S
C172 H185 0.961 . S
C172 H186 0.961 . S
C173 C170 1.539 . S
C173 H187 0.958 . S
C173 H188 0.961 . S
C173 H189 0.960 . S
H174 C158 0.931 . S
H175 C163 0.929 . S
H176 C164 0.960 . S
H177 C164 0.962 . S
H178 C164 0.960 . S
H179 C165 0.961 . S
H180 C165 0.961 . S
H181 C165 0.961 . S
H182 C166 0.931 . S
H183 C171 0.930 . S
H184 C172 0.956 . S
H185 C172 0.961 . S
H186 C172 0.961 . S
H187 C173 0.958 . S
H188 C173 0.961 . S
H189 C173 0.960 . S
C190 C191 1.391 . S
C190 C192 1.394 . S
C190 H206 0.931 . S
C191 C190 1.391 . S
C191 C195 1.376 1_554 S
C192 C190 1.394 . S
C192 C193 1.369 . S
C192 C196 1.531 . S
C193 C192 1.369 . S
C193 C194 1.410 1_554 S
C193 C201 1.503 . S
C194 C193 1.410 1_556 S
C194 C195 1.392 . S
C194 C197 1.511 . S
C195 C191 1.376 1_556 S
C195 C194 1.392 . S
C195 H207 0.929 . S
C196 C192 1.531 . S
C196 H208 0.960 . S
C196 H209 0.962 . S
C196 H210 0.960 . S
C197 C194 1.511 . S
C197 H211 0.961 . S
C197 H212 0.961 . S
C197 H213 0.961 . S
C198 C199 1.370 . S
C198 C200 1.363 . S
C198 H214 0.931 1_554 S
C199 C198 1.370 . S
C199 C203 1.408 . S
C200 C198 1.363 . S
C200 C201 1.370 . S
C200 C204 1.524 1_554 S
C201 C193 1.503 . S
C201 C200 1.370 . S
C201 C202 1.403 . S
C202 C201 1.403 . S
C202 C203 1.404 . S
C202 C205 1.539 . S
C203 C199 1.408 . S
C203 C202 1.404 . S
C203 H215 0.930 . S
C204 C200 1.524 1_556 S
C204 H216 0.956 1_556 S
C204 H217 0.961 . S
C204 H218 0.961 . S
C205 C202 1.539 . S
C205 H219 0.958 . S
C205 H220 0.961 . S
C205 H221 0.960 . S
H206 C190 0.931 . S
H207 C195 0.929 . S
H208 C196 0.960 . S
H209 C196 0.962 . S
H210 C196 0.960 . S
H211 C197 0.961 . S
H212 C197 0.961 . S
H213 C197 0.961 . S
H214 C198 0.931 1_556 S
H215 C203 0.930 . S
H216 C204 0.956 1_554 S
H217 C204 0.961 . S
H218 C204 0.961 . S
H219 C205 0.958 . S
H220 C205 0.961 . S
H221 C205 0.960 . S
C222 C223 1.391 . S
C222 C224 1.394 . S
C222 H238 0.931 . S
C223 C222 1.391 . S
C223 C227 1.376 . S
C224 C222 1.394 . S
C224 C225 1.369 . S
C224 C228 1.531 . S
C225 C224 1.369 . S
C225 C226 1.410 . S
C225 C233 1.503 . S
C226 C225 1.410 . S
C226 C227 1.392 . S
C226 C229 1.511 . S
C227 C223 1.376 . S
C227 C226 1.392 . S
C227 H239 0.929 . S
C228 C224 1.531 . S
C228 H240 0.960 . S
C228 H241 0.962 . S
C228 H242 0.960 . S
C229 C226 1.511 . S
C229 H243 0.961 . S
C229 H244 0.961 . S
C229 H245 0.961 . S
C230 C231 1.370 . S
C230 C232 1.363 . S
C230 H246 0.931 . S
C231 C230 1.370 . S
C231 C235 1.408 . S
C232 C230 1.363 . S
C232 C233 1.370 . S
C232 C236 1.524 . S
C233 C225 1.503 . S
C233 C232 1.370 . S
C233 C234 1.403 . S
C234 C233 1.403 . S
C234 C235 1.404 . S
C234 C237 1.539 . S
C235 C231 1.408 . S
C235 C234 1.404 . S
C235 H247 0.930 . S
C236 C232 1.524 . S
C236 H248 0.956 . S
C236 H249 0.961 . S
C236 H250 0.961 . S
C237 C234 1.539 . S
C237 H251 0.958 . S
C237 H252 0.961 . S
C237 H253 0.960 . S
H238 C222 0.931 . S
H239 C227 0.929 . S
H240 C228 0.960 . S
H241 C228 0.962 . S
H242 C228 0.960 . S
H243 C229 0.961 . S
H244 C229 0.961 . S
H245 C229 0.961 . S
H246 C230 0.931 . S
H247 C235 0.930 . S
H248 C236 0.956 . S
H249 C236 0.961 . S
H250 C236 0.961 . S
H251 C237 0.958 . S
H252 C237 0.961 . S
H253 C237 0.960 . S
C254 C255 1.391 . S
C254 C256 1.394 . S
C254 H270 0.931 . S
C255 C254 1.391 . S
C255 C259 1.376 . S
C256 C254 1.394 . S
C256 C257 1.369 . S
C256 C260 1.531 . S
C257 C256 1.369 . S
C257 C258 1.410 . S
C257 C265 1.503 . S
C258 C257 1.410 . S
C258 C259 1.392 . S
C258 C261 1.511 . S
C259 C255 1.376 . S
C259 C258 1.392 . S
C259 H271 0.929 . S
C260 C256 1.531 . S
C260 H272 0.960 . S
C260 H273 0.962 . S
C260 H274 0.960 . S
C261 C258 1.511 . S
C261 H275 0.961 . S
C261 H276 0.961 . S
C261 H277 0.961 . S
C262 C263 1.370 . S
C262 C264 1.363 . S
C262 H278 0.931 . S
C263 C262 1.370 . S
C263 C267 1.408 . S
C264 C262 1.363 . S
C264 C265 1.370 . S
C264 C268 1.524 . S
C265 C257 1.503 . S
C265 C264 1.370 . S
C265 C266 1.403 . S
C266 C265 1.403 . S
C266 C267 1.404 . S
C266 C269 1.539 . S
C267 C263 1.408 . S
C267 C266 1.404 . S
C267 H279 0.930 . S
C268 C264 1.524 . S
C268 H280 0.956 . S
C268 H281 0.961 . S
C268 H282 0.961 . S
C269 C266 1.539 . S
C269 H283 0.958 . S
C269 H284 0.961 . S
C269 H285 0.960 . S
H270 C254 0.931 . S
H271 C259 0.929 . S
H272 C260 0.960 . S
H273 C260 0.962 . S
H274 C260 0.960 . S
H275 C261 0.961 . S
H276 C261 0.961 . S
H277 C261 0.961 . S
H278 C262 0.931 . S
H279 C267 0.930 . S
H280 C268 0.956 . S
H281 C268 0.961 . S
H282 C268 0.961 . S
H283 C269 0.958 . S
H284 C269 0.961 . S
H285 C269 0.960 . S
C286 C287 1.391 . S
C286 C288 1.394 . S
C286 H302 0.931 . S
C287 C286 1.391 . S
C287 C291 1.376 . S
C288 C286 1.394 . S
C288 C289 1.369 . S
C288 C292 1.531 . S
C289 C288 1.369 . S
C289 C290 1.410 . S
C289 C297 1.503 . S
C290 C289 1.410 . S
C290 C291 1.392 . S
C290 C293 1.511 . S
C291 C287 1.376 . S
C291 C290 1.392 . S
C291 H303 0.929 . S
C292 C288 1.531 . S
C292 H304 0.960 . S
C292 H305 0.962 . S
C292 H306 0.960 . S
C293 C290 1.511 . S
C293 H307 0.961 . S
C293 H308 0.961 . S
C293 H309 0.961 . S
C294 C295 1.370 . S
C294 C296 1.363 . S
C294 H310 0.931 . S
C295 C294 1.370 . S
C295 C299 1.408 . S
C296 C294 1.363 . S
C296 C297 1.370 . S
C296 C300 1.524 . S
C297 C289 1.503 . S
C297 C296 1.370 . S
C297 C298 1.403 . S
C298 C297 1.403 . S
C298 C299 1.404 . S
C298 C301 1.539 . S
C299 C295 1.408 . S
C299 C298 1.404 . S
C299 H311 0.930 . S
C300 C296 1.524 . S
C300 H312 0.956 . S
C300 H313 0.961 . S
C300 H314 0.961 . S
C301 C298 1.539 . S
C301 H315 0.958 . S
C301 H316 0.961 . S
C301 H317 0.960 . S
H302 C286 0.931 . S
H303 C291 0.929 . S
H304 C292 0.960 . S
H305 C292 0.962 . S
H306 C292 0.960 . S
H307 C293 0.961 . S
H308 C293 0.961 . S
H309 C293 0.961 . S
H310 C294 0.931 . S
H311 C299 0.930 . S
H312 C300 0.956 . S
H313 C300 0.961 . S
H314 C300 0.961 . S
H315 C301 0.958 . S
H316 C301 0.961 . S
H317 C301 0.960 . S
C318 C319 1.391 . S
C318 C320 1.394 . S
C318 H334 0.931 . S
C319 C318 1.391 . S
C319 C323 1.376 . S
C320 C318 1.394 . S
C320 C321 1.369 . S
C320 C324 1.531 . S
C321 C320 1.369 . S
C321 C322 1.410 . S
C321 C329 1.503 . S
C322 C321 1.410 . S
C322 C323 1.392 . S
C322 C325 1.511 . S
C323 C319 1.376 . S
C323 C322 1.392 . S
C323 H335 0.929 . S
C324 C320 1.531 . S
C324 H336 0.960 . S
C324 H337 0.962 . S
C324 H338 0.960 . S
C325 C322 1.511 . S
C325 H339 0.961 . S
C325 H340 0.961 . S
C325 H341 0.961 . S
C326 C327 1.370 . S
C326 C328 1.363 . S
C326 H342 0.931 . S
C327 C326 1.370 . S
C327 C331 1.408 . S
C328 C326 1.363 . S
C328 C329 1.370 . S
C328 C332 1.524 . S
C329 C321 1.503 . S
C329 C328 1.370 . S
C329 C330 1.403 . S
C330 C329 1.403 . S
C330 C331 1.404 . S
C330 C333 1.539 . S
C331 C327 1.408 . S
C331 C330 1.404 . S
C331 H343 0.930 . S
C332 C328 1.524 . S
C332 H344 0.956 . S
C332 H345 0.961 . S
C332 H346 0.961 . S
C333 C330 1.539 . S
C333 H347 0.958 . S
C333 H348 0.961 . S
C333 H349 0.960 . S
H334 C318 0.931 . S
H335 C323 0.929 . S
H336 C324 0.960 . S
H337 C324 0.962 . S
H338 C324 0.960 . S
H339 C325 0.961 . S
H340 C325 0.961 . S
H341 C325 0.961 . S
H342 C326 0.931 . S
H343 C331 0.930 . S
H344 C332 0.956 . S
H345 C332 0.961 . S
H346 C332 0.961 . S
H347 C333 0.958 . S
H348 C333 0.961 . S
H349 C333 0.960 . S
C350 C351 1.391 . S
C350 C352 1.394 . S
C350 H366 0.931 . S
C351 C350 1.391 . S
C351 C355 1.376 . S
C352 C350 1.394 . S
C352 C353 1.369 . S
C352 C356 1.531 . S
C353 C352 1.369 . S
C353 C354 1.410 . S
C353 C361 1.503 . S
C354 C353 1.410 . S
C354 C355 1.392 . S
C354 C357 1.511 . S
C355 C351 1.376 . S
C355 C354 1.392 . S
C355 H367 0.929 . S
C356 C352 1.531 . S
C356 H368 0.960 . S
C356 H369 0.962 . S
C356 H370 0.960 . S
C357 C354 1.511 . S
C357 H371 0.961 . S
C357 H372 0.961 . S
C357 H373 0.961 . S
C358 C359 1.370 . S
C358 C360 1.363 . S
C358 H374 0.931 . S
C359 C358 1.370 . S
C359 C363 1.408 . S
C360 C358 1.363 . S
C360 C361 1.370 . S
C360 C364 1.524 . S
C361 C353 1.503 . S
C361 C360 1.370 . S
C361 C362 1.403 . S
C362 C361 1.403 . S
C362 C363 1.404 . S
C362 C365 1.539 . S
C363 C359 1.408 . S
C363 C362 1.404 . S
C363 H375 0.930 . S
C364 C360 1.524 . S
C364 H376 0.956 . S
C364 H377 0.961 . S
C364 H378 0.961 . S
C365 C362 1.539 . S
C365 H379 0.958 . S
C365 H380 0.961 . S
C365 H381 0.960 . S
H366 C350 0.931 . S
H367 C355 0.929 . S
H368 C356 0.960 . S
H369 C356 0.962 . S
H370 C356 0.960 . S
H371 C357 0.961 . S
H372 C357 0.961 . S
H373 C357 0.961 . S
H374 C358 0.931 . S
H375 C363 0.930 . S
H376 C364 0.956 . S
H377 C364 0.961 . S
H378 C364 0.961 . S
H379 C365 0.958 . S
H380 C365 0.961 . S
H381 C365 0.960 . S
C382 C383 1.391 . S
C382 C384 1.394 . S
C382 H398 0.931 . S
C383 C382 1.391 . S
C383 C387 1.376 . S
C384 C382 1.394 . S
C384 C385 1.369 . S
C384 C388 1.531 . S
C385 C384 1.369 . S
C385 C386 1.410 . S
C385 C393 1.503 . S
C386 C385 1.410 . S
C386 C387 1.392 . S
C386 C389 1.511 . S
C387 C383 1.376 . S
C387 C386 1.392 . S
C387 H399 0.929 . S
C388 C384 1.531 . S
C388 H400 0.960 . S
C388 H401 0.962 . S
C388 H402 0.960 . S
C389 C386 1.511 . S
C389 H403 0.961 . S
C389 H404 0.961 . S
C389 H405 0.961 . S
C390 C391 1.370 . S
C390 C392 1.363 . S
C390 H406 0.931 . S
C391 C390 1.370 . S
C391 C395 1.408 . S
C392 C390 1.363 . S
C392 C393 1.370 . S
C392 C396 1.524 . S
C393 C385 1.503 . S
C393 C392 1.370 . S
C393 C394 1.403 . S
C394 C393 1.403 . S
C394 C395 1.404 . S
C394 C397 1.539 . S
C395 C391 1.408 . S
C395 C394 1.404 . S
C395 H407 0.930 . S
C396 C392 1.524 . S
C396 H408 0.956 . S
C396 H409 0.961 . S
C396 H410 0.961 . S
C397 C394 1.539 . S
C397 H411 0.958 . S
C397 H412 0.961 . S
C397 H413 0.960 . S
H398 C382 0.931 . S
H399 C387 0.929 . S
H400 C388 0.960 . S
H401 C388 0.962 . S
H402 C388 0.960 . S
H403 C389 0.961 . S
H404 C389 0.961 . S
H405 C389 0.961 . S
H406 C390 0.931 . S
H407 C395 0.930 . S
H408 C396 0.956 . S
H409 C396 0.961 . S
H410 C396 0.961 . S
H411 C397 0.958 . S
H412 C397 0.961 . S
H413 C397 0.960 . S
C414 C415 1.391 . S
C414 C416 1.394 . S
C414 H430 0.931 . S
C415 C414 1.391 . S
C415 C419 1.376 . S
C416 C414 1.394 . S
C416 C417 1.369 . S
C416 C420 1.531 . S
C417 C416 1.369 . S
C417 C418 1.410 . S
C417 C425 1.503 . S
C418 C417 1.410 . S
C418 C419 1.392 . S
C418 C421 1.511 . S
C419 C415 1.376 . S
C419 C418 1.392 . S
C419 H431 0.929 . S
C420 C416 1.531 . S
C420 H432 0.960 . S
C420 H433 0.962 . S
C420 H434 0.960 . S
C421 C418 1.511 . S
C421 H435 0.961 . S
C421 H436 0.961 . S
C421 H437 0.961 . S
C422 C423 1.370 . S
C422 C424 1.363 . S
C422 H438 0.931 . S
C423 C422 1.370 . S
C423 C427 1.408 . S
C424 C422 1.363 . S
C424 C425 1.370 . S
C424 C428 1.524 . S
C425 C417 1.503 . S
C425 C424 1.370 . S
C425 C426 1.403 . S
C426 C425 1.403 . S
C426 C427 1.404 . S
C426 C429 1.539 . S
C427 C423 1.408 . S
C427 C426 1.404 . S
C427 H439 0.930 . S
C428 C424 1.524 . S
C428 H440 0.956 . S
C428 H441 0.961 . S
C428 H442 0.961 . S
C429 C426 1.539 . S
C429 H443 0.958 . S
C429 H444 0.961 . S
C429 H445 0.960 . S
H430 C414 0.931 . S
H431 C419 0.929 . S
H432 C420 0.960 . S
H433 C420 0.962 . S
H434 C420 0.960 . S
H435 C421 0.961 . S
H436 C421 0.961 . S
H437 C421 0.961 . S
H438 C422 0.931 . S
H439 C427 0.930 . S
H440 C428 0.956 . S
H441 C428 0.961 . S
H442 C428 0.961 . S
H443 C429 0.958 . S
H444 C429 0.961 . S
H445 C429 0.960 . S
C446 C447 1.391 . S
C446 C448 1.394 . S
C446 H462 0.931 . S
C447 C446 1.391 . S
C447 C451 1.376 . S
C448 C446 1.394 . S
C448 C449 1.369 . S
C448 C452 1.531 . S
C449 C448 1.369 . S
C449 C450 1.410 . S
C449 C457 1.503 . S
C450 C449 1.410 . S
C450 C451 1.392 . S
C450 C453 1.511 . S
C451 C447 1.376 . S
C451 C450 1.392 . S
C451 H463 0.929 . S
C452 C448 1.531 . S
C452 H464 0.960 . S
C452 H465 0.962 . S
C452 H466 0.960 . S
C453 C450 1.511 . S
C453 H467 0.961 . S
C453 H468 0.961 . S
C453 H469 0.961 . S
C454 C455 1.370 . S
C454 C456 1.363 . S
C454 H470 0.931 . S
C455 C454 1.370 . S
C455 C459 1.408 . S
C456 C454 1.363 . S
C456 C457 1.370 . S
C456 C460 1.524 . S
C457 C449 1.503 . S
C457 C456 1.370 . S
C457 C458 1.403 . S
C458 C457 1.403 . S
C458 C459 1.404 . S
C458 C461 1.539 . S
C459 C455 1.408 . S
C459 C458 1.404 . S
C459 H471 0.930 . S
C460 C456 1.524 . S
C460 H472 0.956 . S
C460 H473 0.961 . S
C460 H474 0.961 . S
C461 C458 1.539 . S
C461 H475 0.958 . S
C461 H476 0.961 . S
C461 H477 0.960 . S
H462 C446 0.931 . S
H463 C451 0.929 . S
H464 C452 0.960 . S
H465 C452 0.962 . S
H466 C452 0.960 . S
H467 C453 0.961 . S
H468 C453 0.961 . S
H469 C453 0.961 . S
H470 C454 0.931 . S
H471 C459 0.930 . S
H472 C460 0.956 . S
H473 C460 0.961 . S
H474 C460 0.961 . S
H475 C461 0.958 . S
H476 C461 0.961 . S
H477 C461 0.960 . S
C103 C65 1.487 . S
C95 C40 1.472 . S
C127 C4 1.484 . S
C135 C88 1.486 . S
C159 C16 1.516 . S
C167 C64 1.520 . S
C191 C28 1.509 . S
C199 C87 1.519 . S
C231 C68 1.480 . S
C223 C9 1.509 . S
C263 C90 1.480 . S
C255 C18 1.546 . S
C287 C33 1.491 . S
C295 C69 1.477 . S
C319 C45 1.517 . S
C327 C89 1.477 . S
C359 C92 1.397 . S
C351 C21 1.443 . S
C391 C67 1.438 . S
C383 C30 1.483 . S
C423 C91 1.400 . S
C415 C42 1.430 . S
C447 C6 1.450 . S
C455 C66 1.432 . S
