# Generated by pormake.
# Topology anh, (6,3)-cn, num edge types: 1
# Building blocks:
#     Node 0, Type 0, BuildingBlock: VOLQOD_clean_sbu_1, # of connection points: 6
#     Node 1, Type 0, BuildingBlock: VOLQOD_clean_sbu_1, # of connection points: 6
#     Node 2, Type 0, BuildingBlock: VOLQOD_clean_sbu_1, # of connection points: 6
#     Node 3, Type 1, BuildingBlock: PAMTOO_clean_linker_0, # of connection points: 3
#     Node 4, Type 1, BuildingBlock: PAMTOO_clean_linker_0, # of connection points: 3
#     Node 5, Type 1, BuildingBlock: PAMTOO_clean_linker_0, # of connection points: 3
#     Node 6, Type 1, BuildingBlock: PAMTOO_clean_linker_0, # of connection points: 3
#     Node 7, Type 1, BuildingBlock: PAMTOO_clean_linker_0, # of connection points: 3
#     Node 8, Type 1, BuildingBlock: PAMTOO_clean_linker_0, # of connection points: 3
#     Edge 9, Type (0, 1), BuildingBlock: ZUJKAS_clean_linker_0, # of connection points: 2
#     Edge 10, Type (0, 1), BuildingBlock: ZUJKAS_clean_linker_0, # of connection points: 2
#     Edge 11, Type (0, 1), BuildingBlock: ZUJKAS_clean_linker_0, # of connection points: 2
#     Edge 12, Type (0, 1), BuildingBlock: ZUJKAS_clean_linker_0, # of connection points: 2
#     Edge 13, Type (0, 1), BuildingBlock: ZUJKAS_clean_linker_0, # of connection points: 2
#     Edge 14, Type (0, 1), BuildingBlock: ZUJKAS_clean_linker_0, # of connection points: 2
#     Edge 15, Type (0, 1), BuildingBlock: ZUJKAS_clean_linker_0, # of connection points: 2
#     Edge 16, Type (0, 1), BuildingBlock: ZUJKAS_clean_linker_0, # of connection points: 2
#     Edge 17, Type (0, 1), BuildingBlock: ZUJKAS_clean_linker_0, # of connection points: 2
#     Edge 18, Type (0, 1), BuildingBlock: ZUJKAS_clean_linker_0, # of connection points: 2
#     Edge 19, Type (0, 1), BuildingBlock: ZUJKAS_clean_linker_0, # of connection points: 2
#     Edge 20, Type (0, 1), BuildingBlock: ZUJKAS_clean_linker_0, # of connection points: 2
#     Edge 21, Type (0, 1), BuildingBlock: ZUJKAS_clean_linker_0, # of connection points: 2
#     Edge 22, Type (0, 1), BuildingBlock: ZUJKAS_clean_linker_0, # of connection points: 2
#     Edge 23, Type (0, 1), BuildingBlock: ZUJKAS_clean_linker_0, # of connection points: 2
#     Edge 24, Type (0, 1), BuildingBlock: ZUJKAS_clean_linker_0, # of connection points: 2
#     Edge 25, Type (0, 1), BuildingBlock: ZUJKAS_clean_linker_0, # of connection points: 2
#     Edge 26, Type (0, 1), BuildingBlock: ZUJKAS_clean_linker_0, # of connection points: 2
# Relax obj value: 0.158
# Max RMSD: 0.218
# Mean RMSD: 0.140
data_MOF--net-anh--node1-VOLQOD_clean_sbu_1--node2-PAMTOO_clean_linker_0--edge1-ZUJKAS_clean_linker_0
_symmetry_space_group_name_H-M    P1
_symmetry_Int_Tables_number       1
_symmetry_cell_setting            triclinic
loop_
_symmetry_equiv_pos_as_xyz
'x, y, z'
_cell_length_a     37.875941
_cell_length_b     37.761972
_cell_length_c     73.181761
_cell_angle_alpha  84.960233
_cell_angle_beta   92.576271
_cell_angle_gamma 120.19873
loop_
_atom_site_label
_atom_site_type_symbol
_atom_site_fract_x
_atom_site_fract_y
_atom_site_fract_z
_atom_type_partial_charge
O0 O 0.06303 0.54701 0.20083 0.0
Zn1 Zn 0.06269 0.56292 0.17398 0.0
O2 O 0.06891 0.52558 0.15928 0.0
Zn3 Zn 0.02306 0.50151 0.1424 0.0
Zn4 Zn 0.07004 0.48197 0.17539 0.0
Zn5 Zn 0.11954 0.55577 0.14523 0.0
O6 O 0.04149 0.5112 0.11621 0.0
O7 O 0.10859 0.55229 0.11805 0.0
O8 O 0.0104 0.56356 0.16817 0.0
O9 O 0.98667 0.52515 0.1444 0.0
O10 O 0.98776 0.44084 0.14864 0.0
O11 O 0.01969 0.42724 0.17199 0.0
O12 O 0.11883 0.47683 0.17022 0.0
O13 O 0.11004 0.62048 0.16992 0.0
O14 O 0.15558 0.53138 0.15106 0.0
O15 O 0.15068 0.61526 0.15072 0.0
C16 C 0.06841 0.51981 0.20995 0.0
C17 C 0.07634 0.5327 0.1086 0.0
C18 C 0.98993 0.41567 0.16076 0.0
C19 C 0.98412 0.54788 0.15551 0.0
C20 C 0.15084 0.49948 0.16065 0.0
C21 C 0.14293 0.63658 0.16065 0.0
O22 O 0.07266 0.49351 0.20198 0.0
O23 O 0.58561 0.04463 0.45739 0.0
Zn24 Zn 0.57657 0.04177 0.48449 0.0
O25 O 0.61771 0.03373 0.49843 0.0
Zn26 Zn 0.64876 0.07947 0.51349 0.0
Zn27 Zn 0.65523 0.03113 0.48166 0.0
Zn28 Zn 0.59069 0.98326 0.5145 0.0
O29 O 0.64304 0.06135 0.54011 0.0
O30 O 0.59857 0.99447 0.54141 0.0
O31 O 0.57765 0.09365 0.49032 0.0
O32 O 0.6291 0.11981 0.51005 0.0
O33 O 0.70804 0.10974 0.50727 0.0
O34 O 0.71262 0.07942 0.48358 0.0
O35 O 0.65804 0.97933 0.48743 0.0
O36 O 0.52005 0.99372 0.48959 0.0
O37 O 0.61308 0.94666 0.51004 0.0
O38 O 0.53055 0.95166 0.50923 0.0
C39 C 0.6094 0.03887 0.44789 0.0
C40 C 0.62147 0.0273 0.54932 0.0
C41 C 0.729 0.10721 0.49489 0.0
C42 C 0.60083 0.12171 0.50075 0.0
C43 C 0.63925 0.94865 0.49904 0.0
C44 C 0.50668 0.95982 0.49932 0.0
O45 O 0.63664 0.03208 0.45544 0.0
O46 O 0.60135 0.53165 0.79329 0.0
Zn47 Zn 0.58626 0.51564 0.81996 0.0
O48 O 0.62967 0.55386 0.83555 0.0
Zn49 Zn 0.60786 0.57761 0.85104 0.0
Zn50 Zn 0.67348 0.59782 0.82023 0.0
Zn51 Zn 0.65081 0.52431 0.85125 0.0
O52 O 0.60974 0.56117 0.87774 0.0
O53 O 0.63768 0.52176 0.87789 0.0
O54 O 0.53284 0.51306 0.82404 0.0
O55 O 0.54905 0.55772 0.8451 0.0
O56 O 0.63745 0.63898 0.84719 0.0
O57 O 0.67885 0.65272 0.82377 0.0
O58 O 0.72759 0.60179 0.82659 0.0
O59 O 0.57748 0.45866 0.82481 0.0
O60 O 0.71152 0.55198 0.84874 0.0
O61 O 0.62681 0.46609 0.84441 0.0
C62 C 0.63278 0.56021 0.78482 0.0
C63 C 0.62167 0.53828 0.88634 0.0
C64 C 0.66369 0.66444 0.83546 0.0
C65 C 0.52308 0.53207 0.83444 0.0
C66 C 0.73784 0.58173 0.8384 0.0
C67 C 0.59681 0.44394 0.83425 0.0
O68 O 0.66282 0.58745 0.79344 0.0
H69 H 0.64075 0.09415 0.25089 0.0
H70 H 0.51337 0.00276 0.24733 0.0
H71 H 0.58584 0.05372 0.1984 0.0
H72 H 0.50476 0.04025 0.19196 0.0
C73 C 0.48872 0.01822 0.20391 0.0
O74 O 0.51284 0.00302 0.21156 0.0
H75 H 0.48285 0.03499 0.21407 0.0
C76 C 0.61415 0.07527 0.24275 0.0
C77 C 0.61787 0.07736 0.22363 0.0
C78 C 0.57675 0.04823 0.25149 0.0
C79 C 0.54266 0.02341 0.24087 0.0
C80 C 0.54602 0.0258 0.22176 0.0
C81 C 0.58367 0.05213 0.2132 0.0
H82 H 0.67397 0.6238 0.58708 0.0
H83 H 0.62759 0.4938 0.58663 0.0
H84 H 0.64046 0.56547 0.5361 0.0
H85 H 0.56797 0.48485 0.53706 0.0
C86 C 0.57796 0.46803 0.54726 0.0
O87 O 0.61891 0.49242 0.55107 0.0
H88 H 0.55946 0.46016 0.55994 0.0
C89 C 0.66289 0.59666 0.57957 0.0
C90 C 0.65904 0.59977 0.56037 0.0
C91 C 0.65121 0.5586 0.58927 0.0
C92 C 0.63659 0.52347 0.57948 0.0
C93 C 0.63321 0.52633 0.56036 0.0
C94 C 0.64445 0.56425 0.55085 0.0
H95 H 0.07054 0.57606 0.90946 0.0
H96 H 0.14946 0.52457 0.91163 0.0
H97 H 0.12364 0.569 0.85992 0.0
H98 H 0.12131 0.49458 0.85708 0.0
C99 C 0.14135 0.49463 0.86868 0.0
O100 O 0.15992 0.53216 0.87617 0.0
H101 H 0.1222 0.46978 0.87923 0.0
C102 C 0.09008 0.56825 0.90252 0.0
C103 C 0.09428 0.57494 0.8833 0.0
C104 C 0.11042 0.55084 0.91294 0.0
C105 C 0.13439 0.53907 0.90393 0.0
C106 C 0.13834 0.54513 0.88485 0.0
C107 C 0.11938 0.56396 0.87465 0.0
H108 H 0.04872 0.46041 0.40834 0.0
H109 H 0.14303 0.5873 0.4089 0.0
H110 H 0.09408 0.51524 0.45965 0.0
H111 H 0.10865 0.59988 0.45919 0.0
C112 C 0.13313 0.61505 0.44862 0.0
O113 O 0.14556 0.58792 0.44465 0.0
H114 H 0.12076 0.62397 0.43609 0.0
C115 C 0.06888 0.48682 0.41589 0.0
C116 C 0.06812 0.48306 0.43514 0.0
C117 C 0.09575 0.52419 0.40626 0.0
C118 C 0.12245 0.55802 0.41609 0.0
C119 C 0.12147 0.55469 0.43529 0.0
C120 C 0.09477 0.51723 0.4448 0.0
H121 H 0.64571 0.99745 0.74767 0.0
H122 H 0.60695 0.08696 0.74667 0.0
H123 H 0.61911 0.03026 0.79809 0.0
H124 H 0.54775 0.04405 0.79606 0.0
C125 C 0.55995 0.0703 0.78542 0.0
O126 O 0.60047 0.08334 0.78227 0.0
H127 H 0.54179 0.05998 0.77263 0.0
C128 C 0.6366 0.01546 0.75487 0.0
C129 C 0.63387 0.01052 0.7741 0.0
C130 C 0.62671 0.04268 0.74479 0.0
C131 C 0.6146 0.06566 0.75418 0.0
C132 C 0.61214 0.06118 0.77335 0.0
C133 C 0.62187 0.03386 0.78328 0.0
H134 H 0.62209 0.47797 0.08409 0.0
H135 H 0.49455 0.44182 0.08262 0.0
H136 H 0.55842 0.46282 0.13399 0.0
H137 H 0.47602 0.39655 0.13779 0.0
C138 C 0.46138 0.40461 0.1259 0.0
O139 O 0.48861 0.44292 0.11796 0.0
H140 H 0.45197 0.38104 0.11578 0.0
C141 C 0.59403 0.46945 0.09114 0.0
C142 C 0.59446 0.47084 0.11026 0.0
C143 C 0.55831 0.45936 0.08095 0.0
C144 C 0.5225 0.44976 0.09018 0.0
C145 C 0.52268 0.45075 0.10926 0.0
C146 C 0.55863 0.46174 0.11925 0.0
H147 H 0.14391 0.42504 0.17148 0.0
H148 H 0.19448 0.40406 0.16791 0.0
H149 H 0.27972 0.52603 0.14501 0.0
H150 H 0.22897 0.5469 0.148 0.0
H151 H 0.27339 0.46855 0.12421 0.0
H152 H 0.29639 0.42786 0.19671 0.0
H153 H 0.24401 0.401 0.18947 0.0
H154 H 0.27015 0.45591 0.19036 0.0
C155 C 0.17362 0.44755 0.1659 0.0
C156 C 0.18244 0.48763 0.15999 0.0
C157 C 0.20256 0.43555 0.16397 0.0
C158 C 0.24104 0.46362 0.15642 0.0
C159 C 0.2502 0.50389 0.1509 0.0
H160 H 0.45986 0.44886 0.15288 0.0
H161 H 0.40382 0.4594 0.1609 0.0
C162 C 0.22117 0.51577 0.15262 0.0
C163 C 0.27092 0.45056 0.15308 0.0
H164 H 0.32642 0.40994 0.17399 0.0
C165 C 0.28504 0.45579 0.1351 0.0
C166 C 0.28622 0.43416 0.16735 0.0
C167 C 0.27374 0.42973 0.18708 0.0
C168 C 0.31432 0.44545 0.13096 0.0
C169 C 0.32892 0.42813 0.14513 0.0
C170 C 0.31471 0.4227 0.16313 0.0
C171 C 0.3609 0.41798 0.14169 0.0
C172 C 0.3303 0.45452 0.11157 0.0
C173 C 0.35487 0.39022 0.12868 0.0
C174 C 0.38696 0.38461 0.12395 0.0
C175 C 0.42522 0.40604 0.13246 0.0
C176 C 0.4305 0.432 0.14621 0.0
C177 C 0.39859 0.43796 0.15077 0.0
H178 H 0.32392 0.47722 0.10368 0.0
H179 H 0.36376 0.46662 0.11144 0.0
H180 H 0.31509 0.42577 0.10438 0.0
H181 H 0.3257 0.3738 0.12181 0.0
H182 H 0.3822 0.36439 0.11333 0.0
H183 H 0.77793 0.12894 0.46477 0.0
H184 H 0.84532 0.18992 0.45996 0.0
H185 H 0.8457 0.219 0.51571 0.0
H186 H 0.7779 0.15876 0.52047 0.0
H187 H 0.85746 0.28102 0.49209 0.0
H188 H 0.96212 0.22728 0.47438 0.0
H189 H 0.91669 0.20549 0.46063 0.0
H190 H 0.91311 0.19327 0.48508 0.0
C191 C 0.79281 0.14774 0.47614 0.0
C192 C 0.77243 0.13935 0.49292 0.0
C193 C 0.83151 0.18245 0.47342 0.0
C194 C 0.85072 0.20885 0.48754 0.0
C195 C 0.83146 0.19901 0.50465 0.0
H196 H 0.0816 0.44206 0.46493 0.0
H197 H 0.0317 0.37592 0.48049 0.0
C198 C 0.79266 0.16464 0.50732 0.0
C199 C 0.88755 0.24955 0.4836 0.0
H200 H 0.98179 0.29748 0.46365 0.0
C201 C 0.88496 0.28456 0.48624 0.0
C202 C 0.92361 0.25428 0.47613 0.0
C203 C 0.92924 0.21803 0.47408 0.0
C204 C 0.91642 0.32399 0.48061 0.0
C205 C 0.95103 0.32843 0.47185 0.0
C206 C 0.95489 0.29379 0.4702 0.0
C207 C 0.9814 0.36826 0.46281 0.0
C208 C 0.91186 0.36053 0.48359 0.0
C209 C 0.96946 0.38538 0.44773 0.0
C210 C -0.00238 0.42282 0.4389 0.0
C211 C 0.03834 0.44379 0.44495 0.0
C212 C 0.0503 0.42665 0.46011 0.0
C213 C 0.02201 0.3889 0.46891 0.0
H214 H 0.89004 0.35348 0.49485 0.0
H215 H 0.94174 0.38746 0.48688 0.0
H216 H 0.89993 0.36904 0.47086 0.0
H217 H 0.93829 0.36962 0.44273 0.0
H218 H 0.98747 0.4355 0.42738 0.0
H219 H 0.65025 0.7041 0.86144 0.0
H220 H 0.65541 0.77152 0.85743 0.0
H221 H 0.70274 0.78924 0.80282 0.0
H222 H 0.69888 0.72251 0.80688 0.0
H223 H 0.73781 0.86169 0.82061 0.0
H224 H 0.56799 0.77746 0.82512 0.0
H225 H 0.59405 0.77042 0.84497 0.0
H226 H 0.59653 0.7514 0.82367 0.0
C227 C 0.66249 0.7227 0.8487 0.0
C228 C 0.67344 0.70768 0.83433 0.0
C229 C 0.66533 0.76115 0.84643 0.0
C230 C 0.67846 0.78481 0.82967 0.0
C231 C 0.69232 0.7713 0.81584 0.0
H232 H 0.60785 0.9326 0.76537 0.0
H233 H 0.62186 0.88177 0.78154 0.0
C234 C 0.68999 0.73309 0.81817 0.0
C235 C 0.67357 0.82116 0.82563 0.0
H236 H 0.60057 0.84841 0.81788 0.0
C237 C 0.70793 0.85908 0.82026 0.0
C238 C 0.63439 0.81736 0.82505 0.0
C239 C 0.59604 0.77697 0.82985 0.0
C240 C 0.70397 0.89296 0.81365 0.0
C241 C 0.66468 0.88872 0.81265 0.0
C242 C 0.63062 0.85142 0.81879 0.0
C243 C 0.65732 0.92055 0.80313 0.0
C244 C 0.74137 0.93224 0.80682 0.0
C245 C 0.67246 0.95913 0.81003 0.0
C246 C 0.66476 0.98852 0.80068 0.0
C247 C 0.64181 0.97961 0.78435 0.0
C248 C 0.6263 0.94069 0.7777 0.0
C249 C 0.63402 0.91151 0.787 0.0
H250 H 0.76856 0.92852 0.80616 0.0
H251 H 0.7357 0.94295 0.79297 0.0
H252 H 0.74841 0.95651 0.8162 0.0
H253 H 0.69002 0.9664 0.82262 0.0
H254 H 0.67715 0.01832 0.80608 0.0
H255 H 0.9534 0.57233 0.18191 0.0
H256 H 0.8883 0.572 0.18083 0.0
H257 H 0.86874 0.53528 0.12544 0.0
H258 H 0.93319 0.53537 0.12635 0.0
H259 H 0.84943 0.60065 0.13404 0.0
H260 H 0.77807 0.45571 0.17973 0.0
H261 H 0.82542 0.49911 0.18644 0.0
H262 H 0.82462 0.47198 0.16738 0.0
C263 C 0.93554 0.56493 0.1694 0.0
C264 C 0.94817 0.55346 0.15427 0.0
C265 C 0.89841 0.56465 0.16884 0.0
C266 C 0.87381 0.55334 0.15311 0.0
C267 C 0.88742 0.54409 0.1377 0.0
H268 H 0.64625 0.44145 0.1077 0.0
H269 H 0.71295 0.46575 0.1224 0.0
C270 C 0.92416 0.54399 0.13828 0.0
C271 C 0.83226 0.54747 0.15282 0.0
H272 H 0.73407 0.47397 0.16348 0.0
C273 C 0.82418 0.5737 0.1409 0.0
C274 C 0.79961 0.51205 0.16173 0.0
C275 C 0.80699 0.48285 0.17453 0.0
C276 C 0.78393 0.56397 0.13673 0.0
C277 C 0.75129 0.52713 0.14468 0.0
C278 C 0.75937 0.50229 0.15752 0.0
C279 C 0.70939 0.51061 0.13749 0.0
C280 C 0.77642 0.59136 0.12279 0.0
C281 C 0.68522 0.52741 0.14146 0.0
C282 C 0.647 0.51348 0.13309 0.0
C283 C 0.63283 0.48289 0.12058 0.0
C284 C 0.65668 0.46534 0.11714 0.0
C285 C 0.69458 0.47901 0.12558 0.0
H286 H 0.80529 0.61843 0.1175 0.0
H287 H 0.75869 0.57365 0.11105 0.0
H288 H 0.75798 0.60244 0.12909 0.0
H289 H 0.69631 0.55181 0.15066 0.0
H290 H 0.62923 0.52763 0.13588 0.0
H291 H 0.44333 0.96948 0.48562 0.0
H292 H 0.37302 0.91537 0.48039 0.0
H293 H 0.40235 0.8241 0.50345 0.0
H294 H 0.4719 0.87791 0.50938 0.0
H295 H 0.34965 0.8577 0.45823 0.0
H296 H 0.29481 0.78206 0.5272 0.0
H297 H 0.34089 0.83127 0.52377 0.0
H298 H 0.34189 0.78431 0.52242 0.0
C299 C 0.43451 0.93793 0.48992 0.0
C300 C 0.46316 0.92798 0.49793 0.0
C301 C 0.39434 0.90705 0.48693 0.0
C302 C 0.38215 0.86566 0.49177 0.0
C303 C 0.41054 0.85582 0.50011 0.0
H304 H 0.21248 0.65576 0.43651 0.0
H305 H 0.27003 0.71849 0.44733 0.0
C306 C 0.45049 0.88668 0.50337 0.0
C307 C 0.34134 0.83248 0.48634 0.0
H308 H 0.26066 0.74024 0.50169 0.0
C309 C 0.32986 0.8324 0.46783 0.0
C310 C 0.31503 0.79977 0.49887 0.0
C311 C 0.32363 0.79961 0.5192 0.0
C312 C 0.29397 0.79954 0.46132 0.0
C313 C 0.26959 0.76516 0.47353 0.0
C314 C 0.2798 0.76623 0.49224 0.0
C315 C 0.23454 0.72712 0.46705 0.0
C316 C 0.28272 0.80202 0.44138 0.0
C317 C 0.19574 0.71035 0.47496 0.0
C318 C 0.16303 0.67388 0.4691 0.0
C319 C 0.16872 0.65341 0.45539 0.0
C320 C 0.20745 0.67051 0.44735 0.0
C321 C 0.24018 0.70665 0.45334 0.0
H322 H 0.29536 0.83447 0.43584 0.0
H323 H 0.2959 0.78799 0.43327 0.0
H324 H 0.24909 0.78549 0.4394 0.0
H325 H 0.19072 0.7256 0.48557 0.0
H326 H 0.13326 0.66167 0.47526 0.0
H327 H 0.52406 0.38196 0.8226 0.0
H328 H 0.50702 0.31194 0.81758 0.0
H329 H 0.62743 0.33933 0.83599 0.0
H330 H 0.64396 0.40868 0.84179 0.0
H331 H 0.53952 0.28968 0.79408 0.0
H332 H 0.56121 0.22973 0.86257 0.0
H333 H 0.55911 0.27654 0.85914 0.0
H334 H 0.60626 0.27709 0.85576 0.0
C335 C 0.54663 0.37279 0.82587 0.0
C336 C 0.58533 0.40075 0.83261 0.0
C337 C 0.53685 0.33278 0.82301 0.0
C338 C 0.56569 0.3201 0.82667 0.0
C339 C 0.60418 0.34789 0.83361 0.0
H340 H 0.59722 0.14964 0.77061 0.0
H341 H 0.59346 0.20745 0.78095 0.0
C342 C 0.61374 0.38768 0.83678 0.0
C343 C 0.55704 0.27931 0.8216 0.0
H344 H 0.56569 0.19599 0.83683 0.0
C345 C 0.54458 0.26889 0.80355 0.0
C346 C 0.56279 0.25169 0.834 0.0
C347 C 0.57262 0.25916 0.85399 0.0
C348 C 0.53971 0.23266 0.7973 0.0
C349 C 0.54896 0.20688 0.80925 0.0
C350 C 0.55931 0.21615 0.82757 0.0
C351 C 0.55022 0.17144 0.80277 0.0
C352 C 0.52481 0.22256 0.77794 0.0
C353 C 0.52809 0.13221 0.81192 0.0
C354 C 0.53103 0.09935 0.80629 0.0
C355 C 0.55639 0.10535 0.79153 0.0
C356 C 0.57787 0.14441 0.78218 0.0
C357 C 0.57532 0.17729 0.78793 0.0
H358 H 0.50554 0.2361 0.77321 0.0
H359 H 0.55146 0.23586 0.76859 0.0
H360 H 0.50682 0.18887 0.77676 0.0
H361 H 0.50862 0.12706 0.82343 0.0
H362 H 0.51375 0.06935 0.81354 0.0
H363 H 0.70596 0.94898 0.48565 0.0
H364 H 0.72139 0.89284 0.48911 0.0
H365 H 0.60771 0.8156 0.51789 0.0
H366 H 0.59223 0.87119 0.51472 0.0
H367 H 0.7246 0.85276 0.52547 0.0
H368 H 0.61193 0.74415 0.47788 0.0
H369 H 0.62993 0.79869 0.47556 0.0
H370 H 0.59115 0.76567 0.49212 0.0
C371 C 0.68407 0.91985 0.49253 0.0
C372 C 0.64794 0.91452 0.49998 0.0
C373 C 0.69294 0.88792 0.49447 0.0
C374 C 0.6654 0.85008 0.50352 0.0
C375 C 0.62901 0.84445 0.5106 0.0
H376 H 0.64205 0.65666 0.57169 0.0
H377 H 0.65389 0.72057 0.5553 0.0
C378 C 0.62038 0.87636 0.5089 0.0
C379 C 0.67552 0.81715 0.50715 0.0
H380 H 0.63578 0.71486 0.50262 0.0
C381 C 0.70602 0.82288 0.52011 0.0
C382 C 0.65144 0.7784 0.5 0.0
C383 C 0.6195 0.77133 0.48548 0.0
C384 C 0.71062 0.78976 0.52728 0.0
C385 C 0.68403 0.75025 0.52132 0.0
C386 C 0.65596 0.74525 0.50722 0.0
C387 C 0.68057 0.71312 0.53146 0.0
C388 C 0.7423 0.7967 0.54192 0.0
C389 C 0.69154 0.68776 0.52337 0.0
C390 C 0.68547 0.6513 0.53288 0.0
C391 C 0.66771 0.63945 0.55048 0.0
C392 C 0.65678 0.66519 0.55842 0.0
C393 C 0.66332 0.70169 0.54903 0.0
H394 H 0.76683 0.82945 0.54158 0.0
H395 H 0.72745 0.78797 0.55559 0.0
H396 H 0.75624 0.77737 0.54029 0.0
H397 H 0.70462 0.69609 0.50973 0.0
H398 H 0.69458 0.63241 0.52643 0.0
H399 H 0.79976 0.62844 0.81371 0.0
H400 H 0.869 0.63831 0.8148 0.0
H401 H 0.84225 0.5684 0.86723 0.0
H402 H 0.77324 0.55777 0.86616 0.0
H403 H 0.93425 0.67134 0.84073 0.0
H404 H 0.87377 0.50575 0.83442 0.0
H405 H 0.84317 0.5298 0.8296 0.0
H406 H 0.84994 0.51428 0.85286 0.0
C407 C 0.80881 0.6155 0.82554 0.0
C408 C 0.78086 0.59174 0.83971 0.0
C409 C 0.8483 0.6212 0.82612 0.0
C410 C 0.86024 0.60329 0.8409 0.0
C411 C 0.83318 0.58162 0.85551 0.0
H412 H 0.07331 0.63132 0.89216 0.0
H413 H 0.02198 0.64449 0.87725 0.0
C414 C 0.79378 0.57564 0.85488 0.0
C415 C 0.90017 0.60531 0.84097 0.0
H416 H 0.94129 0.54318 0.84701 0.0
C417 C 0.9361 0.64348 0.84175 0.0
C418 C 0.90251 0.56905 0.8417 0.0
C419 C 0.8653 0.52746 0.83939 0.0
C420 C 0.97418 0.64599 0.84467 0.0
C421 C 0.9759 0.60927 0.84734 0.0
C422 C 0.94019 0.57143 0.84517 0.0
C423 C 0.01283 0.6083 0.85425 0.0
C424 C 0.01191 0.68783 0.84511 0.0
C425 C 0.02506 0.58362 0.84635 0.0
C426 C 0.053 0.57436 0.85534 0.0
C427 C 0.06992 0.59019 0.8723 0.0
C428 C 0.06016 0.61767 0.87939 0.0
C429 C 0.03142 0.62609 0.87061 0.0
H430 H 0.00861 0.71074 0.8357 0.0
H431 H 0.01614 0.69824 0.85917 0.0
H432 H 0.03967 0.6874 0.8412 0.0
H433 H 0.01107 0.56943 0.83376 0.0
H434 H 0.05928 0.55276 0.84947 0.0
H435 H 0.21663 0.68192 0.14309 0.0
H436 H 0.27106 0.75124 0.14903 0.0
H437 H 0.19456 0.75925 0.18841 0.0
H438 H 0.13991 0.68996 0.18268 0.0
H439 H 0.27121 0.83029 0.14809 0.0
H440 H 0.29925 0.77406 0.21705 0.0
H441 H 0.27097 0.73984 0.19941 0.0
H442 H 0.24747 0.76133 0.21194 0.0
C443 C 0.21113 0.69854 0.15287 0.0
C444 C 0.17404 0.68016 0.16257 0.0
C445 C 0.24224 0.73816 0.1562 0.0
C446 C 0.23686 0.75995 0.16931 0.0
C447 C 0.19932 0.74259 0.17839 0.0
H448 H 0.41401 0.98068 0.22079 0.0
H449 H 0.35066 0.92056 0.21153 0.0
C450 C 0.16814 0.70303 0.17505 0.0
C451 C 0.27143 0.79973 0.1743 0.0
H452 H 0.3395 0.84474 0.20868 0.0
C453 C 0.28614 0.83363 0.16134 0.0
C454 C 0.29063 0.80375 0.19161 0.0
C455 C 0.27661 0.76783 0.20581 0.0
C456 C 0.31967 0.87178 0.1653 0.0
C457 C 0.33939 0.87561 0.18251 0.0
C458 C 0.32426 0.84173 0.19552 0.0
C459 C 0.37664 0.91394 0.18718 0.0
C460 C 0.33331 0.90766 0.15113 0.0
C461 C 0.41222 0.92997 0.17661 0.0
C462 C 0.44821 0.9644 0.18181 0.0
C463 C 0.44921 0.98318 0.19769 0.0
C464 C 0.4137 0.96706 0.20831 0.0
C465 C 0.37765 0.93277 0.20306 0.0
H466 H 0.30824 0.90329 0.14143 0.0
H467 H 0.34423 0.93686 0.15768 0.0
H468 H 0.35882 0.91048 0.14305 0.0
H469 H 0.41248 0.9152 0.16462 0.0
H470 H 0.47553 0.97594 0.17365 0.0
H471 H 0.64544 0.18695 0.52135 0.0
H472 H 0.63436 0.24396 0.52531 0.0
H473 H 0.53189 0.19441 0.48816 0.0
H474 H 0.54238 0.13652 0.48422 0.0
H475 H 0.63415 0.30225 0.49865 0.0
H476 H 0.4851 0.20973 0.53496 0.0
H477 H 0.51889 0.18995 0.53198 0.0
H478 H 0.48887 0.19374 0.51304 0.0
C479 C 0.62048 0.188 0.51397 0.0
C480 C 0.59463 0.15696 0.50253 0.0
C481 C 0.61429 0.22072 0.51625 0.0
C482 C 0.58209 0.22312 0.50719 0.0
C483 C 0.55656 0.19271 0.49549 0.0
H484 H 0.57337 0.4507 0.51134 0.0
H485 H 0.56977 0.39006 0.49952 0.0
C486 C 0.56271 0.15979 0.49319 0.0
C487 C 0.57568 0.25765 0.51027 0.0
H488 H 0.51211 0.28128 0.53112 0.0
C489 C 0.60727 0.29776 0.50554 0.0
C490 C 0.5407 0.25147 0.51941 0.0
C491 C 0.50648 0.20897 0.5253 0.0
C492 C 0.60542 0.33201 0.5102 0.0
C493 C 0.57066 0.32587 0.51955 0.0
C494 C 0.53854 0.28576 0.52384 0.0
C495 C 0.56877 0.36059 0.52638 0.0
C496 C 0.64152 0.37439 0.50587 0.0
C497 C 0.56807 0.36333 0.54535 0.0
C498 C 0.5697 0.39759 0.55207 0.0
C499 C 0.57161 0.42938 0.53992 0.0
C500 C 0.57141 0.42624 0.52093 0.0
C501 C 0.56964 0.39187 0.5142 0.0
H502 H 0.66897 0.37329 0.50201 0.0
H503 H 0.63368 0.38998 0.49418 0.0
H504 H 0.64934 0.39329 0.5178 0.0
H505 H 0.56757 0.33956 0.55496 0.0
H506 H 0.57047 0.39978 0.56676 0.0
H507 H 0.49419 0.57509 0.85032 0.0
H508 H 0.42326 0.55747 0.85326 0.0
H509 H 0.38404 0.45082 0.82295 0.0
H510 H 0.45534 0.46864 0.8196 0.0
H511 H 0.34285 0.49337 0.81288 0.0
H512 H 0.34304 0.46346 0.88824 0.0
H513 H 0.3839 0.51345 0.88071 0.0
H514 H 0.38284 0.46834 0.87376 0.0
C515 C 0.47058 0.54794 0.8442 0.0
C516 C 0.48036 0.52298 0.83491 0.0
C517 C 0.43004 0.53783 0.84598 0.0
C518 C 0.39847 0.50231 0.83872 0.0
C519 C 0.40806 0.47815 0.8288 0.0
H520 H 0.15603 0.43122 0.87844 0.0
H521 H 0.21316 0.42414 0.86875 0.0
C522 C 0.44877 0.4884 0.82689 0.0
C523 C 0.35555 0.49057 0.8418 0.0
H524 H 0.28971 0.47517 0.87581 0.0
C525 C 0.33088 0.48873 0.82662 0.0
C526 C 0.3397 0.48343 0.85972 0.0
C527 C 0.36361 0.48181 0.87652 0.0
C528 C 0.29152 0.48251 0.82894 0.0
C529 C 0.27711 0.47903 0.84689 0.0
C530 C 0.3009 0.47831 0.86203 0.0
C531 C 0.23922 0.47954 0.85046 0.0
C532 C 0.26607 0.4802 0.81215 0.0
C533 C 0.23464 0.51269 0.84321 0.0
C534 C 0.2019 0.51647 0.84857 0.0
C535 C 0.17372 0.48768 0.86157 0.0
C536 C 0.17752 0.45386 0.86844 0.0
C537 C 0.21004 0.4498 0.8629 0.0
H538 H 0.27408 0.46799 0.80072 0.0
H539 H 0.23291 0.46044 0.81506 0.0
H540 H 0.27229 0.51156 0.80744 0.0
H541 H 0.25735 0.53664 0.83402 0.0
H542 H 0.19945 0.54279 0.84315 0.0
H543 H 0.98982 0.34844 0.17815 0.0
H544 H 0.93064 0.28 0.18473 0.0
H545 H 0.85289 0.31927 0.1558 0.0
H546 H 0.91193 0.38675 0.14848 0.0
H547 H 0.87109 0.26349 0.20536 0.0
H548 H 0.80365 0.20801 0.13834 0.0
H549 H 0.85445 0.25146 0.14038 0.0
H550 H 0.81044 0.25815 0.13977 0.0
C551 C 0.96021 0.34209 0.17283 0.0
C552 C 0.9555 0.37297 0.16283 0.0
C553 C 0.92643 0.30297 0.17657 0.0
C554 C 0.88727 0.29416 0.17056 0.0
C555 C 0.88282 0.32469 0.1601 0.0
H556 H 0.66583 0.15839 0.22884 0.0
H557 H 0.7326 0.20651 0.21536 0.0
C558 C 0.91665 0.36351 0.15606 0.0
C559 C 0.85053 0.25543 0.17725 0.0
H560 H 0.75577 0.18182 0.16411 0.0
C561 C 0.84629 0.24514 0.19625 0.0
C562 C 0.81831 0.23076 0.16545 0.0
C563 C 0.82222 0.23747 0.14485 0.0
C564 C 0.80985 0.21275 0.20383 0.0
C565 C 0.7762 0.191 0.19216 0.0
C566 C 0.78127 0.19922 0.17309 0.0
C567 C 0.73497 0.16176 0.19963 0.0
C568 C 0.80766 0.20268 0.22432 0.0
C569 C 0.71321 0.12113 0.19455 0.0
C570 C 0.67462 0.0937 0.20203 0.0
C571 C 0.65744 0.10657 0.21474 0.0
C572 C 0.67879 0.14753 0.21935 0.0
C573 C 0.71699 0.17494 0.21174 0.0
H574 H 0.83828 0.21103 0.23011 0.0
H575 H 0.79669 0.22073 0.23092 0.0
H576 H 0.78645 0.16951 0.22793 0.0
H577 H 0.72638 0.11049 0.18507 0.0
H578 H 0.65869 0.06223 0.19827 0.0
H579 H 0.14585 0.56794 0.08779 0.0
H580 H 0.15079 0.56928 0.0545 0.0
H581 H 0.01943 0.50215 0.05042 0.0
H582 H 0.01399 0.50062 0.08367 0.0
H583 H 0.11496 0.49762 0.03252 0.0
H584 H 0.05799 0.60602 0.01361 0.0
H585 H 0.07729 0.60166 0.03621 0.0
H586 H 0.02709 0.56323 0.02957 0.0
C587 C 0.11796 0.55362 0.07983 0.0
C588 C 0.0795 0.53429 0.08841 0.0
C589 C 0.12089 0.55434 0.06083 0.0
C590 C 0.08548 0.53614 0.05006 0.0
C591 C 0.04708 0.5168 0.05852 0.0
H592 H 0.0406 0.519 0.93315 0.0
H593 H 0.03449 0.51304 0.96658 0.0
C594 C 0.04409 0.51586 0.07753 0.0
C595 C 0.08871 0.53683 0.02998 0.0
H596 H 0.06926 0.5755 0.98937 0.0
C597 C 0.1051 0.5147 0.02304 0.0
C598 C 0.07561 0.55901 0.01775 0.0
C599 C 0.05876 0.58413 0.02458 0.0
C600 C 0.10821 0.51366 0.00408 0.0
C601 C 0.09543 0.53615 0.99182 0.0
C602 C 0.07898 0.55824 -0.00119 0.0
C603 C 0.09911 0.53761 0.97167 0.0
C604 C 0.12428 0.48776 0.99737 0.0
C605 C 0.13747 0.55338 0.96347 0.0
C606 C 0.14101 0.55673 0.94439 0.0
C607 C 0.10632 0.54489 0.93318 0.0
C608 C 0.06791 0.52878 0.94145 0.0
C609 C 0.06436 0.52523 0.96051 0.0
H610 H 0.12156 0.4637 0.00804 0.0
H611 H 0.10773 0.47267 0.98489 0.0
H612 H 0.15711 0.50772 0.99388 0.0
H613 H 0.1648 0.56404 0.9718 0.0
H614 H 0.17105 0.56976 0.93838 0.0
H615 H 0.64495 0.01548 0.42339 0.0
H616 H 0.63635 0.01569 0.39009 0.0
H617 H 0.55549 0.06431 0.3933 0.0
H618 H 0.56303 0.06323 0.42663 0.0
H619 H 0.52586 0.00233 0.37061 0.0
H620 H 0.68777 0.11527 0.35378 0.0
H621 H 0.68146 0.07137 0.36808 0.0
H622 H 0.66758 0.10592 0.37667 0.0
C623 C 0.62547 0.0264 0.41702 0.0
C624 C 0.60487 0.03958 0.42768 0.0
C625 C 0.62073 0.02665 0.39797 0.0
C626 C 0.59584 0.04068 0.38919 0.0
C627 C 0.57497 0.0535 0.39979 0.0
H628 H 0.60393 0.11202 0.27317 0.0
H629 H 0.60507 0.1091 0.3067 0.0
C630 C 0.57939 0.05294 0.41885 0.0
C631 C 0.59119 0.04166 0.36897 0.0
H632 H 0.64486 0.08105 0.32899 0.0
C633 C 0.55184 0.01966 0.36148 0.0
C634 C 0.62506 0.06473 0.35712 0.0
C635 C 0.66779 0.09099 0.36429 0.0
C636 C 0.54548 0.01976 0.34243 0.0
C637 C 0.57952 0.04173 0.33058 0.0
C638 C 0.61881 0.06399 0.33809 0.0
C639 C 0.57537 0.04276 0.31033 0.0
C640 C 0.50233 0.99709 0.33522 0.0
C641 C 0.55787 0.00639 0.30123 0.0
C642 C 0.55684 0.008 0.28206 0.0
C643 C 0.57396 0.04604 0.27171 0.0
C644 C 0.5908 0.08231 0.28084 0.0
C645 C 0.59144 0.08067 0.29997 0.0
H646 H 0.47973 0.99223 0.34574 0.0
H647 H 0.49833 0.01401 0.32286 0.0
H648 H 0.49542 0.96645 0.3314 0.0
H649 H 0.54615 0.97686 0.30893 0.0
H650 H 0.54415 0.97965 0.27533 0.0
H651 H 0.57546 0.50632 0.76191 0.0
H652 H 0.58064 0.50526 0.72884 0.0
H653 H 0.69987 0.61395 0.72879 0.0
H654 H 0.6953 0.6151 0.76193 0.0
H655 H 0.59177 0.56576 0.70095 0.0
H656 H 0.71953 0.5331 0.70296 0.0
H657 H 0.69037 0.52667 0.72308 0.0
H658 H 0.7294 0.57705 0.71467 0.0
C659 C 0.60283 0.53007 0.7549 0.0
C660 C 0.63508 0.56069 0.76462 0.0
C661 C 0.60571 0.52936 0.736 0.0
C662 C 0.64091 0.55908 0.72645 0.0
C663 C 0.6728 0.5902 0.73599 0.0
H664 H 0.7113 0.61025 0.61195 0.0
H665 H 0.70877 0.60929 0.64538 0.0
C666 C 0.66999 0.59096 0.75492 0.0
C667 C 0.6438 0.55785 0.70644 0.0
H668 H 0.69885 0.54793 0.67358 0.0
C669 C 0.61505 0.56168 0.69495 0.0
C670 C 0.67428 0.55259 0.6987 0.0
C671 C 0.70498 0.54675 0.71047 0.0
C672 C 0.61632 0.56103 0.67587 0.0
C673 C 0.64671 0.55567 0.66813 0.0
C674 C 0.67555 0.55193 0.67959 0.0
C675 C 0.64929 0.55443 0.64811 0.0
C676 C 0.58566 0.56699 0.66411 0.0
C677 C 0.6172 0.52322 0.63869 0.0
C678 C 0.61846 0.52378 0.61961 0.0
C679 C 0.65195 0.55552 0.60964 0.0
C680 C 0.68482 0.58576 0.61923 0.0
C681 C 0.68353 0.58515 0.63831 0.0
H682 H 0.57095 0.58042 0.67166 0.0
H683 H 0.60037 0.58733 0.65158 0.0
H684 H 0.56135 0.53677 0.65977 0.0
H685 H 0.59081 0.49886 0.64607 0.0
H686 H 0.59254 0.5002 0.61263 0.0
H687 H 0.67545 0.08801 0.57033 0.0
H688 H 0.67558 0.0893 0.60355 0.0
H689 H 0.56952 0.96777 0.60753 0.0
H690 H 0.56962 0.96579 0.57415 0.0
H691 H 0.61608 0.08464 0.62479 0.0
H692 H 0.64586 0.95701 0.64559 0.0
H693 H 0.65269 0.97971 0.62234 0.0
H694 H 0.60239 0.94309 0.63082 0.0
C695 C 0.65228 0.06134 0.57823 0.0
C696 C 0.6225 0.02674 0.56958 0.0
C697 C 0.6524 0.06219 0.59724 0.0
C698 C 0.62279 0.02855 0.60801 0.0
C699 C 0.59313 0.99377 0.59948 0.0
H700 H 0.56784 0.04005 0.7211 0.0
H701 H 0.56626 0.03769 0.68772 0.0
C702 C 0.59314 0.99275 0.58041 0.0
C703 C 0.62243 0.03086 0.62808 0.0
H704 H 0.63045 0.98586 0.66935 0.0
C705 C 0.61923 0.06306 0.63455 0.0
C706 C 0.627 0.00292 0.64074 0.0
C707 C 0.63256 0.96894 0.63457 0.0
C708 C 0.62054 0.06816 0.65337 0.0
C709 C 0.62423 0.03972 0.66605 0.0
C710 C 0.62739 0.00749 0.65958 0.0
C711 C 0.6258 0.04324 0.68609 0.0
C712 C 0.61904 0.10456 0.65945 0.0
C713 C 0.65961 0.04679 0.69623 0.0
C714 C 0.66044 0.04786 0.71527 0.0
C715 C 0.62744 0.04538 0.7245 0.0
C716 C 0.59395 0.04267 0.71429 0.0
C717 C 0.59302 0.04131 0.69524 0.0
H718 H 0.62735 0.12903 0.64814 0.0
H719 H 0.58752 0.09443 0.6639 0.0
H720 H 0.63999 0.11787 0.67118 0.0
H721 H 0.68523 0.04837 0.68942 0.0
H722 H 0.68674 0.05023 0.7228 0.0
H723 H 0.64503 0.49292 0.9097 0.0
H724 H 0.63162 0.47616 0.94264 0.0
H725 H 0.57063 0.54676 0.94139 0.0
H726 H 0.5836 0.56357 0.90849 0.0
H727 H 0.65525 0.53206 0.97093 0.0
H728 H 0.48678 0.43279 0.96576 0.0
H729 H 0.52047 0.44614 0.94648 0.0
H730 H 0.50768 0.48263 0.95361 0.0
C731 C 0.62878 0.50493 0.91641 0.0
C732 C 0.61524 0.52945 0.90642 0.0
C733 C 0.62114 0.49528 0.93522 0.0
C734 C 0.59957 0.50967 0.94432 0.0
C735 C 0.58665 0.53472 0.93451 0.0
H736 H 0.52664 0.49461 0.05625 0.0
H737 H 0.53552 0.50464 0.0229 0.0
C738 C 0.59436 0.5445 0.91573 0.0
C739 C 0.59127 0.4992 0.9642 0.0
H740 H 0.51422 0.4496 0.9956 0.0
C741 C 0.62447 0.51381 0.97636 0.0
C742 C 0.55104 0.47554 0.97115 0.0
C743 C 0.51438 0.45802 0.9586 0.0
C744 C 0.61848 0.50615 0.99539 0.0
C745 C 0.57822 0.48244 0.00237 0.0
C746 C 0.54502 0.46768 0.99019 0.0
C747 C 0.57006 0.47332 0.02231 0.0
C748 C 0.65525 0.52448 0.00786 0.0
C749 C 0.58535 0.45119 0.0329 0.0
C750 C 0.58032 0.44542 0.05192 0.0
C751 C 0.55954 0.46134 0.06065 0.0
C752 C 0.54253 0.48175 0.0499 0.0
C753 C 0.54774 0.48767 0.03087 0.0
H754 H 0.68249 0.55009 0.00064 0.0
H755 H 0.64894 0.53615 0.02 0.0
H756 H 0.6628 0.50045 0.01281 0.0
H757 H 0.60178 0.43898 0.02649 0.0
H758 H 0.59317 0.42898 0.05984 0.0
H759 H 0.09393 0.47725 0.23389 0.0
H760 H 0.10024 0.47934 0.26723 0.0
H761 H 0.05434 0.56353 0.26516 0.0
H762 H 0.04894 0.56252 0.23182 0.0
H763 H 0.12103 0.58817 0.28692 0.0
H764 H 0.00931 0.42378 0.30464 0.0
H765 H 0.04952 0.43155 0.28985 0.0
H766 H 0.01393 0.44775 0.28176 0.0
C767 C 0.08491 0.49599 0.24054 0.0
C768 C 0.07078 0.51959 0.2302 0.0
C769 C 0.08839 0.49702 0.2596 0.0
C770 C 0.07719 0.52111 0.26869 0.0
C771 C 0.06307 0.54467 0.25841 0.0
H772 H 0.02883 0.49953 0.38435 0.0
H773 H 0.0261 0.50136 0.35088 0.0
C774 C 0.05993 0.54397 0.23936 0.0
C775 C 0.08088 0.52254 0.28888 0.0
H776 H 0.04893 0.46279 0.32912 0.0
C777 C 0.1052 0.56079 0.29617 0.0
C778 C 0.05982 0.48683 0.30089 0.0
C779 C 0.03135 0.44521 0.29393 0.0
C780 C 0.10915 0.5643 0.31519 0.0
C781 C 0.089 0.52843 0.32719 0.0
C782 C 0.06462 0.49022 0.31988 0.0
C783 C 0.0915 0.52975 0.3474 0.0
C784 C 0.13395 0.60648 0.3222 0.0
C785 C 0.12922 0.54536 0.35655 0.0
C786 C 0.13086 0.54467 0.37571 0.0
C787 C 0.09473 0.52767 0.38597 0.0
C788 C 0.0571 0.51242 0.37676 0.0
C789 C 0.05551 0.5135 0.35766 0.0
H790 H 0.1378 0.63101 0.31155 0.0
H791 H 0.11944 0.60921 0.33444 0.0
H792 H 0.1648 0.61189 0.32617 0.0
H793 H 0.15728 0.55721 0.34893 0.0
H794 H 0.16018 0.5562 0.38252 0.0
loop_
_geom_bond_atom_site_label_1
_geom_bond_atom_site_label_2
_geom_bond_distance
_geom_bond_site_symmetry_2
_ccdc_geom_bond_type
O0 Zn1 1.953 . S
O0 C16 1.225 . S
Zn1 O0 1.953 . S
Zn1 O2 1.949 . S
Zn1 O8 1.919 1_455 S
Zn1 O13 1.924 . S
O2 Zn1 1.949 . S
O2 Zn3 1.923 . S
O2 Zn4 1.950 . S
O2 Zn5 1.945 . S
Zn3 O2 1.923 . S
Zn3 O6 1.933 . S
Zn3 O9 1.941 1_455 S
Zn3 O10 1.965 1_455 S
Zn4 O2 1.950 . S
Zn4 O11 1.938 . S
Zn4 O12 1.906 . S
Zn4 O22 1.953 . S
Zn5 O2 1.945 . S
Zn5 O7 1.932 . S
Zn5 O14 1.977 . S
Zn5 O15 1.910 . S
O6 Zn3 1.933 . S
O6 C17 1.226 . S
O7 Zn5 1.932 . S
O7 C17 1.307 . S
O8 Zn1 1.919 1_655 S
O8 C19 1.253 . S
O9 Zn3 1.941 1_655 S
O9 C19 1.283 . S
O10 Zn3 1.965 1_655 S
O10 C18 1.303 . S
O11 Zn4 1.938 . S
O11 C18 1.247 1_455 S
O12 Zn4 1.906 . S
O12 C20 1.304 . S
O13 Zn1 1.924 . S
O13 C21 1.311 . S
O14 Zn5 1.977 . S
O14 C20 1.272 . S
O15 Zn5 1.910 . S
O15 C21 1.231 . S
C16 O0 1.225 . S
C16 O22 1.298 . S
C17 O6 1.226 . S
C17 O7 1.307 . S
C18 O10 1.303 . S
C18 O11 1.247 1_655 S
C19 O8 1.253 . S
C19 O9 1.283 . S
C20 O12 1.304 . S
C20 O14 1.272 . S
C21 O13 1.311 . S
C21 O15 1.231 . S
O22 Zn4 1.953 . S
O22 C16 1.298 . S
O23 Zn24 1.953 . S
O23 C39 1.225 . S
Zn24 O23 1.953 . S
Zn24 O25 1.949 . S
Zn24 O31 1.919 . S
Zn24 O36 1.924 1_545 S
O25 Zn24 1.949 . S
O25 Zn26 1.923 . S
O25 Zn27 1.950 . S
O25 Zn28 1.945 1_545 S
Zn26 O25 1.923 . S
Zn26 O29 1.933 . S
Zn26 O32 1.941 . S
Zn26 O33 1.965 . S
Zn27 O25 1.950 . S
Zn27 O34 1.938 . S
Zn27 O35 1.906 1_545 S
Zn27 O45 1.953 . S
Zn28 O25 1.945 1_565 S
Zn28 O30 1.932 . S
Zn28 O37 1.977 . S
Zn28 O38 1.910 . S
O29 Zn26 1.933 . S
O29 C40 1.226 . S
O30 Zn28 1.932 . S
O30 C40 1.307 1_565 S
O31 Zn24 1.919 . S
O31 C42 1.253 . S
O32 Zn26 1.941 . S
O32 C42 1.283 . S
O33 Zn26 1.965 . S
O33 C41 1.303 . S
O34 Zn27 1.938 . S
O34 C41 1.247 . S
O35 Zn27 1.906 1_565 S
O35 C43 1.304 . S
O36 Zn24 1.924 1_565 S
O36 C44 1.311 . S
O37 Zn28 1.977 . S
O37 C43 1.272 . S
O38 Zn28 1.910 . S
O38 C44 1.231 . S
C39 O23 1.225 . S
C39 O45 1.298 . S
C40 O29 1.226 . S
C40 O30 1.307 1_545 S
C41 O33 1.303 . S
C41 O34 1.247 . S
C42 O31 1.253 . S
C42 O32 1.283 . S
C43 O35 1.304 . S
C43 O37 1.272 . S
C44 O36 1.311 . S
C44 O38 1.231 . S
O45 Zn27 1.953 . S
O45 C39 1.298 . S
O46 Zn47 1.953 . S
O46 C62 1.225 . S
Zn47 O46 1.953 . S
Zn47 O48 1.949 . S
Zn47 O54 1.919 . S
Zn47 O59 1.924 . S
O48 Zn47 1.949 . S
O48 Zn49 1.923 . S
O48 Zn50 1.950 . S
O48 Zn51 1.945 . S
Zn49 O48 1.923 . S
Zn49 O52 1.933 . S
Zn49 O55 1.941 . S
Zn49 O56 1.965 . S
Zn50 O48 1.950 . S
Zn50 O57 1.938 . S
Zn50 O58 1.906 . S
Zn50 O68 1.953 . S
Zn51 O48 1.945 . S
Zn51 O53 1.932 . S
Zn51 O60 1.977 . S
Zn51 O61 1.910 . S
O52 Zn49 1.933 . S
O52 C63 1.226 . S
O53 Zn51 1.932 . S
O53 C63 1.307 . S
O54 Zn47 1.919 . S
O54 C65 1.253 . S
O55 Zn49 1.941 . S
O55 C65 1.283 . S
O56 Zn49 1.965 . S
O56 C64 1.303 . S
O57 Zn50 1.938 . S
O57 C64 1.247 . S
O58 Zn50 1.906 . S
O58 C66 1.304 . S
O59 Zn47 1.924 . S
O59 C67 1.311 . S
O60 Zn51 1.977 . S
O60 C66 1.272 . S
O61 Zn51 1.910 . S
O61 C67 1.231 . S
C62 O46 1.225 . S
C62 O68 1.298 . S
C63 O52 1.226 . S
C63 O53 1.307 . S
C64 O56 1.303 . S
C64 O57 1.247 . S
C65 O54 1.253 . S
C65 O55 1.283 . S
C66 O58 1.304 . S
C66 O60 1.272 . S
C67 O59 1.311 . S
C67 O61 1.231 . S
O68 Zn50 1.953 . S
O68 C62 1.298 . S
H69 C76 0.929 . S
H70 C79 0.916 1_565 S
H71 C81 0.929 . S
H72 C73 0.969 . S
C73 H72 0.969 . S
C73 O74 1.550 . S
C73 H75 0.973 . S
O74 C73 1.550 . S
O74 C80 1.412 1_565 S
H75 C73 0.973 . S
C76 H69 0.929 . S
C76 C77 1.400 . S
C76 C78 1.364 . S
C77 C76 1.400 . S
C77 C81 1.377 . S
C78 C76 1.364 . S
C78 C79 1.388 . S
C79 H70 0.916 1_545 S
C79 C78 1.388 . S
C79 C80 1.385 . S
C80 O74 1.412 1_545 S
C80 C79 1.385 . S
C80 C81 1.394 . S
C81 H71 0.929 . S
C81 C77 1.377 . S
C81 C80 1.394 . S
H82 C89 0.929 . S
H83 C92 0.930 . S
H84 C94 0.929 . S
H85 C86 0.969 . S
C86 H85 0.969 . S
C86 O87 1.550 . S
C86 H88 0.973 . S
O87 C86 1.550 . S
O87 C93 1.412 . S
H88 C86 0.973 . S
C89 H82 0.929 . S
C89 C90 1.400 . S
C89 C91 1.364 . S
C90 C89 1.400 . S
C90 C94 1.377 . S
C91 C89 1.364 . S
C91 C92 1.374 . S
C92 H83 0.930 . S
C92 C91 1.374 . S
C92 C93 1.383 . S
C93 O87 1.412 . S
C93 C92 1.383 . S
C93 C94 1.394 . S
C94 H84 0.929 . S
C94 C90 1.377 . S
C94 C93 1.394 . S
H95 C102 0.929 . S
H96 C105 0.930 . S
H97 C107 0.929 . S
H98 C99 0.969 . S
C99 H98 0.969 . S
C99 O100 1.550 . S
C99 H101 0.973 . S
O100 C99 1.550 . S
O100 C106 1.412 . S
H101 C99 0.973 . S
C102 H95 0.929 . S
C102 C103 1.400 . S
C102 C104 1.364 . S
C103 C102 1.400 . S
C103 C107 1.377 . S
C104 C102 1.364 . S
C104 C105 1.374 . S
C105 H96 0.930 . S
C105 C104 1.374 . S
C105 C106 1.383 . S
C106 O100 1.412 . S
C106 C105 1.383 . S
C106 C107 1.394 . S
C107 H97 0.929 . S
C107 C103 1.377 . S
C107 C106 1.394 . S
H108 C115 0.929 . S
H109 C118 0.930 . S
H110 C120 0.929 . S
H111 C112 0.969 . S
C112 H111 0.969 . S
C112 O113 1.550 . S
C112 H114 0.973 . S
O113 C112 1.550 . S
O113 C119 1.412 . S
H114 C112 0.973 . S
C115 H108 0.929 . S
C115 C116 1.400 . S
C115 C117 1.364 . S
C116 C115 1.400 . S
C116 C120 1.377 . S
C117 C115 1.364 . S
C117 C118 1.374 . S
C118 H109 0.930 . S
C118 C117 1.374 . S
C118 C119 1.383 . S
C119 O113 1.412 . S
C119 C118 1.383 . S
C119 C120 1.394 . S
C120 H110 0.929 . S
C120 C116 1.377 . S
C120 C119 1.394 . S
H121 C128 0.929 1_565 S
H122 C131 0.930 . S
H123 C133 0.929 . S
H124 C125 0.969 . S
C125 H124 0.969 . S
C125 O126 1.550 . S
C125 H127 0.973 . S
O126 C125 1.550 . S
O126 C132 1.412 . S
H127 C125 0.973 . S
C128 H121 0.929 1_545 S
C128 C129 1.400 1_545 S
C128 C130 1.364 . S
C129 C128 1.400 1_565 S
C129 C133 1.377 1_565 S
C130 C128 1.364 . S
C130 C131 1.374 . S
C131 H122 0.930 . S
C131 C130 1.374 . S
C131 C132 1.383 . S
C132 O126 1.412 . S
C132 C131 1.383 . S
C132 C133 1.394 . S
C133 H123 0.929 . S
C133 C129 1.377 1_545 S
C133 C132 1.394 . S
H134 C141 0.929 . S
H135 C144 0.930 . S
H136 C146 0.929 . S
H137 C138 0.969 . S
C138 H137 0.969 . S
C138 O139 1.550 . S
C138 H140 0.973 . S
O139 C138 1.550 . S
O139 C145 1.412 . S
H140 C138 0.973 . S
C141 H134 0.929 . S
C141 C142 1.400 . S
C141 C143 1.364 . S
C142 C141 1.400 . S
C142 C146 1.377 . S
C143 C141 1.364 . S
C143 C144 1.374 . S
C144 H135 0.930 . S
C144 C143 1.374 . S
C144 C145 1.383 . S
C145 O139 1.412 . S
C145 C144 1.383 . S
C145 C146 1.394 . S
C146 H136 0.929 . S
C146 C142 1.377 . S
C146 C145 1.394 . S
H147 C155 0.929 . S
H148 C157 0.930 . S
H149 C159 0.930 . S
H150 C162 0.929 . S
H151 C165 0.930 . S
H152 C167 0.960 . S
H153 C167 0.960 . S
H154 C167 0.960 . S
C155 H147 0.929 . S
C155 C156 1.377 . S
C155 C157 1.384 . S
C156 C155 1.377 . S
C156 C162 1.390 . S
C157 H148 0.930 . S
C157 C155 1.384 . S
C157 C158 1.372 . S
C158 C157 1.372 . S
C158 C159 1.400 . S
C158 C163 1.490 . S
C159 H149 0.930 . S
C159 C158 1.400 . S
C159 C162 1.386 . S
H160 C176 0.930 . S
H161 C177 0.931 . S
C162 H150 0.929 . S
C162 C156 1.390 . S
C162 C159 1.386 . S
C163 C158 1.490 . S
C163 C165 1.395 . S
C163 C166 1.403 . S
H164 C170 0.930 . S
C165 H151 0.930 . S
C165 C163 1.395 . S
C165 C168 1.403 . S
C166 C163 1.403 . S
C166 C167 1.524 . S
C166 C170 1.400 . S
C167 H152 0.960 . S
C167 H153 0.960 . S
C167 H154 0.960 . S
C167 C166 1.524 . S
C168 C165 1.403 . S
C168 C169 1.392 . S
C168 C172 1.495 . S
C169 C168 1.392 . S
C169 C170 1.385 . S
C169 C171 1.478 . S
C170 H164 0.930 . S
C170 C166 1.400 . S
C170 C169 1.385 . S
C171 C169 1.478 . S
C171 C173 1.381 . S
C171 C177 1.383 . S
C172 C168 1.495 . S
C172 H178 0.959 . S
C172 H179 0.961 . S
C172 H180 0.960 . S
C173 C171 1.381 . S
C173 C174 1.394 . S
C173 H181 0.930 . S
C174 C173 1.394 . S
C174 C175 1.383 . S
C174 H182 0.929 . S
C175 C174 1.383 . S
C175 C176 1.377 . S
C176 H160 0.930 . S
C176 C175 1.377 . S
C176 C177 1.379 . S
C177 H161 0.931 . S
C177 C171 1.383 . S
C177 C176 1.379 . S
H178 C172 0.959 . S
H179 C172 0.961 . S
H180 C172 0.960 . S
H181 C173 0.930 . S
H182 C174 0.929 . S
H183 C191 0.929 . S
H184 C193 0.930 . S
H185 C195 0.930 . S
H186 C198 0.929 . S
H187 C201 0.930 . S
H188 C203 0.960 . S
H189 C203 0.960 . S
H190 C203 0.960 . S
C191 H183 0.929 . S
C191 C192 1.377 . S
C191 C193 1.384 . S
C192 C191 1.377 . S
C192 C198 1.390 . S
C193 H184 0.930 . S
C193 C191 1.384 . S
C193 C194 1.372 . S
C194 C193 1.372 . S
C194 C195 1.400 . S
C194 C199 1.490 . S
C195 H185 0.930 . S
C195 C194 1.400 . S
C195 C198 1.386 . S
H196 C212 0.930 . S
H197 C213 0.937 . S
C198 H186 0.929 . S
C198 C192 1.390 . S
C198 C195 1.386 . S
C199 C194 1.490 . S
C199 C201 1.395 . S
C199 C202 1.403 . S
H200 C206 0.930 . S
C201 H187 0.930 . S
C201 C199 1.395 . S
C201 C204 1.403 . S
C202 C199 1.403 . S
C202 C203 1.524 . S
C202 C206 1.400 . S
C203 H188 0.960 . S
C203 H189 0.960 . S
C203 H190 0.960 . S
C203 C202 1.524 . S
C204 C201 1.403 . S
C204 C205 1.392 . S
C204 C208 1.495 . S
C205 C204 1.392 . S
C205 C206 1.385 . S
C205 C207 1.478 . S
C206 H200 0.930 . S
C206 C202 1.400 . S
C206 C205 1.385 . S
C207 C205 1.478 . S
C207 C209 1.381 . S
C207 C213 1.383 . S
C208 C204 1.495 . S
C208 H214 0.959 . S
C208 H215 0.961 . S
C208 H216 0.960 . S
C209 C207 1.381 . S
C209 C210 1.394 . S
C209 H217 0.930 . S
C210 C209 1.394 . S
C210 C211 1.383 1_655 S
C210 H218 0.929 . S
C211 C210 1.383 1_455 S
C211 C212 1.377 . S
C212 H196 0.930 . S
C212 C211 1.377 . S
C212 C213 1.379 1_455 S
C213 H197 0.937 . S
C213 C207 1.383 . S
C213 C212 1.379 1_655 S
H214 C208 0.959 . S
H215 C208 0.961 . S
H216 C208 0.960 . S
H217 C209 0.930 . S
H218 C210 0.929 . S
H219 C227 0.929 . S
H220 C229 0.930 . S
H221 C231 0.930 . S
H222 C234 0.929 . S
H223 C237 0.930 . S
H224 C239 0.960 . S
H225 C239 0.960 . S
H226 C239 0.960 . S
C227 H219 0.929 . S
C227 C228 1.377 . S
C227 C229 1.384 . S
C228 C227 1.377 . S
C228 C234 1.390 . S
C229 H220 0.930 . S
C229 C227 1.384 . S
C229 C230 1.372 . S
C230 C229 1.372 . S
C230 C231 1.400 . S
C230 C235 1.490 . S
C231 H221 0.930 . S
C231 C230 1.400 . S
C231 C234 1.386 . S
H232 C248 0.930 . S
H233 C249 0.931 . S
C234 H222 0.929 . S
C234 C228 1.390 . S
C234 C231 1.386 . S
C235 C230 1.490 . S
C235 C237 1.395 . S
C235 C238 1.403 . S
H236 C242 0.930 . S
C237 H223 0.930 . S
C237 C235 1.395 . S
C237 C240 1.403 . S
C238 C235 1.403 . S
C238 C239 1.524 . S
C238 C242 1.400 . S
C239 H224 0.960 . S
C239 H225 0.960 . S
C239 H226 0.960 . S
C239 C238 1.524 . S
C240 C237 1.403 . S
C240 C241 1.392 . S
C240 C244 1.495 . S
C241 C240 1.392 . S
C241 C242 1.385 . S
C241 C243 1.478 . S
C242 H236 0.930 . S
C242 C238 1.400 . S
C242 C241 1.385 . S
C243 C241 1.478 . S
C243 C245 1.381 . S
C243 C249 1.383 . S
C244 C240 1.495 . S
C244 H250 0.959 . S
C244 H251 0.961 . S
C244 H252 0.960 . S
C245 C243 1.381 . S
C245 C246 1.394 . S
C245 H253 0.930 . S
C246 C245 1.394 . S
C246 C247 1.383 . S
C246 H254 0.929 . S
C247 C246 1.383 . S
C247 C248 1.377 . S
C248 H232 0.930 . S
C248 C247 1.377 . S
C248 C249 1.379 . S
C249 H233 0.931 . S
C249 C243 1.383 . S
C249 C248 1.379 . S
H250 C244 0.959 . S
H251 C244 0.961 . S
H252 C244 0.960 . S
H253 C245 0.930 . S
H254 C246 0.929 . S
H255 C263 0.929 . S
H256 C265 0.930 . S
H257 C267 0.930 . S
H258 C270 0.929 . S
H259 C273 0.930 . S
H260 C275 0.960 . S
H261 C275 0.960 . S
H262 C275 0.960 . S
C263 H255 0.929 . S
C263 C264 1.377 . S
C263 C265 1.384 . S
C264 C263 1.377 . S
C264 C270 1.390 . S
C265 H256 0.930 . S
C265 C263 1.384 . S
C265 C266 1.372 . S
C266 C265 1.372 . S
C266 C267 1.400 . S
C266 C271 1.490 . S
C267 H257 0.930 . S
C267 C266 1.400 . S
C267 C270 1.386 . S
H268 C284 0.930 . S
H269 C285 0.931 . S
C270 H258 0.929 . S
C270 C264 1.390 . S
C270 C267 1.386 . S
C271 C266 1.490 . S
C271 C273 1.395 . S
C271 C274 1.403 . S
H272 C278 0.930 . S
C273 H259 0.930 . S
C273 C271 1.395 . S
C273 C276 1.403 . S
C274 C271 1.403 . S
C274 C275 1.524 . S
C274 C278 1.400 . S
C275 H260 0.960 . S
C275 H261 0.960 . S
C275 H262 0.960 . S
C275 C274 1.524 . S
C276 C273 1.403 . S
C276 C277 1.392 . S
C276 C280 1.495 . S
C277 C276 1.392 . S
C277 C278 1.385 . S
C277 C279 1.478 . S
C278 H272 0.930 . S
C278 C274 1.400 . S
C278 C277 1.385 . S
C279 C277 1.478 . S
C279 C281 1.381 . S
C279 C285 1.383 . S
C280 C276 1.495 . S
C280 H286 0.959 . S
C280 H287 0.961 . S
C280 H288 0.960 . S
C281 C279 1.381 . S
C281 C282 1.394 . S
C281 H289 0.930 . S
C282 C281 1.394 . S
C282 C283 1.383 . S
C282 H290 0.929 . S
C283 C282 1.383 . S
C283 C284 1.377 . S
C284 H268 0.930 . S
C284 C283 1.377 . S
C284 C285 1.379 . S
C285 H269 0.931 . S
C285 C279 1.383 . S
C285 C284 1.379 . S
H286 C280 0.959 . S
H287 C280 0.961 . S
H288 C280 0.960 . S
H289 C281 0.930 . S
H290 C282 0.929 . S
H291 C299 0.929 . S
H292 C301 0.930 . S
H293 C303 0.930 . S
H294 C306 0.929 . S
H295 C309 0.930 . S
H296 C311 0.960 . S
H297 C311 0.960 . S
H298 C311 0.960 . S
C299 H291 0.929 . S
C299 C300 1.377 . S
C299 C301 1.384 . S
C300 C299 1.377 . S
C300 C306 1.390 . S
C301 H292 0.930 . S
C301 C299 1.384 . S
C301 C302 1.372 . S
C302 C301 1.372 . S
C302 C303 1.400 . S
C302 C307 1.490 . S
C303 H293 0.930 . S
C303 C302 1.400 . S
C303 C306 1.386 . S
H304 C320 0.930 . S
H305 C321 0.931 . S
C306 H294 0.929 . S
C306 C300 1.390 . S
C306 C303 1.386 . S
C307 C302 1.490 . S
C307 C309 1.395 . S
C307 C310 1.403 . S
H308 C314 0.930 . S
C309 H295 0.930 . S
C309 C307 1.395 . S
C309 C312 1.403 . S
C310 C307 1.403 . S
C310 C311 1.524 . S
C310 C314 1.400 . S
C311 H296 0.960 . S
C311 H297 0.960 . S
C311 H298 0.960 . S
C311 C310 1.524 . S
C312 C309 1.403 . S
C312 C313 1.392 . S
C312 C316 1.495 . S
C313 C312 1.392 . S
C313 C314 1.385 . S
C313 C315 1.478 . S
C314 H308 0.930 . S
C314 C310 1.400 . S
C314 C313 1.385 . S
C315 C313 1.478 . S
C315 C317 1.381 . S
C315 C321 1.383 . S
C316 C312 1.495 . S
C316 H322 0.959 . S
C316 H323 0.961 . S
C316 H324 0.960 . S
C317 C315 1.381 . S
C317 C318 1.394 . S
C317 H325 0.930 . S
C318 C317 1.394 . S
C318 C319 1.383 . S
C318 H326 0.929 . S
C319 C318 1.383 . S
C319 C320 1.377 . S
C320 H304 0.930 . S
C320 C319 1.377 . S
C320 C321 1.379 . S
C321 H305 0.931 . S
C321 C315 1.383 . S
C321 C320 1.379 . S
H322 C316 0.959 . S
H323 C316 0.961 . S
H324 C316 0.960 . S
H325 C317 0.930 . S
H326 C318 0.929 . S
H327 C335 0.929 . S
H328 C337 0.930 . S
H329 C339 0.930 . S
H330 C342 0.929 . S
H331 C345 0.930 . S
H332 C347 0.960 . S
H333 C347 0.960 . S
H334 C347 0.960 . S
C335 H327 0.929 . S
C335 C336 1.377 . S
C335 C337 1.384 . S
C336 C335 1.377 . S
C336 C342 1.390 . S
C337 H328 0.930 . S
C337 C335 1.384 . S
C337 C338 1.372 . S
C338 C337 1.372 . S
C338 C339 1.400 . S
C338 C343 1.490 . S
C339 H329 0.930 . S
C339 C338 1.400 . S
C339 C342 1.386 . S
H340 C356 0.930 . S
H341 C357 0.931 . S
C342 H330 0.929 . S
C342 C336 1.390 . S
C342 C339 1.386 . S
C343 C338 1.490 . S
C343 C345 1.395 . S
C343 C346 1.403 . S
H344 C350 0.930 . S
C345 H331 0.930 . S
C345 C343 1.395 . S
C345 C348 1.403 . S
C346 C343 1.403 . S
C346 C347 1.524 . S
C346 C350 1.400 . S
C347 H332 0.960 . S
C347 H333 0.960 . S
C347 H334 0.960 . S
C347 C346 1.524 . S
C348 C345 1.403 . S
C348 C349 1.392 . S
C348 C352 1.495 . S
C349 C348 1.392 . S
C349 C350 1.385 . S
C349 C351 1.478 . S
C350 H344 0.930 . S
C350 C346 1.400 . S
C350 C349 1.385 . S
C351 C349 1.478 . S
C351 C353 1.381 . S
C351 C357 1.383 . S
C352 C348 1.495 . S
C352 H358 0.959 . S
C352 H359 0.961 . S
C352 H360 0.960 . S
C353 C351 1.381 . S
C353 C354 1.394 . S
C353 H361 0.930 . S
C354 C353 1.394 . S
C354 C355 1.383 . S
C354 H362 0.929 . S
C355 C354 1.383 . S
C355 C356 1.377 . S
C356 H340 0.930 . S
C356 C355 1.377 . S
C356 C357 1.379 . S
C357 H341 0.931 . S
C357 C351 1.383 . S
C357 C356 1.379 . S
H358 C352 0.959 . S
H359 C352 0.961 . S
H360 C352 0.960 . S
H361 C353 0.930 . S
H362 C354 0.929 . S
H363 C371 0.929 . S
H364 C373 0.930 . S
H365 C375 0.930 . S
H366 C378 0.929 . S
H367 C381 0.930 . S
H368 C383 0.960 . S
H369 C383 0.960 . S
H370 C383 0.960 . S
C371 H363 0.929 . S
C371 C372 1.377 . S
C371 C373 1.384 . S
C372 C371 1.377 . S
C372 C378 1.390 . S
C373 H364 0.930 . S
C373 C371 1.384 . S
C373 C374 1.372 . S
C374 C373 1.372 . S
C374 C375 1.400 . S
C374 C379 1.490 . S
C375 H365 0.930 . S
C375 C374 1.400 . S
C375 C378 1.386 . S
H376 C392 0.930 . S
H377 C393 0.931 . S
C378 H366 0.929 . S
C378 C372 1.390 . S
C378 C375 1.386 . S
C379 C374 1.490 . S
C379 C381 1.395 . S
C379 C382 1.403 . S
H380 C386 0.930 . S
C381 H367 0.930 . S
C381 C379 1.395 . S
C381 C384 1.403 . S
C382 C379 1.403 . S
C382 C383 1.524 . S
C382 C386 1.400 . S
C383 H368 0.960 . S
C383 H369 0.960 . S
C383 H370 0.960 . S
C383 C382 1.524 . S
C384 C381 1.403 . S
C384 C385 1.392 . S
C384 C388 1.495 . S
C385 C384 1.392 . S
C385 C386 1.385 . S
C385 C387 1.478 . S
C386 H380 0.930 . S
C386 C382 1.400 . S
C386 C385 1.385 . S
C387 C385 1.478 . S
C387 C389 1.381 . S
C387 C393 1.383 . S
C388 C384 1.495 . S
C388 H394 0.959 . S
C388 H395 0.961 . S
C388 H396 0.960 . S
C389 C387 1.381 . S
C389 C390 1.394 . S
C389 H397 0.930 . S
C390 C389 1.394 . S
C390 C391 1.383 . S
C390 H398 0.929 . S
C391 C390 1.383 . S
C391 C392 1.377 . S
C392 H376 0.930 . S
C392 C391 1.377 . S
C392 C393 1.379 . S
C393 H377 0.931 . S
C393 C387 1.383 . S
C393 C392 1.379 . S
H394 C388 0.959 . S
H395 C388 0.961 . S
H396 C388 0.960 . S
H397 C389 0.930 . S
H398 C390 0.929 . S
H399 C407 0.929 . S
H400 C409 0.930 . S
H401 C411 0.930 . S
H402 C414 0.929 . S
H403 C417 0.930 . S
H404 C419 0.960 . S
H405 C419 0.960 . S
H406 C419 0.960 . S
C407 H399 0.929 . S
C407 C408 1.377 . S
C407 C409 1.384 . S
C408 C407 1.377 . S
C408 C414 1.390 . S
C409 H400 0.930 . S
C409 C407 1.384 . S
C409 C410 1.372 . S
C410 C409 1.372 . S
C410 C411 1.400 . S
C410 C415 1.490 . S
C411 H401 0.930 . S
C411 C410 1.400 . S
C411 C414 1.386 . S
H412 C428 0.930 . S
H413 C429 0.931 . S
C414 H402 0.929 . S
C414 C408 1.390 . S
C414 C411 1.386 . S
C415 C410 1.490 . S
C415 C417 1.395 . S
C415 C418 1.403 . S
H416 C422 0.930 . S
C417 H403 0.930 . S
C417 C415 1.395 . S
C417 C420 1.403 . S
C418 C415 1.403 . S
C418 C419 1.524 . S
C418 C422 1.400 . S
C419 H404 0.960 . S
C419 H405 0.960 . S
C419 H406 0.960 . S
C419 C418 1.524 . S
C420 C417 1.403 . S
C420 C421 1.392 . S
C420 C424 1.495 . S
C421 C420 1.392 . S
C421 C422 1.385 . S
C421 C423 1.478 . S
C422 H416 0.930 . S
C422 C418 1.400 . S
C422 C421 1.385 . S
C423 C421 1.478 . S
C423 C425 1.381 1_655 S
C423 C429 1.383 . S
C424 C420 1.495 . S
C424 H430 0.959 . S
C424 H431 0.961 1_655 S
C424 H432 0.960 1_655 S
C425 C423 1.381 1_455 S
C425 C426 1.394 . S
C425 H433 0.930 . S
C426 C425 1.394 . S
C426 C427 1.383 . S
C426 H434 0.929 . S
C427 C426 1.383 . S
C427 C428 1.377 . S
C428 H412 0.930 . S
C428 C427 1.377 . S
C428 C429 1.379 1_455 S
C429 H413 0.931 . S
C429 C423 1.383 . S
C429 C428 1.379 1_655 S
H430 C424 0.959 . S
H431 C424 0.961 1_455 S
H432 C424 0.960 1_455 S
H433 C425 0.930 . S
H434 C426 0.929 . S
H435 C443 0.929 . S
H436 C445 0.930 . S
H437 C447 0.930 . S
H438 C450 0.929 . S
H439 C453 0.930 . S
H440 C455 0.960 . S
H441 C455 0.960 . S
H442 C455 0.960 . S
C443 H435 0.929 . S
C443 C444 1.377 . S
C443 C445 1.384 . S
C444 C443 1.377 . S
C444 C450 1.390 . S
C445 H436 0.930 . S
C445 C443 1.384 . S
C445 C446 1.372 . S
C446 C445 1.372 . S
C446 C447 1.400 . S
C446 C451 1.490 . S
C447 H437 0.930 . S
C447 C446 1.400 . S
C447 C450 1.386 . S
H448 C464 0.930 . S
H449 C465 0.931 . S
C450 H438 0.929 . S
C450 C444 1.390 . S
C450 C447 1.386 . S
C451 C446 1.490 . S
C451 C453 1.395 . S
C451 C454 1.403 . S
H452 C458 0.930 . S
C453 H439 0.930 . S
C453 C451 1.395 . S
C453 C456 1.403 . S
C454 C451 1.403 . S
C454 C455 1.524 . S
C454 C458 1.400 . S
C455 H440 0.960 . S
C455 H441 0.960 . S
C455 H442 0.960 . S
C455 C454 1.524 . S
C456 C453 1.403 . S
C456 C457 1.392 . S
C456 C460 1.495 . S
C457 C456 1.392 . S
C457 C458 1.385 . S
C457 C459 1.478 . S
C458 H452 0.930 . S
C458 C454 1.400 . S
C458 C457 1.385 . S
C459 C457 1.478 . S
C459 C461 1.381 . S
C459 C465 1.383 . S
C460 C456 1.495 . S
C460 H466 0.959 . S
C460 H467 0.961 . S
C460 H468 0.960 . S
C461 C459 1.381 . S
C461 C462 1.394 . S
C461 H469 0.930 . S
C462 C461 1.394 . S
C462 C463 1.383 . S
C462 H470 0.929 . S
C463 C462 1.383 . S
C463 C464 1.377 . S
C464 H448 0.930 . S
C464 C463 1.377 . S
C464 C465 1.379 . S
C465 H449 0.931 . S
C465 C459 1.383 . S
C465 C464 1.379 . S
H466 C460 0.959 . S
H467 C460 0.961 . S
H468 C460 0.960 . S
H469 C461 0.930 . S
H470 C462 0.929 . S
H471 C479 0.929 . S
H472 C481 0.930 . S
H473 C483 0.930 . S
H474 C486 0.929 . S
H475 C489 0.930 . S
H476 C491 0.960 . S
H477 C491 0.960 . S
H478 C491 0.960 . S
C479 H471 0.929 . S
C479 C480 1.377 . S
C479 C481 1.384 . S
C480 C479 1.377 . S
C480 C486 1.390 . S
C481 H472 0.930 . S
C481 C479 1.384 . S
C481 C482 1.372 . S
C482 C481 1.372 . S
C482 C483 1.400 . S
C482 C487 1.490 . S
C483 H473 0.930 . S
C483 C482 1.400 . S
C483 C486 1.386 . S
H484 C500 0.930 . S
H485 C501 0.931 . S
C486 H474 0.929 . S
C486 C480 1.390 . S
C486 C483 1.386 . S
C487 C482 1.490 . S
C487 C489 1.395 . S
C487 C490 1.403 . S
H488 C494 0.930 . S
C489 H475 0.930 . S
C489 C487 1.395 . S
C489 C492 1.403 . S
C490 C487 1.403 . S
C490 C491 1.524 . S
C490 C494 1.400 . S
C491 H476 0.960 . S
C491 H477 0.960 . S
C491 H478 0.960 . S
C491 C490 1.524 . S
C492 C489 1.403 . S
C492 C493 1.392 . S
C492 C496 1.495 . S
C493 C492 1.392 . S
C493 C494 1.385 . S
C493 C495 1.478 . S
C494 H488 0.930 . S
C494 C490 1.400 . S
C494 C493 1.385 . S
C495 C493 1.478 . S
C495 C497 1.381 . S
C495 C501 1.383 . S
C496 C492 1.495 . S
C496 H502 0.959 . S
C496 H503 0.961 . S
C496 H504 0.960 . S
C497 C495 1.381 . S
C497 C498 1.394 . S
C497 H505 0.930 . S
C498 C497 1.394 . S
C498 C499 1.383 . S
C498 H506 0.929 . S
C499 C498 1.383 . S
C499 C500 1.377 . S
C500 H484 0.930 . S
C500 C499 1.377 . S
C500 C501 1.379 . S
C501 H485 0.931 . S
C501 C495 1.383 . S
C501 C500 1.379 . S
H502 C496 0.959 . S
H503 C496 0.961 . S
H504 C496 0.960 . S
H505 C497 0.930 . S
H506 C498 0.929 . S
H507 C515 0.929 . S
H508 C517 0.930 . S
H509 C519 0.930 . S
H510 C522 0.929 . S
H511 C525 0.930 . S
H512 C527 0.960 . S
H513 C527 0.960 . S
H514 C527 0.960 . S
C515 H507 0.929 . S
C515 C516 1.377 . S
C515 C517 1.384 . S
C516 C515 1.377 . S
C516 C522 1.390 . S
C517 H508 0.930 . S
C517 C515 1.384 . S
C517 C518 1.372 . S
C518 C517 1.372 . S
C518 C519 1.400 . S
C518 C523 1.490 . S
C519 H509 0.930 . S
C519 C518 1.400 . S
C519 C522 1.386 . S
H520 C536 0.930 . S
H521 C537 0.931 . S
C522 H510 0.929 . S
C522 C516 1.390 . S
C522 C519 1.386 . S
C523 C518 1.490 . S
C523 C525 1.395 . S
C523 C526 1.403 . S
H524 C530 0.930 . S
C525 H511 0.930 . S
C525 C523 1.395 . S
C525 C528 1.403 . S
C526 C523 1.403 . S
C526 C527 1.524 . S
C526 C530 1.400 . S
C527 H512 0.960 . S
C527 H513 0.960 . S
C527 H514 0.960 . S
C527 C526 1.524 . S
C528 C525 1.403 . S
C528 C529 1.392 . S
C528 C532 1.495 . S
C529 C528 1.392 . S
C529 C530 1.385 . S
C529 C531 1.478 . S
C530 H524 0.930 . S
C530 C526 1.400 . S
C530 C529 1.385 . S
C531 C529 1.478 . S
C531 C533 1.381 . S
C531 C537 1.383 . S
C532 C528 1.495 . S
C532 H538 0.959 . S
C532 H539 0.961 . S
C532 H540 0.960 . S
C533 C531 1.381 . S
C533 C534 1.394 . S
C533 H541 0.930 . S
C534 C533 1.394 . S
C534 C535 1.383 . S
C534 H542 0.929 . S
C535 C534 1.383 . S
C535 C536 1.377 . S
C536 H520 0.930 . S
C536 C535 1.377 . S
C536 C537 1.379 . S
C537 H521 0.931 . S
C537 C531 1.383 . S
C537 C536 1.379 . S
H538 C532 0.959 . S
H539 C532 0.961 . S
H540 C532 0.960 . S
H541 C533 0.930 . S
H542 C534 0.929 . S
H543 C551 0.929 . S
H544 C553 0.930 . S
H545 C555 0.930 . S
H546 C558 0.929 . S
H547 C561 0.930 . S
H548 C563 0.960 . S
H549 C563 0.960 . S
H550 C563 0.960 . S
C551 H543 0.929 . S
C551 C552 1.377 . S
C551 C553 1.384 . S
C552 C551 1.377 . S
C552 C558 1.390 . S
C553 H544 0.930 . S
C553 C551 1.384 . S
C553 C554 1.372 . S
C554 C553 1.372 . S
C554 C555 1.400 . S
C554 C559 1.490 . S
C555 H545 0.930 . S
C555 C554 1.400 . S
C555 C558 1.386 . S
H556 C572 0.930 . S
H557 C573 0.931 . S
C558 H546 0.929 . S
C558 C552 1.390 . S
C558 C555 1.386 . S
C559 C554 1.490 . S
C559 C561 1.395 . S
C559 C562 1.403 . S
H560 C566 0.930 . S
C561 H547 0.930 . S
C561 C559 1.395 . S
C561 C564 1.403 . S
C562 C559 1.403 . S
C562 C563 1.524 . S
C562 C566 1.400 . S
C563 H548 0.960 . S
C563 H549 0.960 . S
C563 H550 0.960 . S
C563 C562 1.524 . S
C564 C561 1.403 . S
C564 C565 1.392 . S
C564 C568 1.495 . S
C565 C564 1.392 . S
C565 C566 1.385 . S
C565 C567 1.478 . S
C566 H560 0.930 . S
C566 C562 1.400 . S
C566 C565 1.385 . S
C567 C565 1.478 . S
C567 C569 1.381 . S
C567 C573 1.383 . S
C568 C564 1.495 . S
C568 H574 0.959 . S
C568 H575 0.961 . S
C568 H576 0.960 . S
C569 C567 1.381 . S
C569 C570 1.394 . S
C569 H577 0.930 . S
C570 C569 1.394 . S
C570 C571 1.383 . S
C570 H578 0.929 . S
C571 C570 1.383 . S
C571 C572 1.377 . S
C572 H556 0.930 . S
C572 C571 1.377 . S
C572 C573 1.379 . S
C573 H557 0.931 . S
C573 C567 1.383 . S
C573 C572 1.379 . S
H574 C568 0.959 . S
H575 C568 0.961 . S
H576 C568 0.960 . S
H577 C569 0.930 . S
H578 C570 0.929 . S
H579 C587 0.929 . S
H580 C589 0.930 . S
H581 C591 0.930 . S
H582 C594 0.938 . S
H583 C597 0.930 . S
H584 C599 0.960 1_655 S
H585 C599 0.960 . S
H586 C599 0.960 1_655 S
C587 H579 0.929 . S
C587 C588 1.377 . S
C587 C589 1.384 . S
C588 C587 1.377 . S
C588 C594 1.390 . S
C589 H580 0.930 . S
C589 C587 1.384 . S
C589 C590 1.372 . S
C590 C589 1.372 . S
C590 C591 1.400 . S
C590 C595 1.490 . S
C591 H581 0.930 . S
C591 C590 1.400 . S
C591 C594 1.386 . S
H592 C608 0.930 . S
H593 C609 0.931 . S
C594 H582 0.938 . S
C594 C588 1.390 . S
C594 C591 1.386 . S
C595 C590 1.490 . S
C595 C597 1.395 . S
C595 C598 1.403 . S
H596 C602 0.930 1_556 S
C597 H583 0.930 . S
C597 C595 1.395 . S
C597 C600 1.403 . S
C598 C595 1.403 . S
C598 C599 1.524 . S
C598 C602 1.400 . S
C599 H584 0.960 1_455 S
C599 H585 0.960 . S
C599 H586 0.960 1_455 S
C599 C598 1.524 . S
C600 C597 1.403 . S
C600 C601 1.398 . S
C600 C604 1.495 . S
C601 C600 1.398 . S
C601 C602 1.388 . S
C601 C603 1.468 1_554 S
C602 H596 0.930 1_554 S
C602 C598 1.400 . S
C602 C601 1.388 . S
C603 C601 1.468 1_556 S
C603 C605 1.381 . S
C603 C609 1.383 . S
C604 C600 1.495 . S
C604 H610 0.959 . S
C604 H611 0.961 . S
C604 H612 0.982 . S
C605 C603 1.381 . S
C605 C606 1.394 . S
C605 H613 0.930 . S
C606 C605 1.394 . S
C606 C607 1.383 . S
C606 H614 0.929 . S
C607 C606 1.383 . S
C607 C608 1.377 . S
C608 H592 0.930 . S
C608 C607 1.377 . S
C608 C609 1.379 . S
C609 H593 0.931 . S
C609 C603 1.383 . S
C609 C608 1.379 . S
H610 C604 0.959 . S
H611 C604 0.961 . S
H612 C604 0.982 . S
H613 C605 0.930 . S
H614 C606 0.929 . S
H615 C623 0.929 1_565 S
H616 C625 0.913 1_565 S
H617 C627 0.930 . S
H618 C630 0.929 . S
H619 C633 0.930 1_565 S
H620 C635 0.960 . S
H621 C635 0.960 . S
H622 C635 0.960 . S
C623 H615 0.929 1_545 S
C623 C624 1.377 . S
C623 C625 1.385 . S
C624 C623 1.377 . S
C624 C630 1.390 . S
C625 H616 0.913 1_545 S
C625 C623 1.385 . S
C625 C626 1.388 . S
C626 C625 1.388 . S
C626 C627 1.400 . S
C626 C631 1.490 . S
C627 H617 0.930 . S
C627 C626 1.400 . S
C627 C630 1.386 . S
H628 C644 0.930 . S
H629 C645 0.931 . S
C630 H618 0.929 . S
C630 C624 1.390 . S
C630 C627 1.386 . S
C631 C626 1.490 . S
C631 C633 1.395 . S
C631 C634 1.403 . S
H632 C638 0.930 . S
C633 H619 0.930 1_545 S
C633 C631 1.395 . S
C633 C636 1.405 . S
C634 C631 1.403 . S
C634 C635 1.524 . S
C634 C638 1.400 . S
C635 H620 0.960 . S
C635 H621 0.960 . S
C635 H622 0.960 . S
C635 C634 1.524 . S
C636 C633 1.405 . S
C636 C637 1.399 . S
C636 C640 1.489 1_545 S
C637 C636 1.399 . S
C637 C638 1.385 . S
C637 C639 1.478 . S
C638 H632 0.930 . S
C638 C634 1.400 . S
C638 C637 1.385 . S
C639 C637 1.478 . S
C639 C641 1.381 1_545 S
C639 C645 1.383 . S
C640 C636 1.489 1_565 S
C640 H646 0.959 . S
C640 H647 0.961 . S
C640 H648 0.960 . S
C641 C639 1.381 1_565 S
C641 C642 1.394 . S
C641 H649 0.930 . S
C642 C641 1.394 . S
C642 C643 1.383 1_565 S
C642 H650 0.929 . S
C643 C642 1.383 1_545 S
C643 C644 1.377 . S
C644 H628 0.930 . S
C644 C643 1.377 . S
C644 C645 1.379 . S
C645 H629 0.931 . S
C645 C639 1.383 . S
C645 C644 1.379 . S
H646 C640 0.959 . S
H647 C640 0.961 . S
H648 C640 0.960 . S
H649 C641 0.930 . S
H650 C642 0.929 . S
H651 C659 0.929 . S
H652 C661 0.930 . S
H653 C663 0.930 . S
H654 C666 0.929 . S
H655 C669 0.930 . S
H656 C671 0.960 . S
H657 C671 0.960 . S
H658 C671 0.960 . S
C659 H651 0.929 . S
C659 C660 1.377 . S
C659 C661 1.384 . S
C660 C659 1.377 . S
C660 C666 1.390 . S
C661 H652 0.930 . S
C661 C659 1.384 . S
C661 C662 1.372 . S
C662 C661 1.372 . S
C662 C663 1.400 . S
C662 C667 1.490 . S
C663 H653 0.930 . S
C663 C662 1.400 . S
C663 C666 1.386 . S
H664 C680 0.930 . S
H665 C681 0.931 . S
C666 H654 0.929 . S
C666 C660 1.390 . S
C666 C663 1.386 . S
C667 C662 1.490 . S
C667 C669 1.395 . S
C667 C670 1.403 . S
H668 C674 0.930 . S
C669 H655 0.930 . S
C669 C667 1.395 . S
C669 C672 1.403 . S
C670 C667 1.403 . S
C670 C671 1.524 . S
C670 C674 1.400 . S
C671 H656 0.960 . S
C671 H657 0.960 . S
C671 H658 0.960 . S
C671 C670 1.524 . S
C672 C669 1.403 . S
C672 C673 1.392 . S
C672 C676 1.495 . S
C673 C672 1.392 . S
C673 C674 1.385 . S
C673 C675 1.478 . S
C674 H668 0.930 . S
C674 C670 1.400 . S
C674 C673 1.385 . S
C675 C673 1.478 . S
C675 C677 1.381 . S
C675 C681 1.383 . S
C676 C672 1.495 . S
C676 H682 0.959 . S
C676 H683 0.961 . S
C676 H684 0.960 . S
C677 C675 1.381 . S
C677 C678 1.394 . S
C677 H685 0.930 . S
C678 C677 1.394 . S
C678 C679 1.383 . S
C678 H686 0.929 . S
C679 C678 1.383 . S
C679 C680 1.377 . S
C680 H664 0.930 . S
C680 C679 1.377 . S
C680 C681 1.379 . S
C681 H665 0.931 . S
C681 C675 1.383 . S
C681 C680 1.379 . S
H682 C676 0.959 . S
H683 C676 0.961 . S
H684 C676 0.960 . S
H685 C677 0.930 . S
H686 C678 0.929 . S
H687 C695 0.929 . S
H688 C697 0.930 . S
H689 C699 0.930 . S
H690 C702 0.929 . S
H691 C705 0.930 . S
H692 C707 0.960 . S
H693 C707 0.960 . S
H694 C707 0.960 . S
C695 H687 0.929 . S
C695 C696 1.377 . S
C695 C697 1.384 . S
C696 C695 1.377 . S
C696 C702 1.390 . S
C697 H688 0.930 . S
C697 C695 1.384 . S
C697 C698 1.372 . S
C698 C697 1.372 . S
C698 C699 1.400 . S
C698 C703 1.490 . S
C699 H689 0.930 . S
C699 C698 1.400 . S
C699 C702 1.386 . S
H700 C716 0.930 . S
H701 C717 0.931 . S
C702 H690 0.929 . S
C702 C696 1.390 . S
C702 C699 1.386 . S
C703 C698 1.490 . S
C703 C705 1.395 . S
C703 C706 1.403 . S
H704 C710 0.930 1_565 S
C705 H691 0.930 . S
C705 C703 1.395 . S
C705 C708 1.403 . S
C706 C703 1.403 . S
C706 C707 1.524 1_545 S
C706 C710 1.400 . S
C707 H692 0.960 . S
C707 H693 0.960 . S
C707 H694 0.960 . S
C707 C706 1.524 1_565 S
C708 C705 1.403 . S
C708 C709 1.392 . S
C708 C712 1.495 . S
C709 C708 1.392 . S
C709 C710 1.385 . S
C709 C711 1.478 . S
C710 H704 0.930 1_545 S
C710 C706 1.400 . S
C710 C709 1.385 . S
C711 C709 1.478 . S
C711 C713 1.381 . S
C711 C717 1.383 . S
C712 C708 1.495 . S
C712 H718 0.959 . S
C712 H719 0.961 . S
C712 H720 0.960 . S
C713 C711 1.381 . S
C713 C714 1.394 . S
C713 H721 0.930 . S
C714 C713 1.394 . S
C714 C715 1.383 . S
C714 H722 0.929 . S
C715 C714 1.383 . S
C715 C716 1.377 . S
C716 H700 0.930 . S
C716 C715 1.377 . S
C716 C717 1.379 . S
C717 H701 0.931 . S
C717 C711 1.383 . S
C717 C716 1.379 . S
H718 C712 0.959 . S
H719 C712 0.961 . S
H720 C712 0.960 . S
H721 C713 0.930 . S
H722 C714 0.929 . S
H723 C731 0.929 . S
H724 C733 0.930 . S
H725 C735 0.930 . S
H726 C738 0.929 . S
H727 C741 0.930 . S
H728 C743 0.960 . S
H729 C743 0.960 . S
H730 C743 0.960 . S
C731 H723 0.929 . S
C731 C732 1.377 . S
C731 C733 1.384 . S
C732 C731 1.377 . S
C732 C738 1.390 . S
C733 H724 0.930 . S
C733 C731 1.384 . S
C733 C734 1.372 . S
C734 C733 1.372 . S
C734 C735 1.400 . S
C734 C739 1.490 . S
C735 H725 0.930 . S
C735 C734 1.400 . S
C735 C738 1.386 . S
H736 C752 0.930 . S
H737 C753 0.931 . S
C738 H726 0.929 . S
C738 C732 1.390 . S
C738 C735 1.386 . S
C739 C734 1.490 . S
C739 C741 1.395 . S
C739 C742 1.403 . S
H740 C746 0.930 . S
C741 H727 0.930 . S
C741 C739 1.395 . S
C741 C744 1.403 . S
C742 C739 1.403 . S
C742 C743 1.524 . S
C742 C746 1.400 . S
C743 H728 0.960 . S
C743 H729 0.960 . S
C743 H730 0.960 . S
C743 C742 1.524 . S
C744 C741 1.403 . S
C744 C745 1.388 1_556 S
C744 C748 1.495 1_556 S
C745 C744 1.388 1_554 S
C745 C746 1.379 1_554 S
C745 C747 1.488 . S
C746 H740 0.930 . S
C746 C742 1.400 . S
C746 C745 1.379 1_556 S
C747 C745 1.488 . S
C747 C749 1.381 . S
C747 C753 1.383 . S
C748 C744 1.495 1_554 S
C748 H754 0.959 1_554 S
C748 H755 0.961 . S
C748 H756 0.960 . S
C749 C747 1.381 . S
C749 C750 1.394 . S
C749 H757 0.930 . S
C750 C749 1.394 . S
C750 C751 1.383 . S
C750 H758 0.929 . S
C751 C750 1.383 . S
C751 C752 1.377 . S
C752 H736 0.930 . S
C752 C751 1.377 . S
C752 C753 1.379 . S
C753 H737 0.931 . S
C753 C747 1.383 . S
C753 C752 1.379 . S
H754 C748 0.959 1_556 S
H755 C748 0.961 . S
H756 C748 0.960 . S
H757 C749 0.930 . S
H758 C750 0.929 . S
H759 C767 0.929 . S
H760 C769 0.930 . S
H761 C771 0.929 . S
H762 C774 0.929 1_655 S
H763 C777 0.930 . S
H764 C779 0.960 . S
H765 C779 0.960 . S
H766 C779 0.960 . S
C767 H759 0.929 . S
C767 C768 1.377 . S
C767 C769 1.384 . S
C768 C767 1.377 . S
C768 C774 1.390 . S
C769 H760 0.930 . S
C769 C767 1.384 . S
C769 C770 1.372 . S
C770 C769 1.372 . S
C770 C771 1.400 . S
C770 C775 1.490 . S
C771 H761 0.929 . S
C771 C770 1.400 . S
C771 C774 1.386 . S
H772 C788 0.930 . S
H773 C789 0.931 . S
C774 H762 0.929 1_455 S
C774 C768 1.390 . S
C774 C771 1.386 . S
C775 C770 1.490 . S
C775 C777 1.395 . S
C775 C778 1.403 . S
H776 C782 0.930 . S
C777 H763 0.930 . S
C777 C775 1.395 . S
C777 C780 1.403 . S
C778 C775 1.403 . S
C778 C779 1.524 . S
C778 C782 1.400 . S
C779 H764 0.960 . S
C779 H765 0.960 . S
C779 H766 0.960 . S
C779 C778 1.524 . S
C780 C777 1.403 . S
C780 C781 1.392 . S
C780 C784 1.495 . S
C781 C780 1.392 . S
C781 C782 1.385 . S
C781 C783 1.478 . S
C782 H776 0.930 . S
C782 C778 1.400 . S
C782 C781 1.385 . S
C783 C781 1.478 . S
C783 C785 1.381 . S
C783 C789 1.383 . S
C784 C780 1.495 . S
C784 H790 0.959 . S
C784 H791 0.961 . S
C784 H792 0.960 . S
C785 C783 1.381 . S
C785 C786 1.394 . S
C785 H793 0.930 . S
C786 C785 1.394 . S
C786 C787 1.383 . S
C786 H794 0.929 . S
C787 C786 1.383 . S
C787 C788 1.377 . S
C788 H772 0.930 . S
C788 C787 1.377 . S
C788 C789 1.379 . S
C789 H773 0.931 . S
C789 C783 1.383 . S
C789 C788 1.379 . S
H790 C784 0.959 . S
H791 C784 0.961 . S
H792 C784 0.960 . S
H793 C785 0.930 . S
H794 C786 0.929 . S
C156 C20 1.195 . S
C175 C138 1.111 . S
C192 C41 1.192 . S
C211 C116 1.194 . S
C228 C64 1.212 . S
C247 C129 1.196 . S
C264 C19 1.135 . S
C283 C142 1.167 . S
C319 C112 1.136 . S
C300 C44 1.241 . S
C355 C125 1.126 . S
C336 C67 1.236 . S
C372 C43 1.108 . S
C391 C90 1.131 . S
C408 C66 1.097 . S
C427 C103 1.139 . S
C444 C21 1.231 . S
C463 C73 1.194 . S
C499 C86 1.205 . S
C480 C42 1.216 . S
C535 C99 1.209 . S
C516 C65 1.215 . S
C552 C18 1.162 . S
C571 C77 1.139 . S
C607 C104 1.524 . S
C588 C17 1.520 . S
C624 C39 1.533 . S
C643 C78 1.537 . S
C660 C62 1.541 . S
C679 C91 1.530 . S
C715 C130 1.506 . S
C696 C40 1.517 . S
C751 C143 1.526 . S
C732 C63 1.545 . S
C768 C16 1.521 . S
C787 C117 1.522 . S
