# Generated by pormake.
# Topology nom, (4,4)-cn, num edge types: 1
# Building blocks:
#     Node 0, Type 0, BuildingBlock: MIFKUJ_clean_linker_1, # of connection points: 4
#     Node 1, Type 0, BuildingBlock: MIFKUJ_clean_linker_1, # of connection points: 4
#     Node 2, Type 0, BuildingBlock: MIFKUJ_clean_linker_1, # of connection points: 4
#     Node 3, Type 0, BuildingBlock: MIFKUJ_clean_linker_1, # of connection points: 4
#     Node 4, Type 0, BuildingBlock: MIFKUJ_clean_linker_1, # of connection points: 4
#     Node 5, Type 0, BuildingBlock: MIFKUJ_clean_linker_1, # of connection points: 4
#     Node 6, Type 1, BuildingBlock: AZAVOO_clean_sbu_0, # of connection points: 4
#     Node 7, Type 1, BuildingBlock: AZAVOO_clean_sbu_0, # of connection points: 4
#     Node 8, Type 1, BuildingBlock: AZAVOO_clean_sbu_0, # of connection points: 4
#     Node 9, Type 1, BuildingBlock: AZAVOO_clean_sbu_0, # of connection points: 4
#     Node 10, Type 1, BuildingBlock: AZAVOO_clean_sbu_0, # of connection points: 4
#     Node 11, Type 1, BuildingBlock: AZAVOO_clean_sbu_0, # of connection points: 4
#     Edge 12, Type (0, 1), BuildingBlock: TEMPAE_clean_linker_10, # of connection points: 2
#     Edge 13, Type (0, 1), BuildingBlock: TEMPAE_clean_linker_10, # of connection points: 2
#     Edge 14, Type (0, 1), BuildingBlock: TEMPAE_clean_linker_10, # of connection points: 2
#     Edge 15, Type (0, 1), BuildingBlock: TEMPAE_clean_linker_10, # of connection points: 2
#     Edge 16, Type (0, 1), BuildingBlock: TEMPAE_clean_linker_10, # of connection points: 2
#     Edge 17, Type (0, 1), BuildingBlock: TEMPAE_clean_linker_10, # of connection points: 2
#     Edge 18, Type (0, 1), BuildingBlock: TEMPAE_clean_linker_10, # of connection points: 2
#     Edge 19, Type (0, 1), BuildingBlock: TEMPAE_clean_linker_10, # of connection points: 2
#     Edge 20, Type (0, 1), BuildingBlock: TEMPAE_clean_linker_10, # of connection points: 2
#     Edge 21, Type (0, 1), BuildingBlock: TEMPAE_clean_linker_10, # of connection points: 2
#     Edge 22, Type (0, 1), BuildingBlock: TEMPAE_clean_linker_10, # of connection points: 2
#     Edge 23, Type (0, 1), BuildingBlock: TEMPAE_clean_linker_10, # of connection points: 2
#     Edge 24, Type (0, 1), BuildingBlock: TEMPAE_clean_linker_10, # of connection points: 2
#     Edge 25, Type (0, 1), BuildingBlock: TEMPAE_clean_linker_10, # of connection points: 2
#     Edge 26, Type (0, 1), BuildingBlock: TEMPAE_clean_linker_10, # of connection points: 2
#     Edge 27, Type (0, 1), BuildingBlock: TEMPAE_clean_linker_10, # of connection points: 2
#     Edge 28, Type (0, 1), BuildingBlock: TEMPAE_clean_linker_10, # of connection points: 2
#     Edge 29, Type (0, 1), BuildingBlock: TEMPAE_clean_linker_10, # of connection points: 2
#     Edge 30, Type (0, 1), BuildingBlock: TEMPAE_clean_linker_10, # of connection points: 2
#     Edge 31, Type (0, 1), BuildingBlock: TEMPAE_clean_linker_10, # of connection points: 2
#     Edge 32, Type (0, 1), BuildingBlock: TEMPAE_clean_linker_10, # of connection points: 2
#     Edge 33, Type (0, 1), BuildingBlock: TEMPAE_clean_linker_10, # of connection points: 2
#     Edge 34, Type (0, 1), BuildingBlock: TEMPAE_clean_linker_10, # of connection points: 2
#     Edge 35, Type (0, 1), BuildingBlock: TEMPAE_clean_linker_10, # of connection points: 2
# Relax obj value: 0.035
# Max RMSD: 0.156
# Mean RMSD: 0.123
data_MOF--net-nom--node1-AZAVOO_clean_sbu_0--node2-MIFKUJ_clean_linker_1--edge1-TEMPAE_clean_linker_10
_symmetry_space_group_name_H-M    P1
_symmetry_Int_Tables_number       1
_symmetry_cell_setting            triclinic
loop_
_symmetry_equiv_pos_as_xyz
'x, y, z'
_cell_length_a     53.859783
_cell_length_b     54.378083
_cell_length_c     55.228515
_cell_angle_alpha  91.072571
_cell_angle_beta   91.044627
_cell_angle_gamma 119.98719
loop_
_atom_site_label
_atom_site_type_symbol
_atom_site_fract_x
_atom_site_fract_y
_atom_site_fract_z
_atom_type_partial_charge
H0 H 0.96495 0.43876 0.28282 0.0
H1 H 0.92888 0.42252 0.24953 0.0
H2 H 0.90517 0.48405 0.27278 0.0
H3 H 0.94105 0.49997 0.30621 0.0
H4 H 0.01236 0.49992 0.29245 0.0
H5 H 0.92657 0.42279 0.32943 0.0
H6 H 0.87569 0.40192 0.33839 0.0
H7 H 0.89461 0.47877 0.37834 0.0
H8 H 0.94522 0.49933 0.36946 0.0
H9 H 0.02531 0.53854 0.39207 0.0
H10 H 0.06184 0.55761 0.42478 0.0
H11 H 0.10104 0.51196 0.39408 0.0
H12 H 0.06502 0.49387 0.361 0.0
H13 H 0.98551 0.48446 0.37865 0.0
H14 H 0.05735 0.56405 0.34264 0.0
H15 H 0.10545 0.59961 0.33145 0.0
H16 H 0.1131 0.53529 0.29045 0.0
H17 H 0.06433 0.49979 0.30136 0.0
C18 C 0.95557 0.47048 0.29695 0.0
C19 C 0.9519 0.44865 0.28076 0.0
C20 C 0.9312 0.43929 0.2619 0.0
C21 C 0.91421 0.452 0.25865 0.0
C22 C 0.91804 0.47397 0.27484 0.0
C23 C 0.93844 0.48302 0.29392 0.0
C24 C 0.97748 0.48036 0.31694 0.0
C25 C 0.00654 0.49588 0.31126 0.0
C26 C 0.96984 0.47662 0.34152 0.0
C27 C 0.93955 0.4627 0.34857 0.0
C28 C 0.91971 0.43501 0.34024 0.0
C29 C 0.89071 0.42314 0.34537 0.0
C30 C 0.88117 0.43874 0.35902 0.0
C31 C 0.90132 0.46605 0.36809 0.0
C32 C 0.93024 0.47788 0.36294 0.0
C33 C 0.04246 0.51481 0.37412 0.0
C34 C 0.0418 0.53267 0.39244 0.0
C35 C 0.06267 0.54347 0.41117 0.0
C36 C 0.08443 0.5363 0.41217 0.0
C37 C 0.08497 0.51836 0.39373 0.0
C38 C 0.06426 0.50782 0.37486 0.0
C39 C 0.0204 0.50347 0.35416 0.0
C40 C 0.9914 0.48779 0.35982 0.0
C41 C 0.02797 0.50828 0.32963 0.0
C42 C 0.05747 0.52927 0.32303 0.0
C43 C 0.0695 0.55756 0.33142 0.0
C44 C 0.09706 0.57784 0.32509 0.0
C45 C 0.11324 0.57026 0.31022 0.0
C46 C 0.1011 0.54185 0.30177 0.0
C47 C 0.07334 0.52154 0.30803 0.0
H48 H 0.44465 0.95865 0.53393 0.0
H49 H 0.41245 0.90857 0.54155 0.0
H50 H 0.46741 0.88651 0.50196 0.0
H51 H 0.49992 0.93696 0.49458 0.0
H52 H 0.50073 0.99598 0.54456 0.0
H53 H 0.44116 0.94714 0.47248 0.0
H54 H 0.42455 0.91137 0.43927 0.0
H55 H 0.51006 0.95187 0.41174 0.0
H56 H 0.52701 0.98675 0.44558 0.0
H57 H 0.56399 0.07205 0.46593 0.0
H58 H 0.57845 0.12001 0.45276 0.0
H59 H 0.51629 0.12256 0.49957 0.0
H60 H 0.50206 0.07485 0.51266 0.0
H61 H 0.51321 0.0257 0.45919 0.0
H62 H 0.57435 0.07234 0.52807 0.0
H63 H 0.59597 0.10666 0.56198 0.0
H64 H 0.51261 0.07274 0.59346 0.0
H65 H 0.4914 0.03786 0.55986 0.0
C66 C 0.47454 0.95151 0.51353 0.0
C67 C 0.45006 0.94311 0.52724 0.0
C68 C 0.43166 0.91448 0.53155 0.0
C69 C 0.43737 0.89365 0.52223 0.0
C70 C 0.46233 0.90212 0.50908 0.0
C71 C 0.48094 0.93088 0.50495 0.0
C72 C 0.49204 0.98168 0.5071 0.0
C73 C 0.5034 0.00248 0.52589 0.0
C74 C 0.4964 0.99012 0.48269 0.0
C75 C 0.48551 0.9693 0.46187 0.0
C76 C 0.45645 0.94812 0.45952 0.0
C77 C 0.44693 0.92777 0.44053 0.0
C78 C 0.46611 0.92887 0.42313 0.0
C79 C 0.4949 0.95063 0.42497 0.0
C80 C 0.50454 0.97056 0.44423 0.0
C81 C 0.53214 0.06996 0.49042 0.0
C82 C 0.55375 0.08311 0.47354 0.0
C83 C 0.56191 0.11044 0.46599 0.0
C84 C 0.54846 0.12503 0.4751 0.0
C85 C 0.52738 0.11209 0.4925 0.0
C86 C 0.51923 0.08479 0.5 0.0
C87 C 0.52128 0.03995 0.49666 0.0
C88 C 0.51103 0.01919 0.47784 0.0
C89 C 0.51835 0.0315 0.52097 0.0
C90 C 0.53127 0.05258 0.54143 0.0
C91 C 0.56075 0.07238 0.54227 0.0
C92 C 0.57305 0.0921 0.56163 0.0
C93 C 0.55607 0.09255 0.58051 0.0
C94 C 0.52646 0.07274 0.57949 0.0
C95 C 0.51424 0.05283 0.56024 0.0
H96 H 0.55485 0.56727 0.68092 0.0
H97 H 0.53912 0.58465 0.71528 0.0
H98 H 0.45165 0.53639 0.68771 0.0
H99 H 0.46722 0.51819 0.65387 0.0
H100 H 0.54128 0.51426 0.66803 0.0
H101 H 0.52268 0.58613 0.63082 0.0
H102 H 0.48911 0.60303 0.62147 0.0
H103 H 0.43315 0.52371 0.5828 0.0
H104 H 0.46645 0.50699 0.59222 0.0
H105 H 0.50743 0.47762 0.56644 0.0
H106 H 0.52194 0.46039 0.53173 0.0
H107 H 0.60573 0.49164 0.56593 0.0
H108 H 0.59191 0.5114 0.59954 0.0
H109 H 0.5207 0.52496 0.58227 0.0
H110 H 0.52291 0.44845 0.61875 0.0
H111 H 0.53862 0.4162 0.63367 0.0
H112 H 0.60748 0.48568 0.67528 0.0
H113 H 0.59203 0.51798 0.65989 0.0
C114 C 0.51233 0.54187 0.66451 0.0
C115 C 0.53226 0.56034 0.6823 0.0
C116 C 0.52329 0.57022 0.70192 0.0
C117 C 0.49423 0.56198 0.70401 0.0
C118 C 0.47424 0.54335 0.68632 0.0
C119 C 0.48315 0.53308 0.66693 0.0
C120 C 0.52213 0.5312 0.64394 0.0
C121 C 0.53728 0.51706 0.64924 0.0
C122 C 0.51551 0.53343 0.61944 0.0
C123 C 0.49693 0.5452 0.61239 0.0
C124 C 0.50324 0.5725 0.62022 0.0
C125 C 0.48408 0.5821 0.61489 0.0
C126 C 0.45852 0.56468 0.60139 0.0
C127 C 0.45284 0.5378 0.59291 0.0
C128 C 0.47184 0.52819 0.59834 0.0
C129 C 0.54846 0.49577 0.58581 0.0
C130 C 0.52905 0.48105 0.56641 0.0
C131 C 0.53729 0.47074 0.54664 0.0
C132 C 0.56502 0.47433 0.54593 0.0
C133 C 0.58433 0.48874 0.56557 0.0
C134 C 0.57627 0.49967 0.5851 0.0
C135 C 0.53972 0.50771 0.6063 0.0
C136 C 0.52509 0.52238 0.60102 0.0
C137 C 0.54527 0.50447 0.63083 0.0
C138 C 0.55645 0.48565 0.63808 0.0
C139 C 0.54174 0.45685 0.63069 0.0
C140 C 0.55057 0.43841 0.63938 0.0
C141 C 0.57422 0.44842 0.65568 0.0
C142 C 0.58939 0.47743 0.66253 0.0
C143 C 0.58048 0.49585 0.65389 0.0
H144 H 0.03304 0.58544 0.77894 0.0
H145 H 0.06434 0.5976 0.74425 0.0
H146 H 0.10177 0.55005 0.7737 0.0
H147 H 0.06986 0.53719 0.80798 0.0
H148 H 0.99273 0.53347 0.79314 0.0
H149 H 0.08635 0.60912 0.82807 0.0
H150 H 0.13727 0.6258 0.83671 0.0
H151 H 0.11372 0.55145 0.87874 0.0
H152 H 0.06323 0.53496 0.87004 0.0
H153 H 0.99083 0.50701 0.89451 0.0
H154 H 0.95861 0.4931 0.92842 0.0
H155 H 0.91448 0.53272 0.89561 0.0
H156 H 0.94673 0.54639 0.86152 0.0
H157 H 0.02831 0.55529 0.87866 0.0
H158 H 0.94594 0.47661 0.84804 0.0
H159 H 0.89729 0.44178 0.83437 0.0
H160 H 0.8982 0.50058 0.78246 0.0
H161 H 0.94683 0.53599 0.79675 0.0
C162 C 0.04949 0.56087 0.79629 0.0
C163 C 0.04794 0.57758 0.7779 0.0
C164 C 0.06574 0.58445 0.7581 0.0
C165 C 0.08551 0.57486 0.75643 0.0
C166 C 0.08695 0.558 0.77476 0.0
C167 C 0.06883 0.55076 0.79437 0.0
C168 C 0.03007 0.55329 0.81696 0.0
C169 C 0.00042 0.53886 0.81186 0.0
C170 C 0.04023 0.55864 0.8414 0.0
C171 C 0.071 0.57066 0.84822 0.0
C172 C 0.09222 0.59656 0.83927 0.0
C173 C 0.12126 0.60604 0.84419 0.0
C174 C 0.1295 0.58992 0.85839 0.0
C175 C 0.10812 0.56458 0.86805 0.0
C176 C 0.07921 0.55508 0.86304 0.0
C177 C 0.97113 0.52765 0.87542 0.0
C178 C 0.97434 0.51288 0.89468 0.0
C179 C 0.95597 0.50504 0.91412 0.0
C180 C 0.93406 0.51191 0.91477 0.0
C181 C 0.93097 0.52686 0.89551 0.0
C182 C 0.94937 0.53469 0.87604 0.0
C183 C 0.9908 0.53589 0.85486 0.0
C184 C 0.02046 0.55049 0.85996 0.0
C185 C 0.98061 0.52916 0.83046 0.0
C186 C 0.94996 0.50922 0.82378 0.0
C187 C 0.93545 0.48247 0.83427 0.0
C188 C 0.90767 0.46246 0.82633 0.0
C189 C 0.89401 0.46853 0.80739 0.0
C190 C 0.90834 0.49535 0.79702 0.0
C191 C 0.93604 0.51557 0.80522 0.0
H192 H 0.56064 0.07511 0.98564 0.0
H193 H 0.59332 0.12464 0.99781 0.0
H194 H 0.53082 0.12222 0.04702 0.0
H195 H 0.49767 0.07272 0.03428 0.0
H196 H 0.5024 0.02887 0.0404 0.0
H197 H 0.5321 0.02895 0.94013 0.0
H198 H 0.54632 0.06038 0.90581 0.0
H199 H 0.5017 0.10116 0.93533 0.0
H200 H 0.48789 0.06988 0.96982 0.0
H201 H 0.43249 0.94495 0.96368 0.0
H202 H 0.41805 0.89647 0.94983 0.0
H203 H 0.48481 0.89832 0.99572 0.0
H204 H 0.49948 0.94693 0.00918 0.0
H205 H 0.48255 0.99061 0.95569 0.0
H206 H 0.42868 0.94866 0.02509 0.0
H207 H 0.41112 0.91922 0.06061 0.0
H208 H 0.49686 0.96237 0.09267 0.0
H209 H 0.51424 0.99186 0.05719 0.0
C210 C 0.52645 0.07023 0.00874 0.0
C211 C 0.55357 0.08538 0.99855 0.0
C212 C 0.57232 0.11366 0.00561 0.0
C213 C 0.56456 0.12722 0.02335 0.0
C214 C 0.53737 0.11218 0.03342 0.0
C215 C 0.51844 0.08397 0.02611 0.0
C216 C 0.5076 0.03946 0.00276 0.0
C217 C 0.49789 0.02055 0.02185 0.0
C218 C 0.50108 0.02848 0.9786 0.0
C219 C 0.50912 0.04723 0.9576 0.0
C220 C 0.52524 0.04455 0.93912 0.0
C221 C 0.53324 0.06245 0.91947 0.0
C222 C 0.52513 0.08326 0.91785 0.0
C223 C 0.50862 0.08561 0.93623 0.0
C224 C 0.50068 0.06774 0.95592 0.0
C225 C 0.46698 0.94953 0.98752 0.0
C226 C 0.44373 0.93474 0.97102 0.0
C227 C 0.4354 0.907 0.96323 0.0
C228 C 0.45039 0.89366 0.97164 0.0
C229 C 0.47303 0.90816 0.9888 0.0
C230 C 0.48124 0.93583 0.99667 0.0
C231 C 0.47826 0.98011 0.99336 0.0
C232 C 0.48666 -0.00103 0.97423 0.0
C233 C 0.48316 0.99105 0.01747 0.0
C234 C 0.47279 0.97231 0.03844 0.0
C235 C 0.44373 0.95156 0.03966 0.0
C236 C 0.43373 0.9348 0.05998 0.0
C237 C 0.45261 0.93858 0.07946 0.0
C238 C 0.48172 0.9593 0.07812 0.0
C239 C 0.4917 0.97604 0.05782 0.0
H240 H 0.44712 0.44042 0.17695 0.0
H241 H 0.45716 0.41723 0.21041 0.0
H242 H 0.54432 0.48713 0.21617 0.0
H243 H 0.53426 0.51005 0.18252 0.0
H244 H 0.45803 0.50083 0.17824 0.0
H245 H 0.49149 0.44042 0.14068 0.0
H246 H 0.52901 0.42766 0.13764 0.0
H247 H 0.58824 0.51221 0.11458 0.0
H248 H 0.55102 0.52517 0.11834 0.0
H249 H 0.50795 0.55659 0.08752 0.0
H250 H 0.49509 0.57483 0.05223 0.0
H251 H 0.4053 0.52128 0.06698 0.0
H252 H 0.41835 0.50357 0.10248 0.0
H253 H 0.49915 0.50686 0.09749 0.0
H254 H 0.48004 0.57166 0.13326 0.0
H255 H 0.46267 0.60172 0.1502 0.0
H256 H 0.39532 0.52956 0.18532 0.0
H257 H 0.41204 0.49901 0.16747 0.0
C258 C 0.49004 0.47675 0.17726 0.0
C259 C 0.46833 0.45074 0.18553 0.0
C260 C 0.47407 0.43754 0.20452 0.0
C261 C 0.50145 0.45049 0.21581 0.0
C262 C 0.52297 0.47689 0.20787 0.0
C263 C 0.51733 0.48988 0.18864 0.0
C264 C 0.48405 0.49006 0.15661 0.0
C265 C 0.46626 0.50157 0.16032 0.0
C266 C 0.49694 0.49286 0.134 0.0
C267 C 0.51853 0.48391 0.13008 0.0
C268 C 0.51259 0.45628 0.13513 0.0
C269 C 0.53401 0.449 0.13339 0.0
C270 C 0.56155 0.46902 0.12603 0.0
C271 C 0.56716 0.49633 0.12019 0.0
C272 C 0.54588 0.50371 0.12226 0.0
C273 C 0.46414 0.52873 0.09771 0.0
C274 C 0.4855 0.54881 0.08316 0.0
C275 C 0.4781 0.55917 0.06294 0.0
C276 C 0.44914 0.54948 0.05668 0.0
C277 C 0.42781 0.52956 0.07144 0.0
C278 C 0.43524 0.51933 0.09173 0.0
C279 C 0.4719 0.5169 0.11868 0.0
C280 C 0.49017 0.5057 0.11514 0.0
C281 C 0.46084 0.51593 0.14195 0.0
C282 C 0.44719 0.53289 0.14878 0.0
C283 C 0.46083 0.56193 0.14375 0.0
C284 C 0.45103 0.5792 0.15362 0.0
C285 C 0.42776 0.56793 0.16913 0.0
C286 C 0.41344 0.53874 0.17353 0.0
C287 C 0.42295 0.52133 0.1633 0.0
Mg288 Mg 0.60852 0.35207 0.35996 0.0
O289 O 0.60828 0.38172 0.38985 0.0
O290 O 0.62513 0.42493 0.37479 0.0
Mg291 Mg 0.63871 0.42334 0.33601 0.0
C292 C 0.61473 0.40768 0.39206 0.0
C293 C 0.57608 0.30114 0.39511 0.0
O294 O 0.55358 0.30243 0.3873 0.0
O295 O 0.65638 0.37122 0.36582 0.0
O296 O 0.67372 0.41412 0.35012 0.0
O297 O 0.56552 0.34362 0.34584 0.0
O298 O 0.60715 0.37775 0.3335 0.0
C299 C 0.6774 0.39521 0.36033 0.0
C300 C 0.57965 0.36541 0.33249 0.0
O301 O 0.60068 0.31877 0.38759 0.0
Mg302 Mg 0.26841 0.64328 0.5964 0.0
O303 O 0.23761 0.61963 0.56398 0.0
O304 O 0.21179 0.57408 0.57381 0.0
Mg305 Mg 0.22388 0.56932 0.61271 0.0
C306 C 0.21841 0.59392 0.55886 0.0
C307 C 0.28873 0.69522 0.56171 0.0
O308 O 0.26155 0.68811 0.5618 0.0
O309 O 0.29509 0.62288 0.58797 0.0
O310 O 0.26875 0.57888 0.60119 0.0
O311 O 0.23681 0.65343 0.6124 0.0
O312 O 0.23892 0.61475 0.61991 0.0
C313 C 0.29176 0.59848 0.59229 0.0
C314 C 0.22638 0.62941 0.62311 0.0
O315 O 0.297 0.68058 0.57339 0.0
Mg316 Mg 0.63373 0.27224 0.76418 0.0
O317 O 0.62979 0.24286 0.73225 0.0
O318 O 0.65136 0.21868 0.74334 0.0
Mg319 Mg 0.66738 0.2314 0.78281 0.0
C320 C 0.63758 0.22465 0.72769 0.0
C321 C 0.62386 0.32029 0.74845 0.0
O322 O 0.63137 0.32667 0.77149 0.0
O323 O 0.68109 0.30162 0.7584 0.0
O324 O 0.70085 0.27694 0.77259 0.0
O325 O 0.59234 0.2384 0.77797 0.0
O326 O 0.63473 0.24406 0.78845 0.0
C327 C 0.70307 0.29956 0.76389 0.0
C328 C 0.60724 0.22963 0.7899 0.0
O329 O 0.62237 0.29802 0.73922 0.0
Mg330 Mg 0.39696 0.65531 0.86385 0.0
O331 O 0.40076 0.63073 0.89577 0.0
O332 O 0.37752 0.58471 0.88469 0.0
Mg333 Mg 0.36098 0.58015 0.8454 0.0
C334 C 0.392 0.60475 0.90032 0.0
C335 C 0.40792 0.71433 0.87957 0.0
O336 O 0.40006 0.71226 0.85661 0.0
O337 O 0.34997 0.63895 0.87093 0.0
O338 O 0.32871 0.59405 0.8568 0.0
O339 O 0.43752 0.66087 0.84849 0.0
O340 O 0.39452 0.62445 0.83945 0.0
C341 C 0.32744 0.61517 0.8659 0.0
C342 C 0.42184 0.63681 0.8369 0.0
O343 O 0.40954 0.69389 0.88872 0.0
Mg344 Mg 0.7435 0.39349 0.06709 0.0
O345 O 0.77246 0.3981 0.10034 0.0
O346 O 0.80082 0.38155 0.08791 0.0
Mg347 Mg 0.79065 0.3668 0.04815 0.0
C348 C 0.79263 0.39256 0.10431 0.0
C349 C 0.71892 0.42389 0.10038 0.0
O350 O 0.74549 0.44503 0.10018 0.0
O351 O 0.71681 0.34576 0.07108 0.0
O352 O 0.74555 0.3305 0.05702 0.0
O353 O 0.77595 0.43641 0.05446 0.0
O354 O 0.77452 0.39645 0.0437 0.0
C355 C 0.72152 0.32568 0.0652 0.0
C356 C 0.78699 0.42365 0.04254 0.0
O357 O 0.71259 0.40039 0.0899 0.0
Mg358 Mg 0.36507 0.75428 0.23516 0.0
O359 O 0.38742 0.78019 0.27 0.0
O360 O 0.43446 0.80438 0.26355 0.0
Mg361 Mg 0.44162 0.7964 0.2241 0.0
C362 C 0.41322 0.79732 0.27724 0.0
C363 C 0.30239 0.72659 0.25343 0.0
O364 O 0.30228 0.7463 0.2401 0.0
O365 O 0.38191 0.72405 0.24095 0.0
O366 O 0.42767 0.7496 0.23068 0.0
O367 O 0.35952 0.78977 0.22191 0.0
O368 O 0.39698 0.78479 0.21463 0.0
C369 C 0.40616 0.72624 0.2369 0.0
C370 C 0.38434 0.79943 0.2123 0.0
O371 O 0.32522 0.72533 0.25558 0.0
C372 C 0.15101 0.59279 0.27923 0.0
C373 C 0.14231 0.59226 0.30308 0.0
C374 C 0.17771 0.6145 0.2719 0.0
C375 C 0.196 0.63631 0.28878 0.0
C376 C 0.18761 0.63564 0.31298 0.0
C377 C 0.16094 0.61352 0.31988 0.0
C378 C 0.18609 0.61439 0.24596 0.0
C379 C 0.20656 0.65857 0.33148 0.0
C380 C 0.27462 0.68055 0.27419 0.0
C381 C 0.27561 0.70444 0.26395 0.0
C382 C 0.2489 0.65833 0.2826 0.0
C383 C 0.22366 0.66018 0.28092 0.0
C384 C 0.22466 0.68456 0.27121 0.0
C385 C 0.25063 0.70637 0.26274 0.0
C386 C 0.2486 0.63257 0.29272 0.0
C387 C 0.19819 0.68739 0.26939 0.0
H388 H 0.13663 0.57666 0.26607 0.0
H389 H 0.15459 0.61297 0.33846 0.0
H390 H 0.18843 0.63346 0.23694 0.0
H391 H 0.20716 0.6154 0.24543 0.0
H392 H 0.17003 0.59519 0.23541 0.0
H393 H 0.1971 0.65463 0.34968 0.0
H394 H 0.22784 0.66007 0.33302 0.0
H395 H 0.21019 0.67946 0.32552 0.0
H396 H 0.29382 0.67884 0.27514 0.0
H397 H 0.25126 0.72481 0.25494 0.0
H398 H 0.23412 0.61344 0.28134 0.0
H399 H 0.24011 0.62881 0.31125 0.0
H400 H 0.27027 0.63482 0.29345 0.0
H401 H 0.18179 0.67023 0.25726 0.0
H402 H 0.20282 0.70819 0.26228 0.0
H403 H 0.1887 0.68495 0.28747 0.0
C404 C 0.55713 0.15677 0.44029 0.0
C405 C 0.55489 0.15278 0.46533 0.0
C406 C 0.56126 0.18208 0.43048 0.0
C407 C 0.56316 0.20395 0.44608 0.0
C408 C 0.56143 0.2003 0.47142 0.0
C409 C 0.55729 0.17472 0.48075 0.0
C410 C 0.563 0.18517 0.40334 0.0
C411 C 0.56357 0.22325 0.4886 0.0
C412 C 0.59698 0.27668 0.41876 0.0
C413 C 0.57274 0.27777 0.41055 0.0
C414 C 0.5942 0.25327 0.43127 0.0
C415 C 0.56651 0.23038 0.43564 0.0
C416 C 0.54197 0.23189 0.42836 0.0
C417 C 0.54538 0.25561 0.41593 0.0
C418 C 0.62088 0.25251 0.43888 0.0
C419 C 0.51208 0.2079 0.4328 0.0
H420 H 0.55483 0.13974 0.42824 0.0
H421 H 0.55585 0.17184 0.50015 0.0
H422 H 0.54519 0.18805 0.39635 0.0
H423 H 0.58337 0.20435 0.39878 0.0
H424 H 0.56179 0.16643 0.39378 0.0
H425 H 0.56265 0.21741 0.50787 0.0
H426 H 0.58392 0.24336 0.48604 0.0
H427 H 0.54577 0.22744 0.48461 0.0
H428 H 0.61824 0.29382 0.41487 0.0
H429 H 0.52654 0.25633 0.40975 0.0
H430 H 0.622 0.2356 0.42825 0.0
H431 H 0.62014 0.2473 0.45827 0.0
H432 H 0.64076 0.27304 0.43608 0.0
H433 H 0.50799 0.1887 0.42207 0.0
H434 H 0.49535 0.21328 0.4277 0.0
H435 H 0.50995 0.20237 0.45217 0.0
C436 C 0.4223 0.56816 0.57479 0.0
C437 C 0.43682 0.57349 0.59732 0.0
C438 C 0.39942 0.57331 0.57152 0.0
C439 C 0.39091 0.58402 0.59127 0.0
C440 C 0.40623 0.59052 0.61378 0.0
C441 C 0.42902 0.58517 0.61653 0.0
C442 C 0.38373 0.56631 0.54721 0.0
C443 C 0.3978 0.60203 0.63527 0.0
C444 C 0.34298 0.61594 0.58211 0.0
C445 C 0.31632 0.59369 0.58909 0.0
C446 C 0.36732 0.61284 0.58198 0.0
C447 C 0.36494 0.58686 0.58894 0.0
C448 C 0.3379 0.56392 0.59493 0.0
C449 C 0.31392 0.5676 0.59492 0.0
C450 C 0.39578 0.63772 0.57536 0.0
C451 C 0.33449 0.53579 0.60226 0.0
H452 H 0.42852 0.55946 0.5598 0.0
H453 H 0.43995 0.58902 0.63406 0.0
H454 H 0.36149 0.54847 0.54896 0.0
H455 H 0.38223 0.58477 0.54085 0.0
H456 H 0.39439 0.56019 0.53322 0.0
H457 H 0.41298 0.60759 0.65103 0.0
H458 H 0.39687 0.62122 0.63027 0.0
H459 H 0.37606 0.58594 0.64087 0.0
H460 H 0.3451 0.63618 0.57749 0.0
H461 H 0.29345 0.55022 0.60021 0.0
H462 H 0.40597 0.63108 0.56137 0.0
H463 H 0.41051 0.64547 0.59154 0.0
H464 H 0.39359 0.65561 0.56845 0.0
H465 H 0.34318 0.52753 0.58825 0.0
H466 H 0.31173 0.51958 0.60501 0.0
H467 H 0.34693 0.53877 0.61938 0.0
C468 C 0.84361 0.43041 0.8139 0.0
C469 C 0.86542 0.44628 0.79788 0.0
C470 C 0.81723 0.40769 0.80542 0.0
C471 C 0.81266 0.4005 0.78031 0.0
C472 C 0.83433 0.41692 0.76395 0.0
C473 C 0.86047 0.43975 0.77294 0.0
C474 C 0.7945 0.39093 0.82343 0.0
C475 C 0.83032 0.40977 0.73711 0.0
C476 C 0.75658 0.32339 0.76785 0.0
C477 C 0.73188 0.3253 0.76335 0.0
C478 C 0.78344 0.34788 0.77189 0.0
C479 C 0.78562 0.37492 0.7716 0.0
C480 C 0.76118 0.37709 0.76545 0.0
C481 C 0.73461 0.35224 0.76128 0.0
C482 C 0.80913 0.34471 0.77796 0.0
C483 C 0.76265 0.40554 0.76492 0.0
H484 H 0.84733 0.43564 0.83315 0.0
H485 H 0.87744 0.45185 0.76055 0.0
H486 H 0.77409 0.39003 0.81811 0.0
H487 H 0.79028 0.36877 0.8235 0.0
H488 H 0.80087 0.40022 0.84214 0.0
H489 H 0.84834 0.4259 0.72664 0.0
H490 H 0.8287 0.38883 0.73375 0.0
H491 H 0.81002 0.40802 0.73016 0.0
H492 H 0.75477 0.3027 0.76921 0.0
H493 H 0.7157 0.354 0.75775 0.0
H494 H 0.81553 0.35067 0.79735 0.0
H495 H 0.82765 0.35921 0.76709 0.0
H496 H 0.80462 0.32261 0.77468 0.0
H497 H 0.7658 0.4145 0.78368 0.0
H498 H 0.74278 0.40386 0.75688 0.0
H499 H 0.7812 0.42077 0.75445 0.0
C500 C 0.4154 0.84365 0.95752 0.0
C501 C 0.44385 0.86566 0.9611 0.0
C502 C 0.40903 0.81791 0.94581 0.0
C503 C 0.43166 0.81426 0.93727 0.0
C504 C 0.46044 0.83613 0.94139 0.0
C505 C 0.46618 0.86153 0.95331 0.0
C506 C 0.37808 0.79493 0.942 0.0
C507 C 0.48515 0.83317 0.93237 0.0
C508 C 0.41809 0.74045 0.91973 0.0
C509 C 0.41413 0.73982 0.89449 0.0
C510 C 0.42349 0.76441 0.93397 0.0
C511 C 0.42524 0.78836 0.92266 0.0
C512 C 0.42135 0.78786 0.8972 0.0
C513 C 0.41573 0.76357 0.88345 0.0
C514 C 0.42729 0.7641 0.96109 0.0
C515 C 0.42331 0.81307 0.88444 0.0
H516 H 0.3981 0.84667 0.96372 0.0
H517 H 0.48819 0.87861 0.95573 0.0
H518 H 0.37235 0.79167 0.92235 0.0
H519 H 0.37488 0.7745 0.94879 0.0
H520 H 0.36316 0.80025 0.95128 0.0
H521 H 0.5063 0.85146 0.93826 0.0
H522 H 0.48374 0.8134 0.93899 0.0
H523 H 0.48403 0.83156 0.91227 0.0
H524 H 0.41673 0.72212 0.92841 0.0
H525 H 0.41275 0.76329 0.86397 0.0
H526 H 0.41139 0.76801 0.97032 0.0
H527 H 0.4489 0.78145 0.96707 0.0
H528 H 0.42473 0.74361 0.96714 0.0
H529 H 0.40715 0.8181 0.89149 0.0
H530 H 0.41979 0.80928 0.86451 0.0
H531 H 0.44474 0.83204 0.88812 0.0
C532 C 0.60105 0.46806 0.10378 0.0
C533 C 0.58446 0.46156 0.12444 0.0
C534 C 0.62292 0.46133 0.10197 0.0
C535 C 0.62859 0.44807 0.12145 0.0
C536 C 0.61207 0.44167 0.14248 0.0
C537 C 0.59003 0.44831 0.14365 0.0
C538 C 0.63979 0.46816 0.07909 0.0
C539 C 0.61773 0.4279 0.16373 0.0
C540 C 0.66687 0.40806 0.10414 0.0
C541 C 0.69569 0.42861 0.10909 0.0
C542 C 0.6447 0.4137 0.109 0.0
C543 C 0.65143 0.44041 0.11935 0.0
C544 C 0.68029 0.4606 0.12574 0.0
C545 C 0.70212 0.45452 0.12041 0.0
C546 C 0.61422 0.39165 0.1018 0.0
C547 C 0.68826 0.48913 0.13718 0.0
H548 H 0.5966 0.47807 0.08883 0.0
H549 H 0.57742 0.44357 0.15977 0.0
H550 H 0.66293 0.48252 0.08346 0.0
H551 H 0.63746 0.4484 0.07066 0.0
H552 H 0.63267 0.47846 0.06562 0.0
H553 H 0.60344 0.42497 0.17899 0.0
H554 H 0.6146 0.40685 0.15799 0.0
H555 H 0.64034 0.44107 0.17033 0.0
H556 H 0.66163 0.38792 0.09546 0.0
H557 H 0.72428 0.47043 0.12447 0.0
H558 H 0.60642 0.39961 0.0868 0.0
H559 H 0.59988 0.3877 0.11719 0.0
H560 H 0.6123 0.37116 0.09572 0.0
H561 H 0.68455 0.50202 0.12381 0.0
H562 H 0.7111 0.50113 0.14352 0.0
H563 H 0.67453 0.48644 0.15279 0.0
C564 C 0.40518 0.85423 0.54869 0.0
C565 C 0.41682 0.8632 0.52589 0.0
C566 C 0.38443 0.82587 0.55224 0.0
C567 C 0.37505 0.80599 0.53248 0.0
C568 C 0.38702 0.8148 0.50947 0.0
C569 C 0.40786 0.84336 0.50645 0.0
C570 C 0.37238 0.81726 0.57713 0.0
C571 C 0.37749 0.79419 0.48799 0.0
C572 C 0.33935 0.72956 0.5515 0.0
C573 C 0.31029 0.72194 0.55082 0.0
C574 C 0.36061 0.75638 0.54431 0.0
C575 C 0.35263 0.77605 0.5362 0.0
C576 C 0.32324 0.7679 0.53407 0.0
C577 C 0.30239 0.7409 0.54141 0.0
C578 C 0.39171 0.7642 0.54671 0.0
C579 C 0.3139 0.78826 0.52531 0.0
H580 H 0.41234 0.86946 0.56381 0.0
H581 H 0.4166 0.85032 0.48873 0.0
H582 H 0.34887 0.80874 0.57627 0.0
H583 H 0.37601 0.8001 0.58363 0.0
H584 H 0.3822 0.83528 0.5906 0.0
H585 H 0.38952 0.80425 0.4715 0.0
H586 H 0.38042 0.77592 0.49224 0.0
H587 H 0.35429 0.78558 0.48396 0.0
H588 H 0.34567 0.71493 0.5585 0.0
H589 H 0.27999 0.73512 0.54064 0.0
H590 H 0.40248 0.78041 0.56156 0.0
H591 H 0.40301 0.77368 0.52983 0.0
H592 H 0.39417 0.74558 0.55074 0.0
H593 H 0.32047 0.80579 0.53899 0.0
H594 H 0.2903 0.77771 0.52217 0.0
H595 H 0.32453 0.79792 0.50824 0.0
C596 C 0.56044 0.40283 0.67592 0.0
C597 C 0.58191 0.42841 0.66678 0.0
C598 C 0.56738 0.38456 0.68808 0.0
C599 C 0.59649 0.39202 0.69109 0.0
C600 C 0.61822 0.41742 0.68131 0.0
C601 C 0.61067 0.43539 0.66933 0.0
C602 C 0.54361 0.35775 0.6984 0.0
C603 C 0.64948 0.42593 0.68399 0.0
C604 C 0.61598 0.36158 0.74458 0.0
C605 C 0.61724 0.33879 0.73361 0.0
C606 C 0.60943 0.37917 0.73089 0.0
C607 C 0.60421 0.37395 0.70559 0.0
C608 C 0.60575 0.35118 0.69433 0.0
C609 C 0.61215 0.33378 0.70851 0.0
C610 C 0.60779 0.40316 0.74355 0.0
C611 C 0.60048 0.34511 0.66737 0.0
H612 H 0.53821 0.39754 0.67427 0.0
H613 H 0.62728 0.45502 0.66206 0.0
H614 H 0.54493 0.33904 0.69186 0.0
H615 H 0.54606 0.35885 0.71845 0.0
H616 H 0.52201 0.35434 0.69345 0.0
H617 H 0.66358 0.44547 0.6741 0.0
H618 H 0.65623 0.42974 0.70343 0.0
H619 H 0.65276 0.40848 0.67713 0.0
H620 H 0.61985 0.36559 0.76396 0.0
H621 H 0.61321 0.31627 0.69989 0.0
H622 H 0.58599 0.40022 0.74086 0.0
H623 H 0.6231 0.4237 0.73561 0.0
H624 H 0.6127 0.40453 0.76332 0.0
H625 H 0.57838 0.34007 0.66227 0.0
H626 H 0.60329 0.32708 0.66131 0.0
H627 H 0.61541 0.36422 0.65741 0.0
C628 C 0.17061 0.59533 0.8845 0.0
C629 C 0.16015 0.59827 0.86193 0.0
C630 C 0.19854 0.59984 0.88736 0.0
C631 C 0.21642 0.60749 0.86714 0.0
C632 C 0.20641 0.6117 0.84457 0.0
C633 C 0.17839 0.60703 0.84224 0.0
C634 C 0.20849 0.5953 0.91174 0.0
C635 C 0.22486 0.61991 0.82259 0.0
C636 C 0.29667 0.63664 0.87495 0.0
C637 C 0.29892 0.61266 0.86879 0.0
C638 C 0.26989 0.63516 0.87512 0.0
C639 C 0.24476 0.60908 0.86905 0.0
C640 C 0.24677 0.58457 0.86374 0.0
C641 C 0.27379 0.58665 0.86366 0.0
C642 C 0.26857 0.66171 0.88096 0.0
C643 C 0.22041 0.5563 0.85737 0.0
H644 H 0.15672 0.58894 0.89987 0.0
H645 H 0.17034 0.60903 0.82468 0.0
H646 H 0.21149 0.57657 0.91051 0.0
H647 H 0.22953 0.61391 0.91727 0.0
H648 H 0.19293 0.59174 0.92607 0.0
H649 H 0.21469 0.62435 0.80687 0.0
H650 H 0.246 0.63901 0.82687 0.0
H651 H 0.22885 0.60244 0.81726 0.0
H652 H 0.31592 0.65685 0.87896 0.0
H653 H 0.27521 0.56796 0.85901 0.0
H654 H 0.25299 0.65766 0.89536 0.0
H655 H 0.26094 0.66796 0.86467 0.0
H656 H 0.28977 0.67979 0.88701 0.0
H657 H 0.20453 0.55039 0.87181 0.0
H658 H 0.22549 0.53899 0.85485 0.0
H659 H 0.21009 0.55792 0.84037 0.0
C660 C 0.591 0.16335 0.05676 0.0
C661 C 0.58536 0.15662 0.0319 0.0
C662 C 0.61218 0.1906 0.06505 0.0
C663 C 0.62781 0.2116 0.04804 0.0
C664 C 0.62159 0.2051 0.02293 0.0
C665 C 0.60055 0.17763 0.01516 0.0
C666 C 0.6184 0.19667 0.09194 0.0
C667 C 0.63753 0.22702 0.00422 0.0
C668 C 0.66898 0.29026 0.06514 0.0
C669 C 0.69744 0.29596 0.06496 0.0
C670 C 0.64592 0.26262 0.06067 0.0
C671 C 0.65147 0.24012 0.05625 0.0
C672 C 0.68001 0.24541 0.05765 0.0
C673 C 0.70266 0.27329 0.06186 0.0
C674 C 0.61579 0.25784 0.05923 0.0
C675 C 0.68675 0.22187 0.05346 0.0
H676 H 0.57947 0.14702 0.06972 0.0
H677 H 0.59599 0.17251 0.99594 0.0
H678 H 0.64058 0.20141 0.09633 0.0
H679 H 0.61709 0.21569 0.09749 0.0
H680 H 0.60332 0.17851 0.10282 0.0
H681 H 0.62915 0.21895 0.98549 0.0
H682 H 0.63592 0.24629 0.00793 0.0
H683 H 0.66061 0.23355 0.00525 0.0
H684 H 0.66469 0.30762 0.06748 0.0
H685 H 0.72455 0.27744 0.06192 0.0
H686 H 0.60131 0.23959 0.07026 0.0
H687 H 0.60747 0.25256 0.0402 0.0
H688 H 0.61482 0.27685 0.06553 0.0
H689 H 0.67316 0.20352 0.06475 0.0
H690 H 0.70964 0.22891 0.05766 0.0
H691 H 0.68187 0.21433 0.03423 0.0
C692 C 0.41687 0.60744 0.16928 0.0
C693 C 0.42012 0.58718 0.18204 0.0
C694 C 0.41279 0.62788 0.18152 0.0
C695 C 0.41237 0.62829 0.20717 0.0
C696 C 0.41475 0.60731 0.22013 0.0
C697 C 0.41847 0.58687 0.20736 0.0
C698 C 0.40986 0.64962 0.16701 0.0
C699 C 0.41465 0.60723 0.24745 0.0
C700 C 0.43477 0.70181 0.23232 0.0
C701 C 0.4081 0.70003 0.23519 0.0
C702 C 0.43653 0.67792 0.22498 0.0
C703 C 0.41101 0.65172 0.22018 0.0
C704 C 0.38415 0.64921 0.22502 0.0
C705 C 0.38302 0.67338 0.23263 0.0
C706 C 0.46564 0.68129 0.22056 0.0
C707 C 0.35646 0.62163 0.22021 0.0
H708 H 0.41797 0.60752 0.14969 0.0
H709 H 0.42133 0.57138 0.21725 0.0
H710 H 0.39021 0.65003 0.17204 0.0
H711 H 0.42843 0.67109 0.17121 0.0
H712 H 0.40881 0.64525 0.14718 0.0
H713 H 0.41382 0.58789 0.25464 0.0
H714 H 0.43436 0.62614 0.25491 0.0
H715 H 0.39609 0.60861 0.25417 0.0
H716 H 0.45428 0.72222 0.23457 0.0
H717 H 0.36228 0.67171 0.2349 0.0
H718 H 0.46853 0.68052 0.20077 0.0
H719 H 0.46738 0.66362 0.22855 0.0
H720 H 0.48333 0.70175 0.22826 0.0
H721 H 0.3523 0.61777 0.20036 0.0
H722 H 0.3379 0.62197 0.2283 0.0
H723 H 0.35793 0.60351 0.22747 0.0
C724 C 0.83074 0.41512 0.34255 0.0
C725 C 0.85015 0.42771 0.36229 0.0
C726 C 0.80198 0.40784 0.34438 0.0
C727 C 0.79245 0.41339 0.36645 0.0
C728 C 0.81158 0.42483 0.38679 0.0
C729 C 0.84025 0.43185 0.38446 0.0
C730 C 0.78215 0.39557 0.3223 0.0
C731 C 0.80212 0.43087 0.41065 0.0
C732 C 0.73052 0.42717 0.35923 0.0
C733 C 0.70701 0.40066 0.36443 0.0
C734 C 0.75855 0.43185 0.36069 0.0
C735 C 0.7632 0.40947 0.36747 0.0
C736 C 0.73975 0.38303 0.37371 0.0
C737 C 0.7119 0.37893 0.37215 0.0
C738 C 0.7831 0.46044 0.35408 0.0
C739 C 0.74397 0.35873 0.3811 0.0
H740 H 0.83833 0.41217 0.32529 0.0
H741 H 0.85512 0.4412 0.39987 0.0
H742 H 0.76214 0.37604 0.32691 0.0
H743 H 0.77604 0.41109 0.31589 0.0
H744 H 0.79223 0.39032 0.30719 0.0
H745 H 0.81875 0.43706 0.42532 0.0
H746 H 0.79742 0.44841 0.40859 0.0
H747 H 0.78209 0.41198 0.41622 0.0
H748 H 0.72702 0.44417 0.35345 0.0
H749 H 0.6939 0.35839 0.37629 0.0
H750 H 0.79321 0.45804 0.33756 0.0
H751 H 0.7998 0.4691 0.36883 0.0
H752 H 0.77604 0.47611 0.35061 0.0
H753 H 0.75141 0.35136 0.36543 0.0
H754 H 0.7239 0.34046 0.38751 0.0
H755 H 0.76077 0.36584 0.3957 0.0
C756 C 0.09782 0.54874 0.45632 0.0
C757 C 0.10601 0.54688 0.43268 0.0
C758 C 0.11763 0.55786 0.47596 0.0
C759 C 0.1463 0.56492 0.47199 0.0
C760 C 0.15486 0.56337 0.44819 0.0
C761 C 0.13467 0.55455 0.42881 0.0
C762 C 0.10769 0.55943 0.50105 0.0
C763 C 0.1852 0.57054 0.44327 0.0
C764 C 0.2014 0.60831 0.52204 0.0
C765 C 0.2021 0.58695 0.53541 0.0
C766 C 0.18385 0.60156 0.501 0.0
C767 C 0.16692 0.57281 0.49297 0.0
C768 C 0.16845 0.55131 0.50582 0.0
C769 C 0.18585 0.5586 0.52695 0.0
C770 C 0.18259 0.62505 0.48791 0.0
C771 C 0.15109 0.52046 0.49763 0.0
H772 H 0.07569 0.54245 0.45964 0.0
H773 H 0.14138 0.55368 0.4106 0.0
H774 H 0.10947 0.54397 0.51273 0.0
H775 H 0.12161 0.58088 0.50946 0.0
H776 H 0.08512 0.55479 0.50088 0.0
H777 H 0.1886 0.56891 0.42366 0.0
H778 H 0.20056 0.59242 0.4501 0.0
H779 H 0.19032 0.55593 0.4531 0.0
H780 H 0.21381 0.63026 0.52847 0.0
H781 H 0.18646 0.54199 0.53702 0.0
H782 H 0.16078 0.62225 0.48917 0.0
H783 H 0.18667 0.6241 0.4684 0.0
H784 H 0.19839 0.64644 0.49556 0.0
H785 H 0.12788 0.51302 0.49903 0.0
H786 H 0.15624 0.50658 0.50862 0.0
H787 H 0.15501 0.5179 0.47834 0.0
C788 C 0.59126 0.14128 0.59774 0.0
C789 C 0.56922 0.11334 0.60134 0.0
C790 C 0.60402 0.16091 0.61729 0.0
C791 C 0.59426 0.15256 0.64098 0.0
C792 C 0.57193 0.12449 0.64473 0.0
C793 C 0.55986 0.1052 0.62493 0.0
C794 C 0.62793 0.19058 0.6126 0.0
C795 C 0.56079 0.11481 0.66971 0.0
C796 C 0.64051 0.19187 0.69681 0.0
C797 C 0.62849 0.20838 0.70423 0.0
C798 C 0.63029 0.17439 0.67574 0.0
C799 C 0.60722 0.17308 0.66194 0.0
C800 C 0.59553 0.19028 0.66893 0.0
C801 C 0.60643 0.20786 0.68989 0.0
C802 C 0.64364 0.15673 0.66863 0.0
C803 C 0.57074 0.18927 0.65482 0.0
H804 H 0.59839 0.14795 0.57958 0.0
H805 H 0.54325 0.08357 0.62802 0.0
H806 H 0.62162 0.20632 0.61826 0.0
H807 H 0.64738 0.19532 0.62356 0.0
H808 H 0.63352 0.19352 0.5932 0.0
H809 H 0.5429 0.09246 0.66949 0.0
H810 H 0.57833 0.11669 0.68185 0.0
H811 H 0.55314 0.12865 0.67763 0.0
H812 H 0.6577 0.19228 0.70766 0.0
H813 H 0.59691 0.22044 0.6955 0.0
H814 H 0.65003 0.16019 0.64946 0.0
H815 H 0.6277 0.13385 0.67015 0.0
H816 H 0.66278 0.16178 0.68022 0.0
H817 H 0.57595 0.19332 0.63545 0.0
H818 H 0.56509 0.20505 0.6619 0.0
H819 H 0.55161 0.16776 0.6557 0.0
C820 C 0.46742 0.58484 0.72036 0.0
C821 C 0.48477 0.57283 0.72459 0.0
C822 C 0.4584 0.59535 0.73962 0.0
C823 C 0.46652 0.59333 0.76373 0.0
C824 C 0.48393 0.58107 0.7681 0.0
C825 C 0.49307 0.57118 0.74844 0.0
C826 C 0.44021 0.60866 0.73417 0.0
C827 C 0.49257 0.57806 0.79355 0.0
C828 C 0.46196 0.64224 0.81129 0.0
C829 C 0.43459 0.62477 0.82028 0.0
C830 C 0.47294 0.63213 0.79323 0.0
C831 C 0.45635 0.60371 0.78429 0.0
C832 C 0.4293 0.58559 0.79414 0.0
C833 C 0.41864 0.59643 0.81184 0.0
C834 C 0.50173 0.6522 0.78297 0.0
C835 C 0.41122 0.55499 0.78547 0.0
H836 H 0.46124 0.58636 0.70189 0.0
H837 H 0.5063 0.56167 0.75172 0.0
H838 H 0.41911 0.59648 0.74269 0.0
H839 H 0.45072 0.63063 0.74201 0.0
H840 H 0.43651 0.60938 0.7144 0.0
H841 H 0.5062 0.56805 0.79386 0.0
H842 H 0.50451 0.59921 0.80293 0.0
H843 H 0.47315 0.56496 0.80406 0.0
H844 H 0.47436 0.66423 0.81763 0.0
H845 H 0.39758 0.58273 0.81876 0.0
H846 H 0.49887 0.65551 0.76358 0.0
H847 H 0.51595 0.64291 0.78387 0.0
H848 H 0.5126 0.6732 0.79273 0.0
H849 H 0.40425 0.55407 0.76628 0.0
H850 H 0.39184 0.54309 0.79639 0.0
H851 H 0.424 0.54412 0.78625 0.0
C852 C 0.88455 0.49115 0.9307 0.0
C853 C 0.91408 0.50277 0.93518 0.0
C854 C 0.8652 0.48059 0.94958 0.0
C855 C 0.87563 0.48158 0.97351 0.0
C856 C 0.90548 0.49408 0.97829 0.0
C857 C 0.92436 0.50456 0.95906 0.0
C858 C 0.8335 0.46742 0.94376 0.0
C859 C 0.91739 0.49555 0.00358 0.0
C860 C 0.8237 0.46859 0.02389 0.0
C861 C 0.812 0.43936 0.02708 0.0
C862 C 0.84512 0.48292 0.00702 0.0
C863 C 0.85507 0.46764 0.99312 0.0
C864 C 0.84418 0.4384 0.99699 0.0
C865 C 0.82273 0.42462 0.01384 0.0
C866 C 0.85627 0.51413 0.00339 0.0
C867 C 0.85437 0.42138 0.98264 0.0
H868 H 0.87642 0.48942 0.91227 0.0
H869 H 0.94721 0.51395 0.9627 0.0
H870 H 0.82248 0.44437 0.9473 0.0
H871 H 0.82401 0.47704 0.95563 0.0
H872 H 0.82905 0.47011 0.92456 0.0
H873 H 0.94121 0.50773 0.00453 0.0
H874 H 0.9092 0.50557 0.01641 0.0
H875 H 0.9101 0.47375 0.00976 0.0
H876 H 0.81549 0.48013 0.03402 0.0
H877 H 0.81379 0.40204 0.01605 0.0
H878 H 0.84971 0.51711 0.98502 0.0
H879 H 0.88006 0.52608 0.00454 0.0
H880 H 0.84807 0.52344 0.01695 0.0
H881 H 0.8483 0.42049 0.9632 0.0
H882 H 0.84509 0.39929 0.98892 0.0
H883 H 0.8781 0.43179 0.98402 0.0
C884 C 0.45137 0.93277 0.1244 0.0
C885 C 0.44209 0.92071 0.10099 0.0
C886 C 0.44247 0.91583 0.14483 0.0
C887 C 0.42392 0.88619 0.14169 0.0
C888 C 0.41398 0.874 0.11814 0.0
C889 C 0.42322 0.89141 0.09807 0.0
C890 C 0.45339 0.92953 0.16968 0.0
C891 C 0.3942 0.84242 0.11406 0.0
C892 C 0.42296 0.83396 0.18634 0.0
C893 C 0.3967 0.82496 0.19744 0.0
C894 C 0.43286 0.8551 0.16909 0.0
C895 C 0.41605 0.86746 0.16274 0.0
C896 C 0.3904 0.85975 0.17494 0.0
C897 C 0.38102 0.83855 0.19221 0.0
C898 C 0.46046 0.86291 0.1566 0.0
C899 C 0.37202 0.87263 0.16873 0.0
H900 H 0.46563 0.95549 0.12675 0.0
H901 H 0.41625 0.88195 0.08 0.0
H902 H 0.43516 0.9237 0.18178 0.0
H903 H 0.46689 0.92157 0.17788 0.0
H904 H 0.46631 0.95306 0.16913 0.0
H905 H 0.38738 0.83652 0.09472 0.0
H906 H 0.40518 0.83083 0.12014 0.0
H907 H 0.37479 0.8351 0.12497 0.0
H908 H 0.43526 0.82364 0.1903 0.0
H909 H 0.36074 0.83177 0.20078 0.0
H910 H 0.47457 0.88632 0.15667 0.0
H911 H 0.45561 0.85527 0.13739 0.0
H912 H 0.4724 0.85348 0.1653 0.0
H913 H 0.3853 0.8961 0.16825 0.0
H914 H 0.35475 0.86706 0.18187 0.0
H915 H 0.36195 0.86485 0.15041 0.0
C916 C 0.52145 0.45056 0.25698 0.0
C917 C 0.50803 0.43601 0.23516 0.0
C918 C 0.52998 0.43783 0.27462 0.0
C919 C 0.52547 0.41016 0.27003 0.0
C920 C 0.51098 0.39501 0.24837 0.0
C921 C 0.50223 0.40809 0.23124 0.0
C922 C 0.54496 0.45447 0.29767 0.0
C923 C 0.50623 0.36569 0.24263 0.0
C924 C 0.58037 0.39432 0.298 0.0
C925 C 0.56527 0.37659 0.3169 0.0
C926 C 0.56752 0.40516 0.2826 0.0
C927 C 0.53895 0.3985 0.28641 0.0
C928 C 0.52358 0.3808 0.30559 0.0
C929 C 0.53687 0.36978 0.32052 0.0
C930 C 0.5845 0.42358 0.26211 0.0
C931 C 0.49324 0.3737 0.31038 0.0
H932 H 0.52563 0.47207 0.26007 0.0
H933 H 0.49201 0.39694 0.21427 0.0
H934 H 0.53555 0.44122 0.31367 0.0
H935 H 0.56793 0.46056 0.29756 0.0
H936 H 0.54359 0.4741 0.2998 0.0
H937 H 0.49228 0.35577 0.22616 0.0
H938 H 0.52719 0.36702 0.23967 0.0
H939 H 0.49636 0.3516 0.25806 0.0
H940 H 0.60225 0.39944 0.29498 0.0
H941 H 0.5252 0.35616 0.33519 0.0
H942 H 0.58668 0.44491 0.26419 0.0
H943 H 0.57302 0.41411 0.24453 0.0
H944 H 0.60631 0.42624 0.26136 0.0
H945 H 0.49254 0.39353 0.31367 0.0
H946 H 0.48441 0.36001 0.32625 0.0
H947 H 0.47916 0.36262 0.29425 0.0
C948 C 0.46095 0.91617 0.379 0.0
C949 C 0.45623 0.90746 0.40298 0.0
C950 C 0.45238 0.89625 0.35966 0.0
C951 C 0.43938 0.86695 0.36448 0.0
C952 C 0.43456 0.85804 0.38873 0.0
C953 C 0.44278 0.87844 0.40773 0.0
C954 C 0.45734 0.9066 0.33405 0.0
C955 C 0.42134 0.82707 0.39463 0.0
C956 C 0.39756 0.81627 0.31169 0.0
C957 C 0.41859 0.81172 0.30136 0.0
C958 C 0.40371 0.83347 0.33274 0.0
C959 C 0.43134 0.84587 0.34402 0.0
C960 C 0.45209 0.83994 0.33448 0.0
C961 C 0.44558 0.82323 0.31309 0.0
C962 C 0.38117 0.83968 0.34209 0.0
C963 C 0.48156 0.85218 0.34631 0.0
H964 H 0.47118 0.93864 0.3754 0.0
H965 H 0.43937 0.87179 0.42634 0.0
H966 H 0.47229 0.90104 0.32522 0.0
H967 H 0.43685 0.89595 0.32328 0.0
H968 H 0.46646 0.92995 0.33338 0.0
H969 H 0.41862 0.82362 0.41439 0.0
H970 H 0.40008 0.81451 0.38523 0.0
H971 H 0.43508 0.81869 0.38799 0.0
H972 H 0.37671 0.8076 0.30262 0.0
H973 H 0.46184 0.81959 0.30528 0.0
H974 H 0.38828 0.86247 0.3398 0.0
H975 H 0.37828 0.83561 0.36172 0.0
H976 H 0.36011 0.8267 0.3324 0.0
H977 H 0.49369 0.87552 0.34419 0.0
H978 H 0.49403 0.843 0.33829 0.0
H979 H 0.47986 0.8483 0.36603 0.0
C980 C 0.60197 0.47877 0.51627 0.0
C981 C 0.5738 0.46366 0.52449 0.0
C982 C 0.61011 0.46953 0.49554 0.0
C983 C 0.58942 0.44508 0.48224 0.0
C984 C 0.56107 0.42957 0.49048 0.0
C985 C 0.55376 0.43875 0.51169 0.0
C986 C 0.64074 0.48624 0.48764 0.0
C987 C 0.53825 0.40363 0.47657 0.0
C988 C 0.60143 0.43888 0.4154 0.0
C989 C 0.60929 0.4179 0.41521 0.0
C990 C 0.59486 0.44789 0.43711 0.0
C991 C 0.59706 0.43622 0.45922 0.0
C992 C 0.60578 0.4156 0.4592 0.0
C993 C 0.61135 0.40634 0.43712 0.0
C994 C 0.5849 0.46936 0.4363 0.0
C995 C 0.6092 0.40331 0.48248 0.0
H996 H 0.61762 0.49824 0.52568 0.0
H997 H 0.53216 0.42641 0.51811 0.0
H998 H 0.64959 0.47189 0.48478 0.0
H999 H 0.64149 0.49617 0.47011 0.0
H1000 H 0.65477 0.50325 0.5011 0.0
H1001 H 0.51715 0.39407 0.48532 0.0
H1002 H 0.53565 0.40941 0.45791 0.0
H1003 H 0.5448 0.38732 0.47497 0.0
H1004 H 0.59958 0.44767 0.39845 0.0
H1005 H 0.61767 0.39027 0.43701 0.0
H1006 H 0.59941 0.48839 0.44773 0.0
H1007 H 0.56317 0.46014 0.44381 0.0
H1008 H 0.58414 0.47619 0.4176 0.0
H1009 H 0.62393 0.42066 0.49535 0.0
H1010 H 0.61772 0.38867 0.47947 0.0
H1011 H 0.58821 0.39148 0.49123 0.0
C1012 C 0.09345 0.57862 0.71187 0.0
C1013 C 0.10465 0.58249 0.73563 0.0
C1014 C 0.11139 0.58553 0.692 0.0
C1015 C 0.14123 0.59697 0.6961 0.0
C1016 C 0.15265 0.60119 0.72011 0.0
C1017 C 0.13417 0.59369 0.73959 0.0
C1018 C 0.09841 0.58032 0.66666 0.0
C1019 C 0.18442 0.6137 0.72523 0.0
C1020 C 0.1885 0.5924 0.64831 0.0
C1021 C 0.20209 0.61999 0.63952 0.0
C1022 C 0.16766 0.58422 0.66598 0.0
C1023 C 0.16063 0.60429 0.67537 0.0
C1024 C 0.17354 0.63188 0.66598 0.0
C1025 C 0.19397 0.63934 0.64801 0.0
C1026 C 0.15395 0.55442 0.67522 0.0
C1027 C 0.16677 0.65395 0.67571 0.0
H1028 H 0.07056 0.56971 0.70883 0.0
H1029 H 0.14284 0.59696 0.758 0.0
H1030 H 0.10815 0.60047 0.6568 0.0
H1031 H 0.10311 0.56541 0.65647 0.0
H1032 H 0.0748 0.57132 0.66659 0.0
H1033 H 0.1899 0.61626 0.74495 0.0
H1034 H 0.19182 0.59986 0.71692 0.0
H1035 H 0.19648 0.63478 0.71694 0.0
H1036 H 0.19452 0.57728 0.6418 0.0
H1037 H 0.20445 0.66074 0.64136 0.0
H1038 H 0.13026 0.54455 0.67471 0.0
H1039 H 0.16087 0.5551 0.69439 0.0
H1040 H 0.15978 0.54066 0.6645 0.0
H1041 H 0.14328 0.6455 0.67506 0.0
H1042 H 0.17727 0.67382 0.66543 0.0
H1043 H 0.17413 0.65919 0.69499 0.0
C1044 C 0.54464 0.13197 0.90166 0.0
C1045 C 0.53457 0.10295 0.89739 0.0
C1046 C 0.55487 0.15109 0.88275 0.0
C1047 C 0.55519 0.14097 0.85902 0.0
C1048 C 0.5446 0.11165 0.85448 0.0
C1049 C 0.53435 0.09296 0.87373 0.0
C1050 C 0.56599 0.18224 0.88831 0.0
C1051 C 0.54462 0.10013 0.82939 0.0
C1052 C 0.56363 0.19064 0.80847 0.0
C1053 C 0.59336 0.20472 0.80544 0.0
C1054 C 0.55067 0.16908 0.82529 0.0
C1055 C 0.56788 0.16142 0.83929 0.0
C1056 C 0.5977 0.17469 0.83555 0.0
C1057 C 0.61009 0.19624 0.81873 0.0
C1058 C 0.51879 0.15537 0.8288 0.0
C1059 C 0.61674 0.16694 0.85003 0.0
H1060 H 0.54524 0.13989 0.91994 0.0
H1061 H 0.52621 0.07049 0.87026 0.0
H1062 H 0.5892 0.19464 0.88461 0.0
H1063 H 0.5549 0.19018 0.87638 0.0
H1064 H 0.56295 0.18644 0.90748 0.0
H1065 H 0.53451 0.07661 0.8287 0.0
H1066 H 0.53301 0.10633 0.81631 0.0
H1067 H 0.56699 0.10944 0.82332 0.0
H1068 H 0.55055 0.19706 0.79825 0.0
H1069 H 0.63307 0.20701 0.81657 0.0
H1070 H 0.51488 0.16122 0.84711 0.0
H1071 H 0.50865 0.1319 0.8277 0.0
H1072 H 0.50811 0.16203 0.81513 0.0
H1073 H 0.61722 0.17299 0.8694 0.0
H1074 H 0.63909 0.17772 0.84366 0.0
H1075 H 0.60805 0.14365 0.84891 0.0
C1076 C 0.45598 0.56273 0.013 0.0
C1077 C 0.44116 0.55941 0.03445 0.0
C1078 C 0.44815 0.57116 0.99167 0.0
C1079 C 0.42477 0.57619 0.99166 0.0
C1080 C 0.4099 0.57319 0.01327 0.0
C1081 C 0.41832 0.56493 0.03441 0.0
C1082 C 0.46461 0.57418 0.96901 0.0
C1083 C 0.38484 0.57832 0.01397 0.0
C1084 C 0.419 0.6191 0.94044 0.0
C1085 C 0.39946 0.59761 0.92422 0.0
C1086 C 0.42716 0.61248 0.9626 0.0
C1087 C 0.41538 0.5837 0.96879 0.0
C1088 C 0.39522 0.56194 0.95276 0.0
C1089 C 0.38758 0.56914 0.93067 0.0
C1090 C 0.44883 0.63627 0.97917 0.0
C1091 C 0.382 0.531 0.95879 0.0
H1092 H 0.47335 0.55812 0.01271 0.0
H1093 H 0.40702 0.56284 0.05096 0.0
H1094 H 0.45014 0.55862 0.95483 0.0
H1095 H 0.47279 0.59568 0.96175 0.0
H1096 H 0.48302 0.5707 0.97229 0.0
H1097 H 0.37594 0.57569 0.03234 0.0
H1098 H 0.39151 0.6001 0.00809 0.0
H1099 H 0.36755 0.56329 0.00114 0.0
H1100 H 0.42835 0.64116 0.93567 0.0
H1101 H 0.37236 0.55235 0.91839 0.0
H1102 H 0.4683 0.63435 0.98144 0.0
H1103 H 0.43994 0.63474 0.99739 0.0
H1104 H 0.45523 0.65756 0.97211 0.0
H1105 H 0.39898 0.52519 0.96047 0.0
H1106 H 0.36585 0.5167 0.9448 0.0
H1107 H 0.37149 0.5272 0.9765 0.0
C1108 C 0.8936 0.46324 0.22238 0.0
C1109 C 0.89329 0.44299 0.2379 0.0
C1110 C 0.87548 0.45495 0.2016 0.0
C1111 C 0.85625 0.42572 0.19643 0.0
C1112 C 0.85503 0.40526 0.21261 0.0
C1113 C 0.87378 0.41412 0.23302 0.0
C1114 C 0.87783 0.47742 0.18462 0.0
C1115 C 0.83449 0.37394 0.20799 0.0
C1116 C 0.79672 0.40626 0.14865 0.0
C1117 C 0.80816 0.40029 0.12822 0.0
C1118 C 0.81184 0.41408 0.17114 0.0
C1119 C 0.83925 0.41648 0.1731 0.0
C1120 C 0.85087 0.4105 0.15253 0.0
C1121 C 0.83513 0.40228 0.13047 0.0
C1122 C 0.79855 0.41982 0.19277 0.0
C1123 C 0.88019 0.41321 0.15371 0.0
H1124 H 0.90883 0.48555 0.22602 0.0
H1125 H 0.8733 0.39846 0.24516 0.0
H1126 H 0.88581 0.47465 0.16697 0.0
H1127 H 0.85643 0.47513 0.18105 0.0
H1128 H 0.89262 0.49927 0.19194 0.0
H1129 H 0.83422 0.36104 0.22346 0.0
H1130 H 0.81243 0.37004 0.20451 0.0
H1131 H 0.84072 0.36649 0.19159 0.0
H1132 H 0.77587 0.40467 0.14712 0.0
H1133 H 0.84432 0.39795 0.11479 0.0
H1134 H 0.8122 0.44215 0.1994 0.0
H1135 H 0.79732 0.40602 0.2078 0.0
H1136 H 0.77666 0.41604 0.18848 0.0
H1137 H 0.89659 0.43521 0.15944 0.0
H1138 H 0.88624 0.40799 0.13603 0.0
H1139 H 0.88076 0.39884 0.16743 0.0
loop_
_geom_bond_atom_site_label_1
_geom_bond_atom_site_label_2
_geom_bond_distance
_geom_bond_site_symmetry_2
_ccdc_geom_bond_type
H0 C19 0.949 . S
H1 C20 0.950 . S
H2 C22 0.950 . S
H3 C23 0.950 . S
H4 C25 0.950 . S
H5 C28 0.950 . S
H6 C29 0.950 . S
H7 C31 0.951 . S
H8 C32 0.949 . S
H9 C34 0.949 . S
H10 C35 0.950 . S
H11 C37 0.950 . S
H12 C38 0.950 . S
H13 C40 0.950 . S
H14 C43 0.950 . S
H15 C44 0.950 . S
H16 C46 0.951 . S
H17 C47 0.949 . S
C18 C19 1.376 . S
C18 C23 1.386 . S
C18 C24 1.483 . S
C19 H0 0.949 . S
C19 C18 1.376 . S
C19 C20 1.397 . S
C20 H1 0.950 . S
C20 C19 1.397 . S
C20 C21 1.391 . S
C21 C20 1.391 . S
C21 C22 1.405 . S
C22 H2 0.950 . S
C22 C21 1.405 . S
C22 C23 1.367 . S
C23 H3 0.950 . S
C23 C18 1.386 . S
C23 C22 1.367 . S
C24 C18 1.483 . S
C24 C25 1.382 1_655 S
C24 C26 1.403 . S
C25 H4 0.950 . S
C25 C24 1.382 1_455 S
C25 C41 1.411 . S
C26 C24 1.403 . S
C26 C27 1.489 . S
C26 C40 1.411 . S
C27 C26 1.489 . S
C27 C28 1.383 . S
C27 C32 1.382 . S
C28 H5 0.950 . S
C28 C27 1.383 . S
C28 C29 1.395 . S
C29 H6 0.950 . S
C29 C28 1.395 . S
C29 C30 1.288 . S
C30 C29 1.288 . S
C30 C31 1.392 . S
C31 H7 0.951 . S
C31 C30 1.392 . S
C31 C32 1.392 . S
C32 H8 0.949 . S
C32 C27 1.382 . S
C32 C31 1.392 . S
C33 C34 1.376 . S
C33 C38 1.386 . S
C33 C39 1.483 . S
C34 H9 0.949 . S
C34 C33 1.376 . S
C34 C35 1.397 . S
C35 H10 0.950 . S
C35 C34 1.397 . S
C35 C36 1.391 . S
C36 C35 1.391 . S
C36 C37 1.405 . S
C37 H11 0.950 . S
C37 C36 1.405 . S
C37 C38 1.367 . S
C38 H12 0.950 . S
C38 C33 1.386 . S
C38 C37 1.367 . S
C39 C33 1.483 . S
C39 C40 1.382 1_455 S
C39 C41 1.403 . S
C40 H13 0.950 . S
C40 C26 1.411 . S
C40 C39 1.382 1_655 S
C41 C25 1.411 . S
C41 C39 1.403 . S
C41 C42 1.489 . S
C42 C41 1.489 . S
C42 C43 1.383 . S
C42 C47 1.382 . S
C43 H14 0.950 . S
C43 C42 1.383 . S
C43 C44 1.395 . S
C44 H15 0.950 . S
C44 C43 1.395 . S
C44 C45 1.288 . S
C45 C44 1.288 . S
C45 C46 1.392 . S
C46 H16 0.951 . S
C46 C45 1.392 . S
C46 C47 1.392 . S
C47 H17 0.949 . S
C47 C42 1.382 . S
C47 C46 1.392 . S
H48 C67 0.949 . S
H49 C68 0.950 . S
H50 C70 0.950 . S
H51 C71 0.950 . S
H52 C73 0.950 1_565 S
H53 C76 0.950 . S
H54 C77 0.950 . S
H55 C79 0.951 . S
H56 C80 0.949 . S
H57 C82 0.949 . S
H58 C83 0.950 . S
H59 C85 0.950 . S
H60 C86 0.950 . S
H61 C88 0.950 . S
H62 C91 0.950 . S
H63 C92 0.950 . S
H64 C94 0.951 . S
H65 C95 0.949 . S
C66 C67 1.376 . S
C66 C71 1.386 . S
C66 C72 1.483 . S
C67 H48 0.949 . S
C67 C66 1.376 . S
C67 C68 1.397 . S
C68 H49 0.950 . S
C68 C67 1.397 . S
C68 C69 1.391 . S
C69 C68 1.391 . S
C69 C70 1.405 . S
C70 H50 0.950 . S
C70 C69 1.405 . S
C70 C71 1.367 . S
C71 H51 0.950 . S
C71 C66 1.386 . S
C71 C70 1.367 . S
C72 C66 1.483 . S
C72 C73 1.382 1_565 S
C72 C74 1.403 . S
C73 H52 0.950 1_545 S
C73 C72 1.382 1_545 S
C73 C89 1.411 . S
C74 C72 1.403 . S
C74 C75 1.489 . S
C74 C88 1.411 1_565 S
C75 C74 1.489 . S
C75 C76 1.383 . S
C75 C80 1.382 . S
C76 H53 0.950 . S
C76 C75 1.383 . S
C76 C77 1.395 . S
C77 H54 0.950 . S
C77 C76 1.395 . S
C77 C78 1.288 . S
C78 C77 1.288 . S
C78 C79 1.392 . S
C79 H55 0.951 . S
C79 C78 1.392 . S
C79 C80 1.392 . S
C80 H56 0.949 . S
C80 C75 1.382 . S
C80 C79 1.392 . S
C81 C82 1.376 . S
C81 C86 1.386 . S
C81 C87 1.483 . S
C82 H57 0.949 . S
C82 C81 1.376 . S
C82 C83 1.397 . S
C83 H58 0.950 . S
C83 C82 1.397 . S
C83 C84 1.391 . S
C84 C83 1.391 . S
C84 C85 1.405 . S
C85 H59 0.950 . S
C85 C84 1.405 . S
C85 C86 1.367 . S
C86 H60 0.950 . S
C86 C81 1.386 . S
C86 C85 1.367 . S
C87 C81 1.483 . S
C87 C88 1.382 . S
C87 C89 1.403 . S
C88 H61 0.950 . S
C88 C74 1.411 1_545 S
C88 C87 1.382 . S
C89 C73 1.411 . S
C89 C87 1.403 . S
C89 C90 1.489 . S
C90 C89 1.489 . S
C90 C91 1.383 . S
C90 C95 1.382 . S
C91 H62 0.950 . S
C91 C90 1.383 . S
C91 C92 1.395 . S
C92 H63 0.950 . S
C92 C91 1.395 . S
C92 C93 1.288 . S
C93 C92 1.288 . S
C93 C94 1.392 . S
C94 H64 0.951 . S
C94 C93 1.392 . S
C94 C95 1.392 . S
C95 H65 0.949 . S
C95 C90 1.382 . S
C95 C94 1.392 . S
H96 C115 0.949 . S
H97 C116 0.950 . S
H98 C118 0.950 . S
H99 C119 0.950 . S
H100 C121 0.950 . S
H101 C124 0.950 . S
H102 C125 0.950 . S
H103 C127 0.951 . S
H104 C128 0.949 . S
H105 C130 0.949 . S
H106 C131 0.950 . S
H107 C133 0.950 . S
H108 C134 0.950 . S
H109 C136 0.950 . S
H110 C139 0.950 . S
H111 C140 0.950 . S
H112 C142 0.951 . S
H113 C143 0.949 . S
C114 C115 1.376 . S
C114 C119 1.386 . S
C114 C120 1.483 . S
C115 H96 0.949 . S
C115 C114 1.376 . S
C115 C116 1.397 . S
C116 H97 0.950 . S
C116 C115 1.397 . S
C116 C117 1.391 . S
C117 C116 1.391 . S
C117 C118 1.405 . S
C118 H98 0.950 . S
C118 C117 1.405 . S
C118 C119 1.367 . S
C119 H99 0.950 . S
C119 C114 1.386 . S
C119 C118 1.367 . S
C120 C114 1.483 . S
C120 C121 1.382 . S
C120 C122 1.403 . S
C121 H100 0.950 . S
C121 C120 1.382 . S
C121 C137 1.411 . S
C122 C120 1.403 . S
C122 C123 1.489 . S
C122 C136 1.411 . S
C123 C122 1.489 . S
C123 C124 1.383 . S
C123 C128 1.382 . S
C124 H101 0.950 . S
C124 C123 1.383 . S
C124 C125 1.395 . S
C125 H102 0.950 . S
C125 C124 1.395 . S
C125 C126 1.288 . S
C126 C125 1.288 . S
C126 C127 1.392 . S
C127 H103 0.951 . S
C127 C126 1.392 . S
C127 C128 1.392 . S
C128 H104 0.949 . S
C128 C123 1.382 . S
C128 C127 1.392 . S
C129 C130 1.376 . S
C129 C134 1.386 . S
C129 C135 1.483 . S
C130 H105 0.949 . S
C130 C129 1.376 . S
C130 C131 1.397 . S
C131 H106 0.950 . S
C131 C130 1.397 . S
C131 C132 1.391 . S
C132 C131 1.391 . S
C132 C133 1.405 . S
C133 H107 0.950 . S
C133 C132 1.405 . S
C133 C134 1.367 . S
C134 H108 0.950 . S
C134 C129 1.386 . S
C134 C133 1.367 . S
C135 C129 1.483 . S
C135 C136 1.382 . S
C135 C137 1.403 . S
C136 H109 0.950 . S
C136 C122 1.411 . S
C136 C135 1.382 . S
C137 C121 1.411 . S
C137 C135 1.403 . S
C137 C138 1.489 . S
C138 C137 1.489 . S
C138 C139 1.383 . S
C138 C143 1.382 . S
C139 H110 0.950 . S
C139 C138 1.383 . S
C139 C140 1.395 . S
C140 H111 0.950 . S
C140 C139 1.395 . S
C140 C141 1.288 . S
C141 C140 1.288 . S
C141 C142 1.392 . S
C142 H112 0.951 . S
C142 C141 1.392 . S
C142 C143 1.392 . S
C143 H113 0.949 . S
C143 C138 1.382 . S
C143 C142 1.392 . S
H144 C163 0.949 . S
H145 C164 0.950 . S
H146 C166 0.950 . S
H147 C167 0.950 . S
H148 C169 0.954 . S
H149 C172 0.950 . S
H150 C173 0.950 . S
H151 C175 0.951 . S
H152 C176 0.949 . S
H153 C178 0.949 . S
H154 C179 0.950 . S
H155 C181 0.950 . S
H156 C182 0.950 . S
H157 C184 0.950 . S
H158 C187 0.950 . S
H159 C188 0.950 . S
H160 C190 0.951 . S
H161 C191 0.949 . S
C162 C163 1.376 . S
C162 C167 1.386 . S
C162 C168 1.483 . S
C163 H144 0.949 . S
C163 C162 1.376 . S
C163 C164 1.397 . S
C164 H145 0.950 . S
C164 C163 1.397 . S
C164 C165 1.391 . S
C165 C164 1.391 . S
C165 C166 1.405 . S
C166 H146 0.950 . S
C166 C165 1.405 . S
C166 C167 1.367 . S
C167 H147 0.950 . S
C167 C162 1.386 . S
C167 C166 1.367 . S
C168 C162 1.483 . S
C168 C169 1.371 1_455 S
C168 C170 1.403 . S
C169 H148 0.954 . S
C169 C168 1.371 1_655 S
C169 C185 1.418 . S
C170 C168 1.403 . S
C170 C171 1.489 . S
C170 C184 1.411 . S
C171 C170 1.489 . S
C171 C172 1.383 . S
C171 C176 1.382 . S
C172 H149 0.950 . S
C172 C171 1.383 . S
C172 C173 1.395 . S
C173 H150 0.950 . S
C173 C172 1.395 . S
C173 C174 1.288 . S
C174 C173 1.288 . S
C174 C175 1.392 . S
C175 H151 0.951 . S
C175 C174 1.392 . S
C175 C176 1.392 . S
C176 H152 0.949 . S
C176 C171 1.382 . S
C176 C175 1.392 . S
C177 C178 1.376 . S
C177 C182 1.386 . S
C177 C183 1.483 . S
C178 H153 0.949 . S
C178 C177 1.376 . S
C178 C179 1.397 . S
C179 H154 0.950 . S
C179 C178 1.397 . S
C179 C180 1.391 . S
C180 C179 1.391 . S
C180 C181 1.405 . S
C181 H155 0.950 . S
C181 C180 1.405 . S
C181 C182 1.367 . S
C182 H156 0.950 . S
C182 C177 1.386 . S
C182 C181 1.367 . S
C183 C177 1.483 . S
C183 C184 1.382 1_655 S
C183 C185 1.403 . S
C184 H157 0.950 . S
C184 C170 1.411 . S
C184 C183 1.382 1_455 S
C185 C169 1.418 . S
C185 C183 1.403 . S
C185 C186 1.489 . S
C186 C185 1.489 . S
C186 C187 1.383 . S
C186 C191 1.382 . S
C187 H158 0.950 . S
C187 C186 1.383 . S
C187 C188 1.395 . S
C188 H159 0.950 . S
C188 C187 1.395 . S
C188 C189 1.288 . S
C189 C188 1.288 . S
C189 C190 1.392 . S
C190 H160 0.951 . S
C190 C189 1.392 . S
C190 C191 1.392 . S
C191 H161 0.949 . S
C191 C186 1.382 . S
C191 C190 1.392 . S
H192 C211 0.949 . S
H193 C212 0.950 . S
H194 C214 0.950 . S
H195 C215 0.950 . S
H196 C217 0.950 . S
H197 C220 0.950 . S
H198 C221 0.950 . S
H199 C223 0.951 . S
H200 C224 0.949 . S
H201 C226 0.949 . S
H202 C227 0.950 . S
H203 C229 0.950 . S
H204 C230 0.950 . S
H205 C232 0.953 . S
H206 C235 0.950 . S
H207 C236 0.950 . S
H208 C238 0.951 . S
H209 C239 0.949 . S
C210 C211 1.376 . S
C210 C215 1.386 1_554 S
C210 C216 1.483 1_554 S
C211 H192 0.949 . S
C211 C210 1.376 . S
C211 C212 1.397 . S
C212 H193 0.950 . S
C212 C211 1.397 . S
C212 C213 1.391 . S
C213 C212 1.391 . S
C213 C214 1.405 . S
C214 H194 0.950 . S
C214 C213 1.405 . S
C214 C215 1.367 1_554 S
C215 H195 0.950 . S
C215 C210 1.386 1_556 S
C215 C214 1.367 1_556 S
C216 C210 1.483 1_556 S
C216 C217 1.382 1_556 S
C216 C218 1.403 . S
C217 H196 0.950 . S
C217 C216 1.382 1_554 S
C217 C233 1.411 1_545 S
C218 C216 1.403 . S
C218 C219 1.489 . S
C218 C232 1.411 . S
C219 C218 1.489 . S
C219 C220 1.383 . S
C219 C224 1.382 . S
C220 H197 0.950 . S
C220 C219 1.383 . S
C220 C221 1.395 . S
C221 H198 0.950 . S
C221 C220 1.395 . S
C221 C222 1.288 . S
C222 C221 1.288 . S
C222 C223 1.392 . S
C223 H199 0.951 . S
C223 C222 1.392 . S
C223 C224 1.392 . S
C224 H200 0.949 . S
C224 C219 1.382 . S
C224 C223 1.392 . S
C225 C226 1.376 . S
C225 C230 1.386 . S
C225 C231 1.483 . S
C226 H201 0.949 . S
C226 C225 1.376 . S
C226 C227 1.397 . S
C227 H202 0.950 . S
C227 C226 1.397 . S
C227 C228 1.391 . S
C228 C227 1.391 . S
C228 C229 1.405 . S
C229 H203 0.950 . S
C229 C228 1.405 . S
C229 C230 1.367 . S
C230 H204 0.950 . S
C230 C225 1.386 . S
C230 C229 1.367 . S
C231 C225 1.483 . S
C231 C232 1.382 1_565 S
C231 C233 1.403 1_556 S
C232 H205 0.953 . S
C232 C218 1.411 . S
C232 C231 1.382 1_545 S
C233 C217 1.411 1_565 S
C233 C231 1.403 1_554 S
C233 C234 1.489 . S
C234 C233 1.489 . S
C234 C235 1.383 . S
C234 C239 1.382 . S
C235 H206 0.950 . S
C235 C234 1.383 . S
C235 C236 1.395 . S
C236 H207 0.950 . S
C236 C235 1.395 . S
C236 C237 1.288 . S
C237 C236 1.288 . S
C237 C238 1.392 . S
C238 H208 0.951 . S
C238 C237 1.392 . S
C238 C239 1.392 . S
C239 H209 0.949 . S
C239 C234 1.382 . S
C239 C238 1.392 . S
H240 C259 0.949 . S
H241 C260 0.950 . S
H242 C262 0.950 . S
H243 C263 0.950 . S
H244 C265 0.950 . S
H245 C268 0.950 . S
H246 C269 0.950 . S
H247 C271 0.951 . S
H248 C272 0.949 . S
H249 C274 0.949 . S
H250 C275 0.950 . S
H251 C277 0.950 . S
H252 C278 0.950 . S
H253 C280 0.950 . S
H254 C283 0.950 . S
H255 C284 0.950 . S
H256 C286 0.951 . S
H257 C287 0.949 . S
C258 C259 1.376 . S
C258 C263 1.386 . S
C258 C264 1.483 . S
C259 H240 0.949 . S
C259 C258 1.376 . S
C259 C260 1.397 . S
C260 H241 0.950 . S
C260 C259 1.397 . S
C260 C261 1.391 . S
C261 C260 1.391 . S
C261 C262 1.405 . S
C262 H242 0.950 . S
C262 C261 1.405 . S
C262 C263 1.367 . S
C263 H243 0.950 . S
C263 C258 1.386 . S
C263 C262 1.367 . S
C264 C258 1.483 . S
C264 C265 1.382 . S
C264 C266 1.403 . S
C265 H244 0.950 . S
C265 C264 1.382 . S
C265 C281 1.411 . S
C266 C264 1.403 . S
C266 C267 1.489 . S
C266 C280 1.411 . S
C267 C266 1.489 . S
C267 C268 1.383 . S
C267 C272 1.382 . S
C268 H245 0.950 . S
C268 C267 1.383 . S
C268 C269 1.395 . S
C269 H246 0.950 . S
C269 C268 1.395 . S
C269 C270 1.288 . S
C270 C269 1.288 . S
C270 C271 1.392 . S
C271 H247 0.951 . S
C271 C270 1.392 . S
C271 C272 1.392 . S
C272 H248 0.949 . S
C272 C267 1.382 . S
C272 C271 1.392 . S
C273 C274 1.376 . S
C273 C278 1.386 . S
C273 C279 1.483 . S
C274 H249 0.949 . S
C274 C273 1.376 . S
C274 C275 1.397 . S
C275 H250 0.950 . S
C275 C274 1.397 . S
C275 C276 1.391 . S
C276 C275 1.391 . S
C276 C277 1.405 . S
C277 H251 0.950 . S
C277 C276 1.405 . S
C277 C278 1.367 . S
C278 H252 0.950 . S
C278 C273 1.386 . S
C278 C277 1.367 . S
C279 C273 1.483 . S
C279 C280 1.382 . S
C279 C281 1.403 . S
C280 H253 0.950 . S
C280 C266 1.411 . S
C280 C279 1.382 . S
C281 C265 1.411 . S
C281 C279 1.403 . S
C281 C282 1.489 . S
C282 C281 1.489 . S
C282 C283 1.383 . S
C282 C287 1.382 . S
C283 H254 0.950 . S
C283 C282 1.383 . S
C283 C284 1.395 . S
C284 H255 0.950 . S
C284 C283 1.395 . S
C284 C285 1.288 . S
C285 C284 1.288 . S
C285 C286 1.392 . S
C286 H256 0.951 . S
C286 C285 1.392 . S
C286 C287 1.392 . S
C287 H257 0.949 . S
C287 C282 1.382 . S
C287 C286 1.392 . S
Mg288 O289 2.028 . S
Mg288 O295 1.986 . S
Mg288 O297 2.114 . S
Mg288 O298 2.251 . S
Mg288 O301 2.010 . S
O289 Mg288 2.028 . S
O289 C292 1.250 . S
O290 Mg291 2.028 . S
O290 C292 1.248 . S
Mg291 O290 2.028 . S
Mg291 O296 2.032 . S
Mg291 O298 2.079 . S
C292 O289 1.250 . S
C292 O290 1.248 . S
C293 O294 1.264 . S
C293 O301 1.249 . S
O294 C293 1.264 . S
O295 Mg288 1.986 . S
O295 C299 1.246 . S
O296 Mg291 2.032 . S
O296 C299 1.259 . S
O297 Mg288 2.114 . S
O297 C300 1.252 . S
O298 Mg288 2.251 . S
O298 Mg291 2.079 . S
O298 C300 1.273 . S
C299 O295 1.246 . S
C299 O296 1.259 . S
C300 O297 1.252 . S
C300 O298 1.273 . S
O301 Mg288 2.010 . S
O301 C293 1.249 . S
Mg302 O303 2.028 . S
Mg302 O309 1.986 . S
Mg302 O311 2.114 . S
Mg302 O312 2.251 . S
Mg302 O315 2.010 . S
O303 Mg302 2.028 . S
O303 C306 1.250 . S
O304 Mg305 2.028 . S
O304 C306 1.248 . S
Mg305 O304 2.028 . S
Mg305 O310 2.032 . S
Mg305 O312 2.079 . S
C306 O303 1.250 . S
C306 O304 1.248 . S
C307 O308 1.264 . S
C307 O315 1.249 . S
O308 C307 1.264 . S
O309 Mg302 1.986 . S
O309 C313 1.246 . S
O310 Mg305 2.032 . S
O310 C313 1.259 . S
O311 Mg302 2.114 . S
O311 C314 1.252 . S
O312 Mg302 2.251 . S
O312 Mg305 2.079 . S
O312 C314 1.273 . S
C313 O309 1.246 . S
C313 O310 1.259 . S
C314 O311 1.252 . S
C314 O312 1.273 . S
O315 Mg302 2.010 . S
O315 C307 1.249 . S
Mg316 O317 2.028 . S
Mg316 O323 1.986 . S
Mg316 O325 2.114 . S
Mg316 O326 2.251 . S
Mg316 O329 2.010 . S
O317 Mg316 2.028 . S
O317 C320 1.250 . S
O318 Mg319 2.028 . S
O318 C320 1.248 . S
Mg319 O318 2.028 . S
Mg319 O324 2.032 . S
Mg319 O326 2.079 . S
C320 O317 1.250 . S
C320 O318 1.248 . S
C321 O322 1.264 . S
C321 O329 1.249 . S
O322 C321 1.264 . S
O323 Mg316 1.986 . S
O323 C327 1.246 . S
O324 Mg319 2.032 . S
O324 C327 1.259 . S
O325 Mg316 2.114 . S
O325 C328 1.252 . S
O326 Mg316 2.251 . S
O326 Mg319 2.079 . S
O326 C328 1.273 . S
C327 O323 1.246 . S
C327 O324 1.259 . S
C328 O325 1.252 . S
C328 O326 1.273 . S
O329 Mg316 2.010 . S
O329 C321 1.249 . S
Mg330 O331 2.028 . S
Mg330 O337 1.986 . S
Mg330 O339 2.114 . S
Mg330 O340 2.251 . S
Mg330 O343 2.010 . S
O331 Mg330 2.028 . S
O331 C334 1.250 . S
O332 Mg333 2.028 . S
O332 C334 1.248 . S
Mg333 O332 2.028 . S
Mg333 O338 2.032 . S
Mg333 O340 2.079 . S
C334 O331 1.250 . S
C334 O332 1.248 . S
C335 O336 1.264 . S
C335 O343 1.249 . S
O336 C335 1.264 . S
O337 Mg330 1.986 . S
O337 C341 1.246 . S
O338 Mg333 2.032 . S
O338 C341 1.259 . S
O339 Mg330 2.114 . S
O339 C342 1.252 . S
O340 Mg330 2.251 . S
O340 Mg333 2.079 . S
O340 C342 1.273 . S
C341 O337 1.246 . S
C341 O338 1.259 . S
C342 O339 1.252 . S
C342 O340 1.273 . S
O343 Mg330 2.010 . S
O343 C335 1.249 . S
Mg344 O345 2.028 . S
Mg344 O351 1.986 . S
Mg344 O353 2.114 . S
Mg344 O354 2.251 . S
Mg344 O357 2.010 . S
O345 Mg344 2.028 . S
O345 C348 1.250 . S
O346 Mg347 2.028 . S
O346 C348 1.248 . S
Mg347 O346 2.028 . S
Mg347 O352 2.032 . S
Mg347 O354 2.079 . S
C348 O345 1.250 . S
C348 O346 1.248 . S
C349 O350 1.264 . S
C349 O357 1.249 . S
O350 C349 1.264 . S
O351 Mg344 1.986 . S
O351 C355 1.246 . S
O352 Mg347 2.032 . S
O352 C355 1.259 . S
O353 Mg344 2.114 . S
O353 C356 1.252 . S
O354 Mg344 2.251 . S
O354 Mg347 2.079 . S
O354 C356 1.273 . S
C355 O351 1.246 . S
C355 O352 1.259 . S
C356 O353 1.252 . S
C356 O354 1.273 . S
O357 Mg344 2.010 . S
O357 C349 1.249 . S
Mg358 O359 2.028 . S
Mg358 O365 1.986 . S
Mg358 O367 2.114 . S
Mg358 O368 2.251 . S
Mg358 O371 2.010 . S
O359 Mg358 2.028 . S
O359 C362 1.250 . S
O360 Mg361 2.028 . S
O360 C362 1.248 . S
Mg361 O360 2.028 . S
Mg361 O366 2.032 . S
Mg361 O368 2.079 . S
C362 O359 1.250 . S
C362 O360 1.248 . S
C363 O364 1.264 . S
C363 O371 1.249 . S
O364 C363 1.264 . S
O365 Mg358 1.986 . S
O365 C369 1.246 . S
O366 Mg361 2.032 . S
O366 C369 1.259 . S
O367 Mg358 2.114 . S
O367 C370 1.252 . S
O368 Mg358 2.251 . S
O368 Mg361 2.079 . S
O368 C370 1.273 . S
C369 O365 1.246 . S
C369 O366 1.259 . S
C370 O367 1.252 . S
C370 O368 1.273 . S
O371 Mg358 2.010 . S
O371 C363 1.249 . S
C372 C373 1.391 . S
C372 C374 1.394 . S
C372 H388 0.931 . S
C373 C372 1.391 . S
C373 C377 1.376 . S
C374 C372 1.394 . S
C374 C375 1.369 . S
C374 C378 1.531 . S
C375 C374 1.369 . S
C375 C376 1.410 . S
C375 C383 1.503 . S
C376 C375 1.410 . S
C376 C377 1.392 . S
C376 C379 1.511 . S
C377 C373 1.376 . S
C377 C376 1.392 . S
C377 H389 0.929 . S
C378 C374 1.531 . S
C378 H390 0.960 . S
C378 H391 0.962 . S
C378 H392 0.960 . S
C379 C376 1.511 . S
C379 H393 0.961 . S
C379 H394 0.961 . S
C379 H395 0.961 . S
C380 C381 1.370 . S
C380 C382 1.363 . S
C380 H396 0.931 . S
C381 C380 1.370 . S
C381 C385 1.408 . S
C382 C380 1.363 . S
C382 C383 1.370 . S
C382 C386 1.524 . S
C383 C375 1.503 . S
C383 C382 1.370 . S
C383 C384 1.403 . S
C384 C383 1.403 . S
C384 C385 1.404 . S
C384 C387 1.539 . S
C385 C381 1.408 . S
C385 C384 1.404 . S
C385 H397 0.930 . S
C386 C382 1.524 . S
C386 H398 0.956 . S
C386 H399 0.961 . S
C386 H400 0.961 . S
C387 C384 1.539 . S
C387 H401 0.958 . S
C387 H402 0.961 . S
C387 H403 0.960 . S
H388 C372 0.931 . S
H389 C377 0.929 . S
H390 C378 0.960 . S
H391 C378 0.962 . S
H392 C378 0.960 . S
H393 C379 0.961 . S
H394 C379 0.961 . S
H395 C379 0.961 . S
H396 C380 0.931 . S
H397 C385 0.930 . S
H398 C386 0.956 . S
H399 C386 0.961 . S
H400 C386 0.961 . S
H401 C387 0.958 . S
H402 C387 0.961 . S
H403 C387 0.960 . S
C404 C405 1.391 . S
C404 C406 1.394 . S
C404 H420 0.931 . S
C405 C404 1.391 . S
C405 C409 1.376 . S
C406 C404 1.394 . S
C406 C407 1.369 . S
C406 C410 1.531 . S
C407 C406 1.369 . S
C407 C408 1.410 . S
C407 C415 1.503 . S
C408 C407 1.410 . S
C408 C409 1.392 . S
C408 C411 1.511 . S
C409 C405 1.376 . S
C409 C408 1.392 . S
C409 H421 0.929 . S
C410 C406 1.531 . S
C410 H422 0.960 . S
C410 H423 0.962 . S
C410 H424 0.960 . S
C411 C408 1.511 . S
C411 H425 0.961 . S
C411 H426 0.961 . S
C411 H427 0.961 . S
C412 C413 1.370 . S
C412 C414 1.363 . S
C412 H428 0.931 . S
C413 C412 1.370 . S
C413 C417 1.408 . S
C414 C412 1.363 . S
C414 C415 1.370 . S
C414 C418 1.524 . S
C415 C407 1.503 . S
C415 C414 1.370 . S
C415 C416 1.403 . S
C416 C415 1.403 . S
C416 C417 1.404 . S
C416 C419 1.539 . S
C417 C413 1.408 . S
C417 C416 1.404 . S
C417 H429 0.930 . S
C418 C414 1.524 . S
C418 H430 0.956 . S
C418 H431 0.961 . S
C418 H432 0.961 . S
C419 C416 1.539 . S
C419 H433 0.958 . S
C419 H434 0.961 . S
C419 H435 0.960 . S
H420 C404 0.931 . S
H421 C409 0.929 . S
H422 C410 0.960 . S
H423 C410 0.962 . S
H424 C410 0.960 . S
H425 C411 0.961 . S
H426 C411 0.961 . S
H427 C411 0.961 . S
H428 C412 0.931 . S
H429 C417 0.930 . S
H430 C418 0.956 . S
H431 C418 0.961 . S
H432 C418 0.961 . S
H433 C419 0.958 . S
H434 C419 0.961 . S
H435 C419 0.960 . S
C436 C437 1.391 . S
C436 C438 1.394 . S
C436 H452 0.931 . S
C437 C436 1.391 . S
C437 C441 1.376 . S
C438 C436 1.394 . S
C438 C439 1.369 . S
C438 C442 1.531 . S
C439 C438 1.369 . S
C439 C440 1.410 . S
C439 C447 1.503 . S
C440 C439 1.410 . S
C440 C441 1.392 . S
C440 C443 1.511 . S
C441 C437 1.376 . S
C441 C440 1.392 . S
C441 H453 0.929 . S
C442 C438 1.531 . S
C442 H454 0.960 . S
C442 H455 0.962 . S
C442 H456 0.960 . S
C443 C440 1.511 . S
C443 H457 0.961 . S
C443 H458 0.961 . S
C443 H459 0.961 . S
C444 C445 1.370 . S
C444 C446 1.363 . S
C444 H460 0.931 . S
C445 C444 1.370 . S
C445 C449 1.408 . S
C446 C444 1.363 . S
C446 C447 1.370 . S
C446 C450 1.524 . S
C447 C439 1.503 . S
C447 C446 1.370 . S
C447 C448 1.403 . S
C448 C447 1.403 . S
C448 C449 1.404 . S
C448 C451 1.539 . S
C449 C445 1.408 . S
C449 C448 1.404 . S
C449 H461 0.930 . S
C450 C446 1.524 . S
C450 H462 0.956 . S
C450 H463 0.961 . S
C450 H464 0.961 . S
C451 C448 1.539 . S
C451 H465 0.958 . S
C451 H466 0.961 . S
C451 H467 0.960 . S
H452 C436 0.931 . S
H453 C441 0.929 . S
H454 C442 0.960 . S
H455 C442 0.962 . S
H456 C442 0.960 . S
H457 C443 0.961 . S
H458 C443 0.961 . S
H459 C443 0.961 . S
H460 C444 0.931 . S
H461 C449 0.930 . S
H462 C450 0.956 . S
H463 C450 0.961 . S
H464 C450 0.961 . S
H465 C451 0.958 . S
H466 C451 0.961 . S
H467 C451 0.960 . S
C468 C469 1.391 . S
C468 C470 1.394 . S
C468 H484 0.931 . S
C469 C468 1.391 . S
C469 C473 1.376 . S
C470 C468 1.394 . S
C470 C471 1.369 . S
C470 C474 1.531 . S
C471 C470 1.369 . S
C471 C472 1.410 . S
C471 C479 1.503 . S
C472 C471 1.410 . S
C472 C473 1.392 . S
C472 C475 1.511 . S
C473 C469 1.376 . S
C473 C472 1.392 . S
C473 H485 0.929 . S
C474 C470 1.531 . S
C474 H486 0.960 . S
C474 H487 0.962 . S
C474 H488 0.960 . S
C475 C472 1.511 . S
C475 H489 0.961 . S
C475 H490 0.961 . S
C475 H491 0.961 . S
C476 C477 1.370 . S
C476 C478 1.363 . S
C476 H492 0.931 . S
C477 C476 1.370 . S
C477 C481 1.408 . S
C478 C476 1.363 . S
C478 C479 1.370 . S
C478 C482 1.524 . S
C479 C471 1.503 . S
C479 C478 1.370 . S
C479 C480 1.403 . S
C480 C479 1.403 . S
C480 C481 1.404 . S
C480 C483 1.539 . S
C481 C477 1.408 . S
C481 C480 1.404 . S
C481 H493 0.930 . S
C482 C478 1.524 . S
C482 H494 0.956 . S
C482 H495 0.961 . S
C482 H496 0.961 . S
C483 C480 1.539 . S
C483 H497 0.958 . S
C483 H498 0.961 . S
C483 H499 0.960 . S
H484 C468 0.931 . S
H485 C473 0.929 . S
H486 C474 0.960 . S
H487 C474 0.962 . S
H488 C474 0.960 . S
H489 C475 0.961 . S
H490 C475 0.961 . S
H491 C475 0.961 . S
H492 C476 0.931 . S
H493 C481 0.930 . S
H494 C482 0.956 . S
H495 C482 0.961 . S
H496 C482 0.961 . S
H497 C483 0.958 . S
H498 C483 0.961 . S
H499 C483 0.960 . S
C500 C501 1.391 . S
C500 C502 1.394 . S
C500 H516 0.931 . S
C501 C500 1.391 . S
C501 C505 1.376 . S
C502 C500 1.394 . S
C502 C503 1.369 . S
C502 C506 1.531 . S
C503 C502 1.369 . S
C503 C504 1.410 . S
C503 C511 1.503 . S
C504 C503 1.410 . S
C504 C505 1.392 . S
C504 C507 1.511 . S
C505 C501 1.376 . S
C505 C504 1.392 . S
C505 H517 0.929 . S
C506 C502 1.531 . S
C506 H518 0.960 . S
C506 H519 0.962 . S
C506 H520 0.960 . S
C507 C504 1.511 . S
C507 H521 0.961 . S
C507 H522 0.961 . S
C507 H523 0.961 . S
C508 C509 1.370 . S
C508 C510 1.363 . S
C508 H524 0.931 . S
C509 C508 1.370 . S
C509 C513 1.408 . S
C510 C508 1.363 . S
C510 C511 1.370 . S
C510 C514 1.524 . S
C511 C503 1.503 . S
C511 C510 1.370 . S
C511 C512 1.403 . S
C512 C511 1.403 . S
C512 C513 1.404 . S
C512 C515 1.539 . S
C513 C509 1.408 . S
C513 C512 1.404 . S
C513 H525 0.930 . S
C514 C510 1.524 . S
C514 H526 0.956 . S
C514 H527 0.961 . S
C514 H528 0.961 . S
C515 C512 1.539 . S
C515 H529 0.958 . S
C515 H530 0.961 . S
C515 H531 0.960 . S
H516 C500 0.931 . S
H517 C505 0.929 . S
H518 C506 0.960 . S
H519 C506 0.962 . S
H520 C506 0.960 . S
H521 C507 0.961 . S
H522 C507 0.961 . S
H523 C507 0.961 . S
H524 C508 0.931 . S
H525 C513 0.930 . S
H526 C514 0.956 . S
H527 C514 0.961 . S
H528 C514 0.961 . S
H529 C515 0.958 . S
H530 C515 0.961 . S
H531 C515 0.960 . S
C532 C533 1.391 . S
C532 C534 1.394 . S
C532 H548 0.931 . S
C533 C532 1.391 . S
C533 C537 1.376 . S
C534 C532 1.394 . S
C534 C535 1.369 . S
C534 C538 1.531 . S
C535 C534 1.369 . S
C535 C536 1.410 . S
C535 C543 1.503 . S
C536 C535 1.410 . S
C536 C537 1.392 . S
C536 C539 1.511 . S
C537 C533 1.376 . S
C537 C536 1.392 . S
C537 H549 0.929 . S
C538 C534 1.531 . S
C538 H550 0.960 . S
C538 H551 0.962 . S
C538 H552 0.960 . S
C539 C536 1.511 . S
C539 H553 0.961 . S
C539 H554 0.961 . S
C539 H555 0.961 . S
C540 C541 1.370 . S
C540 C542 1.363 . S
C540 H556 0.931 . S
C541 C540 1.370 . S
C541 C545 1.408 . S
C542 C540 1.363 . S
C542 C543 1.370 . S
C542 C546 1.524 . S
C543 C535 1.503 . S
C543 C542 1.370 . S
C543 C544 1.403 . S
C544 C543 1.403 . S
C544 C545 1.404 . S
C544 C547 1.539 . S
C545 C541 1.408 . S
C545 C544 1.404 . S
C545 H557 0.930 . S
C546 C542 1.524 . S
C546 H558 0.956 . S
C546 H559 0.961 . S
C546 H560 0.961 . S
C547 C544 1.539 . S
C547 H561 0.958 . S
C547 H562 0.961 . S
C547 H563 0.960 . S
H548 C532 0.931 . S
H549 C537 0.929 . S
H550 C538 0.960 . S
H551 C538 0.962 . S
H552 C538 0.960 . S
H553 C539 0.961 . S
H554 C539 0.961 . S
H555 C539 0.961 . S
H556 C540 0.931 . S
H557 C545 0.930 . S
H558 C546 0.956 . S
H559 C546 0.961 . S
H560 C546 0.961 . S
H561 C547 0.958 . S
H562 C547 0.961 . S
H563 C547 0.960 . S
C564 C565 1.391 . S
C564 C566 1.394 . S
C564 H580 0.931 . S
C565 C564 1.391 . S
C565 C569 1.376 . S
C566 C564 1.394 . S
C566 C567 1.369 . S
C566 C570 1.531 . S
C567 C566 1.369 . S
C567 C568 1.410 . S
C567 C575 1.503 . S
C568 C567 1.410 . S
C568 C569 1.392 . S
C568 C571 1.511 . S
C569 C565 1.376 . S
C569 C568 1.392 . S
C569 H581 0.929 . S
C570 C566 1.531 . S
C570 H582 0.960 . S
C570 H583 0.962 . S
C570 H584 0.960 . S
C571 C568 1.511 . S
C571 H585 0.961 . S
C571 H586 0.961 . S
C571 H587 0.961 . S
C572 C573 1.370 . S
C572 C574 1.363 . S
C572 H588 0.931 . S
C573 C572 1.370 . S
C573 C577 1.408 . S
C574 C572 1.363 . S
C574 C575 1.370 . S
C574 C578 1.524 . S
C575 C567 1.503 . S
C575 C574 1.370 . S
C575 C576 1.403 . S
C576 C575 1.403 . S
C576 C577 1.404 . S
C576 C579 1.539 . S
C577 C573 1.408 . S
C577 C576 1.404 . S
C577 H589 0.930 . S
C578 C574 1.524 . S
C578 H590 0.956 . S
C578 H591 0.961 . S
C578 H592 0.961 . S
C579 C576 1.539 . S
C579 H593 0.958 . S
C579 H594 0.961 . S
C579 H595 0.960 . S
H580 C564 0.931 . S
H581 C569 0.929 . S
H582 C570 0.960 . S
H583 C570 0.962 . S
H584 C570 0.960 . S
H585 C571 0.961 . S
H586 C571 0.961 . S
H587 C571 0.961 . S
H588 C572 0.931 . S
H589 C577 0.930 . S
H590 C578 0.956 . S
H591 C578 0.961 . S
H592 C578 0.961 . S
H593 C579 0.958 . S
H594 C579 0.961 . S
H595 C579 0.960 . S
C596 C597 1.391 . S
C596 C598 1.394 . S
C596 H612 0.931 . S
C597 C596 1.391 . S
C597 C601 1.376 . S
C598 C596 1.394 . S
C598 C599 1.369 . S
C598 C602 1.531 . S
C599 C598 1.369 . S
C599 C600 1.410 . S
C599 C607 1.503 . S
C600 C599 1.410 . S
C600 C601 1.392 . S
C600 C603 1.511 . S
C601 C597 1.376 . S
C601 C600 1.392 . S
C601 H613 0.929 . S
C602 C598 1.531 . S
C602 H614 0.960 . S
C602 H615 0.962 . S
C602 H616 0.960 . S
C603 C600 1.511 . S
C603 H617 0.961 . S
C603 H618 0.961 . S
C603 H619 0.961 . S
C604 C605 1.370 . S
C604 C606 1.363 . S
C604 H620 0.931 . S
C605 C604 1.370 . S
C605 C609 1.408 . S
C606 C604 1.363 . S
C606 C607 1.370 . S
C606 C610 1.524 . S
C607 C599 1.503 . S
C607 C606 1.370 . S
C607 C608 1.403 . S
C608 C607 1.403 . S
C608 C609 1.404 . S
C608 C611 1.539 . S
C609 C605 1.408 . S
C609 C608 1.404 . S
C609 H621 0.930 . S
C610 C606 1.524 . S
C610 H622 0.956 . S
C610 H623 0.961 . S
C610 H624 0.961 . S
C611 C608 1.539 . S
C611 H625 0.958 . S
C611 H626 0.961 . S
C611 H627 0.960 . S
H612 C596 0.931 . S
H613 C601 0.929 . S
H614 C602 0.960 . S
H615 C602 0.962 . S
H616 C602 0.960 . S
H617 C603 0.961 . S
H618 C603 0.961 . S
H619 C603 0.961 . S
H620 C604 0.931 . S
H621 C609 0.930 . S
H622 C610 0.956 . S
H623 C610 0.961 . S
H624 C610 0.961 . S
H625 C611 0.958 . S
H626 C611 0.961 . S
H627 C611 0.960 . S
C628 C629 1.391 . S
C628 C630 1.394 . S
C628 H644 0.931 . S
C629 C628 1.391 . S
C629 C633 1.376 . S
C630 C628 1.394 . S
C630 C631 1.369 . S
C630 C634 1.531 . S
C631 C630 1.369 . S
C631 C632 1.410 . S
C631 C639 1.503 . S
C632 C631 1.410 . S
C632 C633 1.392 . S
C632 C635 1.511 . S
C633 C629 1.376 . S
C633 C632 1.392 . S
C633 H645 0.929 . S
C634 C630 1.531 . S
C634 H646 0.960 . S
C634 H647 0.962 . S
C634 H648 0.960 . S
C635 C632 1.511 . S
C635 H649 0.961 . S
C635 H650 0.961 . S
C635 H651 0.961 . S
C636 C637 1.370 . S
C636 C638 1.363 . S
C636 H652 0.931 . S
C637 C636 1.370 . S
C637 C641 1.408 . S
C638 C636 1.363 . S
C638 C639 1.370 . S
C638 C642 1.524 . S
C639 C631 1.503 . S
C639 C638 1.370 . S
C639 C640 1.403 . S
C640 C639 1.403 . S
C640 C641 1.404 . S
C640 C643 1.539 . S
C641 C637 1.408 . S
C641 C640 1.404 . S
C641 H653 0.930 . S
C642 C638 1.524 . S
C642 H654 0.956 . S
C642 H655 0.961 . S
C642 H656 0.961 . S
C643 C640 1.539 . S
C643 H657 0.958 . S
C643 H658 0.961 . S
C643 H659 0.960 . S
H644 C628 0.931 . S
H645 C633 0.929 . S
H646 C634 0.960 . S
H647 C634 0.962 . S
H648 C634 0.960 . S
H649 C635 0.961 . S
H650 C635 0.961 . S
H651 C635 0.961 . S
H652 C636 0.931 . S
H653 C641 0.930 . S
H654 C642 0.956 . S
H655 C642 0.961 . S
H656 C642 0.961 . S
H657 C643 0.958 . S
H658 C643 0.961 . S
H659 C643 0.960 . S
C660 C661 1.391 . S
C660 C662 1.394 . S
C660 H676 0.931 . S
C661 C660 1.391 . S
C661 C665 1.376 . S
C662 C660 1.394 . S
C662 C663 1.369 . S
C662 C666 1.531 . S
C663 C662 1.369 . S
C663 C664 1.410 . S
C663 C671 1.503 . S
C664 C663 1.410 . S
C664 C665 1.392 . S
C664 C667 1.511 . S
C665 C661 1.376 . S
C665 C664 1.392 . S
C665 H677 0.929 . S
C666 C662 1.531 . S
C666 H678 0.960 . S
C666 H679 0.962 . S
C666 H680 0.960 . S
C667 C664 1.511 . S
C667 H681 0.961 . S
C667 H682 0.961 . S
C667 H683 0.961 . S
C668 C669 1.370 . S
C668 C670 1.363 . S
C668 H684 0.931 . S
C669 C668 1.370 . S
C669 C673 1.408 . S
C670 C668 1.363 . S
C670 C671 1.370 . S
C670 C674 1.524 . S
C671 C663 1.503 . S
C671 C670 1.370 . S
C671 C672 1.403 . S
C672 C671 1.403 . S
C672 C673 1.404 . S
C672 C675 1.539 . S
C673 C669 1.408 . S
C673 C672 1.404 . S
C673 H685 0.930 . S
C674 C670 1.524 . S
C674 H686 0.956 . S
C674 H687 0.961 . S
C674 H688 0.961 1_554 S
C675 C672 1.539 . S
C675 H689 0.958 . S
C675 H690 0.961 . S
C675 H691 0.960 . S
H676 C660 0.931 . S
H677 C665 0.929 . S
H678 C666 0.960 . S
H679 C666 0.962 . S
H680 C666 0.960 . S
H681 C667 0.961 . S
H682 C667 0.961 . S
H683 C667 0.961 . S
H684 C668 0.931 . S
H685 C673 0.930 . S
H686 C674 0.956 . S
H687 C674 0.961 . S
H688 C674 0.961 1_556 S
H689 C675 0.958 . S
H690 C675 0.961 . S
H691 C675 0.960 . S
C692 C693 1.391 . S
C692 C694 1.394 . S
C692 H708 0.931 . S
C693 C692 1.391 . S
C693 C697 1.376 . S
C694 C692 1.394 . S
C694 C695 1.369 . S
C694 C698 1.531 . S
C695 C694 1.369 . S
C695 C696 1.410 . S
C695 C703 1.503 . S
C696 C695 1.410 . S
C696 C697 1.392 . S
C696 C699 1.511 . S
C697 C693 1.376 . S
C697 C696 1.392 . S
C697 H709 0.929 . S
C698 C694 1.531 . S
C698 H710 0.960 . S
C698 H711 0.962 . S
C698 H712 0.960 . S
C699 C696 1.511 . S
C699 H713 0.961 . S
C699 H714 0.961 . S
C699 H715 0.961 . S
C700 C701 1.370 . S
C700 C702 1.363 . S
C700 H716 0.931 . S
C701 C700 1.370 . S
C701 C705 1.408 . S
C702 C700 1.363 . S
C702 C703 1.370 . S
C702 C706 1.524 . S
C703 C695 1.503 . S
C703 C702 1.370 . S
C703 C704 1.403 . S
C704 C703 1.403 . S
C704 C705 1.404 . S
C704 C707 1.539 . S
C705 C701 1.408 . S
C705 C704 1.404 . S
C705 H717 0.930 . S
C706 C702 1.524 . S
C706 H718 0.956 . S
C706 H719 0.961 . S
C706 H720 0.961 . S
C707 C704 1.539 . S
C707 H721 0.958 . S
C707 H722 0.961 . S
C707 H723 0.960 . S
H708 C692 0.931 . S
H709 C697 0.929 . S
H710 C698 0.960 . S
H711 C698 0.962 . S
H712 C698 0.960 . S
H713 C699 0.961 . S
H714 C699 0.961 . S
H715 C699 0.961 . S
H716 C700 0.931 . S
H717 C705 0.930 . S
H718 C706 0.956 . S
H719 C706 0.961 . S
H720 C706 0.961 . S
H721 C707 0.958 . S
H722 C707 0.961 . S
H723 C707 0.960 . S
C724 C725 1.391 . S
C724 C726 1.394 . S
C724 H740 0.931 . S
C725 C724 1.391 . S
C725 C729 1.376 . S
C726 C724 1.394 . S
C726 C727 1.369 . S
C726 C730 1.531 . S
C727 C726 1.369 . S
C727 C728 1.410 . S
C727 C735 1.503 . S
C728 C727 1.410 . S
C728 C729 1.392 . S
C728 C731 1.511 . S
C729 C725 1.376 . S
C729 C728 1.392 . S
C729 H741 0.929 . S
C730 C726 1.531 . S
C730 H742 0.960 . S
C730 H743 0.962 . S
C730 H744 0.960 . S
C731 C728 1.511 . S
C731 H745 0.961 . S
C731 H746 0.961 . S
C731 H747 0.961 . S
C732 C733 1.370 . S
C732 C734 1.363 . S
C732 H748 0.931 . S
C733 C732 1.370 . S
C733 C737 1.408 . S
C734 C732 1.363 . S
C734 C735 1.370 . S
C734 C738 1.524 . S
C735 C727 1.503 . S
C735 C734 1.370 . S
C735 C736 1.403 . S
C736 C735 1.403 . S
C736 C737 1.404 . S
C736 C739 1.539 . S
C737 C733 1.408 . S
C737 C736 1.404 . S
C737 H749 0.930 . S
C738 C734 1.524 . S
C738 H750 0.956 . S
C738 H751 0.961 . S
C738 H752 0.961 . S
C739 C736 1.539 . S
C739 H753 0.958 . S
C739 H754 0.961 . S
C739 H755 0.960 . S
H740 C724 0.931 . S
H741 C729 0.929 . S
H742 C730 0.960 . S
H743 C730 0.962 . S
H744 C730 0.960 . S
H745 C731 0.961 . S
H746 C731 0.961 . S
H747 C731 0.961 . S
H748 C732 0.931 . S
H749 C737 0.930 . S
H750 C738 0.956 . S
H751 C738 0.961 . S
H752 C738 0.961 . S
H753 C739 0.958 . S
H754 C739 0.961 . S
H755 C739 0.960 . S
C756 C757 1.391 . S
C756 C758 1.394 . S
C756 H772 0.931 . S
C757 C756 1.391 . S
C757 C761 1.376 . S
C758 C756 1.394 . S
C758 C759 1.369 . S
C758 C762 1.531 . S
C759 C758 1.369 . S
C759 C760 1.410 . S
C759 C767 1.503 . S
C760 C759 1.410 . S
C760 C761 1.392 . S
C760 C763 1.511 . S
C761 C757 1.376 . S
C761 C760 1.392 . S
C761 H773 0.929 . S
C762 C758 1.531 . S
C762 H774 0.960 . S
C762 H775 0.962 . S
C762 H776 0.960 . S
C763 C760 1.511 . S
C763 H777 0.961 . S
C763 H778 0.961 . S
C763 H779 0.961 . S
C764 C765 1.370 . S
C764 C766 1.363 . S
C764 H780 0.931 . S
C765 C764 1.370 . S
C765 C769 1.408 . S
C766 C764 1.363 . S
C766 C767 1.370 . S
C766 C770 1.524 . S
C767 C759 1.503 . S
C767 C766 1.370 . S
C767 C768 1.403 . S
C768 C767 1.403 . S
C768 C769 1.404 . S
C768 C771 1.539 . S
C769 C765 1.408 . S
C769 C768 1.404 . S
C769 H781 0.930 . S
C770 C766 1.524 . S
C770 H782 0.956 . S
C770 H783 0.961 . S
C770 H784 0.961 . S
C771 C768 1.539 . S
C771 H785 0.958 . S
C771 H786 0.961 . S
C771 H787 0.960 . S
H772 C756 0.931 . S
H773 C761 0.929 . S
H774 C762 0.960 . S
H775 C762 0.962 . S
H776 C762 0.960 . S
H777 C763 0.961 . S
H778 C763 0.961 . S
H779 C763 0.961 . S
H780 C764 0.931 . S
H781 C769 0.930 . S
H782 C770 0.956 . S
H783 C770 0.961 . S
H784 C770 0.961 . S
H785 C771 0.958 . S
H786 C771 0.961 . S
H787 C771 0.960 . S
C788 C789 1.391 . S
C788 C790 1.394 . S
C788 H804 0.931 . S
C789 C788 1.391 . S
C789 C793 1.376 . S
C790 C788 1.394 . S
C790 C791 1.369 . S
C790 C794 1.531 . S
C791 C790 1.369 . S
C791 C792 1.410 . S
C791 C799 1.503 . S
C792 C791 1.410 . S
C792 C793 1.392 . S
C792 C795 1.511 . S
C793 C789 1.376 . S
C793 C792 1.392 . S
C793 H805 0.929 . S
C794 C790 1.531 . S
C794 H806 0.960 . S
C794 H807 0.962 . S
C794 H808 0.960 . S
C795 C792 1.511 . S
C795 H809 0.961 . S
C795 H810 0.961 . S
C795 H811 0.961 . S
C796 C797 1.370 . S
C796 C798 1.363 . S
C796 H812 0.931 . S
C797 C796 1.370 . S
C797 C801 1.408 . S
C798 C796 1.363 . S
C798 C799 1.370 . S
C798 C802 1.524 . S
C799 C791 1.503 . S
C799 C798 1.370 . S
C799 C800 1.403 . S
C800 C799 1.403 . S
C800 C801 1.404 . S
C800 C803 1.539 . S
C801 C797 1.408 . S
C801 C800 1.404 . S
C801 H813 0.930 . S
C802 C798 1.524 . S
C802 H814 0.956 . S
C802 H815 0.961 . S
C802 H816 0.961 . S
C803 C800 1.539 . S
C803 H817 0.958 . S
C803 H818 0.961 . S
C803 H819 0.960 . S
H804 C788 0.931 . S
H805 C793 0.929 . S
H806 C794 0.960 . S
H807 C794 0.962 . S
H808 C794 0.960 . S
H809 C795 0.961 . S
H810 C795 0.961 . S
H811 C795 0.961 . S
H812 C796 0.931 . S
H813 C801 0.930 . S
H814 C802 0.956 . S
H815 C802 0.961 . S
H816 C802 0.961 . S
H817 C803 0.958 . S
H818 C803 0.961 . S
H819 C803 0.960 . S
C820 C821 1.391 . S
C820 C822 1.394 . S
C820 H836 0.931 . S
C821 C820 1.391 . S
C821 C825 1.376 . S
C822 C820 1.394 . S
C822 C823 1.369 . S
C822 C826 1.531 . S
C823 C822 1.369 . S
C823 C824 1.410 . S
C823 C831 1.503 . S
C824 C823 1.410 . S
C824 C825 1.392 . S
C824 C827 1.511 . S
C825 C821 1.376 . S
C825 C824 1.392 . S
C825 H837 0.929 . S
C826 C822 1.531 . S
C826 H838 0.960 . S
C826 H839 0.962 . S
C826 H840 0.960 . S
C827 C824 1.511 . S
C827 H841 0.961 . S
C827 H842 0.961 . S
C827 H843 0.961 . S
C828 C829 1.370 . S
C828 C830 1.363 . S
C828 H844 0.931 . S
C829 C828 1.370 . S
C829 C833 1.408 . S
C830 C828 1.363 . S
C830 C831 1.370 . S
C830 C834 1.524 . S
C831 C823 1.503 . S
C831 C830 1.370 . S
C831 C832 1.403 . S
C832 C831 1.403 . S
C832 C833 1.404 . S
C832 C835 1.539 . S
C833 C829 1.408 . S
C833 C832 1.404 . S
C833 H845 0.930 . S
C834 C830 1.524 . S
C834 H846 0.956 . S
C834 H847 0.961 . S
C834 H848 0.961 . S
C835 C832 1.539 . S
C835 H849 0.958 . S
C835 H850 0.961 . S
C835 H851 0.960 . S
H836 C820 0.931 . S
H837 C825 0.929 . S
H838 C826 0.960 . S
H839 C826 0.962 . S
H840 C826 0.960 . S
H841 C827 0.961 . S
H842 C827 0.961 . S
H843 C827 0.961 . S
H844 C828 0.931 . S
H845 C833 0.930 . S
H846 C834 0.956 . S
H847 C834 0.961 . S
H848 C834 0.961 . S
H849 C835 0.958 . S
H850 C835 0.961 . S
H851 C835 0.960 . S
C852 C853 1.391 . S
C852 C854 1.394 . S
C852 H868 0.931 . S
C853 C852 1.391 . S
C853 C857 1.376 . S
C854 C852 1.394 . S
C854 C855 1.369 . S
C854 C858 1.531 . S
C855 C854 1.369 . S
C855 C856 1.410 . S
C855 C863 1.503 . S
C856 C855 1.410 . S
C856 C857 1.392 . S
C856 C859 1.511 . S
C857 C853 1.376 . S
C857 C856 1.392 . S
C857 H869 0.929 . S
C858 C854 1.531 . S
C858 H870 0.960 . S
C858 H871 0.962 . S
C858 H872 0.960 . S
C859 C856 1.511 . S
C859 H873 0.961 . S
C859 H874 0.961 . S
C859 H875 0.961 . S
C860 C861 1.370 1_556 S
C860 C862 1.363 . S
C860 H876 0.931 . S
C861 C860 1.370 1_554 S
C861 C865 1.408 . S
C862 C860 1.363 . S
C862 C863 1.370 . S
C862 C866 1.524 . S
C863 C855 1.503 . S
C863 C862 1.370 . S
C863 C864 1.408 . S
C864 C863 1.408 . S
C864 C865 1.399 1_556 S
C864 C867 1.539 1_556 S
C865 C861 1.408 . S
C865 C864 1.399 1_554 S
C865 H877 0.930 . S
C866 C862 1.524 . S
C866 H878 0.956 . S
C866 H879 0.961 . S
C866 H880 0.961 . S
C867 C864 1.539 1_554 S
C867 H881 0.958 1_554 S
C867 H882 0.961 . S
C867 H883 0.960 1_554 S
H868 C852 0.931 . S
H869 C857 0.929 . S
H870 C858 0.960 . S
H871 C858 0.962 . S
H872 C858 0.960 . S
H873 C859 0.961 . S
H874 C859 0.961 . S
H875 C859 0.961 . S
H876 C860 0.931 . S
H877 C865 0.930 . S
H878 C866 0.956 . S
H879 C866 0.961 . S
H880 C866 0.961 . S
H881 C867 0.958 1_556 S
H882 C867 0.961 . S
H883 C867 0.960 1_556 S
C884 C885 1.391 . S
C884 C886 1.394 . S
C884 H900 0.931 . S
C885 C884 1.391 . S
C885 C889 1.376 . S
C886 C884 1.394 . S
C886 C887 1.369 . S
C886 C890 1.531 . S
C887 C886 1.369 . S
C887 C888 1.410 . S
C887 C895 1.503 . S
C888 C887 1.410 . S
C888 C889 1.392 . S
C888 C891 1.511 . S
C889 C885 1.376 . S
C889 C888 1.392 . S
C889 H901 0.929 . S
C890 C886 1.531 . S
C890 H902 0.960 . S
C890 H903 0.962 . S
C890 H904 0.960 . S
C891 C888 1.511 . S
C891 H905 0.961 . S
C891 H906 0.961 . S
C891 H907 0.961 . S
C892 C893 1.370 . S
C892 C894 1.363 . S
C892 H908 0.931 . S
C893 C892 1.370 . S
C893 C897 1.408 . S
C894 C892 1.363 . S
C894 C895 1.370 . S
C894 C898 1.524 . S
C895 C887 1.503 . S
C895 C894 1.370 . S
C895 C896 1.403 . S
C896 C895 1.403 . S
C896 C897 1.404 . S
C896 C899 1.539 . S
C897 C893 1.408 . S
C897 C896 1.404 . S
C897 H909 0.930 . S
C898 C894 1.524 . S
C898 H910 0.956 . S
C898 H911 0.961 . S
C898 H912 0.961 . S
C899 C896 1.539 . S
C899 H913 0.958 . S
C899 H914 0.961 . S
C899 H915 0.960 . S
H900 C884 0.931 . S
H901 C889 0.929 . S
H902 C890 0.960 . S
H903 C890 0.962 . S
H904 C890 0.960 . S
H905 C891 0.961 . S
H906 C891 0.961 . S
H907 C891 0.961 . S
H908 C892 0.931 . S
H909 C897 0.930 . S
H910 C898 0.956 . S
H911 C898 0.961 . S
H912 C898 0.961 . S
H913 C899 0.958 . S
H914 C899 0.961 . S
H915 C899 0.960 . S
C916 C917 1.391 . S
C916 C918 1.394 . S
C916 H932 0.931 . S
C917 C916 1.391 . S
C917 C921 1.376 . S
C918 C916 1.394 . S
C918 C919 1.369 . S
C918 C922 1.531 . S
C919 C918 1.369 . S
C919 C920 1.410 . S
C919 C927 1.503 . S
C920 C919 1.410 . S
C920 C921 1.392 . S
C920 C923 1.511 . S
C921 C917 1.376 . S
C921 C920 1.392 . S
C921 H933 0.929 . S
C922 C918 1.531 . S
C922 H934 0.960 . S
C922 H935 0.962 . S
C922 H936 0.960 . S
C923 C920 1.511 . S
C923 H937 0.961 . S
C923 H938 0.961 . S
C923 H939 0.961 . S
C924 C925 1.370 . S
C924 C926 1.363 . S
C924 H940 0.931 . S
C925 C924 1.370 . S
C925 C929 1.408 . S
C926 C924 1.363 . S
C926 C927 1.370 . S
C926 C930 1.524 . S
C927 C919 1.503 . S
C927 C926 1.370 . S
C927 C928 1.403 . S
C928 C927 1.403 . S
C928 C929 1.404 . S
C928 C931 1.539 . S
C929 C925 1.408 . S
C929 C928 1.404 . S
C929 H941 0.930 . S
C930 C926 1.524 . S
C930 H942 0.956 . S
C930 H943 0.961 . S
C930 H944 0.961 . S
C931 C928 1.539 . S
C931 H945 0.958 . S
C931 H946 0.961 . S
C931 H947 0.960 . S
H932 C916 0.931 . S
H933 C921 0.929 . S
H934 C922 0.960 . S
H935 C922 0.962 . S
H936 C922 0.960 . S
H937 C923 0.961 . S
H938 C923 0.961 . S
H939 C923 0.961 . S
H940 C924 0.931 . S
H941 C929 0.930 . S
H942 C930 0.956 . S
H943 C930 0.961 . S
H944 C930 0.961 . S
H945 C931 0.958 . S
H946 C931 0.961 . S
H947 C931 0.960 . S
C948 C949 1.391 . S
C948 C950 1.394 . S
C948 H964 0.931 . S
C949 C948 1.391 . S
C949 C953 1.376 . S
C950 C948 1.394 . S
C950 C951 1.369 . S
C950 C954 1.531 . S
C951 C950 1.369 . S
C951 C952 1.410 . S
C951 C959 1.503 . S
C952 C951 1.410 . S
C952 C953 1.392 . S
C952 C955 1.511 . S
C953 C949 1.376 . S
C953 C952 1.392 . S
C953 H965 0.929 . S
C954 C950 1.531 . S
C954 H966 0.960 . S
C954 H967 0.962 . S
C954 H968 0.960 . S
C955 C952 1.511 . S
C955 H969 0.961 . S
C955 H970 0.961 . S
C955 H971 0.961 . S
C956 C957 1.370 . S
C956 C958 1.363 . S
C956 H972 0.931 . S
C957 C956 1.370 . S
C957 C961 1.408 . S
C958 C956 1.363 . S
C958 C959 1.370 . S
C958 C962 1.524 . S
C959 C951 1.503 . S
C959 C958 1.370 . S
C959 C960 1.403 . S
C960 C959 1.403 . S
C960 C961 1.404 . S
C960 C963 1.539 . S
C961 C957 1.408 . S
C961 C960 1.404 . S
C961 H973 0.930 . S
C962 C958 1.524 . S
C962 H974 0.956 . S
C962 H975 0.961 . S
C962 H976 0.961 . S
C963 C960 1.539 . S
C963 H977 0.958 . S
C963 H978 0.961 . S
C963 H979 0.960 . S
H964 C948 0.931 . S
H965 C953 0.929 . S
H966 C954 0.960 . S
H967 C954 0.962 . S
H968 C954 0.960 . S
H969 C955 0.961 . S
H970 C955 0.961 . S
H971 C955 0.961 . S
H972 C956 0.931 . S
H973 C961 0.930 . S
H974 C962 0.956 . S
H975 C962 0.961 . S
H976 C962 0.961 . S
H977 C963 0.958 . S
H978 C963 0.961 . S
H979 C963 0.960 . S
C980 C981 1.391 . S
C980 C982 1.394 . S
C980 H996 0.931 . S
C981 C980 1.391 . S
C981 C985 1.376 . S
C982 C980 1.394 . S
C982 C983 1.369 . S
C982 C986 1.531 . S
C983 C982 1.369 . S
C983 C984 1.410 . S
C983 C991 1.503 . S
C984 C983 1.410 . S
C984 C985 1.392 . S
C984 C987 1.511 . S
C985 C981 1.376 . S
C985 C984 1.392 . S
C985 H997 0.929 . S
C986 C982 1.531 . S
C986 H998 0.960 . S
C986 H999 0.962 . S
C986 H1000 0.960 . S
C987 C984 1.511 . S
C987 H1001 0.961 . S
C987 H1002 0.961 . S
C987 H1003 0.961 . S
C988 C989 1.370 . S
C988 C990 1.363 . S
C988 H1004 0.931 . S
C989 C988 1.370 . S
C989 C993 1.408 . S
C990 C988 1.363 . S
C990 C991 1.370 . S
C990 C994 1.524 . S
C991 C983 1.503 . S
C991 C990 1.370 . S
C991 C992 1.403 . S
C992 C991 1.403 . S
C992 C993 1.404 . S
C992 C995 1.539 . S
C993 C989 1.408 . S
C993 C992 1.404 . S
C993 H1005 0.930 . S
C994 C990 1.524 . S
C994 H1006 0.956 . S
C994 H1007 0.961 . S
C994 H1008 0.961 . S
C995 C992 1.539 . S
C995 H1009 0.958 . S
C995 H1010 0.961 . S
C995 H1011 0.960 . S
H996 C980 0.931 . S
H997 C985 0.929 . S
H998 C986 0.960 . S
H999 C986 0.962 . S
H1000 C986 0.960 . S
H1001 C987 0.961 . S
H1002 C987 0.961 . S
H1003 C987 0.961 . S
H1004 C988 0.931 . S
H1005 C993 0.930 . S
H1006 C994 0.956 . S
H1007 C994 0.961 . S
H1008 C994 0.961 . S
H1009 C995 0.958 . S
H1010 C995 0.961 . S
H1011 C995 0.960 . S
C1012 C1013 1.391 . S
C1012 C1014 1.394 . S
C1012 H1028 0.931 . S
C1013 C1012 1.391 . S
C1013 C1017 1.376 . S
C1014 C1012 1.394 . S
C1014 C1015 1.369 . S
C1014 C1018 1.531 . S
C1015 C1014 1.369 . S
C1015 C1016 1.410 . S
C1015 C1023 1.503 . S
C1016 C1015 1.410 . S
C1016 C1017 1.392 . S
C1016 C1019 1.511 . S
C1017 C1013 1.376 . S
C1017 C1016 1.392 . S
C1017 H1029 0.929 . S
C1018 C1014 1.531 . S
C1018 H1030 0.960 . S
C1018 H1031 0.962 . S
C1018 H1032 0.960 . S
C1019 C1016 1.511 . S
C1019 H1033 0.961 . S
C1019 H1034 0.961 . S
C1019 H1035 0.961 . S
C1020 C1021 1.370 . S
C1020 C1022 1.363 . S
C1020 H1036 0.931 . S
C1021 C1020 1.370 . S
C1021 C1025 1.408 . S
C1022 C1020 1.363 . S
C1022 C1023 1.370 . S
C1022 C1026 1.524 . S
C1023 C1015 1.503 . S
C1023 C1022 1.370 . S
C1023 C1024 1.403 . S
C1024 C1023 1.403 . S
C1024 C1025 1.404 . S
C1024 C1027 1.539 . S
C1025 C1021 1.408 . S
C1025 C1024 1.404 . S
C1025 H1037 0.930 . S
C1026 C1022 1.524 . S
C1026 H1038 0.956 . S
C1026 H1039 0.961 . S
C1026 H1040 0.961 . S
C1027 C1024 1.539 . S
C1027 H1041 0.958 . S
C1027 H1042 0.961 . S
C1027 H1043 0.960 . S
H1028 C1012 0.931 . S
H1029 C1017 0.929 . S
H1030 C1018 0.960 . S
H1031 C1018 0.962 . S
H1032 C1018 0.960 . S
H1033 C1019 0.961 . S
H1034 C1019 0.961 . S
H1035 C1019 0.961 . S
H1036 C1020 0.931 . S
H1037 C1025 0.930 . S
H1038 C1026 0.956 . S
H1039 C1026 0.961 . S
H1040 C1026 0.961 . S
H1041 C1027 0.958 . S
H1042 C1027 0.961 . S
H1043 C1027 0.960 . S
C1044 C1045 1.391 . S
C1044 C1046 1.394 . S
C1044 H1060 0.931 . S
C1045 C1044 1.391 . S
C1045 C1049 1.376 . S
C1046 C1044 1.394 . S
C1046 C1047 1.369 . S
C1046 C1050 1.531 . S
C1047 C1046 1.369 . S
C1047 C1048 1.410 . S
C1047 C1055 1.503 . S
C1048 C1047 1.410 . S
C1048 C1049 1.392 . S
C1048 C1051 1.511 . S
C1049 C1045 1.376 . S
C1049 C1048 1.392 . S
C1049 H1061 0.929 . S
C1050 C1046 1.531 . S
C1050 H1062 0.960 . S
C1050 H1063 0.962 . S
C1050 H1064 0.960 . S
C1051 C1048 1.511 . S
C1051 H1065 0.961 . S
C1051 H1066 0.961 . S
C1051 H1067 0.961 . S
C1052 C1053 1.370 . S
C1052 C1054 1.363 . S
C1052 H1068 0.931 . S
C1053 C1052 1.370 . S
C1053 C1057 1.408 . S
C1054 C1052 1.363 . S
C1054 C1055 1.370 . S
C1054 C1058 1.524 . S
C1055 C1047 1.503 . S
C1055 C1054 1.370 . S
C1055 C1056 1.403 . S
C1056 C1055 1.403 . S
C1056 C1057 1.404 . S
C1056 C1059 1.539 . S
C1057 C1053 1.408 . S
C1057 C1056 1.404 . S
C1057 H1069 0.930 . S
C1058 C1054 1.524 . S
C1058 H1070 0.956 . S
C1058 H1071 0.961 . S
C1058 H1072 0.961 . S
C1059 C1056 1.539 . S
C1059 H1073 0.958 . S
C1059 H1074 0.961 . S
C1059 H1075 0.960 . S
H1060 C1044 0.931 . S
H1061 C1049 0.929 . S
H1062 C1050 0.960 . S
H1063 C1050 0.962 . S
H1064 C1050 0.960 . S
H1065 C1051 0.961 . S
H1066 C1051 0.961 . S
H1067 C1051 0.961 . S
H1068 C1052 0.931 . S
H1069 C1057 0.930 . S
H1070 C1058 0.956 . S
H1071 C1058 0.961 . S
H1072 C1058 0.961 . S
H1073 C1059 0.958 . S
H1074 C1059 0.961 . S
H1075 C1059 0.960 . S
C1076 C1077 1.391 . S
C1076 C1078 1.394 . S
C1076 H1092 0.931 . S
C1077 C1076 1.391 . S
C1077 C1081 1.376 . S
C1078 C1076 1.394 . S
C1078 C1079 1.369 . S
C1078 C1082 1.531 1_554 S
C1079 C1078 1.369 . S
C1079 C1080 1.410 . S
C1079 C1087 1.503 1_554 S
C1080 C1079 1.410 . S
C1080 C1081 1.392 . S
C1080 C1083 1.511 . S
C1081 C1077 1.376 . S
C1081 C1080 1.392 . S
C1081 H1093 0.929 . S
C1082 C1078 1.531 1_556 S
C1082 H1094 0.960 . S
C1082 H1095 0.962 . S
C1082 H1096 0.960 . S
C1083 C1080 1.511 . S
C1083 H1097 0.961 . S
C1083 H1098 0.961 . S
C1083 H1099 0.961 . S
C1084 C1085 1.370 . S
C1084 C1086 1.363 . S
C1084 H1100 0.931 . S
C1085 C1084 1.370 . S
C1085 C1089 1.408 . S
C1086 C1084 1.363 . S
C1086 C1087 1.370 . S
C1086 C1090 1.524 . S
C1087 C1079 1.503 1_556 S
C1087 C1086 1.370 . S
C1087 C1088 1.403 . S
C1088 C1087 1.403 . S
C1088 C1089 1.404 . S
C1088 C1091 1.539 . S
C1089 C1085 1.408 . S
C1089 C1088 1.404 . S
C1089 H1101 0.930 . S
C1090 C1086 1.524 . S
C1090 H1102 0.956 . S
C1090 H1103 0.961 1_556 S
C1090 H1104 0.961 . S
C1091 C1088 1.539 . S
C1091 H1105 0.958 . S
C1091 H1106 0.961 . S
C1091 H1107 0.960 1_556 S
H1092 C1076 0.931 . S
H1093 C1081 0.929 . S
H1094 C1082 0.960 . S
H1095 C1082 0.962 . S
H1096 C1082 0.960 . S
H1097 C1083 0.961 . S
H1098 C1083 0.961 . S
H1099 C1083 0.961 . S
H1100 C1084 0.931 . S
H1101 C1089 0.930 . S
H1102 C1090 0.956 . S
H1103 C1090 0.961 1_554 S
H1104 C1090 0.961 . S
H1105 C1091 0.958 . S
H1106 C1091 0.961 . S
H1107 C1091 0.960 1_554 S
C1108 C1109 1.391 . S
C1108 C1110 1.394 . S
C1108 H1124 0.931 . S
C1109 C1108 1.391 . S
C1109 C1113 1.376 . S
C1110 C1108 1.394 . S
C1110 C1111 1.369 . S
C1110 C1114 1.531 . S
C1111 C1110 1.369 . S
C1111 C1112 1.410 . S
C1111 C1119 1.503 . S
C1112 C1111 1.410 . S
C1112 C1113 1.392 . S
C1112 C1115 1.511 . S
C1113 C1109 1.376 . S
C1113 C1112 1.392 . S
C1113 H1125 0.929 . S
C1114 C1110 1.531 . S
C1114 H1126 0.960 . S
C1114 H1127 0.962 . S
C1114 H1128 0.960 . S
C1115 C1112 1.511 . S
C1115 H1129 0.961 . S
C1115 H1130 0.961 . S
C1115 H1131 0.961 . S
C1116 C1117 1.370 . S
C1116 C1118 1.363 . S
C1116 H1132 0.931 . S
C1117 C1116 1.370 . S
C1117 C1121 1.408 . S
C1118 C1116 1.363 . S
C1118 C1119 1.370 . S
C1118 C1122 1.524 . S
C1119 C1111 1.503 . S
C1119 C1118 1.370 . S
C1119 C1120 1.403 . S
C1120 C1119 1.403 . S
C1120 C1121 1.404 . S
C1120 C1123 1.539 . S
C1121 C1117 1.408 . S
C1121 C1120 1.404 . S
C1121 H1133 0.930 . S
C1122 C1118 1.524 . S
C1122 H1134 0.956 . S
C1122 H1135 0.961 . S
C1122 H1136 0.961 . S
C1123 C1120 1.539 . S
C1123 H1137 0.958 . S
C1123 H1138 0.961 . S
C1123 H1139 0.960 . S
H1124 C1108 0.931 . S
H1125 C1113 0.929 . S
H1126 C1114 0.960 . S
H1127 C1114 0.962 . S
H1128 C1114 0.960 . S
H1129 C1115 0.961 . S
H1130 C1115 0.961 . S
H1131 C1115 0.961 . S
H1132 C1116 0.931 . S
H1133 C1121 0.930 . S
H1134 C1122 0.956 . S
H1135 C1122 0.961 . S
H1136 C1122 0.961 . S
H1137 C1123 0.958 . S
H1138 C1123 0.961 . S
H1139 C1123 0.960 . S
C381 C363 1.282 . S
C373 C45 1.522 . S
C405 C84 1.551 . S
C413 C293 1.316 . S
C437 C126 1.477 . S
C445 C313 1.544 . S
C469 C189 1.472 . S
C477 C327 1.480 . S
C509 C335 1.247 . S
C501 C228 1.500 . S
C533 C270 1.454 . S
C541 C349 1.289 . S
C565 C69 1.511 . S
C573 C307 1.327 . S
C597 C141 1.509 . S
C605 C321 1.282 . S
C629 C174 1.404 . S
C637 C341 1.468 . S
C669 C355 1.518 . S
C661 C213 1.489 . S
C701 C369 1.519 . S
C693 C285 1.518 . S
C733 C299 1.539 . S
C725 C30 1.520 . S
C757 C36 1.457 . S
C765 C306 1.426 . S
C789 C93 1.461 . S
C797 C320 1.440 . S
C829 C342 1.458 . S
C821 C117 1.467 . S
C853 C180 1.472 . S
C861 C356 1.463 . S
C893 C370 1.434 . S
C885 C237 1.437 . S
C925 C300 1.417 . S
C917 C261 1.427 . S
C957 C362 1.419 . S
C949 C78 1.429 . S
C981 C132 1.446 . S
C989 C292 1.441 . S
C1021 C314 1.454 . S
C1013 C165 1.429 . S
C1045 C222 1.450 . S
C1053 C328 1.457 . S
C1077 C276 1.501 . S
C1085 C334 1.475 . S
C1109 C21 1.480 . S
C1117 C348 1.450 . S
