# Generated by pormake.
# Topology zzz, (3,6)-cn, num edge types: 1
# Building blocks:
#     Node 0, Type 0, BuildingBlock: MIDCAF_clean_linker_0, # of connection points: 3
#     Node 1, Type 0, BuildingBlock: MIDCAF_clean_linker_0, # of connection points: 3
#     Node 2, Type 0, BuildingBlock: MIDCAF_clean_linker_0, # of connection points: 3
#     Node 3, Type 0, BuildingBlock: MIDCAF_clean_linker_0, # of connection points: 3
#     Node 4, Type 0, BuildingBlock: MIDCAF_clean_linker_0, # of connection points: 3
#     Node 5, Type 0, BuildingBlock: MIDCAF_clean_linker_0, # of connection points: 3
#     Node 6, Type 0, BuildingBlock: MIDCAF_clean_linker_0, # of connection points: 3
#     Node 7, Type 0, BuildingBlock: MIDCAF_clean_linker_0, # of connection points: 3
#     Node 8, Type 1, BuildingBlock: KUMJIN_clean_sbu_0, # of connection points: 6
#     Node 9, Type 1, BuildingBlock: KUMJIN_clean_sbu_0, # of connection points: 6
#     Node 10, Type 1, BuildingBlock: KUMJIN_clean_sbu_0, # of connection points: 6
#     Node 11, Type 1, BuildingBlock: KUMJIN_clean_sbu_0, # of connection points: 6
#     Edge 12, Type (0, 1), BuildingBlock: MIFKUJ_clean_linker_0, # of connection points: 2
#     Edge 13, Type (0, 1), BuildingBlock: MIFKUJ_clean_linker_0, # of connection points: 2
#     Edge 14, Type (0, 1), BuildingBlock: MIFKUJ_clean_linker_0, # of connection points: 2
#     Edge 15, Type (0, 1), BuildingBlock: MIFKUJ_clean_linker_0, # of connection points: 2
#     Edge 16, Type (0, 1), BuildingBlock: MIFKUJ_clean_linker_0, # of connection points: 2
#     Edge 17, Type (0, 1), BuildingBlock: MIFKUJ_clean_linker_0, # of connection points: 2
#     Edge 18, Type (0, 1), BuildingBlock: MIFKUJ_clean_linker_0, # of connection points: 2
#     Edge 19, Type (0, 1), BuildingBlock: MIFKUJ_clean_linker_0, # of connection points: 2
#     Edge 20, Type (0, 1), BuildingBlock: MIFKUJ_clean_linker_0, # of connection points: 2
#     Edge 21, Type (0, 1), BuildingBlock: MIFKUJ_clean_linker_0, # of connection points: 2
#     Edge 22, Type (0, 1), BuildingBlock: MIFKUJ_clean_linker_0, # of connection points: 2
#     Edge 23, Type (0, 1), BuildingBlock: MIFKUJ_clean_linker_0, # of connection points: 2
#     Edge 24, Type (0, 1), BuildingBlock: MIFKUJ_clean_linker_0, # of connection points: 2
#     Edge 25, Type (0, 1), BuildingBlock: MIFKUJ_clean_linker_0, # of connection points: 2
#     Edge 26, Type (0, 1), BuildingBlock: MIFKUJ_clean_linker_0, # of connection points: 2
#     Edge 27, Type (0, 1), BuildingBlock: MIFKUJ_clean_linker_0, # of connection points: 2
#     Edge 28, Type (0, 1), BuildingBlock: MIFKUJ_clean_linker_0, # of connection points: 2
#     Edge 29, Type (0, 1), BuildingBlock: MIFKUJ_clean_linker_0, # of connection points: 2
#     Edge 30, Type (0, 1), BuildingBlock: MIFKUJ_clean_linker_0, # of connection points: 2
#     Edge 31, Type (0, 1), BuildingBlock: MIFKUJ_clean_linker_0, # of connection points: 2
#     Edge 32, Type (0, 1), BuildingBlock: MIFKUJ_clean_linker_0, # of connection points: 2
#     Edge 33, Type (0, 1), BuildingBlock: MIFKUJ_clean_linker_0, # of connection points: 2
#     Edge 34, Type (0, 1), BuildingBlock: MIFKUJ_clean_linker_0, # of connection points: 2
#     Edge 35, Type (0, 1), BuildingBlock: MIFKUJ_clean_linker_0, # of connection points: 2
# Relax obj value: 0.276
# Max RMSD: 0.228
# Mean RMSD: 0.211
data_MOF--net-zzz--node1-KUMJIN_clean_sbu_0--node2-MIDCAF_clean_linker_0--edge1-MIFKUJ_clean_linker_0
_symmetry_space_group_name_H-M    P1
_symmetry_Int_Tables_number       1
_symmetry_cell_setting            triclinic
loop_
_symmetry_equiv_pos_as_xyz
'x, y, z'
_cell_length_a     71.288402
_cell_length_b     71.225542
_cell_length_c     24.89914
_cell_angle_alpha  90.104495
_cell_angle_beta   90.155956
_cell_angle_gamma 90.036704
loop_
_atom_site_label
_atom_site_type_symbol
_atom_site_fract_x
_atom_site_fract_y
_atom_site_fract_z
_atom_type_partial_charge
C0 C 0.80161 0.56311 0.24062 0.0
C1 C 0.8012 0.54577 0.26744 0.0
C2 C 0.78689 0.5329 0.25337 0.0
C3 C 0.7737 0.53718 0.21271 0.0
H4 H 0.7176 0.52343 0.0874 0.0
H5 H 0.68675 0.5159 0.04813 0.0
H6 H 0.6784 0.57467 0.01244 0.0
H7 H 0.70852 0.58196 0.05239 0.0
H8 H 0.7484 0.58393 0.95285 0.0
H9 H 0.7662 0.59545 0.87623 0.0
H10 H 0.81616 0.59764 0.97474 0.0
H11 H 0.79846 0.58657 0.05114 0.0
H12 H 0.78992 0.58067 0.17999 0.0
H13 H 0.81248 0.57333 0.2492 0.0
H14 H 0.78601 0.51944 0.27334 0.0
H15 H 0.76326 0.52681 0.20161 0.0
N16 N 0.74506 0.55268 0.12899 0.0
N17 N 0.7442 0.56844 0.04573 0.0
N18 N 0.77157 0.56892 0.09694 0.0
C19 C 0.73543 0.55797 0.08363 0.0
C20 C 0.76225 0.57387 0.05176 0.0
C21 C 0.76329 0.55849 0.13589 0.0
C22 C 0.7154 0.5533 0.07347 0.0
C23 C 0.70878 0.53472 0.07289 0.0
C24 C 0.69123 0.53042 0.04951 0.0
C25 C 0.67995 0.54464 0.02656 0.0
C26 C 0.68633 0.56329 0.03015 0.0
C27 C 0.70373 0.56752 0.05311 0.0
C28 C 0.77208 0.5839 0.00795 0.0
C29 C 0.76309 0.58727 0.9585 0.0
C30 C 0.77328 0.5939 0.91451 0.0
C31 C 0.79264 0.59732 0.9191 0.0
C32 C 0.80123 0.5954 0.96972 0.0
C33 C 0.79108 0.58878 0.01358 0.0
C34 C 0.77472 0.55432 0.18485 0.0
C35 C 0.78865 0.56729 0.20028 0.0
C36 C 0.9885 0.79076 0.25815 0.0
C37 C 0.99267 0.8091 0.24006 0.0
C38 C 0.99257 0.81237 0.18434 0.0
C39 C 0.98759 0.79817 0.14821 0.0
H40 H 0.97214 0.70506 0.12463 0.0
H41 H 0.97727 0.67465 0.07978 0.0
H42 H 0.99043 0.7037 0.93246 0.0
H43 H 0.98493 0.73365 0.97685 0.0
H44 H 0.92697 0.74908 0.98325 0.0
H45 H 0.90945 0.76539 0.91329 0.0
H46 H 0.92622 0.81862 0.98265 0.0
H47 H 0.94251 0.80244 0.05329 0.0
H48 H 0.97947 0.76277 0.2367 0.0
H49 H 0.98859 0.78761 0.30067 0.0
H50 H 0.99533 0.82623 0.16843 0.0
H51 H 0.98672 0.80158 0.10586 0.0
N52 N 0.97927 0.74968 0.1158 0.0
N53 N 0.95651 0.74761 0.04706 0.0
N54 N 0.95867 0.77482 0.09882 0.0
C55 C 0.97082 0.73972 0.07515 0.0
C56 C 0.95021 0.76504 0.05892 0.0
C57 C 0.97298 0.76739 0.12777 0.0
C58 C 0.97833 0.7217 0.05435 0.0
C59 C 0.97668 0.70484 0.08316 0.0
C60 C 0.97948 0.68744 0.05724 0.0
C61 C 0.98389 0.68662 1.00199 0.0
C62 C 0.98656 0.70365 0.97449 0.0
C63 C 0.98371 0.72087 1.00017 0.0
C64 C 0.9365 0.77445 0.0232 0.0
C65 C 0.92644 0.76427 0.98418 0.0
C66 C 0.91645 0.77365 0.94388 0.0
C67 C 0.91663 0.7934 0.94118 0.0
C68 C 0.92541 0.80345 0.9831 0.0
C69 C 0.93505 0.7941 0.02375 0.0
C70 C 0.98262 0.78016 0.16624 0.0
C71 C 0.98357 0.77641 0.22155 0.0
C72 C 0.71565 0.96274 0.28392 0.0
C73 C 0.71239 0.98204 0.29163 0.0
C74 C 0.72339 0.99487 0.26208 0.0
C75 C 0.73623 0.98854 0.22318 0.0
H76 H 0.80287 0.97221 0.13277 0.0
H77 H 0.83157 0.97971 0.08298 0.0
H78 H 0.7995 0.9812 0.93541 0.0
H79 H 0.77141 0.97283 0.98465 0.0
H80 H 0.74124 0.93797 0.97619 0.0
H81 H 0.71427 0.92665 0.92495 0.0
H82 H 0.68715 0.90992 0.0719 0.0
H83 H 0.71401 0.92108 0.12339 0.0
H84 H 0.72954 0.9415 0.23823 0.0
H85 H 0.70745 0.95233 0.30508 0.0
H86 H 0.72155 0.00985 0.26745 0.0
H87 H 0.74348 0.99873 0.19853 0.0
N88 N 0.76241 0.96997 0.13947 0.0
N89 N 0.75777 0.95089 0.06293 0.0
N90 N 0.73704 0.94892 0.13495 0.0
C91 C 0.7681 0.96399 0.08975 0.0
C92 C 0.74232 0.94315 0.08551 0.0
C93 C 0.74674 0.96226 0.16222 0.0
C94 C 0.78493 0.97179 0.06258 0.0
C95 C 0.80202 0.97443 0.08981 0.0
C96 C 0.81847 0.97872 0.0611 0.0
C97 C 0.8181 0.98068 0.00464 0.0
C98 C 0.80065 0.97915 0.97836 0.0
C99 C 0.78441 0.97456 0.00676 0.0
C100 C 0.72949 0.93101 0.05399 0.0
C101 C 0.72991 0.93115 0.99751 0.0
C102 C 0.71452 0.92453 0.96803 0.0
C103 C 0.69858 0.91768 0.9947 0.0
C104 C 0.69925 0.91525 0.05056 0.0
C105 C 0.71459 0.92181 0.07997 0.0
C106 C 0.73827 0.96924 0.21294 0.0
C107 C 0.72837 0.95648 0.24527 0.0
C108 C 0.5931 0.7028 0.00934 0.0
C109 C 0.60186 0.70901 0.96193 0.0
C110 C 0.60422 0.72848 0.95451 0.0
C111 C 0.59653 0.74131 0.99099 0.0
H112 H 0.55165 0.78241 0.97533 0.0
H113 H 0.54597 0.81205 0.93056 0.0
H114 H 0.54689 0.84064 0.08375 0.0
H115 H 0.55202 0.81042 0.12912 0.0
H116 H 0.52307 0.75253 0.19211 0.0
H117 H 0.51226 0.73214 0.2654 0.0
H118 H 0.56952 0.71502 0.29471 0.0
H119 H 0.58007 0.73542 0.22315 0.0
H120 H 0.57842 0.71015 0.08081 0.0
H121 H 0.59056 0.68804 0.01664 0.0
H122 H 0.61129 0.73389 0.91938 0.0
H123 H 0.59775 0.75619 0.98278 0.0
N124 N 0.57016 0.76478 0.0513 0.0
N125 N 0.55278 0.77034 0.13021 0.0
N126 N 0.57033 0.74259 0.11999 0.0
C127 C 0.55865 0.77608 0.08049 0.0
C128 C 0.55882 0.75348 0.1501 0.0
C129 C 0.57607 0.74806 0.07076 0.0
C130 C 0.55249 0.79406 0.05582 0.0
C131 C 0.55046 0.79497 0.9997 0.0
C132 C 0.54736 0.81207 0.97388 0.0
C133 C 0.54645 0.82893 1.00318 0.0
C134 C 0.54752 0.82797 0.05975 0.0
C135 C 0.55044 0.81066 0.08586 0.0
C136 C 0.55242 0.74564 0.20209 0.0
C137 C 0.53332 0.74492 0.21573 0.0
C138 C 0.52714 0.733 0.25717 0.0
C139 C 0.53997 0.72174 0.28596 0.0
C140 C 0.55918 0.72356 0.27427 0.0
C141 C 0.56527 0.73528 0.23298 0.0
C142 C 0.58677 0.73494 0.03638 0.0
C143 C 0.58585 0.71557 0.04626 0.0
C144 C 0.23138 0.49434 0.91727 0.0
C145 C 0.22314 0.47979 0.88662 0.0
C146 C 0.22959 0.46135 0.89493 0.0
C147 C 0.24258 0.45733 0.93552 0.0
H148 H 0.30853 0.49282 0.04864 0.0
H149 H 0.33858 0.50165 0.09156 0.0
H150 H 0.33057 0.45838 0.21015 0.0
H151 H 0.30139 0.44944 0.16821 0.0
H152 H 0.26191 0.44083 0.20705 0.0
H153 H 0.2402 0.4279 0.27275 0.0
H154 H 0.19772 0.4228 0.14965 0.0
H155 H 0.21934 0.43559 0.08374 0.0
H156 H 0.24955 0.50154 0.98356 0.0
H157 H 0.22676 0.50871 0.91226 0.0
H158 H 0.224 0.44981 0.87143 0.0
H159 H 0.24619 0.4428 0.94318 0.0
N160 N 0.27608 0.4717 0.03626 0.0
N161 N 0.27195 0.45514 0.11707 0.0
N162 N 0.24787 0.45545 0.05374 0.0
C163 C 0.28301 0.4658 0.08486 0.0
C164 C 0.25447 0.44993 0.10219 0.0
C165 C 0.25841 0.46627 0.02059 0.0
C166 C 0.30221 0.47063 0.10524 0.0
C167 C 0.31334 0.48507 0.08343 0.0
C168 C 0.33053 0.49012 0.10796 0.0
C169 C 0.33675 0.4809 0.15482 0.0
C170 C 0.32602 0.46601 0.17482 0.0
C171 C 0.30916 0.46091 0.15045 0.0
C172 C 0.24229 0.43955 0.14015 0.0
C173 C 0.24807 0.43663 0.19361 0.0
C174 C 0.23565 0.42922 0.23138 0.0
C175 C 0.21727 0.42439 0.21641 0.0
C176 C 0.21188 0.42617 0.16229 0.0
C177 C 0.22424 0.43369 0.12459 0.0
C178 C 0.24982 0.47164 0.96849 0.0
C179 C 0.24457 0.49029 0.9579 0.0
C180 C 0.03882 0.22747 0.89476 0.0
C181 C 0.0254 0.21365 0.90728 0.0
C182 C 0.01532 0.2155 0.95558 0.0
C183 C 0.01962 0.22985 0.99228 0.0
H184 H 0.02476 0.30437 0.05689 0.0
H185 H 0.01829 0.33449 0.1017 0.0
H186 H 0.05237 0.31724 0.23642 0.0
H187 H 0.05906 0.28792 0.19227 0.0
H188 H 0.08553 0.25487 0.19036 0.0
H189 H 0.10034 0.23197 0.24942 0.0
H190 H 0.08815 0.18813 0.13409 0.0
H191 H 0.07425 0.21093 0.07462 0.0
H192 H 0.05494 0.25097 0.92347 0.0
H193 H 0.04696 0.22641 0.85822 0.0
H194 H 0.00479 0.2052 0.96633 0.0
H195 H 0.01274 0.22988 0.03104 0.0
N196 N 0.03876 0.26876 0.04863 0.0
N197 N 0.06084 0.26441 0.11807 0.0
N198 N 0.05701 0.24123 0.0528 0.0
C199 C 0.04756 0.2753 0.09411 0.0
C200 C 0.06567 0.24744 0.09782 0.0
C201 C 0.04375 0.25166 0.02777 0.0
C202 C 0.04262 0.29362 0.1203 0.0
C203 C 0.03086 0.30706 0.09603 0.0
C204 C 0.02711 0.32432 0.12187 0.0
C205 C 0.03505 0.32854 0.17254 0.0
C206 C 0.04641 0.31487 0.19693 0.0
C207 C 0.05016 0.29784 0.17136 0.0
C208 C 0.0782 0.23468 0.12835 0.0
C209 C 0.08647 0.24042 0.17704 0.0
C210 C 0.09492 0.22726 0.21102 0.0
C211 C 0.0951 0.20808 0.19729 0.0
C212 C 0.08845 0.20273 0.14625 0.0
C213 C 0.08021 0.21587 0.11213 0.0
C214 C 0.0341 0.24269 0.98171 0.0
C215 C 0.04326 0.2417 0.93187 0.0
C216 C 0.31301 0.06295 0.93022 0.0
C217 C 0.30993 0.04634 0.90096 0.0
C218 C 0.29348 0.03595 0.91181 0.0
C219 C 0.28072 0.0419 0.9516 0.0
H220 H 0.22814 0.02953 0.08025 0.0
H221 H 0.19791 0.02135 0.12153 0.0
H222 H 0.18643 0.08025 0.14658 0.0
H223 H 0.21627 0.08821 0.10543 0.0
H224 H 0.25808 0.08721 0.21274 0.0
H225 H 0.277 0.09417 0.29188 0.0
H226 H 0.32568 0.1019 0.19188 0.0
H227 H 0.30693 0.09479 0.11234 0.0
H228 H 0.3037 0.08153 0.99166 0.0
H229 H 0.32556 0.07123 0.92407 0.0
H230 H 0.29053 0.02314 0.88985 0.0
H231 H 0.26847 0.0334 0.95986 0.0
N232 N 0.25419 0.05855 0.035 0.0
N233 N 0.25295 0.07551 0.11631 0.0
N234 N 0.2807 0.07487 0.06713 0.0
C235 C 0.24431 0.06467 0.07883 0.0
C236 C 0.27113 0.08059 0.11109 0.0
C237 C 0.2725 0.06404 0.02865 0.0
C238 C 0.22447 0.05951 0.08914 0.0
C239 C 0.21878 0.04067 0.09281 0.0
C240 C 0.2016 0.03602 0.11724 0.0
C241 C 0.18971 0.05013 0.13793 0.0
C242 C 0.195 0.06898 0.13079 0.0
C243 C 0.21215 0.07357 0.10708 0.0
C244 C 0.28112 0.08987 0.15625 0.0
C245 C 0.27267 0.09099 0.20717 0.0
C246 C 0.28344 0.09509 0.25261 0.0
C247 C 0.30277 0.09841 0.24786 0.0
C248 C 0.31076 0.09951 0.19651 0.0
C249 C 0.30003 0.09522 0.15102 0.0
C250 C 0.28426 0.05825 0.9818 0.0
C251 C 0.30044 0.06879 0.96971 0.0
C252 C 0.43113 0.30821 0.19484 0.0
C253 C 0.4318 0.30038 0.2465 0.0
C254 C 0.43455 0.28098 0.25216 0.0
C255 C 0.43751 0.26972 0.20704 0.0
H256 H 0.42569 0.21543 0.12337 0.0
H257 H 0.42941 0.18379 0.15731 0.0
H258 H 0.48262 0.17925 0.07568 0.0
H259 H 0.47892 0.21148 0.04219 0.0
H260 H 0.4454 0.26427 0.91911 0.0
H261 H 0.4533 0.28734 0.84925 0.0
H262 H 0.4949 0.31177 0.95466 0.0
H263 H 0.48681 0.28898 0.02396 0.0
H264 H 0.43462 0.30356 0.11049 0.0
H265 H 0.42921 0.32318 0.18956 0.0
H266 H 0.43513 0.27467 0.29169 0.0
H267 H 0.4403 0.25492 0.21298 0.0
N268 N 0.44438 0.24737 0.11206 0.0
N269 N 0.45834 0.24521 0.02671 0.0
N270 N 0.45112 0.27472 0.06438 0.0
C271 C 0.45132 0.23666 0.07159 0.0
C272 C 0.45806 0.26439 0.0231 0.0
C273 C 0.44419 0.26633 0.10888 0.0
C274 C 0.45204 0.21602 0.08022 0.0
C275 C 0.43801 0.20756 0.11154 0.0
C276 C 0.44011 0.18928 0.13087 0.0
C277 C 0.45639 0.17887 0.11972 0.0
C278 C 0.46999 0.18692 0.08566 0.0
C279 C 0.46779 0.2053 0.06584 0.0
C280 C 0.46573 0.27467 0.97649 0.0
C281 C 0.45664 0.2742 0.9264 0.0
C282 C 0.461 0.28756 0.88681 0.0
C283 C 0.47469 0.30148 0.89641 0.0
C284 C 0.48444 0.30118 0.94558 0.0
C285 C 0.47986 0.28809 0.98527 0.0
C286 C 0.43815 0.27773 0.15546 0.0
C287 C 0.4344 0.297 0.14969 0.0
Eu288 Eu 0.02231 0.99915 0.62679 0.0
C289 C 0.97276 0.99223 0.45348 0.0
C290 C 0.98388 0.99944 0.36364 0.0
C291 C 0.96291 0.97307 0.37716 0.0
C292 C 0.98359 1.0032 0.41941 0.0
C293 C 0.96214 0.97718 0.43224 0.0
C294 C 0.97381 0.98412 0.34299 0.0
C295 C 0.95053 0.97105 0.52128 0.0
N296 N 0.97249 0.99624 0.50703 0.0
C297 C 0.96148 0.98581 0.54083 0.0
C298 C 0.95089 0.96672 0.46687 0.0
Eu299 Eu 0.99136 0.02231 0.53467 0.0
N300 N 0.9931 0.01808 0.4401 0.0
C301 C 1.00145 0.03079 0.40653 0.0
C302 C 0.99378 0.01157 0.32984 0.0
C303 C 1.00234 0.0275 0.35132 0.0
H304 H 0.96117 0.98819 0.58332 0.0
H305 H 0.00943 0.03737 0.32534 0.0
H306 H 0.97399 0.98096 0.30041 0.0
H307 H 0.94197 0.96286 0.54843 0.0
H308 H 0.00756 0.04347 0.4226 0.0
H309 H 0.0155 0.04581 0.80278 0.0
H310 H 0.99433 0.00911 0.2869 0.0
H311 H 0.06128 0.9783 0.58161 0.0
H312 H 0.00424 0.02591 0.73067 0.0
H313 H 0.09559 0.98075 0.59179 0.0
H314 H 0.95491 0.96153 0.36039 0.0
H315 H 0.04934 0.0512 0.8152 0.0
H316 H 0.08229 0.0446 0.78637 0.0
H317 H 0.94237 0.95532 0.45206 0.0
H318 H 0.10405 0.02761 0.72782 0.0
N319 N 0.03146 0.01969 0.69875 0.0
C320 C 0.01913 0.02775 0.7341 0.0
C321 C 0.04455 0.04253 0.78221 0.0
C322 C 0.05723 0.03393 0.74736 0.0
C323 C 0.02544 0.03935 0.77567 0.0
C324 C 0.05021 0.02235 0.70572 0.0
H325 H 0.10917 1.0037 0.65559 0.0
N326 N 0.0554 1.00035 0.63689 0.0
C327 C 0.08649 0.98984 0.61485 0.0
C328 C 0.06253 0.01247 0.67357 0.0
C329 C 0.06703 0.98853 0.60915 0.0
C330 C 0.09408 1.00284 0.65074 0.0
C331 C 0.0821 0.01407 0.68148 0.0
O332 O 0.03504 0.97564 0.67065 0.0
O333 O 1.00157 0.9941 0.55998 0.0
O334 O 0.97387 0.01653 0.60855 0.0
O335 O 0.99478 1.00379 0.67075 0.0
O336 O 0.0277 0.98175 0.55259 0.0
O337 O 0.00521 0.97663 0.6602 0.0
O338 O 0.97309 0.04405 0.56853 0.0
O339 O 0.00838 0.02652 0.60976 0.0
O340 O 0.04092 0.01 0.55824 0.0
O341 O 0.02037 0.0236 0.49623 0.0
O342 O 0.01275 0.04543 0.54834 0.0
O343 O 0.97269 0.03902 0.48382 0.0
C344 C 0.01142 0.98328 0.53076 0.0
C345 C 0.01896 0.94702 0.6526 0.0
C346 C 1.00138 0.91783 0.63997 0.0
C347 C 1.00316 0.93583 0.66282 0.0
C348 C 0.01575 0.91122 0.60617 0.0
C349 C 0.03309 0.94017 0.61861 0.0
C350 C 0.03143 0.92237 0.59555 0.0
C351 C 0.9779 0.00984 0.65674 0.0
C352 C 0.01941 0.96635 0.67377 0.0
C353 C 0.08909 0.02619 0.72119 0.0
C354 C 0.07667 0.03597 0.75435 0.0
C355 C 0.01694 0.04152 0.59756 0.0
C356 C 0.97032 0.0703 0.51244 0.0
C357 C 0.98762 0.0767 0.49303 0.0
C358 C 0.99101 0.09588 0.48445 0.0
C359 C 0.97644 0.1087 0.49537 0.0
C360 C 0.95609 0.08324 0.52353 0.0
C361 C 0.95916 0.10238 0.51484 0.0
C362 C 0.03737 0.01831 0.51162 0.0
C363 C 0.96748 0.05016 0.52219 0.0
H364 H 0.99201 0.94147 0.68757 0.0
H365 H 0.01508 0.89734 0.58851 0.0
H366 H 0.04526 0.94862 0.6092 0.0
H367 H 0.04235 0.91717 0.56932 0.0
H368 H 0.99851 0.06664 0.48499 0.0
H369 H 0.97823 0.12357 0.48817 0.0
H370 H 0.94267 0.07855 0.5388 0.0
H371 H 0.94809 0.11236 0.52309 0.0
Eu372 Eu 0.50825 0.03258 0.6219 0.0
C373 C 0.53792 0.95646 0.5335 0.0
C374 C 0.56029 0.96409 0.46368 0.0
C375 C 0.56399 0.93539 0.51529 0.0
C376 C 0.54427 0.96865 0.49422 0.0
C377 C 0.54751 0.93952 0.54376 0.0
C378 C 0.57035 0.94764 0.47529 0.0
C379 C 0.52297 0.93124 0.60624 0.0
N380 N 0.52191 0.9608 0.56022 0.0
C381 C 0.51392 0.94817 0.59462 0.0
C382 C 0.53998 0.92701 0.5813 0.0
Eu383 Eu 0.50758 0.98975 0.53818 0.0
N384 N 0.53432 0.98451 0.4841 0.0
C385 C 0.53871 0.99561 0.44124 0.0
C386 C 0.56543 0.97595 0.42144 0.0
C387 C 0.55442 0.99162 0.40968 0.0
H388 H 0.50084 0.95144 0.6143 0.0
H389 H 0.55809 1.00072 0.37655 0.0
H390 H 0.58282 0.94404 0.45271 0.0
H391 H 0.51684 0.92149 0.63449 0.0
H392 H 0.53031 0.0078 0.432 0.0
H393 H 0.46652 0.02272 0.80246 0.0
H394 H 0.57765 0.97296 0.39708 0.0
H395 H 0.51113 0.07036 0.54218 0.0
H396 H 0.48992 0.01451 0.73499 0.0
H397 H 0.49451 0.10037 0.52736 0.0
H398 H 0.57165 0.92253 0.52297 0.0
H399 H 0.44666 0.05101 0.79074 0.0
H400 H 0.4388 0.07965 0.73679 0.0
H401 H 0.54694 0.91387 0.59034 0.0
H402 H 0.44626 0.10064 0.6614 0.0
N403 N 0.48418 0.03808 0.68517 0.0
C404 C 0.48159 0.02692 0.72904 0.0
C405 C 0.45712 0.04751 0.76088 0.0
C406 C 0.46009 0.05914 0.71651 0.0
C407 C 0.46814 0.0315 0.76749 0.0
C408 C 0.47416 0.05417 0.67938 0.0
H409 H 0.4671 0.10857 0.58345 0.0
N410 N 0.49279 0.06136 0.60428 0.0
C411 C 0.48977 0.09081 0.55824 0.0
C412 C 0.47843 0.06604 0.63726 0.0
C413 C 0.49914 0.07383 0.56673 0.0
C414 C 0.47428 0.09536 0.58987 0.0
C415 C 0.46866 0.08311 0.63069 0.0
O416 O 0.52867 0.05475 0.63728 0.0
O417 O 0.52514 0.01283 0.57198 0.0
O418 O 0.52597 0.98427 0.6104 0.0
O419 O 0.5132 0.00554 0.67132 0.0
O420 O 0.53097 0.04091 0.56215 0.0
O421 O 0.52134 0.03515 0.70072 0.0
O422 O 0.48631 0.96922 0.5147 0.0
O423 O 0.49076 0.00941 0.58868 0.0
O424 O 0.48916 0.03749 0.55042 0.0
O425 O 0.50209 0.01655 0.4889 0.0
O426 O 0.48336 0.98157 0.59366 0.0
O427 O 0.50016 0.98608 0.45402 0.0
C428 C 0.53572 0.02421 0.54799 0.0
C429 C 0.55225 0.04762 0.70007 0.0
C430 C 0.57921 0.0298 0.73148 0.0
C431 C 0.56039 0.03047 0.71504 0.0
C432 C 0.58998 0.04633 0.73146 0.0
C433 C 0.56322 0.06398 0.69977 0.0
C434 C 0.58204 0.06329 0.71509 0.0
C435 C 0.52273 0.98994 0.6601 0.0
C436 C 0.53231 0.0489 0.68576 0.0
C437 C 0.45403 0.08767 0.66605 0.0
C438 C 0.4498 0.07574 0.709 0.0
C439 C 0.47946 0.9982 0.61076 0.0
C440 C 0.47012 0.9748 0.43341 0.0
C441 C 0.45716 0.98905 0.44461 0.0
C442 C 0.44095 0.99103 0.41271 0.0
C443 C 0.43801 0.97848 0.36967 0.0
C444 C 0.46686 0.96234 0.39086 0.0
C445 C 0.45084 0.96417 0.35917 0.0
C446 C 0.49219 0.03185 0.50047 0.0
C447 C 0.48761 0.97322 0.46369 0.0
H448 H 0.55198 0.01778 0.7157 0.0
H449 H 0.60454 0.04611 0.74399 0.0
H450 H 0.55717 0.07732 0.68807 0.0
H451 H 0.59043 0.07596 0.71494 0.0
H452 H 0.45977 0.99852 0.47795 0.0
H453 H 0.42598 0.9799 0.34336 0.0
H454 H 0.47686 0.95134 0.38172 0.0
H455 H 0.44847 0.95464 0.32593 0.0
Eu456 Eu 0.52944 0.50808 0.55901 0.0
C457 C 0.44806 0.48955 0.64049 0.0
C458 C 0.42571 0.49971 0.57302 0.0
C459 C 0.41794 0.4737 0.63197 0.0
C460 C 0.44345 0.50116 0.5979 0.0
C461 C 0.43526 0.47581 0.65835 0.0
C462 C 0.41314 0.48568 0.58953 0.0
C463 C 0.45711 0.46801 0.72922 0.0
N464 N 0.46485 0.49206 0.66546 0.0
C465 C 0.46928 0.4819 0.71037 0.0
C466 C 0.4401 0.46483 0.70284 0.0
Eu467 Eu 0.48461 0.5158 0.62965 0.0
N468 N 0.4559 0.51452 0.58255 0.0
C469 C 0.45096 0.5278 0.54574 0.0
C470 C 0.42087 0.51283 0.53359 0.0
C471 C 0.43348 0.52714 0.52076 0.0
H472 H 0.48243 0.48403 0.73094 0.0
H473 H 0.42997 0.53769 0.49158 0.0
H474 H 0.39953 0.48423 0.57051 0.0
H475 H 0.46088 0.45973 0.76401 0.0
H476 H 0.46059 0.53894 0.53545 0.0
H477 H 0.57726 0.47725 0.70645 0.0
H478 H 0.40732 0.51229 0.51392 0.0
H479 H 0.53765 0.5419 0.46877 0.0
H480 H 0.54786 0.48043 0.65553 0.0
H481 H 0.56237 0.56503 0.44691 0.0
H482 H 0.40799 0.46314 0.6449 0.0
H483 H 0.60315 0.49973 0.69208 0.0
H484 H 0.6155 0.52807 0.64401 0.0
H485 H 0.43068 0.45408 0.71763 0.0
H486 H 0.61139 0.55202 0.57388 0.0
N487 N 0.55654 0.505 0.6137 0.0
C488 C 0.5589 0.49051 0.64902 0.0
C489 C 0.59013 0.50141 0.67005 0.0
C490 C 0.58787 0.51593 0.63283 0.0
C491 C 0.5756 0.48862 0.67805 0.0
C492 C 0.57076 0.51725 0.6044 0.0
H493 H 0.59158 0.56606 0.50074 0.0
N494 N 0.55229 0.53084 0.53616 0.0
C495 C 0.56425 0.5555 0.4803 0.0
C496 C 0.56849 0.53069 0.56486 0.0
C497 C 0.5503 0.54242 0.49277 0.0
C498 C 0.58069 0.55607 0.51086 0.0
C499 C 0.58316 0.54331 0.553 0.0
O500 O 0.53692 0.49996 0.47704 0.0
O501 O 0.49819 0.50701 0.55269 0.0
O502 O 0.48655 0.48485 0.61093 0.0
O503 O 0.51901 0.48198 0.6048 0.0
O504 O 0.51231 0.51579 0.48482 0.0
O505 O 0.54343 0.48151 0.54397 0.0
O506 O 0.481 0.52893 0.70858 0.0
O507 O 0.51579 0.51767 0.63402 0.0
O508 O 0.52593 0.53928 0.57489 0.0
O509 O 0.49331 0.54096 0.57754 0.0
O510 O 0.50261 0.50918 0.7032 0.0
O511 O 0.46684 0.54036 0.63902 0.0
C512 C 0.49599 0.51219 0.50441 0.0
C513 C 0.5375 0.46732 0.46005 0.0
C514 C 0.51958 0.43843 0.44968 0.0
C515 C 0.52393 0.45467 0.47914 0.0
C516 C 0.5285 0.43528 0.40012 0.0
C517 C 0.54624 0.46398 0.41061 0.0
C518 C 0.54167 0.44805 0.38068 0.0
C519 C 0.50203 0.47464 0.61183 0.0
C520 C 0.54337 0.48363 0.49194 0.0
C521 C 0.59998 0.54243 0.58238 0.0
C522 C 0.60233 0.52878 0.62226 0.0
C523 C 0.51865 0.5129 0.68207 0.0
C524 C 0.47606 0.56178 0.70419 0.0
C525 C 0.49488 0.56766 0.70312 0.0
C526 C 0.49924 0.58669 0.71046 0.0
C527 C 0.48474 0.59969 0.71942 0.0
C528 C 0.46176 0.57488 0.71352 0.0
C529 C 0.46612 0.59377 0.7212 0.0
C530 C 0.51004 0.54878 0.57011 0.0
C531 C 0.4708 0.54261 0.68953 0.0
H532 H 0.51711 0.45718 0.51723 0.0
H533 H 0.5251 0.42303 0.37612 0.0
H534 H 0.55671 0.47363 0.39541 0.0
H535 H 0.54843 0.44553 0.34247 0.0
H536 H 0.50598 0.55763 0.69513 0.0
H537 H 0.48787 0.61443 0.72562 0.0
H538 H 0.44719 0.57053 0.71366 0.0
H539 H 0.45503 0.60386 0.72805 0.0
Eu540 Eu 0.01736 0.53152 0.53671 0.0
C541 C 0.02581 0.44829 0.61605 0.0
C542 C 0.0104 0.4295 0.5481 0.0
C543 C 0.03688 0.41665 0.59734 0.0
C544 C 0.01231 0.44654 0.57676 0.0
C545 C 0.03782 0.43314 0.62826 0.0
C546 C 0.02319 0.41485 0.55718 0.0
C547 C 0.04921 0.45085 0.70446 0.0
N548 N 0.02624 0.46434 0.6452 0.0
C549 C 0.03721 0.46558 0.69026 0.0
C550 C 0.04985 0.43472 0.67256 0.0
Eu551 Eu 0.00657 0.48942 0.61712 0.0
N552 N 1.00011 0.46094 0.56953 0.0
C553 C 0.98455 0.45837 0.53816 0.0
C554 C 0.99525 0.42743 0.51288 0.0
C555 C 0.98203 0.44177 0.50889 0.0
H556 H 0.03715 0.47822 0.7143 0.0
H557 H 0.96992 0.44011 0.48298 0.0
H558 H 0.02216 0.40181 0.53483 0.0
H559 H 0.05818 0.45209 0.73943 0.0
H560 H 0.97413 0.46911 0.53433 0.0
H561 H 0.05756 0.57731 0.67249 0.0
H562 H 0.99329 0.4146 0.49005 0.0
H563 H 0.98293 0.54316 0.4515 0.0
H564 H 0.05 0.54816 0.62608 0.0
H565 H 0.96238 0.57023 0.43144 0.0
H566 H 0.0462 0.40497 0.60545 0.0
H567 H 0.03782 0.60549 0.65929 0.0
H568 H 0.0098 0.62034 0.61653 0.0
H569 H 0.05924 0.42338 0.68339 0.0
H570 H 0.98366 0.61832 0.55214 0.0
N571 N 0.02569 0.55899 0.58627 0.0
C572 C 0.04105 0.56005 0.61929 0.0
C573 C 0.03422 0.5925 0.63907 0.0
C574 C 0.01871 0.59153 0.6048 0.0
C575 C 0.04544 0.5767 0.64629 0.0
C576 C 0.01489 0.57445 0.57802 0.0
H577 H 0.96596 0.59978 0.48284 0.0
N578 N 0.99746 0.55706 0.51485 0.0
C579 C 0.97291 0.57131 0.46268 0.0
C580 C 1.00023 0.57339 0.54168 0.0
C581 C 0.98456 0.55604 0.47411 0.0
C582 C 0.97495 0.58793 0.49187 0.0
C583 C 0.98894 0.58925 0.53124 0.0
O584 O 0.0216 0.54057 0.45418 0.0
O585 O 0.01606 0.50022 0.53802 0.0
O586 O 0.03816 0.48967 0.60322 0.0
O587 O 0.04383 0.52085 0.57934 0.0
O588 O 0.00534 0.51296 0.47015 0.0
O589 O 0.0457 0.53492 0.50467 0.0
O590 O 1.00001 0.48149 0.69945 0.0
O591 O 0.00816 0.52084 0.61621 0.0
O592 O 0.98607 0.53094 0.55471 0.0
O593 O 0.98101 0.49899 0.56737 0.0
O594 O 0.01912 0.50786 0.68286 0.0
O595 O 0.97746 0.48772 0.64456 0.0
C596 C 0.00908 0.49708 0.49231 0.0
C597 C 0.04679 0.52528 0.41307 0.0
C598 C 0.06209 0.49638 0.38381 0.0
C599 C 0.05708 0.50892 0.425 0.0
C600 C 0.05665 0.50031 0.33068 0.0
C601 C 0.04182 0.52907 0.35958 0.0
C602 C 0.04668 0.51661 0.31873 0.0
C603 C 0.04967 0.50408 0.59556 0.0
C604 C 0.03961 0.53767 0.45579 0.0
C605 C 0.99227 0.60604 0.55931 0.0
C606 C 0.00716 0.60719 0.5959 0.0
C607 C 0.01538 0.52391 0.66174 0.0
C608 C 0.97558 0.5005 0.73258 0.0
C609 C 0.95974 0.5114 0.71989 0.0
C610 C 0.95429 0.52641 0.75314 0.0
C611 C 0.965 0.53052 0.79923 0.0
C612 C 0.98582 0.50468 0.77953 0.0
C613 C 0.98062 0.51968 0.81227 0.0
C614 C 0.9749 0.51609 0.55498 0.0
C615 C 0.98242 0.48598 0.69476 0.0
H616 H 0.06094 0.50574 0.46613 0.0
H617 H 0.06054 0.491 0.2981 0.0
H618 H 0.03383 0.54153 0.34957 0.0
H619 H 0.04273 0.51961 0.27764 0.0
H620 H 0.95183 0.50842 0.68361 0.0
H621 H 0.96106 0.54183 0.82605 0.0
H622 H 0.99813 0.49662 0.79044 0.0
H623 H 0.98872 0.5229 0.84795 0.0
H624 H 0.15518 0.06749 0.13777 0.0
H625 H 0.12891 0.06219 0.1989 0.0
H626 H 0.15952 0.01727 0.27492 0.0
H627 H 0.18582 0.02247 0.2139 0.0
H628 H 0.12385 0.0076 0.26396 0.0
H629 H 0.1562 0.06303 0.32719 0.0
H630 H 0.16877 0.09526 0.32383 0.0
H631 H 0.11349 0.11679 0.29401 0.0
H632 H 0.10063 0.08469 0.29583 0.0
H633 H 0.07081 0.99946 0.50278 0.0
H634 H 0.09608 0.00496 0.4386 0.0
H635 H 0.06472 0.0508 0.36964 0.0
H636 H 0.03994 0.04596 0.43567 0.0
H637 H 0.09992 0.06021 0.37502 0.0
H638 H 0.06708 0.00655 0.30962 0.0
H639 H 0.05286 0.97505 0.31515 0.0
H640 H 0.10694 0.951 0.34734 0.0
H641 H 0.12145 0.98242 0.34297 0.0
C642 C 0.15633 0.05644 0.1674 0.0
C643 C 0.17275 0.04548 0.17089 0.0
C644 C 0.14127 0.05346 0.20253 0.0
C645 C 0.14228 0.03956 0.24249 0.0
C646 C 0.15834 0.02813 0.2447 0.0
C647 C 0.17338 0.03105 0.20944 0.0
C648 C 0.12677 0.03702 0.28234 0.0
C649 C 0.1188 0.01909 0.28864 0.0
C650 C 0.11962 0.0521 0.31362 0.0
C651 C 0.1275 0.07138 0.31086 0.0
C652 C 0.14676 0.0746 0.31912 0.0
C653 C 0.15393 0.09287 0.31759 0.0
C654 C 0.14195 0.10807 0.30846 0.0
C655 C 0.12277 0.10502 0.30079 0.0
C656 C 0.11554 0.08679 0.30197 0.0
C657 C 0.06941 0.01089 0.47462 0.0
C658 C 0.0532 0.02212 0.47426 0.0
C659 C 0.08379 0.01388 0.43728 0.0
C660 C 0.08222 0.02806 0.39824 0.0
C661 C 0.06627 0.03965 0.39883 0.0
C662 C 0.05196 0.03672 0.43635 0.0
C663 C 0.09715 0.03081 0.3568 0.0
C664 C 0.10496 0.04876 0.35017 0.0
C665 C 0.10395 0.01585 0.3247 0.0
C666 C 0.09534 0.99688 0.32644 0.0
C667 C 0.07593 0.99456 0.31821 0.0
C668 C 0.06782 0.97672 0.32112 0.0
C669 C 0.07899 0.96104 0.3317 0.0
C670 C 0.09831 0.96317 0.33921 0.0
C671 C 0.10649 0.98099 0.3365 0.0
H672 H 0.07268 0.94724 0.33397 0.0
H673 H 0.14752 0.12221 0.30753 0.0
H674 H 0.43091 0.15078 0.14171 0.0
H675 H 0.4352 0.12379 0.20105 0.0
H676 H 0.49357 0.13816 0.22054 0.0
H677 H 0.48927 0.16555 0.16299 0.0
H678 H 0.45521 0.09246 0.20694 0.0
H679 H 0.50684 0.13173 0.34891 0.0
H680 H 0.51392 0.16419 0.37726 0.0
H681 H 0.45758 0.18082 0.33888 0.0
H682 H 0.45009 0.14842 0.31106 0.0
H683 H 0.50209 0.03112 0.39374 0.0
H684 H 0.49326 0.05373 0.32393 0.0
H685 H 0.45807 0.0829 0.43716 0.0
H686 H 0.46636 0.06018 0.50647 0.0
H687 H 0.48197 0.10681 0.3866 0.0
H688 H 0.43792 0.06001 0.33985 0.0
H689 H 0.42628 0.02835 0.31724 0.0
H690 H 0.46058 0.02766 0.17582 0.0
H691 H 0.47241 0.05936 0.19756 0.0
C692 C 0.44471 0.14818 0.15841 0.0
C693 C 0.45968 0.1606 0.14797 0.0
C694 C 0.44716 0.13262 0.1921 0.0
C695 C 0.46461 0.12909 0.21635 0.0
C696 C 0.47987 0.14073 0.2032 0.0
C697 C 0.47743 0.15633 0.16966 0.0
C698 C 0.46658 0.11414 0.25807 0.0
C699 C 0.46118 0.09559 0.24607 0.0
C700 C 0.47369 0.11822 0.31004 0.0
C701 C 0.47799 0.1377 0.32736 0.0
C702 C 0.49596 0.14231 0.34672 0.0
C703 C 0.50004 0.1607 0.36267 0.0
C704 C 0.48623 0.17458 0.35969 0.0
C705 C 0.46828 0.17008 0.34097 0.0
C706 C 0.46412 0.15171 0.32506 0.0
C707 C 0.49226 0.04218 0.4036 0.0
C708 C 0.48532 0.04408 0.45618 0.0
C709 C 0.48722 0.05511 0.36361 0.0
C710 C 0.47515 0.07016 0.3754 0.0
C711 C 0.4676 0.07158 0.42723 0.0
C712 C 0.47247 0.0586 0.46695 0.0
C713 C 0.47127 0.08504 0.33482 0.0
C714 C 0.47619 0.10363 0.34725 0.0
C715 C 0.46322 0.08105 0.28402 0.0
C716 C 0.45616 0.062 0.27059 0.0
C717 C 0.44305 0.05306 0.3041 0.0
C718 C 0.43641 0.03512 0.29144 0.0
C719 C 0.44278 0.02595 0.24533 0.0
C720 C 0.4557 0.03477 0.21159 0.0
C721 C 0.46233 0.05276 0.22397 0.0
H722 H 0.43765 0.01204 0.23566 0.0
H723 H 0.48943 0.18881 0.372 0.0
H724 H 0.37302 0.48592 0.11861 0.0
H725 H 0.4011 0.49294 0.17326 0.0
H726 H 0.36661 0.49619 0.31498 0.0
H727 H 0.33883 0.48921 0.26101 0.0
H728 H 0.39131 0.52479 0.31144 0.0
H729 H 0.39259 0.45741 0.29026 0.0
H730 H 0.39412 0.42734 0.24118 0.0
H731 H 0.44632 0.44398 0.16987 0.0
H732 H 0.44496 0.47425 0.21806 0.0
H733 H 0.46804 0.48531 0.50386 0.0
H734 H 0.44121 0.48312 0.44153 0.0
H735 H 0.46083 0.53242 0.35898 0.0
H736 H 0.48668 0.53537 0.42297 0.0
H737 H 0.44422 0.4801 0.32768 0.0
H738 H 0.43687 0.55199 0.34299 0.0
H739 H 0.43191 0.58084 0.39573 0.0
H740 H 0.38622 0.55456 0.47885 0.0
H741 H 0.39162 0.52522 0.4283 0.0
C742 C 0.37148 0.48837 0.16132 0.0
C743 C 0.35372 0.48698 0.18554 0.0
C744 C 0.38753 0.4922 0.1926 0.0
C745 C 0.38604 0.49493 0.24848 0.0
C746 C 0.3682 0.49411 0.27212 0.0
C747 C 0.35231 0.49009 0.24119 0.0
C748 C 0.4028 0.49872 0.28308 0.0
C749 C 0.40294 0.51503 0.31472 0.0
C750 C 0.41804 0.48608 0.28751 0.0
C751 C 0.41854 0.46819 0.25713 0.0
C752 C 0.40426 0.45476 0.26353 0.0
C753 C 0.40513 0.43765 0.23605 0.0
C754 C 0.42027 0.43378 0.20227 0.0
C755 C 0.43457 0.44702 0.19589 0.0
C756 C 0.43374 0.46416 0.22324 0.0
C757 C 0.46617 0.49605 0.47358 0.0
C758 C 0.47895 0.51105 0.46994 0.0
C759 C 0.45088 0.49477 0.43775 0.0
C760 C 0.44818 0.50831 0.39713 0.0
C761 C 0.46154 0.52268 0.3921 0.0
C762 C 0.47661 0.52412 0.4282 0.0
C763 C 0.4327 0.50607 0.35664 0.0
C764 C 0.43276 0.48998 0.32384 0.0
C765 C 0.41756 0.51893 0.35116 0.0
C766 C 0.41553 0.536 0.38451 0.0
C767 C 0.42643 0.55203 0.37439 0.0
C768 C 0.42335 0.56858 0.40337 0.0
C769 C 0.40897 0.56945 0.44131 0.0
C770 C 0.39753 0.55381 0.45 0.0
C771 C 0.40071 0.53718 0.42152 0.0
H772 H 0.40653 0.5823 0.46346 0.0
H773 H 0.42096 0.4205 0.18116 0.0
H774 H 0.06025 0.34948 0.2309 0.0
H775 H 0.05455 0.37778 0.28356 0.0
H776 H 0.99695 0.37827 0.23059 0.0
H777 H 1.00246 0.34956 0.17819 0.0
H778 H 0.01243 0.41366 0.22998 0.0
H779 H 0.00821 0.36269 0.35479 0.0
H780 H 0.01875 0.33422 0.40223 0.0
H781 H 0.06666 0.364 0.46344 0.0
H782 H 0.05658 0.39257 0.41563 0.0
H783 H 0.98484 0.484 0.41694 0.0
H784 H 0.9876 0.45564 0.36216 0.0
H785 H 0.04084 0.44338 0.43763 0.0
H786 H 0.03726 0.47105 0.49505 0.0
H787 H 0.02588 0.41316 0.42544 0.0
H788 H 0.03159 0.46378 0.29522 0.0
H789 H 0.02141 0.49212 0.24671 0.0
H790 H 0.97152 0.46361 0.19438 0.0
H791 H 0.98137 0.43512 0.2431 0.0
C792 C 0.04628 0.35545 0.23059 0.0
C793 C 0.03174 0.34692 0.20071 0.0
C794 C 0.04307 0.37173 0.26077 0.0
C795 C 0.02523 0.38005 0.26205 0.0
C796 C 0.01083 0.37209 0.23059 0.0
C797 C 0.01403 0.35569 0.20038 0.0
C798 C 0.02169 0.3969 0.29667 0.0
C799 C 0.01519 0.41353 0.27285 0.0
C800 C 0.0256 0.39693 0.35251 0.0
C801 C 0.03174 0.37972 0.38109 0.0
C802 C 0.02109 0.36312 0.37792 0.0
C803 C 0.02697 0.34697 0.40497 0.0
C804 C 0.04339 0.34728 0.4357 0.0
C805 C 0.05396 0.36376 0.43954 0.0
C806 C 0.04817 0.37994 0.41248 0.0
C807 C 0.99708 0.47514 0.42179 0.0
C808 C 0.01067 0.47952 0.46075 0.0
C809 C 0.99884 0.45903 0.38979 0.0
C810 C 0.01478 0.44743 0.39382 0.0
C811 C 0.02842 0.45197 0.43294 0.0
C812 C 0.02638 0.46779 0.46603 0.0
C813 C 0.01708 0.43034 0.35875 0.0
C814 C 0.02326 0.41352 0.38253 0.0
C815 C 0.01304 0.43024 0.30272 0.0
C816 C 0.00716 0.44737 0.27335 0.0
C817 C 0.01842 0.46358 0.27374 0.0
C818 C 0.01271 0.47968 0.24614 0.0
C819 C 0.9958 0.4797 0.21766 0.0
C820 C 0.98461 0.46359 0.21655 0.0
C821 C 0.99026 0.44746 0.24409 0.0
H822 H 0.9914 0.49217 0.19632 0.0
H823 H 0.04791 0.33477 0.45665 0.0
H824 H 0.85006 1.00075 0.03207 0.0
H825 H 0.87826 0.00566 0.97818 0.0
H826 H 0.85397 0.97303 0.84951 0.0
H827 H 0.82649 0.96693 0.90426 0.0
H828 H 0.88844 0.96492 0.85235 0.0
H829 H 0.85509 0.02347 0.85235 0.0
H830 H 0.83962 0.05114 0.89218 0.0
H831 H 0.89128 0.06712 0.96869 0.0
H832 H 0.907 0.03941 0.92983 0.0
H833 H 0.94311 0.02628 0.65249 0.0
H834 H 0.91715 0.02254 0.71572 0.0
H835 H 0.95162 0.98687 0.81482 0.0
H836 H 0.9777 0.99058 0.75207 0.0
H837 H 0.91235 0.02968 0.82556 0.0
H838 H 0.92395 0.94971 0.85125 0.0
H839 H 0.93848 0.92401 0.79911 0.0
H840 H 0.926 0.95291 0.65216 0.0
H841 H 0.91103 0.97848 0.70316 0.0
C842 C 0.85078 0.99438 0.99263 0.0
C843 C 0.83568 0.98366 0.97257 0.0
C844 C 0.8669 0.9974 0.96144 0.0
C845 C 0.86823 0.99006 0.90901 0.0
C846 C 0.85339 0.97898 0.88953 0.0
C847 C 0.83744 0.97574 0.92085 0.0
C848 C 0.8848 0.99408 0.87387 0.0
C849 C 0.89365 0.9791 0.84695 0.0
C850 C 0.89157 0.0126 0.86531 0.0
C851 C 0.88216 0.02927 0.88866 0.0
C852 C 0.86311 0.03282 0.87798 0.0
C853 C 0.8543 0.04851 0.90033 0.0
C854 C 0.86445 0.06085 0.93307 0.0
C855 C 0.88343 0.05754 0.9434 0.0
C856 C 0.8923 0.04185 0.9212 0.0
C857 C 0.94526 0.01776 0.68795 0.0
C858 C 0.96251 0.00864 0.6969 0.0
C859 C 0.93041 0.01574 0.72426 0.0
C860 C 0.93238 0.00436 0.76992 0.0
C861 C 0.94974 0.99566 0.77975 0.0
C862 C 0.96465 0.99782 0.74377 0.0
C863 C 0.91595 1.00056 0.80523 0.0
C864 C 0.90717 0.01553 0.83179 0.0
C865 C 0.90885 0.98216 0.81206 0.0
C866 C 0.91661 0.96613 0.78114 0.0
C867 C 0.92418 0.95049 0.80781 0.0
C868 C 0.93255 0.93598 0.77845 0.0
C869 C 0.93336 0.93697 0.72244 0.0
C870 C 0.92554 0.95228 0.69557 0.0
C871 C 0.91706 0.96673 0.72466 0.0
H872 H 0.93977 0.92577 0.69964 0.0
H873 H 0.8576 0.073 0.95033 0.0
H874 H 0.56372 0.83883 0.90919 0.0
H875 H 0.56068 0.86778 0.85846 0.0
H876 H 0.52423 0.89039 0.98041 0.0
H877 H 0.52645 0.86083 0.03054 0.0
H878 H 0.51055 0.89804 0.88374 0.0
H879 H 0.57098 0.905 0.96525 0.0
H880 H 0.60299 0.89521 0.99039 0.0
H881 H 0.61816 0.89185 0.82392 0.0
H882 H 0.58614 0.90128 0.79769 0.0
H883 H 0.50863 0.98747 0.76271 0.0
H884 H 0.51436 0.9625 0.82799 0.0
H885 H 0.55463 0.93733 0.72065 0.0
H886 H 0.5497 0.96278 0.65692 0.0
H887 H 0.56639 0.93123 0.81323 0.0
H888 H 0.50638 0.9237 0.73271 0.0
H889 H 0.47443 0.93289 0.70532 0.0
H890 H 0.45829 0.93747 0.87084 0.0
H891 H 0.49034 0.92904 0.89921 0.0
C892 C 0.55487 0.84982 0.92524 0.0
C893 C 0.54519 0.84729 0.97399 0.0
C894 C 0.55337 0.86657 0.89637 0.0
C895 C 0.54245 0.88151 0.91576 0.0
C896 C 0.53283 0.87915 0.96459 0.0
C897 C 0.53423 0.86227 0.99349 0.0
C898 C 0.54072 0.89925 0.88401 0.0
C899 C 0.52276 0.90569 0.86976 0.0
C900 C 0.55663 0.90891 0.86392 0.0
C901 C 0.57604 0.90358 0.87951 0.0
C902 C 0.58108 0.902 0.93397 0.0
C903 C 0.59922 0.89648 0.94842 0.0
C904 C 0.61253 0.89269 0.90877 0.0
C905 C 0.60778 0.8946 0.85457 0.0
C906 C 0.58964 0.90006 0.8399 0.0
C907 C 0.51899 0.97686 0.75352 0.0
C908 C 0.52836 0.97691 0.70395 0.0
C909 C 0.52209 0.96237 0.79062 0.0
C910 C 0.53446 0.94751 0.77875 0.0
C911 C 0.54481 0.94837 0.73088 0.0
C912 C 0.54189 0.96293 0.69417 0.0
C913 C 0.53617 0.93077 0.81494 0.0
C914 C 0.55412 0.9242 0.82899 0.0
C915 C 0.52025 0.92111 0.8351 0.0
C916 C 0.50086 0.92597 0.81809 0.0
C917 C 0.49607 0.92686 0.76327 0.0
C918 C 0.47795 0.93199 0.74756 0.0
C919 C 0.46436 0.93592 0.78632 0.0
C920 C 0.46886 0.93463 0.84084 0.0
C921 C 0.48702 0.92971 0.85677 0.0
H922 H 0.45032 0.93987 0.77411 0.0
H923 H 0.62657 0.88846 0.92005 0.0
H924 H 0.6724 0.51436 0.96034 0.0
H925 H 0.6449 0.5093 0.90311 0.0
H926 H 0.62046 0.56066 0.96237 0.0
H927 H 0.64724 0.56517 0.02192 0.0
H928 H 0.59396 0.53749 0.95104 0.0
H929 H 0.64509 0.55562 0.83946 0.0
H930 H 0.67602 0.55437 0.79594 0.0
H931 H 0.66198 0.50128 0.72442 0.0
H932 H 0.631 0.50205 0.76811 0.0
H933 H 0.54455 0.54143 0.67102 0.0
H934 H 0.5718 0.54791 0.72907 0.0
H935 H 0.5568 0.50097 0.82933 0.0
H936 H 0.52986 0.4943 0.77103 0.0
H937 H 0.60294 0.52488 0.757 0.0
H938 H 0.56408 0.51488 0.95948 0.0
H939 H 0.53239 0.52006 0.99632 0.0
H940 H 0.5223 0.56299 0.87885 0.0
H941 H 0.554 0.55825 0.84187 0.0
C942 C 0.66101 0.52438 0.96219 0.0
C943 C 0.66229 0.54031 0.9957 0.0
C944 C 0.64534 0.52161 0.92866 0.0
C945 C 0.63065 0.53481 0.92712 0.0
C946 C 0.63157 0.55028 0.96215 0.0
C947 C 0.64708 0.55295 0.99601 0.0
C948 C 0.61445 0.53277 0.88885 0.0
C949 C 0.59606 0.53459 0.90871 0.0
C950 C 0.6169 0.52944 0.83299 0.0
C951 C 0.63573 0.5288 0.80762 0.0
C952 C 0.64861 0.54358 0.81486 0.0
C953 C 0.66616 0.54298 0.79007 0.0
C954 C 0.67099 0.52773 0.75756 0.0
C955 C 0.65824 0.51307 0.74972 0.0
C956 C 0.64068 0.51358 0.7745 0.0
C957 C 0.54728 0.53234 0.70496 0.0
C958 C 0.53544 0.51697 0.71555 0.0
C959 C 0.56281 0.5361 0.73824 0.0
C960 C 0.56646 0.52487 0.7835 0.0
C961 C 0.55432 0.50983 0.79472 0.0
C962 C 0.53894 0.50601 0.76135 0.0
C963 C 0.58275 0.5288 0.81974 0.0
C964 C 0.60103 0.52741 0.7995 0.0
C965 C 0.58028 0.53289 0.87487 0.0
C966 C 0.56134 0.53606 0.89763 0.0
C967 C 0.55512 0.52548 0.94171 0.0
C968 C 0.53716 0.52833 0.96257 0.0
C969 C 0.52532 0.5418 0.93983 0.0
C970 C 0.53145 0.5525 0.8963 0.0
C971 C 0.5494 0.54972 0.87534 0.0
H972 H 0.51141 0.54396 0.95602 0.0
H973 H 0.68458 0.5273 0.73835 0.0
H974 H 0.97092 0.67871 0.90052 0.0
H975 H 0.97455 0.6499 0.84863 0.0
H976 H 1.00223 0.62375 0.98326 0.0
H977 H 0.9992 0.65291 0.03506 0.0
H978 H 0.02155 0.61786 0.89584 0.0
H979 H 0.95665 0.61076 0.93913 0.0
H980 H 0.92326 0.61945 0.94574 0.0
H981 H 0.92036 0.62592 0.77455 0.0
H982 H 0.9537 0.61732 0.76683 0.0
H983 H 0.0316 0.53131 0.75797 0.0
H984 H 0.02473 0.55654 0.82062 0.0
H985 H 0.98584 0.58044 0.70636 0.0
H986 H 0.9909 0.55354 0.64693 0.0
H987 H 0.97151 0.58638 0.79076 0.0
H988 H 0.03728 0.60421 0.75306 0.0
H989 H 0.07155 0.6 0.74597 0.0
H990 H 0.07284 0.57573 0.9038 0.0
H991 H 0.03859 0.58021 0.9117 0.0
C992 C 0.97785 0.66688 0.91926 0.0
C993 C 0.98498 0.66833 0.97201 0.0
C994 C 0.97965 0.65023 0.88963 0.0
C995 C 0.98849 0.63443 0.91192 0.0
C996 C 0.99528 0.63567 0.96501 0.0
C997 C 0.99346 0.65236 0.99478 0.0
C998 C 0.99201 0.61726 0.87838 0.0
C999 C 0.01049 0.61077 0.87362 0.0
C1000 C 0.9778 0.60821 0.84787 0.0
C1001 C 0.95775 0.61357 0.85249 0.0
C1002 C 0.94893 0.61417 0.90292 0.0
C1003 C 0.92997 0.61901 0.90683 0.0
C1004 C 0.91967 0.62321 0.86057 0.0
C1005 C 0.9283 0.62257 0.81031 0.0
C1006 C 0.94723 0.6177 0.80614 0.0
C1007 C 0.02171 0.54207 0.74595 0.0
C1008 C 0.0124 0.5408 0.69624 0.0
C1009 C 0.01799 0.55683 0.78171 0.0
C1010 C 0.00535 0.57126 0.76817 0.0
C1011 C 0.99586 0.56982 0.71841 0.0
C1012 C 0.99902 0.55458 0.6836 0.0
C1013 C 1.00123 0.58717 0.80667 0.0
C1014 C 0.98259 0.59337 0.81283 0.0
C1015 C 0.0153 0.59616 0.83816 0.0
C1016 C 0.03546 0.59208 0.83217 0.0
C1017 C 0.0449 0.59761 0.78553 0.0
C1018 C 0.06431 0.59534 0.78168 0.0
C1019 C 0.07437 0.58741 0.82424 0.0
C1020 C 0.06503 0.58178 0.87077 0.0
C1021 C 0.04565 0.58428 0.87504 0.0
H1022 H 0.08942 0.58577 0.82147 0.0
H1023 H 0.905 0.62695 0.86366 0.0
H1024 H 0.0861 0.20923 0.30387 0.0
H1025 H 0.0826 0.18266 0.36311 0.0
H1026 H 0.10744 0.1464 0.244 0.0
H1027 H 0.11166 0.17331 0.18449 0.0
H1028 H 0.07244 0.13667 0.26369 0.0
H1029 H 0.12496 0.14547 0.37241 0.0
H1030 H 0.14924 0.16205 0.42481 0.0
H1031 H 0.10749 0.18113 0.53621 0.0
H1032 H 0.08289 0.16491 0.48412 0.0
H1033 H 0.01506 0.07739 0.41545 0.0
H1034 H 0.04493 0.08814 0.38086 0.0
H1035 H 0.03853 0.14038 0.46683 0.0
H1036 H 0.00963 0.12886 0.50689 0.0
H1037 H 0.07434 0.13184 0.46227 0.0
H1038 H 0.02263 0.13257 0.32886 0.0
H1039 H 0.99835 0.11674 0.27421 0.0
H1040 H 0.04005 0.07996 0.20785 0.0
H1041 H 0.06453 0.09551 0.26248 0.0
C1042 C 0.09179 0.19588 0.29098 0.0
C1043 C 0.09875 0.19341 0.23862 0.0
C1044 C 0.08976 0.18056 0.32526 0.0
C1045 C 0.09461 0.16244 0.30797 0.0
C1046 C 0.10353 0.16024 0.25817 0.0
C1047 C 0.10576 0.17563 0.22397 0.0
C1048 C 0.08625 0.1461 0.33601 0.0
C1049 C 0.07337 0.13515 0.30698 0.0
C1050 C 0.08736 0.1441 0.39242 0.0
C1051 C 0.10204 0.15395 0.4242 0.0
C1052 C 0.12092 0.1533 0.40789 0.0
C1053 C 0.13475 0.16262 0.43759 0.0
C1054 C 0.12991 0.17264 0.48381 0.0
C1055 C 0.11122 0.17334 0.50045 0.0
C1056 C 0.09732 0.16403 0.4709 0.0
C1057 C 0.02018 0.09091 0.42876 0.0
C1058 C 0.0096 0.1023 0.46383 0.0
C1059 C 0.03727 0.09715 0.40814 0.0
C1060 C 0.04379 0.11528 0.42 0.0
C1061 C 0.03375 0.12637 0.45671 0.0
C1062 C 0.01695 0.1199 0.47875 0.0
C1063 C 0.05975 0.12364 0.39011 0.0
C1064 C 0.07401 0.13291 0.41884 0.0
C1065 C 0.05997 0.12417 0.33325 0.0
C1066 C 0.04532 0.11504 0.30002 0.0
C1067 C 0.02657 0.12107 0.30268 0.0
C1068 C 0.01279 0.11215 0.27176 0.0
C1069 C 0.01764 0.09732 0.23769 0.0
C1070 C 0.0363 0.09143 0.23433 0.0
C1071 C 0.05014 0.10029 0.26521 0.0
H1072 H 0.00695 0.09042 0.21382 0.0
H1073 H 0.14064 0.17986 0.50674 0.0
H1074 H 0.33056 0.12186 0.28645 0.0
H1075 H 0.3549 0.11342 0.35229 0.0
H1076 H 0.32809 0.05949 0.37417 0.0
H1077 H 0.30336 0.06857 0.31321 0.0
H1078 H 0.34396 0.06569 0.4585 0.0
H1079 H 0.36539 0.07414 0.27027 0.0
H1080 H 0.37411 0.0925 0.19012 0.0
H1081 H 0.41213 0.1256 0.28527 0.0
H1082 H 0.40337 0.1076 0.36609 0.0
H1083 H 0.40273 0.98979 0.40396 0.0
H1084 H 0.38092 0.01593 0.409 0.0
H1085 H 0.42629 0.0532 0.45226 0.0
H1086 H 0.44847 0.02723 0.44349 0.0
H1087 H 0.40633 0.06648 0.37163 0.0
H1088 H 0.39146 0.03726 0.53887 0.0
H1089 H 0.38329 0.00928 0.5921 0.0
H1090 H 0.32966 0.00624 0.5147 0.0
H1091 H 0.33805 0.03276 0.45678 0.0
C1092 C 0.32964 0.10853 0.30717 0.0
C1093 C 0.31515 0.09584 0.29492 0.0
C1094 C 0.34363 0.10361 0.34431 0.0
C1095 C 0.3438 0.08555 0.36729 0.0
C1096 C 0.32848 0.07354 0.3576 0.0
C1097 C 0.31426 0.07871 0.32238 0.0
C1098 C 0.3606 0.07768 0.39513 0.0
C1099 C 0.35762 0.06578 0.43942 0.0
C1100 C 0.37881 0.07855 0.37238 0.0
C1101 C 0.38338 0.08987 0.32434 0.0
C1102 C 0.37541 0.08551 0.27414 0.0
C1103 C 0.38039 0.09582 0.22861 0.0
C1104 C 0.39357 0.1103 0.23266 0.0
C1105 C 0.40181 0.11448 0.28225 0.0
C1106 C 0.3968 0.10428 0.32795 0.0
C1107 C 0.40812 1.00352 0.41459 0.0
C1108 C 0.42741 0.00645 0.42283 0.0
C1109 C 0.39555 0.01842 0.41843 0.0
C1110 C 0.40189 0.03646 0.4322 0.0
C1111 C 0.42105 0.03933 0.4424 0.0
C1112 C 0.4337 0.02445 0.43772 0.0
C1113 C 0.38878 0.05254 0.42928 0.0
C1114 C 0.39281 0.06651 0.39148 0.0
C1115 C 0.37106 0.05242 0.45503 0.0
C1116 C 0.36548 0.03723 0.49311 0.0
C1117 C 0.37797 0.0306 0.53268 0.0
C1118 C 0.37334 0.01488 0.56357 0.0
C1119 C 0.35592 0.00621 0.55738 0.0
C1120 C 0.34315 0.01302 0.51964 0.0
C1121 C 0.34792 0.0283 0.48733 0.0
H1122 H 0.35234 0.99417 0.58176 0.0
H1123 H 0.39746 0.11821 0.19733 0.0
H1124 H 0.45892 0.30144 0.32206 0.0
H1125 H 0.46364 0.32508 0.39101 0.0
H1126 H 0.41095 0.35104 0.34814 0.0
H1127 H 0.40684 0.32778 0.27603 0.0
H1128 H 0.43598 0.37593 0.35039 0.0
H1129 H 0.41998 0.32987 0.47955 0.0
H1130 H 0.42022 0.29763 0.51535 0.0
H1131 H 0.4796 0.3014 0.54261 0.0
H1132 H 0.47979 0.33356 0.50642 0.0
H1133 H 0.484 0.44548 0.48562 0.0
H1134 H 0.45872 0.42228 0.49429 0.0
H1135 H 0.49845 0.37769 0.46619 0.0
H1136 H 0.52359 0.40068 0.4579 0.0
H1137 H 0.46707 0.36555 0.52644 0.0
H1138 H 0.48226 0.39871 0.35528 0.0
H1139 H 0.48686 0.42843 0.30621 0.0
H1140 H 0.43205 0.44692 0.35425 0.0
H1141 H 0.42719 0.41726 0.40354 0.0
C1142 C 0.44808 0.31187 0.32837 0.0
C1143 C 0.43248 0.31277 0.29408 0.0
C1144 C 0.45067 0.32532 0.36831 0.0
C1145 C 0.43741 0.33966 0.37613 0.0
C1146 C 0.4213 0.34004 0.34338 0.0
C1147 C 0.41894 0.32679 0.30228 0.0
C1148 C 0.44206 0.35566 0.41234 0.0
C1149 C 0.44196 0.37373 0.39 0.0
C1150 C 0.45015 0.35291 0.4639 0.0
C1151 C 0.44987 0.33419 0.49021 0.0
C1152 C 0.43308 0.32386 0.49335 0.0
C1153 C 0.43316 0.30554 0.51343 0.0
C1154 C 0.44993 0.29743 0.53093 0.0
C1155 C 0.46663 0.30768 0.52886 0.0
C1156 C 0.46663 0.32601 0.50888 0.0
C1157 C 0.4874 0.43067 0.48341 0.0
C1158 C 0.50555 0.4248 0.46933 0.0
C1159 C 0.47299 0.41745 0.48868 0.0
C1160 C 0.47667 0.3983 0.47985 0.0
C1161 C 0.49527 0.39237 0.47303 0.0
C1162 C 0.50959 0.40553 0.46749 0.0
C1163 C 0.46157 0.38527 0.46296 0.0
C1164 C 0.45983 0.36783 0.48864 0.0
C1165 C 0.4519 0.38841 0.41413 0.0
C1166 C 0.45441 0.40591 0.3831 0.0
C1167 C 0.47119 0.40912 0.3551 0.0
C1168 C 0.47385 0.42593 0.32733 0.0
C1169 C 0.45975 0.43954 0.327 0.0
C1170 C 0.44294 0.43635 0.35433 0.0
C1171 C 0.44021 0.41953 0.38216 0.0
H1172 H 0.46191 0.45254 0.30554 0.0
H1173 H 0.44997 0.28325 0.54645 0.0
H1174 H 0.19038 0.39683 0.21481 0.0
H1175 H 0.16194 0.39606 0.26974 0.0
H1176 H 0.18299 0.44235 0.36423 0.0
H1177 H 0.21143 0.44297 0.31038 0.0
H1178 H 0.15838 0.42057 0.42294 0.0
H1179 H 0.16131 0.4512 0.24698 0.0
H1180 H 0.16684 0.45103 0.1492 0.0
H1181 H 0.12461 0.40855 0.12892 0.0
H1182 H 0.11905 0.40829 0.22681 0.0
H1183 H 0.09479 0.49546 0.44064 0.0
H1184 H 0.11836 0.47064 0.43811 0.0
H1185 H 0.08002 0.43518 0.34965 0.0
H1186 H 0.05676 0.46025 0.3506 0.0
H1187 H 0.1096 0.44134 0.29372 0.0
H1188 H 0.09962 0.42144 0.47149 0.0
H1189 H 0.09461 0.42403 0.56909 0.0
H1190 H 0.14953 0.44796 0.58836 0.0
H1191 H 0.15469 0.44602 0.49093 0.0
C1192 C 0.18919 0.40638 0.24852 0.0
C1193 C 0.20292 0.42021 0.25765 0.0
C1194 C 0.173 0.40586 0.28006 0.0
C1195 C 0.17019 0.41944 0.32025 0.0
C1196 C 0.18486 0.43176 0.33343 0.0
C1197 C 0.20111 0.43214 0.30238 0.0
C1198 C 0.15104 0.4238 0.3396 0.0
C1199 C 0.14756 0.42499 0.39501 0.0
C1200 C 0.13684 0.42919 0.30293 0.0
C1201 C 0.13994 0.42955 0.24411 0.0
C1202 C 0.15328 0.44177 0.22164 0.0
C1203 C 0.15642 0.44174 0.16625 0.0
C1204 C 0.14612 0.42974 0.13289 0.0
C1205 C 0.13261 0.4178 0.15484 0.0
C1206 C 0.12947 0.41771 0.21026 0.0
C1207 C 0.09118 0.48212 0.42231 0.0
C1208 C 0.0741 0.47988 0.3948 0.0
C1209 C 0.10462 0.46786 0.4212 0.0
C1210 C 0.10103 0.45103 0.39337 0.0
C1211 C 0.08318 0.44807 0.37101 0.0
C1212 C 0.06991 0.46244 0.37131 0.0
C1213 C 0.11688 0.43872 0.37757 0.0
C1214 C 0.11988 0.4362 0.32235 0.0
C1215 C 0.13057 0.43237 0.41463 0.0
C1216 C 0.12754 0.43361 0.4736 0.0
C1217 C 0.11059 0.42741 0.49644 0.0
C1218 C 0.10771 0.42876 0.55183 0.0
C1219 C 0.12174 0.43614 0.58498 0.0
C1220 C 0.13866 0.44222 0.56277 0.0
C1221 C 0.14157 0.44099 0.5074 0.0
H1222 H 0.11949 0.43712 0.62786 0.0
H1223 H 0.14857 0.42974 0.09001 0.0
H1224 H 0.91843 0.7808 0.83659 0.0
H1225 H 0.92058 0.8005 0.75763 0.0
H1226 H 0.90616 0.84901 0.85271 0.0
H1227 H 0.9019 0.8291 0.93096 0.0
H1228 H 0.90006 0.85696 0.75212 0.0
H1229 H 0.95159 0.83095 0.85328 0.0
H1230 H 0.97014 0.80524 0.89307 0.0
H1231 H 0.97977 0.78218 0.73605 0.0
H1232 H 0.96097 0.80762 0.69545 0.0
H1233 H 0.98243 0.91545 0.73535 0.0
H1234 H 0.95706 0.89416 0.75866 0.0
H1235 H 0.95803 0.87073 0.5991 0.0
H1236 H 0.98295 0.8927 0.57402 0.0
H1237 H 0.96717 0.84761 0.70708 0.0
H1238 H 0.92198 0.88473 0.61225 0.0
H1239 H 0.90432 0.91311 0.58665 0.0
H1240 H 0.88538 0.91969 0.749 0.0
H1241 H 0.9032 0.89161 0.776 0.0
C1242 C 0.9146 0.79543 0.84057 0.0
C1243 C 0.91096 0.8035 0.89122 0.0
C1244 C 0.91603 0.80677 0.79506 0.0
C1245 C 0.9146 0.82635 0.79997 0.0
C1246 C 0.90787 0.83398 0.84819 0.0
C1247 C 0.90577 0.82256 0.8933 0.0
C1248 C 0.92403 0.83884 0.76074 0.0
C1249 C 0.91468 0.85489 0.74183 0.0
C1250 C 0.94317 0.83614 0.74735 0.0
C1251 C 0.95469 0.821 0.77144 0.0
C1252 C 0.9576 0.82033 0.8273 0.0
C1253 C 0.96814 0.80582 0.84999 0.0
C1254 C 0.97609 0.79205 0.81711 0.0
C1255 C 0.97355 0.79282 0.76146 0.0
C1256 C 0.96294 0.80726 0.73859 0.0
C1257 C 0.9769 0.9063 0.70436 0.0
C1258 C 0.98485 0.90585 0.65267 0.0
C1259 C 0.96235 0.89412 0.71789 0.0
C1260 C 0.95549 0.88119 0.68029 0.0
C1261 C 0.96296 0.88091 0.6283 0.0
C1262 C 0.97738 0.89329 0.61437 0.0
C1263 C 0.94331 0.86587 0.69927 0.0
C1264 C 0.95231 0.84934 0.71528 0.0
C1265 C 0.92419 0.86868 0.71196 0.0
C1266 C 0.91406 0.88605 0.69623 0.0
C1267 C 0.91428 0.89235 0.64272 0.0
C1268 C 0.90416 0.90835 0.62788 0.0
C1269 C 0.89368 0.91813 0.66608 0.0
C1270 C 0.89338 0.91201 0.71933 0.0
C1271 C 0.90352 0.89607 0.73444 0.0
H1272 H 0.88587 0.93051 0.6545 0.0
H1273 H 0.98425 0.78082 0.83474 0.0
H1274 H 0.68743 0.89955 0.90179 0.0
H1275 H 0.65906 0.90652 0.84896 0.0
H1276 H 0.64178 0.94612 0.97099 0.0
H1277 H 0.66874 0.93793 0.02477 0.0
H1278 H 0.61294 0.93537 0.92985 0.0
H1279 H 0.67256 0.956 0.84904 0.0
H1280 H 0.70337 0.95043 0.80683 0.0
H1281 H 0.67712 0.91664 0.68488 0.0
H1282 H 0.64618 0.92188 0.72683 0.0
H1283 H 0.59857 0.02488 0.82407 0.0
H1284 H 0.6115 0.99569 0.85964 0.0
H1285 H 0.59078 0.96557 0.72115 0.0
H1286 H 0.57767 0.99493 0.68512 0.0
H1287 H 0.63024 0.96005 0.75085 0.0
H1288 H 0.56957 0.96314 0.82869 0.0
H1289 H 0.54314 0.97573 0.88028 0.0
H1290 H 0.57639 0.97513 0.02391 0.0
H1291 H 0.60332 0.96305 0.97339 0.0
C1292 C 0.67711 0.9092 0.91776 0.0
C1293 C 0.68021 0.91823 0.96718 0.0
C1294 C 0.66104 0.91336 0.88742 0.0
C1295 C 0.64848 0.92736 0.90486 0.0
C1296 C 0.65105 0.93525 0.95613 0.0
C1297 C 0.6666 0.9306 0.98707 0.0
C1298 C 0.63415 0.9359 0.86865 0.0
C1299 C 0.61671 0.94085 0.89077 0.0
C1300 C 0.63866 0.94233 0.81639 0.0
C1301 C 0.65718 0.93908 0.79141 0.0
C1302 C 0.67342 0.9473 0.81338 0.0
C1303 C 0.69087 0.94421 0.78953 0.0
C1304 C 0.6922 0.93313 0.74332 0.0
C1305 C 0.67607 0.92516 0.72079 0.0
C1306 C 0.65858 0.92817 0.74459 0.0
C1307 C 0.59684 0.01206 0.8011 0.0
C1308 C 0.58721 0.0121 0.75189 0.0
C1309 C 0.60407 0.99541 0.82163 0.0
C1310 C 0.60183 0.97854 0.79328 0.0
C1311 C 0.59245 0.9785 0.74368 0.0
C1312 C 0.58498 0.99518 0.72334 0.0
C1313 C 0.61021 0.96126 0.81521 0.0
C1314 C 0.62622 0.9543 0.78952 0.0
C1315 C 0.60502 0.9542 0.86619 0.0
C1316 C 0.58861 0.96172 0.89681 0.0
C1317 C 0.5714 0.9656 0.8712 0.0
C1318 C 0.55625 0.97272 0.90034 0.0
C1319 C 0.55801 0.97604 0.95535 0.0
C1320 C 0.57498 0.97239 0.98131 0.0
C1321 C 0.59021 0.96536 0.95235 0.0
H1322 H 0.54625 0.98155 0.9778 0.0
H1323 H 0.70573 0.93076 0.72488 0.0
H1324 H 0.59985 0.71513 0.85276 0.0
H1325 H 0.59479 0.69139 0.78463 0.0
H1326 H 0.60503 0.6479 0.9012 0.0
H1327 H 0.61217 0.67161 0.9688 0.0
H1328 H 0.60945 0.63392 0.80156 0.0
H1329 H 0.56253 0.6689 0.89738 0.0
H1330 H 0.54723 0.69778 0.93001 0.0
H1331 H 0.53661 0.71488 0.76743 0.0
H1332 H 0.5522 0.68623 0.73386 0.0
H1333 H 0.52769 0.57578 0.77653 0.0
H1334 H 0.55639 0.5937 0.79442 0.0
H1335 H 0.54329 0.63053 0.662 0.0
H1336 H 0.51441 0.61289 0.64537 0.0
H1337 H 0.54317 0.64834 0.75649 0.0
H1338 H 0.58547 0.60633 0.6661 0.0
H1339 H 0.59915 0.57549 0.64503 0.0
H1340 H 0.61509 0.56855 0.81025 0.0
H1341 H 0.60148 0.59927 0.83228 0.0
C1342 C 0.60215 0.70063 0.86376 0.0
C1343 C 0.60547 0.69537 0.91748 0.0
C1344 C 0.5991 0.68698 0.82443 0.0
C1345 C 0.59857 0.66792 0.83859 0.0
C1346 C 0.60487 0.66256 0.88967 0.0
C1347 C 0.60858 0.67621 0.92866 0.0
C1348 C 0.58739 0.65452 0.80593 0.0
C1349 C 0.595 0.63707 0.79127 0.0
C1350 C 0.56843 0.65852 0.79313 0.0
C1351 C 0.55872 0.67557 0.81313 0.0
C1352 C 0.55701 0.67887 0.86862 0.0
C1353 C 0.5483 0.6952 0.88728 0.0
C1354 C 0.541 0.70818 0.85081 0.0
C1355 C 0.54233 0.70483 0.79561 0.0
C1356 C 0.55111 0.68856 0.77674 0.0
C1357 C 0.53139 0.58727 0.75011 0.0
C1358 C 0.5188 0.59335 0.71037 0.0
C1359 C 0.54782 0.59744 0.7601 0.0
C1360 C 0.55189 0.61359 0.72985 0.0
C1361 C 0.54036 0.61821 0.68603 0.0
C1362 C 0.52388 0.60821 0.6766 0.0
C1363 C 0.56524 0.62776 0.75092 0.0
C1364 C 0.55784 0.64535 0.76463 0.0
C1365 C 0.58407 0.62355 0.76417 0.0
C1366 C 0.59247 0.60511 0.75082 0.0
C1367 C 0.59186 0.59818 0.69795 0.0
C1368 C 0.59963 0.58068 0.6858 0.0
C1369 C 0.60808 0.56999 0.72616 0.0
C1370 C 0.60869 0.57679 0.77882 0.0
C1371 C 0.60099 0.59429 0.79116 0.0
H1372 H 0.61414 0.55647 0.71664 0.0
H1373 H 0.53426 0.72082 0.86532 0.0
H1374 H 0.78919 0.57865 0.82385 0.0
H1375 H 0.81439 0.57296 0.76047 0.0
H1376 H 0.84894 0.61373 0.84201 0.0
H1377 H 0.82348 0.62003 0.90509 0.0
H1378 H 0.85824 0.60503 0.72285 0.0
H1379 H 0.85096 0.57684 0.90288 0.0
H1380 H 0.83111 0.56217 0.97221 0.0
H1381 H 0.81537 0.5187 0.86116 0.0
H1382 H 0.83501 0.53327 0.791 0.0
H1383 H 0.94848 0.56426 0.76349 0.0
H1384 H 0.91847 0.58074 0.76073 0.0
H1385 H 0.89086 0.52948 0.71232 0.0
H1386 H 0.92066 0.51276 0.71741 0.0
H1387 H 0.87594 0.54331 0.8004 0.0
H1388 H 0.89275 0.56739 0.62979 0.0
H1389 H 0.91328 0.58261 0.56337 0.0
H1390 H 0.9118 0.63389 0.65415 0.0
H1391 H 0.8914 0.61893 0.7215 0.0
C1392 C 0.80167 0.58728 0.82664 0.0
C1393 C 0.80455 0.59939 0.8706 0.0
C1394 C 0.8161 0.584 0.79011 0.0
C1395 C 0.8336 0.59265 0.79735 0.0
C1396 C 0.83552 0.60688 0.83592 0.0
C1397 C 0.82104 0.61027 0.8724 0.0
C1398 C 0.85058 0.58302 0.77764 0.0
C1399 C 0.86223 0.59154 0.73948 0.0
C1400 C 0.85553 0.56535 0.79916 0.0
C1401 C 0.84427 0.55621 0.84169 0.0
C1402 C 0.8432 0.56419 0.89327 0.0
C1403 C 0.832 0.55591 0.93267 0.0
C1404 C 0.82193 0.53956 0.92103 0.0
C1405 C 0.82315 0.53139 0.87007 0.0
C1406 C 0.83432 0.53963 0.8305 0.0
C1407 C 0.93605 0.55656 0.75174 0.0
C1408 C 0.9369 0.53715 0.74169 0.0
C1409 C 0.91894 0.56605 0.74937 0.0
C1410 C 0.90243 0.55631 0.73622 0.0
C1411 C 0.90347 0.53723 0.72244 0.0
C1412 C 0.92054 0.52772 0.72514 0.0
C1413 C 0.88392 0.56518 0.74508 0.0
C1414 C 0.87194 0.55656 0.78219 0.0
C1415 C 0.87888 0.58273 0.72249 0.0
C1416 C 0.89071 0.59195 0.68118 0.0
C1417 C 0.8969 0.58187 0.63587 0.0
C1418 C 0.90849 0.59046 0.59795 0.0
C1419 C 0.9139 0.60918 0.60463 0.0
C1420 C 0.90762 0.61938 0.64906 0.0
C1421 C 0.89601 0.61086 0.68708 0.0
H1422 H 0.92291 0.61579 0.57529 0.0
H1423 H 0.81322 0.53319 0.95154 0.0
H1424 H 0.0226 0.2106 0.79691 0.0
H1425 H 0.02151 0.18166 0.74274 0.0
H1426 H 0.02376 0.14857 0.88732 0.0
H1427 H 0.02462 0.17725 0.9414 0.0
H1428 H 0.05012 0.13748 0.80741 0.0
H1429 H 0.98396 0.15164 0.82479 0.0
H1430 H 0.95579 0.1714 0.81468 0.0
H1431 H 0.96409 0.17326 0.64402 0.0
H1432 H 0.99249 0.15372 0.65323 0.0
H1433 H 0.99374 0.05438 0.67626 0.0
H1434 H 0.99679 0.08339 0.72854 0.0
H1435 H 0.04881 0.09561 0.64784 0.0
H1436 H 0.04627 0.06599 0.59801 0.0
H1437 H 0.99649 0.1182 0.69268 0.0
H1438 H 0.07147 0.11792 0.69638 0.0
H1439 H 0.10077 0.10036 0.7133 0.0
H1440 H 0.07517 0.07302 0.84807 0.0
H1441 H 0.04547 0.08981 0.83023 0.0
C1442 C 0.02271 0.19715 0.8171 0.0
C1443 C 0.02354 0.19629 0.87359 0.0
C1444 C 0.02206 0.18061 0.78611 0.0
C1445 C 0.02254 0.16289 0.8109 0.0
C1446 C 0.02336 0.16204 0.8672 0.0
C1447 C 0.02369 0.17849 0.89813 0.0
C1448 C 0.02269 0.14515 0.77865 0.0
C1449 C 0.03838 0.13332 0.78218 0.0
C1450 C 0.00752 0.13967 0.74528 0.0
C1451 C 0.99048 0.15142 0.73979 0.0
C1452 C 0.97989 0.15642 0.78518 0.0
C1453 C 0.96386 0.16755 0.77959 0.0
C1454 C 0.95819 0.17363 0.72876 0.0
C1455 C 0.96852 0.16857 0.68338 0.0
C1456 C 0.98458 0.15746 0.68876 0.0
C1457 C 0.00626 0.06285 0.67156 0.0
C1458 C 0.02026 0.05743 0.63507 0.0
C1459 C 0.00788 0.07961 0.70093 0.0
C1460 C 0.02332 0.09167 0.69362 0.0
C1461 C 0.03721 0.08633 0.6565 0.0
C1462 C 0.03569 0.06941 0.62763 0.0
C1463 C 0.0239 0.11035 0.72175 0.0
C1464 C 0.00831 0.1224 0.71747 0.0
C1465 C 0.03925 0.11622 0.75394 0.0
C1466 C 0.05621 0.10467 0.76113 0.0
C1467 C 0.07202 0.10782 0.72883 0.0
C1468 C 0.08866 0.09802 0.73855 0.0
C1469 C 0.08977 0.08544 0.78143 0.0
C1470 C 0.0742 0.08258 0.81444 0.0
C1471 C 0.0574 0.09204 0.80414 0.0
H1472 H 0.10271 0.07799 0.78927 0.0
H1473 H 0.94576 0.18224 0.72451 0.0
H1474 H 0.33105 0.06757 0.83142 0.0
H1475 H 0.35786 0.05772 0.77802 0.0
H1476 H 0.34853 1.00026 0.82542 0.0
H1477 H 0.3222 0.01022 0.88153 0.0
H1478 H 0.38331 0.00714 0.83617 0.0
H1479 H 0.34107 0.0178 0.69302 0.0
H1480 H 0.31842 0.03356 0.63337 0.0
H1481 H 0.35901 0.07632 0.59826 0.0
H1482 H 0.3818 0.06107 0.65868 0.0
H1483 H 0.4601 0.9755 0.67821 0.0
H1484 H 0.42989 0.98104 0.72002 0.0
H1485 H 0.42882 0.03691 0.65256 0.0
H1486 H 0.45742 0.02981 0.60322 0.0
H1487 H 0.39776 0.02929 0.65265 0.0
H1488 H 0.4336 0.02166 0.82678 0.0
H1489 H 0.4555 0.00466 0.88667 0.0
H1490 H 0.42469 0.95363 0.86039 0.0
H1491 H 0.40284 0.97042 0.80007 0.0
C1492 C 0.33462 0.0528 0.83055 0.0
C1493 C 0.32446 0.03976 0.86159 0.0
C1494 C 0.3499 0.04712 0.79919 0.0
C1495 C 0.35534 0.02816 0.79703 0.0
C1496 C 0.34475 0.01498 0.82623 0.0
C1497 C 0.32951 0.02068 0.858 0.0
C1498 C 0.37285 0.02242 0.76792 0.0
C1499 C 0.38626 0.01166 0.79546 0.0
C1500 C 0.37711 0.02856 0.71522 0.0
C1501 C 0.36309 0.03839 0.68109 0.0
C1502 C 0.34507 0.03076 0.67345 0.0
C1503 C 0.33221 0.03958 0.63932 0.0
C1504 C 0.33724 0.05598 0.61225 0.0
C1505 C 0.3551 0.06366 0.61946 0.0
C1506 C 0.36799 0.05494 0.6537 0.0
C1507 C 0.45342 0.98903 0.67269 0.0
C1508 C 0.46176 1.00266 0.63972 0.0
C1509 C 0.43618 0.99244 0.69799 0.0
C1510 C 0.42704 0.00992 0.69311 0.0
C1511 C 0.43526 0.02331 0.65851 0.0
C1512 C 0.45201 0.01948 0.63096 0.0
C1513 C 0.4085 0.01392 0.72059 0.0
C1514 C 0.39484 0.0245 0.69298 0.0
C1515 C 0.40383 0.00736 0.77289 0.0
C1516 C 0.41718 0.99711 0.80749 0.0
C1517 C 0.43189 0.00674 0.83285 0.0
C1518 C 0.44414 0.99719 0.86719 0.0
C1519 C 0.44163 0.97803 0.87679 0.0
C1520 C 0.42673 0.96843 0.85256 0.0
C1521 C 0.4144 0.97796 0.81841 0.0
H1522 H 0.45112 0.97068 0.90346 0.0
H1523 H 0.32733 0.06268 0.58546 0.0
H1524 H 0.44846 0.32262 0.84325 0.0
H1525 H 0.45368 0.35016 0.78663 0.0
H1526 H 0.51348 0.34353 0.80534 0.0
H1527 H 0.50828 0.31623 0.86307 0.0
H1528 H 0.50405 0.37908 0.81959 0.0
H1529 H 0.48733 0.33143 0.68841 0.0
H1530 H 0.46573 0.30704 0.65471 0.0
H1531 H 0.42292 0.34854 0.63043 0.0
H1532 H 0.44397 0.37308 0.66593 0.0
H1533 H 0.52996 0.44981 0.63937 0.0
H1534 H 0.52624 0.41811 0.67528 0.0
H1535 H 0.46631 0.42205 0.6539 0.0
H1536 H 0.47002 0.45331 0.61548 0.0
H1537 H 0.47646 0.38723 0.63794 0.0
H1538 H 0.48772 0.43282 0.7748 0.0
H1539 H 0.50489 0.45889 0.81782 0.0
H1540 H 0.55325 0.42358 0.83694 0.0
H1541 H 0.53646 0.39737 0.79301 0.0
C1542 C 0.46273 0.32683 0.83456 0.0
C1543 C 0.47795 0.31712 0.85752 0.0
C1544 C 0.46571 0.34264 0.80215 0.0
C1545 C 0.48401 0.34891 0.7909 0.0
C1546 C 0.49922 0.33905 0.81324 0.0
C1547 C 0.49624 0.32339 0.84619 0.0
C1548 C 0.48736 0.36608 0.75756 0.0
C1549 C 0.49828 0.38065 0.77949 0.0
C1550 C 0.47926 0.3686 0.70587 0.0
C1551 C 0.46716 0.35406 0.68069 0.0
C1552 C 0.47328 0.33536 0.67614 0.0
C1553 C 0.46109 0.32149 0.65699 0.0
C1554 C 0.4429 0.32622 0.64108 0.0
C1555 C 0.43696 0.34488 0.64326 0.0
C1556 C 0.449 0.35877 0.66304 0.0
C1557 C 0.51601 0.44385 0.64151 0.0
C1558 C 0.50023 0.45444 0.62633 0.0
C1559 C 0.51389 0.4257 0.66229 0.0
C1560 C 0.49593 0.41784 0.66906 0.0
C1561 C 0.4803 0.42782 0.64992 0.0
C1562 C 0.48244 0.44585 0.6285 0.0
C1563 C 0.49327 0.40005 0.69994 0.0
C1564 C 0.48243 0.38547 0.67775 0.0
C1565 C 0.50095 0.39769 0.75208 0.0
C1566 C 0.51089 0.41319 0.78017 0.0
C1567 C 0.50204 0.43063 0.78801 0.0
C1568 C 0.51171 0.44544 0.81249 0.0
C1569 C 0.53017 0.44291 0.83 0.0
C1570 C 0.53896 0.42552 0.82327 0.0
C1571 C 0.52937 0.41069 0.79858 0.0
H1572 H 0.53765 0.4544 0.84885 0.0
H1573 H 0.43339 0.31544 0.62699 0.0
H1574 H 0.19159 0.45834 0.87279 0.0
H1575 H 0.16503 0.46367 0.81323 0.0
H1576 H 0.19049 0.51488 0.757 0.0
H1577 H 0.21737 0.5096 0.81706 0.0
H1578 H 0.15411 0.5204 0.77257 0.0
H1579 H 0.18928 0.47434 0.67661 0.0
H1580 H 0.20657 0.44479 0.662 0.0
H1581 H 0.15742 0.41308 0.70292 0.0
H1582 H 0.13991 0.44243 0.71857 0.0
H1583 H 0.07846 0.52997 0.58846 0.0
H1584 H 0.1105 0.5269 0.62189 0.0
H1585 H 0.09849 0.47023 0.67268 0.0
H1586 H 0.06777 0.47237 0.63109 0.0
H1587 H 0.13127 0.47001 0.65149 0.0
H1588 H 0.09716 0.51828 0.75672 0.0
H1589 H 0.08001 0.54843 0.75792 0.0
H1590 H 0.12819 0.57653 0.69306 0.0
H1591 H 0.14549 0.54656 0.6908 0.0
C1592 C 0.1918 0.47061 0.84721 0.0
C1593 C 0.20692 0.48336 0.84936 0.0
C1594 C 0.17648 0.47367 0.81304 0.0
C1595 C 0.17578 0.4895 0.7795 0.0
C1596 C 0.19066 0.50249 0.78214 0.0
C1597 C 0.20604 0.49946 0.81662 0.0
C1598 C 0.15931 0.49249 0.74284 0.0
C1599 C 0.14923 0.50941 0.74576 0.0
C1600 C 0.15276 0.47827 0.70756 0.0
C1601 C 0.16333 0.46059 0.69911 0.0
C1602 C 0.18221 0.46106 0.68295 0.0
C1603 C 0.19204 0.44435 0.67441 0.0
C1604 C 0.18311 0.42707 0.68162 0.0
C1605 C 0.16433 0.42647 0.69743 0.0
C1606 C 0.15445 0.44314 0.70615 0.0
C1607 C 0.08269 0.51678 0.60627 0.0
C1608 C 0.06992 0.50174 0.61018 0.0
C1609 C 0.10106 0.51512 0.62639 0.0
C1610 C 0.10686 0.49876 0.65364 0.0
C1611 C 0.09451 0.48332 0.65375 0.0
C1612 C 0.07657 0.48467 0.63108 0.0
C1613 C 0.12539 0.49754 0.68295 0.0
C1614 C 0.136 0.48096 0.67851 0.0
C1615 C 0.1324 0.51207 0.7168 0.0
C1616 C 0.12253 0.5302 0.72314 0.0
C1617 C 0.10411 0.53093 0.74312 0.0
C1618 C 0.09435 0.54796 0.74372 0.0
C1619 C 0.103 0.56432 0.72514 0.0
C1620 C 0.12152 0.56381 0.70714 0.0
C1621 C 0.1313 0.54683 0.70625 0.0
H1622 H 0.09538 0.57741 0.72443 0.0
H1623 H 0.19074 0.41415 0.67488 0.0
H1624 H 0.01691 0.83903 0.22946 0.0
H1625 H 0.01868 0.86736 0.28404 0.0
H1626 H 0.97797 0.84425 0.39343 0.0
H1627 H 0.9753 0.81622 0.337 0.0
H1628 H 0.96869 0.87811 0.37592 0.0
H1629 H 0.02651 0.8507 0.42615 0.0
H1630 H 0.05741 0.83567 0.41533 0.0
H1631 H 0.07775 0.88425 0.33178 0.0
H1632 H 0.04688 0.89948 0.34139 0.0
H1633 H 0.98838 0.95508 0.56464 0.0
H1634 H 0.98311 0.92473 0.52066 0.0
H1635 H 0.01501 0.94346 0.38397 0.0
H1636 H 0.02058 0.9737 0.4287 0.0
H1637 H 0.02797 0.91026 0.42516 0.0
H1638 H 0.96015 0.92308 0.34222 0.0
H1639 H 0.92706 0.93266 0.35321 0.0
H1640 H 0.92661 0.90916 0.51196 0.0
H1641 H 0.95945 0.899 0.501 0.0
C1642 C 0.0083 0.83988 0.26512 0.0
C1643 C 0.99583 0.82522 0.27823 0.0
C1644 C 0.00952 0.8561 0.29692 0.0
C1645 C 0.99859 0.85809 0.34354 0.0
C1646 C 0.98659 0.84321 0.3578 0.0
C1647 C 0.98523 0.82701 0.32568 0.0
C1648 C 0.99885 0.87611 0.37514 0.0
C1649 C 0.98173 0.88491 0.38731 0.0
C1650 C 0.01573 0.8853 0.39032 0.0
C1651 C 0.0343 0.87616 0.38405 0.0
C1652 C 0.03752 0.85812 0.40504 0.0
C1653 C 0.05504 0.84957 0.3992 0.0
C1654 C 0.06952 0.85898 0.37276 0.0
C1655 C 0.06651 0.87697 0.35218 0.0
C1656 C 0.04901 0.88557 0.35786 0.0
C1657 C 0.9936 0.95296 0.52429 0.0
C1658 C 0.00436 0.96699 0.49932 0.0
C1659 C 0.99056 0.93555 0.49901 0.0
C1660 C 0.99832 0.93174 0.44825 0.0
C1661 C 0.00866 0.94602 0.42278 0.0
C1662 C 0.01177 0.96336 0.44818 0.0
C1663 C 0.99785 0.91236 0.42455 0.0
C1664 C 0.01499 0.90332 0.41389 0.0
C1665 C 0.98103 0.9027 0.41208 0.0
C1666 C 0.96234 0.91086 0.4215 0.0
C1667 C 0.95303 0.92026 0.37973 0.0
C1668 C 0.93424 0.92552 0.38562 0.0
C1669 C 0.92473 0.92156 0.43332 0.0
C1670 C 0.93399 0.91233 0.47519 0.0
C1671 C 0.95267 0.9068 0.46912 0.0
H1672 H 0.91021 0.92568 0.43789 0.0
H1673 H 0.08308 0.85234 0.36832 0.0
H1674 H 0.69964 0.96663 0.38654 0.0
H1675 H 0.67058 0.97378 0.43401 0.0
H1676 H 0.65991 0.01948 0.3248 0.0
H1677 H 0.68831 0.01172 0.27514 0.0
H1678 H 0.65595 1.00105 0.48849 0.0
H1679 H 0.61388 0.02451 0.29946 0.0
H1680 H 0.61293 0.01805 0.2021 0.0
H1681 H 0.63804 0.96405 0.22838 0.0
H1682 H 0.6389 0.97007 0.32591 0.0
H1683 H 0.55466 0.04366 0.47225 0.0
H1684 H 0.58589 0.03716 0.43575 0.0
H1685 H 0.59116 0.98951 0.54152 0.0
H1686 H 0.56008 0.99628 0.5788 0.0
H1687 H 0.59751 0.00705 0.38132 0.0
H1688 H 0.63602 0.9807 0.56739 0.0
H1689 H 0.63594 0.9851 0.66584 0.0
H1690 H 0.61703 0.04189 0.64569 0.0
H1691 H 0.61678 0.03774 0.54743 0.0
C1692 C 0.69111 0.97817 0.37233 0.0
C1693 C 0.69634 0.98836 0.32618 0.0
C1694 C 0.6745 0.98236 0.39997 0.0
C1695 C 0.66269 0.99691 0.38244 0.0
C1696 C 0.66846 0.00787 0.33851 0.0
C1697 C 0.68496 1.00357 0.31051 0.0
C1698 C 0.64408 1.00019 0.40876 0.0
C1699 C 0.64317 1.00216 0.46495 0.0
C1700 C 0.62724 1.00166 0.37854 0.0
C1701 C 0.62665 0.99785 0.31994 0.0
C1702 C 0.61915 0.01124 0.28446 0.0
C1703 C 0.61862 0.00765 0.22925 0.0
C1704 C 0.62548 0.99068 0.20905 0.0
C1705 C 0.6328 0.97722 0.24405 0.0
C1706 C 0.63333 0.98072 0.2993 0.0
C1707 C 0.56256 0.03186 0.48779 0.0
C1708 C 0.55473 0.02013 0.52708 0.0
C1709 C 0.58039 0.02813 0.4669 0.0
C1710 C 0.59097 0.01282 0.48566 0.0
C1711 C 0.58343 1.0015 0.52656 0.0
C1712 C 0.56554 0.00522 0.54739 0.0
C1713 C 0.6095 0.00841 0.46065 0.0
C1714 C 0.61033 0.00603 0.4047 0.0
C1715 C 0.62615 0.00624 0.49116 0.0
C1716 C 0.62633 0.00888 0.55018 0.0
C1717 C 0.63187 0.99412 0.58408 0.0
C1718 C 0.63181 0.99655 0.63984 0.0
C1719 C 0.62645 0.01375 0.66205 0.0
C1720 C 0.62106 0.02853 0.62857 0.0
C1721 C 0.62095 0.02613 0.57285 0.0
H1722 H 0.62652 0.01564 0.70519 0.0
H1723 H 0.62507 0.98795 0.16629 0.0
H1724 H 0.55646 0.71102 0.38114 0.0
H1725 H 0.54928 0.6834 0.43535 0.0
H1726 H 0.50188 0.67104 0.3335 0.0
H1727 H 0.50925 0.6984 0.27795 0.0
H1728 H 0.49493 0.66452 0.44523 0.0
H1729 H 0.54061 0.6487 0.31022 0.0
H1730 H 0.57017 0.65262 0.2603 0.0
H1731 H 0.60164 0.64498 0.40591 0.0
H1732 H 0.57223 0.64131 0.45687 0.0
H1733 H 0.48378 0.56791 0.51173 0.0
H1734 H 0.48693 0.5988 0.47039 0.0
H1735 H 0.54162 0.60517 0.54318 0.0
H1736 H 0.53883 0.57384 0.58243 0.0
H1737 H 0.54435 0.6155 0.44683 0.0
H1738 H 0.50003 0.63305 0.58351 0.0
H1739 H 0.47111 0.62916 0.63671 0.0
H1740 H 0.43792 0.63425 0.49328 0.0
H1741 H 0.46671 0.63788 0.43932 0.0
C1742 C 0.54443 0.70252 0.37024 0.0
C1743 C 0.53361 0.7069 0.32449 0.0
C1744 C 0.54031 0.68674 0.40152 0.0
C1745 C 0.5252 0.67496 0.38811 0.0
C1746 C 0.51362 0.6799 0.34463 0.0
C1747 C 0.51782 0.69565 0.31301 0.0
C1748 C 0.52239 0.65685 0.41705 0.0
C1749 C 0.50565 0.65372 0.44522 0.0
C1750 C 0.53651 0.64287 0.41808 0.0
C1751 C 0.55421 0.64494 0.38744 0.0
C1752 C 0.55383 0.64802 0.33167 0.0
C1753 C 0.57056 0.65017 0.30317 0.0
C1754 C 0.58777 0.6491 0.32994 0.0
C1755 C 0.58829 0.64583 0.38524 0.0
C1756 C 0.5716 0.64371 0.41395 0.0
C1757 C 0.49636 0.57602 0.51959 0.0
C1758 C 0.51106 0.56841 0.5503 0.0
C1759 C 0.49813 0.5938 0.4961 0.0
C1760 C 0.51443 0.60464 0.50397 0.0
C1761 C 0.52891 0.59719 0.53606 0.0
C1762 C 0.52728 0.57927 0.55871 0.0
C1763 C 0.51694 0.62311 0.47606 0.0
C1764 C 0.53364 0.6263 0.44754 0.0
C1765 C 0.50286 0.6372 0.47527 0.0
C1766 C 0.48551 0.63545 0.50747 0.0
C1767 C 0.48656 0.63313 0.56342 0.0
C1768 C 0.47021 0.63101 0.59366 0.0
C1769 C 0.45269 0.63136 0.56836 0.0
C1770 C 0.4515 0.63394 0.51281 0.0
C1771 C 0.46783 0.63606 0.4824 0.0
H1772 H 0.44004 0.6297 0.59181 0.0
H1773 H 0.60071 0.65077 0.3078 0.0
H1774 H 0.81757 0.56927 0.34187 0.0
H1775 H 0.84524 0.56347 0.39725 0.0
H1776 H 0.84699 0.50621 0.34148 0.0
H1777 H 0.81947 0.51203 0.2844 0.0
H1778 H 0.85527 0.51024 0.45384 0.0
H1779 H 0.87506 0.53633 0.28501 0.0
H1780 H 0.87486 0.55953 0.21164 0.0
H1781 H 0.89086 0.60294 0.32258 0.0
H1782 H 0.89086 0.58004 0.39682 0.0
H1783 H 0.95067 0.48934 0.51525 0.0
H1784 H 0.91977 0.49395 0.47553 0.0
H1785 H 0.92304 0.55313 0.511 0.0
H1786 H 0.9541 0.54855 0.55109 0.0
H1787 H 0.91152 0.54844 0.41134 0.0
H1788 H 0.89315 0.52293 0.57991 0.0
H1789 H 0.89319 0.50027 0.65467 0.0
H1790 H 0.87424 0.45675 0.54808 0.0
H1791 H 0.87439 0.47904 0.47237 0.0
C1792 C 0.82376 0.5554 0.34116 0.0
C1793 C 0.81633 0.54123 0.30762 0.0
C1794 C 0.8396 0.55209 0.37321 0.0
C1795 C 0.84845 0.53448 0.37309 0.0
C1796 C 0.84047 0.51994 0.34225 0.0
C1797 C 0.82464 0.52328 0.30972 0.0
C1798 C 0.86657 0.53172 0.40264 0.0
C1799 C 0.86764 0.51842 0.44415 0.0
C1800 C 0.88264 0.54274 0.39118 0.0
C1801 C 0.88276 0.55651 0.34656 0.0
C1802 C 0.87838 0.55086 0.29384 0.0
C1803 C 0.87833 0.56395 0.25209 0.0
C1804 C 0.88279 0.58271 0.26247 0.0
C1805 C 0.88737 0.58841 0.31462 0.0
C1806 C 0.88741 0.57538 0.35655 0.0
C1807 C 0.94479 0.5033 0.51555 0.0
C1808 C 0.95512 0.51857 0.53609 0.0
C1809 C 0.92698 0.50594 0.49269 0.0
C1810 C 0.91885 0.5239 0.49025 0.0
C1811 C 0.92893 0.53913 0.51203 0.0
C1812 C 0.94676 0.53648 0.5349 0.0
C1813 C 0.90033 0.5269 0.46275 0.0
C1814 C 0.89917 0.54027 0.42143 0.0
C1815 C 0.88418 0.51604 0.47476 0.0
C1816 C 0.88395 0.50263 0.5203 0.0
C1817 C 0.88913 0.50849 0.57228 0.0
C1818 C 0.8891 0.49573 0.61485 0.0
C1819 C 0.88376 0.4771 0.60611 0.0
C1820 C 0.87839 0.47119 0.55478 0.0
C1821 C 0.87844 0.48389 0.51201 0.0
H1822 H 0.88374 0.46724 0.63915 0.0
H1823 H 0.88275 0.59283 0.23008 0.0
loop_
_geom_bond_atom_site_label_1
_geom_bond_atom_site_label_2
_geom_bond_distance
_geom_bond_site_symmetry_2
_ccdc_geom_bond_type
C0 C1 1.384 . S
C0 H13 0.947 . S
C0 C35 1.382 . S
C1 C0 1.384 . S
C1 C2 1.378 . S
C2 C1 1.378 . S
C2 C3 1.378 . S
C2 H14 0.952 . S
C3 C2 1.378 . S
C3 H15 0.950 . S
C3 C34 1.383 . S
H4 C23 0.947 . S
H5 C24 0.946 . S
H6 C26 0.953 . S
H7 C27 0.945 . S
H8 C29 0.952 1_556 S
H9 C30 0.949 . S
H10 C32 0.950 . S
H11 C33 0.948 . S
H12 C35 0.951 . S
H13 C0 0.947 . S
H14 C2 0.952 . S
H15 C3 0.950 . S
N16 C19 1.382 . S
N16 C21 1.363 . S
N17 C19 1.371 . S
N17 C20 1.372 . S
N18 C20 1.361 . S
N18 C21 1.377 . S
C19 N16 1.382 . S
C19 N17 1.371 . S
C19 C22 1.480 . S
C20 N17 1.372 . S
C20 N18 1.361 . S
C20 C28 1.457 . S
C21 N16 1.363 . S
C21 N18 1.377 . S
C21 C34 1.479 . S
C22 C19 1.480 . S
C22 C23 1.383 . S
C22 C27 1.385 . S
C23 H4 0.947 . S
C23 C22 1.383 . S
C23 C24 1.388 . S
C24 H5 0.946 . S
C24 C23 1.388 . S
C24 C25 1.384 . S
C25 C24 1.384 . S
C25 C26 1.377 . S
C26 H6 0.953 . S
C26 C25 1.377 . S
C26 C27 1.369 . S
C27 H7 0.945 . S
C27 C22 1.385 . S
C27 C26 1.369 . S
C28 C20 1.457 . S
C28 C29 1.372 . S
C28 C33 1.364 . S
C29 H8 0.952 1_554 S
C29 C28 1.372 . S
C29 C30 1.389 1_554 S
C30 H9 0.949 . S
C30 C29 1.389 1_556 S
C30 C31 1.387 . S
C31 C30 1.387 . S
C31 C32 1.372 1_556 S
C32 H10 0.950 . S
C32 C31 1.372 1_554 S
C32 C33 1.379 . S
C33 H11 0.948 . S
C33 C28 1.364 . S
C33 C32 1.379 . S
C34 C3 1.383 . S
C34 C21 1.479 . S
C34 C35 1.398 . S
C35 C0 1.382 . S
C35 H12 0.951 . S
C35 C34 1.398 . S
C36 C37 1.384 . S
C36 H49 0.947 . S
C36 C71 1.382 . S
C37 C36 1.384 . S
C37 C38 1.378 . S
C38 C37 1.378 . S
C38 C39 1.378 . S
C38 H50 0.952 . S
C39 C38 1.378 . S
C39 H51 0.950 . S
C39 C70 1.383 . S
H40 C59 0.947 . S
H41 C60 0.946 . S
H42 C62 0.953 . S
H43 C63 0.945 . S
H44 C65 0.952 . S
H45 C66 0.949 . S
H46 C68 0.950 . S
H47 C69 0.948 . S
H48 C71 0.951 . S
H49 C36 0.947 . S
H50 C38 0.952 . S
H51 C39 0.950 . S
N52 C55 1.382 . S
N52 C57 1.363 . S
N53 C55 1.371 . S
N53 C56 1.372 . S
N54 C56 1.361 . S
N54 C57 1.377 . S
C55 N52 1.382 . S
C55 N53 1.371 . S
C55 C58 1.480 . S
C56 N53 1.372 . S
C56 N54 1.361 . S
C56 C64 1.457 . S
C57 N52 1.363 . S
C57 N54 1.377 . S
C57 C70 1.479 . S
C58 C55 1.480 . S
C58 C59 1.383 . S
C58 C63 1.385 . S
C59 H40 0.947 . S
C59 C58 1.383 . S
C59 C60 1.388 . S
C60 H41 0.946 . S
C60 C59 1.388 . S
C60 C61 1.384 . S
C61 C60 1.384 . S
C61 C62 1.377 . S
C62 H42 0.953 . S
C62 C61 1.377 . S
C62 C63 1.369 . S
C63 H43 0.945 . S
C63 C58 1.385 . S
C63 C62 1.369 . S
C64 C56 1.457 . S
C64 C65 1.372 . S
C64 C69 1.364 . S
C65 H44 0.952 . S
C65 C64 1.372 . S
C65 C66 1.389 1_554 S
C66 H45 0.949 . S
C66 C65 1.389 1_556 S
C66 C67 1.387 . S
C67 C66 1.387 . S
C67 C68 1.372 1_556 S
C68 H46 0.950 . S
C68 C67 1.372 1_554 S
C68 C69 1.379 . S
C69 H47 0.948 . S
C69 C64 1.364 . S
C69 C68 1.379 . S
C70 C39 1.383 . S
C70 C57 1.479 . S
C70 C71 1.398 . S
C71 C36 1.382 . S
C71 H48 0.951 . S
C71 C70 1.398 . S
C72 C73 1.384 . S
C72 H85 0.947 . S
C72 C107 1.382 . S
C73 C72 1.384 . S
C73 C74 1.378 . S
C74 C73 1.378 . S
C74 C75 1.378 . S
C74 H86 0.952 . S
C75 C74 1.378 . S
C75 H87 0.950 . S
C75 C106 1.383 . S
H76 C95 0.947 . S
H77 C96 0.946 . S
H78 C98 0.953 . S
H79 C99 0.945 . S
H80 C101 0.952 . S
H81 C102 0.949 . S
H82 C104 0.950 . S
H83 C105 0.948 . S
H84 C107 0.951 . S
H85 C72 0.947 . S
H86 C74 0.952 . S
H87 C75 0.950 . S
N88 C91 1.382 . S
N88 C93 1.363 . S
N89 C91 1.371 . S
N89 C92 1.372 . S
N90 C92 1.361 . S
N90 C93 1.377 . S
C91 N88 1.382 . S
C91 N89 1.371 . S
C91 C94 1.480 . S
C92 N89 1.372 . S
C92 N90 1.361 . S
C92 C100 1.457 . S
C93 N88 1.363 . S
C93 N90 1.377 . S
C93 C106 1.479 . S
C94 C91 1.480 . S
C94 C95 1.383 . S
C94 C99 1.385 . S
C95 H76 0.947 . S
C95 C94 1.383 . S
C95 C96 1.388 . S
C96 H77 0.946 . S
C96 C95 1.388 . S
C96 C97 1.384 . S
C97 C96 1.384 . S
C97 C98 1.377 . S
C98 H78 0.953 . S
C98 C97 1.377 . S
C98 C99 1.369 . S
C99 H79 0.945 . S
C99 C94 1.385 . S
C99 C98 1.369 . S
C100 C92 1.457 . S
C100 C101 1.372 . S
C100 C105 1.364 . S
C101 H80 0.952 . S
C101 C100 1.372 . S
C101 C102 1.389 1_554 S
C102 H81 0.949 . S
C102 C101 1.389 1_556 S
C102 C103 1.387 . S
C103 C102 1.387 . S
C103 C104 1.372 1_556 S
C104 H82 0.950 . S
C104 C103 1.372 1_554 S
C104 C105 1.379 . S
C105 H83 0.948 . S
C105 C100 1.364 . S
C105 C104 1.379 . S
C106 C75 1.383 . S
C106 C93 1.479 . S
C106 C107 1.398 . S
C107 C72 1.382 . S
C107 H84 0.951 . S
C107 C106 1.398 . S
C108 C109 1.384 1_554 S
C108 H121 0.947 . S
C108 C143 1.382 . S
C109 C108 1.384 1_556 S
C109 C110 1.378 . S
C110 C109 1.378 . S
C110 C111 1.378 1_556 S
C110 H122 0.952 . S
C111 C110 1.378 1_554 S
C111 H123 0.950 1_554 S
C111 C142 1.383 . S
H112 C131 0.947 . S
H113 C132 0.946 . S
H114 C134 0.953 . S
H115 C135 0.945 . S
H116 C137 0.952 . S
H117 C138 0.949 . S
H118 C140 0.950 . S
H119 C141 0.948 . S
H120 C143 0.951 . S
H121 C108 0.947 . S
H122 C110 0.952 . S
H123 C111 0.950 1_556 S
N124 C127 1.382 . S
N124 C129 1.363 . S
N125 C127 1.371 . S
N125 C128 1.372 . S
N126 C128 1.361 . S
N126 C129 1.377 . S
C127 N124 1.382 . S
C127 N125 1.371 . S
C127 C130 1.480 . S
C128 N125 1.372 . S
C128 N126 1.361 . S
C128 C136 1.457 . S
C129 N124 1.363 . S
C129 N126 1.377 . S
C129 C142 1.479 . S
C130 C127 1.480 . S
C130 C131 1.383 . S
C130 C135 1.385 . S
C131 H112 0.947 . S
C131 C130 1.383 . S
C131 C132 1.388 . S
C132 H113 0.946 . S
C132 C131 1.388 . S
C132 C133 1.384 . S
C133 C132 1.384 . S
C133 C134 1.377 . S
C134 H114 0.953 . S
C134 C133 1.377 . S
C134 C135 1.369 . S
C135 H115 0.945 . S
C135 C130 1.385 . S
C135 C134 1.369 . S
C136 C128 1.457 . S
C136 C137 1.372 . S
C136 C141 1.364 . S
C137 H116 0.952 . S
C137 C136 1.372 . S
C137 C138 1.389 . S
C138 H117 0.949 . S
C138 C137 1.389 . S
C138 C139 1.387 . S
C139 C138 1.387 . S
C139 C140 1.372 . S
C140 H118 0.950 . S
C140 C139 1.372 . S
C140 C141 1.379 . S
C141 H119 0.948 . S
C141 C136 1.364 . S
C141 C140 1.379 . S
C142 C111 1.383 . S
C142 C129 1.479 . S
C142 C143 1.398 . S
C143 C108 1.382 . S
C143 H120 0.951 . S
C143 C142 1.398 . S
C144 C145 1.384 . S
C144 H157 0.947 . S
C144 C179 1.382 . S
C145 C144 1.384 . S
C145 C146 1.378 . S
C146 C145 1.378 . S
C146 C147 1.378 . S
C146 H158 0.952 . S
C147 C146 1.378 . S
C147 H159 0.950 . S
C147 C178 1.383 . S
H148 C167 0.947 1_556 S
H149 C168 0.946 1_556 S
H150 C170 0.953 . S
H151 C171 0.945 . S
H152 C173 0.952 . S
H153 C174 0.949 . S
H154 C176 0.950 . S
H155 C177 0.948 . S
H156 C179 0.951 . S
H157 C144 0.947 . S
H158 C146 0.952 . S
H159 C147 0.950 . S
N160 C163 1.382 1_556 S
N160 C165 1.363 . S
N161 C163 1.371 . S
N161 C164 1.372 . S
N162 C164 1.361 . S
N162 C165 1.377 1_554 S
C163 N160 1.382 1_554 S
C163 N161 1.371 . S
C163 C166 1.480 . S
C164 N161 1.372 . S
C164 N162 1.361 . S
C164 C172 1.457 . S
C165 N160 1.363 . S
C165 N162 1.377 1_556 S
C165 C178 1.479 . S
C166 C163 1.480 . S
C166 C167 1.383 . S
C166 C171 1.385 . S
C167 H148 0.947 1_554 S
C167 C166 1.383 . S
C167 C168 1.388 . S
C168 H149 0.946 1_554 S
C168 C167 1.388 . S
C168 C169 1.384 . S
C169 C168 1.384 . S
C169 C170 1.377 . S
C170 H150 0.953 . S
C170 C169 1.377 . S
C170 C171 1.369 . S
C171 H151 0.945 . S
C171 C166 1.385 . S
C171 C170 1.369 . S
C172 C164 1.457 . S
C172 C173 1.372 . S
C172 C177 1.364 . S
C173 H152 0.952 . S
C173 C172 1.372 . S
C173 C174 1.389 . S
C174 H153 0.949 . S
C174 C173 1.389 . S
C174 C175 1.387 . S
C175 C174 1.387 . S
C175 C176 1.372 . S
C176 H154 0.950 . S
C176 C175 1.372 . S
C176 C177 1.379 . S
C177 H155 0.948 . S
C177 C172 1.364 . S
C177 C176 1.379 . S
C178 C147 1.383 . S
C178 C165 1.479 . S
C178 C179 1.398 . S
C179 C144 1.382 . S
C179 H156 0.951 . S
C179 C178 1.398 . S
C180 C181 1.384 . S
C180 H193 0.947 . S
C180 C215 1.382 . S
C181 C180 1.384 . S
C181 C182 1.378 . S
C182 C181 1.378 . S
C182 C183 1.378 . S
C182 H194 0.952 . S
C183 C182 1.378 . S
C183 H195 0.950 . S
C183 C214 1.383 . S
H184 C203 0.947 . S
H185 C204 0.946 1_556 S
H186 C206 0.953 . S
H187 C207 0.945 . S
H188 C209 0.952 . S
H189 C210 0.949 . S
H190 C212 0.950 . S
H191 C213 0.948 . S
H192 C215 0.951 . S
H193 C180 0.947 . S
H194 C182 0.952 . S
H195 C183 0.950 . S
N196 C199 1.382 1_556 S
N196 C201 1.363 . S
N197 C199 1.371 . S
N197 C200 1.372 . S
N198 C200 1.368 . S
N198 C201 1.371 1_554 S
C199 N196 1.382 1_554 S
C199 N197 1.371 . S
C199 C202 1.480 . S
C200 N197 1.372 . S
C200 N198 1.368 . S
C200 C208 1.457 . S
C201 N196 1.363 . S
C201 N198 1.371 1_556 S
C201 C214 1.479 . S
C202 C199 1.480 . S
C202 C203 1.383 1_554 S
C202 C207 1.385 . S
C203 H184 0.947 . S
C203 C202 1.383 1_556 S
C203 C204 1.388 1_556 S
C204 H185 0.946 1_554 S
C204 C203 1.388 1_554 S
C204 C205 1.384 . S
C205 C204 1.384 . S
C205 C206 1.377 . S
C206 H186 0.953 . S
C206 C205 1.377 . S
C206 C207 1.369 . S
C207 H187 0.945 . S
C207 C202 1.385 . S
C207 C206 1.369 . S
C208 C200 1.457 . S
C208 C209 1.372 . S
C208 C213 1.364 . S
C209 H188 0.952 . S
C209 C208 1.372 . S
C209 C210 1.389 . S
C210 H189 0.949 . S
C210 C209 1.389 . S
C210 C211 1.387 . S
C211 C210 1.387 . S
C211 C212 1.372 . S
C212 H190 0.950 . S
C212 C211 1.372 . S
C212 C213 1.379 . S
C213 H191 0.948 . S
C213 C208 1.364 . S
C213 C212 1.379 . S
C214 C183 1.383 . S
C214 C201 1.479 . S
C214 C215 1.398 . S
C215 C180 1.382 . S
C215 H192 0.951 . S
C215 C214 1.398 . S
C216 C217 1.384 . S
C216 H229 0.947 . S
C216 C251 1.382 . S
C217 C216 1.384 . S
C217 C218 1.378 . S
C218 C217 1.378 . S
C218 C219 1.378 . S
C218 H230 0.952 . S
C219 C218 1.378 . S
C219 H231 0.950 . S
C219 C250 1.383 . S
H220 C239 0.947 . S
H221 C240 0.946 1_556 S
H222 C242 0.953 . S
H223 C243 0.945 . S
H224 C245 0.952 . S
H225 C246 0.949 . S
H226 C248 0.950 . S
H227 C249 0.948 . S
H228 C251 0.951 . S
H229 C216 0.947 . S
H230 C218 0.952 . S
H231 C219 0.950 . S
N232 C235 1.382 1_556 S
N232 C237 1.363 . S
N233 C235 1.371 . S
N233 C236 1.372 . S
N234 C236 1.348 1_556 S
N234 C237 1.387 . S
C235 N232 1.382 1_554 S
C235 N233 1.371 . S
C235 C238 1.480 . S
C236 N233 1.372 . S
C236 N234 1.348 1_554 S
C236 C244 1.457 . S
C237 N232 1.363 . S
C237 N234 1.387 . S
C237 C250 1.479 . S
C238 C235 1.480 . S
C238 C239 1.383 1_554 S
C238 C243 1.385 . S
C239 H220 0.947 . S
C239 C238 1.383 1_556 S
C239 C240 1.388 1_556 S
C240 H221 0.946 1_554 S
C240 C239 1.388 1_554 S
C240 C241 1.384 . S
C241 C240 1.384 . S
C241 C242 1.377 . S
C242 H222 0.953 . S
C242 C241 1.377 . S
C242 C243 1.369 . S
C243 H223 0.945 . S
C243 C238 1.385 . S
C243 C242 1.369 . S
C244 C236 1.457 . S
C244 C245 1.372 . S
C244 C249 1.364 . S
C245 H224 0.952 . S
C245 C244 1.372 . S
C245 C246 1.389 . S
C246 H225 0.949 . S
C246 C245 1.389 . S
C246 C247 1.387 . S
C247 C246 1.387 . S
C247 C248 1.372 . S
C248 H226 0.950 . S
C248 C247 1.372 . S
C248 C249 1.379 . S
C249 H227 0.948 . S
C249 C244 1.364 . S
C249 C248 1.379 . S
C250 C219 1.383 . S
C250 C237 1.479 . S
C250 C251 1.398 . S
C251 C216 1.382 . S
C251 H228 0.951 . S
C251 C250 1.398 . S
C252 C253 1.384 . S
C252 H265 0.947 . S
C252 C287 1.382 . S
C253 C252 1.384 . S
C253 C254 1.378 . S
C254 C253 1.378 . S
C254 C255 1.378 . S
C254 H266 0.952 . S
C255 C254 1.378 . S
C255 H267 0.950 . S
C255 C286 1.383 . S
H256 C275 0.947 . S
H257 C276 0.946 . S
H258 C278 0.953 1_556 S
H259 C279 0.963 . S
H260 C281 0.952 . S
H261 C282 0.949 . S
H262 C284 0.950 . S
H263 C285 0.948 . S
H264 C287 0.951 . S
H265 C252 0.947 . S
H266 C254 0.952 . S
H267 C255 0.950 . S
N268 C271 1.382 . S
N268 C273 1.363 . S
N269 C271 1.371 1_556 S
N269 C272 1.372 . S
N270 C272 1.361 1_554 S
N270 C273 1.376 . S
C271 N268 1.382 . S
C271 N269 1.371 1_554 S
C271 C274 1.480 . S
C272 N269 1.372 . S
C272 N270 1.361 1_556 S
C272 C280 1.457 . S
C273 N268 1.363 . S
C273 N270 1.376 . S
C273 C286 1.479 . S
C274 C271 1.480 . S
C274 C275 1.383 . S
C274 C279 1.371 1_554 S
C275 H256 0.947 . S
C275 C274 1.383 . S
C275 C276 1.388 . S
C276 H257 0.946 . S
C276 C275 1.388 . S
C276 C277 1.384 . S
C277 C276 1.384 . S
C277 C278 1.377 . S
C278 H258 0.953 1_554 S
C278 C277 1.377 . S
C278 C279 1.365 1_554 S
C279 H259 0.963 . S
C279 C274 1.371 1_556 S
C279 C278 1.365 1_556 S
C280 C272 1.457 . S
C280 C281 1.372 . S
C280 C285 1.364 . S
C281 H260 0.952 . S
C281 C280 1.372 . S
C281 C282 1.389 . S
C282 H261 0.949 . S
C282 C281 1.389 . S
C282 C283 1.387 . S
C283 C282 1.387 . S
C283 C284 1.372 . S
C284 H262 0.950 . S
C284 C283 1.372 . S
C284 C285 1.379 . S
C285 H263 0.948 . S
C285 C280 1.364 . S
C285 C284 1.379 . S
C286 C255 1.383 . S
C286 C273 1.479 . S
C286 C287 1.398 . S
C287 C252 1.382 . S
C287 H264 0.951 . S
C287 C286 1.398 . S
Eu288 N319 2.657 1_565 S
Eu288 N326 2.609 . S
Eu288 O332 2.558 . S
Eu288 O333 2.612 1_455 S
Eu288 O335 2.339 1_455 S
Eu288 O336 2.563 . S
Eu288 O337 2.419 . S
Eu288 O339 2.380 1_565 S
Eu288 O340 2.432 . S
Eu288 C352 2.848 . S
C289 C292 1.416 1_545 S
C289 C293 1.411 . S
C289 N296 1.377 . S
C290 C292 1.439 . S
C290 C294 1.423 . S
C290 C302 1.392 . S
C291 C293 1.420 1_565 S
C291 C294 1.351 . S
C291 H314 0.931 . S
C292 C289 1.416 1_565 S
C292 C290 1.439 . S
C292 N300 1.357 1_565 S
C293 C289 1.411 . S
C293 C291 1.420 1_545 S
C293 C298 1.395 . S
C294 C290 1.423 . S
C294 C291 1.351 . S
C294 H306 0.930 . S
C295 C297 1.400 . S
C295 C298 1.386 . S
C295 H307 0.930 . S
N296 C289 1.377 . S
N296 C297 1.321 . S
N296 Eu299 2.609 . S
C297 C295 1.400 . S
C297 N296 1.321 . S
C297 H304 0.930 . S
C298 C293 1.395 . S
C298 C295 1.386 . S
C298 H317 0.930 . S
Eu299 N296 2.609 . S
Eu299 N300 2.657 . S
Eu299 O333 2.380 1_545 S
Eu299 O334 2.432 . S
Eu299 O338 2.558 . S
Eu299 O339 2.612 1_655 S
Eu299 O341 2.339 1_655 S
Eu299 O342 2.563 1_655 S
Eu299 O343 2.419 . S
Eu299 C363 2.848 . S
N300 C292 1.357 1_545 S
N300 Eu299 2.657 . S
N300 C301 1.334 1_645 S
C301 N300 1.334 1_465 S
C301 C303 1.413 . S
C301 H308 0.929 . S
C302 C290 1.392 . S
C302 C303 1.367 1_655 S
C302 H310 0.930 . S
C303 C301 1.413 . S
C303 C302 1.367 1_455 S
C303 H305 0.930 . S
H304 C297 0.930 . S
H305 C303 0.930 . S
H306 C294 0.930 . S
H307 C295 0.930 . S
H308 C301 0.929 . S
H309 C323 0.930 1_655 S
H310 C302 0.930 . S
H311 C329 0.930 . S
H312 C320 0.929 1_655 S
H313 C327 0.930 . S
H314 C291 0.931 . S
H315 C321 0.930 . S
H316 C354 0.930 . S
H317 C298 0.930 . S
H318 C353 0.931 . S
N319 Eu288 2.657 1_545 S
N319 C320 1.334 . S
N319 C324 1.362 . S
C320 H312 0.929 1_455 S
C320 N319 1.334 . S
C320 C323 1.413 . S
C321 H315 0.930 . S
C321 C322 1.392 . S
C321 C323 1.367 . S
C322 C321 1.392 . S
C322 C324 1.420 . S
C322 C354 1.423 . S
C323 H309 0.930 1_455 S
C323 C320 1.413 . S
C323 C321 1.367 . S
C324 N319 1.362 . S
C324 C322 1.420 . S
C324 C328 1.429 . S
H325 C330 0.930 . S
N326 Eu288 2.609 . S
N326 C328 1.377 1_565 S
N326 C329 1.321 . S
C327 H313 0.930 . S
C327 C329 1.400 . S
C327 C330 1.386 . S
C328 C324 1.429 . S
C328 N326 1.377 1_545 S
C328 C331 1.411 . S
C329 H311 0.930 . S
C329 N326 1.321 . S
C329 C327 1.400 . S
C330 H325 0.930 . S
C330 C327 1.386 . S
C330 C331 1.395 1_565 S
C331 C328 1.411 . S
C331 C330 1.395 1_545 S
C331 C353 1.420 . S
O332 Eu288 2.558 . S
O332 C352 1.257 . S
O333 Eu288 2.612 1_655 S
O333 Eu299 2.380 1_565 S
O333 C344 1.276 . S
O334 Eu299 2.432 . S
O334 C351 1.264 . S
O335 Eu288 2.339 1_655 S
O335 C351 1.254 1_565 S
O336 Eu288 2.563 . S
O336 C344 1.235 1_455 S
O337 Eu288 2.419 . S
O337 C352 1.249 . S
O338 Eu299 2.558 . S
O338 C363 1.257 . S
O339 Eu288 2.380 1_545 S
O339 Eu299 2.612 1_455 S
O339 C355 1.276 . S
O340 Eu288 2.432 . S
O340 C362 1.264 1_565 S
O341 Eu299 2.339 1_455 S
O341 C362 1.254 . S
O342 Eu299 2.563 1_455 S
O342 C355 1.235 . S
O343 Eu299 2.419 . S
O343 C363 1.249 . S
C344 O333 1.276 . S
C344 O336 1.235 1_655 S
C345 C347 1.393 . S
C345 C349 1.395 . S
C345 C352 1.492 . S
C346 C347 1.392 . S
C346 C348 1.386 . S
C347 C345 1.393 . S
C347 C346 1.392 . S
C347 H364 0.930 1_455 S
C348 C346 1.386 . S
C348 C350 1.395 . S
C348 H365 0.930 . S
C349 C345 1.395 . S
C349 C350 1.379 . S
C349 H366 0.930 . S
C350 C348 1.395 . S
C350 C349 1.379 . S
C350 H367 0.930 . S
C351 O334 1.264 . S
C351 O335 1.254 1_545 S
C352 Eu288 2.848 . S
C352 O332 1.257 . S
C352 O337 1.249 . S
C352 C345 1.492 . S
C353 H318 0.931 . S
C353 C331 1.420 . S
C353 C354 1.351 . S
C354 H316 0.930 . S
C354 C322 1.423 . S
C354 C353 1.351 . S
C355 O339 1.276 . S
C355 O342 1.235 . S
C356 C357 1.393 . S
C356 C360 1.395 . S
C356 C363 1.492 . S
C357 C356 1.393 . S
C357 C358 1.392 . S
C357 H368 0.930 1_655 S
C358 C357 1.392 . S
C358 C359 1.386 . S
C359 C358 1.386 . S
C359 C361 1.395 . S
C359 H369 0.930 . S
C360 C356 1.395 . S
C360 C361 1.379 . S
C360 H370 0.930 . S
C361 C359 1.395 . S
C361 C360 1.379 . S
C361 H371 0.930 . S
C362 O340 1.264 1_545 S
C362 O341 1.254 . S
C363 Eu299 2.848 . S
C363 O338 1.257 . S
C363 O343 1.249 . S
C363 C356 1.492 . S
H364 C347 0.930 1_655 S
H365 C348 0.930 . S
H366 C349 0.930 . S
H367 C350 0.930 . S
H368 C357 0.930 1_455 S
H369 C359 0.930 . S
H370 C360 0.930 . S
H371 C361 0.930 . S
Eu372 N403 2.657 . S
Eu372 N410 2.609 . S
Eu372 O416 2.558 . S
Eu372 O417 2.612 1_545 S
Eu372 O419 2.339 1_545 S
Eu372 O420 2.563 . S
Eu372 O421 2.419 . S
Eu372 O423 2.380 . S
Eu372 O424 2.432 . S
Eu372 C436 2.848 . S
C373 C376 1.429 . S
C373 C377 1.411 . S
C373 N380 1.377 . S
C374 C376 1.420 . S
C374 C378 1.423 . S
C374 C386 1.392 . S
C375 C377 1.420 . S
C375 C378 1.351 . S
C375 H398 0.931 . S
C376 C373 1.429 . S
C376 C374 1.420 . S
C376 N384 1.362 . S
C377 C373 1.411 . S
C377 C375 1.420 . S
C377 C382 1.395 . S
C378 C374 1.423 . S
C378 C375 1.351 . S
C378 H390 0.930 . S
C379 C381 1.400 . S
C379 C382 1.386 . S
C379 H391 0.930 . S
N380 C373 1.377 . S
N380 C381 1.321 . S
N380 Eu383 2.609 . S
C381 C379 1.400 . S
C381 N380 1.321 . S
C381 H388 0.930 . S
C382 C377 1.395 . S
C382 C379 1.386 . S
C382 H401 0.930 . S
Eu383 N380 2.609 . S
Eu383 N384 2.657 . S
Eu383 O417 2.380 . S
Eu383 O418 2.432 . S
Eu383 O422 2.558 . S
Eu383 O423 2.612 1_565 S
Eu383 O425 2.339 1_565 S
Eu383 O426 2.563 1_565 S
Eu383 O427 2.419 . S
Eu383 C447 2.848 . S
N384 C376 1.362 . S
N384 Eu383 2.657 . S
N384 C385 1.334 1_565 S
C385 N384 1.334 1_545 S
C385 C387 1.413 . S
C385 H392 0.929 . S
C386 C374 1.392 . S
C386 C387 1.367 1_565 S
C386 H394 0.930 . S
C387 C385 1.413 . S
C387 C386 1.367 1_545 S
C387 H389 0.930 . S
H388 C381 0.930 . S
H389 C387 0.930 . S
H390 C378 0.930 . S
H391 C379 0.930 . S
H392 C385 0.929 . S
H393 C407 0.930 1_565 S
H394 C386 0.930 . S
H395 C413 0.930 . S
H396 C404 0.929 1_565 S
H397 C411 0.930 . S
H398 C375 0.931 . S
H399 C405 0.930 . S
H400 C438 0.930 . S
H401 C382 0.930 . S
H402 C437 0.931 . S
N403 Eu372 2.657 . S
N403 C404 1.334 . S
N403 C408 1.362 . S
C404 H396 0.929 1_545 S
C404 N403 1.334 . S
C404 C407 1.413 . S
C405 H399 0.930 . S
C405 C406 1.392 . S
C405 C407 1.367 . S
C406 C405 1.392 . S
C406 C408 1.420 . S
C406 C438 1.423 . S
C407 H393 0.930 1_545 S
C407 C404 1.413 . S
C407 C405 1.367 . S
C408 N403 1.362 . S
C408 C406 1.420 . S
C408 C412 1.429 . S
H409 C414 0.930 . S
N410 Eu372 2.609 . S
N410 C412 1.377 . S
N410 C413 1.321 . S
C411 H397 0.930 . S
C411 C413 1.400 . S
C411 C414 1.386 . S
C412 C408 1.429 . S
C412 N410 1.377 . S
C412 C415 1.411 . S
C413 H395 0.930 . S
C413 N410 1.321 . S
C413 C411 1.400 . S
C414 H409 0.930 . S
C414 C411 1.386 . S
C414 C415 1.395 . S
C415 C412 1.411 . S
C415 C414 1.395 . S
C415 C437 1.420 . S
O416 Eu372 2.558 . S
O416 C436 1.257 . S
O417 Eu372 2.612 1_565 S
O417 Eu383 2.380 . S
O417 C428 1.276 . S
O418 Eu383 2.432 . S
O418 C435 1.264 . S
O419 Eu372 2.339 1_565 S
O419 C435 1.254 . S
O420 Eu372 2.563 . S
O420 C428 1.235 1_545 S
O421 Eu372 2.419 . S
O421 C436 1.249 . S
O422 Eu383 2.558 . S
O422 C447 1.257 . S
O423 Eu372 2.380 . S
O423 Eu383 2.612 1_545 S
O423 C439 1.276 . S
O424 Eu372 2.432 . S
O424 C446 1.264 . S
O425 Eu383 2.339 1_545 S
O425 C446 1.254 . S
O426 Eu383 2.563 1_545 S
O426 C439 1.235 . S
O427 Eu383 2.419 . S
O427 C447 1.249 . S
C428 O417 1.276 . S
C428 O420 1.235 1_565 S
C429 C431 1.393 . S
C429 C433 1.395 . S
C429 C436 1.492 . S
C430 C431 1.392 . S
C430 C432 1.386 . S
C431 C429 1.393 . S
C431 C430 1.392 . S
C431 H448 0.937 . S
C432 C430 1.386 . S
C432 C434 1.395 . S
C432 H449 0.930 . S
C433 C429 1.395 . S
C433 C434 1.379 . S
C433 H450 0.930 . S
C434 C432 1.395 . S
C434 C433 1.379 . S
C434 H451 0.930 . S
C435 O418 1.264 . S
C435 O419 1.254 . S
C436 Eu372 2.848 . S
C436 O416 1.257 . S
C436 O421 1.249 . S
C436 C429 1.492 . S
C437 H402 0.931 . S
C437 C415 1.420 . S
C437 C438 1.351 . S
C438 H400 0.930 . S
C438 C406 1.423 . S
C438 C437 1.351 . S
C439 O423 1.276 . S
C439 O426 1.235 . S
C440 C441 1.393 . S
C440 C444 1.395 . S
C440 C447 1.492 . S
C441 C440 1.393 . S
C441 C442 1.392 . S
C441 H452 0.930 1_565 S
C442 C441 1.392 . S
C442 C443 1.386 . S
C443 C442 1.386 . S
C443 C445 1.395 . S
C443 H453 0.930 . S
C444 C440 1.395 . S
C444 C445 1.379 . S
C444 H454 0.930 . S
C445 C443 1.395 . S
C445 C444 1.379 . S
C445 H455 0.930 . S
C446 O424 1.264 . S
C446 O425 1.254 . S
C447 Eu383 2.848 . S
C447 O422 1.257 . S
C447 O427 1.249 . S
C447 C440 1.492 . S
H448 C431 0.937 . S
H449 C432 0.930 . S
H450 C433 0.930 . S
H451 C434 0.930 . S
H452 C441 0.930 1_545 S
H453 C443 0.930 . S
H454 C444 0.930 . S
H455 C445 0.930 . S
Eu456 N487 2.657 . S
Eu456 N494 2.609 . S
Eu456 O500 2.558 . S
Eu456 O501 2.612 . S
Eu456 O503 2.339 . S
Eu456 O504 2.563 . S
Eu456 O505 2.419 . S
Eu456 O507 2.380 . S
Eu456 O508 2.432 . S
Eu456 C520 2.848 . S
C457 C460 1.429 . S
C457 C461 1.411 . S
C457 N464 1.377 . S
C458 C460 1.420 . S
C458 C462 1.423 . S
C458 C470 1.392 . S
C459 C461 1.420 . S
C459 C462 1.351 . S
C459 H482 0.931 . S
C460 C457 1.429 . S
C460 C458 1.420 . S
C460 N468 1.362 . S
C461 C457 1.411 . S
C461 C459 1.420 . S
C461 C466 1.395 . S
C462 C458 1.423 . S
C462 C459 1.351 . S
C462 H474 0.930 . S
C463 C465 1.400 . S
C463 C466 1.386 . S
C463 H475 0.930 . S
N464 C457 1.377 . S
N464 C465 1.321 . S
N464 Eu467 2.609 . S
C465 C463 1.400 . S
C465 N464 1.321 . S
C465 H472 0.930 . S
C466 C461 1.395 . S
C466 C463 1.386 . S
C466 H485 0.930 . S
Eu467 N464 2.609 . S
Eu467 N468 2.657 . S
Eu467 O501 2.380 . S
Eu467 O502 2.432 . S
Eu467 O506 2.558 . S
Eu467 O507 2.612 . S
Eu467 O509 2.339 . S
Eu467 O510 2.563 . S
Eu467 O511 2.419 . S
Eu467 C531 2.848 . S
N468 C460 1.362 . S
N468 Eu467 2.657 . S
N468 C469 1.334 . S
C469 N468 1.334 . S
C469 C471 1.413 . S
C469 H476 0.929 . S
C470 C458 1.392 . S
C470 C471 1.367 . S
C470 H478 0.930 . S
C471 C469 1.413 . S
C471 C470 1.367 . S
C471 H473 0.930 . S
H472 C465 0.930 . S
H473 C471 0.930 . S
H474 C462 0.930 . S
H475 C463 0.930 . S
H476 C469 0.929 . S
H477 C491 0.930 . S
H478 C470 0.930 . S
H479 C497 0.930 . S
H480 C488 0.929 . S
H481 C495 0.930 . S
H482 C459 0.931 . S
H483 C489 0.930 . S
H484 C522 0.930 . S
H485 C466 0.930 . S
H486 C521 0.931 . S
N487 Eu456 2.657 . S
N487 C488 1.334 . S
N487 C492 1.362 . S
C488 H480 0.929 . S
C488 N487 1.334 . S
C488 C491 1.413 . S
C489 H483 0.930 . S
C489 C490 1.392 . S
C489 C491 1.367 . S
C490 C489 1.392 . S
C490 C492 1.420 . S
C490 C522 1.423 . S
C491 H477 0.930 . S
C491 C488 1.413 . S
C491 C489 1.367 . S
C492 N487 1.362 . S
C492 C490 1.420 . S
C492 C496 1.429 . S
H493 C498 0.930 . S
N494 Eu456 2.609 . S
N494 C496 1.377 . S
N494 C497 1.321 . S
C495 H481 0.930 . S
C495 C497 1.400 . S
C495 C498 1.386 . S
C496 C492 1.429 . S
C496 N494 1.377 . S
C496 C499 1.411 . S
C497 H479 0.930 . S
C497 N494 1.321 . S
C497 C495 1.400 . S
C498 H493 0.930 . S
C498 C495 1.386 . S
C498 C499 1.395 . S
C499 C496 1.411 . S
C499 C498 1.395 . S
C499 C521 1.420 . S
O500 Eu456 2.558 . S
O500 C520 1.257 . S
O501 Eu456 2.612 . S
O501 Eu467 2.380 . S
O501 C512 1.276 . S
O502 Eu467 2.432 . S
O502 C519 1.264 . S
O503 Eu456 2.339 . S
O503 C519 1.254 . S
O504 Eu456 2.563 . S
O504 C512 1.235 . S
O505 Eu456 2.419 . S
O505 C520 1.249 . S
O506 Eu467 2.558 . S
O506 C531 1.257 . S
O507 Eu456 2.380 . S
O507 Eu467 2.612 . S
O507 C523 1.276 . S
O508 Eu456 2.432 . S
O508 C530 1.264 . S
O509 Eu467 2.339 . S
O509 C530 1.254 . S
O510 Eu467 2.563 . S
O510 C523 1.235 . S
O511 Eu467 2.419 . S
O511 C531 1.249 . S
C512 O501 1.276 . S
C512 O504 1.235 . S
C513 C515 1.393 . S
C513 C517 1.395 . S
C513 C520 1.492 . S
C514 C515 1.392 . S
C514 C516 1.386 . S
C515 C513 1.393 . S
C515 C514 1.392 . S
C515 H532 0.930 . S
C516 C514 1.386 . S
C516 C518 1.395 . S
C516 H533 0.930 . S
C517 C513 1.395 . S
C517 C518 1.379 . S
C517 H534 0.930 . S
C518 C516 1.395 . S
C518 C517 1.379 . S
C518 H535 0.930 . S
C519 O502 1.264 . S
C519 O503 1.254 . S
C520 Eu456 2.848 . S
C520 O500 1.257 . S
C520 O505 1.249 . S
C520 C513 1.492 . S
C521 H486 0.931 . S
C521 C499 1.420 . S
C521 C522 1.351 . S
C522 H484 0.930 . S
C522 C490 1.423 . S
C522 C521 1.351 . S
C523 O507 1.276 . S
C523 O510 1.235 . S
C524 C525 1.393 . S
C524 C528 1.395 . S
C524 C531 1.492 . S
C525 C524 1.393 . S
C525 C526 1.392 . S
C525 H536 0.930 . S
C526 C525 1.392 . S
C526 C527 1.386 . S
C527 C526 1.386 . S
C527 C529 1.395 . S
C527 H537 0.930 . S
C528 C524 1.395 . S
C528 C529 1.379 . S
C528 H538 0.930 . S
C529 C527 1.395 . S
C529 C528 1.379 . S
C529 H539 0.930 . S
C530 O508 1.264 . S
C530 O509 1.254 . S
C531 Eu467 2.848 . S
C531 O506 1.257 . S
C531 O511 1.249 . S
C531 C524 1.492 . S
H532 C515 0.930 . S
H533 C516 0.930 . S
H534 C517 0.930 . S
H535 C518 0.930 . S
H536 C525 0.930 . S
H537 C527 0.930 . S
H538 C528 0.930 . S
H539 C529 0.930 . S
Eu540 N571 2.657 . S
Eu540 N578 2.609 . S
Eu540 O584 2.558 . S
Eu540 O585 2.612 . S
Eu540 O587 2.339 . S
Eu540 O588 2.563 . S
Eu540 O589 2.419 . S
Eu540 O591 2.405 . S
Eu540 O592 2.432 1_455 S
Eu540 C604 2.848 . S
C541 C544 1.429 . S
C541 C545 1.411 . S
C541 N548 1.377 . S
C542 C544 1.420 . S
C542 C546 1.423 . S
C542 C554 1.392 . S
C543 C545 1.420 . S
C543 C546 1.351 . S
C543 H566 0.931 . S
C544 C541 1.429 . S
C544 C542 1.420 . S
C544 N552 1.362 . S
C545 C541 1.411 . S
C545 C543 1.420 . S
C545 C550 1.395 . S
C546 C542 1.423 . S
C546 C543 1.351 . S
C546 H558 0.930 . S
C547 C549 1.400 . S
C547 C550 1.386 1_455 S
C547 H559 0.930 . S
N548 C541 1.377 . S
N548 C549 1.321 1_655 S
N548 Eu551 2.609 . S
C549 C547 1.400 . S
C549 N548 1.321 1_455 S
C549 H556 0.930 . S
C550 C545 1.395 . S
C550 C547 1.386 1_655 S
C550 H569 0.930 . S
Eu551 N548 2.609 . S
Eu551 N552 2.657 . S
Eu551 O585 2.380 1_655 S
Eu551 O586 2.432 1_655 S
Eu551 O590 2.558 . S
Eu551 O591 2.597 1_655 S
Eu551 O593 2.339 . S
Eu551 O594 2.563 . S
Eu551 O595 2.419 . S
Eu551 C615 2.848 . S
N552 C544 1.362 . S
N552 Eu551 2.657 . S
N552 C553 1.334 . S
C553 N552 1.334 . S
C553 C555 1.413 . S
C553 H560 0.929 . S
C554 C542 1.392 . S
C554 C555 1.367 . S
C554 H562 0.930 . S
C555 C553 1.413 . S
C555 C554 1.367 . S
C555 H557 0.930 . S
H556 C549 0.930 . S
H557 C555 0.930 . S
H558 C546 0.930 . S
H559 C547 0.930 . S
H560 C553 0.929 . S
H561 C575 0.930 . S
H562 C554 0.930 . S
H563 C581 0.930 1_655 S
H564 C572 0.929 . S
H565 C579 0.930 1_655 S
H566 C543 0.931 . S
H567 C573 0.930 . S
H568 C606 0.930 . S
H569 C550 0.930 . S
H570 C605 0.931 . S
N571 Eu540 2.657 . S
N571 C572 1.334 . S
N571 C576 1.362 . S
C572 H564 0.929 . S
C572 N571 1.334 . S
C572 C575 1.413 . S
C573 H567 0.930 . S
C573 C574 1.392 . S
C573 C575 1.367 . S
C574 C573 1.392 . S
C574 C576 1.420 . S
C574 C606 1.423 . S
C575 H561 0.930 . S
C575 C572 1.413 . S
C575 C573 1.367 . S
C576 N571 1.362 . S
C576 C574 1.420 . S
C576 C580 1.429 . S
H577 C582 0.930 . S
N578 Eu540 2.609 . S
N578 C580 1.377 . S
N578 C581 1.321 . S
C579 H565 0.930 1_455 S
C579 C581 1.400 . S
C579 C582 1.386 . S
C580 C576 1.429 . S
C580 N578 1.377 . S
C580 C583 1.411 . S
C581 H563 0.930 1_455 S
C581 N578 1.321 . S
C581 C579 1.400 . S
C582 H577 0.930 . S
C582 C579 1.386 . S
C582 C583 1.395 . S
C583 C580 1.411 . S
C583 C582 1.395 . S
C583 C605 1.420 . S
O584 Eu540 2.558 . S
O584 C604 1.257 . S
O585 Eu540 2.612 . S
O585 Eu551 2.380 1_455 S
O585 C596 1.276 . S
O586 Eu551 2.432 1_455 S
O586 C603 1.264 . S
O587 Eu540 2.339 . S
O587 C603 1.254 . S
O588 Eu540 2.563 . S
O588 C596 1.235 . S
O589 Eu540 2.419 . S
O589 C604 1.249 . S
O590 Eu551 2.558 . S
O590 C615 1.257 . S
O591 Eu540 2.405 . S
O591 Eu551 2.597 1_455 S
O591 C607 1.259 1_455 S
O592 Eu540 2.432 1_655 S
O592 C614 1.264 . S
O593 Eu551 2.339 . S
O593 C614 1.254 . S
O594 Eu551 2.563 . S
O594 C607 1.235 . S
O595 Eu551 2.419 . S
O595 C615 1.249 . S
C596 O585 1.276 . S
C596 O588 1.235 . S
C597 C599 1.393 . S
C597 C601 1.395 . S
C597 C604 1.492 . S
C598 C599 1.392 . S
C598 C600 1.386 . S
C599 C597 1.393 . S
C599 C598 1.392 . S
C599 H616 0.930 . S
C600 C598 1.386 . S
C600 C602 1.395 . S
C600 H617 0.930 . S
C601 C597 1.395 . S
C601 C602 1.379 . S
C601 H618 0.930 . S
C602 C600 1.395 . S
C602 C601 1.379 . S
C602 H619 0.930 . S
C603 O586 1.264 . S
C603 O587 1.254 . S
C604 Eu540 2.848 . S
C604 O584 1.257 . S
C604 O589 1.249 . S
C604 C597 1.492 . S
C605 H570 0.931 . S
C605 C583 1.420 . S
C605 C606 1.351 . S
C606 H568 0.930 . S
C606 C574 1.423 . S
C606 C605 1.351 . S
C607 O591 1.259 1_655 S
C607 O594 1.235 . S
C608 C609 1.393 . S
C608 C612 1.395 . S
C608 C615 1.492 . S
C609 C608 1.393 . S
C609 C610 1.392 . S
C609 H620 0.930 . S
C610 C609 1.392 . S
C610 C611 1.386 . S
C611 C610 1.386 . S
C611 C613 1.395 . S
C611 H621 0.930 . S
C612 C608 1.395 . S
C612 C613 1.379 . S
C612 H622 0.930 . S
C613 C611 1.395 . S
C613 C612 1.379 . S
C613 H623 0.930 . S
C614 O592 1.264 . S
C614 O593 1.254 . S
C615 Eu551 2.848 . S
C615 O590 1.257 . S
C615 O595 1.249 . S
C615 C608 1.492 . S
H616 C599 0.930 . S
H617 C600 0.930 . S
H618 C601 0.930 . S
H619 C602 0.930 . S
H620 C609 0.930 . S
H621 C611 0.930 . S
H622 C612 0.930 . S
H623 C613 0.930 . S
H624 C642 0.951 . S
H625 C644 0.951 . S
H626 C646 0.950 . S
H627 C647 0.950 . S
H628 C649 0.950 . S
H629 C652 0.950 . S
H630 C653 0.950 . S
H631 C655 0.950 . S
H632 C656 0.950 . S
H633 C657 0.910 1_565 S
H634 C659 0.951 . S
H635 C661 0.950 . S
H636 C662 0.950 . S
H637 C664 0.950 . S
H638 C667 0.950 . S
H639 C668 0.950 . S
H640 C670 0.950 . S
H641 C671 0.950 . S
C642 H624 0.951 . S
C642 C643 1.366 . S
C642 C644 1.388 . S
C643 C642 1.366 . S
C643 C647 1.385 . S
C644 H625 0.951 . S
C644 C642 1.388 . S
C644 C645 1.366 . S
C645 C644 1.366 . S
C645 C646 1.414 . S
C645 C648 1.499 . S
C646 H626 0.950 . S
C646 C645 1.414 . S
C646 C647 1.374 . S
C647 H627 0.950 . S
C647 C643 1.385 . S
C647 C646 1.374 . S
C648 C645 1.499 . S
C648 C649 1.373 . S
C648 C650 1.389 . S
C649 H628 0.950 . S
C649 C648 1.373 . S
C649 C665 1.377 . S
C650 C648 1.389 . S
C650 C651 1.524 . S
C650 C664 1.377 . S
C651 C650 1.524 . S
C651 C652 1.397 . S
C651 C656 1.363 . S
C652 H629 0.950 . S
C652 C651 1.397 . S
C652 C653 1.334 . S
C653 H630 0.950 . S
C653 C652 1.334 . S
C653 C654 1.287 . S
C654 C653 1.287 . S
C654 C655 1.524 . S
C654 H673 0.913 . S
C655 H631 0.950 . S
C655 C654 1.524 . S
C655 C656 1.415 . S
C656 H632 0.950 . S
C656 C651 1.363 . S
C656 C655 1.415 . S
C657 H633 0.910 1_545 S
C657 C658 1.366 . S
C657 C659 1.388 . S
C658 C657 1.366 . S
C658 C662 1.385 . S
C659 H634 0.951 . S
C659 C657 1.388 . S
C659 C660 1.366 . S
C660 C659 1.366 . S
C660 C661 1.414 . S
C660 C663 1.499 . S
C661 H635 0.950 . S
C661 C660 1.414 . S
C661 C662 1.374 . S
C662 H636 0.950 . S
C662 C658 1.385 . S
C662 C661 1.374 . S
C663 C660 1.499 . S
C663 C664 1.373 . S
C663 C665 1.389 . S
C664 H637 0.950 . S
C664 C650 1.377 . S
C664 C663 1.373 . S
C665 C649 1.377 . S
C665 C663 1.389 . S
C665 C666 1.524 . S
C666 C665 1.524 . S
C666 C667 1.397 . S
C666 C671 1.363 1_545 S
C667 H638 0.950 . S
C667 C666 1.397 . S
C667 C668 1.334 1_545 S
C668 H639 0.950 . S
C668 C667 1.334 1_565 S
C668 C669 1.287 . S
C669 C668 1.287 . S
C669 C670 1.524 . S
C669 H672 0.999 . S
C670 H640 0.950 . S
C670 C669 1.524 . S
C670 C671 1.415 . S
C671 H641 0.950 . S
C671 C666 1.363 1_565 S
C671 C670 1.415 . S
H672 C669 0.999 . S
H673 C654 0.913 . S
H674 C692 0.951 . S
H675 C694 0.951 . S
H676 C696 0.950 . S
H677 C697 0.950 . S
H678 C699 0.950 . S
H679 C702 0.950 . S
H680 C703 0.950 . S
H681 C705 0.950 . S
H682 C706 0.950 . S
H683 C707 0.951 . S
H684 C709 0.951 . S
H685 C711 0.950 . S
H686 C712 0.950 . S
H687 C714 0.950 . S
H688 C717 0.950 . S
H689 C718 0.950 . S
H690 C720 0.950 . S
H691 C721 0.950 . S
C692 H674 0.951 . S
C692 C693 1.366 . S
C692 C694 1.388 . S
C693 C692 1.366 . S
C693 C697 1.385 . S
C694 H675 0.951 . S
C694 C692 1.388 . S
C694 C695 1.366 . S
C695 C694 1.366 . S
C695 C696 1.414 . S
C695 C698 1.499 . S
C696 H676 0.950 . S
C696 C695 1.414 . S
C696 C697 1.374 . S
C697 H677 0.950 . S
C697 C693 1.385 . S
C697 C696 1.374 . S
C698 C695 1.499 . S
C698 C699 1.373 . S
C698 C700 1.389 . S
C699 H678 0.950 . S
C699 C698 1.373 . S
C699 C715 1.377 . S
C700 C698 1.389 . S
C700 C701 1.524 . S
C700 C714 1.377 . S
C701 C700 1.524 . S
C701 C702 1.397 . S
C701 C706 1.363 . S
C702 H679 0.950 . S
C702 C701 1.397 . S
C702 C703 1.334 . S
C703 H680 0.950 . S
C703 C702 1.334 . S
C703 C704 1.287 . S
C704 C703 1.287 . S
C704 C705 1.524 . S
C704 H723 0.913 . S
C705 H681 0.950 . S
C705 C704 1.524 . S
C705 C706 1.415 . S
C706 H682 0.950 . S
C706 C701 1.363 . S
C706 C705 1.415 . S
C707 H683 0.951 . S
C707 C708 1.366 . S
C707 C709 1.388 . S
C708 C707 1.366 . S
C708 C712 1.385 . S
C709 H684 0.951 . S
C709 C707 1.388 . S
C709 C710 1.366 . S
C710 C709 1.366 . S
C710 C711 1.414 . S
C710 C713 1.499 . S
C711 H685 0.950 . S
C711 C710 1.414 . S
C711 C712 1.374 . S
C712 H686 0.950 . S
C712 C708 1.385 . S
C712 C711 1.374 . S
C713 C710 1.499 . S
C713 C714 1.373 . S
C713 C715 1.389 . S
C714 H687 0.950 . S
C714 C700 1.377 . S
C714 C713 1.373 . S
C715 C699 1.377 . S
C715 C713 1.389 . S
C715 C716 1.524 . S
C716 C715 1.524 . S
C716 C717 1.397 . S
C716 C721 1.363 . S
C717 H688 0.950 . S
C717 C716 1.397 . S
C717 C718 1.334 . S
C718 H689 0.950 . S
C718 C717 1.334 . S
C718 C719 1.287 . S
C719 C718 1.287 . S
C719 C720 1.524 . S
C719 H722 0.999 . S
C720 H690 0.950 . S
C720 C719 1.524 . S
C720 C721 1.415 . S
C721 H691 0.950 . S
C721 C716 1.363 . S
C721 C720 1.415 . S
H722 C719 0.999 . S
H723 C704 0.913 . S
H724 C742 0.951 . S
H725 C744 0.951 . S
H726 C746 0.950 . S
H727 C747 0.950 . S
H728 C749 0.950 . S
H729 C752 0.950 . S
H730 C753 0.950 . S
H731 C755 0.950 . S
H732 C756 0.950 . S
H733 C757 0.951 . S
H734 C759 0.951 . S
H735 C761 0.950 . S
H736 C762 0.950 . S
H737 C764 0.950 . S
H738 C767 0.950 . S
H739 C768 0.950 . S
H740 C770 0.950 . S
H741 C771 0.950 . S
C742 H724 0.951 . S
C742 C743 1.366 . S
C742 C744 1.388 . S
C743 C742 1.366 . S
C743 C747 1.385 . S
C744 H725 0.951 . S
C744 C742 1.388 . S
C744 C745 1.366 . S
C745 C744 1.366 . S
C745 C746 1.414 . S
C745 C748 1.499 . S
C746 H726 0.950 . S
C746 C745 1.414 . S
C746 C747 1.374 . S
C747 H727 0.950 . S
C747 C743 1.385 . S
C747 C746 1.374 . S
C748 C745 1.499 . S
C748 C749 1.373 . S
C748 C750 1.389 . S
C749 H728 0.950 . S
C749 C748 1.373 . S
C749 C765 1.377 . S
C750 C748 1.389 . S
C750 C751 1.524 . S
C750 C764 1.377 . S
C751 C750 1.524 . S
C751 C752 1.397 . S
C751 C756 1.363 . S
C752 H729 0.950 . S
C752 C751 1.397 . S
C752 C753 1.334 . S
C753 H730 0.950 . S
C753 C752 1.334 . S
C753 C754 1.287 . S
C754 C753 1.287 . S
C754 C755 1.524 . S
C754 H773 0.913 . S
C755 H731 0.950 . S
C755 C754 1.524 . S
C755 C756 1.415 . S
C756 H732 0.950 . S
C756 C751 1.363 . S
C756 C755 1.415 . S
C757 H733 0.951 . S
C757 C758 1.366 . S
C757 C759 1.388 . S
C758 C757 1.366 . S
C758 C762 1.385 . S
C759 H734 0.951 . S
C759 C757 1.388 . S
C759 C760 1.366 . S
C760 C759 1.366 . S
C760 C761 1.414 . S
C760 C763 1.499 . S
C761 H735 0.950 . S
C761 C760 1.414 . S
C761 C762 1.374 . S
C762 H736 0.950 . S
C762 C758 1.385 . S
C762 C761 1.374 . S
C763 C760 1.499 . S
C763 C764 1.373 . S
C763 C765 1.389 . S
C764 H737 0.950 . S
C764 C750 1.377 . S
C764 C763 1.373 . S
C765 C749 1.377 . S
C765 C763 1.389 . S
C765 C766 1.524 . S
C766 C765 1.524 . S
C766 C767 1.397 . S
C766 C771 1.363 . S
C767 H738 0.950 . S
C767 C766 1.397 . S
C767 C768 1.334 . S
C768 H739 0.950 . S
C768 C767 1.334 . S
C768 C769 1.287 . S
C769 C768 1.287 . S
C769 C770 1.524 . S
C769 H772 0.999 . S
C770 H740 0.950 . S
C770 C769 1.524 . S
C770 C771 1.415 . S
C771 H741 0.950 . S
C771 C766 1.363 . S
C771 C770 1.415 . S
H772 C769 0.999 . S
H773 C754 0.913 . S
H774 C792 0.951 . S
H775 C794 0.951 . S
H776 C796 0.950 . S
H777 C797 0.950 . S
H778 C799 0.950 . S
H779 C802 0.950 . S
H780 C803 0.950 . S
H781 C805 0.950 . S
H782 C806 0.950 . S
H783 C807 0.951 1_655 S
H784 C809 0.951 . S
H785 C811 0.950 . S
H786 C812 0.950 . S
H787 C814 0.950 . S
H788 C817 0.950 . S
H789 C818 0.950 . S
H790 C820 0.950 . S
H791 C821 0.955 . S
C792 H774 0.951 . S
C792 C793 1.366 . S
C792 C794 1.388 . S
C793 C792 1.366 . S
C793 C797 1.385 . S
C794 H775 0.951 . S
C794 C792 1.388 . S
C794 C795 1.366 . S
C795 C794 1.366 . S
C795 C796 1.414 . S
C795 C798 1.499 . S
C796 H776 0.950 . S
C796 C795 1.414 . S
C796 C797 1.374 . S
C797 H777 0.950 . S
C797 C793 1.385 . S
C797 C796 1.374 . S
C798 C795 1.499 . S
C798 C799 1.373 . S
C798 C800 1.389 . S
C799 H778 0.950 . S
C799 C798 1.373 . S
C799 C815 1.377 . S
C800 C798 1.389 . S
C800 C801 1.524 . S
C800 C814 1.377 . S
C801 C800 1.524 . S
C801 C802 1.397 . S
C801 C806 1.363 . S
C802 H779 0.950 . S
C802 C801 1.397 . S
C802 C803 1.334 . S
C803 H780 0.950 . S
C803 C802 1.334 . S
C803 C804 1.287 . S
C804 C803 1.287 . S
C804 C805 1.524 . S
C804 H823 0.913 . S
C805 H781 0.950 . S
C805 C804 1.524 . S
C805 C806 1.415 . S
C806 H782 0.950 . S
C806 C801 1.363 . S
C806 C805 1.415 . S
C807 H783 0.951 1_455 S
C807 C808 1.366 . S
C807 C809 1.388 . S
C808 C807 1.366 . S
C808 C812 1.385 . S
C809 H784 0.951 . S
C809 C807 1.388 . S
C809 C810 1.366 . S
C810 C809 1.366 . S
C810 C811 1.414 . S
C810 C813 1.499 . S
C811 H785 0.950 . S
C811 C810 1.414 . S
C811 C812 1.374 . S
C812 H786 0.950 . S
C812 C808 1.385 . S
C812 C811 1.374 . S
C813 C810 1.499 . S
C813 C814 1.373 . S
C813 C815 1.389 . S
C814 H787 0.950 . S
C814 C800 1.377 . S
C814 C813 1.373 . S
C815 C799 1.377 . S
C815 C813 1.389 . S
C815 C816 1.524 . S
C816 C815 1.524 . S
C816 C817 1.397 . S
C816 C821 1.338 1_455 S
C817 H788 0.950 . S
C817 C816 1.397 . S
C817 C818 1.334 . S
C818 H789 0.950 . S
C818 C817 1.334 . S
C818 C819 1.287 1_455 S
C819 C818 1.287 1_655 S
C819 C820 1.524 . S
C819 H822 0.999 . S
C820 H790 0.950 . S
C820 C819 1.524 . S
C820 C821 1.436 . S
C821 H791 0.955 . S
C821 C816 1.338 1_655 S
C821 C820 1.436 . S
H822 C819 0.999 . S
H823 C804 0.913 . S
H824 C842 0.951 . S
H825 C844 0.951 . S
H826 C846 0.950 . S
H827 C847 0.950 . S
H828 C849 0.950 . S
H829 C852 0.950 . S
H830 C853 0.950 . S
H831 C855 0.950 1_554 S
H832 C856 0.950 . S
H833 C857 0.951 . S
H834 C859 0.951 . S
H835 C861 0.950 . S
H836 C862 0.938 1_545 S
H837 C864 0.950 . S
H838 C867 0.950 . S
H839 C868 0.950 . S
H840 C870 0.950 . S
H841 C871 0.950 . S
C842 H824 0.951 . S
C842 C843 1.366 . S
C842 C844 1.388 . S
C843 C842 1.366 . S
C843 C847 1.385 1_554 S
C844 H825 0.951 . S
C844 C842 1.388 . S
C844 C845 1.366 1_554 S
C845 C844 1.366 1_556 S
C845 C846 1.414 . S
C845 C848 1.499 . S
C846 H826 0.950 . S
C846 C845 1.414 . S
C846 C847 1.374 . S
C847 H827 0.950 . S
C847 C843 1.385 1_556 S
C847 C846 1.374 . S
C848 C845 1.499 . S
C848 C849 1.373 . S
C848 C850 1.389 . S
C849 H828 0.950 . S
C849 C848 1.373 . S
C849 C865 1.377 . S
C850 C848 1.389 . S
C850 C851 1.524 . S
C850 C864 1.377 . S
C851 C850 1.524 . S
C851 C852 1.397 . S
C851 C856 1.363 1_565 S
C852 H829 0.950 . S
C852 C851 1.397 . S
C852 C853 1.334 1_565 S
C853 H830 0.950 . S
C853 C852 1.334 1_545 S
C853 C854 1.287 1_556 S
C854 C853 1.287 1_554 S
C854 C855 1.524 1_554 S
C854 H873 0.913 . S
C855 H831 0.950 1_556 S
C855 C854 1.524 1_556 S
C855 C856 1.415 . S
C856 H832 0.950 . S
C856 C851 1.363 1_545 S
C856 C855 1.415 . S
C857 H833 0.951 . S
C857 C858 1.366 . S
C857 C859 1.388 . S
C858 C857 1.366 . S
C858 C862 1.385 . S
C859 H834 0.951 . S
C859 C857 1.388 . S
C859 C860 1.366 . S
C860 C859 1.366 . S
C860 C861 1.414 . S
C860 C863 1.499 . S
C861 H835 0.950 . S
C861 C860 1.414 . S
C861 C862 1.374 . S
C862 H836 0.938 1_565 S
C862 C858 1.385 . S
C862 C861 1.374 . S
C863 C860 1.499 . S
C863 C864 1.373 . S
C863 C865 1.389 . S
C864 H837 0.950 . S
C864 C850 1.377 . S
C864 C863 1.373 . S
C865 C849 1.377 . S
C865 C863 1.389 . S
C865 C866 1.524 . S
C866 C865 1.524 . S
C866 C867 1.397 . S
C866 C871 1.363 . S
C867 H838 0.950 . S
C867 C866 1.397 . S
C867 C868 1.334 . S
C868 H839 0.950 . S
C868 C867 1.334 . S
C868 C869 1.287 . S
C869 C868 1.287 . S
C869 C870 1.524 . S
C869 H872 0.999 . S
C870 H840 0.950 . S
C870 C869 1.524 . S
C870 C871 1.415 . S
C871 H841 0.950 . S
C871 C866 1.363 . S
C871 C870 1.415 . S
H872 C869 0.999 . S
H873 C854 0.913 . S
H874 C892 0.951 . S
H875 C894 0.951 . S
H876 C896 0.950 . S
H877 C897 0.950 . S
H878 C899 0.950 . S
H879 C902 0.950 . S
H880 C903 0.950 . S
H881 C905 0.950 . S
H882 C906 0.950 . S
H883 C907 0.951 . S
H884 C909 0.951 . S
H885 C911 0.950 . S
H886 C912 0.950 . S
H887 C914 0.950 . S
H888 C917 0.950 . S
H889 C918 0.950 . S
H890 C920 0.950 . S
H891 C921 0.950 . S
C892 H874 0.951 . S
C892 C893 1.366 1_556 S
C892 C894 1.388 . S
C893 C892 1.366 1_554 S
C893 C897 1.385 . S
C894 H875 0.951 . S
C894 C892 1.388 . S
C894 C895 1.366 . S
C895 C894 1.366 . S
C895 C896 1.414 1_556 S
C895 C898 1.499 . S
C896 H876 0.950 . S
C896 C895 1.414 1_554 S
C896 C897 1.374 . S
C897 H877 0.950 . S
C897 C893 1.385 . S
C897 C896 1.374 . S
C898 C895 1.499 . S
C898 C899 1.373 . S
C898 C900 1.389 . S
C899 H878 0.950 . S
C899 C898 1.373 . S
C899 C915 1.377 . S
C900 C898 1.389 . S
C900 C901 1.524 . S
C900 C914 1.377 . S
C901 C900 1.524 . S
C901 C902 1.397 . S
C901 C906 1.363 . S
C902 H879 0.950 . S
C902 C901 1.397 . S
C902 C903 1.334 . S
C903 H880 0.950 . S
C903 C902 1.334 . S
C903 C904 1.287 . S
C904 C903 1.287 . S
C904 C905 1.524 . S
C904 H923 0.913 . S
C905 H881 0.950 . S
C905 C904 1.524 . S
C905 C906 1.415 . S
C906 H882 0.950 . S
C906 C901 1.363 . S
C906 C905 1.415 . S
C907 H883 0.951 . S
C907 C908 1.366 . S
C907 C909 1.388 . S
C908 C907 1.366 . S
C908 C912 1.385 . S
C909 H884 0.951 . S
C909 C907 1.388 . S
C909 C910 1.366 . S
C910 C909 1.366 . S
C910 C911 1.414 . S
C910 C913 1.499 . S
C911 H885 0.950 . S
C911 C910 1.414 . S
C911 C912 1.374 . S
C912 H886 0.950 . S
C912 C908 1.385 . S
C912 C911 1.374 . S
C913 C910 1.499 . S
C913 C914 1.373 . S
C913 C915 1.389 . S
C914 H887 0.950 . S
C914 C900 1.377 . S
C914 C913 1.373 . S
C915 C899 1.377 . S
C915 C913 1.389 . S
C915 C916 1.524 . S
C916 C915 1.524 . S
C916 C917 1.397 . S
C916 C921 1.363 . S
C917 H888 0.950 . S
C917 C916 1.397 . S
C917 C918 1.334 . S
C918 H889 0.950 . S
C918 C917 1.334 . S
C918 C919 1.287 . S
C919 C918 1.287 . S
C919 C920 1.524 . S
C919 H922 0.999 . S
C920 H890 0.950 . S
C920 C919 1.524 . S
C920 C921 1.415 . S
C921 H891 0.950 . S
C921 C916 1.363 . S
C921 C920 1.415 . S
H922 C919 0.999 . S
H923 C904 0.913 . S
H924 C942 0.951 . S
H925 C944 0.951 . S
H926 C946 0.950 . S
H927 C947 0.950 . S
H928 C949 0.950 . S
H929 C952 0.950 . S
H930 C953 0.950 . S
H931 C955 0.950 . S
H932 C956 0.950 . S
H933 C957 0.951 . S
H934 C959 0.951 . S
H935 C961 0.950 . S
H936 C962 0.950 . S
H937 C964 0.950 . S
H938 C967 0.950 . S
H939 C968 0.950 . S
H940 C970 0.950 . S
H941 C971 0.950 . S
C942 H924 0.951 . S
C942 C943 1.366 . S
C942 C944 1.388 1_554 S
C943 C942 1.366 . S
C943 C947 1.385 . S
C944 H925 0.951 . S
C944 C942 1.388 1_556 S
C944 C945 1.366 . S
C945 C944 1.366 . S
C945 C946 1.414 . S
C945 C948 1.499 . S
C946 H926 0.950 . S
C946 C945 1.414 . S
C946 C947 1.374 1_556 S
C947 H927 0.950 . S
C947 C943 1.385 . S
C947 C946 1.374 1_554 S
C948 C945 1.499 . S
C948 C949 1.373 . S
C948 C950 1.389 . S
C949 H928 0.950 . S
C949 C948 1.373 . S
C949 C965 1.377 . S
C950 C948 1.389 . S
C950 C951 1.524 . S
C950 C964 1.377 . S
C951 C950 1.524 . S
C951 C952 1.397 . S
C951 C956 1.363 . S
C952 H929 0.950 . S
C952 C951 1.397 . S
C952 C953 1.334 . S
C953 H930 0.950 . S
C953 C952 1.334 . S
C953 C954 1.287 . S
C954 C953 1.287 . S
C954 C955 1.524 . S
C954 H973 0.913 . S
C955 H931 0.950 . S
C955 C954 1.524 . S
C955 C956 1.415 . S
C956 H932 0.950 . S
C956 C951 1.363 . S
C956 C955 1.415 . S
C957 H933 0.951 . S
C957 C958 1.366 . S
C957 C959 1.388 . S
C958 C957 1.366 . S
C958 C962 1.385 . S
C959 H934 0.951 . S
C959 C957 1.388 . S
C959 C960 1.366 . S
C960 C959 1.366 . S
C960 C961 1.414 . S
C960 C963 1.499 . S
C961 H935 0.950 . S
C961 C960 1.414 . S
C961 C962 1.374 . S
C962 H936 0.950 . S
C962 C958 1.385 . S
C962 C961 1.374 . S
C963 C960 1.499 . S
C963 C964 1.373 . S
C963 C965 1.389 . S
C964 H937 0.950 . S
C964 C950 1.377 . S
C964 C963 1.373 . S
C965 C949 1.377 . S
C965 C963 1.389 . S
C965 C966 1.524 . S
C966 C965 1.524 . S
C966 C967 1.397 . S
C966 C971 1.363 . S
C967 H938 0.950 . S
C967 C966 1.397 . S
C967 C968 1.334 . S
C968 H939 0.950 . S
C968 C967 1.334 . S
C968 C969 1.287 . S
C969 C968 1.287 . S
C969 C970 1.524 . S
C969 H972 0.999 . S
C970 H940 0.950 . S
C970 C969 1.524 . S
C970 C971 1.415 . S
C971 H941 0.950 . S
C971 C966 1.363 . S
C971 C970 1.415 . S
H972 C969 0.999 . S
H973 C954 0.913 . S
H974 C992 0.951 . S
H975 C994 0.951 . S
H976 C996 0.950 . S
H977 C997 0.950 . S
H978 C999 0.950 . S
H979 C1002 0.950 . S
H980 C1003 0.950 . S
H981 C1005 0.950 . S
H982 C1006 0.950 . S
H983 C1007 0.951 . S
H984 C1009 0.951 . S
H985 C1011 0.950 . S
H986 C1012 0.950 . S
H987 C1014 0.950 . S
H988 C1017 0.950 . S
H989 C1018 0.950 . S
H990 C1020 0.950 . S
H991 C1021 0.946 . S
C992 H974 0.951 . S
C992 C993 1.366 1_556 S
C992 C994 1.388 . S
C993 C992 1.366 1_554 S
C993 C997 1.385 . S
C994 H975 0.951 . S
C994 C992 1.388 . S
C994 C995 1.366 . S
C995 C994 1.366 . S
C995 C996 1.414 1_556 S
C995 C998 1.499 . S
C996 H976 0.950 . S
C996 C995 1.414 1_554 S
C996 C997 1.374 . S
C997 H977 0.950 . S
C997 C993 1.385 . S
C997 C996 1.374 . S
C998 C995 1.499 . S
C998 C999 1.373 . S
C998 C1000 1.389 . S
C999 H978 0.950 . S
C999 C998 1.373 . S
C999 C1015 1.377 . S
C1000 C998 1.389 . S
C1000 C1001 1.524 . S
C1000 C1014 1.377 . S
C1001 C1000 1.524 . S
C1001 C1002 1.397 . S
C1001 C1006 1.363 . S
C1002 H979 0.950 . S
C1002 C1001 1.397 . S
C1002 C1003 1.334 . S
C1003 H980 0.950 . S
C1003 C1002 1.334 . S
C1003 C1004 1.287 . S
C1004 C1003 1.287 . S
C1004 C1005 1.524 . S
C1004 H1023 0.913 . S
C1005 H981 0.950 . S
C1005 C1004 1.524 . S
C1005 C1006 1.415 . S
C1006 H982 0.950 . S
C1006 C1001 1.363 . S
C1006 C1005 1.415 . S
C1007 H983 0.951 . S
C1007 C1008 1.366 . S
C1007 C1009 1.388 . S
C1008 C1007 1.366 . S
C1008 C1012 1.385 . S
C1009 H984 0.951 . S
C1009 C1007 1.388 . S
C1009 C1010 1.366 . S
C1010 C1009 1.366 . S
C1010 C1011 1.414 . S
C1010 C1013 1.499 . S
C1011 H985 0.950 . S
C1011 C1010 1.414 . S
C1011 C1012 1.374 . S
C1012 H986 0.950 . S
C1012 C1008 1.385 . S
C1012 C1011 1.374 . S
C1013 C1010 1.499 . S
C1013 C1014 1.373 . S
C1013 C1015 1.389 . S
C1014 H987 0.950 . S
C1014 C1000 1.377 . S
C1014 C1013 1.373 . S
C1015 C999 1.377 . S
C1015 C1013 1.389 . S
C1015 C1016 1.524 . S
C1016 C1015 1.524 . S
C1016 C1017 1.397 1_655 S
C1016 C1021 1.362 . S
C1017 H988 0.950 . S
C1017 C1016 1.397 1_455 S
C1017 C1018 1.334 . S
C1018 H989 0.950 . S
C1018 C1017 1.334 . S
C1018 C1019 1.287 . S
C1019 C1018 1.287 . S
C1019 C1020 1.524 . S
C1019 H1022 0.999 . S
C1020 H990 0.950 . S
C1020 C1019 1.524 . S
C1020 C1021 1.420 1_455 S
C1021 H991 0.946 . S
C1021 C1016 1.362 . S
C1021 C1020 1.420 1_655 S
H1022 C1019 0.999 . S
H1023 C1004 0.913 . S
H1024 C1042 0.951 . S
H1025 C1044 0.951 . S
H1026 C1046 0.950 . S
H1027 C1047 0.950 . S
H1028 C1049 0.950 . S
H1029 C1052 0.950 . S
H1030 C1053 0.950 . S
H1031 C1055 0.950 . S
H1032 C1056 0.950 . S
H1033 C1057 0.951 . S
H1034 C1059 0.951 . S
H1035 C1061 0.950 . S
H1036 C1062 0.950 1_655 S
H1037 C1064 0.950 . S
H1038 C1067 0.950 . S
H1039 C1068 0.950 . S
H1040 C1070 0.950 . S
H1041 C1071 0.950 . S
C1042 H1024 0.951 . S
C1042 C1043 1.366 . S
C1042 C1044 1.388 . S
C1043 C1042 1.366 . S
C1043 C1047 1.385 . S
C1044 H1025 0.951 . S
C1044 C1042 1.388 . S
C1044 C1045 1.366 . S
C1045 C1044 1.366 . S
C1045 C1046 1.414 . S
C1045 C1048 1.499 . S
C1046 H1026 0.950 . S
C1046 C1045 1.414 . S
C1046 C1047 1.374 . S
C1047 H1027 0.950 . S
C1047 C1043 1.385 . S
C1047 C1046 1.374 . S
C1048 C1045 1.499 . S
C1048 C1049 1.373 . S
C1048 C1050 1.389 . S
C1049 H1028 0.950 . S
C1049 C1048 1.373 . S
C1049 C1065 1.377 . S
C1050 C1048 1.389 . S
C1050 C1051 1.524 . S
C1050 C1064 1.377 . S
C1051 C1050 1.524 . S
C1051 C1052 1.397 . S
C1051 C1056 1.363 . S
C1052 H1029 0.950 . S
C1052 C1051 1.397 . S
C1052 C1053 1.334 . S
C1053 H1030 0.950 . S
C1053 C1052 1.334 . S
C1053 C1054 1.287 . S
C1054 C1053 1.287 . S
C1054 C1055 1.524 . S
C1054 H1073 0.913 . S
C1055 H1031 0.950 . S
C1055 C1054 1.524 . S
C1055 C1056 1.415 . S
C1056 H1032 0.950 . S
C1056 C1051 1.363 . S
C1056 C1055 1.415 . S
C1057 H1033 0.951 . S
C1057 C1058 1.366 . S
C1057 C1059 1.388 . S
C1058 C1057 1.366 . S
C1058 C1062 1.385 . S
C1059 H1034 0.951 . S
C1059 C1057 1.388 . S
C1059 C1060 1.366 . S
C1060 C1059 1.366 . S
C1060 C1061 1.414 . S
C1060 C1063 1.499 . S
C1061 H1035 0.950 . S
C1061 C1060 1.414 . S
C1061 C1062 1.374 . S
C1062 H1036 0.950 1_455 S
C1062 C1058 1.385 . S
C1062 C1061 1.374 . S
C1063 C1060 1.499 . S
C1063 C1064 1.373 . S
C1063 C1065 1.389 . S
C1064 H1037 0.950 . S
C1064 C1050 1.377 . S
C1064 C1063 1.373 . S
C1065 C1049 1.377 . S
C1065 C1063 1.389 . S
C1065 C1066 1.524 . S
C1066 C1065 1.524 . S
C1066 C1067 1.397 1_455 S
C1066 C1071 1.363 . S
C1067 H1038 0.950 . S
C1067 C1066 1.397 1_655 S
C1067 C1068 1.334 . S
C1068 H1039 0.950 . S
C1068 C1067 1.334 . S
C1068 C1069 1.287 . S
C1069 C1068 1.287 . S
C1069 C1070 1.524 1_655 S
C1069 H1072 0.999 . S
C1070 H1040 0.950 . S
C1070 C1069 1.524 1_455 S
C1070 C1071 1.415 . S
C1071 H1041 0.950 . S
C1071 C1066 1.363 . S
C1071 C1070 1.415 . S
H1072 C1069 0.999 . S
H1073 C1054 0.913 . S
H1074 C1092 0.951 . S
H1075 C1094 0.951 . S
H1076 C1096 0.950 . S
H1077 C1097 0.950 . S
H1078 C1099 0.950 . S
H1079 C1102 0.950 . S
H1080 C1103 0.950 . S
H1081 C1105 0.950 . S
H1082 C1106 0.950 . S
H1083 C1107 0.951 . S
H1084 C1109 0.951 1_565 S
H1085 C1111 0.950 . S
H1086 C1112 0.950 . S
H1087 C1114 0.950 . S
H1088 C1117 0.950 . S
H1089 C1118 0.950 . S
H1090 C1120 0.950 . S
H1091 C1121 0.950 . S
C1092 H1074 0.951 . S
C1092 C1093 1.366 . S
C1092 C1094 1.388 . S
C1093 C1092 1.366 . S
C1093 C1097 1.385 . S
C1094 H1075 0.951 . S
C1094 C1092 1.388 . S
C1094 C1095 1.366 . S
C1095 C1094 1.366 . S
C1095 C1096 1.414 . S
C1095 C1098 1.499 . S
C1096 H1076 0.950 . S
C1096 C1095 1.414 . S
C1096 C1097 1.374 . S
C1097 H1077 0.950 . S
C1097 C1093 1.385 . S
C1097 C1096 1.374 . S
C1098 C1095 1.499 . S
C1098 C1099 1.373 . S
C1098 C1100 1.389 . S
C1099 H1078 0.950 . S
C1099 C1098 1.373 . S
C1099 C1115 1.377 . S
C1100 C1098 1.389 . S
C1100 C1101 1.524 . S
C1100 C1114 1.377 . S
C1101 C1100 1.524 . S
C1101 C1102 1.397 . S
C1101 C1106 1.363 . S
C1102 H1079 0.950 . S
C1102 C1101 1.397 . S
C1102 C1103 1.334 . S
C1103 H1080 0.950 . S
C1103 C1102 1.334 . S
C1103 C1104 1.287 . S
C1104 C1103 1.287 . S
C1104 C1105 1.524 . S
C1104 H1123 0.913 . S
C1105 H1081 0.950 . S
C1105 C1104 1.524 . S
C1105 C1106 1.415 . S
C1106 H1082 0.950 . S
C1106 C1101 1.363 . S
C1106 C1105 1.415 . S
C1107 H1083 0.951 . S
C1107 C1108 1.366 1_565 S
C1107 C1109 1.388 1_565 S
C1108 C1107 1.366 1_545 S
C1108 C1112 1.385 . S
C1109 H1084 0.951 1_545 S
C1109 C1107 1.388 1_545 S
C1109 C1110 1.366 . S
C1110 C1109 1.366 . S
C1110 C1111 1.414 . S
C1110 C1113 1.499 . S
C1111 H1085 0.950 . S
C1111 C1110 1.414 . S
C1111 C1112 1.374 . S
C1112 H1086 0.950 . S
C1112 C1108 1.385 . S
C1112 C1111 1.374 . S
C1113 C1110 1.499 . S
C1113 C1114 1.373 . S
C1113 C1115 1.389 . S
C1114 H1087 0.950 . S
C1114 C1100 1.377 . S
C1114 C1113 1.373 . S
C1115 C1099 1.377 . S
C1115 C1113 1.389 . S
C1115 C1116 1.524 . S
C1116 C1115 1.524 . S
C1116 C1117 1.397 . S
C1116 C1121 1.363 . S
C1117 H1088 0.950 . S
C1117 C1116 1.397 . S
C1117 C1118 1.334 . S
C1118 H1089 0.950 . S
C1118 C1117 1.334 . S
C1118 C1119 1.287 . S
C1119 C1118 1.287 . S
C1119 C1120 1.524 1_545 S
C1119 H1122 0.999 1_545 S
C1120 H1090 0.950 . S
C1120 C1119 1.524 1_565 S
C1120 C1121 1.415 1_565 S
C1121 H1091 0.950 . S
C1121 C1116 1.363 . S
C1121 C1120 1.415 1_545 S
H1122 C1119 0.999 1_565 S
H1123 C1104 0.913 . S
H1124 C1142 0.951 . S
H1125 C1144 0.951 . S
H1126 C1146 0.950 . S
H1127 C1147 0.950 . S
H1128 C1149 0.950 . S
H1129 C1152 0.950 . S
H1130 C1153 0.950 . S
H1131 C1155 0.950 . S
H1132 C1156 0.950 . S
H1133 C1157 0.951 . S
H1134 C1159 0.951 . S
H1135 C1161 0.950 . S
H1136 C1162 0.950 . S
H1137 C1164 0.950 . S
H1138 C1167 0.950 . S
H1139 C1168 0.950 . S
H1140 C1170 0.950 . S
H1141 C1171 0.950 . S
C1142 H1124 0.951 . S
C1142 C1143 1.366 . S
C1142 C1144 1.388 . S
C1143 C1142 1.366 . S
C1143 C1147 1.385 . S
C1144 H1125 0.951 . S
C1144 C1142 1.388 . S
C1144 C1145 1.366 . S
C1145 C1144 1.366 . S
C1145 C1146 1.414 . S
C1145 C1148 1.499 . S
C1146 H1126 0.950 . S
C1146 C1145 1.414 . S
C1146 C1147 1.374 . S
C1147 H1127 0.950 . S
C1147 C1143 1.385 . S
C1147 C1146 1.374 . S
C1148 C1145 1.499 . S
C1148 C1149 1.373 . S
C1148 C1150 1.389 . S
C1149 H1128 0.950 . S
C1149 C1148 1.373 . S
C1149 C1165 1.377 . S
C1150 C1148 1.389 . S
C1150 C1151 1.524 . S
C1150 C1164 1.377 . S
C1151 C1150 1.524 . S
C1151 C1152 1.397 . S
C1151 C1156 1.363 . S
C1152 H1129 0.950 . S
C1152 C1151 1.397 . S
C1152 C1153 1.334 . S
C1153 H1130 0.950 . S
C1153 C1152 1.334 . S
C1153 C1154 1.287 . S
C1154 C1153 1.287 . S
C1154 C1155 1.524 . S
C1154 H1173 0.913 . S
C1155 H1131 0.950 . S
C1155 C1154 1.524 . S
C1155 C1156 1.415 . S
C1156 H1132 0.950 . S
C1156 C1151 1.363 . S
C1156 C1155 1.415 . S
C1157 H1133 0.951 . S
C1157 C1158 1.366 . S
C1157 C1159 1.388 . S
C1158 C1157 1.366 . S
C1158 C1162 1.385 . S
C1159 H1134 0.951 . S
C1159 C1157 1.388 . S
C1159 C1160 1.366 . S
C1160 C1159 1.366 . S
C1160 C1161 1.414 . S
C1160 C1163 1.499 . S
C1161 H1135 0.950 . S
C1161 C1160 1.414 . S
C1161 C1162 1.374 . S
C1162 H1136 0.950 . S
C1162 C1158 1.385 . S
C1162 C1161 1.374 . S
C1163 C1160 1.499 . S
C1163 C1164 1.373 . S
C1163 C1165 1.389 . S
C1164 H1137 0.950 . S
C1164 C1150 1.377 . S
C1164 C1163 1.373 . S
C1165 C1149 1.377 . S
C1165 C1163 1.389 . S
C1165 C1166 1.524 . S
C1166 C1165 1.524 . S
C1166 C1167 1.397 . S
C1166 C1171 1.363 . S
C1167 H1138 0.950 . S
C1167 C1166 1.397 . S
C1167 C1168 1.334 . S
C1168 H1139 0.950 . S
C1168 C1167 1.334 . S
C1168 C1169 1.287 . S
C1169 C1168 1.287 . S
C1169 C1170 1.524 . S
C1169 H1172 0.999 . S
C1170 H1140 0.950 . S
C1170 C1169 1.524 . S
C1170 C1171 1.415 . S
C1171 H1141 0.950 . S
C1171 C1166 1.363 . S
C1171 C1170 1.415 . S
H1172 C1169 0.999 . S
H1173 C1154 0.913 . S
H1174 C1192 0.951 . S
H1175 C1194 0.951 . S
H1176 C1196 0.950 . S
H1177 C1197 0.950 . S
H1178 C1199 0.950 . S
H1179 C1202 0.950 . S
H1180 C1203 0.950 . S
H1181 C1205 0.950 . S
H1182 C1206 0.950 . S
H1183 C1207 0.951 . S
H1184 C1209 0.951 . S
H1185 C1211 0.950 . S
H1186 C1212 0.950 . S
H1187 C1214 0.950 . S
H1188 C1217 0.950 . S
H1189 C1218 0.950 . S
H1190 C1220 0.950 . S
H1191 C1221 0.950 . S
C1192 H1174 0.951 . S
C1192 C1193 1.366 . S
C1192 C1194 1.388 . S
C1193 C1192 1.366 . S
C1193 C1197 1.385 . S
C1194 H1175 0.951 . S
C1194 C1192 1.388 . S
C1194 C1195 1.366 . S
C1195 C1194 1.366 . S
C1195 C1196 1.414 . S
C1195 C1198 1.499 . S
C1196 H1176 0.950 . S
C1196 C1195 1.414 . S
C1196 C1197 1.374 . S
C1197 H1177 0.950 . S
C1197 C1193 1.385 . S
C1197 C1196 1.374 . S
C1198 C1195 1.499 . S
C1198 C1199 1.373 . S
C1198 C1200 1.389 . S
C1199 H1178 0.950 . S
C1199 C1198 1.373 . S
C1199 C1215 1.377 . S
C1200 C1198 1.389 . S
C1200 C1201 1.524 . S
C1200 C1214 1.377 . S
C1201 C1200 1.524 . S
C1201 C1202 1.397 . S
C1201 C1206 1.363 . S
C1202 H1179 0.950 . S
C1202 C1201 1.397 . S
C1202 C1203 1.334 . S
C1203 H1180 0.950 . S
C1203 C1202 1.334 . S
C1203 C1204 1.287 . S
C1204 C1203 1.287 . S
C1204 C1205 1.524 . S
C1204 H1223 0.913 . S
C1205 H1181 0.950 . S
C1205 C1204 1.524 . S
C1205 C1206 1.415 . S
C1206 H1182 0.950 . S
C1206 C1201 1.363 . S
C1206 C1205 1.415 . S
C1207 H1183 0.951 . S
C1207 C1208 1.366 . S
C1207 C1209 1.388 . S
C1208 C1207 1.366 . S
C1208 C1212 1.385 . S
C1209 H1184 0.951 . S
C1209 C1207 1.388 . S
C1209 C1210 1.366 . S
C1210 C1209 1.366 . S
C1210 C1211 1.414 . S
C1210 C1213 1.499 . S
C1211 H1185 0.950 . S
C1211 C1210 1.414 . S
C1211 C1212 1.374 . S
C1212 H1186 0.950 . S
C1212 C1208 1.385 . S
C1212 C1211 1.374 . S
C1213 C1210 1.499 . S
C1213 C1214 1.373 . S
C1213 C1215 1.389 . S
C1214 H1187 0.950 . S
C1214 C1200 1.377 . S
C1214 C1213 1.373 . S
C1215 C1199 1.377 . S
C1215 C1213 1.389 . S
C1215 C1216 1.524 . S
C1216 C1215 1.524 . S
C1216 C1217 1.397 . S
C1216 C1221 1.363 . S
C1217 H1188 0.950 . S
C1217 C1216 1.397 . S
C1217 C1218 1.334 . S
C1218 H1189 0.950 . S
C1218 C1217 1.334 . S
C1218 C1219 1.287 . S
C1219 C1218 1.287 . S
C1219 C1220 1.524 . S
C1219 H1222 0.999 . S
C1220 H1190 0.950 . S
C1220 C1219 1.524 . S
C1220 C1221 1.415 . S
C1221 H1191 0.950 . S
C1221 C1216 1.363 . S
C1221 C1220 1.415 . S
H1222 C1219 0.999 . S
H1223 C1204 0.913 . S
H1224 C1242 0.951 . S
H1225 C1244 0.951 . S
H1226 C1246 0.950 . S
H1227 C1247 0.950 1_554 S
H1228 C1249 0.950 . S
H1229 C1252 0.950 . S
H1230 C1253 0.950 . S
H1231 C1255 0.950 . S
H1232 C1256 0.950 . S
H1233 C1257 0.951 . S
H1234 C1259 0.951 . S
H1235 C1261 0.950 1_455 S
H1236 C1262 0.950 . S
H1237 C1264 0.950 . S
H1238 C1267 0.950 . S
H1239 C1268 0.950 . S
H1240 C1270 0.950 . S
H1241 C1271 0.950 . S
C1242 H1224 0.951 . S
C1242 C1243 1.366 . S
C1242 C1244 1.388 . S
C1243 C1242 1.366 . S
C1243 C1247 1.385 . S
C1244 H1225 0.951 . S
C1244 C1242 1.388 . S
C1244 C1245 1.366 . S
C1245 C1244 1.366 . S
C1245 C1246 1.414 . S
C1245 C1248 1.499 . S
C1246 H1226 0.950 . S
C1246 C1245 1.414 . S
C1246 C1247 1.374 . S
C1247 H1227 0.950 1_556 S
C1247 C1243 1.385 . S
C1247 C1246 1.374 . S
C1248 C1245 1.499 . S
C1248 C1249 1.373 . S
C1248 C1250 1.389 . S
C1249 H1228 0.950 . S
C1249 C1248 1.373 . S
C1249 C1265 1.377 . S
C1250 C1248 1.389 . S
C1250 C1251 1.524 . S
C1250 C1264 1.377 . S
C1251 C1250 1.524 . S
C1251 C1252 1.397 . S
C1251 C1256 1.363 1_655 S
C1252 H1229 0.950 . S
C1252 C1251 1.397 . S
C1252 C1253 1.334 1_556 S
C1253 H1230 0.950 . S
C1253 C1252 1.334 1_554 S
C1253 C1254 1.287 1_654 S
C1254 C1253 1.287 1_456 S
C1254 C1255 1.524 . S
C1254 H1273 0.913 . S
C1255 H1231 0.950 . S
C1255 C1254 1.524 . S
C1255 C1256 1.415 . S
C1256 H1232 0.950 . S
C1256 C1251 1.363 1_455 S
C1256 C1255 1.415 . S
C1257 H1233 0.951 . S
C1257 C1258 1.366 1_655 S
C1257 C1259 1.388 . S
C1258 C1257 1.366 1_455 S
C1258 C1262 1.385 . S
C1259 H1234 0.951 . S
C1259 C1257 1.388 . S
C1259 C1260 1.366 . S
C1260 C1259 1.366 . S
C1260 C1261 1.414 . S
C1260 C1263 1.499 . S
C1261 H1235 0.950 1_655 S
C1261 C1260 1.414 . S
C1261 C1262 1.374 1_655 S
C1262 H1236 0.950 . S
C1262 C1258 1.385 . S
C1262 C1261 1.374 1_455 S
C1263 C1260 1.499 . S
C1263 C1264 1.373 . S
C1263 C1265 1.389 . S
C1264 H1237 0.950 . S
C1264 C1250 1.377 . S
C1264 C1263 1.373 . S
C1265 C1249 1.377 . S
C1265 C1263 1.389 . S
C1265 C1266 1.524 . S
C1266 C1265 1.524 . S
C1266 C1267 1.397 . S
C1266 C1271 1.363 . S
C1267 H1238 0.950 . S
C1267 C1266 1.397 . S
C1267 C1268 1.334 . S
C1268 H1239 0.950 . S
C1268 C1267 1.334 . S
C1268 C1269 1.287 . S
C1269 C1268 1.287 . S
C1269 C1270 1.524 . S
C1269 H1272 0.999 . S
C1270 H1240 0.950 . S
C1270 C1269 1.524 . S
C1270 C1271 1.415 . S
C1271 H1241 0.950 . S
C1271 C1266 1.363 . S
C1271 C1270 1.415 . S
H1272 C1269 0.999 . S
H1273 C1254 0.913 . S
H1274 C1292 0.951 . S
H1275 C1294 0.951 . S
H1276 C1296 0.950 . S
H1277 C1297 0.948 . S
H1278 C1299 0.950 . S
H1279 C1302 0.950 . S
H1280 C1303 0.950 . S
H1281 C1305 0.950 . S
H1282 C1306 0.950 . S
H1283 C1307 0.951 . S
H1284 C1309 0.951 . S
H1285 C1311 0.950 . S
H1286 C1312 0.950 . S
H1287 C1314 0.950 . S
H1288 C1317 0.950 . S
H1289 C1318 0.950 . S
H1290 C1320 0.950 1_554 S
H1291 C1321 0.950 . S
C1292 H1274 0.951 . S
C1292 C1293 1.366 . S
C1292 C1294 1.388 . S
C1293 C1292 1.366 . S
C1293 C1297 1.385 1_556 S
C1294 H1275 0.951 . S
C1294 C1292 1.388 . S
C1294 C1295 1.366 . S
C1295 C1294 1.366 . S
C1295 C1296 1.414 . S
C1295 C1298 1.499 . S
C1296 H1276 0.950 . S
C1296 C1295 1.414 . S
C1296 C1297 1.375 1_556 S
C1297 H1277 0.948 . S
C1297 C1293 1.385 1_554 S
C1297 C1296 1.375 1_554 S
C1298 C1295 1.499 . S
C1298 C1299 1.373 . S
C1298 C1300 1.389 . S
C1299 H1278 0.950 . S
C1299 C1298 1.373 . S
C1299 C1315 1.377 . S
C1300 C1298 1.389 . S
C1300 C1301 1.524 . S
C1300 C1314 1.377 . S
C1301 C1300 1.524 . S
C1301 C1302 1.397 . S
C1301 C1306 1.363 . S
C1302 H1279 0.950 . S
C1302 C1301 1.397 . S
C1302 C1303 1.334 . S
C1303 H1280 0.950 . S
C1303 C1302 1.334 . S
C1303 C1304 1.287 . S
C1304 C1303 1.287 . S
C1304 C1305 1.524 . S
C1304 H1323 0.913 . S
C1305 H1281 0.950 . S
C1305 C1304 1.524 . S
C1305 C1306 1.415 . S
C1306 H1282 0.950 . S
C1306 C1301 1.363 . S
C1306 C1305 1.415 . S
C1307 H1283 0.951 . S
C1307 C1308 1.366 . S
C1307 C1309 1.388 . S
C1308 C1307 1.366 . S
C1308 C1312 1.385 1_545 S
C1309 H1284 0.951 . S
C1309 C1307 1.388 . S
C1309 C1310 1.366 1_545 S
C1310 C1309 1.366 1_565 S
C1310 C1311 1.414 . S
C1310 C1313 1.499 . S
C1311 H1285 0.950 . S
C1311 C1310 1.414 . S
C1311 C1312 1.374 . S
C1312 H1286 0.950 . S
C1312 C1308 1.385 1_565 S
C1312 C1311 1.374 . S
C1313 C1310 1.499 . S
C1313 C1314 1.373 . S
C1313 C1315 1.389 . S
C1314 H1287 0.950 . S
C1314 C1300 1.377 . S
C1314 C1313 1.373 . S
C1315 C1299 1.377 . S
C1315 C1313 1.389 . S
C1315 C1316 1.524 . S
C1316 C1315 1.524 . S
C1316 C1317 1.397 . S
C1316 C1321 1.363 . S
C1317 H1288 0.950 . S
C1317 C1316 1.397 . S
C1317 C1318 1.334 . S
C1318 H1289 0.950 . S
C1318 C1317 1.334 . S
C1318 C1319 1.287 . S
C1319 C1318 1.287 . S
C1319 C1320 1.524 . S
C1319 H1322 0.999 . S
C1320 H1290 0.950 1_556 S
C1320 C1319 1.524 . S
C1320 C1321 1.415 . S
C1321 H1291 0.950 . S
C1321 C1316 1.363 . S
C1321 C1320 1.415 . S
H1322 C1319 0.999 . S
H1323 C1304 0.913 . S
H1324 C1342 0.951 . S
H1325 C1344 0.951 . S
H1326 C1346 0.950 . S
H1327 C1347 0.950 1_554 S
H1328 C1349 0.950 . S
H1329 C1352 0.950 . S
H1330 C1353 0.950 . S
H1331 C1355 0.950 . S
H1332 C1356 0.950 . S
H1333 C1357 0.951 . S
H1334 C1359 0.951 . S
H1335 C1361 0.950 . S
H1336 C1362 0.950 . S
H1337 C1364 0.950 . S
H1338 C1367 0.950 . S
H1339 C1368 0.950 . S
H1340 C1370 0.950 . S
H1341 C1371 0.950 . S
C1342 H1324 0.951 . S
C1342 C1343 1.366 . S
C1342 C1344 1.388 . S
C1343 C1342 1.366 . S
C1343 C1347 1.385 . S
C1344 H1325 0.951 . S
C1344 C1342 1.388 . S
C1344 C1345 1.366 . S
C1345 C1344 1.366 . S
C1345 C1346 1.414 . S
C1345 C1348 1.499 . S
C1346 H1326 0.950 . S
C1346 C1345 1.414 . S
C1346 C1347 1.374 . S
C1347 H1327 0.950 1_556 S
C1347 C1343 1.385 . S
C1347 C1346 1.374 . S
C1348 C1345 1.499 . S
C1348 C1349 1.373 . S
C1348 C1350 1.389 . S
C1349 H1328 0.950 . S
C1349 C1348 1.373 . S
C1349 C1365 1.377 . S
C1350 C1348 1.389 . S
C1350 C1351 1.524 . S
C1350 C1364 1.377 . S
C1351 C1350 1.524 . S
C1351 C1352 1.397 . S
C1351 C1356 1.363 . S
C1352 H1329 0.950 . S
C1352 C1351 1.397 . S
C1352 C1353 1.334 . S
C1353 H1330 0.950 . S
C1353 C1352 1.334 . S
C1353 C1354 1.287 . S
C1354 C1353 1.287 . S
C1354 C1355 1.524 . S
C1354 H1373 0.913 . S
C1355 H1331 0.950 . S
C1355 C1354 1.524 . S
C1355 C1356 1.415 . S
C1356 H1332 0.950 . S
C1356 C1351 1.363 . S
C1356 C1355 1.415 . S
C1357 H1333 0.951 . S
C1357 C1358 1.366 . S
C1357 C1359 1.388 . S
C1358 C1357 1.366 . S
C1358 C1362 1.385 . S
C1359 H1334 0.951 . S
C1359 C1357 1.388 . S
C1359 C1360 1.366 . S
C1360 C1359 1.366 . S
C1360 C1361 1.414 . S
C1360 C1363 1.499 . S
C1361 H1335 0.950 . S
C1361 C1360 1.414 . S
C1361 C1362 1.374 . S
C1362 H1336 0.950 . S
C1362 C1358 1.385 . S
C1362 C1361 1.374 . S
C1363 C1360 1.499 . S
C1363 C1364 1.373 . S
C1363 C1365 1.389 . S
C1364 H1337 0.950 . S
C1364 C1350 1.377 . S
C1364 C1363 1.373 . S
C1365 C1349 1.377 . S
C1365 C1363 1.389 . S
C1365 C1366 1.524 . S
C1366 C1365 1.524 . S
C1366 C1367 1.397 . S
C1366 C1371 1.363 . S
C1367 H1338 0.950 . S
C1367 C1366 1.397 . S
C1367 C1368 1.334 . S
C1368 H1339 0.950 . S
C1368 C1367 1.334 . S
C1368 C1369 1.287 . S
C1369 C1368 1.287 . S
C1369 C1370 1.524 . S
C1369 H1372 0.999 . S
C1370 H1340 0.950 . S
C1370 C1369 1.524 . S
C1370 C1371 1.415 . S
C1371 H1341 0.950 . S
C1371 C1366 1.363 . S
C1371 C1370 1.415 . S
H1372 C1369 0.999 . S
H1373 C1354 0.913 . S
H1374 C1392 0.951 . S
H1375 C1394 0.951 . S
H1376 C1396 0.950 . S
H1377 C1397 0.950 . S
H1378 C1399 0.950 . S
H1379 C1402 0.951 . S
H1380 C1403 0.950 . S
H1381 C1405 0.950 . S
H1382 C1406 0.950 . S
H1383 C1407 0.951 . S
H1384 C1409 0.951 . S
H1385 C1411 0.950 . S
H1386 C1412 0.950 . S
H1387 C1414 0.950 . S
H1388 C1417 0.950 . S
H1389 C1418 0.950 . S
H1390 C1420 0.950 . S
H1391 C1421 0.950 . S
C1392 H1374 0.951 . S
C1392 C1393 1.366 . S
C1392 C1394 1.388 . S
C1393 C1392 1.366 . S
C1393 C1397 1.385 . S
C1394 H1375 0.951 . S
C1394 C1392 1.388 . S
C1394 C1395 1.366 . S
C1395 C1394 1.366 . S
C1395 C1396 1.414 . S
C1395 C1398 1.499 . S
C1396 H1376 0.950 . S
C1396 C1395 1.414 . S
C1396 C1397 1.374 . S
C1397 H1377 0.950 . S
C1397 C1393 1.385 . S
C1397 C1396 1.374 . S
C1398 C1395 1.499 . S
C1398 C1399 1.373 . S
C1398 C1400 1.389 . S
C1399 H1378 0.950 . S
C1399 C1398 1.373 . S
C1399 C1415 1.377 . S
C1400 C1398 1.389 . S
C1400 C1401 1.524 . S
C1400 C1414 1.377 . S
C1401 C1400 1.524 . S
C1401 C1402 1.383 1_556 S
C1401 C1406 1.363 . S
C1402 H1379 0.951 . S
C1402 C1401 1.383 1_554 S
C1402 C1403 1.346 . S
C1403 H1380 0.950 . S
C1403 C1402 1.346 . S
C1403 C1404 1.287 . S
C1404 C1403 1.287 . S
C1404 C1405 1.524 1_554 S
C1404 H1423 0.913 . S
C1405 H1381 0.950 . S
C1405 C1404 1.524 1_556 S
C1405 C1406 1.415 . S
C1406 H1382 0.950 . S
C1406 C1401 1.363 . S
C1406 C1405 1.415 . S
C1407 H1383 0.951 . S
C1407 C1408 1.366 . S
C1407 C1409 1.388 . S
C1408 C1407 1.366 . S
C1408 C1412 1.385 . S
C1409 H1384 0.951 . S
C1409 C1407 1.388 . S
C1409 C1410 1.366 . S
C1410 C1409 1.366 . S
C1410 C1411 1.414 . S
C1410 C1413 1.499 . S
C1411 H1385 0.950 . S
C1411 C1410 1.414 . S
C1411 C1412 1.374 . S
C1412 H1386 0.950 . S
C1412 C1408 1.385 . S
C1412 C1411 1.374 . S
C1413 C1410 1.499 . S
C1413 C1414 1.373 . S
C1413 C1415 1.389 . S
C1414 H1387 0.950 . S
C1414 C1400 1.377 . S
C1414 C1413 1.373 . S
C1415 C1399 1.377 . S
C1415 C1413 1.389 . S
C1415 C1416 1.524 . S
C1416 C1415 1.524 . S
C1416 C1417 1.397 . S
C1416 C1421 1.363 . S
C1417 H1388 0.950 . S
C1417 C1416 1.397 . S
C1417 C1418 1.334 . S
C1418 H1389 0.950 . S
C1418 C1417 1.334 . S
C1418 C1419 1.287 . S
C1419 C1418 1.287 . S
C1419 C1420 1.524 . S
C1419 H1422 0.999 . S
C1420 H1390 0.950 . S
C1420 C1419 1.524 . S
C1420 C1421 1.415 . S
C1421 H1391 0.950 . S
C1421 C1416 1.363 . S
C1421 C1420 1.415 . S
H1422 C1419 0.999 . S
H1423 C1404 0.913 . S
H1424 C1442 0.951 . S
H1425 C1444 0.951 . S
H1426 C1446 0.950 . S
H1427 C1447 0.950 . S
H1428 C1449 0.950 . S
H1429 C1452 0.950 . S
H1430 C1453 0.950 1_655 S
H1431 C1455 0.950 1_655 S
H1432 C1456 0.950 . S
H1433 C1457 0.951 . S
H1434 C1459 0.951 . S
H1435 C1461 0.950 . S
H1436 C1462 0.950 . S
H1437 C1464 0.950 . S
H1438 C1467 0.950 . S
H1439 C1468 0.950 . S
H1440 C1470 0.950 . S
H1441 C1471 0.950 . S
C1442 H1424 0.951 . S
C1442 C1443 1.366 . S
C1442 C1444 1.388 . S
C1443 C1442 1.366 . S
C1443 C1447 1.385 . S
C1444 H1425 0.951 . S
C1444 C1442 1.388 . S
C1444 C1445 1.366 . S
C1445 C1444 1.366 . S
C1445 C1446 1.414 . S
C1445 C1448 1.499 . S
C1446 H1426 0.950 . S
C1446 C1445 1.414 . S
C1446 C1447 1.374 . S
C1447 H1427 0.950 . S
C1447 C1443 1.385 . S
C1447 C1446 1.374 . S
C1448 C1445 1.499 . S
C1448 C1449 1.373 . S
C1448 C1450 1.389 . S
C1449 H1428 0.950 . S
C1449 C1448 1.373 . S
C1449 C1465 1.377 . S
C1450 C1448 1.389 . S
C1450 C1451 1.524 . S
C1450 C1464 1.377 . S
C1451 C1450 1.524 . S
C1451 C1452 1.397 . S
C1451 C1456 1.363 . S
C1452 H1429 0.950 . S
C1452 C1451 1.397 . S
C1452 C1453 1.334 . S
C1453 H1430 0.950 1_455 S
C1453 C1452 1.334 . S
C1453 C1454 1.287 1_455 S
C1454 C1453 1.287 1_655 S
C1454 C1455 1.524 1_655 S
C1454 H1473 0.913 . S
C1455 H1431 0.950 1_455 S
C1455 C1454 1.524 1_455 S
C1455 C1456 1.415 . S
C1456 H1432 0.950 . S
C1456 C1451 1.363 . S
C1456 C1455 1.415 . S
C1457 H1433 0.951 . S
C1457 C1458 1.366 . S
C1457 C1459 1.388 . S
C1458 C1457 1.366 . S
C1458 C1462 1.385 . S
C1459 H1434 0.951 . S
C1459 C1457 1.388 . S
C1459 C1460 1.366 . S
C1460 C1459 1.366 . S
C1460 C1461 1.414 . S
C1460 C1463 1.499 . S
C1461 H1435 0.950 . S
C1461 C1460 1.414 . S
C1461 C1462 1.374 . S
C1462 H1436 0.950 . S
C1462 C1458 1.385 . S
C1462 C1461 1.374 . S
C1463 C1460 1.499 . S
C1463 C1464 1.373 . S
C1463 C1465 1.389 . S
C1464 H1437 0.950 . S
C1464 C1450 1.377 . S
C1464 C1463 1.373 . S
C1465 C1449 1.377 . S
C1465 C1463 1.389 . S
C1465 C1466 1.524 . S
C1466 C1465 1.524 . S
C1466 C1467 1.397 . S
C1466 C1471 1.363 . S
C1467 H1438 0.950 . S
C1467 C1466 1.397 . S
C1467 C1468 1.334 . S
C1468 H1439 0.950 . S
C1468 C1467 1.334 . S
C1468 C1469 1.287 . S
C1469 C1468 1.287 . S
C1469 C1470 1.524 . S
C1469 H1472 0.999 . S
C1470 H1440 0.950 . S
C1470 C1469 1.524 . S
C1470 C1471 1.415 . S
C1471 H1441 0.950 . S
C1471 C1466 1.363 . S
C1471 C1470 1.415 . S
H1472 C1469 0.999 . S
H1473 C1454 0.913 . S
H1474 C1492 0.951 . S
H1475 C1494 0.951 . S
H1476 C1496 0.950 . S
H1477 C1497 0.950 . S
H1478 C1499 0.950 . S
H1479 C1502 0.950 . S
H1480 C1503 0.950 . S
H1481 C1505 0.950 . S
H1482 C1506 0.950 . S
H1483 C1507 0.951 . S
H1484 C1509 0.951 . S
H1485 C1511 0.950 . S
H1486 C1512 0.950 . S
H1487 C1514 0.950 . S
H1488 C1517 0.944 1_545 S
H1489 C1518 0.950 . S
H1490 C1520 0.950 . S
H1491 C1521 0.950 1_545 S
C1492 H1474 0.951 . S
C1492 C1493 1.366 . S
C1492 C1494 1.388 . S
C1493 C1492 1.366 . S
C1493 C1497 1.385 . S
C1494 H1475 0.951 . S
C1494 C1492 1.388 . S
C1494 C1495 1.366 . S
C1495 C1494 1.366 . S
C1495 C1496 1.414 . S
C1495 C1498 1.499 . S
C1496 H1476 0.950 . S
C1496 C1495 1.414 . S
C1496 C1497 1.374 . S
C1497 H1477 0.950 . S
C1497 C1493 1.385 . S
C1497 C1496 1.374 . S
C1498 C1495 1.499 . S
C1498 C1499 1.373 . S
C1498 C1500 1.389 . S
C1499 H1478 0.950 . S
C1499 C1498 1.373 . S
C1499 C1515 1.377 . S
C1500 C1498 1.389 . S
C1500 C1501 1.524 . S
C1500 C1514 1.377 . S
C1501 C1500 1.524 . S
C1501 C1502 1.397 . S
C1501 C1506 1.363 . S
C1502 H1479 0.950 . S
C1502 C1501 1.397 . S
C1502 C1503 1.334 . S
C1503 H1480 0.950 . S
C1503 C1502 1.334 . S
C1503 C1504 1.287 . S
C1504 C1503 1.287 . S
C1504 C1505 1.524 . S
C1504 H1523 0.913 . S
C1505 H1481 0.950 . S
C1505 C1504 1.524 . S
C1505 C1506 1.415 . S
C1506 H1482 0.950 . S
C1506 C1501 1.363 . S
C1506 C1505 1.415 . S
C1507 H1483 0.951 . S
C1507 C1508 1.366 . S
C1507 C1509 1.388 . S
C1508 C1507 1.366 . S
C1508 C1512 1.385 . S
C1509 H1484 0.951 . S
C1509 C1507 1.388 . S
C1509 C1510 1.366 . S
C1510 C1509 1.366 . S
C1510 C1511 1.414 . S
C1510 C1513 1.499 . S
C1511 H1485 0.950 . S
C1511 C1510 1.414 . S
C1511 C1512 1.374 . S
C1512 H1486 0.950 . S
C1512 C1508 1.385 . S
C1512 C1511 1.374 . S
C1513 C1510 1.499 . S
C1513 C1514 1.373 . S
C1513 C1515 1.389 . S
C1514 H1487 0.950 . S
C1514 C1500 1.377 . S
C1514 C1513 1.373 . S
C1515 C1499 1.377 . S
C1515 C1513 1.389 . S
C1515 C1516 1.524 . S
C1516 C1515 1.524 . S
C1516 C1517 1.392 1_545 S
C1516 C1521 1.363 1_545 S
C1517 H1488 0.944 1_565 S
C1517 C1516 1.392 1_565 S
C1517 C1518 1.344 . S
C1518 H1489 0.950 . S
C1518 C1517 1.344 . S
C1518 C1519 1.287 . S
C1519 C1518 1.287 . S
C1519 C1520 1.524 . S
C1519 H1522 0.999 . S
C1520 H1490 0.950 . S
C1520 C1519 1.524 . S
C1520 C1521 1.415 . S
C1521 H1491 0.950 1_565 S
C1521 C1516 1.363 1_565 S
C1521 C1520 1.415 . S
H1522 C1519 0.999 . S
H1523 C1504 0.913 . S
H1524 C1542 0.951 . S
H1525 C1544 0.951 . S
H1526 C1546 0.950 . S
H1527 C1547 0.950 . S
H1528 C1549 0.950 . S
H1529 C1552 0.950 . S
H1530 C1553 0.950 . S
H1531 C1555 0.950 . S
H1532 C1556 0.950 . S
H1533 C1557 0.951 . S
H1534 C1559 0.951 . S
H1535 C1561 0.950 . S
H1536 C1562 0.950 . S
H1537 C1564 0.950 . S
H1538 C1567 0.950 . S
H1539 C1568 0.950 . S
H1540 C1570 0.950 . S
H1541 C1571 0.950 . S
C1542 H1524 0.951 . S
C1542 C1543 1.366 . S
C1542 C1544 1.388 . S
C1543 C1542 1.366 . S
C1543 C1547 1.385 . S
C1544 H1525 0.951 . S
C1544 C1542 1.388 . S
C1544 C1545 1.366 . S
C1545 C1544 1.366 . S
C1545 C1546 1.414 . S
C1545 C1548 1.499 . S
C1546 H1526 0.950 . S
C1546 C1545 1.414 . S
C1546 C1547 1.374 . S
C1547 H1527 0.950 . S
C1547 C1543 1.385 . S
C1547 C1546 1.374 . S
C1548 C1545 1.499 . S
C1548 C1549 1.373 . S
C1548 C1550 1.389 . S
C1549 H1528 0.950 . S
C1549 C1548 1.373 . S
C1549 C1565 1.377 . S
C1550 C1548 1.389 . S
C1550 C1551 1.524 . S
C1550 C1564 1.377 . S
C1551 C1550 1.524 . S
C1551 C1552 1.397 . S
C1551 C1556 1.363 . S
C1552 H1529 0.950 . S
C1552 C1551 1.397 . S
C1552 C1553 1.334 . S
C1553 H1530 0.950 . S
C1553 C1552 1.334 . S
C1553 C1554 1.287 . S
C1554 C1553 1.287 . S
C1554 C1555 1.524 . S
C1554 H1573 0.913 . S
C1555 H1531 0.950 . S
C1555 C1554 1.524 . S
C1555 C1556 1.415 . S
C1556 H1532 0.950 . S
C1556 C1551 1.363 . S
C1556 C1555 1.415 . S
C1557 H1533 0.951 . S
C1557 C1558 1.366 . S
C1557 C1559 1.388 . S
C1558 C1557 1.366 . S
C1558 C1562 1.385 . S
C1559 H1534 0.951 . S
C1559 C1557 1.388 . S
C1559 C1560 1.366 . S
C1560 C1559 1.366 . S
C1560 C1561 1.414 . S
C1560 C1563 1.499 . S
C1561 H1535 0.950 . S
C1561 C1560 1.414 . S
C1561 C1562 1.374 . S
C1562 H1536 0.950 . S
C1562 C1558 1.385 . S
C1562 C1561 1.374 . S
C1563 C1560 1.499 . S
C1563 C1564 1.373 . S
C1563 C1565 1.389 . S
C1564 H1537 0.950 . S
C1564 C1550 1.377 . S
C1564 C1563 1.373 . S
C1565 C1549 1.377 . S
C1565 C1563 1.389 . S
C1565 C1566 1.524 . S
C1566 C1565 1.524 . S
C1566 C1567 1.397 . S
C1566 C1571 1.363 . S
C1567 H1538 0.950 . S
C1567 C1566 1.397 . S
C1567 C1568 1.334 . S
C1568 H1539 0.950 . S
C1568 C1567 1.334 . S
C1568 C1569 1.287 . S
C1569 C1568 1.287 . S
C1569 C1570 1.524 . S
C1569 H1572 0.999 . S
C1570 H1540 0.950 . S
C1570 C1569 1.524 . S
C1570 C1571 1.415 . S
C1571 H1541 0.950 . S
C1571 C1566 1.363 . S
C1571 C1570 1.415 . S
H1572 C1569 0.999 . S
H1573 C1554 0.913 . S
H1574 C1592 0.951 . S
H1575 C1594 0.951 . S
H1576 C1596 0.950 . S
H1577 C1597 0.950 . S
H1578 C1599 0.950 . S
H1579 C1602 0.950 . S
H1580 C1603 0.950 . S
H1581 C1605 0.950 . S
H1582 C1606 0.950 . S
H1583 C1607 0.951 . S
H1584 C1609 0.951 . S
H1585 C1611 0.950 . S
H1586 C1612 0.950 . S
H1587 C1614 0.950 . S
H1588 C1617 0.950 . S
H1589 C1618 0.950 . S
H1590 C1620 0.950 . S
H1591 C1621 0.950 . S
C1592 H1574 0.951 . S
C1592 C1593 1.366 . S
C1592 C1594 1.388 . S
C1593 C1592 1.366 . S
C1593 C1597 1.385 . S
C1594 H1575 0.951 . S
C1594 C1592 1.388 . S
C1594 C1595 1.366 . S
C1595 C1594 1.366 . S
C1595 C1596 1.414 . S
C1595 C1598 1.499 . S
C1596 H1576 0.950 . S
C1596 C1595 1.414 . S
C1596 C1597 1.374 . S
C1597 H1577 0.950 . S
C1597 C1593 1.385 . S
C1597 C1596 1.374 . S
C1598 C1595 1.499 . S
C1598 C1599 1.373 . S
C1598 C1600 1.389 . S
C1599 H1578 0.950 . S
C1599 C1598 1.373 . S
C1599 C1615 1.377 . S
C1600 C1598 1.389 . S
C1600 C1601 1.524 . S
C1600 C1614 1.377 . S
C1601 C1600 1.524 . S
C1601 C1602 1.397 . S
C1601 C1606 1.363 . S
C1602 H1579 0.950 . S
C1602 C1601 1.397 . S
C1602 C1603 1.334 . S
C1603 H1580 0.950 . S
C1603 C1602 1.334 . S
C1603 C1604 1.287 . S
C1604 C1603 1.287 . S
C1604 C1605 1.524 . S
C1604 H1623 0.913 . S
C1605 H1581 0.950 . S
C1605 C1604 1.524 . S
C1605 C1606 1.415 . S
C1606 H1582 0.950 . S
C1606 C1601 1.363 . S
C1606 C1605 1.415 . S
C1607 H1583 0.951 . S
C1607 C1608 1.366 . S
C1607 C1609 1.388 . S
C1608 C1607 1.366 . S
C1608 C1612 1.385 . S
C1609 H1584 0.951 . S
C1609 C1607 1.388 . S
C1609 C1610 1.366 . S
C1610 C1609 1.366 . S
C1610 C1611 1.414 . S
C1610 C1613 1.499 . S
C1611 H1585 0.950 . S
C1611 C1610 1.414 . S
C1611 C1612 1.374 . S
C1612 H1586 0.950 . S
C1612 C1608 1.385 . S
C1612 C1611 1.374 . S
C1613 C1610 1.499 . S
C1613 C1614 1.373 . S
C1613 C1615 1.389 . S
C1614 H1587 0.950 . S
C1614 C1600 1.377 . S
C1614 C1613 1.373 . S
C1615 C1599 1.377 . S
C1615 C1613 1.389 . S
C1615 C1616 1.524 . S
C1616 C1615 1.524 . S
C1616 C1617 1.397 . S
C1616 C1621 1.363 . S
C1617 H1588 0.950 . S
C1617 C1616 1.397 . S
C1617 C1618 1.334 . S
C1618 H1589 0.950 . S
C1618 C1617 1.334 . S
C1618 C1619 1.287 . S
C1619 C1618 1.287 . S
C1619 C1620 1.524 . S
C1619 H1622 0.999 . S
C1620 H1590 0.950 . S
C1620 C1619 1.524 . S
C1620 C1621 1.415 . S
C1621 H1591 0.950 . S
C1621 C1616 1.363 . S
C1621 C1620 1.415 . S
H1622 C1619 0.999 . S
H1623 C1604 0.913 . S
H1624 C1642 0.951 . S
H1625 C1644 0.951 . S
H1626 C1646 0.950 . S
H1627 C1647 0.950 . S
H1628 C1649 0.950 . S
H1629 C1652 0.950 . S
H1630 C1653 0.950 . S
H1631 C1655 0.950 . S
H1632 C1656 0.954 . S
H1633 C1657 0.951 . S
H1634 C1659 0.951 . S
H1635 C1661 0.950 . S
H1636 C1662 0.950 1_455 S
H1637 C1664 0.950 . S
H1638 C1667 0.950 . S
H1639 C1668 0.950 . S
H1640 C1670 0.950 . S
H1641 C1671 0.950 . S
C1642 H1624 0.951 . S
C1642 C1643 1.366 . S
C1642 C1644 1.388 . S
C1643 C1642 1.366 . S
C1643 C1647 1.385 . S
C1644 H1625 0.951 . S
C1644 C1642 1.388 . S
C1644 C1645 1.366 . S
C1645 C1644 1.366 . S
C1645 C1646 1.414 . S
C1645 C1648 1.499 . S
C1646 H1626 0.950 . S
C1646 C1645 1.414 . S
C1646 C1647 1.374 . S
C1647 H1627 0.950 . S
C1647 C1643 1.385 . S
C1647 C1646 1.374 . S
C1648 C1645 1.499 . S
C1648 C1649 1.373 . S
C1648 C1650 1.389 . S
C1649 H1628 0.950 . S
C1649 C1648 1.373 . S
C1649 C1665 1.377 . S
C1650 C1648 1.389 . S
C1650 C1651 1.524 . S
C1650 C1664 1.377 . S
C1651 C1650 1.524 . S
C1651 C1652 1.397 . S
C1651 C1656 1.355 1_655 S
C1652 H1629 0.950 . S
C1652 C1651 1.397 . S
C1652 C1653 1.334 . S
C1653 H1630 0.950 . S
C1653 C1652 1.334 . S
C1653 C1654 1.301 . S
C1654 C1653 1.301 . S
C1654 C1655 1.516 1_655 S
C1654 H1673 0.906 1_655 S
C1655 H1631 0.950 . S
C1655 C1654 1.516 1_455 S
C1655 C1656 1.419 . S
C1656 H1632 0.954 . S
C1656 C1651 1.355 1_455 S
C1656 C1655 1.419 . S
C1657 H1633 0.951 . S
C1657 C1658 1.366 . S
C1657 C1659 1.388 . S
C1658 C1657 1.366 . S
C1658 C1662 1.385 . S
C1659 H1634 0.951 . S
C1659 C1657 1.388 . S
C1659 C1660 1.366 . S
C1660 C1659 1.366 . S
C1660 C1661 1.414 . S
C1660 C1663 1.499 . S
C1661 H1635 0.950 . S
C1661 C1660 1.414 . S
C1661 C1662 1.374 . S
C1662 H1636 0.950 1_655 S
C1662 C1658 1.385 . S
C1662 C1661 1.374 . S
C1663 C1660 1.499 . S
C1663 C1664 1.373 . S
C1663 C1665 1.389 . S
C1664 H1637 0.950 . S
C1664 C1650 1.377 . S
C1664 C1663 1.373 . S
C1665 C1649 1.377 . S
C1665 C1663 1.389 . S
C1665 C1666 1.524 . S
C1666 C1665 1.524 . S
C1666 C1667 1.397 . S
C1666 C1671 1.363 . S
C1667 H1638 0.950 . S
C1667 C1666 1.397 . S
C1667 C1668 1.334 . S
C1668 H1639 0.950 . S
C1668 C1667 1.334 . S
C1668 C1669 1.287 . S
C1669 C1668 1.287 . S
C1669 C1670 1.524 . S
C1669 H1672 0.999 . S
C1670 H1640 0.950 . S
C1670 C1669 1.524 . S
C1670 C1671 1.415 . S
C1671 H1641 0.950 . S
C1671 C1666 1.363 . S
C1671 C1670 1.415 . S
H1672 C1669 0.999 . S
H1673 C1654 0.906 1_455 S
H1674 C1692 0.951 . S
H1675 C1694 0.951 . S
H1676 C1696 0.950 . S
H1677 C1697 0.950 . S
H1678 C1699 0.950 . S
H1679 C1702 0.950 . S
H1680 C1703 0.950 . S
H1681 C1705 0.950 . S
H1682 C1706 0.950 . S
H1683 C1707 0.951 . S
H1684 C1709 0.951 . S
H1685 C1711 0.950 . S
H1686 C1712 0.950 . S
H1687 C1714 0.950 . S
H1688 C1717 0.950 . S
H1689 C1718 0.950 . S
H1690 C1720 0.950 . S
H1691 C1721 0.950 . S
C1692 H1674 0.951 . S
C1692 C1693 1.366 . S
C1692 C1694 1.388 . S
C1693 C1692 1.366 . S
C1693 C1697 1.385 . S
C1694 H1675 0.951 . S
C1694 C1692 1.388 . S
C1694 C1695 1.366 . S
C1695 C1694 1.366 . S
C1695 C1696 1.414 . S
C1695 C1698 1.499 . S
C1696 H1676 0.950 . S
C1696 C1695 1.414 . S
C1696 C1697 1.374 . S
C1697 H1677 0.950 . S
C1697 C1693 1.385 . S
C1697 C1696 1.374 . S
C1698 C1695 1.499 . S
C1698 C1699 1.373 . S
C1698 C1700 1.389 . S
C1699 H1678 0.950 . S
C1699 C1698 1.373 . S
C1699 C1715 1.377 . S
C1700 C1698 1.389 . S
C1700 C1701 1.524 . S
C1700 C1714 1.377 . S
C1701 C1700 1.524 . S
C1701 C1702 1.397 . S
C1701 C1706 1.363 . S
C1702 H1679 0.950 . S
C1702 C1701 1.397 . S
C1702 C1703 1.334 . S
C1703 H1680 0.950 . S
C1703 C1702 1.334 . S
C1703 C1704 1.287 . S
C1704 C1703 1.287 . S
C1704 C1705 1.524 . S
C1704 H1723 0.913 . S
C1705 H1681 0.950 . S
C1705 C1704 1.524 . S
C1705 C1706 1.415 . S
C1706 H1682 0.950 . S
C1706 C1701 1.363 . S
C1706 C1705 1.415 . S
C1707 H1683 0.951 . S
C1707 C1708 1.366 . S
C1707 C1709 1.388 . S
C1708 C1707 1.366 . S
C1708 C1712 1.385 . S
C1709 H1684 0.951 . S
C1709 C1707 1.388 . S
C1709 C1710 1.366 . S
C1710 C1709 1.366 . S
C1710 C1711 1.414 . S
C1710 C1713 1.499 . S
C1711 H1685 0.950 . S
C1711 C1710 1.414 . S
C1711 C1712 1.374 . S
C1712 H1686 0.950 . S
C1712 C1708 1.385 . S
C1712 C1711 1.374 . S
C1713 C1710 1.499 . S
C1713 C1714 1.373 . S
C1713 C1715 1.389 . S
C1714 H1687 0.950 . S
C1714 C1700 1.377 . S
C1714 C1713 1.373 . S
C1715 C1699 1.377 . S
C1715 C1713 1.389 . S
C1715 C1716 1.524 . S
C1716 C1715 1.524 . S
C1716 C1717 1.397 . S
C1716 C1721 1.363 . S
C1717 H1688 0.950 . S
C1717 C1716 1.397 . S
C1717 C1718 1.334 . S
C1718 H1689 0.950 . S
C1718 C1717 1.334 . S
C1718 C1719 1.287 . S
C1719 C1718 1.287 . S
C1719 C1720 1.524 . S
C1719 H1722 0.999 . S
C1720 H1690 0.950 . S
C1720 C1719 1.524 . S
C1720 C1721 1.415 . S
C1721 H1691 0.950 . S
C1721 C1716 1.363 . S
C1721 C1720 1.415 . S
H1722 C1719 0.999 . S
H1723 C1704 0.913 . S
H1724 C1742 0.951 . S
H1725 C1744 0.951 . S
H1726 C1746 0.950 . S
H1727 C1747 0.950 . S
H1728 C1749 0.950 . S
H1729 C1752 0.950 . S
H1730 C1753 0.950 . S
H1731 C1755 0.950 . S
H1732 C1756 0.950 . S
H1733 C1757 0.951 . S
H1734 C1759 0.951 . S
H1735 C1761 0.950 . S
H1736 C1762 0.950 . S
H1737 C1764 0.950 . S
H1738 C1767 0.950 . S
H1739 C1768 0.950 . S
H1740 C1770 0.950 . S
H1741 C1771 0.950 . S
C1742 H1724 0.951 . S
C1742 C1743 1.366 . S
C1742 C1744 1.388 . S
C1743 C1742 1.366 . S
C1743 C1747 1.385 . S
C1744 H1725 0.951 . S
C1744 C1742 1.388 . S
C1744 C1745 1.366 . S
C1745 C1744 1.366 . S
C1745 C1746 1.414 . S
C1745 C1748 1.499 . S
C1746 H1726 0.950 . S
C1746 C1745 1.414 . S
C1746 C1747 1.374 . S
C1747 H1727 0.950 . S
C1747 C1743 1.385 . S
C1747 C1746 1.374 . S
C1748 C1745 1.499 . S
C1748 C1749 1.373 . S
C1748 C1750 1.389 . S
C1749 H1728 0.950 . S
C1749 C1748 1.373 . S
C1749 C1765 1.377 . S
C1750 C1748 1.389 . S
C1750 C1751 1.524 . S
C1750 C1764 1.377 . S
C1751 C1750 1.524 . S
C1751 C1752 1.397 . S
C1751 C1756 1.363 . S
C1752 H1729 0.950 . S
C1752 C1751 1.397 . S
C1752 C1753 1.334 . S
C1753 H1730 0.950 . S
C1753 C1752 1.334 . S
C1753 C1754 1.287 . S
C1754 C1753 1.287 . S
C1754 C1755 1.524 . S
C1754 H1773 0.913 . S
C1755 H1731 0.950 . S
C1755 C1754 1.524 . S
C1755 C1756 1.415 . S
C1756 H1732 0.950 . S
C1756 C1751 1.363 . S
C1756 C1755 1.415 . S
C1757 H1733 0.951 . S
C1757 C1758 1.366 . S
C1757 C1759 1.388 . S
C1758 C1757 1.366 . S
C1758 C1762 1.385 . S
C1759 H1734 0.951 . S
C1759 C1757 1.388 . S
C1759 C1760 1.366 . S
C1760 C1759 1.366 . S
C1760 C1761 1.414 . S
C1760 C1763 1.499 . S
C1761 H1735 0.950 . S
C1761 C1760 1.414 . S
C1761 C1762 1.374 . S
C1762 H1736 0.950 . S
C1762 C1758 1.385 . S
C1762 C1761 1.374 . S
C1763 C1760 1.499 . S
C1763 C1764 1.373 . S
C1763 C1765 1.389 . S
C1764 H1737 0.950 . S
C1764 C1750 1.377 . S
C1764 C1763 1.373 . S
C1765 C1749 1.377 . S
C1765 C1763 1.389 . S
C1765 C1766 1.524 . S
C1766 C1765 1.524 . S
C1766 C1767 1.397 . S
C1766 C1771 1.363 . S
C1767 H1738 0.950 . S
C1767 C1766 1.397 . S
C1767 C1768 1.334 . S
C1768 H1739 0.950 . S
C1768 C1767 1.334 . S
C1768 C1769 1.287 . S
C1769 C1768 1.287 . S
C1769 C1770 1.524 . S
C1769 H1772 0.999 . S
C1770 H1740 0.950 . S
C1770 C1769 1.524 . S
C1770 C1771 1.415 . S
C1771 H1741 0.950 . S
C1771 C1766 1.363 . S
C1771 C1770 1.415 . S
H1772 C1769 0.999 . S
H1773 C1754 0.913 . S
H1774 C1792 0.951 . S
H1775 C1794 0.951 . S
H1776 C1796 0.950 . S
H1777 C1797 0.950 . S
H1778 C1799 0.950 . S
H1779 C1802 0.950 . S
H1780 C1803 0.950 . S
H1781 C1805 0.950 . S
H1782 C1806 0.950 . S
H1783 C1807 0.951 . S
H1784 C1809 0.951 . S
H1785 C1811 0.950 . S
H1786 C1812 0.950 . S
H1787 C1814 0.950 . S
H1788 C1817 0.950 . S
H1789 C1818 0.950 . S
H1790 C1820 0.950 . S
H1791 C1821 0.950 . S
C1792 H1774 0.951 . S
C1792 C1793 1.366 . S
C1792 C1794 1.388 . S
C1793 C1792 1.366 . S
C1793 C1797 1.385 . S
C1794 H1775 0.951 . S
C1794 C1792 1.388 . S
C1794 C1795 1.366 . S
C1795 C1794 1.366 . S
C1795 C1796 1.414 . S
C1795 C1798 1.499 . S
C1796 H1776 0.950 . S
C1796 C1795 1.414 . S
C1796 C1797 1.374 . S
C1797 H1777 0.950 . S
C1797 C1793 1.385 . S
C1797 C1796 1.374 . S
C1798 C1795 1.499 . S
C1798 C1799 1.373 . S
C1798 C1800 1.389 . S
C1799 H1778 0.950 . S
C1799 C1798 1.373 . S
C1799 C1815 1.377 . S
C1800 C1798 1.389 . S
C1800 C1801 1.524 . S
C1800 C1814 1.377 . S
C1801 C1800 1.524 . S
C1801 C1802 1.397 . S
C1801 C1806 1.363 . S
C1802 H1779 0.950 . S
C1802 C1801 1.397 . S
C1802 C1803 1.334 . S
C1803 H1780 0.950 . S
C1803 C1802 1.334 . S
C1803 C1804 1.287 . S
C1804 C1803 1.287 . S
C1804 C1805 1.524 . S
C1804 H1823 0.913 . S
C1805 H1781 0.950 . S
C1805 C1804 1.524 . S
C1805 C1806 1.415 . S
C1806 H1782 0.950 . S
C1806 C1801 1.363 . S
C1806 C1805 1.415 . S
C1807 H1783 0.951 . S
C1807 C1808 1.366 . S
C1807 C1809 1.388 . S
C1808 C1807 1.366 . S
C1808 C1812 1.385 . S
C1809 H1784 0.951 . S
C1809 C1807 1.388 . S
C1809 C1810 1.366 . S
C1810 C1809 1.366 . S
C1810 C1811 1.414 . S
C1810 C1813 1.499 . S
C1811 H1785 0.950 . S
C1811 C1810 1.414 . S
C1811 C1812 1.374 . S
C1812 H1786 0.950 . S
C1812 C1808 1.385 . S
C1812 C1811 1.374 . S
C1813 C1810 1.499 . S
C1813 C1814 1.373 . S
C1813 C1815 1.389 . S
C1814 H1787 0.950 . S
C1814 C1800 1.377 . S
C1814 C1813 1.373 . S
C1815 C1799 1.377 . S
C1815 C1813 1.389 . S
C1815 C1816 1.524 . S
C1816 C1815 1.524 . S
C1816 C1817 1.397 . S
C1816 C1821 1.363 . S
C1817 H1788 0.950 . S
C1817 C1816 1.397 . S
C1817 C1818 1.334 . S
C1818 H1789 0.950 . S
C1818 C1817 1.334 . S
C1818 C1819 1.287 . S
C1819 C1818 1.287 . S
C1819 C1820 1.524 . S
C1819 H1822 0.999 . S
C1820 H1790 0.950 . S
C1820 C1819 1.524 . S
C1820 C1821 1.415 . S
C1821 H1791 0.950 . S
C1821 C1816 1.363 . S
C1821 C1820 1.415 . S
H1822 C1819 0.999 . S
H1823 C1804 0.913 . S
C643 C241 2.037 . S
C658 C362 2.098 . S
C708 C446 2.142 . S
C693 C277 2.077 . S
C758 C512 2.113 . S
C743 C169 2.211 . S
C808 C596 2.096 . S
C793 C205 2.193 . S
C858 C351 2.097 1_565 S
C843 C97 1.991 . S
C893 C133 2.124 . S
C908 C435 2.142 . S
C943 C25 2.159 . S
C958 C523 2.114 . S
C993 C61 2.143 . S
C1008 C607 2.095 . S
C1058 C358 0.426 1_455 S
C1043 C211 0.413 . S
C1108 C442 0.401 1_545 S
C1093 C247 0.375 . S
C1158 C514 0.445 . S
C1143 C253 0.452 . S
C1193 C175 0.401 . S
C1208 C598 0.449 . S
C1243 C67 0.509 . S
C1258 C346 0.422 . S
C1308 C430 0.400 . S
C1293 C103 0.481 . S
C1358 C526 0.442 . S
C1343 C109 0.346 . S
C1393 C31 0.510 . S
C1408 C610 0.449 . S
C1443 C181 2.628 . S
C1458 C355 2.702 . S
C1493 C217 2.568 . S
C1508 C439 2.643 . S
C1558 C519 2.646 . S
C1543 C283 2.345 . S
C1608 C603 2.679 . S
C1593 C145 2.476 . S
C1643 C37 2.594 . S
C1658 C344 2.702 . S
C1708 C428 2.643 . S
C1693 C73 2.537 . S
C1758 C530 2.646 . S
C1743 C139 2.391 . S
C1793 C1 2.442 . S
C1808 C614 2.679 . S
