# Generated by pormake.
# Topology zzz, (3,6)-cn, num edge types: 1
# Building blocks:
#     Node 0, Type 0, BuildingBlock: MIDCAF_clean_linker_0, # of connection points: 3
#     Node 1, Type 0, BuildingBlock: MIDCAF_clean_linker_0, # of connection points: 3
#     Node 2, Type 0, BuildingBlock: MIDCAF_clean_linker_0, # of connection points: 3
#     Node 3, Type 0, BuildingBlock: MIDCAF_clean_linker_0, # of connection points: 3
#     Node 4, Type 0, BuildingBlock: MIDCAF_clean_linker_0, # of connection points: 3
#     Node 5, Type 0, BuildingBlock: MIDCAF_clean_linker_0, # of connection points: 3
#     Node 6, Type 0, BuildingBlock: MIDCAF_clean_linker_0, # of connection points: 3
#     Node 7, Type 0, BuildingBlock: MIDCAF_clean_linker_0, # of connection points: 3
#     Node 8, Type 1, BuildingBlock: KUMJIN_clean_sbu_1, # of connection points: 6
#     Node 9, Type 1, BuildingBlock: KUMJIN_clean_sbu_1, # of connection points: 6
#     Node 10, Type 1, BuildingBlock: KUMJIN_clean_sbu_1, # of connection points: 6
#     Node 11, Type 1, BuildingBlock: KUMJIN_clean_sbu_1, # of connection points: 6
#     Edge 12, Type (0, 1), BuildingBlock: ZUJKAS_clean_linker_0, # of connection points: 2
#     Edge 13, Type (0, 1), BuildingBlock: ZUJKAS_clean_linker_0, # of connection points: 2
#     Edge 14, Type (0, 1), BuildingBlock: ZUJKAS_clean_linker_0, # of connection points: 2
#     Edge 15, Type (0, 1), BuildingBlock: ZUJKAS_clean_linker_0, # of connection points: 2
#     Edge 16, Type (0, 1), BuildingBlock: ZUJKAS_clean_linker_0, # of connection points: 2
#     Edge 17, Type (0, 1), BuildingBlock: ZUJKAS_clean_linker_0, # of connection points: 2
#     Edge 18, Type (0, 1), BuildingBlock: ZUJKAS_clean_linker_0, # of connection points: 2
#     Edge 19, Type (0, 1), BuildingBlock: ZUJKAS_clean_linker_0, # of connection points: 2
#     Edge 20, Type (0, 1), BuildingBlock: ZUJKAS_clean_linker_0, # of connection points: 2
#     Edge 21, Type (0, 1), BuildingBlock: ZUJKAS_clean_linker_0, # of connection points: 2
#     Edge 22, Type (0, 1), BuildingBlock: ZUJKAS_clean_linker_0, # of connection points: 2
#     Edge 23, Type (0, 1), BuildingBlock: ZUJKAS_clean_linker_0, # of connection points: 2
#     Edge 24, Type (0, 1), BuildingBlock: ZUJKAS_clean_linker_0, # of connection points: 2
#     Edge 25, Type (0, 1), BuildingBlock: ZUJKAS_clean_linker_0, # of connection points: 2
#     Edge 26, Type (0, 1), BuildingBlock: ZUJKAS_clean_linker_0, # of connection points: 2
#     Edge 27, Type (0, 1), BuildingBlock: ZUJKAS_clean_linker_0, # of connection points: 2
#     Edge 28, Type (0, 1), BuildingBlock: ZUJKAS_clean_linker_0, # of connection points: 2
#     Edge 29, Type (0, 1), BuildingBlock: ZUJKAS_clean_linker_0, # of connection points: 2
#     Edge 30, Type (0, 1), BuildingBlock: ZUJKAS_clean_linker_0, # of connection points: 2
#     Edge 31, Type (0, 1), BuildingBlock: ZUJKAS_clean_linker_0, # of connection points: 2
#     Edge 32, Type (0, 1), BuildingBlock: ZUJKAS_clean_linker_0, # of connection points: 2
#     Edge 33, Type (0, 1), BuildingBlock: ZUJKAS_clean_linker_0, # of connection points: 2
#     Edge 34, Type (0, 1), BuildingBlock: ZUJKAS_clean_linker_0, # of connection points: 2
#     Edge 35, Type (0, 1), BuildingBlock: ZUJKAS_clean_linker_0, # of connection points: 2
# Relax obj value: 0.289
# Max RMSD: 0.211
# Mean RMSD: 0.180
data_MOF--net-zzz--node1-KUMJIN_clean_sbu_1--node2-MIDCAF_clean_linker_0--edge1-ZUJKAS_clean_linker_0
_symmetry_space_group_name_H-M    P1
_symmetry_Int_Tables_number       1
_symmetry_cell_setting            triclinic
loop_
_symmetry_equiv_pos_as_xyz
'x, y, z'
_cell_length_a     70.689852
_cell_length_b     70.662593
_cell_length_c     26.277764
_cell_angle_alpha  90.07217
_cell_angle_beta   89.927845
_cell_angle_gamma 90.314746
loop_
_atom_site_label
_atom_site_type_symbol
_atom_site_fract_x
_atom_site_fract_y
_atom_site_fract_z
_atom_type_partial_charge
C0 C 0.79763 0.55909 0.28693 0.0
C1 C 0.80159 0.54007 0.29794 0.0
C2 C 0.79118 0.52587 0.27243 0.0
C3 C 0.77764 0.53063 0.23545 0.0
H4 H 0.70261 0.55283 0.15595 0.0
H5 H 0.67352 0.54585 0.10791 0.0
H6 H 0.70712 0.52229 0.98626 0.0
H7 H 0.73586 0.52947 0.03379 0.0
H8 H 0.74959 0.58669 0.01025 0.0
H9 H 0.76812 0.59876 0.93909 0.0
H10 H 0.81856 0.59674 0.03162 0.0
H11 H 0.80007 0.58516 0.1029 0.0
H12 H 0.78246 0.5786 0.24017 0.0
H13 H 0.80545 0.57038 0.30541 0.0
H14 H 0.79384 0.51107 0.28025 0.0
H15 H 0.77045 0.51943 0.21486 0.0
N16 N 0.74726 0.54616 0.16262 0.0
N17 N 0.74698 0.56388 0.08684 0.0
N18 N 0.77169 0.568 0.14458 0.0
C19 C 0.73872 0.55092 0.11781 0.0
C20 C 0.76338 0.57255 0.09981 0.0
C21 C 0.76381 0.55496 0.17628 0.0
C22 C 0.72142 0.54148 0.09874 0.0
C23 C 0.70362 0.54545 0.1199 0.0
C24 C 0.68701 0.5416 0.09216 0.0
C25 C 0.68803 0.53388 0.04274 0.0
C26 C 0.70583 0.5286 0.02368 0.0
C27 C 0.72229 0.53245 0.0512 0.0
C28 C 0.77344 0.5844 0.06187 0.0
C29 C 0.76455 0.58932 0.01589 0.0
C30 C 0.77516 0.59625 0.97503 0.0
C31 C 0.79488 0.59832 0.97923 0.0
C32 C 0.80339 0.5954 0.02695 0.0
C33 C 0.79277 0.58857 0.0679 0.0
C34 C 0.77456 0.54967 0.22259 0.0
C35 C 0.78444 0.56381 0.24948 0.0
C36 C 0.96148 0.80951 0.25244 0.0
C37 C 0.97772 0.80861 0.28308 0.0
C38 C 0.98998 0.79308 0.2765 0.0
C39 C 0.98624 0.77911 0.23937 0.0
H40 H 0.00485 0.72821 0.08657 0.0
H41 H 0.012 0.69861 0.0421 0.0
H42 H 0.9568 0.67686 0.08255 0.0
H43 H 0.94987 0.70642 0.12695 0.0
H44 H 0.94131 0.74708 0.99385 0.0
H45 H 0.93625 0.76177 0.91122 0.0
H46 H 0.94634 0.81679 0.9786 0.0
H47 H 0.95048 0.80227 0.06082 0.0
H48 H 0.94533 0.79735 0.19217 0.0
H49 H 0.95181 0.82129 0.25551 0.0
H50 H 1.00256 0.7918 0.29967 0.0
H51 H 0.99617 0.76765 0.2342 0.0
N52 N 0.97364 0.74961 0.16078 0.0
N53 N 0.96053 0.74651 0.07871 0.0
N54 N 0.95766 0.77504 0.12251 0.0
C55 C 0.97002 0.73888 0.11838 0.0
C56 C 0.95436 0.76456 0.08026 0.0
C57 C 0.96706 0.76781 0.16312 0.0
C58 C 0.97701 0.7194 0.11137 0.0
C59 C 0.99469 0.71669 0.08817 0.0
C60 C 0.9986 0.69987 0.06181 0.0
C61 C 0.98487 0.6854 0.05801 0.0
C62 C 0.96778 0.68757 0.08492 0.0
C63 C 0.96385 0.70445 0.11089 0.0
C64 C 0.94679 0.77347 0.03367 0.0
C65 C 0.94192 0.76236 0.99116 0.0
C66 C 0.93909 0.77079 0.9437 0.0
C67 C 0.94134 0.79045 0.93769 0.0
C68 C 0.94435 0.80163 0.98137 0.0
C69 C 0.94691 0.79325 0.02884 0.0
C70 C 0.97028 0.78054 0.20769 0.0
C71 C 0.95783 0.79575 0.21555 0.0
C72 C 0.72651 0.97474 0.29883 0.0
C73 C 0.71649 0.99187 0.29599 0.0
C74 C 0.72131 1.00471 0.25693 0.0
C75 C 0.73452 0.99975 0.21921 0.0
H76 H 0.77992 0.96692 1.00258 0.0
H77 H 0.80924 0.97267 0.95775 0.0
H78 H 0.83357 0.99724 0.09324 0.0
H79 H 0.8037 0.99142 0.13924 0.0
H80 H 0.74148 0.94695 1.00149 0.0
H81 H 0.71551 0.93139 0.95757 0.0
H82 H 0.69249 0.91307 0.102 0.0
H83 H 0.71807 0.92949 0.14603 0.0
H84 H 0.74571 0.95577 0.26188 0.0
H85 H 0.72359 0.96468 0.32892 0.0
H86 H 0.71387 0.01799 0.25319 0.0
H87 H 0.73666 0.00915 0.18716 0.0
N88 N 0.76665 0.98009 0.14858 0.0
N89 N 0.76061 0.95916 0.08061 0.0
N90 N 0.73987 0.96009 0.1496 0.0
C91 C 0.77185 0.97255 0.10258 0.0
C92 C 0.74472 0.95281 0.10384 0.0
C93 C 0.75057 0.97368 0.17215 0.0
C94 C 0.78943 0.97841 0.07506 0.0
C95 C 0.79141 0.97358 0.02331 0.0
C96 C 0.80832 0.97681 0.99738 0.0
C97 C 0.82393 0.98502 0.0221 0.0
C98 C 0.82181 0.99079 0.07318 0.0
C99 C 0.80471 0.98748 0.09949 0.0
C100 C 0.73157 0.93982 0.07725 0.0
C101 C 0.73112 0.93923 0.02384 0.0
C102 C 0.71624 0.93015 0.99858 0.0
C103 C 0.70164 0.92124 0.02624 0.0
C104 C 0.70319 0.92024 0.07954 0.0
C105 C 0.71789 0.9296 0.1048 0.0
C106 C 0.74314 0.98189 0.21984 0.0
C107 C 0.7395 0.96975 0.26096 0.0
C108 C 0.58369 0.71307 0.02068 0.0
C109 C 0.58732 0.72109 0.97267 0.0
C110 C 0.58672 0.74087 0.96752 0.0
C111 C 0.58062 0.75217 0.00786 0.0
H112 H 0.52613 0.7849 0.02085 0.0
H113 H 0.51987 0.81408 0.97495 0.0
H114 H 0.53884 0.84656 0.10464 0.0
H115 H 0.54491 0.81695 0.15119 0.0
H116 H 0.51255 0.74879 0.20806 0.0
H117 H 0.50477 0.7251 0.27342 0.0
H118 H 0.56431 0.71742 0.30284 0.0
H119 H 0.57192 0.7408 0.23779 0.0
H120 H 0.57376 0.71757 0.09654 0.0
H121 H 0.58392 0.69787 0.02598 0.0
H122 H 0.58983 0.7475 0.9313 0.0
H123 H 0.57917 0.76724 1.00159 0.0
N124 N 0.55645 0.77168 0.07823 0.0
N125 N 0.53995 0.77346 0.15596 0.0
N126 N 0.56001 0.7477 0.13824 0.0
C127 C 0.54448 0.78107 0.1096 0.0
C128 C 0.54797 0.75669 0.17043 0.0
C129 C 0.56434 0.75508 0.09213 0.0
C130 C 0.53593 0.79865 0.08965 0.0
C131 C 0.52842 0.79827 0.04019 0.0
C132 C 0.52507 0.81501 0.01365 0.0
C133 C 0.52929 0.83268 0.03558 0.0
C134 C 0.53547 0.83318 0.08661 0.0
C135 C 0.53881 0.81626 0.11344 0.0
C136 C 0.54283 0.74676 0.21821 0.0
C137 C 0.52388 0.74251 0.22989 0.0
C138 C 0.51947 0.72875 0.26679 0.0
C139 C 0.53393 0.71923 0.29321 0.0
C140 C 0.5528 0.72453 0.28373 0.0
C141 C 0.55718 0.73797 0.24645 0.0
C142 C 0.57511 0.74393 0.0543 0.0
C143 C 0.57771 0.72439 0.06117 0.0
C144 C 0.22626 0.50165 0.95552 0.0
C145 C 0.21652 0.48688 0.93045 0.0
C146 C 0.22113 0.46809 0.94262 0.0
C147 C 0.23414 0.46417 0.98118 0.0
H148 H 0.29944 0.5069 0.10468 0.0
H149 H 0.33015 0.5134 0.14539 0.0
H150 H 0.33358 0.4548 0.19084 0.0
H151 H 0.30321 0.44851 0.15067 0.0
H152 H 0.25828 0.45905 0.24029 0.0
H153 H 0.23661 0.45445 0.31075 0.0
H154 H 0.19079 0.4448 0.20492 0.0
H155 H 0.21241 0.45008 0.13405 0.0
H156 H 0.24605 0.50927 0.01443 0.0
H157 H 0.22309 0.51627 0.94685 0.0
H158 H 0.21378 0.45638 0.92462 0.0
H159 H 0.23641 0.44957 0.99211 0.0
N160 N 0.27116 0.47864 0.06583 0.0
N161 N 0.2679 0.46563 0.14786 0.0
N162 N 0.24186 0.46629 0.09346 0.0
C163 C 0.27892 0.4738 0.11163 0.0
C164 C 0.24935 0.46197 0.13937 0.0
C165 C 0.25255 0.47452 0.05659 0.0
C166 C 0.29906 0.47718 0.12424 0.0
C167 C 0.30714 0.49536 0.12195 0.0
C168 C 0.32458 0.4991 0.14581 0.0
C169 C 0.33433 0.48463 0.17165 0.0
C170 C 0.32666 0.46624 0.17092 0.0
C171 C 0.30922 0.46262 0.1479 0.0
C172 C 0.23702 0.45537 0.18143 0.0
C173 C 0.24367 0.45559 0.23184 0.0
C174 C 0.23123 0.45279 0.27244 0.0
C175 C 0.21187 0.44953 0.26358 0.0
C176 C 0.20554 0.44772 0.21308 0.0
C177 C 0.21796 0.45069 0.17243 0.0
C178 C 0.24319 0.47888 0.00778 0.0
C179 C 0.23958 0.49767 0.99367 0.0
C180 C 0.01759 0.2301 0.95215 0.0
C181 C 0.03262 0.21981 0.93027 0.0
C182 C 0.0512 0.22462 0.94455 0.0
C183 C 0.05463 0.23809 0.98245 0.0
H184 H 0.03931 0.31752 0.07521 0.0
H185 H 0.03231 0.34702 0.12137 0.0
H186 H 0.01101 0.31429 0.24792 0.0
H187 H 0.01826 0.2852 0.20242 0.0
H188 H 0.07154 0.26871 0.22829 0.0
H189 H 0.08383 0.24935 0.29721 0.0
H190 H 0.08298 0.20046 0.1982 0.0
H191 H 0.07134 0.21983 0.12913 0.0
H192 H 0.0092 0.25052 0.00879 0.0
H193 H 1.00309 0.22679 0.94215 0.0
H194 H 0.06318 0.21746 0.92766 0.0
H195 H 0.0691 0.24058 0.99442 0.0
N196 N 0.03477 0.27391 0.06937 0.0
N197 N 0.05028 0.27268 0.14863 0.0
N198 N 0.05544 0.24888 0.08883 0.0
C199 C 0.03841 0.28164 0.11621 0.0
C200 C 0.05891 0.25637 0.13532 0.0
C201 C 0.04352 0.25741 0.05558 0.0
C202 C 0.02924 0.29909 0.13516 0.0
C203 C 0.03249 0.31675 0.11208 0.0
C204 C 0.02861 0.33361 0.13874 0.0
C205 C 0.0215 0.33303 0.18892 0.0
C206 C 0.01691 0.31531 0.20996 0.0
C207 C 0.02082 0.29861 0.1836 0.0
C208 C 0.07 0.24573 0.17349 0.0
C209 C 0.0744 0.25392 0.22087 0.0
C210 C 0.08144 0.24282 0.26045 0.0
C211 C 0.08407 0.22327 0.25364 0.0
C212 C 0.08128 0.21548 0.2049 0.0
C213 C 0.0744 0.2266 0.16522 0.0
C214 C 0.03962 0.24739 0.00692 0.0
C215 C 0.02107 0.24379 0.99013 0.0
C216 C 0.28797 0.02082 0.94647 0.0
C217 C 0.2945 0.03389 0.90985 0.0
C218 C 0.28701 0.05229 0.91054 0.0
C219 C 0.27473 0.05796 0.94943 0.0
H220 H 0.2085 0.04145 0.07251 0.0
H221 H 0.17921 0.03643 0.12123 0.0
H222 H 0.20939 0.04866 0.26037 0.0
H223 H 0.23811 0.05406 0.21223 0.0
H224 H 0.27642 0.07647 0.21069 0.0
H225 H 0.30491 0.08831 0.25253 0.0
H226 H 0.32759 0.10542 0.10691 0.0
H227 H 0.29933 0.0933 0.06495 0.0
H228 H 0.27191 0.01656 0.01515 0.0
H229 H 0.29331 0.00648 0.94678 0.0
H230 H 0.2918 0.06281 0.88342 0.0
H231 H 0.2706 0.07268 0.95151 0.0
N232 N 0.24698 0.04719 0.06201 0.0
N233 N 0.25542 0.06616 0.13239 0.0
N234 N 0.27481 0.06558 0.06054 0.0
C235 C 0.24303 0.05399 0.10971 0.0
C236 C 0.27125 0.07211 0.10794 0.0
C237 C 0.26298 0.05317 0.03734 0.0
C238 C 0.22563 0.04843 0.13826 0.0
C239 C 0.20885 0.04286 0.11354 0.0
C240 C 0.19206 0.03999 0.14153 0.0
C241 C 0.19176 0.04254 0.1948 0.0
C242 C 0.20883 0.04716 0.21937 0.0
C243 C 0.22542 0.05013 0.19162 0.0
C244 C 0.28585 0.08351 0.1344 0.0
C245 C 0.28722 0.08327 0.18776 0.0
C246 C 0.30353 0.09014 0.21179 0.0
C247 C 0.31864 0.09744 0.18284 0.0
C248 C 0.31633 0.0995 0.13007 0.0
C249 C 0.30014 0.09255 0.10606 0.0
C250 C 0.26935 0.04531 0.9881 0.0
C251 C 0.27544 0.02646 0.98513 0.0
C252 C 0.43174 0.30468 0.232 0.0
C253 C 0.43524 0.29722 0.28069 0.0
C254 C 0.44197 0.27859 0.28459 0.0
C255 C 0.44664 0.26832 0.24101 0.0
H256 H 0.4474 0.21042 0.11851 0.0
H257 H 0.45512 0.18068 0.16001 0.0
H258 H 0.51358 0.19839 0.17081 0.0
H259 H 0.50554 0.22843 0.12952 0.0
H260 H 0.49756 0.27016 0.99927 0.0
H261 H 0.50407 0.29365 0.93222 0.0
H262 H 0.45049 0.32031 0.96389 0.0
H263 H 0.44403 0.29709 0.02934 0.0
H264 H 0.43474 0.30108 0.15153 0.0
H265 H 0.42613 0.31882 0.22759 0.0
H266 H 0.44502 0.27238 0.3213 0.0
H267 H 0.45282 0.25444 0.24572 0.0
N268 N 0.45985 0.24928 0.15094 0.0
N269 N 0.47361 0.25154 0.06943 0.0
N270 N 0.45703 0.27725 0.10473 0.0
C271 C 0.46972 0.24127 0.11237 0.0
C272 C 0.46692 0.26965 0.06537 0.0
C273 C 0.45354 0.26726 0.14767 0.0
C274 C 0.47594 0.22154 0.11982 0.0
C275 C 0.46205 0.20757 0.12771 0.0
C276 C 0.4665 0.19053 0.15185 0.0
C277 C 0.48497 0.1871 0.16944 0.0
C278 C 0.49916 0.20062 0.15843 0.0
C279 C 0.49467 0.21769 0.13389 0.0
C280 C 0.47031 0.28175 0.0198 0.0
C281 C 0.48707 0.28083 0.99101 0.0
C282 C 0.49086 0.29441 0.95299 0.0
C283 C 0.47782 0.30895 0.94252 0.0
C284 C 0.46079 0.30927 0.97014 0.0
C285 C 0.45713 0.29595 0.00813 0.0
C286 C 0.44489 0.27652 0.19253 0.0
C287 C 0.43664 0.29449 0.18836 0.0
Eu288 Eu 0.98845 0.02525 0.55758 0.0
C289 C 0.05677 0.03518 0.69162 0.0
N290 N 0.05462 0.02287 0.65223 0.0
C291 C 0.08417 0.03334 0.61675 0.0
C292 C 0.07227 0.04782 0.69358 0.0
C293 C 0.06868 0.02094 0.61696 0.0
C294 C 0.08576 0.04713 0.65462 0.0
C295 C 0.04655 0.04589 0.77498 0.0
C296 C 0.04417 0.0342 0.73194 0.0
C297 C 0.06136 0.05921 0.77586 0.0
C298 C 0.07419 0.06018 0.73521 0.0
Eu299 Eu 0.02671 1.00398 0.65353 0.0
N300 N 0.02985 0.02138 0.72966 0.0
C301 C 0.03415 0.04357 0.81618 0.0
C302 C 0.01826 0.01839 0.77046 0.0
C303 C 0.02012 0.02956 0.81419 0.0
H304 H 0.06822 0.00967 0.5893 0.0
H305 H 0.01068 0.02744 0.84616 0.0
H306 H 0.9483 1.00326 0.58878 0.0
H307 H 0.0209 0.03145 0.36862 0.0
H308 H 0.00735 0.00764 0.76868 0.0
H309 H 0.03551 0.05226 0.84998 0.0
H310 H 0.01299 0.04192 0.45554 0.0
H311 H 0.09501 0.03206 0.58784 0.0
H312 H 0.06328 0.0685 0.8083 0.0
H313 H 0.08587 0.07015 0.73705 0.0
H314 H 0.92667 0.9789 0.553 0.0
H315 H 0.09788 0.05659 0.6547 0.0
H316 H 0.00519 1.00313 0.33223 0.0
N317 N 0.96705 1.00248 0.52564 0.0
C318 C 0.97042 0.9958 0.47808 0.0
C319 C 0.939 0.98342 0.53172 0.0
C320 C 0.95865 0.98181 0.45635 0.0
C321 C 0.95121 0.99716 0.55186 0.0
C322 C 0.94291 0.97548 0.4841 0.0
N323 N 0.99507 0.01831 0.47097 0.0
C324 C 0.00688 0.02894 0.44122 0.0
C325 C 0.98852 0.99768 0.3999 0.0
C326 C 0.98514 1.00369 0.45029 0.0
C327 C 1.00214 0.00733 0.37105 0.0
C328 C 0.01105 0.0233 0.39145 0.0
H329 H 0.93349 0.96478 0.46868 0.0
H330 H 0.954 0.964 0.39028 0.0
H331 H 0.98019 0.97789 0.34081 0.0
O332 O 0.97297 0.04414 0.50718 0.0
O333 O 0.98912 0.99338 0.57397 0.0
O334 O 0.02073 0.98853 0.57983 0.0
O335 O 0.96727 0.04471 0.5877 0.0
O336 O 0.01942 0.03312 0.54237 0.0
O337 O 0.03504 0.00662 0.56988 0.0
O338 O 0.02241 0.97687 0.69166 0.0
O339 O 0.01138 0.03149 0.67167 0.0
O340 O 0.01011 0.04498 0.59349 0.0
O341 O 0.05076 0.9877 0.68128 0.0
O342 O 0.99618 0.99731 0.67635 0.0
O343 O 0.97744 0.02013 0.63763 0.0
C344 C 1.00388 0.98248 0.56698 0.0
C345 C 0.96672 0.07358 0.54447 0.0
C346 C 0.98706 0.10145 0.53589 0.0
C347 C 0.97102 0.11296 0.54297 0.0
C348 C 0.951 0.08521 0.55177 0.0
C349 C 0.9532 0.10485 0.5513 0.0
C350 C 0.98469 0.08169 0.53766 0.0
C351 C 0.03374 0.02133 0.53939 0.0
C352 C 0.96452 0.05296 0.54419 0.0
C353 C 0.96268 0.97498 0.40733 0.0
C354 C 0.97763 0.98286 0.37921 0.0
C355 C 0.01161 0.04665 0.64297 0.0
C356 C 0.04553 0.95499 0.66678 0.0
C357 C 0.03934 0.92123 0.65502 0.0
C358 C 0.05188 0.92111 0.61347 0.0
C359 C 0.05801 0.9546 0.62505 0.0
C360 C 0.03632 0.93827 0.68149 0.0
C361 C 0.06119 0.93772 0.5988 0.0
C362 C 0.98043 0.00725 0.67299 0.0
C363 C 0.04038 0.97295 0.69186 0.0
H364 H 0.97204 0.12821 0.54069 0.0
H365 H 0.93707 0.07911 0.55755 0.0
H366 H 0.941 0.11384 0.55651 0.0
H367 H 0.99675 0.07246 0.53327 0.0
H368 H 0.05458 0.90819 0.59257 0.0
H369 H 0.06503 0.96738 0.61201 0.0
H370 H 0.02623 0.93874 0.71258 0.0
H371 H 0.07075 0.93754 0.5666 0.0
Eu372 Eu 0.51443 0.0309 0.66201 0.0
C373 C 0.49975 0.94923 0.60227 0.0
N374 N 0.51039 0.96204 0.57621 0.0
C375 C 0.53518 0.93934 0.56612 0.0
C376 C 0.50668 0.93092 0.61207 0.0
C377 C 0.52778 0.95735 0.55745 0.0
C378 C 0.52463 0.92609 0.59374 0.0
C379 C 0.4704 0.9413 0.64539 0.0
C380 C 0.48187 0.95449 0.61912 0.0
C381 C 0.47747 0.92323 0.65644 0.0
C382 C 0.49553 0.91804 0.6397 0.0
Eu383 Eu 0.49676 0.99202 0.56303 0.0
N384 N 0.47526 0.97202 0.60729 0.0
C385 C 0.45187 0.94637 0.65789 0.0
C386 C 0.45656 0.97603 0.61412 0.0
C387 C 0.44478 0.96365 0.64113 0.0
H388 H 0.53593 0.96759 0.53604 0.0
H389 H 0.43012 0.96724 0.64779 0.0
H390 H 0.47909 0.04115 0.74296 0.0
H391 H 0.55705 0.07784 0.54153 0.0
H392 H 0.45041 0.98848 0.5975 0.0
H393 H 0.44263 0.93666 0.67809 0.0
H394 H 0.54806 0.04763 0.58111 0.0
H395 H 0.54902 0.93569 0.55158 0.0
H396 H 0.4689 0.91299 0.67688 0.0
H397 H 0.50064 0.90394 0.64777 0.0
H398 H 0.45988 0.06881 0.76732 0.0
H399 H 0.53044 0.91216 0.60057 0.0
H400 H 0.53927 0.10692 0.56188 0.0
N401 N 0.49601 0.05654 0.69024 0.0
C402 C 0.50037 0.07371 0.66993 0.0
C403 C 0.47114 0.07036 0.73966 0.0
C404 C 0.48994 0.08993 0.68333 0.0
C405 C 0.48188 0.05468 0.72532 0.0
C406 C 0.4751 0.08804 0.71837 0.0
N407 N 0.52503 0.05917 0.62287 0.0
C408 C 0.54007 0.06007 0.59031 0.0
C409 C 0.52016 0.09276 0.61404 0.0
C410 C 0.51539 0.07512 0.63579 0.0
C411 C 0.53523 0.09365 0.57954 0.0
C412 C 0.54528 0.07725 0.56786 0.0
H413 H 0.46676 0.10017 0.72962 0.0
H414 H 0.48673 0.12008 0.67129 0.0
H415 H 0.5131 0.12253 0.61053 0.0
O416 O 0.54039 0.02354 0.70238 0.0
O417 O 0.50067 0.04238 0.58989 0.0
O418 O 0.50568 0.01992 0.52775 0.0
O419 O 0.5212 0.04393 0.73504 0.0
O420 O 0.5381 0.01716 0.61527 0.0
O421 O 0.52563 1.00334 0.54205 0.0
O422 O 0.47411 0.99043 0.50652 0.0
O423 O 0.51541 0.98385 0.63091 0.0
O424 O 0.50317 1.00302 0.69131 0.0
O425 O 0.5005 0.97647 0.49193 0.0
O426 O 0.47472 0.01243 0.59665 0.0
O427 O 0.48621 0.0169 0.67714 0.0
C428 C 0.50212 0.03736 0.54184 0.0
C429 C 0.53406 0.02112 0.79071 0.0
C430 C 0.54444 0.9939 0.84057 0.0
C431 C 0.52972 0.99723 0.87541 0.0
C432 C 0.51957 0.02429 0.82651 0.0
C433 C 0.51746 0.01239 0.86844 0.0
C434 C 0.54654 0.00597 0.79836 0.0
C435 C 0.53995 0.00963 0.56944 0.0
C436 C 0.53523 0.03253 0.74357 0.0
C437 C 0.49463 0.10748 0.66156 0.0
C438 C 0.50968 0.10889 0.62701 0.0
C439 C 0.51113 0.98705 0.67874 0.0
C440 C 0.48673 0.99234 0.42274 0.0
C441 C 0.47861 0.01851 0.36598 0.0
C442 C 0.49297 0.0127 0.33243 0.0
C443 C 0.50072 0.98661 0.38802 0.0
C444 C 0.47559 0.00821 0.41112 0.0
C445 C 0.50384 0.9968 0.34333 0.0
C446 C 0.47201 0.01654 0.64507 0.0
C447 C 0.48484 0.98254 0.47228 0.0
H448 H 0.52756 0.988 0.90779 0.0
H449 H 0.50962 0.03575 0.82176 0.0
H450 H 0.50614 0.01481 0.89541 0.0
H451 H 0.55789 1.00359 0.77136 0.0
H452 H 0.49586 0.02049 0.29778 0.0
H453 H 0.50951 0.97445 0.39591 0.0
H454 H 0.46449 0.0125 0.43707 0.0
H455 H 0.51483 0.99242 0.31718 0.0
Eu456 Eu 0.52805 0.50097 0.56729 0.0
C457 C 0.47217 0.49714 0.7448 0.0
N458 N 0.46871 0.50301 0.6966 0.0
C459 C 0.44069 0.4838 0.69323 0.0
C460 C 0.46043 0.48355 0.7684 0.0
C461 C 0.4528 0.49726 0.67138 0.0
C462 C 0.44471 0.47666 0.74162 0.0
C463 C 0.49035 0.50045 0.82236 0.0
C464 C 0.48691 0.5055 0.7713 0.0
C465 C 0.47942 0.4861 0.84515 0.0
C466 C 0.46444 0.47772 0.81828 0.0
Eu467 Eu 0.49028 0.52495 0.66113 0.0
N468 N 0.49687 0.51965 0.74853 0.0
C469 C 0.50408 0.51056 0.84963 0.0
C470 C 0.50887 0.53072 0.7765 0.0
C471 C 0.5131 0.52603 0.8269 0.0
H472 H 0.44984 0.50271 0.6338 0.0
H473 H 0.52309 0.5345 0.84836 0.0
H474 H 0.5694 0.50549 0.63256 0.0
H475 H 0.51343 0.52432 0.37394 0.0
H476 H 0.51522 0.54324 0.76011 0.0
H477 H 0.50719 0.5071 0.88889 0.0
H478 H 0.50934 0.50472 0.45147 0.0
H479 H 0.42835 0.47887 0.67269 0.0
H480 H 0.482 0.48188 0.88415 0.0
H481 H 0.45571 0.46715 0.83692 0.0
H482 H 0.59707 0.52679 0.63367 0.0
H483 H 0.43535 0.4662 0.75842 0.0
H484 H 0.53908 0.5483 0.37016 0.0
N485 N 0.55676 0.51863 0.5682 0.0
C486 C 0.55952 0.53069 0.5286 0.0
C487 C 0.58646 0.52826 0.60431 0.0
C488 C 0.57544 0.54278 0.52674 0.0
C489 C 0.57052 0.51645 0.60412 0.0
C490 C 0.58874 0.54177 0.56603 0.0
N491 N 0.53227 0.51771 0.49044 0.0
C492 C 0.52066 0.51503 0.44956 0.0
C493 C 0.54984 0.54159 0.44511 0.0
C494 C 0.54702 0.53004 0.48815 0.0
C495 C 0.53741 0.53966 0.40393 0.0
C496 C 0.52292 0.52612 0.40588 0.0
H497 H 0.60117 0.55081 0.56604 0.0
H498 H 0.58991 0.56454 0.48323 0.0
H499 H 0.56739 0.56357 0.41183 0.0
O500 O 0.52245 0.47424 0.52848 0.0
O501 O 0.5135 0.52856 0.54626 0.0
O502 O 0.51245 0.54349 0.62277 0.0
O503 O 0.55128 0.48257 0.54376 0.0
O504 O 0.4973 0.49488 0.54596 0.0
O505 O 0.47937 0.5191 0.58133 0.0
O506 O 0.47625 0.54618 0.70829 0.0
O507 O 0.49004 0.49281 0.64816 0.0
O508 O 0.52148 0.48685 0.64246 0.0
O509 O 0.46844 0.54317 0.62946 0.0
O510 O 0.52152 0.5321 0.67456 0.0
O511 O 0.53599 0.50447 0.65087 0.0
C512 C 0.51423 0.54416 0.57316 0.0
C513 C 0.54237 0.45073 0.56033 0.0
C514 C 0.53008 0.41923 0.5795 0.0
C515 C 0.54129 0.41862 0.62344 0.0
C516 C 0.55373 0.44983 0.60424 0.0
C517 C 0.55327 0.43377 0.63526 0.0
C518 C 0.5309 0.43517 0.54774 0.0
C519 C 0.48198 0.50551 0.54756 0.0
C520 C 0.53991 0.46865 0.53228 0.0
C521 C 0.57789 0.55498 0.48501 0.0
C522 C 0.5651 0.55439 0.44428 0.0
C523 C 0.50446 0.48157 0.65604 0.0
C524 C 0.46921 0.57398 0.6619 0.0
C525 C 0.48809 0.60304 0.66777 0.0
C526 C 0.47438 0.6123 0.63807 0.0
C527 C 0.45576 0.58353 0.63262 0.0
C528 C 0.48527 0.58378 0.67955 0.0
C529 C 0.45836 0.60261 0.62084 0.0
C530 C 0.53521 0.51971 0.67962 0.0
C531 C 0.46708 0.55349 0.67022 0.0
H532 H 0.54079 0.40644 0.64842 0.0
H533 H 0.56246 0.46174 0.61565 0.0
H534 H 0.56185 0.43329 0.66931 0.0
H535 H 0.52179 0.4359 0.51462 0.0
H536 H 0.47607 0.627 0.62742 0.0
H537 H 0.44341 0.57615 0.61821 0.0
H538 H 0.49547 0.57635 0.7027 0.0
H539 H 0.448 0.60988 0.59782 0.0
Eu540 Eu 0.02109 0.52979 0.57979 0.0
C541 C 0.02799 0.45383 0.66501 0.0
N542 N 0.01233 0.45962 0.63987 0.0
C543 C 0.01427 0.43241 0.58525 0.0
C544 C 0.03825 0.43783 0.64899 0.0
C545 C 0.0045 0.44824 0.60333 0.0
C546 C 0.03153 0.42749 0.60725 0.0
C547 C 0.04762 0.45631 0.74016 0.0
C548 C 0.03247 0.46271 0.71006 0.0
C549 C 0.0589 0.44138 0.72239 0.0
C550 C 0.05419 0.43211 0.67684 0.0
Eu551 Eu 0.99849 0.48861 0.66786 0.0
N552 N 0.02114 0.47688 0.72607 0.0
C553 C 0.05052 0.4647 0.78784 0.0
C554 C 0.02313 0.48436 0.77373 0.0
C555 C 0.038 0.47856 0.80508 0.0
H556 H 0.99084 0.45153 0.58731 0.0
H557 H 0.0399 0.4849 0.84225 0.0
H558 H 0.99059 0.56551 0.57307 0.0
H559 H 0.07079 0.50497 0.43543 0.0
H560 H 0.01369 0.4954 0.78645 0.0
H561 H 0.06202 0.46022 0.81217 0.0
H562 H 0.05772 0.50862 0.52194 0.0
H563 H 0.0084 0.42395 0.55469 0.0
H564 H 0.0708 0.43641 0.74452 0.0
H565 H 0.06247 0.42006 0.66467 0.0
H566 H 0.9755 0.58555 0.50755 0.0
H567 H 0.03898 0.41512 0.59363 0.0
H568 H 0.05591 0.52155 0.36293 0.0
N569 N 0.0073 0.55038 0.51971 0.0
C570 C 0.0129 0.54865 0.47066 0.0
C571 C 0.98595 0.57517 0.4966 0.0
C572 C 0.00485 0.55982 0.43202 0.0
C573 C 0.9945 0.56384 0.53355 0.0
C574 C 0.99098 0.573 0.44547 0.0
N575 N 0.03544 0.52678 0.49866 0.0
C576 C 0.0511 0.51594 0.49065 0.0
C577 C 0.0345 0.53485 0.40968 0.0
C578 C 0.02748 0.53642 0.45974 0.0
C579 C 0.05008 0.52315 0.40084 0.0
C580 C 0.05854 0.51381 0.44165 0.0
H581 H 0.98441 0.58184 0.41693 0.0
H582 H 0.00515 0.56617 0.35131 0.0
H583 H 0.03115 0.54425 0.3317 0.0
O584 O 0.04098 0.55338 0.5734 0.0
O585 O 0.98941 0.52658 0.56507 0.0
O586 O 0.97661 0.50224 0.61518 0.0
O587 O 0.03397 0.54238 0.64773 0.0
O588 O 0.02495 0.49901 0.55729 0.0
O589 O 0.99695 0.48548 0.58142 0.0
O590 O 0.97822 0.49291 0.72885 0.0
O591 O 0.02584 0.50439 0.68497 0.0
O592 O 0.03932 0.50566 0.60747 0.0
O593 O 0.97919 0.4658 0.69197 0.0
O594 O 1.00158 0.5175 0.70433 0.0
O595 O 0.99836 0.53814 0.63723 0.0
C596 C 0.97513 0.51582 0.58058 0.0
C597 C 0.06515 0.55263 0.63486 0.0
C598 C 0.09623 0.53862 0.62091 0.0
C599 C 0.10364 0.5503 0.65953 0.0
C600 C 0.07269 0.56411 0.67333 0.0
C601 C 0.09188 0.56287 0.6857 0.0
C602 C 0.07684 0.53974 0.60961 0.0
C603 C 0.01081 0.48741 0.54836 0.0
C604 C 0.04499 0.55359 0.62185 0.0
C605 C 0.01125 0.55783 0.38166 0.0
C606 C 0.02606 0.54536 0.3705 0.0
C607 C 0.04089 0.50279 0.65634 0.0
C608 C 0.94907 0.47707 0.71763 0.0
C609 C 0.91948 0.49496 0.71792 0.0
C610 C 0.90939 0.47775 0.71471 0.0
C611 C 0.93872 0.46013 0.71458 0.0
C612 C 0.93936 0.49439 0.71784 0.0
C613 C 0.91899 0.46052 0.71247 0.0
C614 C 0.99783 0.53441 0.68631 0.0
C615 C 0.96986 0.47668 0.72284 0.0
H616 H 0.11853 0.54998 0.66902 0.0
H617 H 0.06377 0.57397 0.69373 0.0
H618 H 0.0977 0.5718 0.71537 0.0
H619 H 0.07069 0.53043 0.58141 0.0
H620 H 0.89409 0.47745 0.71566 0.0
H621 H 0.94589 0.44662 0.71434 0.0
H622 H 0.94733 0.50751 0.71854 0.0
H623 H 0.91107 0.44739 0.71046 0.0
H624 H 0.18046 0.06471 0.27476 0.0
H625 H 0.15259 0.06102 0.32874 0.0
H626 H 0.13395 0.01377 0.2376 0.0
H627 H 0.16221 0.01705 0.18364 0.0
H628 H 0.10453 0.04251 0.2667 0.0
H629 H 0.14624 0.01519 0.42975 0.0
H630 H 0.15502 0.03665 0.40136 0.0
H631 H 0.1551 0.01507 0.36525 0.0
C632 C 0.17058 0.05339 0.26623 0.0
C633 C 0.17386 0.04096 0.22517 0.0
C634 C 0.15456 0.05139 0.29708 0.0
C635 C 0.1413 0.03698 0.28766 0.0
C636 C 0.14404 0.02497 0.24565 0.0
H637 H 0.05684 0.99443 0.49921 0.0
H638 H 0.08205 0.99846 0.4364 0.0
C639 C 0.16018 0.02691 0.21473 0.0
C640 C 0.12499 0.03423 0.32287 0.0
H641 H 0.11408 0.02222 0.4455 0.0
C642 C 0.10658 0.03802 0.30574 0.0
C643 C 0.12766 0.02825 0.37373 0.0
C644 C 0.14703 0.02339 0.39375 0.0
C645 C 0.09083 0.0363 0.33845 0.0
C646 C 0.09359 0.03075 0.38965 0.0
C647 C 0.11197 0.02665 0.40641 0.0
C648 C 0.0776 0.02847 0.42623 0.0
C649 C 0.07132 0.04018 0.31789 0.0
C650 C 0.06669 0.04404 0.44173 0.0
C651 C 0.05229 0.0418 0.47813 0.0
C652 C 0.04853 0.02395 0.49963 0.0
C653 C 0.0594 0.0084 0.48364 0.0
C654 C 0.0738 0.01067 0.44759 0.0
H655 H 0.07113 0.04036 0.27562 0.0
H656 H 0.06105 0.02937 0.33155 0.0
H657 H 0.06653 0.0542 0.33172 0.0
H658 H 0.06956 0.058 0.42648 0.0
H659 H 0.04432 0.05409 0.49006 0.0
H660 H 0.47091 0.15074 0.16181 0.0
H661 H 0.4743 0.12484 0.22294 0.0
H662 H 0.51075 0.15974 0.31534 0.0
H663 H 0.50731 0.18581 0.25489 0.0
H664 H 0.52319 0.12034 0.29806 0.0
H665 H 0.44877 0.12483 0.36727 0.0
H666 H 0.45345 0.12883 0.30081 0.0
H667 H 0.46186 0.1455 0.34672 0.0
C668 C 0.47966 0.15296 0.19511 0.0
C669 C 0.48875 0.1705 0.20333 0.0
C670 C 0.48154 0.13812 0.23009 0.0
C671 C 0.49246 0.14046 0.27426 0.0
C672 C 0.50215 0.15764 0.28169 0.0
H673 H 0.48888 0.07363 0.55177 0.0
H674 H 0.4873 0.09823 0.48672 0.0
C675 C 0.50028 0.1725 0.24675 0.0
C676 C 0.49367 0.12508 0.31288 0.0
H677 H 0.46768 0.10092 0.40162 0.0
C678 C 0.51105 0.11602 0.32062 0.0
C679 C 0.47794 0.11976 0.34309 0.0
C680 C 0.45941 0.13019 0.33958 0.0
C681 C 0.51309 0.10169 0.35738 0.0
C682 C 0.49717 0.09586 0.38643 0.0
C683 C 0.47982 0.10509 0.37891 0.0
C684 C 0.49834 0.08072 0.42601 0.0
C685 C 0.53246 0.0934 0.36582 0.0
C686 C 0.50491 0.06251 0.41384 0.0
C687 C 0.50612 0.04847 0.45133 0.0
C688 C 0.50058 0.05221 0.50183 0.0
C689 C 0.49361 0.07031 0.51364 0.0
C690 C 0.49255 0.08438 0.47625 0.0
H691 H 0.54383 0.10301 0.35191 0.0
H692 H 0.53497 0.09046 0.40676 0.0
H693 H 0.5336 0.07989 0.34448 0.0
H694 H 0.50891 0.05906 0.37517 0.0
H695 H 0.51141 0.03467 0.4406 0.0
H696 H 0.36682 0.46369 0.17963 0.0
H697 H 0.39265 0.4679 0.24075 0.0
H698 H 0.36653 0.51883 0.29664 0.0
H699 H 0.34046 0.51456 0.23628 0.0
H700 H 0.41862 0.49862 0.25951 0.0
H701 H 0.37121 0.48484 0.42426 0.0
H702 H 0.3645 0.47932 0.35964 0.0
H703 H 0.36359 0.50331 0.38218 0.0
C704 C 0.36662 0.47587 0.2047 0.0
C705 C 0.35145 0.48871 0.20323 0.0
C706 C 0.38144 0.47828 0.23952 0.0
C707 C 0.38137 0.49348 0.27394 0.0
C708 C 0.36674 0.50682 0.27101 0.0
H709 H 0.44968 0.52613 0.53377 0.0
H710 H 0.42614 0.52296 0.46658 0.0
C711 C 0.35195 0.50447 0.23602 0.0
C712 C 0.39619 0.49495 0.31408 0.0
H713 H 0.40267 0.49386 0.44296 0.0
C714 C 0.41517 0.49754 0.29963 0.0
C715 C 0.39169 0.49348 0.36644 0.0
C716 C 0.37168 0.48992 0.38428 0.0
C717 C 0.42968 0.49915 0.33613 0.0
C718 C 0.42516 0.49767 0.38856 0.0
C719 C 0.40618 0.49498 0.40288 0.0
C720 C 0.43977 0.49936 0.42934 0.0
C721 C 0.44962 0.50295 0.31822 0.0
C722 C 0.45523 0.48695 0.43155 0.0
C723 C 0.46885 0.48874 0.4701 0.0
C724 C 0.46723 0.50291 0.50758 0.0
C725 C 0.45151 0.51505 0.50571 0.0
C726 C 0.43797 0.51328 0.46717 0.0
H727 H 0.44991 0.50872 0.2789 0.0
H728 H 0.45697 0.5131 0.34385 0.0
H729 H 0.45765 0.4895 0.31821 0.0
H730 H 0.45672 0.47578 0.40361 0.0
H731 H 0.48067 0.47905 0.47038 0.0
H732 H 0.03249 0.33711 0.28784 0.0
H733 H 0.02997 0.36485 0.34257 0.0
H734 H 0.00565 0.39648 0.21892 0.0
H735 H 0.00833 0.36857 0.16328 0.0
H736 H 0.03173 0.41761 0.27238 0.0
H737 H 0.9819 0.38385 0.40743 0.0
H738 H 1.00315 0.37039 0.39972 0.0
H739 H 0.98747 0.37352 0.34645 0.0
C740 C 0.02639 0.34988 0.27224 0.0
C741 C 0.02026 0.35044 0.22128 0.0
C742 C 0.02496 0.36578 0.30373 0.0
C743 C 0.01716 0.38268 0.28547 0.0
C744 C 0.01156 0.38355 0.23414 0.0
H745 H 0.98127 0.47042 0.49934 0.0
H746 H 0.98252 0.44653 0.43192 0.0
C747 C 0.0131 0.3676 0.20232 0.0
C748 C 0.01502 0.39931 0.32025 0.0
H749 H 0.99682 0.41237 0.43562 0.0
C750 C 0.02395 0.41652 0.30786 0.0
C751 C 0.00463 0.39808 0.36631 0.0
C752 C 0.99358 0.38053 0.38056 0.0
C753 C 0.02327 0.43227 0.34087 0.0
C754 C 0.0137 0.43069 0.38816 0.0
C755 C 0.00434 0.41363 0.39977 0.0
C756 C 0.01308 0.44643 0.42628 0.0
C757 C 0.03259 0.4505 0.32431 0.0
C758 C 0.02981 0.45457 0.44567 0.0
C759 C 0.02909 0.46841 0.48396 0.0
C760 C 0.01164 0.47418 0.50436 0.0
C761 C 0.99493 0.46624 0.48449 0.0
C762 C 0.99564 0.45255 0.44596 0.0
H763 H 0.03391 0.45127 0.28222 0.0
H764 H 0.02454 0.46299 0.33777 0.0
H765 H 0.04706 0.45126 0.34054 0.0
H766 H 0.04348 0.4498 0.43238 0.0
H767 H 0.04223 0.47401 0.499 0.0
H768 H 0.841 0.95846 0.96271 0.0
H769 H 0.8691 0.96197 0.90952 0.0
H770 H 0.87652 0.01916 0.96365 0.0
H771 H 0.84828 0.01565 0.01758 0.0
H772 H 0.87341 0.98651 0.83182 0.0
H773 H 0.93011 0.9986 0.9741 0.0
H774 H 0.907 0.98964 0.99126 0.0
H775 H 0.91048 0.01449 0.97978 0.0
C776 C 0.84866 0.97177 0.96363 0.0
C777 C 0.84227 0.98684 0.99413 0.0
C778 C 0.86479 0.97374 0.93325 0.0
C779 C 0.87507 0.99079 0.93256 0.0
C780 C 0.86908 1.00573 0.96409 0.0
H781 H 0.9471 0.02651 0.68229 0.0
H782 H 0.92235 0.02241 0.74588 0.0
C783 C 0.8529 1.00374 0.99486 0.0
C784 C 0.89113 0.99312 0.89608 0.0
H785 H 0.93844 1.00323 0.88715 0.0
C786 C 0.88763 0.99013 0.84405 0.0
C787 C 0.90978 0.9976 0.91188 0.0
C788 C 0.91468 1.0001 0.96733 0.0
C789 C 0.90209 0.99168 0.80749 0.0
C790 C 0.9206 0.99675 0.82304 0.0
C791 C 0.92423 0.99948 0.87514 0.0
C792 C 0.93622 0.99956 0.78548 0.0
C793 C 0.89742 0.98757 0.75253 0.0
C794 C 0.95263 0.98842 0.78716 0.0
C795 C 0.967 0.99077 0.75068 0.0
C796 C 0.96529 1.00441 0.71193 0.0
C797 C 0.94894 0.01572 0.71106 0.0
C798 C 0.93466 0.01337 0.74744 0.0
H799 H 0.88437 0.97883 0.74891 0.0
H800 H 0.89499 1.00111 0.73227 0.0
H801 H 0.90921 0.98008 0.73333 0.0
H802 H 0.9542 0.97771 0.81628 0.0
H803 H 0.97938 0.98186 0.75282 0.0
H804 H 0.5425 0.83698 0.93876 0.0
H805 H 0.54043 0.86458 0.88353 0.0
H806 H 0.51254 0.8956 1.00321 0.0
H807 H 0.51482 0.86788 0.05928 0.0
H808 H 0.50913 0.8814 0.84895 0.0
H809 H 0.55153 0.93406 0.9573 0.0
H810 H 0.55206 0.90908 0.97136 0.0
H811 H 0.53266 0.92336 0.99299 0.0
C812 C 0.53591 0.84966 0.95349 0.0
C813 C 0.52864 0.85011 1.0034 0.0
C814 C 0.53482 0.8655 0.92184 0.0
C815 C 0.52648 0.88232 0.93908 0.0
C816 C 0.51942 0.88297 0.9892 0.0
H817 H 0.49701 0.98598 0.77582 0.0
H818 H 0.50108 0.96116 0.8398 0.0
C819 C 0.52064 0.86708 0.0212 0.0
C820 C 0.5243 0.89857 0.90319 0.0
H821 H 0.53511 0.94535 0.88473 0.0
C822 C 0.51492 0.89535 0.8568 0.0
C823 C 0.53178 0.91685 0.91323 0.0
C824 C 0.54273 0.92108 0.96118 0.0
C825 C 0.51278 0.90977 0.8205 0.0
C826 C 0.52034 0.92798 0.83035 0.0
C827 C 0.52946 0.93136 0.87699 0.0
C828 C 0.51883 0.94359 0.79245 0.0
C829 C 0.50216 0.90549 0.77205 0.0
C830 C 0.52786 0.94225 0.74492 0.0
C831 C 0.52576 0.95655 0.70847 0.0
C832 C 0.51432 0.97235 0.71834 0.0
C833 C 0.50574 0.97391 0.76657 0.0
C834 C 0.50805 0.95972 0.80328 0.0
H835 H 0.49361 0.8923 0.7751 0.0
H836 H 0.49263 0.91735 0.76203 0.0
H837 H 0.51246 0.90366 0.74056 0.0
H838 H 0.53661 0.93015 0.73605 0.0
H839 H 0.53313 0.95524 0.67258 0.0
H840 H 0.65187 0.52146 0.06554 0.0
H841 H 0.62463 0.51923 0.00755 0.0
H842 H 0.65857 0.54272 0.88644 0.0
H843 H 0.68567 0.5447 0.94349 0.0
H844 H 0.60496 0.54549 0.95173 0.0
H845 H 0.63937 0.49466 0.82123 0.0
H846 H 0.64898 0.50036 0.88294 0.0
H847 H 0.65315 0.51581 0.82959 0.0
C848 C 0.65348 0.52613 0.02654 0.0
C849 C 0.67107 0.53288 0.00892 0.0
C850 C 0.63792 0.52486 0.99341 0.0
C851 C 0.63964 0.53038 0.94216 0.0
C852 C 0.65699 0.5378 0.92524 0.0
H853 H 0.54917 0.55252 0.72206 0.0
H854 H 0.57372 0.55547 0.78776 0.0
C855 C 0.67251 0.53892 0.95801 0.0
C856 C 0.62348 0.52835 0.90598 0.0
H857 H 0.61141 0.50944 0.79065 0.0
C858 C 0.60631 0.5375 0.91666 0.0
C859 C 0.62508 0.5177 0.86046 0.0
C860 C 0.64257 0.50641 0.84807 0.0
C861 C 0.59092 0.53664 0.88262 0.0
C862 C 0.59286 0.52669 0.83603 0.0
C863 C 0.60991 0.51727 0.82595 0.0
C864 C 0.57731 0.52526 0.7977 0.0
C865 C 0.57262 0.54607 0.89742 0.0
C866 C 0.57137 0.50738 0.78038 0.0
C867 C 0.55765 0.50571 0.74239 0.0
C868 C 0.54939 0.52188 0.72086 0.0
C869 C 0.55514 0.53981 0.73837 0.0
C870 C 0.56908 0.54149 0.77618 0.0
H871 H 0.57162 0.54816 0.93925 0.0
H872 H 0.57194 0.56021 0.87918 0.0
H873 H 0.56021 0.53763 0.88466 0.0
H874 H 0.57746 0.49463 0.79615 0.0
H875 H 0.55347 0.49168 0.7299 0.0
H876 H 0.99947 0.68634 0.96139 0.0
H877 H 1.00105 0.66067 0.89922 0.0
H878 H 0.97752 0.62205 0.00962 0.0
H879 H 0.97562 0.6478 0.07191 0.0
H880 H 0.01923 0.62775 0.89603 0.0
H881 H 0.94216 0.61306 0.89264 0.0
H882 H 0.95205 0.63357 0.92395 0.0
H883 H 0.95221 0.61087 0.95497 0.0
C884 C 0.99484 0.67234 0.9728 0.0
C885 C 0.98739 0.66921 0.02184 0.0
C886 C 0.99564 0.65766 0.93696 0.0
C887 C 0.98902 0.63942 0.94908 0.0
C888 C 0.98219 0.63607 0.9986 0.0
H889 H 0.98911 0.53172 0.7876 0.0
H890 H 0.98662 0.55736 0.84997 0.0
C891 C 0.98123 0.65081 0.03438 0.0
C892 C 0.98941 0.62402 0.90992 0.0
H893 H 0.96176 0.59126 0.84837 0.0
C894 C 0.00662 0.61987 0.8855 0.0
C895 C 0.97296 0.6137 0.89571 0.0
C896 C 0.95377 0.61812 0.91778 0.0
C897 C 0.00789 0.60558 0.84826 0.0
C898 C 0.99152 0.59515 0.83465 0.0
C899 C 0.97432 0.59924 0.85891 0.0
C900 C 0.9921 0.57975 0.79585 0.0
C901 C 0.02684 0.60146 0.82429 0.0
C902 C 0.99559 0.5838 0.74433 0.0
C903 C 0.99685 0.56916 0.70835 0.0
C904 C 0.99478 0.55013 0.72324 0.0
C905 C 0.99086 0.54618 0.77473 0.0
C906 C 0.98942 0.56083 0.81052 0.0
H907 H 0.03866 0.60832 0.8453 0.0
H908 H 0.02935 0.58597 0.8228 0.0
H909 H 0.02696 0.60685 0.78464 0.0
H910 H 0.99751 0.59831 0.73201 0.0
H911 H 0.99996 0.57275 0.66916 0.0
H912 H 0.1055 0.19092 0.26122 0.0
H913 H 0.10128 0.16581 0.32454 0.0
H914 H 0.0634 0.20153 0.40952 0.0
H915 H 0.06718 0.2264 0.34664 0.0
H916 H 0.08638 0.17439 0.47077 0.0
H917 H 0.04669 0.14323 0.30701 0.0
H918 H 0.07131 0.14877 0.29809 0.0
H919 H 0.05458 0.16752 0.30673 0.0
C920 C 0.09668 0.19361 0.29413 0.0
C921 C 0.08636 0.21053 0.29819 0.0
C922 C 0.0944 0.1793 0.33042 0.0
C923 C 0.0818 0.18177 0.37114 0.0
C924 C 0.07323 0.19939 0.37838 0.0
H925 H 1.00206 0.13556 0.56777 0.0
H926 H 0.02976 0.15169 0.53384 0.0
C927 C 0.07545 0.21365 0.34223 0.0
C928 C 0.07427 0.16535 0.39957 0.0
H929 H 0.04135 0.13034 0.38675 0.0
C930 C 0.07687 0.1644 0.45244 0.0
C931 C 0.06191 0.15236 0.37542 0.0
C932 C 0.05829 0.15295 0.31877 0.0
C933 C 0.06672 0.15128 0.48217 0.0
C934 C 0.05327 0.13929 0.45839 0.0
C935 C 0.05165 0.13949 0.40514 0.0
C936 C 0.03898 0.12814 0.48725 0.0
C937 C 0.0703 0.1507 0.5387 0.0
C938 C 0.0348 0.10947 0.47267 0.0
C939 C 0.01837 0.10054 0.48994 0.0
C940 C 0.00586 0.10994 0.52318 0.0
C941 C 0.01095 0.12805 0.54103 0.0
C942 C 0.02716 0.13716 0.52266 0.0
H943 H 0.08532 0.15413 0.54725 0.0
H944 H 0.06146 0.16155 0.55774 0.0
H945 H 0.06684 0.13662 0.55508 0.0
H946 H 0.04365 0.10221 0.44528 0.0
H947 H 0.01504 0.0867 0.47463 0.0
H948 H 0.35187 0.08498 0.14429 0.0
H949 H 0.38218 0.08309 0.18703 0.0
H950 H 0.35922 0.11271 0.31668 0.0
H951 H 0.32832 0.11418 0.27412 0.0
H952 H 0.4081 0.10658 0.22698 0.0
H953 H 0.37439 0.06361 0.38065 0.0
H954 H 0.36165 0.07029 0.32422 0.0
H955 H 0.36617 0.08744 0.37339 0.0
C956 C 0.35332 0.09156 0.18135 0.0
C957 C 0.33766 0.09966 0.20595 0.0
C958 C 0.3707 0.09043 0.20587 0.0
C959 C 0.37291 0.09742 0.25549 0.0
C960 C 0.35771 0.10678 0.27889 0.0
H961 H 0.46489 0.04616 0.42985 0.0
H962 H 0.44234 0.0711 0.40902 0.0
C963 C 0.34011 0.1077 0.25451 0.0
C964 C 0.39057 0.0929 0.28328 0.0
H965 H 0.40717 0.06345 0.37562 0.0
C966 C 0.40795 0.0975 0.26024 0.0
C967 C 0.39038 0.08112 0.32687 0.0
C968 C 0.3722 0.07517 0.3527 0.0
C969 C 0.42491 0.08938 0.27688 0.0
C970 C 0.42447 0.07648 0.31793 0.0
C971 C 0.40743 0.07334 0.34408 0.0
C972 C 0.44052 0.06377 0.32919 0.0
C973 C 0.44292 0.09386 0.24845 0.0
C974 C 0.44705 0.05144 0.29123 0.0
C975 C 0.45991 0.03721 0.30293 0.0
C976 C 0.46635 0.03483 0.35307 0.0
C977 C 0.46014 0.04751 0.39089 0.0
C978 C 0.44735 0.06186 0.37902 0.0
H979 H 0.44238 0.10822 0.23138 0.0
H980 H 0.45549 0.0929 0.27362 0.0
H981 H 0.44465 0.08362 0.21678 0.0
H982 H 0.44146 0.05215 0.25294 0.0
H983 H 0.46405 0.02749 0.2731 0.0
H984 H 0.44612 0.33422 0.28651 0.0
H985 H 0.45299 0.3523 0.36276 0.0
H986 H 0.43196 0.30659 0.45584 0.0
H987 H 0.42455 0.28828 0.37895 0.0
H988 H 0.43357 0.36414 0.45392 0.0
H989 H 0.48949 0.31005 0.48726 0.0
H990 H 0.4769 0.31119 0.4277 0.0
H991 H 0.4652 0.30244 0.48363 0.0
C992 C 0.44218 0.32819 0.32288 0.0
C993 C 0.435 0.30963 0.32645 0.0
C994 C 0.44623 0.33857 0.36663 0.0
C995 C 0.44328 0.33064 0.41485 0.0
C996 C 0.43458 0.31282 0.41885 0.0
H997 H 0.50189 0.40456 0.63884 0.0
H998 H 0.47814 0.38064 0.61409 0.0
C999 C 0.43044 0.30238 0.3749 0.0
C1000 C 0.45202 0.3401 0.45925 0.0
H1001 H 0.49323 0.33942 0.5267 0.0
C1002 C 0.44623 0.35853 0.47145 0.0
C1003 C 0.46861 0.33271 0.48169 0.0
C1004 C 0.47557 0.31305 0.46952 0.0
C1005 C 0.4575 0.37033 0.50204 0.0
C1006 C 0.47489 0.36345 0.52062 0.0
C1007 C 0.47982 0.34453 0.51231 0.0
C1008 C 0.48972 0.37656 0.53864 0.0
C1009 C 0.45171 0.39061 0.51043 0.0
C1010 C 0.50413 0.38181 0.50468 0.0
C1011 C 0.51757 0.39531 0.51866 0.0
C1012 C 0.51692 0.40365 0.56704 0.0
C1013 C 0.50282 0.39801 0.60171 0.0
C1014 C 0.48922 0.38453 0.58752 0.0
H1015 H 0.43745 0.39361 0.49473 0.0
H1016 H 0.45167 0.39385 0.55177 0.0
H1017 H 0.46214 0.40023 0.49203 0.0
H1018 H 0.50466 0.3758 0.46673 0.0
H1019 H 0.52832 0.39948 0.49139 0.0
H1020 H 0.17737 0.46664 0.26369 0.0
H1021 H 0.1575 0.4737 0.33683 0.0
H1022 H 0.19555 0.44314 0.4345 0.0
H1023 H 0.2155 0.43554 0.36091 0.0
H1024 H 0.13964 0.45088 0.41771 0.0
H1025 H 0.19698 0.49951 0.48424 0.0
H1026 H 0.1966 0.49014 0.42035 0.0
H1027 H 0.20283 0.47513 0.47265 0.0
C1028 C 0.18126 0.46081 0.30028 0.0
C1029 C 0.19816 0.45064 0.30641 0.0
C1030 C 0.1699 0.46497 0.34216 0.0
C1031 C 0.17523 0.45915 0.39099 0.0
C1032 C 0.19137 0.44794 0.39705 0.0
H1033 H 0.12662 0.51797 0.65513 0.0
H1034 H 0.14561 0.49531 0.6071 0.0
C1035 C 0.20276 0.44368 0.35503 0.0
C1036 C 0.16489 0.46673 0.43536 0.0
H1037 H 0.16761 0.50175 0.52458 0.0
C1038 C 0.14582 0.46174 0.44184 0.0
C1039 C 0.17306 0.48082 0.46682 0.0
C1040 C 0.19346 0.48687 0.46083 0.0
C1041 C 0.13443 0.47111 0.47752 0.0
C1042 C 0.14227 0.48613 0.50638 0.0
C1043 C 0.16164 0.49028 0.5022 0.0
C1044 C 0.1303 0.49908 0.53661 0.0
C1045 C 0.114 0.46513 0.48307 0.0
C1046 C 0.11576 0.50908 0.51259 0.0
C1047 C 0.10495 0.52204 0.5398 0.0
C1048 C 0.10846 0.52538 0.59177 0.0
C1049 C 0.12345 0.51574 0.61536 0.0
C1050 C 0.13424 0.50267 0.58806 0.0
H1051 H 0.11207 0.44995 0.47317 0.0
H1052 H 0.10877 0.46749 0.52243 0.0
H1053 H 0.10519 0.47352 0.45656 0.0
H1054 H 0.11297 0.50712 0.47239 0.0
H1055 H 0.09401 0.52966 0.51972 0.0
H1056 H 0.95817 0.77446 0.8539 0.0
H1057 H 0.97091 0.79124 0.78069 0.0
H1058 H 0.94507 0.84282 0.83327 0.0
H1059 H 0.9309 0.82584 0.90454 0.0
H1060 H 0.94895 0.84241 0.72978 0.0
H1061 H 0.01637 0.82202 0.82407 0.0
H1062 H 1.00219 0.80272 0.80096 0.0
H1063 H 0.99364 0.81722 0.8523 0.0
C1064 C 0.95437 0.78915 0.84889 0.0
C1065 C 0.944 0.79895 0.88634 0.0
C1066 C 0.96193 0.79879 0.80715 0.0
C1067 C 0.95964 0.81841 0.80289 0.0
C1068 C 0.94733 0.82772 0.83641 0.0
H1069 H 0.03249 0.90888 0.75149 0.0
H1070 H 0.01322 0.88196 0.77786 0.0
C1071 C 0.93941 0.81802 0.87755 0.0
C1072 C 0.97224 0.82978 0.7697 0.0
H1073 H 0.01833 0.84378 0.75782 0.0
C1074 C 0.96416 0.84254 0.7352 0.0
C1075 C 0.99209 0.83 0.77736 0.0
C1076 C 1.00163 0.8174 0.81591 0.0
C1077 C 0.97528 0.85615 0.71002 0.0
C1078 C 0.99501 0.85665 0.71885 0.0
C1079 C 1.0032 0.84322 0.75107 0.0
C1080 C 0.00705 0.87251 0.70125 0.0
C1081 C 0.9657 0.87046 0.67637 0.0
C1082 C 0.01025 0.87589 0.64937 0.0
C1083 C 0.02115 0.89148 0.63407 0.0
C1084 C 0.02901 0.90384 0.67054 0.0
C1085 C 0.02629 0.89991 0.72244 0.0
C1086 C 0.01539 0.88445 0.73758 0.0
H1087 H 0.95014 0.87067 0.68232 0.0
H1088 H 0.9714 0.88492 0.68322 0.0
H1089 H 0.96842 0.86672 0.63607 0.0
H1090 H 0.00422 0.86659 0.62086 0.0
H1091 H 0.02299 0.89414 0.59378 0.0
H1092 H 0.66574 0.92588 0.06206 0.0
H1093 H 0.63662 0.92434 0.01419 0.0
H1094 H 0.66702 0.90418 0.88263 0.0
H1095 H 0.69659 0.90534 0.93107 0.0
H1096 H 0.64898 0.93644 0.86402 0.0
H1097 H 0.59803 0.8885 0.95621 0.0
H1098 H 0.60918 0.90284 1.00385 0.0
H1099 H 0.62324 0.88666 0.96667 0.0
C1100 C 0.66628 0.92023 0.02377 0.0
C1101 C 0.68365 0.91587 1.00043 0.0
C1102 C 0.64946 0.9193 0.9963 0.0
C1103 C 0.64954 0.91394 0.9449 0.0
C1104 C 0.66661 0.90824 0.92238 0.0
H1105 H 0.55885 0.96926 0.76978 0.0
H1106 H 0.58227 0.94433 0.78368 0.0
C1107 C 0.68352 0.90908 0.95001 0.0
C1108 C 0.63273 0.91825 0.91339 0.0
H1109 H 0.58456 0.918 0.92077 0.0
C1110 C 0.63488 0.93189 0.87497 0.0
C1111 C 0.61434 0.91222 0.92741 0.0
C1112 C 0.61112 0.89658 0.96546 0.0
C1113 C 0.61919 0.94131 0.85478 0.0
C1114 C 0.60091 0.93671 0.87305 0.0
C1115 C 0.59862 0.92166 0.90736 0.0
C1116 C 0.5848 0.94956 0.86453 0.0
C1117 C 0.62243 0.95735 0.81782 0.0
C1118 C 0.57811 0.96031 0.90559 0.0
C1119 C 0.56474 0.97442 0.89788 0.0
C1120 C 0.5578 0.97809 0.84883 0.0
C1121 C 0.56409 0.96688 0.80791 0.0
C1122 C 0.5774 0.95261 0.81577 0.0
H1123 H 0.63771 0.96025 0.81129 0.0
H1124 H 0.61586 0.95377 0.78069 0.0
H1125 H 0.6157 0.97049 0.83214 0.0
H1126 H 0.58378 0.95824 0.94347 0.0
H1127 H 0.56035 0.9829 0.93011 0.0
H1128 H 0.60599 0.68724 0.96055 0.0
H1129 H 0.60067 0.66399 0.89267 0.0
H1130 H 0.56429 0.70353 0.81572 0.0
H1131 H 0.56964 0.72661 0.88226 0.0
H1132 H 0.5673 0.64927 0.87886 0.0
H1133 H 0.58828 0.67987 0.69521 0.0
H1134 H 0.59676 0.68943 0.7548 0.0
H1135 H 0.57441 0.69696 0.7287 0.0
C1136 C 0.59735 0.69114 0.92826 0.0
C1137 C 0.58821 0.70876 0.92692 0.0
C1138 C 0.59438 0.67788 0.88942 0.0
C1139 C 0.58225 0.68205 0.84866 0.0
C1140 C 0.57419 0.70011 0.8457 0.0
H1141 H 0.4908 0.64048 0.69566 0.0
H1142 H 0.51794 0.65699 0.73159 0.0
C1143 C 0.57723 0.71335 0.88416 0.0
C1144 C 0.57496 0.66683 0.81493 0.0
H1145 H 0.55951 0.65954 0.6934 0.0
C1146 C 0.56619 0.65114 0.83801 0.0
C1147 C 0.57354 0.66917 0.76157 0.0
C1148 C 0.58397 0.68469 0.73375 0.0
C1149 C 0.55453 0.63887 0.81006 0.0
C1150 C 0.55162 0.6424 0.75778 0.0
C1151 C 0.56161 0.65707 0.73374 0.0
C1152 C 0.53634 0.63268 0.72972 0.0
C1153 C 0.5442 0.6231 0.83728 0.0
C1154 C 0.53787 0.6136 0.71606 0.0
C1155 C 0.52238 0.60407 0.69499 0.0
C1156 C 0.50505 0.61344 0.68716 0.0
C1157 C 0.50389 0.63277 0.69985 0.0
C1158 C 0.5194 0.64228 0.72067 0.0
H1159 H 0.54722 0.62294 0.87876 0.0
H1160 H 0.5287 0.62456 0.83176 0.0
H1161 H 0.54845 0.60927 0.82093 0.0
H1162 H 0.55088 0.60598 0.72286 0.0
H1163 H 0.52401 0.58928 0.68569 0.0
H1164 H 0.78962 0.58011 0.88886 0.0
H1165 H 0.81371 0.57376 0.82527 0.0
H1166 H 0.85201 0.61213 0.90112 0.0
H1167 H 0.82777 0.61878 0.96535 0.0
H1168 H 0.84192 0.5927 0.75856 0.0
H1169 H 0.87102 0.55734 0.93108 0.0
H1170 H 0.84737 0.56669 0.92954 0.0
H1171 H 0.86731 0.58243 0.93481 0.0
C1172 C 0.80279 0.58796 0.89093 0.0
C1173 C 0.80692 0.59964 0.93296 0.0
C1174 C 0.81659 0.58427 0.85435 0.0
C1175 C 0.83471 0.59218 0.85918 0.0
C1176 C 0.83812 0.60573 0.89721 0.0
H1177 H 0.93146 0.52567 0.77383 0.0
H1178 H 0.91381 0.55367 0.79615 0.0
C1179 C 0.82431 0.60942 0.93401 0.0
C1180 C 0.85059 0.58294 0.83249 0.0
H1181 H 0.88491 0.55026 0.85351 0.0
C1182 C 0.85164 0.5837 0.77917 0.0
C1183 C 0.86308 0.57109 0.85961 0.0
C1184 C 0.86217 0.56915 0.91686 0.0
C1185 C 0.86468 0.57255 0.75214 0.0
C1186 C 0.87655 0.56004 0.77926 0.0
C1187 C 0.87591 0.55992 0.83265 0.0
C1188 C 0.88869 0.54572 0.75414 0.0
C1189 C 0.86547 0.57418 0.69498 0.0
C1190 C 0.8808 0.5322 0.72103 0.0
C1191 C 0.89119 0.51628 0.7065 0.0
C1192 C 0.90947 0.51327 0.72601 0.0
C1193 C 0.91761 0.52741 0.75706 0.0
C1194 C 0.90743 0.5435 0.77038 0.0
H1195 H 0.86126 0.58856 0.68235 0.0
H1196 H 0.87984 0.57113 0.68011 0.0
H1197 H 0.85535 0.56392 0.67797 0.0
H1198 H 0.86625 0.53334 0.70872 0.0
H1199 H 0.88456 0.506 0.68158 0.0
H1200 H 0.0508 0.18575 0.93043 0.0
H1201 H 0.046 0.15869 0.8744 0.0
H1202 H 1.0016 0.18845 0.79636 0.0
H1203 H 0.00635 0.21585 0.85278 0.0
H1204 H 0.99168 0.15175 0.8158 0.0
H1205 H 0.06276 0.15299 0.72817 0.0
H1206 H 0.06405 0.15222 0.79629 0.0
H1207 H 0.05382 0.17247 0.76542 0.0
C1208 C 0.04019 0.18676 0.90087 0.0
C1209 C 0.02921 0.20324 0.8957 0.0
C1210 C 0.03747 0.17119 0.86872 0.0
C1211 C 0.02377 0.17161 0.8301 0.0
C1212 C 0.01241 0.18781 0.82547 0.0
H1213 H 0.02248 0.08044 0.59995 0.0
H1214 H 0.02406 0.11166 0.64094 0.0
C1215 C 0.0151 0.20347 0.85788 0.0
C1216 C 0.02109 0.15483 0.79599 0.0
H1217 H 0.04518 0.124 0.71937 0.0
C1218 C 1.00334 0.14582 0.79428 0.0
C1219 C 0.03615 0.14718 0.7669 0.0
C1220 C 0.0552 0.15684 0.76378 0.0
C1221 C 1.00048 0.129 0.76637 0.0
C1222 C 0.01589 0.12065 0.74021 0.0
C1223 C 0.0334 0.13014 0.73997 0.0
C1224 C 0.01434 0.10181 0.71448 0.0
C1225 C 0.98091 0.12039 0.76507 0.0
C1226 C 0.00857 0.08575 0.74205 0.0
C1227 C 0.00747 0.06799 0.71855 0.0
C1228 C 0.01242 0.06571 0.66707 0.0
C1229 C 0.01834 0.08174 0.63948 0.0
C1230 C 0.01934 0.09958 0.66298 0.0
H1231 H 0.96987 0.13124 0.77193 0.0
H1232 H 0.97804 0.11341 0.72798 0.0
H1233 H 0.97966 0.10962 0.7956 0.0
H1234 H 0.0051 0.08688 0.78208 0.0
H1235 H 1.00268 0.05602 0.74083 0.0
H1236 H 0.32696 0.01466 0.93251 0.0
H1237 H 0.35509 0.01075 0.87945 0.0
H1238 H 0.32703 0.03891 0.75546 0.0
H1239 H 0.29887 0.0431 0.80866 0.0
H1240 H 0.36247 0.99341 0.78968 0.0
H1241 H 0.37427 0.07075 0.76855 0.0
H1242 H 0.35726 0.06105 0.81271 0.0
H1243 H 0.35165 0.06272 0.74612 0.0
C1244 C 0.3266 0.01974 0.89366 0.0
C1245 C 0.31061 0.02929 0.87503 0.0
C1246 C 0.34279 0.01759 0.86338 0.0
C1247 C 0.34343 0.02492 0.81371 0.0
C1248 C 0.32716 0.03363 0.7941 0.0
H1249 H 0.4392 0.02716 0.59641 0.0
H1250 H 0.40713 0.02875 0.63304 0.0
C1251 C 0.31099 0.03591 0.8245 0.0
C1252 C 0.36128 0.02376 0.78325 0.0
H1253 H 0.3952 0.05069 0.72406 0.0
C1254 C 0.36955 0.00595 0.77522 0.0
C1255 C 0.37065 0.04011 0.76426 0.0
C1256 C 0.36313 0.05976 0.77366 0.0
C1257 C 0.38686 1.00407 0.74919 0.0
C1258 C 0.39631 0.02041 0.73092 0.0
C1259 C 0.38788 0.03817 0.7378 0.0
C1260 C 0.41558 0.01945 0.70803 0.0
C1261 C 0.395 0.98457 0.74153 0.0
C1262 C 0.43097 0.01398 0.73811 0.0
C1263 C 0.44919 0.01321 0.71751 0.0
C1264 C 0.45251 0.01787 0.66618 0.0
C1265 C 0.43709 0.02345 0.636 0.0
C1266 C 0.4188 0.02437 0.65688 0.0
H1267 H 0.38409 0.97334 0.74631 0.0
H1268 H 0.40141 0.98322 0.7031 0.0
H1269 H 0.40628 0.98216 0.77009 0.0
H1270 H 0.42891 0.01037 0.77779 0.0
H1271 H 0.46068 0.00872 0.74183 0.0
H1272 H 0.45362 0.32526 0.87391 0.0
H1273 H 0.45911 0.35326 0.82134 0.0
H1274 H 0.51679 0.35613 0.8739 0.0
H1275 H 0.51135 0.32815 0.92713 0.0
H1276 H 0.46922 0.38887 0.85765 0.0
H1277 H 0.52282 0.36314 0.71994 0.0
H1278 H 0.50874 0.34727 0.75846 0.0
H1279 H 0.5288 0.35931 0.78555 0.0
C1280 C 0.46754 0.33174 0.87412 0.0
C1281 C 0.48201 0.32443 0.90514 0.0
C1282 C 0.47067 0.34775 0.84384 0.0
C1283 C 0.48839 0.35682 0.8433 0.0
C1284 C 0.50308 0.34923 0.87287 0.0
H1285 H 0.53096 0.46148 0.70826 0.0
H1286 H 0.52694 0.43135 0.75282 0.0
C1287 C 0.49995 0.33318 0.9033 0.0
C1288 C 0.49099 0.3749 0.81457 0.0
H1289 H 0.51688 0.39617 0.72041 0.0
C1290 C 0.47952 0.3904 0.82729 0.0
C1291 C 0.50455 0.37702 0.77527 0.0
C1292 C 0.51684 0.36078 0.75856 0.0
C1293 C 0.4814 0.40795 0.80243 0.0
C1294 C 0.49484 0.41004 0.76277 0.0
C1295 C 0.50642 0.39458 0.75032 0.0
C1296 C 0.49726 0.42823 0.73442 0.0
C1297 C 0.46946 0.42431 0.82024 0.0
C1298 C 0.48205 0.43644 0.70812 0.0
C1299 C 0.48432 0.45373 0.68258 0.0
C1300 C 0.50188 0.46314 0.68253 0.0
C1301 C 0.5172 0.45466 0.70773 0.0
C1302 C 0.51492 0.43741 0.7333 0.0
H1303 H 0.46366 0.42188 0.85902 0.0
H1304 H 0.47783 0.43765 0.82057 0.0
H1305 H 0.45735 0.42615 0.79392 0.0
H1306 H 0.46841 0.4294 0.70698 0.0
H1307 H 0.47241 0.4596 0.66233 0.0
H1308 H 0.20852 0.47016 0.83846 0.0
H1309 H 0.1802 0.47418 0.78601 0.0
H1310 H 0.1591 0.51551 0.89251 0.0
H1311 H 0.18754 0.51187 0.94424 0.0
H1312 H 0.14473 0.4665 0.80877 0.0
H1313 H 0.14894 0.54271 0.76289 0.0
H1314 H 0.16853 0.53013 0.79058 0.0
H1315 H 0.14966 0.53885 0.83025 0.0
C1316 C 0.19797 0.48032 0.85025 0.0
C1317 C 0.20039 0.4908 0.89538 0.0
C1318 C 0.18175 0.4826 0.82025 0.0
C1319 C 0.16752 0.49536 0.83468 0.0
C1320 C 0.17004 0.50599 0.87948 0.0
H1321 H 0.05188 0.51804 0.74674 0.0
H1322 H 0.08287 0.51583 0.78775 0.0
C1323 C 0.18634 0.50388 0.90919 0.0
C1324 C 0.14955 0.49661 0.80491 0.0
H1325 H 0.11877 0.52777 0.75033 0.0
C1326 C 0.13923 0.47989 0.79533 0.0
C1327 C 0.14222 0.51405 0.7873 0.0
C1328 C 0.15302 0.53241 0.79281 0.0
C1329 C 0.12168 0.4802 0.77008 0.0
C1330 C 0.1142 0.49768 0.75366 0.0
C1331 C 0.12451 0.51437 0.76293 0.0
C1332 C 0.09548 0.49901 0.72799 0.0
C1333 C 0.11094 0.46189 0.76275 0.0
C1334 C 0.09228 0.49049 0.68034 0.0
C1335 C 0.07466 0.49206 0.65632 0.0
C1336 C 0.05982 0.50181 0.68013 0.0
C1337 C 0.06304 0.51032 0.72772 0.0
C1338 C 0.08074 0.5091 0.75114 0.0
H1339 H 0.11658 0.45036 0.78701 0.0
H1340 H 0.09571 0.4638 0.77161 0.0
H1341 H 0.1121 0.45738 0.72242 0.0
H1342 H 0.10349 0.48279 0.66146 0.0
H1343 H 0.07253 0.48539 0.61962 0.0
H1344 H 0.95279 0.82818 0.34353 0.0
H1345 H 0.95878 0.85656 0.39401 0.0
H1346 H 0.01824 0.85306 0.35878 0.0
H1347 H 0.0122 0.8251 0.30587 0.0
H1348 H 0.9792 0.86423 0.47629 0.0
H1349 H 0.00779 0.90651 0.31581 0.0
H1350 H 0.99652 0.88382 0.30654 0.0
H1351 H 0.02072 0.88518 0.32746 0.0
C1352 C 0.96716 0.83347 0.34608 0.0
C1353 C 0.98194 0.82442 0.31964 0.0
C1354 C 0.97059 0.8497 0.37538 0.0
C1355 C 0.9889 0.85737 0.37933 0.0
C1356 C 1.00388 0.84783 0.35525 0.0
H1357 H 0.03166 0.9607 0.52442 0.0
H1358 H 0.02834 0.93 0.48215 0.0
C1359 C 1.00044 0.8316 0.32558 0.0
C1360 C 0.99207 0.87539 0.4083 0.0
H1361 H 0.0089 0.92073 0.39726 0.0
C1362 C 0.98571 0.87656 0.45892 0.0
C1363 C 1.00046 0.89163 0.38582 0.0
C1364 C 0.0066 0.89186 0.3308 0.0
C1365 C 0.98763 0.89332 0.48765 0.0
C1366 C 0.99604 0.90954 0.4652 0.0
C1367 C 1.00256 0.90833 0.41474 0.0
C1368 C 0.99804 0.92796 0.49294 0.0
C1369 C 0.98074 0.89331 0.54196 0.0
C1370 C 0.98217 0.93715 0.51355 0.0
C1371 C 0.98411 0.95459 0.5386 0.0
C1372 C 1.00184 0.96356 0.54238 0.0
C1373 C 0.01774 0.95429 0.52204 0.0
C1374 C 0.01585 0.93674 0.49757 0.0
H1375 H 0.98082 0.8788 0.55803 0.0
H1376 H 0.98948 0.90266 0.56653 0.0
H1377 H 0.96594 0.89844 0.54302 0.0
H1378 H 0.96821 0.93092 0.50993 0.0
H1379 H 0.9717 0.96104 0.55505 0.0
H1380 H 0.6901 0.96606 0.32874 0.0
H1381 H 0.662 0.97144 0.38035 0.0
H1382 H 0.67613 0.03071 0.39141 0.0
H1383 H 0.70459 0.02543 0.33981 0.0
H1384 H 0.65737 0.98533 0.47809 0.0
H1385 H 0.62194 0.03167 0.33699 0.0
H1386 H 0.64248 0.01776 0.32132 0.0
H1387 H 0.64505 0.03938 0.35675 0.0
C1388 C 0.68752 0.98023 0.34276 0.0
C1389 C 0.69981 0.99529 0.33009 0.0
C1390 C 0.67129 0.98329 0.37211 0.0
C1391 C 0.66675 1.00151 0.3894 0.0
C1392 C 0.67911 0.01657 0.37775 0.0
H1393 H 0.57433 0.02008 0.61101 0.0
H1394 H 0.60554 0.01927 0.57025 0.0
C1395 C 0.69541 0.01352 0.34826 0.0
C1396 C 0.64892 1.00451 0.41887 0.0
H1397 H 0.6058 0.02619 0.41417 0.0
C1398 C 0.64615 0.99438 0.46432 0.0
C1399 C 0.63415 0.01614 0.40065 0.0
C1400 C 0.63589 0.02676 0.35106 0.0
C1401 C 0.62902 0.9954 0.49166 0.0
C1402 C 0.61428 0.00707 0.47349 0.0
C1403 C 0.61713 0.01736 0.42835 0.0
C1404 C 0.59537 0.00785 0.49882 0.0
C1405 C 0.6266 0.98342 0.53872 0.0
C1406 C 0.57916 1.00206 0.47211 0.0
C1407 C 0.56131 1.00257 0.49516 0.0
C1408 C 0.55914 0.009 0.54562 0.0
C1409 C 0.5754 0.01495 0.57227 0.0
C1410 C 0.59331 0.01441 0.54906 0.0
H1411 H 0.63754 0.97223 0.54132 0.0
H1412 H 0.62784 0.99256 0.57294 0.0
H1413 H 0.61241 0.9766 0.53937 0.0
H1414 H 0.58033 0.99698 0.43332 0.0
H1415 H 0.5492 0.99792 0.47314 0.0
H1416 H 0.54951 0.71077 0.38624 0.0
H1417 H 0.54541 0.6817 0.43612 0.0
H1418 H 0.5051 0.66094 0.32631 0.0
H1419 H 0.50919 0.68988 0.27607 0.0
H1420 H 0.51028 0.66371 0.47757 0.0
H1421 H 0.5479 0.61972 0.33445 0.0
H1422 H 0.55015 0.64519 0.33654 0.0
H1423 H 0.52922 0.63443 0.31061 0.0
C1424 C 0.53967 0.70008 0.37286 0.0
C1425 C 0.52972 0.70268 0.32699 0.0
C1426 C 0.53731 0.68349 0.40151 0.0
C1427 C 0.52514 0.66902 0.38464 0.0
C1428 C 0.51471 0.67182 0.33982 0.0
H1429 H 0.50151 0.5533 0.47838 0.0
H1430 H 0.50418 0.58375 0.43456 0.0
C1431 C 0.51693 0.68848 0.31139 0.0
C1432 C 0.52379 0.65079 0.41301 0.0
H1433 H 0.53417 0.60369 0.40411 0.0
C1434 C 0.51555 0.65058 0.46166 0.0
C1435 C 0.53064 0.63366 0.39219 0.0
C1436 C 0.54012 0.63314 0.34074 0.0
C1437 C 0.51357 0.63364 0.48949 0.0
C1438 C 0.52048 0.61646 0.46874 0.0
C1439 C 0.52885 0.61677 0.42017 0.0
C1440 C 0.51885 0.59797 0.49612 0.0
C1441 C 0.50341 0.63418 0.53996 0.0
C1442 C 0.52646 0.59556 0.54515 0.0
C1443 C 0.52488 0.57811 0.57026 0.0
C1444 C 0.51582 0.56267 0.54683 0.0
C1445 C 0.50856 0.56495 0.49748 0.0
C1446 C 0.51006 0.58239 0.47242 0.0
H1447 H 0.49447 0.64699 0.54376 0.0
H1448 H 0.4943 0.62147 0.54474 0.0
H1449 H 0.51394 0.63443 0.57125 0.0
H1450 H 0.53388 0.60707 0.56377 0.0
H1451 H 0.5312 0.5765 0.60742 0.0
H1452 H 0.82998 0.51438 0.28334 0.0
H1453 H 0.85803 0.50943 0.33601 0.0
H1454 H 0.83736 0.55021 0.44465 0.0
H1455 H 0.80954 0.55558 0.39129 0.0
H1456 H 0.87284 0.55727 0.42529 0.0
H1457 H 0.86677 0.48061 0.46386 0.0
H1458 H 0.8668 0.48543 0.39691 0.0
H1459 H 0.84771 0.49395 0.43609 0.0
C1460 C 0.83122 0.522 0.31899 0.0
C1461 C 0.81745 0.53532 0.33316 0.0
C1462 C 0.84729 0.51912 0.34925 0.0
C1463 C 0.84982 0.52922 0.39496 0.0
C1464 C 0.83583 0.5422 0.4097 0.0
H1465 H 0.94031 0.50282 0.61192 0.0
H1466 H 0.90974 0.50683 0.5699 0.0
C1467 C 0.81989 0.54525 0.37917 0.0
C1468 C 0.86754 0.52721 0.42564 0.0
H1469 H 0.89694 0.49487 0.48085 0.0
C1470 C 0.87798 0.5436 0.43775 0.0
C1471 C 0.87426 0.50947 0.44284 0.0
C1472 C 0.86319 0.4914 0.43474 0.0
C1473 C 0.89503 0.54274 0.46529 0.0
C1474 C 0.90228 0.5249 0.48 0.0
C1475 C 0.89161 0.50854 0.46907 0.0
C1476 C 0.92091 0.5229 0.5064 0.0
C1477 C 0.90487 0.56104 0.47909 0.0
C1478 C 0.93753 0.53044 0.48486 0.0
C1479 C 0.95501 0.52842 0.5093 0.0
C1480 C 0.95641 0.51849 0.55556 0.0
C1481 C 0.9398 0.51067 0.57665 0.0
C1482 C 0.92227 0.5129 0.55248 0.0
H1483 H 0.89479 0.57304 0.48019 0.0
H1484 H 0.91195 0.56005 0.51668 0.0
H1485 H 0.91573 0.56433 0.44984 0.0
H1486 H 0.93707 0.53769 0.44861 0.0
H1487 H 0.96749 0.53429 0.49121 0.0
loop_
_geom_bond_atom_site_label_1
_geom_bond_atom_site_label_2
_geom_bond_distance
_geom_bond_site_symmetry_2
_ccdc_geom_bond_type
C0 C1 1.384 . S
C0 H13 0.947 . S
C0 C35 1.382 . S
C1 C0 1.384 . S
C1 C2 1.378 . S
C2 C1 1.378 . S
C2 C3 1.378 . S
C2 H14 0.952 . S
C3 C2 1.378 . S
C3 H15 0.950 . S
C3 C34 1.383 . S
H4 C23 0.947 . S
H5 C24 0.946 . S
H6 C26 0.953 . S
H7 C27 0.945 . S
H8 C29 0.952 . S
H9 C30 0.949 1_556 S
H10 C32 0.950 . S
H11 C33 0.948 . S
H12 C35 0.951 . S
H13 C0 0.947 . S
H14 C2 0.952 . S
H15 C3 0.950 . S
N16 C19 1.382 . S
N16 C21 1.363 . S
N17 C19 1.371 . S
N17 C20 1.372 . S
N18 C20 1.361 . S
N18 C21 1.377 . S
C19 N16 1.382 . S
C19 N17 1.371 . S
C19 C22 1.480 . S
C20 N17 1.372 . S
C20 N18 1.361 . S
C20 C28 1.457 . S
C21 N16 1.363 . S
C21 N18 1.377 . S
C21 C34 1.479 . S
C22 C19 1.480 . S
C22 C23 1.383 . S
C22 C27 1.385 . S
C23 H4 0.947 . S
C23 C22 1.383 . S
C23 C24 1.388 . S
C24 H5 0.946 . S
C24 C23 1.388 . S
C24 C25 1.384 . S
C25 C24 1.384 . S
C25 C26 1.377 . S
C26 H6 0.953 . S
C26 C25 1.377 . S
C26 C27 1.369 . S
C27 H7 0.945 . S
C27 C22 1.385 . S
C27 C26 1.369 . S
C28 C20 1.457 . S
C28 C29 1.372 . S
C28 C33 1.364 . S
C29 H8 0.952 . S
C29 C28 1.372 . S
C29 C30 1.389 . S
C30 H9 0.949 1_554 S
C30 C29 1.389 . S
C30 C31 1.387 . S
C31 C30 1.387 . S
C31 C32 1.372 . S
C32 H10 0.950 . S
C32 C31 1.372 . S
C32 C33 1.379 . S
C33 H11 0.948 . S
C33 C28 1.364 . S
C33 C32 1.379 . S
C34 C3 1.383 . S
C34 C21 1.479 . S
C34 C35 1.398 . S
C35 C0 1.382 . S
C35 H12 0.951 . S
C35 C34 1.398 . S
C36 C37 1.384 . S
C36 H49 0.947 . S
C36 C71 1.382 . S
C37 C36 1.384 . S
C37 C38 1.378 . S
C38 C37 1.378 . S
C38 C39 1.378 . S
C38 H50 0.952 . S
C39 C38 1.378 . S
C39 H51 0.950 . S
C39 C70 1.383 . S
H40 C59 0.947 . S
H41 C60 0.946 . S
H42 C62 0.953 . S
H43 C63 0.945 . S
H44 C65 0.952 . S
H45 C66 0.949 1_556 S
H46 C68 0.950 . S
H47 C69 0.948 . S
H48 C71 0.951 . S
H49 C36 0.947 . S
H50 C38 0.952 . S
H51 C39 0.950 . S
N52 C55 1.382 . S
N52 C57 1.363 . S
N53 C55 1.371 . S
N53 C56 1.372 . S
N54 C56 1.361 . S
N54 C57 1.377 . S
C55 N52 1.382 . S
C55 N53 1.371 . S
C55 C58 1.480 . S
C56 N53 1.372 . S
C56 N54 1.361 . S
C56 C64 1.457 . S
C57 N52 1.363 . S
C57 N54 1.377 . S
C57 C70 1.479 . S
C58 C55 1.480 . S
C58 C59 1.383 . S
C58 C63 1.385 . S
C59 H40 0.947 . S
C59 C58 1.383 . S
C59 C60 1.388 . S
C60 H41 0.946 . S
C60 C59 1.388 . S
C60 C61 1.384 . S
C61 C60 1.384 . S
C61 C62 1.377 . S
C62 H42 0.953 . S
C62 C61 1.377 . S
C62 C63 1.369 . S
C63 H43 0.945 . S
C63 C58 1.385 . S
C63 C62 1.369 . S
C64 C56 1.457 . S
C64 C65 1.372 . S
C64 C69 1.364 . S
C65 H44 0.952 . S
C65 C64 1.372 . S
C65 C66 1.389 . S
C66 H45 0.949 1_554 S
C66 C65 1.389 . S
C66 C67 1.387 . S
C67 C66 1.387 . S
C67 C68 1.372 . S
C68 H46 0.950 . S
C68 C67 1.372 . S
C68 C69 1.379 . S
C69 H47 0.948 . S
C69 C64 1.364 . S
C69 C68 1.379 . S
C70 C39 1.383 . S
C70 C57 1.479 . S
C70 C71 1.398 . S
C71 C36 1.382 . S
C71 H48 0.951 . S
C71 C70 1.398 . S
C72 C73 1.384 . S
C72 H85 0.947 . S
C72 C107 1.382 . S
C73 C72 1.384 . S
C73 C74 1.378 . S
C74 C73 1.378 . S
C74 C75 1.378 . S
C74 H86 0.952 . S
C75 C74 1.378 . S
C75 H87 0.950 . S
C75 C106 1.383 . S
H76 C95 0.947 . S
H77 C96 0.946 . S
H78 C98 0.953 . S
H79 C99 0.945 . S
H80 C101 0.952 . S
H81 C102 0.949 1_556 S
H82 C104 0.950 . S
H83 C105 0.948 . S
H84 C107 0.951 . S
H85 C72 0.947 . S
H86 C74 0.952 . S
H87 C75 0.950 . S
N88 C91 1.382 . S
N88 C93 1.363 . S
N89 C91 1.371 . S
N89 C92 1.372 . S
N90 C92 1.361 . S
N90 C93 1.377 . S
C91 N88 1.382 . S
C91 N89 1.371 . S
C91 C94 1.480 . S
C92 N89 1.372 . S
C92 N90 1.361 . S
C92 C100 1.457 . S
C93 N88 1.363 . S
C93 N90 1.377 . S
C93 C106 1.479 . S
C94 C91 1.480 . S
C94 C95 1.383 . S
C94 C99 1.385 . S
C95 H76 0.947 . S
C95 C94 1.383 . S
C95 C96 1.388 . S
C96 H77 0.946 . S
C96 C95 1.388 . S
C96 C97 1.384 . S
C97 C96 1.384 . S
C97 C98 1.377 . S
C98 H78 0.953 . S
C98 C97 1.377 . S
C98 C99 1.369 . S
C99 H79 0.945 . S
C99 C94 1.385 . S
C99 C98 1.369 . S
C100 C92 1.457 . S
C100 C101 1.372 . S
C100 C105 1.364 . S
C101 H80 0.952 . S
C101 C100 1.372 . S
C101 C102 1.389 . S
C102 H81 0.949 1_554 S
C102 C101 1.389 . S
C102 C103 1.387 . S
C103 C102 1.387 . S
C103 C104 1.372 . S
C104 H82 0.950 . S
C104 C103 1.372 . S
C104 C105 1.379 . S
C105 H83 0.948 . S
C105 C100 1.364 . S
C105 C104 1.379 . S
C106 C75 1.383 . S
C106 C93 1.479 . S
C106 C107 1.398 . S
C107 C72 1.382 . S
C107 H84 0.951 . S
C107 C106 1.398 . S
C108 C109 1.384 . S
C108 H121 0.947 . S
C108 C143 1.382 . S
C109 C108 1.384 . S
C109 C110 1.378 . S
C110 C109 1.378 . S
C110 C111 1.378 . S
C110 H122 0.952 1_554 S
C111 C110 1.378 . S
C111 H123 0.950 . S
C111 C142 1.383 . S
H112 C131 0.947 . S
H113 C132 0.946 . S
H114 C134 0.953 . S
H115 C135 0.945 . S
H116 C137 0.952 . S
H117 C138 0.949 . S
H118 C140 0.950 . S
H119 C141 0.948 . S
H120 C143 0.951 . S
H121 C108 0.947 . S
H122 C110 0.952 1_556 S
H123 C111 0.950 . S
N124 C127 1.382 . S
N124 C129 1.363 . S
N125 C127 1.371 . S
N125 C128 1.372 . S
N126 C128 1.361 . S
N126 C129 1.377 . S
C127 N124 1.382 . S
C127 N125 1.371 . S
C127 C130 1.480 . S
C128 N125 1.372 . S
C128 N126 1.361 . S
C128 C136 1.457 . S
C129 N124 1.363 . S
C129 N126 1.377 . S
C129 C142 1.479 . S
C130 C127 1.480 . S
C130 C131 1.383 . S
C130 C135 1.385 . S
C131 H112 0.947 . S
C131 C130 1.383 . S
C131 C132 1.388 . S
C132 H113 0.946 . S
C132 C131 1.388 . S
C132 C133 1.384 . S
C133 C132 1.384 . S
C133 C134 1.377 . S
C134 H114 0.953 . S
C134 C133 1.377 . S
C134 C135 1.369 . S
C135 H115 0.945 . S
C135 C130 1.385 . S
C135 C134 1.369 . S
C136 C128 1.457 . S
C136 C137 1.372 . S
C136 C141 1.364 . S
C137 H116 0.952 . S
C137 C136 1.372 . S
C137 C138 1.389 . S
C138 H117 0.949 . S
C138 C137 1.389 . S
C138 C139 1.387 . S
C139 C138 1.387 . S
C139 C140 1.372 . S
C140 H118 0.950 . S
C140 C139 1.372 . S
C140 C141 1.379 . S
C141 H119 0.948 . S
C141 C136 1.364 . S
C141 C140 1.379 . S
C142 C111 1.383 . S
C142 C129 1.479 . S
C142 C143 1.398 . S
C143 C108 1.382 . S
C143 H120 0.951 . S
C143 C142 1.398 . S
C144 C145 1.384 . S
C144 H157 0.947 . S
C144 C179 1.382 . S
C145 C144 1.384 . S
C145 C146 1.378 . S
C146 C145 1.378 . S
C146 C147 1.378 . S
C146 H158 0.952 . S
C147 C146 1.378 . S
C147 H159 0.950 . S
C147 C178 1.383 . S
H148 C167 0.947 1_556 S
H149 C168 0.946 . S
H150 C170 0.953 . S
H151 C171 0.945 . S
H152 C173 0.952 . S
H153 C174 0.949 . S
H154 C176 0.950 . S
H155 C177 0.948 . S
H156 C179 0.951 . S
H157 C144 0.947 . S
H158 C146 0.952 . S
H159 C147 0.950 . S
N160 C163 1.382 1_556 S
N160 C165 1.363 . S
N161 C163 1.371 . S
N161 C164 1.372 . S
N162 C164 1.361 . S
N162 C165 1.377 1_554 S
C163 N160 1.382 1_554 S
C163 N161 1.371 . S
C163 C166 1.480 . S
C164 N161 1.372 . S
C164 N162 1.361 . S
C164 C172 1.457 . S
C165 N160 1.363 . S
C165 N162 1.377 1_556 S
C165 C178 1.479 . S
C166 C163 1.480 . S
C166 C167 1.383 . S
C166 C171 1.385 . S
C167 H148 0.947 1_554 S
C167 C166 1.383 . S
C167 C168 1.388 . S
C168 H149 0.946 . S
C168 C167 1.388 . S
C168 C169 1.384 . S
C169 C168 1.384 . S
C169 C170 1.377 . S
C170 H150 0.953 . S
C170 C169 1.377 . S
C170 C171 1.369 . S
C171 H151 0.945 . S
C171 C166 1.385 . S
C171 C170 1.369 . S
C172 C164 1.457 . S
C172 C173 1.372 . S
C172 C177 1.364 . S
C173 H152 0.952 . S
C173 C172 1.372 . S
C173 C174 1.389 . S
C174 H153 0.949 . S
C174 C173 1.389 . S
C174 C175 1.387 . S
C175 C174 1.387 . S
C175 C176 1.372 . S
C176 H154 0.950 . S
C176 C175 1.372 . S
C176 C177 1.379 . S
C177 H155 0.948 . S
C177 C172 1.364 . S
C177 C176 1.379 . S
C178 C147 1.383 . S
C178 C165 1.479 . S
C178 C179 1.398 . S
C179 C144 1.382 . S
C179 H156 0.951 . S
C179 C178 1.398 . S
C180 C181 1.384 . S
C180 H193 0.947 . S
C180 C215 1.382 . S
C181 C180 1.384 . S
C181 C182 1.378 . S
C182 C181 1.378 . S
C182 C183 1.378 . S
C182 H194 0.952 . S
C183 C182 1.378 . S
C183 H195 0.950 . S
C183 C214 1.383 . S
H184 C203 0.947 1_556 S
H185 C204 0.946 . S
H186 C206 0.953 . S
H187 C207 0.945 . S
H188 C209 0.952 . S
H189 C210 0.949 . S
H190 C212 0.950 . S
H191 C213 0.948 . S
H192 C215 0.951 . S
H193 C180 0.947 . S
H194 C182 0.952 . S
H195 C183 0.950 . S
N196 C199 1.382 1_556 S
N196 C201 1.363 . S
N197 C199 1.371 . S
N197 C200 1.372 . S
N198 C200 1.361 . S
N198 C201 1.377 1_554 S
C199 N196 1.382 1_554 S
C199 N197 1.371 . S
C199 C202 1.480 . S
C200 N197 1.372 . S
C200 N198 1.361 . S
C200 C208 1.457 . S
C201 N196 1.363 . S
C201 N198 1.377 1_556 S
C201 C214 1.479 . S
C202 C199 1.480 . S
C202 C203 1.383 . S
C202 C207 1.385 . S
C203 H184 0.947 1_554 S
C203 C202 1.383 . S
C203 C204 1.388 . S
C204 H185 0.946 . S
C204 C203 1.388 . S
C204 C205 1.384 . S
C205 C204 1.384 . S
C205 C206 1.377 . S
C206 H186 0.953 . S
C206 C205 1.377 . S
C206 C207 1.369 . S
C207 H187 0.945 . S
C207 C202 1.385 . S
C207 C206 1.369 . S
C208 C200 1.457 . S
C208 C209 1.372 . S
C208 C213 1.364 . S
C209 H188 0.952 . S
C209 C208 1.372 . S
C209 C210 1.389 . S
C210 H189 0.949 . S
C210 C209 1.389 . S
C210 C211 1.387 . S
C211 C210 1.387 . S
C211 C212 1.372 . S
C212 H190 0.950 . S
C212 C211 1.372 . S
C212 C213 1.379 . S
C213 H191 0.948 . S
C213 C208 1.364 . S
C213 C212 1.379 . S
C214 C183 1.383 . S
C214 C201 1.479 . S
C214 C215 1.398 . S
C215 C180 1.382 . S
C215 H192 0.951 . S
C215 C214 1.398 . S
C216 C217 1.384 . S
C216 H229 0.947 . S
C216 C251 1.382 . S
C217 C216 1.384 . S
C217 C218 1.378 . S
C218 C217 1.378 . S
C218 C219 1.378 . S
C218 H230 0.952 . S
C219 C218 1.378 . S
C219 H231 0.950 . S
C219 C250 1.383 . S
H220 C239 0.947 1_556 S
H221 C240 0.946 . S
H222 C242 0.953 . S
H223 C243 0.945 . S
H224 C245 0.952 . S
H225 C246 0.949 . S
H226 C248 0.950 . S
H227 C249 0.948 . S
H228 C251 0.951 . S
H229 C216 0.947 . S
H230 C218 0.952 . S
H231 C219 0.950 . S
N232 C235 1.382 1_556 S
N232 C237 1.363 . S
N233 C235 1.371 . S
N233 C236 1.372 . S
N234 C236 1.361 . S
N234 C237 1.377 1_554 S
C235 N232 1.382 1_554 S
C235 N233 1.371 . S
C235 C238 1.480 . S
C236 N233 1.372 . S
C236 N234 1.361 . S
C236 C244 1.457 . S
C237 N232 1.363 . S
C237 N234 1.377 1_556 S
C237 C250 1.479 . S
C238 C235 1.480 . S
C238 C239 1.383 . S
C238 C243 1.385 . S
C239 H220 0.947 1_554 S
C239 C238 1.383 . S
C239 C240 1.388 . S
C240 H221 0.946 . S
C240 C239 1.388 . S
C240 C241 1.384 . S
C241 C240 1.384 . S
C241 C242 1.377 . S
C242 H222 0.953 . S
C242 C241 1.377 . S
C242 C243 1.369 . S
C243 H223 0.945 . S
C243 C238 1.385 . S
C243 C242 1.369 . S
C244 C236 1.457 . S
C244 C245 1.372 . S
C244 C249 1.364 . S
C245 H224 0.952 . S
C245 C244 1.372 . S
C245 C246 1.389 . S
C246 H225 0.949 . S
C246 C245 1.389 . S
C246 C247 1.387 . S
C247 C246 1.387 . S
C247 C248 1.372 . S
C248 H226 0.950 . S
C248 C247 1.372 . S
C248 C249 1.379 . S
C249 H227 0.948 . S
C249 C244 1.364 . S
C249 C248 1.379 . S
C250 C219 1.383 . S
C250 C237 1.479 . S
C250 C251 1.398 . S
C251 C216 1.382 . S
C251 H228 0.951 . S
C251 C250 1.398 . S
C252 C253 1.384 . S
C252 H265 0.947 . S
C252 C287 1.382 . S
C253 C252 1.384 . S
C253 C254 1.378 . S
C254 C253 1.378 . S
C254 C255 1.378 . S
C254 H266 0.952 . S
C255 C254 1.378 . S
C255 H267 0.950 . S
C255 C286 1.383 . S
H256 C275 0.947 . S
H257 C276 0.946 . S
H258 C278 0.953 . S
H259 C279 0.945 1_556 S
H260 C281 0.952 . S
H261 C282 0.949 . S
H262 C284 0.950 . S
H263 C285 0.948 . S
H264 C287 0.951 . S
H265 C252 0.947 . S
H266 C254 0.952 . S
H267 C255 0.950 . S
N268 C271 1.382 . S
N268 C273 1.363 . S
N269 C271 1.371 1_556 S
N269 C272 1.372 . S
N270 C272 1.361 1_554 S
N270 C273 1.377 . S
C271 N268 1.382 . S
C271 N269 1.371 1_554 S
C271 C274 1.480 . S
C272 N269 1.372 . S
C272 N270 1.361 1_556 S
C272 C280 1.457 . S
C273 N268 1.363 . S
C273 N270 1.377 . S
C273 C286 1.479 . S
C274 C271 1.480 . S
C274 C275 1.383 . S
C274 C279 1.385 . S
C275 H256 0.947 . S
C275 C274 1.383 . S
C275 C276 1.388 . S
C276 H257 0.946 . S
C276 C275 1.388 . S
C276 C277 1.384 . S
C277 C276 1.384 . S
C277 C278 1.377 . S
C278 H258 0.953 . S
C278 C277 1.377 . S
C278 C279 1.369 . S
C279 H259 0.945 1_554 S
C279 C274 1.385 . S
C279 C278 1.369 . S
C280 C272 1.457 . S
C280 C281 1.372 . S
C280 C285 1.364 . S
C281 H260 0.952 . S
C281 C280 1.372 . S
C281 C282 1.389 . S
C282 H261 0.949 . S
C282 C281 1.389 . S
C282 C283 1.387 . S
C283 C282 1.387 . S
C283 C284 1.372 . S
C284 H262 0.950 . S
C284 C283 1.372 . S
C284 C285 1.379 . S
C285 H263 0.948 . S
C285 C280 1.364 . S
C285 C284 1.379 . S
C286 C255 1.383 . S
C286 C273 1.479 . S
C286 C287 1.398 . S
C287 C252 1.382 . S
C287 H264 0.951 . S
C287 C286 1.398 . S
Eu288 N317 2.600 . S
Eu288 N323 2.562 . S
Eu288 O332 2.463 1_655 S
Eu288 O333 2.373 1_545 S
Eu288 O335 2.432 . S
Eu288 O336 2.291 1_655 S
Eu288 O340 2.335 1_655 S
Eu288 O343 2.372 . S
Eu288 C352 2.787 . S
C289 N290 1.365 1_545 S
C289 C292 1.405 . S
C289 C296 1.448 . S
N290 C289 1.365 1_565 S
N290 C293 1.319 . S
N290 Eu299 2.600 . S
C291 C293 1.397 1_545 S
C291 C294 1.367 . S
C291 H311 0.931 . S
C292 C289 1.405 . S
C292 C294 1.403 . S
C292 C298 1.439 . S
C293 N290 1.319 . S
C293 C291 1.397 1_565 S
C293 H304 0.930 . S
C294 C291 1.367 . S
C294 C292 1.403 . S
C294 H315 0.929 . S
C295 C296 1.430 . S
C295 C297 1.387 . S
C295 C301 1.404 . S
C296 C289 1.448 . S
C296 C295 1.430 . S
C296 N300 1.351 . S
C297 C295 1.387 . S
C297 C298 1.374 . S
C297 H312 0.931 . S
C298 C292 1.439 . S
C298 C297 1.374 . S
C298 H313 0.931 . S
Eu299 N290 2.600 . S
Eu299 N300 2.562 1_565 S
Eu299 O334 2.335 . S
Eu299 O337 2.372 . S
Eu299 O338 2.462 . S
Eu299 O339 2.373 1_565 S
Eu299 O341 2.432 . S
Eu299 O342 2.276 1_465 S
Eu299 C363 2.787 . S
N300 C296 1.351 . S
N300 Eu299 2.562 1_545 S
N300 C302 1.325 . S
C301 C295 1.404 . S
C301 C303 1.366 . S
C301 H309 0.930 . S
C302 N300 1.325 . S
C302 C303 1.416 . S
C302 H308 0.926 1_445 S
C303 C301 1.366 . S
C303 C302 1.416 . S
C303 H305 0.933 1_455 S
H304 C293 0.930 . S
H305 C303 0.933 1_655 S
H306 C321 0.930 . S
H307 C328 0.880 1_455 S
H308 C302 0.926 1_665 S
H309 C301 0.930 . S
H310 C324 0.905 1_455 S
H311 C291 0.931 . S
H312 C297 0.931 . S
H313 C298 0.931 . S
H314 C319 0.931 . S
H315 C294 0.929 . S
H316 C327 0.930 . S
N317 Eu288 2.600 . S
N317 C318 1.365 . S
N317 C321 1.319 . S
C318 N317 1.365 . S
C318 C320 1.405 1_545 S
C318 C326 1.448 . S
C319 H314 0.931 . S
C319 C321 1.397 . S
C319 C322 1.367 . S
C320 C318 1.405 1_565 S
C320 C322 1.403 1_565 S
C320 C353 1.439 . S
C321 H306 0.930 . S
C321 N317 1.319 . S
C321 C319 1.397 . S
C322 C319 1.367 . S
C322 C320 1.403 1_545 S
C322 H329 0.929 1_545 S
N323 Eu288 2.562 . S
N323 C324 1.347 . S
N323 C326 1.351 . S
C324 H310 0.905 1_655 S
C324 N323 1.347 . S
C324 C328 1.407 1_545 S
C325 C326 1.430 1_565 S
C325 C327 1.404 . S
C325 C354 1.387 . S
C326 C318 1.448 . S
C326 N323 1.351 . S
C326 C325 1.430 1_545 S
C327 H316 0.930 . S
C327 C325 1.404 . S
C327 C328 1.428 . S
C328 H307 0.880 1_655 S
C328 C324 1.407 1_565 S
C328 C327 1.428 . S
H329 C322 0.929 1_565 S
H330 C353 0.931 . S
H331 C354 0.931 . S
O332 Eu288 2.463 1_455 S
O332 C352 1.256 1_455 S
O333 Eu288 2.373 1_565 S
O333 C344 1.249 . S
O334 Eu299 2.335 . S
O334 C344 1.264 1_455 S
O335 Eu288 2.432 . S
O335 C352 1.268 . S
O336 Eu288 2.291 1_455 S
O336 C351 1.255 . S
O337 Eu299 2.372 . S
O337 C351 1.257 1_565 S
O338 Eu299 2.462 . S
O338 C363 1.252 . S
O339 Eu299 2.373 1_545 S
O339 C355 1.249 . S
O340 Eu288 2.335 1_455 S
O340 C355 1.264 . S
O341 Eu299 2.432 . S
O341 C363 1.268 . S
O342 Eu299 2.276 1_645 S
O342 C362 1.269 . S
O343 Eu288 2.372 . S
O343 C362 1.257 . S
C344 O333 1.249 . S
C344 O334 1.264 1_655 S
C345 C348 1.382 . S
C345 C350 1.390 . S
C345 C352 1.506 . S
C346 C347 1.398 . S
C346 C350 1.392 . S
C347 C346 1.398 . S
C347 C349 1.372 . S
C347 H364 0.931 . S
C348 C345 1.382 . S
C348 C349 1.390 . S
C348 H365 0.931 . S
C349 C347 1.372 . S
C349 C348 1.390 . S
C349 H366 0.929 . S
C350 C345 1.390 . S
C350 C346 1.392 . S
C350 H367 0.930 1_655 S
C351 O336 1.255 . S
C351 O337 1.257 1_545 S
C352 Eu288 2.787 . S
C352 O332 1.256 1_655 S
C352 O335 1.268 . S
C352 C345 1.506 . S
C353 C320 1.439 . S
C353 H330 0.931 . S
C353 C354 1.374 . S
C354 C325 1.387 . S
C354 H331 0.931 . S
C354 C353 1.374 . S
C355 O339 1.249 . S
C355 O340 1.264 . S
C356 C359 1.382 . S
C356 C360 1.390 . S
C356 C363 1.506 . S
C357 C358 1.398 . S
C357 C360 1.392 . S
C358 C357 1.398 . S
C358 C361 1.372 . S
C358 H368 0.931 . S
C359 C356 1.382 . S
C359 C361 1.390 . S
C359 H369 0.931 . S
C360 C356 1.390 . S
C360 C357 1.392 . S
C360 H370 0.911 1_455 S
C361 C358 1.372 . S
C361 C359 1.390 . S
C361 H371 0.929 . S
C362 O342 1.269 . S
C362 O343 1.257 . S
C363 Eu299 2.787 . S
C363 O338 1.252 . S
C363 O341 1.268 . S
C363 C356 1.506 . S
H364 C347 0.931 . S
H365 C348 0.931 . S
H366 C349 0.929 . S
H367 C350 0.930 1_455 S
H368 C358 0.931 . S
H369 C359 0.931 . S
H370 C360 0.911 1_655 S
H371 C361 0.929 . S
Eu372 N401 2.600 . S
Eu372 N407 2.562 . S
Eu372 O416 2.462 . S
Eu372 O417 2.373 . S
Eu372 O419 2.432 . S
Eu372 O420 2.291 . S
Eu372 O424 2.335 1_545 S
Eu372 O427 2.372 . S
Eu372 C436 2.787 . S
C373 N374 1.365 . S
C373 C376 1.405 . S
C373 C380 1.448 . S
N374 C373 1.365 . S
N374 C377 1.319 . S
N374 Eu383 2.600 . S
C375 C377 1.397 . S
C375 C378 1.367 . S
C375 H395 0.931 . S
C376 C373 1.405 . S
C376 C378 1.403 . S
C376 C382 1.439 . S
C377 N374 1.319 . S
C377 C375 1.397 . S
C377 H388 0.930 . S
C378 C375 1.367 . S
C378 C376 1.403 . S
C378 H399 0.929 . S
C379 C380 1.430 . S
C379 C381 1.387 . S
C379 C385 1.404 . S
C380 C373 1.448 . S
C380 C379 1.430 . S
C380 N384 1.351 . S
C381 C379 1.387 . S
C381 C382 1.374 . S
C381 H396 0.931 . S
C382 C376 1.439 . S
C382 C381 1.374 . S
C382 H397 0.931 . S
Eu383 N374 2.600 . S
Eu383 N384 2.562 . S
Eu383 O418 2.335 1_565 S
Eu383 O421 2.372 . S
Eu383 O422 2.462 . S
Eu383 O423 2.373 . S
Eu383 O425 2.432 . S
Eu383 O426 2.291 1_565 S
Eu383 C447 2.787 . S
N384 C380 1.351 . S
N384 Eu383 2.562 . S
N384 C386 1.325 . S
C385 C379 1.404 . S
C385 C387 1.366 . S
C385 H393 0.930 . S
C386 N384 1.325 . S
C386 C387 1.416 . S
C386 H392 0.929 . S
C387 C385 1.366 . S
C387 C386 1.416 . S
C387 H389 0.930 . S
H388 C377 0.930 . S
H389 C387 0.930 . S
H390 C405 0.930 . S
H391 C412 0.930 . S
H392 C386 0.929 . S
H393 C385 0.930 . S
H394 C408 0.929 . S
H395 C375 0.931 . S
H396 C381 0.931 . S
H397 C382 0.931 . S
H398 C403 0.931 . S
H399 C378 0.929 . S
H400 C411 0.930 . S
N401 Eu372 2.600 . S
N401 C402 1.365 . S
N401 C405 1.319 . S
C402 N401 1.365 . S
C402 C404 1.405 . S
C402 C410 1.448 . S
C403 H398 0.931 . S
C403 C405 1.397 . S
C403 C406 1.367 . S
C404 C402 1.405 . S
C404 C406 1.403 . S
C404 C437 1.439 . S
C405 H390 0.930 . S
C405 N401 1.319 . S
C405 C403 1.397 . S
C406 C403 1.367 . S
C406 C404 1.403 . S
C406 H413 0.929 . S
N407 Eu372 2.562 . S
N407 C408 1.325 . S
N407 C410 1.351 . S
C408 H394 0.929 . S
C408 N407 1.325 . S
C408 C412 1.416 . S
C409 C410 1.430 . S
C409 C411 1.404 . S
C409 C438 1.387 . S
C410 C402 1.448 . S
C410 N407 1.351 . S
C410 C409 1.430 . S
C411 H400 0.930 . S
C411 C409 1.404 . S
C411 C412 1.366 . S
C412 H391 0.930 . S
C412 C408 1.416 . S
C412 C411 1.366 . S
H413 C406 0.929 . S
H414 C437 0.931 . S
H415 C438 0.931 . S
O416 Eu372 2.462 . S
O416 C436 1.252 . S
O417 Eu372 2.373 . S
O417 C428 1.249 . S
O418 Eu383 2.335 1_545 S
O418 C428 1.264 . S
O419 Eu372 2.432 . S
O419 C436 1.268 . S
O420 Eu372 2.291 . S
O420 C435 1.255 1_545 S
O421 Eu383 2.372 . S
O421 C435 1.257 . S
O422 Eu383 2.462 . S
O422 C447 1.252 . S
O423 Eu383 2.373 . S
O423 C439 1.249 . S
O424 Eu372 2.335 1_565 S
O424 C439 1.264 . S
O425 Eu383 2.432 . S
O425 C447 1.268 . S
O426 Eu383 2.291 1_545 S
O426 C446 1.255 . S
O427 Eu372 2.372 . S
O427 C446 1.257 . S
C428 O417 1.249 . S
C428 O418 1.264 . S
C429 C432 1.382 . S
C429 C434 1.390 . S
C429 C436 1.506 . S
C430 C431 1.398 . S
C430 C434 1.392 . S
C431 C430 1.398 . S
C431 C433 1.372 . S
C431 H448 0.931 . S
C432 C429 1.382 . S
C432 C433 1.390 . S
C432 H449 0.931 . S
C433 C431 1.372 . S
C433 C432 1.390 . S
C433 H450 0.929 . S
C434 C429 1.390 . S
C434 C430 1.392 . S
C434 H451 0.930 . S
C435 O420 1.255 1_565 S
C435 O421 1.257 . S
C436 Eu372 2.787 . S
C436 O416 1.252 . S
C436 O419 1.268 . S
C436 C429 1.506 . S
C437 C404 1.439 . S
C437 H414 0.931 . S
C437 C438 1.374 . S
C438 C409 1.387 . S
C438 H415 0.931 . S
C438 C437 1.374 . S
C439 O423 1.249 . S
C439 O424 1.264 . S
C440 C443 1.382 . S
C440 C444 1.390 1_565 S
C440 C447 1.506 . S
C441 C442 1.398 1_545 S
C441 C444 1.392 . S
C442 C441 1.398 1_565 S
C442 C445 1.372 . S
C442 H452 0.931 . S
C443 C440 1.382 . S
C443 C445 1.390 . S
C443 H453 0.931 . S
C444 C440 1.390 1_545 S
C444 C441 1.392 . S
C444 H454 0.930 . S
C445 C442 1.372 . S
C445 C443 1.390 . S
C445 H455 0.929 . S
C446 O426 1.255 . S
C446 O427 1.257 . S
C447 Eu383 2.787 . S
C447 O422 1.252 . S
C447 O425 1.268 . S
C447 C440 1.506 . S
H448 C431 0.931 . S
H449 C432 0.931 . S
H450 C433 0.929 . S
H451 C434 0.930 . S
H452 C442 0.931 . S
H453 C443 0.931 . S
H454 C444 0.930 . S
H455 C445 0.929 . S
Eu456 N485 2.600 . S
Eu456 N491 2.562 . S
Eu456 O500 2.462 . S
Eu456 O501 2.373 . S
Eu456 O503 2.432 . S
Eu456 O504 2.291 . S
Eu456 O508 2.335 . S
Eu456 O511 2.372 . S
Eu456 C520 2.787 . S
C457 N458 1.365 . S
C457 C460 1.405 . S
C457 C464 1.448 . S
N458 C457 1.365 . S
N458 C461 1.319 . S
N458 Eu467 2.600 . S
C459 C461 1.397 . S
C459 C462 1.367 . S
C459 H479 0.931 . S
C460 C457 1.405 . S
C460 C462 1.403 . S
C460 C466 1.439 . S
C461 N458 1.319 . S
C461 C459 1.397 . S
C461 H472 0.930 . S
C462 C459 1.367 . S
C462 C460 1.403 . S
C462 H483 0.929 . S
C463 C464 1.430 . S
C463 C465 1.387 . S
C463 C469 1.404 . S
C464 C457 1.448 . S
C464 C463 1.430 . S
C464 N468 1.351 . S
C465 C463 1.387 . S
C465 C466 1.374 . S
C465 H480 0.931 . S
C466 C460 1.439 . S
C466 C465 1.374 . S
C466 H481 0.931 . S
Eu467 N458 2.600 . S
Eu467 N468 2.562 . S
Eu467 O502 2.335 . S
Eu467 O505 2.372 . S
Eu467 O506 2.462 . S
Eu467 O507 2.373 . S
Eu467 O509 2.432 . S
Eu467 O510 2.291 . S
Eu467 C531 2.787 . S
N468 C464 1.351 . S
N468 Eu467 2.562 . S
N468 C470 1.325 . S
C469 C463 1.404 . S
C469 C471 1.366 . S
C469 H477 0.930 . S
C470 N468 1.325 . S
C470 C471 1.416 . S
C470 H476 0.929 . S
C471 C469 1.366 . S
C471 C470 1.416 . S
C471 H473 0.930 . S
H472 C461 0.930 . S
H473 C471 0.930 . S
H474 C489 0.930 . S
H475 C496 0.930 . S
H476 C470 0.929 . S
H477 C469 0.930 . S
H478 C492 0.929 . S
H479 C459 0.931 . S
H480 C465 0.931 . S
H481 C466 0.931 . S
H482 C487 0.931 . S
H483 C462 0.929 . S
H484 C495 0.930 . S
N485 Eu456 2.600 . S
N485 C486 1.365 . S
N485 C489 1.319 . S
C486 N485 1.365 . S
C486 C488 1.405 . S
C486 C494 1.448 . S
C487 H482 0.931 . S
C487 C489 1.397 . S
C487 C490 1.367 . S
C488 C486 1.405 . S
C488 C490 1.403 . S
C488 C521 1.439 . S
C489 H474 0.930 . S
C489 N485 1.319 . S
C489 C487 1.397 . S
C490 C487 1.367 . S
C490 C488 1.403 . S
C490 H497 0.929 . S
N491 Eu456 2.562 . S
N491 C492 1.325 . S
N491 C494 1.351 . S
C492 H478 0.929 . S
C492 N491 1.325 . S
C492 C496 1.416 . S
C493 C494 1.430 . S
C493 C495 1.404 . S
C493 C522 1.387 . S
C494 C486 1.448 . S
C494 N491 1.351 . S
C494 C493 1.430 . S
C495 H484 0.930 . S
C495 C493 1.404 . S
C495 C496 1.366 . S
C496 H475 0.930 . S
C496 C492 1.416 . S
C496 C495 1.366 . S
H497 C490 0.929 . S
H498 C521 0.931 . S
H499 C522 0.931 . S
O500 Eu456 2.462 . S
O500 C520 1.252 . S
O501 Eu456 2.373 . S
O501 C512 1.249 . S
O502 Eu467 2.335 . S
O502 C512 1.264 . S
O503 Eu456 2.432 . S
O503 C520 1.268 . S
O504 Eu456 2.291 . S
O504 C519 1.255 . S
O505 Eu467 2.372 . S
O505 C519 1.257 . S
O506 Eu467 2.462 . S
O506 C531 1.252 . S
O507 Eu467 2.373 . S
O507 C523 1.249 . S
O508 Eu456 2.335 . S
O508 C523 1.264 . S
O509 Eu467 2.432 . S
O509 C531 1.268 . S
O510 Eu467 2.291 . S
O510 C530 1.255 . S
O511 Eu456 2.372 . S
O511 C530 1.257 . S
C512 O501 1.249 . S
C512 O502 1.264 . S
C513 C516 1.382 . S
C513 C518 1.390 . S
C513 C520 1.506 . S
C514 C515 1.398 . S
C514 C518 1.392 . S
C515 C514 1.398 . S
C515 C517 1.372 . S
C515 H532 0.931 . S
C516 C513 1.382 . S
C516 C517 1.390 . S
C516 H533 0.931 . S
C517 C515 1.372 . S
C517 C516 1.390 . S
C517 H534 0.929 . S
C518 C513 1.390 . S
C518 C514 1.392 . S
C518 H535 0.930 . S
C519 O504 1.255 . S
C519 O505 1.257 . S
C520 Eu456 2.787 . S
C520 O500 1.252 . S
C520 O503 1.268 . S
C520 C513 1.506 . S
C521 C488 1.439 . S
C521 H498 0.931 . S
C521 C522 1.374 . S
C522 C493 1.387 . S
C522 H499 0.931 . S
C522 C521 1.374 . S
C523 O507 1.249 . S
C523 O508 1.264 . S
C524 C527 1.382 . S
C524 C528 1.390 . S
C524 C531 1.506 . S
C525 C526 1.398 . S
C525 C528 1.392 . S
C526 C525 1.398 . S
C526 C529 1.372 . S
C526 H536 0.931 . S
C527 C524 1.382 . S
C527 C529 1.390 . S
C527 H537 0.931 . S
C528 C524 1.390 . S
C528 C525 1.392 . S
C528 H538 0.930 . S
C529 C526 1.372 . S
C529 C527 1.390 . S
C529 H539 0.929 . S
C530 O510 1.255 . S
C530 O511 1.257 . S
C531 Eu467 2.787 . S
C531 O506 1.252 . S
C531 O509 1.268 . S
C531 C524 1.506 . S
H532 C515 0.931 . S
H533 C516 0.931 . S
H534 C517 0.929 . S
H535 C518 0.930 . S
H536 C526 0.931 . S
H537 C527 0.931 . S
H538 C528 0.930 . S
H539 C529 0.929 . S
Eu540 N569 2.600 . S
Eu540 N575 2.562 . S
Eu540 O584 2.462 . S
Eu540 O585 2.373 1_455 S
Eu540 O587 2.432 . S
Eu540 O588 2.291 . S
Eu540 O592 2.335 . S
Eu540 O595 2.372 . S
Eu540 C604 2.787 . S
C541 N542 1.365 1_455 S
C541 C544 1.405 . S
C541 C548 1.448 . S
N542 C541 1.365 1_655 S
N542 C545 1.319 . S
N542 Eu551 2.600 . S
C543 C545 1.381 1_455 S
C543 C546 1.392 . S
C543 H563 0.926 1_455 S
C544 C541 1.405 . S
C544 C546 1.403 . S
C544 C550 1.439 . S
C545 N542 1.319 . S
C545 C543 1.381 1_655 S
C545 H556 0.930 . S
C546 C543 1.392 . S
C546 C544 1.403 . S
C546 H567 0.929 . S
C547 C548 1.430 . S
C547 C549 1.387 . S
C547 C553 1.404 . S
C548 C541 1.448 . S
C548 C547 1.430 . S
C548 N552 1.364 . S
C549 C547 1.387 . S
C549 C550 1.374 . S
C549 H564 0.931 . S
C550 C544 1.439 . S
C550 C549 1.374 . S
C550 H565 0.931 . S
Eu551 N542 2.600 . S
Eu551 N552 2.551 1_655 S
Eu551 O586 2.335 . S
Eu551 O589 2.372 . S
Eu551 O590 2.462 . S
Eu551 O591 2.373 1_655 S
Eu551 O593 2.432 . S
Eu551 O594 2.293 . S
Eu551 C615 2.787 . S
N552 C548 1.364 . S
N552 Eu551 2.551 1_455 S
N552 C554 1.329 . S
C553 C547 1.404 . S
C553 C555 1.366 . S
C553 H561 0.930 . S
C554 N552 1.329 . S
C554 C555 1.416 . S
C554 H560 0.929 1_455 S
C555 C553 1.366 . S
C555 C554 1.416 . S
C555 H557 0.930 . S
H556 C545 0.930 . S
H557 C555 0.930 . S
H558 C573 0.930 . S
H559 C580 0.930 . S
H560 C554 0.929 1_655 S
H561 C553 0.930 . S
H562 C576 0.929 . S
H563 C543 0.926 1_655 S
H564 C549 0.931 . S
H565 C550 0.931 . S
H566 C571 0.931 . S
H567 C546 0.929 . S
H568 C579 0.930 . S
N569 Eu540 2.600 . S
N569 C570 1.365 . S
N569 C573 1.319 . S
C570 N569 1.365 . S
C570 C572 1.405 1_455 S
C570 C578 1.448 . S
C571 H566 0.931 . S
C571 C573 1.397 . S
C571 C574 1.367 . S
C572 C570 1.405 1_655 S
C572 C574 1.403 1_655 S
C572 C605 1.439 . S
C573 H558 0.930 . S
C573 N569 1.319 . S
C573 C571 1.397 . S
C574 C571 1.367 . S
C574 C572 1.403 1_455 S
C574 H581 0.929 1_455 S
N575 Eu540 2.562 . S
N575 C576 1.325 . S
N575 C578 1.351 . S
C576 H562 0.929 . S
C576 N575 1.325 . S
C576 C580 1.416 1_455 S
C577 C578 1.430 1_655 S
C577 C579 1.404 . S
C577 C606 1.387 . S
C578 C570 1.448 . S
C578 N575 1.351 . S
C578 C577 1.430 1_455 S
C579 H568 0.930 . S
C579 C577 1.404 . S
C579 C580 1.366 . S
C580 H559 0.930 . S
C580 C576 1.416 1_655 S
C580 C579 1.366 . S
H581 C574 0.929 1_655 S
H582 C605 0.931 . S
H583 C606 0.931 . S
O584 Eu540 2.462 . S
O584 C604 1.252 . S
O585 Eu540 2.373 1_655 S
O585 C596 1.249 . S
O586 Eu551 2.335 . S
O586 C596 1.264 . S
O587 Eu540 2.432 . S
O587 C604 1.268 . S
O588 Eu540 2.291 . S
O588 C603 1.255 . S
O589 Eu551 2.372 . S
O589 C603 1.257 1_655 S
O590 Eu551 2.462 . S
O590 C615 1.252 . S
O591 Eu551 2.373 1_455 S
O591 C607 1.249 . S
O592 Eu540 2.335 . S
O592 C607 1.264 . S
O593 Eu551 2.432 . S
O593 C615 1.268 . S
O594 Eu551 2.293 . S
O594 C614 1.253 1_655 S
O595 Eu540 2.372 . S
O595 C614 1.257 . S
C596 O585 1.249 . S
C596 O586 1.264 . S
C597 C600 1.382 . S
C597 C602 1.390 . S
C597 C604 1.506 . S
C598 C599 1.398 . S
C598 C602 1.392 . S
C599 C598 1.398 . S
C599 C601 1.372 . S
C599 H616 0.931 . S
C600 C597 1.382 . S
C600 C601 1.390 . S
C600 H617 0.931 . S
C601 C599 1.372 . S
C601 C600 1.390 . S
C601 H618 0.929 . S
C602 C597 1.390 . S
C602 C598 1.392 . S
C602 H619 0.930 . S
C603 O588 1.255 . S
C603 O589 1.257 1_455 S
C604 Eu540 2.787 . S
C604 O584 1.252 . S
C604 O587 1.268 . S
C604 C597 1.506 . S
C605 C572 1.439 . S
C605 H582 0.931 . S
C605 C606 1.374 . S
C606 C577 1.387 . S
C606 H583 0.931 . S
C606 C605 1.374 . S
C607 O591 1.249 . S
C607 O592 1.264 . S
C608 C611 1.382 . S
C608 C612 1.390 . S
C608 C615 1.506 . S
C609 C610 1.398 . S
C609 C612 1.392 . S
C610 C609 1.398 . S
C610 C613 1.372 . S
C610 H620 0.931 . S
C611 C608 1.382 . S
C611 C613 1.390 . S
C611 H621 0.931 . S
C612 C608 1.390 . S
C612 C609 1.392 . S
C612 H622 0.930 . S
C613 C610 1.372 . S
C613 C611 1.390 . S
C613 H623 0.929 . S
C614 O594 1.253 1_455 S
C614 O595 1.257 . S
C615 Eu551 2.787 . S
C615 O590 1.252 . S
C615 O593 1.268 . S
C615 C608 1.506 . S
H616 C599 0.931 . S
H617 C600 0.931 . S
H618 C601 0.929 . S
H619 C602 0.930 . S
H620 C610 0.931 . S
H621 C611 0.931 . S
H622 C612 0.930 . S
H623 C613 0.929 . S
H624 C632 0.929 . S
H625 C634 0.930 . S
H626 C636 0.930 . S
H627 C639 0.929 . S
H628 C642 0.930 . S
H629 C644 0.960 1_565 S
H630 C644 0.960 . S
H631 C644 0.960 1_565 S
C632 H624 0.929 . S
C632 C633 1.377 . S
C632 C634 1.384 . S
C633 C632 1.377 . S
C633 C639 1.390 . S
C634 H625 0.930 . S
C634 C632 1.384 . S
C634 C635 1.372 . S
C635 C634 1.372 . S
C635 C636 1.400 . S
C635 C640 1.490 . S
C636 H626 0.930 . S
C636 C635 1.400 . S
C636 C639 1.386 . S
H637 C653 0.886 1_565 S
H638 C654 0.931 . S
C639 H627 0.929 . S
C639 C633 1.390 . S
C639 C636 1.386 . S
C640 C635 1.490 . S
C640 C642 1.395 . S
C640 C643 1.403 . S
H641 C647 0.930 . S
C642 H628 0.930 . S
C642 C640 1.395 . S
C642 C645 1.403 . S
C643 C640 1.403 . S
C643 C644 1.524 . S
C643 C647 1.400 . S
C644 H629 0.960 1_545 S
C644 H630 0.960 . S
C644 H631 0.960 1_545 S
C644 C643 1.524 . S
C645 C642 1.403 . S
C645 C646 1.392 . S
C645 C649 1.495 . S
C646 C645 1.392 . S
C646 C647 1.385 . S
C646 C648 1.478 . S
C647 H641 0.930 . S
C647 C643 1.400 . S
C647 C646 1.385 . S
C648 C646 1.478 . S
C648 C650 1.381 . S
C648 C654 1.383 . S
C649 C645 1.495 . S
C649 H655 0.959 . S
C649 H656 0.961 . S
C649 H657 0.960 . S
C650 C648 1.381 . S
C650 C651 1.394 . S
C650 H658 0.930 . S
C651 C650 1.394 . S
C651 C652 1.383 . S
C651 H659 0.929 . S
C652 C651 1.383 . S
C652 C653 1.377 . S
C653 H637 0.886 1_545 S
C653 C652 1.377 . S
C653 C654 1.379 . S
C654 H638 0.931 . S
C654 C648 1.383 . S
C654 C653 1.379 . S
H655 C649 0.959 . S
H656 C649 0.961 . S
H657 C649 0.960 . S
H658 C650 0.930 . S
H659 C651 0.929 . S
H660 C668 0.929 . S
H661 C670 0.930 . S
H662 C672 0.930 . S
H663 C675 0.929 . S
H664 C678 0.930 . S
H665 C680 0.960 . S
H666 C680 0.960 . S
H667 C680 0.960 . S
C668 H660 0.929 . S
C668 C669 1.377 . S
C668 C670 1.384 . S
C669 C668 1.377 . S
C669 C675 1.390 . S
C670 H661 0.930 . S
C670 C668 1.384 . S
C670 C671 1.372 . S
C671 C670 1.372 . S
C671 C672 1.400 . S
C671 C676 1.490 . S
C672 H662 0.930 . S
C672 C671 1.400 . S
C672 C675 1.386 . S
H673 C689 0.930 . S
H674 C690 0.931 . S
C675 H663 0.929 . S
C675 C669 1.390 . S
C675 C672 1.386 . S
C676 C671 1.490 . S
C676 C678 1.395 . S
C676 C679 1.403 . S
H677 C683 0.930 . S
C678 H664 0.930 . S
C678 C676 1.395 . S
C678 C681 1.403 . S
C679 C676 1.403 . S
C679 C680 1.524 . S
C679 C683 1.400 . S
C680 H665 0.960 . S
C680 H666 0.960 . S
C680 H667 0.960 . S
C680 C679 1.524 . S
C681 C678 1.403 . S
C681 C682 1.392 . S
C681 C685 1.495 . S
C682 C681 1.392 . S
C682 C683 1.385 . S
C682 C684 1.478 . S
C683 H677 0.930 . S
C683 C679 1.400 . S
C683 C682 1.385 . S
C684 C682 1.478 . S
C684 C686 1.381 . S
C684 C690 1.383 . S
C685 C681 1.495 . S
C685 H691 0.959 . S
C685 H692 0.961 . S
C685 H693 0.960 . S
C686 C684 1.381 . S
C686 C687 1.394 . S
C686 H694 0.930 . S
C687 C686 1.394 . S
C687 C688 1.383 . S
C687 H695 0.929 . S
C688 C687 1.383 . S
C688 C689 1.377 . S
C689 H673 0.930 . S
C689 C688 1.377 . S
C689 C690 1.379 . S
C690 H674 0.931 . S
C690 C684 1.383 . S
C690 C689 1.379 . S
H691 C685 0.959 . S
H692 C685 0.961 . S
H693 C685 0.960 . S
H694 C686 0.930 . S
H695 C687 0.929 . S
H696 C704 0.929 . S
H697 C706 0.930 . S
H698 C708 0.930 . S
H699 C711 0.929 . S
H700 C714 0.930 . S
H701 C716 0.960 . S
H702 C716 0.960 . S
H703 C716 0.960 . S
C704 H696 0.929 . S
C704 C705 1.377 . S
C704 C706 1.384 . S
C705 C704 1.377 . S
C705 C711 1.390 . S
C706 H697 0.930 . S
C706 C704 1.384 . S
C706 C707 1.372 . S
C707 C706 1.372 . S
C707 C708 1.400 . S
C707 C712 1.490 . S
C708 H698 0.930 . S
C708 C707 1.400 . S
C708 C711 1.386 . S
H709 C725 0.930 . S
H710 C726 0.931 . S
C711 H699 0.929 . S
C711 C705 1.390 . S
C711 C708 1.386 . S
C712 C707 1.490 . S
C712 C714 1.395 . S
C712 C715 1.403 . S
H713 C719 0.930 . S
C714 H700 0.930 . S
C714 C712 1.395 . S
C714 C717 1.403 . S
C715 C712 1.403 . S
C715 C716 1.524 . S
C715 C719 1.400 . S
C716 H701 0.960 . S
C716 H702 0.960 . S
C716 H703 0.960 . S
C716 C715 1.524 . S
C717 C714 1.403 . S
C717 C718 1.392 . S
C717 C721 1.495 . S
C718 C717 1.392 . S
C718 C719 1.385 . S
C718 C720 1.478 . S
C719 H713 0.930 . S
C719 C715 1.400 . S
C719 C718 1.385 . S
C720 C718 1.478 . S
C720 C722 1.381 . S
C720 C726 1.383 . S
C721 C717 1.495 . S
C721 H727 0.959 . S
C721 H728 0.961 . S
C721 H729 0.960 . S
C722 C720 1.381 . S
C722 C723 1.394 . S
C722 H730 0.930 . S
C723 C722 1.394 . S
C723 C724 1.383 . S
C723 H731 0.929 . S
C724 C723 1.383 . S
C724 C725 1.377 . S
C725 H709 0.930 . S
C725 C724 1.377 . S
C725 C726 1.379 . S
C726 H710 0.931 . S
C726 C720 1.383 . S
C726 C725 1.379 . S
H727 C721 0.959 . S
H728 C721 0.961 . S
H729 C721 0.960 . S
H730 C722 0.930 . S
H731 C723 0.929 . S
H732 C740 0.929 . S
H733 C742 0.930 . S
H734 C744 0.930 . S
H735 C747 0.929 . S
H736 C750 0.930 . S
H737 C752 1.007 . S
H738 C752 0.947 1_455 S
H739 C752 0.976 . S
C740 H732 0.929 . S
C740 C741 1.377 . S
C740 C742 1.384 . S
C741 C740 1.377 . S
C741 C747 1.390 . S
C742 H733 0.930 . S
C742 C740 1.384 . S
C742 C743 1.372 . S
C743 C742 1.372 . S
C743 C744 1.400 . S
C743 C748 1.490 . S
C744 H734 0.930 . S
C744 C743 1.400 . S
C744 C747 1.386 . S
H745 C761 0.930 1_655 S
H746 C762 0.931 . S
C747 H735 0.929 . S
C747 C741 1.390 . S
C747 C744 1.386 . S
C748 C743 1.490 . S
C748 C750 1.395 . S
C748 C751 1.403 . S
H749 C755 0.930 . S
C750 H736 0.930 . S
C750 C748 1.395 . S
C750 C753 1.403 . S
C751 C748 1.403 . S
C751 C752 1.478 1_455 S
C751 C755 1.400 . S
C752 H737 1.007 . S
C752 H738 0.947 1_655 S
C752 H739 0.976 . S
C752 C751 1.478 1_655 S
C753 C750 1.403 . S
C753 C754 1.392 . S
C753 C757 1.495 . S
C754 C753 1.392 . S
C754 C755 1.385 . S
C754 C756 1.478 . S
C755 H749 0.930 . S
C755 C751 1.400 . S
C755 C754 1.385 . S
C756 C754 1.478 . S
C756 C758 1.381 . S
C756 C762 1.383 . S
C757 C753 1.495 . S
C757 H763 0.959 . S
C757 H764 0.961 . S
C757 H765 0.960 . S
C758 C756 1.381 . S
C758 C759 1.394 . S
C758 H766 0.930 . S
C759 C758 1.394 . S
C759 C760 1.383 . S
C759 H767 0.929 . S
C760 C759 1.383 . S
C760 C761 1.377 . S
C761 H745 0.930 1_455 S
C761 C760 1.377 . S
C761 C762 1.379 . S
C762 H746 0.931 . S
C762 C756 1.383 . S
C762 C761 1.379 . S
H763 C757 0.959 . S
H764 C757 0.961 . S
H765 C757 0.960 . S
H766 C758 0.930 . S
H767 C759 0.929 . S
H768 C776 0.929 . S
H769 C778 0.930 . S
H770 C780 0.930 . S
H771 C783 0.929 . S
H772 C786 0.930 1_545 S
H773 C788 0.960 . S
H774 C788 0.960 . S
H775 C788 0.960 . S
C776 H768 0.929 . S
C776 C777 1.377 . S
C776 C778 1.384 1_554 S
C777 C776 1.377 . S
C777 C783 1.390 . S
C778 H769 0.930 . S
C778 C776 1.384 1_556 S
C778 C779 1.372 . S
C779 C778 1.372 . S
C779 C780 1.400 1_556 S
C779 C784 1.490 . S
C780 H770 0.930 . S
C780 C779 1.400 1_554 S
C780 C783 1.386 . S
H781 C797 0.930 . S
H782 C798 0.931 . S
C783 H771 0.929 . S
C783 C777 1.390 . S
C783 C780 1.386 . S
C784 C779 1.490 . S
C784 C786 1.395 . S
C784 C787 1.403 . S
H785 C791 0.930 . S
C786 H772 0.930 1_565 S
C786 C784 1.395 . S
C786 C789 1.403 1_565 S
C787 C784 1.403 . S
C787 C788 1.524 . S
C787 C791 1.400 . S
C788 H773 0.960 . S
C788 H774 0.960 . S
C788 H775 0.960 . S
C788 C787 1.524 . S
C789 C786 1.403 1_545 S
C789 C790 1.392 1_545 S
C789 C793 1.495 . S
C790 C789 1.392 1_565 S
C790 C791 1.385 . S
C790 C792 1.478 . S
C791 H785 0.930 . S
C791 C787 1.400 . S
C791 C790 1.385 . S
C792 C790 1.478 . S
C792 C794 1.381 . S
C792 C798 1.383 . S
C793 C789 1.495 . S
C793 H799 0.959 . S
C793 H800 0.961 . S
C793 H801 0.960 . S
C794 C792 1.381 . S
C794 C795 1.394 . S
C794 H802 0.930 . S
C795 C794 1.394 . S
C795 C796 1.383 . S
C795 H803 0.929 . S
C796 C795 1.383 . S
C796 C797 1.377 . S
C797 H781 0.930 . S
C797 C796 1.377 . S
C797 C798 1.379 . S
C798 H782 0.931 . S
C798 C792 1.383 . S
C798 C797 1.379 . S
H799 C793 0.959 . S
H800 C793 0.961 . S
H801 C793 0.960 . S
H802 C794 0.930 . S
H803 C795 0.929 . S
H804 C812 0.929 . S
H805 C814 0.930 . S
H806 C816 0.930 . S
H807 C819 0.929 . S
H808 C822 0.930 . S
H809 C824 0.960 . S
H810 C824 0.960 . S
H811 C824 0.960 1_554 S
C812 H804 0.929 . S
C812 C813 1.377 . S
C812 C814 1.384 1_554 S
C813 C812 1.377 . S
C813 C819 1.390 . S
C814 H805 0.930 . S
C814 C812 1.384 1_556 S
C814 C815 1.372 . S
C815 C814 1.372 . S
C815 C816 1.400 1_556 S
C815 C820 1.490 . S
C816 H806 0.930 . S
C816 C815 1.400 1_554 S
C816 C819 1.386 . S
H817 C833 0.930 . S
H818 C834 0.931 . S
C819 H807 0.929 . S
C819 C813 1.390 . S
C819 C816 1.386 . S
C820 C815 1.490 . S
C820 C822 1.395 . S
C820 C823 1.403 . S
H821 C827 0.930 . S
C822 H808 0.930 . S
C822 C820 1.395 . S
C822 C825 1.403 . S
C823 C820 1.403 . S
C823 C824 1.524 . S
C823 C827 1.400 . S
C824 H809 0.960 . S
C824 H810 0.960 . S
C824 H811 0.960 1_556 S
C824 C823 1.524 . S
C825 C822 1.403 . S
C825 C826 1.392 . S
C825 C829 1.495 . S
C826 C825 1.392 . S
C826 C827 1.385 . S
C826 C828 1.478 . S
C827 H821 0.930 . S
C827 C823 1.400 . S
C827 C826 1.385 . S
C828 C826 1.478 . S
C828 C830 1.381 . S
C828 C834 1.383 . S
C829 C825 1.495 . S
C829 H835 0.959 . S
C829 H836 0.961 . S
C829 H837 0.960 . S
C830 C828 1.381 . S
C830 C831 1.394 . S
C830 H838 0.930 . S
C831 C830 1.394 . S
C831 C832 1.383 . S
C831 H839 0.929 . S
C832 C831 1.383 . S
C832 C833 1.377 . S
C833 H817 0.930 . S
C833 C832 1.377 . S
C833 C834 1.379 . S
C834 H818 0.931 . S
C834 C828 1.383 . S
C834 C833 1.379 . S
H835 C829 0.959 . S
H836 C829 0.961 . S
H837 C829 0.960 . S
H838 C830 0.930 . S
H839 C831 0.929 . S
H840 C848 0.929 . S
H841 C850 0.930 . S
H842 C852 0.930 . S
H843 C855 0.929 . S
H844 C858 0.930 . S
H845 C860 0.960 . S
H846 C860 0.960 . S
H847 C860 0.960 . S
C848 H840 0.929 . S
C848 C849 1.377 . S
C848 C850 1.384 . S
C849 C848 1.377 . S
C849 C855 1.390 . S
C850 H841 0.930 . S
C850 C848 1.384 . S
C850 C851 1.372 1_554 S
C851 C850 1.372 1_556 S
C851 C852 1.400 . S
C851 C856 1.490 . S
C852 H842 0.930 . S
C852 C851 1.400 . S
C852 C855 1.386 1_556 S
H853 C869 0.930 . S
H854 C870 0.931 . S
C855 H843 0.929 . S
C855 C849 1.390 . S
C855 C852 1.386 1_554 S
C856 C851 1.490 . S
C856 C858 1.395 . S
C856 C859 1.403 . S
H857 C863 0.930 . S
C858 H844 0.930 . S
C858 C856 1.395 . S
C858 C861 1.403 . S
C859 C856 1.403 . S
C859 C860 1.524 . S
C859 C863 1.400 . S
C860 H845 0.960 . S
C860 H846 0.960 . S
C860 H847 0.960 . S
C860 C859 1.524 . S
C861 C858 1.403 . S
C861 C862 1.392 . S
C861 C865 1.495 . S
C862 C861 1.392 . S
C862 C863 1.385 . S
C862 C864 1.478 . S
C863 H857 0.930 . S
C863 C859 1.400 . S
C863 C862 1.385 . S
C864 C862 1.478 . S
C864 C866 1.381 . S
C864 C870 1.383 . S
C865 C861 1.495 . S
C865 H871 0.959 . S
C865 H872 0.961 . S
C865 H873 0.960 . S
C866 C864 1.381 . S
C866 C867 1.394 . S
C866 H874 0.930 . S
C867 C866 1.394 . S
C867 C868 1.383 . S
C867 H875 0.929 . S
C868 C867 1.383 . S
C868 C869 1.377 . S
C869 H853 0.930 . S
C869 C868 1.377 . S
C869 C870 1.379 . S
C870 H854 0.931 . S
C870 C864 1.383 . S
C870 C869 1.379 . S
H871 C865 0.959 . S
H872 C865 0.961 . S
H873 C865 0.960 . S
H874 C866 0.930 . S
H875 C867 0.929 . S
H876 C884 0.929 . S
H877 C886 0.912 1_456 S
H878 C888 0.930 1_556 S
H879 C891 0.929 . S
H880 C894 0.928 . S
H881 C896 0.960 . S
H882 C896 0.960 . S
H883 C896 0.960 . S
C884 H876 0.929 . S
C884 C885 1.377 . S
C884 C886 1.384 . S
C885 C884 1.377 . S
C885 C891 1.390 . S
C886 H877 0.912 1_654 S
C886 C884 1.384 . S
C886 C887 1.372 1_554 S
C887 C886 1.372 1_556 S
C887 C888 1.400 1_556 S
C887 C892 1.490 . S
C888 H878 0.930 1_554 S
C888 C887 1.400 1_554 S
C888 C891 1.386 . S
H889 C905 0.930 . S
H890 C906 0.931 . S
C891 H879 0.929 . S
C891 C885 1.390 . S
C891 C888 1.386 . S
C892 C887 1.490 . S
C892 C894 1.395 . S
C892 C895 1.403 . S
H893 C899 0.930 . S
C894 H880 0.928 . S
C894 C892 1.395 . S
C894 C897 1.403 . S
C895 C892 1.403 . S
C895 C896 1.524 . S
C895 C899 1.400 . S
C896 H881 0.960 . S
C896 H882 0.960 . S
C896 H883 0.960 . S
C896 C895 1.524 . S
C897 C894 1.403 . S
C897 C898 1.392 . S
C897 C901 1.495 1_655 S
C898 C897 1.392 . S
C898 C899 1.385 . S
C898 C900 1.478 . S
C899 H893 0.930 . S
C899 C895 1.400 . S
C899 C898 1.385 . S
C900 C898 1.478 . S
C900 C902 1.381 1_655 S
C900 C906 1.383 . S
C901 C897 1.495 1_455 S
C901 H907 0.959 . S
C901 H908 0.961 . S
C901 H909 0.960 . S
C902 C900 1.381 1_455 S
C902 C903 1.394 . S
C902 H910 0.930 . S
C903 C902 1.394 . S
C903 C904 1.383 1_455 S
C903 H911 0.929 . S
C904 C903 1.383 1_655 S
C904 C905 1.377 . S
C905 H889 0.930 . S
C905 C904 1.377 . S
C905 C906 1.379 . S
C906 H890 0.931 . S
C906 C900 1.383 . S
C906 C905 1.379 . S
H907 C901 0.959 . S
H908 C901 0.961 . S
H909 C901 0.960 . S
H910 C902 0.930 . S
H911 C903 0.929 . S
H912 C920 0.929 . S
H913 C922 0.930 . S
H914 C924 0.930 . S
H915 C927 0.929 . S
H916 C930 0.930 . S
H917 C932 0.960 1_655 S
H918 C932 0.960 . S
H919 C932 0.966 . S
C920 H912 0.929 . S
C920 C921 1.377 . S
C920 C922 1.384 . S
C921 C920 1.377 . S
C921 C927 1.390 . S
C922 H913 0.930 . S
C922 C920 1.384 . S
C922 C923 1.372 . S
C923 C922 1.372 . S
C923 C924 1.400 . S
C923 C928 1.490 . S
C924 H914 0.930 . S
C924 C923 1.400 . S
C924 C927 1.386 . S
H925 C941 0.930 . S
H926 C942 0.952 . S
C927 H915 0.929 . S
C927 C921 1.390 . S
C927 C924 1.386 . S
C928 C923 1.490 . S
C928 C930 1.395 . S
C928 C931 1.403 . S
H929 C935 0.930 . S
C930 H916 0.930 . S
C930 C928 1.395 . S
C930 C933 1.403 . S
C931 C928 1.403 . S
C931 C932 1.524 . S
C931 C935 1.400 . S
C932 H917 0.960 1_455 S
C932 H918 0.960 . S
C932 H919 0.966 . S
C932 C931 1.524 . S
C933 C930 1.403 . S
C933 C934 1.392 . S
C933 C937 1.495 . S
C934 C933 1.392 . S
C934 C935 1.385 . S
C934 C936 1.478 . S
C935 H929 0.930 . S
C935 C931 1.400 . S
C935 C934 1.385 . S
C936 C934 1.478 . S
C936 C938 1.381 . S
C936 C942 1.350 1_455 S
C937 C933 1.495 . S
C937 H943 0.959 . S
C937 H944 0.961 . S
C937 H945 0.960 . S
C938 C936 1.381 . S
C938 C939 1.394 . S
C938 H946 0.930 . S
C939 C938 1.394 . S
C939 C940 1.383 . S
C939 H947 0.929 . S
C940 C939 1.383 . S
C940 C941 1.377 1_455 S
C941 H925 0.930 . S
C941 C940 1.377 1_655 S
C941 C942 1.392 . S
C942 H926 0.952 . S
C942 C936 1.350 1_655 S
C942 C941 1.392 . S
H943 C937 0.959 . S
H944 C937 0.961 . S
H945 C937 0.960 . S
H946 C938 0.930 . S
H947 C939 0.929 . S
H948 C956 0.929 . S
H949 C958 0.930 . S
H950 C960 0.930 . S
H951 C963 0.929 . S
H952 C966 0.930 . S
H953 C968 0.960 . S
H954 C968 0.960 . S
H955 C968 0.960 . S
C956 H948 0.929 . S
C956 C957 1.377 . S
C956 C958 1.384 . S
C957 C956 1.377 . S
C957 C963 1.390 . S
C958 H949 0.930 . S
C958 C956 1.384 . S
C958 C959 1.372 . S
C959 C958 1.372 . S
C959 C960 1.400 . S
C959 C964 1.490 . S
C960 H950 0.930 . S
C960 C959 1.400 . S
C960 C963 1.386 . S
H961 C977 0.930 . S
H962 C978 0.931 . S
C963 H951 0.929 . S
C963 C957 1.390 . S
C963 C960 1.386 . S
C964 C959 1.490 . S
C964 C966 1.395 . S
C964 C967 1.403 . S
H965 C971 0.930 . S
C966 H952 0.930 . S
C966 C964 1.395 . S
C966 C969 1.403 . S
C967 C964 1.403 . S
C967 C968 1.524 . S
C967 C971 1.400 . S
C968 H953 0.960 . S
C968 H954 0.960 . S
C968 H955 0.960 . S
C968 C967 1.524 . S
C969 C966 1.403 . S
C969 C970 1.392 . S
C969 C973 1.495 . S
C970 C969 1.392 . S
C970 C971 1.385 . S
C970 C972 1.478 . S
C971 H965 0.930 . S
C971 C967 1.400 . S
C971 C970 1.385 . S
C972 C970 1.478 . S
C972 C974 1.342 1_545 S
C972 C978 1.383 . S
C973 C969 1.495 . S
C973 H979 0.959 . S
C973 H980 0.961 . S
C973 H981 0.960 . S
C974 C972 1.342 1_565 S
C974 C975 1.409 . S
C974 H982 0.957 . S
C975 C974 1.409 . S
C975 C976 1.383 1_565 S
C975 H983 0.929 . S
C976 C975 1.383 1_545 S
C976 C977 1.377 . S
C977 H961 0.930 . S
C977 C976 1.377 . S
C977 C978 1.379 . S
C978 H962 0.931 . S
C978 C972 1.383 . S
C978 C977 1.379 . S
H979 C973 0.959 . S
H980 C973 0.961 . S
H981 C973 0.960 . S
H982 C974 0.957 . S
H983 C975 0.929 . S
H984 C992 0.929 . S
H985 C994 0.930 . S
H986 C996 0.930 . S
H987 C999 0.929 . S
H988 C1002 0.930 . S
H989 C1004 0.960 . S
H990 C1004 0.960 . S
H991 C1004 0.960 . S
C992 H984 0.929 . S
C992 C993 1.377 . S
C992 C994 1.384 . S
C993 C992 1.377 . S
C993 C999 1.390 . S
C994 H985 0.930 . S
C994 C992 1.384 . S
C994 C995 1.372 . S
C995 C994 1.372 . S
C995 C996 1.400 . S
C995 C1000 1.490 . S
C996 H986 0.930 . S
C996 C995 1.400 . S
C996 C999 1.386 . S
H997 C1013 0.930 . S
H998 C1014 0.931 . S
C999 H987 0.929 . S
C999 C993 1.390 . S
C999 C996 1.386 . S
C1000 C995 1.490 . S
C1000 C1002 1.395 . S
C1000 C1003 1.403 . S
H1001 C1007 0.930 . S
C1002 H988 0.930 . S
C1002 C1000 1.395 . S
C1002 C1005 1.403 . S
C1003 C1000 1.403 . S
C1003 C1004 1.524 . S
C1003 C1007 1.400 . S
C1004 H989 0.960 . S
C1004 H990 0.960 . S
C1004 H991 0.960 . S
C1004 C1003 1.524 . S
C1005 C1002 1.403 . S
C1005 C1006 1.392 . S
C1005 C1009 1.495 . S
C1006 C1005 1.392 . S
C1006 C1007 1.385 . S
C1006 C1008 1.478 . S
C1007 H1001 0.930 . S
C1007 C1003 1.400 . S
C1007 C1006 1.385 . S
C1008 C1006 1.478 . S
C1008 C1010 1.381 . S
C1008 C1014 1.383 . S
C1009 C1005 1.495 . S
C1009 H1015 0.959 . S
C1009 H1016 0.961 . S
C1009 H1017 0.960 . S
C1010 C1008 1.381 . S
C1010 C1011 1.394 . S
C1010 H1018 0.930 . S
C1011 C1010 1.394 . S
C1011 C1012 1.383 . S
C1011 H1019 0.929 . S
C1012 C1011 1.383 . S
C1012 C1013 1.377 . S
C1013 H997 0.930 . S
C1013 C1012 1.377 . S
C1013 C1014 1.379 . S
C1014 H998 0.931 . S
C1014 C1008 1.383 . S
C1014 C1013 1.379 . S
H1015 C1009 0.959 . S
H1016 C1009 0.961 . S
H1017 C1009 0.960 . S
H1018 C1010 0.930 . S
H1019 C1011 0.929 . S
H1020 C1028 0.929 . S
H1021 C1030 0.930 . S
H1022 C1032 0.930 . S
H1023 C1035 0.929 . S
H1024 C1038 0.930 . S
H1025 C1040 0.960 . S
H1026 C1040 0.960 . S
H1027 C1040 0.960 . S
C1028 H1020 0.929 . S
C1028 C1029 1.377 . S
C1028 C1030 1.384 . S
C1029 C1028 1.377 . S
C1029 C1035 1.390 . S
C1030 H1021 0.930 . S
C1030 C1028 1.384 . S
C1030 C1031 1.372 . S
C1031 C1030 1.372 . S
C1031 C1032 1.400 . S
C1031 C1036 1.490 . S
C1032 H1022 0.930 . S
C1032 C1031 1.400 . S
C1032 C1035 1.386 . S
H1033 C1049 0.930 . S
H1034 C1050 0.931 . S
C1035 H1023 0.929 . S
C1035 C1029 1.390 . S
C1035 C1032 1.386 . S
C1036 C1031 1.490 . S
C1036 C1038 1.395 . S
C1036 C1039 1.403 . S
H1037 C1043 0.930 . S
C1038 H1024 0.930 . S
C1038 C1036 1.395 . S
C1038 C1041 1.403 . S
C1039 C1036 1.403 . S
C1039 C1040 1.524 . S
C1039 C1043 1.400 . S
C1040 H1025 0.960 . S
C1040 H1026 0.960 . S
C1040 H1027 0.960 . S
C1040 C1039 1.524 . S
C1041 C1038 1.403 . S
C1041 C1042 1.392 . S
C1041 C1045 1.495 . S
C1042 C1041 1.392 . S
C1042 C1043 1.385 . S
C1042 C1044 1.478 . S
C1043 H1037 0.930 . S
C1043 C1039 1.400 . S
C1043 C1042 1.385 . S
C1044 C1042 1.478 . S
C1044 C1046 1.381 . S
C1044 C1050 1.383 . S
C1045 C1041 1.495 . S
C1045 H1051 0.959 . S
C1045 H1052 0.961 . S
C1045 H1053 0.960 . S
C1046 C1044 1.381 . S
C1046 C1047 1.394 . S
C1046 H1054 0.930 . S
C1047 C1046 1.394 . S
C1047 C1048 1.383 . S
C1047 H1055 0.929 . S
C1048 C1047 1.383 . S
C1048 C1049 1.377 . S
C1049 H1033 0.930 . S
C1049 C1048 1.377 . S
C1049 C1050 1.379 . S
C1050 H1034 0.931 . S
C1050 C1044 1.383 . S
C1050 C1049 1.379 . S
H1051 C1045 0.959 . S
H1052 C1045 0.961 . S
H1053 C1045 0.960 . S
H1054 C1046 0.930 . S
H1055 C1047 0.929 . S
H1056 C1064 0.929 . S
H1057 C1066 0.930 . S
H1058 C1068 0.930 . S
H1059 C1071 0.929 . S
H1060 C1074 0.930 . S
H1061 C1076 0.960 . S
H1062 C1076 0.960 . S
H1063 C1076 0.960 . S
C1064 H1056 0.929 . S
C1064 C1065 1.377 1_556 S
C1064 C1066 1.384 . S
C1065 C1064 1.377 1_554 S
C1065 C1071 1.390 . S
C1066 H1057 0.930 . S
C1066 C1064 1.384 . S
C1066 C1067 1.372 . S
C1067 C1066 1.372 . S
C1067 C1068 1.400 1_556 S
C1067 C1072 1.490 . S
C1068 H1058 0.930 . S
C1068 C1067 1.400 1_554 S
C1068 C1071 1.386 . S
H1069 C1085 0.930 . S
H1070 C1086 0.931 . S
C1071 H1059 0.929 . S
C1071 C1065 1.390 . S
C1071 C1068 1.386 . S
C1072 C1067 1.490 . S
C1072 C1074 1.395 . S
C1072 C1075 1.403 . S
H1073 C1079 0.927 1_455 S
C1074 H1060 0.930 . S
C1074 C1072 1.395 . S
C1074 C1077 1.403 . S
C1075 C1072 1.403 . S
C1075 C1076 1.524 1_655 S
C1075 C1079 1.400 . S
C1076 H1061 0.960 . S
C1076 H1062 0.960 . S
C1076 H1063 0.960 . S
C1076 C1075 1.524 1_455 S
C1077 C1074 1.403 . S
C1077 C1078 1.392 . S
C1077 C1081 1.495 . S
C1078 C1077 1.392 . S
C1078 C1079 1.387 . S
C1078 C1080 1.478 . S
C1079 H1073 0.927 1_655 S
C1079 C1075 1.400 . S
C1079 C1078 1.387 . S
C1080 C1078 1.478 . S
C1080 C1082 1.381 . S
C1080 C1086 1.383 . S
C1081 C1077 1.495 . S
C1081 H1087 0.959 . S
C1081 H1088 0.961 . S
C1081 H1089 0.960 . S
C1082 C1080 1.381 . S
C1082 C1083 1.394 1_655 S
C1082 H1090 0.930 . S
C1083 C1082 1.394 1_455 S
C1083 C1084 1.383 . S
C1083 H1091 0.929 . S
C1084 C1083 1.383 . S
C1084 C1085 1.377 . S
C1085 H1069 0.930 . S
C1085 C1084 1.377 . S
C1085 C1086 1.379 1_455 S
C1086 H1070 0.931 . S
C1086 C1080 1.383 . S
C1086 C1085 1.379 1_655 S
H1087 C1081 0.959 . S
H1088 C1081 0.961 . S
H1089 C1081 0.960 . S
H1090 C1082 0.930 . S
H1091 C1083 0.929 . S
H1092 C1100 0.929 . S
H1093 C1102 0.930 . S
H1094 C1104 0.930 . S
H1095 C1107 0.929 . S
H1096 C1110 0.930 1_545 S
H1097 C1112 0.960 . S
H1098 C1112 0.960 . S
H1099 C1112 0.960 . S
C1100 H1092 0.929 . S
C1100 C1101 1.377 . S
C1100 C1102 1.384 . S
C1101 C1100 1.377 . S
C1101 C1107 1.390 1_554 S
C1102 H1093 0.930 . S
C1102 C1100 1.384 . S
C1102 C1103 1.372 1_554 S
C1103 C1102 1.372 1_556 S
C1103 C1104 1.400 . S
C1103 C1108 1.490 . S
C1104 H1094 0.930 . S
C1104 C1103 1.400 . S
C1104 C1107 1.386 . S
H1105 C1121 0.930 . S
H1106 C1122 0.931 . S
C1107 H1095 0.929 . S
C1107 C1101 1.390 1_556 S
C1107 C1104 1.386 . S
C1108 C1103 1.490 . S
C1108 C1110 1.395 . S
C1108 C1111 1.403 . S
H1109 C1115 0.930 . S
C1110 H1096 0.930 1_565 S
C1110 C1108 1.395 . S
C1110 C1113 1.403 1_565 S
C1111 C1108 1.403 . S
C1111 C1112 1.524 . S
C1111 C1115 1.400 . S
C1112 H1097 0.960 . S
C1112 H1098 0.960 . S
C1112 H1099 0.960 . S
C1112 C1111 1.524 . S
C1113 C1110 1.403 1_545 S
C1113 C1114 1.392 1_545 S
C1113 C1117 1.495 . S
C1114 C1113 1.392 1_565 S
C1114 C1115 1.385 . S
C1114 C1116 1.479 1_565 S
C1115 H1109 0.930 . S
C1115 C1111 1.400 . S
C1115 C1114 1.385 . S
C1116 C1114 1.479 1_545 S
C1116 C1118 1.378 . S
C1116 C1122 1.384 1_545 S
C1117 C1113 1.495 . S
C1117 H1123 0.959 . S
C1117 H1124 0.961 . S
C1117 H1125 0.960 . S
C1118 C1116 1.378 . S
C1118 C1119 1.394 . S
C1118 H1126 0.930 . S
C1119 C1118 1.394 . S
C1119 C1120 1.383 . S
C1119 H1127 0.929 . S
C1120 C1119 1.383 . S
C1120 C1121 1.377 1_545 S
C1121 H1105 0.930 . S
C1121 C1120 1.377 1_565 S
C1121 C1122 1.379 . S
C1122 H1106 0.931 . S
C1122 C1116 1.384 1_565 S
C1122 C1121 1.379 . S
H1123 C1117 0.959 . S
H1124 C1117 0.961 . S
H1125 C1117 0.960 . S
H1126 C1118 0.930 . S
H1127 C1119 0.929 . S
H1128 C1136 0.929 . S
H1129 C1138 0.930 . S
H1130 C1140 0.930 . S
H1131 C1143 0.929 . S
H1132 C1146 0.930 . S
H1133 C1148 0.960 . S
H1134 C1148 0.960 . S
H1135 C1148 0.960 . S
C1136 H1128 0.929 . S
C1136 C1137 1.377 1_556 S
C1136 C1138 1.384 . S
C1137 C1136 1.377 1_554 S
C1137 C1143 1.390 . S
C1138 H1129 0.930 . S
C1138 C1136 1.384 . S
C1138 C1139 1.372 . S
C1139 C1138 1.372 . S
C1139 C1140 1.400 . S
C1139 C1144 1.490 . S
C1140 H1130 0.930 . S
C1140 C1139 1.400 . S
C1140 C1143 1.386 1_556 S
H1141 C1157 0.930 . S
H1142 C1158 0.931 . S
C1143 H1131 0.929 . S
C1143 C1137 1.390 . S
C1143 C1140 1.386 1_554 S
C1144 C1139 1.490 . S
C1144 C1146 1.395 . S
C1144 C1147 1.403 . S
H1145 C1151 0.930 . S
C1146 H1132 0.930 . S
C1146 C1144 1.395 . S
C1146 C1149 1.403 . S
C1147 C1144 1.403 . S
C1147 C1148 1.524 . S
C1147 C1151 1.400 . S
C1148 H1133 0.960 . S
C1148 H1134 0.960 . S
C1148 H1135 0.960 . S
C1148 C1147 1.524 . S
C1149 C1146 1.403 . S
C1149 C1150 1.392 . S
C1149 C1153 1.495 . S
C1150 C1149 1.392 . S
C1150 C1151 1.385 . S
C1150 C1152 1.478 . S
C1151 H1145 0.930 . S
C1151 C1147 1.400 . S
C1151 C1150 1.385 . S
C1152 C1150 1.478 . S
C1152 C1154 1.381 . S
C1152 C1158 1.383 . S
C1153 C1149 1.495 . S
C1153 H1159 0.959 . S
C1153 H1160 0.961 . S
C1153 H1161 0.960 . S
C1154 C1152 1.381 . S
C1154 C1155 1.394 . S
C1154 H1162 0.930 . S
C1155 C1154 1.394 . S
C1155 C1156 1.383 . S
C1155 H1163 0.929 . S
C1156 C1155 1.383 . S
C1156 C1157 1.377 . S
C1157 H1141 0.930 . S
C1157 C1156 1.377 . S
C1157 C1158 1.379 . S
C1158 H1142 0.931 . S
C1158 C1152 1.383 . S
C1158 C1157 1.379 . S
H1159 C1153 0.959 . S
H1160 C1153 0.961 . S
H1161 C1153 0.960 . S
H1162 C1154 0.930 . S
H1163 C1155 0.929 . S
H1164 C1172 0.929 . S
H1165 C1174 0.930 . S
H1166 C1176 0.930 . S
H1167 C1179 0.929 . S
H1168 C1182 0.930 . S
H1169 C1184 0.960 . S
H1170 C1184 0.960 . S
H1171 C1184 0.960 1_554 S
C1172 H1164 0.929 . S
C1172 C1173 1.377 1_556 S
C1172 C1174 1.384 . S
C1173 C1172 1.377 1_554 S
C1173 C1179 1.390 . S
C1174 H1165 0.930 . S
C1174 C1172 1.384 . S
C1174 C1175 1.372 . S
C1175 C1174 1.372 . S
C1175 C1176 1.400 1_556 S
C1175 C1180 1.490 . S
C1176 H1166 0.930 . S
C1176 C1175 1.400 1_554 S
C1176 C1179 1.386 . S
H1177 C1193 0.930 . S
H1178 C1194 0.931 . S
C1179 H1167 0.929 . S
C1179 C1173 1.390 . S
C1179 C1176 1.386 . S
C1180 C1175 1.490 . S
C1180 C1182 1.395 . S
C1180 C1183 1.403 . S
H1181 C1187 0.930 . S
C1182 H1168 0.930 . S
C1182 C1180 1.395 . S
C1182 C1185 1.403 . S
C1183 C1180 1.403 . S
C1183 C1184 1.524 . S
C1183 C1187 1.400 . S
C1184 H1169 0.960 . S
C1184 H1170 0.960 . S
C1184 H1171 0.960 1_556 S
C1184 C1183 1.524 . S
C1185 C1182 1.403 . S
C1185 C1186 1.392 . S
C1185 C1189 1.495 . S
C1186 C1185 1.392 . S
C1186 C1187 1.385 . S
C1186 C1188 1.478 . S
C1187 H1181 0.930 . S
C1187 C1183 1.400 . S
C1187 C1186 1.385 . S
C1188 C1186 1.478 . S
C1188 C1190 1.381 . S
C1188 C1194 1.383 . S
C1189 C1185 1.495 . S
C1189 H1195 0.959 . S
C1189 H1196 0.961 . S
C1189 H1197 0.960 . S
C1190 C1188 1.381 . S
C1190 C1191 1.394 . S
C1190 H1198 0.930 . S
C1191 C1190 1.394 . S
C1191 C1192 1.383 . S
C1191 H1199 0.929 . S
C1192 C1191 1.383 . S
C1192 C1193 1.377 . S
C1193 H1177 0.930 . S
C1193 C1192 1.377 . S
C1193 C1194 1.379 . S
C1194 H1178 0.931 . S
C1194 C1188 1.383 . S
C1194 C1193 1.379 . S
H1195 C1189 0.959 . S
H1196 C1189 0.961 . S
H1197 C1189 0.960 . S
H1198 C1190 0.930 . S
H1199 C1191 0.929 . S
H1200 C1208 0.929 . S
H1201 C1210 0.930 . S
H1202 C1212 0.930 . S
H1203 C1215 0.929 . S
H1204 C1218 0.930 . S
H1205 C1220 0.960 . S
H1206 C1220 0.960 . S
H1207 C1220 0.960 . S
C1208 H1200 0.929 . S
C1208 C1209 1.377 . S
C1208 C1210 1.384 . S
C1209 C1208 1.377 . S
C1209 C1215 1.390 . S
C1210 H1201 0.930 . S
C1210 C1208 1.384 . S
C1210 C1211 1.372 . S
C1211 C1210 1.372 . S
C1211 C1212 1.400 . S
C1211 C1216 1.490 . S
C1212 H1202 0.930 . S
C1212 C1211 1.400 . S
C1212 C1215 1.386 . S
H1213 C1229 0.897 1_655 S
H1214 C1230 0.931 . S
C1215 H1203 0.929 . S
C1215 C1209 1.390 . S
C1215 C1212 1.386 . S
C1216 C1211 1.490 . S
C1216 C1218 1.395 . S
C1216 C1219 1.403 . S
H1217 C1223 0.930 . S
C1218 H1204 0.930 . S
C1218 C1216 1.395 . S
C1218 C1221 1.403 . S
C1219 C1216 1.403 . S
C1219 C1220 1.524 . S
C1219 C1223 1.400 . S
C1220 H1205 0.960 . S
C1220 H1206 0.960 . S
C1220 H1207 0.960 . S
C1220 C1219 1.524 . S
C1221 C1218 1.403 . S
C1221 C1222 1.392 . S
C1221 C1225 1.495 . S
C1222 C1221 1.392 . S
C1222 C1223 1.385 . S
C1222 C1224 1.478 . S
C1223 H1217 0.930 . S
C1223 C1219 1.400 . S
C1223 C1222 1.385 . S
C1224 C1222 1.478 . S
C1224 C1226 1.381 . S
C1224 C1230 1.383 . S
C1225 C1221 1.495 . S
C1225 H1231 0.959 . S
C1225 H1232 0.961 . S
C1225 H1233 0.960 . S
C1226 C1224 1.381 . S
C1226 C1227 1.394 . S
C1226 H1234 0.930 . S
C1227 C1226 1.394 . S
C1227 C1228 1.383 . S
C1227 H1235 0.929 . S
C1228 C1227 1.383 . S
C1228 C1229 1.377 . S
C1229 H1213 0.897 1_455 S
C1229 C1228 1.377 . S
C1229 C1230 1.379 . S
C1230 H1214 0.931 . S
C1230 C1224 1.383 . S
C1230 C1229 1.379 . S
H1231 C1225 0.959 . S
H1232 C1225 0.961 . S
H1233 C1225 0.960 . S
H1234 C1226 0.930 . S
H1235 C1227 0.929 . S
H1236 C1244 0.929 . S
H1237 C1246 0.930 . S
H1238 C1248 0.930 . S
H1239 C1251 0.929 . S
H1240 C1254 0.930 . S
H1241 C1256 0.960 . S
H1242 C1256 0.960 . S
H1243 C1256 0.960 . S
C1244 H1236 0.929 . S
C1244 C1245 1.377 . S
C1244 C1246 1.384 . S
C1245 C1244 1.377 . S
C1245 C1251 1.390 . S
C1246 H1237 0.930 . S
C1246 C1244 1.384 . S
C1246 C1247 1.372 . S
C1247 C1246 1.372 . S
C1247 C1248 1.400 . S
C1247 C1252 1.490 . S
C1248 H1238 0.930 . S
C1248 C1247 1.400 . S
C1248 C1251 1.386 . S
H1249 C1265 0.930 . S
H1250 C1266 0.931 . S
C1251 H1239 0.929 . S
C1251 C1245 1.390 . S
C1251 C1248 1.386 . S
C1252 C1247 1.490 . S
C1252 C1254 1.395 . S
C1252 C1255 1.403 . S
H1253 C1259 0.930 . S
C1254 H1240 0.930 . S
C1254 C1252 1.395 . S
C1254 C1257 1.403 . S
C1255 C1252 1.403 . S
C1255 C1256 1.524 . S
C1255 C1259 1.400 . S
C1256 H1241 0.960 . S
C1256 H1242 0.960 . S
C1256 H1243 0.960 . S
C1256 C1255 1.524 . S
C1257 C1254 1.403 . S
C1257 C1258 1.392 . S
C1257 C1261 1.540 . S
C1258 C1257 1.392 . S
C1258 C1259 1.385 . S
C1258 C1260 1.478 . S
C1259 H1253 0.930 . S
C1259 C1255 1.400 . S
C1259 C1258 1.385 . S
C1260 C1258 1.478 . S
C1260 C1262 1.381 . S
C1260 C1266 1.383 . S
C1261 C1257 1.540 . S
C1261 H1267 0.937 1_545 S
C1261 H1268 0.921 1_545 S
C1261 H1269 0.980 . S
C1262 C1260 1.381 . S
C1262 C1263 1.394 . S
C1262 H1270 0.930 . S
C1263 C1262 1.394 . S
C1263 C1264 1.383 . S
C1263 H1271 0.929 . S
C1264 C1263 1.383 . S
C1264 C1265 1.377 . S
C1265 H1249 0.930 . S
C1265 C1264 1.377 . S
C1265 C1266 1.379 . S
C1266 H1250 0.931 . S
C1266 C1260 1.383 . S
C1266 C1265 1.379 . S
H1267 C1261 0.937 1_565 S
H1268 C1261 0.921 1_565 S
H1269 C1261 0.980 . S
H1270 C1262 0.930 . S
H1271 C1263 0.929 . S
H1272 C1280 0.929 . S
H1273 C1282 0.930 . S
H1274 C1284 0.930 . S
H1275 C1287 0.929 . S
H1276 C1290 0.930 . S
H1277 C1292 0.960 . S
H1278 C1292 0.960 . S
H1279 C1292 0.960 . S
C1280 H1272 0.929 . S
C1280 C1281 1.377 . S
C1280 C1282 1.384 . S
C1281 C1280 1.377 . S
C1281 C1287 1.390 . S
C1282 H1273 0.930 . S
C1282 C1280 1.384 . S
C1282 C1283 1.372 . S
C1283 C1282 1.372 . S
C1283 C1284 1.400 . S
C1283 C1288 1.490 . S
C1284 H1274 0.930 . S
C1284 C1283 1.400 . S
C1284 C1287 1.386 . S
H1285 C1301 0.930 . S
H1286 C1302 0.931 . S
C1287 H1275 0.929 . S
C1287 C1281 1.390 . S
C1287 C1284 1.386 . S
C1288 C1283 1.490 . S
C1288 C1290 1.395 . S
C1288 C1291 1.403 . S
H1289 C1295 0.930 . S
C1290 H1276 0.930 . S
C1290 C1288 1.395 . S
C1290 C1293 1.403 . S
C1291 C1288 1.403 . S
C1291 C1292 1.524 . S
C1291 C1295 1.400 . S
C1292 H1277 0.960 . S
C1292 H1278 0.960 . S
C1292 H1279 0.960 . S
C1292 C1291 1.524 . S
C1293 C1290 1.403 . S
C1293 C1294 1.392 . S
C1293 C1297 1.495 . S
C1294 C1293 1.392 . S
C1294 C1295 1.385 . S
C1294 C1296 1.478 . S
C1295 H1289 0.930 . S
C1295 C1291 1.400 . S
C1295 C1294 1.385 . S
C1296 C1294 1.478 . S
C1296 C1298 1.381 . S
C1296 C1302 1.383 . S
C1297 C1293 1.495 . S
C1297 H1303 0.959 . S
C1297 H1304 0.961 . S
C1297 H1305 0.960 . S
C1298 C1296 1.381 . S
C1298 C1299 1.394 . S
C1298 H1306 0.930 . S
C1299 C1298 1.394 . S
C1299 C1300 1.383 . S
C1299 H1307 0.929 . S
C1300 C1299 1.383 . S
C1300 C1301 1.377 . S
C1301 H1285 0.930 . S
C1301 C1300 1.377 . S
C1301 C1302 1.379 . S
C1302 H1286 0.931 . S
C1302 C1296 1.383 . S
C1302 C1301 1.379 . S
H1303 C1297 0.959 . S
H1304 C1297 0.961 . S
H1305 C1297 0.960 . S
H1306 C1298 0.930 . S
H1307 C1299 0.929 . S
H1308 C1316 0.929 . S
H1309 C1318 0.930 . S
H1310 C1320 0.930 . S
H1311 C1323 0.929 . S
H1312 C1326 0.930 . S
H1313 C1328 0.960 . S
H1314 C1328 0.960 . S
H1315 C1328 0.960 . S
C1316 H1308 0.929 . S
C1316 C1317 1.377 . S
C1316 C1318 1.384 . S
C1317 C1316 1.377 . S
C1317 C1323 1.390 . S
C1318 H1309 0.930 . S
C1318 C1316 1.384 . S
C1318 C1319 1.372 . S
C1319 C1318 1.372 . S
C1319 C1320 1.400 . S
C1319 C1324 1.490 . S
C1320 H1310 0.930 . S
C1320 C1319 1.400 . S
C1320 C1323 1.386 . S
H1321 C1337 0.930 . S
H1322 C1338 0.931 . S
C1323 H1311 0.929 . S
C1323 C1317 1.390 . S
C1323 C1320 1.386 . S
C1324 C1319 1.490 . S
C1324 C1326 1.395 . S
C1324 C1327 1.403 . S
H1325 C1331 0.930 . S
C1326 H1312 0.930 . S
C1326 C1324 1.395 . S
C1326 C1329 1.403 . S
C1327 C1324 1.403 . S
C1327 C1328 1.524 . S
C1327 C1331 1.400 . S
C1328 H1313 0.960 . S
C1328 H1314 0.960 . S
C1328 H1315 0.960 . S
C1328 C1327 1.524 . S
C1329 C1326 1.403 . S
C1329 C1330 1.392 . S
C1329 C1333 1.495 . S
C1330 C1329 1.392 . S
C1330 C1331 1.385 . S
C1330 C1332 1.478 . S
C1331 H1325 0.930 . S
C1331 C1327 1.400 . S
C1331 C1330 1.385 . S
C1332 C1330 1.478 . S
C1332 C1334 1.381 . S
C1332 C1338 1.383 . S
C1333 C1329 1.495 . S
C1333 H1339 0.959 . S
C1333 H1340 0.961 . S
C1333 H1341 0.960 . S
C1334 C1332 1.381 . S
C1334 C1335 1.394 . S
C1334 H1342 0.930 . S
C1335 C1334 1.394 . S
C1335 C1336 1.383 . S
C1335 H1343 0.929 . S
C1336 C1335 1.383 . S
C1336 C1337 1.377 . S
C1337 H1321 0.930 . S
C1337 C1336 1.377 . S
C1337 C1338 1.379 . S
C1338 H1322 0.931 . S
C1338 C1332 1.383 . S
C1338 C1337 1.379 . S
H1339 C1333 0.959 . S
H1340 C1333 0.961 . S
H1341 C1333 0.960 . S
H1342 C1334 0.930 . S
H1343 C1335 0.929 . S
H1344 C1352 0.929 . S
H1345 C1354 0.930 . S
H1346 C1356 0.974 . S
H1347 C1359 0.929 . S
H1348 C1362 0.930 . S
H1349 C1364 0.960 1_455 S
H1350 C1364 0.960 . S
H1351 C1364 0.960 1_455 S
C1352 H1344 0.929 . S
C1352 C1353 1.377 . S
C1352 C1354 1.384 . S
C1353 C1352 1.377 . S
C1353 C1359 1.390 . S
C1354 H1345 0.930 . S
C1354 C1352 1.384 . S
C1354 C1355 1.372 . S
C1355 C1354 1.372 . S
C1355 C1356 1.400 . S
C1355 C1360 1.490 . S
C1356 H1346 0.974 . S
C1356 C1355 1.400 . S
C1356 C1359 1.386 . S
H1357 C1373 0.930 . S
H1358 C1374 0.931 . S
C1359 H1347 0.929 . S
C1359 C1353 1.390 . S
C1359 C1356 1.386 . S
C1360 C1355 1.490 . S
C1360 C1362 1.395 . S
C1360 C1363 1.403 . S
H1361 C1367 0.930 . S
C1362 H1348 0.930 . S
C1362 C1360 1.395 . S
C1362 C1365 1.403 . S
C1363 C1360 1.403 . S
C1363 C1364 1.524 . S
C1363 C1367 1.400 . S
C1364 H1349 0.960 1_655 S
C1364 H1350 0.960 . S
C1364 H1351 0.960 1_655 S
C1364 C1363 1.524 . S
C1365 C1362 1.403 . S
C1365 C1366 1.392 . S
C1365 C1369 1.495 . S
C1366 C1365 1.392 . S
C1366 C1367 1.385 . S
C1366 C1368 1.478 . S
C1367 H1361 0.930 . S
C1367 C1363 1.400 . S
C1367 C1366 1.385 . S
C1368 C1366 1.478 . S
C1368 C1370 1.381 . S
C1368 C1374 1.383 1_655 S
C1369 C1365 1.495 . S
C1369 H1375 0.959 . S
C1369 H1376 0.961 . S
C1369 H1377 0.960 . S
C1370 C1368 1.381 . S
C1370 C1371 1.394 . S
C1370 H1378 0.930 . S
C1371 C1370 1.394 . S
C1371 C1372 1.383 . S
C1371 H1379 0.929 . S
C1372 C1371 1.383 . S
C1372 C1373 1.377 1_655 S
C1373 H1357 0.930 . S
C1373 C1372 1.377 1_455 S
C1373 C1374 1.379 . S
C1374 H1358 0.931 . S
C1374 C1368 1.383 1_455 S
C1374 C1373 1.379 . S
H1375 C1369 0.959 . S
H1376 C1369 0.961 . S
H1377 C1369 0.960 . S
H1378 C1370 0.930 . S
H1379 C1371 0.929 . S
H1380 C1388 0.929 . S
H1381 C1390 0.930 . S
H1382 C1392 0.930 . S
H1383 C1395 0.929 . S
H1384 C1398 0.930 . S
H1385 C1400 0.960 . S
H1386 C1400 0.960 . S
H1387 C1400 0.960 . S
C1388 H1380 0.929 . S
C1388 C1389 1.377 . S
C1388 C1390 1.384 . S
C1389 C1388 1.377 . S
C1389 C1395 1.390 . S
C1390 H1381 0.930 . S
C1390 C1388 1.384 . S
C1390 C1391 1.372 . S
C1391 C1390 1.372 . S
C1391 C1392 1.400 . S
C1391 C1396 1.490 . S
C1392 H1382 0.930 . S
C1392 C1391 1.400 . S
C1392 C1395 1.386 . S
H1393 C1409 0.930 . S
H1394 C1410 0.931 . S
C1395 H1383 0.929 . S
C1395 C1389 1.390 . S
C1395 C1392 1.386 . S
C1396 C1391 1.490 . S
C1396 C1398 1.395 . S
C1396 C1399 1.403 . S
H1397 C1403 0.930 1_545 S
C1398 H1384 0.930 . S
C1398 C1396 1.395 . S
C1398 C1401 1.403 . S
C1399 C1396 1.403 . S
C1399 C1400 1.524 1_565 S
C1399 C1403 1.400 . S
C1400 H1385 0.960 . S
C1400 H1386 0.960 . S
C1400 H1387 0.960 . S
C1400 C1399 1.524 1_545 S
C1401 C1398 1.403 . S
C1401 C1402 1.392 . S
C1401 C1405 1.495 . S
C1402 C1401 1.392 . S
C1402 C1403 1.385 . S
C1402 C1404 1.478 . S
C1403 H1397 0.930 1_565 S
C1403 C1399 1.400 . S
C1403 C1402 1.385 . S
C1404 C1402 1.478 . S
C1404 C1406 1.381 . S
C1404 C1410 1.383 . S
C1405 C1401 1.495 . S
C1405 H1411 0.959 . S
C1405 H1412 0.961 . S
C1405 H1413 0.960 . S
C1406 C1404 1.381 . S
C1406 C1407 1.394 . S
C1406 H1414 0.930 . S
C1407 C1406 1.394 . S
C1407 C1408 1.383 . S
C1407 H1415 0.929 . S
C1408 C1407 1.383 . S
C1408 C1409 1.377 . S
C1409 H1393 0.930 . S
C1409 C1408 1.377 . S
C1409 C1410 1.379 . S
C1410 H1394 0.931 . S
C1410 C1404 1.383 . S
C1410 C1409 1.379 . S
H1411 C1405 0.959 . S
H1412 C1405 0.961 . S
H1413 C1405 0.960 . S
H1414 C1406 0.930 . S
H1415 C1407 0.929 . S
H1416 C1424 0.929 . S
H1417 C1426 0.930 . S
H1418 C1428 0.930 . S
H1419 C1431 0.929 . S
H1420 C1434 0.930 . S
H1421 C1436 0.960 . S
H1422 C1436 0.960 . S
H1423 C1436 0.960 . S
C1424 H1416 0.929 . S
C1424 C1425 1.377 . S
C1424 C1426 1.384 . S
C1425 C1424 1.377 . S
C1425 C1431 1.390 . S
C1426 H1417 0.930 . S
C1426 C1424 1.384 . S
C1426 C1427 1.372 . S
C1427 C1426 1.372 . S
C1427 C1428 1.400 . S
C1427 C1432 1.490 . S
C1428 H1418 0.930 . S
C1428 C1427 1.400 . S
C1428 C1431 1.386 . S
H1429 C1445 0.930 . S
H1430 C1446 0.931 . S
C1431 H1419 0.929 . S
C1431 C1425 1.390 . S
C1431 C1428 1.386 . S
C1432 C1427 1.490 . S
C1432 C1434 1.395 . S
C1432 C1435 1.403 . S
H1433 C1439 0.930 . S
C1434 H1420 0.930 . S
C1434 C1432 1.395 . S
C1434 C1437 1.403 . S
C1435 C1432 1.403 . S
C1435 C1436 1.524 . S
C1435 C1439 1.400 . S
C1436 H1421 0.960 . S
C1436 H1422 0.960 . S
C1436 H1423 0.960 . S
C1436 C1435 1.524 . S
C1437 C1434 1.403 . S
C1437 C1438 1.392 . S
C1437 C1441 1.495 . S
C1438 C1437 1.392 . S
C1438 C1439 1.385 . S
C1438 C1440 1.478 . S
C1439 H1433 0.930 . S
C1439 C1435 1.400 . S
C1439 C1438 1.385 . S
C1440 C1438 1.478 . S
C1440 C1442 1.381 . S
C1440 C1446 1.383 . S
C1441 C1437 1.495 . S
C1441 H1447 0.959 . S
C1441 H1448 0.961 . S
C1441 H1449 0.960 . S
C1442 C1440 1.381 . S
C1442 C1443 1.394 . S
C1442 H1450 0.930 . S
C1443 C1442 1.394 . S
C1443 C1444 1.383 . S
C1443 H1451 0.929 . S
C1444 C1443 1.383 . S
C1444 C1445 1.377 . S
C1445 H1429 0.930 . S
C1445 C1444 1.377 . S
C1445 C1446 1.379 . S
C1446 H1430 0.931 . S
C1446 C1440 1.383 . S
C1446 C1445 1.379 . S
H1447 C1441 0.959 . S
H1448 C1441 0.961 . S
H1449 C1441 0.960 . S
H1450 C1442 0.930 . S
H1451 C1443 0.929 . S
H1452 C1460 0.929 . S
H1453 C1462 0.930 . S
H1454 C1464 0.930 . S
H1455 C1467 0.929 . S
H1456 C1470 0.930 . S
H1457 C1472 0.960 . S
H1458 C1472 0.960 . S
H1459 C1472 0.960 . S
C1460 H1452 0.929 . S
C1460 C1461 1.377 . S
C1460 C1462 1.384 . S
C1461 C1460 1.377 . S
C1461 C1467 1.390 . S
C1462 H1453 0.930 . S
C1462 C1460 1.384 . S
C1462 C1463 1.372 . S
C1463 C1462 1.372 . S
C1463 C1464 1.400 . S
C1463 C1468 1.490 . S
C1464 H1454 0.930 . S
C1464 C1463 1.400 . S
C1464 C1467 1.386 . S
H1465 C1481 0.930 . S
H1466 C1482 0.931 . S
C1467 H1455 0.929 . S
C1467 C1461 1.390 . S
C1467 C1464 1.386 . S
C1468 C1463 1.490 . S
C1468 C1470 1.395 . S
C1468 C1471 1.403 . S
H1469 C1475 0.930 . S
C1470 H1456 0.930 . S
C1470 C1468 1.395 . S
C1470 C1473 1.403 . S
C1471 C1468 1.403 . S
C1471 C1472 1.524 . S
C1471 C1475 1.400 . S
C1472 H1457 0.960 . S
C1472 H1458 0.960 . S
C1472 H1459 0.960 . S
C1472 C1471 1.524 . S
C1473 C1470 1.403 . S
C1473 C1474 1.392 . S
C1473 C1477 1.495 . S
C1474 C1473 1.392 . S
C1474 C1475 1.385 . S
C1474 C1476 1.478 . S
C1475 H1469 0.930 . S
C1475 C1471 1.400 . S
C1475 C1474 1.385 . S
C1476 C1474 1.478 . S
C1476 C1478 1.381 . S
C1476 C1482 1.383 . S
C1477 C1473 1.495 . S
C1477 H1483 0.959 . S
C1477 H1484 0.961 . S
C1477 H1485 0.960 . S
C1478 C1476 1.381 . S
C1478 C1479 1.394 . S
C1478 H1486 0.930 . S
C1479 C1478 1.394 . S
C1479 C1480 1.383 . S
C1479 H1487 0.929 . S
C1480 C1479 1.383 . S
C1480 C1481 1.377 . S
C1481 H1465 0.930 . S
C1481 C1480 1.377 . S
C1481 C1482 1.379 . S
C1482 H1466 0.931 . S
C1482 C1476 1.383 . S
C1482 C1481 1.379 . S
H1483 C1477 0.959 . S
H1484 C1477 0.961 . S
H1485 C1477 0.960 . S
H1486 C1478 0.930 . S
H1487 C1479 0.929 . S
C633 C241 2.044 . S
C652 C351 2.179 . S
C688 C428 2.196 . S
C669 C277 2.091 . S
C724 C519 2.163 . S
C705 C169 2.036 . S
C760 C603 2.167 . S
C741 C205 2.032 . S
C796 C362 2.170 1_565 S
C777 C97 2.018 . S
C813 C133 2.119 . S
C832 C439 2.211 . S
C849 C25 2.014 . S
C868 C530 2.170 . S
C885 C61 2.003 . S
C904 C614 2.150 1_655 S
C940 C346 0.474 1_455 S
C921 C211 0.274 . S
C976 C441 0.432 . S
C957 C247 0.262 . S
C1012 C514 0.519 . S
C993 C253 0.329 . S
C1029 C175 0.263 . S
C1048 C598 0.518 . S
C1065 C67 0.375 . S
C1084 C357 0.509 . S
C1120 C430 0.546 . S
C1101 C103 0.369 . S
C1156 C525 0.508 . S
C1137 C109 0.276 . S
C1173 C31 0.362 . S
C1192 C609 0.471 . S
C1209 C181 2.440 . S
C1228 C355 2.648 . S
C1245 C217 2.424 . S
C1264 C446 2.642 . S
C1300 C523 2.663 . S
C1281 C283 2.381 . S
C1336 C607 2.648 . S
C1317 C145 2.456 . S
C1353 C37 2.418 . S
C1372 C344 2.631 . S
C1408 C435 2.649 . S
C1389 C73 2.404 . S
C1444 C512 2.656 . S
C1425 C139 2.402 . S
C1461 C1 2.432 . S
C1480 C596 2.658 . S
