# Generated by pormake.
# Topology anh, (6,3)-cn, num edge types: 1
# Building blocks:
#     Node 0, Type 0, BuildingBlock: BETDAH_clean_sbu_0, # of connection points: 6
#     Node 1, Type 0, BuildingBlock: BETDAH_clean_sbu_0, # of connection points: 6
#     Node 2, Type 0, BuildingBlock: BETDAH_clean_sbu_0, # of connection points: 6
#     Node 3, Type 1, BuildingBlock: KAKCAD_clean_linker_0, # of connection points: 3
#     Node 4, Type 1, BuildingBlock: KAKCAD_clean_linker_0, # of connection points: 3
#     Node 5, Type 1, BuildingBlock: KAKCAD_clean_linker_0, # of connection points: 3
#     Node 6, Type 1, BuildingBlock: KAKCAD_clean_linker_0, # of connection points: 3
#     Node 7, Type 1, BuildingBlock: KAKCAD_clean_linker_0, # of connection points: 3
#     Node 8, Type 1, BuildingBlock: KAKCAD_clean_linker_0, # of connection points: 3
#     Edge 9, Type (0, 1), BuildingBlock: ZUJKAS_clean_linker_0, # of connection points: 2
#     Edge 10, Type (0, 1), BuildingBlock: ZUJKAS_clean_linker_0, # of connection points: 2
#     Edge 11, Type (0, 1), BuildingBlock: ZUJKAS_clean_linker_0, # of connection points: 2
#     Edge 12, Type (0, 1), BuildingBlock: ZUJKAS_clean_linker_0, # of connection points: 2
#     Edge 13, Type (0, 1), BuildingBlock: ZUJKAS_clean_linker_0, # of connection points: 2
#     Edge 14, Type (0, 1), BuildingBlock: ZUJKAS_clean_linker_0, # of connection points: 2
#     Edge 15, Type (0, 1), BuildingBlock: ZUJKAS_clean_linker_0, # of connection points: 2
#     Edge 16, Type (0, 1), BuildingBlock: ZUJKAS_clean_linker_0, # of connection points: 2
#     Edge 17, Type (0, 1), BuildingBlock: ZUJKAS_clean_linker_0, # of connection points: 2
#     Edge 18, Type (0, 1), BuildingBlock: ZUJKAS_clean_linker_0, # of connection points: 2
#     Edge 19, Type (0, 1), BuildingBlock: ZUJKAS_clean_linker_0, # of connection points: 2
#     Edge 20, Type (0, 1), BuildingBlock: ZUJKAS_clean_linker_0, # of connection points: 2
#     Edge 21, Type (0, 1), BuildingBlock: ZUJKAS_clean_linker_0, # of connection points: 2
#     Edge 22, Type (0, 1), BuildingBlock: ZUJKAS_clean_linker_0, # of connection points: 2
#     Edge 23, Type (0, 1), BuildingBlock: ZUJKAS_clean_linker_0, # of connection points: 2
#     Edge 24, Type (0, 1), BuildingBlock: ZUJKAS_clean_linker_0, # of connection points: 2
#     Edge 25, Type (0, 1), BuildingBlock: ZUJKAS_clean_linker_0, # of connection points: 2
#     Edge 26, Type (0, 1), BuildingBlock: ZUJKAS_clean_linker_0, # of connection points: 2
# Relax obj value: 0.163
# Max RMSD: 0.200
# Mean RMSD: 0.150
data_MOF--net-anh--node1-BETDAH_clean_sbu_0--node2-KAKCAD_clean_linker_0--edge1-ZUJKAS_clean_linker_0
_symmetry_space_group_name_H-M    P1
_symmetry_Int_Tables_number       1
_symmetry_cell_setting            triclinic
loop_
_symmetry_equiv_pos_as_xyz
'x, y, z'
_cell_length_a     45.517674
_cell_length_b     52.443124
_cell_length_c     82.190583
_cell_angle_alpha  92.838961
_cell_angle_beta   89.159809
_cell_angle_gamma 126.92816
loop_
_atom_site_label
_atom_site_type_symbol
_atom_site_fract_x
_atom_site_fract_y
_atom_site_fract_z
_atom_type_partial_charge
Ho0 Ho 0.09054 0.53131 0.14832 0.0
Ho1 Ho 0.05016 0.55646 0.16271 0.0
C2 C 0.1354 0.60813 0.15858 0.0
C3 C 0.13275 0.52297 0.13163 0.0
C4 C 0.17095 0.5352 0.13427 0.0
C5 C 0.18854 0.5287 0.12257 0.0
C6 C 0.2232 0.5367 0.126 0.0
C7 C 0.24049 0.55107 0.14125 0.0
C8 C 0.2235 0.559 0.15263 0.0
C9 C 0.18901 0.55125 0.14912 0.0
C10 C 0.0828 0.52806 0.18081 0.0
C11 C 1.006 0.48059 0.15299 0.0
C12 C 1.00551 0.56051 0.18002 0.0
C13 C 0.96783 0.53432 0.1848 0.0
C14 C 0.9613 0.51029 0.19473 0.0
C15 C 0.92577 0.48202 0.19611 0.0
C16 C 0.89641 0.47722 0.1874 0.0
C17 C 0.90251 0.5021 0.17846 0.0
C18 C 0.93784 0.53047 0.17727 0.0
C19 C 0.05853 0.55946 0.13016 0.0
O20 O 0.13496 0.58512 0.15075 0.0
O21 O 0.10602 0.60248 0.16578 0.0
O22 O 0.10997 0.50336 0.14248 0.0
O23 O 0.12762 0.54417 0.12825 0.0
O24 O 0.08245 0.5071 0.17163 0.0
O25 O 0.09021 0.55073 0.17257 0.0
O26 O 1.00899 0.50261 0.163 0.0
O27 O 1.03301 0.48775 0.14323 0.0
O28 O 1.00966 0.56545 0.16442 0.0
O29 O 1.03228 0.56134 0.18642 0.0
O30 O 0.0599 0.58113 0.13928 0.0
O31 O 0.05057 0.53678 0.13855 0.0
H32 H 0.17487 0.5163 0.11107 0.0
H33 H 0.23548 0.52996 0.1171 0.0
H34 H 0.23634 0.57019 0.16442 0.0
H35 H 0.17573 0.55655 0.15826 0.0
H36 H 0.98379 0.51244 0.20072 0.0
H37 H 0.92165 0.46317 0.2031 0.0
H38 H 0.88008 0.49913 0.17191 0.0
H39 H 0.94202 0.54862 0.16963 0.0
Ho40 Ho 0.59805 0.0198 0.49 0.0
Ho41 Ho 0.54956 0.03965 0.48192 0.0
C42 C 0.51027 0.96573 0.48295 0.0
C43 C 0.62715 0.99498 0.50221 0.0
C44 C 0.618 0.96312 0.50425 0.0
C45 C 0.58686 0.93956 0.51276 0.0
C46 C 0.58022 0.9103 0.51526 0.0
C47 C 0.6045 0.90397 0.50925 0.0
C48 C 0.63505 0.92734 0.50037 0.0
C49 C 0.64178 0.95659 0.49798 0.0
C50 C 0.59436 0.02829 0.45824 0.0
C51 C 0.6382 0.09398 0.48808 0.0
C52 C 0.52147 0.0659 0.4705 0.0
C53 C 0.52825 0.09677 0.47408 0.0
C54 C 0.51071 0.10586 0.46478 0.0
C55 C 0.51592 0.13463 0.46863 0.0
C56 C 0.53871 0.15476 0.48191 0.0
C57 C 0.55672 0.14566 0.49102 0.0
C58 C 0.55158 0.11698 0.48712 0.0
C59 C 0.55472 0.03257 0.5138 0.0
O60 O 0.54019 0.97367 0.49075 0.0
O61 O 0.50954 0.98729 0.4757 0.0
O62 O 0.63258 0.00434 0.4873 0.0
O63 O 0.6089 1.00273 0.5108 0.0
O64 O 0.62371 0.03539 0.46546 0.0
O65 O 0.56786 0.01519 0.46787 0.0
O66 O 0.60705 0.08622 0.48173 0.0
O67 O 0.64049 0.07245 0.4943 0.0
O68 O 0.50704 0.04622 0.48233 0.0
O69 O 0.5483 0.06717 0.46351 0.0
O70 O 0.5252 0.02564 0.50689 0.0
O71 O 0.58043 0.04499 0.50381 0.0
H72 H 0.56794 0.94387 0.51772 0.0
H73 H 0.55661 0.893 0.52227 0.0
H74 H 0.65393 0.9231 0.49527 0.0
H75 H 0.6659 0.97433 0.49133 0.0
H76 H 0.49274 0.09057 0.45463 0.0
H77 H 0.50209 0.1411 0.4612 0.0
H78 H 0.57405 0.16028 0.50145 0.0
H79 H 0.56534 0.11028 0.49445 0.0
Ho80 Ho 0.60381 0.55593 0.85017 0.0
Ho81 Ho 0.55235 0.48366 0.85264 0.0
C82 C 0.51493 0.51907 0.85316 0.0
C83 C 0.63688 0.61423 0.84212 0.0
C84 C 0.62746 0.63603 0.83922 0.0
C85 C 0.59409 0.62519 0.83164 0.0
C86 C 0.58641 0.6467 0.82863 0.0
C87 C 0.61182 0.67931 0.83329 0.0
C88 C 0.64488 0.68988 0.84112 0.0
C89 C 0.65262 0.66844 0.84402 0.0
C90 C 0.59447 0.53494 0.88039 0.0
C91 C 0.64195 0.52093 0.85027 0.0
C92 C 0.52004 0.42519 0.86015 0.0
C93 C 0.5262 0.40075 0.85714 0.0
C94 C 0.55986 0.40676 0.86109 0.0
C95 C 0.5653 0.38351 0.85758 0.0
C96 C 0.53722 0.35378 0.85004 0.0
C97 C 0.50348 0.34782 0.84625 0.0
C98 C 0.49804 0.37102 0.8498 0.0
C99 C 0.56244 0.50426 0.82222 0.0
O100 O 0.54683 0.5441 0.8479 0.0
O101 O 0.51168 0.49389 0.85821 0.0
O102 O 0.63461 0.60625 0.85716 0.0
O103 O 0.62413 0.59016 0.83152 0.0
O104 O 0.62549 0.55961 0.87531 0.0
O105 O 0.56976 0.52384 0.86959 0.0
O106 O 0.60911 0.49473 0.85387 0.0
O107 O 0.64635 0.54733 0.84658 0.0
O108 O 0.51094 0.43308 0.84737 0.0
O109 O 0.54351 0.44988 0.86985 0.0
O110 O 0.53168 0.47929 0.82721 0.0
O111 O 0.58683 0.5156 0.8332 0.0
H112 H 0.5741 0.6002 0.82795 0.0
H113 H 0.56054 0.6378 0.82274 0.0
H114 H 0.66517 0.71489 0.84468 0.0
H115 H 0.6785 0.67723 0.84989 0.0
H116 H 0.58203 0.42944 0.86683 0.0
H117 H 0.59145 0.38877 0.86087 0.0
H118 H 0.48144 0.32543 0.84021 0.0
H119 H 0.47189 0.36587 0.84661 0.0
C120 C 0.59141 0.07196 0.27736 0.0
C121 C 0.58311 0.04477 0.28476 0.0
C122 C 0.59098 0.07277 0.2604 0.0
C123 C 0.58225 0.04642 0.25043 0.0
C124 C 0.57426 0.01934 0.25782 0.0
C125 C 0.57468 0.01852 0.27478 0.0
C126 C 0.58056 0.0469 0.2324 0.0
C127 C 0.60711 0.07441 0.22426 0.0
C128 C 0.60499 0.07558 0.20727 0.0
C129 C 0.5761 0.04813 0.19831 0.0
C130 C 0.54916 0.02036 0.20634 0.0
C131 C 0.55178 0.02004 0.22333 0.0
C132 C 0.51751 0.99151 0.19736 0.0
C133 C 0.48192 0.97589 0.20352 0.0
C134 C 0.52273 0.97787 0.18353 0.0
C135 C 0.49316 0.94835 0.17653 0.0
C136 C 0.45779 0.9321 0.18314 0.0
C137 C 0.63273 0.10592 0.19924 0.0
C138 C 0.64532 0.1354 0.20705 0.0
C139 C 0.6479 0.10598 0.1842 0.0
C140 C 0.67581 0.13487 0.17742 0.0
C141 C 0.68919 0.16437 0.18554 0.0
C142 C 0.67326 0.16413 0.20038 0.0
C143 C 0.4525 0.9466 0.19653 0.0
H144 H 0.59844 0.09273 0.28468 0.0
H145 H 0.59689 0.09387 0.2551 0.0
H146 H 0.56777 0.99876 0.25049 0.0
H147 H 0.56781 0.99708 0.28007 0.0
H148 H 0.62987 0.09492 0.23121 0.0
H149 H 0.531 0.99878 0.22955 0.0
H150 H 0.57374 0.04872 0.18526 0.0
H151 H 0.47697 0.98597 0.21407 0.0
H152 H 0.54989 0.98936 0.17856 0.0
H153 H 0.49811 0.93803 0.16611 0.0
H154 H 0.63383 0.13637 0.21849 0.0
H155 H 0.63893 0.08373 0.17786 0.0
H156 H 0.42586 0.93473 0.2021 0.0
H157 H 0.68299 0.18618 0.20716 0.0
H158 H 0.687 0.13405 0.16586 0.0
C159 C 0.56169 0.5427 0.64212 0.0
C160 C 0.58654 0.53997 0.65028 0.0
C161 C 0.55981 0.541 0.62511 0.0
C162 C 0.58271 0.5365 0.61585 0.0
C163 C 0.60767 0.53389 0.624 0.0
C164 C 0.60962 0.53567 0.64103 0.0
C165 C 0.58039 0.53443 0.59775 0.0
C166 C 0.57692 0.55528 0.58945 0.0
C167 C 0.57414 0.55331 0.57236 0.0
C168 C 0.5749 0.53008 0.56351 0.0
C169 C 0.57834 0.50895 0.57162 0.0
C170 C 0.58117 0.5114 0.58873 0.0
C171 C 0.57807 0.48372 0.56238 0.0
C172 C 0.55201 0.46483 0.54983 0.0
C173 C 0.60293 0.47745 0.56653 0.0
C174 C 0.60124 0.4524 0.55859 0.0
C175 C 0.57449 0.43286 0.54635 0.0
C176 C 0.57102 0.57602 0.56393 0.0
C177 C 0.5473 0.583 0.56983 0.0
C178 C 0.59304 0.59213 0.55053 0.0
C179 C 0.59236 0.6156 0.54357 0.0
C180 C 0.56941 0.62323 0.54979 0.0
C181 C 0.54644 0.60628 0.56282 0.0
C182 C 0.55017 0.43964 0.54193 0.0
H183 H 0.54379 0.54634 0.64888 0.0
H184 H 0.54004 0.5428 0.61921 0.0
H185 H 0.62592 0.5307 0.61721 0.0
H186 H 0.62882 0.53318 0.64695 0.0
H187 H 0.57727 0.57366 0.59631 0.0
H188 H 0.58281 0.49465 0.59507 0.0
H189 H 0.57273 0.52839 0.55033 0.0
H190 H 0.53222 0.46886 0.54648 0.0
H191 H 0.6237 0.49191 0.57598 0.0
H192 H 0.62091 0.44833 0.56207 0.0
H193 H 0.52973 0.57074 0.58004 0.0
H194 H 0.6117 0.58736 0.54577 0.0
H195 H 0.52893 0.42487 0.53271 0.0
H196 H 0.52869 0.61176 0.56799 0.0
H197 H 0.61012 0.62805 0.53344 0.0
C198 C 0.1149 0.55882 0.94741 0.0
C199 C 0.0815 0.54342 0.95571 0.0
C200 C 0.11514 0.55512 0.93044 0.0
C201 C 0.08198 0.5359 0.9214 0.0
C202 C 1.04861 0.52027 0.92973 0.0
C203 C 1.04837 0.524 0.94667 0.0
C204 C 0.08202 0.53229 0.90333 0.0
C205 C 0.10636 0.52777 0.89563 0.0
C206 C 0.10632 0.52373 0.87856 0.0
C207 C 0.08102 0.52447 0.86905 0.0
C208 C 0.05634 0.52918 0.87673 0.0
C209 C 0.0574 0.5331 0.89378 0.0
C210 C 1.02843 0.52983 0.86779 0.0
C211 C 1.0292 0.55704 0.86967 0.0
C212 C 0.9968 0.50166 0.86073 0.0
C213 C 0.96601 0.50034 0.85645 0.0
C214 C 0.96607 0.5272 0.8591 0.0
C215 C 0.13331 0.51889 0.87143 0.0
C216 C 0.159 0.53912 0.85982 0.0
C217 C 0.13706 0.4968 0.87818 0.0
C218 C 0.16652 0.49599 0.87415 0.0
C219 C 0.19342 0.51719 0.86315 0.0
C220 C 0.18871 0.53834 0.85577 0.0
C221 C 0.99865 0.55581 0.86535 0.0
H222 H 0.1409 0.57424 0.954 0.0
H223 H 0.14131 0.56778 0.92438 0.0
H224 H 1.02258 0.50483 0.92316 0.0
H225 H 1.02217 0.51131 0.9527 0.0
H226 H 0.12546 0.52718 0.90303 0.0
H227 H 1.03872 0.53687 0.89968 0.0
H228 H 0.08042 0.52131 0.8559 0.0
H229 H 0.05285 0.57892 0.8754 0.0
H230 H 0.99504 0.48012 0.85944 0.0
H231 H 0.94176 0.47796 0.85147 0.0
H232 H 0.15717 0.5566 0.85449 0.0
H233 H 0.11783 0.48086 0.88718 0.0
H234 H 0.99996 0.57695 0.86781 0.0
H235 H 0.20836 0.55475 0.84705 0.0
H236 H 0.16898 0.47956 0.88032 0.0
C237 C 1.03336 0.50151 0.36461 0.0
C238 C 0.06632 0.51868 0.3559 0.0
C239 C 1.03388 0.50251 0.38165 0.0
C240 C 0.06738 0.52004 0.3905 0.0
C241 C 0.10029 0.53655 0.38177 0.0
C242 C 0.09978 0.53631 0.36479 0.0
C243 C 0.06816 0.52153 0.40872 0.0
C244 C 1.04038 0.49553 0.41748 0.0
C245 C 1.04065 0.49704 0.43464 0.0
C246 C 0.07019 0.52476 0.44314 0.0
C247 C 0.09873 0.55066 0.43456 0.0
C248 C 0.09693 0.54908 0.41748 0.0
C249 C 0.13112 0.57968 0.44303 0.0
C250 C 0.12709 0.5969 0.45533 0.0
C251 C 0.16655 0.59191 0.43764 0.0
C252 C 0.19712 0.6215 0.44372 0.0
C253 C 0.19308 0.63977 0.45531 0.0
C254 C 1.01007 0.46918 0.44338 0.0
C255 C 0.97368 0.45244 0.43757 0.0
C256 C 1.01694 0.45797 0.45691 0.0
C257 C 0.98822 0.42996 0.46405 0.0
C258 C 0.95199 0.4126 0.45783 0.0
C259 C 0.9451 0.42451 0.44464 0.0
C260 C 0.15785 0.62676 0.46141 0.0
H261 H 1.00694 0.4871 0.35834 0.0
H262 H 1.00787 0.48979 0.38783 0.0
H263 H 0.12673 0.54976 0.38799 0.0
H264 H 0.12587 0.55041 0.35871 0.0
H265 H 1.01876 0.47363 0.41094 0.0
H266 H 0.11805 0.56981 0.41103 0.0
H267 H 0.07111 0.52615 0.45634 0.0
H268 H 0.10005 0.58803 0.45965 0.0
H269 H 0.17049 0.57887 0.42835 0.0
H270 H 0.22393 0.6304 0.43907 0.0
H271 H 0.96731 0.46066 0.42731 0.0
H272 H 1.04467 0.47022 0.46165 0.0
H273 H 0.1538 0.64026 0.47032 0.0
H274 H 0.91773 0.41171 0.43936 0.0
H275 H 0.99449 0.42174 0.47433 0.0
C276 C 0.55372 0.99074 0.69464 0.0
C277 C 0.57816 0.01927 0.68671 0.0
C278 C 0.55424 0.99048 0.71163 0.0
C279 C 0.57906 0.01878 0.72106 0.0
C280 C 0.60351 0.04729 0.71312 0.0
C281 C 0.60314 0.04752 0.69613 0.0
C282 C 0.57943 0.01859 0.73911 0.0
C283 C 0.57739 0.99431 0.74682 0.0
C284 C 0.57798 0.99404 0.76389 0.0
C285 C 0.58066 0.01851 0.77332 0.0
C286 C 0.58233 0.04289 0.7658 0.0
C287 C 0.58175 0.04267 0.74868 0.0
C288 C 0.58356 0.06813 0.77565 0.0
C289 C 0.5615 0.06048 0.78942 0.0
C290 C 0.60547 0.09986 0.77086 0.0
C291 C 0.60439 0.1231 0.77925 0.0
C292 C 0.58152 0.11528 0.79273 0.0
C293 C 0.57608 0.96818 0.77171 0.0
C294 C 0.55041 0.93623 0.76607 0.0
C295 C 0.60079 0.97526 0.78433 0.0
C296 C 0.6006 0.95098 0.79081 0.0
C297 C 0.57549 0.91906 0.78489 0.0
C298 C 0.55001 0.91197 0.77262 0.0
C299 C 0.56053 0.08378 0.79787 0.0
H300 H 0.53436 0.96854 0.6877 0.0
H301 H 0.53487 0.96819 0.7174 0.0
H302 H 0.62317 0.06942 0.72005 0.0
H303 H 0.62207 0.06993 0.69038 0.0
H304 H 0.57626 0.97595 0.7395 0.0
H305 H 0.58198 0.06079 0.74275 0.0
H306 H 0.58123 0.01843 0.78649 0.0
H307 H 0.54409 0.03625 0.79339 0.0
H308 H 0.62319 0.10671 0.76045 0.0
H309 H 0.62067 0.14699 0.77483 0.0
H310 H 0.53065 0.93001 0.75652 0.0
H311 H 0.62109 0.99972 0.78881 0.0
H312 H 0.54301 0.07701 0.80834 0.0
H313 H 0.52974 0.88761 0.76801 0.0
H314 H 0.6209 0.95741 0.80011 0.0
C315 C 0.53078 0.38976 0.04529 0.0
C316 C 0.54919 0.42142 0.04073 0.0
C317 C 0.52435 0.3825 0.06172 0.0
C318 C 0.53581 0.40672 0.07385 0.0
C319 C 0.55494 0.43842 0.06931 0.0
C320 C 0.56162 0.4457 0.05295 0.0
C321 C 0.52652 0.39906 0.09116 0.0
C322 C 0.53309 0.37953 0.09881 0.0
C323 C 0.52544 0.37339 0.11544 0.0
C324 C 0.51057 0.38684 0.12422 0.0
C325 C 0.50461 0.40695 0.11682 0.0
C326 C 0.51208 0.41242 0.10022 0.0
C327 C 0.4918 0.42319 0.12648 0.0
C328 C 0.46534 0.40738 0.1386 0.0
C329 C 0.50582 0.45475 0.12345 0.0
C330 C 0.49233 0.46953 0.13167 0.0
C331 C 0.46486 0.45336 0.14337 0.0
C332 C 0.5358 0.35534 0.12401 0.0
C333 C 0.53476 0.33049 0.11589 0.0
C334 C 0.54906 0.36426 0.14023 0.0
C335 C 0.56198 0.3496 0.14791 0.0
C336 C 0.56283 0.32615 0.13949 0.0
C337 C 0.54861 0.31632 0.12349 0.0
C338 C 0.45223 0.42238 0.14703 0.0
H339 H 0.52114 0.3706 0.03613 0.0
H340 H 0.50946 0.35786 0.06491 0.0
H341 H 0.56443 0.45761 0.07843 0.0
H342 H 0.57557 0.47026 0.04984 0.0
H343 H 0.54575 0.37043 0.09194 0.0
H344 H 0.5064 0.42703 0.09423 0.0
H345 H 0.5045 0.38237 0.13699 0.0
H346 H 0.45388 0.38305 0.14126 0.0
H347 H 0.52692 0.468 0.11452 0.0
H348 H 0.50247 0.49319 0.1283 0.0
H349 H 0.52412 0.32249 0.10352 0.0
H350 H 0.55139 0.38379 0.14684 0.0
H351 H 0.43153 0.40937 0.15615 0.0
H352 H 0.54925 0.2984 0.11674 0.0
H353 H 0.57368 0.3582 0.16011 0.0
H354 H 0.3028 0.57504 0.1237 0.0
H355 H 0.3505 0.56817 0.12889 0.0
H356 H 0.2993 0.52491 0.17408 0.0
H357 H 0.25206 0.53222 0.16913 0.0
H358 H 0.37748 0.56099 0.17508 0.0
H359 H 0.31136 0.47443 0.12168 0.0
H360 H 0.32921 0.5146 0.11751 0.0
H361 H 0.29162 0.49248 0.13124 0.0
C362 C 0.30234 0.56483 0.13493 0.0
C363 C 0.27354 0.55375 0.14591 0.0
C364 C 0.32954 0.56096 0.13789 0.0
C365 C 0.32786 0.54543 0.1517 0.0
C366 C 0.30101 0.53692 0.16336 0.0
H367 H 0.39215 0.42236 0.15029 0.0
H368 H 0.36078 0.44612 0.15627 0.0
C369 C 0.27405 0.54111 0.1605 0.0
C370 C 0.35011 0.53361 0.15275 0.0
H371 H 0.36241 0.48155 0.13373 0.0
C372 C 0.37438 0.54368 0.16605 0.0
C373 C 0.3452 0.51045 0.14114 0.0
C374 C 0.31771 0.49707 0.12717 0.0
C375 C 0.39426 0.53135 0.16794 0.0
C376 C 0.38992 0.50877 0.15609 0.0
C377 C 0.36562 0.49881 0.14284 0.0
C378 C 0.41015 0.49491 0.1568 0.0
C379 C 0.41902 0.54203 0.18272 0.0
C380 C 0.44858 0.51443 0.15593 0.0
C381 C 0.46686 0.50083 0.15287 0.0
C382 C 0.4469 0.46751 0.15026 0.0
C383 C 0.40862 0.44803 0.15234 0.0
C384 C 0.3905 0.46161 0.15565 0.0
H385 H 0.41131 0.55186 0.19274 0.0
H386 H 0.41815 0.522 0.18726 0.0
H387 H 0.44774 0.56114 0.17937 0.0
H388 H 0.46429 0.54019 0.15657 0.0
H389 H 0.49645 0.51654 0.15174 0.0
H390 H 0.70952 0.11802 0.49491 0.0
H391 H 0.76456 0.17318 0.49292 0.0
H392 H 0.69728 0.20127 0.47884 0.0
H393 H 0.64211 0.1463 0.48079 0.0
H394 H 0.78576 0.2084 0.46354 0.0
H395 H 0.76666 0.26842 0.51565 0.0
H396 H 0.74356 0.22582 0.51411 0.0
H397 H 0.72735 0.24311 0.50227 0.0
C398 C 0.70634 0.13598 0.49159 0.0
C399 C 0.67137 0.1277 0.488 0.0
C400 C 0.73785 0.16747 0.49043 0.0
C401 C 0.73495 0.19134 0.4859 0.0
C402 C 0.70007 0.1833 0.4826 0.0
H403 H 0.87999 0.389 0.46237 0.0
H404 H 0.82902 0.33544 0.46997 0.0
C405 C 0.66858 0.1518 0.48363 0.0
C406 C 0.76847 0.22419 0.48357 0.0
H407 H 0.81357 0.30205 0.49709 0.0
C408 C 0.79211 0.22889 0.47096 0.0
C409 C 0.77643 0.25081 0.49321 0.0
C410 C 0.75238 0.24693 0.50717 0.0
C411 C 0.82297 0.25963 0.46738 0.0
C412 C 0.83098 0.28637 0.47699 0.0
C413 C 0.80753 0.28157 0.48977 0.0
C414 C 0.86261 0.31956 0.4735 0.0
C415 C 0.84579 0.26321 0.45292 0.0
C416 C 0.89868 0.32884 0.47342 0.0
C417 C 0.92788 0.35934 0.46881 0.0
C418 C 0.92167 0.38137 0.46439 0.0
C419 C 0.88573 0.37248 0.46533 0.0
C420 C 0.85655 0.34192 0.46981 0.0
H421 H 0.83057 0.24175 0.44441 0.0
H422 H 0.85444 0.28437 0.44608 0.0
H423 H 0.87085 0.26643 0.45724 0.0
H424 H 0.90418 0.31227 0.47661 0.0
H425 H 0.95508 0.36521 0.46817 0.0
H426 H 0.58459 0.68346 0.80492 0.0
H427 H 0.57625 0.72376 0.79831 0.0
H428 H 0.61384 0.76765 0.84669 0.0
H429 H 0.62262 0.72763 0.85333 0.0
H430 H 0.53372 0.73994 0.81187 0.0
H431 H 0.68161 0.8424 0.81845 0.0
H432 H 0.66561 0.80146 0.81779 0.0
H433 H 0.66261 0.81958 0.83627 0.0
C434 C 0.59077 0.70153 0.81419 0.0
C435 C 0.60455 0.70253 0.8296 0.0
C436 C 0.58612 0.72461 0.81038 0.0
C437 C 0.59512 0.7491 0.8219 0.0
C438 C 0.60767 0.7495 0.83747 0.0
H439 H 0.58812 0.91141 0.81628 0.0
H440 H 0.59152 0.8698 0.82597 0.0
C441 C 0.61257 0.72657 0.84126 0.0
C442 C 0.59152 0.77424 0.81752 0.0
H443 H 0.64027 0.85471 0.81382 0.0
C444 C 0.55702 0.76503 0.81229 0.0
C445 C 0.62198 0.80698 0.81807 0.0
C446 C 0.66012 0.81826 0.8228 0.0
C447 C 0.55212 0.78768 0.80766 0.0
C448 C 0.58259 0.82033 0.80813 0.0
C449 C 0.61696 0.82963 0.81356 0.0
C450 C 0.57973 0.84509 0.80237 0.0
C451 C 0.51437 0.77659 0.80237 0.0
C452 C 0.57243 0.84513 0.78587 0.0
C453 C 0.5709 0.86901 0.78025 0.0
C454 C 0.57659 0.89338 0.79104 0.0
C455 C 0.58395 0.89324 0.8076 0.0
C456 C 0.58569 0.86939 0.81319 0.0
H457 H 0.49253 0.75219 0.80631 0.0
H458 H 0.50862 0.79323 0.80735 0.0
H459 H 0.51304 0.77611 0.78887 0.0
H460 H 0.56852 0.82694 0.77727 0.0
H461 H 0.566 0.86872 0.76737 0.0
H462 H 0.85419 0.44059 0.21261 0.0
H463 H 0.79048 0.39161 0.21072 0.0
H464 H 0.79378 0.39467 0.1583 0.0
H465 H 0.85695 0.44292 0.16016 0.0
H466 H 0.73784 0.39405 0.19779 0.0
H467 H 0.73487 0.29987 0.16317 0.0
H468 H 0.77574 0.33309 0.17396 0.0
H469 H 0.76437 0.33729 0.15383 0.0
C470 C 0.84144 0.4302 0.20071 0.0
C471 C 0.86001 0.44571 0.18653 0.0
C472 C 0.80524 0.40223 0.19964 0.0
C473 C 0.78755 0.38918 0.18436 0.0
C474 C 0.80705 0.40374 0.1702 0.0
H475 H 0.61989 0.33046 0.1258 0.0
H476 H 0.66789 0.33309 0.14036 0.0
C477 C 0.84292 0.43168 0.17127 0.0
C478 C 0.74721 0.36467 0.18302 0.0
H479 H 0.68229 0.30047 0.15867 0.0
C480 C 0.72525 0.37286 0.18971 0.0
C481 C 0.73095 0.33703 0.17254 0.0
C482 C 0.75278 0.32616 0.16562 0.0
C483 C 0.68863 0.3567 0.18456 0.0
C484 C 0.67325 0.33082 0.1728 0.0
C485 C 0.69408 0.32036 0.16759 0.0
C486 C 0.63957 0.31941 0.16335 0.0
C487 C 0.66832 0.36987 0.19043 0.0
C488 C 0.60647 0.3085 0.17107 0.0
C489 C 0.57925 0.30767 0.16279 0.0
C490 C 0.58439 0.31669 0.14658 0.0
C491 C 0.61522 0.3233 0.13827 0.0
C492 C 0.64271 0.32483 0.14663 0.0
H493 H 0.6863 0.39281 0.19771 0.0
H494 H 0.6567 0.37393 0.17996 0.0
H495 H 0.64536 0.35252 0.19826 0.0
H496 H 0.60295 0.30317 0.18382 0.0
H497 H 0.55545 0.3022 0.16938 0.0
H498 H 0.44586 0.9394 0.46605 0.0
H499 H 0.39186 0.88353 0.46429 0.0
H500 H 0.4455 0.85936 0.49602 0.0
H501 H 0.50001 0.91516 0.49761 0.0
H502 H 0.41406 0.81825 0.4697 0.0
H503 H 0.3134 0.83291 0.49771 0.0
H504 H 0.33649 0.85815 0.48096 0.0
H505 H 0.36234 0.86406 0.49897 0.0
C506 C 0.44618 0.92229 0.47274 0.0
C507 C 0.4773 0.93184 0.482 0.0
C508 C 0.4151 0.89034 0.47182 0.0
C509 C 0.4143 0.86733 0.48029 0.0
C510 C 0.44538 0.87675 0.48948 0.0
H511 H 0.21293 0.67008 0.48586 0.0
H512 H 0.26702 0.72467 0.49338 0.0
C513 C 0.47655 0.90868 0.49036 0.0
C514 C 0.38175 0.83321 0.47885 0.0
H515 H 0.28841 0.78322 0.48272 0.0
C516 C 0.38665 0.81056 0.47272 0.0
C517 C 0.34603 0.82302 0.48305 0.0
C518 C 0.33923 0.84576 0.4907 0.0
C519 C 0.35668 0.7783 0.47003 0.0
C520 C 0.32072 0.7685 0.47326 0.0
C521 C 0.31593 0.79084 0.48005 0.0
C522 C 0.28772 0.73558 0.46887 0.0
C523 C 0.36382 0.75501 0.4637 0.0
C524 C 0.28101 0.72391 0.45259 0.0
C525 C 0.25028 0.69295 0.44828 0.0
C526 C 0.22535 0.67291 0.46015 0.0
C527 C 0.23158 0.6849 0.47643 0.0
C528 C 0.26251 0.71601 0.48075 0.0
H529 H 0.39235 0.76382 0.46662 0.0
H530 H 0.34436 0.73126 0.46888 0.0
H531 H 0.36023 0.752 0.45025 0.0
H532 H 0.29947 0.73888 0.44314 0.0
H533 H 0.24583 0.68484 0.43556 0.0
H534 H 0.59942 0.36298 0.83808 0.0
H535 H 0.60794 0.32225 0.83008 0.0
H536 H 0.49705 0.24845 0.84408 0.0
H537 H 0.48846 0.28892 0.85249 0.0
H538 H 0.59687 0.27086 0.84964 0.0
H539 H 0.50481 0.22655 0.795 0.0
H540 H 0.52465 0.26521 0.80504 0.0
H541 H 0.48638 0.22972 0.81385 0.0
C542 C 0.57699 0.33813 0.8397 0.0
C543 C 0.54314 0.32924 0.84584 0.0
C544 C 0.58188 0.3149 0.83504 0.0
C545 C 0.55298 0.2824 0.83631 0.0
C546 C 0.5195 0.27343 0.84278 0.0
H547 H 0.51944 0.10663 0.80423 0.0
H548 H 0.51362 0.14695 0.81616 0.0
C549 C 0.51461 0.2966 0.84751 0.0
C550 C 0.55753 0.25777 0.83059 0.0
H551 H 0.52778 0.19811 0.8014 0.0
C552 C 0.58188 0.25495 0.83908 0.0
C553 C 0.53782 0.2371 0.81684 0.0
C554 C 0.51211 0.23979 0.80703 0.0
C555 C 0.58656 0.2315 0.83434 0.0
C556 C 0.56698 0.21088 0.82051 0.0
C557 C 0.54269 0.21384 0.81202 0.0
C558 C 0.57137 0.18621 0.81447 0.0
C559 C 0.61174 0.22855 0.84441 0.0
C560 C 0.60581 0.19482 0.8096 0.0
C561 C 0.60934 0.17171 0.80298 0.0
C562 C 0.57838 0.13955 0.80088 0.0
C563 C 0.54398 0.13101 0.80591 0.0
C564 C 0.54053 0.1541 0.81262 0.0
H565 H 0.61591 0.23929 0.85695 0.0
H566 H 0.60071 0.20317 0.84523 0.0
H567 H 0.63901 0.24141 0.83861 0.0
H568 H 0.62987 0.21953 0.81059 0.0
H569 H 0.6363 0.17913 0.79937 0.0
H570 H 0.53948 0.84329 0.5096 0.0
H571 H 0.53079 0.79406 0.51606 0.0
H572 H 0.64798 0.8466 0.52231 0.0
H573 H 0.65683 0.89594 0.51667 0.0
H574 H 0.55681 0.76321 0.50094 0.0
H575 H 0.61024 0.8011 0.5645 0.0
H576 H 0.59891 0.82238 0.55276 0.0
H577 H 0.64218 0.8288 0.55005 0.0
C578 C 0.56337 0.84444 0.51256 0.0
C579 C 0.59886 0.87368 0.51268 0.0
C580 C 0.55836 0.81624 0.51612 0.0
C581 C 0.58868 0.81675 0.51994 0.0
C582 C 0.62412 0.84573 0.51974 0.0
H583 H 0.63036 0.68222 0.54238 0.0
H584 H 0.63319 0.72778 0.53402 0.0
C585 C 0.62915 0.87389 0.51628 0.0
C586 C 0.58353 0.78705 0.524 0.0
H587 H 0.60295 0.75479 0.55319 0.0
C588 C 0.56658 0.76122 0.51242 0.0
C589 C 0.59615 0.78446 0.53902 0.0
C590 C 0.61254 0.81053 0.55236 0.0
C591 C 0.56303 0.73328 0.51526 0.0
C592 C 0.57656 0.73112 0.53009 0.0
C593 C 0.59292 0.75669 0.54177 0.0
C594 C 0.57429 0.70264 0.5338 0.0
C595 C 0.54574 0.7066 0.50225 0.0
C596 C 0.54019 0.67338 0.53634 0.0
C597 C 0.53847 0.64727 0.54111 0.0
C598 C 0.57085 0.64999 0.5434 0.0
C599 C 0.6049 0.67919 0.54049 0.0
C600 C 0.60659 0.7053 0.53582 0.0
H601 H 0.54315 0.71436 0.49036 0.0
H602 H 0.56215 0.69739 0.50058 0.0
H603 H 0.51783 0.6866 0.50605 0.0
H604 H 0.51497 0.67097 0.53504 0.0
H605 H 0.51182 0.62504 0.54316 0.0
H606 H 0.7137 0.56929 0.84303 0.0
H607 H 0.76717 0.56889 0.84347 0.0
H608 H 0.69868 0.47188 0.85849 0.0
H609 H 0.645 0.47189 0.85778 0.0
H610 H 0.79946 0.56137 0.86821 0.0
H611 H 0.75177 0.46374 0.82138 0.0
H612 H 0.72907 0.48229 0.82454 0.0
H613 H 0.72037 0.45223 0.83781 0.0
C614 C 0.70983 0.54772 0.84632 0.0
C615 C 0.67468 0.52055 0.85028 0.0
C616 C 0.7406 0.54756 0.84659 0.0
C617 C 0.73721 0.52019 0.85074 0.0
C618 C 0.70219 0.4931 0.85483 0.0
H619 H 0.89375 0.47712 0.86477 0.0
H620 H 0.83908 0.47549 0.86242 0.0
C621 C 0.67138 0.49322 0.85453 0.0
C622 C 0.77044 0.52046 0.85131 0.0
H623 H 0.80569 0.48179 0.83656 0.0
C624 C 0.80082 0.54405 0.86119 0.0
C625 C 0.77252 0.49786 0.84224 0.0
C626 C 0.74186 0.47278 0.83077 0.0
C627 C 0.83259 0.54533 0.86248 0.0
C628 C 0.8347 0.52277 0.8534 0.0
C629 C 0.80431 0.49912 0.84354 0.0
C630 C 0.8681 0.52332 0.85402 0.0
C631 C 0.86329 0.57044 0.87393 0.0
C632 C 0.90282 0.55038 0.84965 0.0
C633 C 0.93425 0.55133 0.85088 0.0
C634 C 0.93195 0.52516 0.85644 0.0
C635 C 0.89687 0.49767 0.86028 0.0
C636 C 0.86544 0.49676 0.85904 0.0
H637 H 0.85357 0.57989 0.88317 0.0
H638 H 0.87567 0.56075 0.88035 0.0
H639 H 0.88507 0.59071 0.86684 0.0
H640 H 0.90571 0.57092 0.84531 0.0
H641 H 0.96044 0.5727 0.84747 0.0
H642 H 0.20477 0.62846 0.15013 0.0
H643 H 0.26203 0.68294 0.15281 0.0
H644 H 0.20167 0.7169 0.17163 0.0
H645 H 0.14469 0.66271 0.16936 0.0
H646 H 0.28388 0.73871 0.13933 0.0
H647 H 0.28033 0.75098 0.20648 0.0
H648 H 0.25078 0.71303 0.19528 0.0
H649 H 0.23903 0.74029 0.19679 0.0
C650 C 0.2037 0.64752 0.15487 0.0
C651 C 0.17014 0.64112 0.1597 0.0
C652 C 0.23646 0.67866 0.15637 0.0
C653 C 0.23628 0.70392 0.16273 0.0
C654 C 0.20268 0.69768 0.16711 0.0
H655 H 0.38534 0.90741 0.17908 0.0
H656 H 0.33332 0.85174 0.17281 0.0
C657 C 0.17004 0.66663 0.16573 0.0
C658 C 0.27101 0.73688 0.16477 0.0
H659 H 0.32206 0.79922 0.1928 0.0
C660 C 0.29247 0.75184 0.15105 0.0
C661 C 0.28241 0.75393 0.1801 0.0
C662 C 0.26214 0.73863 0.19553 0.0
C663 C 0.32417 0.78379 0.15216 0.0
C664 C 0.33457 0.80107 0.16735 0.0
C665 C 0.3137 0.78592 0.18112 0.0
C666 C 0.36658 0.83519 0.16929 0.0
C667 C 0.34583 0.79925 0.13706 0.0
C668 C 0.40257 0.84436 0.16914 0.0
C669 C 0.43245 0.87617 0.17291 0.0
C670 C 0.42679 0.89934 0.17692 0.0
C671 C 0.3907 0.89016 0.17633 0.0
C672 C 0.36092 0.85838 0.17266 0.0
H673 H 0.3319 0.78372 0.12586 0.0
H674 H 0.35022 0.82227 0.1357 0.0
H675 H 0.37327 0.80453 0.13825 0.0
H676 H 0.40743 0.82669 0.16673 0.0
H677 H 0.45976 0.88226 0.17344 0.0
H678 H 0.48564 0.1642 0.48181 0.0
H679 H 0.4918 0.21245 0.4905 0.0
H680 H 0.60634 0.26044 0.50231 0.0
H681 H 0.6009 0.21282 0.49292 0.0
H682 H 0.50958 0.24149 0.52042 0.0
H683 H 0.61131 0.32645 0.47644 0.0
H684 H 0.58742 0.28387 0.47374 0.0
H685 H 0.62682 0.30755 0.48726 0.0
C686 C 0.51238 0.18523 0.4859 0.0
C687 C 0.54281 0.18459 0.48659 0.0
C688 C 0.51577 0.21273 0.49099 0.0
C689 C 0.54963 0.24023 0.49685 0.0
C690 C 0.58011 0.23977 0.49751 0.0
H691 H 0.58214 0.39128 0.56098 0.0
H692 H 0.5761 0.34513 0.54849 0.0
C693 C 0.5768 0.21232 0.49235 0.0
C694 C 0.5525 0.26871 0.50315 0.0
H695 H 0.60051 0.34912 0.49956 0.0
C696 C 0.52929 0.26497 0.51578 0.0
C697 C 0.57787 0.29929 0.49694 0.0
C698 C 0.60201 0.30455 0.48274 0.0
C699 C 0.53133 0.29106 0.52263 0.0
C700 C 0.5579 0.32189 0.51696 0.0
C701 C 0.58047 0.32553 0.50404 0.0
C702 C 0.56282 0.35066 0.52437 0.0
C703 C 0.5047 0.28524 0.53577 0.0
C704 C 0.55867 0.36983 0.51484 0.0
C705 C 0.56273 0.39665 0.5219 0.0
C706 C 0.57122 0.40491 0.53863 0.0
C707 C 0.57597 0.38589 0.54805 0.0
C708 C 0.57203 0.35919 0.54097 0.0
H709 H 0.47981 0.25995 0.53531 0.0
H710 H 0.51824 0.29058 0.54787 0.0
H711 H 0.49599 0.30084 0.53467 0.0
H712 H 0.55188 0.36384 0.50197 0.0
H713 H 0.55944 0.41101 0.51423 0.0
H714 H 0.5121 0.56902 0.84758 0.0
H715 H 0.45872 0.56966 0.84888 0.0
H716 H 0.38991 0.47059 0.86057 0.0
H717 H 0.4432 0.47003 0.85976 0.0
H718 H 0.39562 0.53845 0.83202 0.0
H719 H 0.36129 0.50579 0.89612 0.0
H720 H 0.40368 0.51655 0.88735 0.0
H721 H 0.36187 0.47664 0.8841 0.0
C722 C 0.48567 0.54737 0.85053 0.0
C723 C 0.48228 0.51955 0.85373 0.0
C724 C 0.45501 0.54776 0.85124 0.0
C725 C 0.42006 0.52038 0.85519 0.0
C726 C 0.41653 0.4924 0.85801 0.0
H727 H 0.19806 0.4669 0.86166 0.0
H728 H 0.2529 0.4688 0.85933 0.0
C729 C 0.44717 0.49205 0.85742 0.0
C730 C 0.38732 0.52089 0.85606 0.0
H731 H 0.31602 0.50332 0.88035 0.0
C732 C 0.37845 0.53099 0.84266 0.0
C733 C 0.36463 0.51132 0.86994 0.0
C734 C 0.37354 0.50229 0.88525 0.0
C735 C 0.34735 0.53094 0.84258 0.0
C736 C 0.32436 0.52076 0.85631 0.0
C737 C 0.33335 0.51092 0.86975 0.0
C738 C 0.29072 0.51985 0.85701 0.0
C739 C 0.33881 0.54104 0.8276 0.0
C740 C 0.2933 0.54791 0.85647 0.0
C741 C 0.26182 0.547 0.85799 0.0
C742 C 0.22678 0.51797 0.86014 0.0
C743 C 0.22436 0.48986 0.86034 0.0
C744 C 0.25583 0.49084 0.85891 0.0
H745 H 0.35395 0.54119 0.81683 0.0
H746 H 0.30889 0.52491 0.82467 0.0
H747 H 0.34698 0.56556 0.82991 0.0
H748 H 0.31985 0.57074 0.8553 0.0
H749 H 0.26524 0.56929 0.85804 0.0
H750 H 0.99532 0.42597 0.14067 0.0
H751 H 0.94054 0.37071 0.14317 0.0
H752 H 0.88572 0.40455 0.1687 0.0
H753 H 0.94005 0.45973 0.16612 0.0
H754 H 0.90748 0.34231 0.17431 0.0
H755 H 0.8105 0.33942 0.13254 0.0
H756 H 0.85981 0.36823 0.13124 0.0
H757 H 0.83551 0.37318 0.14691 0.0
C758 C 0.97142 0.42167 0.14661 0.0
C759 C 0.97209 0.44726 0.15326 0.0
C760 C 0.94022 0.39009 0.14808 0.0
C761 C 0.909 0.38358 0.15599 0.0
C762 C 0.90933 0.40908 0.16235 0.0
H763 H 0.6992 0.2216 0.18676 0.0
H764 H 0.75327 0.27339 0.17901 0.0
C765 C 0.94053 0.44059 0.16098 0.0
C766 C 0.87677 0.35016 0.15843 0.0
H767 H 0.78531 0.29535 0.14926 0.0
C768 C 0.8808 0.33188 0.16875 0.0
C769 C 0.84204 0.3368 0.15121 0.0
C770 C 0.83654 0.35524 0.13975 0.0
C771 C 0.85067 0.3009 0.17251 0.0
C772 C 0.81577 0.28752 0.16537 0.0
C773 C 0.812 0.30563 0.15476 0.0
C774 C 0.78249 0.25546 0.16944 0.0
C775 C 0.85623 0.28333 0.18459 0.0
C776 C 0.78066 0.22792 0.16651 0.0
C777 C 0.75006 0.19821 0.17135 0.0
C778 C 0.72039 0.19535 0.17903 0.0
C779 C 0.72175 0.22285 0.18124 0.0
C780 C 0.75251 0.25253 0.17661 0.0
H781 H 0.88202 0.29973 0.1919 0.0
H782 H 0.83283 0.2706 0.19305 0.0
H783 H 0.858 0.26539 0.17793 0.0
H784 H 0.80315 0.22946 0.1607 0.0
H785 H 0.75024 0.17772 0.16952 0.0
H786 H 0.07252 0.60529 0.10994 0.0
H787 H 0.07751 0.60454 0.08015 0.0
H788 H 0.05975 0.514 0.08055 0.0
H789 H 0.05432 0.51443 0.11019 0.0
H790 H 0.12624 0.60066 0.06032 0.0
H791 H 0.98084 0.49671 0.04825 0.0
H792 H 0.99688 0.51854 0.06775 0.0
H793 H 1.00483 0.48957 0.06224 0.0
C794 C 0.06965 0.58525 0.10364 0.0
C795 C 0.06269 0.55978 0.11232 0.0
C796 C 0.07257 0.58487 0.08666 0.0
C797 C 0.0684 0.55896 0.07814 0.0
C798 C 0.06231 0.5339 0.08686 0.0
H799 H 0.12518 0.54405 0.9786 0.0
H800 H 0.1232 0.54963 0.00826 0.0
C801 C 0.05937 0.53425 0.10379 0.0
C802 C 0.07035 0.55802 0.06012 0.0
H803 H 1.02089 0.51419 0.02576 0.0
C804 C 0.10319 0.58186 0.05273 0.0
C805 C 1.04007 0.53367 0.05027 0.0
C806 C 1.00353 0.50832 0.05749 0.0
C807 C 0.10681 0.58161 0.03573 0.0
C808 C 0.07693 0.55662 0.02592 0.0
C809 C 1.04387 0.53317 0.03331 0.0
C810 C 0.07916 0.55439 0.00794 0.0
C811 C 0.1424 0.60829 0.0284 0.0
C812 C 0.05466 0.55466 0.99793 0.0
C813 C 0.05565 0.55139 0.981 0.0
C814 C 0.08107 0.54761 0.97372 0.0
C815 C 0.10566 0.54742 0.9838 0.0
C816 C 0.1046 0.55064 0.00075 0.0
H817 H 0.15861 0.62957 0.03698 0.0
H818 H 0.15929 0.59994 0.02544 0.0
H819 H 0.13722 0.61555 0.01697 0.0
H820 H 1.03476 0.55745 0.00324 0.0
H821 H 1.03664 0.55203 0.9736 0.0
H822 H 0.53308 0.00903 0.44067 0.0
H823 H 0.52856 0.01257 0.41125 0.0
H824 H 0.64455 0.0578 0.40698 0.0
H825 H 0.64929 0.05455 0.43632 0.0
H826 H 0.61951 0.08762 0.39009 0.0
H827 H 0.53425 0.95656 0.37592 0.0
H828 H 0.5168 0.96953 0.39133 0.0
H829 H 0.55891 0.97473 0.39505 0.0
C830 C 0.55758 0.01976 0.43343 0.0
C831 C 0.59149 0.0313 0.4407 0.0
C832 C 0.55494 0.02165 0.41666 0.0
C833 C 0.58614 0.03505 0.40694 0.0
C834 C 0.62014 0.04725 0.41427 0.0
H835 H 0.6094 0.02038 0.3034 0.0
H836 H 0.60887 0.01836 0.33308 0.0
C837 C 0.62279 0.04532 0.431 0.0
C838 C 0.58357 0.03622 0.38909 0.0
H839 H 0.54742 0.98921 0.35401 0.0
C840 C 0.60363 0.06614 0.38219 0.0
C841 C 0.56315 0.00811 0.37884 0.0
C842 C 0.54224 0.97536 0.38558 0.0
C843 C 0.60384 0.06873 0.36526 0.0
C844 C 0.58315 0.04062 0.35502 0.0
C845 C 0.56306 0.0107 0.36192 0.0
C846 C 0.58301 0.04174 0.33706 0.0
C847 C 0.62698 0.10146 0.35843 0.0
C848 C 0.56828 0.05525 0.32948 0.0
C849 C 0.56836 0.0563 0.31251 0.0
C850 C 0.58306 0.04372 0.30281 0.0
C851 C 0.59752 0.02996 0.31048 0.0
C852 C 0.59738 0.0289 0.32744 0.0
H853 H 0.64728 0.12011 0.36755 0.0
H854 H 0.64193 0.10181 0.34754 0.0
H855 H 0.60883 0.10773 0.35464 0.0
H856 H 0.55644 0.06475 0.33668 0.0
H857 H 0.5564 0.06653 0.30698 0.0
H858 H 0.51159 0.4818 0.79797 0.0
H859 H 0.52229 0.49508 0.76933 0.0
H860 H 0.63881 0.56173 0.77941 0.0
H861 H 0.62827 0.54834 0.80818 0.0
H862 H 0.55903 0.55681 0.75527 0.0
H863 H 0.62798 0.49935 0.74218 0.0
H864 H 0.60063 0.49121 0.76005 0.0
H865 H 0.64583 0.52824 0.7591 0.0
C866 C 0.53948 0.49936 0.7941 0.0
C867 C 0.56914 0.5139 0.80523 0.0
C868 C 0.54553 0.50697 0.77776 0.0
C869 C 0.58134 0.52908 0.77225 0.0
C870 C 0.61101 0.54428 0.78342 0.0
H871 H 0.64738 0.5709 0.67048 0.0
H872 H 0.64907 0.57196 0.70031 0.0
C873 C 0.60495 0.53675 0.79982 0.0
C874 C 0.58726 0.53544 0.75471 0.0
H875 H 0.6194 0.52151 0.72025 0.0
C876 C 0.57249 0.54936 0.74761 0.0
C877 C 0.60499 0.5258 0.74481 0.0
C878 C 0.62063 0.51012 0.75182 0.0
C879 C 0.57444 0.55342 0.73078 0.0
C880 C 0.59085 0.5426 0.72077 0.0
C881 C 0.60674 0.52968 0.72795 0.0
C882 C 0.59001 0.54279 0.70275 0.0
C883 C 0.55887 0.56925 0.72389 0.0
C884 C 0.55624 0.52566 0.69423 0.0
C885 C 0.55518 0.52493 0.67724 0.0
C886 C 0.58788 0.54109 0.66838 0.0
C887 C 0.6217 0.55801 0.67694 0.0
C888 C 0.62273 0.55878 0.69397 0.0
H889 H 0.55811 0.58481 0.73329 0.0
H890 H 0.57521 0.58384 0.71348 0.0
H891 H 0.53026 0.55059 0.7195 0.0
H892 H 0.53062 0.51239 0.70073 0.0
H893 H 0.52867 0.51115 0.67101 0.0
H894 H 0.61763 0.05516 0.53086 0.0
H895 H 0.62376 0.05119 0.56007 0.0
H896 H 0.50672 0.9996 0.56515 0.0
H897 H 0.50041 1.0034 0.536 0.0
H898 H 0.60078 0.07457 0.5861 0.0
H899 H 0.53052 0.94402 0.58718 0.0
H900 H 0.54834 0.96561 0.56875 0.0
H901 H 0.50562 0.95512 0.57673 0.0
C902 C 0.59322 0.04277 0.53821 0.0
C903 C 0.55854 0.02954 0.53122 0.0
C904 C 0.59676 0.04056 0.55485 0.0
C905 C 0.56563 0.02479 0.56469 0.0
C906 C 0.53097 0.01141 0.5577 0.0
H907 H 0.51786 0.98987 0.66646 0.0
H908 H 0.51657 0.99157 0.6368 0.0
C909 C 0.52745 0.01376 0.54109 0.0
C910 C 0.56947 0.02357 0.58242 0.0
H911 H 0.54341 0.97217 0.6128 0.0
C912 C 0.58856 0.05226 0.59196 0.0
C913 C 0.55331 0.99437 0.58995 0.0
C914 C 0.53353 0.963 0.58015 0.0
C915 C 0.591 0.05246 0.60898 0.0
C916 C 0.5746 0.02321 0.61657 0.0
C917 C 0.55593 0.99455 0.60696 0.0
C918 C 0.57571 0.02176 0.63449 0.0
C919 C 0.61001 0.08387 0.61871 0.0
C920 C 0.60938 0.03774 0.643 0.0
C921 C 0.6102 0.03687 0.65995 0.0
C922 C 0.57733 0.01967 0.66868 0.0
C923 C 0.54363 1.00311 0.66007 0.0
C924 C 0.54285 0.00414 0.64314 0.0
H925 H 0.61256 0.10254 0.61157 0.0
H926 H 0.59494 0.08114 0.63003 0.0
H927 H 0.63812 0.09238 0.6222 0.0
H928 H 0.63504 0.05083 0.63652 0.0
H929 H 0.63656 0.0494 0.66621 0.0
H930 H 0.64626 0.55492 0.90406 0.0
H931 H 0.63753 0.53219 0.93057 0.0
H932 H 0.52219 0.46121 0.91917 0.0
H933 H 0.53061 0.48441 0.89279 0.0
H934 H 0.53429 0.48909 0.94973 0.0
H935 H 0.62305 0.45024 0.94022 0.0
H936 H 0.64627 0.49174 0.93681 0.0
H937 H 0.60828 0.46182 0.92372 0.0
C938 C 0.61907 0.53443 0.90721 0.0
C939 C 0.58914 0.52127 0.89637 0.0
C940 C 0.61418 0.5213 0.92229 0.0
C941 C 0.57936 0.49458 0.9267 0.0
C942 C 0.54935 0.48164 0.91594 0.0
H943 H 0.49855 0.38939 0.0158 0.0
H944 H 0.50504 0.40502 0.98761 0.0
C945 C 0.55419 0.49487 0.90089 0.0
C946 C 0.574 0.48099 0.94282 0.0
H947 H 0.60405 0.45011 0.96749 0.0
C948 C 0.54925 0.48026 0.95356 0.0
C949 C 0.59353 0.46945 0.94777 0.0
C950 C 0.619 0.46802 0.93647 0.0
C951 C 0.54432 0.46917 0.96929 0.0
C952 C 0.56439 0.45824 0.97432 0.0
C953 C 0.58879 0.45858 0.96355 0.0
C954 C 0.5612 0.44734 0.99095 0.0
C955 C 0.51848 0.47007 0.98058 0.0
C956 C 0.59102 0.46545 0.00197 0.0
C957 C 0.58746 0.45654 0.01803 0.0
C958 C 0.55407 0.4292 0.02332 0.0
C959 C 0.52468 0.41044 0.01206 0.0
C960 C 0.52822 0.41947 0.99601 0.0
H961 H 0.51041 0.48463 0.97592 0.0
H962 H 0.49317 0.4454 0.98187 0.0
H963 H 0.53132 0.47996 0.99288 0.0
H964 H 0.61676 0.48695 0.99824 0.0
H965 H 0.61071 0.47125 0.02637 0.0
H966 H 0.1134 0.57807 0.20314 0.0
H967 H 0.10926 0.57565 0.23284 0.0
H968 H 1.03504 0.47265 0.22785 0.0
H969 H 1.04157 0.47513 0.19824 0.0
H970 H 0.05908 0.55646 0.25345 0.0
H971 H 0.10556 0.48108 0.25879 0.0
H972 H 0.10685 0.49744 0.23982 0.0
H973 H 0.06487 0.46113 0.24627 0.0
C974 C 0.09644 0.55497 0.20846 0.0
C975 C 0.07835 0.52677 0.19855 0.0
C976 C 0.09397 0.55356 0.22541 0.0
C977 C 0.07267 0.52391 0.23269 0.0
C978 C 0.05292 0.49576 0.22264 0.0
H979 H 1.01485 0.51301 0.33542 0.0
H980 H 1.01454 0.51243 0.30584 0.0
C981 C 0.05636 0.49717 0.20573 0.0
C982 C 0.07116 0.52256 0.25075 0.0
H983 H 0.07937 0.48745 0.28245 0.0
C984 C 0.06383 0.54156 0.2598 0.0
C985 C 0.07801 0.50359 0.25913 0.0
C986 C 0.08967 0.48497 0.2505 0.0
C987 C 0.06314 0.54212 0.27689 0.0
C988 C 0.06795 0.52178 0.28521 0.0
C989 C 0.07523 0.50278 0.27615 0.0
C990 C 0.06697 0.52059 0.30328 0.0
C991 C 0.05862 0.56543 0.28577 0.0
C992 C 0.09539 0.52339 0.31179 0.0
C993 C 0.09471 0.52201 0.32872 0.0
C994 C 0.066 0.51856 0.3377 0.0
C995 C 1.03733 0.5154 0.32909 0.0
C996 C 1.03749 0.5158 0.31209 0.0
H997 H 0.06776 0.58597 0.27825 0.0
H998 H 1.02912 0.55322 0.28839 0.0
H999 H 0.0745 0.57486 0.29745 0.0
H1000 H 0.11831 0.52675 0.30533 0.0
H1001 H 0.11676 0.52351 0.33469 0.0
loop_
_geom_bond_atom_site_label_1
_geom_bond_atom_site_label_2
_geom_bond_distance
_geom_bond_site_symmetry_2
_ccdc_geom_bond_type
Ho0 C3 2.811 . S
Ho0 O20 2.322 . S
Ho0 O22 2.378 . S
Ho0 O23 2.524 . S
Ho0 O24 2.381 . S
Ho0 O25 2.669 . S
Ho0 O27 2.346 1_455 S
Ho0 O31 2.305 . S
Ho1 C12 2.811 1_455 S
Ho1 O21 2.346 . S
Ho1 O25 2.305 . S
Ho1 O26 2.322 1_455 S
Ho1 O28 2.378 1_455 S
Ho1 O29 2.524 1_455 S
Ho1 O30 2.381 . S
Ho1 O31 2.669 . S
C2 O20 1.259 . S
C2 O21 1.268 . S
C3 Ho0 2.811 . S
C3 C4 1.488 . S
C3 O22 1.215 . S
C3 O23 1.289 . S
C4 C3 1.488 . S
C4 C5 1.348 . S
C4 C9 1.413 . S
C5 C4 1.348 . S
C5 C6 1.442 . S
C5 H32 0.930 . S
C6 C5 1.442 . S
C6 C7 1.381 . S
C6 H33 0.931 . S
C7 C6 1.381 . S
C7 C8 1.321 . S
C8 C7 1.321 . S
C8 C9 1.403 . S
C8 H34 0.934 . S
C9 C4 1.413 . S
C9 C8 1.403 . S
C9 H35 0.930 . S
C10 O24 1.275 . S
C10 O25 1.256 . S
C11 O26 1.259 . S
C11 O27 1.268 . S
C12 Ho1 2.811 1_655 S
C12 C13 1.488 . S
C12 O28 1.215 . S
C12 O29 1.289 . S
C13 C12 1.488 . S
C13 C14 1.348 . S
C13 C18 1.413 . S
C14 C13 1.348 . S
C14 C15 1.442 . S
C14 H36 0.930 . S
C15 C14 1.442 . S
C15 C16 1.381 . S
C15 H37 0.931 . S
C16 C15 1.381 . S
C16 C17 1.321 . S
C17 C16 1.321 . S
C17 C18 1.403 . S
C17 H38 0.934 . S
C18 C13 1.413 . S
C18 C17 1.403 . S
C18 H39 0.930 . S
C19 O30 1.275 . S
C19 O31 1.256 . S
O20 Ho0 2.322 . S
O20 C2 1.259 . S
O21 Ho1 2.346 . S
O21 C2 1.268 . S
O22 Ho0 2.378 . S
O22 C3 1.215 . S
O23 Ho0 2.524 . S
O23 C3 1.289 . S
O24 Ho0 2.381 . S
O24 C10 1.275 . S
O25 Ho0 2.669 . S
O25 Ho1 2.305 . S
O25 C10 1.256 . S
O26 Ho1 2.322 1_655 S
O26 C11 1.259 . S
O27 Ho0 2.346 1_655 S
O27 C11 1.268 . S
O28 Ho1 2.378 1_655 S
O28 C12 1.215 . S
O29 Ho1 2.524 1_655 S
O29 C12 1.289 . S
O30 Ho1 2.381 . S
O30 C19 1.275 . S
O31 Ho0 2.305 . S
O31 Ho1 2.669 . S
O31 C19 1.256 . S
H32 C5 0.930 . S
H33 C6 0.931 . S
H34 C8 0.934 . S
H35 C9 0.930 . S
H36 C14 0.930 . S
H37 C15 0.931 . S
H38 C17 0.934 . S
H39 C18 0.930 . S
Ho40 C43 2.811 . S
Ho40 O60 2.322 . S
Ho40 O62 2.378 . S
Ho40 O63 2.524 . S
Ho40 O64 2.381 . S
Ho40 O65 2.669 1_565 S
Ho40 O67 2.346 1_565 S
Ho40 O71 2.305 1_565 S
Ho41 C52 2.811 . S
Ho41 O61 2.346 1_545 S
Ho41 O65 2.305 . S
Ho41 O66 2.322 . S
Ho41 O68 2.378 . S
Ho41 O69 2.524 . S
Ho41 O70 2.381 . S
Ho41 O71 2.669 . S
C42 O60 1.259 . S
C42 O61 1.268 . S
C43 Ho40 2.811 . S
C43 C44 1.488 . S
C43 O62 1.215 . S
C43 O63 1.289 . S
C44 C43 1.488 . S
C44 C45 1.348 . S
C44 C49 1.413 . S
C45 C44 1.348 . S
C45 C46 1.442 . S
C45 H72 0.930 . S
C46 C45 1.442 . S
C46 C47 1.381 . S
C46 H73 0.931 . S
C47 C46 1.381 . S
C47 C48 1.321 . S
C48 C47 1.321 . S
C48 C49 1.403 . S
C48 H74 0.934 . S
C49 C44 1.413 . S
C49 C48 1.403 . S
C49 H75 0.930 . S
C50 O64 1.275 1_545 S
C50 O65 1.256 . S
C51 O66 1.259 . S
C51 O67 1.268 . S
C52 Ho41 2.811 . S
C52 C53 1.488 . S
C52 O68 1.215 . S
C52 O69 1.289 . S
C53 C52 1.488 . S
C53 C54 1.348 . S
C53 C58 1.413 . S
C54 C53 1.348 . S
C54 C55 1.442 . S
C54 H76 0.930 . S
C55 C54 1.442 . S
C55 C56 1.381 . S
C55 H77 0.931 . S
C56 C55 1.381 . S
C56 C57 1.321 . S
C57 C56 1.321 . S
C57 C58 1.403 . S
C57 H78 0.934 . S
C58 C53 1.413 . S
C58 C57 1.403 . S
C58 H79 0.930 . S
C59 O70 1.275 . S
C59 O71 1.256 . S
O60 Ho40 2.322 . S
O60 C42 1.259 . S
O61 Ho41 2.346 1_565 S
O61 C42 1.268 . S
O62 Ho40 2.378 . S
O62 C43 1.215 . S
O63 Ho40 2.524 . S
O63 C43 1.289 . S
O64 Ho40 2.381 . S
O64 C50 1.275 1_565 S
O65 Ho40 2.669 1_545 S
O65 Ho41 2.305 . S
O65 C50 1.256 . S
O66 Ho41 2.322 . S
O66 C51 1.259 . S
O67 Ho40 2.346 1_545 S
O67 C51 1.268 . S
O68 Ho41 2.378 . S
O68 C52 1.215 . S
O69 Ho41 2.524 . S
O69 C52 1.289 . S
O70 Ho41 2.381 . S
O70 C59 1.275 . S
O71 Ho40 2.305 1_545 S
O71 Ho41 2.669 . S
O71 C59 1.256 . S
H72 C45 0.930 . S
H73 C46 0.931 . S
H74 C48 0.934 . S
H75 C49 0.930 . S
H76 C54 0.930 . S
H77 C55 0.931 . S
H78 C57 0.934 . S
H79 C58 0.930 . S
Ho80 C83 2.811 . S
Ho80 O100 2.322 . S
Ho80 O102 2.378 . S
Ho80 O103 2.524 . S
Ho80 O104 2.381 . S
Ho80 O105 2.669 . S
Ho80 O107 2.346 . S
Ho80 O111 2.305 . S
Ho81 C92 2.811 . S
Ho81 O101 2.346 . S
Ho81 O105 2.305 . S
Ho81 O106 2.322 . S
Ho81 O108 2.378 . S
Ho81 O109 2.524 . S
Ho81 O110 2.381 . S
Ho81 O111 2.669 . S
C82 O100 1.259 . S
C82 O101 1.268 . S
C83 Ho80 2.811 . S
C83 C84 1.488 . S
C83 O102 1.215 . S
C83 O103 1.289 . S
C84 C83 1.488 . S
C84 C85 1.348 . S
C84 C89 1.413 . S
C85 C84 1.348 . S
C85 C86 1.442 . S
C85 H112 0.930 . S
C86 C85 1.442 . S
C86 C87 1.381 . S
C86 H113 0.931 . S
C87 C86 1.381 . S
C87 C88 1.321 . S
C88 C87 1.321 . S
C88 C89 1.403 . S
C88 H114 0.934 . S
C89 C84 1.413 . S
C89 C88 1.403 . S
C89 H115 0.930 . S
C90 O104 1.275 . S
C90 O105 1.256 . S
C91 O106 1.259 . S
C91 O107 1.268 . S
C92 Ho81 2.811 . S
C92 C93 1.488 . S
C92 O108 1.215 . S
C92 O109 1.289 . S
C93 C92 1.488 . S
C93 C94 1.348 . S
C93 C98 1.413 . S
C94 C93 1.348 . S
C94 C95 1.442 . S
C94 H116 0.930 . S
C95 C94 1.442 . S
C95 C96 1.381 . S
C95 H117 0.931 . S
C96 C95 1.381 . S
C96 C97 1.321 . S
C97 C96 1.321 . S
C97 C98 1.403 . S
C97 H118 0.934 . S
C98 C93 1.413 . S
C98 C97 1.403 . S
C98 H119 0.930 . S
C99 O110 1.275 . S
C99 O111 1.256 . S
O100 Ho80 2.322 . S
O100 C82 1.259 . S
O101 Ho81 2.346 . S
O101 C82 1.268 . S
O102 Ho80 2.378 . S
O102 C83 1.215 . S
O103 Ho80 2.524 . S
O103 C83 1.289 . S
O104 Ho80 2.381 . S
O104 C90 1.275 . S
O105 Ho80 2.669 . S
O105 Ho81 2.305 . S
O105 C90 1.256 . S
O106 Ho81 2.322 . S
O106 C91 1.259 . S
O107 Ho80 2.346 . S
O107 C91 1.268 . S
O108 Ho81 2.378 . S
O108 C92 1.215 . S
O109 Ho81 2.524 . S
O109 C92 1.289 . S
O110 Ho81 2.381 . S
O110 C99 1.275 . S
O111 Ho80 2.305 . S
O111 Ho81 2.669 . S
O111 C99 1.256 . S
H112 C85 0.930 . S
H113 C86 0.931 . S
H114 C88 0.934 . S
H115 C89 0.930 . S
H116 C94 0.930 . S
H117 C95 0.931 . S
H118 C97 0.934 . S
H119 C98 0.930 . S
C120 C121 1.386 . S
C120 C122 1.397 . S
C120 H144 0.931 . S
C121 C120 1.386 . S
C121 C125 1.397 1_545 S
C122 C120 1.397 . S
C122 C123 1.384 . S
C122 H145 0.930 . S
C123 C122 1.384 . S
C123 C124 1.377 1_545 S
C123 C126 1.481 . S
C124 C123 1.377 1_565 S
C124 C125 1.389 . S
C124 H146 0.929 . S
C125 C121 1.397 1_565 S
C125 C124 1.389 . S
C125 H147 0.931 . S
C126 C123 1.481 . S
C126 C127 1.387 . S
C126 C131 1.390 1_545 S
C127 C126 1.387 . S
C127 C128 1.401 . S
C127 H148 0.930 . S
C128 C127 1.401 . S
C128 C129 1.376 . S
C128 C137 1.511 . S
C129 C128 1.376 . S
C129 C130 1.392 1_545 S
C129 H150 0.931 . S
C130 C129 1.392 1_565 S
C130 C131 1.361 . S
C130 C132 1.500 . S
C131 C126 1.390 1_565 S
C131 C130 1.361 . S
C131 H149 0.931 . S
C132 C130 1.500 . S
C132 C133 1.371 . S
C132 C134 1.365 . S
C133 C132 1.371 . S
C133 C143 1.386 . S
C133 H151 0.931 . S
C134 C132 1.365 . S
C134 C135 1.409 . S
C134 H152 0.929 . S
C135 C134 1.409 . S
C135 C136 1.380 . S
C135 H153 0.930 . S
C136 C135 1.380 . S
C136 C143 1.357 . S
C137 C128 1.511 . S
C137 C138 1.341 . S
C137 C139 1.371 . S
C138 C137 1.341 . S
C138 C142 1.394 . S
C138 H154 0.930 . S
C139 C137 1.371 . S
C139 C140 1.392 . S
C139 H155 0.931 . S
C140 C139 1.392 . S
C140 C141 1.331 . S
C140 H158 0.932 . S
C141 C140 1.331 . S
C141 C142 1.336 . S
C142 C138 1.394 . S
C142 C141 1.336 . S
C142 H157 0.929 . S
C143 C133 1.386 . S
C143 C136 1.357 . S
C143 H156 0.928 . S
H144 C120 0.931 . S
H145 C122 0.930 . S
H146 C124 0.929 . S
H147 C125 0.931 . S
H148 C127 0.930 . S
H149 C131 0.931 . S
H150 C129 0.931 . S
H151 C133 0.931 . S
H152 C134 0.929 . S
H153 C135 0.930 . S
H154 C138 0.930 . S
H155 C139 0.931 . S
H156 C143 0.928 . S
H157 C142 0.929 . S
H158 C140 0.932 . S
C159 C160 1.386 . S
C159 C161 1.397 . S
C159 H183 0.931 . S
C160 C159 1.386 . S
C160 C164 1.397 . S
C161 C159 1.397 . S
C161 C162 1.384 . S
C161 H184 0.930 . S
C162 C161 1.384 . S
C162 C163 1.377 . S
C162 C165 1.481 . S
C163 C162 1.377 . S
C163 C164 1.389 . S
C163 H185 0.929 . S
C164 C160 1.397 . S
C164 C163 1.389 . S
C164 H186 0.931 . S
C165 C162 1.481 . S
C165 C166 1.387 . S
C165 C170 1.390 . S
C166 C165 1.387 . S
C166 C167 1.401 . S
C166 H187 0.930 . S
C167 C166 1.401 . S
C167 C168 1.376 . S
C167 C176 1.511 . S
C168 C167 1.376 . S
C168 C169 1.392 . S
C168 H189 0.931 . S
C169 C168 1.392 . S
C169 C170 1.361 . S
C169 C171 1.500 . S
C170 C165 1.390 . S
C170 C169 1.361 . S
C170 H188 0.931 . S
C171 C169 1.500 . S
C171 C172 1.371 . S
C171 C173 1.365 . S
C172 C171 1.371 . S
C172 C182 1.386 . S
C172 H190 0.931 . S
C173 C171 1.365 . S
C173 C174 1.409 . S
C173 H191 0.929 . S
C174 C173 1.409 . S
C174 C175 1.380 . S
C174 H192 0.930 . S
C175 C174 1.380 . S
C175 C182 1.357 . S
C176 C167 1.511 . S
C176 C177 1.341 . S
C176 C178 1.371 . S
C177 C176 1.341 . S
C177 C181 1.394 . S
C177 H193 0.930 . S
C178 C176 1.371 . S
C178 C179 1.392 . S
C178 H194 0.931 . S
C179 C178 1.392 . S
C179 C180 1.331 . S
C179 H197 0.932 . S
C180 C179 1.331 . S
C180 C181 1.336 . S
C181 C177 1.394 . S
C181 C180 1.336 . S
C181 H196 0.929 . S
C182 C172 1.386 . S
C182 C175 1.357 . S
C182 H195 0.928 . S
H183 C159 0.931 . S
H184 C161 0.930 . S
H185 C163 0.929 . S
H186 C164 0.931 . S
H187 C166 0.930 . S
H188 C170 0.931 . S
H189 C168 0.931 . S
H190 C172 0.931 . S
H191 C173 0.929 . S
H192 C174 0.930 . S
H193 C177 0.930 . S
H194 C178 0.931 . S
H195 C182 0.928 . S
H196 C181 0.929 . S
H197 C179 0.932 . S
C198 C199 1.386 . S
C198 C200 1.397 . S
C198 H222 0.931 . S
C199 C198 1.386 . S
C199 C203 1.397 . S
C200 C198 1.397 . S
C200 C201 1.384 . S
C200 H223 0.930 . S
C201 C200 1.384 . S
C201 C202 1.377 . S
C201 C204 1.481 . S
C202 C201 1.377 . S
C202 C203 1.389 . S
C202 H224 0.929 1_455 S
C203 C199 1.397 . S
C203 C202 1.389 . S
C203 H225 0.931 1_455 S
C204 C201 1.481 . S
C204 C205 1.387 . S
C204 C209 1.390 . S
C205 C204 1.387 . S
C205 C206 1.401 . S
C205 H226 0.930 . S
C206 C205 1.401 . S
C206 C207 1.376 . S
C206 C215 1.511 . S
C207 C206 1.376 . S
C207 C208 1.392 . S
C207 H228 0.931 . S
C208 C207 1.392 . S
C208 C209 1.361 . S
C208 C210 1.500 1_455 S
C209 C204 1.390 . S
C209 C208 1.361 . S
C209 H227 0.931 . S
C210 C208 1.500 1_655 S
C210 C211 1.371 1_655 S
C210 C212 1.365 . S
C211 C210 1.371 1_455 S
C211 C221 1.386 1_455 S
C211 H229 0.931 . S
C212 C210 1.365 . S
C212 C213 1.409 . S
C212 H230 0.929 . S
C213 C212 1.409 . S
C213 C214 1.380 . S
C213 H231 0.930 . S
C214 C213 1.380 . S
C214 C221 1.357 . S
C215 C206 1.511 . S
C215 C216 1.341 . S
C215 C217 1.371 . S
C216 C215 1.341 . S
C216 C220 1.394 . S
C216 H232 0.930 . S
C217 C215 1.371 . S
C217 C218 1.392 . S
C217 H233 0.931 . S
C218 C217 1.392 . S
C218 C219 1.331 . S
C218 H236 0.932 . S
C219 C218 1.331 . S
C219 C220 1.336 . S
C220 C216 1.394 . S
C220 C219 1.336 . S
C220 H235 0.929 . S
C221 C211 1.386 1_655 S
C221 C214 1.357 . S
C221 H234 0.928 . S
H222 C198 0.931 . S
H223 C200 0.930 . S
H224 C202 0.929 1_655 S
H225 C203 0.931 1_655 S
H226 C205 0.930 . S
H227 C209 0.931 . S
H228 C207 0.931 . S
H229 C211 0.931 . S
H230 C212 0.929 . S
H231 C213 0.930 . S
H232 C216 0.930 . S
H233 C217 0.931 . S
H234 C221 0.928 . S
H235 C220 0.929 . S
H236 C218 0.932 . S
C237 C238 1.408 . S
C237 C239 1.397 . S
C237 H261 0.931 . S
C238 C237 1.408 . S
C238 C242 1.376 1_655 S
C239 C237 1.397 . S
C239 C240 1.384 . S
C239 H262 0.930 . S
C240 C239 1.384 . S
C240 C241 1.377 1_655 S
C240 C243 1.481 . S
C241 C240 1.377 1_455 S
C241 C242 1.389 . S
C241 H263 0.929 . S
C242 C238 1.376 1_455 S
C242 C241 1.389 . S
C242 H264 0.931 . S
C243 C240 1.481 . S
C243 C244 1.387 . S
C243 C248 1.390 1_655 S
C244 C243 1.387 . S
C244 C245 1.401 . S
C244 H265 0.930 . S
C245 C244 1.401 . S
C245 C246 1.386 . S
C245 C254 1.511 . S
C246 C245 1.386 . S
C246 C247 1.381 1_655 S
C246 H267 0.931 . S
C247 C246 1.381 1_455 S
C247 C248 1.361 . S
C247 C249 1.500 . S
C248 C243 1.390 1_455 S
C248 C247 1.361 . S
C248 H266 0.931 . S
C249 C247 1.500 . S
C249 C250 1.371 . S
C249 C251 1.365 . S
C250 C249 1.371 . S
C250 C260 1.386 . S
C250 H268 0.931 . S
C251 C249 1.365 . S
C251 C252 1.409 . S
C251 H269 0.929 . S
C252 C251 1.409 . S
C252 C253 1.380 . S
C252 H270 0.930 . S
C253 C252 1.380 . S
C253 C260 1.357 . S
C254 C245 1.511 . S
C254 C255 1.341 . S
C254 C256 1.371 . S
C255 C254 1.341 . S
C255 C259 1.394 . S
C255 H271 0.930 . S
C256 C254 1.371 . S
C256 C257 1.392 . S
C256 H272 0.931 . S
C257 C256 1.392 . S
C257 C258 1.331 . S
C257 H275 0.932 . S
C258 C257 1.331 . S
C258 C259 1.336 . S
C259 C255 1.394 . S
C259 C258 1.336 . S
C259 H274 0.929 . S
C260 C250 1.386 . S
C260 C253 1.357 . S
C260 H273 0.928 . S
H261 C237 0.931 . S
H262 C239 0.930 . S
H263 C241 0.929 . S
H264 C242 0.931 . S
H265 C244 0.930 . S
H266 C248 0.931 . S
H267 C246 0.931 . S
H268 C250 0.931 . S
H269 C251 0.929 . S
H270 C252 0.930 . S
H271 C255 0.930 . S
H272 C256 0.931 . S
H273 C260 0.928 . S
H274 C259 0.929 . S
H275 C257 0.932 . S
C276 C277 1.386 . S
C276 C278 1.397 . S
C276 H300 0.931 . S
C277 C276 1.386 . S
C277 C281 1.397 1_565 S
C278 C276 1.397 . S
C278 C279 1.386 1_565 S
C278 H301 0.930 . S
C279 C278 1.386 1_545 S
C279 C280 1.376 . S
C279 C282 1.481 . S
C280 C279 1.376 . S
C280 C281 1.389 . S
C280 H302 0.929 . S
C281 C277 1.397 1_545 S
C281 C280 1.389 . S
C281 H303 0.931 . S
C282 C279 1.481 . S
C282 C283 1.387 1_545 S
C282 C287 1.390 . S
C283 C282 1.387 1_565 S
C283 C284 1.401 . S
C283 H304 0.930 . S
C284 C283 1.401 . S
C284 C285 1.376 1_565 S
C284 C293 1.511 . S
C285 C284 1.376 1_545 S
C285 C286 1.392 . S
C285 H306 0.931 . S
C286 C285 1.392 . S
C286 C287 1.361 . S
C286 C288 1.500 . S
C287 C282 1.390 . S
C287 C286 1.361 . S
C287 H305 0.931 . S
C288 C286 1.500 . S
C288 C289 1.371 . S
C288 C290 1.365 . S
C289 C288 1.371 . S
C289 C299 1.386 . S
C289 H307 0.931 . S
C290 C288 1.365 . S
C290 C291 1.409 . S
C290 H308 0.929 . S
C291 C290 1.409 . S
C291 C292 1.380 . S
C291 H309 0.930 . S
C292 C291 1.380 . S
C292 C299 1.357 . S
C293 C284 1.511 . S
C293 C294 1.341 . S
C293 C295 1.371 . S
C294 C293 1.341 . S
C294 C298 1.394 . S
C294 H310 0.930 . S
C295 C293 1.371 . S
C295 C296 1.392 . S
C295 H311 0.931 . S
C296 C295 1.392 . S
C296 C297 1.331 . S
C296 H314 0.932 . S
C297 C296 1.331 . S
C297 C298 1.336 . S
C298 C294 1.394 . S
C298 C297 1.336 . S
C298 H313 0.929 . S
C299 C289 1.386 . S
C299 C292 1.357 . S
C299 H312 0.928 . S
H300 C276 0.931 . S
H301 C278 0.930 . S
H302 C280 0.929 . S
H303 C281 0.931 . S
H304 C283 0.930 . S
H305 C287 0.931 . S
H306 C285 0.931 . S
H307 C289 0.931 . S
H308 C290 0.929 . S
H309 C291 0.930 . S
H310 C294 0.930 . S
H311 C295 0.931 . S
H312 C299 0.928 . S
H313 C298 0.929 . S
H314 C296 0.932 . S
C315 C316 1.386 . S
C315 C317 1.397 . S
C315 H339 0.931 . S
C316 C315 1.386 . S
C316 C320 1.397 . S
C317 C315 1.397 . S
C317 C318 1.384 . S
C317 H340 0.930 . S
C318 C317 1.384 . S
C318 C319 1.377 . S
C318 C321 1.481 . S
C319 C318 1.377 . S
C319 C320 1.389 . S
C319 H341 0.929 . S
C320 C316 1.397 . S
C320 C319 1.389 . S
C320 H342 0.931 . S
C321 C318 1.481 . S
C321 C322 1.387 . S
C321 C326 1.390 . S
C322 C321 1.387 . S
C322 C323 1.401 . S
C322 H343 0.930 . S
C323 C322 1.401 . S
C323 C324 1.376 . S
C323 C332 1.511 . S
C324 C323 1.376 . S
C324 C325 1.392 . S
C324 H345 0.931 . S
C325 C324 1.392 . S
C325 C326 1.361 . S
C325 C327 1.500 . S
C326 C321 1.390 . S
C326 C325 1.361 . S
C326 H344 0.931 . S
C327 C325 1.500 . S
C327 C328 1.371 . S
C327 C329 1.365 . S
C328 C327 1.371 . S
C328 C338 1.386 . S
C328 H346 0.931 . S
C329 C327 1.365 . S
C329 C330 1.409 . S
C329 H347 0.929 . S
C330 C329 1.409 . S
C330 C331 1.380 . S
C330 H348 0.930 . S
C331 C330 1.380 . S
C331 C338 1.357 . S
C332 C323 1.511 . S
C332 C333 1.341 . S
C332 C334 1.371 . S
C333 C332 1.341 . S
C333 C337 1.394 . S
C333 H349 0.930 . S
C334 C332 1.371 . S
C334 C335 1.392 . S
C334 H350 0.931 . S
C335 C334 1.392 . S
C335 C336 1.331 . S
C335 H353 0.932 . S
C336 C335 1.331 . S
C336 C337 1.336 . S
C337 C333 1.394 . S
C337 C336 1.336 . S
C337 H352 0.929 . S
C338 C328 1.386 . S
C338 C331 1.357 . S
C338 H351 0.928 . S
H339 C315 0.931 . S
H340 C317 0.930 . S
H341 C319 0.929 . S
H342 C320 0.931 . S
H343 C322 0.930 . S
H344 C326 0.931 . S
H345 C324 0.931 . S
H346 C328 0.931 . S
H347 C329 0.929 . S
H348 C330 0.930 . S
H349 C333 0.930 . S
H350 C334 0.931 . S
H351 C338 0.928 . S
H352 C337 0.929 . S
H353 C335 0.932 . S
H354 C362 0.929 . S
H355 C364 0.930 . S
H356 C366 0.930 . S
H357 C369 0.929 . S
H358 C372 0.930 . S
H359 C374 0.960 . S
H360 C374 0.960 . S
H361 C374 0.960 . S
C362 H354 0.929 . S
C362 C363 1.377 . S
C362 C364 1.384 . S
C363 C362 1.377 . S
C363 C369 1.390 . S
C364 H355 0.930 . S
C364 C362 1.384 . S
C364 C365 1.372 . S
C365 C364 1.372 . S
C365 C366 1.400 . S
C365 C370 1.490 . S
C366 H356 0.930 . S
C366 C365 1.400 . S
C366 C369 1.386 . S
H367 C383 0.930 . S
H368 C384 0.931 . S
C369 H357 0.929 . S
C369 C363 1.390 . S
C369 C366 1.386 . S
C370 C365 1.490 . S
C370 C372 1.395 . S
C370 C373 1.403 . S
H371 C377 0.930 . S
C372 H358 0.930 . S
C372 C370 1.395 . S
C372 C375 1.403 . S
C373 C370 1.403 . S
C373 C374 1.524 . S
C373 C377 1.400 . S
C374 H359 0.960 . S
C374 H360 0.960 . S
C374 H361 0.960 . S
C374 C373 1.524 . S
C375 C372 1.403 . S
C375 C376 1.392 . S
C375 C379 1.495 . S
C376 C375 1.392 . S
C376 C377 1.385 . S
C376 C378 1.478 . S
C377 H371 0.930 . S
C377 C373 1.400 . S
C377 C376 1.385 . S
C378 C376 1.478 . S
C378 C380 1.381 . S
C378 C384 1.383 . S
C379 C375 1.495 . S
C379 H385 0.959 . S
C379 H386 0.961 . S
C379 H387 0.960 . S
C380 C378 1.381 . S
C380 C381 1.394 . S
C380 H388 0.930 . S
C381 C380 1.394 . S
C381 C382 1.383 . S
C381 H389 0.929 . S
C382 C381 1.383 . S
C382 C383 1.377 . S
C383 H367 0.930 . S
C383 C382 1.377 . S
C383 C384 1.379 . S
C384 H368 0.931 . S
C384 C378 1.383 . S
C384 C383 1.379 . S
H385 C379 0.959 . S
H386 C379 0.961 . S
H387 C379 0.960 . S
H388 C380 0.930 . S
H389 C381 0.929 . S
H390 C398 0.929 . S
H391 C400 0.930 . S
H392 C402 0.930 . S
H393 C405 0.929 . S
H394 C408 0.930 . S
H395 C410 0.960 . S
H396 C410 0.960 . S
H397 C410 0.960 . S
C398 H390 0.929 . S
C398 C399 1.377 . S
C398 C400 1.384 . S
C399 C398 1.377 . S
C399 C405 1.390 . S
C400 H391 0.930 . S
C400 C398 1.384 . S
C400 C401 1.372 . S
C401 C400 1.372 . S
C401 C402 1.400 . S
C401 C406 1.490 . S
C402 H392 0.930 . S
C402 C401 1.400 . S
C402 C405 1.386 . S
H403 C419 0.930 . S
H404 C420 0.931 . S
C405 H393 0.929 . S
C405 C399 1.390 . S
C405 C402 1.386 . S
C406 C401 1.490 . S
C406 C408 1.395 . S
C406 C409 1.403 . S
H407 C413 0.930 . S
C408 H394 0.930 . S
C408 C406 1.395 . S
C408 C411 1.403 . S
C409 C406 1.403 . S
C409 C410 1.524 . S
C409 C413 1.400 . S
C410 H395 0.960 . S
C410 H396 0.960 . S
C410 H397 0.960 . S
C410 C409 1.524 . S
C411 C408 1.403 . S
C411 C412 1.392 . S
C411 C415 1.495 . S
C412 C411 1.392 . S
C412 C413 1.385 . S
C412 C414 1.478 . S
C413 H407 0.930 . S
C413 C409 1.400 . S
C413 C412 1.385 . S
C414 C412 1.478 . S
C414 C416 1.381 . S
C414 C420 1.383 . S
C415 C411 1.495 . S
C415 H421 0.959 . S
C415 H422 0.961 . S
C415 H423 0.960 . S
C416 C414 1.381 . S
C416 C417 1.394 . S
C416 H424 0.930 . S
C417 C416 1.394 . S
C417 C418 1.383 . S
C417 H425 0.929 . S
C418 C417 1.383 . S
C418 C419 1.377 . S
C419 H403 0.930 . S
C419 C418 1.377 . S
C419 C420 1.379 . S
C420 H404 0.931 . S
C420 C414 1.383 . S
C420 C419 1.379 . S
H421 C415 0.959 . S
H422 C415 0.961 . S
H423 C415 0.960 . S
H424 C416 0.930 . S
H425 C417 0.929 . S
H426 C434 0.929 . S
H427 C436 0.930 . S
H428 C438 0.930 . S
H429 C441 0.929 . S
H430 C444 0.930 . S
H431 C446 0.960 . S
H432 C446 0.960 . S
H433 C446 0.960 . S
C434 H426 0.929 . S
C434 C435 1.377 . S
C434 C436 1.384 . S
C435 C434 1.377 . S
C435 C441 1.390 . S
C436 H427 0.930 . S
C436 C434 1.384 . S
C436 C437 1.372 . S
C437 C436 1.372 . S
C437 C438 1.400 . S
C437 C442 1.490 . S
C438 H428 0.930 . S
C438 C437 1.400 . S
C438 C441 1.386 . S
H439 C455 0.930 . S
H440 C456 0.931 . S
C441 H429 0.929 . S
C441 C435 1.390 . S
C441 C438 1.386 . S
C442 C437 1.490 . S
C442 C444 1.395 . S
C442 C445 1.403 . S
H443 C449 0.930 . S
C444 H430 0.930 . S
C444 C442 1.395 . S
C444 C447 1.403 . S
C445 C442 1.403 . S
C445 C446 1.524 . S
C445 C449 1.400 . S
C446 H431 0.960 . S
C446 H432 0.960 . S
C446 H433 0.960 . S
C446 C445 1.524 . S
C447 C444 1.403 . S
C447 C448 1.392 . S
C447 C451 1.495 . S
C448 C447 1.392 . S
C448 C449 1.385 . S
C448 C450 1.478 . S
C449 H443 0.930 . S
C449 C445 1.400 . S
C449 C448 1.385 . S
C450 C448 1.478 . S
C450 C452 1.381 . S
C450 C456 1.383 . S
C451 C447 1.495 . S
C451 H457 0.959 . S
C451 H458 0.961 . S
C451 H459 0.960 . S
C452 C450 1.381 . S
C452 C453 1.394 . S
C452 H460 0.930 . S
C453 C452 1.394 . S
C453 C454 1.383 . S
C453 H461 0.929 . S
C454 C453 1.383 . S
C454 C455 1.377 . S
C455 H439 0.930 . S
C455 C454 1.377 . S
C455 C456 1.379 . S
C456 H440 0.931 . S
C456 C450 1.383 . S
C456 C455 1.379 . S
H457 C451 0.959 . S
H458 C451 0.961 . S
H459 C451 0.960 . S
H460 C452 0.930 . S
H461 C453 0.929 . S
H462 C470 0.929 . S
H463 C472 0.930 . S
H464 C474 0.930 . S
H465 C477 0.929 . S
H466 C480 0.930 . S
H467 C482 0.960 . S
H468 C482 0.960 . S
H469 C482 0.960 . S
C470 H462 0.929 . S
C470 C471 1.377 . S
C470 C472 1.384 . S
C471 C470 1.377 . S
C471 C477 1.390 . S
C472 H463 0.930 . S
C472 C470 1.384 . S
C472 C473 1.372 . S
C473 C472 1.372 . S
C473 C474 1.400 . S
C473 C478 1.490 . S
C474 H464 0.930 . S
C474 C473 1.400 . S
C474 C477 1.386 . S
H475 C491 0.930 . S
H476 C492 0.931 . S
C477 H465 0.929 . S
C477 C471 1.390 . S
C477 C474 1.386 . S
C478 C473 1.490 . S
C478 C480 1.395 . S
C478 C481 1.403 . S
H479 C485 0.930 . S
C480 H466 0.930 . S
C480 C478 1.395 . S
C480 C483 1.403 . S
C481 C478 1.403 . S
C481 C482 1.524 . S
C481 C485 1.400 . S
C482 H467 0.960 . S
C482 H468 0.960 . S
C482 H469 0.960 . S
C482 C481 1.524 . S
C483 C480 1.403 . S
C483 C484 1.392 . S
C483 C487 1.495 . S
C484 C483 1.392 . S
C484 C485 1.385 . S
C484 C486 1.478 . S
C485 H479 0.930 . S
C485 C481 1.400 . S
C485 C484 1.385 . S
C486 C484 1.478 . S
C486 C488 1.381 . S
C486 C492 1.383 . S
C487 C483 1.495 . S
C487 H493 0.959 . S
C487 H494 0.961 . S
C487 H495 0.960 . S
C488 C486 1.381 . S
C488 C489 1.394 . S
C488 H496 0.930 . S
C489 C488 1.394 . S
C489 C490 1.383 . S
C489 H497 0.929 . S
C490 C489 1.383 . S
C490 C491 1.377 . S
C491 H475 0.930 . S
C491 C490 1.377 . S
C491 C492 1.379 . S
C492 H476 0.931 . S
C492 C486 1.383 . S
C492 C491 1.379 . S
H493 C487 0.959 . S
H494 C487 0.961 . S
H495 C487 0.960 . S
H496 C488 0.930 . S
H497 C489 0.929 . S
H498 C506 0.929 . S
H499 C508 0.930 . S
H500 C510 0.930 . S
H501 C513 0.929 . S
H502 C516 0.930 . S
H503 C518 0.960 . S
H504 C518 0.960 . S
H505 C518 0.960 . S
C506 H498 0.929 . S
C506 C507 1.377 . S
C506 C508 1.384 . S
C507 C506 1.377 . S
C507 C513 1.390 . S
C508 H499 0.930 . S
C508 C506 1.384 . S
C508 C509 1.372 . S
C509 C508 1.372 . S
C509 C510 1.400 . S
C509 C514 1.490 . S
C510 H500 0.930 . S
C510 C509 1.400 . S
C510 C513 1.386 . S
H511 C527 0.930 . S
H512 C528 0.931 . S
C513 H501 0.929 . S
C513 C507 1.390 . S
C513 C510 1.386 . S
C514 C509 1.490 . S
C514 C516 1.395 . S
C514 C517 1.403 . S
H515 C521 0.930 . S
C516 H502 0.930 . S
C516 C514 1.395 . S
C516 C519 1.403 . S
C517 C514 1.403 . S
C517 C518 1.524 . S
C517 C521 1.400 . S
C518 H503 0.960 . S
C518 H504 0.960 . S
C518 H505 0.960 . S
C518 C517 1.524 . S
C519 C516 1.403 . S
C519 C520 1.392 . S
C519 C523 1.495 . S
C520 C519 1.392 . S
C520 C521 1.385 . S
C520 C522 1.478 . S
C521 H515 0.930 . S
C521 C517 1.400 . S
C521 C520 1.385 . S
C522 C520 1.478 . S
C522 C524 1.381 . S
C522 C528 1.383 . S
C523 C519 1.495 . S
C523 H529 0.959 . S
C523 H530 0.961 . S
C523 H531 0.960 . S
C524 C522 1.381 . S
C524 C525 1.394 . S
C524 H532 0.930 . S
C525 C524 1.394 . S
C525 C526 1.383 . S
C525 H533 0.929 . S
C526 C525 1.383 . S
C526 C527 1.377 . S
C527 H511 0.930 . S
C527 C526 1.377 . S
C527 C528 1.379 . S
C528 H512 0.931 . S
C528 C522 1.383 . S
C528 C527 1.379 . S
H529 C523 0.959 . S
H530 C523 0.961 . S
H531 C523 0.960 . S
H532 C524 0.930 . S
H533 C525 0.929 . S
H534 C542 0.929 . S
H535 C544 0.930 . S
H536 C546 0.930 . S
H537 C549 0.929 . S
H538 C552 0.930 . S
H539 C554 0.960 . S
H540 C554 0.960 . S
H541 C554 0.960 . S
C542 H534 0.929 . S
C542 C543 1.377 . S
C542 C544 1.384 . S
C543 C542 1.377 . S
C543 C549 1.390 . S
C544 H535 0.930 . S
C544 C542 1.384 . S
C544 C545 1.372 . S
C545 C544 1.372 . S
C545 C546 1.400 . S
C545 C550 1.490 . S
C546 H536 0.930 . S
C546 C545 1.400 . S
C546 C549 1.386 . S
H547 C563 0.930 . S
H548 C564 0.931 . S
C549 H537 0.929 . S
C549 C543 1.390 . S
C549 C546 1.386 . S
C550 C545 1.490 . S
C550 C552 1.395 . S
C550 C553 1.403 . S
H551 C557 0.930 . S
C552 H538 0.930 . S
C552 C550 1.395 . S
C552 C555 1.403 . S
C553 C550 1.403 . S
C553 C554 1.524 . S
C553 C557 1.400 . S
C554 H539 0.960 . S
C554 H540 0.960 . S
C554 H541 0.960 . S
C554 C553 1.524 . S
C555 C552 1.403 . S
C555 C556 1.392 . S
C555 C559 1.495 . S
C556 C555 1.392 . S
C556 C557 1.385 . S
C556 C558 1.478 . S
C557 H551 0.930 . S
C557 C553 1.400 . S
C557 C556 1.385 . S
C558 C556 1.478 . S
C558 C560 1.381 . S
C558 C564 1.383 . S
C559 C555 1.495 . S
C559 H565 0.959 . S
C559 H566 0.961 . S
C559 H567 0.960 . S
C560 C558 1.381 . S
C560 C561 1.394 . S
C560 H568 0.930 . S
C561 C560 1.394 . S
C561 C562 1.383 . S
C561 H569 0.929 . S
C562 C561 1.383 . S
C562 C563 1.377 . S
C563 H547 0.930 . S
C563 C562 1.377 . S
C563 C564 1.379 . S
C564 H548 0.931 . S
C564 C558 1.383 . S
C564 C563 1.379 . S
H565 C559 0.959 . S
H566 C559 0.961 . S
H567 C559 0.960 . S
H568 C560 0.930 . S
H569 C561 0.929 . S
H570 C578 0.929 . S
H571 C580 0.930 . S
H572 C582 0.930 . S
H573 C585 0.929 . S
H574 C588 0.930 . S
H575 C590 0.960 . S
H576 C590 0.960 . S
H577 C590 0.960 . S
C578 H570 0.929 . S
C578 C579 1.377 . S
C578 C580 1.384 . S
C579 C578 1.377 . S
C579 C585 1.390 . S
C580 H571 0.930 . S
C580 C578 1.384 . S
C580 C581 1.372 . S
C581 C580 1.372 . S
C581 C582 1.400 . S
C581 C586 1.490 . S
C582 H572 0.930 . S
C582 C581 1.400 . S
C582 C585 1.386 . S
H583 C599 0.930 . S
H584 C600 0.931 . S
C585 H573 0.929 . S
C585 C579 1.390 . S
C585 C582 1.386 . S
C586 C581 1.490 . S
C586 C588 1.395 . S
C586 C589 1.403 . S
H587 C593 0.930 . S
C588 H574 0.930 . S
C588 C586 1.395 . S
C588 C591 1.403 . S
C589 C586 1.403 . S
C589 C590 1.524 . S
C589 C593 1.400 . S
C590 H575 0.960 . S
C590 H576 0.960 . S
C590 H577 0.960 . S
C590 C589 1.524 . S
C591 C588 1.403 . S
C591 C592 1.392 . S
C591 C595 1.495 . S
C592 C591 1.392 . S
C592 C593 1.385 . S
C592 C594 1.478 . S
C593 H587 0.930 . S
C593 C589 1.400 . S
C593 C592 1.385 . S
C594 C592 1.478 . S
C594 C596 1.381 . S
C594 C600 1.383 . S
C595 C591 1.495 . S
C595 H601 0.959 . S
C595 H602 0.961 . S
C595 H603 0.960 . S
C596 C594 1.381 . S
C596 C597 1.394 . S
C596 H604 0.930 . S
C597 C596 1.394 . S
C597 C598 1.383 . S
C597 H605 0.929 . S
C598 C597 1.383 . S
C598 C599 1.377 . S
C599 H583 0.930 . S
C599 C598 1.377 . S
C599 C600 1.379 . S
C600 H584 0.931 . S
C600 C594 1.383 . S
C600 C599 1.379 . S
H601 C595 0.959 . S
H602 C595 0.961 . S
H603 C595 0.960 . S
H604 C596 0.930 . S
H605 C597 0.929 . S
H606 C614 0.929 . S
H607 C616 0.930 . S
H608 C618 0.930 . S
H609 C621 0.929 . S
H610 C624 0.930 . S
H611 C626 0.960 . S
H612 C626 0.960 . S
H613 C626 0.960 . S
C614 H606 0.929 . S
C614 C615 1.377 . S
C614 C616 1.384 . S
C615 C614 1.377 . S
C615 C621 1.390 . S
C616 H607 0.930 . S
C616 C614 1.384 . S
C616 C617 1.372 . S
C617 C616 1.372 . S
C617 C618 1.400 . S
C617 C622 1.490 . S
C618 H608 0.930 . S
C618 C617 1.400 . S
C618 C621 1.386 . S
H619 C635 0.930 . S
H620 C636 0.931 . S
C621 H609 0.929 . S
C621 C615 1.390 . S
C621 C618 1.386 . S
C622 C617 1.490 . S
C622 C624 1.395 . S
C622 C625 1.403 . S
H623 C629 0.930 . S
C624 H610 0.930 . S
C624 C622 1.395 . S
C624 C627 1.403 . S
C625 C622 1.403 . S
C625 C626 1.524 . S
C625 C629 1.400 . S
C626 H611 0.960 . S
C626 H612 0.960 . S
C626 H613 0.960 . S
C626 C625 1.524 . S
C627 C624 1.403 . S
C627 C628 1.392 . S
C627 C631 1.495 . S
C628 C627 1.392 . S
C628 C629 1.385 . S
C628 C630 1.478 . S
C629 H623 0.930 . S
C629 C625 1.400 . S
C629 C628 1.385 . S
C630 C628 1.478 . S
C630 C632 1.381 . S
C630 C636 1.383 . S
C631 C627 1.495 . S
C631 H637 0.959 . S
C631 H638 0.961 . S
C631 H639 0.960 . S
C632 C630 1.381 . S
C632 C633 1.394 . S
C632 H640 0.930 . S
C633 C632 1.394 . S
C633 C634 1.383 . S
C633 H641 0.929 . S
C634 C633 1.383 . S
C634 C635 1.377 . S
C635 H619 0.930 . S
C635 C634 1.377 . S
C635 C636 1.379 . S
C636 H620 0.931 . S
C636 C630 1.383 . S
C636 C635 1.379 . S
H637 C631 0.959 . S
H638 C631 0.961 . S
H639 C631 0.960 . S
H640 C632 0.930 . S
H641 C633 0.929 . S
H642 C650 0.929 . S
H643 C652 0.930 . S
H644 C654 0.930 . S
H645 C657 0.929 . S
H646 C660 0.930 . S
H647 C662 0.960 . S
H648 C662 0.960 . S
H649 C662 0.960 . S
C650 H642 0.929 . S
C650 C651 1.377 . S
C650 C652 1.384 . S
C651 C650 1.377 . S
C651 C657 1.390 . S
C652 H643 0.930 . S
C652 C650 1.384 . S
C652 C653 1.372 . S
C653 C652 1.372 . S
C653 C654 1.400 . S
C653 C658 1.490 . S
C654 H644 0.930 . S
C654 C653 1.400 . S
C654 C657 1.386 . S
H655 C671 0.930 . S
H656 C672 0.931 . S
C657 H645 0.929 . S
C657 C651 1.390 . S
C657 C654 1.386 . S
C658 C653 1.490 . S
C658 C660 1.395 . S
C658 C661 1.403 . S
H659 C665 0.930 . S
C660 H646 0.930 . S
C660 C658 1.395 . S
C660 C663 1.403 . S
C661 C658 1.403 . S
C661 C662 1.524 . S
C661 C665 1.400 . S
C662 H647 0.960 . S
C662 H648 0.960 . S
C662 H649 0.960 . S
C662 C661 1.524 . S
C663 C660 1.403 . S
C663 C664 1.392 . S
C663 C667 1.495 . S
C664 C663 1.392 . S
C664 C665 1.385 . S
C664 C666 1.478 . S
C665 H659 0.930 . S
C665 C661 1.400 . S
C665 C664 1.385 . S
C666 C664 1.478 . S
C666 C668 1.381 . S
C666 C672 1.383 . S
C667 C663 1.495 . S
C667 H673 0.959 . S
C667 H674 0.961 . S
C667 H675 0.960 . S
C668 C666 1.381 . S
C668 C669 1.394 . S
C668 H676 0.930 . S
C669 C668 1.394 . S
C669 C670 1.383 . S
C669 H677 0.929 . S
C670 C669 1.383 . S
C670 C671 1.377 . S
C671 H655 0.930 . S
C671 C670 1.377 . S
C671 C672 1.379 . S
C672 H656 0.931 . S
C672 C666 1.383 . S
C672 C671 1.379 . S
H673 C667 0.959 . S
H674 C667 0.961 . S
H675 C667 0.960 . S
H676 C668 0.930 . S
H677 C669 0.929 . S
H678 C686 0.929 . S
H679 C688 0.930 . S
H680 C690 0.930 . S
H681 C693 0.929 . S
H682 C696 0.930 . S
H683 C698 0.960 . S
H684 C698 0.960 . S
H685 C698 0.960 . S
C686 H678 0.929 . S
C686 C687 1.377 . S
C686 C688 1.384 . S
C687 C686 1.377 . S
C687 C693 1.390 . S
C688 H679 0.930 . S
C688 C686 1.384 . S
C688 C689 1.372 . S
C689 C688 1.372 . S
C689 C690 1.400 . S
C689 C694 1.490 . S
C690 H680 0.930 . S
C690 C689 1.400 . S
C690 C693 1.386 . S
H691 C707 0.930 . S
H692 C708 0.931 . S
C693 H681 0.929 . S
C693 C687 1.390 . S
C693 C690 1.386 . S
C694 C689 1.490 . S
C694 C696 1.395 . S
C694 C697 1.403 . S
H695 C701 0.930 . S
C696 H682 0.930 . S
C696 C694 1.395 . S
C696 C699 1.403 . S
C697 C694 1.403 . S
C697 C698 1.524 . S
C697 C701 1.400 . S
C698 H683 0.960 . S
C698 H684 0.960 . S
C698 H685 0.960 . S
C698 C697 1.524 . S
C699 C696 1.403 . S
C699 C700 1.392 . S
C699 C703 1.495 . S
C700 C699 1.392 . S
C700 C701 1.385 . S
C700 C702 1.478 . S
C701 H695 0.930 . S
C701 C697 1.400 . S
C701 C700 1.385 . S
C702 C700 1.478 . S
C702 C704 1.381 . S
C702 C708 1.383 . S
C703 C699 1.495 . S
C703 H709 0.959 . S
C703 H710 0.961 . S
C703 H711 0.960 . S
C704 C702 1.381 . S
C704 C705 1.394 . S
C704 H712 0.930 . S
C705 C704 1.394 . S
C705 C706 1.383 . S
C705 H713 0.929 . S
C706 C705 1.383 . S
C706 C707 1.377 . S
C707 H691 0.930 . S
C707 C706 1.377 . S
C707 C708 1.379 . S
C708 H692 0.931 . S
C708 C702 1.383 . S
C708 C707 1.379 . S
H709 C703 0.959 . S
H710 C703 0.961 . S
H711 C703 0.960 . S
H712 C704 0.930 . S
H713 C705 0.929 . S
H714 C722 0.929 . S
H715 C724 0.930 . S
H716 C726 0.930 . S
H717 C729 0.929 . S
H718 C732 0.930 . S
H719 C734 0.960 . S
H720 C734 0.960 . S
H721 C734 0.960 . S
C722 H714 0.929 . S
C722 C723 1.377 . S
C722 C724 1.384 . S
C723 C722 1.377 . S
C723 C729 1.390 . S
C724 H715 0.930 . S
C724 C722 1.384 . S
C724 C725 1.372 . S
C725 C724 1.372 . S
C725 C726 1.400 . S
C725 C730 1.490 . S
C726 H716 0.930 . S
C726 C725 1.400 . S
C726 C729 1.386 . S
H727 C743 0.930 . S
H728 C744 0.931 . S
C729 H717 0.929 . S
C729 C723 1.390 . S
C729 C726 1.386 . S
C730 C725 1.490 . S
C730 C732 1.395 . S
C730 C733 1.403 . S
H731 C737 0.930 . S
C732 H718 0.930 . S
C732 C730 1.395 . S
C732 C735 1.403 . S
C733 C730 1.403 . S
C733 C734 1.524 . S
C733 C737 1.400 . S
C734 H719 0.960 . S
C734 H720 0.960 . S
C734 H721 0.960 . S
C734 C733 1.524 . S
C735 C732 1.403 . S
C735 C736 1.392 . S
C735 C739 1.495 . S
C736 C735 1.392 . S
C736 C737 1.385 . S
C736 C738 1.478 . S
C737 H731 0.930 . S
C737 C733 1.400 . S
C737 C736 1.385 . S
C738 C736 1.478 . S
C738 C740 1.381 . S
C738 C744 1.383 . S
C739 C735 1.495 . S
C739 H745 0.959 . S
C739 H746 0.961 . S
C739 H747 0.960 . S
C740 C738 1.381 . S
C740 C741 1.394 . S
C740 H748 0.930 . S
C741 C740 1.394 . S
C741 C742 1.383 . S
C741 H749 0.929 . S
C742 C741 1.383 . S
C742 C743 1.377 . S
C743 H727 0.930 . S
C743 C742 1.377 . S
C743 C744 1.379 . S
C744 H728 0.931 . S
C744 C738 1.383 . S
C744 C743 1.379 . S
H745 C739 0.959 . S
H746 C739 0.961 . S
H747 C739 0.960 . S
H748 C740 0.930 . S
H749 C741 0.929 . S
H750 C758 0.929 . S
H751 C760 0.930 . S
H752 C762 0.930 . S
H753 C765 0.929 . S
H754 C768 0.930 . S
H755 C770 0.960 . S
H756 C770 0.960 . S
H757 C770 0.960 . S
C758 H750 0.929 . S
C758 C759 1.377 . S
C758 C760 1.384 . S
C759 C758 1.377 . S
C759 C765 1.390 . S
C760 H751 0.930 . S
C760 C758 1.384 . S
C760 C761 1.372 . S
C761 C760 1.372 . S
C761 C762 1.400 . S
C761 C766 1.490 . S
C762 H752 0.930 . S
C762 C761 1.400 . S
C762 C765 1.386 . S
H763 C779 0.930 . S
H764 C780 0.931 . S
C765 H753 0.929 . S
C765 C759 1.390 . S
C765 C762 1.386 . S
C766 C761 1.490 . S
C766 C768 1.395 . S
C766 C769 1.403 . S
H767 C773 0.930 . S
C768 H754 0.930 . S
C768 C766 1.395 . S
C768 C771 1.403 . S
C769 C766 1.403 . S
C769 C770 1.524 . S
C769 C773 1.400 . S
C770 H755 0.960 . S
C770 H756 0.960 . S
C770 H757 0.960 . S
C770 C769 1.524 . S
C771 C768 1.403 . S
C771 C772 1.392 . S
C771 C775 1.495 . S
C772 C771 1.392 . S
C772 C773 1.385 . S
C772 C774 1.478 . S
C773 H767 0.930 . S
C773 C769 1.400 . S
C773 C772 1.385 . S
C774 C772 1.478 . S
C774 C776 1.381 . S
C774 C780 1.383 . S
C775 C771 1.495 . S
C775 H781 0.959 . S
C775 H782 0.961 . S
C775 H783 0.960 . S
C776 C774 1.381 . S
C776 C777 1.394 . S
C776 H784 0.930 . S
C777 C776 1.394 . S
C777 C778 1.383 . S
C777 H785 0.929 . S
C778 C777 1.383 . S
C778 C779 1.377 . S
C779 H763 0.930 . S
C779 C778 1.377 . S
C779 C780 1.379 . S
C780 H764 0.931 . S
C780 C774 1.383 . S
C780 C779 1.379 . S
H781 C775 0.959 . S
H782 C775 0.961 . S
H783 C775 0.960 . S
H784 C776 0.930 . S
H785 C777 0.929 . S
H786 C794 0.929 . S
H787 C796 0.944 . S
H788 C798 0.930 . S
H789 C801 0.929 . S
H790 C804 0.930 . S
H791 C806 0.960 . S
H792 C806 0.960 . S
H793 C806 0.960 . S
C794 H786 0.929 . S
C794 C795 1.377 1_655 S
C794 C796 1.384 . S
C795 C794 1.377 1_455 S
C795 C801 1.390 . S
C796 H787 0.944 . S
C796 C794 1.384 . S
C796 C797 1.359 1_655 S
C797 C796 1.359 1_455 S
C797 C798 1.400 . S
C797 C802 1.490 . S
C798 H788 0.930 . S
C798 C797 1.400 . S
C798 C801 1.386 . S
H799 C815 0.930 . S
H800 C816 0.931 . S
C801 H789 0.929 . S
C801 C795 1.390 . S
C801 C798 1.386 . S
C802 C797 1.490 . S
C802 C804 1.395 . S
C802 C805 1.403 . S
H803 C809 0.930 . S
C804 H790 0.930 . S
C804 C802 1.395 . S
C804 C807 1.403 . S
C805 C802 1.403 . S
C805 C806 1.524 . S
C805 C809 1.400 . S
C806 H791 0.960 . S
C806 H792 0.960 . S
C806 H793 0.960 . S
C806 C805 1.524 . S
C807 C804 1.403 . S
C807 C808 1.392 . S
C807 C811 1.495 . S
C808 C807 1.392 . S
C808 C809 1.385 . S
C808 C810 1.478 . S
C809 H803 0.930 . S
C809 C805 1.400 . S
C809 C808 1.385 . S
C810 C808 1.478 . S
C810 C812 1.381 . S
C810 C816 1.383 . S
C811 C807 1.495 . S
C811 H817 0.959 . S
C811 H818 0.961 . S
C811 H819 0.960 1_455 S
C812 C810 1.381 . S
C812 C813 1.394 1_554 S
C812 H820 0.930 1_455 S
C813 C812 1.394 1_556 S
C813 C814 1.383 . S
C813 H821 0.929 1_455 S
C814 C813 1.383 . S
C814 C815 1.377 . S
C815 H799 0.930 . S
C815 C814 1.377 . S
C815 C816 1.379 1_556 S
C816 H800 0.931 . S
C816 C810 1.383 . S
C816 C815 1.379 1_554 S
H817 C811 0.959 . S
H818 C811 0.961 . S
H819 C811 0.960 1_655 S
H820 C812 0.930 1_655 S
H821 C813 0.929 1_655 S
H822 C830 0.929 . S
H823 C832 0.930 . S
H824 C834 0.930 . S
H825 C837 0.929 . S
H826 C840 0.930 . S
H827 C842 0.960 . S
H828 C842 0.960 . S
H829 C842 0.960 . S
C830 H822 0.929 . S
C830 C831 1.377 . S
C830 C832 1.384 . S
C831 C830 1.377 . S
C831 C837 1.390 . S
C832 H823 0.930 . S
C832 C830 1.384 . S
C832 C833 1.372 . S
C833 C832 1.372 . S
C833 C834 1.400 . S
C833 C838 1.490 . S
C834 H824 0.930 . S
C834 C833 1.400 . S
C834 C837 1.386 . S
H835 C851 0.930 . S
H836 C852 0.931 . S
C837 H825 0.929 . S
C837 C831 1.390 . S
C837 C834 1.386 . S
C838 C833 1.490 . S
C838 C840 1.395 . S
C838 C841 1.403 1_545 S
H839 C845 0.930 . S
C840 H826 0.930 . S
C840 C838 1.395 . S
C840 C843 1.403 . S
C841 C838 1.403 1_565 S
C841 C842 1.524 . S
C841 C845 1.400 . S
C842 H827 0.960 . S
C842 H828 0.960 . S
C842 H829 0.960 . S
C842 C841 1.524 . S
C843 C840 1.403 . S
C843 C844 1.392 . S
C843 C847 1.495 . S
C844 C843 1.392 . S
C844 C845 1.385 1_545 S
C844 C846 1.478 . S
C845 H839 0.930 . S
C845 C841 1.400 . S
C845 C844 1.385 1_565 S
C846 C844 1.478 . S
C846 C848 1.381 . S
C846 C852 1.383 . S
C847 C843 1.495 . S
C847 H853 0.959 . S
C847 H854 0.961 . S
C847 H855 0.960 . S
C848 C846 1.381 . S
C848 C849 1.394 . S
C848 H856 0.930 . S
C849 C848 1.394 . S
C849 C850 1.383 . S
C849 H857 0.929 . S
C850 C849 1.383 . S
C850 C851 1.377 . S
C851 H835 0.930 . S
C851 C850 1.377 . S
C851 C852 1.379 . S
C852 H836 0.931 . S
C852 C846 1.383 . S
C852 C851 1.379 . S
H853 C847 0.959 . S
H854 C847 0.961 . S
H855 C847 0.960 . S
H856 C848 0.930 . S
H857 C849 0.929 . S
H858 C866 0.929 . S
H859 C868 0.930 . S
H860 C870 0.930 . S
H861 C873 0.929 . S
H862 C876 0.930 . S
H863 C878 0.960 . S
H864 C878 0.960 . S
H865 C878 0.960 . S
C866 H858 0.929 . S
C866 C867 1.377 . S
C866 C868 1.384 . S
C867 C866 1.377 . S
C867 C873 1.390 . S
C868 H859 0.930 . S
C868 C866 1.384 . S
C868 C869 1.372 . S
C869 C868 1.372 . S
C869 C870 1.400 . S
C869 C874 1.490 . S
C870 H860 0.930 . S
C870 C869 1.400 . S
C870 C873 1.386 . S
H871 C887 0.930 . S
H872 C888 0.931 . S
C873 H861 0.929 . S
C873 C867 1.390 . S
C873 C870 1.386 . S
C874 C869 1.490 . S
C874 C876 1.395 . S
C874 C877 1.403 . S
H875 C881 0.930 . S
C876 H862 0.930 . S
C876 C874 1.395 . S
C876 C879 1.403 . S
C877 C874 1.403 . S
C877 C878 1.524 . S
C877 C881 1.400 . S
C878 H863 0.960 . S
C878 H864 0.960 . S
C878 H865 0.960 . S
C878 C877 1.524 . S
C879 C876 1.403 . S
C879 C880 1.392 . S
C879 C883 1.495 . S
C880 C879 1.392 . S
C880 C881 1.385 . S
C880 C882 1.478 . S
C881 H875 0.930 . S
C881 C877 1.400 . S
C881 C880 1.385 . S
C882 C880 1.478 . S
C882 C884 1.381 . S
C882 C888 1.383 . S
C883 C879 1.495 . S
C883 H889 0.959 . S
C883 H890 0.961 . S
C883 H891 0.960 . S
C884 C882 1.381 . S
C884 C885 1.394 . S
C884 H892 0.930 . S
C885 C884 1.394 . S
C885 C886 1.383 . S
C885 H893 0.929 . S
C886 C885 1.383 . S
C886 C887 1.377 . S
C887 H871 0.930 . S
C887 C886 1.377 . S
C887 C888 1.379 . S
C888 H872 0.931 . S
C888 C882 1.383 . S
C888 C887 1.379 . S
H889 C883 0.959 . S
H890 C883 0.961 . S
H891 C883 0.960 . S
H892 C884 0.930 . S
H893 C885 0.929 . S
H894 C902 0.929 . S
H895 C904 0.930 . S
H896 C906 0.930 . S
H897 C909 0.929 . S
H898 C912 0.930 . S
H899 C914 0.960 . S
H900 C914 0.960 . S
H901 C914 0.960 . S
C902 H894 0.929 . S
C902 C903 1.377 . S
C902 C904 1.384 . S
C903 C902 1.377 . S
C903 C909 1.390 1_545 S
C904 H895 0.930 . S
C904 C902 1.384 . S
C904 C905 1.372 . S
C905 C904 1.372 . S
C905 C906 1.400 1_545 S
C905 C910 1.490 . S
C906 H896 0.930 . S
C906 C905 1.400 1_565 S
C906 C909 1.386 . S
H907 C923 0.930 . S
H908 C924 0.931 . S
C909 H897 0.929 . S
C909 C903 1.390 1_565 S
C909 C906 1.386 . S
C910 C905 1.490 . S
C910 C912 1.395 . S
C910 C913 1.403 1_545 S
H911 C917 0.930 . S
C912 H898 0.930 . S
C912 C910 1.395 . S
C912 C915 1.403 . S
C913 C910 1.403 1_565 S
C913 C914 1.524 . S
C913 C917 1.400 . S
C914 H899 0.960 . S
C914 H900 0.960 . S
C914 H901 0.960 . S
C914 C913 1.524 . S
C915 C912 1.403 . S
C915 C916 1.392 . S
C915 C919 1.495 . S
C916 C915 1.392 . S
C916 C917 1.385 1_545 S
C916 C918 1.478 . S
C917 H911 0.930 . S
C917 C913 1.400 . S
C917 C916 1.385 1_565 S
C918 C916 1.478 . S
C918 C920 1.381 . S
C918 C924 1.383 1_545 S
C919 C915 1.495 . S
C919 H925 0.959 . S
C919 H926 0.961 . S
C919 H927 0.960 . S
C920 C918 1.381 . S
C920 C921 1.394 . S
C920 H928 0.930 . S
C921 C920 1.394 . S
C921 C922 1.375 . S
C921 H929 0.929 . S
C922 C921 1.375 . S
C922 C923 1.391 1_545 S
C923 H907 0.930 . S
C923 C922 1.391 1_565 S
C923 C924 1.379 . S
C924 H908 0.931 . S
C924 C918 1.383 1_565 S
C924 C923 1.379 . S
H925 C919 0.959 . S
H926 C919 0.961 . S
H927 C919 0.960 . S
H928 C920 0.930 . S
H929 C921 0.929 . S
H930 C938 0.929 . S
H931 C940 0.930 . S
H932 C942 0.930 . S
H933 C945 0.929 . S
H934 C948 0.930 . S
H935 C950 0.960 . S
H936 C950 0.960 . S
H937 C950 0.960 . S
C938 H930 0.929 . S
C938 C939 1.377 . S
C938 C940 1.384 . S
C939 C938 1.377 . S
C939 C945 1.390 . S
C940 H931 0.930 . S
C940 C938 1.384 . S
C940 C941 1.372 . S
C941 C940 1.372 . S
C941 C942 1.400 . S
C941 C946 1.490 . S
C942 H932 0.930 . S
C942 C941 1.400 . S
C942 C945 1.386 . S
H943 C959 0.930 . S
H944 C960 0.931 . S
C945 H933 0.929 . S
C945 C939 1.390 . S
C945 C942 1.386 . S
C946 C941 1.490 . S
C946 C948 1.395 . S
C946 C949 1.403 . S
H947 C953 0.930 . S
C948 H934 0.930 . S
C948 C946 1.395 . S
C948 C951 1.403 . S
C949 C946 1.403 . S
C949 C950 1.524 . S
C949 C953 1.400 . S
C950 H935 0.960 . S
C950 H936 0.960 . S
C950 H937 0.960 . S
C950 C949 1.524 . S
C951 C948 1.403 . S
C951 C952 1.392 . S
C951 C955 1.495 . S
C952 C951 1.392 . S
C952 C953 1.385 . S
C952 C954 1.478 . S
C953 H947 0.930 . S
C953 C949 1.400 . S
C953 C952 1.385 . S
C954 C952 1.478 . S
C954 C956 1.381 . S
C954 C960 1.383 . S
C955 C951 1.495 . S
C955 H961 0.959 . S
C955 H962 0.961 . S
C955 H963 0.960 . S
C956 C954 1.381 . S
C956 C957 1.394 1_556 S
C956 H964 0.930 . S
C957 C956 1.394 1_554 S
C957 C958 1.383 . S
C957 H965 0.929 . S
C958 C957 1.383 . S
C958 C959 1.377 . S
C959 H943 0.930 . S
C959 C958 1.377 . S
C959 C960 1.379 1_554 S
C960 H944 0.931 . S
C960 C954 1.383 . S
C960 C959 1.379 1_556 S
H961 C955 0.959 . S
H962 C955 0.961 . S
H963 C955 0.960 . S
H964 C956 0.930 . S
H965 C957 0.929 . S
H966 C974 0.929 . S
H967 C976 0.930 . S
H968 C978 0.930 . S
H969 C981 0.929 . S
H970 C984 0.930 . S
H971 C986 0.960 . S
H972 C986 0.960 . S
H973 C986 0.960 . S
C974 H966 0.929 . S
C974 C975 1.377 . S
C974 C976 1.384 . S
C975 C974 1.377 . S
C975 C981 1.390 1_455 S
C976 H967 0.930 . S
C976 C974 1.384 . S
C976 C977 1.372 . S
C977 C976 1.372 . S
C977 C978 1.400 1_455 S
C977 C982 1.490 . S
C978 H968 0.930 . S
C978 C977 1.400 1_655 S
C978 C981 1.386 . S
H979 C995 0.930 . S
H980 C996 0.931 . S
C981 H969 0.929 . S
C981 C975 1.390 1_655 S
C981 C978 1.386 . S
C982 C977 1.490 . S
C982 C984 1.395 . S
C982 C985 1.403 1_455 S
H983 C989 0.930 . S
C984 H970 0.930 . S
C984 C982 1.395 . S
C984 C987 1.403 . S
C985 C982 1.403 1_655 S
C985 C986 1.524 . S
C985 C989 1.400 . S
C986 H971 0.960 . S
C986 H972 0.960 . S
C986 H973 0.960 . S
C986 C985 1.524 . S
C987 C984 1.403 . S
C987 C988 1.392 . S
C987 C991 1.495 . S
C988 C987 1.392 . S
C988 C989 1.385 1_455 S
C988 C990 1.478 . S
C989 H983 0.930 . S
C989 C985 1.400 . S
C989 C988 1.385 1_655 S
C990 C988 1.478 . S
C990 C992 1.381 . S
C990 C996 1.383 1_455 S
C991 C987 1.495 . S
C991 H997 0.959 . S
C991 H998 0.961 . S
C991 H999 0.960 . S
C992 C990 1.381 . S
C992 C993 1.394 . S
C992 H1000 0.930 . S
C993 C992 1.394 . S
C993 C994 1.383 . S
C993 H1001 0.929 . S
C994 C993 1.383 . S
C994 C995 1.377 1_455 S
C995 H979 0.930 . S
C995 C994 1.377 1_655 S
C995 C996 1.379 . S
C996 H980 0.931 . S
C996 C990 1.383 1_655 S
C996 C995 1.379 . S
H997 C991 0.959 . S
H998 C991 0.961 . S
H999 C991 0.960 . S
H1000 C992 0.930 . S
H1001 C993 0.929 . S
C363 C7 0.468 . S
C382 C331 0.455 . S
C399 C51 1.867 . S
C418 C258 1.822 . S
C435 C87 1.156 . S
C454 C297 1.143 . S
C471 C16 0.337 . S
C490 C336 0.292 . S
C526 C253 1.922 . S
C507 C42 1.966 . S
C562 C292 1.279 . S
C543 C96 1.266 . S
C579 C47 1.156 . S
C598 C180 1.156 . S
C615 C91 3.081 . S
C634 C214 3.034 . S
C651 C2 1.994 . S
C670 C136 1.968 . S
C706 C175 1.248 . S
C687 C56 1.247 . S
C742 C219 2.906 . S
C723 C82 2.918 . S
C759 C11 1.859 . S
C778 C141 1.826 . S
C814 C199 1.758 . S
C795 C19 1.702 . S
C831 C50 1.346 . S
C850 C121 1.383 . S
C867 C99 1.457 . S
C886 C160 1.506 . S
C922 C277 1.481 1_545 S
C903 C59 1.457 . S
C958 C316 1.120 . S
C939 C90 1.102 . S
C975 C10 1.335 . S
C994 C238 1.369 1_455 S
