# Generated by pormake.
# Topology eea, (3,6)-cn, num edge types: 1
# Building blocks:
#     Node 0, Type 0, BuildingBlock: QEWDON_clean_linker_0, # of connection points: 3
#     Node 1, Type 0, BuildingBlock: QEWDON_clean_linker_0, # of connection points: 3
#     Node 2, Type 0, BuildingBlock: QEWDON_clean_linker_0, # of connection points: 3
#     Node 3, Type 0, BuildingBlock: QEWDON_clean_linker_0, # of connection points: 3
#     Node 4, Type 0, BuildingBlock: QEWDON_clean_linker_0, # of connection points: 3
#     Node 5, Type 0, BuildingBlock: QEWDON_clean_linker_0, # of connection points: 3
#     Node 6, Type 0, BuildingBlock: QEWDON_clean_linker_0, # of connection points: 3
#     Node 7, Type 0, BuildingBlock: QEWDON_clean_linker_0, # of connection points: 3
#     Node 8, Type 0, BuildingBlock: QEWDON_clean_linker_0, # of connection points: 3
#     Node 9, Type 0, BuildingBlock: QEWDON_clean_linker_0, # of connection points: 3
#     Node 10, Type 0, BuildingBlock: QEWDON_clean_linker_0, # of connection points: 3
#     Node 11, Type 0, BuildingBlock: QEWDON_clean_linker_0, # of connection points: 3
#     Node 12, Type 0, BuildingBlock: QEWDON_clean_linker_0, # of connection points: 3
#     Node 13, Type 0, BuildingBlock: QEWDON_clean_linker_0, # of connection points: 3
#     Node 14, Type 0, BuildingBlock: QEWDON_clean_linker_0, # of connection points: 3
#     Node 15, Type 0, BuildingBlock: QEWDON_clean_linker_0, # of connection points: 3
#     Node 16, Type 0, BuildingBlock: QEWDON_clean_linker_0, # of connection points: 3
#     Node 17, Type 0, BuildingBlock: QEWDON_clean_linker_0, # of connection points: 3
#     Node 18, Type 1, BuildingBlock: HISSIN_clean_sbu_0, # of connection points: 6
#     Node 19, Type 1, BuildingBlock: HISSIN_clean_sbu_0, # of connection points: 6
#     Node 20, Type 1, BuildingBlock: HISSIN_clean_sbu_0, # of connection points: 6
#     Node 21, Type 1, BuildingBlock: HISSIN_clean_sbu_0, # of connection points: 6
#     Node 22, Type 1, BuildingBlock: HISSIN_clean_sbu_0, # of connection points: 6
#     Node 23, Type 1, BuildingBlock: HISSIN_clean_sbu_0, # of connection points: 6
#     Node 24, Type 1, BuildingBlock: HISSIN_clean_sbu_0, # of connection points: 6
#     Node 25, Type 1, BuildingBlock: HISSIN_clean_sbu_0, # of connection points: 6
#     Node 26, Type 1, BuildingBlock: HISSIN_clean_sbu_0, # of connection points: 6
#     Edge 27, Type (0, 1), BuildingBlock: EZIPEK_clean_linker_0, # of connection points: 2
#     Edge 28, Type (0, 1), BuildingBlock: EZIPEK_clean_linker_0, # of connection points: 2
#     Edge 29, Type (0, 1), BuildingBlock: EZIPEK_clean_linker_0, # of connection points: 2
#     Edge 30, Type (0, 1), BuildingBlock: EZIPEK_clean_linker_0, # of connection points: 2
#     Edge 31, Type (0, 1), BuildingBlock: EZIPEK_clean_linker_0, # of connection points: 2
#     Edge 32, Type (0, 1), BuildingBlock: EZIPEK_clean_linker_0, # of connection points: 2
#     Edge 33, Type (0, 1), BuildingBlock: EZIPEK_clean_linker_0, # of connection points: 2
#     Edge 34, Type (0, 1), BuildingBlock: EZIPEK_clean_linker_0, # of connection points: 2
#     Edge 35, Type (0, 1), BuildingBlock: EZIPEK_clean_linker_0, # of connection points: 2
#     Edge 36, Type (0, 1), BuildingBlock: EZIPEK_clean_linker_0, # of connection points: 2
#     Edge 37, Type (0, 1), BuildingBlock: EZIPEK_clean_linker_0, # of connection points: 2
#     Edge 38, Type (0, 1), BuildingBlock: EZIPEK_clean_linker_0, # of connection points: 2
#     Edge 39, Type (0, 1), BuildingBlock: EZIPEK_clean_linker_0, # of connection points: 2
#     Edge 40, Type (0, 1), BuildingBlock: EZIPEK_clean_linker_0, # of connection points: 2
#     Edge 41, Type (0, 1), BuildingBlock: EZIPEK_clean_linker_0, # of connection points: 2
#     Edge 42, Type (0, 1), BuildingBlock: EZIPEK_clean_linker_0, # of connection points: 2
#     Edge 43, Type (0, 1), BuildingBlock: EZIPEK_clean_linker_0, # of connection points: 2
#     Edge 44, Type (0, 1), BuildingBlock: EZIPEK_clean_linker_0, # of connection points: 2
#     Edge 45, Type (0, 1), BuildingBlock: EZIPEK_clean_linker_0, # of connection points: 2
#     Edge 46, Type (0, 1), BuildingBlock: EZIPEK_clean_linker_0, # of connection points: 2
#     Edge 47, Type (0, 1), BuildingBlock: EZIPEK_clean_linker_0, # of connection points: 2
#     Edge 48, Type (0, 1), BuildingBlock: EZIPEK_clean_linker_0, # of connection points: 2
#     Edge 49, Type (0, 1), BuildingBlock: EZIPEK_clean_linker_0, # of connection points: 2
#     Edge 50, Type (0, 1), BuildingBlock: EZIPEK_clean_linker_0, # of connection points: 2
#     Edge 51, Type (0, 1), BuildingBlock: EZIPEK_clean_linker_0, # of connection points: 2
#     Edge 52, Type (0, 1), BuildingBlock: EZIPEK_clean_linker_0, # of connection points: 2
#     Edge 53, Type (0, 1), BuildingBlock: EZIPEK_clean_linker_0, # of connection points: 2
#     Edge 54, Type (0, 1), BuildingBlock: EZIPEK_clean_linker_0, # of connection points: 2
#     Edge 55, Type (0, 1), BuildingBlock: EZIPEK_clean_linker_0, # of connection points: 2
#     Edge 56, Type (0, 1), BuildingBlock: EZIPEK_clean_linker_0, # of connection points: 2
#     Edge 57, Type (0, 1), BuildingBlock: EZIPEK_clean_linker_0, # of connection points: 2
#     Edge 58, Type (0, 1), BuildingBlock: EZIPEK_clean_linker_0, # of connection points: 2
#     Edge 59, Type (0, 1), BuildingBlock: EZIPEK_clean_linker_0, # of connection points: 2
#     Edge 60, Type (0, 1), BuildingBlock: EZIPEK_clean_linker_0, # of connection points: 2
#     Edge 61, Type (0, 1), BuildingBlock: EZIPEK_clean_linker_0, # of connection points: 2
#     Edge 62, Type (0, 1), BuildingBlock: EZIPEK_clean_linker_0, # of connection points: 2
#     Edge 63, Type (0, 1), BuildingBlock: EZIPEK_clean_linker_0, # of connection points: 2
#     Edge 64, Type (0, 1), BuildingBlock: EZIPEK_clean_linker_0, # of connection points: 2
#     Edge 65, Type (0, 1), BuildingBlock: EZIPEK_clean_linker_0, # of connection points: 2
#     Edge 66, Type (0, 1), BuildingBlock: EZIPEK_clean_linker_0, # of connection points: 2
#     Edge 67, Type (0, 1), BuildingBlock: EZIPEK_clean_linker_0, # of connection points: 2
#     Edge 68, Type (0, 1), BuildingBlock: EZIPEK_clean_linker_0, # of connection points: 2
#     Edge 69, Type (0, 1), BuildingBlock: EZIPEK_clean_linker_0, # of connection points: 2
#     Edge 70, Type (0, 1), BuildingBlock: EZIPEK_clean_linker_0, # of connection points: 2
#     Edge 71, Type (0, 1), BuildingBlock: EZIPEK_clean_linker_0, # of connection points: 2
#     Edge 72, Type (0, 1), BuildingBlock: EZIPEK_clean_linker_0, # of connection points: 2
#     Edge 73, Type (0, 1), BuildingBlock: EZIPEK_clean_linker_0, # of connection points: 2
#     Edge 74, Type (0, 1), BuildingBlock: EZIPEK_clean_linker_0, # of connection points: 2
#     Edge 75, Type (0, 1), BuildingBlock: EZIPEK_clean_linker_0, # of connection points: 2
#     Edge 76, Type (0, 1), BuildingBlock: EZIPEK_clean_linker_0, # of connection points: 2
#     Edge 77, Type (0, 1), BuildingBlock: EZIPEK_clean_linker_0, # of connection points: 2
#     Edge 78, Type (0, 1), BuildingBlock: EZIPEK_clean_linker_0, # of connection points: 2
#     Edge 79, Type (0, 1), BuildingBlock: EZIPEK_clean_linker_0, # of connection points: 2
#     Edge 80, Type (0, 1), BuildingBlock: EZIPEK_clean_linker_0, # of connection points: 2
# Relax obj value: 0.090
# Max RMSD: 0.275
# Mean RMSD: 0.192
data_MOF--net-eea--node1-HISSIN_clean_sbu_0--node2-QEWDON_clean_linker_0--edge1-EZIPEK_clean_linker_0
_symmetry_space_group_name_H-M    P1
_symmetry_Int_Tables_number       1
_symmetry_cell_setting            triclinic
loop_
_symmetry_equiv_pos_as_xyz
'x, y, z'
_cell_length_a     42.976625
_cell_length_b     43.302895
_cell_length_c     53.393878
_cell_angle_alpha  93.081923
_cell_angle_beta   93.012729
_cell_angle_gamma 120.00263
loop_
_atom_site_label
_atom_site_type_symbol
_atom_site_fract_x
_atom_site_fract_y
_atom_site_fract_z
_atom_type_partial_charge
H0 H 0.22952 0.13917 0.43657 0.0
C1 C 0.22994 0.11737 0.42592 0.0
C2 C 0.25083 0.10338 0.43573 0.0
C3 C 0.20768 0.10149 0.40333 0.0
H4 H 0.2655 0.06268 0.43039 0.0
C5 C 0.25027 0.07422 0.42249 0.0
C6 C 0.22855 0.05869 0.3998 0.0
C7 C 0.20757 0.07251 0.3902 0.0
C8 C 0.18184 0.11257 0.3946 0.0
H9 H 0.19005 0.05971 0.37295 0.0
C10 C 0.1934 0.14863 0.39148 0.0
C11 C 0.16842 0.15843 0.38282 0.0
C12 C 0.14511 0.08663 0.38923 0.0
H13 H 0.13556 0.05872 0.39172 0.0
C14 C 0.12031 0.09654 0.3809 0.0
H15 H 0.22166 0.16886 0.39537 0.0
C16 C 0.13187 0.1323 0.37768 0.0
H17 H 0.11238 0.13963 0.37106 0.0
H18 H 0.09209 0.07644 0.3769 0.0
H19 H 0.89176 0.10555 0.43267 0.0
C20 C 0.91237 0.12698 0.42323 0.0
C21 C 0.92781 0.16252 0.43383 0.0
C22 C 0.92478 0.11891 0.4014 0.0
H23 H 0.96849 0.21767 0.43086 0.0
C24 C 0.95576 0.19035 0.42233 0.0
C25 C 0.96818 0.18263 0.40034 0.0
C26 C 0.9522 0.14705 0.38984 0.0
C27 C 0.91173 0.08109 0.392 0.0
H28 H 0.96222 0.14124 0.37306 0.0
C29 C 0.8748 0.05478 0.39045 0.0
C30 C 0.86338 0.01904 0.38203 0.0
C31 C 0.93677 0.07095 0.3851 0.0
H32 H 0.96538 0.09034 0.38656 0.0
C33 C 0.92533 0.03551 0.37676 0.0
H34 H 0.85503 0.06198 0.39558 0.0
C35 C 0.88885 0.00966 0.37523 0.0
H36 H 0.88039 0.98222 0.36874 0.0
H37 H 0.94486 0.02804 0.37159 0.0
H38 H 0.92945 0.78367 0.44139 0.0
C39 C 0.90625 0.78298 0.43175 0.0
C40 C 0.87247 0.76521 0.44176 0.0
C41 C 0.91048 0.80197 0.41037 0.0
H42 H 0.81715 0.75327 0.43799 0.0
C43 C 0.84286 0.76596 0.42994 0.0
C44 C 0.84667 0.78431 0.40843 0.0
C45 C 0.88029 0.80173 0.39859 0.0
C46 C 0.94681 0.8267 0.40237 0.0
H47 H 0.88335 0.81678 0.38239 0.0
C48 C 0.97109 0.81518 0.39584 0.0
C49 C 1.0047 0.83974 0.38745 0.0
C50 C 0.95692 0.86283 0.40084 0.0
H51 H 0.93899 0.87246 0.40598 0.0
C52 C 0.99019 0.88699 0.39282 0.0
H53 H 0.96381 0.78748 0.39691 0.0
C54 C 0.01391 0.87555 0.38611 0.0
H55 H 0.03966 0.89474 0.37988 0.0
H56 H 0.9976 0.9147 0.39176 0.0
H57 H 0.13959 0.2296 0.58833 0.0
C58 C 0.11839 0.23168 0.597 0.0
C59 C 0.10449 0.25184 0.58621 0.0
C60 C 0.10353 0.21269 0.61796 0.0
H61 H 0.06433 0.26787 0.58812 0.0
C62 C 0.07582 0.25327 0.59674 0.0
C63 C 0.06102 0.23471 0.61778 0.0
C64 C 0.07548 0.21529 0.6285 0.0
C65 C 0.11453 0.18756 0.62778 0.0
H66 H 0.06384 0.20117 0.64477 0.0
C67 C 0.15091 0.19584 0.6301 0.0
C68 C 0.16009 0.17179 0.64046 0.0
C69 C 0.08779 0.15445 0.63509 0.0
H70 H 0.0595 0.1465 0.63275 0.0
C71 C 0.09693 0.13084 0.6453 0.0
H72 H 0.17197 0.22087 0.62432 0.0
C73 C 0.1328 0.13951 0.64815 0.0
H74 H 0.13932 0.12069 0.65607 0.0
H75 H 0.07607 0.10562 0.65094 0.0
H76 H 0.79637 0.90424 0.59724 0.0
C77 C 0.79125 0.88233 0.60849 0.0
C78 C 0.76615 0.84722 0.59899 0.0
C79 C 0.81112 0.88901 0.63172 0.0
H80 H 0.74216 0.79207 0.60421 0.0
C81 C 0.7598 0.81861 0.61325 0.0
C82 C 0.77724 0.82452 0.63778 0.0
C83 C 0.80446 0.86019 0.64585 0.0
C84 C 0.83957 0.92602 0.64115 0.0
H85 H 0.82163 0.86621 0.66299 0.0
C86 C 0.83302 0.95475 0.64025 0.0
C87 C 0.85944 0.98933 0.65049 0.0
C88 C 0.87331 0.93265 0.65167 0.0
H89 H 0.87939 0.91124 0.65217 0.0
C90 C 0.89968 0.96706 0.66152 0.0
H91 H 0.80718 0.95017 0.63228 0.0
C92 C 0.89277 0.99524 0.66109 0.0
H93 H 0.91345 0.02175 0.669 0.0
H94 H 0.92552 0.97186 0.66961 0.0
H95 H 0.09071 0.86751 0.58254 0.0
C96 C 0.11472 0.88957 0.59277 0.0
C97 C 0.14841 0.90238 0.58296 0.0
C98 C 0.11175 0.9072 0.61469 0.0
H99 H 0.20501 0.94232 0.5878 0.0
C100 C 0.17922 0.93195 0.59564 0.0
C101 C 0.17657 0.94972 0.61744 0.0
C102 C 0.14291 0.93712 0.62693 0.0
C103 C 0.07595 0.89813 0.62304 0.0
H104 H 0.14077 0.95153 0.64338 0.0
C105 C 0.05104 0.86353 0.62938 0.0
C106 C 0.0179 0.85667 0.63811 0.0
C107 C 0.06702 0.92524 0.62516 0.0
H108 H 0.08556 0.95194 0.62024 0.0
C109 C 0.03411 0.91824 0.63349 0.0
H110 H 0.05754 0.84237 0.62793 0.0
C111 C 0.0097 0.8842 0.63997 0.0
H112 H 0.98431 0.87928 0.64652 0.0
H113 H 0.02754 0.93932 0.63499 0.0
H114 H 0.88784 0.46657 0.76868 0.0
C115 C 0.88748 0.44426 0.75815 0.0
C116 C 0.90647 0.42859 0.76847 0.0
C117 C 0.86661 0.42994 0.73487 0.0
H118 H 0.91867 0.38609 0.76353 0.0
C119 C 0.90477 0.39877 0.75533 0.0
C120 C 0.88417 0.38447 0.73209 0.0
C121 C 0.8656 0.40041 0.7218 0.0
C122 C 0.84322 0.44344 0.72509 0.0
H123 H 0.84934 0.38897 0.70393 0.0
C124 C 0.85714 0.48008 0.72242 0.0
C125 C 0.83431 0.49205 0.71282 0.0
C126 C 0.80639 0.41914 0.71819 0.0
H127 H 0.79502 0.39084 0.72026 0.0
C128 C 0.78379 0.43114 0.70885 0.0
H129 H 0.8855 0.4991 0.7275 0.0
C130 C 0.79763 0.46742 0.70616 0.0
H131 H 0.77978 0.47637 0.69882 0.0
H132 H 0.75546 0.41226 0.70368 0.0
H133 H 0.56184 0.441 0.77049 0.0
C134 C 0.58238 0.46184 0.7606 0.0
C135 C 0.59827 0.4977 0.77054 0.0
C136 C 0.59412 0.45271 0.73884 0.0
H137 H 0.63922 0.55239 0.76661 0.0
C138 C 0.62617 0.52482 0.75856 0.0
C139 C 0.63797 0.51609 0.73664 0.0
C140 C 0.6214 0.48019 0.72669 0.0
C141 C 0.58023 0.4145 0.72996 0.0
H142 H 0.63078 0.47366 0.70986 0.0
C143 C 0.54334 0.3885 0.72978 0.0
C144 C 0.53104 0.35247 0.72161 0.0
C145 C 0.60441 0.40367 0.72218 0.0
H146 H 0.63301 0.42274 0.72266 0.0
C147 C 0.59215 0.36794 0.71419 0.0
H148 H 0.52419 0.39616 0.73563 0.0
C149 C 0.55568 0.34245 0.71389 0.0
H150 H 0.54661 0.31479 0.70762 0.0
H151 H 0.61102 0.35996 0.70831 0.0
H152 H 0.59519 0.11723 0.77444 0.0
C153 C 0.57192 0.11734 0.76568 0.0
C154 C 0.53923 0.10161 0.77721 0.0
C155 C 0.57502 0.13504 0.74375 0.0
H156 H 0.48489 0.09257 0.77576 0.0
C157 C 0.50968 0.10359 0.76656 0.0
C158 C 0.51214 0.12017 0.7443 0.0
C159 C 0.54449 0.13497 0.73278 0.0
C160 C 0.61057 0.15766 0.73374 0.0
H161 H 0.54634 0.14815 0.71576 0.0
C162 C 0.6351 0.14553 0.7296 0.0
C163 C 0.66787 0.16793 0.71928 0.0
C164 C 0.61987 0.19249 0.72802 0.0
H165 H 0.60211 0.20295 0.73151 0.0
C166 C 0.6522 0.21445 0.71795 0.0
H167 H 0.62873 0.119 0.73408 0.0
C168 C 0.67599 0.20226 0.71352 0.0
H169 H 0.70113 0.21985 0.70579 0.0
H170 H 0.6589 0.24111 0.71365 0.0
H171 H 0.80624 0.56689 0.91585 0.0
C172 C 0.78613 0.56773 0.92683 0.0
C173 C 0.76988 0.5875 0.91929 0.0
C174 C 0.77459 0.54725 0.9476 0.0
H175 H 0.72852 0.60064 0.92621 0.0
C176 C 0.74214 0.58673 0.93262 0.0
C177 C 0.7308 0.56674 0.95349 0.0
C178 C 0.7478 0.548 0.96121 0.0
C179 C 0.78607 0.52101 0.95342 0.0
H180 H 0.73842 0.53205 0.97707 0.0
C181 C 0.82273 0.53064 0.95715 0.0
C182 C 0.83195 0.5052 0.96471 0.0
C183 C 0.75919 0.48556 0.95622 0.0
H184 H 0.73085 0.47722 0.95299 0.0
C185 C 0.76834 0.46047 0.96332 0.0
H186 H 0.8438 0.55771 0.95489 0.0
C187 C 0.8044 0.47025 0.96775 0.0
H188 H 0.81093 0.45035 0.97345 0.0
H189 H 0.74737 0.43338 0.96554 0.0
H190 H 0.45601 0.24068 0.92539 0.0
C191 C 0.45422 0.21934 0.93608 0.0
C192 C 0.42801 0.18377 0.9282 0.0
C193 C 0.4797 0.22717 0.95653 0.0
H194 H 0.40511 0.1286 0.93581 0.0
C195 C 0.4257 0.15602 0.94187 0.0
C196 C 0.45196 0.16319 0.96171 0.0
C197 C 0.47898 0.19891 0.96877 0.0
C198 C 0.50833 0.26467 0.96422 0.0
H199 H 0.4995 0.2047 0.98389 0.0
C200 C 0.49966 0.29187 0.96759 0.0
C201 C 0.52688 0.32727 0.97513 0.0
C202 C 0.54454 0.27345 0.96832 0.0
H203 H 0.55199 0.25309 0.9656 0.0
C204 C 0.5716 0.30872 0.9756 0.0
H205 H 0.47184 0.28552 0.96475 0.0
C206 C 0.56286 0.33556 0.97901 0.0
H207 H 0.58411 0.3628 0.98478 0.0
H208 H 0.59941 0.31526 0.97863 0.0
H209 H 0.75901 0.20091 0.91598 0.0
C210 C 0.78317 0.22276 0.92621 0.0
C211 C 0.81676 0.23554 0.91619 0.0
C212 C 0.78059 0.24021 0.94841 0.0
H213 H 0.8734 0.27523 0.92087 0.0
C214 C 0.84772 0.26487 0.92888 0.0
C215 C 0.84539 0.28274 0.95071 0.0
C216 C 0.81192 0.27015 0.96048 0.0
C217 C 0.74504 0.23135 0.9572 0.0
H218 H 0.81003 0.28461 0.97701 0.0
C219 C 0.72074 0.19726 0.96472 0.0
C220 C 0.68841 0.19109 0.97455 0.0
C221 C 0.73615 0.25849 0.95908 0.0
H222 H 0.75425 0.2848 0.95331 0.0
C223 C 0.704 0.25214 0.96842 0.0
H224 H 0.72722 0.17608 0.96348 0.0
C225 C 0.68032 0.21872 0.97619 0.0
H226 H 0.65551 0.21431 0.98352 0.0
H227 H 0.69749 0.27327 0.96975 0.0
H228 H 0.55955 0.80327 0.10189 0.0
C229 C 0.56023 0.78153 0.09138 0.0
C230 C 0.57974 0.76662 0.10203 0.0
C231 C 0.53984 0.76685 0.06796 0.0
H232 H 0.59349 0.72517 0.09758 0.0
C233 C 0.57941 0.73745 0.08903 0.0
C234 C 0.55929 0.72279 0.06569 0.0
C235 C 0.53991 0.73772 0.0551 0.0
C236 C 0.5159 0.77959 0.05787 0.0
H237 H 0.52388 0.72576 0.03721 0.0
C238 C 0.52853 0.81636 0.05696 0.0
C239 C 0.5053 0.82778 0.0473 0.0
C240 C 0.47983 0.75459 0.0492 0.0
H241 H 0.46928 0.72615 0.05003 0.0
C242 C 0.4568 0.76605 0.03977 0.0
H243 H 0.55627 0.83598 0.06345 0.0
C244 C 0.46944 0.80249 0.0388 0.0
H245 H 0.45127 0.81103 0.0314 0.0
H246 H 0.42908 0.74664 0.03323 0.0
H247 H 0.22952 0.77595 0.10205 0.0
C248 C 0.25004 0.79686 0.0922 0.0
C249 C 0.26545 0.83278 0.10192 0.0
C250 C 0.26235 0.78778 0.07072 0.0
H251 H 0.30615 0.88756 0.09787 0.0
C252 C 0.2934 0.85994 0.08996 0.0
C253 C 0.30564 0.85121 0.06825 0.0
C254 C 0.28946 0.81527 0.05852 0.0
C255 C 0.24955 0.7497 0.06231 0.0
H256 H 0.29921 0.80866 0.04191 0.0
C257 C 0.2127 0.72326 0.06097 0.0
C258 C 0.20146 0.68742 0.05297 0.0
C259 C 0.27478 0.73955 0.05597 0.0
H260 H 0.30336 0.75907 0.05733 0.0
C261 C 0.26359 0.70399 0.04825 0.0
H262 H 0.1928 0.73047 0.06572 0.0
C263 C 0.22714 0.67803 0.04672 0.0
H264 H 0.21887 0.65052 0.04061 0.0
H265 H 0.28326 0.69651 0.04348 0.0
H266 H 0.26283 0.45001 0.10928 0.0
C267 C 0.24017 0.45035 0.09966 0.0
C268 C 0.20637 0.43379 0.10972 0.0
C269 C 0.24517 0.46933 0.07821 0.0
H270 H 0.15185 0.42428 0.10599 0.0
C271 C 0.17757 0.43605 0.09794 0.0
C272 C 0.18199 0.454 0.07612 0.0
C273 C 0.21559 0.46992 0.06619 0.0
C274 C 0.28176 0.49308 0.0702 0.0
H275 H 0.21919 0.48451 0.04968 0.0
C276 C 0.30551 0.48059 0.06435 0.0
C277 C 0.33939 0.50426 0.05589 0.0
C278 C 0.2927 0.52928 0.06797 0.0
H279 H 0.27522 0.53968 0.07262 0.0
C280 C 0.32623 0.55255 0.05989 0.0
H281 H 0.29762 0.45284 0.06598 0.0
C282 C 0.3494 0.54015 0.05382 0.0
H283 H 0.37538 0.55867 0.04753 0.0
H284 H 0.33426 0.58033 0.05829 0.0
H285 H 0.47422 0.89655 0.25164 0.0
C286 C 0.45341 0.89761 0.26163 0.0
C287 C 0.43849 0.91811 0.2531 0.0
C288 C 0.43968 0.87655 0.28184 0.0
H289 H 0.39758 0.9325 0.25815 0.0
C290 C 0.40999 0.91782 0.2652 0.0
C291 C 0.39649 0.89732 0.28569 0.0
C292 C 0.41188 0.87736 0.29407 0.0
C293 C 0.45002 0.84961 0.28806 0.0
H294 H 0.40073 0.86079 0.30942 0.0
C295 C 0.48628 0.8588 0.29384 0.0
C296 C 0.49437 0.83229 0.30055 0.0
C297 C 0.42249 0.81375 0.28849 0.0
H298 H 0.3945 0.80587 0.28382 0.0
C299 C 0.43063 0.78762 0.29476 0.0
H300 H 0.50784 0.88628 0.29363 0.0
C301 C 0.46629 0.79679 0.30083 0.0
H302 H 0.47206 0.77613 0.30583 0.0
H303 H 0.40917 0.76015 0.29501 0.0
H304 H 0.12371 0.5735 0.25582 0.0
C305 C 0.12303 0.55308 0.26706 0.0
C306 C 0.10091 0.51677 0.25833 0.0
C307 C 0.14604 0.56305 0.28931 0.0
H308 H 0.08541 0.46236 0.26503 0.0
C309 C 0.10132 0.49032 0.27223 0.0
C310 C 0.12419 0.50018 0.29451 0.0
C311 C 0.1459 0.53642 0.30318 0.0
C312 C 0.17299 0.60105 0.29677 0.0
H313 H 0.16416 0.5439 0.3201 0.0
C314 C 0.1627 0.62714 0.29869 0.0
C315 C 0.1887 0.66301 0.3061 0.0
C316 C 0.20951 0.61135 0.30197 0.0
H317 H 0.21812 0.59175 0.30032 0.0
C318 C 0.23534 0.6471 0.30901 0.0
H319 H 0.13463 0.61956 0.29491 0.0
C320 C 0.22502 0.67288 0.31111 0.0
H321 H 0.24528 0.70052 0.31681 0.0
H322 H 0.26339 0.65482 0.31291 0.0
H323 H 0.4299 0.53676 0.25005 0.0
C324 C 0.45304 0.55686 0.26224 0.0
C325 C 0.4878 0.57081 0.25439 0.0
C326 C 0.44802 0.5712 0.28477 0.0
H327 H 0.54347 0.60917 0.26223 0.0
C328 C 0.51766 0.59748 0.26993 0.0
C329 C 0.51395 0.60989 0.29408 0.0
C330 C 0.47816 0.5981 0.30002 0.0
C331 C 0.4113 0.56139 0.29129 0.0
H332 H 0.47271 0.61045 0.31594 0.0
C333 C 0.38674 0.52678 0.29772 0.0
C334 C 0.35269 0.51901 0.30504 0.0
C335 C 0.40132 0.58774 0.292 0.0
H336 H 0.41985 0.61451 0.28717 0.0
C337 C 0.36744 0.57984 0.29888 0.0
H338 H 0.39423 0.5063 0.29743 0.0
C339 C 0.34325 0.5457 0.3054 0.0
H340 H 0.31709 0.54007 0.31084 0.0
H341 H 0.35997 0.6003 0.29929 0.0
Eu342 Eu 0.49383 0.99711 0.98758 0.0
Eu343 Eu 0.50899 0.02904 0.04805 0.0
C344 C 0.47812 0.05864 1.00591 0.0
C345 C 0.49694 0.99912 0.91602 0.0
C346 C 0.4918 0.02822 0.91215 0.0
C347 C 0.52142 0.0052 0.87522 0.0
C348 C 0.50063 0.04509 0.88982 0.0
C349 C 0.51216 0.98804 0.89744 0.0
C350 C 0.51521 0.03353 0.87105 0.0
C351 C 0.48605 0.97972 0.93897 0.0
O352 O 0.45966 0.97443 0.04591 0.0
O353 O 0.43961 0.96611 1.00385 0.0
C354 C 0.43424 0.95805 0.02731 0.0
O355 O 0.49865 0.95609 1.0086 0.0
O356 O 0.49076 0.045 0.08122 0.0
O357 O 0.54272 0.04826 0.08392 0.0
O358 O 0.53208 0.99224 0.0444 0.0
C359 C 0.51848 0.96208 0.02984 0.0
O360 O 0.55371 0.03395 0.99671 0.0
O361 O 0.55252 0.07226 0.02732 0.0
O362 O 0.47346 0.04698 0.02836 0.0
O363 O 0.51174 0.98121 0.95407 0.0
O364 O 0.46202 0.98259 0.95126 0.0
O365 O 0.49467 0.04935 0.98991 0.0
C366 C 0.50854 0.03121 0.11977 0.0
C367 C 0.51501 0.00306 0.12421 0.0
C368 C 0.48064 0.02291 0.15937 0.0
C369 C 0.50405 0.98481 0.14589 0.0
C370 C 0.49141 0.04101 0.13764 0.0
C371 C 0.48668 0.99452 0.16359 0.0
C372 C 0.5179 0.04958 0.09628 0.0
C373 C 0.56812 0.06597 1.00868 0.0
H374 H 0.48071 0.0378 0.92627 0.0
H375 H 0.5328 0.99597 0.86106 0.0
H376 H 0.4958 0.06701 0.88709 0.0
H377 H 0.51658 0.96583 0.90001 0.0
H378 H 0.5283 0.99498 0.11088 0.0
H379 H 0.46729 0.0308 0.17279 0.0
H380 H 0.509 0.96301 0.14882 0.0
H381 H 0.48603 0.06252 0.13465 0.0
Eu382 Eu 0.03161 0.49427 0.98397 0.0
Eu383 Eu 0.99707 0.48071 0.04005 0.0
C384 C 0.96508 0.41923 0.99412 0.0
C385 C 0.02923 0.49258 0.9132 0.0
C386 C 0.99541 0.49036 0.91117 0.0
C387 C 0.02222 0.47585 0.86824 0.0
C388 C 0.97524 0.48114 0.88782 0.0
C389 C 0.04251 0.4853 0.8916 0.0
C390 C 0.98845 0.47367 0.86622 0.0
C391 C 0.05006 0.50124 0.93787 0.0
O392 O 0.0422 0.46788 0.04271 0.0
O393 O 0.07333 0.4894 1.00771 0.0
C394 C 0.07002 0.47613 0.0296 0.0
O395 O 0.06844 0.54584 1.00764 0.0
O396 O 0.97638 0.44398 0.06941 0.0
O397 O 0.97896 0.49528 0.07367 0.0
O398 O 0.04222 0.53823 0.04532 0.0
C399 C 0.06741 0.55733 0.03071 0.0
O400 O 0.98274 0.50105 0.97938 0.0
O401 O 0.9634 0.49895 0.01912 0.0
O402 O 0.957 0.435 0.01217 0.0
O403 O 0.05104 0.52691 0.95246 0.0
O404 O 0.04448 0.47391 0.95008 0.0
O405 O 0.99711 0.43484 0.98593 0.0
C406 C 0.99097 0.47351 0.11026 0.0
C407 C 0.02669 0.50146 0.1163 0.0
C408 C 0.98888 0.45713 0.1532 0.0
C409 C 0.04328 0.50736 0.14066 0.0
C410 C 0.97219 0.45135 0.12882 0.0
C411 C 0.02449 0.48524 0.15926 0.0
C412 C 0.97353 0.46693 0.08455 0.0
C413 C 0.96126 0.50339 0.99509 0.0
H414 H 0.98448 0.49551 0.92766 0.0
H415 H 0.03272 0.47004 0.85175 0.0
H416 H 0.94917 0.47945 0.88661 0.0
H417 H 0.06841 0.48664 0.89285 0.0
H418 H 0.04173 0.51867 0.10216 0.0
H419 H 0.9741 0.43972 0.16733 0.0
H420 H 0.07084 0.52906 0.14501 0.0
H421 H 0.9447 0.42954 0.12443 0.0
Eu422 Eu 0.54376 0.51882 0.04066 0.0
Eu423 Eu 0.51943 0.52456 0.98121 0.0
C424 C 0.54276 0.58887 0.02443 0.0
C425 C 0.54631 0.52087 0.11235 0.0
C426 C 0.50933 0.50687 0.11496 0.0
C427 C 0.55996 0.54746 0.15571 0.0
C428 C 0.49785 0.51352 0.13765 0.0
C429 C 0.57146 0.54106 0.13296 0.0
C430 C 0.52312 0.53392 0.15815 0.0
C431 C 0.55918 0.51565 0.08818 0.0
O432 O 0.57295 0.52707 0.9803 0.0
O433 O 0.59613 0.54484 0.02177 0.0
C434 C 0.60012 0.54031 0.99778 0.0
O435 O 0.54096 0.47233 0.0178 0.0
O436 O 0.52982 0.55669 0.94927 0.0
O437 O 0.48528 0.50207 0.94559 0.0
O438 O 0.5013 0.4663 0.98463 0.0
C439 C 0.51859 0.4539 0.9979 0.0
O440 O 0.48281 0.49081 0.03652 0.0
O441 O 0.47356 0.51818 1.00351 0.0
O442 O 0.54458 0.5804 1.0008 0.0
O443 O 0.53668 0.48773 0.07289 0.0
O444 O 0.57692 0.54421 0.07632 0.0
O445 O 0.53595 0.56643 0.04163 0.0
C446 C 0.51728 0.52483 0.90944 0.0
C447 C 0.51951 0.49416 0.90283 0.0
C448 C 0.54216 0.54855 0.87029 0.0
C449 C 0.53309 0.49082 0.88019 0.0
C450 C 0.52858 0.55187 0.8929 0.0
C451 C 0.54462 0.51806 0.86382 0.0
C452 C 0.50527 0.53026 0.93391 0.0
C453 C 0.46289 0.50079 0.02373 0.0
H454 H 0.48932 0.49102 0.09943 0.0
H455 H 0.57981 0.5633 0.17135 0.0
H456 H 0.46931 0.50287 0.13921 0.0
H457 H 0.60007 0.55213 0.13139 0.0
H458 H 0.51104 0.47292 0.9152 0.0
H459 H 0.55092 0.56981 0.85789 0.0
H460 H 0.53475 0.46707 0.87546 0.0
H461 H 0.52729 0.57583 0.89765 0.0
Eu462 Eu 0.15498 0.32593 0.31818 0.0
Eu463 Eu 0.17579 0.35881 0.37901 0.0
C464 C 0.14962 0.39495 0.33788 0.0
C465 C 0.15524 0.3269 0.24669 0.0
C466 C 0.14859 0.35489 0.24204 0.0
C467 C 0.18305 0.33492 0.20707 0.0
C468 C 0.15854 0.37227 0.21997 0.0
C469 C 0.17277 0.31728 0.22904 0.0
C470 C 0.17566 0.3623 0.20221 0.0
C471 C 0.14399 0.30747 0.26965 0.0
O472 O 0.1235 0.30649 0.37768 0.0
O473 O 0.10179 0.29661 0.33585 0.0
C474 C 0.09727 0.28984 0.35959 0.0
O475 O 0.15899 0.28447 0.33928 0.0
O476 O 0.16342 0.37856 0.41325 0.0
O477 O 0.21018 0.37206 0.41439 0.0
O478 O 0.19872 0.3226 0.37208 0.0
C479 C 0.18163 0.29117 0.35907 0.0
O480 O 0.21554 0.36132 0.32494 0.0
O481 O 0.22016 0.39991 0.358 0.0
O482 O 0.14942 0.38747 0.36143 0.0
O483 O 0.16921 0.30707 0.28412 0.0
O484 O 0.12155 0.3122 0.28264 0.0
O485 O 0.15741 0.3789 0.31988 0.0
C486 C 0.17676 0.35794 0.4504 0.0
C487 C 0.14017 0.33313 0.45261 0.0
C488 C 0.19167 0.34664 0.49236 0.0
C489 C 0.12943 0.31581 0.47461 0.0
C490 C 0.2024 0.36431 0.47043 0.0
C491 C 0.15503 0.32253 0.49475 0.0
C492 C 0.18835 0.37749 0.42756 0.0
C493 C 0.23271 0.39289 0.33781 0.0
H494 H 0.13549 0.36328 0.25536 0.0
H495 H 0.19636 0.32691 0.19368 0.0
H496 H 0.15272 0.39341 0.21667 0.0
H497 H 0.17836 0.29595 0.23218 0.0
H498 H 0.11975 0.32727 0.43742 0.0
H499 H 0.21188 0.3521 0.50761 0.0
H500 H 0.10107 0.29721 0.47599 0.0
H501 H 0.23073 0.38315 0.46918 0.0
Eu502 Eu 0.69089 0.82158 0.32117 0.0
Eu503 Eu 0.66354 0.8137 0.37876 0.0
C504 C 0.62723 0.74756 0.33593 0.0
C505 C 0.69139 0.8214 0.24993 0.0
C506 C 0.66223 0.8273 0.24623 0.0
C507 C 0.68408 0.80185 0.20545 0.0
C508 C 0.64398 0.82031 0.22231 0.0
C509 C 0.7023 0.80881 0.22938 0.0
C510 C 0.65469 0.80734 0.20184 0.0
C511 C 0.70983 0.82708 0.27518 0.0
O512 O 0.71794 0.81785 0.38319 0.0
O513 O 0.72034 0.79856 0.3427 0.0
C514 C 0.73149 0.80515 0.36686 0.0
O515 O 0.73378 0.87049 0.34478 0.0
O516 O 0.64542 0.78125 0.41051 0.0
O517 O 0.64817 0.83257 0.41211 0.0
O518 O 0.70089 0.87306 0.37664 0.0
C519 C 0.72952 0.88784 0.36396 0.0
O520 O 0.65259 0.84304 0.32155 0.0
O521 O 0.61943 0.81368 0.35377 0.0
O522 O 0.64056 0.75796 0.3595 0.0
O523 O 0.71347 0.85392 0.28994 0.0
O524 O 0.70011 0.79843 0.28695 0.0
O525 O 0.63763 0.77006 0.31856 0.0
C526 C 0.66034 0.81336 0.45026 0.0
C527 C 0.69691 0.83937 0.45575 0.0
C528 C 0.65754 0.79874 0.4937 0.0
C529 C 0.71371 0.84504 0.48006 0.0
C530 C 0.64074 0.79318 0.4694 0.0
C531 C 0.69417 0.82458 0.49914 0.0
C532 C 0.64291 0.80539 0.42444 0.0
C533 C 0.62346 0.83113 0.33366 0.0
H534 H 0.65342 0.83705 0.26185 0.0
H535 H 0.69255 0.79174 0.18981 0.0
H536 H 0.62127 0.82459 0.2198 0.0
H537 H 0.72466 0.80401 0.23191 0.0
H538 H 0.71252 0.85493 0.44119 0.0
H539 H 0.64211 0.78269 0.5082 0.0
H540 H 0.74201 0.86506 0.48395 0.0
H541 H 0.61258 0.77277 0.46544 0.0
Eu542 Eu 0.20874 0.8535 0.37086 0.0
Eu543 Eu 0.1858 0.86197 0.31166 0.0
C544 C 0.20997 0.92512 0.35596 0.0
C545 C 0.20824 0.85157 0.4422 0.0
C546 C 0.17097 0.83644 0.44422 0.0
C547 C 0.21982 0.87676 0.48585 0.0
C548 C 0.15831 0.84179 0.46676 0.0
C549 C 0.23248 0.87154 0.46329 0.0
C550 C 0.18268 0.86217 0.48768 0.0
C551 C 0.22232 0.84776 0.41819 0.0
O552 O 0.23835 0.86235 0.31063 0.0
O553 O 0.26142 0.87867 0.35221 0.0
C554 C 0.26538 0.87443 0.32816 0.0
O555 O 0.20437 0.80699 0.34715 0.0
O556 O 0.19809 0.89486 0.28001 0.0
O557 O 0.15161 0.84135 0.27598 0.0
O558 O 0.16523 0.80316 0.31439 0.0
C559 C 0.18153 0.78949 0.3273 0.0
O560 O 0.14791 0.82678 0.36624 0.0
O561 O 0.14009 0.85613 0.33401 0.0
O562 O 0.21172 0.91732 0.33218 0.0
O563 O 0.20047 0.82057 0.40213 0.0
O564 O 0.24068 0.87704 0.40718 0.0
O565 O 0.20244 0.90196 0.3727 0.0
C566 C 0.18436 0.86313 0.23998 0.0
C567 C 0.18505 0.83161 0.23335 0.0
C568 C 0.21011 0.88618 0.2009 0.0
C569 C 0.19842 0.82757 0.21078 0.0
C570 C 0.19682 0.89024 0.22348 0.0
C571 C 0.2112 0.85491 0.19447 0.0
C572 C 0.17283 0.86928 0.26449 0.0
C573 C 0.12873 0.83793 0.35383 0.0
H574 H 0.15161 0.82084 0.4283 0.0
H575 H 0.23901 0.89264 0.50179 0.0
H576 H 0.12956 0.83041 0.46781 0.0
H577 H 0.26129 0.88345 0.4622 0.0
H578 H 0.17556 0.81025 0.24565 0.0
H579 H 0.21983 0.90753 0.18854 0.0
H580 H 0.19899 0.80322 0.20608 0.0
H581 H 0.1967 0.91483 0.22823 0.0
Eu582 Eu 0.82147 0.66135 0.65209 0.0
Eu583 Eu 0.84323 0.69239 0.71285 0.0
C584 C 0.80622 0.72147 0.67467 0.0
C585 C 0.82137 0.66271 0.58028 0.0
C586 C 0.81058 0.68712 0.57332 0.0
C587 C 0.85342 0.67294 0.54242 0.0
C588 C 0.82081 0.70392 0.55105 0.0
C589 C 0.84299 0.65593 0.5646 0.0
C590 C 0.84213 0.69682 0.53534 0.0
C591 C 0.80991 0.64374 0.60343 0.0
O592 O 0.7927 0.63878 0.71206 0.0
O593 O 0.76927 0.63015 0.67068 0.0
C594 C 0.76585 0.62251 0.69436 0.0
O595 O 0.82697 0.61974 0.67207 0.0
O596 O 0.83447 0.71594 0.74701 0.0
O597 O 0.87627 0.70217 0.74829 0.0
O598 O 0.86782 0.65797 0.70423 0.0
C599 C 0.85055 0.6265 0.69126 0.0
O600 O 0.8816 0.69943 0.65801 0.0
O601 O 0.88421 0.73637 0.69143 0.0
O602 O 0.80529 0.7098 0.69694 0.0
O603 O 0.83472 0.64234 0.61769 0.0
O604 O 0.78822 0.64941 0.61664 0.0
O605 O 0.81975 0.71237 0.6562 0.0
C606 C 0.84387 0.69374 0.78429 0.0
C607 C 0.81413 0.65895 0.78266 0.0
C608 C 0.84639 0.69457 0.8299 0.0
C609 C 0.79992 0.64266 0.80451 0.0
C610 C 0.86069 0.71086 0.80806 0.0
C611 C 0.81341 0.66148 0.8288 0.0
C612 C 0.85752 0.71211 0.76139 0.0
C613 C 0.89745 0.73081 0.67111 0.0
H614 H 0.79403 0.69312 0.58495 0.0
H615 H 0.86994 0.66716 0.5306 0.0
H616 H 0.81188 0.72232 0.54596 0.0
H617 H 0.85167 0.63726 0.56943 0.0
H618 H 0.80179 0.64427 0.76445 0.0
H619 H 0.86205 0.7083 0.8475 0.0
H620 H 0.77869 0.61502 0.80181 0.0
H621 H 0.885 0.73694 0.8098 0.0
Eu622 Eu 0.36092 0.16146 0.65472 0.0
Eu623 Eu 0.32564 0.14621 0.71051 0.0
C624 C 0.29489 0.08542 0.66354 0.0
C625 C 0.36449 0.1629 0.58346 0.0
C626 C 0.344 0.1271 0.57301 0.0
C627 C 0.3497 0.18209 0.54483 0.0
C628 C 0.32641 0.11892 0.54877 0.0
C629 C 0.36745 0.1903 0.56902 0.0
C630 C 0.32899 0.14634 0.53461 0.0
C631 C 0.38219 0.17214 0.60943 0.0
O632 O 0.37104 0.13391 0.71359 0.0
O633 O 0.40204 0.15578 0.67859 0.0
C634 C 0.39879 0.14228 0.7004 0.0
O635 O 0.39515 0.21337 0.67874 0.0
O636 O 0.30502 0.10953 0.73994 0.0
O637 O 0.30454 0.15935 0.74306 0.0
O638 O 0.3726 0.20259 0.7177 0.0
C639 C 0.39602 0.22325 0.7026 0.0
O640 O 0.30881 0.16258 0.64947 0.0
O641 O 0.29621 0.16944 0.69012 0.0
O642 O 0.28659 0.10044 0.68205 0.0
O643 O 0.37786 0.19508 0.62347 0.0
O644 O 0.37984 0.146 0.62184 0.0
O645 O 0.3267 0.10176 0.655 0.0
C646 C 0.3169 0.13952 0.78048 0.0
C647 C 0.35184 0.16879 0.78682 0.0
C648 C 0.31464 0.12393 0.82367 0.0
C649 C 0.368 0.17564 0.81141 0.0
C650 C 0.29835 0.11721 0.79906 0.0
C651 C 0.34961 0.15315 0.82996 0.0
C652 C 0.30019 0.13173 0.75445 0.0
C653 C 0.2905 0.16931 0.66573 0.0
H654 H 0.3412 0.10534 0.5836 0.0
H655 H 0.35191 0.20354 0.53411 0.0
H656 H 0.31045 0.09118 0.54113 0.0
H657 H 0.38318 0.21809 0.5766 0.0
H658 H 0.36673 0.18616 0.77271 0.0
H659 H 0.30023 0.10616 0.83773 0.0
H660 H 0.3951 0.19813 0.81591 0.0
H661 H 0.27146 0.09441 0.79445 0.0
Eu662 Eu 0.87665 0.18449 0.70483 0.0
Eu663 Eu 0.84838 0.18845 0.64538 0.0
C664 C 0.86755 0.25173 0.68807 0.0
C665 C 0.88181 0.1903 0.77588 0.0
C666 C 0.84575 0.18215 0.776 0.0
C667 C 0.89107 0.20868 0.82081 0.0
C668 C 0.83247 0.18716 0.7983 0.0
C669 C 0.90434 0.20358 0.79846 0.0
C670 C 0.85505 0.20057 0.82087 0.0
C671 C 0.89577 0.18491 0.75229 0.0
O672 O 0.90903 0.22162 0.65044 0.0
O673 O 0.92128 0.19235 0.68035 0.0
C674 C 0.93024 0.21136 0.66079 0.0
O675 O 0.85686 0.12943 0.68669 0.0
O676 O 0.85599 0.21895 0.61275 0.0
O677 O 0.81522 0.16264 0.6098 0.0
O678 O 0.85263 0.13831 0.6447 0.0
C679 C 0.85285 0.11884 0.66271 0.0
O680 O 0.81821 0.16739 0.7066 0.0
O681 O 0.79863 0.17166 0.66639 0.0
O682 O 0.84901 0.2347 0.66661 0.0
O683 O 0.87379 0.15596 0.73781 0.0
O684 O 0.91204 0.21265 0.73942 0.0
O685 O 0.88394 0.23968 0.70268 0.0
C686 C 0.84633 0.18632 0.57352 0.0
C687 C 0.85142 0.15718 0.56764 0.0
C688 C 0.86914 0.20949 0.53379 0.0
C689 C 0.86515 0.15422 0.54497 0.0
C690 C 0.85528 0.21237 0.55638 0.0
C691 C 0.87414 0.18038 0.52791 0.0
C692 C 0.83317 0.19098 0.5977 0.0
C693 C 0.79351 0.16599 0.69028 0.0
H694 H 0.82781 0.17183 0.75883 0.0
H695 H 0.90891 0.21915 0.83804 0.0
H696 H 0.80466 0.18085 0.79793 0.0
H697 H 0.9322 0.21006 0.7988 0.0
H698 H 0.84518 0.13692 0.58064 0.0
H699 H 0.87596 0.22995 0.52088 0.0
H700 H 0.86892 0.13161 0.54077 0.0
H701 H 0.85179 0.23516 0.56057 0.0
C702 C 0.33643 0.90569 0.04363 0.0
C703 C 0.33795 0.87881 0.05691 0.0
C704 C 0.39835 0.89853 0.04381 0.0
C705 C 0.39903 0.92839 0.03368 0.0
N706 N 0.36997 0.96271 0.02588 0.0
N707 N 0.37347 0.85436 0.07381 0.0
C708 C 0.3683 0.93255 0.03395 0.0
C709 C 0.3698 0.87654 0.05815 0.0
N710 N 0.30443 0.90504 0.03972 0.0
N711 N 0.4245 0.8905 0.03901 0.0
H712 H 0.35367 0.83858 0.08533 0.0
H713 H 0.3976 0.85444 0.0773 0.0
H714 H 0.44459 0.90504 0.02735 0.0
H715 H 0.42379 0.86725 0.04405 0.0
H716 H 0.30074 0.92165 0.02802 0.0
H717 H 0.28071 0.88589 0.04659 0.0
H718 H 0.35002 0.96928 0.02831 0.0
H719 H 0.39246 0.98238 0.01811 0.0
C720 C 0.15792 0.4941 0.0643 0.0
C721 C 0.15252 0.45898 0.06457 0.0
C722 C 0.09196 0.43464 0.0427 0.0
C723 C 0.099 0.47007 0.04034 0.0
N724 N 0.14202 0.53356 0.04409 0.0
N725 N 0.11684 0.39614 0.05032 0.0
C726 C 0.13305 0.49981 0.04957 0.0
C727 C 0.1201 0.42925 0.05283 0.0
N728 N 0.18598 0.52191 0.07904 0.0
N729 N 0.05846 0.40612 0.03511 0.0
H730 H 0.13699 0.39124 0.05716 0.0
H731 H 0.09557 0.37417 0.03963 0.0
H732 H 0.03796 0.40877 0.026 0.0
H733 H 0.05033 0.38001 0.03912 0.0
H734 H 0.18901 0.54733 0.08162 0.0
H735 H 0.2041 0.51872 0.09085 0.0
H736 H 0.16789 0.55564 0.04807 0.0
H737 H 0.12459 0.53915 0.03363 0.0
C738 C 0.58218 0.6895 0.03968 0.0
C739 C 0.55486 0.68901 0.05372 0.0
C740 C 0.5171 0.62444 0.04318 0.0
C741 C 0.54614 0.62397 0.03204 0.0
N742 N 0.6076 0.65566 0.02114 0.0
N743 N 0.49846 0.6556 0.07213 0.0
C744 C 0.57899 0.65646 0.03046 0.0
C745 C 0.52289 0.65636 0.05639 0.0
N746 N 0.6108 0.72152 0.03485 0.0
N747 N 0.48347 0.59473 0.04011 0.0
H748 H 0.50148 0.67846 0.08211 0.0
H749 H 0.47679 0.63193 0.07701 0.0
H750 H 0.47791 0.57161 0.02924 0.0
H751 H 0.46047 0.59436 0.04577 0.0
H752 H 0.62968 0.7238 0.02253 0.0
H753 H 0.61417 0.74613 0.04171 0.0
H754 H 0.63353 0.67782 0.02227 0.0
H755 H 0.60593 0.63216 0.01361 0.0
C756 C 0.89338 0.3198 0.98625 0.0
C757 C 0.87732 0.31712 0.96171 0.0
C758 C 0.92413 0.37878 0.95669 0.0
C759 C 0.93703 0.38322 0.98245 0.0
N760 N 0.93371 0.35831 0.02224 0.0
N761 N 0.87302 0.34652 0.92558 0.0
C762 C 0.92146 0.35381 0.99741 0.0
C763 C 0.89162 0.34721 0.9474 0.0
N764 N 0.88273 0.28959 0.99846 0.0
N765 N 0.94268 0.4045 0.94091 0.0
H766 H 0.84827 0.32453 0.91852 0.0
H767 H 0.8802 0.36906 0.91589 0.0
H768 H 0.96573 0.42891 0.94678 0.0
H769 H 0.93659 0.40046 0.92144 0.0
H770 H 0.89578 0.28903 0.01526 0.0
H771 H 0.8626 0.26426 0.99069 0.0
H772 H 0.9206 0.33942 0.03493 0.0
H773 H 0.95629 0.38173 0.03052 0.0
C774 C 0.69854 0.58867 0.98144 0.0
C775 C 0.69791 0.56106 0.9654 0.0
C776 C 0.63733 0.51899 0.97655 0.0
C777 C 0.63569 0.54738 0.98971 0.0
N778 N 0.66409 0.61026 1.00347 0.0
N779 N 0.66375 0.50161 0.94382 0.0
C780 C 0.66625 0.58255 0.99199 0.0
C781 C 0.66642 0.52669 0.96184 0.0
N782 N 0.73017 0.62033 0.9871 0.0
N783 N 0.61184 0.48436 0.97907 0.0
H784 H 0.68411 0.50636 0.93214 0.0
H785 H 0.63991 0.47744 0.93875 0.0
H786 H 0.59158 0.47785 0.99109 0.0
H787 H 0.61341 0.46241 0.97179 0.0
H788 H 0.73339 0.6401 1.00071 0.0
H789 H 0.75407 0.62576 0.97949 0.0
H790 H 0.68371 0.63706 1.00306 0.0
H791 H 0.64158 0.60649 0.0123 0.0
C792 C 0.45136 0.10419 0.95932 0.0
C793 C 0.45305 0.13342 0.97405 0.0
C794 C 0.46837 0.11211 0.01191 0.0
C795 C 0.46383 0.08161 0.99711 0.0
N796 N 0.43502 0.04225 0.95904 0.0
N797 N 0.45082 0.15719 0.01553 0.0
C798 C 0.44986 0.0755 0.97159 0.0
C799 C 0.45751 0.13481 1.00078 0.0
N800 N 0.45403 0.10464 0.93397 0.0
N801 N 0.48478 0.12092 0.03587 0.0
H802 H 0.44107 0.17281 1.00801 0.0
H803 H 0.45101 0.15704 0.03505 0.0
H804 H 0.49444 0.1061 0.04465 0.0
H805 H 0.49172 0.14497 0.04619 0.0
H806 H 0.45554 0.08466 0.92322 0.0
H807 H 0.45948 0.1268 0.92432 0.0
H808 H 0.42244 0.03628 0.94077 0.0
H809 H 0.43147 0.02007 0.96807 0.0
C810 C 0.63393 0.13087 0.96531 0.0
C811 C 0.66182 0.15587 0.98303 0.0
C812 C 0.63183 0.11834 0.01689 0.0
C813 C 0.60122 0.09593 0.99962 0.0
N814 N 0.57131 0.08403 0.95748 0.0
N815 N 0.68755 0.17545 0.02596 0.0
C816 C 0.6019 0.10261 0.97368 0.0
C817 C 0.66095 0.1501 0.00893 0.0
N818 N 0.63896 0.13534 0.94049 0.0
N819 N 0.63365 0.1086 0.04062 0.0
H820 H 0.71007 0.19801 0.02054 0.0
H821 H 0.68637 0.17511 0.04537 0.0
H822 H 0.61334 0.08507 0.04685 0.0
H823 H 0.6566 0.12194 0.05331 0.0
H824 H 0.62153 0.11736 0.9256 0.0
H825 H 0.62153 0.11736 0.9256 0.0
H826 H 0.56887 0.0907 0.93933 0.0
H827 H 0.54688 0.06395 0.96271 0.0
C828 C 0.88103 0.49375 0.95361 0.0
C829 C 0.86998 0.51336 0.96912 0.0
C830 C 0.92498 0.53464 0.99752 0.0
C831 C 0.93157 0.50899 0.98491 0.0
N832 N 0.91064 0.45904 0.95316 0.0
N833 N 0.88041 0.55112 1.00721 0.0
C834 C 0.90859 0.48754 0.96324 0.0
C835 C 0.89191 0.53388 0.99133 0.0
N836 N 0.86436 0.48018 0.9299 0.0
N837 N 0.95056 0.56015 0.015 0.0
H838 H 0.85665 0.55158 1.00323 0.0
H839 H 0.89327 0.56292 0.02507 0.0
H840 H 0.97554 0.56223 0.01931 0.0
H841 H 0.94851 0.58139 0.02316 0.0
H842 H 0.87335 0.46817 0.91696 0.0
H843 H 0.84404 0.48447 0.92241 0.0
H844 H 0.89233 0.44072 0.93876 0.0
H845 H 0.92767 0.45104 0.96125 0.0
C846 C 0.5225 0.3788 0.96006 0.0
C847 C 0.51812 0.3561 0.97934 0.0
C848 C 0.5036 0.39248 1.00778 0.0
C849 C 0.51392 0.41834 0.99002 0.0
N850 N 0.53583 0.43761 0.94963 0.0
N851 N 0.5058 0.34127 0.02194 0.0
C852 C 0.52345 0.41167 0.96603 0.0
C853 C 0.50865 0.3627 1.00327 0.0
N854 N 0.5258 0.36888 0.93605 0.0
N855 N 0.48819 0.39606 0.02868 0.0
H856 H 0.50814 0.31852 0.01909 0.0
H857 H 0.50332 0.34719 0.04063 0.0
H858 H 0.48337 0.41718 0.03219 0.0
H859 H 0.47699 0.37647 0.0412 0.0
H860 H 0.52531 0.38235 0.92059 0.0
H861 H 0.52575 0.34518 0.9312 0.0
H862 H 0.54728 0.43597 0.93326 0.0
H863 H 0.53772 0.46236 0.95329 0.0
C864 C 0.13997 0.65382 0.0291 0.0
C865 C 0.16287 0.65885 0.0509 0.0
C866 C 0.11949 0.59934 0.06266 0.0
C867 C 0.09694 0.59381 0.04038 0.0
N868 N 0.07989 0.61972 1.00737 0.0
N869 N 0.17014 0.64189 0.09197 0.0
C870 C 0.10533 0.62245 0.02523 0.0
C871 C 0.15097 0.63342 0.06894 0.0
N872 N 0.15199 0.67802 0.01147 0.0
N873 N 0.11261 0.57156 0.07681 0.0
H874 H 0.19339 0.66669 0.0969 0.0
H875 H 0.16117 0.62597 0.10689 0.0
H876 H 0.09067 0.5458 0.07269 0.0
H877 H 0.13047 0.5731 0.09144 0.0
H878 H 0.13828 0.67357 0.99378 0.0
H879 H 0.17684 0.70176 0.01393 0.0
H880 H 0.08319 0.64086 0.99719 0.0
H881 H 0.05391 0.59741 1.00464 0.0
C882 C 0.39558 0.50279 0.06716 0.0
C883 C 0.36584 0.49307 0.04945 0.0
C884 C 0.39619 0.47854 0.017 0.0
C885 C 0.42845 0.49468 0.03346 0.0
N886 N 0.45973 0.52655 0.07388 0.0
N887 N 0.33731 0.47219 1.00721 0.0
C888 C 0.42827 0.50737 0.05864 0.0
C889 C 0.36579 0.48062 0.02432 0.0
N890 N 0.39267 0.5083 0.09216 0.0
N891 N 0.39443 0.46063 0.99462 0.0
H892 H 0.31407 0.47197 0.01225 0.0
H893 H 0.33747 0.46723 0.98793 0.0
H894 H 0.41592 0.45792 0.98904 0.0
H895 H 0.37075 0.4456 0.98279 0.0
H896 H 0.41216 0.51202 0.10634 0.0
H897 H 0.36903 0.50541 0.09881 0.0
H898 H 0.46164 0.54014 0.09111 0.0
H899 H 0.48472 0.53191 0.06855 0.0
C900 C 0.51082 0.88486 0.06526 0.0
C901 C 0.51787 0.86627 0.04585 0.0
C902 C 0.53774 0.91737 0.02061 0.0
C903 C 0.52407 0.93277 0.03776 0.0
N904 N 0.49585 0.93039 0.07627 0.0
N905 N 0.53829 0.86401 1.005 0.0
C906 C 0.51092 0.91683 0.06039 0.0
C907 C 0.53194 0.88253 0.02363 0.0
N908 N 0.50361 0.8716 0.08824 0.0
N909 N 0.5566 0.93639 1.00165 0.0
H910 H 0.5357 0.83902 1.00704 0.0
H911 H 0.5443 0.87249 0.9871 0.0
H912 H 0.56183 0.96231 0.9994 0.0
H913 H 0.56998 0.92807 0.98977 0.0
H914 H 0.5018 0.88566 0.104 0.0
H915 H 0.50282 0.84788 0.09216 0.0
H916 H 0.48157 0.9172 0.09116 0.0
H917 H 0.49506 0.95359 0.07363 0.0
C918 C 0.99884 0.23646 0.37517 0.0
C919 C 1.00077 0.21077 0.38964 0.0
C920 C 0.06227 0.23179 0.37848 0.0
C921 C 0.06229 0.26042 0.36675 0.0
N922 N 0.03147 0.29207 0.35557 0.0
N923 N 0.03676 0.18851 0.40904 0.0
C924 C 0.0307 0.26324 0.36539 0.0
C925 C 0.03323 0.20979 0.39245 0.0
N926 N 0.96645 0.23471 0.37025 0.0
N927 N 0.08934 0.22456 0.37525 0.0
H928 H 0.0163 0.17231 0.41999 0.0
H929 H 0.06117 0.18962 0.41376 0.0
H930 H 0.10963 0.23869 0.36368 0.0
H931 H 0.08924 0.20208 0.38142 0.0
H932 H 0.96239 0.25017 0.35765 0.0
H933 H 0.94285 0.21584 0.37742 0.0
H934 H 0.01088 0.29799 0.35675 0.0
H935 H 0.0538 0.31132 0.34746 0.0
C936 C 0.78593 0.75991 0.38368 0.0
C937 C 0.81664 0.78892 0.3977 0.0
C938 C 0.7939 0.82907 0.38773 0.0
C939 C 0.76138 0.79948 0.37611 0.0
N940 N 0.72411 0.73565 0.3659 0.0
N941 N 0.84638 0.84953 0.41734 0.0
C942 C 0.75675 0.76454 0.37477 0.0
C943 C 0.8196 0.82306 0.40096 0.0
N944 N 0.78505 0.72825 0.37833 0.0
N945 N 0.80106 0.86315 0.38511 0.0
H946 H 0.86552 0.84613 0.42774 0.0
H947 H 0.8475 0.87365 0.42245 0.0
H948 H 0.78362 0.86858 0.3745 0.0
H949 H 0.82582 0.88588 0.39104 0.0
H950 H 0.76527 0.70739 0.36595 0.0
H951 H 0.80575 0.72386 0.38473 0.0
H952 H 0.71783 0.70924 0.367 0.0
H953 H 0.70219 0.73795 0.35919 0.0
C954 C 0.19196 0.9924 0.39013 0.0
C955 C 0.22404 0.02501 0.38761 0.0
C956 C 0.24724 0.99257 0.36315 0.0
C957 C 0.21406 0.96027 0.36434 0.0
N958 N 0.15149 0.93162 0.37265 0.0
N959 N 0.27979 0.05761 0.36848 0.0
C960 C 0.18543 0.96084 0.37602 0.0
C961 C 0.25101 0.02557 0.37311 0.0
N962 N 0.16816 0.99132 0.40658 0.0
N963 N 0.27558 0.99159 0.3535 0.0
H964 H 0.28358 0.08219 0.37584 0.0
H965 H 0.29837 0.05995 0.35588 0.0
H966 H 0.27356 0.9681 0.34558 0.0
H967 H 0.30166 0.01355 0.35482 0.0
H968 H 0.14638 0.9675 0.41117 0.0
H969 H 0.17195 0.01387 0.41747 0.0
H970 H 0.12883 0.93153 0.37879 0.0
H971 H 0.14537 0.90888 0.36107 0.0
C972 C 0.58248 0.65212 0.30441 0.0
C973 C 0.54668 0.63873 0.31098 0.0
C974 C 0.5676 0.69221 0.34012 0.0
C975 C 0.60055 0.70921 0.32868 0.0
N976 N 0.64159 0.70382 0.3019 0.0
N977 N 0.51999 0.63492 0.35003 0.0
C978 C 0.60878 0.68868 0.31146 0.0
C979 C 0.54296 0.65534 0.33332 0.0
N980 N 0.59256 0.62872 0.29527 0.0
N981 N 0.5589 0.71119 0.35671 0.0
H982 H 0.50641 0.60697 0.34743 0.0
H983 H 0.51862 0.64541 0.36772 0.0
H984 H 0.57567 0.7385 0.36194 0.0
H985 H 0.53356 0.70013 0.36355 0.0
H986 H 0.61908 0.63619 0.29227 0.0
H987 H 0.57493 0.60107 0.29402 0.0
H988 H 0.64719 0.69126 0.28705 0.0
H989 H 0.66266 0.72949 0.30809 0.0
C990 C 0.33103 0.85903 0.29235 0.0
C991 C 0.36328 0.89272 0.29667 0.0
C992 C 0.33201 0.91524 0.32283 0.0
C993 C 0.30068 0.88056 0.32001 0.0
N994 N 0.27484 0.81748 0.30823 0.0
N995 N 0.39647 0.95142 0.31917 0.0
C996 C 0.30151 0.8519 0.30651 0.0
C997 C 0.36437 0.92048 0.31283 0.0
N998 N 0.32815 0.83403 0.27417 0.0
N999 N 0.33055 0.9434 0.33426 0.0
H1000 H 0.42045 0.95626 0.31197 0.0
H1001 H 0.39989 0.9711 0.33294 0.0
H1002 H 0.30784 0.94032 0.34246 0.0
H1003 H 0.35096 0.96998 0.33427 0.0
H1004 H 0.30396 0.81047 0.2685 0.0
H1005 H 0.34889 0.83839 0.26296 0.0
H1006 H 0.27566 0.79521 0.30073 0.0
H1007 H 0.2541 0.81122 0.31978 0.0
C1008 C 0.10426 0.4489 0.32183 0.0
C1009 C 0.13011 0.4734 0.30676 0.0
C1010 C 0.17156 0.45261 0.31891 0.0
C1011 C 0.14405 0.42465 0.33093 0.0
N1012 N 0.08297 0.39423 0.34259 0.0
N1013 N 0.18574 0.49406 0.28711 0.0
C1014 C 0.11007 0.42238 0.33228 0.0
C1015 C 0.16305 0.47399 0.30421 0.0
N1016 N 0.07463 0.45145 0.32651 0.0
N1017 N 0.20624 0.45956 0.32233 0.0
H1018 H 0.18029 0.50972 0.27551 0.0
H1019 H 0.2082 0.49237 0.28267 0.0
H1020 H 0.21364 0.44584 0.33444 0.0
H1021 H 0.22807 0.48155 0.31579 0.0
H1022 H 0.05671 0.43682 0.33941 0.0
H1023 H 0.06942 0.47024 0.31883 0.0
H1024 H 0.05638 0.38871 0.34142 0.0
H1025 H 0.08668 0.37512 0.35116 0.0
C1026 C 0.29708 0.45922 0.29454 0.0
C1027 C 0.32601 0.48306 0.31233 0.0
C1028 C 0.2976 0.44266 0.34512 0.0
C1029 C 0.26596 0.42205 0.32837 0.0
N1030 N 0.23412 0.41382 0.2874 0.0
N1031 N 0.35367 0.49907 0.35498 0.0
C1032 C 0.26543 0.43075 0.303 0.0
C1033 C 0.3264 0.47507 0.33773 0.0
N1034 N 0.29984 0.46399 0.26948 0.0
N1035 N 0.30055 0.43067 0.36779 0.0
H1036 H 0.37585 0.52236 0.35005 0.0
H1037 H 0.35327 0.49697 0.37431 0.0
H1038 H 0.28044 0.40653 0.37345 0.0
H1039 H 0.3242 0.4427 0.37984 0.0
H1040 H 0.28134 0.44536 0.25531 0.0
H1041 H 0.32256 0.48488 0.26275 0.0
H1042 H 0.23129 0.42217 0.26992 0.0
H1043 H 0.20978 0.39357 0.29259 0.0
C1044 C 0.54839 0.82843 0.29011 0.0
C1045 C 0.53192 0.84033 0.30743 0.0
C1046 C 0.58078 0.85422 0.34 0.0
C1047 C 0.59361 0.83664 0.32394 0.0
N1048 N 0.58668 0.80298 0.28435 0.0
N1049 N 0.53094 0.86298 0.34942 0.0
C1050 C 0.577 0.82312 0.299 0.0
C1051 C 0.54793 0.85321 0.33249 0.0
N1052 N 0.5364 0.82198 0.26512 0.0
N1053 N 0.60046 0.87262 0.36215 0.0
H1054 H 0.50754 0.86369 0.34441 0.0
H1055 H 0.5388 0.86832 0.36868 0.0
H1056 H 0.62493 0.87447 0.36798 0.0
H1057 H 0.59438 0.88883 0.37353 0.0
H1058 H 0.54947 0.81658 0.25113 0.0
H1059 H 0.51541 0.82561 0.25816 0.0
H1060 H 0.57282 0.78919 0.26712 0.0
H1061 H 0.60658 0.79728 0.29027 0.0
C1062 C 0.18363 0.71341 0.28983 0.0
C1063 C 0.17838 0.69076 0.30927 0.0
C1064 C 0.1632 0.72732 0.33683 0.0
C1065 C 0.17502 0.75339 0.31921 0.0
N1066 N 0.19814 0.77242 0.27908 0.0
N1067 N 0.16349 0.67544 0.35147 0.0
C1068 C 0.18494 0.74649 0.29547 0.0
C1069 C 0.16772 0.6972 0.33274 0.0
N1070 N 0.18765 0.70331 0.26608 0.0
N1071 N 0.1472 0.73128 0.35727 0.0
H1072 H 0.1654 0.65242 0.34886 0.0
H1073 H 0.1601 0.68122 0.36996 0.0
H1074 H 0.14295 0.75283 0.36044 0.0
H1075 H 0.13505 0.7117 0.36967 0.0
H1076 H 0.18807 0.71688 0.25048 0.0
H1077 H 0.18721 0.67933 0.26155 0.0
H1078 H 0.20982 0.77055 0.2629 0.0
H1079 H 0.20028 0.79732 0.28259 0.0
C1080 C 0.80337 0.98229 0.35679 0.0
C1081 C 0.82475 0.99061 0.37999 0.0
C1082 C 0.77976 0.93418 0.39502 0.0
C1083 C 0.75889 0.9252 0.37143 0.0
N1084 N 0.74525 0.94428 0.33294 0.0
N1085 N 0.82961 0.98001 0.42338 0.0
C1086 C 0.76894 0.95054 0.35331 0.0
C1087 C 0.81149 0.96841 0.39991 0.0
N1088 N 0.8167 0.00396 0.33776 0.0
N1089 N 0.77083 0.90918 0.41199 0.0
H1090 H 0.85318 0.00481 0.42732 0.0
H1091 H 0.81969 0.96673 0.43933 0.0
H1092 H 0.74816 0.8837 0.40901 0.0
H1093 H 0.78727 0.91253 0.42814 0.0
H1094 H 0.80455 0.9972 0.31938 0.0
H1095 H 0.84112 0.0282 0.34008 0.0
H1096 H 0.74948 0.96298 0.32011 0.0
H1097 H 0.71962 0.92146 0.33019 0.0
C1098 C 0.06128 0.83848 0.39784 0.0
C1099 C 0.03161 0.82952 0.38025 0.0
C1100 C 0.06222 0.81679 0.34704 0.0
C1101 C 0.09433 0.83197 0.36359 0.0
N1102 N 0.12537 0.86172 0.40452 0.0
N1103 N 1.00345 0.81094 0.33781 0.0
C1104 C 0.09401 0.84342 0.38909 0.0
C1105 C 0.03179 0.81848 0.35478 0.0
N1106 N 0.05826 0.8428 0.42296 0.0
N1107 N 0.06055 0.8 0.32417 0.0
H1108 H 0.98016 0.81039 0.3431 0.0
H1109 H 1.0038 0.80708 0.31843 0.0
H1110 H 0.08201 0.79752 0.31823 0.0
H1111 H 0.03694 0.78558 0.31219 0.0
H1112 H 0.07763 0.84582 0.43698 0.0
H1113 H 0.03464 0.83966 0.42982 0.0
H1114 H 0.12726 0.87447 0.42211 0.0
H1115 H 0.15037 0.86725 0.39909 0.0
C1116 C 0.17717 0.21804 0.3979 0.0
C1117 C 0.18002 0.19605 0.37866 0.0
C1118 C 0.19567 0.24262 0.34974 0.0
C1119 C 0.18641 0.26162 0.36741 0.0
N1120 N 0.16624 0.26661 0.40823 0.0
N1121 N 0.19163 0.1863 0.33614 0.0
C1122 C 0.17736 0.24962 0.39172 0.0
C1123 C 0.18964 0.20822 0.3546 0.0
N1124 N 0.17399 0.20848 0.42203 0.0
N1125 N 0.21087 0.25791 0.32856 0.0
H1126 H 0.18881 0.1615 0.33935 0.0
H1127 H 0.19412 0.19173 0.31736 0.0
H1128 H 0.21634 0.28349 0.32485 0.0
H1129 H 0.22122 0.24693 0.31599 0.0
H1130 H 0.17554 0.22514 0.43744 0.0
H1131 H 0.17313 0.18511 0.42701 0.0
H1132 H 0.15481 0.25627 0.42471 0.0
H1133 H 0.16564 0.28971 0.40477 0.0
C1134 C 0.66833 0.57003 0.71153 0.0
C1135 C 0.6702 0.54369 0.72525 0.0
C1136 C 0.73108 0.56415 0.71283 0.0
C1137 C 0.73116 0.59331 0.7019 0.0
N1138 N 0.70129 0.62672 0.69331 0.0
N1139 N 0.70614 0.52029 0.74308 0.0
C1140 C 0.70006 0.59693 0.70176 0.0
C1141 C 0.7024 0.54207 0.72706 0.0
N1142 N 0.63609 0.56883 0.70732 0.0
N1143 N 0.75788 0.55674 0.7088 0.0
H1144 H 0.68608 0.50422 0.75433 0.0
H1145 H 0.73044 0.52089 0.74708 0.0
H1146 H 0.77812 0.57124 0.69725 0.0
H1147 H 0.75766 0.53396 0.71438 0.0
H1148 H 0.63212 0.58491 0.69525 0.0
H1149 H 0.61249 0.54975 0.71436 0.0
H1150 H 0.68098 0.63287 0.69539 0.0
H1151 H 0.72381 0.6467 0.68578 0.0
C1152 C 0.48778 0.16027 0.73336 0.0
C1153 C 0.48209 0.12508 0.73386 0.0
C1154 C 0.42065 0.10074 0.71356 0.0
C1155 C 0.42787 0.13618 0.71088 0.0
N1156 N 0.4713 0.19955 0.71353 0.0
N1157 N 0.44525 0.06193 0.72094 0.0
C1158 C 0.46238 0.16589 0.71927 0.0
C1159 C 0.44899 0.09525 0.72311 0.0
N1160 N 0.51677 0.18829 0.74728 0.0
N1161 N 0.38682 0.07229 0.70674 0.0
H1162 H 0.46546 0.05693 0.72747 0.0
H1163 H 0.42338 0.03975 0.71086 0.0
H1164 H 0.36612 0.07489 0.69791 0.0
H1165 H 0.37866 0.0463 0.71107 0.0
H1166 H 0.52021 0.21387 0.74977 0.0
H1167 H 0.53543 0.18519 0.75855 0.0
H1168 H 0.49739 0.22147 0.71675 0.0
H1169 H 0.45348 0.20522 0.70369 0.0
C1170 C 0.90943 0.35109 0.70881 0.0
C1171 C 0.87977 0.35102 0.71934 0.0
C1172 C 0.84053 0.2881 0.70347 0.0
C1173 C 0.87114 0.28668 0.69625 0.0
N1174 N 0.93523 0.31635 0.69244 0.0
N1175 N 0.81861 0.31786 0.73084 0.0
C1176 C 0.9058 0.31808 0.69908 0.0
C1177 C 0.84565 0.31913 0.71769 0.0
N1178 N 0.94057 0.38282 0.70732 0.0
N1179 N 0.8065 0.26004 0.69667 0.0
H1180 H 0.82144 0.33969 0.74211 0.0
H1181 H 0.79463 0.29419 0.7326 0.0
H1182 H 0.80129 0.23653 0.6865 0.0
H1183 H 0.78328 0.26131 0.69923 0.0
H1184 H 0.96188 0.38512 0.69758 0.0
H1185 H 0.94399 0.4075 0.71405 0.0
H1186 H 0.9617 0.33704 0.69701 0.0
H1187 H 0.93331 0.29349 0.68328 0.0
C1188 C 0.22212 0.01478 0.61544 0.0
C1189 C 0.20838 0.98388 0.6289 0.0
C1190 C 0.25187 0.01943 0.66522 0.0
C1191 C 0.26688 0.04982 0.65114 0.0
N1192 N 0.2715 0.07401 0.6107 0.0
N1193 N 0.21407 0.95482 0.66463 0.0
C1194 C 0.25387 0.04665 0.62553 0.0
C1195 C 0.22435 0.98565 0.65329 0.0
N1196 N 0.20359 0.01447 0.5937 0.0
N1197 N 0.26404 0.02281 0.68995 0.0
H1198 H 0.19427 0.92968 0.65631 0.0
H1199 H 0.22708 0.95362 0.68124 0.0
H1200 H 0.28612 0.0462 0.69876 0.0
H1201 H 0.25128 0.00302 0.70211 0.0
H1202 H 0.20997 0.03741 0.5847 0.0
H1203 H 0.17963 0.99208 0.5859 0.0
H1204 H 0.2658 0.07117 0.59123 0.0
H1205 H 0.29333 0.09893 0.61737 0.0
C1206 C 0.03049 0.24915 0.65182 0.0
C1207 C 0.02808 0.23243 0.6276 0.0
C1208 C 0.96241 0.20717 0.62363 0.0
C1209 C 0.96422 0.22008 0.64912 0.0
N1210 N 0.99986 0.25302 0.68782 0.0
N1211 N 0.99134 0.19114 0.59187 0.0
C1212 C 0.99828 0.24094 0.66334 0.0
C1213 C 0.99398 0.2106 0.61376 0.0
N1214 N 0.06369 0.27371 0.66342 0.0
N1215 N 0.93051 0.19124 0.60871 0.0
H1216 H 0.01358 0.19254 0.58388 0.0
H1217 H 0.96688 0.17122 0.58264 0.0
H1218 H 0.90576 0.18461 0.61529 0.0
H1219 H 0.92885 0.18626 0.58924 0.0
H1220 H 0.0676 0.28956 0.67996 0.0
H1221 H 0.08762 0.28049 0.65533 0.0
H1222 H 0.02314 0.26446 0.7002 0.0
H1223 H 0.97735 0.25022 0.69625 0.0
C1224 C 0.79038 0.80053 0.67744 0.0
C1225 C 0.77139 0.79388 0.65345 0.0
C1226 C 0.76229 0.73337 0.65024 0.0
C1227 C 0.79067 0.74457 0.66971 0.0
N1228 N 0.83068 0.7892 0.70325 0.0
N1229 N 0.71669 0.74504 0.63239 0.0
C1230 C 0.80387 0.77791 0.68418 0.0
C1231 C 0.75046 0.7575 0.6438 0.0
N1232 N 0.79182 0.82571 0.69466 0.0
N1233 N 0.74659 0.69986 0.63793 0.0
H1234 H 0.70523 0.76136 0.63189 0.0
H1235 H 0.69868 0.71805 0.62689 0.0
H1236 H 0.7522 0.6803 0.6435 0.0
H1237 H 0.72892 0.69213 0.62167 0.0
H1238 H 0.80253 0.82949 0.71329 0.0
H1239 H 0.77827 0.83957 0.69077 0.0
H1240 H 0.84333 0.81496 0.71244 0.0
H1241 H 0.84221 0.77405 0.70855 0.0
C1242 C 0.96106 0.79775 0.62794 0.0
C1243 C 0.99082 0.82087 0.64542 0.0
C1244 C 0.96233 0.78083 0.67841 0.0
C1245 C 0.93025 0.76087 0.66196 0.0
N1246 N 0.89756 0.75342 0.6216 0.0
N1247 N 0.0196 0.83619 0.68774 0.0
C1248 C 0.92931 0.76982 0.63673 0.0
C1249 C 0.99153 0.81276 0.67077 0.0
N1250 N 0.96317 0.80269 0.60288 0.0
N1251 N 0.96539 0.76861 0.70097 0.0
H1252 H 0.04213 0.85897 0.68258 0.0
H1253 H 0.01961 0.83417 0.70709 0.0
H1254 H 0.94497 0.74488 0.70688 0.0
H1255 H 0.98931 0.78004 0.7127 0.0
H1256 H 0.94395 0.78454 0.58883 0.0
H1257 H 0.98596 0.82319 0.59594 0.0
H1258 H 0.89447 0.76161 0.60412 0.0
H1259 H 0.8732 0.73376 0.62728 0.0
C1260 C 0.22374 0.20304 0.6619 0.0
C1261 C 0.1977 0.17832 0.64267 0.0
C1262 C 0.23302 0.14869 0.63778 0.0
C1263 C 0.26007 0.17419 0.65624 0.0
N1264 N 0.28549 0.23132 0.68073 0.0
N1265 N 0.18354 0.13555 0.60706 0.0
C1266 C 0.25683 0.20326 0.66666 0.0
C1267 C 0.20469 0.15411 0.62869 0.0
N1268 N 0.21625 0.22499 0.67646 0.0
N1269 N 0.23221 0.11755 0.6306 0.0
H1270 H 0.16259 0.13917 0.59996 0.0
H1271 H 0.18929 0.11971 0.59498 0.0
H1272 H 0.25001 0.11063 0.63888 0.0
H1273 H 0.21119 0.0967 0.6189 0.0
H1274 H 0.23242 0.24048 0.69262 0.0
H1275 H 0.19261 0.22594 0.67336 0.0
H1276 H 0.28575 0.25469 0.68692 0.0
H1277 H 0.31034 0.23276 0.68401 0.0
C1278 C 0.87437 0.04883 0.63606 0.0
C1279 C 0.85289 0.01995 0.65021 0.0
C1280 C 0.8245 0.05294 0.6665 0.0
C1281 C 0.85056 0.08398 0.65606 0.0
N1282 N 0.9046 0.11282 0.63426 0.0
N1283 N 0.80986 0.99572 0.68127 0.0
C1284 C 0.87641 0.08226 0.64142 0.0
C1285 C 0.82824 0.0221 0.6659 0.0
N1286 N 0.89287 0.04431 0.61754 0.0
N1287 N 0.79589 0.05278 0.67666 0.0
H1288 H 0.81207 0.97285 0.68166 0.0
H1289 H 0.7947 0.99792 0.69511 0.0
H1290 H 0.79198 0.07472 0.6769 0.0
H1291 H 0.77426 0.02985 0.68244 0.0
H1292 H 0.9063 0.0635 0.60508 0.0
H1293 H 0.89163 0.01995 0.61299 0.0
H1294 H 0.92615 0.11341 0.62577 0.0
H1295 H 0.90852 0.13813 0.63925 0.0
C1296 C 0.48185 0.29901 0.7391 0.0
C1297 C 0.49239 0.32435 0.72101 0.0
C1298 C 0.43285 0.28862 0.69774 0.0
C1299 C 0.42565 0.25973 0.71239 0.0
N1300 N 0.44386 0.2374 0.74765 0.0
N1301 N 0.47828 0.34384 0.68279 0.0
C1302 C 0.44981 0.2651 0.73369 0.0
C1303 C 0.46775 0.31966 0.70045 0.0
N1304 N 0.50284 0.3074 0.76133 0.0
N1305 N 0.40605 0.28636 0.68143 0.0
H1306 H 0.50335 0.36732 0.68442 0.0
H1307 H 0.46304 0.33955 0.66579 0.0
H1308 H 0.3799 0.2643 0.67966 0.0
H1309 H 0.40863 0.30768 0.67178 0.0
H1310 H 0.49507 0.29163 0.7764 0.0
H1311 H 0.52651 0.33206 0.7656 0.0
H1312 H 0.46282 0.23878 0.76132 0.0
H1313 H 0.4214 0.21184 0.74439 0.0
C1314 C 0.69431 0.13892 0.69213 0.0
C1315 C 0.69557 0.15755 0.71517 0.0
C1316 C 0.76017 0.17974 0.72295 0.0
C1317 C 0.7592 0.16056 0.69998 0.0
N1318 N 0.72289 0.11337 0.66712 0.0
N1319 N 0.72623 0.18547 0.75595 0.0
C1320 C 0.72545 0.13743 0.68591 0.0
C1321 C 0.72734 0.17411 0.73182 0.0
N1322 N 0.66389 0.12385 0.67577 0.0
N1323 N 0.79222 0.20582 0.73522 0.0
H1324 H 0.70242 0.1819 0.76275 0.0
H1325 H 0.74778 0.19473 0.76975 0.0
H1326 H 0.81726 0.21405 0.72858 0.0
H1327 H 0.79387 0.22273 0.75051 0.0
H1328 H 0.66278 0.11369 0.65741 0.0
H1329 H 0.64028 0.1233 0.68022 0.0
H1330 H 0.69843 0.09383 0.65765 0.0
H1331 H 0.74473 0.11042 0.66288 0.0
C1332 C 0.84663 0.55261 0.72911 0.0
C1333 C 0.84808 0.53036 0.70937 0.0
C1334 C 0.86382 0.57756 0.6809 0.0
C1335 C 0.85568 0.59686 0.69914 0.0
N1336 N 0.83765 0.60209 0.7407 0.0
N1337 N 0.85856 0.52086 0.66653 0.0
C1338 C 0.84749 0.58473 0.72353 0.0
C1339 C 0.85734 0.54282 0.68534 0.0
N1340 N 0.84394 0.54271 0.75314 0.0
N1341 N 0.87827 0.59282 0.65954 0.0
H1342 H 0.85568 0.49598 0.66952 0.0
H1343 H 0.8607 0.52645 0.64777 0.0
H1344 H 0.884 0.61858 0.65614 0.0
H1345 H 0.88774 0.58159 0.64642 0.0
H1346 H 0.84656 0.55947 0.76884 0.0
H1347 H 0.84242 0.5189 0.7577 0.0
H1348 H 0.82652 0.59166 0.75724 0.0
H1349 H 0.83798 0.62578 0.73783 0.0
C1350 C 0.48303 0.97165 0.23206 0.0
C1351 C 0.45089 0.93774 0.23016 0.0
C1352 C 0.44096 0.94211 0.18497 0.0
C1353 C 0.47446 0.97478 0.18651 0.0
N1354 N 0.52983 0.01854 0.2105 0.0
N1355 N 0.40164 0.88809 0.20443 0.0
C1356 C 0.49618 0.98897 0.20981 0.0
C1357 C 0.43048 0.92226 0.20648 0.0
N1358 N 0.5004 0.98777 0.25528 0.0
N1359 N 0.41872 0.93055 0.16308 0.0
H1360 H 0.39285 0.8729 0.21977 0.0
H1361 H 0.38804 0.8737 0.18732 0.0
H1362 H 0.42579 0.94394 0.14681 0.0
H1363 H 0.39225 0.90927 0.16148 0.0
H1364 H 0.52163 0.01411 0.25835 0.0
H1365 H 0.49183 0.97568 0.2719 0.0
H1366 H 0.54866 0.028 0.22617 0.0
H1367 H 0.54009 0.03225 0.19471 0.0
C1368 C 0.04929 0.51081 0.22997 0.0
C1369 C 0.08 0.5068 0.23327 0.0
C1370 C 0.07065 0.48349 0.18898 0.0
C1371 C 0.04256 0.49138 0.18503 0.0
N1372 N 1.00826 0.5173 0.20076 0.0
N1373 N 0.12381 0.49508 0.21511 0.0
C1374 C 0.0326 0.50623 0.20528 0.0
C1375 C 0.09173 0.4946 0.21257 0.0
N1376 N 0.03562 0.5182 0.25052 0.0
N1377 N 0.07663 0.46461 0.17039 0.0
H1378 H 0.14036 0.50342 0.23196 0.0
H1379 H 0.13562 0.49027 0.19998 0.0
H1380 H 0.06159 0.45585 0.15288 0.0
H1381 H 0.09415 0.45479 0.17309 0.0
H1382 H 0.01113 0.51775 0.24961 0.0
H1383 H 0.04719 0.52172 0.26888 0.0
H1384 H 1.00292 0.53193 0.21423 0.0
H1385 H 0.99548 0.51447 0.18294 0.0
C1386 C 0.49638 0.57995 0.20862 0.0
C1387 C 0.49334 0.55919 0.22904 0.0
C1388 C 0.50453 0.51887 0.20179 0.0
C1389 C 0.51119 0.54171 0.18218 0.0
N1390 N 0.51638 0.59539 0.16704 0.0
N1391 N 0.49719 0.51077 0.2462 0.0
C1392 C 0.50773 0.57257 0.18559 0.0
C1393 C 0.49793 0.529 0.22589 0.0
N1394 N 0.48781 0.60635 0.2112 0.0
N1395 N 0.504 0.48724 0.19719 0.0
H1396 H 0.49135 0.51675 0.26392 0.0
H1397 H 0.50449 0.49119 0.24602 0.0
H1398 H 0.50951 0.47939 0.17995 0.0
H1399 H 0.49556 0.46752 0.20969 0.0
H1400 H 0.48578 0.62006 0.19636 0.0
H1401 H 0.47993 0.6128 0.22791 0.0
H1402 H 0.51864 0.62047 0.16936 0.0
H1403 H 0.52362 0.59027 0.14962 0.0
C1404 C 0.95947 0.47458 0.79769 0.0
C1405 C 0.92632 0.44161 0.79394 0.0
C1406 C 0.93476 0.42885 0.83716 0.0
C1407 C 0.9666 0.46295 0.84148 0.0
N1408 N 1.00547 0.52124 0.82767 0.0
N1409 N 0.87847 0.39098 0.81144 0.0
C1410 C 0.97785 0.48673 0.82226 0.0
C1411 C 0.91276 0.41982 0.81412 0.0
N1412 N 0.9741 0.4936 0.77763 0.0
N1413 N 0.92628 0.40453 0.85464 0.0
H1414 H 0.86137 0.38378 0.79492 0.0
H1415 H 0.86578 0.37624 0.82628 0.0
H1416 H 0.94187 0.40995 0.87168 0.0
H1417 H 0.90562 0.37794 0.85134 0.0
H1418 H 1.00008 0.5157 0.77871 0.0
H1419 H 0.96142 0.48564 0.75936 0.0
H1420 H 0.01241 0.54087 0.81519 0.0
H1421 H 0.01944 0.53115 0.84549 0.0
C1422 C 0.60694 0.51262 0.81759 0.0
C1423 C 0.58622 0.50616 0.79428 0.0
C1424 C 0.5377 0.50614 0.81659 0.0
C1425 C 0.55926 0.51465 0.83979 0.0
N1426 N 0.61682 0.53257 0.86214 0.0
N1427 N 0.5352 0.50334 0.77096 0.0
C1428 C 0.59465 0.51985 0.84021 0.0
C1429 C 0.55257 0.50494 0.79361 0.0
N1430 N 0.63764 0.51047 0.81823 0.0
N1431 N 0.50254 0.49784 0.8166 0.0
H1432 H 0.54533 0.50237 0.75378 0.0
H1433 H 0.51252 0.50614 0.76922 0.0
H1434 H 0.49068 0.4985 0.83302 0.0
H1435 H 0.48425 0.48754 0.8006 0.0
H1436 H 0.65157 0.51066 0.83484 0.0
H1437 H 0.64787 0.50582 0.80207 0.0
H1438 H 0.64414 0.54063 0.86313 0.0
H1439 H 0.60867 0.53793 0.87909 0.0
C1440 C 0.51151 0.04646 0.80078 0.0
C1441 C 0.53569 0.08386 0.80102 0.0
C1442 C 0.55065 0.08692 0.84653 0.0
C1443 C 0.5231 0.05058 0.84676 0.0
N1444 N 0.47293 0.99739 0.82455 0.0
N1445 N 0.57416 0.14097 0.82493 0.0
C1446 C 0.5024 0.03071 0.82397 0.0
C1447 C 0.55431 0.10447 0.82412 0.0
N1448 N 0.4978 0.02581 0.77832 0.0
N1449 N 0.57394 0.10443 0.86755 0.0
H1450 H 0.57721 0.15493 0.80907 0.0
H1451 H 0.58501 0.15758 0.84167 0.0
H1452 H 0.57234 0.09235 0.88419 0.0
H1453 H 0.59679 0.1297 0.86776 0.0
H1454 H 0.48299 0.99794 0.77692 0.0
H1455 H 0.50418 0.03634 0.76096 0.0
H1456 H 0.45459 0.98331 0.80892 0.0
H1457 H 0.46478 0.9851 0.84114 0.0
C1458 C 0.11198 0.24932 0.53962 0.0
C1459 C 0.11857 0.27 0.56293 0.0
C1460 C 0.1466 0.32498 0.5412 0.0
C1461 C 0.14325 0.30454 0.51843 0.0
N1462 N 0.12911 0.24781 0.49723 0.0
N1463 N 0.14812 0.32784 0.58676 0.0
C1464 C 0.12778 0.26683 0.51801 0.0
C1465 C 0.13766 0.30796 0.56396 0.0
N1466 N 0.0894 0.21303 0.53783 0.0
N1467 N 0.15683 0.36034 0.54094 0.0
H1468 H 0.14231 0.31637 0.60383 0.0
H1469 H 0.16535 0.35549 0.58888 0.0
H1470 H 0.16297 0.37369 0.52464 0.0
H1471 H 0.15597 0.37558 0.55638 0.0
H1472 H 0.08051 0.19709 0.52076 0.0
H1473 H 0.07679 0.19921 0.55305 0.0
H1474 H 0.12164 0.22088 0.4968 0.0
H1475 H 0.14092 0.25971 0.48119 0.0
C1476 C 0.71979 0.84959 0.56975 0.0
C1477 C 0.747 0.84042 0.5735 0.0
C1478 C 0.7368 0.81741 0.52905 0.0
C1479 C 0.71223 0.82988 0.52481 0.0
N1480 N 0.6844 0.86285 0.54005 0.0
N1481 N 0.7857 0.82089 0.55616 0.0
C1482 C 0.70479 0.84734 0.54488 0.0
C1483 C 0.75669 0.82572 0.55299 0.0
N1484 N 0.70756 0.85949 0.59005 0.0
N1485 N 0.74032 0.79672 0.51044 0.0
H1486 H 0.80098 0.82667 0.5734 0.0
H1487 H 0.79652 0.81402 0.54132 0.0
H1488 H 0.72621 0.79004 0.49265 0.0
H1489 H 0.7548 0.78361 0.51326 0.0
H1490 H 0.68516 0.8628 0.58876 0.0
H1491 H 0.71785 0.86138 0.60856 0.0
H1492 H 0.68133 0.87933 0.5534 0.0
H1493 H 0.67296 0.86179 0.52207 0.0
C1494 C 0.1498 0.90486 0.53618 0.0
C1495 C 0.15157 0.88795 0.55784 0.0
C1496 C 0.16709 0.84956 0.53223 0.0
C1497 C 0.1696 0.86945 0.51137 0.0
N1498 N 0.16606 0.91771 0.49355 0.0
N1499 N 0.16347 0.84562 0.57734 0.0
C1500 C 0.16134 0.89735 0.51328 0.0
C1501 C 0.16037 0.86045 0.55606 0.0
N1502 N 0.13687 0.928 0.53754 0.0
N1503 N 0.17055 0.81991 0.52908 0.0
H1504 H 0.15731 0.85196 0.59483 0.0
H1505 H 0.17394 0.82856 0.57804 0.0
H1506 H 0.17577 0.81146 0.51195 0.0
H1507 H 0.16551 0.80209 0.54272 0.0
H1508 H 0.13128 0.9384 0.52193 0.0
H1509 H 0.12883 0.93464 0.5541 0.0
H1510 H 0.16475 0.94109 0.49468 0.0
H1511 H 0.17377 0.91264 0.47631 0.0
C1512 C 0.58116 0.75771 0.14789 0.0
C1513 C 0.59773 0.779 0.12799 0.0
C1514 C 0.64902 0.82176 0.1575 0.0
C1515 C 0.6344 0.79829 0.17665 0.0
N1516 N 0.58889 0.74188 0.18967 0.0
N1517 N 0.64868 0.82933 0.11279 0.0
C1518 C 0.60099 0.76575 0.17178 0.0
C1519 C 0.63196 0.81065 0.13251 0.0
N1520 N 0.54616 0.73025 0.14404 0.0
N1521 N 0.67879 0.85492 0.16335 0.0
H1522 H 0.63669 0.82231 0.09432 0.0
H1523 H 0.67533 0.85025 0.11437 0.0
H1524 H 0.69208 0.86379 0.18144 0.0
H1525 H 0.6886 0.87472 0.1509 0.0
H1526 H 0.53133 0.71612 0.15844 0.0
H1527 H 0.53075 0.72358 0.12677 0.0
H1528 H 0.56695 0.71595 0.18621 0.0
H1529 H 0.60244 0.74689 0.20752 0.0
C1530 C 0.21924 0.83984 0.12451 0.0
C1531 C 0.25303 0.84134 0.12547 0.0
C1532 C 0.2613 0.85609 0.17131 0.0
C1533 C 0.22588 0.85086 0.17062 0.0
N1534 N 0.16922 0.83357 0.14719 0.0
N1535 N 0.30467 0.84669 0.14982 0.0
C1536 C 0.20435 0.84171 0.14736 0.0
C1537 C 0.27376 0.84849 0.14889 0.0
N1538 N 0.20179 0.83744 0.10169 0.0
N1539 N 0.2833 0.86913 0.19331 0.0
H1540 H 0.31495 0.84168 0.13382 0.0
H1541 H 0.31879 0.84755 0.16655 0.0
H1542 H 0.27496 0.8746 0.21014 0.0
H1543 H 0.31064 0.87724 0.1945 0.0
H1544 H 0.17899 0.84001 0.09965 0.0
H1545 H 0.21191 0.83595 0.0846 0.0
H1546 H 0.15089 0.8228 0.13123 0.0
H1547 H 0.15744 0.83493 0.16349 0.0
C1548 C 0.21743 0.4352 0.15693 0.0
C1549 C 0.20098 0.41519 0.13329 0.0
C1550 C 0.16667 0.36085 0.15488 0.0
C1551 C 0.18524 0.38023 0.17832 0.0
N1552 N 0.23365 0.43415 0.20097 0.0
N1553 N 0.16564 0.35773 0.10933 0.0
C1554 C 0.21227 0.41694 0.17913 0.0
C1555 C 0.17733 0.3776 0.13216 0.0
N1556 N 0.23665 0.47178 0.15842 0.0
N1557 N 0.13771 0.32695 0.15435 0.0
H1558 H 0.17314 0.36902 0.09232 0.0
H1559 H 0.15141 0.32984 0.10738 0.0
H1560 H 0.12859 0.31388 0.17054 0.0
H1561 H 0.1207 0.31303 0.13813 0.0
H1562 H 0.24583 0.48787 0.17542 0.0
H1563 H 0.24078 0.48625 0.14272 0.0
H1564 H 0.2562 0.45976 0.20207 0.0
H1565 H 0.23088 0.42158 0.2175 0.0
C1566 C 0.75888 0.59028 0.87291 0.0
C1567 C 0.77958 0.60716 0.89625 0.0
C1568 C 0.81004 0.66399 0.87707 0.0
C1569 C 0.7958 0.64535 0.85273 0.0
N1570 N 0.73666 0.60091 0.8339 0.0
N1571 N 0.82513 0.66095 0.92082 0.0
C1572 C 0.76438 0.61091 0.85201 0.0
C1573 C 0.80524 0.6443 0.89842 0.0
N1574 N 0.73382 0.55459 0.87057 0.0
N1575 N 0.82202 0.69976 0.88041 0.0
H1576 H 0.82191 0.64762 0.93704 0.0
H1577 H 0.84662 0.68727 0.92259 0.0
H1578 H 0.81888 0.71344 0.86586 0.0
H1579 H 0.82963 0.71422 0.89806 0.0
H1580 H 0.72063 0.54052 0.85324 0.0
H1581 H 0.72834 0.53863 0.88555 0.0
H1582 H 0.71178 0.57746 0.83372 0.0
H1583 H 0.73674 0.6189 0.8216 0.0
C1584 C 0.37556 0.17818 0.90078 0.0
C1585 C 0.4069 0.17516 0.90335 0.0
C1586 C 0.39717 0.15276 0.85886 0.0
C1587 C 0.36807 0.1593 0.8556 0.0
N1588 N 0.33218 0.18264 0.87247 0.0
N1589 N 0.45184 0.16658 0.88389 0.0
C1590 C 0.35783 0.1731 0.87633 0.0
C1591 C 0.41891 0.16436 0.88212 0.0
N1592 N 0.36251 0.18537 0.92175 0.0
N1593 N 0.40346 0.1346 0.83991 0.0
H1594 H 0.46908 0.17572 0.90045 0.0
H1595 H 0.46363 0.16269 0.86838 0.0
H1596 H 0.38787 0.12531 0.82263 0.0
H1597 H 0.42185 0.12574 0.84218 0.0
H1598 H 0.33772 0.18424 0.92149 0.0
H1599 H 0.37532 0.18988 0.93982 0.0
H1600 H 0.32627 0.19637 0.88625 0.0
H1601 H 0.31863 0.17926 0.85485 0.0
C1602 C 0.82193 0.24211 0.87007 0.0
C1603 C 0.81987 0.22203 0.89071 0.0
C1604 C 0.83429 0.18376 0.86398 0.0
C1605 C 0.84124 0.20694 0.84452 0.0
N1606 N 0.84533 0.26047 0.82981 0.0
N1607 N 0.82585 0.17502 0.90824 0.0
C1608 C 0.83571 0.23657 0.84767 0.0
C1609 C 0.82624 0.19297 0.88786 0.0
N1610 N 0.81046 0.26639 0.87192 0.0
N1611 N 0.83469 0.15261 0.85941 0.0
H1612 H 0.81869 0.18021 0.92567 0.0
H1613 H 0.8345 0.15645 0.90831 0.0
H1614 H 0.84051 0.14511 0.84217 0.0
H1615 H 0.8264 0.13283 0.87186 0.0
H1616 H 0.8079 0.2794 0.85679 0.0
H1617 H 0.80022 0.27106 0.88806 0.0
H1618 H 0.84594 0.28478 0.83232 0.0
H1619 H 0.85557 0.25747 0.81315 0.0
C1620 C 0.30911 0.13697 0.46328 0.0
C1621 C 0.27087 0.11688 0.46106 0.0
C1622 C 0.27104 0.12101 0.50702 0.0
C1623 C 0.30919 0.1374 0.50922 0.0
N1624 N 0.3646 0.15684 0.48966 0.0
N1625 N 0.2152 0.0847 0.48056 0.0
C1626 C 0.32832 0.14443 0.4874 0.0
C1627 C 0.2517 0.10761 0.48287 0.0
N1628 N 0.32698 0.14946 0.44236 0.0
N1629 N 0.25336 0.11902 0.52798 0.0
H1630 H 0.19992 0.0741 0.46323 0.0
H1631 H 0.20045 0.07377 0.49581 0.0
H1632 H 0.26663 0.12865 0.54602 0.0
H1633 H 0.22602 0.11082 0.52723 0.0
H1634 H 0.35462 0.16734 0.44307 0.0
H1635 H 0.31368 0.14438 0.4244 0.0
H1636 H 0.37932 0.15874 0.47436 0.0
H1637 H 0.37961 0.16255 0.507 0.0
C1638 C 0.93661 0.17667 0.481 0.0
C1639 C 0.91546 0.16988 0.45782 0.0
C1640 C 0.86653 0.16798 0.48067 0.0
C1641 C 0.8886 0.17722 0.50371 0.0
N1642 N 0.9469 0.19677 0.52554 0.0
N1643 N 0.86335 0.16559 0.43505 0.0
C1644 C 0.92435 0.18345 0.50379 0.0
C1645 C 0.88131 0.16752 0.45752 0.0
N1646 N 0.96773 0.17529 0.48134 0.0
N1647 N 0.83099 0.15823 0.48098 0.0
H1648 H 0.87339 0.16517 0.41774 0.0
H1649 H 0.8402 0.16762 0.43362 0.0
H1650 H 0.81907 0.15802 0.49754 0.0
H1651 H 0.81254 0.14743 0.46508 0.0
H1652 H 0.98215 0.17592 0.49784 0.0
H1653 H 0.97779 0.17073 0.46506 0.0
H1654 H 0.97434 0.2054 0.52629 0.0
H1655 H 0.9389 0.20211 0.54256 0.0
C1656 C 0.84691 0.70972 0.46494 0.0
C1657 C 0.86799 0.74758 0.46568 0.0
C1658 C 0.87681 0.75141 0.51187 0.0
C1659 C 0.85211 0.71406 0.51124 0.0
N1660 N 0.80953 0.65826 0.48728 0.0
N1661 N 0.89888 0.80515 0.49001 0.0
C1662 C 0.83618 0.6933 0.48778 0.0
C1663 C 0.88202 0.76865 0.4892 0.0
N1664 N 0.83766 0.68942 0.44237 0.0
N1665 N 0.89592 0.77028 0.53406 0.0
H1666 H 0.90324 0.81887 0.47392 0.0
H1667 H 0.90594 0.82173 0.50668 0.0
H1668 H 0.89289 0.75854 0.55099 0.0
H1669 H 0.91703 0.79671 0.53529 0.0
H1670 H 0.82554 0.66162 0.44078 0.0
H1671 H 0.84513 0.70058 0.42532 0.0
H1672 H 0.7941 0.64288 0.47088 0.0
H1673 H 0.80061 0.64528 0.50353 0.0
loop_
_geom_bond_atom_site_label_1
_geom_bond_atom_site_label_2
_geom_bond_distance
_geom_bond_site_symmetry_2
_ccdc_geom_bond_type
H0 C1 0.949 . S
C1 H0 0.949 . S
C1 C2 1.395 . S
C1 C3 1.391 . S
C2 C1 1.395 . S
C2 C5 1.390 . S
C3 C1 1.391 . S
C3 C7 1.387 . S
C3 C8 1.491 . S
H4 C5 0.950 . S
C5 C2 1.390 . S
C5 H4 0.950 . S
C5 C6 1.378 . S
C6 C5 1.378 . S
C6 C7 1.409 . S
C7 C3 1.387 . S
C7 C6 1.409 . S
C7 H9 0.951 . S
C8 C3 1.491 . S
C8 C10 1.382 . S
C8 C12 1.404 . S
H9 C7 0.951 . S
C10 C8 1.382 . S
C10 C11 1.390 . S
C10 H15 0.949 . S
C11 C10 1.390 . S
C11 C16 1.399 . S
C12 C8 1.404 . S
C12 H13 0.950 . S
C12 C14 1.375 . S
H13 C12 0.950 . S
C14 C12 1.375 . S
C14 C16 1.382 . S
C14 H18 0.950 . S
H15 C10 0.949 . S
C16 C11 1.399 . S
C16 C14 1.382 . S
C16 H17 0.952 . S
H17 C16 0.952 . S
H18 C14 0.950 . S
H19 C20 0.949 . S
C20 H19 0.949 . S
C20 C21 1.395 . S
C20 C22 1.391 . S
C21 C20 1.395 . S
C21 C24 1.390 . S
C22 C20 1.391 . S
C22 C26 1.387 . S
C22 C27 1.491 . S
H23 C24 0.950 . S
C24 C21 1.390 . S
C24 H23 0.950 . S
C24 C25 1.378 . S
C25 C24 1.378 . S
C25 C26 1.409 . S
C26 C22 1.387 . S
C26 C25 1.409 . S
C26 H28 0.951 . S
C27 C22 1.491 . S
C27 C29 1.382 . S
C27 C31 1.404 . S
H28 C26 0.951 . S
C29 C27 1.382 . S
C29 C30 1.390 . S
C29 H34 0.949 . S
C30 C29 1.390 . S
C30 C35 1.399 1_545 S
C31 C27 1.404 . S
C31 H32 0.950 . S
C31 C33 1.375 . S
H32 C31 0.950 . S
C33 C31 1.375 . S
C33 C35 1.382 1_545 S
C33 H37 0.950 . S
H34 C29 0.949 . S
C35 C30 1.399 1_565 S
C35 C33 1.382 1_565 S
C35 H36 0.952 . S
H36 C35 0.952 . S
H37 C33 0.950 . S
H38 C39 0.949 . S
C39 H38 0.949 . S
C39 C40 1.395 . S
C39 C41 1.391 . S
C40 C39 1.395 . S
C40 C43 1.390 . S
C41 C39 1.391 . S
C41 C45 1.387 . S
C41 C46 1.491 . S
H42 C43 0.950 . S
C43 C40 1.390 . S
C43 H42 0.950 . S
C43 C44 1.378 . S
C44 C43 1.378 . S
C44 C45 1.409 . S
C45 C41 1.387 . S
C45 C44 1.409 . S
C45 H47 0.951 . S
C46 C41 1.491 . S
C46 C48 1.382 . S
C46 C50 1.404 . S
H47 C45 0.951 . S
C48 C46 1.382 . S
C48 C49 1.390 1_655 S
C48 H53 0.949 . S
C49 C48 1.390 1_455 S
C49 C54 1.399 . S
C50 C46 1.404 . S
C50 H51 0.950 . S
C50 C52 1.375 1_655 S
H51 C50 0.950 . S
C52 C50 1.375 1_455 S
C52 C54 1.382 . S
C52 H56 0.950 . S
H53 C48 0.949 . S
C54 C49 1.399 . S
C54 C52 1.382 . S
C54 H55 0.952 . S
H55 C54 0.952 . S
H56 C52 0.950 . S
H57 C58 0.949 . S
C58 H57 0.949 . S
C58 C59 1.395 . S
C58 C60 1.391 . S
C59 C58 1.395 . S
C59 C62 1.390 . S
C60 C58 1.391 . S
C60 C64 1.387 . S
C60 C65 1.491 . S
H61 C62 0.950 . S
C62 C59 1.390 . S
C62 H61 0.950 . S
C62 C63 1.378 . S
C63 C62 1.378 . S
C63 C64 1.409 . S
C64 C60 1.387 . S
C64 C63 1.409 . S
C64 H66 0.951 . S
C65 C60 1.491 . S
C65 C67 1.382 . S
C65 C69 1.404 . S
H66 C64 0.951 . S
C67 C65 1.382 . S
C67 C68 1.390 . S
C67 H72 0.949 . S
C68 C67 1.390 . S
C68 C73 1.399 . S
C69 C65 1.404 . S
C69 H70 0.950 . S
C69 C71 1.375 . S
H70 C69 0.950 . S
C71 C69 1.375 . S
C71 C73 1.382 . S
C71 H75 0.950 . S
H72 C67 0.949 . S
C73 C68 1.399 . S
C73 C71 1.382 . S
C73 H74 0.952 . S
H74 C73 0.952 . S
H75 C71 0.950 . S
H76 C77 0.949 . S
C77 H76 0.949 . S
C77 C78 1.395 . S
C77 C79 1.391 . S
C78 C77 1.395 . S
C78 C81 1.390 . S
C79 C77 1.391 . S
C79 C83 1.387 . S
C79 C84 1.491 . S
H80 C81 0.950 . S
C81 C78 1.390 . S
C81 H80 0.950 . S
C81 C82 1.378 . S
C82 C81 1.378 . S
C82 C83 1.409 . S
C83 C79 1.387 . S
C83 C82 1.409 . S
C83 H85 0.951 . S
C84 C79 1.491 . S
C84 C86 1.382 . S
C84 C88 1.404 . S
H85 C83 0.951 . S
C86 C84 1.382 . S
C86 C87 1.390 . S
C86 H91 0.949 . S
C87 C86 1.390 . S
C87 C92 1.399 1_565 S
C88 C84 1.404 . S
C88 H89 0.950 . S
C88 C90 1.375 . S
H89 C88 0.950 . S
C90 C88 1.375 . S
C90 C92 1.382 1_565 S
C90 H94 0.950 . S
H91 C86 0.949 . S
C92 C87 1.399 1_545 S
C92 C90 1.382 1_545 S
C92 H93 0.952 . S
H93 C92 0.952 . S
H94 C90 0.950 . S
H95 C96 0.949 . S
C96 H95 0.949 . S
C96 C97 1.395 . S
C96 C98 1.391 . S
C97 C96 1.395 . S
C97 C100 1.390 . S
C98 C96 1.391 . S
C98 C102 1.387 . S
C98 C103 1.491 . S
H99 C100 0.950 . S
C100 C97 1.390 . S
C100 H99 0.950 . S
C100 C101 1.378 . S
C101 C100 1.378 . S
C101 C102 1.409 . S
C102 C98 1.387 . S
C102 C101 1.409 . S
C102 H104 0.951 . S
C103 C98 1.491 . S
C103 C105 1.382 . S
C103 C107 1.404 . S
H104 C102 0.951 . S
C105 C103 1.382 . S
C105 C106 1.390 . S
C105 H110 0.949 . S
C106 C105 1.390 . S
C106 C111 1.399 . S
C107 C103 1.404 . S
C107 H108 0.950 . S
C107 C109 1.375 . S
H108 C107 0.950 . S
C109 C107 1.375 . S
C109 C111 1.382 . S
C109 H113 0.950 . S
H110 C105 0.949 . S
C111 C106 1.399 . S
C111 C109 1.382 . S
C111 H112 0.952 1_455 S
H112 C111 0.952 1_655 S
H113 C109 0.950 . S
H114 C115 0.949 . S
C115 H114 0.949 . S
C115 C116 1.395 . S
C115 C117 1.391 . S
C116 C115 1.395 . S
C116 C119 1.390 . S
C117 C115 1.391 . S
C117 C121 1.387 . S
C117 C122 1.491 . S
H118 C119 0.950 . S
C119 C116 1.390 . S
C119 H118 0.950 . S
C119 C120 1.378 . S
C120 C119 1.378 . S
C120 C121 1.409 . S
C121 C117 1.387 . S
C121 C120 1.409 . S
C121 H123 0.951 . S
C122 C117 1.491 . S
C122 C124 1.382 . S
C122 C126 1.404 . S
H123 C121 0.951 . S
C124 C122 1.382 . S
C124 C125 1.390 . S
C124 H129 0.949 . S
C125 C124 1.390 . S
C125 C130 1.399 . S
C126 C122 1.404 . S
C126 H127 0.950 . S
C126 C128 1.375 . S
H127 C126 0.950 . S
C128 C126 1.375 . S
C128 C130 1.382 . S
C128 H132 0.950 . S
H129 C124 0.949 . S
C130 C125 1.399 . S
C130 C128 1.382 . S
C130 H131 0.952 . S
H131 C130 0.952 . S
H132 C128 0.950 . S
H133 C134 0.949 . S
C134 H133 0.949 . S
C134 C135 1.395 . S
C134 C136 1.391 . S
C135 C134 1.395 . S
C135 C138 1.390 . S
C136 C134 1.391 . S
C136 C140 1.387 . S
C136 C141 1.491 . S
H137 C138 0.950 . S
C138 C135 1.390 . S
C138 H137 0.950 . S
C138 C139 1.378 . S
C139 C138 1.378 . S
C139 C140 1.409 . S
C140 C136 1.387 . S
C140 C139 1.409 . S
C140 H142 0.951 . S
C141 C136 1.491 . S
C141 C143 1.382 . S
C141 C145 1.404 . S
H142 C140 0.951 . S
C143 C141 1.382 . S
C143 C144 1.390 . S
C143 H148 0.949 . S
C144 C143 1.390 . S
C144 C149 1.399 . S
C145 C141 1.404 . S
C145 H146 0.950 . S
C145 C147 1.375 . S
H146 C145 0.950 . S
C147 C145 1.375 . S
C147 C149 1.382 . S
C147 H151 0.950 . S
H148 C143 0.949 . S
C149 C144 1.399 . S
C149 C147 1.382 . S
C149 H150 0.952 . S
H150 C149 0.952 . S
H151 C147 0.950 . S
H152 C153 0.949 . S
C153 H152 0.949 . S
C153 C154 1.395 . S
C153 C155 1.391 . S
C154 C153 1.395 . S
C154 C157 1.390 . S
C155 C153 1.391 . S
C155 C159 1.387 . S
C155 C160 1.491 . S
H156 C157 0.950 . S
C157 C154 1.390 . S
C157 H156 0.950 . S
C157 C158 1.378 . S
C158 C157 1.378 . S
C158 C159 1.409 . S
C159 C155 1.387 . S
C159 C158 1.409 . S
C159 H161 0.951 . S
C160 C155 1.491 . S
C160 C162 1.382 . S
C160 C164 1.404 . S
H161 C159 0.951 . S
C162 C160 1.382 . S
C162 C163 1.390 . S
C162 H167 0.949 . S
C163 C162 1.390 . S
C163 C168 1.399 . S
C164 C160 1.404 . S
C164 H165 0.950 . S
C164 C166 1.375 . S
H165 C164 0.950 . S
C166 C164 1.375 . S
C166 C168 1.382 . S
C166 H170 0.950 . S
H167 C162 0.949 . S
C168 C163 1.399 . S
C168 C166 1.382 . S
C168 H169 0.952 . S
H169 C168 0.952 . S
H170 C166 0.950 . S
H171 C172 0.949 . S
C172 H171 0.949 . S
C172 C173 1.395 . S
C172 C174 1.391 . S
C173 C172 1.395 . S
C173 C176 1.390 . S
C174 C172 1.391 . S
C174 C178 1.387 . S
C174 C179 1.491 . S
H175 C176 0.950 . S
C176 C173 1.390 . S
C176 H175 0.950 . S
C176 C177 1.378 . S
C177 C176 1.378 . S
C177 C178 1.409 . S
C178 C174 1.387 . S
C178 C177 1.409 . S
C178 H180 0.951 . S
C179 C174 1.491 . S
C179 C181 1.382 . S
C179 C183 1.404 . S
H180 C178 0.951 . S
C181 C179 1.382 . S
C181 C182 1.390 . S
C181 H186 0.949 . S
C182 C181 1.390 . S
C182 C187 1.399 . S
C183 C179 1.404 . S
C183 H184 0.950 . S
C183 C185 1.375 . S
H184 C183 0.950 . S
C185 C183 1.375 . S
C185 C187 1.382 . S
C185 H189 0.950 . S
H186 C181 0.949 . S
C187 C182 1.399 . S
C187 C185 1.382 . S
C187 H188 0.952 . S
H188 C187 0.952 . S
H189 C185 0.950 . S
H190 C191 0.949 . S
C191 H190 0.949 . S
C191 C192 1.395 . S
C191 C193 1.391 . S
C192 C191 1.395 . S
C192 C195 1.390 . S
C193 C191 1.391 . S
C193 C197 1.387 . S
C193 C198 1.491 . S
H194 C195 0.950 . S
C195 C192 1.390 . S
C195 H194 0.950 . S
C195 C196 1.378 . S
C196 C195 1.378 . S
C196 C197 1.409 . S
C197 C193 1.387 . S
C197 C196 1.409 . S
C197 H199 0.951 1_556 S
C198 C193 1.491 . S
C198 C200 1.382 . S
C198 C202 1.404 1_556 S
H199 C197 0.951 1_554 S
C200 C198 1.382 . S
C200 C201 1.390 1_556 S
C200 H205 0.949 . S
C201 C200 1.390 1_554 S
C201 C206 1.399 . S
C202 C198 1.404 1_554 S
C202 H203 0.950 . S
C202 C204 1.375 . S
H203 C202 0.950 . S
C204 C202 1.375 . S
C204 C206 1.382 . S
C204 H208 0.950 . S
H205 C200 0.949 . S
C206 C201 1.399 . S
C206 C204 1.382 . S
C206 H207 0.952 . S
H207 C206 0.952 . S
H208 C204 0.950 . S
H209 C210 0.949 . S
C210 H209 0.949 . S
C210 C211 1.395 . S
C210 C212 1.391 . S
C211 C210 1.395 . S
C211 C214 1.390 . S
C212 C210 1.391 . S
C212 C216 1.387 . S
C212 C217 1.491 . S
H213 C214 0.950 . S
C214 C211 1.390 . S
C214 H213 0.950 . S
C214 C215 1.378 . S
C215 C214 1.378 . S
C215 C216 1.409 . S
C216 C212 1.387 . S
C216 C215 1.409 . S
C216 H218 0.951 . S
C217 C212 1.491 . S
C217 C219 1.382 . S
C217 C221 1.404 . S
H218 C216 0.951 . S
C219 C217 1.382 . S
C219 C220 1.390 . S
C219 H224 0.949 . S
C220 C219 1.390 . S
C220 C225 1.399 . S
C221 C217 1.404 . S
C221 H222 0.950 . S
C221 C223 1.369 1_556 S
H222 C221 0.950 . S
C223 C221 1.369 1_554 S
C223 C225 1.382 1_554 S
C223 H227 0.956 . S
H224 C219 0.949 . S
C225 C220 1.399 . S
C225 C223 1.382 1_556 S
C225 H226 0.952 1_556 S
H226 C225 0.952 1_554 S
H227 C223 0.956 . S
H228 C229 0.949 . S
C229 H228 0.949 . S
C229 C230 1.395 . S
C229 C231 1.391 . S
C230 C229 1.395 . S
C230 C233 1.390 . S
C231 C229 1.391 . S
C231 C235 1.387 . S
C231 C236 1.491 . S
H232 C233 0.950 . S
C233 C230 1.390 . S
C233 H232 0.950 . S
C233 C234 1.378 . S
C234 C233 1.378 . S
C234 C235 1.409 . S
C235 C231 1.387 . S
C235 C234 1.409 . S
C235 H237 0.917 1_554 S
C236 C231 1.491 . S
C236 C238 1.382 . S
C236 C240 1.404 1_554 S
H237 C235 0.917 1_556 S
C238 C236 1.382 . S
C238 C239 1.390 . S
C238 H243 0.949 . S
C239 C238 1.390 . S
C239 C244 1.399 1_554 S
C240 C236 1.404 1_556 S
C240 H241 0.950 . S
C240 C242 1.375 . S
H241 C240 0.950 . S
C242 C240 1.375 . S
C242 C244 1.382 . S
C242 H246 0.950 . S
H243 C238 0.949 . S
C244 C239 1.399 1_556 S
C244 C242 1.382 . S
C244 H245 0.952 . S
H245 C244 0.952 . S
H246 C242 0.950 . S
H247 C248 0.949 . S
C248 H247 0.949 . S
C248 C249 1.395 . S
C248 C250 1.391 . S
C249 C248 1.395 . S
C249 C252 1.390 . S
C250 C248 1.391 . S
C250 C254 1.387 . S
C250 C255 1.491 . S
H251 C252 0.950 . S
C252 C249 1.390 . S
C252 H251 0.950 . S
C252 C253 1.378 . S
C253 C252 1.378 . S
C253 C254 1.409 . S
C254 C250 1.387 . S
C254 C253 1.409 . S
C254 H256 0.951 . S
C255 C250 1.491 . S
C255 C257 1.382 . S
C255 C259 1.404 . S
H256 C254 0.951 . S
C257 C255 1.382 . S
C257 C258 1.390 . S
C257 H262 0.949 . S
C258 C257 1.390 . S
C258 C263 1.394 1_554 S
C259 C255 1.404 . S
C259 H260 0.950 . S
C259 C261 1.358 1_554 S
H260 C259 0.950 . S
C261 C259 1.358 1_556 S
C261 C263 1.377 . S
C261 H265 0.975 . S
H262 C257 0.949 . S
C263 C258 1.394 1_556 S
C263 C261 1.377 . S
C263 H264 0.955 . S
H264 C263 0.955 . S
H265 C261 0.975 . S
H266 C267 0.949 . S
C267 H266 0.949 . S
C267 C268 1.395 . S
C267 C269 1.391 . S
C268 C267 1.395 . S
C268 C271 1.390 . S
C269 C267 1.391 . S
C269 C273 1.387 . S
C269 C274 1.491 . S
H270 C271 0.950 . S
C271 C268 1.390 . S
C271 H270 0.950 . S
C271 C272 1.378 . S
C272 C271 1.378 . S
C272 C273 1.409 . S
C273 C269 1.387 . S
C273 C272 1.409 . S
C273 H275 0.951 . S
C274 C269 1.491 . S
C274 C276 1.382 . S
C274 C278 1.404 . S
H275 C273 0.951 . S
C276 C274 1.382 . S
C276 C277 1.390 . S
C276 H281 0.949 . S
C277 C276 1.390 . S
C277 C282 1.399 . S
C278 C274 1.404 . S
C278 H279 0.950 . S
C278 C280 1.375 . S
H279 C278 0.950 . S
C280 C278 1.375 . S
C280 C282 1.382 . S
C280 H284 0.950 . S
H281 C276 0.949 . S
C282 C277 1.399 . S
C282 C280 1.382 . S
C282 H283 0.952 . S
H283 C282 0.952 . S
H284 C280 0.950 . S
H285 C286 0.949 . S
C286 H285 0.949 . S
C286 C287 1.395 . S
C286 C288 1.391 . S
C287 C286 1.395 . S
C287 C290 1.390 . S
C288 C286 1.391 . S
C288 C292 1.387 . S
C288 C293 1.491 . S
H289 C290 0.950 . S
C290 C287 1.390 . S
C290 H289 0.950 . S
C290 C291 1.378 . S
C291 C290 1.378 . S
C291 C292 1.409 . S
C292 C288 1.387 . S
C292 C291 1.409 . S
C292 H294 0.951 . S
C293 C288 1.491 . S
C293 C295 1.382 . S
C293 C297 1.404 . S
H294 C292 0.951 . S
C295 C293 1.382 . S
C295 C296 1.390 . S
C295 H300 0.949 . S
C296 C295 1.390 . S
C296 C301 1.399 . S
C297 C293 1.404 . S
C297 H298 0.950 . S
C297 C299 1.375 . S
H298 C297 0.950 . S
C299 C297 1.375 . S
C299 C301 1.382 . S
C299 H303 0.950 . S
H300 C295 0.949 . S
C301 C296 1.399 . S
C301 C299 1.382 . S
C301 H302 0.952 . S
H302 C301 0.952 . S
H303 C299 0.950 . S
H304 C305 0.949 . S
C305 H304 0.949 . S
C305 C306 1.395 . S
C305 C307 1.391 . S
C306 C305 1.395 . S
C306 C309 1.390 . S
C307 C305 1.391 . S
C307 C311 1.387 . S
C307 C312 1.491 . S
H308 C309 0.950 . S
C309 C306 1.390 . S
C309 H308 0.950 . S
C309 C310 1.378 . S
C310 C309 1.378 . S
C310 C311 1.409 . S
C311 C307 1.387 . S
C311 C310 1.409 . S
C311 H313 0.951 . S
C312 C307 1.491 . S
C312 C314 1.382 . S
C312 C316 1.404 . S
H313 C311 0.951 . S
C314 C312 1.382 . S
C314 C315 1.390 . S
C314 H319 0.949 . S
C315 C314 1.390 . S
C315 C320 1.399 . S
C316 C312 1.404 . S
C316 H317 0.950 . S
C316 C318 1.375 . S
H317 C316 0.950 . S
C318 C316 1.375 . S
C318 C320 1.382 . S
C318 H322 0.950 . S
H319 C314 0.949 . S
C320 C315 1.399 . S
C320 C318 1.382 . S
C320 H321 0.952 . S
H321 C320 0.952 . S
H322 C318 0.950 . S
H323 C324 0.949 . S
C324 H323 0.949 . S
C324 C325 1.395 . S
C324 C326 1.391 . S
C325 C324 1.395 . S
C325 C328 1.390 . S
C326 C324 1.391 . S
C326 C330 1.387 . S
C326 C331 1.491 . S
H327 C328 0.950 . S
C328 C325 1.390 . S
C328 H327 0.950 . S
C328 C329 1.378 . S
C329 C328 1.378 . S
C329 C330 1.409 . S
C330 C326 1.387 . S
C330 C329 1.409 . S
C330 H332 0.951 . S
C331 C326 1.491 . S
C331 C333 1.382 . S
C331 C335 1.404 . S
H332 C330 0.951 . S
C333 C331 1.382 . S
C333 C334 1.390 . S
C333 H338 0.949 . S
C334 C333 1.390 . S
C334 C339 1.399 . S
C335 C331 1.404 . S
C335 H336 0.950 . S
C335 C337 1.375 . S
H336 C335 0.950 . S
C337 C335 1.375 . S
C337 C339 1.382 . S
C337 H341 0.950 . S
H338 C333 0.949 . S
C339 C334 1.399 . S
C339 C337 1.382 . S
C339 H340 0.952 . S
H340 C339 0.952 . S
H341 C337 0.950 . S
Eu342 C351 2.828 1_565 S
Eu342 O353 2.392 . S
Eu342 O355 2.418 . S
Eu342 O360 2.373 1_565 S
Eu342 O363 2.488 . S
Eu342 O364 2.471 1_565 S
Eu342 O365 2.349 1_565 S
Eu343 O352 2.373 1_545 S
Eu343 O356 2.488 . S
Eu343 O357 2.471 1_545 S
Eu343 O358 2.349 1_545 S
Eu343 O361 2.392 . S
Eu343 O362 2.418 . S
Eu343 C372 2.828 1_545 S
C344 O362 1.244 . S
C344 O365 1.265 1_554 S
C345 C346 1.379 . S
C345 C349 1.373 . S
C345 C351 1.505 . S
C346 C345 1.379 . S
C346 C348 1.369 . S
C346 H374 0.930 . S
C347 C349 1.383 . S
C347 C350 1.382 . S
C347 H375 0.930 . S
C348 C346 1.369 . S
C348 C350 1.392 . S
C348 H376 0.930 . S
C349 C345 1.373 . S
C349 C347 1.383 . S
C349 H377 0.931 1_545 S
C350 C347 1.382 . S
C350 C348 1.392 . S
C351 Eu342 2.828 1_545 S
C351 C345 1.505 . S
C351 O363 1.249 1_545 S
C351 O364 1.244 . S
O352 Eu343 2.373 1_565 S
O352 C354 1.258 . S
O353 Eu342 2.392 . S
O353 C354 1.242 1_556 S
C354 O352 1.258 . S
C354 O353 1.242 1_554 S
O355 Eu342 2.418 . S
O355 C359 1.277 . S
O356 Eu343 2.488 . S
O356 C372 1.249 1_545 S
O357 Eu343 2.471 1_565 S
O357 C372 1.244 . S
O358 Eu343 2.349 1_565 S
O358 C359 1.248 1_554 S
C359 O355 1.277 . S
C359 O358 1.248 1_556 S
O360 Eu342 2.373 1_545 S
O360 C373 1.258 . S
O361 Eu343 2.392 . S
O361 C373 1.242 1_554 S
O362 Eu343 2.418 . S
O362 C344 1.244 . S
O363 Eu342 2.488 . S
O363 C351 1.249 1_565 S
O364 Eu342 2.471 1_545 S
O364 C351 1.244 . S
O365 Eu342 2.349 1_545 S
O365 C344 1.265 1_556 S
C366 C367 1.379 . S
C366 C370 1.373 1_565 S
C366 C372 1.505 . S
C367 C366 1.379 . S
C367 C369 1.369 . S
C367 H378 0.930 . S
C368 C370 1.383 1_565 S
C368 C371 1.382 . S
C368 H379 0.930 1_565 S
C369 C367 1.369 . S
C369 C371 1.392 . S
C369 H380 0.930 . S
C370 C366 1.373 1_545 S
C370 C368 1.383 1_545 S
C370 H381 0.931 . S
C371 C368 1.382 . S
C371 C369 1.392 . S
C372 Eu343 2.828 1_565 S
C372 O356 1.249 1_565 S
C372 O357 1.244 . S
C372 C366 1.505 . S
C373 O360 1.258 . S
C373 O361 1.242 1_556 S
H374 C346 0.930 . S
H375 C347 0.930 . S
H376 C348 0.930 . S
H377 C349 0.931 1_565 S
H378 C367 0.930 . S
H379 C368 0.930 1_545 S
H380 C369 0.930 . S
H381 C370 0.931 . S
Eu382 C391 2.828 1_455 S
Eu382 O393 2.393 . S
Eu382 O395 2.418 . S
Eu382 O400 2.373 1_455 S
Eu382 O403 2.488 . S
Eu382 O404 2.471 1_455 S
Eu382 O405 2.349 1_455 S
Eu383 O392 2.373 1_655 S
Eu383 O396 2.488 . S
Eu383 O397 2.471 1_655 S
Eu383 O398 2.349 1_655 S
Eu383 O401 2.392 . S
Eu383 O402 2.418 . S
Eu383 C412 2.828 1_655 S
C384 O402 1.206 1_556 S
C384 O405 1.286 . S
C385 C386 1.379 . S
C385 C389 1.373 . S
C385 C391 1.505 . S
C386 C385 1.379 . S
C386 C388 1.369 . S
C386 H414 0.930 . S
C387 C389 1.383 . S
C387 C390 1.382 . S
C387 H415 0.930 . S
C388 C386 1.369 . S
C388 C390 1.392 . S
C388 H416 0.930 . S
C389 C385 1.373 . S
C389 C387 1.383 . S
C389 H417 0.931 1_655 S
C390 C387 1.382 . S
C390 C388 1.392 . S
C391 Eu382 2.828 1_655 S
C391 C385 1.505 . S
C391 O403 1.249 1_655 S
C391 O404 1.244 . S
O392 Eu383 2.373 1_455 S
O392 C394 1.258 . S
O393 Eu382 2.393 . S
O393 C394 1.241 1_556 S
C394 O392 1.258 . S
C394 O393 1.241 1_554 S
O395 Eu382 2.418 . S
O395 C399 1.244 1_556 S
O396 Eu383 2.488 . S
O396 C412 1.249 1_655 S
O397 Eu383 2.471 1_455 S
O397 C412 1.244 . S
O398 Eu383 2.349 1_455 S
O398 C399 1.265 . S
C399 O395 1.244 1_554 S
C399 O398 1.265 . S
O400 Eu382 2.373 1_655 S
O400 C413 1.258 . S
O401 Eu383 2.392 . S
O401 C413 1.242 1_554 S
O402 Eu383 2.418 . S
O402 C384 1.206 1_554 S
O403 Eu382 2.488 . S
O403 C391 1.249 1_455 S
O404 Eu382 2.471 1_655 S
O404 C391 1.244 . S
O405 Eu382 2.349 1_655 S
O405 C384 1.286 . S
C406 C407 1.379 . S
C406 C410 1.373 . S
C406 C412 1.505 . S
C407 C406 1.379 . S
C407 C409 1.369 . S
C407 H418 0.930 . S
C408 C410 1.383 . S
C408 C411 1.382 . S
C408 H419 0.930 . S
C409 C407 1.369 . S
C409 C411 1.392 . S
C409 H420 0.930 . S
C410 C406 1.373 . S
C410 C408 1.383 . S
C410 H421 0.931 1_455 S
C411 C408 1.382 . S
C411 C409 1.392 . S
C412 Eu383 2.828 1_455 S
C412 O396 1.249 1_455 S
C412 O397 1.244 . S
C412 C406 1.505 . S
C413 O400 1.258 . S
C413 O401 1.242 1_556 S
H414 C386 0.930 . S
H415 C387 0.930 . S
H416 C388 0.930 . S
H417 C389 0.931 1_455 S
H418 C407 0.930 . S
H419 C408 0.930 . S
H420 C409 0.930 . S
H421 C410 0.931 1_655 S
Eu422 C431 2.828 . S
Eu422 O433 2.392 . S
Eu422 O435 2.418 . S
Eu422 O440 2.373 . S
Eu422 O443 2.488 . S
Eu422 O444 2.471 . S
Eu422 O445 2.349 . S
Eu423 O432 2.373 . S
Eu423 O436 2.488 . S
Eu423 O437 2.471 . S
Eu423 O438 2.349 . S
Eu423 O441 2.392 1_556 S
Eu423 O442 2.418 . S
Eu423 C452 2.828 . S
C424 O442 1.244 1_554 S
C424 O445 1.265 . S
C425 C426 1.379 . S
C425 C429 1.373 . S
C425 C431 1.505 . S
C426 C425 1.379 . S
C426 C428 1.369 . S
C426 H454 0.930 . S
C427 C429 1.383 . S
C427 C430 1.382 . S
C427 H455 0.930 . S
C428 C426 1.369 . S
C428 C430 1.392 . S
C428 H456 0.930 . S
C429 C425 1.373 . S
C429 C427 1.383 . S
C429 H457 0.931 . S
C430 C427 1.382 . S
C430 C428 1.392 . S
C431 Eu422 2.828 . S
C431 C425 1.505 . S
C431 O443 1.249 . S
C431 O444 1.244 . S
O432 Eu423 2.373 . S
O432 C434 1.258 . S
O433 Eu422 2.392 . S
O433 C434 1.242 1_554 S
C434 O432 1.258 . S
C434 O433 1.242 1_556 S
O435 Eu422 2.418 . S
O435 C439 1.244 . S
O436 Eu423 2.488 . S
O436 C452 1.249 . S
O437 Eu423 2.471 . S
O437 C452 1.244 . S
O438 Eu423 2.349 . S
O438 C439 1.265 1_556 S
C439 O435 1.244 . S
C439 O438 1.265 1_554 S
O440 Eu422 2.373 . S
O440 C453 1.258 . S
O441 Eu423 2.392 1_554 S
O441 C453 1.242 . S
O442 Eu423 2.418 . S
O442 C424 1.244 1_556 S
O443 Eu422 2.488 . S
O443 C431 1.249 . S
O444 Eu422 2.471 . S
O444 C431 1.244 . S
O445 Eu422 2.349 . S
O445 C424 1.265 . S
C446 C447 1.379 . S
C446 C450 1.373 . S
C446 C452 1.505 . S
C447 C446 1.379 . S
C447 C449 1.369 . S
C447 H458 0.930 . S
C448 C450 1.383 . S
C448 C451 1.382 . S
C448 H459 0.930 . S
C449 C447 1.369 . S
C449 C451 1.392 . S
C449 H460 0.930 . S
C450 C446 1.373 . S
C450 C448 1.383 . S
C450 H461 0.931 . S
C451 C448 1.382 . S
C451 C449 1.392 . S
C452 Eu423 2.828 . S
C452 O436 1.249 . S
C452 O437 1.244 . S
C452 C446 1.505 . S
C453 O440 1.258 . S
C453 O441 1.242 . S
H454 C426 0.930 . S
H455 C427 0.930 . S
H456 C428 0.930 . S
H457 C429 0.931 . S
H458 C447 0.930 . S
H459 C448 0.930 . S
H460 C449 0.930 . S
H461 C450 0.931 . S
Eu462 C471 2.828 . S
Eu462 O473 2.392 . S
Eu462 O475 2.418 . S
Eu462 O480 2.373 . S
Eu462 O483 2.488 . S
Eu462 O484 2.471 . S
Eu462 O485 2.349 . S
Eu463 O472 2.373 . S
Eu463 O476 2.488 . S
Eu463 O477 2.471 . S
Eu463 O478 2.349 . S
Eu463 O481 2.392 . S
Eu463 O482 2.418 . S
Eu463 C492 2.828 . S
C464 O482 1.244 . S
C464 O485 1.265 . S
C465 C466 1.379 . S
C465 C469 1.373 . S
C465 C471 1.505 . S
C466 C465 1.379 . S
C466 C468 1.369 . S
C466 H494 0.930 . S
C467 C469 1.383 . S
C467 C470 1.382 . S
C467 H495 0.930 . S
C468 C466 1.369 . S
C468 C470 1.392 . S
C468 H496 0.930 . S
C469 C465 1.373 . S
C469 C467 1.383 . S
C469 H497 0.931 . S
C470 C467 1.382 . S
C470 C468 1.392 . S
C471 Eu462 2.828 . S
C471 C465 1.505 . S
C471 O483 1.249 . S
C471 O484 1.244 . S
O472 Eu463 2.373 . S
O472 C474 1.258 . S
O473 Eu462 2.392 . S
O473 C474 1.242 . S
C474 O472 1.258 . S
C474 O473 1.242 . S
O475 Eu462 2.418 . S
O475 C479 1.244 . S
O476 Eu463 2.488 . S
O476 C492 1.249 . S
O477 Eu463 2.471 . S
O477 C492 1.244 . S
O478 Eu463 2.349 . S
O478 C479 1.265 . S
C479 O475 1.244 . S
C479 O478 1.265 . S
O480 Eu462 2.373 . S
O480 C493 1.258 . S
O481 Eu463 2.392 . S
O481 C493 1.242 . S
O482 Eu463 2.418 . S
O482 C464 1.244 . S
O483 Eu462 2.488 . S
O483 C471 1.249 . S
O484 Eu462 2.471 . S
O484 C471 1.244 . S
O485 Eu462 2.349 . S
O485 C464 1.265 . S
C486 C487 1.379 . S
C486 C490 1.373 . S
C486 C492 1.505 . S
C487 C486 1.379 . S
C487 C489 1.369 . S
C487 H498 0.930 . S
C488 C490 1.383 . S
C488 C491 1.382 . S
C488 H499 0.930 . S
C489 C487 1.369 . S
C489 C491 1.392 . S
C489 H500 0.930 . S
C490 C486 1.373 . S
C490 C488 1.383 . S
C490 H501 0.931 . S
C491 C488 1.382 . S
C491 C489 1.392 . S
C492 Eu463 2.828 . S
C492 O476 1.249 . S
C492 O477 1.244 . S
C492 C486 1.505 . S
C493 O480 1.258 . S
C493 O481 1.242 . S
H494 C466 0.930 . S
H495 C467 0.930 . S
H496 C468 0.930 . S
H497 C469 0.931 . S
H498 C487 0.930 . S
H499 C488 0.930 . S
H500 C489 0.930 . S
H501 C490 0.931 . S
Eu502 C511 2.828 . S
Eu502 O513 2.392 . S
Eu502 O515 2.418 . S
Eu502 O520 2.373 . S
Eu502 O523 2.488 . S
Eu502 O524 2.471 . S
Eu502 O525 2.349 . S
Eu503 O512 2.373 . S
Eu503 O516 2.488 . S
Eu503 O517 2.471 . S
Eu503 O518 2.349 . S
Eu503 O521 2.392 . S
Eu503 O522 2.418 . S
Eu503 C532 2.828 . S
C504 O522 1.244 . S
C504 O525 1.265 . S
C505 C506 1.379 . S
C505 C509 1.373 . S
C505 C511 1.505 . S
C506 C505 1.379 . S
C506 C508 1.369 . S
C506 H534 0.930 . S
C507 C509 1.383 . S
C507 C510 1.382 . S
C507 H535 0.930 . S
C508 C506 1.369 . S
C508 C510 1.392 . S
C508 H536 0.930 . S
C509 C505 1.373 . S
C509 C507 1.383 . S
C509 H537 0.931 . S
C510 C507 1.382 . S
C510 C508 1.392 . S
C511 Eu502 2.828 . S
C511 C505 1.505 . S
C511 O523 1.249 . S
C511 O524 1.244 . S
O512 Eu503 2.373 . S
O512 C514 1.258 . S
O513 Eu502 2.392 . S
O513 C514 1.242 . S
C514 O512 1.258 . S
C514 O513 1.242 . S
O515 Eu502 2.418 . S
O515 C519 1.244 . S
O516 Eu503 2.488 . S
O516 C532 1.249 . S
O517 Eu503 2.471 . S
O517 C532 1.244 . S
O518 Eu503 2.349 . S
O518 C519 1.265 . S
C519 O515 1.244 . S
C519 O518 1.265 . S
O520 Eu502 2.373 . S
O520 C533 1.258 . S
O521 Eu503 2.392 . S
O521 C533 1.242 . S
O522 Eu503 2.418 . S
O522 C504 1.244 . S
O523 Eu502 2.488 . S
O523 C511 1.249 . S
O524 Eu502 2.471 . S
O524 C511 1.244 . S
O525 Eu502 2.349 . S
O525 C504 1.265 . S
C526 C527 1.379 . S
C526 C530 1.373 . S
C526 C532 1.505 . S
C527 C526 1.379 . S
C527 C529 1.369 . S
C527 H538 0.930 . S
C528 C530 1.383 . S
C528 C531 1.382 . S
C528 H539 0.930 . S
C529 C527 1.369 . S
C529 C531 1.392 . S
C529 H540 0.930 . S
C530 C526 1.373 . S
C530 C528 1.383 . S
C530 H541 0.931 . S
C531 C528 1.382 . S
C531 C529 1.392 . S
C532 Eu503 2.828 . S
C532 O516 1.249 . S
C532 O517 1.244 . S
C532 C526 1.505 . S
C533 O520 1.258 . S
C533 O521 1.242 . S
H534 C506 0.930 . S
H535 C507 0.930 . S
H536 C508 0.930 . S
H537 C509 0.931 . S
H538 C527 0.930 . S
H539 C528 0.930 . S
H540 C529 0.930 . S
H541 C530 0.931 . S
Eu542 C551 2.828 . S
Eu542 O553 2.392 . S
Eu542 O555 2.418 . S
Eu542 O560 2.373 . S
Eu542 O563 2.488 . S
Eu542 O564 2.471 . S
Eu542 O565 2.349 . S
Eu543 O552 2.373 . S
Eu543 O556 2.488 . S
Eu543 O557 2.471 . S
Eu543 O558 2.349 . S
Eu543 O561 2.392 . S
Eu543 O562 2.418 . S
Eu543 C572 2.828 . S
C544 O562 1.244 . S
C544 O565 1.265 . S
C545 C546 1.379 . S
C545 C549 1.373 . S
C545 C551 1.505 . S
C546 C545 1.379 . S
C546 C548 1.369 . S
C546 H574 0.930 . S
C547 C549 1.383 . S
C547 C550 1.382 . S
C547 H575 0.930 . S
C548 C546 1.369 . S
C548 C550 1.392 . S
C548 H576 0.930 . S
C549 C545 1.373 . S
C549 C547 1.383 . S
C549 H577 0.931 . S
C550 C547 1.382 . S
C550 C548 1.392 . S
C551 Eu542 2.828 . S
C551 C545 1.505 . S
C551 O563 1.249 . S
C551 O564 1.244 . S
O552 Eu543 2.373 . S
O552 C554 1.258 . S
O553 Eu542 2.392 . S
O553 C554 1.242 . S
C554 O552 1.258 . S
C554 O553 1.242 . S
O555 Eu542 2.418 . S
O555 C559 1.244 . S
O556 Eu543 2.488 . S
O556 C572 1.249 . S
O557 Eu543 2.471 . S
O557 C572 1.244 . S
O558 Eu543 2.349 . S
O558 C559 1.265 . S
C559 O555 1.244 . S
C559 O558 1.265 . S
O560 Eu542 2.373 . S
O560 C573 1.258 . S
O561 Eu543 2.392 . S
O561 C573 1.242 . S
O562 Eu543 2.418 . S
O562 C544 1.244 . S
O563 Eu542 2.488 . S
O563 C551 1.249 . S
O564 Eu542 2.471 . S
O564 C551 1.244 . S
O565 Eu542 2.349 . S
O565 C544 1.265 . S
C566 C567 1.379 . S
C566 C570 1.373 . S
C566 C572 1.505 . S
C567 C566 1.379 . S
C567 C569 1.369 . S
C567 H578 0.930 . S
C568 C570 1.383 . S
C568 C571 1.382 . S
C568 H579 0.930 . S
C569 C567 1.369 . S
C569 C571 1.392 . S
C569 H580 0.930 . S
C570 C566 1.373 . S
C570 C568 1.383 . S
C570 H581 0.931 . S
C571 C568 1.382 . S
C571 C569 1.392 . S
C572 Eu543 2.828 . S
C572 O556 1.249 . S
C572 O557 1.244 . S
C572 C566 1.505 . S
C573 O560 1.258 . S
C573 O561 1.242 . S
H574 C546 0.930 . S
H575 C547 0.930 . S
H576 C548 0.930 . S
H577 C549 0.931 . S
H578 C567 0.930 . S
H579 C568 0.930 . S
H580 C569 0.930 . S
H581 C570 0.931 . S
Eu582 C591 2.828 . S
Eu582 O593 2.392 . S
Eu582 O595 2.418 . S
Eu582 O600 2.373 . S
Eu582 O603 2.488 . S
Eu582 O604 2.471 . S
Eu582 O605 2.349 . S
Eu583 O592 2.373 . S
Eu583 O596 2.488 . S
Eu583 O597 2.471 . S
Eu583 O598 2.349 . S
Eu583 O601 2.392 . S
Eu583 O602 2.418 . S
Eu583 C612 2.828 . S
C584 O602 1.244 . S
C584 O605 1.265 . S
C585 C586 1.379 . S
C585 C589 1.373 . S
C585 C591 1.505 . S
C586 C585 1.379 . S
C586 C588 1.369 . S
C586 H614 0.930 . S
C587 C589 1.383 . S
C587 C590 1.382 . S
C587 H615 0.930 . S
C588 C586 1.369 . S
C588 C590 1.392 . S
C588 H616 0.930 . S
C589 C585 1.373 . S
C589 C587 1.383 . S
C589 H617 0.931 . S
C590 C587 1.382 . S
C590 C588 1.392 . S
C591 Eu582 2.828 . S
C591 C585 1.505 . S
C591 O603 1.249 . S
C591 O604 1.244 . S
O592 Eu583 2.373 . S
O592 C594 1.258 . S
O593 Eu582 2.392 . S
O593 C594 1.242 . S
C594 O592 1.258 . S
C594 O593 1.242 . S
O595 Eu582 2.418 . S
O595 C599 1.244 . S
O596 Eu583 2.488 . S
O596 C612 1.249 . S
O597 Eu583 2.471 . S
O597 C612 1.244 . S
O598 Eu583 2.349 . S
O598 C599 1.265 . S
C599 O595 1.244 . S
C599 O598 1.265 . S
O600 Eu582 2.373 . S
O600 C613 1.258 . S
O601 Eu583 2.392 . S
O601 C613 1.242 . S
O602 Eu583 2.418 . S
O602 C584 1.244 . S
O603 Eu582 2.488 . S
O603 C591 1.249 . S
O604 Eu582 2.471 . S
O604 C591 1.244 . S
O605 Eu582 2.349 . S
O605 C584 1.265 . S
C606 C607 1.379 . S
C606 C610 1.373 . S
C606 C612 1.505 . S
C607 C606 1.379 . S
C607 C609 1.369 . S
C607 H618 0.930 . S
C608 C610 1.383 . S
C608 C611 1.382 . S
C608 H619 0.930 . S
C609 C607 1.369 . S
C609 C611 1.392 . S
C609 H620 0.930 . S
C610 C606 1.373 . S
C610 C608 1.383 . S
C610 H621 0.931 . S
C611 C608 1.382 . S
C611 C609 1.392 . S
C612 Eu583 2.828 . S
C612 O596 1.249 . S
C612 O597 1.244 . S
C612 C606 1.505 . S
C613 O600 1.258 . S
C613 O601 1.242 . S
H614 C586 0.930 . S
H615 C587 0.930 . S
H616 C588 0.930 . S
H617 C589 0.931 . S
H618 C607 0.930 . S
H619 C608 0.930 . S
H620 C609 0.930 . S
H621 C610 0.931 . S
Eu622 C631 2.828 . S
Eu622 O633 2.392 . S
Eu622 O635 2.418 . S
Eu622 O640 2.373 . S
Eu622 O643 2.488 . S
Eu622 O644 2.471 . S
Eu622 O645 2.349 . S
Eu623 O632 2.373 . S
Eu623 O636 2.488 . S
Eu623 O637 2.471 . S
Eu623 O638 2.349 . S
Eu623 O641 2.392 . S
Eu623 O642 2.418 . S
Eu623 C652 2.828 . S
C624 O642 1.244 . S
C624 O645 1.265 . S
C625 C626 1.379 . S
C625 C629 1.373 . S
C625 C631 1.505 . S
C626 C625 1.379 . S
C626 C628 1.369 . S
C626 H654 0.930 . S
C627 C629 1.383 . S
C627 C630 1.382 . S
C627 H655 0.930 . S
C628 C626 1.369 . S
C628 C630 1.392 . S
C628 H656 0.930 . S
C629 C625 1.373 . S
C629 C627 1.383 . S
C629 H657 0.931 . S
C630 C627 1.382 . S
C630 C628 1.392 . S
C631 Eu622 2.828 . S
C631 C625 1.505 . S
C631 O643 1.249 . S
C631 O644 1.244 . S
O632 Eu623 2.373 . S
O632 C634 1.258 . S
O633 Eu622 2.392 . S
O633 C634 1.242 . S
C634 O632 1.258 . S
C634 O633 1.242 . S
O635 Eu622 2.418 . S
O635 C639 1.244 . S
O636 Eu623 2.488 . S
O636 C652 1.249 . S
O637 Eu623 2.471 . S
O637 C652 1.244 . S
O638 Eu623 2.349 . S
O638 C639 1.265 . S
C639 O635 1.244 . S
C639 O638 1.265 . S
O640 Eu622 2.373 . S
O640 C653 1.258 . S
O641 Eu623 2.392 . S
O641 C653 1.242 . S
O642 Eu623 2.418 . S
O642 C624 1.244 . S
O643 Eu622 2.488 . S
O643 C631 1.249 . S
O644 Eu622 2.471 . S
O644 C631 1.244 . S
O645 Eu622 2.349 . S
O645 C624 1.265 . S
C646 C647 1.379 . S
C646 C650 1.373 . S
C646 C652 1.505 . S
C647 C646 1.379 . S
C647 C649 1.369 . S
C647 H658 0.930 . S
C648 C650 1.383 . S
C648 C651 1.382 . S
C648 H659 0.930 . S
C649 C647 1.369 . S
C649 C651 1.392 . S
C649 H660 0.930 . S
C650 C646 1.373 . S
C650 C648 1.383 . S
C650 H661 0.931 . S
C651 C648 1.382 . S
C651 C649 1.392 . S
C652 Eu623 2.828 . S
C652 O636 1.249 . S
C652 O637 1.244 . S
C652 C646 1.505 . S
C653 O640 1.258 . S
C653 O641 1.242 . S
H654 C626 0.930 . S
H655 C627 0.930 . S
H656 C628 0.930 . S
H657 C629 0.931 . S
H658 C647 0.930 . S
H659 C648 0.930 . S
H660 C649 0.930 . S
H661 C650 0.931 . S
Eu662 C671 2.828 . S
Eu662 O673 2.392 . S
Eu662 O675 2.418 . S
Eu662 O680 2.373 . S
Eu662 O683 2.488 . S
Eu662 O684 2.471 . S
Eu662 O685 2.349 . S
Eu663 O672 2.373 . S
Eu663 O676 2.488 . S
Eu663 O677 2.471 . S
Eu663 O678 2.349 . S
Eu663 O681 2.392 . S
Eu663 O682 2.418 . S
Eu663 C692 2.828 . S
C664 O682 1.244 . S
C664 O685 1.265 . S
C665 C666 1.379 . S
C665 C669 1.373 . S
C665 C671 1.505 . S
C666 C665 1.379 . S
C666 C668 1.369 . S
C666 H694 0.930 . S
C667 C669 1.383 . S
C667 C670 1.382 . S
C667 H695 0.930 . S
C668 C666 1.369 . S
C668 C670 1.392 . S
C668 H696 0.930 . S
C669 C665 1.373 . S
C669 C667 1.383 . S
C669 H697 0.931 . S
C670 C667 1.382 . S
C670 C668 1.392 . S
C671 Eu662 2.828 . S
C671 C665 1.505 . S
C671 O683 1.249 . S
C671 O684 1.244 . S
O672 Eu663 2.373 . S
O672 C674 1.258 . S
O673 Eu662 2.392 . S
O673 C674 1.242 . S
C674 O672 1.258 . S
C674 O673 1.242 . S
O675 Eu662 2.418 . S
O675 C679 1.244 . S
O676 Eu663 2.488 . S
O676 C692 1.249 . S
O677 Eu663 2.471 . S
O677 C692 1.244 . S
O678 Eu663 2.349 . S
O678 C679 1.265 . S
C679 O675 1.244 . S
C679 O678 1.265 . S
O680 Eu662 2.373 . S
O680 C693 1.258 . S
O681 Eu663 2.392 . S
O681 C693 1.242 . S
O682 Eu663 2.418 . S
O682 C664 1.244 . S
O683 Eu662 2.488 . S
O683 C671 1.249 . S
O684 Eu662 2.471 . S
O684 C671 1.244 . S
O685 Eu662 2.349 . S
O685 C664 1.265 . S
C686 C687 1.379 . S
C686 C690 1.373 . S
C686 C692 1.505 . S
C687 C686 1.379 . S
C687 C689 1.369 . S
C687 H698 0.930 . S
C688 C690 1.383 . S
C688 C691 1.382 . S
C688 H699 0.930 . S
C689 C687 1.369 . S
C689 C691 1.392 . S
C689 H700 0.930 . S
C690 C686 1.373 . S
C690 C688 1.383 . S
C690 H701 0.931 . S
C691 C688 1.382 . S
C691 C689 1.392 . S
C692 Eu663 2.828 . S
C692 O676 1.249 . S
C692 O677 1.244 . S
C692 C686 1.505 . S
C693 O680 1.258 . S
C693 O681 1.242 . S
H694 C666 0.930 . S
H695 C667 0.930 . S
H696 C668 0.930 . S
H697 C669 0.931 . S
H698 C687 0.930 . S
H699 C688 0.930 . S
H700 C689 0.930 . S
H701 C690 0.931 . S
C702 C703 1.363 . S
C702 C708 1.379 . S
C702 N710 1.356 . S
C703 C702 1.363 . S
C703 C709 1.363 . S
C704 C705 1.363 . S
C704 C709 1.379 . S
C704 N711 1.356 . S
C705 C704 1.363 . S
C705 C708 1.363 . S
N706 C708 1.356 . S
N706 H718 0.984 . S
N706 H719 0.985 . S
N707 C709 1.356 . S
N707 H712 0.984 . S
N707 H713 0.985 . S
C708 C702 1.379 . S
C708 C705 1.363 . S
C708 N706 1.356 . S
C709 C703 1.363 . S
C709 C704 1.379 . S
C709 N707 1.356 . S
N710 C702 1.356 . S
N710 H716 0.984 . S
N710 H717 0.984 . S
N711 C704 1.356 . S
N711 H714 0.984 . S
N711 H715 0.985 . S
H712 N707 0.984 . S
H713 N707 0.985 . S
H714 N711 0.984 . S
H715 N711 0.985 . S
H716 N710 0.984 . S
H717 N710 0.984 . S
H718 N706 0.984 . S
H719 N706 0.985 . S
C720 C721 1.363 . S
C720 C726 1.379 . S
C720 N728 1.356 . S
C721 C720 1.363 . S
C721 C727 1.363 . S
C722 C723 1.363 . S
C722 C727 1.379 . S
C722 N729 1.356 . S
C723 C722 1.363 . S
C723 C726 1.363 . S
N724 C726 1.356 . S
N724 H736 0.984 . S
N724 H737 0.985 . S
N725 C727 1.356 . S
N725 H730 0.984 . S
N725 H731 0.985 . S
C726 C720 1.379 . S
C726 C723 1.363 . S
C726 N724 1.356 . S
C727 C721 1.363 . S
C727 C722 1.379 . S
C727 N725 1.356 . S
N728 C720 1.356 . S
N728 H734 0.984 . S
N728 H735 0.984 . S
N729 C722 1.356 . S
N729 H732 0.984 . S
N729 H733 0.985 . S
H730 N725 0.984 . S
H731 N725 0.985 . S
H732 N729 0.984 . S
H733 N729 0.985 . S
H734 N728 0.984 . S
H735 N728 0.984 . S
H736 N724 0.984 . S
H737 N724 0.985 . S
C738 C739 1.363 . S
C738 C744 1.379 . S
C738 N746 1.356 . S
C739 C738 1.363 . S
C739 C745 1.363 . S
C740 C741 1.364 1_556 S
C740 C745 1.379 1_556 S
C740 N747 1.355 . S
C741 C740 1.364 1_554 S
C741 C744 1.363 . S
N742 C744 1.356 . S
N742 H754 0.984 . S
N742 H755 0.985 . S
N743 C745 1.356 1_556 S
N743 H748 0.984 . S
N743 H749 0.985 . S
C744 C738 1.379 . S
C744 C741 1.363 . S
C744 N742 1.356 . S
C745 C739 1.363 . S
C745 C740 1.379 1_554 S
C745 N743 1.356 1_554 S
N746 C738 1.356 . S
N746 H752 0.984 . S
N746 H753 0.984 . S
N747 C740 1.355 . S
N747 H750 0.984 . S
N747 H751 0.985 . S
H748 N743 0.984 . S
H749 N743 0.985 . S
H750 N747 0.984 . S
H751 N747 0.985 . S
H752 N746 0.984 . S
H753 N746 0.984 . S
H754 N742 0.984 . S
H755 N742 0.985 . S
C756 C757 1.335 1_554 S
C756 C762 1.382 . S
C756 N764 1.376 . S
C757 C756 1.335 1_556 S
C757 C763 1.363 . S
C758 C759 1.363 . S
C758 C763 1.379 . S
C758 N765 1.356 . S
C759 C758 1.363 . S
C759 C762 1.363 1_556 S
N760 C762 1.356 . S
N760 H772 0.984 . S
N760 H773 0.985 . S
N761 C763 1.356 . S
N761 H766 0.984 . S
N761 H767 0.985 . S
C762 C756 1.382 . S
C762 C759 1.363 1_554 S
C762 N760 1.356 . S
C763 C757 1.363 . S
C763 C758 1.379 . S
C763 N761 1.356 . S
N764 C756 1.376 . S
N764 H770 0.984 . S
N764 H771 0.984 . S
N765 C758 1.356 . S
N765 H768 0.984 . S
N765 H769 0.985 . S
H766 N761 0.984 . S
H767 N761 0.985 . S
H768 N765 0.984 . S
H769 N765 0.985 . S
H770 N764 0.984 . S
H771 N764 0.984 . S
H772 N760 0.984 . S
H773 N760 0.985 . S
C774 C775 1.363 . S
C774 C780 1.379 . S
C774 N782 1.356 . S
C775 C774 1.363 . S
C775 C781 1.363 . S
C776 C777 1.363 . S
C776 C781 1.379 . S
C776 N783 1.356 . S
C777 C776 1.363 . S
C777 C780 1.363 . S
N778 C780 1.373 . S
N778 H790 0.979 1_556 S
N778 H791 0.974 1_556 S
N779 C781 1.356 . S
N779 H784 0.984 . S
N779 H785 0.985 . S
C780 C774 1.379 . S
C780 C777 1.363 . S
C780 N778 1.373 . S
C781 C775 1.363 . S
C781 C776 1.379 . S
C781 N779 1.356 . S
N782 C774 1.356 . S
N782 H788 0.984 . S
N782 H789 0.984 . S
N783 C776 1.356 . S
N783 H786 0.984 . S
N783 H787 0.985 . S
H784 N779 0.984 . S
H785 N779 0.985 . S
H786 N783 0.984 . S
H787 N783 0.985 . S
H788 N782 0.984 . S
H789 N782 0.984 . S
H790 N778 0.979 1_554 S
H791 N778 0.974 1_554 S
C792 C793 1.363 . S
C792 C798 1.379 . S
C792 N800 1.356 . S
C793 C792 1.363 . S
C793 C799 1.363 1_556 S
C794 C795 1.363 1_554 S
C794 C799 1.379 . S
C794 N801 1.356 . S
C795 C794 1.363 1_556 S
C795 C798 1.363 . S
N796 C798 1.356 . S
N796 H808 0.984 . S
N796 H809 0.985 . S
N797 C799 1.356 . S
N797 H802 0.984 . S
N797 H803 0.985 . S
C798 C792 1.379 . S
C798 C795 1.363 . S
C798 N796 1.356 . S
C799 C793 1.363 1_554 S
C799 C794 1.379 . S
C799 N797 1.356 . S
N800 C792 1.356 . S
N800 H806 0.984 . S
N800 H807 0.984 . S
N801 C794 1.356 . S
N801 H804 0.984 . S
N801 H805 0.985 . S
H802 N797 0.984 . S
H803 N797 0.985 . S
H804 N801 0.984 . S
H805 N801 0.985 . S
H806 N800 0.984 . S
H807 N800 0.984 . S
H808 N796 0.984 . S
H809 N796 0.985 . S
C810 C811 1.363 . S
C810 C816 1.379 . S
C810 N818 1.358 . S
C811 C810 1.363 . S
C811 C817 1.363 . S
C812 C813 1.363 . S
C812 C817 1.379 . S
C812 N819 1.356 . S
C813 C812 1.363 . S
C813 C816 1.363 . S
N814 C816 1.356 1_554 S
N814 H826 0.984 . S
N814 H827 0.985 . S
N815 C817 1.356 . S
N815 H820 0.984 . S
N815 H821 0.985 . S
C816 C810 1.379 . S
C816 C813 1.363 . S
C816 N814 1.356 1_556 S
C817 C811 1.363 . S
C817 C812 1.379 . S
C817 N815 1.356 . S
N818 C810 1.358 . S
N818 H824 0.979 1_556 S
N818 H825 0.988 . S
N819 C812 1.356 . S
N819 H822 0.984 . S
N819 H823 0.985 . S
H820 N815 0.984 . S
H821 N815 0.985 . S
H822 N819 0.984 . S
H823 N819 0.985 . S
H824 N818 0.979 1_554 S
H825 N818 0.988 . S
H826 N814 0.984 . S
H827 N814 0.985 . S
C828 C829 1.363 . S
C828 C834 1.379 . S
C828 N836 1.356 . S
C829 C828 1.363 . S
C829 C835 1.363 . S
C830 C831 1.363 . S
C830 C835 1.379 . S
C830 N837 1.356 1_556 S
C831 C830 1.363 . S
C831 C834 1.363 . S
N832 C834 1.356 . S
N832 H844 0.984 . S
N832 H845 0.985 . S
N833 C835 1.356 1_554 S
N833 H838 0.984 1_554 S
N833 H839 0.985 . S
C834 C828 1.379 . S
C834 C831 1.363 . S
C834 N832 1.356 . S
C835 C829 1.363 . S
C835 C830 1.379 . S
C835 N833 1.356 1_556 S
N836 C828 1.356 . S
N836 H842 0.984 . S
N836 H843 0.984 . S
N837 C830 1.356 1_554 S
N837 H840 0.984 . S
N837 H841 0.985 . S
H838 N833 0.984 1_556 S
H839 N833 0.985 . S
H840 N837 0.984 . S
H841 N837 0.985 . S
H842 N836 0.984 . S
H843 N836 0.984 . S
H844 N832 0.984 . S
H845 N832 0.985 . S
C846 C847 1.363 1_556 S
C846 C852 1.379 . S
C846 N854 1.356 . S
C847 C846 1.363 1_554 S
C847 C853 1.363 . S
C848 C849 1.363 . S
C848 C853 1.379 . S
C848 N855 1.356 . S
C849 C848 1.363 . S
C849 C852 1.363 1_554 S
N850 C852 1.356 . S
N850 H862 0.984 . S
N850 H863 0.985 . S
N851 C853 1.356 . S
N851 H856 0.984 . S
N851 H857 0.985 . S
C852 C846 1.379 . S
C852 C849 1.363 1_556 S
C852 N850 1.356 . S
C853 C847 1.363 . S
C853 C848 1.379 . S
C853 N851 1.356 . S
N854 C846 1.356 . S
N854 H860 0.984 . S
N854 H861 0.984 . S
N855 C848 1.356 . S
N855 H858 0.984 . S
N855 H859 0.985 . S
H856 N851 0.984 . S
H857 N851 0.985 . S
H858 N855 0.984 . S
H859 N855 0.985 . S
H860 N854 0.984 . S
H861 N854 0.984 . S
H862 N850 0.984 . S
H863 N850 0.985 . S
C864 C865 1.363 1_556 S
C864 C870 1.379 . S
C864 N872 1.356 . S
C865 C864 1.363 1_554 S
C865 C871 1.363 . S
C866 C867 1.363 . S
C866 C871 1.379 . S
C866 N873 1.356 . S
C867 C866 1.363 . S
C867 C870 1.363 1_554 S
N868 C870 1.356 . S
N868 H880 0.984 . S
N868 H881 0.985 . S
N869 C871 1.356 . S
N869 H874 0.984 . S
N869 H875 0.985 . S
C870 C864 1.379 . S
C870 C867 1.363 1_556 S
C870 N868 1.356 . S
C871 C865 1.363 . S
C871 C866 1.379 . S
C871 N869 1.356 . S
N872 C864 1.356 . S
N872 H878 0.984 . S
N872 H879 0.984 . S
N873 C866 1.356 . S
N873 H876 0.984 . S
N873 H877 0.985 . S
H874 N869 0.984 . S
H875 N869 0.985 . S
H876 N873 0.984 . S
H877 N873 0.985 . S
H878 N872 0.984 . S
H879 N872 0.984 . S
H880 N868 0.984 . S
H881 N868 0.985 . S
C882 C883 1.363 . S
C882 C888 1.379 . S
C882 N890 1.356 . S
C883 C882 1.363 . S
C883 C889 1.363 . S
C884 C885 1.363 . S
C884 C889 1.379 . S
C884 N891 1.356 . S
C885 C884 1.363 . S
C885 C888 1.363 . S
N886 C888 1.356 . S
N886 H898 0.984 . S
N886 H899 0.985 . S
N887 C889 1.356 . S
N887 H892 0.984 . S
N887 H893 0.985 . S
C888 C882 1.379 . S
C888 C885 1.363 . S
C888 N886 1.356 . S
C889 C883 1.363 . S
C889 C884 1.379 . S
C889 N887 1.356 . S
N890 C882 1.356 . S
N890 H896 0.984 . S
N890 H897 0.984 . S
N891 C884 1.356 . S
N891 H894 0.984 . S
N891 H895 0.985 1_554 S
H892 N887 0.984 . S
H893 N887 0.985 . S
H894 N891 0.984 . S
H895 N891 0.985 1_556 S
H896 N890 0.984 . S
H897 N890 0.984 . S
H898 N886 0.984 . S
H899 N886 0.985 . S
C900 C901 1.363 . S
C900 C906 1.379 . S
C900 N908 1.356 . S
C901 C900 1.363 . S
C901 C907 1.363 1_554 S
C902 C903 1.363 1_556 S
C902 C907 1.379 . S
C902 N909 1.356 . S
C903 C902 1.363 1_554 S
C903 C906 1.363 . S
N904 C906 1.356 . S
N904 H916 0.984 . S
N904 H917 0.985 . S
N905 C907 1.356 . S
N905 H910 0.984 . S
N905 H911 0.985 . S
C906 C900 1.379 . S
C906 C903 1.363 . S
C906 N904 1.356 . S
C907 C901 1.363 1_556 S
C907 C902 1.379 . S
C907 N905 1.356 . S
N908 C900 1.356 . S
N908 H914 0.984 . S
N908 H915 0.984 . S
N909 C902 1.356 . S
N909 H912 0.984 . S
N909 H913 0.985 . S
H910 N905 0.984 . S
H911 N905 0.985 . S
H912 N909 0.984 . S
H913 N909 0.985 . S
H914 N908 0.984 . S
H915 N908 0.984 . S
H916 N904 0.984 . S
H917 N904 0.985 . S
C918 C919 1.363 . S
C918 C924 1.379 . S
C918 N926 1.356 . S
C919 C918 1.363 . S
C919 C925 1.363 . S
C920 C921 1.363 . S
C920 C925 1.379 1_455 S
C920 N927 1.356 . S
C921 C920 1.363 . S
C921 C924 1.363 1_455 S
N922 C924 1.356 1_455 S
N922 H934 0.984 . S
N922 H935 0.985 . S
N923 C925 1.356 . S
N923 H928 0.984 . S
N923 H929 0.985 . S
C924 C918 1.379 . S
C924 C921 1.363 1_655 S
C924 N922 1.356 1_655 S
C925 C919 1.363 . S
C925 C920 1.379 1_655 S
C925 N923 1.356 . S
N926 C918 1.356 . S
N926 H932 0.984 . S
N926 H933 0.984 . S
N927 C920 1.356 . S
N927 H930 0.984 . S
N927 H931 0.985 . S
H928 N923 0.984 . S
H929 N923 0.985 . S
H930 N927 0.984 . S
H931 N927 0.985 . S
H932 N926 0.984 . S
H933 N926 0.984 . S
H934 N922 0.984 . S
H935 N922 0.985 . S
C936 C937 1.363 . S
C936 C942 1.379 . S
C936 N944 1.356 . S
C937 C936 1.363 . S
C937 C943 1.363 . S
C938 C939 1.363 . S
C938 C943 1.379 . S
C938 N945 1.356 . S
C939 C938 1.363 . S
C939 C942 1.363 . S
N940 C942 1.356 . S
N940 H952 0.984 . S
N940 H953 0.985 . S
N941 C943 1.356 . S
N941 H946 0.984 . S
N941 H947 0.985 . S
C942 C936 1.379 . S
C942 C939 1.363 . S
C942 N940 1.356 . S
C943 C937 1.363 . S
C943 C938 1.379 . S
C943 N941 1.356 . S
N944 C936 1.356 . S
N944 H950 0.984 . S
N944 H951 0.984 . S
N945 C938 1.356 . S
N945 H948 0.984 . S
N945 H949 0.985 . S
H946 N941 0.984 . S
H947 N941 0.985 . S
H948 N945 0.984 . S
H949 N945 0.985 . S
H950 N944 0.984 . S
H951 N944 0.984 . S
H952 N940 0.984 . S
H953 N940 0.985 . S
C954 C955 1.363 . S
C954 C960 1.379 . S
C954 N962 1.356 . S
C955 C954 1.363 . S
C955 C961 1.363 . S
C956 C957 1.363 1_545 S
C956 C961 1.379 . S
C956 N963 1.341 1_545 S
C957 C956 1.363 1_565 S
C957 C960 1.363 1_565 S
N958 C960 1.356 1_565 S
N958 H970 0.984 . S
N958 H971 0.985 . S
N959 C961 1.356 . S
N959 H964 0.984 . S
N959 H965 0.985 . S
C960 C954 1.379 . S
C960 C957 1.363 1_545 S
C960 N958 1.356 1_545 S
C961 C955 1.363 . S
C961 C956 1.379 . S
C961 N959 1.356 . S
N962 C954 1.356 . S
N962 H968 0.984 . S
N962 H969 0.984 . S
N963 C956 1.341 1_565 S
N963 H966 1.002 . S
N963 H967 0.983 1_565 S
H964 N959 0.984 . S
H965 N959 0.985 . S
H966 N963 1.002 . S
H967 N963 0.983 1_545 S
H968 N962 0.984 . S
H969 N962 0.984 . S
H970 N958 0.984 . S
H971 N958 0.985 . S
C972 C973 1.363 . S
C972 C978 1.379 . S
C972 N980 1.356 . S
C973 C972 1.363 . S
C973 C979 1.363 . S
C974 C975 1.363 . S
C974 C979 1.379 . S
C974 N981 1.356 . S
C975 C974 1.363 . S
C975 C978 1.363 . S
N976 C978 1.356 . S
N976 H988 0.984 . S
N976 H989 0.985 . S
N977 C979 1.356 . S
N977 H982 0.984 . S
N977 H983 0.985 . S
C978 C972 1.379 . S
C978 C975 1.363 . S
C978 N976 1.356 . S
C979 C973 1.363 . S
C979 C974 1.379 . S
C979 N977 1.356 . S
N980 C972 1.356 . S
N980 H986 0.984 . S
N980 H987 0.984 . S
N981 C974 1.356 . S
N981 H984 0.984 . S
N981 H985 0.985 . S
H982 N977 0.984 . S
H983 N977 0.985 . S
H984 N981 0.984 . S
H985 N981 0.985 . S
H986 N980 0.984 . S
H987 N980 0.984 . S
H988 N976 0.984 . S
H989 N976 0.985 . S
C990 C991 1.363 . S
C990 C996 1.379 . S
C990 N998 1.356 . S
C991 C990 1.363 . S
C991 C997 1.363 . S
C992 C993 1.363 . S
C992 C997 1.379 . S
C992 N999 1.356 . S
C993 C992 1.363 . S
C993 C996 1.363 . S
N994 C996 1.356 . S
N994 H1006 0.984 . S
N994 H1007 0.985 . S
N995 C997 1.356 . S
N995 H1000 0.984 . S
N995 H1001 0.985 . S
C996 C990 1.379 . S
C996 C993 1.363 . S
C996 N994 1.356 . S
C997 C991 1.363 . S
C997 C992 1.379 . S
C997 N995 1.356 . S
N998 C990 1.356 . S
N998 H1004 0.984 . S
N998 H1005 0.984 . S
N999 C992 1.356 . S
N999 H1002 0.984 . S
N999 H1003 0.985 . S
H1000 N995 0.984 . S
H1001 N995 0.985 . S
H1002 N999 0.984 . S
H1003 N999 0.985 . S
H1004 N998 0.984 . S
H1005 N998 0.984 . S
H1006 N994 0.984 . S
H1007 N994 0.985 . S
C1008 C1009 1.363 . S
C1008 C1014 1.379 . S
C1008 N1016 1.356 . S
C1009 C1008 1.363 . S
C1009 C1015 1.363 . S
C1010 C1011 1.363 . S
C1010 C1015 1.379 . S
C1010 N1017 1.356 . S
C1011 C1010 1.363 . S
C1011 C1014 1.363 . S
N1012 C1014 1.356 . S
N1012 H1024 0.984 . S
N1012 H1025 0.985 . S
N1013 C1015 1.356 . S
N1013 H1018 0.984 . S
N1013 H1019 0.985 . S
C1014 C1008 1.379 . S
C1014 C1011 1.363 . S
C1014 N1012 1.356 . S
C1015 C1009 1.363 . S
C1015 C1010 1.379 . S
C1015 N1013 1.356 . S
N1016 C1008 1.356 . S
N1016 H1022 0.984 . S
N1016 H1023 0.984 . S
N1017 C1010 1.356 . S
N1017 H1020 0.984 . S
N1017 H1021 0.985 . S
H1018 N1013 0.984 . S
H1019 N1013 0.985 . S
H1020 N1017 0.984 . S
H1021 N1017 0.985 . S
H1022 N1016 0.984 . S
H1023 N1016 0.984 . S
H1024 N1012 0.984 . S
H1025 N1012 0.985 . S
C1026 C1027 1.363 . S
C1026 C1032 1.379 . S
C1026 N1034 1.356 . S
C1027 C1026 1.363 . S
C1027 C1033 1.363 . S
C1028 C1029 1.363 . S
C1028 C1033 1.379 . S
C1028 N1035 1.356 . S
C1029 C1028 1.363 . S
C1029 C1032 1.363 . S
N1030 C1032 1.356 . S
N1030 H1042 0.984 . S
N1030 H1043 0.985 . S
N1031 C1033 1.356 . S
N1031 H1036 0.984 . S
N1031 H1037 0.985 . S
C1032 C1026 1.379 . S
C1032 C1029 1.363 . S
C1032 N1030 1.356 . S
C1033 C1027 1.363 . S
C1033 C1028 1.379 . S
C1033 N1031 1.356 . S
N1034 C1026 1.356 . S
N1034 H1040 0.984 . S
N1034 H1041 0.984 . S
N1035 C1028 1.356 . S
N1035 H1038 0.984 . S
N1035 H1039 0.985 . S
H1036 N1031 0.984 . S
H1037 N1031 0.985 . S
H1038 N1035 0.984 . S
H1039 N1035 0.985 . S
H1040 N1034 0.984 . S
H1041 N1034 0.984 . S
H1042 N1030 0.984 . S
H1043 N1030 0.985 . S
C1044 C1045 1.363 . S
C1044 C1050 1.379 . S
C1044 N1052 1.356 . S
C1045 C1044 1.363 . S
C1045 C1051 1.363 . S
C1046 C1047 1.363 . S
C1046 C1051 1.379 . S
C1046 N1053 1.356 . S
C1047 C1046 1.363 . S
C1047 C1050 1.363 . S
N1048 C1050 1.356 . S
N1048 H1060 0.984 . S
N1048 H1061 0.985 . S
N1049 C1051 1.356 . S
N1049 H1054 0.984 . S
N1049 H1055 0.985 . S
C1050 C1044 1.379 . S
C1050 C1047 1.363 . S
C1050 N1048 1.356 . S
C1051 C1045 1.363 . S
C1051 C1046 1.379 . S
C1051 N1049 1.356 . S
N1052 C1044 1.356 . S
N1052 H1058 0.984 . S
N1052 H1059 0.984 . S
N1053 C1046 1.356 . S
N1053 H1056 0.984 . S
N1053 H1057 0.985 . S
H1054 N1049 0.984 . S
H1055 N1049 0.985 . S
H1056 N1053 0.984 . S
H1057 N1053 0.985 . S
H1058 N1052 0.984 . S
H1059 N1052 0.984 . S
H1060 N1048 0.984 . S
H1061 N1048 0.985 . S
C1062 C1063 1.363 . S
C1062 C1068 1.379 . S
C1062 N1070 1.356 . S
C1063 C1062 1.363 . S
C1063 C1069 1.363 . S
C1064 C1065 1.363 . S
C1064 C1069 1.379 . S
C1064 N1071 1.356 . S
C1065 C1064 1.363 . S
C1065 C1068 1.363 . S
N1066 C1068 1.356 . S
N1066 H1078 0.984 . S
N1066 H1079 0.985 . S
N1067 C1069 1.356 . S
N1067 H1072 0.984 . S
N1067 H1073 0.985 . S
C1068 C1062 1.379 . S
C1068 C1065 1.363 . S
C1068 N1066 1.356 . S
C1069 C1063 1.363 . S
C1069 C1064 1.379 . S
C1069 N1067 1.356 . S
N1070 C1062 1.356 . S
N1070 H1076 0.984 . S
N1070 H1077 0.984 . S
N1071 C1064 1.356 . S
N1071 H1074 0.984 . S
N1071 H1075 0.985 . S
H1072 N1067 0.984 . S
H1073 N1067 0.985 . S
H1074 N1071 0.984 . S
H1075 N1071 0.985 . S
H1076 N1070 0.984 . S
H1077 N1070 0.984 . S
H1078 N1066 0.984 . S
H1079 N1066 0.985 . S
C1080 C1081 1.363 . S
C1080 C1086 1.379 . S
C1080 N1088 1.356 . S
C1081 C1080 1.363 . S
C1081 C1087 1.363 . S
C1082 C1083 1.363 . S
C1082 C1087 1.379 . S
C1082 N1089 1.356 . S
C1083 C1082 1.363 . S
C1083 C1086 1.363 . S
N1084 C1086 1.356 . S
N1084 H1096 0.984 . S
N1084 H1097 0.985 . S
N1085 C1087 1.356 . S
N1085 H1090 0.984 1_565 S
N1085 H1091 0.985 . S
C1086 C1080 1.379 . S
C1086 C1083 1.363 . S
C1086 N1084 1.356 . S
C1087 C1081 1.363 . S
C1087 C1082 1.379 . S
C1087 N1085 1.356 . S
N1088 C1080 1.356 . S
N1088 H1094 0.984 . S
N1088 H1095 0.977 1_565 S
N1089 C1082 1.356 . S
N1089 H1092 0.984 . S
N1089 H1093 0.985 . S
H1090 N1085 0.984 1_545 S
H1091 N1085 0.985 . S
H1092 N1089 0.984 . S
H1093 N1089 0.985 . S
H1094 N1088 0.984 . S
H1095 N1088 0.977 1_545 S
H1096 N1084 0.984 . S
H1097 N1084 0.985 . S
C1098 C1099 1.363 . S
C1098 C1104 1.379 . S
C1098 N1106 1.356 . S
C1099 C1098 1.363 . S
C1099 C1105 1.363 . S
C1100 C1101 1.363 . S
C1100 C1105 1.379 . S
C1100 N1107 1.356 . S
C1101 C1100 1.363 . S
C1101 C1104 1.363 . S
N1102 C1104 1.356 . S
N1102 H1114 0.984 . S
N1102 H1115 0.985 . S
N1103 C1105 1.356 . S
N1103 H1108 0.984 . S
N1103 H1109 0.985 . S
C1104 C1098 1.379 . S
C1104 C1101 1.363 . S
C1104 N1102 1.356 . S
C1105 C1099 1.363 . S
C1105 C1100 1.379 . S
C1105 N1103 1.356 . S
N1106 C1098 1.356 . S
N1106 H1112 0.984 . S
N1106 H1113 0.984 . S
N1107 C1100 1.356 . S
N1107 H1110 0.984 . S
N1107 H1111 0.985 . S
H1108 N1103 0.984 . S
H1109 N1103 0.985 . S
H1110 N1107 0.984 . S
H1111 N1107 0.985 . S
H1112 N1106 0.984 . S
H1113 N1106 0.984 . S
H1114 N1102 0.984 . S
H1115 N1102 0.985 . S
C1116 C1117 1.363 . S
C1116 C1122 1.379 . S
C1116 N1124 1.356 . S
C1117 C1116 1.363 . S
C1117 C1123 1.363 . S
C1118 C1119 1.363 . S
C1118 C1123 1.379 . S
C1118 N1125 1.356 . S
C1119 C1118 1.363 . S
C1119 C1122 1.363 . S
N1120 C1122 1.356 . S
N1120 H1132 0.984 . S
N1120 H1133 0.985 . S
N1121 C1123 1.356 . S
N1121 H1126 0.984 . S
N1121 H1127 0.985 . S
C1122 C1116 1.379 . S
C1122 C1119 1.363 . S
C1122 N1120 1.356 . S
C1123 C1117 1.363 . S
C1123 C1118 1.379 . S
C1123 N1121 1.356 . S
N1124 C1116 1.356 . S
N1124 H1130 0.984 . S
N1124 H1131 0.984 . S
N1125 C1118 1.356 . S
N1125 H1128 0.984 . S
N1125 H1129 0.985 . S
H1126 N1121 0.984 . S
H1127 N1121 0.985 . S
H1128 N1125 0.984 . S
H1129 N1125 0.985 . S
H1130 N1124 0.984 . S
H1131 N1124 0.984 . S
H1132 N1120 0.984 . S
H1133 N1120 0.985 . S
C1134 C1135 1.363 . S
C1134 C1140 1.379 . S
C1134 N1142 1.356 . S
C1135 C1134 1.363 . S
C1135 C1141 1.363 . S
C1136 C1137 1.363 . S
C1136 C1141 1.379 . S
C1136 N1143 1.356 . S
C1137 C1136 1.363 . S
C1137 C1140 1.363 . S
N1138 C1140 1.356 . S
N1138 H1150 0.984 . S
N1138 H1151 0.985 . S
N1139 C1141 1.356 . S
N1139 H1144 0.984 . S
N1139 H1145 0.985 . S
C1140 C1134 1.379 . S
C1140 C1137 1.363 . S
C1140 N1138 1.356 . S
C1141 C1135 1.363 . S
C1141 C1136 1.379 . S
C1141 N1139 1.356 . S
N1142 C1134 1.356 . S
N1142 H1148 0.984 . S
N1142 H1149 0.984 . S
N1143 C1136 1.356 . S
N1143 H1146 0.984 . S
N1143 H1147 0.985 . S
H1144 N1139 0.984 . S
H1145 N1139 0.985 . S
H1146 N1143 0.984 . S
H1147 N1143 0.985 . S
H1148 N1142 0.984 . S
H1149 N1142 0.984 . S
H1150 N1138 0.984 . S
H1151 N1138 0.985 . S
C1152 C1153 1.363 . S
C1152 C1158 1.379 . S
C1152 N1160 1.356 . S
C1153 C1152 1.363 . S
C1153 C1159 1.363 . S
C1154 C1155 1.363 . S
C1154 C1159 1.379 . S
C1154 N1161 1.356 . S
C1155 C1154 1.363 . S
C1155 C1158 1.363 . S
N1156 C1158 1.356 . S
N1156 H1168 0.984 . S
N1156 H1169 0.985 . S
N1157 C1159 1.356 . S
N1157 H1162 0.984 . S
N1157 H1163 0.985 . S
C1158 C1152 1.379 . S
C1158 C1155 1.363 . S
C1158 N1156 1.356 . S
C1159 C1153 1.363 . S
C1159 C1154 1.379 . S
C1159 N1157 1.356 . S
N1160 C1152 1.356 . S
N1160 H1166 0.984 . S
N1160 H1167 0.984 . S
N1161 C1154 1.356 . S
N1161 H1164 0.984 . S
N1161 H1165 0.985 . S
H1162 N1157 0.984 . S
H1163 N1157 0.985 . S
H1164 N1161 0.984 . S
H1165 N1161 0.985 . S
H1166 N1160 0.984 . S
H1167 N1160 0.984 . S
H1168 N1156 0.984 . S
H1169 N1156 0.985 . S
C1170 C1171 1.363 . S
C1170 C1176 1.379 . S
C1170 N1178 1.356 . S
C1171 C1170 1.363 . S
C1171 C1177 1.363 . S
C1172 C1173 1.363 . S
C1172 C1177 1.379 . S
C1172 N1179 1.356 . S
C1173 C1172 1.363 . S
C1173 C1176 1.363 . S
N1174 C1176 1.356 . S
N1174 H1186 0.984 . S
N1174 H1187 0.985 . S
N1175 C1177 1.356 . S
N1175 H1180 0.984 . S
N1175 H1181 0.985 . S
C1176 C1170 1.379 . S
C1176 C1173 1.363 . S
C1176 N1174 1.356 . S
C1177 C1171 1.363 . S
C1177 C1172 1.379 . S
C1177 N1175 1.356 . S
N1178 C1170 1.356 . S
N1178 H1184 0.984 . S
N1178 H1185 0.984 . S
N1179 C1172 1.356 . S
N1179 H1182 0.984 . S
N1179 H1183 0.985 . S
H1180 N1175 0.984 . S
H1181 N1175 0.985 . S
H1182 N1179 0.984 . S
H1183 N1179 0.985 . S
H1184 N1178 0.984 . S
H1185 N1178 0.984 . S
H1186 N1174 0.984 . S
H1187 N1174 0.985 . S
C1188 C1189 1.363 . S
C1188 C1194 1.379 1_565 S
C1188 N1196 1.356 . S
C1189 C1188 1.363 . S
C1189 C1195 1.363 . S
C1190 C1191 1.363 1_565 S
C1190 C1195 1.379 . S
C1190 N1197 1.356 1_565 S
C1191 C1190 1.363 1_545 S
C1191 C1194 1.363 . S
N1192 C1194 1.356 . S
N1192 H1204 0.984 . S
N1192 H1205 0.985 . S
N1193 C1195 1.356 . S
N1193 H1198 0.984 . S
N1193 H1199 0.985 . S
C1194 C1188 1.379 1_545 S
C1194 C1191 1.363 . S
C1194 N1192 1.356 . S
C1195 C1189 1.363 . S
C1195 C1190 1.379 . S
C1195 N1193 1.356 . S
N1196 C1188 1.356 . S
N1196 H1202 0.984 . S
N1196 H1203 0.984 . S
N1197 C1190 1.356 1_545 S
N1197 H1200 0.984 . S
N1197 H1201 0.985 1_545 S
H1198 N1193 0.984 . S
H1199 N1193 0.985 . S
H1200 N1197 0.984 . S
H1201 N1197 0.985 1_565 S
H1202 N1196 0.984 . S
H1203 N1196 0.984 . S
H1204 N1192 0.984 . S
H1205 N1192 0.985 . S
C1206 C1207 1.363 . S
C1206 C1212 1.379 . S
C1206 N1214 1.356 . S
C1207 C1206 1.363 . S
C1207 C1213 1.363 . S
C1208 C1209 1.363 . S
C1208 C1213 1.379 1_655 S
C1208 N1215 1.356 . S
C1209 C1208 1.363 . S
C1209 C1212 1.363 1_655 S
N1210 C1212 1.356 . S
N1210 H1222 0.984 . S
N1210 H1223 0.985 1_455 S
N1211 C1213 1.356 . S
N1211 H1216 0.984 . S
N1211 H1217 0.985 1_455 S
C1212 C1206 1.379 . S
C1212 C1209 1.363 1_455 S
C1212 N1210 1.356 . S
C1213 C1207 1.363 . S
C1213 C1208 1.379 1_455 S
C1213 N1211 1.356 . S
N1214 C1206 1.356 . S
N1214 H1220 0.984 . S
N1214 H1221 0.984 . S
N1215 C1208 1.356 . S
N1215 H1218 0.984 . S
N1215 H1219 0.985 . S
H1216 N1211 0.984 . S
H1217 N1211 0.985 1_655 S
H1218 N1215 0.984 . S
H1219 N1215 0.985 . S
H1220 N1214 0.984 . S
H1221 N1214 0.984 . S
H1222 N1210 0.984 . S
H1223 N1210 0.985 1_655 S
C1224 C1225 1.363 . S
C1224 C1230 1.379 . S
C1224 N1232 1.356 . S
C1225 C1224 1.363 . S
C1225 C1231 1.363 . S
C1226 C1227 1.363 . S
C1226 C1231 1.379 . S
C1226 N1233 1.356 . S
C1227 C1226 1.363 . S
C1227 C1230 1.363 . S
N1228 C1230 1.356 . S
N1228 H1240 0.984 . S
N1228 H1241 0.985 . S
N1229 C1231 1.356 . S
N1229 H1234 0.984 . S
N1229 H1235 0.985 . S
C1230 C1224 1.379 . S
C1230 C1227 1.363 . S
C1230 N1228 1.356 . S
C1231 C1225 1.363 . S
C1231 C1226 1.379 . S
C1231 N1229 1.356 . S
N1232 C1224 1.356 . S
N1232 H1238 0.984 . S
N1232 H1239 0.984 . S
N1233 C1226 1.356 . S
N1233 H1236 0.984 . S
N1233 H1237 0.985 . S
H1234 N1229 0.984 . S
H1235 N1229 0.985 . S
H1236 N1233 0.984 . S
H1237 N1233 0.985 . S
H1238 N1232 0.984 . S
H1239 N1232 0.984 . S
H1240 N1228 0.984 . S
H1241 N1228 0.985 . S
C1242 C1243 1.363 . S
C1242 C1248 1.379 . S
C1242 N1250 1.356 . S
C1243 C1242 1.363 . S
C1243 C1249 1.363 . S
C1244 C1245 1.363 . S
C1244 C1249 1.379 . S
C1244 N1251 1.356 . S
C1245 C1244 1.363 . S
C1245 C1248 1.363 . S
N1246 C1248 1.356 . S
N1246 H1258 0.984 . S
N1246 H1259 0.985 . S
N1247 C1249 1.356 . S
N1247 H1252 0.984 1_655 S
N1247 H1253 0.985 . S
C1248 C1242 1.379 . S
C1248 C1245 1.363 . S
C1248 N1246 1.356 . S
C1249 C1243 1.363 . S
C1249 C1244 1.379 . S
C1249 N1247 1.356 . S
N1250 C1242 1.356 . S
N1250 H1256 0.984 . S
N1250 H1257 0.984 1_655 S
N1251 C1244 1.356 . S
N1251 H1254 0.984 . S
N1251 H1255 0.985 . S
H1252 N1247 0.984 1_455 S
H1253 N1247 0.985 . S
H1254 N1251 0.984 . S
H1255 N1251 0.985 . S
H1256 N1250 0.984 . S
H1257 N1250 0.984 1_455 S
H1258 N1246 0.984 . S
H1259 N1246 0.985 . S
C1260 C1261 1.363 . S
C1260 C1266 1.379 . S
C1260 N1268 1.356 . S
C1261 C1260 1.363 . S
C1261 C1267 1.363 . S
C1262 C1263 1.363 . S
C1262 C1267 1.379 . S
C1262 N1269 1.356 . S
C1263 C1262 1.363 . S
C1263 C1266 1.363 . S
N1264 C1266 1.356 . S
N1264 H1276 0.984 . S
N1264 H1277 0.985 . S
N1265 C1267 1.356 . S
N1265 H1270 0.984 . S
N1265 H1271 0.985 . S
C1266 C1260 1.379 . S
C1266 C1263 1.363 . S
C1266 N1264 1.356 . S
C1267 C1261 1.363 . S
C1267 C1262 1.379 . S
C1267 N1265 1.356 . S
N1268 C1260 1.356 . S
N1268 H1274 0.984 . S
N1268 H1275 0.984 . S
N1269 C1262 1.356 . S
N1269 H1272 0.984 . S
N1269 H1273 0.985 . S
H1270 N1265 0.984 . S
H1271 N1265 0.985 . S
H1272 N1269 0.984 . S
H1273 N1269 0.985 . S
H1274 N1268 0.984 . S
H1275 N1268 0.984 . S
H1276 N1264 0.984 . S
H1277 N1264 0.985 . S
C1278 C1279 1.363 . S
C1278 C1284 1.379 . S
C1278 N1286 1.356 . S
C1279 C1278 1.363 . S
C1279 C1285 1.363 . S
C1280 C1281 1.363 . S
C1280 C1285 1.379 . S
C1280 N1287 1.356 . S
C1281 C1280 1.363 . S
C1281 C1284 1.363 . S
N1282 C1284 1.356 . S
N1282 H1294 0.984 . S
N1282 H1295 0.985 . S
N1283 C1285 1.356 . S
N1283 H1288 0.984 . S
N1283 H1289 0.985 . S
C1284 C1278 1.379 . S
C1284 C1281 1.363 . S
C1284 N1282 1.356 . S
C1285 C1279 1.363 . S
C1285 C1280 1.379 . S
C1285 N1283 1.356 . S
N1286 C1278 1.356 . S
N1286 H1292 0.984 . S
N1286 H1293 0.984 1_545 S
N1287 C1280 1.356 . S
N1287 H1290 0.984 . S
N1287 H1291 0.985 . S
H1288 N1283 0.984 . S
H1289 N1283 0.985 . S
H1290 N1287 0.984 . S
H1291 N1287 0.985 . S
H1292 N1286 0.984 . S
H1293 N1286 0.984 1_565 S
H1294 N1282 0.984 . S
H1295 N1282 0.985 . S
C1296 C1297 1.363 . S
C1296 C1302 1.379 . S
C1296 N1304 1.356 . S
C1297 C1296 1.363 . S
C1297 C1303 1.363 . S
C1298 C1299 1.363 . S
C1298 C1303 1.379 . S
C1298 N1305 1.356 . S
C1299 C1298 1.363 . S
C1299 C1302 1.363 . S
N1300 C1302 1.356 . S
N1300 H1312 0.984 . S
N1300 H1313 0.985 . S
N1301 C1303 1.356 . S
N1301 H1306 0.984 . S
N1301 H1307 0.985 . S
C1302 C1296 1.379 . S
C1302 C1299 1.363 . S
C1302 N1300 1.356 . S
C1303 C1297 1.363 . S
C1303 C1298 1.379 . S
C1303 N1301 1.356 . S
N1304 C1296 1.356 . S
N1304 H1310 0.984 . S
N1304 H1311 0.984 . S
N1305 C1298 1.356 . S
N1305 H1308 0.984 . S
N1305 H1309 0.985 . S
H1306 N1301 0.984 . S
H1307 N1301 0.985 . S
H1308 N1305 0.984 . S
H1309 N1305 0.985 . S
H1310 N1304 0.984 . S
H1311 N1304 0.984 . S
H1312 N1300 0.984 . S
H1313 N1300 0.985 . S
C1314 C1315 1.363 . S
C1314 C1320 1.379 . S
C1314 N1322 1.356 . S
C1315 C1314 1.363 . S
C1315 C1321 1.363 . S
C1316 C1317 1.363 . S
C1316 C1321 1.379 . S
C1316 N1323 1.356 . S
C1317 C1316 1.363 . S
C1317 C1320 1.363 . S
N1318 C1320 1.356 . S
N1318 H1330 0.984 . S
N1318 H1331 0.985 . S
N1319 C1321 1.356 . S
N1319 H1324 0.984 . S
N1319 H1325 0.985 . S
C1320 C1314 1.379 . S
C1320 C1317 1.363 . S
C1320 N1318 1.356 . S
C1321 C1315 1.363 . S
C1321 C1316 1.379 . S
C1321 N1319 1.356 . S
N1322 C1314 1.356 . S
N1322 H1328 0.984 . S
N1322 H1329 0.984 . S
N1323 C1316 1.356 . S
N1323 H1326 0.984 . S
N1323 H1327 0.985 . S
H1324 N1319 0.984 . S
H1325 N1319 0.985 . S
H1326 N1323 0.984 . S
H1327 N1323 0.985 . S
H1328 N1322 0.984 . S
H1329 N1322 0.984 . S
H1330 N1318 0.984 . S
H1331 N1318 0.985 . S
C1332 C1333 1.363 . S
C1332 C1338 1.379 . S
C1332 N1340 1.356 . S
C1333 C1332 1.363 . S
C1333 C1339 1.363 . S
C1334 C1335 1.363 . S
C1334 C1339 1.379 . S
C1334 N1341 1.356 . S
C1335 C1334 1.363 . S
C1335 C1338 1.363 . S
N1336 C1338 1.356 . S
N1336 H1348 0.984 . S
N1336 H1349 0.985 . S
N1337 C1339 1.356 . S
N1337 H1342 0.984 . S
N1337 H1343 0.985 . S
C1338 C1332 1.379 . S
C1338 C1335 1.363 . S
C1338 N1336 1.356 . S
C1339 C1333 1.363 . S
C1339 C1334 1.379 . S
C1339 N1337 1.356 . S
N1340 C1332 1.356 . S
N1340 H1346 0.984 . S
N1340 H1347 0.984 . S
N1341 C1334 1.356 . S
N1341 H1344 0.984 . S
N1341 H1345 0.985 . S
H1342 N1337 0.984 . S
H1343 N1337 0.985 . S
H1344 N1341 0.984 . S
H1345 N1341 0.985 . S
H1346 N1340 0.984 . S
H1347 N1340 0.984 . S
H1348 N1336 0.984 . S
H1349 N1336 0.985 . S
C1350 C1351 1.363 . S
C1350 C1356 1.379 . S
C1350 N1358 1.356 . S
C1351 C1350 1.363 . S
C1351 C1357 1.363 . S
C1352 C1353 1.363 . S
C1352 C1357 1.379 . S
C1352 N1359 1.356 . S
C1353 C1352 1.363 . S
C1353 C1356 1.363 . S
N1354 C1356 1.356 . S
N1354 H1366 0.984 1_565 S
N1354 H1367 0.985 . S
N1355 C1357 1.356 . S
N1355 H1360 0.984 . S
N1355 H1361 0.985 . S
C1356 C1350 1.379 . S
C1356 C1353 1.363 . S
C1356 N1354 1.356 . S
C1357 C1351 1.363 . S
C1357 C1352 1.379 . S
C1357 N1355 1.356 . S
N1358 C1350 1.356 . S
N1358 H1364 0.984 . S
N1358 H1365 0.984 . S
N1359 C1352 1.356 . S
N1359 H1362 0.984 . S
N1359 H1363 0.985 . S
H1360 N1355 0.984 . S
H1361 N1355 0.985 . S
H1362 N1359 0.984 . S
H1363 N1359 0.985 . S
H1364 N1358 0.984 . S
H1365 N1358 0.984 . S
H1366 N1354 0.984 1_545 S
H1367 N1354 0.985 . S
C1368 C1369 1.363 . S
C1368 C1374 1.379 . S
C1368 N1376 1.356 . S
C1369 C1368 1.363 . S
C1369 C1375 1.363 . S
C1370 C1371 1.363 . S
C1370 C1375 1.379 . S
C1370 N1377 1.356 . S
C1371 C1370 1.363 . S
C1371 C1374 1.363 . S
N1372 C1374 1.356 . S
N1372 H1384 0.984 . S
N1372 H1385 0.985 . S
N1373 C1375 1.356 . S
N1373 H1378 0.984 . S
N1373 H1379 0.985 . S
C1374 C1368 1.379 . S
C1374 C1371 1.363 . S
C1374 N1372 1.356 . S
C1375 C1369 1.363 . S
C1375 C1370 1.379 . S
C1375 N1373 1.356 . S
N1376 C1368 1.356 . S
N1376 H1382 0.984 . S
N1376 H1383 0.984 . S
N1377 C1370 1.356 . S
N1377 H1380 0.984 . S
N1377 H1381 0.985 . S
H1378 N1373 0.984 . S
H1379 N1373 0.985 . S
H1380 N1377 0.984 . S
H1381 N1377 0.985 . S
H1382 N1376 0.984 . S
H1383 N1376 0.984 . S
H1384 N1372 0.984 . S
H1385 N1372 0.985 . S
C1386 C1387 1.363 . S
C1386 C1392 1.379 . S
C1386 N1394 1.356 . S
C1387 C1386 1.363 . S
C1387 C1393 1.363 . S
C1388 C1389 1.363 . S
C1388 C1393 1.379 . S
C1388 N1395 1.356 . S
C1389 C1388 1.363 . S
C1389 C1392 1.363 . S
N1390 C1392 1.356 . S
N1390 H1402 0.984 . S
N1390 H1403 0.985 . S
N1391 C1393 1.356 . S
N1391 H1396 0.984 . S
N1391 H1397 0.985 . S
C1392 C1386 1.379 . S
C1392 C1389 1.363 . S
C1392 N1390 1.356 . S
C1393 C1387 1.363 . S
C1393 C1388 1.379 . S
C1393 N1391 1.356 . S
N1394 C1386 1.356 . S
N1394 H1400 0.984 . S
N1394 H1401 0.984 . S
N1395 C1388 1.356 . S
N1395 H1398 0.984 . S
N1395 H1399 0.985 . S
H1396 N1391 0.984 . S
H1397 N1391 0.985 . S
H1398 N1395 0.984 . S
H1399 N1395 0.985 . S
H1400 N1394 0.984 . S
H1401 N1394 0.984 . S
H1402 N1390 0.984 . S
H1403 N1390 0.985 . S
C1404 C1405 1.363 . S
C1404 C1410 1.379 . S
C1404 N1412 1.356 . S
C1405 C1404 1.363 . S
C1405 C1411 1.363 . S
C1406 C1407 1.363 . S
C1406 C1411 1.379 . S
C1406 N1413 1.356 . S
C1407 C1406 1.363 . S
C1407 C1410 1.363 . S
N1408 C1410 1.356 . S
N1408 H1420 0.984 1_655 S
N1408 H1421 0.985 . S
N1409 C1411 1.356 . S
N1409 H1414 0.984 . S
N1409 H1415 0.985 . S
C1410 C1404 1.379 . S
C1410 C1407 1.363 . S
C1410 N1408 1.356 . S
C1411 C1405 1.363 . S
C1411 C1406 1.379 . S
C1411 N1409 1.356 . S
N1412 C1404 1.356 . S
N1412 H1418 0.984 1_655 S
N1412 H1419 0.984 . S
N1413 C1406 1.356 . S
N1413 H1416 0.984 . S
N1413 H1417 0.985 . S
H1414 N1409 0.984 . S
H1415 N1409 0.985 . S
H1416 N1413 0.984 . S
H1417 N1413 0.985 . S
H1418 N1412 0.984 1_455 S
H1419 N1412 0.984 . S
H1420 N1408 0.984 1_455 S
H1421 N1408 0.985 . S
C1422 C1423 1.363 . S
C1422 C1428 1.379 . S
C1422 N1430 1.356 . S
C1423 C1422 1.363 . S
C1423 C1429 1.363 . S
C1424 C1425 1.363 . S
C1424 C1429 1.379 . S
C1424 N1431 1.356 . S
C1425 C1424 1.363 . S
C1425 C1428 1.363 . S
N1426 C1428 1.356 . S
N1426 H1438 0.984 . S
N1426 H1439 0.985 . S
N1427 C1429 1.356 . S
N1427 H1432 0.984 . S
N1427 H1433 0.985 . S
C1428 C1422 1.379 . S
C1428 C1425 1.363 . S
C1428 N1426 1.356 . S
C1429 C1423 1.363 . S
C1429 C1424 1.379 . S
C1429 N1427 1.356 . S
N1430 C1422 1.356 . S
N1430 H1436 0.984 . S
N1430 H1437 0.984 . S
N1431 C1424 1.356 . S
N1431 H1434 0.984 . S
N1431 H1435 0.985 . S
H1432 N1427 0.984 . S
H1433 N1427 0.985 . S
H1434 N1431 0.984 . S
H1435 N1431 0.985 . S
H1436 N1430 0.984 . S
H1437 N1430 0.984 . S
H1438 N1426 0.984 . S
H1439 N1426 0.985 . S
C1440 C1441 1.363 . S
C1440 C1446 1.379 . S
C1440 N1448 1.356 . S
C1441 C1440 1.363 . S
C1441 C1447 1.363 . S
C1442 C1443 1.363 . S
C1442 C1447 1.379 . S
C1442 N1449 1.356 . S
C1443 C1442 1.363 . S
C1443 C1446 1.363 . S
N1444 C1446 1.356 . S
N1444 H1456 0.984 . S
N1444 H1457 0.985 . S
N1445 C1447 1.356 . S
N1445 H1450 0.984 . S
N1445 H1451 0.985 . S
C1446 C1440 1.379 . S
C1446 C1443 1.363 . S
C1446 N1444 1.356 . S
C1447 C1441 1.363 . S
C1447 C1442 1.379 . S
C1447 N1445 1.356 . S
N1448 C1440 1.356 . S
N1448 H1454 0.984 . S
N1448 H1455 0.984 . S
N1449 C1442 1.356 . S
N1449 H1452 0.984 . S
N1449 H1453 0.985 . S
H1450 N1445 0.984 . S
H1451 N1445 0.985 . S
H1452 N1449 0.984 . S
H1453 N1449 0.985 . S
H1454 N1448 0.984 . S
H1455 N1448 0.984 . S
H1456 N1444 0.984 . S
H1457 N1444 0.985 . S
C1458 C1459 1.363 . S
C1458 C1464 1.379 . S
C1458 N1466 1.356 . S
C1459 C1458 1.363 . S
C1459 C1465 1.363 . S
C1460 C1461 1.363 . S
C1460 C1465 1.379 . S
C1460 N1467 1.356 . S
C1461 C1460 1.363 . S
C1461 C1464 1.363 . S
N1462 C1464 1.356 . S
N1462 H1474 0.984 . S
N1462 H1475 0.985 . S
N1463 C1465 1.356 . S
N1463 H1468 0.984 . S
N1463 H1469 0.985 . S
C1464 C1458 1.379 . S
C1464 C1461 1.363 . S
C1464 N1462 1.356 . S
C1465 C1459 1.363 . S
C1465 C1460 1.379 . S
C1465 N1463 1.356 . S
N1466 C1458 1.356 . S
N1466 H1472 0.984 . S
N1466 H1473 0.984 . S
N1467 C1460 1.356 . S
N1467 H1470 0.984 . S
N1467 H1471 0.985 . S
H1468 N1463 0.984 . S
H1469 N1463 0.985 . S
H1470 N1467 0.984 . S
H1471 N1467 0.985 . S
H1472 N1466 0.984 . S
H1473 N1466 0.984 . S
H1474 N1462 0.984 . S
H1475 N1462 0.985 . S
C1476 C1477 1.363 . S
C1476 C1482 1.379 . S
C1476 N1484 1.356 . S
C1477 C1476 1.363 . S
C1477 C1483 1.363 . S
C1478 C1479 1.363 . S
C1478 C1483 1.379 . S
C1478 N1485 1.356 . S
C1479 C1478 1.363 . S
C1479 C1482 1.363 . S
N1480 C1482 1.356 . S
N1480 H1492 0.984 . S
N1480 H1493 0.985 . S
N1481 C1483 1.356 . S
N1481 H1486 0.984 . S
N1481 H1487 0.985 . S
C1482 C1476 1.379 . S
C1482 C1479 1.363 . S
C1482 N1480 1.356 . S
C1483 C1477 1.363 . S
C1483 C1478 1.379 . S
C1483 N1481 1.356 . S
N1484 C1476 1.356 . S
N1484 H1490 0.984 . S
N1484 H1491 0.984 . S
N1485 C1478 1.356 . S
N1485 H1488 0.984 . S
N1485 H1489 0.985 . S
H1486 N1481 0.984 . S
H1487 N1481 0.985 . S
H1488 N1485 0.984 . S
H1489 N1485 0.985 . S
H1490 N1484 0.984 . S
H1491 N1484 0.984 . S
H1492 N1480 0.984 . S
H1493 N1480 0.985 . S
C1494 C1495 1.363 . S
C1494 C1500 1.379 . S
C1494 N1502 1.356 . S
C1495 C1494 1.363 . S
C1495 C1501 1.363 . S
C1496 C1497 1.363 . S
C1496 C1501 1.379 . S
C1496 N1503 1.356 . S
C1497 C1496 1.363 . S
C1497 C1500 1.363 . S
N1498 C1500 1.356 . S
N1498 H1510 0.984 . S
N1498 H1511 0.985 . S
N1499 C1501 1.356 . S
N1499 H1504 0.984 . S
N1499 H1505 0.985 . S
C1500 C1494 1.379 . S
C1500 C1497 1.363 . S
C1500 N1498 1.356 . S
C1501 C1495 1.363 . S
C1501 C1496 1.379 . S
C1501 N1499 1.356 . S
N1502 C1494 1.356 . S
N1502 H1508 0.984 . S
N1502 H1509 0.984 . S
N1503 C1496 1.356 . S
N1503 H1506 0.984 . S
N1503 H1507 0.985 . S
H1504 N1499 0.984 . S
H1505 N1499 0.985 . S
H1506 N1503 0.984 . S
H1507 N1503 0.985 . S
H1508 N1502 0.984 . S
H1509 N1502 0.984 . S
H1510 N1498 0.984 . S
H1511 N1498 0.985 . S
C1512 C1513 1.363 . S
C1512 C1518 1.379 . S
C1512 N1520 1.356 . S
C1513 C1512 1.363 . S
C1513 C1519 1.363 . S
C1514 C1515 1.363 . S
C1514 C1519 1.379 . S
C1514 N1521 1.356 . S
C1515 C1514 1.363 . S
C1515 C1518 1.363 . S
N1516 C1518 1.356 . S
N1516 H1528 0.984 . S
N1516 H1529 0.985 . S
N1517 C1519 1.356 . S
N1517 H1522 0.984 . S
N1517 H1523 0.985 . S
C1518 C1512 1.379 . S
C1518 C1515 1.363 . S
C1518 N1516 1.356 . S
C1519 C1513 1.363 . S
C1519 C1514 1.379 . S
C1519 N1517 1.356 . S
N1520 C1512 1.356 . S
N1520 H1526 0.984 . S
N1520 H1527 0.984 . S
N1521 C1514 1.356 . S
N1521 H1524 0.984 . S
N1521 H1525 0.985 . S
H1522 N1517 0.984 . S
H1523 N1517 0.985 . S
H1524 N1521 0.984 . S
H1525 N1521 0.985 . S
H1526 N1520 0.984 . S
H1527 N1520 0.984 . S
H1528 N1516 0.984 . S
H1529 N1516 0.985 . S
C1530 C1531 1.363 . S
C1530 C1536 1.379 . S
C1530 N1538 1.356 . S
C1531 C1530 1.363 . S
C1531 C1537 1.363 . S
C1532 C1533 1.363 . S
C1532 C1537 1.379 . S
C1532 N1539 1.356 . S
C1533 C1532 1.363 . S
C1533 C1536 1.363 . S
N1534 C1536 1.356 . S
N1534 H1546 0.984 . S
N1534 H1547 0.985 . S
N1535 C1537 1.356 . S
N1535 H1540 0.984 . S
N1535 H1541 0.985 . S
C1536 C1530 1.379 . S
C1536 C1533 1.363 . S
C1536 N1534 1.356 . S
C1537 C1531 1.363 . S
C1537 C1532 1.379 . S
C1537 N1535 1.356 . S
N1538 C1530 1.356 . S
N1538 H1544 0.984 . S
N1538 H1545 0.984 . S
N1539 C1532 1.356 . S
N1539 H1542 0.984 . S
N1539 H1543 0.985 . S
H1540 N1535 0.984 . S
H1541 N1535 0.985 . S
H1542 N1539 0.984 . S
H1543 N1539 0.985 . S
H1544 N1538 0.984 . S
H1545 N1538 0.984 . S
H1546 N1534 0.984 . S
H1547 N1534 0.985 . S
C1548 C1549 1.363 . S
C1548 C1554 1.379 . S
C1548 N1556 1.356 . S
C1549 C1548 1.363 . S
C1549 C1555 1.363 . S
C1550 C1551 1.363 . S
C1550 C1555 1.379 . S
C1550 N1557 1.356 . S
C1551 C1550 1.363 . S
C1551 C1554 1.363 . S
N1552 C1554 1.356 . S
N1552 H1564 0.984 . S
N1552 H1565 0.985 . S
N1553 C1555 1.356 . S
N1553 H1558 0.984 . S
N1553 H1559 0.985 . S
C1554 C1548 1.379 . S
C1554 C1551 1.363 . S
C1554 N1552 1.356 . S
C1555 C1549 1.363 . S
C1555 C1550 1.379 . S
C1555 N1553 1.356 . S
N1556 C1548 1.356 . S
N1556 H1562 0.984 . S
N1556 H1563 0.984 . S
N1557 C1550 1.356 . S
N1557 H1560 0.984 . S
N1557 H1561 0.985 . S
H1558 N1553 0.984 . S
H1559 N1553 0.985 . S
H1560 N1557 0.984 . S
H1561 N1557 0.985 . S
H1562 N1556 0.984 . S
H1563 N1556 0.984 . S
H1564 N1552 0.984 . S
H1565 N1552 0.985 . S
C1566 C1567 1.363 . S
C1566 C1572 1.379 . S
C1566 N1574 1.356 . S
C1567 C1566 1.363 . S
C1567 C1573 1.363 . S
C1568 C1569 1.363 . S
C1568 C1573 1.379 . S
C1568 N1575 1.356 . S
C1569 C1568 1.363 . S
C1569 C1572 1.363 . S
N1570 C1572 1.356 . S
N1570 H1582 0.984 . S
N1570 H1583 0.985 . S
N1571 C1573 1.356 . S
N1571 H1576 0.984 . S
N1571 H1577 0.985 . S
C1572 C1566 1.379 . S
C1572 C1569 1.363 . S
C1572 N1570 1.356 . S
C1573 C1567 1.363 . S
C1573 C1568 1.379 . S
C1573 N1571 1.356 . S
N1574 C1566 1.356 . S
N1574 H1580 0.984 . S
N1574 H1581 0.984 . S
N1575 C1568 1.356 . S
N1575 H1578 0.984 . S
N1575 H1579 0.985 . S
H1576 N1571 0.984 . S
H1577 N1571 0.985 . S
H1578 N1575 0.984 . S
H1579 N1575 0.985 . S
H1580 N1574 0.984 . S
H1581 N1574 0.984 . S
H1582 N1570 0.984 . S
H1583 N1570 0.985 . S
C1584 C1585 1.363 . S
C1584 C1590 1.379 . S
C1584 N1592 1.356 . S
C1585 C1584 1.363 . S
C1585 C1591 1.363 . S
C1586 C1587 1.363 . S
C1586 C1591 1.379 . S
C1586 N1593 1.356 . S
C1587 C1586 1.363 . S
C1587 C1590 1.363 . S
N1588 C1590 1.356 . S
N1588 H1600 0.984 . S
N1588 H1601 0.985 . S
N1589 C1591 1.356 . S
N1589 H1594 0.984 . S
N1589 H1595 0.985 . S
C1590 C1584 1.379 . S
C1590 C1587 1.363 . S
C1590 N1588 1.356 . S
C1591 C1585 1.363 . S
C1591 C1586 1.379 . S
C1591 N1589 1.356 . S
N1592 C1584 1.356 . S
N1592 H1598 0.984 . S
N1592 H1599 0.984 . S
N1593 C1586 1.356 . S
N1593 H1596 0.984 . S
N1593 H1597 0.985 . S
H1594 N1589 0.984 . S
H1595 N1589 0.985 . S
H1596 N1593 0.984 . S
H1597 N1593 0.985 . S
H1598 N1592 0.984 . S
H1599 N1592 0.984 . S
H1600 N1588 0.984 . S
H1601 N1588 0.985 . S
C1602 C1603 1.363 . S
C1602 C1608 1.379 . S
C1602 N1610 1.356 . S
C1603 C1602 1.363 . S
C1603 C1609 1.363 . S
C1604 C1605 1.363 . S
C1604 C1609 1.379 . S
C1604 N1611 1.356 . S
C1605 C1604 1.363 . S
C1605 C1608 1.363 . S
N1606 C1608 1.356 . S
N1606 H1618 0.984 . S
N1606 H1619 0.985 . S
N1607 C1609 1.356 . S
N1607 H1612 0.984 . S
N1607 H1613 0.985 . S
C1608 C1602 1.379 . S
C1608 C1605 1.363 . S
C1608 N1606 1.356 . S
C1609 C1603 1.363 . S
C1609 C1604 1.379 . S
C1609 N1607 1.356 . S
N1610 C1602 1.356 . S
N1610 H1616 0.984 . S
N1610 H1617 0.984 . S
N1611 C1604 1.356 . S
N1611 H1614 0.984 . S
N1611 H1615 0.985 . S
H1612 N1607 0.984 . S
H1613 N1607 0.985 . S
H1614 N1611 0.984 . S
H1615 N1611 0.985 . S
H1616 N1610 0.984 . S
H1617 N1610 0.984 . S
H1618 N1606 0.984 . S
H1619 N1606 0.985 . S
C1620 C1621 1.363 . S
C1620 C1626 1.379 . S
C1620 N1628 1.356 . S
C1621 C1620 1.363 . S
C1621 C1627 1.363 . S
C1622 C1623 1.363 . S
C1622 C1627 1.379 . S
C1622 N1629 1.356 . S
C1623 C1622 1.363 . S
C1623 C1626 1.363 . S
N1624 C1626 1.356 . S
N1624 H1636 0.984 . S
N1624 H1637 0.985 . S
N1625 C1627 1.356 . S
N1625 H1630 0.984 . S
N1625 H1631 0.985 . S
C1626 C1620 1.379 . S
C1626 C1623 1.363 . S
C1626 N1624 1.356 . S
C1627 C1621 1.363 . S
C1627 C1622 1.379 . S
C1627 N1625 1.356 . S
N1628 C1620 1.356 . S
N1628 H1634 0.984 . S
N1628 H1635 0.984 . S
N1629 C1622 1.356 . S
N1629 H1632 0.984 . S
N1629 H1633 0.985 . S
H1630 N1625 0.984 . S
H1631 N1625 0.985 . S
H1632 N1629 0.984 . S
H1633 N1629 0.985 . S
H1634 N1628 0.984 . S
H1635 N1628 0.984 . S
H1636 N1624 0.984 . S
H1637 N1624 0.985 . S
C1638 C1639 1.363 . S
C1638 C1644 1.379 . S
C1638 N1646 1.356 . S
C1639 C1638 1.363 . S
C1639 C1645 1.363 . S
C1640 C1641 1.363 . S
C1640 C1645 1.379 . S
C1640 N1647 1.356 . S
C1641 C1640 1.363 . S
C1641 C1644 1.363 . S
N1642 C1644 1.356 . S
N1642 H1654 0.984 . S
N1642 H1655 0.985 . S
N1643 C1645 1.356 . S
N1643 H1648 0.984 . S
N1643 H1649 0.985 . S
C1644 C1638 1.379 . S
C1644 C1641 1.363 . S
C1644 N1642 1.356 . S
C1645 C1639 1.363 . S
C1645 C1640 1.379 . S
C1645 N1643 1.356 . S
N1646 C1638 1.356 . S
N1646 H1652 0.984 . S
N1646 H1653 0.984 . S
N1647 C1640 1.356 . S
N1647 H1650 0.984 . S
N1647 H1651 0.985 . S
H1648 N1643 0.984 . S
H1649 N1643 0.985 . S
H1650 N1647 0.984 . S
H1651 N1647 0.985 . S
H1652 N1646 0.984 . S
H1653 N1646 0.984 . S
H1654 N1642 0.984 . S
H1655 N1642 0.985 . S
C1656 C1657 1.363 . S
C1656 C1662 1.379 . S
C1656 N1664 1.356 . S
C1657 C1656 1.363 . S
C1657 C1663 1.363 . S
C1658 C1659 1.363 . S
C1658 C1663 1.379 . S
C1658 N1665 1.356 . S
C1659 C1658 1.363 . S
C1659 C1662 1.363 . S
N1660 C1662 1.356 . S
N1660 H1672 0.984 . S
N1660 H1673 0.985 . S
N1661 C1663 1.356 . S
N1661 H1666 0.984 . S
N1661 H1667 0.985 . S
C1662 C1656 1.379 . S
C1662 C1659 1.363 . S
C1662 N1660 1.356 . S
C1663 C1657 1.363 . S
C1663 C1658 1.379 . S
C1663 N1661 1.356 . S
N1664 C1656 1.356 . S
N1664 H1670 0.984 . S
N1664 H1671 0.984 . S
N1665 C1658 1.356 . S
N1665 H1668 0.984 . S
N1665 H1669 0.985 . S
H1666 N1661 0.984 . S
H1667 N1661 0.985 . S
H1668 N1665 0.984 . S
H1669 N1665 0.985 . S
H1670 N1664 0.984 . S
H1671 N1664 0.984 . S
H1672 N1660 0.984 . S
H1673 N1660 0.985 . S
C703 C253 1.704 . S
C705 C354 1.717 . S
C721 C272 1.801 . S
C723 C394 1.789 . S
C739 C234 1.604 . S
C741 C424 1.586 . S
C757 C215 1.500 . S
C759 C384 1.477 . S
C777 C434 1.575 . S
C775 C177 1.591 . S
C793 C196 1.436 . S
C795 C344 1.428 1_556 S
C813 C373 1.696 . S
C811 C220 1.512 . S
C831 C413 1.633 . S
C829 C182 1.536 . S
C847 C201 1.612 . S
C849 C439 1.720 . S
C865 C258 1.451 . S
C867 C399 1.555 . S
C883 C277 1.329 . S
C885 C453 1.483 . S
C903 C359 1.565 1_554 S
C901 C239 1.414 . S
C921 C474 1.717 . S
C919 C25 1.704 . S
C937 C44 1.801 . S
C939 C514 1.790 . S
C955 C6 1.604 . S
C957 C544 1.585 . S
C973 C329 1.500 . S
C975 C504 1.466 . S
C991 C291 1.590 . S
C993 C554 1.575 . S
C1009 C310 1.436 . S
C1011 C464 1.428 . S
C1027 C334 1.512 . S
C1029 C493 1.696 . S
C1045 C296 1.536 . S
C1047 C533 1.633 . S
C1065 C559 1.720 . S
C1063 C315 1.612 . S
C1081 C30 1.451 1_565 S
C1083 C519 1.555 . S
C1101 C573 1.483 . S
C1099 C49 1.329 . S
C1117 C11 1.414 . S
C1119 C479 1.573 . S
C1137 C594 1.717 . S
C1135 C139 1.704 . S
C1153 C158 1.801 . S
C1155 C634 1.789 . S
C1173 C664 1.586 . S
C1171 C120 1.604 . S
C1191 C624 1.466 . S
C1189 C101 1.500 . S
C1209 C674 1.575 . S
C1207 C63 1.591 . S
C1225 C82 1.436 . S
C1227 C584 1.428 . S
C1243 C106 1.512 1_655 S
C1245 C613 1.696 . S
C1261 C68 1.536 . S
C1263 C653 1.633 . S
C1281 C679 1.720 . S
C1279 C87 1.612 1_545 S
C1297 C144 1.451 . S
C1299 C639 1.555 . S
C1315 C163 1.329 . S
C1317 C693 1.483 . S
C1333 C125 1.414 . S
C1335 C599 1.573 . S
C1351 C287 1.684 . S
C1353 C371 1.647 . S
C1371 C411 1.995 . S
C1369 C306 2.045 . S
C1387 C325 1.626 . S
C1389 C430 1.664 . S
C1405 C116 1.801 . S
C1407 C390 1.811 . S
C1423 C135 1.794 . S
C1425 C451 1.767 . S
C1443 C350 1.401 . S
C1441 C154 1.373 . S
C1459 C59 1.684 . S
C1461 C491 1.647 . S
C1477 C78 2.045 . S
C1479 C531 1.995 . S
C1495 C97 1.626 . S
C1497 C550 1.664 . S
C1513 C230 1.801 . S
C1515 C510 1.811 . S
C1533 C571 1.767 . S
C1531 C249 1.794 . S
C1549 C268 1.373 . S
C1551 C470 1.401 . S
C1567 C173 1.684 . S
C1569 C611 1.647 . S
C1585 C192 2.045 . S
C1587 C651 1.995 . S
C1605 C670 1.664 . S
C1603 C211 1.626 . S
C1621 C2 1.801 . S
C1623 C630 1.811 . S
C1639 C21 1.794 . S
C1641 C691 1.767 . S
C1657 C40 1.373 . S
C1659 C590 1.401 . S
