# Generated by pormake.
# Topology rtl, (3,6)-cn, num edge types: 1
# Building blocks:
#     Node 0, Type 0, BuildingBlock: KAKCAD_clean_linker_0, # of connection points: 3
#     Node 1, Type 0, BuildingBlock: KAKCAD_clean_linker_0, # of connection points: 3
#     Node 2, Type 0, BuildingBlock: KAKCAD_clean_linker_0, # of connection points: 3
#     Node 3, Type 0, BuildingBlock: KAKCAD_clean_linker_0, # of connection points: 3
#     Node 4, Type 1, BuildingBlock: FUNLAD_clean_sbu_0, # of connection points: 6
#     Node 5, Type 1, BuildingBlock: FUNLAD_clean_sbu_0, # of connection points: 6
#     Edge 6, Type (0, 1), BuildingBlock: UVAHIK_clean_linker_0, # of connection points: 2
#     Edge 7, Type (0, 1), BuildingBlock: UVAHIK_clean_linker_0, # of connection points: 2
#     Edge 8, Type (0, 1), BuildingBlock: UVAHIK_clean_linker_0, # of connection points: 2
#     Edge 9, Type (0, 1), BuildingBlock: UVAHIK_clean_linker_0, # of connection points: 2
#     Edge 10, Type (0, 1), BuildingBlock: UVAHIK_clean_linker_0, # of connection points: 2
#     Edge 11, Type (0, 1), BuildingBlock: UVAHIK_clean_linker_0, # of connection points: 2
#     Edge 12, Type (0, 1), BuildingBlock: UVAHIK_clean_linker_0, # of connection points: 2
#     Edge 13, Type (0, 1), BuildingBlock: UVAHIK_clean_linker_0, # of connection points: 2
#     Edge 14, Type (0, 1), BuildingBlock: UVAHIK_clean_linker_0, # of connection points: 2
#     Edge 15, Type (0, 1), BuildingBlock: UVAHIK_clean_linker_0, # of connection points: 2
#     Edge 16, Type (0, 1), BuildingBlock: UVAHIK_clean_linker_0, # of connection points: 2
#     Edge 17, Type (0, 1), BuildingBlock: UVAHIK_clean_linker_0, # of connection points: 2
# Relax obj value: 0.028
# Max RMSD: 0.083
# Mean RMSD: 0.072
data_MOF--net-rtl--node1-FUNLAD_clean_sbu_0--node2-KAKCAD_clean_linker_0--edge1-UVAHIK_clean_linker_0
_symmetry_space_group_name_H-M    P1
_symmetry_Int_Tables_number       1
_symmetry_cell_setting            triclinic
loop_
_symmetry_equiv_pos_as_xyz
'x, y, z'
_cell_length_a     59.460994
_cell_length_b     48.985681
_cell_length_c     35.225438
_cell_angle_alpha  89.817422
_cell_angle_beta   90.915963
_cell_angle_gamma 90.655746
loop_
_atom_site_label
_atom_site_type_symbol
_atom_site_fract_x
_atom_site_fract_y
_atom_site_fract_z
_atom_type_partial_charge
C0 C 0.0925 0.76379 0.87276 0.0
C1 C 0.0918 0.79237 0.86945 0.0
C2 C 0.09896 0.75159 0.90724 0.0
C3 C 0.10433 0.76783 0.93901 0.0
C4 C 0.10335 0.79637 0.93563 0.0
C5 C 0.09725 0.80849 0.90124 0.0
C6 C 0.1115 0.75559 0.97568 0.0
C7 C 0.12906 0.73675 0.97735 0.0
C8 C 0.13817 0.72849 0.01254 0.0
C9 C 0.12931 0.739 0.04622 0.0
C10 C 0.11133 0.75743 0.04505 0.0
C11 C 0.10232 0.76511 0.00951 0.0
C12 C 0.10275 0.76994 0.08047 0.0
C13 C 0.10188 0.75506 0.11474 0.0
C14 C 0.0955 0.79722 0.08027 0.0
C15 C 0.08712 0.80905 0.113 0.0
C16 C 0.08631 0.79418 0.14697 0.0
C17 C 0.15807 0.71054 0.01394 0.0
C18 C 0.15871 0.68679 0.99179 0.0
C19 C 0.17692 0.71765 0.03648 0.0
C20 C 0.19615 0.70157 0.03645 0.0
C21 C 0.19694 0.67782 0.01414 0.0
C22 C 0.17788 0.67051 0.99206 0.0
C23 C 0.09393 0.76719 0.14781 0.0
H24 H 0.08841 0.75096 0.84857 0.0
H25 H 0.09959 0.72954 0.9092 0.0
H26 H 0.10766 0.80939 0.95953 0.0
H27 H 0.09663 0.83056 0.89956 0.0
H28 H 0.13653 0.72982 0.95127 0.0
H29 H 0.0883 0.77902 0.00789 0.0
H30 H 0.13684 0.73326 0.07325 0.0
H31 H 0.10706 0.73396 0.116 0.0
H32 H 0.09654 0.80971 0.05495 0.0
H33 H 0.08163 0.83006 0.11196 0.0
H34 H 0.14433 0.68076 0.97438 0.0
H35 H 0.17703 0.73611 0.05335 0.0
H36 H 0.0934 0.7554 0.17386 0.0
H37 H 0.17771 0.65215 0.97501 0.0
H38 H 0.21062 0.7082 0.05321 0.0
C39 C 0.58642 0.74813 0.64771 0.0
C40 C 0.58551 0.71952 0.65078 0.0
C41 C 0.59227 0.76054 0.61327 0.0
C42 C 0.59677 0.74448 0.58135 0.0
C43 C 0.5955 0.71592 0.58448 0.0
C44 C 0.59002 0.70359 0.61882 0.0
C45 C 0.60355 0.75688 0.54484 0.0
C46 C 0.62169 0.77539 0.54344 0.0
C47 C 0.63068 0.78329 0.50838 0.0
C48 C 0.62108 0.77285 0.47461 0.0
C49 C 0.60257 0.75475 0.47549 0.0
C50 C 0.59367 0.74743 0.51086 0.0
C51 C 0.59366 0.74179 0.43998 0.0
C52 C 0.59336 0.75608 0.40519 0.0
C53 C 0.58601 0.71447 0.44046 0.0
C54 C 0.57809 0.70191 0.40734 0.0
C55 C 0.57812 0.71609 0.37275 0.0
C56 C 0.65135 0.80043 0.50717 0.0
C57 C 0.65335 0.82434 0.52889 0.0
C58 C 0.66952 0.79242 0.48497 0.0
C59 C 0.68937 0.80788 0.48468 0.0
C60 C 0.69148 0.83188 0.50632 0.0
C61 C 0.67317 0.84001 0.52831 0.0
C62 C 0.58588 0.74323 0.37179 0.0
H63 H 0.58303 0.7608 0.67206 0.0
H64 H 0.59318 0.78261 0.6115 0.0
H65 H 0.59916 0.70304 0.56045 0.0
H66 H 0.58923 0.68151 0.62036 0.0
H67 H 0.62976 0.78217 0.56963 0.0
H68 H 0.57931 0.73367 0.51226 0.0
H69 H 0.62857 0.77824 0.44773 0.0
H70 H 0.59882 0.7772 0.40369 0.0
H71 H 0.58659 0.70241 0.46625 0.0
H72 H 0.57249 0.6808 0.40855 0.0
H73 H 0.63953 0.83102 0.54609 0.0
H74 H 0.66859 0.77379 0.46851 0.0
H75 H 0.58597 0.75451 0.3453 0.0
H76 H 0.67407 0.85856 0.54492 0.0
H77 H 0.70325 0.80061 0.46809 0.0
C78 C 0.89999 0.22147 0.14048 0.0
C79 C 0.92259 0.21385 0.14527 0.0
C80 C 0.89262 0.23403 0.10696 0.0
C81 C 0.90769 0.23945 0.07744 0.0
C82 C 0.93045 0.23267 0.08273 0.0
C83 C 0.93781 0.21998 0.11622 0.0
C84 C 0.89936 0.25066 0.04057 0.0
C85 C 0.88247 0.27048 0.03952 0.0
C86 C 0.87277 0.27905 0.00486 0.0
C87 C 0.88094 0.26828 0.9708 0.0
C88 C 0.89822 0.24892 0.97121 0.0
C89 C 0.9072 0.24016 0.00624 0.0
C90 C 0.90609 0.23655 0.93533 0.0
C91 C 0.89067 0.229 0.90647 0.0
C92 C 0.92903 0.23108 0.9304 0.0
C93 C 0.93627 0.21765 0.89795 0.0
C94 C 0.92077 0.20944 0.86955 0.0
C95 C 0.85328 0.29794 0.00441 0.0
C96 C 0.8368 0.29593 0.03259 0.0
C97 C 0.85044 0.31738 0.97523 0.0
C98 C 0.83139 0.33387 0.97382 0.0
C99 C 0.81497 0.3316 0.00189 0.0
C100 C 0.81798 0.3127 0.03149 0.0
C101 C 0.89792 0.21567 0.87394 0.0
H102 H 0.88788 0.21746 0.16251 0.0
H103 H 0.87493 0.23868 0.10377 0.0
H104 H 0.94256 0.23686 0.06075 0.0
H105 H 0.95529 0.21422 0.11881 0.0
H106 H 0.87678 0.27913 0.06589 0.0
H107 H 0.91961 0.22414 0.00683 0.0
H108 H 0.87354 0.27452 0.94391 0.0
H109 H 0.87285 0.23265 0.90946 0.0
H110 H 0.94139 0.23693 0.95187 0.0
H111 H 0.95396 0.21298 0.89571 0.0
H112 H 0.83805 0.28084 0.05503 0.0
H113 H 0.86292 0.31987 0.9534 0.0
H114 H 0.88557 0.21 0.85238 0.0
H115 H 0.8054 0.31027 0.05319 0.0
H116 H 0.82951 0.34846 0.95085 0.0
C117 C 0.40895 0.27615 0.36643 0.0
C118 C 0.43179 0.28342 0.36355 0.0
C119 C 0.40091 0.26369 0.39933 0.0
C120 C 0.41555 0.25812 0.43007 0.0
C121 C 0.43855 0.2645 0.42662 0.0
C122 C 0.44657 0.27705 0.39375 0.0
C123 C 0.40657 0.24746 0.46643 0.0
C124 C 0.38937 0.22757 0.46659 0.0
C125 C 0.37925 0.21942 0.50069 0.0
C126 C 0.38714 0.23087 0.53505 0.0
C127 C 0.40455 0.25051 0.53554 0.0
C128 C 0.41412 0.25867 0.50106 0.0
C129 C 0.41185 0.26385 0.57163 0.0
C130 C 0.39594 0.27149 0.59861 0.0
C131 C 0.43467 0.27013 0.57864 0.0
C132 C 0.44135 0.28438 0.6113 0.0
C133 C 0.42537 0.2926 0.63783 0.0
C134 C 0.35949 0.20043 0.50028 0.0
C135 C 0.34305 0.20214 0.47118 0.0
C136 C 0.3562 0.18152 0.52991 0.0
C137 C 0.33662 0.16551 0.53113 0.0
C138 C 0.32008 0.16772 0.50244 0.0
C139 C 0.32365 0.18583 0.47213 0.0
C140 C 0.40263 0.2856 0.63136 0.0
H141 H 0.39709 0.2811 0.34386 0.0
H142 H 0.38305 0.25943 0.40125 0.0
H143 H 0.45032 0.26008 0.44955 0.0
H144 H 0.46433 0.28202 0.39212 0.0
H145 H 0.38376 0.21855 0.43999 0.0
H146 H 0.42672 0.27482 0.50101 0.0
H147 H 0.37935 0.22502 0.56148 0.0
H148 H 0.3782 0.26728 0.59397 0.0
H149 H 0.44739 0.26426 0.55866 0.0
H150 H 0.45898 0.28963 0.61516 0.0
H151 H 0.34472 0.21678 0.44828 0.0
H152 H 0.36867 0.17924 0.55241 0.0
H153 H 0.38992 0.29123 0.65146 0.0
H154 H 0.31102 0.18816 0.44989 0.0
H155 H 0.33433 0.15147 0.55462 0.0
C156 C 0.01704 0.96657 0.45093 0.0
N157 N 0.0547 0.0268 0.50895 0.0
C158 C 0.07233 0.00954 0.50546 0.0
C159 C 0.09435 0.01969 0.50542 0.0
C160 C 0.09828 0.04781 0.50963 0.0
C161 C 0.07985 0.06516 0.51353 0.0
C162 C 0.05807 0.05419 0.51282 0.0
Zn163 Zn 0.02271 0.01109 0.50841 0.0
C164 C 0.99263 0.04013 0.45423 0.0
N165 N 0.95626 0.97719 0.50716 0.0
C166 C 0.95289 0.94981 0.50358 0.0
C167 C 0.93867 0.99446 0.51074 0.0
C168 C 0.91665 0.98432 0.51117 0.0
C169 C 0.91259 0.95612 0.50744 0.0
C170 C 0.93111 0.93881 0.50345 0.0
Zn171 Zn 0.98824 0.99289 0.50753 0.0
O172 O 0.03141 0.98324 0.46498 0.0
C173 C 0.01851 0.96388 0.56155 0.0
O174 O 0.99706 0.96642 0.46313 0.0
H175 H 0.94171 0.01617 0.5135 0.0
H176 H 0.06932 0.98782 0.50275 0.0
H177 H 0.96711 0.93644 0.50077 0.0
O178 O 0.03214 0.98213 0.54995 0.0
O179 O 0.9985 0.96324 0.54827 0.0
H180 H 0.04383 0.06757 0.51531 0.0
O181 O 0.97982 0.01963 0.552 0.0
O182 O 0.01343 0.0385 0.55201 0.0
O183 O 0.97858 0.02267 0.46677 0.0
O184 O 0.0128 0.03994 0.46673 0.0
C185 C 0.99371 0.03717 0.56531 0.0
H186 H 0.10819 0.00567 0.50269 0.0
H187 H 0.08225 0.08701 0.51653 0.0
H188 H 0.903 0.99845 0.51492 0.0
H189 H 0.92886 0.91701 0.49987 0.0
C190 C 0.49338 0.46821 0.94742 0.0
N191 N 0.55498 0.47937 0.00554 0.0
C192 C 0.5578 0.4521 0.00042 0.0
C193 C 0.57936 0.44124 -0.00119 0.0
C194 C 0.59819 0.45853 0.00312 0.0
C195 C 0.59485 0.4865 0.00897 0.0
C196 C 0.57298 0.49659 0.00978 0.0
Zn197 Zn 0.52309 0.49463 0.00598 0.0
C198 C 0.51823 0.54212 0.95399 0.0
N199 N 0.45646 0.52635 0.00629 0.0
C200 C 0.43843 0.50921 0.00203 0.0
C201 C 0.45373 0.55369 0.01052 0.0
C202 C 0.43222 0.56479 0.01068 0.0
C203 C 0.41324 0.54766 0.00603 0.0
C204 C 0.41661 0.51948 0.00165 0.0
Zn205 Zn 0.4883 0.51103 0.00609 0.0
O206 O 0.51323 0.46778 0.96133 0.0
C207 C 0.49346 0.46349 0.05826 0.0
O208 O 0.47928 0.48481 0.96069 0.0
H209 H 0.46827 0.56697 0.01384 0.0
H210 H 0.54329 0.43872 0.99741 0.0
H211 H 0.44097 0.48753 -0.00128 0.0
O212 O 0.51351 0.46492 0.04639 0.0
O213 O 0.479 0.48038 0.0458 0.0
H214 H 0.57039 0.51822 0.01355 0.0
O215 O 0.49773 0.53694 0.05146 0.0
O216 O 0.53235 0.52195 0.0505 0.0
O217 O 0.49827 0.54155 0.96644 0.0
O218 O 0.5322 0.52442 0.96569 0.0
C219 C 0.51776 0.53763 0.06447 0.0
H220 H 0.5813 0.4195 0.99463 0.0
H221 H 0.609 0.50048 0.01214 0.0
H222 H 0.43052 0.58655 0.01482 0.0
H223 H 0.40257 0.5055 0.99744 0.0
C224 C 0.28974 0.13816 0.47347 0.0
C225 C 0.29857 0.15237 0.50503 0.0
C226 C 0.26872 0.12519 0.47529 0.0
C227 C 0.21506 0.13007 0.5223 0.0
H228 H 0.20489 0.05546 0.4893 0.0
C229 C 0.1287 0.07713 0.53853 0.0
C230 C 0.12152 0.05898 0.50996 0.0
C231 C 0.15067 0.08757 0.53897 0.0
C232 C 0.20733 0.07646 0.4981 0.0
H233 H 0.29251 0.16407 0.56322 0.0
H234 H 0.25557 0.14168 0.56622 0.0
H235 H 0.24276 0.07516 0.48778 0.0
H236 H 0.13142 0.03778 0.45916 0.0
H237 H 0.16952 0.05671 0.45897 0.0
H238 H 0.1797 0.13196 0.53138 0.0
C239 C 0.265 0.14046 0.54023 0.0
C240 C 0.22906 0.08764 0.49741 0.0
C241 C 0.28615 0.15306 0.5386 0.0
C242 C 0.13665 0.05154 0.48173 0.0
C243 C 0.15851 0.0623 0.4818 0.0
C244 C 0.19329 0.11907 0.52246 0.0
C245 C 0.25602 0.12659 0.5085 0.0
C246 C 0.23311 0.11451 0.50961 0.0
C247 C 0.16585 0.08044 0.51047 0.0
C248 C 0.18912 0.09208 0.51043 0.0
H249 H 0.29904 0.13727 0.44731 0.0
H250 H 0.2621 0.11473 0.4504 0.0
H251 H 0.21771 0.151 0.53135 0.0
H252 H 0.11742 0.08292 0.56089 0.0
H253 H 0.15578 0.10101 0.56194 0.0
C254 C 0.2312 0.65789 0.04608 0.0
C255 C 0.21779 0.66129 0.01318 0.0
C256 C 0.25143 0.64371 0.04471 0.0
C257 C 0.29442 0.62137 0.9767 0.0
H258 H 0.31552 0.57874 0.06277 0.0
C259 C 0.38594 0.58473 0.98889 0.0
C260 C 0.39016 0.55917 0.00567 0.0
C261 C 0.36441 0.59582 0.98913 0.0
C262 C 0.30979 0.59026 0.03824 0.0
H263 H 0.21514 0.65191 0.95307 0.0
H264 H 0.24982 0.62621 0.95107 0.0
H265 H 0.27846 0.59916 0.06419 0.0
H266 H 0.3748 0.52524 0.03585 0.0
H267 H 0.33711 0.54404 0.03486 0.0
H268 H 0.32542 0.61176 0.95025 0.0
C269 C 0.24498 0.63508 0.97781 0.0
C270 C 0.28863 0.60233 0.03929 0.0
C271 C 0.22486 0.6495 0.97909 0.0
C272 C 0.37218 0.54483 0.02227 0.0
C273 C 0.35058 0.55582 0.02219 0.0
C274 C 0.31547 0.60908 0.9755 0.0
C275 C 0.25868 0.63229 0.01049 0.0
C276 C 0.28075 0.61829 0.00869 0.0
C277 C 0.34643 0.58152 0.00578 0.0
C278 C 0.32356 0.5936 0.00642 0.0
H279 H 0.22615 0.66629 0.07298 0.0
H280 H 0.2616 0.64228 0.07038 0.0
H281 H 0.28909 0.63376 0.95277 0.0
H282 H 0.39926 0.59621 0.97531 0.0
H283 H 0.36198 0.61583 0.97667 0.0
C284 C 0.72131 0.85989 0.54013 0.0
C285 C 0.71291 0.84789 0.5065 0.0
C286 C 0.74202 0.87369 0.54065 0.0
C287 C 0.78528 0.90417 0.47736 0.0
H288 H 0.82416 0.89458 0.56566 0.0
C289 C 0.87135 0.95931 0.49102 0.0
C290 C 0.88923 0.94486 0.50788 0.0
C291 C 0.84941 0.94883 0.49168 0.0
C292 C 0.81363 0.89727 0.5406 0.0
H293 H 0.71946 0.84194 0.44666 0.0
H294 H 0.75588 0.86483 0.44794 0.0
H295 H 0.78685 0.87385 0.56465 0.0
H296 H 0.89783 0.90801 0.53902 0.0
H297 H 0.85987 0.88919 0.53861 0.0
H298 H 0.81247 0.92645 0.45256 0.0
C299 C 0.74634 0.86405 0.47385 0.0
C300 C 0.79203 0.88574 0.54027 0.0
C301 C 0.72555 0.85051 0.47325 0.0
C302 C 0.88458 0.91958 0.52528 0.0
C303 C 0.86268 0.90896 0.52559 0.0
C304 C 0.80697 0.91546 0.47753 0.0
C305 C 0.75495 0.87563 0.50762 0.0
C306 C 0.77761 0.88891 0.50857 0.0
C307 C 0.84479 0.92347 0.50888 0.0
C308 C 0.82147 0.91205 0.50908 0.0
H309 H 0.71217 0.8581 0.56638 0.0
H310 H 0.74793 0.88273 0.56704 0.0
H311 H 0.77456 0.90739 0.45266 0.0
H312 H 0.87428 0.97866 0.4769 0.0
H313 H 0.83604 0.96076 0.47893 0.0
C314 C 0.78131 0.34873 0.96597 0.0
C315 C 0.79423 0.34802 -0.00032 0.0
C316 C 0.76078 0.36234 0.96474 0.0
C317 C 0.72799 0.4155 0.01014 0.0
H318 H 0.67605 0.37399 0.97414 0.0
C319 C 0.63735 0.4538 0.02941 0.0
C320 C 0.62119 0.4474 0.00126 0.0
C321 C 0.65888 0.44267 0.02812 0.0
C322 C 0.69037 0.38614 0.98363 0.0
H323 H 0.79632 0.36171 0.05806 0.0
H324 H 0.76054 0.38598 0.05571 0.0
H325 H 0.71318 0.35365 0.97275 0.0
H326 H 0.61495 0.42515 0.94908 0.0
H327 H 0.65268 0.40648 0.94591 0.0
H328 H 0.7054 0.44822 0.02034 0.0
C329 C 0.76624 0.37586 0.03037 0.0
C330 C 0.71165 0.37438 0.98296 0.0
C331 C 0.7866 0.36188 0.03178 0.0
C332 C 0.62704 0.43009 0.97142 0.0
C333 C 0.64865 0.41931 0.96977 0.0
C334 C 0.70675 0.42745 0.01028 0.0
C335 C 0.75298 0.37584 0.99702 0.0
C336 C 0.73062 0.38887 0.99642 0.0
C337 C 0.66482 0.42522 0.9983 0.0
C338 C 0.6876 0.41286 0.99726 0.0
H339 H 0.78674 0.33804 0.94091 0.0
H340 H 0.7509 0.36217 0.93863 0.0
H341 H 0.74242 0.42717 0.0204 0.0
H342 H 0.63317 0.46692 0.05291 0.0
H343 H 0.67067 0.44735 0.05097 0.0
C344 C 0.09178 0.81129 0.21321 0.0
C345 C 0.07771 0.80729 0.18137 0.0
C346 C 0.08442 0.82657 0.244 0.0
C347 C 0.04132 0.8782 0.26738 0.0
H348 H 0.06241 0.86525 0.37053 0.0
C349 C 0.00706 0.93464 0.39787 0.0
C350 C 0.02356 0.94728 0.42102 0.0
C351 C 0.01321 0.91646 0.36949 0.0
C352 C 0.05647 0.86907 0.34179 0.0
H353 H 0.0447 0.81465 0.15707 0.0
H354 H 0.03128 0.84005 0.21148 0.0
H355 H 0.07319 0.83414 0.32009 0.0
H356 H 0.05938 0.95043 0.43315 0.0
H357 H 0.07005 0.91809 0.38394 0.0
H358 H 0.02414 0.91273 0.28956 0.0
C359 C 0.04831 0.83249 0.21237 0.0
C360 C 0.06271 0.85137 0.31282 0.0
C361 C 0.05586 0.81771 0.18135 0.0
C362 C 0.04631 0.9411 0.41559 0.0
C363 C 0.05241 0.92251 0.38767 0.0
C364 C 0.03477 0.89554 0.29645 0.0
C365 C 0.06268 0.83775 0.24375 0.0
C366 C 0.05535 0.8558 0.27512 0.0
C367 C 0.03592 0.91018 0.36425 0.0
C368 C 0.04242 0.89126 0.33382 0.0
H369 H 0.10879 0.80358 0.21356 0.0
H370 H 0.09611 0.83043 0.26729 0.0
H371 H 0.03573 0.88278 0.23869 0.0
H372 H 0.9894 0.93902 0.4014 0.0
H373 H 0.0002 0.90711 0.35182 0.0
C374 C 0.56036 0.71218 0.70649 0.0
C375 C 0.58002 0.70581 0.68698 0.0
C376 C 0.55385 0.69657 0.73792 0.0
C377 C 0.56231 0.62764 0.77803 0.0
H378 H 0.53361 0.65668 0.86711 0.0
C379 C 0.54664 0.56161 0.90967 0.0
C380 C 0.52519 0.56282 0.92573 0.0
C381 C 0.55313 0.58047 0.88208 0.0
C382 C 0.54145 0.64832 0.84222 0.0
H383 H 0.60909 0.67961 0.68632 0.0
H384 H 0.59816 0.6529 0.74157 0.0
H385 H 0.54593 0.68781 0.81681 0.0
H386 H 0.49392 0.58522 0.92608 0.0
H387 H 0.50537 0.6183 0.87768 0.0
H388 H 0.55802 0.58827 0.80337 0.0
C389 C 0.58731 0.66925 0.73205 0.0
C390 C 0.54849 0.6661 0.81344 0.0
C391 C 0.59366 0.68463 0.70057 0.0
C392 C 0.51054 0.5837 0.91414 0.0
C393 C 0.51711 0.60272 0.88662 0.0
C394 C 0.55543 0.60997 0.80678 0.0
C395 C 0.567 0.67448 0.75044 0.0
C396 C 0.55918 0.65595 0.78115 0.0
C397 C 0.53838 0.60106 0.87001 0.0
C398 C 0.54508 0.6201 0.8393 0.0
H399 H 0.54953 0.72838 0.69639 0.0
H400 H 0.53806 0.70107 0.75134 0.0
H401 H 0.56991 0.61901 0.75311 0.0
H402 H 0.5584 0.5459 0.91807 0.0
H403 H 0.56974 0.57892 0.87014 0.0
C404 C 0.91606 0.17802 0.19509 0.0
C405 C 0.92998 0.1985 0.17969 0.0
C406 C 0.92311 0.16297 0.22673 0.0
C407 C 0.97388 0.1408 0.27806 0.0
H408 H 0.93207 0.12328 0.35818 0.0
C409 C 0.00077 0.08029 0.41212 0.0
C410 C 0.98563 0.06017 0.42495 0.0
C411 C 0.99426 0.09884 0.38388 0.0
C412 C 0.9439 0.12777 0.33588 0.0
H413 H 0.96215 0.21948 0.18602 0.0
H414 H 0.97457 0.19291 0.24115 0.0
H415 H 0.92023 0.15277 0.30586 0.0
H416 H 0.95172 0.04385 0.41831 0.0
H417 H 0.9405 0.07585 0.36873 0.0
H418 H 0.99742 0.1154 0.30763 0.0
C419 C 0.95824 0.18844 0.22844 0.0
C420 C 0.93712 0.14471 0.30595 0.0
C421 C 0.95113 0.20362 0.19685 0.0
C422 C 0.96378 0.05915 0.40916 0.0
C423 C 0.9573 0.07763 0.38088 0.0
C424 C 0.98064 0.12376 0.30792 0.0
C425 C 0.94431 0.16792 0.24366 0.0
C426 C 0.95195 0.1512 0.27653 0.0
C427 C 0.97247 0.09765 0.3678 0.0
C428 C 0.96566 0.11683 0.33701 0.0
H429 H 0.89987 0.17311 0.18217 0.0
H430 H 0.91215 0.14697 0.23738 0.0
H431 H 0.98561 0.14516 0.25556 0.0
H432 H 0.0177 0.08172 0.42382 0.0
H433 H 0.00626 0.11422 0.37482 0.0
C434 C 0.45256 0.30438 0.69098 0.0
C435 C 0.43226 0.30937 0.67126 0.0
C436 C 0.45938 0.32097 0.72138 0.0
C437 C 0.44994 0.3894 0.76207 0.0
H438 H 0.47883 0.35886 0.85181 0.0
C439 C 0.46549 0.45193 0.89834 0.0
C440 C 0.48671 0.44958 0.91615 0.0
C441 C 0.45917 0.43449 0.86867 0.0
C442 C 0.47097 0.36769 0.82676 0.0
H443 H 0.40321 0.33576 0.66825 0.0
H444 H 0.41469 0.36399 0.72189 0.0
H445 H 0.46693 0.32873 0.79998 0.0
H446 H 0.51786 0.4269 0.917 0.0
H447 H 0.50674 0.39639 0.86512 0.0
H448 H 0.45375 0.42829 0.78905 0.0
C449 C 0.42556 0.34756 0.71349 0.0
C450 C 0.46418 0.35046 0.79704 0.0
C451 C 0.4188 0.33109 0.68304 0.0
C452 C 0.5014 0.42927 0.90382 0.0
C453 C 0.495 0.41169 0.87428 0.0
C454 C 0.4566 0.40657 0.79183 0.0
C455 C 0.44603 0.34289 0.73282 0.0
C456 C 0.4535 0.36111 0.76439 0.0
C457 C 0.47386 0.41421 0.85629 0.0
C458 C 0.46712 0.3959 0.82454 0.0
H459 H 0.46322 0.28765 0.68294 0.0
H460 H 0.47534 0.31692 0.73543 0.0
H461 H 0.4422 0.39839 0.73702 0.0
H462 H 0.45375 0.46731 0.90722 0.0
H463 H 0.44267 0.4367 0.85565 0.0
C464 C 0.54925 0.68966 0.33576 0.0
C465 C 0.57063 0.70197 0.33777 0.0
C466 C 0.54293 0.67386 0.30439 0.0
C467 C 0.55975 0.65518 0.20607 0.0
H468 H 0.52346 0.59075 0.22716 0.0
C469 C 0.54654 0.56431 0.10202 0.0
C470 C 0.52396 0.5568 0.09524 0.0
C471 C 0.55219 0.58306 0.13057 0.0
C472 C 0.53351 0.60875 0.22088 0.0
H473 H 0.60208 0.70801 0.30874 0.0
H474 H 0.59151 0.6795 0.25446 0.0
H475 H 0.53327 0.62204 0.27845 0.0
H476 H 0.48962 0.56273 0.11319 0.0
H477 H 0.49962 0.59489 0.16373 0.0
H478 H 0.56057 0.64092 0.14856 0.0
C479 C 0.57928 0.68259 0.27641 0.0
C480 C 0.539 0.62686 0.25017 0.0
C481 C 0.58542 0.69886 0.30752 0.0
C482 C 0.50717 0.56816 0.11775 0.0
C483 C 0.51286 0.58647 0.1467 0.0
C484 C 0.55455 0.63675 0.17689 0.0
C485 C 0.55807 0.6695 0.27473 0.0
C486 C 0.55209 0.65043 0.24317 0.0
C487 C 0.5354 0.59417 0.15324 0.0
C488 C 0.54129 0.61348 0.18406 0.0
H489 H 0.53754 0.69201 0.35874 0.0
H490 H 0.52624 0.66479 0.3037 0.0
H491 H 0.56956 0.67326 0.19939 0.0
H492 H 0.55981 0.55598 0.08498 0.0
H493 H 0.5697 0.58861 0.1353 0.0
C494 C 0.91513 0.17128 0.82284 0.0
C495 C 0.92826 0.19334 0.8364 0.0
C496 C 0.92256 0.15526 0.79294 0.0
C497 C 0.96272 0.15399 0.71361 0.0
H498 H 0.95277 0.07576 0.72048 0.0
C499 C 0.00132 0.07662 0.60923 0.0
C500 C 0.98683 0.05571 0.59601 0.0
C501 C 0.99465 0.094 0.63833 0.0
C502 C 0.95551 0.09759 0.71799 0.0
H503 H 0.95928 0.21623 0.82834 0.0
H504 H 0.97251 0.18779 0.77674 0.0
H505 H 0.9402 0.10514 0.77135 0.0
H506 H 0.95394 0.03679 0.60284 0.0
H507 H 0.94241 0.06703 0.65346 0.0
H508 H 0.97821 0.14624 0.66024 0.0
C509 C 0.95634 0.18309 0.78902 0.0
C510 C 0.94825 0.11446 0.7471 0.0
C511 C 0.94887 0.1992 0.8189 0.0
C512 C 0.96556 0.05262 0.61242 0.0
C513 C 0.95897 0.06985 0.64159 0.0
C514 C 0.97008 0.13706 0.68452 0.0
C515 C 0.94336 0.16076 0.77592 0.0
C516 C 0.95158 0.14289 0.74515 0.0
C517 C 0.97345 0.09069 0.65494 0.0
C518 C 0.96638 0.1087 0.68628 0.0
H519 H 0.89931 0.16595 0.83589 0.0
H520 H 0.91196 0.13849 0.78319 0.0
H521 H 0.96534 0.17583 0.71101 0.0
H522 H 0.01781 0.07957 0.59714 0.0
H523 H 0.00623 0.10975 0.64823 0.0
C524 C 0.45436 0.32159 0.33508 0.0
C525 C 0.43986 0.29899 0.33011 0.0
C526 C 0.46088 0.3374 0.30401 0.0
C527 C 0.44319 0.35504 0.20618 0.0
H528 H 0.50322 0.38646 0.20157 0.0
C529 C 0.46585 0.44281 0.1034 0.0
C530 C 0.4872 0.44268 0.08686 0.0
C531 C 0.46028 0.42373 0.1314 0.0
C532 C 0.48646 0.37762 0.20214 0.0
H533 H 0.42139 0.27473 0.28847 0.0
H534 H 0.43297 0.30219 0.23405 0.0
H535 H 0.49388 0.35515 0.25289 0.0
H536 H 0.51926 0.42198 0.0861 0.0
H537 H 0.50942 0.38846 0.13442 0.0
H538 H 0.43588 0.37718 0.15508 0.0
C539 C 0.43896 0.308 0.2621 0.0
C540 C 0.48101 0.35992 0.23186 0.0
C541 C 0.43237 0.29223 0.29324 0.0
C542 C 0.50272 0.42277 0.09846 0.0
C543 C 0.49712 0.40363 0.12632 0.0
C544 C 0.44865 0.37268 0.17639 0.0
C545 C 0.45312 0.33094 0.26717 0.0
C546 C 0.45926 0.34861 0.23445 0.0
C547 C 0.47591 0.40401 0.14338 0.0
C548 C 0.4703 0.38437 0.17418 0.0
H549 H 0.46013 0.32761 0.36319 0.0
H550 H 0.47149 0.35518 0.30906 0.0
H551 H 0.4262 0.34692 0.2075 0.0
H552 H 0.45353 0.45793 0.09517 0.0
H553 H 0.44391 0.42485 0.14428 0.0
C554 C 0.09862 0.82757 0.81952 0.0
C555 C 0.08546 0.80583 0.83322 0.0
C556 C 0.09156 0.84248 0.78783 0.0
C557 C 0.05161 0.84309 0.70585 0.0
H558 H 0.06032 0.92144 0.71455 0.0
C559 C 0.01166 0.92251 0.60229 0.0
C560 C 0.02594 0.94392 0.59061 0.0
C561 C 0.01871 0.90416 0.6305 0.0
C562 C 0.05794 0.89959 0.71152 0.0
H563 H 0.05507 0.78187 0.8238 0.0
H564 H 0.04241 0.80831 0.76848 0.0
H565 H 0.0732 0.89177 0.76563 0.0
H566 H 0.05897 0.96252 0.59888 0.0
H567 H 0.07114 0.93067 0.64796 0.0
H568 H 0.036 0.85126 0.6517 0.0
C569 C 0.05835 0.81362 0.78199 0.0
C570 C 0.06539 0.88254 0.74075 0.0
C571 C 0.06555 0.7985 0.81364 0.0
C572 C 0.04749 0.94637 0.60733 0.0
C573 C 0.05445 0.92819 0.63558 0.0
C574 C 0.04402 0.86025 0.67657 0.0
C575 C 0.07104 0.8362 0.76929 0.0
C576 C 0.06257 0.85407 0.73814 0.0
C577 C 0.04009 0.90704 0.64771 0.0
C578 C 0.04734 0.88865 0.679 0.0
H579 H 0.11424 0.83334 0.83376 0.0
H580 H 0.10206 0.85925 0.7782 0.0
H581 H 0.04929 0.82125 0.70285 0.0
H582 H 0.99498 0.92002 0.58988 0.0
H583 H 0.00726 0.88814 0.63946 0.0
loop_
_geom_bond_atom_site_label_1
_geom_bond_atom_site_label_2
_geom_bond_distance
_geom_bond_site_symmetry_2
_ccdc_geom_bond_type
C0 C1 1.386 . S
C0 C2 1.397 . S
C0 H24 0.931 . S
C1 C0 1.386 . S
C1 C5 1.397 . S
C2 C0 1.397 . S
C2 C3 1.384 . S
C2 H25 0.930 . S
C3 C2 1.384 . S
C3 C4 1.377 . S
C3 C6 1.481 . S
C4 C3 1.377 . S
C4 C5 1.389 . S
C4 H26 0.929 . S
C5 C1 1.397 . S
C5 C4 1.389 . S
C5 H27 0.931 . S
C6 C3 1.481 . S
C6 C7 1.387 . S
C6 C11 1.390 1_556 S
C7 C6 1.387 . S
C7 C8 1.401 1_556 S
C7 H28 0.930 . S
C8 C7 1.401 1_554 S
C8 C9 1.376 . S
C8 C17 1.511 . S
C9 C8 1.376 . S
C9 C10 1.392 . S
C9 H30 0.931 . S
C10 C9 1.392 . S
C10 C11 1.361 . S
C10 C12 1.500 . S
C11 C6 1.390 1_554 S
C11 C10 1.361 . S
C11 H29 0.931 . S
C12 C10 1.500 . S
C12 C13 1.371 . S
C12 C14 1.365 . S
C13 C12 1.371 . S
C13 C23 1.386 . S
C13 H31 0.931 . S
C14 C12 1.365 . S
C14 C15 1.409 . S
C14 H32 0.929 . S
C15 C14 1.409 . S
C15 C16 1.380 . S
C15 H33 0.930 . S
C16 C15 1.380 . S
C16 C23 1.357 . S
C17 C8 1.511 . S
C17 C18 1.341 1_554 S
C17 C19 1.371 . S
C18 C17 1.341 1_556 S
C18 C22 1.394 . S
C18 H34 0.930 . S
C19 C17 1.371 . S
C19 C20 1.392 . S
C19 H35 0.931 . S
C20 C19 1.392 . S
C20 C21 1.331 . S
C20 H38 0.932 . S
C21 C20 1.331 . S
C21 C22 1.336 1_554 S
C22 C18 1.394 . S
C22 C21 1.336 1_556 S
C22 H37 0.929 . S
C23 C13 1.386 . S
C23 C16 1.357 . S
C23 H36 0.928 . S
H24 C0 0.931 . S
H25 C2 0.930 . S
H26 C4 0.929 . S
H27 C5 0.931 . S
H28 C7 0.930 . S
H29 C11 0.931 . S
H30 C9 0.931 . S
H31 C13 0.931 . S
H32 C14 0.929 . S
H33 C15 0.930 . S
H34 C18 0.930 . S
H35 C19 0.931 . S
H36 C23 0.928 . S
H37 C22 0.929 . S
H38 C20 0.932 . S
C39 C40 1.386 . S
C39 C41 1.397 . S
C39 H63 0.931 . S
C40 C39 1.386 . S
C40 C44 1.397 . S
C41 C39 1.397 . S
C41 C42 1.384 . S
C41 H64 0.930 . S
C42 C41 1.384 . S
C42 C43 1.377 . S
C42 C45 1.481 . S
C43 C42 1.377 . S
C43 C44 1.389 . S
C43 H65 0.929 . S
C44 C40 1.397 . S
C44 C43 1.389 . S
C44 H66 0.931 . S
C45 C42 1.481 . S
C45 C46 1.387 . S
C45 C50 1.390 . S
C46 C45 1.387 . S
C46 C47 1.401 . S
C46 H67 0.930 . S
C47 C46 1.401 . S
C47 C48 1.376 . S
C47 C56 1.511 . S
C48 C47 1.376 . S
C48 C49 1.392 . S
C48 H69 0.931 . S
C49 C48 1.392 . S
C49 C50 1.361 . S
C49 C51 1.500 . S
C50 C45 1.390 . S
C50 C49 1.361 . S
C50 H68 0.931 . S
C51 C49 1.500 . S
C51 C52 1.371 . S
C51 C53 1.365 . S
C52 C51 1.371 . S
C52 C62 1.386 . S
C52 H70 0.931 . S
C53 C51 1.365 . S
C53 C54 1.409 . S
C53 H71 0.929 . S
C54 C53 1.409 . S
C54 C55 1.380 . S
C54 H72 0.930 . S
C55 C54 1.380 . S
C55 C62 1.357 . S
C56 C47 1.511 . S
C56 C57 1.341 . S
C56 C58 1.371 . S
C57 C56 1.341 . S
C57 C61 1.394 . S
C57 H73 0.930 . S
C58 C56 1.371 . S
C58 C59 1.392 . S
C58 H74 0.931 . S
C59 C58 1.392 . S
C59 C60 1.331 . S
C59 H77 0.932 . S
C60 C59 1.331 . S
C60 C61 1.336 . S
C61 C57 1.394 . S
C61 C60 1.336 . S
C61 H76 0.929 . S
C62 C52 1.386 . S
C62 C55 1.357 . S
C62 H75 0.928 . S
H63 C39 0.931 . S
H64 C41 0.930 . S
H65 C43 0.929 . S
H66 C44 0.931 . S
H67 C46 0.930 . S
H68 C50 0.931 . S
H69 C48 0.931 . S
H70 C52 0.931 . S
H71 C53 0.929 . S
H72 C54 0.930 . S
H73 C57 0.930 . S
H74 C58 0.931 . S
H75 C62 0.928 . S
H76 C61 0.929 . S
H77 C59 0.932 . S
C78 C79 1.386 . S
C78 C80 1.397 . S
C78 H102 0.931 . S
C79 C78 1.386 . S
C79 C83 1.397 . S
C80 C78 1.397 . S
C80 C81 1.384 . S
C80 H103 0.930 . S
C81 C80 1.384 . S
C81 C82 1.377 . S
C81 C84 1.481 . S
C82 C81 1.377 . S
C82 C83 1.389 . S
C82 H104 0.929 . S
C83 C79 1.397 . S
C83 C82 1.389 . S
C83 H105 0.931 . S
C84 C81 1.481 . S
C84 C85 1.387 . S
C84 C89 1.390 . S
C85 C84 1.387 . S
C85 C86 1.401 . S
C85 H106 0.930 . S
C86 C85 1.401 . S
C86 C87 1.376 1_554 S
C86 C95 1.511 . S
C87 C86 1.376 1_556 S
C87 C88 1.392 . S
C87 H108 0.931 . S
C88 C87 1.392 . S
C88 C89 1.361 1_556 S
C88 C90 1.500 . S
C89 C84 1.390 . S
C89 C88 1.361 1_554 S
C89 H107 0.931 . S
C90 C88 1.500 . S
C90 C91 1.371 . S
C90 C92 1.365 . S
C91 C90 1.371 . S
C91 C101 1.386 . S
C91 H109 0.931 . S
C92 C90 1.365 . S
C92 C93 1.409 . S
C92 H110 0.929 . S
C93 C92 1.409 . S
C93 C94 1.380 . S
C93 H111 0.930 . S
C94 C93 1.380 . S
C94 C101 1.357 . S
C95 C86 1.511 . S
C95 C96 1.341 . S
C95 C97 1.371 1_554 S
C96 C95 1.341 . S
C96 C100 1.394 . S
C96 H112 0.930 . S
C97 C95 1.371 1_556 S
C97 C98 1.392 . S
C97 H113 0.931 . S
C98 C97 1.392 . S
C98 C99 1.331 1_556 S
C98 H116 0.932 . S
C99 C98 1.331 1_554 S
C99 C100 1.336 . S
C100 C96 1.394 . S
C100 C99 1.336 . S
C100 H115 0.929 . S
C101 C91 1.386 . S
C101 C94 1.357 . S
C101 H114 0.928 . S
H102 C78 0.931 . S
H103 C80 0.930 . S
H104 C82 0.929 . S
H105 C83 0.931 . S
H106 C85 0.930 . S
H107 C89 0.931 . S
H108 C87 0.931 . S
H109 C91 0.931 . S
H110 C92 0.929 . S
H111 C93 0.930 . S
H112 C96 0.930 . S
H113 C97 0.931 . S
H114 C101 0.928 . S
H115 C100 0.929 . S
H116 C98 0.932 . S
C117 C118 1.386 . S
C117 C119 1.397 . S
C117 H141 0.931 . S
C118 C117 1.386 . S
C118 C122 1.397 . S
C119 C117 1.397 . S
C119 C120 1.384 . S
C119 H142 0.930 . S
C120 C119 1.384 . S
C120 C121 1.377 . S
C120 C123 1.481 . S
C121 C120 1.377 . S
C121 C122 1.389 . S
C121 H143 0.929 . S
C122 C118 1.397 . S
C122 C121 1.389 . S
C122 H144 0.931 . S
C123 C120 1.481 . S
C123 C124 1.387 . S
C123 C128 1.390 . S
C124 C123 1.387 . S
C124 C125 1.401 . S
C124 H145 0.930 . S
C125 C124 1.401 . S
C125 C126 1.376 . S
C125 C134 1.511 . S
C126 C125 1.376 . S
C126 C127 1.392 . S
C126 H147 0.931 . S
C127 C126 1.392 . S
C127 C128 1.361 . S
C127 C129 1.500 . S
C128 C123 1.390 . S
C128 C127 1.361 . S
C128 H146 0.931 . S
C129 C127 1.500 . S
C129 C130 1.371 . S
C129 C131 1.365 . S
C130 C129 1.371 . S
C130 C140 1.386 . S
C130 H148 0.931 . S
C131 C129 1.365 . S
C131 C132 1.409 . S
C131 H149 0.929 . S
C132 C131 1.409 . S
C132 C133 1.380 . S
C132 H150 0.930 . S
C133 C132 1.380 . S
C133 C140 1.357 . S
C134 C125 1.511 . S
C134 C135 1.341 . S
C134 C136 1.371 . S
C135 C134 1.341 . S
C135 C139 1.394 . S
C135 H151 0.930 . S
C136 C134 1.371 . S
C136 C137 1.392 . S
C136 H152 0.931 . S
C137 C136 1.392 . S
C137 C138 1.331 . S
C137 H155 0.932 . S
C138 C137 1.331 . S
C138 C139 1.336 . S
C139 C135 1.394 . S
C139 C138 1.336 . S
C139 H154 0.929 . S
C140 C130 1.386 . S
C140 C133 1.357 . S
C140 H153 0.928 . S
H141 C117 0.931 . S
H142 C119 0.930 . S
H143 C121 0.929 . S
H144 C122 0.931 . S
H145 C124 0.930 . S
H146 C128 0.931 . S
H147 C126 0.931 . S
H148 C130 0.931 . S
H149 C131 0.929 . S
H150 C132 0.930 . S
H151 C135 0.930 . S
H152 C136 0.931 . S
H153 C140 0.928 . S
H154 C139 0.929 . S
H155 C137 0.932 . S
C156 O172 1.251 . S
C156 O174 1.254 . S
N157 C158 1.333 . S
N157 C162 1.307 . S
N157 Zn163 2.020 . S
C158 N157 1.333 . S
C158 C159 1.379 . S
C158 H176 0.952 . S
C159 C158 1.379 . S
C159 C160 1.390 . S
C159 H186 0.949 . S
C160 C159 1.390 . S
C160 C161 1.357 . S
C161 C160 1.357 . S
C161 C162 1.370 . S
C161 H187 0.950 . S
C162 N157 1.307 . S
C162 C161 1.370 . S
C162 H180 0.948 . S
Zn163 N157 2.020 . S
Zn163 O172 2.039 1_545 S
Zn163 O178 2.034 1_545 S
Zn163 O182 2.025 . S
Zn163 O184 2.024 . S
C164 O183 1.246 . S
C164 O184 1.249 1_655 S
N165 C166 1.307 . S
N165 C167 1.333 . S
N165 Zn171 2.020 . S
C166 N165 1.307 . S
C166 C170 1.370 . S
C166 H177 0.948 . S
C167 N165 1.333 . S
C167 C168 1.379 . S
C167 H175 0.937 1_565 S
C168 C167 1.379 . S
C168 C169 1.390 . S
C168 H188 0.949 . S
C169 C168 1.390 . S
C169 C170 1.357 . S
C170 C166 1.370 . S
C170 C169 1.357 . S
C170 H189 0.950 . S
Zn171 N165 2.020 . S
Zn171 O174 2.025 1_655 S
Zn171 O179 2.003 1_655 S
Zn171 O181 2.039 1_565 S
Zn171 O183 2.034 1_565 S
O172 C156 1.251 . S
O172 Zn163 2.039 1_565 S
C173 O178 1.246 . S
C173 O179 1.292 . S
O174 C156 1.254 . S
O174 Zn171 2.025 1_455 S
H175 C167 0.937 1_545 S
H176 C158 0.952 . S
H177 C166 0.948 . S
O178 Zn163 2.034 1_565 S
O178 C173 1.246 . S
O179 Zn171 2.003 1_455 S
O179 C173 1.292 . S
H180 C162 0.948 . S
O181 Zn171 2.039 1_545 S
O181 C185 1.251 . S
O182 Zn163 2.025 . S
O182 C185 1.254 1_455 S
O183 C164 1.246 . S
O183 Zn171 2.034 1_545 S
O184 Zn163 2.024 . S
O184 C164 1.249 1_455 S
C185 O181 1.251 . S
C185 O182 1.254 1_655 S
H186 C159 0.949 . S
H187 C161 0.950 . S
H188 C168 0.949 . S
H189 C170 0.950 . S
C190 O206 1.251 . S
C190 O208 1.254 . S
N191 C192 1.333 1_554 S
N191 C196 1.307 . S
N191 Zn197 2.020 . S
C192 N191 1.333 1_556 S
C192 C193 1.379 . S
C192 H210 0.952 . S
C193 C192 1.379 . S
C193 C194 1.390 1_556 S
C193 H220 0.949 . S
C194 C193 1.390 1_554 S
C194 C195 1.357 . S
C195 C194 1.357 . S
C195 C196 1.370 . S
C195 H221 0.950 . S
C196 N191 1.307 . S
C196 C195 1.370 . S
C196 H214 0.948 . S
Zn197 N191 2.020 . S
Zn197 O206 2.039 1_554 S
Zn197 O212 2.034 . S
Zn197 O216 2.025 . S
Zn197 O218 2.024 1_554 S
C198 O217 1.246 . S
C198 O218 1.249 . S
N199 C200 1.307 1_554 S
N199 C201 1.333 . S
N199 Zn205 2.020 . S
C200 N199 1.307 1_556 S
C200 C204 1.370 . S
C200 H211 0.948 . S
C201 N199 1.333 . S
C201 C202 1.379 . S
C201 H209 0.952 . S
C202 C201 1.379 . S
C202 C203 1.390 . S
C202 H222 0.949 . S
C203 C202 1.390 . S
C203 C204 1.357 1_554 S
C204 C200 1.370 . S
C204 C203 1.357 1_556 S
C204 H223 0.950 . S
Zn205 N199 2.020 . S
Zn205 O208 2.025 1_554 S
Zn205 O213 2.024 . S
Zn205 O215 2.039 . S
Zn205 O217 2.034 1_554 S
O206 C190 1.251 . S
O206 Zn197 2.039 1_556 S
C207 O212 1.246 . S
C207 O213 1.249 . S
O208 C190 1.254 . S
O208 Zn205 2.025 1_556 S
H209 C201 0.952 . S
H210 C192 0.952 . S
H211 C200 0.948 . S
O212 Zn197 2.034 . S
O212 C207 1.246 . S
O213 Zn205 2.024 . S
O213 C207 1.249 . S
H214 C196 0.948 . S
O215 Zn205 2.039 . S
O215 C219 1.251 . S
O216 Zn197 2.025 . S
O216 C219 1.254 . S
O217 C198 1.246 . S
O217 Zn205 2.034 1_556 S
O218 Zn197 2.024 1_556 S
O218 C198 1.249 . S
C219 O215 1.251 . S
C219 O216 1.254 . S
H220 C193 0.949 . S
H221 C195 0.950 . S
H222 C202 0.949 . S
H223 C204 0.950 . S
C224 C225 1.349 . S
C224 C226 1.327 . S
C224 H249 0.950 . S
C225 C224 1.349 . S
C225 C241 1.349 . S
C226 C224 1.327 . S
C226 C245 1.429 . S
C226 H250 0.950 . S
C227 C244 1.574 . S
C227 C246 1.368 . S
C227 H251 0.949 . S
H228 C232 0.949 . S
C229 C230 1.349 . S
C229 C231 1.327 . S
C229 H252 0.950 . S
C230 C229 1.349 . S
C230 C242 1.349 . S
C231 C229 1.327 . S
C231 C247 1.429 . S
C231 H253 0.950 . S
C232 H228 0.949 . S
C232 C240 1.574 . S
C232 C248 1.368 . S
H233 C241 0.950 . S
H234 C239 0.950 . S
H235 C240 0.949 . S
H236 C242 0.950 . S
H237 C243 0.950 . S
H238 C244 0.949 . S
C239 H234 0.950 . S
C239 C241 1.327 . S
C239 C245 1.429 . S
C240 C232 1.574 . S
C240 H235 0.949 . S
C240 C246 1.368 . S
C241 C225 1.349 . S
C241 H233 0.950 . S
C241 C239 1.327 . S
C242 C230 1.349 . S
C242 H236 0.950 . S
C242 C243 1.327 . S
C243 H237 0.950 . S
C243 C242 1.327 . S
C243 C247 1.429 . S
C244 C227 1.574 . S
C244 H238 0.949 . S
C244 C248 1.368 . S
C245 C226 1.429 . S
C245 C239 1.429 . S
C245 C246 1.523 . S
C246 C227 1.368 . S
C246 C240 1.368 . S
C246 C245 1.523 . S
C247 C231 1.429 . S
C247 C243 1.429 . S
C247 C248 1.523 . S
C248 C232 1.368 . S
C248 C244 1.368 . S
C248 C247 1.523 . S
H249 C224 0.950 . S
H250 C226 0.950 . S
H251 C227 0.949 . S
H252 C229 0.950 . S
H253 C231 0.950 . S
C254 C255 1.349 . S
C254 C256 1.327 . S
C254 H279 0.950 . S
C255 C254 1.349 . S
C255 C271 1.349 1_554 S
C256 C254 1.327 . S
C256 C275 1.429 . S
C256 H280 0.950 . S
C257 C274 1.574 . S
C257 C276 1.368 1_556 S
C257 H281 0.949 . S
H258 C262 0.949 . S
C259 C260 1.349 1_556 S
C259 C261 1.327 . S
C259 H282 0.950 . S
C260 C259 1.349 1_554 S
C260 C272 1.349 . S
C261 C259 1.327 . S
C261 C277 1.429 1_556 S
C261 H283 0.950 . S
C262 H258 0.949 . S
C262 C270 1.574 . S
C262 C278 1.368 . S
H263 C271 0.950 . S
H264 C269 0.950 . S
H265 C270 0.949 . S
H266 C272 0.950 . S
H267 C273 0.950 . S
H268 C274 0.949 . S
C269 H264 0.950 . S
C269 C271 1.327 . S
C269 C275 1.429 1_556 S
C270 C262 1.574 . S
C270 H265 0.949 . S
C270 C276 1.368 . S
C271 C255 1.349 1_556 S
C271 H263 0.950 . S
C271 C269 1.327 . S
C272 C260 1.349 . S
C272 H266 0.950 . S
C272 C273 1.327 . S
C273 H267 0.950 . S
C273 C272 1.327 . S
C273 C277 1.429 . S
C274 C257 1.574 . S
C274 H268 0.949 . S
C274 C278 1.368 1_556 S
C275 C256 1.429 . S
C275 C269 1.429 1_554 S
C275 C276 1.523 . S
C276 C257 1.368 1_554 S
C276 C270 1.368 . S
C276 C275 1.523 . S
C277 C261 1.429 1_554 S
C277 C273 1.429 . S
C277 C278 1.523 . S
C278 C262 1.368 . S
C278 C274 1.368 1_554 S
C278 C277 1.523 . S
H279 C254 0.950 . S
H280 C256 0.950 . S
H281 C257 0.949 . S
H282 C259 0.950 . S
H283 C261 0.950 . S
C284 C285 1.349 . S
C284 C286 1.327 . S
C284 H309 0.950 . S
C285 C284 1.349 . S
C285 C301 1.349 . S
C286 C284 1.327 . S
C286 C305 1.429 . S
C286 H310 0.950 . S
C287 C304 1.574 . S
C287 C306 1.368 . S
C287 H311 0.949 . S
H288 C292 0.949 . S
C289 C290 1.349 . S
C289 C291 1.327 . S
C289 H312 0.950 . S
C290 C289 1.349 . S
C290 C302 1.349 . S
C291 C289 1.327 . S
C291 C307 1.429 . S
C291 H313 0.950 . S
C292 H288 0.949 . S
C292 C300 1.574 . S
C292 C308 1.368 . S
H293 C301 0.950 . S
H294 C299 0.950 . S
H295 C300 0.949 . S
H296 C302 0.950 . S
H297 C303 0.950 . S
H298 C304 0.949 . S
C299 H294 0.950 . S
C299 C301 1.327 . S
C299 C305 1.429 . S
C300 C292 1.574 . S
C300 H295 0.949 . S
C300 C306 1.368 . S
C301 C285 1.349 . S
C301 H293 0.950 . S
C301 C299 1.327 . S
C302 C290 1.349 . S
C302 H296 0.950 . S
C302 C303 1.327 . S
C303 H297 0.950 . S
C303 C302 1.327 . S
C303 C307 1.429 . S
C304 C287 1.574 . S
C304 H298 0.949 . S
C304 C308 1.368 . S
C305 C286 1.429 . S
C305 C299 1.429 . S
C305 C306 1.523 . S
C306 C287 1.368 . S
C306 C300 1.368 . S
C306 C305 1.523 . S
C307 C291 1.429 . S
C307 C303 1.429 . S
C307 C308 1.523 . S
C308 C292 1.368 . S
C308 C304 1.368 . S
C308 C307 1.523 . S
H309 C284 0.950 . S
H310 C286 0.950 . S
H311 C287 0.949 . S
H312 C289 0.950 . S
H313 C291 0.950 . S
C314 C315 1.349 1_556 S
C314 C316 1.327 . S
C314 H339 0.950 . S
C315 C314 1.349 1_554 S
C315 C331 1.349 . S
C316 C314 1.327 . S
C316 C335 1.429 1_556 S
C316 H340 0.950 . S
C317 C334 1.574 . S
C317 C336 1.368 . S
C317 H341 0.949 . S
H318 C322 0.949 . S
C319 C320 1.349 . S
C319 C321 1.327 . S
C319 H342 0.950 . S
C320 C319 1.349 . S
C320 C332 1.349 1_554 S
C321 C319 1.327 . S
C321 C337 1.429 . S
C321 H343 0.950 . S
C322 H318 0.949 . S
C322 C330 1.574 . S
C322 C338 1.368 1_556 S
H323 C331 0.950 . S
H324 C329 0.950 . S
H325 C330 0.949 . S
H326 C332 0.950 . S
H327 C333 0.950 . S
H328 C334 0.949 . S
C329 H324 0.950 . S
C329 C331 1.327 . S
C329 C335 1.429 . S
C330 C322 1.574 . S
C330 H325 0.949 . S
C330 C336 1.368 1_556 S
C331 C315 1.349 . S
C331 H323 0.950 . S
C331 C329 1.327 . S
C332 C320 1.349 1_556 S
C332 H326 0.950 . S
C332 C333 1.327 . S
C333 H327 0.950 . S
C333 C332 1.327 . S
C333 C337 1.429 1_556 S
C334 C317 1.574 . S
C334 H328 0.949 . S
C334 C338 1.368 . S
C335 C316 1.429 1_554 S
C335 C329 1.429 . S
C335 C336 1.523 . S
C336 C317 1.368 . S
C336 C330 1.368 1_554 S
C336 C335 1.523 . S
C337 C321 1.429 . S
C337 C333 1.429 1_554 S
C337 C338 1.523 . S
C338 C322 1.368 1_554 S
C338 C334 1.368 . S
C338 C337 1.523 . S
H339 C314 0.950 . S
H340 C316 0.950 . S
H341 C317 0.949 . S
H342 C319 0.950 . S
H343 C321 0.950 . S
C344 C345 1.349 . S
C344 C346 1.327 . S
C344 H369 0.950 . S
C345 C344 1.349 . S
C345 C361 1.349 . S
C346 C344 1.327 . S
C346 C365 1.429 . S
C346 H370 0.950 . S
C347 C364 1.574 . S
C347 C366 1.368 . S
C347 H371 0.949 . S
H348 C352 0.949 . S
C349 C350 1.349 . S
C349 C351 1.327 . S
C349 H372 0.950 . S
C350 C349 1.349 . S
C350 C362 1.349 . S
C351 C349 1.327 . S
C351 C367 1.429 . S
C351 H373 0.950 . S
C352 H348 0.949 . S
C352 C360 1.574 . S
C352 C368 1.368 . S
H353 C361 0.950 . S
H354 C359 0.950 . S
H355 C360 0.949 . S
H356 C362 0.950 . S
H357 C363 0.950 . S
H358 C364 0.949 . S
C359 H354 0.950 . S
C359 C361 1.327 . S
C359 C365 1.429 . S
C360 C352 1.574 . S
C360 H355 0.949 . S
C360 C366 1.368 . S
C361 C345 1.349 . S
C361 H353 0.950 . S
C361 C359 1.327 . S
C362 C350 1.349 . S
C362 H356 0.950 . S
C362 C363 1.327 . S
C363 H357 0.950 . S
C363 C362 1.327 . S
C363 C367 1.429 . S
C364 C347 1.574 . S
C364 H358 0.949 . S
C364 C368 1.368 . S
C365 C346 1.429 . S
C365 C359 1.429 . S
C365 C366 1.523 . S
C366 C347 1.368 . S
C366 C360 1.368 . S
C366 C365 1.523 . S
C367 C351 1.429 . S
C367 C363 1.429 . S
C367 C368 1.523 . S
C368 C352 1.368 . S
C368 C364 1.368 . S
C368 C367 1.523 . S
H369 C344 0.950 . S
H370 C346 0.950 . S
H371 C347 0.949 . S
H372 C349 0.950 . S
H373 C351 0.950 . S
C374 C375 1.349 . S
C374 C376 1.327 . S
C374 H399 0.950 . S
C375 C374 1.349 . S
C375 C391 1.349 . S
C376 C374 1.327 . S
C376 C395 1.429 . S
C376 H400 0.950 . S
C377 C394 1.574 . S
C377 C396 1.368 . S
C377 H401 0.949 . S
H378 C382 0.949 . S
C379 C380 1.349 . S
C379 C381 1.327 . S
C379 H402 0.950 . S
C380 C379 1.349 . S
C380 C392 1.349 . S
C381 C379 1.327 . S
C381 C397 1.429 . S
C381 H403 0.950 . S
C382 H378 0.949 . S
C382 C390 1.574 . S
C382 C398 1.368 . S
H383 C391 0.950 . S
H384 C389 0.950 . S
H385 C390 0.949 . S
H386 C392 0.950 . S
H387 C393 0.950 . S
H388 C394 0.949 . S
C389 H384 0.950 . S
C389 C391 1.327 . S
C389 C395 1.429 . S
C390 C382 1.574 . S
C390 H385 0.949 . S
C390 C396 1.368 . S
C391 C375 1.349 . S
C391 H383 0.950 . S
C391 C389 1.327 . S
C392 C380 1.349 . S
C392 H386 0.950 . S
C392 C393 1.327 . S
C393 H387 0.950 . S
C393 C392 1.327 . S
C393 C397 1.429 . S
C394 C377 1.574 . S
C394 H388 0.949 . S
C394 C398 1.368 . S
C395 C376 1.429 . S
C395 C389 1.429 . S
C395 C396 1.523 . S
C396 C377 1.368 . S
C396 C390 1.368 . S
C396 C395 1.523 . S
C397 C381 1.429 . S
C397 C393 1.429 . S
C397 C398 1.523 . S
C398 C382 1.368 . S
C398 C394 1.368 . S
C398 C397 1.523 . S
H399 C374 0.950 . S
H400 C376 0.950 . S
H401 C377 0.949 . S
H402 C379 0.950 . S
H403 C381 0.950 . S
C404 C405 1.349 . S
C404 C406 1.327 . S
C404 H429 0.950 . S
C405 C404 1.349 . S
C405 C421 1.349 . S
C406 C404 1.327 . S
C406 C425 1.429 . S
C406 H430 0.950 . S
C407 C424 1.574 . S
C407 C426 1.368 . S
C407 H431 0.949 . S
H408 C412 0.949 . S
C409 C410 1.334 1_455 S
C409 C411 1.323 1_455 S
C409 H432 0.970 . S
C410 C409 1.334 1_655 S
C410 C422 1.349 . S
C411 C409 1.323 1_655 S
C411 C427 1.429 . S
C411 H433 0.950 1_655 S
C412 H408 0.949 . S
C412 C420 1.574 . S
C412 C428 1.368 . S
H413 C421 0.950 . S
H414 C419 0.950 . S
H415 C420 0.949 . S
H416 C422 0.950 . S
H417 C423 0.950 . S
H418 C424 0.964 . S
C419 H414 0.950 . S
C419 C421 1.327 . S
C419 C425 1.429 . S
C420 C412 1.574 . S
C420 H415 0.949 . S
C420 C426 1.368 . S
C421 C405 1.349 . S
C421 H413 0.950 . S
C421 C419 1.327 . S
C422 C410 1.349 . S
C422 H416 0.950 . S
C422 C423 1.327 . S
C423 H417 0.950 . S
C423 C422 1.327 . S
C423 C427 1.429 . S
C424 C407 1.574 . S
C424 H418 0.964 . S
C424 C428 1.368 . S
C425 C406 1.429 . S
C425 C419 1.429 . S
C425 C426 1.523 . S
C426 C407 1.368 . S
C426 C420 1.368 . S
C426 C425 1.523 . S
C427 C411 1.429 . S
C427 C423 1.429 . S
C427 C428 1.523 . S
C428 C412 1.368 . S
C428 C424 1.368 . S
C428 C427 1.523 . S
H429 C404 0.950 . S
H430 C406 0.950 . S
H431 C407 0.949 . S
H432 C409 0.970 . S
H433 C411 0.950 1_455 S
C434 C435 1.349 . S
C434 C436 1.327 . S
C434 H459 0.950 . S
C435 C434 1.349 . S
C435 C451 1.349 . S
C436 C434 1.327 . S
C436 C455 1.429 . S
C436 H460 0.950 . S
C437 C454 1.574 . S
C437 C456 1.368 . S
C437 H461 0.949 . S
H438 C442 0.949 . S
C439 C440 1.349 . S
C439 C441 1.327 . S
C439 H462 0.950 . S
C440 C439 1.349 . S
C440 C452 1.349 . S
C441 C439 1.327 . S
C441 C457 1.429 . S
C441 H463 0.950 . S
C442 H438 0.949 . S
C442 C450 1.574 . S
C442 C458 1.368 . S
H443 C451 0.950 . S
H444 C449 0.950 . S
H445 C450 0.949 . S
H446 C452 0.950 . S
H447 C453 0.950 . S
H448 C454 0.949 . S
C449 H444 0.950 . S
C449 C451 1.327 . S
C449 C455 1.429 . S
C450 C442 1.574 . S
C450 H445 0.949 . S
C450 C456 1.368 . S
C451 C435 1.349 . S
C451 H443 0.950 . S
C451 C449 1.327 . S
C452 C440 1.349 . S
C452 H446 0.950 . S
C452 C453 1.327 . S
C453 H447 0.950 . S
C453 C452 1.327 . S
C453 C457 1.429 . S
C454 C437 1.574 . S
C454 H448 0.949 . S
C454 C458 1.368 . S
C455 C436 1.429 . S
C455 C449 1.429 . S
C455 C456 1.523 . S
C456 C437 1.368 . S
C456 C450 1.368 . S
C456 C455 1.523 . S
C457 C441 1.429 . S
C457 C453 1.429 . S
C457 C458 1.523 . S
C458 C442 1.368 . S
C458 C454 1.368 . S
C458 C457 1.523 . S
H459 C434 0.950 . S
H460 C436 0.950 . S
H461 C437 0.949 . S
H462 C439 0.950 . S
H463 C441 0.950 . S
C464 C465 1.349 . S
C464 C466 1.327 . S
C464 H489 0.950 . S
C465 C464 1.349 . S
C465 C481 1.349 . S
C466 C464 1.327 . S
C466 C485 1.429 . S
C466 H490 0.950 . S
C467 C484 1.574 . S
C467 C486 1.368 . S
C467 H491 0.949 . S
H468 C472 0.949 . S
C469 C470 1.349 . S
C469 C471 1.327 . S
C469 H492 0.950 . S
C470 C469 1.349 . S
C470 C482 1.349 . S
C471 C469 1.327 . S
C471 C487 1.429 . S
C471 H493 0.950 . S
C472 H468 0.949 . S
C472 C480 1.574 . S
C472 C488 1.368 . S
H473 C481 0.950 . S
H474 C479 0.950 . S
H475 C480 0.949 . S
H476 C482 0.950 . S
H477 C483 0.950 . S
H478 C484 0.949 . S
C479 H474 0.950 . S
C479 C481 1.327 . S
C479 C485 1.429 . S
C480 C472 1.574 . S
C480 H475 0.949 . S
C480 C486 1.368 . S
C481 C465 1.349 . S
C481 H473 0.950 . S
C481 C479 1.327 . S
C482 C470 1.349 . S
C482 H476 0.950 . S
C482 C483 1.327 . S
C483 H477 0.950 . S
C483 C482 1.327 . S
C483 C487 1.429 . S
C484 C467 1.574 . S
C484 H478 0.949 . S
C484 C488 1.368 . S
C485 C466 1.429 . S
C485 C479 1.429 . S
C485 C486 1.523 . S
C486 C467 1.368 . S
C486 C480 1.368 . S
C486 C485 1.523 . S
C487 C471 1.429 . S
C487 C483 1.429 . S
C487 C488 1.523 . S
C488 C472 1.368 . S
C488 C484 1.368 . S
C488 C487 1.523 . S
H489 C464 0.950 . S
H490 C466 0.950 . S
H491 C467 0.949 . S
H492 C469 0.950 . S
H493 C471 0.950 . S
C494 C495 1.349 . S
C494 C496 1.327 . S
C494 H519 0.950 . S
C495 C494 1.349 . S
C495 C511 1.349 . S
C496 C494 1.327 . S
C496 C515 1.429 . S
C496 H520 0.950 . S
C497 C514 1.574 . S
C497 C516 1.368 . S
C497 H521 0.949 . S
H498 C502 0.949 . S
C499 C500 1.349 . S
C499 C501 1.327 . S
C499 H522 0.950 1_655 S
C500 C499 1.349 . S
C500 C512 1.349 . S
C501 C499 1.327 . S
C501 C517 1.429 . S
C501 H523 0.950 . S
C502 H498 0.949 . S
C502 C510 1.574 . S
C502 C518 1.368 . S
H503 C511 0.950 . S
H504 C509 0.950 . S
H505 C510 0.949 . S
H506 C512 0.950 . S
H507 C513 0.950 . S
H508 C514 0.949 . S
C509 H504 0.950 . S
C509 C511 1.327 . S
C509 C515 1.429 . S
C510 C502 1.574 . S
C510 H505 0.949 . S
C510 C516 1.368 . S
C511 C495 1.349 . S
C511 H503 0.950 . S
C511 C509 1.327 . S
C512 C500 1.349 . S
C512 H506 0.950 . S
C512 C513 1.327 . S
C513 H507 0.950 . S
C513 C512 1.327 . S
C513 C517 1.429 . S
C514 C497 1.574 . S
C514 H508 0.949 . S
C514 C518 1.368 . S
C515 C496 1.429 . S
C515 C509 1.429 . S
C515 C516 1.523 . S
C516 C497 1.368 . S
C516 C510 1.368 . S
C516 C515 1.523 . S
C517 C501 1.429 . S
C517 C513 1.429 . S
C517 C518 1.523 . S
C518 C502 1.368 . S
C518 C514 1.368 . S
C518 C517 1.523 . S
H519 C494 0.950 . S
H520 C496 0.950 . S
H521 C497 0.949 . S
H522 C499 0.950 1_455 S
H523 C501 0.950 . S
C524 C525 1.349 . S
C524 C526 1.327 . S
C524 H549 0.950 . S
C525 C524 1.349 . S
C525 C541 1.349 . S
C526 C524 1.327 . S
C526 C545 1.429 . S
C526 H550 0.950 . S
C527 C544 1.574 . S
C527 C546 1.368 . S
C527 H551 0.949 . S
H528 C532 0.949 . S
C529 C530 1.349 . S
C529 C531 1.327 . S
C529 H552 0.950 . S
C530 C529 1.349 . S
C530 C542 1.349 . S
C531 C529 1.327 . S
C531 C547 1.429 . S
C531 H553 0.950 . S
C532 H528 0.949 . S
C532 C540 1.574 . S
C532 C548 1.368 . S
H533 C541 0.950 . S
H534 C539 0.950 . S
H535 C540 0.949 . S
H536 C542 0.950 . S
H537 C543 0.950 . S
H538 C544 0.949 . S
C539 H534 0.950 . S
C539 C541 1.327 . S
C539 C545 1.429 . S
C540 C532 1.574 . S
C540 H535 0.949 . S
C540 C546 1.368 . S
C541 C525 1.349 . S
C541 H533 0.950 . S
C541 C539 1.327 . S
C542 C530 1.349 . S
C542 H536 0.950 . S
C542 C543 1.327 . S
C543 H537 0.950 . S
C543 C542 1.327 . S
C543 C547 1.429 . S
C544 C527 1.574 . S
C544 H538 0.949 . S
C544 C548 1.368 . S
C545 C526 1.429 . S
C545 C539 1.429 . S
C545 C546 1.523 . S
C546 C527 1.368 . S
C546 C540 1.368 . S
C546 C545 1.523 . S
C547 C531 1.429 . S
C547 C543 1.429 . S
C547 C548 1.523 . S
C548 C532 1.368 . S
C548 C544 1.368 . S
C548 C547 1.523 . S
H549 C524 0.950 . S
H550 C526 0.950 . S
H551 C527 0.949 . S
H552 C529 0.950 . S
H553 C531 0.950 . S
C554 C555 1.349 . S
C554 C556 1.327 . S
C554 H579 0.950 . S
C555 C554 1.349 . S
C555 C571 1.349 . S
C556 C554 1.327 . S
C556 C575 1.429 . S
C556 H580 0.950 . S
C557 C574 1.574 . S
C557 C576 1.368 . S
C557 H581 0.949 . S
H558 C562 0.949 . S
C559 C560 1.349 . S
C559 C561 1.327 . S
C559 H582 0.950 . S
C560 C559 1.349 . S
C560 C572 1.349 . S
C561 C559 1.327 . S
C561 C577 1.429 . S
C561 H583 0.950 . S
C562 H558 0.949 . S
C562 C570 1.574 . S
C562 C578 1.368 . S
H563 C571 0.950 . S
H564 C569 0.950 . S
H565 C570 0.949 . S
H566 C572 0.950 . S
H567 C573 0.950 . S
H568 C574 0.949 . S
C569 H564 0.950 . S
C569 C571 1.327 . S
C569 C575 1.429 . S
C570 C562 1.574 . S
C570 H565 0.949 . S
C570 C576 1.368 . S
C571 C555 1.349 . S
C571 H563 0.950 . S
C571 C569 1.327 . S
C572 C560 1.349 . S
C572 H566 0.950 . S
C572 C573 1.327 . S
C573 H567 0.950 . S
C573 C572 1.327 . S
C573 C577 1.429 . S
C574 C557 1.574 . S
C574 H568 0.949 . S
C574 C578 1.368 . S
C575 C556 1.429 . S
C575 C569 1.429 . S
C575 C576 1.523 . S
C576 C557 1.368 . S
C576 C570 1.368 . S
C576 C575 1.523 . S
C577 C561 1.429 . S
C577 C573 1.429 . S
C577 C578 1.523 . S
C578 C562 1.368 . S
C578 C574 1.368 . S
C578 C577 1.523 . S
H579 C554 0.950 . S
H580 C556 0.950 . S
H581 C557 0.949 . S
H582 C559 0.950 . S
H583 C561 0.950 . S
C230 C160 1.643 . S
C225 C138 1.614 . S
C255 C21 1.556 . S
C260 C203 1.562 . S
C285 C60 1.625 . S
C290 C169 1.643 . S
C315 C99 1.547 . S
C320 C194 1.562 . S
C350 C156 1.614 . S
C345 C16 1.590 . S
C380 C198 1.708 . S
C375 C40 1.679 . S
C405 C79 1.584 . S
C410 C164 1.604 . S
C435 C133 1.672 . S
C440 C190 1.703 . S
C470 C219 1.702 . S
C465 C55 1.668 . S
C500 C185 1.613 . S
C495 C94 1.592 . S
C530 C207 1.708 . S
C525 C118 1.673 . S
C555 C1 1.589 . S
C560 C173 1.604 . S
