# Generated by pormake.
# Topology tsx, (6,3)-cn, num edge types: 1
# Building blocks:
#     Node 0, Type 0, BuildingBlock: CIFDUS_clean_sbu_1, # of connection points: 6
#     Node 1, Type 0, BuildingBlock: CIFDUS_clean_sbu_1, # of connection points: 6
#     Node 2, Type 1, BuildingBlock: KAKCAD_clean_linker_0, # of connection points: 3
#     Node 3, Type 1, BuildingBlock: KAKCAD_clean_linker_0, # of connection points: 3
#     Node 4, Type 1, BuildingBlock: KAKCAD_clean_linker_0, # of connection points: 3
#     Node 5, Type 1, BuildingBlock: KAKCAD_clean_linker_0, # of connection points: 3
#     Edge 6, Type (0, 1), BuildingBlock: FUNLAD_clean_linker_0, # of connection points: 2
#     Edge 7, Type (0, 1), BuildingBlock: FUNLAD_clean_linker_0, # of connection points: 2
#     Edge 8, Type (0, 1), BuildingBlock: FUNLAD_clean_linker_0, # of connection points: 2
#     Edge 9, Type (0, 1), BuildingBlock: FUNLAD_clean_linker_0, # of connection points: 2
#     Edge 10, Type (0, 1), BuildingBlock: FUNLAD_clean_linker_0, # of connection points: 2
#     Edge 11, Type (0, 1), BuildingBlock: FUNLAD_clean_linker_0, # of connection points: 2
#     Edge 12, Type (0, 1), BuildingBlock: FUNLAD_clean_linker_0, # of connection points: 2
#     Edge 13, Type (0, 1), BuildingBlock: FUNLAD_clean_linker_0, # of connection points: 2
#     Edge 14, Type (0, 1), BuildingBlock: FUNLAD_clean_linker_0, # of connection points: 2
#     Edge 15, Type (0, 1), BuildingBlock: FUNLAD_clean_linker_0, # of connection points: 2
#     Edge 16, Type (0, 1), BuildingBlock: FUNLAD_clean_linker_0, # of connection points: 2
#     Edge 17, Type (0, 1), BuildingBlock: FUNLAD_clean_linker_0, # of connection points: 2
# Relax obj value: 0.127
# Max RMSD: 0.156
# Mean RMSD: 0.118
data_MOF--net-tsx--node1-CIFDUS_clean_sbu_1--node2-KAKCAD_clean_linker_0--edge1-FUNLAD_clean_linker_0
_symmetry_space_group_name_H-M    P1
_symmetry_Int_Tables_number       1
_symmetry_cell_setting            triclinic
loop_
_symmetry_equiv_pos_as_xyz
'x, y, z'
_cell_length_a     25.016156
_cell_length_b     30.881299
_cell_length_c     51.018895
_cell_angle_alpha  97.148179
_cell_angle_beta   91.550015
_cell_angle_gamma 91.084031
loop_
_atom_site_label
_atom_site_type_symbol
_atom_site_fract_x
_atom_site_fract_y
_atom_site_fract_z
_atom_type_partial_charge
O0 O 1.00174 0.10112 0.01064 0.0
Mn1 Mn 0.04502 0.04296 0.00444 0.0
O2 O 0.91721 0.08421 0.99594 0.0
Mn3 Mn 0.93199 0.03002 0.97823 0.0
O4 O 0.08731 0.98421 0.99754 0.0
O5 O 0.11307 0.07996 0.01012 0.0
Mn6 Mn 0.15889 0.05226 0.02866 0.0
O7 O 0.04264 0.03745 0.04487 0.0
O8 O 0.17352 0.0007 0.00823 0.0
O9 O 0.04817 0.04789 0.96384 0.0
O10 O 0.96595 0.02956 0.94646 0.0
O11 O 0.19384 0.10279 0.02293 0.0
O12 O 0.12747 0.047 0.06067 0.0
C13 C 0.9415 0.97565 -0.0001 0.0
C14 C 0.95236 0.11099 0.00741 0.0
C15 C 0.13701 0.97422 0.99804 0.0
C16 C 0.1497 0.11038 0.01066 0.0
C17 C 0.07779 0.03991 0.06392 0.0
C18 C 0.01515 0.03937 0.944 0.0
O19 O 0.97708 0.00634 0.99908 0.0
O20 O 0.898 0.98018 0.98633 0.0
O21 O 0.50091 0.60299 0.51162 0.0
Mn22 Mn 0.54276 0.54408 0.50856 0.0
O23 O 0.41734 0.58622 0.49541 0.0
Mn24 Mn 0.43134 0.53016 0.48029 0.0
O25 O 0.58416 0.48498 0.50501 0.0
O26 O 0.61164 0.57956 0.51439 0.0
Mn27 Mn 0.6531 0.55588 0.53702 0.0
O28 O 0.53554 0.54254 0.54933 0.0
O29 O 0.66726 0.50005 0.52187 0.0
O30 O 0.54963 0.54491 0.4677 0.0
O31 O 0.46851 0.52524 0.44919 0.0
O32 O 0.6913 0.60323 0.52838 0.0
O33 O 0.61675 0.55888 0.56827 0.0
C34 C 0.43788 0.4792 0.50496 0.0
C35 C 0.45227 0.61333 0.50678 0.0
C36 C 0.63212 0.47348 0.51024 0.0
C37 C 0.64933 0.60875 0.51388 0.0
C38 C 0.56707 0.54991 0.56983 0.0
C39 C 0.51811 0.53454 0.44743 0.0
O40 O 0.47424 0.50873 0.50303 0.0
O41 O 0.39521 0.48268 0.49057 0.0
C42 C 0.03112 0.95935 0.3125 0.0
C43 C 0.02977 -0.00303 0.29952 0.0
C44 C 0.03148 0.96283 0.34013 0.0
C45 C 0.03041 0.00398 0.35536 0.0
C46 C 0.02963 0.04154 0.34237 0.0
C47 C 0.02931 0.03808 0.31482 0.0
C48 C 0.02891 0.00803 0.38468 0.0
C49 C 0.06193 0.9829 0.39922 0.0
C50 C 0.0609 0.98717 0.42706 0.0
C51 C 0.02625 0.01759 0.44027 0.0
C52 C 0.99357 0.04345 0.42591 0.0
C53 C 0.99475 0.03787 0.39821 0.0
C54 C 0.95833 0.07707 0.43921 0.0
C55 C 0.92407 0.06767 0.45926 0.0
C56 C 0.95621 0.11831 0.43033 0.0
C57 C 0.91897 0.14865 0.44021 0.0
C58 C 0.88285 0.13868 0.4593 0.0
C59 C 0.09724 0.9605 0.44198 0.0
C60 C 0.10819 0.91726 0.43169 0.0
C61 C 0.12311 0.97832 0.46589 0.0
C62 C 0.1601 0.9539 0.47868 0.0
C63 C 0.17242 0.91137 0.46769 0.0
C64 C 0.1455 0.89317 0.44427 0.0
C65 C 0.88661 0.09826 0.46924 0.0
H66 H 0.03109 0.92717 0.3013 0.0
H67 H 0.03154 0.93328 0.34956 0.0
H68 H 0.02979 0.07376 0.35353 0.0
H69 H 0.02955 0.06775 0.30552 0.0
H70 H 0.08969 0.96094 0.38879 0.0
H71 H 0.96829 0.05666 0.38704 0.0
H72 H 0.02497 0.0215 0.46164 0.0
H73 H 0.92478 0.03612 0.46645 0.0
H74 H 0.98293 0.1269 0.41533 0.0
H75 H 0.91825 0.17996 0.43271 0.0
H76 H 0.08808 0.90194 0.41376 0.0
H77 H 0.11612 0.01159 0.47432 0.0
H78 H 0.85942 0.08972 0.48404 0.0
H79 H 0.15323 0.8601 0.43566 0.0
H80 H 0.18027 0.96875 0.49672 0.0
C81 C 0.07312 0.07621 0.69246 0.0
C82 C 0.06558 0.03717 0.70352 0.0
C83 C 0.07362 0.07588 0.66502 0.0
C84 C 0.06693 0.03644 0.64806 0.0
C85 C 0.06109 -0.0027 0.65923 0.0
C86 C 0.06027 -0.00232 0.68661 0.0
C87 C 0.06478 0.03609 0.61884 0.0
C88 C 0.09934 0.06298 0.60656 0.0
C89 C 0.09712 0.06329 0.579 0.0
C90 C 0.05913 0.03617 0.5635 0.0
C91 C 0.0249 0.00816 0.57551 0.0
C92 C 0.02777 0.00894 0.60315 0.0
C93 C 0.98587 0.97735 0.56 0.0
C94 C 0.94962 0.99128 0.54136 0.0
C95 C 0.98089 0.9344 0.56622 0.0
C96 C 0.93835 0.90722 0.55584 0.0
C97 C 0.89982 0.92203 0.53874 0.0
C98 C 0.13449 0.093 0.56721 0.0
C99 C 0.11557 0.12181 0.55003 0.0
C100 C 0.18853 0.09631 0.57572 0.0
C101 C 0.22193 0.12956 0.56881 0.0
C102 C 0.20223 0.16034 0.5531 0.0
C103 C 0.14909 0.15521 0.54308 0.0
C104 C 0.90686 0.96372 0.53075 0.0
H105 H 0.07674 0.10718 0.705 0.0
H106 H 0.07763 0.10668 0.65709 0.0
H107 H 0.05702 0.96626 0.64679 0.0
H108 H 0.0552 0.967 0.69458 0.0
H109 H 0.12813 0.08399 0.61856 0.0
H110 H 1.00005 0.9888 0.61258 0.0
H111 H 0.05731 0.03592 0.54223 0.0
H112 H 0.95248 0.02419 0.53617 0.0
H113 H 0.00882 0.92235 0.58007 0.0
H114 H 0.93452 0.87494 0.56193 0.0
H115 H 0.07415 0.12006 0.54315 0.0
H116 H 0.20444 0.07418 0.58872 0.0
H117 H 0.87776 0.97584 0.5175 0.0
H118 H 0.13286 0.17785 0.53051 0.0
H119 H 0.2624 0.13245 0.57702 0.0
C120 C 0.51433 0.45743 0.8144 0.0
C121 C 0.51065 0.4958 0.80228 0.0
C122 C 0.51604 0.45939 0.84199 0.0
C123 C 0.51437 0.4998 0.85804 0.0
C124 C 0.51089 0.5381 0.84582 0.0
C125 C 0.50885 0.53611 0.81833 0.0
C126 C 0.51626 0.50237 0.88742 0.0
C127 C 0.55057 0.47603 0.90047 0.0
C128 C 0.55397 0.4797 0.92831 0.0
C129 C 0.52242 0.51072 0.94315 0.0
C130 C 0.48836 0.53762 0.93027 0.0
C131 C 0.48499 0.5326 0.90256 0.0
C132 C 0.45749 0.5728 0.94499 0.0
C133 C 0.42061 0.56401 0.96404 0.0
C134 C 0.46095 0.61505 0.93765 0.0
C135 C 0.42661 0.64735 0.94804 0.0
C136 C 0.38777 0.63838 0.96615 0.0
C137 C 0.59254 0.45227 0.94136 0.0
C138 C 0.59974 0.40857 0.93076 0.0
C139 C 0.62517 0.47007 0.96312 0.0
C140 C 0.66566 0.44533 0.97316 0.0
C141 C 0.67449 0.40241 0.96155 0.0
C142 C 0.64024 0.38407 0.94064 0.0
C143 C 0.38574 0.59651 0.97444 0.0
H144 H 0.5155 0.42584 0.80255 0.0
H145 H 0.51811 0.42923 0.85072 0.0
H146 H 0.51072 0.56988 0.85751 0.0
H147 H 0.50721 0.56633 0.80963 0.0
H148 H 0.57632 0.45375 0.88887 0.0
H149 H 0.45767 0.55263 0.89274 0.0
H150 H 0.52494 0.51447 0.96456 0.0
H151 H 0.41712 0.5316 0.96996 0.0
H152 H 0.4892 0.62273 0.92307 0.0
H153 H 0.42904 0.67889 0.94089 0.0
H154 H 0.57457 0.39344 0.91442 0.0
H155 H 0.62099 0.50368 0.97168 0.0
H156 H 0.35666 0.58867 0.98857 0.0
H157 H 0.64517 0.35076 0.93166 0.0
H158 H 0.69144 0.46038 0.98928 0.0
C159 C 0.56253 0.57861 0.19781 0.0
C160 C 0.55879 0.53788 0.20731 0.0
C161 C 0.56079 0.5813 0.17063 0.0
C162 C 0.55548 0.5433 0.15233 0.0
C163 C 0.55304 0.50254 0.16188 0.0
C164 C 0.55461 0.49987 0.18902 0.0
C165 C 0.5519 0.54608 0.12341 0.0
C166 C 0.58451 0.57566 0.11212 0.0
C167 C 0.58131 0.57895 0.08486 0.0
C168 C 0.54545 0.55092 0.06856 0.0
C169 C 0.51269 0.5205 0.07954 0.0
C170 C 0.51585 0.51906 0.10702 0.0
C171 C 0.47466 0.48984 0.06303 0.0
C172 C 0.44197 0.50361 0.04285 0.0
C173 C 0.46807 0.44676 0.06892 0.0
C174 C 0.42781 0.41921 0.05639 0.0
C175 C 0.39329 0.43357 0.03727 0.0
C176 C 0.61665 0.61154 0.07411 0.0
C177 C 0.62531 0.65315 0.08842 0.0
C178 C 0.64535 0.60057 0.05099 0.0
C179 C 0.68358 0.62987 0.04313 0.0
C180 C 0.69393 0.67078 0.0582 0.0
C181 C 0.66354 0.68216 0.08072 0.0
C182 C 0.40175 0.47562 0.03 0.0
H183 H 0.56511 0.6085 0.2114 0.0
H184 H 0.56221 0.61325 0.16396 0.0
H185 H 0.55006 0.47259 0.14835 0.0
H186 H 0.55249 0.46796 0.19571 0.0
H187 H 0.61354 0.59565 0.12461 0.0
H188 H 0.4893 0.49723 0.11586 0.0
H189 H 0.54316 0.55271 0.04748 0.0
H190 H 0.44592 0.53652 0.03778 0.0
H191 H 0.49348 0.4345 0.08374 0.0
H192 H 0.42328 0.3866 0.0619 0.0
H193 H 0.60331 0.663 0.1061 0.0
H194 H 0.63976 0.56877 0.03953 0.0
H195 H 0.37596 0.48743 0.01517 0.0
H196 H 0.67042 0.713 0.09306 0.0
H197 H 0.70539 0.62021 0.02538 0.0
C198 C 0.18317 0.16509 0.98368 0.0
C199 C 0.14385 0.15265 0.00053 0.0
C200 C 0.19641 0.20914 0.98309 0.0
C201 C 0.17066 0.24184 0.9996 0.0
C202 C 0.12702 0.22933 0.0141 0.0
C203 C 0.11369 0.18508 0.01457 0.0
C204 C 0.1941 0.28702 0.00609 0.0
C205 C 0.23495 0.30337 0.9932 0.0
C206 C 0.26928 0.34156 0.00469 0.0
C207 C 0.30039 0.36405 0.98794 0.0
C208 C 0.339 0.39558 0.99838 0.0
C209 C 0.34806 0.40457 0.02583 0.0
H210 H 0.25505 0.33497 0.0459 0.0
C211 C 0.31576 0.38319 0.04258 0.0
C212 C 0.2769 0.35215 0.03221 0.0
H213 H 0.32158 0.38965 0.06384 0.0
H214 H 0.20763 0.14059 0.97304 0.0
H215 H 0.23023 0.21662 0.97158 0.0
H216 H 0.10617 0.25359 0.02695 0.0
H217 H 0.08399 0.17634 0.02819 0.0
H218 H 0.18021 0.30603 0.02386 0.0
H219 H 0.24626 0.28697 0.97419 0.0
H220 H 0.29593 0.35627 0.96668 0.0
H221 H 0.36345 0.41138 0.98499 0.0
C222 C 0.1308 0.89237 0.995 0.0
C223 C 0.15432 0.93031 0.98732 0.0
C224 C 0.15595 0.85199 0.98963 0.0
C225 C 0.20462 0.84916 0.9762 0.0
C226 C 0.22535 0.88677 0.96689 0.0
C227 C 0.20089 0.92684 0.97259 0.0
C228 C 0.23764 0.80927 0.97263 0.0
C229 C 0.23084 0.77335 0.98487 0.0
C230 C 0.27132 0.73845 0.98278 0.0
C231 C 0.25528 0.69427 0.98004 0.0
C232 C 0.29324 0.66141 0.97585 0.0
C233 C 0.34802 0.67225 0.97475 0.0
H234 H 0.34015 0.78286 0.98651 0.0
C235 C 0.36407 0.71648 0.97944 0.0
C236 C 0.32627 0.74913 0.98333 0.0
H237 H 0.40598 0.726 0.9795 0.0
H238 H 0.09499 0.89437 0.00653 0.0
H239 H 0.13794 0.82371 0.9967 0.0
H240 H 0.26233 0.88574 0.95627 0.0
H241 H 0.21974 0.95564 0.96641 0.0
H242 H 0.27215 0.81074 0.96021 0.0
H243 H 0.19592 0.76911 0.99649 0.0
H244 H 0.21323 0.6852 0.97998 0.0
H245 H 0.27944 0.62769 0.97227 0.0
C246 C 0.94602 0.89613 0.99948 0.0
C247 C 0.94682 0.93757 0.01429 0.0
C248 C 0.9267 0.85958 0.01024 0.0
C249 C 0.90736 0.86395 0.03612 0.0
C250 C 0.91365 0.90477 0.05173 0.0
C251 C 0.93306 0.9413 0.04089 0.0
C252 C 0.87304 0.8296 0.046 0.0
C253 C 0.86439 0.78884 0.03338 0.0
C254 C 0.82109 0.75905 0.04059 0.0
C255 C 0.82677 0.71366 0.03541 0.0
C256 C 0.78557 0.68501 0.04088 0.0
C257 C 0.73716 0.70111 0.05122 0.0
H258 H 0.76569 0.80996 0.05379 0.0
C259 C 0.73113 0.74666 0.05574 0.0
C260 C 0.77251 0.77522 0.05058 0.0
H261 H 0.69407 0.76046 0.06298 0.0
H262 H 0.95533 0.89271 0.97871 0.0
H263 H 0.92291 0.82916 0.9973 0.0
H264 H 0.89936 0.9093 0.07172 0.0
H265 H 0.93181 0.97313 0.05244 0.0
H266 H 0.85098 0.83948 0.06373 0.0
H267 H 0.88884 0.77661 0.01698 0.0
H268 H 0.86344 0.70029 0.02734 0.0
H269 H 0.79214 0.65024 0.0374 0.0
C270 C 0.95899 0.19135 0.00521 0.0
C271 C 0.93441 0.15585 0.01521 0.0
C272 C 0.93284 0.2313 0.00605 0.0
C273 C 0.88197 0.23629 0.01716 0.0
C274 C 0.86018 0.20199 0.02937 0.0
C275 C 0.88572 0.16199 0.02807 0.0
C276 C 0.8482 0.27477 0.01434 0.0
C277 C 0.84776 0.29488 0.99233 0.0
C278 C 0.80524 0.32523 0.98559 0.0
C279 C 0.79422 0.32857 0.9588 0.0
C280 C 0.75227 0.35392 0.95117 0.0
C281 C 0.7205 0.37714 0.97017 0.0
H282 H 0.78265 0.34879 0.02563 0.0
C283 C 0.73275 0.37539 0.99708 0.0
C284 C 0.77459 0.34958 0.00475 0.0
H285 H 0.70917 0.39314 0.01218 0.0
H286 H 0.99626 0.18724 0.99495 0.0
H287 H 0.95144 0.25753 0.99708 0.0
H288 H 0.82138 0.20504 0.03829 0.0
H289 H 0.8659 0.135 0.03584 0.0
H290 H 0.81738 0.28192 0.02873 0.0
H291 H 0.87569 0.28453 0.97696 0.0
H292 H 0.81734 0.31058 0.94359 0.0
H293 H 0.74462 0.35527 0.93029 0.0
C294 C 0.62175 0.68485 0.51266 0.0
C295 C 0.64653 0.64778 0.50018 0.0
C296 C 0.6391 0.72669 0.50822 0.0
C297 C 0.68207 0.73191 0.49145 0.0
C298 C 0.70163 0.69466 0.47643 0.0
C299 C 0.68443 0.65295 0.48098 0.0
C300 C 0.71273 0.77405 0.49206 0.0
C301 C 0.71881 0.80238 0.51439 0.0
C302 C 0.76208 0.83666 0.51928 0.0
C303 C 0.77796 0.85055 0.54564 0.0
C304 C 0.82174 0.87899 0.5517 0.0
C305 C 0.85055 0.89499 0.53157 0.0
H306 H 0.77773 0.84509 0.47846 0.0
C307 C 0.83321 0.88327 0.50516 0.0
C308 C 0.78947 0.85411 0.499 0.0
H309 H 0.85453 0.89545 0.48929 0.0
H310 H 0.59311 0.68168 0.5279 0.0
H311 H 0.62149 0.75468 0.51938 0.0
H312 H 0.73415 0.69758 0.46311 0.0
H313 H 0.70478 0.62482 0.47146 0.0
H314 H 0.73811 0.77767 0.47551 0.0
H315 H 0.69615 0.79636 0.53148 0.0
H316 H 0.75758 0.83811 0.56172 0.0
H317 H 0.83365 0.88803 0.57226 0.0
C318 C 0.69495 0.41306 0.51518 0.0
C319 C 0.64818 0.42753 0.50338 0.0
C320 C 0.71257 0.37073 0.50844 0.0
C321 C 0.68377 0.34134 0.48974 0.0
C322 C 0.63675 0.35554 0.47801 0.0
C323 C 0.61883 0.39815 0.48491 0.0
C324 C 0.70496 0.29749 0.4805 0.0
C325 C 0.73844 0.27629 0.4955 0.0
C326 C 0.76942 0.23728 0.48539 0.0
C327 C 0.79518 0.2135 0.50367 0.0
C328 C 0.83053 0.18035 0.49524 0.0
C329 C 0.8413 0.17055 0.46831 0.0
H330 H 0.76078 0.24403 0.44353 0.0
C331 C 0.81405 0.19318 0.44994 0.0
C332 C 0.7787 0.22621 0.45832 0.0
H333 H 0.82093 0.18596 0.42899 0.0
H334 H 0.71868 0.43467 0.52953 0.0
H335 H 0.74994 0.36188 0.5173 0.0
H336 H 0.61419 0.33378 0.46325 0.0
H337 H 0.58293 0.40837 0.47529 0.0
H338 H 0.69355 0.28314 0.46059 0.0
H339 H 0.74523 0.28895 0.51617 0.0
H340 H 0.7892 0.22149 0.52466 0.0
H341 H 0.85109 0.16368 0.50989 0.0
C342 C 0.40654 0.44278 0.54206 0.0
C343 C 0.44178 0.44334 0.5212 0.0
C344 C 0.39081 0.40327 0.55051 0.0
C345 C 0.4094 0.36351 0.53784 0.0
C346 C 0.44948 0.36463 0.51914 0.0
C347 C 0.46527 0.40432 0.51069 0.0
C348 C 0.38371 0.3209 0.5417 0.0
C349 C 0.33052 0.31724 0.54527 0.0
C350 C 0.29954 0.27568 0.54638 0.0
C351 C 0.24394 0.27824 0.54938 0.0
C352 C 0.21243 0.24083 0.55081 0.0
C353 C 0.23557 0.19952 0.54923 0.0
H354 H 0.36526 0.23032 0.54198 0.0
C355 C 0.29114 0.19668 0.54582 0.0
C356 C 0.32281 0.23424 0.54442 0.0
H357 H 0.31028 0.16534 0.5443 0.0
H358 H 0.38747 0.47249 0.55022 0.0
H359 H 0.36151 0.40376 0.56577 0.0
H360 H 0.46506 0.33454 0.50934 0.0
H361 H 0.49153 0.40391 0.49414 0.0
H362 H 0.40802 0.29212 0.53884 0.0
H363 H 0.30715 0.34669 0.54638 0.0
H364 H 0.22461 0.30954 0.55095 0.0
H365 H 0.17004 0.24456 0.55396 0.0
C366 C 0.38274 0.6673 0.52035 0.0
C367 C 0.4353 0.65901 0.51246 0.0
C368 C 0.361 0.70844 0.51964 0.0
C369 C 0.39135 0.74237 0.51084 0.0
C370 C 0.44507 0.73476 0.5045 0.0
C371 C 0.46703 0.69351 0.50549 0.0
C372 C 0.36586 0.78306 0.50421 0.0
C373 C 0.31929 0.79786 0.51426 0.0
C374 C 0.28677 0.83119 0.5028 0.0
C375 C 0.24905 0.85465 0.51847 0.0
C376 C 0.21314 0.88205 0.50736 0.0
C377 C 0.21353 0.88581 0.48021 0.0
H378 H 0.3156 0.8179 0.46283 0.0
C379 C 0.25203 0.86316 0.46465 0.0
C380 C 0.28826 0.83622 0.47578 0.0
H381 H 0.2535 0.86565 0.44369 0.0
H382 H 0.35732 0.64113 0.52565 0.0
H383 H 0.31924 0.71229 0.52416 0.0
H384 H 0.46928 0.76012 0.49744 0.0
H385 H 0.50725 0.68776 0.49878 0.0
H386 H 0.38479 0.79992 0.48933 0.0
H387 H 0.30288 0.78392 0.53091 0.0
H388 H 0.24653 0.85099 0.53925 0.0
H389 H 0.18369 0.89889 0.5198 0.0
C390 C 0.10036 0.0297 0.11076 0.0
C391 C 0.06117 0.03326 0.09088 0.0
C392 C 0.08596 0.023 0.13615 0.0
C393 C 0.03183 0.01932 0.14244 0.0
C394 C 0.99247 0.02356 0.12279 0.0
C395 C 1.00694 0.03021 0.09719 0.0
C396 C 0.01593 0.01368 0.16974 0.0
C397 C 0.04727 0.99362 0.18627 0.0
C398 C 0.03721 0.99216 0.21478 0.0
C399 C 0.06704 0.96342 0.22836 0.0
C400 C 0.06351 0.96406 0.2557 0.0
C401 C 0.03017 0.9937 0.27018 0.0
H402 H 0.97965 0.04433 0.21972 0.0
C403 C 0.99911 0.02165 0.25653 0.0
C404 C 1.00265 0.02103 0.22917 0.0
H405 H 0.97253 0.04454 0.26706 0.0
H406 H 0.14256 0.03217 0.10679 0.0
H407 H 0.11756 0.0217 0.15093 0.0
H408 H 0.95045 0.02157 0.12722 0.0
H409 H 0.97573 0.03334 0.08248 0.0
H410 H 0.97754 0.02623 0.17608 0.0
H411 H 0.08298 0.97763 0.17866 0.0
H412 H 0.09431 0.94105 0.21788 0.0
H413 H 0.08843 0.94242 0.26559 0.0
C414 C 1.00722 0.01296 0.89605 0.0
C415 C 0.0339 0.03971 0.91678 0.0
C416 C 0.02105 0.0145 0.86995 0.0
C417 C 0.06122 0.04371 0.86372 0.0
C418 C 0.08983 0.06902 0.88452 0.0
C419 C 0.07636 0.06702 0.9109 0.0
C420 C 0.07388 0.0477 0.83572 0.0
C421 C 0.03684 0.03897 0.81594 0.0
C422 C 0.04706 0.03889 0.78739 0.0
C423 C 0.01188 0.01437 0.76913 0.0
C424 C 0.01847 0.01352 0.74204 0.0
C425 C 0.06012 0.03766 0.73245 0.0
H426 H 0.1162 0.08317 0.79133 0.0
C427 C 0.09523 0.06266 0.75063 0.0
C428 C 0.08896 0.06315 0.7779 0.0
H429 H 0.12766 0.08164 0.74376 0.0
H430 H 0.97534 0.99062 0.89998 0.0
H431 H 1.00003 0.99252 0.85477 0.0
H432 H 0.12169 0.09116 0.88032 0.0
H433 H 0.0979 0.08774 0.92655 0.0
H434 H 0.11414 0.05801 0.83154 0.0
H435 H 0.99637 0.02995 0.82063 0.0
H436 H 0.97903 -0.00437 0.77586 0.0
H437 H 0.99023 0.99453 0.72855 0.0
C438 C 0.58165 0.55337 0.6187 0.0
C439 C 0.54673 0.54528 0.59646 0.0
C440 C 0.56531 0.54545 0.64357 0.0
C441 C 0.51352 0.52917 0.64699 0.0
C442 C 0.47757 0.52291 0.62514 0.0
C443 C 0.49412 0.53053 0.6 0.0
C444 C 0.49672 0.51964 0.67345 0.0
C445 C 0.5312 0.50343 0.69033 0.0
C446 C 0.51984 0.49797 0.7182 0.0
C447 C 0.55229 0.47025 0.73124 0.0
C448 C 0.54781 0.46821 0.7583 0.0
C449 C 0.51112 0.49432 0.77305 0.0
H450 H 0.45661 0.54531 0.72357 0.0
C451 C 0.47742 0.52109 0.75988 0.0
C452 C 0.48165 0.52292 0.73273 0.0
H453 H 0.44847 0.54136 0.77069 0.0
H454 H 0.62224 0.56527 0.61694 0.0
H455 H 0.59342 0.55226 0.66015 0.0
H456 H 0.43714 0.51101 0.62738 0.0
H457 H 0.46612 0.52407 0.58334 0.0
H458 H 0.45551 0.5254 0.67876 0.0
H459 H 0.57056 0.49391 0.68348 0.0
H460 H 0.58234 0.45094 0.72059 0.0
H461 H 0.57473 0.4476 0.76788 0.0
C462 C 0.51586 0.50297 0.40023 0.0
C463 C 0.53884 0.53303 0.42049 0.0
C464 C 0.52978 0.50388 0.37407 0.0
C465 C 0.56614 0.53573 0.36733 0.0
C466 C 0.59166 0.56416 0.38777 0.0
C467 C 0.57822 0.56279 0.41421 0.0
C468 C 0.57725 0.54009 0.33918 0.0
C469 C 0.54081 0.52792 0.3195 0.0
C470 C 0.54885 0.53045 0.29095 0.0
C471 C 0.51497 0.50479 0.27258 0.0
C472 C 0.51886 0.50685 0.24555 0.0
C473 C 0.5565 0.53499 0.23613 0.0
H474 H 0.61303 0.57953 0.29511 0.0
C475 C 0.59054 0.56085 0.25444 0.0
C476 C 0.58691 0.55856 0.28161 0.0
H477 H 0.62002 0.58282 0.24774 0.0
H478 H 0.48641 0.47889 0.40459 0.0
H479 H 0.51145 0.47967 0.35923 0.0
H480 H 0.62061 0.58846 0.38321 0.0
H481 H 0.59678 0.58617 0.42952 0.0
H482 H 0.61545 0.55445 0.3349 0.0
H483 H 0.50224 0.51481 0.32432 0.0
H484 H 0.48501 0.48309 0.27917 0.0
H485 H 0.49144 0.48704 0.23204 0.0
loop_
_geom_bond_atom_site_label_1
_geom_bond_atom_site_label_2
_geom_bond_distance
_geom_bond_site_symmetry_2
_ccdc_geom_bond_type
O0 Mn1 2.163 . S
O0 C14 1.239 1_454 S
Mn1 O0 2.163 . S
Mn1 O4 2.160 1_544 S
Mn1 O5 2.221 . S
Mn1 O7 2.163 . S
Mn1 O9 2.160 1_554 S
Mn1 O19 2.221 1_444 S
O2 Mn3 2.087 . S
O2 C14 1.262 . S
Mn3 O2 2.087 . S
Mn3 O10 2.089 . S
Mn3 O19 2.290 1_545 S
Mn3 O20 2.251 1_545 S
O4 Mn1 2.160 1_566 S
O4 C15 1.239 1_556 S
O5 Mn1 2.221 . S
O5 Mn6 2.290 . S
O5 C16 1.278 . S
Mn6 O5 2.290 . S
Mn6 O8 2.089 1_545 S
Mn6 O11 2.251 . S
Mn6 O12 2.087 . S
O7 Mn1 2.163 . S
O7 C17 1.244 . S
O8 Mn6 2.089 1_565 S
O8 C15 1.256 . S
O9 Mn1 2.160 1_556 S
O9 C18 1.239 . S
O10 Mn3 2.089 . S
O10 C18 1.256 1_655 S
O11 Mn6 2.251 . S
O11 C16 1.241 . S
O12 Mn6 2.087 . S
O12 C17 1.256 . S
C13 O19 1.278 1_554 S
C13 O20 1.241 1_554 S
C14 O0 1.239 1_656 S
C14 O2 1.262 . S
C15 O4 1.239 1_554 S
C15 O8 1.256 . S
C16 O5 1.278 . S
C16 O11 1.241 . S
C17 O7 1.244 . S
C17 O12 1.256 . S
C18 O9 1.239 . S
C18 O10 1.256 1_455 S
O19 Mn1 2.221 1_666 S
O19 Mn3 2.290 1_565 S
O19 C13 1.278 1_556 S
O20 Mn3 2.251 1_565 S
O20 C13 1.241 1_556 S
O21 Mn22 2.163 . S
O21 C35 1.244 . S
Mn22 O21 2.163 . S
Mn22 O25 2.160 . S
Mn22 O26 2.221 . S
Mn22 O28 2.163 . S
Mn22 O30 2.160 . S
Mn22 O40 2.221 . S
O23 Mn24 2.087 . S
O23 C35 1.256 . S
Mn24 O23 2.087 . S
Mn24 O31 2.089 . S
Mn24 O40 2.290 . S
Mn24 O41 2.251 . S
O25 Mn22 2.160 . S
O25 C36 1.239 . S
O26 Mn22 2.221 . S
O26 Mn27 2.290 . S
O26 C37 1.278 . S
Mn27 O26 2.290 . S
Mn27 O29 2.089 . S
Mn27 O32 2.251 . S
Mn27 O33 2.087 . S
O28 Mn22 2.163 . S
O28 C38 1.244 . S
O29 Mn27 2.089 . S
O29 C36 1.256 . S
O30 Mn22 2.160 . S
O30 C39 1.239 . S
O31 Mn24 2.089 . S
O31 C39 1.256 . S
O32 Mn27 2.251 . S
O32 C37 1.241 . S
O33 Mn27 2.087 . S
O33 C38 1.256 . S
C34 O40 1.278 . S
C34 O41 1.241 . S
C35 O21 1.244 . S
C35 O23 1.256 . S
C36 O25 1.239 . S
C36 O29 1.256 . S
C37 O26 1.278 . S
C37 O32 1.241 . S
C38 O28 1.244 . S
C38 O33 1.256 . S
C39 O30 1.239 . S
C39 O31 1.256 . S
O40 Mn22 2.221 . S
O40 Mn24 2.290 . S
O40 C34 1.278 . S
O41 Mn24 2.251 . S
O41 C34 1.241 . S
C42 C43 1.386 . S
C42 C44 1.397 . S
C42 H66 0.931 . S
C43 C42 1.386 . S
C43 C47 1.397 1_565 S
C44 C42 1.397 . S
C44 C45 1.384 . S
C44 H67 0.930 . S
C45 C44 1.384 . S
C45 C46 1.377 1_565 S
C45 C48 1.479 . S
C46 C45 1.377 1_545 S
C46 C47 1.389 . S
C46 H68 0.929 . S
C47 C43 1.397 1_545 S
C47 C46 1.389 . S
C47 H69 0.931 . S
C48 C45 1.479 . S
C48 C49 1.397 . S
C48 C53 1.382 1_565 S
C49 C48 1.397 . S
C49 C50 1.401 . S
C49 H70 0.930 . S
C50 C49 1.401 . S
C50 C51 1.376 1_565 S
C50 C59 1.511 . S
C51 C50 1.376 1_545 S
C51 C52 1.392 . S
C51 H72 0.931 . S
C52 C51 1.392 . S
C52 C53 1.361 . S
C52 C54 1.500 1_455 S
C53 C48 1.382 1_545 S
C53 C52 1.361 . S
C53 H71 0.931 1_455 S
C54 C52 1.500 1_655 S
C54 C55 1.371 . S
C54 C56 1.365 . S
C55 C54 1.371 . S
C55 C65 1.386 . S
C55 H73 0.931 . S
C56 C54 1.365 . S
C56 C57 1.409 . S
C56 H74 0.929 . S
C57 C56 1.409 . S
C57 C58 1.380 . S
C57 H75 0.930 . S
C58 C57 1.380 . S
C58 C65 1.357 . S
C59 C50 1.511 . S
C59 C60 1.341 . S
C59 C61 1.371 . S
C60 C59 1.341 . S
C60 C64 1.394 . S
C60 H76 0.930 . S
C61 C59 1.371 . S
C61 C62 1.392 . S
C61 H77 0.931 . S
C62 C61 1.392 . S
C62 C63 1.331 . S
C62 H80 0.932 . S
C63 C62 1.331 . S
C63 C64 1.336 . S
C64 C60 1.394 . S
C64 C63 1.336 . S
C64 H79 0.929 . S
C65 C55 1.386 . S
C65 C58 1.357 . S
C65 H78 0.928 . S
H66 C42 0.931 . S
H67 C44 0.930 . S
H68 C46 0.929 . S
H69 C47 0.931 . S
H70 C49 0.930 . S
H71 C53 0.931 1_655 S
H72 C51 0.931 . S
H73 C55 0.931 . S
H74 C56 0.929 . S
H75 C57 0.930 . S
H76 C60 0.930 . S
H77 C61 0.931 . S
H78 C65 0.928 . S
H79 C64 0.929 . S
H80 C62 0.932 . S
C81 C82 1.386 . S
C81 C83 1.397 . S
C81 H105 0.931 . S
C82 C81 1.386 . S
C82 C86 1.397 . S
C83 C81 1.397 . S
C83 C84 1.384 . S
C83 H106 0.930 . S
C84 C83 1.384 . S
C84 C85 1.377 . S
C84 C87 1.481 . S
C85 C84 1.377 . S
C85 C86 1.389 . S
C85 H107 0.929 . S
C86 C82 1.397 . S
C86 C85 1.389 . S
C86 H108 0.931 . S
C87 C84 1.481 . S
C87 C88 1.387 . S
C87 C92 1.390 1_455 S
C88 C87 1.387 . S
C88 C89 1.401 . S
C88 H109 0.930 . S
C89 C88 1.401 . S
C89 C90 1.376 1_455 S
C89 C98 1.511 . S
C90 C89 1.376 1_655 S
C90 C91 1.392 . S
C90 H111 0.931 . S
C91 C90 1.392 . S
C91 C92 1.361 . S
C91 C93 1.500 . S
C92 C87 1.390 1_655 S
C92 C91 1.361 . S
C92 H110 0.931 . S
C93 C91 1.500 . S
C93 C94 1.371 . S
C93 C95 1.365 1_545 S
C94 C93 1.371 . S
C94 C104 1.386 1_545 S
C94 H112 0.931 . S
C95 C93 1.365 1_565 S
C95 C96 1.409 . S
C95 H113 0.929 . S
C96 C95 1.409 . S
C96 C97 1.380 . S
C96 H114 0.930 . S
C97 C96 1.380 . S
C97 C104 1.357 . S
C98 C89 1.511 . S
C98 C99 1.341 . S
C98 C100 1.371 . S
C99 C98 1.341 . S
C99 C103 1.394 . S
C99 H115 0.930 . S
C100 C98 1.371 . S
C100 C101 1.392 . S
C100 H116 0.931 . S
C101 C100 1.392 . S
C101 C102 1.331 . S
C101 H119 0.932 . S
C102 C101 1.331 . S
C102 C103 1.336 . S
C103 C99 1.394 . S
C103 C102 1.336 . S
C103 H118 0.929 . S
C104 C94 1.386 1_565 S
C104 C97 1.357 . S
C104 H117 0.928 . S
H105 C81 0.931 . S
H106 C83 0.930 . S
H107 C85 0.929 . S
H108 C86 0.931 . S
H109 C88 0.930 . S
H110 C92 0.931 . S
H111 C90 0.931 . S
H112 C94 0.931 . S
H113 C95 0.929 . S
H114 C96 0.930 . S
H115 C99 0.930 . S
H116 C100 0.931 . S
H117 C104 0.928 . S
H118 C103 0.929 . S
H119 C101 0.932 . S
C120 C121 1.386 . S
C120 C122 1.397 . S
C120 H144 0.931 . S
C121 C120 1.386 . S
C121 C125 1.397 . S
C122 C120 1.397 . S
C122 C123 1.384 . S
C122 H145 0.930 . S
C123 C122 1.384 . S
C123 C124 1.377 . S
C123 C126 1.481 . S
C124 C123 1.377 . S
C124 C125 1.389 . S
C124 H146 0.929 . S
C125 C121 1.397 . S
C125 C124 1.389 . S
C125 H147 0.931 . S
C126 C123 1.481 . S
C126 C127 1.387 . S
C126 C131 1.390 . S
C127 C126 1.387 . S
C127 C128 1.401 . S
C127 H148 0.930 . S
C128 C127 1.401 . S
C128 C129 1.376 . S
C128 C137 1.511 . S
C129 C128 1.376 . S
C129 C130 1.392 . S
C129 H150 0.931 . S
C130 C129 1.392 . S
C130 C131 1.361 . S
C130 C132 1.500 . S
C131 C126 1.390 . S
C131 C130 1.361 . S
C131 H149 0.931 . S
C132 C130 1.500 . S
C132 C133 1.371 . S
C132 C134 1.365 . S
C133 C132 1.371 . S
C133 C143 1.386 . S
C133 H151 0.931 . S
C134 C132 1.365 . S
C134 C135 1.409 . S
C134 H152 0.929 . S
C135 C134 1.409 . S
C135 C136 1.380 . S
C135 H153 0.930 . S
C136 C135 1.380 . S
C136 C143 1.357 . S
C137 C128 1.511 . S
C137 C138 1.341 . S
C137 C139 1.371 . S
C138 C137 1.341 . S
C138 C142 1.394 . S
C138 H154 0.930 . S
C139 C137 1.371 . S
C139 C140 1.392 . S
C139 H155 0.931 . S
C140 C139 1.392 . S
C140 C141 1.331 . S
C140 H158 0.932 . S
C141 C140 1.331 . S
C141 C142 1.336 . S
C142 C138 1.394 . S
C142 C141 1.336 . S
C142 H157 0.929 . S
C143 C133 1.386 . S
C143 C136 1.357 . S
C143 H156 0.928 . S
H144 C120 0.931 . S
H145 C122 0.930 . S
H146 C124 0.929 . S
H147 C125 0.931 . S
H148 C127 0.930 . S
H149 C131 0.931 . S
H150 C129 0.931 . S
H151 C133 0.931 . S
H152 C134 0.929 . S
H153 C135 0.930 . S
H154 C138 0.930 . S
H155 C139 0.931 . S
H156 C143 0.928 . S
H157 C142 0.929 . S
H158 C140 0.932 . S
C159 C160 1.386 . S
C159 C161 1.397 . S
C159 H183 0.931 . S
C160 C159 1.386 . S
C160 C164 1.397 . S
C161 C159 1.397 . S
C161 C162 1.384 . S
C161 H184 0.930 . S
C162 C161 1.384 . S
C162 C163 1.377 . S
C162 C165 1.481 . S
C163 C162 1.377 . S
C163 C164 1.389 . S
C163 H185 0.929 . S
C164 C160 1.397 . S
C164 C163 1.389 . S
C164 H186 0.931 . S
C165 C162 1.481 . S
C165 C166 1.387 . S
C165 C170 1.390 . S
C166 C165 1.387 . S
C166 C167 1.401 . S
C166 H187 0.930 . S
C167 C166 1.401 . S
C167 C168 1.376 . S
C167 C176 1.511 . S
C168 C167 1.376 . S
C168 C169 1.392 . S
C168 H189 0.931 . S
C169 C168 1.392 . S
C169 C170 1.361 . S
C169 C171 1.500 . S
C170 C165 1.390 . S
C170 C169 1.361 . S
C170 H188 0.931 . S
C171 C169 1.500 . S
C171 C172 1.371 . S
C171 C173 1.365 . S
C172 C171 1.371 . S
C172 C182 1.386 . S
C172 H190 0.931 . S
C173 C171 1.365 . S
C173 C174 1.409 . S
C173 H191 0.929 . S
C174 C173 1.409 . S
C174 C175 1.380 . S
C174 H192 0.930 . S
C175 C174 1.380 . S
C175 C182 1.357 . S
C176 C167 1.511 . S
C176 C177 1.341 . S
C176 C178 1.371 . S
C177 C176 1.341 . S
C177 C181 1.394 . S
C177 H193 0.930 . S
C178 C176 1.371 . S
C178 C179 1.392 . S
C178 H194 0.931 . S
C179 C178 1.392 . S
C179 C180 1.331 . S
C179 H197 0.932 . S
C180 C179 1.331 . S
C180 C181 1.336 . S
C181 C177 1.394 . S
C181 C180 1.336 . S
C181 H196 0.929 . S
C182 C172 1.386 . S
C182 C175 1.357 . S
C182 H195 0.928 . S
H183 C159 0.931 . S
H184 C161 0.930 . S
H185 C163 0.929 . S
H186 C164 0.931 . S
H187 C166 0.930 . S
H188 C170 0.931 . S
H189 C168 0.931 . S
H190 C172 0.931 . S
H191 C173 0.929 . S
H192 C174 0.930 . S
H193 C177 0.930 . S
H194 C178 0.931 . S
H195 C182 0.928 . S
H196 C181 0.929 . S
H197 C179 0.932 . S
C198 C199 1.386 1_556 S
C198 C200 1.378 1_556 S
C198 H214 0.951 . S
C199 C198 1.386 1_554 S
C199 C203 1.383 . S
C200 C198 1.378 1_554 S
C200 C201 1.434 . S
C200 H215 0.924 1_554 S
C201 C200 1.434 . S
C201 C202 1.375 . S
C201 C204 1.481 . S
C202 C201 1.375 . S
C202 C203 1.367 . S
C202 H216 0.951 . S
C203 C199 1.383 . S
C203 C202 1.367 . S
C203 H217 0.950 . S
C204 C201 1.481 . S
C204 C205 1.297 . S
C204 H218 0.950 . S
C205 C204 1.297 . S
C205 C206 1.479 . S
C205 H219 0.950 . S
C206 C205 1.479 . S
C206 C207 1.375 . S
C206 C212 1.404 . S
C207 C206 1.375 . S
C207 C208 1.369 . S
C207 H220 0.950 1_554 S
C208 C207 1.369 . S
C208 C209 1.392 . S
C208 H221 0.951 1_554 S
C209 C208 1.392 . S
C209 C211 1.384 . S
H210 C212 0.949 . S
C211 C209 1.384 . S
C211 C212 1.385 . S
C211 H213 0.950 . S
C212 C206 1.404 . S
C212 H210 0.949 . S
C212 C211 1.385 . S
H213 C211 0.950 . S
H214 C198 0.951 . S
H215 C200 0.924 1_556 S
H216 C202 0.951 . S
H217 C203 0.950 . S
H218 C204 0.950 . S
H219 C205 0.950 . S
H220 C207 0.950 1_556 S
H221 C208 0.951 1_556 S
C222 C223 1.386 1_556 S
C222 C224 1.383 . S
C222 H238 0.951 . S
C223 C222 1.386 1_554 S
C223 C227 1.379 1_554 S
C224 C222 1.383 . S
C224 C225 1.402 . S
C224 H239 0.951 . S
C225 C224 1.402 . S
C225 C226 1.375 . S
C225 C228 1.481 . S
C226 C225 1.375 . S
C226 C227 1.371 . S
C226 H240 0.951 . S
C227 C223 1.379 1_556 S
C227 C226 1.371 . S
C227 H241 0.951 1_556 S
C228 C225 1.481 . S
C228 C229 1.297 . S
C228 H242 0.950 . S
C229 C228 1.297 . S
C229 C230 1.479 . S
C229 H243 0.950 . S
C230 C229 1.479 . S
C230 C231 1.375 . S
C230 C236 1.404 . S
C231 C230 1.375 . S
C231 C232 1.369 . S
C231 H244 0.950 . S
C232 C231 1.369 . S
C232 C233 1.392 . S
C232 H245 0.951 . S
C233 C232 1.392 . S
C233 C235 1.384 . S
H234 C236 0.949 . S
C235 C233 1.384 . S
C235 C236 1.385 . S
C235 H237 0.950 . S
C236 C230 1.404 . S
C236 H234 0.949 . S
C236 C235 1.385 . S
H237 C235 0.950 . S
H238 C222 0.951 . S
H239 C224 0.951 . S
H240 C226 0.951 . S
H241 C227 0.951 1_554 S
H242 C228 0.950 . S
H243 C229 0.950 . S
H244 C231 0.950 . S
H245 C232 0.951 . S
C246 C247 1.387 . S
C246 C248 1.383 . S
C246 H262 0.949 1_554 S
C247 C246 1.387 . S
C247 C251 1.383 . S
C248 C246 1.383 . S
C248 C249 1.402 . S
C248 H263 0.951 1_554 S
C249 C248 1.402 . S
C249 C250 1.375 . S
C249 C252 1.481 . S
C250 C249 1.375 . S
C250 C251 1.367 . S
C250 H264 0.951 . S
C251 C247 1.383 . S
C251 C250 1.367 . S
C251 H265 0.950 . S
C252 C249 1.481 . S
C252 C253 1.297 . S
C252 H266 0.950 . S
C253 C252 1.297 . S
C253 C254 1.479 . S
C253 H267 0.950 . S
C254 C253 1.479 . S
C254 C255 1.375 . S
C254 C260 1.404 . S
C255 C254 1.375 . S
C255 C256 1.369 . S
C255 H268 0.950 . S
C256 C255 1.369 . S
C256 C257 1.392 . S
C256 H269 0.951 . S
C257 C256 1.392 . S
C257 C259 1.384 . S
H258 C260 0.949 . S
C259 C257 1.384 . S
C259 C260 1.385 . S
C259 H261 0.950 . S
C260 C254 1.404 . S
C260 H258 0.949 . S
C260 C259 1.385 . S
H261 C259 0.950 . S
H262 C246 0.949 1_556 S
H263 C248 0.951 1_556 S
H264 C250 0.951 . S
H265 C251 0.950 . S
H266 C252 0.950 . S
H267 C253 0.950 . S
H268 C255 0.950 . S
H269 C256 0.951 . S
C270 C271 1.386 1_556 S
C270 C272 1.383 . S
C270 H286 0.951 . S
C271 C270 1.386 1_554 S
C271 C275 1.383 . S
C272 C270 1.383 . S
C272 C273 1.402 1_556 S
C272 H287 0.951 . S
C273 C272 1.402 1_554 S
C273 C274 1.375 . S
C273 C276 1.481 . S
C274 C273 1.375 . S
C274 C275 1.367 . S
C274 H288 0.951 . S
C275 C271 1.383 . S
C275 C274 1.367 . S
C275 H289 0.950 . S
C276 C273 1.481 . S
C276 C277 1.297 1_554 S
C276 H290 0.950 . S
C277 C276 1.297 1_556 S
C277 C278 1.479 . S
C277 H291 0.950 . S
C278 C277 1.479 . S
C278 C279 1.375 . S
C278 C284 1.404 1_556 S
C279 C278 1.375 . S
C279 C280 1.369 . S
C279 H292 0.950 . S
C280 C279 1.369 . S
C280 C281 1.392 . S
C280 H293 0.951 . S
C281 C280 1.392 . S
C281 C283 1.418 . S
H282 C284 0.949 . S
C283 C281 1.418 . S
C283 C284 1.378 1_556 S
C283 H285 0.925 1_556 S
C284 C278 1.404 1_554 S
C284 H282 0.949 . S
C284 C283 1.378 1_554 S
H285 C283 0.925 1_554 S
H286 C270 0.951 . S
H287 C272 0.951 . S
H288 C274 0.951 . S
H289 C275 0.950 . S
H290 C276 0.950 . S
H291 C277 0.950 . S
H292 C279 0.950 . S
H293 C280 0.951 . S
C294 C295 1.386 . S
C294 C296 1.383 . S
C294 H310 0.951 . S
C295 C294 1.386 . S
C295 C299 1.383 . S
C296 C294 1.383 . S
C296 C297 1.402 . S
C296 H311 0.951 . S
C297 C296 1.402 . S
C297 C298 1.375 . S
C297 C300 1.481 . S
C298 C297 1.375 . S
C298 C299 1.367 . S
C298 H312 0.951 . S
C299 C295 1.383 . S
C299 C298 1.367 . S
C299 H313 0.950 . S
C300 C297 1.481 . S
C300 C301 1.297 . S
C300 H314 0.950 . S
C301 C300 1.297 . S
C301 C302 1.479 . S
C301 H315 0.950 . S
C302 C301 1.479 . S
C302 C303 1.375 . S
C302 C308 1.404 . S
C303 C302 1.375 . S
C303 C304 1.369 . S
C303 H316 0.950 . S
C304 C303 1.369 . S
C304 C305 1.392 . S
C304 H317 0.951 . S
C305 C304 1.392 . S
C305 C307 1.384 . S
H306 C308 0.949 . S
C307 C305 1.384 . S
C307 C308 1.385 . S
C307 H309 0.950 . S
C308 C302 1.404 . S
C308 H306 0.949 . S
C308 C307 1.385 . S
H309 C307 0.950 . S
H310 C294 0.951 . S
H311 C296 0.951 . S
H312 C298 0.951 . S
H313 C299 0.950 . S
H314 C300 0.950 . S
H315 C301 0.950 . S
H316 C303 0.950 . S
H317 C304 0.951 . S
C318 C319 1.386 . S
C318 C320 1.383 . S
C318 H334 0.951 . S
C319 C318 1.386 . S
C319 C323 1.383 . S
C320 C318 1.383 . S
C320 C321 1.402 . S
C320 H335 0.951 . S
C321 C320 1.402 . S
C321 C322 1.375 . S
C321 C324 1.481 . S
C322 C321 1.375 . S
C322 C323 1.367 . S
C322 H336 0.951 . S
C323 C319 1.383 . S
C323 C322 1.367 . S
C323 H337 0.950 . S
C324 C321 1.481 . S
C324 C325 1.297 . S
C324 H338 0.950 . S
C325 C324 1.297 . S
C325 C326 1.479 . S
C325 H339 0.950 . S
C326 C325 1.479 . S
C326 C327 1.375 . S
C326 C332 1.404 . S
C327 C326 1.375 . S
C327 C328 1.369 . S
C327 H340 0.950 . S
C328 C327 1.369 . S
C328 C329 1.392 . S
C328 H341 0.951 . S
C329 C328 1.392 . S
C329 C331 1.384 . S
H330 C332 0.949 . S
C331 C329 1.384 . S
C331 C332 1.385 . S
C331 H333 0.950 . S
C332 C326 1.404 . S
C332 H330 0.949 . S
C332 C331 1.385 . S
H333 C331 0.950 . S
H334 C318 0.951 . S
H335 C320 0.951 . S
H336 C322 0.951 . S
H337 C323 0.950 . S
H338 C324 0.950 . S
H339 C325 0.950 . S
H340 C327 0.950 . S
H341 C328 0.951 . S
C342 C343 1.386 . S
C342 C344 1.383 . S
C342 H358 0.951 . S
C343 C342 1.386 . S
C343 C347 1.383 . S
C344 C342 1.383 . S
C344 C345 1.402 . S
C344 H359 0.951 . S
C345 C344 1.402 . S
C345 C346 1.375 . S
C345 C348 1.481 . S
C346 C345 1.375 . S
C346 C347 1.367 . S
C346 H360 0.951 . S
C347 C343 1.383 . S
C347 C346 1.367 . S
C347 H361 0.950 . S
C348 C345 1.481 . S
C348 C349 1.297 . S
C348 H362 0.950 . S
C349 C348 1.297 . S
C349 C350 1.479 . S
C349 H363 0.950 . S
C350 C349 1.479 . S
C350 C351 1.375 . S
C350 C356 1.404 . S
C351 C350 1.375 . S
C351 C352 1.369 . S
C351 H364 0.950 . S
C352 C351 1.369 . S
C352 C353 1.392 . S
C352 H365 0.951 . S
C353 C352 1.392 . S
C353 C355 1.384 . S
H354 C356 0.949 . S
C355 C353 1.384 . S
C355 C356 1.385 . S
C355 H357 0.950 . S
C356 C350 1.404 . S
C356 H354 0.949 . S
C356 C355 1.385 . S
H357 C355 0.950 . S
H358 C342 0.951 . S
H359 C344 0.951 . S
H360 C346 0.951 . S
H361 C347 0.950 . S
H362 C348 0.950 . S
H363 C349 0.950 . S
H364 C351 0.950 . S
H365 C352 0.951 . S
C366 C367 1.386 . S
C366 C368 1.383 . S
C366 H382 0.951 . S
C367 C366 1.386 . S
C367 C371 1.383 . S
C368 C366 1.383 . S
C368 C369 1.402 . S
C368 H383 0.951 . S
C369 C368 1.402 . S
C369 C370 1.375 . S
C369 C372 1.481 . S
C370 C369 1.375 . S
C370 C371 1.367 . S
C370 H384 0.951 . S
C371 C367 1.383 . S
C371 C370 1.367 . S
C371 H385 0.950 . S
C372 C369 1.481 . S
C372 C373 1.297 . S
C372 H386 0.950 . S
C373 C372 1.297 . S
C373 C374 1.479 . S
C373 H387 0.950 . S
C374 C373 1.479 . S
C374 C375 1.375 . S
C374 C380 1.404 . S
C375 C374 1.375 . S
C375 C376 1.369 . S
C375 H388 0.950 . S
C376 C375 1.369 . S
C376 C377 1.392 . S
C376 H389 0.951 . S
C377 C376 1.392 . S
C377 C379 1.384 . S
H378 C380 0.949 . S
C379 C377 1.384 . S
C379 C380 1.385 . S
C379 H381 0.950 . S
C380 C374 1.404 . S
C380 H378 0.949 . S
C380 C379 1.385 . S
H381 C379 0.950 . S
H382 C366 0.951 . S
H383 C368 0.951 . S
H384 C370 0.951 . S
H385 C371 0.950 . S
H386 C372 0.950 . S
H387 C373 0.950 . S
H388 C375 0.950 . S
H389 C376 0.951 . S
C390 C391 1.386 . S
C390 C392 1.383 . S
C390 H406 0.951 . S
C391 C390 1.386 . S
C391 C395 1.397 . S
C392 C390 1.383 . S
C392 C393 1.402 . S
C392 H407 0.951 . S
C393 C392 1.402 . S
C393 C394 1.375 1_455 S
C393 C396 1.481 . S
C394 C393 1.375 1_655 S
C394 C395 1.365 1_655 S
C394 H408 0.951 . S
C395 C391 1.397 . S
C395 C394 1.365 1_455 S
C395 H409 0.938 1_455 S
C396 C393 1.481 . S
C396 C397 1.297 . S
C396 H410 0.950 1_455 S
C397 C396 1.297 . S
C397 C398 1.479 . S
C397 H411 0.950 . S
C398 C397 1.479 . S
C398 C399 1.375 . S
C398 C404 1.404 . S
C399 C398 1.375 . S
C399 C400 1.369 . S
C399 H412 0.950 . S
C400 C399 1.369 . S
C400 C401 1.392 . S
C400 H413 0.951 1_545 S
C401 C400 1.392 . S
C401 C403 1.384 . S
H402 C404 0.949 1_655 S
C403 C401 1.384 . S
C403 C404 1.385 . S
C403 H405 0.950 1_455 S
C404 C398 1.404 . S
C404 H402 0.949 1_455 S
C404 C403 1.385 . S
H405 C403 0.950 1_655 S
H406 C390 0.951 . S
H407 C392 0.951 . S
H408 C394 0.951 . S
H409 C395 0.938 1_655 S
H410 C396 0.950 1_655 S
H411 C397 0.950 . S
H412 C399 0.950 . S
H413 C400 0.951 1_565 S
C414 C415 1.375 1_655 S
C414 C416 1.383 . S
C414 H430 0.961 . S
C415 C414 1.375 1_455 S
C415 C419 1.383 . S
C416 C414 1.383 . S
C416 C417 1.388 1_655 S
C416 H431 0.965 . S
C417 C416 1.388 1_455 S
C417 C418 1.375 . S
C417 C420 1.481 . S
C418 C417 1.375 . S
C418 C419 1.367 . S
C418 H432 0.951 . S
C419 C415 1.383 . S
C419 C418 1.367 . S
C419 H433 0.950 . S
C420 C417 1.481 . S
C420 C421 1.297 . S
C420 H434 0.950 . S
C421 C420 1.297 . S
C421 C422 1.479 . S
C421 H435 0.950 1_455 S
C422 C421 1.479 . S
C422 C423 1.375 1_455 S
C422 C428 1.404 . S
C423 C422 1.375 1_655 S
C423 C424 1.369 . S
C423 H436 0.950 . S
C424 C423 1.369 . S
C424 C425 1.392 1_655 S
C424 H437 0.951 . S
C425 C424 1.392 1_455 S
C425 C427 1.384 . S
H426 C428 0.949 . S
C427 C425 1.384 . S
C427 C428 1.385 . S
C427 H429 0.950 . S
C428 C422 1.404 . S
C428 H426 0.949 . S
C428 C427 1.385 . S
H429 C427 0.950 . S
H430 C414 0.961 . S
H431 C416 0.965 . S
H432 C418 0.951 . S
H433 C419 0.950 . S
H434 C420 0.950 . S
H435 C421 0.950 1_655 S
H436 C423 0.950 . S
H437 C424 0.951 . S
C438 C439 1.386 . S
C438 C440 1.383 . S
C438 H454 0.951 . S
C439 C438 1.386 . S
C439 C443 1.383 . S
C440 C438 1.383 . S
C440 C441 1.402 . S
C440 H455 0.951 . S
C441 C440 1.402 . S
C441 C442 1.375 . S
C441 C444 1.481 . S
C442 C441 1.375 . S
C442 C443 1.367 . S
C442 H456 0.951 . S
C443 C439 1.383 . S
C443 C442 1.367 . S
C443 H457 0.950 . S
C444 C441 1.481 . S
C444 C445 1.297 . S
C444 H458 0.950 . S
C445 C444 1.297 . S
C445 C446 1.479 . S
C445 H459 0.950 . S
C446 C445 1.479 . S
C446 C447 1.375 . S
C446 C452 1.404 . S
C447 C446 1.375 . S
C447 C448 1.369 . S
C447 H460 0.950 . S
C448 C447 1.369 . S
C448 C449 1.392 . S
C448 H461 0.951 . S
C449 C448 1.392 . S
C449 C451 1.384 . S
H450 C452 0.949 . S
C451 C449 1.384 . S
C451 C452 1.385 . S
C451 H453 0.950 . S
C452 C446 1.404 . S
C452 H450 0.949 . S
C452 C451 1.385 . S
H453 C451 0.950 . S
H454 C438 0.951 . S
H455 C440 0.951 . S
H456 C442 0.951 . S
H457 C443 0.950 . S
H458 C444 0.950 . S
H459 C445 0.950 . S
H460 C447 0.950 . S
H461 C448 0.951 . S
C462 C463 1.386 . S
C462 C464 1.383 . S
C462 H478 0.951 . S
C463 C462 1.386 . S
C463 C467 1.383 . S
C464 C462 1.383 . S
C464 C465 1.402 . S
C464 H479 0.951 . S
C465 C464 1.402 . S
C465 C466 1.375 . S
C465 C468 1.481 . S
C466 C465 1.375 . S
C466 C467 1.367 . S
C466 H480 0.951 . S
C467 C463 1.383 . S
C467 C466 1.367 . S
C467 H481 0.950 . S
C468 C465 1.481 . S
C468 C469 1.297 . S
C468 H482 0.950 . S
C469 C468 1.297 . S
C469 C470 1.479 . S
C469 H483 0.950 . S
C470 C469 1.479 . S
C470 C471 1.375 . S
C470 C476 1.404 . S
C471 C470 1.375 . S
C471 C472 1.369 . S
C471 H484 0.950 . S
C472 C471 1.369 . S
C472 C473 1.392 . S
C472 H485 0.951 . S
C473 C472 1.392 . S
C473 C475 1.384 . S
H474 C476 0.949 . S
C475 C473 1.384 . S
C475 C476 1.385 . S
C475 H477 0.950 . S
C476 C470 1.404 . S
C476 H474 0.949 . S
C476 C475 1.385 . S
H477 C475 0.950 . S
H478 C462 0.951 . S
H479 C464 0.951 . S
H480 C466 0.951 . S
H481 C467 0.950 . S
H482 C468 0.950 . S
H483 C469 0.950 . S
H484 C471 0.950 . S
H485 C472 0.951 . S
C209 C175 1.421 . S
C199 C16 1.254 . S
C223 C15 1.493 . S
C233 C136 1.443 . S
C247 C13 1.315 . S
C257 C180 1.425 . S
C271 C14 1.300 1_554 S
C281 C141 1.343 . S
C295 C37 1.295 . S
C305 C97 1.399 . S
C319 C36 1.519 . S
C329 C58 1.495 . S
C353 C102 1.463 . S
C343 C34 1.226 . S
C377 C63 1.349 . S
C367 C35 1.323 . S
C391 C17 1.519 . S
C401 C43 1.544 1_545 S
C415 C18 1.390 . S
C425 C82 1.429 . S
C449 C121 1.549 . S
C439 C38 1.496 . S
C463 C39 1.385 . S
C473 C160 1.428 . S
