# Generated by pormake.
# Topology tsx, (6,3)-cn, num edge types: 1
# Building blocks:
#     Node 0, Type 0, BuildingBlock: MIDCAF_clean_sbu_0, # of connection points: 6
#     Node 1, Type 0, BuildingBlock: MIDCAF_clean_sbu_0, # of connection points: 6
#     Node 2, Type 1, BuildingBlock: ESEHIV_clean_linker_0, # of connection points: 3
#     Node 3, Type 1, BuildingBlock: ESEHIV_clean_linker_0, # of connection points: 3
#     Node 4, Type 1, BuildingBlock: ESEHIV_clean_linker_0, # of connection points: 3
#     Node 5, Type 1, BuildingBlock: ESEHIV_clean_linker_0, # of connection points: 3
#     Edge 6, Type (0, 1), BuildingBlock: FUNLAD_clean_linker_1, # of connection points: 2
#     Edge 7, Type (0, 1), BuildingBlock: FUNLAD_clean_linker_1, # of connection points: 2
#     Edge 8, Type (0, 1), BuildingBlock: FUNLAD_clean_linker_1, # of connection points: 2
#     Edge 9, Type (0, 1), BuildingBlock: FUNLAD_clean_linker_1, # of connection points: 2
#     Edge 10, Type (0, 1), BuildingBlock: FUNLAD_clean_linker_1, # of connection points: 2
#     Edge 11, Type (0, 1), BuildingBlock: FUNLAD_clean_linker_1, # of connection points: 2
#     Edge 12, Type (0, 1), BuildingBlock: FUNLAD_clean_linker_1, # of connection points: 2
#     Edge 13, Type (0, 1), BuildingBlock: FUNLAD_clean_linker_1, # of connection points: 2
#     Edge 14, Type (0, 1), BuildingBlock: FUNLAD_clean_linker_1, # of connection points: 2
#     Edge 15, Type (0, 1), BuildingBlock: FUNLAD_clean_linker_1, # of connection points: 2
#     Edge 16, Type (0, 1), BuildingBlock: FUNLAD_clean_linker_1, # of connection points: 2
#     Edge 17, Type (0, 1), BuildingBlock: FUNLAD_clean_linker_1, # of connection points: 2
# Relax obj value: 0.118
# Max RMSD: 0.182
# Mean RMSD: 0.113
data_MOF--net-tsx--node1-MIDCAF_clean_sbu_0--node2-ESEHIV_clean_linker_0--edge1-FUNLAD_clean_linker_1
_symmetry_space_group_name_H-M    P1
_symmetry_Int_Tables_number       1
_symmetry_cell_setting            triclinic
loop_
_symmetry_equiv_pos_as_xyz
'x, y, z'
_cell_length_a     19.188683
_cell_length_b     19.86326
_cell_length_c     37.606393
_cell_angle_alpha  90.868696
_cell_angle_beta   94.229986
_cell_angle_gamma 89.927132
loop_
_atom_site_label
_atom_site_type_symbol
_atom_site_fract_x
_atom_site_fract_y
_atom_site_fract_z
_atom_type_partial_charge
Zn0 Zn 0.97241 0.00209 0.98262 0.0
Zn1 Zn 0.22128 0.00216 0.05126 0.0
Zn2 Zn 0.09744 0.01294 0.01651 0.0
C3 C 0.19273 0.13999 0.03698 0.0
C4 C 0.22729 0.92382 0.99037 0.0
O5 O 0.02821 0.94624 0.04521 0.0
O6 O 0.93271 0.92888 0.00965 0.0
C7 C 0.9977 0.13884 0.00491 0.0
O8 O 0.13102 0.11791 0.02749 0.0
O9 O 0.2415 0.09915 0.04557 0.0
O10 O 0.26228 0.93509 0.01961 0.0
O11 O 0.16758 0.95263 0.98383 0.0
O12 O 0.9501 0.09765 0.99427 0.0
O13 O 0.06046 0.11782 0.01243 0.0
O14 O 0.11151 0.97719 0.96179 0.0
O15 O 0.005 0.98073 0.93484 0.0
C16 C 0.06984 0.97136 0.93348 0.0
O17 O 0.08447 0.9662 0.06828 0.0
O18 O 0.18861 0.97227 0.09765 0.0
C19 C 0.9694 0.91588 0.03794 0.0
C20 C 0.12431 0.95873 0.09708 0.0
Zn21 Zn 0.60127 0.52697 0.5533 0.0
Zn22 Zn 0.36522 0.51928 0.47202 0.0
Zn23 Zn 0.48252 0.52935 0.51283 0.0
C24 C 0.46811 0.46989 0.43152 0.0
C25 C 0.38836 0.65658 0.49105 0.0
O26 O 0.46219 0.48738 0.56555 0.0
O27 O 0.56288 0.4971 0.59782 0.0
C28 C 0.62204 0.44466 0.49542 0.0
O29 O 0.50373 0.47912 0.46165 0.0
O30 O 0.40434 0.48563 0.42799 0.0
O31 O 0.3423 0.61648 0.47747 0.0
O32 O 0.44803 0.63394 0.50345 0.0
O33 O 0.6526 0.46142 0.52509 0.0
O34 O 0.56034 0.46722 0.4863 0.0
O35 O 0.51725 0.63535 0.51763 0.0
O36 O 0.62069 0.62353 0.54683 0.0
C37 C 0.57559 0.66061 0.53063 0.0
O38 O 0.40398 0.4749 0.54193 0.0
O39 O 0.31803 0.4538 0.50076 0.0
C40 C 0.49902 0.48106 0.59539 0.0
C41 C 0.34536 0.4463 0.532 0.0
H42 H 0.89813 0.08964 0.3481 0.0
H43 H 0.05481 0.93506 0.35577 0.0
H44 H 0.022 0.06105 0.44691 0.0
C45 C 0.93785 0.06222 0.36392 0.0
C46 C 0.95429 0.08016 0.39993 0.0
C47 C 0.97497 0.01115 0.34744 0.0
C48 C 0.02749 0.97642 0.36768 0.0
C49 C 0.04621 0.99493 0.40323 0.0
C50 C 0.00939 0.04708 0.41924 0.0
H51 H 0.91867 0.9219 0.6521 0.0
H52 H 0.09457 0.05549 0.66175 0.0
H53 H 0.95844 0.05406 0.56593 0.0
C54 C 0.95014 0.96027 0.64074 0.0
C55 C 0.93164 0.98336 0.6062 0.0
C56 C 0.00747 0.98724 0.6613 0.0
C57 C 0.04816 0.03686 0.64669 0.0
C58 C 0.02998 0.06155 0.61244 0.0
C59 C 0.9722 0.03414 0.59212 0.0
H60 H 0.46014 0.51967 0.8655 0.0
H61 H 0.63276 0.38199 0.86811 0.0
H62 H 0.59901 0.50706 0.95994 0.0
C63 C 0.50324 0.49508 0.88022 0.0
C64 C 0.52322 0.51686 0.91525 0.0
C65 C 0.5421 0.44597 0.86312 0.0
C66 C 0.60182 0.41907 0.88143 0.0
C67 C 0.62355 0.44105 0.91618 0.0
C68 C 0.58373 0.49001 0.933 0.0
H69 H 0.54134 0.4118 0.17303 0.0
H70 H 0.71821 0.54517 0.18429 0.0
H71 H 0.60697 0.51337 0.08154 0.0
C72 C 0.57684 0.44657 0.16181 0.0
C73 C 0.56793 0.46005 0.12529 0.0
C74 C 0.63156 0.47705 0.18328 0.0
C75 C 0.6778 0.52011 0.16742 0.0
C76 C 0.66957 0.53363 0.1307 0.0
C77 C 0.6143 0.50317 0.10983 0.0
H78 H 0.16475 0.24878 0.04027 0.0
C79 C 0.20765 0.21302 0.04042 0.0
H80 H 0.31682 0.19801 0.04576 0.0
H81 H 0.45699 0.4689 0.03689 0.0
H82 H 0.45324 0.43962 0.97372 0.0
H83 H 0.37664 0.34833 0.94863 0.0
H84 H 0.30301 0.28569 0.98667 0.0
C85 C 0.27421 0.23389 0.04701 0.0
C86 C 0.29591 0.30323 0.0582 0.0
C87 C 0.33745 0.34005 0.03576 0.0
C88 C 0.38211 0.39211 0.05029 0.0
C89 C 0.42337 0.42783 0.02725 0.0
C90 C 0.42133 0.41183 0.99097 0.0
C91 C 0.37817 0.3604 0.97684 0.0
C92 C 0.3366 0.32468 0.99888 0.0
H93 H 0.52335 0.38422 0.08677 0.0
C94 C 0.51075 0.42749 0.10313 0.0
H95 H 0.43236 0.49033 0.12157 0.0
H96 H 0.21257 0.25137 0.10728 0.0
H97 H 0.21133 0.2847 0.16941 0.0
H98 H 0.28901 0.37482 0.1948 0.0
H99 H 0.36847 0.43186 0.15823 0.0
C100 C 0.44412 0.44759 0.10465 0.0
C101 C 0.38562 0.40655 0.08742 0.0
C102 C 0.33731 0.37584 0.10894 0.0
C103 C 0.29241 0.32386 0.09429 0.0
C104 C 0.24757 0.29125 0.11685 0.0
C105 C 0.24627 0.30996 0.15263 0.0
C106 C 0.28998 0.36071 0.16692 0.0
C107 C 0.33534 0.39316 0.14554 0.0
H108 H 0.21221 0.84635 0.94757 0.0
C109 C 0.25071 0.87014 0.96633 0.0
H110 H 0.353 0.86797 0.99064 0.0
H111 H 0.41167 0.56256 0.99187 0.0
H112 H 0.40005 0.58709 0.05455 0.0
H113 H 0.35705 0.6978 0.07399 0.0
H114 H 0.32532 0.78421 0.03101 0.0
C115 C 0.31546 0.84412 0.97135 0.0
C116 C 0.33388 0.77555 0.95845 0.0
C117 C 0.35217 0.7254 0.98409 0.0
C118 C 0.37721 0.66166 0.97301 0.0
C119 C 0.39393 0.61224 0.99902 0.0
C120 C 0.38702 0.62552 0.03505 0.0
C121 C 0.36281 0.68782 0.04598 0.0
C122 C 0.34522 0.73721 0.02096 0.0
H123 H 0.51502 0.60566 0.95096 0.0
C124 C 0.48528 0.57233 0.93231 0.0
H125 H 0.38558 0.55107 0.90676 0.0
H126 H 0.30184 0.85908 0.90205 0.0
H127 H 0.30729 0.83041 0.83928 0.0
H128 H 0.34813 0.71932 0.82031 0.0
H129 H 0.3839 0.6351 0.86372 0.0
C130 C 0.41685 0.58445 0.92461 0.0
C131 C 0.38414 0.64811 0.93639 0.0
C132 C 0.3619 0.69646 0.9106 0.0
C133 C 0.33741 0.76064 0.92161 0.0
C134 C 0.31892 0.80895 0.89527 0.0
C135 C 0.32231 0.79353 0.85916 0.0
C136 C 0.34537 0.73076 0.84841 0.0
C137 C 0.36554 0.68279 0.87368 0.0
H138 H 0.9822 0.84786 0.08404 0.0
C139 C 0.94699 0.86274 0.06159 0.0
H140 H 0.85185 0.84287 0.03144 0.0
H141 H 0.81738 0.54171 0.07113 0.0
H142 H 0.85255 0.53011 0.01066 0.0
H143 H 0.89493 0.62819 0.97909 0.0
H144 H 0.90296 0.73836 0.00788 0.0
C145 C 0.88609 0.83012 0.05469 0.0
C146 C 0.86671 0.77057 0.07523 0.0
C147 C 0.86222 0.70659 0.05791 0.0
C148 C 0.83691 0.65024 0.07585 0.0
C149 C 0.83432 0.58658 0.05828 0.0
C150 C 0.85484 0.5791 0.02368 0.0
C151 C 0.87881 0.63432 0.00594 0.0
C152 C 0.88285 0.69736 0.02274 0.0
H153 H 0.69351 0.60494 0.08882 0.0
C154 C 0.71422 0.58304 0.11378 0.0
H155 H 0.8014 0.58188 0.15202 0.0
H156 H 0.86897 0.88615 0.11637 0.0
H157 H 0.83855 0.89616 0.17758 0.0
H158 H 0.79878 0.79726 0.2094 0.0
H159 H 0.78768 0.68799 0.17982 0.0
C160 C 0.77779 0.60283 0.12755 0.0
C161 C 0.81515 0.65827 0.11086 0.0
C162 C 0.82401 0.7211 0.12905 0.0
C163 C 0.84874 0.77774 0.11101 0.0
C164 C 0.85244 0.84097 0.129 0.0
C165 C 0.83464 0.84757 0.16413 0.0
C166 C 0.81223 0.7919 0.18204 0.0
C167 C 0.80629 0.72942 0.16476 0.0
H168 H 0.02171 0.24859 0.00959 0.0
C169 C 0.9801 0.21145 0.00664 0.0
H170 H 0.87154 0.1934 0.00044 0.0
H171 H 0.71184 0.44532 0.02861 0.0
H172 H 0.7162 0.40116 0.08876 0.0
H173 H 0.79997 0.31182 0.10738 0.0
H174 H 0.88026 0.26587 0.06585 0.0
C175 C 0.9128 0.231 0.00183 0.0
C176 C 0.88833 0.30151 0.99675 0.0
C177 C 0.84352 0.32935 0.02143 0.0
C178 C 0.79542 0.38102 0.01073 0.0
C179 C 0.7493 0.40599 0.03546 0.0
C180 C 0.75141 0.38124 0.07002 0.0
C181 C 0.7986 0.33084 0.08051 0.0
C182 C 0.84405 0.30475 0.05652 0.0
H183 H 0.70368 0.362 0.9235 0.0
C184 C 0.68771 0.4107 0.9338 0.0
H185 H 0.71597 0.48905 0.97121 0.0
H186 H 0.97794 0.2703 0.94522 0.0
H187 H 0.98254 0.32386 0.88798 0.0
H188 H 0.90253 0.41713 0.87076 0.0
H189 H 0.81629 0.45638 0.91071 0.0
C190 C 0.72886 0.44021 0.96017 0.0
C191 C 0.79236 0.4042 0.97527 0.0
C192 C 0.84517 0.3847 0.95277 0.0
C193 C 0.89268 0.33241 0.96324 0.0
C194 C 0.94128 0.31042 0.93901 0.0
C195 C 0.94455 0.34089 0.90603 0.0
C196 C 0.89944 0.39334 0.8963 0.0
C197 C 0.85008 0.41511 0.91929 0.0
H198 H 0.55698 0.76358 0.50904 0.0
C199 C 0.59349 0.73181 0.52457 0.0
H200 H 0.69418 0.72199 0.5505 0.0
H201 H 0.89357 0.9116 0.49387 0.0
H202 H 0.91007 0.8189 0.45231 0.0
H203 H 0.82313 0.72732 0.44416 0.0
H204 H 0.71902 0.728 0.47772 0.0
C205 C 0.65715 0.75505 0.53612 0.0
C206 C 0.68601 0.82144 0.52737 0.0
C207 C 0.74439 0.82216 0.50645 0.0
C208 C 0.79415 0.875 0.511 0.0
C209 C 0.85418 0.87258 0.49133 0.0
C210 C 0.86411 0.8198 0.46737 0.0
C211 C 0.81516 0.7682 0.46278 0.0
C212 C 0.75599 0.76896 0.48218 0.0
H213 H 0.83719 0.92022 0.6019 0.0
C214 C 0.86806 0.95416 0.58689 0.0
H215 H 0.87729 0.99399 0.53535 0.0
H216 H 0.5697 0.844 0.56362 0.0
H217 H 0.54637 0.94344 0.59953 0.0
H218 H 0.63093 0.0373 0.60562 0.0
H219 H 0.74011 0.03165 0.57621 0.0
C220 C 0.84679 0.96426 0.55244 0.0
C221 C 0.78478 0.92657 0.53651 0.0
C222 C 0.71986 0.93241 0.552 0.0
C223 C 0.67054 0.87909 0.54783 0.0
C224 C 0.60847 0.88357 0.56573 0.0
C225 C 0.5945 0.94036 0.58629 0.0
C226 C 0.64217 0.99322 0.58975 0.0
C227 C 0.70446 0.9894 0.57295 0.0
H228 H 0.62415 0.37085 0.45085 0.0
C229 C 0.65581 0.39591 0.47222 0.0
H230 H 0.75496 0.4031 0.50035 0.0
H231 H 0.83954 0.1028 0.47128 0.0
H232 H 0.82072 0.10145 0.53431 0.0
H233 H 0.77132 0.19966 0.56407 0.0
H234 H 0.7399 0.30029 0.53108 0.0
C235 C 0.72345 0.37915 0.47852 0.0
C236 C 0.75469 0.32109 0.46009 0.0
C237 C 0.77369 0.26287 0.47991 0.0
C238 C 0.80347 0.20654 0.46286 0.0
C239 C 0.81918 0.14804 0.48305 0.0
C240 C 0.80803 0.14618 0.51921 0.0
C241 C 0.7801 0.20156 0.53599 0.0
C242 C 0.76255 0.25914 0.5167 0.0
H243 H 0.94447 0.16167 0.44003 0.0
C244 C 0.91691 0.13526 0.41767 0.0
H245 H 0.82053 0.126 0.38666 0.0
H246 H 0.73094 0.42761 0.41539 0.0
H247 H 0.75176 0.43051 0.35259 0.0
H248 H 0.79936 0.33145 0.32235 0.0
H249 H 0.82902 0.22974 0.35502 0.0
C250 C 0.85017 0.15211 0.40835 0.0
C251 C 0.81568 0.20926 0.42614 0.0
C252 C 0.79612 0.26735 0.40626 0.0
C253 C 0.7666 0.32378 0.4234 0.0
C254 C 0.75158 0.38264 0.40347 0.0
C255 C 0.7637 0.38514 0.36744 0.0
C256 C 0.7906 0.32939 0.35042 0.0
C257 C 0.80711 0.2712 0.36949 0.0
H258 H 0.32012 0.41016 0.58506 0.0
C259 C 0.31031 0.4027 0.55648 0.0
H260 H 0.25842 0.34623 0.51468 0.0
H261 H 0.22233 0.14111 0.64958 0.0
H262 H 0.34843 0.14303 0.66062 0.0
H263 H 0.42041 0.21905 0.62726 0.0
H264 H 0.36698 0.29406 0.58321 0.0
C265 C 0.26755 0.35327 0.54339 0.0
C266 C 0.22587 0.3105 0.56596 0.0
C267 C 0.25877 0.26576 0.5911 0.0
C268 C 0.21747 0.22039 0.60955 0.0
C269 C 0.25119 0.17641 0.63469 0.0
C270 C 0.32357 0.17683 0.64124 0.0
C271 C 0.36408 0.21975 0.62253 0.0
C272 C 0.33247 0.26324 0.59749 0.0
H273 H 0.07224 0.11795 0.56853 0.0
C274 C 0.07073 0.11607 0.59737 0.0
H275 H 0.10033 0.16561 0.64651 0.0
H276 H 0.14582 0.39375 0.52191 0.0
H277 H 0.01965 0.39239 0.51174 0.0
H278 H 0.94855 0.31283 0.54348 0.0
H279 H 0.0034 0.23432 0.58559 0.0
C280 C 0.10257 0.16491 0.61775 0.0
C281 C 0.14408 0.21807 0.60177 0.0
C282 C 0.11099 0.2647 0.57789 0.0
C283 C 0.15195 0.31078 0.55986 0.0
C284 C 0.1175 0.35681 0.53602 0.0
C285 C 0.04497 0.35693 0.53008 0.0
C286 C 0.00495 0.31216 0.54793 0.0
C287 C 0.03722 0.26687 0.57179 0.0
H288 H 0.41357 0.7651 0.50061 0.0
C289 C 0.37226 0.72939 0.49269 0.0
H290 H 0.26507 0.71477 0.47797 0.0
H291 H 0.10733 0.96447 0.51616 0.0
H292 H 0.09156 0.90073 0.56979 0.0
H293 H 0.16507 0.8014 0.58459 0.0
H294 H 0.25488 0.76523 0.54583 0.0
C295 C 0.30673 0.75106 0.48418 0.0
C296 C 0.28481 0.8228 0.48342 0.0
C297 C 0.23455 0.84466 0.50688 0.0
C298 C 0.19247 0.90198 0.4985 0.0
C299 C 0.14057 0.92116 0.5215 0.0
C300 C 0.13117 0.88514 0.5523 0.0
C301 C 0.17255 0.82919 0.56063 0.0
C302 C 0.22359 0.8088 0.53819 0.0
H303 H 0.11735 0.90854 0.41103 0.0
C304 C 0.10391 0.9572 0.42238 0.0
H305 H 0.13308 0.02818 0.46378 0.0
H306 H 0.38592 0.80259 0.43627 0.0
H307 H 0.40806 0.8728 0.38616 0.0
H308 H 0.33733 0.97454 0.3731 0.0
H309 H 0.2431 0.00601 0.41008 0.0
C310 C 0.14305 0.97994 0.45124 0.0
C311 C 0.20079 0.93679 0.46661 0.0
C312 C 0.25799 0.9212 0.44618 0.0
C313 C 0.29974 0.8635 0.45428 0.0
C314 C 0.35324 0.84637 0.4318 0.0
C315 C 0.36651 0.88632 0.40289 0.0
C316 C 0.32663 0.94356 0.3955 0.0
C317 C 0.27271 0.96091 0.41675 0.0
H318 H 0.13152 0.92847 0.15316 0.0
C319 C 0.09493 0.94105 0.13076 0.0
H320 H 0.99124 0.9698 0.11516 0.0
H321 H 0.99408 0.84676 0.28092 0.0
H322 H 1.00017 0.73657 0.25215 0.0
H323 H 0.00946 0.72611 0.18717 0.0
H324 H 0.01257 0.82579 0.15055 0.0
C325 C 0.02757 0.95213 0.1365 0.0
C326 C 0.00655 0.95638 0.17368 0.0
C327 C 0.00529 0.89791 0.19462 0.0
C328 C 1.00016 0.90404 0.23202 0.0
C329 C 0.9987 0.84481 0.2524 0.0
C330 C 1.00193 0.78138 0.23622 0.0
C331 C 0.00726 0.77548 0.19964 0.0
C332 C 0.00933 0.83295 0.17896 0.0
H333 H 0.90897 0.01128 0.29634 0.0
C334 C 0.9598 0.9971 0.30869 0.0
H335 H 0.06118 0.96241 0.29899 0.0
H336 H 0.99488 0.07758 0.1399 0.0
H337 H 0.98465 0.1874 0.16799 0.0
H338 H 0.98195 0.19888 0.23327 0.0
H339 H 0.9886 0.10089 0.2707 0.0
C340 C 0.00918 0.97497 0.28776 0.0
C341 C 0.99738 0.96866 0.24836 0.0
C342 C 0.9933 0.02703 0.22698 0.0
C343 C 0.9965 0.02062 0.18943 0.0
C344 C 0.9931 0.07953 0.16858 0.0
C345 C 0.98726 0.14295 0.18435 0.0
C346 C 0.98564 0.1494 0.22109 0.0
C347 C 0.98909 0.09242 0.24229 0.0
H348 H 0.1324 0.00501 0.89099 0.0
C349 C 0.09766 0.96522 0.89831 0.0
H350 H 0.03293 0.88447 0.88174 0.0
H351 H 0.91896 0.00432 0.7365 0.0
H352 H 0.81483 0.98779 0.76763 0.0
H353 H 0.82275 0.95048 0.83 0.0
H354 H 0.93436 0.9297 0.86143 0.0
C355 C 0.06752 0.92351 0.87336 0.0
C356 C 0.06426 0.94062 0.83475 0.0
C357 C 0.9976 0.95132 0.81648 0.0
C358 C 0.99278 0.97241 0.78041 0.0
C359 C 0.92585 0.9859 0.76342 0.0
C360 C 0.8654 0.97734 0.78111 0.0
C361 C 0.86988 0.95639 0.8162 0.0
C362 C 0.93484 0.94405 0.83388 0.0
H363 H 0.00302 0.91432 0.705 0.0
C364 C 0.022 0.96383 0.69835 0.0
H365 H 0.06712 0.05466 0.71952 0.0
H366 H 0.20036 0.92057 0.86055 0.0
H367 H 0.30425 0.94846 0.83074 0.0
H368 H 0.29516 0.98763 0.76874 0.0
H369 H 0.18202 0.00209 0.73658 0.0
C370 C 0.04958 0.00409 0.7248 0.0
C371 C 0.0544 0.98212 0.76251 0.0
C372 C 0.12079 0.97313 0.78086 0.0
C373 C 0.1259 0.9512 0.81682 0.0
C374 C 0.19314 0.94032 0.8339 0.0
C375 C 0.25329 0.95489 0.81686 0.0
C376 C 0.24822 0.97714 0.78197 0.0
C377 C 0.18292 0.98543 0.76388 0.0
H378 H 0.40936 0.45782 0.62729 0.0
C379 C 0.46594 0.4602 0.62775 0.0
H380 H 0.56156 0.45204 0.65901 0.0
H381 H 0.42063 0.55721 0.79665 0.0
H382 H 0.40644 0.66321 0.76585 0.0
H383 H 0.4234 0.67018 0.70163 0.0
H384 H 0.45434 0.57117 0.66782 0.0
C385 C 0.50488 0.45083 0.65848 0.0
C386 C 0.47481 0.44355 0.69347 0.0
C387 C 0.45518 0.50181 0.71259 0.0
C388 C 0.44582 0.49788 0.74966 0.0
C389 C 0.42831 0.55719 0.76844 0.0
C390 C 0.42001 0.61845 0.7511 0.0
C391 C 0.42956 0.62237 0.71494 0.0
C392 C 0.44731 0.56502 0.69582 0.0
H393 H 0.57065 0.41263 0.80979 0.0
C394 C 0.52688 0.42841 0.82475 0.0
H395 H 0.41853 0.45053 0.82118 0.0
H396 H 0.49814 0.32114 0.66282 0.0
H397 H 0.50518 0.21332 0.69286 0.0
H398 H 0.48953 0.20654 0.7573 0.0
H399 H 0.4666 0.3075 0.79211 0.0
C400 C 0.46372 0.4359 0.80714 0.0
C401 C 0.45729 0.436 0.76748 0.0
C402 C 0.46961 0.3766 0.74758 0.0
C403 C 0.47842 0.38046 0.71047 0.0
C404 C 0.49171 0.32071 0.69118 0.0
C405 C 0.49555 0.25869 0.70805 0.0
C406 C 0.48672 0.25487 0.74435 0.0
C407 C 0.47396 0.31305 0.76404 0.0
H408 H 0.4664 0.4269 0.37751 0.0
C409 C 0.50101 0.44583 0.39963 0.0
H410 H 0.60183 0.48334 0.41478 0.0
H411 H 0.60652 0.32384 0.25531 0.0
H412 H 0.60771 0.22044 0.28923 0.0
H413 H 0.60066 0.22396 0.35452 0.0
H414 H 0.5924 0.33096 0.38631 0.0
C415 C 0.5679 0.45881 0.39413 0.0
C416 C 0.58977 0.45578 0.35706 0.0
C417 C 0.59402 0.39313 0.33891 0.0
C418 C 0.59823 0.39122 0.30135 0.0
C419 C 0.60273 0.32798 0.28384 0.0
C420 C 0.60363 0.26839 0.30299 0.0
C421 C 0.59955 0.27035 0.33975 0.0
C422 C 0.59441 0.33189 0.35763 0.0
H423 H 0.69083 0.48228 0.23612 0.0
C424 C 0.64102 0.4676 0.22251 0.0
H425 H 0.5378 0.43612 0.23045 0.0
H426 H 0.59534 0.58406 0.38492 0.0
H427 H 0.59957 0.68744 0.35175 0.0
H428 H 0.60114 0.68464 0.28622 0.0
H429 H 0.59921 0.57874 0.2536 0.0
C430 C 0.58903 0.44968 0.24247 0.0
C431 C 0.59751 0.45197 0.28208 0.0
C432 C 0.59857 0.51481 0.30063 0.0
C433 C 0.59609 0.51655 0.33832 0.0
C434 C 0.59664 0.57979 0.35628 0.0
C435 C 0.59908 0.63959 0.33757 0.0
C436 C 0.60007 0.638 0.30069 0.0
C437 C 0.59937 0.5766 0.28228 0.0
loop_
_geom_bond_atom_site_label_1
_geom_bond_atom_site_label_2
_geom_bond_distance
_geom_bond_site_symmetry_2
_ccdc_geom_bond_type
Zn0 O6 1.920 1_545 S
Zn0 O12 1.898 . S
Zn0 O15 1.905 1_545 S
Zn1 O9 1.905 . S
Zn1 O10 1.898 1_545 S
Zn1 O18 1.920 1_545 S
Zn2 O5 2.080 1_445 S
Zn2 O8 2.114 . S
Zn2 O11 2.120 1_545 S
Zn2 O13 2.120 1_455 S
Zn2 O14 2.114 1_554 S
Zn2 O17 2.080 . S
C3 O8 1.166 . S
C3 O9 1.182 . S
C4 O10 1.167 . S
C4 O11 1.299 . S
O5 Zn2 2.080 1_665 S
O5 C19 1.305 . S
O6 Zn0 1.920 1_565 S
O6 C19 1.234 1_556 S
C7 O12 1.167 . S
C7 O13 1.299 1_556 S
O8 Zn2 2.114 . S
O8 C3 1.166 . S
O9 Zn1 1.905 . S
O9 C3 1.182 . S
O10 Zn1 1.898 1_565 S
O10 C4 1.167 . S
O11 Zn2 2.120 1_565 S
O11 C4 1.299 . S
O12 Zn0 1.898 . S
O12 C7 1.167 . S
O13 Zn2 2.120 1_655 S
O13 C7 1.299 1_554 S
O14 Zn2 2.114 1_556 S
O14 C16 1.166 1_445 S
O15 Zn0 1.905 1_565 S
O15 C16 1.182 . S
C16 O14 1.166 1_665 S
C16 O15 1.182 . S
O17 Zn2 2.080 . S
O17 C20 1.305 1_545 S
O18 Zn1 1.920 1_565 S
O18 C20 1.234 . S
C19 O5 1.305 . S
C19 O6 1.234 1_554 S
C20 O17 1.305 1_565 S
C20 O18 1.234 . S
Zn21 O27 1.920 . S
Zn21 O33 1.898 . S
Zn21 O36 1.905 . S
Zn22 O30 1.905 . S
Zn22 O31 1.898 . S
Zn22 O39 1.920 . S
Zn23 O26 2.080 . S
Zn23 O29 2.114 . S
Zn23 O32 2.120 . S
Zn23 O34 2.120 . S
Zn23 O35 2.114 . S
Zn23 O38 2.080 . S
C24 O29 1.166 . S
C24 O30 1.182 . S
C25 O31 1.167 . S
C25 O32 1.299 . S
O26 Zn23 2.080 . S
O26 C40 1.305 . S
O27 Zn21 1.920 . S
O27 C40 1.234 . S
C28 O33 1.167 . S
C28 O34 1.299 . S
O29 Zn23 2.114 . S
O29 C24 1.166 . S
O30 Zn22 1.905 . S
O30 C24 1.182 . S
O31 Zn22 1.898 . S
O31 C25 1.167 . S
O32 Zn23 2.120 . S
O32 C25 1.299 . S
O33 Zn21 1.898 . S
O33 C28 1.167 . S
O34 Zn23 2.120 . S
O34 C28 1.299 . S
O35 Zn23 2.114 . S
O35 C37 1.166 . S
O36 Zn21 1.905 . S
O36 C37 1.182 . S
C37 O35 1.166 . S
C37 O36 1.182 . S
O38 Zn23 2.080 . S
O38 C41 1.305 . S
O39 Zn22 1.920 . S
O39 C41 1.234 . S
C40 O26 1.305 . S
C40 O27 1.234 . S
C41 O38 1.305 . S
C41 O39 1.234 . S
H42 C45 0.931 1_655 S
H43 C48 0.928 . S
H44 C50 0.930 . S
C45 H42 0.931 1_455 S
C45 C46 1.413 . S
C45 C47 1.360 . S
C46 C45 1.413 . S
C46 C50 1.429 . S
C47 C45 1.360 . S
C47 C48 1.372 1_545 S
C48 H43 0.928 . S
C48 C47 1.372 1_565 S
C48 C49 1.404 . S
C49 C48 1.404 . S
C49 C50 1.391 1_565 S
C50 H44 0.930 . S
C50 C46 1.429 . S
C50 C49 1.391 1_545 S
H51 C54 0.931 . S
H52 C57 0.928 . S
H53 C59 0.932 . S
C54 H51 0.931 . S
C54 C55 1.413 . S
C54 C56 1.360 1_665 S
C55 C54 1.413 . S
C55 C59 1.418 1_665 S
C56 C54 1.360 1_445 S
C56 C57 1.372 . S
C57 H52 0.928 . S
C57 C56 1.372 . S
C57 C58 1.404 . S
C58 C57 1.404 . S
C58 C59 1.400 . S
C59 H53 0.932 . S
C59 C55 1.418 1_445 S
C59 C58 1.400 . S
H60 C63 0.931 . S
H61 C66 0.928 . S
H62 C68 0.930 . S
C63 H60 0.931 . S
C63 C64 1.413 . S
C63 C65 1.360 . S
C64 C63 1.413 . S
C64 C68 1.429 . S
C65 C63 1.360 . S
C65 C66 1.372 . S
C66 H61 0.928 . S
C66 C65 1.372 . S
C66 C67 1.404 . S
C67 C66 1.404 . S
C67 C68 1.391 . S
C68 H62 0.930 . S
C68 C64 1.429 . S
C68 C67 1.391 . S
H69 C72 0.931 . S
H70 C75 0.928 . S
H71 C77 0.930 . S
C72 H69 0.931 . S
C72 C73 1.413 . S
C72 C74 1.360 . S
C73 C72 1.413 . S
C73 C77 1.429 . S
C74 C72 1.360 . S
C74 C75 1.372 . S
C75 H70 0.928 . S
C75 C74 1.372 . S
C75 C76 1.404 . S
C76 C75 1.404 . S
C76 C77 1.391 . S
C77 H71 0.930 . S
C77 C73 1.429 . S
C77 C76 1.391 . S
H78 C79 0.951 . S
C79 H78 0.951 . S
C79 C85 1.265 . S
H80 C85 0.950 . S
H81 C89 0.949 . S
H82 C90 0.950 . S
H83 C91 0.951 . S
H84 C92 0.951 . S
C85 C79 1.265 . S
C85 H80 0.950 . S
C85 C86 1.478 . S
C86 C85 1.478 . S
C86 C87 1.397 . S
C86 C103 1.394 . S
C87 C86 1.397 . S
C87 C88 1.438 . S
C87 C92 1.429 1_554 S
C88 C87 1.438 . S
C88 C89 1.428 . S
C88 C101 1.394 . S
C89 H81 0.949 . S
C89 C88 1.428 . S
C89 C90 1.345 1_554 S
C90 H82 0.950 . S
C90 C89 1.345 1_556 S
C90 C91 1.424 . S
C91 H83 0.951 . S
C91 C90 1.424 . S
C91 C92 1.347 . S
C92 H84 0.951 . S
C92 C87 1.429 1_556 S
C92 C91 1.347 . S
H93 C94 0.951 . S
C94 H93 0.951 . S
C94 C100 1.265 . S
H95 C100 0.950 . S
H96 C104 0.949 . S
H97 C105 0.950 . S
H98 C106 0.951 . S
H99 C107 0.951 . S
C100 C94 1.265 . S
C100 H95 0.950 . S
C100 C101 1.478 . S
C101 C88 1.394 . S
C101 C100 1.478 . S
C101 C102 1.397 . S
C102 C101 1.397 . S
C102 C103 1.438 . S
C102 C107 1.429 . S
C103 C86 1.394 . S
C103 C102 1.438 . S
C103 C104 1.428 . S
C104 H96 0.949 . S
C104 C103 1.428 . S
C104 C105 1.345 . S
C105 H97 0.950 . S
C105 C104 1.345 . S
C105 C106 1.424 . S
C106 H98 0.951 . S
C106 C105 1.424 . S
C106 C107 1.347 . S
C107 H99 0.951 . S
C107 C102 1.429 . S
C107 C106 1.347 . S
H108 C109 0.951 . S
C109 H108 0.951 . S
C109 C115 1.265 . S
H110 C115 0.950 1_554 S
H111 C119 0.949 . S
H112 C120 0.950 . S
H113 C121 0.951 . S
H114 C122 0.951 . S
C115 C109 1.265 . S
C115 H110 0.950 1_556 S
C115 C116 1.478 . S
C116 C115 1.478 . S
C116 C117 1.397 1_556 S
C116 C133 1.394 . S
C117 C116 1.397 1_554 S
C117 C118 1.438 1_554 S
C117 C122 1.429 . S
C118 C117 1.438 1_556 S
C118 C119 1.428 1_556 S
C118 C131 1.394 . S
C119 H111 0.949 . S
C119 C118 1.428 1_554 S
C119 C120 1.345 . S
C120 H112 0.950 . S
C120 C119 1.345 . S
C120 C121 1.424 . S
C121 H113 0.951 . S
C121 C120 1.424 . S
C121 C122 1.347 . S
C122 H114 0.951 . S
C122 C117 1.429 . S
C122 C121 1.347 . S
H123 C124 0.951 . S
C124 H123 0.951 . S
C124 C130 1.265 . S
H125 C130 0.950 . S
H126 C134 0.949 . S
H127 C135 0.950 . S
H128 C136 0.951 . S
H129 C137 0.951 . S
C130 C124 1.265 . S
C130 H125 0.950 . S
C130 C131 1.478 . S
C131 C118 1.394 . S
C131 C130 1.478 . S
C131 C132 1.397 . S
C132 C131 1.397 . S
C132 C133 1.438 . S
C132 C137 1.429 . S
C133 C116 1.394 . S
C133 C132 1.438 . S
C133 C134 1.428 . S
C134 H126 0.949 . S
C134 C133 1.428 . S
C134 C135 1.345 . S
C135 H127 0.950 . S
C135 C134 1.345 . S
C135 C136 1.424 . S
C136 H128 0.951 . S
C136 C135 1.424 . S
C136 C137 1.347 . S
C137 H129 0.951 . S
C137 C132 1.429 . S
C137 C136 1.347 . S
H138 C139 0.951 . S
C139 H138 0.951 . S
C139 C145 1.265 . S
H140 C145 0.950 . S
H141 C149 0.949 . S
H142 C150 0.950 . S
H143 C151 0.951 . S
H144 C152 0.951 . S
C145 C139 1.265 . S
C145 H140 0.950 . S
C145 C146 1.478 . S
C146 C145 1.478 . S
C146 C147 1.397 . S
C146 C163 1.394 . S
C147 C146 1.397 . S
C147 C148 1.438 . S
C147 C152 1.429 1_554 S
C148 C147 1.438 . S
C148 C149 1.428 . S
C148 C161 1.394 . S
C149 H141 0.949 . S
C149 C148 1.428 . S
C149 C150 1.345 1_554 S
C150 H142 0.950 . S
C150 C149 1.345 1_556 S
C150 C151 1.424 . S
C151 H143 0.951 . S
C151 C150 1.424 . S
C151 C152 1.347 . S
C152 H144 0.951 . S
C152 C147 1.429 1_556 S
C152 C151 1.347 . S
H153 C154 0.951 . S
C154 H153 0.951 . S
C154 C160 1.265 . S
H155 C160 0.950 . S
H156 C164 0.949 . S
H157 C165 0.950 . S
H158 C166 0.951 . S
H159 C167 0.951 . S
C160 C154 1.265 . S
C160 H155 0.950 . S
C160 C161 1.478 . S
C161 C148 1.394 . S
C161 C160 1.478 . S
C161 C162 1.397 . S
C162 C161 1.397 . S
C162 C163 1.438 . S
C162 C167 1.429 . S
C163 C146 1.394 . S
C163 C162 1.438 . S
C163 C164 1.428 . S
C164 H156 0.949 . S
C164 C163 1.428 . S
C164 C165 1.345 . S
C165 H157 0.950 . S
C165 C164 1.345 . S
C165 C166 1.424 . S
C166 H158 0.951 . S
C166 C165 1.424 . S
C166 C167 1.347 . S
C167 H159 0.951 . S
C167 C162 1.429 . S
C167 C166 1.347 . S
H168 C169 0.951 . S
C169 H168 0.951 . S
C169 C175 1.265 1_554 S
H170 C175 0.950 . S
H171 C179 0.949 . S
H172 C180 0.950 . S
H173 C181 0.962 . S
H174 C182 0.948 1_554 S
C175 C169 1.265 1_556 S
C175 H170 0.950 . S
C175 C176 1.478 . S
C176 C175 1.478 . S
C176 C177 1.397 . S
C176 C193 1.394 . S
C177 C176 1.397 . S
C177 C178 1.438 . S
C177 C182 1.429 . S
C178 C177 1.438 . S
C178 C179 1.428 . S
C178 C191 1.394 . S
C179 H171 0.949 . S
C179 C178 1.428 . S
C179 C180 1.345 . S
C180 H172 0.950 . S
C180 C179 1.345 . S
C180 C181 1.420 1_556 S
C181 H173 0.962 . S
C181 C180 1.420 1_554 S
C181 C182 1.341 1_554 S
C182 H174 0.948 1_556 S
C182 C177 1.429 . S
C182 C181 1.341 1_556 S
H183 C184 0.951 . S
C184 H183 0.951 . S
C184 C190 1.265 . S
H185 C190 0.950 . S
H186 C194 0.949 . S
H187 C195 0.950 1_455 S
H188 C196 0.951 . S
H189 C197 0.951 . S
C190 C184 1.265 . S
C190 H185 0.950 . S
C190 C191 1.478 . S
C191 C178 1.394 . S
C191 C190 1.478 . S
C191 C192 1.397 . S
C192 C191 1.397 . S
C192 C193 1.438 . S
C192 C197 1.429 . S
C193 C176 1.394 . S
C193 C192 1.438 . S
C193 C194 1.428 . S
C194 H186 0.949 . S
C194 C193 1.428 . S
C194 C195 1.345 . S
C195 H187 0.950 1_655 S
C195 C194 1.345 . S
C195 C196 1.424 . S
C196 H188 0.951 . S
C196 C195 1.424 . S
C196 C197 1.347 . S
C197 H189 0.951 . S
C197 C192 1.429 . S
C197 C196 1.347 . S
H198 C199 0.951 . S
C199 H198 0.951 . S
C199 C205 1.265 . S
H200 C205 0.950 . S
H201 C209 0.949 . S
H202 C210 0.950 . S
H203 C211 0.951 . S
H204 C212 0.951 . S
C205 C199 1.265 . S
C205 H200 0.950 . S
C205 C206 1.478 . S
C206 C205 1.478 . S
C206 C207 1.397 . S
C206 C223 1.394 . S
C207 C206 1.397 . S
C207 C208 1.438 . S
C207 C212 1.429 . S
C208 C207 1.438 . S
C208 C209 1.428 . S
C208 C221 1.394 . S
C209 H201 0.949 . S
C209 C208 1.428 . S
C209 C210 1.345 . S
C210 H202 0.950 . S
C210 C209 1.345 . S
C210 C211 1.424 . S
C211 H203 0.951 . S
C211 C210 1.424 . S
C211 C212 1.347 . S
C212 H204 0.951 . S
C212 C207 1.429 . S
C212 C211 1.347 . S
H213 C214 0.951 . S
C214 H213 0.951 . S
C214 C220 1.265 . S
H215 C220 0.950 . S
H216 C224 0.949 . S
H217 C225 0.950 . S
H218 C226 0.951 . S
H219 C227 0.951 . S
C220 C214 1.265 . S
C220 H215 0.950 . S
C220 C221 1.478 . S
C221 C208 1.394 . S
C221 C220 1.478 . S
C221 C222 1.397 . S
C222 C221 1.397 . S
C222 C223 1.438 . S
C222 C227 1.429 . S
C223 C206 1.394 . S
C223 C222 1.438 . S
C223 C224 1.428 . S
C224 H216 0.949 . S
C224 C223 1.428 . S
C224 C225 1.345 . S
C225 H217 0.950 . S
C225 C224 1.345 . S
C225 C226 1.424 . S
C226 H218 0.951 . S
C226 C225 1.424 . S
C226 C227 1.347 . S
C227 H219 0.951 . S
C227 C222 1.429 . S
C227 C226 1.347 . S
H228 C229 0.951 . S
C229 H228 0.951 . S
C229 C235 1.265 . S
H230 C235 0.950 . S
H231 C239 0.949 . S
H232 C240 0.950 . S
H233 C241 0.951 . S
H234 C242 0.951 . S
C235 C229 1.265 . S
C235 H230 0.950 . S
C235 C236 1.478 . S
C236 C235 1.478 . S
C236 C237 1.397 . S
C236 C253 1.394 . S
C237 C236 1.397 . S
C237 C238 1.438 . S
C237 C242 1.429 . S
C238 C237 1.438 . S
C238 C239 1.428 . S
C238 C251 1.394 . S
C239 H231 0.949 . S
C239 C238 1.428 . S
C239 C240 1.345 . S
C240 H232 0.950 . S
C240 C239 1.345 . S
C240 C241 1.424 . S
C241 H233 0.951 . S
C241 C240 1.424 . S
C241 C242 1.347 . S
C242 H234 0.951 . S
C242 C237 1.429 . S
C242 C241 1.347 . S
H243 C244 0.951 1_455 S
C244 H243 0.951 1_655 S
C244 C250 1.265 . S
H245 C250 0.950 . S
H246 C254 0.949 . S
H247 C255 0.950 . S
H248 C256 0.951 . S
H249 C257 0.951 . S
C250 C244 1.265 . S
C250 H245 0.950 . S
C250 C251 1.478 . S
C251 C238 1.394 . S
C251 C250 1.478 . S
C251 C252 1.397 . S
C252 C251 1.397 . S
C252 C253 1.438 . S
C252 C257 1.429 . S
C253 C236 1.394 . S
C253 C252 1.438 . S
C253 C254 1.428 . S
C254 H246 0.949 . S
C254 C253 1.428 . S
C254 C255 1.345 . S
C255 H247 0.950 . S
C255 C254 1.345 . S
C255 C256 1.424 . S
C256 H248 0.951 . S
C256 C255 1.424 . S
C256 C257 1.347 . S
C257 H249 0.951 . S
C257 C252 1.429 . S
C257 C256 1.347 . S
H258 C259 0.951 . S
C259 H258 0.951 . S
C259 C265 1.265 . S
H260 C265 0.950 . S
H261 C269 0.949 . S
H262 C270 0.950 . S
H263 C271 0.951 . S
H264 C272 0.951 . S
C265 C259 1.265 . S
C265 H260 0.950 . S
C265 C266 1.478 . S
C266 C265 1.478 . S
C266 C267 1.397 . S
C266 C283 1.394 . S
C267 C266 1.397 . S
C267 C268 1.438 . S
C267 C272 1.429 . S
C268 C267 1.438 . S
C268 C269 1.428 . S
C268 C281 1.394 . S
C269 H261 0.949 . S
C269 C268 1.428 . S
C269 C270 1.345 . S
C270 H262 0.950 . S
C270 C269 1.345 . S
C270 C271 1.424 . S
C271 H263 0.951 . S
C271 C270 1.424 . S
C271 C272 1.347 . S
C272 H264 0.951 . S
C272 C267 1.429 . S
C272 C271 1.347 . S
H273 C274 0.951 . S
C274 H273 0.951 . S
C274 C280 1.265 . S
H275 C280 0.950 . S
H276 C284 0.949 . S
H277 C285 0.950 . S
H278 C286 0.951 . S
H279 C287 0.951 . S
C280 C274 1.265 . S
C280 H275 0.950 . S
C280 C281 1.478 . S
C281 C268 1.394 . S
C281 C280 1.478 . S
C281 C282 1.397 . S
C282 C281 1.397 . S
C282 C283 1.438 . S
C282 C287 1.429 . S
C283 C266 1.394 . S
C283 C282 1.438 . S
C283 C284 1.428 . S
C284 H276 0.949 . S
C284 C283 1.428 . S
C284 C285 1.345 . S
C285 H277 0.950 . S
C285 C284 1.345 . S
C285 C286 1.424 . S
C286 H278 0.951 . S
C286 C285 1.424 . S
C286 C287 1.347 . S
C287 H279 0.951 . S
C287 C282 1.429 . S
C287 C286 1.347 . S
H288 C289 0.951 . S
C289 H288 0.951 . S
C289 C295 1.265 . S
H290 C295 0.950 . S
H291 C299 0.949 . S
H292 C300 0.950 . S
H293 C301 0.951 . S
H294 C302 0.951 . S
C295 C289 1.265 . S
C295 H290 0.950 . S
C295 C296 1.478 . S
C296 C295 1.478 . S
C296 C297 1.397 . S
C296 C313 1.394 . S
C297 C296 1.397 . S
C297 C298 1.438 . S
C297 C302 1.429 . S
C298 C297 1.438 . S
C298 C299 1.428 . S
C298 C311 1.394 . S
C299 H291 0.949 . S
C299 C298 1.428 . S
C299 C300 1.345 . S
C300 H292 0.950 . S
C300 C299 1.345 . S
C300 C301 1.424 . S
C301 H293 0.951 . S
C301 C300 1.424 . S
C301 C302 1.347 . S
C302 H294 0.951 . S
C302 C297 1.429 . S
C302 C301 1.347 . S
H303 C304 0.951 . S
C304 H303 0.951 . S
C304 C310 1.265 . S
H305 C310 0.950 . S
H306 C314 0.949 . S
H307 C315 0.950 . S
H308 C316 0.951 . S
H309 C317 0.951 . S
C310 C304 1.265 . S
C310 H305 0.950 . S
C310 C311 1.478 . S
C311 C298 1.394 . S
C311 C310 1.478 . S
C311 C312 1.397 . S
C312 C311 1.397 . S
C312 C313 1.438 . S
C312 C317 1.429 . S
C313 C296 1.394 . S
C313 C312 1.438 . S
C313 C314 1.428 . S
C314 H306 0.949 . S
C314 C313 1.428 . S
C314 C315 1.345 . S
C315 H307 0.950 . S
C315 C314 1.345 . S
C315 C316 1.424 . S
C316 H308 0.951 . S
C316 C315 1.424 . S
C316 C317 1.347 . S
C317 H309 0.951 . S
C317 C312 1.429 . S
C317 C316 1.347 . S
H318 C319 0.951 . S
C319 H318 0.951 . S
C319 C325 1.265 . S
H320 C325 0.950 1_655 S
H321 C329 0.949 . S
H322 C330 0.950 1_655 S
H323 C331 0.951 . S
H324 C332 0.953 . S
C325 C319 1.265 . S
C325 H320 0.950 1_455 S
C325 C326 1.478 . S
C326 C325 1.478 . S
C326 C327 1.397 . S
C326 C343 1.394 1_565 S
C327 C326 1.397 . S
C327 C328 1.438 . S
C327 C332 1.425 1_455 S
C328 C327 1.438 . S
C328 C329 1.428 . S
C328 C341 1.394 1_565 S
C329 H321 0.949 . S
C329 C328 1.428 . S
C329 C330 1.345 . S
C330 H322 0.950 1_455 S
C330 C329 1.345 . S
C330 C331 1.424 1_455 S
C331 H323 0.951 . S
C331 C330 1.424 1_655 S
C331 C332 1.349 . S
C332 H324 0.953 . S
C332 C327 1.425 1_655 S
C332 C331 1.349 . S
H333 C334 0.951 . S
C334 H333 0.951 . S
C334 C340 1.265 . S
H335 C340 0.950 . S
H336 C344 0.949 . S
H337 C345 0.950 . S
H338 C346 0.951 . S
H339 C347 0.951 . S
C340 C334 1.265 . S
C340 H335 0.950 . S
C340 C341 1.478 . S
C341 C328 1.394 1_545 S
C341 C340 1.478 . S
C341 C342 1.397 . S
C342 C341 1.397 . S
C342 C343 1.438 . S
C342 C347 1.429 . S
C343 C326 1.394 1_545 S
C343 C342 1.438 . S
C343 C344 1.428 . S
C344 H336 0.949 . S
C344 C343 1.428 . S
C344 C345 1.345 . S
C345 H337 0.950 . S
C345 C344 1.345 . S
C345 C346 1.424 . S
C346 H338 0.951 . S
C346 C345 1.424 . S
C346 C347 1.347 . S
C347 H339 0.951 . S
C347 C342 1.429 . S
C347 C346 1.347 . S
H348 C349 0.951 1_545 S
C349 H348 0.951 1_565 S
C349 C355 1.265 . S
H350 C355 0.950 1_655 S
H351 C359 0.949 . S
H352 C360 0.950 . S
H353 C361 0.951 . S
H354 C362 0.951 . S
C355 C349 1.265 . S
C355 H350 0.950 1_455 S
C355 C356 1.478 . S
C356 C355 1.478 . S
C356 C357 1.397 1_455 S
C356 C373 1.394 . S
C357 C356 1.397 1_655 S
C357 C358 1.438 1_565 S
C357 C362 1.429 . S
C358 C357 1.438 1_545 S
C358 C359 1.428 . S
C358 C371 1.394 1_655 S
C359 H351 0.949 . S
C359 C358 1.428 . S
C359 C360 1.345 . S
C360 H352 0.950 . S
C360 C359 1.345 . S
C360 C361 1.424 1_545 S
C361 H353 0.951 . S
C361 C360 1.424 1_565 S
C361 C362 1.347 . S
C362 H354 0.951 . S
C362 C357 1.429 . S
C362 C361 1.347 . S
H363 C364 0.946 1_665 S
C364 H363 0.946 1_445 S
C364 C370 1.268 . S
H365 C370 0.950 . S
H366 C374 0.949 . S
H367 C375 0.950 . S
H368 C376 0.951 . S
H369 C377 0.951 . S
C370 C364 1.268 . S
C370 H365 0.950 . S
C370 C371 1.478 . S
C371 C358 1.394 1_455 S
C371 C370 1.478 . S
C371 C372 1.397 . S
C372 C371 1.397 . S
C372 C373 1.438 1_545 S
C372 C377 1.429 . S
C373 C356 1.394 . S
C373 C372 1.438 1_565 S
C373 C374 1.428 . S
C374 H366 0.949 . S
C374 C373 1.428 . S
C374 C375 1.345 . S
C375 H367 0.950 . S
C375 C374 1.345 . S
C375 C376 1.424 1_565 S
C376 H368 0.951 . S
C376 C375 1.424 1_545 S
C376 C377 1.347 . S
C377 H369 0.951 . S
C377 C372 1.429 . S
C377 C376 1.347 . S
H378 C379 0.951 . S
C379 H378 0.951 . S
C379 C385 1.265 . S
H380 C385 0.950 . S
H381 C389 0.949 . S
H382 C390 0.950 . S
H383 C391 0.951 . S
H384 C392 0.951 . S
C385 C379 1.265 . S
C385 H380 0.950 . S
C385 C386 1.478 . S
C386 C385 1.478 . S
C386 C387 1.397 . S
C386 C403 1.394 . S
C387 C386 1.397 . S
C387 C388 1.438 . S
C387 C392 1.429 . S
C388 C387 1.438 . S
C388 C389 1.428 . S
C388 C401 1.394 . S
C389 H381 0.949 . S
C389 C388 1.428 . S
C389 C390 1.345 . S
C390 H382 0.950 . S
C390 C389 1.345 . S
C390 C391 1.424 . S
C391 H383 0.951 . S
C391 C390 1.424 . S
C391 C392 1.347 . S
C392 H384 0.951 . S
C392 C387 1.429 . S
C392 C391 1.347 . S
H393 C394 0.951 . S
C394 H393 0.951 . S
C394 C400 1.265 . S
H395 C400 0.950 . S
H396 C404 0.949 . S
H397 C405 0.950 . S
H398 C406 0.951 . S
H399 C407 0.951 . S
C400 C394 1.265 . S
C400 H395 0.950 . S
C400 C401 1.478 . S
C401 C388 1.394 . S
C401 C400 1.478 . S
C401 C402 1.397 . S
C402 C401 1.397 . S
C402 C403 1.438 . S
C402 C407 1.429 . S
C403 C386 1.394 . S
C403 C402 1.438 . S
C403 C404 1.428 . S
C404 H396 0.949 . S
C404 C403 1.428 . S
C404 C405 1.345 . S
C405 H397 0.950 . S
C405 C404 1.345 . S
C405 C406 1.424 . S
C406 H398 0.951 . S
C406 C405 1.424 . S
C406 C407 1.347 . S
C407 H399 0.951 . S
C407 C402 1.429 . S
C407 C406 1.347 . S
H408 C409 0.951 . S
C409 H408 0.951 . S
C409 C415 1.265 . S
H410 C415 0.950 . S
H411 C419 0.949 . S
H412 C420 0.950 . S
H413 C421 0.951 . S
H414 C422 0.951 . S
C415 C409 1.265 . S
C415 H410 0.950 . S
C415 C416 1.478 . S
C416 C415 1.478 . S
C416 C417 1.397 . S
C416 C433 1.394 . S
C417 C416 1.397 . S
C417 C418 1.438 . S
C417 C422 1.429 . S
C418 C417 1.438 . S
C418 C419 1.428 . S
C418 C431 1.394 . S
C419 H411 0.949 . S
C419 C418 1.428 . S
C419 C420 1.345 . S
C420 H412 0.950 . S
C420 C419 1.345 . S
C420 C421 1.424 . S
C421 H413 0.951 . S
C421 C420 1.424 . S
C421 C422 1.347 . S
C422 H414 0.951 . S
C422 C417 1.429 . S
C422 C421 1.347 . S
H423 C424 0.951 . S
C424 H423 0.951 . S
C424 C430 1.265 . S
H425 C430 0.950 . S
H426 C434 0.949 . S
H427 C435 0.950 . S
H428 C436 0.951 . S
H429 C437 0.951 . S
C430 C424 1.265 . S
C430 H425 0.950 . S
C430 C431 1.478 . S
C431 C418 1.394 . S
C431 C430 1.478 . S
C431 C432 1.397 . S
C432 C431 1.397 . S
C432 C433 1.438 . S
C432 C437 1.429 . S
C433 C416 1.394 . S
C433 C432 1.438 . S
C433 C434 1.428 . S
C434 H426 0.949 . S
C434 C433 1.428 . S
C434 C435 1.345 . S
C435 H427 0.950 . S
C435 C434 1.345 . S
C435 C436 1.424 . S
C436 H428 0.951 . S
C436 C435 1.424 . S
C436 C437 1.347 . S
C437 H429 0.951 . S
C437 C432 1.429 . S
C437 C436 1.347 . S
C94 C73 1.236 . S
C79 C3 1.157 . S
C109 C4 1.498 1_556 S
C124 C64 1.545 . S
C139 C19 1.509 . S
C154 C76 1.550 . S
C169 C7 1.189 1_554 S
C184 C67 1.207 . S
C199 C37 1.083 . S
C214 C55 1.215 . S
C229 C28 1.499 . S
C244 C46 1.545 1_655 S
C274 C58 1.549 . S
C259 C41 1.439 . S
C304 C49 1.206 . S
C289 C25 1.189 . S
C319 C20 1.222 . S
C334 C47 1.445 . S
C349 C16 1.342 1_455 S
C364 C56 1.493 . S
C394 C65 1.459 . S
C379 C40 1.378 . S
C409 C24 1.269 . S
C424 C74 1.497 . S
