# Generated by pormake.
# Topology eea, (3,6)-cn, num edge types: 1
# Building blocks:
#     Node 0, Type 0, BuildingBlock: KAKCAD_clean_linker_0, # of connection points: 3
#     Node 1, Type 0, BuildingBlock: KAKCAD_clean_linker_0, # of connection points: 3
#     Node 2, Type 0, BuildingBlock: KAKCAD_clean_linker_0, # of connection points: 3
#     Node 3, Type 0, BuildingBlock: KAKCAD_clean_linker_0, # of connection points: 3
#     Node 4, Type 0, BuildingBlock: KAKCAD_clean_linker_0, # of connection points: 3
#     Node 5, Type 0, BuildingBlock: KAKCAD_clean_linker_0, # of connection points: 3
#     Node 6, Type 0, BuildingBlock: KAKCAD_clean_linker_0, # of connection points: 3
#     Node 7, Type 0, BuildingBlock: KAKCAD_clean_linker_0, # of connection points: 3
#     Node 8, Type 0, BuildingBlock: KAKCAD_clean_linker_0, # of connection points: 3
#     Node 9, Type 0, BuildingBlock: KAKCAD_clean_linker_0, # of connection points: 3
#     Node 10, Type 0, BuildingBlock: KAKCAD_clean_linker_0, # of connection points: 3
#     Node 11, Type 0, BuildingBlock: KAKCAD_clean_linker_0, # of connection points: 3
#     Node 12, Type 0, BuildingBlock: KAKCAD_clean_linker_0, # of connection points: 3
#     Node 13, Type 0, BuildingBlock: KAKCAD_clean_linker_0, # of connection points: 3
#     Node 14, Type 0, BuildingBlock: KAKCAD_clean_linker_0, # of connection points: 3
#     Node 15, Type 0, BuildingBlock: KAKCAD_clean_linker_0, # of connection points: 3
#     Node 16, Type 0, BuildingBlock: KAKCAD_clean_linker_0, # of connection points: 3
#     Node 17, Type 0, BuildingBlock: KAKCAD_clean_linker_0, # of connection points: 3
#     Node 18, Type 1, BuildingBlock: CUKXOW_clean_sbu_0, # of connection points: 6
#     Node 19, Type 1, BuildingBlock: CUKXOW_clean_sbu_0, # of connection points: 6
#     Node 20, Type 1, BuildingBlock: CUKXOW_clean_sbu_0, # of connection points: 6
#     Node 21, Type 1, BuildingBlock: CUKXOW_clean_sbu_0, # of connection points: 6
#     Node 22, Type 1, BuildingBlock: CUKXOW_clean_sbu_0, # of connection points: 6
#     Node 23, Type 1, BuildingBlock: CUKXOW_clean_sbu_0, # of connection points: 6
#     Node 24, Type 1, BuildingBlock: CUKXOW_clean_sbu_0, # of connection points: 6
#     Node 25, Type 1, BuildingBlock: CUKXOW_clean_sbu_0, # of connection points: 6
#     Node 26, Type 1, BuildingBlock: CUKXOW_clean_sbu_0, # of connection points: 6
#     Edge 27, Type (0, 1), BuildingBlock: XUDNAN_clean_linker_2, # of connection points: 2
#     Edge 28, Type (0, 1), BuildingBlock: XUDNAN_clean_linker_2, # of connection points: 2
#     Edge 29, Type (0, 1), BuildingBlock: XUDNAN_clean_linker_2, # of connection points: 2
#     Edge 30, Type (0, 1), BuildingBlock: XUDNAN_clean_linker_2, # of connection points: 2
#     Edge 31, Type (0, 1), BuildingBlock: XUDNAN_clean_linker_2, # of connection points: 2
#     Edge 32, Type (0, 1), BuildingBlock: XUDNAN_clean_linker_2, # of connection points: 2
#     Edge 33, Type (0, 1), BuildingBlock: XUDNAN_clean_linker_2, # of connection points: 2
#     Edge 34, Type (0, 1), BuildingBlock: XUDNAN_clean_linker_2, # of connection points: 2
#     Edge 35, Type (0, 1), BuildingBlock: XUDNAN_clean_linker_2, # of connection points: 2
#     Edge 36, Type (0, 1), BuildingBlock: XUDNAN_clean_linker_2, # of connection points: 2
#     Edge 37, Type (0, 1), BuildingBlock: XUDNAN_clean_linker_2, # of connection points: 2
#     Edge 38, Type (0, 1), BuildingBlock: XUDNAN_clean_linker_2, # of connection points: 2
#     Edge 39, Type (0, 1), BuildingBlock: XUDNAN_clean_linker_2, # of connection points: 2
#     Edge 40, Type (0, 1), BuildingBlock: XUDNAN_clean_linker_2, # of connection points: 2
#     Edge 41, Type (0, 1), BuildingBlock: XUDNAN_clean_linker_2, # of connection points: 2
#     Edge 42, Type (0, 1), BuildingBlock: XUDNAN_clean_linker_2, # of connection points: 2
#     Edge 43, Type (0, 1), BuildingBlock: XUDNAN_clean_linker_2, # of connection points: 2
#     Edge 44, Type (0, 1), BuildingBlock: XUDNAN_clean_linker_2, # of connection points: 2
#     Edge 45, Type (0, 1), BuildingBlock: XUDNAN_clean_linker_2, # of connection points: 2
#     Edge 46, Type (0, 1), BuildingBlock: XUDNAN_clean_linker_2, # of connection points: 2
#     Edge 47, Type (0, 1), BuildingBlock: XUDNAN_clean_linker_2, # of connection points: 2
#     Edge 48, Type (0, 1), BuildingBlock: XUDNAN_clean_linker_2, # of connection points: 2
#     Edge 49, Type (0, 1), BuildingBlock: XUDNAN_clean_linker_2, # of connection points: 2
#     Edge 50, Type (0, 1), BuildingBlock: XUDNAN_clean_linker_2, # of connection points: 2
#     Edge 51, Type (0, 1), BuildingBlock: XUDNAN_clean_linker_2, # of connection points: 2
#     Edge 52, Type (0, 1), BuildingBlock: XUDNAN_clean_linker_2, # of connection points: 2
#     Edge 53, Type (0, 1), BuildingBlock: XUDNAN_clean_linker_2, # of connection points: 2
#     Edge 54, Type (0, 1), BuildingBlock: XUDNAN_clean_linker_2, # of connection points: 2
#     Edge 55, Type (0, 1), BuildingBlock: XUDNAN_clean_linker_2, # of connection points: 2
#     Edge 56, Type (0, 1), BuildingBlock: XUDNAN_clean_linker_2, # of connection points: 2
#     Edge 57, Type (0, 1), BuildingBlock: XUDNAN_clean_linker_2, # of connection points: 2
#     Edge 58, Type (0, 1), BuildingBlock: XUDNAN_clean_linker_2, # of connection points: 2
#     Edge 59, Type (0, 1), BuildingBlock: XUDNAN_clean_linker_2, # of connection points: 2
#     Edge 60, Type (0, 1), BuildingBlock: XUDNAN_clean_linker_2, # of connection points: 2
#     Edge 61, Type (0, 1), BuildingBlock: XUDNAN_clean_linker_2, # of connection points: 2
#     Edge 62, Type (0, 1), BuildingBlock: XUDNAN_clean_linker_2, # of connection points: 2
#     Edge 63, Type (0, 1), BuildingBlock: XUDNAN_clean_linker_2, # of connection points: 2
#     Edge 64, Type (0, 1), BuildingBlock: XUDNAN_clean_linker_2, # of connection points: 2
#     Edge 65, Type (0, 1), BuildingBlock: XUDNAN_clean_linker_2, # of connection points: 2
#     Edge 66, Type (0, 1), BuildingBlock: XUDNAN_clean_linker_2, # of connection points: 2
#     Edge 67, Type (0, 1), BuildingBlock: XUDNAN_clean_linker_2, # of connection points: 2
#     Edge 68, Type (0, 1), BuildingBlock: XUDNAN_clean_linker_2, # of connection points: 2
#     Edge 69, Type (0, 1), BuildingBlock: XUDNAN_clean_linker_2, # of connection points: 2
#     Edge 70, Type (0, 1), BuildingBlock: XUDNAN_clean_linker_2, # of connection points: 2
#     Edge 71, Type (0, 1), BuildingBlock: XUDNAN_clean_linker_2, # of connection points: 2
#     Edge 72, Type (0, 1), BuildingBlock: XUDNAN_clean_linker_2, # of connection points: 2
#     Edge 73, Type (0, 1), BuildingBlock: XUDNAN_clean_linker_2, # of connection points: 2
#     Edge 74, Type (0, 1), BuildingBlock: XUDNAN_clean_linker_2, # of connection points: 2
#     Edge 75, Type (0, 1), BuildingBlock: XUDNAN_clean_linker_2, # of connection points: 2
#     Edge 76, Type (0, 1), BuildingBlock: XUDNAN_clean_linker_2, # of connection points: 2
#     Edge 77, Type (0, 1), BuildingBlock: XUDNAN_clean_linker_2, # of connection points: 2
#     Edge 78, Type (0, 1), BuildingBlock: XUDNAN_clean_linker_2, # of connection points: 2
#     Edge 79, Type (0, 1), BuildingBlock: XUDNAN_clean_linker_2, # of connection points: 2
#     Edge 80, Type (0, 1), BuildingBlock: XUDNAN_clean_linker_2, # of connection points: 2
# Relax obj value: 0.017
# Max RMSD: 0.127
# Mean RMSD: 0.054
data_MOF--net-eea--node1-CUKXOW_clean_sbu_0--node2-KAKCAD_clean_linker_0--edge1-XUDNAN_clean_linker_2
_symmetry_space_group_name_H-M    P1
_symmetry_Int_Tables_number       1
_symmetry_cell_setting            triclinic
loop_
_symmetry_equiv_pos_as_xyz
'x, y, z'
_cell_length_a     67.485705
_cell_length_b     64.399701
_cell_length_c     73.540241
_cell_angle_alpha  93.301288
_cell_angle_beta   93.049633
_cell_angle_gamma 119.93378
loop_
_atom_site_label
_atom_site_type_symbol
_atom_site_fract_x
_atom_site_fract_y
_atom_site_fract_z
_atom_type_partial_charge
C0 C 0.27286 0.15788 0.49727 0.0
C1 C 0.28481 0.14728 0.50492 0.0
C2 C 0.26596 0.15395 0.47857 0.0
C3 C 0.27114 0.13963 0.46686 0.0
C4 C 0.28396 0.12983 0.47438 0.0
C5 C 0.29069 0.13358 0.4932 0.0
C6 C 0.26227 0.1342 0.44711 0.0
C7 C 0.26067 0.15167 0.43747 0.0
C8 C 0.25032 0.14604 0.41942 0.0
C9 C 0.24241 0.12296 0.41068 0.0
C10 C 0.24412 0.10537 0.41992 0.0
C11 C 0.25391 0.11105 0.43815 0.0
C12 C 0.23446 0.08072 0.41072 0.0
C13 C 0.21934 0.0606 0.41941 0.0
C14 C 0.23946 0.0772 0.39288 0.0
C15 C 0.22935 0.05403 0.38383 0.0
C16 C 0.21378 0.03398 0.39235 0.0
C17 C 0.24657 0.1638 0.41004 0.0
C18 C 0.22513 0.15667 0.40062 0.0
C19 C 0.26408 0.188 0.41076 0.0
C20 C 0.26027 0.20467 0.40214 0.0
C21 C 0.2388 0.19753 0.39276 0.0
C22 C 0.22127 0.17335 0.39212 0.0
C23 C 0.209 0.03748 0.41027 0.0
H24 H 0.26842 0.16895 0.5058 0.0
H25 H 0.2559 0.16158 0.47345 0.0
H26 H 0.28859 0.11901 0.46575 0.0
H27 H 0.29982 0.1251 0.49863 0.0
H28 H 0.26688 0.16953 0.44416 0.0
H29 H 0.25455 0.09721 0.44544 0.0
H30 H 0.23442 0.11848 0.39675 0.0
H31 H 0.21504 0.06281 0.4331 0.0
H32 H 0.25114 0.09241 0.38591 0.0
H33 H 0.23328 0.05185 0.37 0.0
H34 H 0.21119 0.13821 0.40003 0.0
H35 H 0.28079 0.194 0.41786 0.0
H36 H 0.19724 0.0223 0.41723 0.0
H37 H 0.20461 0.16725 0.38487 0.0
H38 H 0.27406 0.22322 0.403 0.0
C39 C 0.88634 0.17208 0.51075 0.0
C40 C 0.87718 0.15514 0.52366 0.0
C41 C 0.88984 0.16532 0.49334 0.0
C42 C 0.88408 0.14144 0.4884 0.0
C43 C 0.87541 0.12463 0.50139 0.0
C44 C 0.87209 0.13142 0.51884 0.0
C45 C 0.88612 0.13377 0.46951 0.0
C46 C 0.90601 0.14762 0.46069 0.0
C47 C 0.9078 0.14021 0.4428 0.0
C48 C 0.88926 0.11915 0.43362 0.0
C49 C 0.86916 0.10535 0.44208 0.0
C50 C 0.86783 0.11265 0.46011 0.0
C51 C 0.84942 0.08364 0.43189 0.0
C52 C 0.84258 0.08425 0.41364 0.0
C53 C 0.83735 0.0622 0.44025 0.0
C54 C 0.81895 0.04174 0.43048 0.0
C55 C 0.81215 0.04237 0.41221 0.0
C56 C 0.92885 0.15425 0.43345 0.0
C57 C 0.93898 0.17932 0.43327 0.0
C58 C 0.93819 0.14229 0.42372 0.0
C59 C 0.95663 0.1549 0.41342 0.0
C60 C 0.96614 0.17979 0.4125 0.0
C61 C 0.95745 0.19198 0.42286 0.0
C62 C 0.82415 0.06387 0.40392 0.0
H63 H 0.89015 0.19041 0.51387 0.0
H64 H 0.89634 0.17859 0.48353 0.0
H65 H 0.87114 0.10617 0.49803 0.0
H66 H 0.86547 0.11802 0.52854 0.0
H67 H 0.92029 0.16378 0.46791 0.0
H68 H 0.8522 0.10231 0.46663 0.0
H69 H 0.89045 0.1135 0.41974 0.0
H70 H 0.85137 0.10058 0.40688 0.0
H71 H 0.84232 0.06115 0.45426 0.0
H72 H 0.80992 0.02548 0.43728 0.0
H73 H 0.93205 0.18898 0.44059 0.0
H74 H 0.93104 0.12305 0.42391 0.0
H75 H 0.8195 0.06486 0.3898 0.0
H76 H 0.96434 0.21113 0.42238 0.0
H77 H 0.96329 0.14505 0.406 0.0
C78 C 0.90238 0.74352 0.52038 0.0
C79 C 0.88024 0.73246 0.52638 0.0
C80 C 0.90612 0.75158 0.503 0.0
C81 C 0.88776 0.74833 0.49086 0.0
C82 C 0.86549 0.73674 0.49667 0.0
C83 C 0.8618 0.72905 0.51423 0.0
C84 C 0.89202 0.7573 0.47238 0.0
C85 C 0.90939 0.75691 0.4628 0.0
C86 C 0.91434 0.76629 0.44579 0.0
C87 C 0.90145 0.77583 0.43818 0.0
C88 C 0.88372 0.77594 0.44725 0.0
C89 C 0.87914 0.76674 0.46436 0.0
C90 C 0.86983 0.78534 0.43853 0.0
C91 C 0.88063 0.80715 0.43051 0.0
C92 C 0.84572 0.77187 0.43714 0.0
C93 C 0.83269 0.77955 0.4272 0.0
C94 C 0.84351 0.80094 0.41856 0.0
C95 C 0.93281 0.76593 0.43584 0.0
C96 C 0.95396 0.77181 0.44519 0.0
C97 C 0.92946 0.75989 0.41682 0.0
C98 C 0.9468 0.7598 0.40737 0.0
C99 C 0.96794 0.76561 0.41668 0.0
C100 C 0.97136 0.77168 0.43571 0.0
C101 C 0.86764 0.81492 0.42072 0.0
H102 H 0.91699 0.74604 0.52911 0.0
H103 H 0.92358 0.76072 0.49924 0.0
H104 H 0.85083 0.73354 0.48765 0.0
H105 H 0.84452 0.72083 0.51836 0.0
H106 H 0.91882 0.74882 0.46839 0.0
H107 H 0.86595 0.76759 0.47158 0.0
H108 H 0.9051 0.78308 0.42504 0.0
H109 H 0.89919 0.81809 0.43163 0.0
H110 H 0.83696 0.75489 0.44309 0.0
H111 H 0.81417 0.76821 0.4257 0.0
H112 H 0.95718 0.77677 0.45982 0.0
H113 H 0.9133 0.75503 0.40922 0.0
H114 H 0.87654 0.83178 0.41464 0.0
H115 H 0.98738 0.77609 0.44331 0.0
H116 H 0.94369 0.75538 0.39268 0.0
C117 C 0.11445 0.28486 0.48916 0.0
C118 C 0.13661 0.30483 0.48887 0.0
C119 C 0.10777 0.27309 0.50504 0.0
C120 C 0.12326 0.28081 0.52084 0.0
C121 C 0.14528 0.30098 0.52063 0.0
C122 C 0.15183 0.31297 0.50485 0.0
C123 C 0.117 0.26695 0.53708 0.0
C124 C 0.13161 0.2594 0.54465 0.0
C125 C 0.12553 0.24507 0.55938 0.0
C126 C 0.10466 0.23865 0.56672 0.0
C127 C 0.08998 0.24637 0.55948 0.0
C128 C 0.09622 0.26046 0.54462 0.0
C129 C 0.06781 0.23904 0.56714 0.0
C130 C 0.05242 0.21463 0.56881 0.0
C131 C 0.06186 0.25629 0.57276 0.0
C132 C 0.04087 0.24921 0.58 0.0
C133 C 0.02532 0.22474 0.58133 0.0
C134 C 0.14099 0.2367 0.56684 0.0
C135 C 0.15204 0.22883 0.55493 0.0
C136 C 0.14541 0.23722 0.58583 0.0
C137 C 0.16125 0.23093 0.59273 0.0
C138 C 0.173 0.22409 0.58077 0.0
C139 C 0.16786 0.22264 0.56181 0.0
C140 C 0.03129 0.20753 0.57569 0.0
H141 H 0.10233 0.27831 0.47706 0.0
H142 H 0.09076 0.25748 0.5048 0.0
H143 H 0.15752 0.30732 0.53264 0.0
H144 H 0.16906 0.32821 0.50499 0.0
H145 H 0.1477 0.26451 0.53888 0.0
H146 H 0.08479 0.26614 0.53882 0.0
H147 H 0.09968 0.22748 0.57799 0.0
H148 H 0.05659 0.201 0.5645 0.0
H149 H 0.07353 0.27523 0.57168 0.0
H150 H 0.03657 0.26277 0.58419 0.0
H151 H 0.14859 0.22765 0.54024 0.0
H152 H 0.13726 0.24331 0.59537 0.0
H153 H 0.01961 0.18856 0.57665 0.0
H154 H 0.17633 0.21699 0.55225 0.0
H155 H 0.16498 0.23236 0.6074 0.0
C156 C 0.72236 0.83082 0.5053 0.0
C157 C 0.72915 0.84891 0.49329 0.0
C158 C 0.73052 0.83661 0.52383 0.0
C159 C 0.74573 0.86064 0.53078 0.0
C160 C 0.75273 0.8787 0.5187 0.0
C161 C 0.74449 0.87291 0.50019 0.0
C162 C 0.75383 0.86688 0.55063 0.0
C163 C 0.75973 0.8522 0.56038 0.0
C164 C 0.76718 0.85791 0.57919 0.0
C165 C 0.76811 0.87825 0.58825 0.0
C166 C 0.76294 0.89338 0.57865 0.0
C167 C 0.75583 0.88766 0.5599 0.0
C168 C 0.76617 0.91582 0.58821 0.0
C169 C 0.75459 0.91503 0.60364 0.0
C170 C 0.78204 0.9382 0.58264 0.0
C171 C 0.78686 0.95952 0.59274 0.0
C172 C 0.77557 0.95891 0.60845 0.0
C173 C 0.77537 0.84369 0.5892 0.0
C174 C 0.76463 0.81851 0.58563 0.0
C175 C 0.79453 0.85551 0.60228 0.0
C176 C 0.80279 0.84263 0.61147 0.0
C177 C 0.79244 0.81756 0.60766 0.0
C178 C 0.77308 0.80558 0.59476 0.0
C179 C 0.75901 0.93633 0.61352 0.0
H180 H 0.71031 0.81219 0.50047 0.0
H181 H 0.7245 0.8223 0.53278 0.0
H182 H 0.76475 0.89734 0.52351 0.0
H183 H 0.75033 0.88722 0.49123 0.0
H184 H 0.75936 0.83686 0.55314 0.0
H185 H 0.75146 0.89924 0.55267 0.0
H186 H 0.77348 0.88281 0.60277 0.0
H187 H 0.74218 0.8979 0.6081 0.0
H188 H 0.79135 0.93916 0.57086 0.0
H189 H 0.79997 0.97642 0.58851 0.0
H190 H 0.74969 0.80876 0.57579 0.0
H191 H 0.80355 0.8749 0.60523 0.0
H192 H 0.74947 0.93501 0.6252 0.0
H193 H 0.76476 0.78629 0.5914 0.0
H194 H 0.81746 0.85246 0.62155 0.0
C195 C 0.0987 0.85212 0.48564 0.0
C196 C 0.11653 0.84838 0.48047 0.0
C197 C 0.09628 0.85578 0.50416 0.0
C198 C 0.11197 0.85628 0.51775 0.0
C199 C 0.12931 0.85176 0.51263 0.0
C200 C 0.13142 0.84758 0.49415 0.0
C201 C 0.11158 0.8636 0.53711 0.0
C202 C 0.09321 0.84898 0.54713 0.0
C203 C 0.09345 0.85579 0.56571 0.0
C204 C 0.11181 0.87784 0.57384 0.0
C205 C 0.13028 0.89263 0.56404 0.0
C206 C 0.13005 0.8853 0.54563 0.0
C207 C 0.14994 0.9153 0.57335 0.0
C208 C 0.15999 0.93671 0.56469 0.0
C209 C 0.15854 0.9157 0.59128 0.0
C210 C 0.17657 0.93692 0.60038 0.0
C211 C 0.18665 0.95836 0.5918 0.0
C212 C 0.07507 0.84002 0.57707 0.0
C213 C 0.0517 0.82832 0.57049 0.0
C214 C 0.08095 0.83764 0.59516 0.0
C215 C 0.06399 0.82509 0.6067 0.0
C216 C 0.04066 0.81436 0.60044 0.0
C217 C 0.03463 0.81554 0.58208 0.0
C218 C 0.17811 0.95805 0.57385 0.0
H219 H 0.08707 0.8529 0.47533 0.0
H220 H 0.08286 0.85935 0.50785 0.0
H221 H 0.14161 0.85213 0.52292 0.0
H222 H 0.14548 0.84505 0.49052 0.0
H223 H 0.07923 0.83202 0.54063 0.0
H224 H 0.14433 0.89634 0.53794 0.0
H225 H 0.11163 0.88368 0.58792 0.0
H226 H 0.15364 0.93704 0.55093 0.0
H227 H 0.1514 0.8995 0.59829 0.0
H228 H 0.18248 0.93654 0.61428 0.0
H229 H 0.04661 0.82983 0.55664 0.0
H230 H 0.09878 0.84584 0.60054 0.0
H231 H 0.18561 0.97422 0.56681 0.0
H232 H 0.01675 0.80743 0.5769 0.0
H233 H 0.06915 0.82403 0.62066 0.0
C234 C 0.93508 0.49679 0.84912 0.0
C235 C 0.95152 0.48957 0.85161 0.0
C236 C 0.91954 0.48831 0.83332 0.0
C237 C 0.92011 0.47241 0.81967 0.0
C238 C 0.93676 0.46551 0.82214 0.0
C239 C 0.95198 0.4737 0.8379 0.0
C240 C 0.90361 0.46282 0.80284 0.0
C241 C 0.8975 0.47765 0.79354 0.0
C242 C 0.88383 0.4691 0.77664 0.0
C243 C 0.87594 0.44528 0.76934 0.0
C244 C 0.88225 0.43048 0.77821 0.0
C245 C 0.89546 0.43913 0.79515 0.0
C246 C 0.87786 0.40742 0.76862 0.0
C247 C 0.85627 0.39082 0.75944 0.0
C248 C 0.89609 0.40288 0.76742 0.0
C249 C 0.89308 0.3827 0.75678 0.0
C250 C 0.87172 0.36645 0.74722 0.0
C251 C 0.8798 0.4856 0.76559 0.0
C252 C 0.8752 0.50287 0.77378 0.0
C253 C 0.88116 0.4845 0.74657 0.0
C254 C 0.87812 0.50018 0.73604 0.0
C255 C 0.87396 0.51775 0.74419 0.0
C256 C 0.87225 0.51875 0.76317 0.0
C257 C 0.85317 0.37036 0.74896 0.0
H258 H 0.93429 0.50913 0.8593 0.0
H259 H 0.90692 0.49396 0.83191 0.0
H260 H 0.93818 0.45376 0.81181 0.0
H261 H 0.96398 0.46724 0.83938 0.0
H262 H 0.90454 0.49626 0.79887 0.0
H263 H 0.8999 0.42742 0.80211 0.0
H264 H 0.8658 0.43859 0.7562 0.0
H265 H 0.84192 0.39388 0.76016 0.0
H266 H 0.913 0.41547 0.77413 0.0
H267 H 0.90762 0.38 0.75576 0.0
H268 H 0.87391 0.50413 0.78837 0.0
H269 H 0.8851 0.47181 0.73976 0.0
H270 H 0.83654 0.3581 0.74165 0.0
H271 H 0.8692 0.53217 0.7699 0.0
H272 H 0.8792 0.4986 0.72143 0.0
C273 C 0.55032 0.49688 0.83833 0.0
C274 C 0.54337 0.47999 0.85135 0.0
C275 C 0.55313 0.49073 0.8205 0.0
C276 C 0.54896 0.46747 0.81517 0.0
C277 C 0.54189 0.4505 0.82812 0.0
C278 C 0.53918 0.45669 0.84601 0.0
C279 C 0.55189 0.46103 0.79614 0.0
C280 C 0.57083 0.47726 0.78736 0.0
C281 C 0.57349 0.47167 0.76925 0.0
C282 C 0.55698 0.44962 0.75979 0.0
C283 C 0.53757 0.43332 0.76815 0.0
C284 C 0.53537 0.43906 0.78643 0.0
C285 C 0.51878 0.41122 0.75743 0.0
C286 C 0.51143 0.41222 0.73942 0.0
C287 C 0.50734 0.38929 0.76531 0.0
C288 C 0.48873 0.369 0.75552 0.0
C289 C 0.48106 0.37022 0.73767 0.0
C290 C 0.59295 0.48959 0.76 0.0
C291 C 0.59601 0.51264 0.75883 0.0
C292 C 0.60869 0.48404 0.7526 0.0
C293 C 0.62773 0.50163 0.74477 0.0
C294 C 0.63113 0.52499 0.7439 0.0
C295 C 0.61468 0.53001 0.7507 0.0
C296 C 0.49283 0.392 0.72967 0.0
H297 H 0.55321 0.51482 0.84179 0.0
H298 H 0.55819 0.50411 0.81078 0.0
H299 H 0.53875 0.4325 0.82448 0.0
H300 H 0.53407 0.44329 0.85571 0.0
H301 H 0.58369 0.49428 0.79465 0.0
H302 H 0.52023 0.42694 0.79285 0.0
H303 H 0.55898 0.44547 0.74575 0.0
H304 H 0.51965 0.42886 0.73298 0.0
H305 H 0.51269 0.38786 0.77911 0.0
H306 H 0.47997 0.35253 0.76212 0.0
H307 H 0.58386 0.51719 0.76419 0.0
H308 H 0.60664 0.46633 0.75338 0.0
H309 H 0.48758 0.39347 0.71585 0.0
H310 H 0.61618 0.54745 0.74981 0.0
H311 H 0.64006 0.49707 0.73988 0.0
C312 C 0.56422 0.07153 0.84926 0.0
C313 C 0.54364 0.0631 0.85768 0.0
C314 C 0.56611 0.07961 0.83186 0.0
C315 C 0.5472 0.07862 0.82191 0.0
C316 C 0.52645 0.06964 0.83014 0.0
C317 C 0.52485 0.06252 0.84784 0.0
C318 C 0.54908 0.08696 0.80314 0.0
C319 C 0.56469 0.08589 0.79169 0.0
C320 C 0.56714 0.09447 0.77432 0.0
C321 C 0.5525 0.10263 0.76782 0.0
C322 C 0.53615 0.10301 0.77867 0.0
C323 C 0.53526 0.09606 0.79651 0.0
C324 C 0.51955 0.11006 0.7713 0.0
C325 C 0.52607 0.12833 0.75942 0.0
C326 C 0.49674 0.09807 0.77592 0.0
C327 C 0.481 0.10443 0.76913 0.0
C328 C 0.48755 0.12264 0.75731 0.0
C329 C 0.58534 0.09539 0.76317 0.0
C330 C 0.60695 0.10134 0.77166 0.0
C331 C 0.58161 0.09114 0.74399 0.0
C332 C 0.59916 0.09336 0.73357 0.0
C333 C 0.62082 0.09944 0.74205 0.0
C334 C 0.62437 0.10313 0.76125 0.0
C335 C 0.51015 0.13441 0.75237 0.0
H336 H 0.57904 0.07185 0.85596 0.0
H337 H 0.5826 0.0868 0.82638 0.0
H338 H 0.51121 0.06791 0.82297 0.0
H339 H 0.50878 0.05676 0.85372 0.0
H340 H 0.57482 0.07804 0.79613 0.0
H341 H 0.52386 0.09809 0.8053 0.0
H342 H 0.5538 0.10867 0.75428 0.0
H343 H 0.54353 0.1382 0.75574 0.0
H344 H 0.49087 0.0835 0.78463 0.0
H345 H 0.46357 0.09488 0.77295 0.0
H346 H 0.61063 0.10507 0.78637 0.0
H347 H 0.56512 0.08613 0.73694 0.0
H348 H 0.51562 0.14866 0.74338 0.0
H349 H 0.64063 0.10742 0.76834 0.0
H350 H 0.59578 0.09071 0.71882 0.0
C351 C 0.79054 0.58792 0.82834 0.0
C352 C 0.79505 0.61098 0.82472 0.0
C353 C 0.78781 0.58116 0.84615 0.0
C354 C 0.789 0.59715 0.86054 0.0
C355 C 0.79299 0.62001 0.85689 0.0
C356 C 0.79625 0.62699 0.83912 0.0
C357 C 0.78761 0.59052 0.87949 0.0
C358 C 0.80446 0.58637 0.8875 0.0
C359 C 0.8041 0.581 0.9057 0.0
C360 C 0.78625 0.5791 0.91576 0.0
C361 C 0.76862 0.58225 0.90771 0.0
C362 C 0.76974 0.58849 0.8896 0.0
C363 C 0.74888 0.57835 0.91814 0.0
C364 C 0.73956 0.55951 0.92951 0.0
C365 C 0.73919 0.59323 0.9169 0.0
C366 C 0.72095 0.58963 0.92711 0.0
C367 C 0.71216 0.57119 0.93885 0.0
C368 C 0.82272 0.57796 0.91427 0.0
C369 C 0.82861 0.56193 0.90579 0.0
C370 C 0.83529 0.59176 0.93062 0.0
C371 C 0.85383 0.59004 0.9381 0.0
C372 C 0.85984 0.57415 0.92955 0.0
C373 C 0.84688 0.55986 0.91347 0.0
C374 C 0.72152 0.55604 0.93976 0.0
H375 H 0.78962 0.57533 0.81743 0.0
H376 H 0.78486 0.56349 0.84874 0.0
H377 H 0.79417 0.63265 0.86787 0.0
H378 H 0.79962 0.64482 0.83659 0.0
H379 H 0.81833 0.58812 0.8797 0.0
H380 H 0.75641 0.59105 0.88311 0.0
H381 H 0.78608 0.57499 0.92986 0.0
H382 H 0.74613 0.54728 0.93044 0.0
H383 H 0.74602 0.608 0.90838 0.0
H384 H 0.71415 0.60166 0.92621 0.0
H385 H 0.8191 0.55106 0.89319 0.0
H386 H 0.83113 0.60433 0.93734 0.0
H387 H 0.7148 0.54136 0.94839 0.0
H388 H 0.85126 0.54756 0.90661 0.0
H389 H 0.86352 0.60114 0.95057 0.0
C390 C 0.37629 0.16228 0.83276 0.0
C391 C 0.38382 0.17877 0.81942 0.0
C392 C 0.38725 0.16893 0.85055 0.0
C393 C 0.4059 0.19226 0.85545 0.0
C394 C 0.41355 0.20867 0.84208 0.0
C395 C 0.40267 0.20201 0.8243 0.0
C396 C 0.41727 0.1997 0.87444 0.0
C397 C 0.42282 0.1846 0.88388 0.0
C398 C 0.43475 0.1923 0.90146 0.0
C399 C 0.44055 0.21512 0.90972 0.0
C400 C 0.43519 0.23042 0.90048 0.0
C401 C 0.42343 0.22249 0.88292 0.0
C402 C 0.44312 0.25525 0.90868 0.0
C403 C 0.4409 0.25972 0.92718 0.0
C404 C 0.45366 0.27479 0.89808 0.0
C405 C 0.46215 0.29831 0.90587 0.0
C406 C 0.46021 0.30284 0.92442 0.0
C407 C 0.44283 0.17746 0.91062 0.0
C408 C 0.42863 0.15235 0.9104 0.0
C409 C 0.46527 0.18844 0.91927 0.0
C410 C 0.47346 0.1747 0.92726 0.0
C411 C 0.45948 0.14959 0.92678 0.0
C412 C 0.43685 0.13856 0.91849 0.0
C413 C 0.44926 0.28329 0.93495 0.0
H414 H 0.36163 0.14433 0.82956 0.0
H415 H 0.38082 0.15596 0.86059 0.0
H416 H 0.42816 0.22665 0.84532 0.0
H417 H 0.40924 0.21502 0.81431 0.0
H418 H 0.41887 0.16736 0.87717 0.0
H419 H 0.41899 0.23413 0.87583 0.0
H420 H 0.44988 0.2213 0.9232 0.0
H421 H 0.43272 0.245 0.93565 0.0
H422 H 0.45583 0.27195 0.88384 0.0
H423 H 0.47028 0.31298 0.89736 0.0
H424 H 0.41121 0.14338 0.90395 0.0
H425 H 0.47679 0.20766 0.91951 0.0
H426 H 0.44764 0.28625 0.94931 0.0
H427 H 0.4257 0.11923 0.91785 0.0
H428 H 0.49088 0.1838 0.93374 0.0
C429 C 0.7851 0.17548 0.83259 0.0
C430 C 0.80617 0.17945 0.82685 0.0
C431 C 0.78322 0.18093 0.85087 0.0
C432 C 0.8024 0.19056 0.8639 0.0
C433 C 0.8235 0.19461 0.85819 0.0
C434 C 0.82537 0.1891 0.83989 0.0
C435 C 0.80046 0.19686 0.88327 0.0
C436 C 0.78102 0.18163 0.8921 0.0
C437 C 0.77874 0.18801 0.91012 0.0
C438 C 0.79599 0.2099 0.91933 0.0
C439 C 0.81522 0.22567 0.91061 0.0
C440 C 0.81752 0.2188 0.8927 0.0
C441 C 0.83159 0.25027 0.91946 0.0
C442 C 0.82321 0.26405 0.92797 0.0
C443 C 0.85543 0.26069 0.91858 0.0
C444 C 0.87047 0.28459 0.92572 0.0
C445 C 0.8619 0.29855 0.93363 0.0
C446 C 0.7575 0.17298 0.91893 0.0
C447 C 0.73605 0.1673 0.91036 0.0
C448 C 0.75865 0.16599 0.93654 0.0
C449 C 0.73876 0.15408 0.94561 0.0
C450 C 0.71755 0.14946 0.93735 0.0
C451 C 0.71628 0.15588 0.91959 0.0
C452 C 0.83817 0.28789 0.93493 0.0
H453 H 0.77005 0.1685 0.82288 0.0
H454 H 0.76682 0.17802 0.85472 0.0
H455 H 0.83855 0.2018 0.86793 0.0
H456 H 0.84178 0.19207 0.83603 0.0
H457 H 0.76764 0.16476 0.88498 0.0
H458 H 0.83196 0.23117 0.88571 0.0
H459 H 0.79397 0.21509 0.93309 0.0
H460 H 0.80494 0.25668 0.92869 0.0
H461 H 0.86239 0.25046 0.91219 0.0
H462 H 0.88869 0.29239 0.92448 0.0
H463 H 0.73476 0.17271 0.89687 0.0
H464 H 0.77501 0.17021 0.94341 0.0
H465 H 0.8311 0.29815 0.94111 0.0
H466 H 0.70007 0.15257 0.91304 0.0
H467 H 0.7401 0.14944 0.95937 0.0
C468 C 0.58227 0.81709 0.17961 0.0
C469 C 0.60013 0.8128 0.18504 0.0
C470 C 0.5726 0.81149 0.16145 0.0
C471 C 0.58039 0.80126 0.14829 0.0
C472 C 0.59786 0.79645 0.15376 0.0
C473 C 0.60766 0.80221 0.17189 0.0
C474 C 0.5707 0.7961 0.12883 0.0
C475 C 0.56723 0.81309 0.12014 0.0
C476 C 0.55903 0.80873 0.1016 0.0
C477 C 0.55385 0.78706 0.09175 0.0
C478 C 0.55639 0.76943 0.10029 0.0
C479 C 0.56513 0.77427 0.11881 0.0
C480 C 0.54904 0.74568 0.09004 0.0
C481 C 0.52885 0.73432 0.07801 0.0
C482 C 0.5617 0.73391 0.09243 0.0
C483 C 0.55413 0.71118 0.08322 0.0
C484 C 0.5337 0.69969 0.07145 0.0
C485 C 0.55602 0.82682 0.09227 0.0
C486 C 0.53894 0.83207 0.09675 0.0
C487 C 0.56952 0.83801 0.07814 0.0
C488 C 0.56582 0.85397 0.06842 0.0
C489 C 0.54809 0.85865 0.07227 0.0
C490 C 0.53488 0.84769 0.08676 0.0
C491 C 0.52133 0.7117 0.06881 0.0
H492 H 0.57569 0.82477 0.18941 0.0
H493 H 0.55892 0.81507 0.15772 0.0
H494 H 0.60441 0.78881 0.14389 0.0
H495 H 0.62159 0.79897 0.17546 0.0
H496 H 0.57156 0.83005 0.12762 0.0
H497 H 0.56693 0.76076 0.12564 0.0
H498 H 0.54766 0.78391 0.07738 0.0
H499 H 0.51849 0.74266 0.07597 0.0
H500 H 0.57747 0.74224 0.10143 0.0
H501 H 0.564 0.70238 0.08567 0.0
H502 H 0.52825 0.82347 0.10757 0.0
H503 H 0.58291 0.83431 0.07458 0.0
H504 H 0.50571 0.70358 0.05964 0.0
H505 H 0.52093 0.85055 0.09007 0.0
H506 H 0.57688 0.86253 0.0578 0.0
C507 C 0.20953 0.83022 0.1745 0.0
C508 C 0.21243 0.81494 0.18594 0.0
C509 C 0.214 0.83009 0.15609 0.0
C510 C 0.22132 0.81464 0.14893 0.0
C511 C 0.22562 0.8006 0.16061 0.0
C512 C 0.2214 0.80089 0.17894 0.0
C513 C 0.22199 0.81073 0.12905 0.0
C514 C 0.23862 0.82858 0.11949 0.0
C515 C 0.24071 0.82329 0.1011 0.0
C516 C 0.22557 0.80025 0.0922 0.0
C517 C 0.20848 0.78243 0.10155 0.0
C518 C 0.20686 0.78793 0.11997 0.0
C519 C 0.19317 0.75764 0.09261 0.0
C520 C 0.18302 0.75359 0.07458 0.0
C521 C 0.18854 0.73772 0.10225 0.0
C522 C 0.17413 0.71435 0.09413 0.0
C523 C 0.16406 0.7102 0.0761 0.0
C524 C 0.25985 0.84122 0.09164 0.0
C525 C 0.26254 0.864 0.08983 0.0
C526 C 0.27594 0.83579 0.08486 0.0
C527 C 0.29482 0.8531 0.07682 0.0
C528 C 0.29778 0.87612 0.07505 0.0
C529 C 0.28112 0.88116 0.08141 0.0
C530 C 0.16851 0.73007 0.06642 0.0
H531 H 0.20255 0.84117 0.17946 0.0
H532 H 0.21051 0.84099 0.14723 0.0
H533 H 0.23144 0.7887 0.15535 0.0
H534 H 0.22431 0.78933 0.18748 0.0
H535 H 0.25066 0.84607 0.12659 0.0
H536 H 0.19388 0.77433 0.12743 0.0
H537 H 0.22751 0.79607 0.07815 0.0
H538 H 0.18613 0.76859 0.06686 0.0
H539 H 0.19628 0.74016 0.11606 0.0
H540 H 0.17083 0.69947 0.10206 0.0
H541 H 0.25019 0.86847 0.09485 0.0
H542 H 0.27428 0.81835 0.08629 0.0
H543 H 0.1611 0.72743 0.05247 0.0
H544 H 0.28238 0.89839 0.07993 0.0
H545 H 0.30737 0.84855 0.07248 0.0
C546 C 0.2166 0.37786 0.1799 0.0
C547 C 0.19433 0.35867 0.18137 0.0
C548 C 0.22226 0.38874 0.16355 0.0
C549 C 0.20564 0.38093 0.14851 0.0
C550 C 0.18338 0.3618 0.15002 0.0
C551 C 0.17784 0.35065 0.16622 0.0
C552 C 0.21125 0.39309 0.13143 0.0
C553 C 0.23068 0.39674 0.12282 0.0
C554 C 0.23607 0.40832 0.10661 0.0
C555 C 0.22164 0.4163 0.09921 0.0
C556 C 0.20216 0.41292 0.10772 0.0
C557 C 0.19712 0.40119 0.1238 0.0
C558 C 0.18748 0.42225 0.10012 0.0
C559 C 0.19742 0.44432 0.09239 0.0
C560 C 0.1635 0.40946 0.10084 0.0
C561 C 0.14991 0.41872 0.09429 0.0
C562 C 0.15993 0.44092 0.0867 0.0
C563 C 0.25673 0.41213 0.09743 0.0
C564 C 0.27708 0.41733 0.10781 0.0
C565 C 0.25633 0.41064 0.0782 0.0
C566 C 0.27569 0.41422 0.06963 0.0
C567 C 0.29578 0.41897 0.08007 0.0
C568 C 0.29629 0.42053 0.09924 0.0
C569 C 0.18384 0.4534 0.08564 0.0
H570 H 0.22965 0.3843 0.19135 0.0
H571 H 0.23951 0.40356 0.16277 0.0
H572 H 0.17028 0.3554 0.1386 0.0
H573 H 0.16051 0.336 0.16703 0.0
H574 H 0.24123 0.38998 0.12856 0.0
H575 H 0.18256 0.39898 0.13081 0.0
H576 H 0.22566 0.42534 0.08683 0.0
H577 H 0.21581 0.45489 0.09179 0.0
H578 H 0.15516 0.39223 0.10645 0.0
H579 H 0.13161 0.40865 0.09547 0.0
H580 H 0.27831 0.41916 0.12262 0.0
H581 H 0.24091 0.40624 0.06967 0.0
H582 H 0.19219 0.47028 0.07955 0.0
H583 H 0.31166 0.42442 0.10762 0.0
H584 H 0.27474 0.41264 0.05483 0.0
C585 C 0.46946 0.94084 0.16178 0.0
C586 C 0.47204 0.96345 0.15924 0.0
C587 C 0.46666 0.93258 0.17911 0.0
C588 C 0.46593 0.94656 0.19414 0.0
C589 C 0.46833 0.96914 0.19161 0.0
C590 C 0.47165 0.97767 0.17427 0.0
C591 C 0.4629 0.9374 0.21236 0.0
C592 C 0.47813 0.93049 0.21968 0.0
C593 C 0.47454 0.91961 0.23613 0.0
C594 C 0.45549 0.91599 0.24531 0.0
C595 C 0.43992 0.92269 0.23817 0.0
C596 C 0.44399 0.93375 0.22174 0.0
C597 C 0.419 0.91699 0.24759 0.0
C598 C 0.40737 0.89527 0.25571 0.0
C599 C 0.41078 0.93323 0.249 0.0
C600 C 0.39191 0.92818 0.25888 0.0
C601 C 0.38113 0.90696 0.26766 0.0
C602 C 0.48983 0.91073 0.24317 0.0
C603 C 0.49868 0.90046 0.231 0.0
C604 C 0.495 0.91156 0.26209 0.0
C605 C 0.50806 0.90172 0.26863 0.0
C606 C 0.51659 0.89111 0.25644 0.0
C607 C 0.51203 0.891 0.23753 0.0
C608 C 0.38882 0.89043 0.26573 0.0
H609 H 0.46968 0.9296 0.15034 0.0
H610 H 0.46476 0.91507 0.18074 0.0
H611 H 0.46789 0.98022 0.20305 0.0
H612 H 0.47348 0.99511 0.17251 0.0
H613 H 0.49278 0.9336 0.21241 0.0
H614 H 0.43188 0.93843 0.21576 0.0
H615 H 0.45243 0.90739 0.25789 0.0
H616 H 0.41267 0.88195 0.25443 0.0
H617 H 0.41933 0.95014 0.24296 0.0
H618 H 0.38626 0.94122 0.2602 0.0
H619 H 0.49487 0.89915 0.21635 0.0
H620 H 0.48885 0.91967 0.27191 0.0
H621 H 0.38052 0.87372 0.27209 0.0
H622 H 0.51867 0.88348 0.22767 0.0
H623 H 0.51101 0.902 0.28328 0.0
C624 C 0.04032 0.49574 0.17394 0.0
C625 C 0.05044 0.51089 0.16012 0.0
C626 C 0.05134 0.50156 0.19166 0.0
C627 C 0.07257 0.52284 0.19602 0.0
C628 C 0.08291 0.53779 0.18212 0.0
C629 C 0.07204 0.53177 0.16429 0.0
C630 C 0.08347 0.5296 0.21514 0.0
C631 C 0.08513 0.51249 0.22515 0.0
C632 C 0.09484 0.51846 0.24341 0.0
C633 C 0.10241 0.54169 0.25176 0.0
C634 C 0.10082 0.55901 0.24202 0.0
C635 C 0.09162 0.55294 0.22362 0.0
C636 C 0.10894 0.58343 0.25117 0.0
C637 C 0.10254 0.58629 0.26862 0.0
C638 C 0.12383 0.60403 0.24284 0.0
C639 C 0.13274 0.62697 0.25204 0.0
C640 C 0.12669 0.62981 0.26964 0.0
C641 C 0.09742 0.50062 0.25372 0.0
C642 C 0.07949 0.47658 0.25281 0.0
C643 C 0.11796 0.50757 0.26454 0.0
C644 C 0.12053 0.49087 0.27419 0.0
C645 C 0.1026 0.46684 0.27333 0.0
C646 C 0.08202 0.45988 0.26256 0.0
C647 C 0.11119 0.60925 0.27771 0.0
H648 H 0.0237 0.47952 0.17108 0.0
H649 H 0.0429 0.48975 0.2021 0.0
H650 H 0.09936 0.55421 0.18507 0.0
H651 H 0.08011 0.54386 0.15392 0.0
H652 H 0.07936 0.49466 0.21855 0.0
H653 H 0.09008 0.56613 0.21609 0.0
H654 H 0.10968 0.54637 0.26591 0.0
H655 H 0.09092 0.57071 0.27528 0.0
H656 H 0.12911 0.60235 0.22944 0.0
H657 H 0.14451 0.64253 0.24544 0.0
H658 H 0.0634 0.47071 0.2447 0.0
H659 H 0.13218 0.52591 0.26538 0.0
H660 H 0.10631 0.6109 0.29128 0.0
H661 H 0.06796 0.44145 0.26148 0.0
H662 H 0.13653 0.49686 0.28249 0.0
C663 C 0.44439 0.50679 0.16345 0.0
C664 C 0.46608 0.51577 0.15677 0.0
C665 C 0.44239 0.51258 0.18156 0.0
C666 C 0.46201 0.5267 0.19393 0.0
C667 C 0.48373 0.53484 0.18748 0.0
C668 C 0.48574 0.52981 0.16913 0.0
C669 C 0.45968 0.53327 0.21325 0.0
C670 C 0.44011 0.51814 0.22193 0.0
C671 C 0.43668 0.52497 0.23946 0.0
C672 C 0.454 0.54658 0.24901 0.0
C673 C 0.47422 0.56146 0.24098 0.0
C674 C 0.47661 0.555 0.22299 0.0
C675 C 0.49311 0.58365 0.25135 0.0
C676 C 0.48861 0.59962 0.2617 0.0
C677 C 0.51595 0.58893 0.25091 0.0
C678 C 0.5339 0.60969 0.26061 0.0
C679 C 0.52946 0.62571 0.27095 0.0
C680 C 0.41474 0.50946 0.24741 0.0
C681 C 0.39394 0.49809 0.23609 0.0
C682 C 0.4143 0.50531 0.26601 0.0
C683 C 0.39362 0.48938 0.27291 0.0
C684 C 0.37313 0.47723 0.26129 0.0
C685 C 0.37344 0.48205 0.24292 0.0
C686 C 0.50664 0.62052 0.27135 0.0
H687 H 0.42873 0.49531 0.15471 0.0
H688 H 0.42528 0.50623 0.18564 0.0
H689 H 0.49934 0.54526 0.19651 0.0
H690 H 0.50281 0.53741 0.16468 0.0
H691 H 0.4274 0.50076 0.21512 0.0
H692 H 0.49159 0.56734 0.21654 0.0
H693 H 0.45179 0.55181 0.26268 0.0
H694 H 0.4712 0.5961 0.26218 0.0
H695 H 0.51993 0.57686 0.24319 0.0
H696 H 0.55132 0.61333 0.25986 0.0
H697 H 0.39351 0.50138 0.22184 0.0
H698 H 0.43001 0.5137 0.27508 0.0
H699 H 0.50269 0.63246 0.2793 0.0
H700 H 0.35778 0.47319 0.23376 0.0
H701 H 0.39379 0.48586 0.28713 0.0
Tb702 Tb 0.53673 0.0299 0.00904 0.0
C703 C 0.51693 0.97663 0.01772 0.0
Tb704 Tb 0.48303 0.99647 0.00799 0.0
O705 O 0.54108 0.03244 0.03914 0.0
O706 O 0.5102 0.0248 0.02548 0.0
O707 O 0.53399 0.99503 0.01068 0.0
C708 C 0.44062 0.97582 0.01879 0.0
O709 O 0.49674 0.975 0.02005 0.0
C710 C 0.49953 0.99851 0.97614 0.0
C711 C 0.50303 0.04648 0.99181 0.0
O712 O 0.44934 0.96437 0.0103 0.0
O713 O 0.45576 0.99859 0.02112 0.0
O714 O 0.47789 0.99076 0.9779 0.0
O715 O 0.50945 0.00135 0.99183 0.0
O716 O 0.48522 0.02932 0.99911 0.0
O717 O 0.52348 0.0482 0.99266 0.0
C718 C 0.57932 0.06134 0.00149 0.0
O719 O 0.56441 0.06668 0.00721 0.0
O720 O 0.5705 0.03811 1.00047 0.0
C721 C 0.5197 0.02553 0.04093 0.0
Tb722 Tb 0.99639 0.51812 0.99962 0.0
C723 C 0.04537 0.54969 0.01992 0.0
Tb724 Tb 0.02577 0.49428 0.00711 0.0
O725 O 0.99212 0.52283 0.02857 0.0
O726 O 0.99858 0.4959 0.01888 0.0
O727 O 0.02913 0.55023 0.00931 0.0
C728 C 0.0548 0.48285 0.02343 0.0
O729 O 0.04489 0.52935 0.02281 0.0
C730 C 0.02431 0.50557 0.97361 0.0
C731 C 0.97691 0.46221 0.98704 0.0
O732 O 0.06028 0.50056 0.01349 0.0
O733 O 0.03261 0.47085 0.02387 0.0
O734 O 0.02945 0.48943 0.97794 0.0
O735 O 0.0235 0.51651 0.98804 0.0
O736 O 0.99345 0.4619 0.9975 0.0
O737 O 0.97662 0.48237 0.98452 0.0
C738 C 0.97245 0.53602 0.98373 0.0
O739 O 0.96372 0.51625 0.99167 0.0
O740 O 0.99459 0.54569 0.98472 0.0
C741 C 0.9977 0.5071 0.03314 0.0
Tb742 Tb 0.47296 0.48613 1.00097 0.0
C743 C 0.49799 0.4591 0.98701 0.0
Tb744 Tb 0.52664 0.51508 0.00142 0.0
O745 O 0.468 0.48005 0.97108 0.0
O746 O 0.49767 0.50953 0.98448 0.0
O747 O 0.4791 0.45677 0.99355 0.0
C748 C 0.57034 0.53379 0.99415 0.0
O749 O 0.5174 0.48008 0.98755 0.0
C750 C 0.51045 0.50354 0.0333 0.0
C751 C 0.50208 0.5435 0.01238 0.0
O752 O 0.56117 0.52097 0.00753 0.0
O753 O 0.55493 0.5364 0.98486 0.0
O754 O 0.53068 0.52152 0.03141 0.0
O755 O 0.5017 0.4918 0.01789 0.0
O756 O 0.52108 0.54535 0.00631 0.0
O757 O 0.4827 0.52252 0.01265 0.0
C758 C 0.43147 0.46179 0.01333 0.0
O759 O 0.43793 0.47976 0.00334 0.0
O760 O 0.44823 0.45757 0.01604 0.0
C761 C 0.48851 0.49775 0.96913 0.0
Tb762 Tb 0.19166 0.35243 0.33256 0.0
C763 C 0.18609 0.30227 0.34323 0.0
Tb764 Tb 0.14411 0.31064 0.33864 0.0
O765 O 0.19514 0.37131 0.3594 0.0
O766 O 0.17515 0.33391 0.35485 0.0
O767 O 0.19876 0.32308 0.33628 0.0
C768 C 0.10341 0.28088 0.35042 0.0
O769 O 0.16484 0.29504 0.34748 0.0
C770 C 0.15646 0.31208 0.30521 0.0
C771 C 0.14976 0.361 0.32872 0.0
O772 O 0.11044 0.27794 0.33494 0.0
O773 O 0.11934 0.30077 0.35942 0.0
O774 O 0.1427 0.29225 0.31203 0.0
O775 O 0.16066 0.3295 0.31644 0.0
O776 O 0.13718 0.34045 0.33614 0.0
O777 O 0.17075 0.3678 0.32401 0.0
C778 C 0.22994 0.37529 0.31583 0.0
O779 O 0.22531 0.38445 0.3301 0.0
O780 O 0.21313 0.35363 0.31117 0.0
C781 C 0.18032 0.35172 0.36607 0.0
Tb782 Tb 0.65269 0.84019 0.33469 0.0
C783 C 0.70046 0.88391 0.34894 0.0
Tb784 Tb 0.69398 0.83202 0.33911 0.0
O785 O 0.65121 0.84364 0.36449 0.0
O786 O 0.66441 0.82353 0.35261 0.0
O787 O 0.68097 0.87715 0.33879 0.0
C788 C 0.72995 0.8288 0.35205 0.0
O789 O 0.70753 0.86851 0.35249 0.0
C790 C 0.68257 0.83887 0.30626 0.0
C791 C 0.64579 0.78723 0.32612 0.0
O792 O 0.72854 0.8376 0.3369 0.0
O793 O 0.71109 0.82172 0.3598 0.0
O794 O 0.69144 0.82533 0.30914 0.0
O795 O 0.68218 0.84888 0.32127 0.0
O796 O 0.66708 0.79469 0.33318 0.0
O797 O 0.63726 0.80188 0.32482 0.0
C798 C 0.61837 0.8427 0.31725 0.0
O799 O 0.628 0.85304 0.33352 0.0
O800 O 0.62783 0.83084 0.31109 0.0
C801 C 0.66223 0.83221 0.36757 0.0
Tb802 Tb 0.14364 0.8161 0.33872 0.0
C803 C 0.16834 0.78703 0.3314 0.0
Tb804 Tb 0.19526 0.84422 0.33349 0.0
O805 O 0.13424 0.8003 0.31045 0.0
O806 O 0.16412 0.83344 0.31742 0.0
O807 O 0.15151 0.78718 0.3399 0.0
C808 C 0.23786 0.86099 0.32383 0.0
O809 O 0.18567 0.80686 0.32616 0.0
C810 C 0.18404 0.84316 0.36734 0.0
C811 C 0.1699 0.87356 0.33743 0.0
O812 O 0.23045 0.85189 0.339 0.0
O813 O 0.2212 0.8608 0.31392 0.0
O814 O 0.20184 0.86104 0.3615 0.0
O815 O 0.17456 0.82638 0.35457 0.0
O816 O 0.18861 0.87385 0.3322 0.0
O817 O 0.15112 0.8535 0.34087 0.0
C818 C 0.10374 0.79893 0.35353 0.0
O819 O 0.10631 0.79273 0.33713 0.0
O820 O 0.12362 0.81489 0.36162 0.0
C821 C 0.15308 0.8168 0.3047 0.0
Tb822 Tb 0.86677 0.68844 0.67748 0.0
C823 C 0.84643 0.63374 0.68238 0.0
Tb824 Tb 0.81258 0.65435 0.67441 0.0
O825 O 0.87001 0.68568 0.70707 0.0
O826 O 0.8394 0.67968 0.69376 0.0
O827 O 0.86413 0.65356 0.67747 0.0
C828 C 0.77025 0.63166 0.68535 0.0
O829 O 0.82564 0.63102 0.6837 0.0
C830 C 0.83045 0.66328 0.64289 0.0
C831 C 0.83354 0.70883 0.6666 0.0
O832 O 0.7788 0.62156 0.67499 0.0
O833 O 0.78545 0.65426 0.68924 0.0
O834 O 0.80852 0.654 0.64437 0.0
O835 O 0.83981 0.66334 0.65821 0.0
O836 O 0.81497 0.68888 0.67037 0.0
O837 O 0.85442 0.71156 0.66758 0.0
C838 C 0.90997 0.71702 0.66992 0.0
O839 O 0.89908 0.72297 0.68124 0.0
O840 O 0.89674 0.6948 0.66321 0.0
C841 C 0.84839 0.67798 0.70866 0.0
Tb842 Tb 0.30847 0.17268 0.66137 0.0
C843 C 0.35812 0.2143 0.67761 0.0
Tb844 Tb 0.34733 0.16023 0.66929 0.0
O845 O 0.30647 0.17817 0.69091 0.0
O846 O 0.31714 0.1549 0.68043 0.0
O847 O 0.33723 0.20844 0.67063 0.0
C848 C 0.37693 0.1544 0.69077 0.0
O849 O 0.36542 0.19864 0.67839 0.0
C850 C 0.34037 0.16663 0.63511 0.0
C851 C 0.29859 0.11848 0.65353 0.0
O852 O 0.36289 0.16113 0.69615 0.0
O853 O 0.37445 0.15082 0.67297 0.0
O854 O 0.35096 0.15524 0.63996 0.0
O855 O 0.3376 0.17637 0.64942 0.0
O856 O 0.3179 0.12424 0.66364 0.0
O857 O 0.29244 0.13465 0.64974 0.0
C858 C 0.28207 0.18663 0.64378 0.0
O859 O 0.27465 0.1693 0.65447 0.0
O860 O 0.30399 0.19585 0.6432 0.0
C861 C 0.31506 0.16465 0.69492 0.0
Tb862 Tb 0.80419 0.15924 0.67242 0.0
C863 C 0.81782 0.1208 0.66165 0.0
Tb864 Tb 0.85513 0.1771 0.66727 0.0
O865 O 0.79691 0.15354 0.64232 0.0
O866 O 0.82836 0.18036 0.65459 0.0
O867 O 0.80347 0.12502 0.67064 0.0
C868 C 0.88938 0.1845 0.647 0.0
O869 O 0.83809 0.1384 0.65778 0.0
C870 C 0.84365 0.16776 0.70049 0.0
C871 C 0.84142 0.21496 0.6811 0.0
O872 O 0.86767 0.17082 0.64216 0.0
O873 O 0.89219 0.19414 0.66371 0.0
O874 O 0.86473 0.18219 0.69698 0.0
O875 O 0.83154 0.1572 0.68572 0.0
O876 O 0.85614 0.21142 0.67186 0.0
O877 O 0.82078 0.19699 0.68403 0.0
C878 C 0.76268 0.14531 0.68337 0.0
O879 O 0.76693 0.14115 0.66701 0.0
O880 O 0.78191 0.15774 0.69367 0.0
C881 C 0.81738 0.17013 0.63948 0.0
H882 H 0.32216 0.87035 0.04791 0.0
H883 H 0.32119 0.92497 0.08487 0.0
H884 H 0.35571 0.95614 0.07266 0.0
H885 H 0.38305 0.89581 0.05411 0.0
H886 H 0.38554 0.88786 0.03078 0.0
H887 H 0.35937 0.86984 0.04111 0.0
H888 H 0.33626 0.87591 0.01475 0.0
H889 H 0.36239 0.89403 0.00437 0.0
H890 H 0.34407 0.906 0.00978 0.0
H891 H 0.39083 0.98141 0.05739 0.0
H892 H 0.42583 0.99901 0.04119 0.0
H893 H 0.40623 0.92813 0.01565 0.0
C894 C 0.32915 0.88881 0.05354 0.0
C895 C 0.31852 0.89503 0.06726 0.0
C896 C 0.32838 0.91959 0.07402 0.0
C897 C 0.34818 0.93751 0.06727 0.0
C898 C 0.35819 0.93068 0.05387 0.0
C899 C 0.34917 0.90694 0.04717 0.0
C900 C 0.36413 0.90437 0.03355 0.0
C901 C 0.37358 0.88854 0.0403 0.0
C902 C 0.35092 0.89449 0.01448 0.0
C903 C 0.38306 0.9304 0.03378 0.0
C904 C 0.37907 0.94525 0.04546 0.0
C905 C 0.39412 0.96998 0.04818 0.0
C906 C 0.41393 0.9798 0.03888 0.0
C907 C 0.41866 0.96492 0.02715 0.0
C908 C 0.40295 0.93991 0.02448 0.0
H909 H 0.11582 0.41703 0.06916 0.0
H910 H 0.17172 0.48844 0.08942 0.0
H911 H 0.14988 0.50623 0.07659 0.0
H912 H 0.10029 0.43166 0.0278 0.0
H913 H 0.06971 0.41262 0.02824 0.0
H914 H 0.08905 0.40499 0.03981 0.0
H915 H 0.07092 0.40417 0.07014 0.0
H916 H 0.05136 0.41161 0.0586 0.0
H917 H 0.06943 0.43011 0.07871 0.0
H918 H 0.12425 0.51672 0.0592 0.0
H919 H 0.09458 0.5192 0.03998 0.0
H920 H 0.0532 0.44128 0.03311 0.0
C921 C 0.12332 0.43637 0.07125 0.0
C922 C 0.14575 0.4513 0.0801 0.0
C923 C 0.15491 0.47657 0.08228 0.0
C924 C 0.14252 0.48689 0.07521 0.0
C925 C 0.12075 0.47172 0.06628 0.0
C926 C 0.11101 0.447 0.0645 0.0
C927 C 0.08741 0.43494 0.05395 0.0
C928 C 0.08658 0.42019 0.03641 0.0
C929 C 0.06867 0.41928 0.06608 0.0
C930 C 0.08579 0.45682 0.04958 0.0
C931 C 0.10529 0.47782 0.05687 0.0
C932 C 0.10875 0.50042 0.05367 0.0
C933 C 0.09189 0.50164 0.04265 0.0
C934 C 0.0717 0.48044 0.03519 0.0
C935 C 0.06841 0.45772 0.0389 0.0
H936 H 0.55795 0.68028 0.05572 0.0
H937 H 0.48909 0.66284 0.06706 0.0
H938 H 0.47368 0.62193 0.05197 0.0
H939 H 0.54231 0.64603 0.01141 0.0
H940 H 0.56274 0.636 0.01474 0.0
H941 H 0.56857 0.66434 0.02602 0.0
H942 H 0.5738 0.65052 0.05742 0.0
H943 H 0.56811 0.62221 0.04623 0.0
H944 H 0.55117 0.62267 0.06423 0.0
H945 H 0.46563 0.58284 0.03644 0.0
H946 H 0.46538 0.54739 0.02184 0.0
H947 H 0.53945 0.58938 0.0206 0.0
C948 C 0.53965 0.66783 0.05509 0.0
C949 C 0.52472 0.67494 0.06244 0.0
C950 C 0.50085 0.65807 0.06122 0.0
C951 C 0.49192 0.63471 0.05276 0.0
C952 C 0.50705 0.62837 0.04558 0.0
C953 C 0.5304 0.64435 0.04667 0.0
C954 C 0.54286 0.63266 0.03809 0.0
C955 C 0.55482 0.64553 0.02159 0.0
C956 C 0.56 0.63197 0.05235 0.0
C957 C 0.52284 0.6076 0.03212 0.0
C958 C 0.50236 0.60561 0.03656 0.0
C959 C 0.48153 0.58417 0.03283 0.0
C960 C 0.48161 0.56411 0.02451 0.0
C961 C 0.50238 0.56552 0.01996 0.0
C962 C 0.52324 0.58771 0.02371 0.0
H963 H 0.90346 0.32047 0.95489 0.0
H964 H 0.85502 0.33529 0.92561 0.0
H965 H 0.87958 0.37852 0.93571 0.0
H966 H 0.91722 0.36327 0.99368 0.0
H967 H 0.94719 0.37216 0.99661 0.0
H968 H 0.92632 0.34233 0.98658 0.0
H969 H 0.94893 0.34917 0.95801 0.0
H970 H 0.96991 0.37901 0.96798 0.0
H971 H 0.95538 0.37485 0.94564 0.0
H972 H 0.90857 0.41961 0.949 0.0
H973 H 0.94026 0.45672 0.96528 0.0
H974 H 0.97052 0.41616 0.98663 0.0
C975 C 0.89819 0.33289 0.9505 0.0
C976 C 0.87729 0.32455 0.93953 0.0
C977 C 0.87081 0.34128 0.9342 0.0
C978 C 0.8847 0.36587 0.93978 0.0
C979 C 0.90503 0.37349 0.95073 0.0
C980 C 0.91182 0.3576 0.95609 0.0
C981 C 0.93426 0.37066 0.96832 0.0
C982 C 0.93104 0.36156 0.98743 0.0
C983 C 0.95324 0.36828 0.95945 0.0
C984 C 0.9389 0.39633 0.96902 0.0
C985 C 0.92182 0.39745 0.95867 0.0
C986 C 0.92207 0.419 0.95715 0.0
C987 C 0.94023 0.44003 0.9665 0.0
C988 C 0.95798 0.43948 0.97732 0.0
C989 C 0.95725 0.41724 0.97853 0.0
H990 H 0.67188 0.57083 0.92917 0.0
H991 H 0.71085 0.56408 0.97501 0.0
H992 H 0.67969 0.55636 0.99446 0.0
H993 H 0.6465 0.60023 0.95599 0.0
H994 H 0.61921 0.58429 0.94235 0.0
H995 H 0.64519 0.59084 0.93217 0.0
H996 H 0.62777 0.54552 0.92171 0.0
H997 H 0.6018 0.53888 0.93186 0.0
H998 H 0.61725 0.52392 0.93841 0.0
H999 H 0.64381 0.54676 0.00838 0.0
H1000 H 0.60491 0.53597 0.01616 0.0
H1001 H 0.58879 0.54961 0.96182 0.0
C1002 C 0.67396 0.56812 0.94338 0.0
C1003 C 0.69377 0.56798 0.95058 0.0
C1004 C 0.69573 0.56399 0.96917 0.0
C1005 C 0.67819 0.55975 0.98035 0.0
C1006 C 0.65878 0.55963 0.9728 0.0
C1007 C 0.65651 0.56376 0.95478 0.0
C1008 C 0.63333 0.56156 0.94996 0.0
C1009 C 0.63624 0.58567 0.94482 0.0
C1010 C 0.61921 0.54126 0.93457 0.0
C1011 C 0.62287 0.5552 0.96802 0.0
C1012 C 0.63795 0.55431 0.98099 0.0
C1013 C 0.63193 0.54767 0.99843 0.0
C1014 C 0.60982 0.54155 0.00272 0.0
C1015 C 0.59403 0.54221 0.98965 0.0
C1016 C 0.60072 0.54938 0.97215 0.0
H1017 H 0.43922 0.11189 0.94842 0.0
H1018 H 0.5014 0.15461 0.92217 0.0
H1019 H 0.51864 0.13252 0.93571 0.0
H1020 H 0.46662 0.10907 0.99022 0.0
H1021 H 0.44549 0.07838 0.99304 0.0
H1022 H 0.43732 0.09675 0.98073 0.0
H1023 H 0.4216 0.06495 0.95257 0.0
H1024 H 0.42959 0.04641 0.96486 0.0
H1025 H 0.44008 0.05535 0.94295 0.0
H1026 H 0.52978 0.10723 0.95252 0.0
H1027 H 0.53425 0.07942 0.9714 0.0
H1028 H 0.46491 0.05206 0.98709 0.0
C1029 C 0.45635 0.11636 0.94536 0.0
C1030 C 0.46904 0.13513 0.93434 0.0
C1031 C 0.49149 0.14059 0.9308 0.0
C1032 C 0.5014 0.12805 0.93834 0.0
C1033 C 0.48863 0.10998 0.94936 0.0
C1034 C 0.46658 0.10399 0.95284 0.0
C1035 C 0.45692 0.08405 0.96551 0.0
C1036 C 0.45126 0.09258 0.98343 0.0
C1037 C 0.43579 0.06135 0.9559 0.0
C1038 C 0.47713 0.08006 0.96875 0.0
C1039 C 0.49515 0.0952 0.95921 0.0
C1040 C 0.5158 0.09525 0.96006 0.0
C1041 C 0.51816 0.07937 0.97094 0.0
C1042 C 0.49999 0.06356 0.98091 0.0
C1043 C 0.47916 0.06393 0.97972 0.0
H1044 H 0.69336 0.10482 0.94991 0.0
H1045 H 0.69612 0.17336 0.94822 0.0
H1046 H 0.66242 0.15889 0.96615 0.0
H1047 H 0.63157 0.06885 0.94381 0.0
H1048 H 0.62989 0.04681 0.95864 0.0
H1049 H 0.65499 0.063 0.9466 0.0
H1050 H 0.68064 0.07716 0.97737 0.0
H1051 H 0.65558 0.06112 0.9895 0.0
H1052 H 0.67488 0.09286 0.99553 0.0
H1053 H 0.62885 0.13733 0.98409 0.0
H1054 H 0.59494 0.10872 0.99877 0.0
H1055 H 0.61212 0.05295 0.98764 0.0
C1056 C 0.68684 0.11671 0.95345 0.0
C1057 C 0.69725 0.14021 0.94786 0.0
C1058 C 0.68825 0.1553 0.95245 0.0
C1059 C 0.66924 0.14727 0.96266 0.0
C1060 C 0.6593 0.12401 0.96799 0.0
C1061 C 0.66756 0.10879 0.96339 0.0
C1062 C 0.6528 0.08419 0.97 0.0
C1063 C 0.64165 0.06455 0.95379 0.0
C1064 C 0.66682 0.07851 0.98393 0.0
C1065 C 0.63502 0.088 0.97905 0.0
C1066 C 0.63931 0.11121 0.97789 0.0
C1067 C 0.62529 0.11911 0.9851 0.0
C1068 C 0.60612 0.10275 0.99346 0.0
C1069 C 0.601 0.0787 0.99439 0.0
C1070 C 0.61576 0.0713 0.98723 0.0
H1071 H 0.86157 0.53415 0.93796 0.0
H1072 H 0.90336 0.61166 0.93833 0.0
H1073 H 0.93722 0.61012 0.9511 0.0
H1074 H 0.88647 0.53015 0.98054 0.0
H1075 H 0.88508 0.50213 0.97353 0.0
H1076 H 0.86456 0.50908 0.9632 0.0
H1077 H 0.87598 0.50299 0.93104 0.0
H1078 H 0.89652 0.49599 0.94131 0.0
H1079 H 0.90569 0.51981 0.92647 0.0
H1080 H 0.96653 0.60005 0.96339 0.0
H1081 H 0.98856 0.58259 0.97708 0.0
H1082 H 0.9271 0.51207 0.97079 0.0
C1083 C 0.87793 0.55072 0.94059 0.0
C1084 C 0.88 0.57303 0.93712 0.0
C1085 C 0.90151 0.59444 0.94098 0.0
C1086 C 0.92081 0.59371 0.94812 0.0
C1087 C 0.91821 0.57144 0.95147 0.0
C1088 C 0.89729 0.55035 0.94799 0.0
C1089 C 0.89889 0.52898 0.95375 0.0
C1090 C 0.8828 0.51688 0.96864 0.0
C1091 C 0.89397 0.51088 0.93715 0.0
C1092 C 0.92388 0.5414 0.96126 0.0
C1093 C 0.93483 0.56582 0.95946 0.0
C1094 C 0.95811 0.58098 0.96499 0.0
C1095 C 0.97046 0.57095 0.97272 0.0
C1096 C 0.95938 0.54614 0.97517 0.0
C1097 C 0.93584 0.53119 0.9693 0.0
H1098 H 0.44058 0.32098 0.94755 0.0
H1099 H 0.50223 0.34141 0.92014 0.0
H1100 H 0.51883 0.38335 0.93369 0.0
H1101 H 0.43874 0.37503 0.94182 0.0
H1102 H 0.42859 0.37609 0.96383 0.0
H1103 H 0.42168 0.34758 0.9522 0.0
H1104 H 0.43944 0.33837 0.98055 0.0
H1105 H 0.44645 0.36689 0.99225 0.0
H1106 H 0.46865 0.35947 0.98949 0.0
H1107 H 0.52871 0.42291 0.95006 0.0
H1108 H 0.5309 0.45789 0.9675 0.0
H1109 H 0.46276 0.41193 0.98435 0.0
C1110 C 0.45765 0.33425 0.94454 0.0
C1111 C 0.47012 0.32795 0.93278 0.0
C1112 C 0.49228 0.3459 0.92895 0.0
C1113 C 0.5019 0.36972 0.93666 0.0
C1114 C 0.48914 0.37534 0.94815 0.0
C1115 C 0.46748 0.35817 0.95204 0.0
C1116 C 0.45723 0.36912 0.96452 0.0
C1117 C 0.43526 0.36682 0.95502 0.0
C1118 C 0.45268 0.35779 0.98279 0.0
C1119 C 0.47656 0.39509 0.96708 0.0
C1120 C 0.49482 0.39825 0.95755 0.0
C1121 C 0.51457 0.42065 0.95766 0.0
C1122 C 0.51566 0.44042 0.96768 0.0
C1123 C 0.49707 0.4377 0.97745 0.0
C1124 C 0.47732 0.41464 0.97713 0.0
H1125 H 0.12273 0.69051 0.0546 0.0
H1126 H 0.17249 0.67318 0.07816 0.0
H1127 H 0.14752 0.6308 0.06606 0.0
H1128 H 0.07257 0.63671 0.06342 0.0
H1129 H 0.05623 0.63353 0.0422 0.0
H1130 H 0.07823 0.66297 0.05208 0.0
H1131 H 0.09816 0.67051 0.02205 0.0
H1132 H 0.07611 0.64115 0.01202 0.0
H1133 H 0.10588 0.64929 0.01274 0.0
H1134 H 0.1171 0.59058 0.05323 0.0
H1135 H 0.08339 0.55406 0.03852 0.0
H1136 H 0.05273 0.59632 0.02182 0.0
C1137 C 0.12849 0.67784 0.05696 0.0
C1138 C 0.14949 0.68512 0.0675 0.0
C1139 C 0.15631 0.66795 0.07044 0.0
C1140 C 0.14231 0.64386 0.06353 0.0
C1141 C 0.12157 0.63718 0.05357 0.0
C1142 C 0.11468 0.65358 0.05009 0.0
C1143 C 0.09131 0.64128 0.03912 0.0
C1144 C 0.07354 0.64378 0.04985 0.0
C1145 C 0.09297 0.65115 0.02037 0.0
C1146 C 0.08614 0.61541 0.03718 0.0
C1147 C 0.10391 0.61362 0.0457 0.0
C1148 C 0.10314 0.59173 0.04635 0.0
C1149 C 0.08377 0.57103 0.03796 0.0
C1150 C 0.06532 0.57222 0.02888 0.0
C1151 C 0.06657 0.5948 0.02852 0.0
H1152 H 0.31717 0.44736 0.05266 0.0
H1153 H 0.31986 0.39628 0.08721 0.0
H1154 H 0.35349 0.4002 0.07253 0.0
H1155 H 0.33445 0.4288 0.01164 0.0
H1156 H 0.35182 0.45904 0.00551 0.0
H1157 H 0.32729 0.45152 0.0181 0.0
H1158 H 0.35321 0.48567 0.04345 0.0
H1159 H 0.37779 0.49335 0.0309 0.0
H1160 H 0.37818 0.48636 0.05425 0.0
H1161 H 0.38679 0.40981 0.05463 0.0
H1162 H 0.4195 0.4264 0.03583 0.0
H1163 H 0.39646 0.47231 0.01311 0.0
C1164 C 0.32475 0.43686 0.05698 0.0
C1165 C 0.31591 0.42145 0.07103 0.0
C1166 C 0.32647 0.40828 0.07655 0.0
C1167 C 0.34547 0.41028 0.06822 0.0
C1168 C 0.35381 0.42565 0.05446 0.0
C1169 C 0.34396 0.43888 0.04894 0.0
C1170 C 0.35707 0.45494 0.03442 0.0
C1171 C 0.34174 0.44816 0.01635 0.0
C1172 C 0.36716 0.48166 0.04116 0.0
C1173 C 0.37583 0.44868 0.03267 0.0
C1174 C 0.37344 0.43159 0.04428 0.0
C1175 C 0.3888 0.42314 0.04544 0.0
C1176 C 0.4073 0.43264 0.03467 0.0
C1177 C 0.41042 0.45051 0.02294 0.0
C1178 C 0.39434 0.45847 0.02182 0.0
H1179 H 0.53228 0.88957 0.08278 0.0
H1180 H 0.55193 0.86281 0.03547 0.0
H1181 H 0.54536 0.88942 0.01663 0.0
H1182 H 0.48577 0.8926 0.05737 0.0
H1183 H 0.49101 0.91946 0.07081 0.0
H1184 H 0.49749 0.89845 0.08092 0.0
H1185 H 0.53939 0.93272 0.09 0.0
H1186 H 0.533 0.95378 0.0799 0.0
H1187 H 0.55634 0.95027 0.07262 0.0
H1188 H 0.53943 0.92074 0.00326 0.0
H1189 H 0.53134 0.95286 0.99563 0.0
H1190 H 0.51135 0.95647 0.05025 0.0
C1191 C 0.53492 0.88898 0.06842 0.0
C1192 C 0.54309 0.87424 0.06081 0.0
C1193 C 0.54643 0.87438 0.04191 0.0
C1194 C 0.54249 0.88928 0.03097 0.0
C1195 C 0.53474 0.90369 0.03895 0.0
C1196 C 0.53065 0.90347 0.05716 0.0
C1197 C 0.52209 0.92064 0.06219 0.0
C1198 C 0.49763 0.90696 0.06818 0.0
C1199 C 0.5387 0.94053 0.07706 0.0
C1200 C 0.52232 0.93073 0.04401 0.0
C1201 C 0.52988 0.9208 0.03085 0.0
C1202 C 0.5331 0.92835 0.01333 0.0
C1203 C 0.52852 0.94657 0.00913 0.0
C1204 C 0.5204 0.95667 0.02226 0.0
C1205 C 0.51704 0.94852 0.03987 0.0
H1206 H 0.00514 0.22471 0.41903 0.0
H1207 H 0.96821 0.16375 0.37785 0.0
H1208 H 0.99887 0.18365 0.35753 0.0
H1209 H 0.0266 0.27078 0.38664 0.0
H1210 H 0.05387 0.2892 0.39995 0.0
H1211 H 0.02861 0.27062 0.41117 0.0
H1212 H 0.04858 0.24911 0.42618 0.0
H1213 H 0.07382 0.26914 0.41573 0.0
H1214 H 0.06202 0.23704 0.4118 0.0
H1215 H 0.03358 0.20903 0.34205 0.0
H1216 H 0.07073 0.23884 0.33205 0.0
H1217 H 0.08567 0.28412 0.38275 0.0
C1218 C 0.00339 0.2157 0.40565 0.0
C1219 C 0.98436 0.19254 0.40013 0.0
C1220 C 0.98282 0.18126 0.38256 0.0
C1221 C 1.00006 0.1925 0.37084 0.0
C1222 C 0.01871 0.21511 0.3768 0.0
C1223 C 0.02049 0.2267 0.39372 0.0
C1224 C 0.04265 0.25078 0.39684 0.0
C1225 C 0.03762 0.27157 0.39876 0.0
C1226 C 0.05766 0.25152 0.41362 0.0
C1227 C 0.05325 0.25064 0.37916 0.0
C1228 C 0.03897 0.22993 0.36778 0.0
C1229 C 0.04489 0.22538 0.35078 0.0
C1230 C 0.06603 0.24241 0.34523 0.0
C1231 C 0.08104 0.26371 0.35664 0.0
C1232 C 0.07452 0.26794 0.3738 0.0
H1233 H 0.80159 0.79712 0.42375 0.0
H1234 H 0.85425 0.82026 0.38583 0.0
H1235 H 0.83153 0.83113 0.36533 0.0
H1236 H 0.75377 0.76983 0.38956 0.0
H1237 H 0.73657 0.77897 0.4019 0.0
H1238 H 0.75753 0.7742 0.41421 0.0
H1239 H 0.77663 0.81745 0.43047 0.0
H1240 H 0.75568 0.82227 0.4182 0.0
H1241 H 0.78589 0.84262 0.41694 0.0
H1242 H 0.80279 0.83845 0.34842 0.0
H1243 H 0.76954 0.84146 0.33621 0.0
H1244 H 0.73503 0.81256 0.38452 0.0
C1245 C 0.80835 0.80445 0.41114 0.0
C1246 C 0.82987 0.80803 0.40654 0.0
C1247 C 0.83809 0.81782 0.38991 0.0
C1248 C 0.82523 0.82391 0.37808 0.0
C1249 C 0.80412 0.82007 0.383 0.0
C1250 C 0.7957 0.81058 0.39912 0.0
C1251 C 0.77218 0.80768 0.40089 0.0
C1252 C 0.75394 0.78109 0.40168 0.0
C1253 C 0.77264 0.82345 0.41762 0.0
C1254 C 0.76868 0.81684 0.38318 0.0
C1255 C 0.78736 0.824 0.37311 0.0
C1256 C 0.78807 0.83294 0.35619 0.0
C1257 C 0.76914 0.83457 0.34936 0.0
C1258 C 0.74981 0.82721 0.35942 0.0
C1259 C 0.74963 0.81829 0.37655 0.0
H1260 H 0.23352 0.01248 0.37302 0.0
H1261 H 0.16813 1.00017 0.38975 0.0
H1262 H 0.14896 0.95886 0.37424 0.0
H1263 H 0.21159 0.97671 0.32821 0.0
H1264 H 0.23102 0.96522 0.33014 0.0
H1265 H 0.23928 0.99454 0.34106 0.0
H1266 H 0.24696 0.98178 0.37226 0.0
H1267 H 0.2389 0.95255 0.3614 0.0
H1268 H 0.22451 0.95508 0.38064 0.0
H1269 H 0.13739 0.91828 0.35879 0.0
H1270 H 0.13453 0.88051 0.34616 0.0
H1271 H 0.20754 0.9191 0.33949 0.0
C1272 C 0.2151 0.00121 0.37311 0.0
C1273 C 0.20226 0.0095 0.3825 0.0
C1274 C 0.17828 0.99408 0.3827 0.0
C1275 C 0.16723 0.97069 0.37381 0.0
C1276 C 0.1804 0.963 0.36478 0.0
C1277 C 0.20383 0.97774 0.36442 0.0
C1278 C 0.21427 0.96447 0.35497 0.0
C1279 C 0.22465 0.97592 0.33756 0.0
C1280 C 0.23221 0.9634 0.3681 0.0
C1281 C 0.19313 0.93983 0.35036 0.0
C1282 C 0.17373 0.93946 0.35594 0.0
C1283 C 0.1524 0.9184 0.35416 0.0
C1284 C 0.15096 0.89702 0.34692 0.0
C1285 C 0.17076 0.89679 0.34166 0.0
C1286 C 0.19198 0.91867 0.34303 0.0
H1287 H 0.53638 0.67164 0.27326 0.0
H1288 H 0.566 0.62938 0.29186 0.0
H1289 H 0.59879 0.66606 0.30819 0.0
H1290 H 0.58946 0.72396 0.26579 0.0
H1291 H 0.58074 0.74492 0.27372 0.0
H1292 H 0.55951 0.71527 0.26365 0.0
H1293 H 0.53778 0.70813 0.29282 0.0
H1294 H 0.55909 0.73776 0.30291 0.0
H1295 H 0.55288 0.71178 0.31482 0.0
H1296 H 0.62864 0.70723 0.32191 0.0
H1297 H 0.65345 0.75026 0.33258 0.0
H1298 H 0.6042 0.76577 0.3054 0.0
C1299 C 0.54963 0.67008 0.28094 0.0
C1300 C 0.54868 0.64767 0.28127 0.0
C1301 C 0.56653 0.64641 0.29125 0.0
C1302 C 0.58516 0.66711 0.30063 0.0
C1303 C 0.58567 0.68893 0.2999 0.0
C1304 C 0.56839 0.69058 0.29035 0.0
C1305 C 0.57331 0.71632 0.29158 0.0
C1306 C 0.57591 0.72566 0.27255 0.0
C1307 C 0.55466 0.71862 0.3011 0.0
C1308 C 0.59601 0.72882 0.30334 0.0
C1309 C 0.60285 0.7127 0.30795 0.0
C1310 C 0.62344 0.72003 0.31845 0.0
C1311 C 0.63743 0.74453 0.32442 0.0
C1312 C 0.63074 0.7614 0.31992 0.0
C1313 C 0.60971 0.75332 0.30925 0.0
H1314 H 0.34102 0.90726 0.25921 0.0
H1315 H 0.37924 0.89551 0.3027 0.0
H1316 H 0.34747 0.88471 0.3222 0.0
H1317 H 0.31324 0.9316 0.28862 0.0
H1318 H 0.2864 0.91631 0.27435 0.0
H1319 H 0.313 0.9253 0.26437 0.0
H1320 H 0.29761 0.88118 0.25082 0.0
H1321 H 0.27101 0.87266 0.26045 0.0
H1322 H 0.28656 0.85744 0.26582 0.0
H1323 H 0.3114 0.87335 0.33635 0.0
H1324 H 0.27239 0.86123 0.34446 0.0
H1325 H 0.25629 0.87918 0.2918 0.0
C1326 C 0.34278 0.90284 0.27297 0.0
C1327 C 0.36255 0.90226 0.27953 0.0
C1328 C 0.36417 0.89595 0.29745 0.0
C1329 C 0.34627 0.8899 0.30862 0.0
C1330 C 0.32683 0.89019 0.30167 0.0
C1331 C 0.3249 0.89649 0.28429 0.0
C1332 C 0.30146 0.8938 0.27982 0.0
C1333 C 0.30367 0.91821 0.2766 0.0
C1334 C 0.28839 0.87514 0.26326 0.0
C1335 C 0.29048 0.88478 0.29735 0.0
C1336 C 0.30558 0.88306 0.30978 0.0
C1337 C 0.29944 0.87474 0.3268 0.0
C1338 C 0.27724 0.86788 0.33127 0.0
C1339 C 0.26136 0.86928 0.31876 0.0
C1340 C 0.26812 0.87798 0.30161 0.0
H1341 H 0.14019 0.46102 0.27631 0.0
H1342 H 0.07148 0.4325 0.29335 0.0
H1343 H 0.07636 0.40303 0.3103 0.0
H1344 H 0.13841 0.40463 0.26956 0.0
H1345 H 0.16806 0.41686 0.27797 0.0
H1346 H 0.15905 0.43574 0.26748 0.0
H1347 H 0.17586 0.46607 0.29659 0.0
H1348 H 0.18474 0.44712 0.30717 0.0
H1349 H 0.1665 0.45571 0.31849 0.0
H1350 H 0.0888 0.37633 0.32517 0.0
H1351 H 0.10732 0.35386 0.33592 0.0
H1352 H 0.16794 0.40048 0.30926 0.0
C1353 C 0.12625 0.44875 0.28376 0.0
C1354 C 0.10547 0.4491 0.28355 0.0
C1355 C 0.08747 0.43242 0.29319 0.0
C1356 C 0.09014 0.41572 0.30294 0.0
C1357 C 0.11089 0.41591 0.3029 0.0
C1358 C 0.12859 0.43195 0.2935 0.0
C1359 C 0.14897 0.42813 0.29526 0.0
C1360 C 0.1539 0.4209 0.27645 0.0
C1361 C 0.17027 0.45059 0.30496 0.0
C1362 C 0.13997 0.40741 0.30711 0.0
C1363 C 0.11801 0.40063 0.31142 0.0
C1364 C 0.10603 0.38154 0.32192 0.0
C1365 C 0.11671 0.3689 0.32798 0.0
C1366 C 0.13913 0.3754 0.32351 0.0
C1367 C 0.15088 0.39509 0.31307 0.0
H1368 H 0.35215 0.48053 0.29157 0.0
H1369 H 0.34565 0.43167 0.24548 0.0
H1370 H 0.30895 0.40023 0.25512 0.0
H1371 H 0.32723 0.43557 0.32416 0.0
H1372 H 0.31225 0.44912 0.33453 0.0
H1373 H 0.33865 0.46759 0.32458 0.0
H1374 H 0.31802 0.48371 0.30396 0.0
H1375 H 0.29157 0.46526 0.31381 0.0
H1376 H 0.29255 0.4627 0.28938 0.0
H1377 H 0.27318 0.37452 0.26908 0.0
H1378 H 0.23923 0.35572 0.28639 0.0
H1379 H 0.2675 0.42109 0.32328 0.0
C1380 C 0.34305 0.4631 0.28369 0.0
C1381 C 0.35163 0.45843 0.26779 0.0
C1382 C 0.33921 0.43558 0.25762 0.0
C1383 C 0.31844 0.41762 0.26302 0.0
C1384 C 0.31028 0.42283 0.2786 0.0
C1385 C 0.32207 0.44497 0.2888 0.0
C1386 C 0.30887 0.44599 0.30458 0.0
C1387 C 0.32257 0.44979 0.32305 0.0
C1388 C 0.30237 0.46558 0.30281 0.0
C1389 C 0.28783 0.42099 0.30157 0.0
C1390 C 0.28916 0.40796 0.28655 0.0
C1391 C 0.27192 0.38449 0.28088 0.0
C1392 C 0.25271 0.37399 0.2908 0.0
C1393 C 0.25076 0.38701 0.30609 0.0
C1394 C 0.26859 0.41079 0.31161 0.0
H1395 H 0.5473 0.90563 0.28733 0.0
H1396 H 0.51549 0.85045 0.24135 0.0
H1397 H 0.53777 0.83208 0.25217 0.0
H1398 H 0.6028 0.91187 0.28919 0.0
H1399 H 0.60714 0.91538 0.31382 0.0
H1400 H 0.58892 0.92455 0.30236 0.0
H1401 H 0.55543 0.89696 0.32087 0.0
H1402 H 0.57356 0.8877 0.33241 0.0
H1403 H 0.54644 0.86544 0.32039 0.0
H1404 H 0.5646 0.82062 0.26708 0.0
H1405 H 0.59285 0.8156 0.28621 0.0
H1406 H 0.6049 0.87596 0.32389 0.0
C1407 C 0.54473 0.88951 0.27962 0.0
C1408 C 0.52973 0.87973 0.26332 0.0
C1409 C 0.52725 0.85875 0.2536 0.0
C1410 C 0.53968 0.84799 0.25973 0.0
C1411 C 0.55431 0.85817 0.27576 0.0
C1412 C 0.55675 0.8783 0.28568 0.0
C1413 C 0.57349 0.88549 0.30258 0.0
C1414 C 0.59432 0.91082 0.30194 0.0
C1415 C 0.56151 0.88379 0.3201 0.0
C1416 C 0.58021 0.86633 0.30051 0.0
C1417 C 0.56903 0.85085 0.28486 0.0
C1418 C 0.57321 0.83239 0.27951 0.0
C1419 C 0.58925 0.82968 0.29044 0.0
C1420 C 0.60069 0.84516 0.30662 0.0
C1421 C 0.59601 0.86362 0.31176 0.0
H1422 H 0.1053 0.65024 0.28826 0.0
H1423 H 0.17209 0.66406 0.27399 0.0
H1424 H 0.19024 0.70448 0.29084 0.0
H1425 H 0.11543 0.70934 0.28276 0.0
H1426 H 0.0996 0.71018 0.30149 0.0
H1427 H 0.09207 0.68179 0.2893 0.0
H1428 H 0.09711 0.66597 0.31984 0.0
H1429 H 0.10488 0.69446 0.33208 0.0
H1430 H 0.12397 0.68253 0.33402 0.0
H1431 H 0.201 0.74365 0.30798 0.0
H1432 H 0.20359 0.78036 0.32267 0.0
H1433 H 0.12986 0.74181 0.32593 0.0
C1434 C 0.12377 0.66171 0.28889 0.0
C1435 C 0.13733 0.65404 0.27986 0.0
C1436 C 0.16139 0.66967 0.28069 0.0
C1437 C 0.17186 0.69257 0.29035 0.0
C1438 C 0.15803 0.69961 0.29908 0.0
C1439 C 0.1345 0.68476 0.29835 0.0
C1440 C 0.12352 0.69739 0.308 0.0
C1441 C 0.10667 0.69982 0.29459 0.0
C1442 C 0.11167 0.6843 0.32446 0.0
C1443 C 0.14455 0.72169 0.31414 0.0
C1444 C 0.16427 0.72244 0.30896 0.0
C1445 C 0.18572 0.74323 0.31224 0.0
C1446 C 0.187 0.764 0.32063 0.0
C1447 C 0.16697 0.76391 0.32563 0.0
C1448 C 0.14554 0.74229 0.32266 0.0
H1449 H 0.80287 0.99563 0.4113 0.0
H1450 H 0.7777 0.04017 0.38927 0.0
H1451 H 0.74632 0.00446 0.37076 0.0
H1452 H 0.79177 0.95803 0.3703 0.0
H1453 H 0.78293 0.93096 0.38147 0.0
H1454 H 0.80299 0.95982 0.3935 0.0
H1455 H 0.77627 0.95101 0.41963 0.0
H1456 H 0.7564 0.92201 0.4077 0.0
H1457 H 0.7467 0.94264 0.41416 0.0
H1458 H 0.71805 0.96411 0.35436 0.0
H1459 H 0.69473 0.92181 0.34123 0.0
H1460 H 0.73838 0.90359 0.37399 0.0
C1461 C 0.79057 0.99781 0.40278 0.0
C1462 C 0.79274 0.02069 0.4017 0.0
C1463 C 0.77652 0.02286 0.39014 0.0
C1464 C 0.75857 0.00267 0.37966 0.0
C1465 C 0.75707 0.98044 0.3809 0.0
C1466 C 0.77258 0.97786 0.3922 0.0
C1467 C 0.76737 0.95203 0.39073 0.0
C1468 C 0.78746 0.95011 0.38357 0.0
C1469 C 0.76132 0.9413 0.40916 0.0
C1470 C 0.7466 0.94054 0.37676 0.0
C1471 C 0.74089 0.95722 0.37132 0.0
C1472 C 0.72234 0.95087 0.35853 0.0
C1473 C 0.7092 0.92679 0.35113 0.0
C1474 C 0.71476 0.90937 0.3565 0.0
C1475 C 0.73375 0.91646 0.36948 0.0
H1476 H 0.0146 0.79791 0.42115 0.0
H1477 H 0.96261 0.73254 0.38896 0.0
H1478 H 0.99215 0.73329 0.37029 0.0
H1479 H 0.04644 0.82657 0.38485 0.0
H1480 H 0.07426 0.8397 0.39755 0.0
H1481 H 0.04942 0.83346 0.4093 0.0
H1482 H 0.05756 0.80719 0.43062 0.0
H1483 H 0.08278 0.81438 0.41913 0.0
H1484 H 0.06139 0.78335 0.4206 0.0
H1485 H 0.02616 0.7426 0.35358 0.0
H1486 H 0.06357 0.75895 0.34069 0.0
H1487 H 0.09431 0.81722 0.38434 0.0
C1488 C 0.00951 0.78348 0.41042 0.0
C1489 C 0.98621 0.76525 0.40644 0.0
C1490 C 0.98024 0.74692 0.39207 0.0
C1491 C 0.99692 0.74708 0.38147 0.0
C1492 C 0.01959 0.76552 0.38552 0.0
C1493 C 0.02602 0.78327 0.39975 0.0
C1494 C 0.05152 0.80149 0.40072 0.0
C1495 C 0.05564 0.8268 0.39793 0.0
C1496 C 0.06404 0.80157 0.41884 0.0
C1497 C 0.05825 0.79134 0.38461 0.0
C1498 C 0.03952 0.77059 0.37606 0.0
C1499 C 0.04104 0.75862 0.36028 0.0
C1500 C 0.06229 0.76808 0.35303 0.0
C1501 C 0.08171 0.78916 0.36162 0.0
C1502 C 0.07971 0.80087 0.37767 0.0
H1503 H 0.20096 0.20306 0.39304 0.0
H1504 H 0.26745 0.23184 0.37162 0.0
H1505 H 0.26074 0.26109 0.35609 0.0
H1506 H 0.17076 0.20806 0.35306 0.0
H1507 H 0.15364 0.21672 0.366 0.0
H1508 H 0.16357 0.19795 0.3754 0.0
H1509 H 0.18273 0.22856 0.40418 0.0
H1510 H 0.17279 0.24737 0.39487 0.0
H1511 H 0.20294 0.25961 0.40149 0.0
H1512 H 0.24693 0.28715 0.34298 0.0
H1513 H 0.22748 0.30919 0.33381 0.0
H1514 H 0.16974 0.26338 0.36364 0.0
C1515 C 0.21402 0.21539 0.38496 0.0
C1516 C 0.23474 0.21517 0.38353 0.0
C1517 C 0.25157 0.23186 0.37306 0.0
C1518 C 0.24785 0.24843 0.36411 0.0
C1519 C 0.22724 0.24813 0.36579 0.0
C1520 C 0.21064 0.23213 0.376 0.0
C1521 C 0.19017 0.23589 0.37584 0.0
C1522 C 0.16824 0.21331 0.36705 0.0
C1523 C 0.18698 0.2433 0.39525 0.0
C1524 C 0.19786 0.25648 0.3639 0.0
C1525 C 0.21928 0.26322 0.35823 0.0
C1526 C 0.23014 0.28203 0.34732 0.0
C1527 C 0.21892 0.29444 0.34218 0.0
C1528 C 0.19704 0.28803 0.34797 0.0
C1529 C 0.18636 0.26864 0.35886 0.0
H1530 H 0.65534 0.52108 0.71569 0.0
H1531 H 0.65509 0.57307 0.756 0.0
H1532 H 0.68878 0.60549 0.7439 0.0
H1533 H 0.71721 0.54837 0.71938 0.0
H1534 H 0.71839 0.54184 0.69543 0.0
H1535 H 0.69327 0.52251 0.7065 0.0
H1536 H 0.6679 0.5288 0.6823 0.0
H1537 H 0.69299 0.5483 0.67123 0.0
H1538 H 0.67434 0.55893 0.67877 0.0
H1539 H 0.72215 0.63244 0.72786 0.0
H1540 H 0.75564 0.65226 0.7102 0.0
H1541 H 0.73686 0.58331 0.68131 0.0
C1542 C 0.66239 0.53923 0.72207 0.0
C1543 C 0.65204 0.54439 0.73663 0.0
C1544 C 0.66201 0.56853 0.74448 0.0
C1545 C 0.68135 0.58716 0.73779 0.0
C1546 C 0.69087 0.58147 0.72338 0.0
C1547 C 0.68198 0.55811 0.71573 0.0
C1548 C 0.69632 0.55699 0.70086 0.0
C1549 C 0.70693 0.54151 0.70584 0.0
C1550 C 0.68203 0.5477 0.68218 0.0
C1551 C 0.7146 0.58338 0.7014 0.0
C1552 C 0.71088 0.59711 0.71442 0.0
C1553 C 0.72528 0.62191 0.71763 0.0
C1554 C 0.74423 0.633 0.70747 0.0
C1555 C 0.74878 0.61934 0.69435 0.0
C1556 C 0.73367 0.5942 0.69117 0.0
H1557 H 0.47601 0.12621 0.72174 0.0
H1558 H 0.46114 0.13402 0.77755 0.0
H1559 H 0.432 0.14402 0.76642 0.0
H1560 H 0.46853 0.17423 0.70493 0.0
H1561 H 0.45495 0.15787 0.68293 0.0
H1562 H 0.4755 0.15254 0.69531 0.0
H1563 H 0.44538 0.10706 0.69351 0.0
H1564 H 0.42472 0.11225 0.68118 0.0
H1565 H 0.41786 0.09764 0.702 0.0
H1566 H 0.40459 0.15278 0.74954 0.0
H1567 H 0.3792 0.15851 0.72771 0.0
H1568 H 0.41024 0.14341 0.68239 0.0
C1569 C 0.46677 0.13032 0.73157 0.0
C1570 C 0.4708 0.12948 0.75049 0.0
C1571 C 0.45818 0.13453 0.763 0.0
C1572 C 0.4417 0.14029 0.75682 0.0
C1573 C 0.43795 0.14075 0.73808 0.0
C1574 C 0.45001 0.13582 0.7256 0.0
C1575 C 0.44188 0.13658 0.70615 0.0
C1576 C 0.46138 0.1565 0.69678 0.0
C1577 C 0.43186 0.11191 0.69506 0.0
C1578 C 0.42333 0.14265 0.70967 0.0
C1579 C 0.42154 0.14515 0.72822 0.0
C1580 C 0.40579 0.15083 0.73499 0.0
C1581 C 0.39141 0.15399 0.72247 0.0
C1582 C 0.39269 0.15122 0.7034 0.0
C1583 C 0.40888 0.14552 0.69691 0.0
H1584 H 0.83929 0.31824 0.74561 0.0
H1585 H 0.89923 0.36958 0.72062 0.0
H1586 H 0.8969 0.33653 0.70013 0.0
H1587 H 0.85426 0.27199 0.74529 0.0
H1588 H 0.82512 0.24751 0.74042 0.0
H1589 H 0.83081 0.27531 0.75256 0.0
H1590 H 0.80356 0.27875 0.72824 0.0
H1591 H 0.79794 0.25099 0.71605 0.0
H1592 H 0.8085 0.27793 0.70442 0.0
H1593 H 0.88916 0.29825 0.68324 0.0
H1594 H 0.87664 0.25669 0.67098 0.0
H1595 H 0.82169 0.22962 0.70686 0.0
C1596 C 0.85172 0.32245 0.73566 0.0
C1597 C 0.86945 0.3464 0.73464 0.0
C1598 C 0.88563 0.3513 0.72167 0.0
C1599 C 0.88439 0.33269 0.70994 0.0
C1600 C 0.86691 0.30924 0.71141 0.0
C1601 C 0.85087 0.30399 0.72395 0.0
C1602 C 0.83443 0.27707 0.72314 0.0
C1603 C 0.83628 0.26741 0.74144 0.0
C1604 C 0.80964 0.27083 0.71763 0.0
C1605 C 0.84372 0.2681 0.70817 0.0
C1606 C 0.86245 0.28699 0.70162 0.0
C1607 C 0.87444 0.28328 0.68819 0.0
C1608 C 0.86721 0.25959 0.68133 0.0
C1609 C 0.84811 0.23988 0.68787 0.0
C1610 C 0.83616 0.2443 0.70139 0.0
H1611 H 0.1944 0.00487 0.59273 0.0
H1612 H 0.22304 0.96249 0.61317 0.0
H1613 H 0.2541 0.99867 0.63123 0.0
H1614 H 0.24967 0.05901 0.58884 0.0
H1615 H 0.23978 0.07928 0.59591 0.0
H1616 H 0.21984 0.05011 0.58421 0.0
H1617 H 0.19413 0.04061 0.61101 0.0
H1618 H 0.21407 0.06967 0.62284 0.0
H1619 H 0.20631 0.04274 0.63393 0.0
H1620 H 0.28122 0.03852 0.64771 0.0
H1621 H 0.30432 0.08061 0.66077 0.0
H1622 H 0.25923 0.09835 0.62942 0.0
C1623 C 0.20738 0.00328 0.60082 0.0
C1624 C 0.20612 0.98073 0.60166 0.0
C1625 C 0.22335 0.97941 0.61256 0.0
C1626 C 0.24115 0.9999 0.6228 0.0
C1627 C 0.24165 0.02168 0.62194 0.0
C1628 C 0.22539 0.02364 0.61114 0.0
C1629 C 0.23003 0.04934 0.61284 0.0
C1630 C 0.23514 0.06006 0.59435 0.0
C1631 C 0.20994 0.05066 0.62062 0.0
C1632 C 0.2513 0.06138 0.6264 0.0
C1633 C 0.25762 0.045 0.63142 0.0
C1634 C 0.27652 0.05157 0.64383 0.0
C1635 C 0.28953 0.0756 0.65121 0.0
C1636 C 0.28366 0.09292 0.64617 0.0
C1637 C 0.26415 0.08559 0.63363 0.0
H1638 H 0.01584 0.24004 0.61367 0.0
H1639 H 0.98367 0.1916 0.56413 0.0
H1640 H 0.94549 0.17729 0.57532 0.0
H1641 H 0.97904 0.19936 0.64393 0.0
H1642 H 0.97806 0.22212 0.65867 0.0
H1643 H 0.00281 0.22988 0.64633 0.0
H1644 H 0.99804 0.26305 0.63184 0.0
H1645 H 0.97331 0.25544 0.64419 0.0
H1646 H 0.97098 0.25524 0.61964 0.0
H1647 H 0.91122 0.16788 0.59172 0.0
H1648 H 0.88249 0.16225 0.61308 0.0
H1649 H 0.93636 0.21555 0.65296 0.0
C1650 C 1.00068 0.22662 0.60515 0.0
C1651 C 0.00257 0.21693 0.58802 0.0
C1652 C 0.98249 0.19913 0.57732 0.0
C1653 C 0.96079 0.19099 0.58352 0.0
C1654 C 0.95949 0.20069 0.60054 0.0
C1655 C 0.97884 0.21801 0.61128 0.0
C1656 C 0.97259 0.22453 0.62942 0.0
C1657 C 0.98379 0.21861 0.64554 0.0
C1658 C 0.97912 0.25115 0.63138 0.0
C1659 C 0.94673 0.20801 0.62723 0.0
C1660 C 0.9396 0.19464 0.61035 0.0
C1661 C 0.91659 0.17816 0.605 0.0
C1662 C 0.90041 0.1751 0.61726 0.0
C1663 C 0.90725 0.18836 0.63471 0.0
C1664 C 0.93072 0.20509 0.63975 0.0
H1665 H 0.76984 0.77242 0.6204 0.0
H1666 H 0.83797 0.8326 0.61515 0.0
H1667 H 0.85519 0.81212 0.63115 0.0
H1668 H 0.78208 0.75855 0.66492 0.0
H1669 H 0.76497 0.72637 0.65963 0.0
H1670 H 0.7575 0.74586 0.64816 0.0
H1671 H 0.75928 0.72687 0.61669 0.0
H1672 H 0.76654 0.70719 0.62807 0.0
H1673 H 0.78497 0.7263 0.61203 0.0
H1674 H 0.86535 0.7858 0.64742 0.0
H1675 H 0.8682 0.75369 0.66153 0.0
H1676 H 0.79374 0.70913 0.65566 0.0
C1677 C 0.78837 0.78123 0.62251 0.0
C1678 C 0.8025 0.80437 0.61674 0.0
C1679 C 0.82671 0.81522 0.61984 0.0
C1680 C 0.8367 0.80367 0.62883 0.0
C1681 C 0.82233 0.78113 0.63455 0.0
C1682 C 0.79872 0.76984 0.6314 0.0
C1683 C 0.78738 0.74521 0.63857 0.0
C1684 C 0.77208 0.74393 0.65372 0.0
C1685 C 0.77374 0.72521 0.62291 0.0
C1686 C 0.80837 0.74451 0.6462 0.0
C1687 C 0.82829 0.76553 0.64378 0.0
C1688 C 0.8499 0.76924 0.6494 0.0
C1689 C 0.85129 0.75081 0.65744 0.0
C1690 C 0.83119 0.72879 0.65978 0.0
C1691 C 0.80942 0.72578 0.65425 0.0
H1692 H 1.00066 0.77026 0.59571 0.0
H1693 H 0.04073 0.83328 0.63453 0.0
H1694 H 0.01216 0.81483 0.65681 0.0
H1695 H 0.94462 0.75887 0.60695 0.0
H1696 H 0.93185 0.72659 0.6044 0.0
H1697 H 0.95523 0.74493 0.59131 0.0
H1698 H 0.97819 0.72572 0.6042 0.0
H1699 H 0.95492 0.70742 0.61741 0.0
H1700 H 0.98341 0.72669 0.62863 0.0
H1701 H 0.97886 0.79021 0.67458 0.0
H1702 H 0.9432 0.76029 0.68693 0.0
H1703 H 0.92561 0.71242 0.63734 0.0
C1704 C 0.00329 0.78019 0.60886 0.0
C1705 C 0.02294 0.80316 0.61344 0.0
C1706 C 0.02592 0.81554 0.63084 0.0
C1707 C 0.00976 0.80526 0.64355 0.0
C1708 C 0.99072 0.7825 0.63872 0.0
C1709 C 0.98739 0.77006 0.62182 0.0
C1710 C 0.96556 0.7457 0.62023 0.0
C1711 C 0.9483 0.74393 0.60481 0.0
C1712 C 0.97085 0.72517 0.61746 0.0
C1713 C 0.95723 0.74643 0.63887 0.0
C1714 C 0.9719 0.76791 0.64926 0.0
C1715 C 0.96734 0.77321 0.66666 0.0
C1716 C 0.94713 0.75615 0.67358 0.0
C1717 C 0.932 0.734 0.66321 0.0
C1718 C 0.93722 0.72903 0.64571 0.0
H1719 H 0.17325 0.19797 0.60926 0.0
H1720 H 0.21521 0.24158 0.56845 0.0
H1721 H 0.2469 0.23585 0.57999 0.0
H1722 H 0.21874 0.2194 0.64562 0.0
H1723 H 0.20827 0.19055 0.65443 0.0
H1724 H 0.18845 0.19758 0.64286 0.0
H1725 H 0.17339 0.15941 0.62019 0.0
H1726 H 0.19317 0.15225 0.6317 0.0
H1727 H 0.19338 0.15511 0.60746 0.0
H1728 H 0.27428 0.22686 0.59609 0.0
H1729 H 0.29611 0.21405 0.61566 0.0
H1730 H 0.23695 0.17525 0.64613 0.0
C1731 C 0.18913 0.2063 0.6028 0.0
C1732 C 0.19172 0.22009 0.58786 0.0
C1733 C 0.21271 0.23063 0.5797 0.0
C1734 C 0.23086 0.2276 0.58622 0.0
C1735 C 0.22776 0.21389 0.60088 0.0
C1736 C 0.20746 0.20329 0.60907 0.0
C1737 C 0.20886 0.18943 0.62465 0.0
C1738 C 0.20591 0.19987 0.64298 0.0
C1739 C 0.19115 0.16245 0.62076 0.0
C1740 C 0.23319 0.19413 0.62399 0.0
C1741 C 0.24369 0.20834 0.61016 0.0
C1742 C 0.26625 0.21567 0.60693 0.0
C1743 C 0.27852 0.20835 0.61817 0.0
C1744 C 0.2682 0.19372 0.63239 0.0
C1745 C 0.24517 0.18637 0.63529 0.0
H1746 H 0.78867 0.0038 0.59695 0.0
H1747 H 0.7764 0.96582 0.64586 0.0
H1748 H 0.78559 0.00295 0.66456 0.0
H1749 H 0.83796 0.05907 0.61754 0.0
H1750 H 0.83079 0.07806 0.60504 0.0
H1751 H 0.82231 0.04821 0.59519 0.0
H1752 H 0.78011 0.03809 0.59094 0.0
H1753 H 0.7879 0.06761 0.60103 0.0
H1754 H 0.76643 0.04133 0.61044 0.0
H1755 H 0.79444 0.04371 0.67791 0.0
H1756 H 0.80539 0.08638 0.68514 0.0
H1757 H 0.81614 0.09891 0.6283 0.0
C1758 C 0.78818 0.00323 0.61161 0.0
C1759 C 0.78147 0.98158 0.61979 0.0
C1760 C 0.7808 0.98184 0.63906 0.0
C1761 C 0.78623 0.00295 0.64989 0.0
C1762 C 0.7927 0.02384 0.64134 0.0
C1763 C 0.79399 0.02425 0.62268 0.0
C1764 C 0.80176 0.04921 0.61695 0.0
C1765 C 0.82456 0.05922 0.60816 0.0
C1766 C 0.78294 0.04904 0.60408 0.0
C1767 C 0.80483 0.06281 0.63535 0.0
C1768 C 0.79913 0.04773 0.6492 0.0
C1769 C 0.79927 0.05579 0.66723 0.0
C1770 C 0.80545 0.07993 0.67122 0.0
C1771 C 0.81189 0.09573 0.6573 0.0
C1772 C 0.81172 0.08715 0.63919 0.0
H1773 H 0.46928 0.32246 0.73556 0.0
H1774 H 0.4462 0.37033 0.71696 0.0
H1775 H 0.41232 0.33575 0.69969 0.0
H1776 H 0.45222 0.28379 0.69404 0.0
H1777 H 0.44293 0.25661 0.70517 0.0
H1778 H 0.46519 0.28503 0.71645 0.0
H1779 H 0.44163 0.27835 0.74448 0.0
H1780 H 0.4194 0.24984 0.73327 0.0
H1781 H 0.41248 0.27228 0.74115 0.0
H1782 H 0.38088 0.29605 0.68447 0.0
H1783 H 0.3544 0.25397 0.6719 0.0
H1784 H 0.39796 0.23188 0.70024 0.0
C1785 C 0.45699 0.32564 0.72799 0.0
C1786 C 0.46049 0.34916 0.72755 0.0
C1787 C 0.4441 0.35255 0.71729 0.0
C1788 C 0.42471 0.333 0.70753 0.0
C1789 C 0.42187 0.31011 0.70816 0.0
C1790 C 0.43752 0.3063 0.71813 0.0
C1791 C 0.43054 0.2799 0.71628 0.0
C1792 C 0.44881 0.27612 0.70746 0.0
C1793 C 0.42573 0.26949 0.7349 0.0
C1794 C 0.40866 0.26954 0.70359 0.0
C1795 C 0.40388 0.28724 0.69918 0.0
C1796 C 0.38445 0.28202 0.6878 0.0
C1797 C 0.3695 0.25805 0.68074 0.0
C1798 C 0.37414 0.23961 0.68496 0.0
C1799 C 0.39402 0.24556 0.69656 0.0
H1800 H 0.66737 0.13162 0.74908 0.0
H1801 H 0.61719 0.07358 0.70968 0.0
H1802 H 0.64802 0.07966 0.69041 0.0
H1803 H 0.70341 0.1696 0.71776 0.0
H1804 H 0.72989 0.17875 0.73151 0.0
H1805 H 0.70391 0.17014 0.74232 0.0
H1806 H 0.70883 0.13808 0.7585 0.0
H1807 H 0.73492 0.1467 0.74783 0.0
H1808 H 0.71196 0.11578 0.74502 0.0
H1809 H 0.68374 0.09306 0.67474 0.0
H1810 H 0.72281 0.1108 0.66477 0.0
H1811 H 0.75036 0.15779 0.7154 0.0
C1812 C 0.6628 0.11986 0.73657 0.0
C1813 C 0.63966 0.10227 0.73088 0.0
C1814 C 0.63461 0.0876 0.7142 0.0
C1815 C 0.65204 0.09077 0.7032 0.0
C1816 C 0.67453 0.10841 0.70916 0.0
C1817 C 0.68003 0.12248 0.72556 0.0
C1818 C 0.70568 0.1399 0.7289 0.0
C1819 C 0.71102 0.16615 0.73019 0.0
C1820 C 0.71595 0.1348 0.74608 0.0
C1821 C 0.71367 0.13359 0.71168 0.0
C1822 C 0.69537 0.11548 0.70044 0.0
C1823 C 0.69824 0.10708 0.68349 0.0
C1824 C 0.72045 0.11732 0.67793 0.0
C1825 C 0.73949 0.13555 0.68937 0.0
C1826 C 0.73606 0.14377 0.70646 0.0
H1827 H 0.84421 0.5357 0.7458 0.0
H1828 H 0.90057 0.5402 0.71697 0.0
H1829 H 0.89749 0.56791 0.69694 0.0
H1830 H 0.811 0.53811 0.7067 0.0
H1831 H 0.80226 0.55692 0.71878 0.0
H1832 H 0.80827 0.53687 0.73093 0.0
H1833 H 0.8381 0.57273 0.75355 0.0
H1834 H 0.83199 0.59281 0.74157 0.0
H1835 H 0.86104 0.59863 0.74476 0.0
H1836 H 0.88929 0.59544 0.68039 0.0
H1837 H 0.87753 0.62331 0.66908 0.0
H1838 H 0.82646 0.60194 0.70825 0.0
C1839 C 0.85597 0.54263 0.73535 0.0
C1840 C 0.87241 0.53539 0.73281 0.0
C1841 C 0.88746 0.54492 0.71893 0.0
C1842 C 0.88594 0.56079 0.70751 0.0
C1843 C 0.86935 0.56719 0.71014 0.0
C1844 C 0.85473 0.55864 0.72378 0.0
C1845 C 0.83886 0.56904 0.72382 0.0
C1846 C 0.8136 0.54903 0.71981 0.0
C1847 C 0.84274 0.5842 0.742 0.0
C1848 C 0.84694 0.58472 0.7081 0.0
C1849 C 0.86452 0.58327 0.70043 0.0
C1850 C 0.87547 0.59667 0.6862 0.0
C1851 C 0.86865 0.61242 0.67985 0.0
C1852 C 0.85095 0.61459 0.68765 0.0
C1853 C 0.8397 0.60024 0.70176 0.0
H1854 H 0.50875 0.00225 0.14686 0.0
H1855 H 0.44059 0.94204 0.12988 0.0
H1856 H 0.4447 0.95317 0.0981 0.0
H1857 H 0.50751 0.04441 0.11573 0.0
H1858 H 0.53703 0.05637 0.11107 0.0
H1859 H 0.52806 0.0451 0.13282 0.0
H1860 H 0.54384 0.01605 0.12786 0.0
H1861 H 0.55281 0.0272 0.10611 0.0
H1862 H 0.534 0.99544 0.1074 0.0
H1863 H 0.45689 0.96868 0.0683 0.0
H1864 H 0.47677 0.98752 0.04182 0.0
H1865 H 0.53724 0.03816 0.07703 0.0
C1866 C 0.49461 0.99178 0.13644 0.0
C1867 C 0.47423 0.97149 0.14069 0.0
C1868 C 0.45622 0.95773 0.12677 0.0
C1869 C 0.45841 0.96393 0.10876 0.0
C1870 C 0.4788 0.98384 0.10491 0.0
C1871 C 0.49665 0.99756 0.11828 0.0
C1872 C 0.51727 0.01706 0.11009 0.0
C1873 C 0.52279 0.04223 0.11789 0.0
C1874 C 0.53821 0.01373 0.11304 0.0
C1875 C 0.50821 0.01204 0.09005 0.0
C1876 C 0.48593 0.99289 0.08749 0.0
C1877 C 0.47412 0.9841 0.07021 0.0
C1878 C 0.48534 0.99522 0.05516 0.0
C1879 C 0.50796 0.01499 0.05727 0.0
C1880 C 0.51967 0.02338 0.07501 0.0
H1881 H 0.06548 0.50991 0.12605 0.0
H1882 H 0.00661 0.50121 0.15315 0.0
H1883 H 0.98538 0.49532 0.12317 0.0
H1884 H 0.06142 0.54264 0.09068 0.0
H1885 H 0.06922 0.52822 0.07301 0.0
H1886 H 0.07938 0.53018 0.09653 0.0
H1887 H 0.06169 0.48391 0.09393 0.0
H1888 H 0.0512 0.4818 0.07046 0.0
H1889 H 0.03156 0.46465 0.08661 0.0
H1890 H 0.97252 0.4958 0.09111 0.0
H1891 H 0.96762 0.49966 0.05816 0.0
H1892 H 0.03288 0.50408 0.05091 0.0
C1893 C 0.04803 0.50648 0.12558 0.0
C1894 C 0.0376 0.50591 0.14189 0.0
C1895 C 0.01477 0.50142 0.14082 0.0
C1896 C 0.00261 0.4981 0.12386 0.0
C1897 C 0.01335 0.49889 0.10806 0.0
C1898 C 0.03542 0.50264 0.10868 0.0
C1899 C 0.04303 0.50321 0.08954 0.0
C1900 C 0.06453 0.52751 0.08732 0.0
C1901 C 0.04711 0.48213 0.08487 0.0
C1902 C 0.02209 0.5001 0.0782 0.0
C1903 C 0.00522 0.49767 0.08922 0.0
C1904 C 0.9853 0.49704 0.08226 0.0
C1905 C 0.98266 0.49925 0.06358 0.0
C1906 C 0.99959 0.50156 0.05205 0.0
C1907 C 0.01935 0.50155 0.05936 0.0
H1908 H 0.50127 0.51298 0.14077 0.0
H1909 H 0.43576 0.50896 0.12723 0.0
H1910 H 0.43851 0.50103 0.09481 0.0
H1911 H 0.52761 0.54714 0.10371 0.0
H1912 H 0.54479 0.53338 0.09969 0.0
H1913 H 0.53649 0.53559 0.12227 0.0
H1914 H 0.51822 0.48945 0.12292 0.0
H1915 H 0.52633 0.48708 0.10027 0.0
H1916 H 0.49673 0.46948 0.1049 0.0
H1917 H 0.4484 0.49482 0.06382 0.0
H1918 H 0.46706 0.49547 0.03605 0.0
H1919 H 0.52788 0.50767 0.06854 0.0
C1920 C 0.48746 0.51057 0.13111 0.0
C1921 C 0.468 0.51109 0.13695 0.0
C1922 C 0.45045 0.50771 0.12352 0.0
C1923 C 0.4519 0.50339 0.10491 0.0
C1924 C 0.47124 0.50299 0.09976 0.0
C1925 C 0.48891 0.50691 0.11239 0.0
C1926 C 0.50875 0.50775 0.10298 0.0
C1927 C 0.5307 0.53243 0.10743 0.0
C1928 C 0.51273 0.48721 0.10807 0.0
C1929 C 0.49947 0.50394 0.0831 0.0
C1930 C 0.4776 0.50072 0.08165 0.0
C1931 C 0.46544 0.4971 0.06479 0.0
C1932 C 0.47607 0.49714 0.04898 0.0
C1933 C 0.4986 0.50093 0.05003 0.0
C1934 C 0.51047 0.50441 0.06735 0.0
H1935 H 0.94424 0.49791 0.88741 0.0
H1936 H 0.99647 0.50047 0.85397 0.0
H1937 H 0.0221 0.5086 0.88174 0.0
H1938 H 0.98645 0.54746 0.92225 0.0
H1939 H 0.9699 0.53364 0.94092 0.0
H1940 H 0.95556 0.52959 0.91854 0.0
H1941 H 0.9355 0.48332 0.91861 0.0
H1942 H 0.9492 0.48725 0.94119 0.0
H1943 H 0.95261 0.46948 0.9231 0.0
H1944 H 0.03927 0.50938 0.91265 0.0
H1945 H 0.04888 0.5078 0.94526 0.0
H1946 H 0.98856 0.51044 0.95915 0.0
C1947 C 0.96128 0.50083 0.88586 0.0
C1948 C 0.96804 0.498 0.86839 0.0
C1949 C 0.9905 0.50177 0.86713 0.0
C1950 C 0.00534 0.50667 0.88284 0.0
C1951 C 0.99786 0.50848 0.8998 0.0
C1952 C 0.97659 0.50625 0.90146 0.0
C1953 C 0.97269 0.5085 0.92145 0.0
C1954 C 0.97105 0.53115 0.92604 0.0
C1955 C 0.95123 0.48577 0.92636 0.0
C1956 C 0.99455 0.51103 0.93068 0.0
C1957 C 0.00882 0.511 0.91789 0.0
C1958 C 0.02865 0.51023 0.92285 0.0
C1959 C 0.03395 0.50926 0.94136 0.0
C1960 C 0.01977 0.50959 0.95469 0.0
C1961 C 1.00008 0.51097 0.94932 0.0
H1962 H 0.50954 0.45215 0.87303 0.0
H1963 H 0.56984 0.52293 0.87262 0.0
H1964 H 0.56296 0.53495 0.90303 0.0
H1965 H 0.47456 0.47028 0.89375 0.0
H1966 H 0.46163 0.44549 0.90765 0.0
H1967 H 0.47204 0.4418 0.88638 0.0
H1968 H 0.49784 0.42843 0.90336 0.0
H1969 H 0.48744 0.43197 0.92472 0.0
H1970 H 0.51784 0.44766 0.92241 0.0
H1971 H 0.54802 0.54016 0.93268 0.0
H1972 H 0.52677 0.53735 0.95978 0.0
H1973 H 0.47736 0.46286 0.9413 0.0
C1974 C 0.52159 0.47003 0.87945 0.0
C1975 C 0.54016 0.48663 0.87029 0.0
C1976 C 0.55525 0.51 0.87915 0.0
C1977 C 0.55159 0.51696 0.8965 0.0
C1978 C 0.53288 0.5003 0.90495 0.0
C1979 C 0.51827 0.47722 0.89681 0.0
C1980 C 0.4991 0.46294 0.90862 0.0
C1981 C 0.47544 0.45465 0.89849 0.0
C1982 C 0.50065 0.44148 0.91516 0.0
C1983 C 0.5048 0.48183 0.92435 0.0
C1984 C 0.52447 0.5032 0.9221 0.0
C1985 C 0.53276 0.52342 0.9347 0.0
C1986 C 0.52069 0.52167 0.95006 0.0
C1987 C 0.50069 0.49987 0.95267 0.0
C1988 C 0.49262 0.47978 0.93959 0.0
H1989 H 0.50463 0.03011 0.87303 0.0
H1990 H 0.57826 0.07803 0.8859 0.0
H1991 H 0.57521 0.06394 0.91645 0.0
H1992 H 0.49091 0.04406 0.91721 0.0
H1993 H 0.4667 0.0142 0.9177 0.0
H1994 H 0.47505 0.02633 0.89613 0.0
H1995 H 0.47835 0.98922 0.88519 0.0
H1996 H 0.47032 0.97718 0.90683 0.0
H1997 H 0.49683 0.98195 0.89859 0.0
H1998 H 0.56432 0.04388 0.94563 0.0
H1999 H 0.5454 0.02366 0.9724 0.0
H2000 H 0.4788 0.99426 0.94214 0.0
C2001 C 0.52022 0.03808 0.88216 0.0
C2002 C 0.54179 0.05503 0.87654 0.0
C2003 C 0.56157 0.0644 0.88928 0.0
C2004 C 0.56004 0.05668 0.90686 0.0
C2005 C 0.53854 0.04002 0.91179 0.0
C2006 C 0.51892 0.03126 0.89995 0.0
C2007 C 0.49765 0.01498 0.90909 0.0
C2008 C 0.48164 0.02553 0.91009 0.0
C2009 C 0.48505 0.98931 0.89934 0.0
C2010 C 0.50841 0.01576 0.92787 0.0
C2011 C 0.53206 0.03 0.92906 0.0
C2012 C 0.54579 0.03298 0.94492 0.0
C2013 C 0.53498 0.02153 0.96009 0.0
C2014 C 0.51079 0.00794 0.95947 0.0
C2015 C 0.49738 0.00474 0.94304 0.0
H2016 H 0.13201 0.2833 0.45447 0.0
H2017 H 0.15857 0.3531 0.48493 0.0
H2018 H 0.17218 0.37294 0.45668 0.0
H2019 H 0.17855 0.30144 0.42624 0.0
H2020 H 0.16065 0.28262 0.40618 0.0
H2021 H 0.15228 0.27389 0.4286 0.0
H2022 H 0.11313 0.27144 0.42054 0.0
H2023 H 0.12146 0.27972 0.39802 0.0
H2024 H 0.11302 0.29721 0.41218 0.0
H2025 H 0.18307 0.3851 0.42495 0.0
H2026 H 0.19109 0.38849 0.39241 0.0
H2027 H 0.15794 0.31073 0.38316 0.0
C2028 C 0.14045 0.30274 0.45513 0.0
C2029 C 0.14412 0.3167 0.47183 0.0
C2030 C 0.15565 0.34212 0.47226 0.0
C2031 C 0.16337 0.35351 0.45629 0.0
C2032 C 0.15959 0.33923 0.44005 0.0
C2033 C 0.14849 0.3144 0.43938 0.0
C2034 C 0.14725 0.30323 0.42035 0.0
C2035 C 0.16048 0.28949 0.42035 0.0
C2036 C 0.12221 0.28691 0.41231 0.0
C2037 C 0.15914 0.32561 0.41039 0.0
C2038 C 0.16615 0.34622 0.42195 0.0
C2039 C 0.17762 0.36906 0.41577 0.0
C2040 C 0.18209 0.37083 0.39731 0.0
C2041 C 0.17503 0.34989 0.38531 0.0
C2042 C 0.16337 0.32705 0.39199 0.0
H2043 H 0.71392 0.87281 0.47201 0.0
H2044 H 0.72381 0.81111 0.47024 0.0
H2045 H 0.70761 0.80012 0.43792 0.0
H2046 H 0.66061 0.84489 0.44451 0.0
H2047 H 0.66691 0.87106 0.43284 0.0
H2048 H 0.67995 0.8746 0.45566 0.0
H2049 H 0.72032 0.89998 0.44451 0.0
H2050 H 0.70749 0.89656 0.42161 0.0
H2051 H 0.72859 0.8876 0.42576 0.0
H2052 H 0.68983 0.79547 0.40604 0.0
H2053 H 0.67196 0.79774 0.37654 0.0
H2054 H 0.6737 0.86246 0.39893 0.0
C2055 C 0.71291 0.85713 0.46477 0.0
C2056 C 0.72007 0.84276 0.47368 0.0
C2057 C 0.71816 0.8222 0.46378 0.0
C2058 C 0.70909 0.81589 0.4454 0.0
C2059 C 0.70197 0.83029 0.43711 0.0
C2060 C 0.70384 0.85053 0.44644 0.0
C2061 C 0.6947 0.86279 0.43437 0.0
C2062 C 0.67433 0.86336 0.44232 0.0
C2063 C 0.71392 0.88824 0.43139 0.0
C2064 C 0.68706 0.84606 0.41691 0.0
C2065 C 0.69158 0.82753 0.41875 0.0
C2066 C 0.68625 0.80991 0.40443 0.0
C2067 C 0.67617 0.81137 0.38775 0.0
C2068 C 0.67159 0.8303 0.38554 0.0
C2069 C 0.6769 0.84771 0.40035 0.0
H2070 H 0.1225 0.8151 0.45988 0.0
H2071 H 0.12294 0.88247 0.45778 0.0
H2072 H 0.1377 0.88686 0.4274 0.0
H2073 H 0.17287 0.83145 0.44051 0.0
H2074 H 0.16352 0.80343 0.42686 0.0
H2075 H 0.15021 0.80366 0.44738 0.0
H2076 H 0.11002 0.78271 0.429 0.0
H2077 H 0.12338 0.78178 0.40861 0.0
H2078 H 0.10579 0.79548 0.40902 0.0
H2079 H 0.15939 0.88805 0.40087 0.0
H2080 H 0.18034 0.88237 0.37643 0.0
H2081 H 0.16183 0.81183 0.39284 0.0
C2082 C 0.12515 0.83041 0.45274 0.0
C2083 C 0.12156 0.84845 0.46109 0.0
C2084 C 0.12534 0.86835 0.4515 0.0
C2085 C 0.1338 0.87103 0.43429 0.0
C2086 C 0.13787 0.85335 0.42666 0.0
C2087 C 0.13305 0.83304 0.43528 0.0
C2088 C 0.13974 0.81719 0.42425 0.0
C2089 C 0.15765 0.81374 0.43542 0.0
C2090 C 0.11846 0.79285 0.41732 0.0
C2091 C 0.15006 0.83234 0.40858 0.0
C2092 C 0.1489 0.8532 0.41036 0.0
C2093 C 0.15965 0.87141 0.39891 0.0
C2094 C 0.17158 0.86807 0.38511 0.0
C2095 C 0.17207 0.8464 0.38247 0.0
C2096 C 0.16114 0.82828 0.39433 0.0
H2097 H 0.61594 0.78908 0.20633 0.0
H2098 H 0.61026 0.85341 0.20703 0.0
H2099 H 0.62984 0.86635 0.23823 0.0
H2100 H 0.60798 0.77997 0.25446 0.0
H2101 H 0.62851 0.76999 0.25715 0.0
H2102 H 0.61269 0.76482 0.23524 0.0
H2103 H 0.6509 0.78691 0.22018 0.0
H2104 H 0.66686 0.79218 0.24202 0.0
H2105 H 0.67225 0.81715 0.22911 0.0
H2106 H 0.6509 0.873 0.26901 0.0
H2107 H 0.67226 0.87289 0.29733 0.0
H2108 H 0.66597 0.80533 0.27632 0.0
C2109 C 0.61885 0.80593 0.21299 0.0
C2110 C 0.61138 0.82013 0.20415 0.0
C2111 C 0.61536 0.84193 0.21354 0.0
C2112 C 0.62663 0.84954 0.23126 0.0
C2113 C 0.63393 0.83524 0.23945 0.0
C2114 C 0.63018 0.81387 0.23067 0.0
C2115 C 0.64025 0.80216 0.24243 0.0
C2116 C 0.62123 0.77779 0.24763 0.0
C2117 C 0.65866 0.79945 0.23286 0.0
C2118 C 0.65075 0.82061 0.25898 0.0
C2119 C 0.64662 0.83939 0.25706 0.0
C2120 C 0.6543 0.85844 0.27064 0.0
C2121 C 0.66646 0.85826 0.28662 0.0
C2122 C 0.67089 0.83923 0.28886 0.0
C2123 C 0.66305 0.82025 0.27482 0.0
H2124 H 0.21668 0.84934 0.21284 0.0
H2125 H 0.1878 0.77234 0.20037 0.0
H2126 H 0.17178 0.76524 0.2301 0.0
H2127 H 0.23048 0.85075 0.26251 0.0
H2128 H 0.223 0.87338 0.26829 0.0
H2129 H 0.23387 0.87237 0.24658 0.0
H2130 H 0.19724 0.86959 0.23033 0.0
H2131 H 0.18635 0.8699 0.25211 0.0
H2132 H 0.16936 0.84552 0.23462 0.0
H2133 H 0.1566 0.76566 0.25967 0.0
H2134 H 0.14356 0.77386 0.28843 0.0
H2135 H 0.18255 0.85056 0.28315 0.0
C2136 C 0.20712 0.83103 0.21646 0.0
C2137 C 0.20379 0.81142 0.20434 0.0
C2138 C 0.19108 0.78771 0.20955 0.0
C2139 C 0.18178 0.78345 0.22638 0.0
C2140 C 0.18533 0.80307 0.23796 0.0
C2141 C 0.19776 0.82642 0.23337 0.0
C2142 C 0.19827 0.84408 0.24828 0.0
C2143 C 0.22289 0.86118 0.25691 0.0
C2144 C 0.18714 0.85809 0.24089 0.0
C2145 C 0.18384 0.8269 0.26172 0.0
C2146 C 0.17663 0.80334 0.25542 0.0
C2147 C 0.16229 0.78403 0.26485 0.0
C2148 C 0.15493 0.78887 0.28113 0.0
C2149 C 0.16214 0.81282 0.28793 0.0
C2150 C 0.17704 0.83213 0.27827 0.0
H2151 H 0.20169 0.38063 0.21611 0.0
H2152 H 0.17273 0.31058 0.1855 0.0
H2153 H 0.16138 0.291 0.21412 0.0
H2154 H 0.22363 0.36681 0.25671 0.0
H2155 H 0.21615 0.38382 0.27242 0.0
H2156 H 0.22286 0.39278 0.24976 0.0
H2157 H 0.18379 0.39054 0.24342 0.0
H2158 H 0.17692 0.38203 0.26614 0.0
H2159 H 0.15768 0.36324 0.2466 0.0
H2160 H 0.1525 0.27904 0.246 0.0
H2161 H 0.14539 0.27557 0.27868 0.0
H2162 H 0.17914 0.35336 0.28826 0.0
C2163 C 0.19321 0.36119 0.21551 0.0
C2164 C 0.18819 0.34707 0.19865 0.0
C2165 C 0.17667 0.32167 0.1983 0.0
C2166 C 0.17025 0.31042 0.21447 0.0
C2167 C 0.17533 0.32483 0.23087 0.0
C2168 C 0.18642 0.34966 0.2315 0.0
C2169 C 0.18895 0.36094 0.25077 0.0
C2170 C 0.21441 0.37704 0.25784 0.0
C2171 C 0.17606 0.37501 0.25178 0.0
C2172 C 0.17749 0.33857 0.26086 0.0
C2173 C 0.16989 0.31793 0.24917 0.0
C2174 C 0.15843 0.29508 0.2553 0.0
C2175 C 0.15446 0.29326 0.27385 0.0
C2176 C 0.16181 0.31416 0.28597 0.0
C2177 C 0.17354 0.33707 0.27935 0.0
H2178 H 0.83241 0.64974 0.81321 0.0
H2179 H 0.76585 0.58817 0.79402 0.0
H2180 H 0.77188 0.59952 0.76235 0.0
H2181 H 0.83177 0.69123 0.78224 0.0
H2182 H 0.86175 0.70443 0.77869 0.0
H2183 H 0.8518 0.69219 0.79997 0.0
H2184 H 0.86918 0.6645 0.79555 0.0
H2185 H 0.8792 0.67669 0.77428 0.0
H2186 H 0.86104 0.64466 0.77479 0.0
H2187 H 0.78512 0.61713 0.73307 0.0
H2188 H 0.80561 0.63867 0.70761 0.0
H2189 H 0.86426 0.6884 0.74501 0.0
C2190 C 0.81907 0.63886 0.80231 0.0
C2191 C 0.79857 0.61823 0.80594 0.0
C2192 C 0.78162 0.60406 0.79141 0.0
C2193 C 0.78488 0.6104 0.77345 0.0
C2194 C 0.80532 0.63078 0.77028 0.0
C2195 C 0.82223 0.64471 0.78424 0.0
C2196 C 0.84304 0.66504 0.77692 0.0
C2197 C 0.84733 0.68968 0.78493 0.0
C2198 C 0.86438 0.66256 0.78061 0.0
C2199 C 0.83509 0.66045 0.75668 0.0
C2200 C 0.81321 0.6407 0.75324 0.0
C2201 C 0.80216 0.63278 0.73565 0.0
C2202 C 0.81377 0.64539 0.72121 0.0
C2203 C 0.83611 0.66562 0.72427 0.0
C2204 C 0.84702 0.67311 0.74227 0.0
H2205 H 0.37409 0.20628 0.79731 0.0
H2206 H 0.3672 0.13564 0.79859 0.0
H2207 H 0.34741 0.12395 0.76739 0.0
H2208 H 0.32009 0.18772 0.77241 0.0
H2209 H 0.33109 0.21313 0.75903 0.0
H2210 H 0.34464 0.21607 0.78155 0.0
H2211 H 0.38375 0.23056 0.76817 0.0
H2212 H 0.37036 0.22783 0.74563 0.0
H2213 H 0.38582 0.21219 0.74977 0.0
H2214 H 0.32902 0.1201 0.73594 0.0
H2215 H 0.31406 0.12476 0.70595 0.0
H2216 H 0.33273 0.19776 0.72499 0.0
C2217 C 0.36858 0.1884 0.79101 0.0
C2218 C 0.37209 0.17182 0.80051 0.0
C2219 C 0.36436 0.14852 0.79177 0.0
C2220 C 0.35321 0.14175 0.774 0.0
C2221 C 0.3499 0.15847 0.76512 0.0
C2222 C 0.35747 0.18136 0.77326 0.0
C2223 C 0.3521 0.19603 0.76058 0.0
C2224 C 0.33602 0.20368 0.76889 0.0
C2225 C 0.37432 0.21795 0.75576 0.0
C2226 C 0.34007 0.1777 0.74412 0.0
C2227 C 0.33909 0.15618 0.74701 0.0
C2228 C 0.32953 0.13678 0.73357 0.0
C2229 C 0.32106 0.13957 0.71663 0.0
C2230 C 0.32211 0.16151 0.71335 0.0
C2231 C 0.33141 0.18068 0.72733 0.0
H2232 H 0.84165 0.20498 0.80568 0.0
H2233 H 0.77487 0.14011 0.80388 0.0
H2234 H 0.77738 0.13022 0.77151 0.0
H2235 H 0.83462 0.21943 0.76016 0.0
H2236 H 0.86401 0.23008 0.75573 0.0
H2237 H 0.85703 0.23235 0.77879 0.0
H2238 H 0.8766 0.20853 0.78908 0.0
H2239 H 0.88374 0.20624 0.76608 0.0
H2240 H 0.86766 0.1794 0.77741 0.0
H2241 H 0.78678 0.12748 0.73931 0.0
H2242 H 0.80288 0.1318 0.70945 0.0
H2243 H 0.86413 0.19761 0.73221 0.0
C2244 C 0.82764 0.18857 0.79856 0.0
C2245 C 0.808 0.17338 0.80738 0.0
C2246 C 0.78993 0.15225 0.7974 0.0
C2247 C 0.79125 0.14639 0.77902 0.0
C2248 C 0.81079 0.16176 0.77077 0.0
C2249 C 0.8287 0.1824 0.78019 0.0
C2250 C 0.84775 0.19586 0.76804 0.0
C2251 C 0.85104 0.22091 0.76553 0.0
C2252 C 0.87027 0.1976 0.77561 0.0
C2253 C 0.83784 0.17941 0.75038 0.0
C2254 C 0.81643 0.15994 0.75224 0.0
C2255 C 0.80359 0.14257 0.73772 0.0
C2256 C 0.81285 0.14518 0.72082 0.0
C2257 C 0.83476 0.16493 0.71862 0.0
C2258 C 0.84745 0.18218 0.73362 0.0
H2259 H 0.3238 0.15348 0.525 0.0
H2260 H 0.25657 0.14533 0.53075 0.0
H2261 H 0.26418 0.14995 0.56417 0.0
H2262 H 0.32298 0.11963 0.56332 0.0
H2263 H 0.35314 0.13873 0.57052 0.0
H2264 H 0.34285 0.13511 0.54678 0.0
H2265 H 0.36134 0.18134 0.54701 0.0
H2266 H 0.37161 0.1851 0.57076 0.0
H2267 H 0.354 0.19747 0.56363 0.0
H2268 H 0.27829 0.15546 0.59638 0.0
H2269 H 0.29795 0.16031 0.62638 0.0
H2270 H 0.35635 0.16449 0.60158 0.0
C2271 C 0.31064 0.1525 0.5333 0.0
C2272 C 0.2897 0.14945 0.52515 0.0
C2273 C 0.27297 0.14831 0.53656 0.0
C2274 C 0.27704 0.15072 0.5556 0.0
C2275 C 0.29786 0.15401 0.56314 0.0
C2276 C 0.31437 0.15475 0.55248 0.0
C2277 C 0.33518 0.15829 0.5644 0.0
C2278 C 0.33874 0.13665 0.56105 0.0
C2279 C 0.35681 0.18196 0.56126 0.0
C2280 C 0.32768 0.15953 0.58337 0.0
C2281 C 0.30611 0.15708 0.58214 0.0
C2282 C 0.2953 0.15765 0.59752 0.0
C2283 C 0.30684 0.16088 0.61467 0.0
C2284 C 0.32899 0.16368 0.61656 0.0
C2285 C 0.33947 0.16266 0.60061 0.0
H2286 H 0.84018 0.12803 0.5428 0.0
H2287 H 0.90274 0.19764 0.54572 0.0
H2288 H 0.89316 0.20959 0.57498 0.0
H2289 H 0.80408 0.14725 0.5613 0.0
H2290 H 0.7895 0.12193 0.57448 0.0
H2291 H 0.80124 0.11865 0.5538 0.0
H2292 H 0.82483 0.10354 0.57178 0.0
H2293 H 0.8134 0.10693 0.5926 0.0
H2294 H 0.844 0.12187 0.59152 0.0
H2295 H 0.87642 0.21421 0.60359 0.0
H2296 H 0.85517 0.21003 0.6308 0.0
H2297 H 0.80417 0.13706 0.60962 0.0
C2298 C 0.85207 0.14569 0.54965 0.0
C2299 C 0.87215 0.16196 0.5418 0.0
C2300 C 0.88703 0.18501 0.55122 0.0
C2301 C 0.8818 0.19194 0.5679 0.0
C2302 C 0.86167 0.17559 0.57503 0.0
C2303 C 0.8472 0.15284 0.56634 0.0
C2304 C 0.82693 0.13846 0.57713 0.0
C2305 C 0.80409 0.13115 0.56601 0.0
C2306 C 0.82733 0.11639 0.58363 0.0
C2307 C 0.83195 0.15687 0.59306 0.0
C2308 C 0.85211 0.17816 0.5916 0.0
C2309 C 0.86059 0.19767 0.60485 0.0
C2310 C 0.84838 0.19516 0.62018 0.0
C2311 C 0.82803 0.1733 0.62215 0.0
C2312 C 0.81951 0.15407 0.60827 0.0
H2313 H 0.84286 0.6931 0.53849 0.0
H2314 H 0.90924 0.75554 0.55759 0.0
H2315 H 0.90421 0.74327 0.58878 0.0
H2316 H 0.81492 0.69696 0.57813 0.0
H2317 H 0.79729 0.6648 0.57824 0.0
H2318 H 0.80645 0.67769 0.55703 0.0
H2319 H 0.8243 0.65071 0.55112 0.0
H2320 H 0.81533 0.63787 0.57238 0.0
H2321 H 0.84513 0.65173 0.56809 0.0
H2322 H 0.89251 0.72474 0.61776 0.0
H2323 H 0.87318 0.70262 0.64334 0.0
H2324 H 0.81351 0.65308 0.60673 0.0
C2325 C 0.85631 0.70433 0.54921 0.0
C2326 C 0.87667 0.72513 0.54535 0.0
C2327 C 0.8938 0.73915 0.55992 0.0
C2328 C 0.89106 0.73243 0.57777 0.0
C2329 C 0.87097 0.71178 0.581 0.0
C2330 C 0.85373 0.69807 0.56723 0.0
C2331 C 0.83342 0.67726 0.57468 0.0
C2332 C 0.81174 0.67931 0.57185 0.0
C2333 C 0.82932 0.65295 0.56605 0.0
C2334 C 0.84203 0.68147 0.59478 0.0
C2335 C 0.86383 0.70136 0.59799 0.0
C2336 C 0.87551 0.709 0.61537 0.0
C2337 C 0.86454 0.69605 0.62988 0.0
C2338 C 0.84221 0.67575 0.62711 0.0
C2339 C 0.83074 0.66844 0.60927 0.0
loop_
_geom_bond_atom_site_label_1
_geom_bond_atom_site_label_2
_geom_bond_distance
_geom_bond_site_symmetry_2
_ccdc_geom_bond_type
C0 C1 1.386 . S
C0 C2 1.397 . S
C0 H24 0.931 . S
C1 C0 1.386 . S
C1 C5 1.397 . S
C2 C0 1.397 . S
C2 C3 1.384 . S
C2 H25 0.930 . S
C3 C2 1.384 . S
C3 C4 1.377 . S
C3 C6 1.481 . S
C4 C3 1.377 . S
C4 C5 1.389 . S
C4 H26 0.929 . S
C5 C1 1.397 . S
C5 C4 1.389 . S
C5 H27 0.931 . S
C6 C3 1.481 . S
C6 C7 1.387 . S
C6 C11 1.390 . S
C7 C6 1.387 . S
C7 C8 1.401 . S
C7 H28 0.930 . S
C8 C7 1.401 . S
C8 C9 1.376 . S
C8 C17 1.511 . S
C9 C8 1.376 . S
C9 C10 1.392 . S
C9 H30 0.931 . S
C10 C9 1.392 . S
C10 C11 1.361 . S
C10 C12 1.500 . S
C11 C6 1.390 . S
C11 C10 1.361 . S
C11 H29 0.931 . S
C12 C10 1.500 . S
C12 C13 1.371 . S
C12 C14 1.365 . S
C13 C12 1.371 . S
C13 C23 1.386 . S
C13 H31 0.931 . S
C14 C12 1.365 . S
C14 C15 1.409 . S
C14 H32 0.929 . S
C15 C14 1.409 . S
C15 C16 1.380 . S
C15 H33 0.930 . S
C16 C15 1.380 . S
C16 C23 1.357 . S
C17 C8 1.511 . S
C17 C18 1.341 . S
C17 C19 1.371 . S
C18 C17 1.341 . S
C18 C22 1.394 . S
C18 H34 0.930 . S
C19 C17 1.371 . S
C19 C20 1.392 . S
C19 H35 0.931 . S
C20 C19 1.392 . S
C20 C21 1.331 . S
C20 H38 0.932 . S
C21 C20 1.331 . S
C21 C22 1.336 . S
C22 C18 1.394 . S
C22 C21 1.336 . S
C22 H37 0.929 . S
C23 C13 1.386 . S
C23 C16 1.357 . S
C23 H36 0.928 . S
H24 C0 0.931 . S
H25 C2 0.930 . S
H26 C4 0.929 . S
H27 C5 0.931 . S
H28 C7 0.930 . S
H29 C11 0.931 . S
H30 C9 0.931 . S
H31 C13 0.931 . S
H32 C14 0.929 . S
H33 C15 0.930 . S
H34 C18 0.930 . S
H35 C19 0.931 . S
H36 C23 0.928 . S
H37 C22 0.929 . S
H38 C20 0.932 . S
C39 C40 1.386 . S
C39 C41 1.397 . S
C39 H63 0.931 . S
C40 C39 1.386 . S
C40 C44 1.397 . S
C41 C39 1.397 . S
C41 C42 1.384 . S
C41 H64 0.930 . S
C42 C41 1.384 . S
C42 C43 1.377 . S
C42 C45 1.481 . S
C43 C42 1.377 . S
C43 C44 1.389 . S
C43 H65 0.929 . S
C44 C40 1.397 . S
C44 C43 1.389 . S
C44 H66 0.931 . S
C45 C42 1.481 . S
C45 C46 1.387 . S
C45 C50 1.390 . S
C46 C45 1.387 . S
C46 C47 1.401 . S
C46 H67 0.930 . S
C47 C46 1.401 . S
C47 C48 1.376 . S
C47 C56 1.511 . S
C48 C47 1.376 . S
C48 C49 1.392 . S
C48 H69 0.931 . S
C49 C48 1.392 . S
C49 C50 1.361 . S
C49 C51 1.500 . S
C50 C45 1.390 . S
C50 C49 1.361 . S
C50 H68 0.931 . S
C51 C49 1.500 . S
C51 C52 1.371 . S
C51 C53 1.365 . S
C52 C51 1.371 . S
C52 C62 1.386 . S
C52 H70 0.931 . S
C53 C51 1.365 . S
C53 C54 1.409 . S
C53 H71 0.929 . S
C54 C53 1.409 . S
C54 C55 1.380 . S
C54 H72 0.930 . S
C55 C54 1.380 . S
C55 C62 1.357 . S
C56 C47 1.511 . S
C56 C57 1.341 . S
C56 C58 1.371 . S
C57 C56 1.341 . S
C57 C61 1.394 . S
C57 H73 0.930 . S
C58 C56 1.371 . S
C58 C59 1.392 . S
C58 H74 0.931 . S
C59 C58 1.392 . S
C59 C60 1.331 . S
C59 H77 0.932 . S
C60 C59 1.331 . S
C60 C61 1.336 . S
C61 C57 1.394 . S
C61 C60 1.336 . S
C61 H76 0.929 . S
C62 C52 1.386 . S
C62 C55 1.357 . S
C62 H75 0.928 . S
H63 C39 0.931 . S
H64 C41 0.930 . S
H65 C43 0.929 . S
H66 C44 0.931 . S
H67 C46 0.930 . S
H68 C50 0.931 . S
H69 C48 0.931 . S
H70 C52 0.931 . S
H71 C53 0.929 . S
H72 C54 0.930 . S
H73 C57 0.930 . S
H74 C58 0.931 . S
H75 C62 0.928 . S
H76 C61 0.929 . S
H77 C59 0.932 . S
C78 C79 1.386 . S
C78 C80 1.397 . S
C78 H102 0.931 . S
C79 C78 1.386 . S
C79 C83 1.397 . S
C80 C78 1.397 . S
C80 C81 1.384 . S
C80 H103 0.930 . S
C81 C80 1.384 . S
C81 C82 1.377 . S
C81 C84 1.481 . S
C82 C81 1.377 . S
C82 C83 1.389 . S
C82 H104 0.929 . S
C83 C79 1.397 . S
C83 C82 1.389 . S
C83 H105 0.931 . S
C84 C81 1.481 . S
C84 C85 1.387 . S
C84 C89 1.390 . S
C85 C84 1.387 . S
C85 C86 1.401 . S
C85 H106 0.930 . S
C86 C85 1.401 . S
C86 C87 1.376 . S
C86 C95 1.511 . S
C87 C86 1.376 . S
C87 C88 1.392 . S
C87 H108 0.931 . S
C88 C87 1.392 . S
C88 C89 1.361 . S
C88 C90 1.500 . S
C89 C84 1.390 . S
C89 C88 1.361 . S
C89 H107 0.931 . S
C90 C88 1.500 . S
C90 C91 1.371 . S
C90 C92 1.365 . S
C91 C90 1.371 . S
C91 C101 1.386 . S
C91 H109 0.931 . S
C92 C90 1.365 . S
C92 C93 1.409 . S
C92 H110 0.929 . S
C93 C92 1.409 . S
C93 C94 1.380 . S
C93 H111 0.930 . S
C94 C93 1.380 . S
C94 C101 1.357 . S
C95 C86 1.511 . S
C95 C96 1.341 . S
C95 C97 1.371 . S
C96 C95 1.341 . S
C96 C100 1.394 . S
C96 H112 0.930 . S
C97 C95 1.371 . S
C97 C98 1.392 . S
C97 H113 0.931 . S
C98 C97 1.392 . S
C98 C99 1.331 . S
C98 H116 0.932 . S
C99 C98 1.331 . S
C99 C100 1.336 . S
C100 C96 1.394 . S
C100 C99 1.336 . S
C100 H115 0.929 . S
C101 C91 1.386 . S
C101 C94 1.357 . S
C101 H114 0.928 . S
H102 C78 0.931 . S
H103 C80 0.930 . S
H104 C82 0.929 . S
H105 C83 0.931 . S
H106 C85 0.930 . S
H107 C89 0.931 . S
H108 C87 0.931 . S
H109 C91 0.931 . S
H110 C92 0.929 . S
H111 C93 0.930 . S
H112 C96 0.930 . S
H113 C97 0.931 . S
H114 C101 0.928 . S
H115 C100 0.929 . S
H116 C98 0.932 . S
C117 C118 1.386 . S
C117 C119 1.397 . S
C117 H141 0.931 . S
C118 C117 1.386 . S
C118 C122 1.397 . S
C119 C117 1.397 . S
C119 C120 1.384 . S
C119 H142 0.930 . S
C120 C119 1.384 . S
C120 C121 1.377 . S
C120 C123 1.481 . S
C121 C120 1.377 . S
C121 C122 1.389 . S
C121 H143 0.929 . S
C122 C118 1.397 . S
C122 C121 1.389 . S
C122 H144 0.931 . S
C123 C120 1.481 . S
C123 C124 1.387 . S
C123 C128 1.390 . S
C124 C123 1.387 . S
C124 C125 1.401 . S
C124 H145 0.930 . S
C125 C124 1.401 . S
C125 C126 1.376 . S
C125 C134 1.511 . S
C126 C125 1.376 . S
C126 C127 1.392 . S
C126 H147 0.931 . S
C127 C126 1.392 . S
C127 C128 1.361 . S
C127 C129 1.500 . S
C128 C123 1.390 . S
C128 C127 1.361 . S
C128 H146 0.931 . S
C129 C127 1.500 . S
C129 C130 1.371 . S
C129 C131 1.365 . S
C130 C129 1.371 . S
C130 C140 1.386 . S
C130 H148 0.931 . S
C131 C129 1.365 . S
C131 C132 1.409 . S
C131 H149 0.929 . S
C132 C131 1.409 . S
C132 C133 1.380 . S
C132 H150 0.930 . S
C133 C132 1.380 . S
C133 C140 1.357 . S
C134 C125 1.511 . S
C134 C135 1.341 . S
C134 C136 1.371 . S
C135 C134 1.341 . S
C135 C139 1.394 . S
C135 H151 0.930 . S
C136 C134 1.371 . S
C136 C137 1.392 . S
C136 H152 0.931 . S
C137 C136 1.392 . S
C137 C138 1.331 . S
C137 H155 0.932 . S
C138 C137 1.331 . S
C138 C139 1.336 . S
C139 C135 1.394 . S
C139 C138 1.336 . S
C139 H154 0.929 . S
C140 C130 1.386 . S
C140 C133 1.357 . S
C140 H153 0.928 . S
H141 C117 0.931 . S
H142 C119 0.930 . S
H143 C121 0.929 . S
H144 C122 0.931 . S
H145 C124 0.930 . S
H146 C128 0.931 . S
H147 C126 0.931 . S
H148 C130 0.931 . S
H149 C131 0.929 . S
H150 C132 0.930 . S
H151 C135 0.930 . S
H152 C136 0.931 . S
H153 C140 0.928 . S
H154 C139 0.929 . S
H155 C137 0.932 . S
C156 C157 1.386 . S
C156 C158 1.397 . S
C156 H180 0.931 . S
C157 C156 1.386 . S
C157 C161 1.397 . S
C158 C156 1.397 . S
C158 C159 1.384 . S
C158 H181 0.930 . S
C159 C158 1.384 . S
C159 C160 1.377 . S
C159 C162 1.481 . S
C160 C159 1.377 . S
C160 C161 1.389 . S
C160 H182 0.929 . S
C161 C157 1.397 . S
C161 C160 1.389 . S
C161 H183 0.931 . S
C162 C159 1.481 . S
C162 C163 1.387 . S
C162 C167 1.390 . S
C163 C162 1.387 . S
C163 C164 1.401 . S
C163 H184 0.930 . S
C164 C163 1.401 . S
C164 C165 1.376 . S
C164 C173 1.511 . S
C165 C164 1.376 . S
C165 C166 1.392 . S
C165 H186 0.931 . S
C166 C165 1.392 . S
C166 C167 1.361 . S
C166 C168 1.500 . S
C167 C162 1.390 . S
C167 C166 1.361 . S
C167 H185 0.931 . S
C168 C166 1.500 . S
C168 C169 1.371 . S
C168 C170 1.365 . S
C169 C168 1.371 . S
C169 C179 1.386 . S
C169 H187 0.931 . S
C170 C168 1.365 . S
C170 C171 1.409 . S
C170 H188 0.929 . S
C171 C170 1.409 . S
C171 C172 1.380 . S
C171 H189 0.930 . S
C172 C171 1.380 . S
C172 C179 1.357 . S
C173 C164 1.511 . S
C173 C174 1.341 . S
C173 C175 1.371 . S
C174 C173 1.341 . S
C174 C178 1.394 . S
C174 H190 0.930 . S
C175 C173 1.371 . S
C175 C176 1.392 . S
C175 H191 0.931 . S
C176 C175 1.392 . S
C176 C177 1.331 . S
C176 H194 0.932 . S
C177 C176 1.331 . S
C177 C178 1.336 . S
C178 C174 1.394 . S
C178 C177 1.336 . S
C178 H193 0.929 . S
C179 C169 1.386 . S
C179 C172 1.357 . S
C179 H192 0.928 . S
H180 C156 0.931 . S
H181 C158 0.930 . S
H182 C160 0.929 . S
H183 C161 0.931 . S
H184 C163 0.930 . S
H185 C167 0.931 . S
H186 C165 0.931 . S
H187 C169 0.931 . S
H188 C170 0.929 . S
H189 C171 0.930 . S
H190 C174 0.930 . S
H191 C175 0.931 . S
H192 C179 0.928 . S
H193 C178 0.929 . S
H194 C176 0.932 . S
C195 C196 1.386 . S
C195 C197 1.397 . S
C195 H219 0.931 . S
C196 C195 1.386 . S
C196 C200 1.397 . S
C197 C195 1.397 . S
C197 C198 1.384 . S
C197 H220 0.930 . S
C198 C197 1.384 . S
C198 C199 1.377 . S
C198 C201 1.481 . S
C199 C198 1.377 . S
C199 C200 1.389 . S
C199 H221 0.929 . S
C200 C196 1.397 . S
C200 C199 1.389 . S
C200 H222 0.931 . S
C201 C198 1.481 . S
C201 C202 1.387 . S
C201 C206 1.390 . S
C202 C201 1.387 . S
C202 C203 1.401 . S
C202 H223 0.930 . S
C203 C202 1.401 . S
C203 C204 1.376 . S
C203 C212 1.511 . S
C204 C203 1.376 . S
C204 C205 1.392 . S
C204 H225 0.931 . S
C205 C204 1.392 . S
C205 C206 1.361 . S
C205 C207 1.500 . S
C206 C201 1.390 . S
C206 C205 1.361 . S
C206 H224 0.931 . S
C207 C205 1.500 . S
C207 C208 1.371 . S
C207 C209 1.365 . S
C208 C207 1.371 . S
C208 C218 1.386 . S
C208 H226 0.931 . S
C209 C207 1.365 . S
C209 C210 1.409 . S
C209 H227 0.929 . S
C210 C209 1.409 . S
C210 C211 1.380 . S
C210 H228 0.930 . S
C211 C210 1.380 . S
C211 C218 1.357 . S
C212 C203 1.511 . S
C212 C213 1.341 . S
C212 C214 1.371 . S
C213 C212 1.341 . S
C213 C217 1.394 . S
C213 H229 0.930 . S
C214 C212 1.371 . S
C214 C215 1.392 . S
C214 H230 0.931 . S
C215 C214 1.392 . S
C215 C216 1.331 . S
C215 H233 0.932 . S
C216 C215 1.331 . S
C216 C217 1.336 . S
C217 C213 1.394 . S
C217 C216 1.336 . S
C217 H232 0.929 . S
C218 C208 1.386 . S
C218 C211 1.357 . S
C218 H231 0.928 . S
H219 C195 0.931 . S
H220 C197 0.930 . S
H221 C199 0.929 . S
H222 C200 0.931 . S
H223 C202 0.930 . S
H224 C206 0.931 . S
H225 C204 0.931 . S
H226 C208 0.931 . S
H227 C209 0.929 . S
H228 C210 0.930 . S
H229 C213 0.930 . S
H230 C214 0.931 . S
H231 C218 0.928 . S
H232 C217 0.929 . S
H233 C215 0.932 . S
C234 C235 1.386 . S
C234 C236 1.397 . S
C234 H258 0.931 . S
C235 C234 1.386 . S
C235 C239 1.397 . S
C236 C234 1.397 . S
C236 C237 1.384 . S
C236 H259 0.930 . S
C237 C236 1.384 . S
C237 C238 1.377 . S
C237 C240 1.481 . S
C238 C237 1.377 . S
C238 C239 1.389 . S
C238 H260 0.929 . S
C239 C235 1.397 . S
C239 C238 1.389 . S
C239 H261 0.931 . S
C240 C237 1.481 . S
C240 C241 1.387 . S
C240 C245 1.390 . S
C241 C240 1.387 . S
C241 C242 1.401 . S
C241 H262 0.930 . S
C242 C241 1.401 . S
C242 C243 1.376 . S
C242 C251 1.511 . S
C243 C242 1.376 . S
C243 C244 1.392 . S
C243 H264 0.931 . S
C244 C243 1.392 . S
C244 C245 1.361 . S
C244 C246 1.500 . S
C245 C240 1.390 . S
C245 C244 1.361 . S
C245 H263 0.931 . S
C246 C244 1.500 . S
C246 C247 1.371 . S
C246 C248 1.365 . S
C247 C246 1.371 . S
C247 C257 1.386 . S
C247 H265 0.931 . S
C248 C246 1.365 . S
C248 C249 1.409 . S
C248 H266 0.929 . S
C249 C248 1.409 . S
C249 C250 1.380 . S
C249 H267 0.930 . S
C250 C249 1.380 . S
C250 C257 1.357 . S
C251 C242 1.511 . S
C251 C252 1.341 . S
C251 C253 1.371 . S
C252 C251 1.341 . S
C252 C256 1.394 . S
C252 H268 0.930 . S
C253 C251 1.371 . S
C253 C254 1.392 . S
C253 H269 0.931 . S
C254 C253 1.392 . S
C254 C255 1.331 . S
C254 H272 0.932 . S
C255 C254 1.331 . S
C255 C256 1.336 . S
C256 C252 1.394 . S
C256 C255 1.336 . S
C256 H271 0.929 . S
C257 C247 1.386 . S
C257 C250 1.357 . S
C257 H270 0.928 . S
H258 C234 0.931 . S
H259 C236 0.930 . S
H260 C238 0.929 . S
H261 C239 0.931 . S
H262 C241 0.930 . S
H263 C245 0.931 . S
H264 C243 0.931 . S
H265 C247 0.931 . S
H266 C248 0.929 . S
H267 C249 0.930 . S
H268 C252 0.930 . S
H269 C253 0.931 . S
H270 C257 0.928 . S
H271 C256 0.929 . S
H272 C254 0.932 . S
C273 C274 1.386 . S
C273 C275 1.397 . S
C273 H297 0.931 . S
C274 C273 1.386 . S
C274 C278 1.397 . S
C275 C273 1.397 . S
C275 C276 1.384 . S
C275 H298 0.930 . S
C276 C275 1.384 . S
C276 C277 1.377 . S
C276 C279 1.481 . S
C277 C276 1.377 . S
C277 C278 1.389 . S
C277 H299 0.929 . S
C278 C274 1.397 . S
C278 C277 1.389 . S
C278 H300 0.931 . S
C279 C276 1.481 . S
C279 C280 1.387 . S
C279 C284 1.390 . S
C280 C279 1.387 . S
C280 C281 1.401 . S
C280 H301 0.930 . S
C281 C280 1.401 . S
C281 C282 1.376 . S
C281 C290 1.511 . S
C282 C281 1.376 . S
C282 C283 1.392 . S
C282 H303 0.931 . S
C283 C282 1.392 . S
C283 C284 1.361 . S
C283 C285 1.500 . S
C284 C279 1.390 . S
C284 C283 1.361 . S
C284 H302 0.931 . S
C285 C283 1.500 . S
C285 C286 1.371 . S
C285 C287 1.365 . S
C286 C285 1.371 . S
C286 C296 1.386 . S
C286 H304 0.931 . S
C287 C285 1.365 . S
C287 C288 1.409 . S
C287 H305 0.929 . S
C288 C287 1.409 . S
C288 C289 1.380 . S
C288 H306 0.930 . S
C289 C288 1.380 . S
C289 C296 1.357 . S
C290 C281 1.511 . S
C290 C291 1.341 . S
C290 C292 1.371 . S
C291 C290 1.341 . S
C291 C295 1.394 . S
C291 H307 0.930 . S
C292 C290 1.371 . S
C292 C293 1.392 . S
C292 H308 0.931 . S
C293 C292 1.392 . S
C293 C294 1.331 . S
C293 H311 0.932 . S
C294 C293 1.331 . S
C294 C295 1.336 . S
C295 C291 1.394 . S
C295 C294 1.336 . S
C295 H310 0.929 . S
C296 C286 1.386 . S
C296 C289 1.357 . S
C296 H309 0.928 . S
H297 C273 0.931 . S
H298 C275 0.930 . S
H299 C277 0.929 . S
H300 C278 0.931 . S
H301 C280 0.930 . S
H302 C284 0.931 . S
H303 C282 0.931 . S
H304 C286 0.931 . S
H305 C287 0.929 . S
H306 C288 0.930 . S
H307 C291 0.930 . S
H308 C292 0.931 . S
H309 C296 0.928 . S
H310 C295 0.929 . S
H311 C293 0.932 . S
C312 C313 1.386 . S
C312 C314 1.397 . S
C312 H336 0.931 . S
C313 C312 1.386 . S
C313 C317 1.397 . S
C314 C312 1.397 . S
C314 C315 1.384 . S
C314 H337 0.930 . S
C315 C314 1.384 . S
C315 C316 1.377 . S
C315 C318 1.481 . S
C316 C315 1.377 . S
C316 C317 1.389 . S
C316 H338 0.929 . S
C317 C313 1.397 . S
C317 C316 1.389 . S
C317 H339 0.931 . S
C318 C315 1.481 . S
C318 C319 1.387 . S
C318 C323 1.390 . S
C319 C318 1.387 . S
C319 C320 1.401 . S
C319 H340 0.930 . S
C320 C319 1.401 . S
C320 C321 1.376 . S
C320 C329 1.511 . S
C321 C320 1.376 . S
C321 C322 1.392 . S
C321 H342 0.931 . S
C322 C321 1.392 . S
C322 C323 1.361 . S
C322 C324 1.500 . S
C323 C318 1.390 . S
C323 C322 1.361 . S
C323 H341 0.931 . S
C324 C322 1.500 . S
C324 C325 1.371 . S
C324 C326 1.365 . S
C325 C324 1.371 . S
C325 C335 1.386 . S
C325 H343 0.931 . S
C326 C324 1.365 . S
C326 C327 1.409 . S
C326 H344 0.929 . S
C327 C326 1.409 . S
C327 C328 1.380 . S
C327 H345 0.930 . S
C328 C327 1.380 . S
C328 C335 1.357 . S
C329 C320 1.511 . S
C329 C330 1.341 . S
C329 C331 1.371 . S
C330 C329 1.341 . S
C330 C334 1.394 . S
C330 H346 0.930 . S
C331 C329 1.371 . S
C331 C332 1.392 . S
C331 H347 0.931 . S
C332 C331 1.392 . S
C332 C333 1.331 . S
C332 H350 0.932 . S
C333 C332 1.331 . S
C333 C334 1.336 . S
C334 C330 1.394 . S
C334 C333 1.336 . S
C334 H349 0.929 . S
C335 C325 1.386 . S
C335 C328 1.357 . S
C335 H348 0.928 . S
H336 C312 0.931 . S
H337 C314 0.930 . S
H338 C316 0.929 . S
H339 C317 0.931 . S
H340 C319 0.930 . S
H341 C323 0.931 . S
H342 C321 0.931 . S
H343 C325 0.931 . S
H344 C326 0.929 . S
H345 C327 0.930 . S
H346 C330 0.930 . S
H347 C331 0.931 . S
H348 C335 0.928 . S
H349 C334 0.929 . S
H350 C332 0.932 . S
C351 C352 1.386 . S
C351 C353 1.397 . S
C351 H375 0.931 . S
C352 C351 1.386 . S
C352 C356 1.397 . S
C353 C351 1.397 . S
C353 C354 1.384 . S
C353 H376 0.930 . S
C354 C353 1.384 . S
C354 C355 1.377 . S
C354 C357 1.481 . S
C355 C354 1.377 . S
C355 C356 1.389 . S
C355 H377 0.929 . S
C356 C352 1.397 . S
C356 C355 1.389 . S
C356 H378 0.931 . S
C357 C354 1.481 . S
C357 C358 1.387 . S
C357 C362 1.390 . S
C358 C357 1.387 . S
C358 C359 1.401 . S
C358 H379 0.930 . S
C359 C358 1.401 . S
C359 C360 1.376 . S
C359 C368 1.511 . S
C360 C359 1.376 . S
C360 C361 1.392 . S
C360 H381 0.931 . S
C361 C360 1.392 . S
C361 C362 1.361 . S
C361 C363 1.500 . S
C362 C357 1.390 . S
C362 C361 1.361 . S
C362 H380 0.931 . S
C363 C361 1.500 . S
C363 C364 1.371 . S
C363 C365 1.365 . S
C364 C363 1.371 . S
C364 C374 1.386 . S
C364 H382 0.931 . S
C365 C363 1.365 . S
C365 C366 1.409 . S
C365 H383 0.929 . S
C366 C365 1.409 . S
C366 C367 1.380 . S
C366 H384 0.930 . S
C367 C366 1.380 . S
C367 C374 1.357 . S
C368 C359 1.511 . S
C368 C369 1.341 . S
C368 C370 1.371 . S
C369 C368 1.341 . S
C369 C373 1.394 . S
C369 H385 0.930 . S
C370 C368 1.371 . S
C370 C371 1.392 . S
C370 H386 0.931 . S
C371 C370 1.392 . S
C371 C372 1.331 . S
C371 H389 0.932 . S
C372 C371 1.331 . S
C372 C373 1.336 . S
C373 C369 1.394 . S
C373 C372 1.336 . S
C373 H388 0.929 . S
C374 C364 1.386 . S
C374 C367 1.357 . S
C374 H387 0.928 . S
H375 C351 0.931 . S
H376 C353 0.930 . S
H377 C355 0.929 . S
H378 C356 0.931 . S
H379 C358 0.930 . S
H380 C362 0.931 . S
H381 C360 0.931 . S
H382 C364 0.931 . S
H383 C365 0.929 . S
H384 C366 0.930 . S
H385 C369 0.930 . S
H386 C370 0.931 . S
H387 C374 0.928 . S
H388 C373 0.929 . S
H389 C371 0.932 . S
C390 C391 1.386 . S
C390 C392 1.397 . S
C390 H414 0.931 . S
C391 C390 1.386 . S
C391 C395 1.397 . S
C392 C390 1.397 . S
C392 C393 1.384 . S
C392 H415 0.930 . S
C393 C392 1.384 . S
C393 C394 1.377 . S
C393 C396 1.481 . S
C394 C393 1.377 . S
C394 C395 1.389 . S
C394 H416 0.929 . S
C395 C391 1.397 . S
C395 C394 1.389 . S
C395 H417 0.931 . S
C396 C393 1.481 . S
C396 C397 1.387 . S
C396 C401 1.390 . S
C397 C396 1.387 . S
C397 C398 1.401 . S
C397 H418 0.930 . S
C398 C397 1.401 . S
C398 C399 1.376 . S
C398 C407 1.511 . S
C399 C398 1.376 . S
C399 C400 1.392 . S
C399 H420 0.931 . S
C400 C399 1.392 . S
C400 C401 1.361 . S
C400 C402 1.500 . S
C401 C396 1.390 . S
C401 C400 1.361 . S
C401 H419 0.931 . S
C402 C400 1.500 . S
C402 C403 1.371 . S
C402 C404 1.365 . S
C403 C402 1.371 . S
C403 C413 1.386 . S
C403 H421 0.931 . S
C404 C402 1.365 . S
C404 C405 1.409 . S
C404 H422 0.929 . S
C405 C404 1.409 . S
C405 C406 1.380 . S
C405 H423 0.930 . S
C406 C405 1.380 . S
C406 C413 1.357 . S
C407 C398 1.511 . S
C407 C408 1.341 . S
C407 C409 1.371 . S
C408 C407 1.341 . S
C408 C412 1.394 . S
C408 H424 0.930 . S
C409 C407 1.371 . S
C409 C410 1.392 . S
C409 H425 0.931 . S
C410 C409 1.392 . S
C410 C411 1.331 . S
C410 H428 0.932 . S
C411 C410 1.331 . S
C411 C412 1.336 . S
C412 C408 1.394 . S
C412 C411 1.336 . S
C412 H427 0.929 . S
C413 C403 1.386 . S
C413 C406 1.357 . S
C413 H426 0.928 . S
H414 C390 0.931 . S
H415 C392 0.930 . S
H416 C394 0.929 . S
H417 C395 0.931 . S
H418 C397 0.930 . S
H419 C401 0.931 . S
H420 C399 0.931 . S
H421 C403 0.931 . S
H422 C404 0.929 . S
H423 C405 0.930 . S
H424 C408 0.930 . S
H425 C409 0.931 . S
H426 C413 0.928 . S
H427 C412 0.929 . S
H428 C410 0.932 . S
C429 C430 1.386 . S
C429 C431 1.397 . S
C429 H453 0.931 . S
C430 C429 1.386 . S
C430 C434 1.397 . S
C431 C429 1.397 . S
C431 C432 1.384 . S
C431 H454 0.930 . S
C432 C431 1.384 . S
C432 C433 1.377 . S
C432 C435 1.481 . S
C433 C432 1.377 . S
C433 C434 1.389 . S
C433 H455 0.929 . S
C434 C430 1.397 . S
C434 C433 1.389 . S
C434 H456 0.931 . S
C435 C432 1.481 . S
C435 C436 1.387 . S
C435 C440 1.390 . S
C436 C435 1.387 . S
C436 C437 1.401 . S
C436 H457 0.930 . S
C437 C436 1.401 . S
C437 C438 1.376 . S
C437 C446 1.511 . S
C438 C437 1.376 . S
C438 C439 1.392 . S
C438 H459 0.931 . S
C439 C438 1.392 . S
C439 C440 1.361 . S
C439 C441 1.500 . S
C440 C435 1.390 . S
C440 C439 1.361 . S
C440 H458 0.931 . S
C441 C439 1.500 . S
C441 C442 1.371 . S
C441 C443 1.365 . S
C442 C441 1.371 . S
C442 C452 1.386 . S
C442 H460 0.931 . S
C443 C441 1.365 . S
C443 C444 1.409 . S
C443 H461 0.929 . S
C444 C443 1.409 . S
C444 C445 1.380 . S
C444 H462 0.930 . S
C445 C444 1.380 . S
C445 C452 1.357 . S
C446 C437 1.511 . S
C446 C447 1.341 . S
C446 C448 1.371 . S
C447 C446 1.341 . S
C447 C451 1.394 . S
C447 H463 0.930 . S
C448 C446 1.371 . S
C448 C449 1.392 . S
C448 H464 0.931 . S
C449 C448 1.392 . S
C449 C450 1.331 . S
C449 H467 0.932 . S
C450 C449 1.331 . S
C450 C451 1.336 . S
C451 C447 1.394 . S
C451 C450 1.336 . S
C451 H466 0.929 . S
C452 C442 1.386 . S
C452 C445 1.357 . S
C452 H465 0.928 . S
H453 C429 0.931 . S
H454 C431 0.930 . S
H455 C433 0.929 . S
H456 C434 0.931 . S
H457 C436 0.930 . S
H458 C440 0.931 . S
H459 C438 0.931 . S
H460 C442 0.931 . S
H461 C443 0.929 . S
H462 C444 0.930 . S
H463 C447 0.930 . S
H464 C448 0.931 . S
H465 C452 0.928 . S
H466 C451 0.929 . S
H467 C449 0.932 . S
C468 C469 1.386 . S
C468 C470 1.397 . S
C468 H492 0.931 . S
C469 C468 1.386 . S
C469 C473 1.397 . S
C470 C468 1.397 . S
C470 C471 1.384 . S
C470 H493 0.930 . S
C471 C470 1.384 . S
C471 C472 1.377 . S
C471 C474 1.481 . S
C472 C471 1.377 . S
C472 C473 1.389 . S
C472 H494 0.929 . S
C473 C469 1.397 . S
C473 C472 1.389 . S
C473 H495 0.931 . S
C474 C471 1.481 . S
C474 C475 1.387 . S
C474 C479 1.390 . S
C475 C474 1.387 . S
C475 C476 1.401 . S
C475 H496 0.930 . S
C476 C475 1.401 . S
C476 C477 1.376 . S
C476 C485 1.511 . S
C477 C476 1.376 . S
C477 C478 1.392 . S
C477 H498 0.931 . S
C478 C477 1.392 . S
C478 C479 1.361 . S
C478 C480 1.500 . S
C479 C474 1.390 . S
C479 C478 1.361 . S
C479 H497 0.931 . S
C480 C478 1.500 . S
C480 C481 1.371 . S
C480 C482 1.365 . S
C481 C480 1.371 . S
C481 C491 1.386 . S
C481 H499 0.931 . S
C482 C480 1.365 . S
C482 C483 1.409 . S
C482 H500 0.929 . S
C483 C482 1.409 . S
C483 C484 1.380 . S
C483 H501 0.930 . S
C484 C483 1.380 . S
C484 C491 1.357 . S
C485 C476 1.511 . S
C485 C486 1.341 . S
C485 C487 1.371 . S
C486 C485 1.341 . S
C486 C490 1.394 . S
C486 H502 0.930 . S
C487 C485 1.371 . S
C487 C488 1.392 . S
C487 H503 0.931 . S
C488 C487 1.392 . S
C488 C489 1.331 . S
C488 H506 0.932 . S
C489 C488 1.331 . S
C489 C490 1.336 . S
C490 C486 1.394 . S
C490 C489 1.336 . S
C490 H505 0.929 . S
C491 C481 1.386 . S
C491 C484 1.357 . S
C491 H504 0.928 . S
H492 C468 0.931 . S
H493 C470 0.930 . S
H494 C472 0.929 . S
H495 C473 0.931 . S
H496 C475 0.930 . S
H497 C479 0.931 . S
H498 C477 0.931 . S
H499 C481 0.931 . S
H500 C482 0.929 . S
H501 C483 0.930 . S
H502 C486 0.930 . S
H503 C487 0.931 . S
H504 C491 0.928 . S
H505 C490 0.929 . S
H506 C488 0.932 . S
C507 C508 1.386 . S
C507 C509 1.397 . S
C507 H531 0.931 . S
C508 C507 1.386 . S
C508 C512 1.397 . S
C509 C507 1.397 . S
C509 C510 1.384 . S
C509 H532 0.930 . S
C510 C509 1.384 . S
C510 C511 1.377 . S
C510 C513 1.481 . S
C511 C510 1.377 . S
C511 C512 1.389 . S
C511 H533 0.929 . S
C512 C508 1.397 . S
C512 C511 1.389 . S
C512 H534 0.931 . S
C513 C510 1.481 . S
C513 C514 1.387 . S
C513 C518 1.390 . S
C514 C513 1.387 . S
C514 C515 1.401 . S
C514 H535 0.930 . S
C515 C514 1.401 . S
C515 C516 1.376 . S
C515 C524 1.511 . S
C516 C515 1.376 . S
C516 C517 1.392 . S
C516 H537 0.931 . S
C517 C516 1.392 . S
C517 C518 1.361 . S
C517 C519 1.500 . S
C518 C513 1.390 . S
C518 C517 1.361 . S
C518 H536 0.931 . S
C519 C517 1.500 . S
C519 C520 1.371 . S
C519 C521 1.365 . S
C520 C519 1.371 . S
C520 C530 1.386 . S
C520 H538 0.931 . S
C521 C519 1.365 . S
C521 C522 1.409 . S
C521 H539 0.929 . S
C522 C521 1.409 . S
C522 C523 1.380 . S
C522 H540 0.930 . S
C523 C522 1.380 . S
C523 C530 1.357 . S
C524 C515 1.511 . S
C524 C525 1.341 . S
C524 C526 1.371 . S
C525 C524 1.341 . S
C525 C529 1.394 . S
C525 H541 0.930 . S
C526 C524 1.371 . S
C526 C527 1.392 . S
C526 H542 0.931 . S
C527 C526 1.392 . S
C527 C528 1.331 . S
C527 H545 0.932 . S
C528 C527 1.331 . S
C528 C529 1.336 . S
C529 C525 1.394 . S
C529 C528 1.336 . S
C529 H544 0.929 . S
C530 C520 1.386 . S
C530 C523 1.357 . S
C530 H543 0.928 . S
H531 C507 0.931 . S
H532 C509 0.930 . S
H533 C511 0.929 . S
H534 C512 0.931 . S
H535 C514 0.930 . S
H536 C518 0.931 . S
H537 C516 0.931 . S
H538 C520 0.931 . S
H539 C521 0.929 . S
H540 C522 0.930 . S
H541 C525 0.930 . S
H542 C526 0.931 . S
H543 C530 0.928 . S
H544 C529 0.929 . S
H545 C527 0.932 . S
C546 C547 1.386 . S
C546 C548 1.397 . S
C546 H570 0.931 . S
C547 C546 1.386 . S
C547 C551 1.397 . S
C548 C546 1.397 . S
C548 C549 1.384 . S
C548 H571 0.930 . S
C549 C548 1.384 . S
C549 C550 1.377 . S
C549 C552 1.481 . S
C550 C549 1.377 . S
C550 C551 1.389 . S
C550 H572 0.929 . S
C551 C547 1.397 . S
C551 C550 1.389 . S
C551 H573 0.931 . S
C552 C549 1.481 . S
C552 C553 1.387 . S
C552 C557 1.390 . S
C553 C552 1.387 . S
C553 C554 1.401 . S
C553 H574 0.930 . S
C554 C553 1.401 . S
C554 C555 1.376 . S
C554 C563 1.511 . S
C555 C554 1.376 . S
C555 C556 1.392 . S
C555 H576 0.931 . S
C556 C555 1.392 . S
C556 C557 1.361 . S
C556 C558 1.500 . S
C557 C552 1.390 . S
C557 C556 1.361 . S
C557 H575 0.931 . S
C558 C556 1.500 . S
C558 C559 1.371 . S
C558 C560 1.365 . S
C559 C558 1.371 . S
C559 C569 1.386 . S
C559 H577 0.931 . S
C560 C558 1.365 . S
C560 C561 1.409 . S
C560 H578 0.929 . S
C561 C560 1.409 . S
C561 C562 1.380 . S
C561 H579 0.930 . S
C562 C561 1.380 . S
C562 C569 1.357 . S
C563 C554 1.511 . S
C563 C564 1.341 . S
C563 C565 1.371 . S
C564 C563 1.341 . S
C564 C568 1.394 . S
C564 H580 0.930 . S
C565 C563 1.371 . S
C565 C566 1.392 . S
C565 H581 0.931 . S
C566 C565 1.392 . S
C566 C567 1.331 . S
C566 H584 0.932 . S
C567 C566 1.331 . S
C567 C568 1.336 . S
C568 C564 1.394 . S
C568 C567 1.336 . S
C568 H583 0.929 . S
C569 C559 1.386 . S
C569 C562 1.357 . S
C569 H582 0.928 . S
H570 C546 0.931 . S
H571 C548 0.930 . S
H572 C550 0.929 . S
H573 C551 0.931 . S
H574 C553 0.930 . S
H575 C557 0.931 . S
H576 C555 0.931 . S
H577 C559 0.931 . S
H578 C560 0.929 . S
H579 C561 0.930 . S
H580 C564 0.930 . S
H581 C565 0.931 . S
H582 C569 0.928 . S
H583 C568 0.929 . S
H584 C566 0.932 . S
C585 C586 1.386 . S
C585 C587 1.397 . S
C585 H609 0.931 . S
C586 C585 1.386 . S
C586 C590 1.397 . S
C587 C585 1.397 . S
C587 C588 1.384 . S
C587 H610 0.930 . S
C588 C587 1.384 . S
C588 C589 1.377 . S
C588 C591 1.481 . S
C589 C588 1.377 . S
C589 C590 1.389 . S
C589 H611 0.929 . S
C590 C586 1.397 . S
C590 C589 1.389 . S
C590 H612 0.931 . S
C591 C588 1.481 . S
C591 C592 1.387 . S
C591 C596 1.390 . S
C592 C591 1.387 . S
C592 C593 1.401 . S
C592 H613 0.930 . S
C593 C592 1.401 . S
C593 C594 1.376 . S
C593 C602 1.511 . S
C594 C593 1.376 . S
C594 C595 1.392 . S
C594 H615 0.931 . S
C595 C594 1.392 . S
C595 C596 1.361 . S
C595 C597 1.500 . S
C596 C591 1.390 . S
C596 C595 1.361 . S
C596 H614 0.931 . S
C597 C595 1.500 . S
C597 C598 1.371 . S
C597 C599 1.365 . S
C598 C597 1.371 . S
C598 C608 1.386 . S
C598 H616 0.931 . S
C599 C597 1.365 . S
C599 C600 1.409 . S
C599 H617 0.929 . S
C600 C599 1.409 . S
C600 C601 1.380 . S
C600 H618 0.930 . S
C601 C600 1.380 . S
C601 C608 1.357 . S
C602 C593 1.511 . S
C602 C603 1.341 . S
C602 C604 1.371 . S
C603 C602 1.341 . S
C603 C607 1.394 . S
C603 H619 0.930 . S
C604 C602 1.371 . S
C604 C605 1.392 . S
C604 H620 0.931 . S
C605 C604 1.392 . S
C605 C606 1.331 . S
C605 H623 0.932 . S
C606 C605 1.331 . S
C606 C607 1.336 . S
C607 C603 1.394 . S
C607 C606 1.336 . S
C607 H622 0.929 . S
C608 C598 1.386 . S
C608 C601 1.357 . S
C608 H621 0.928 . S
H609 C585 0.931 . S
H610 C587 0.930 . S
H611 C589 0.929 . S
H612 C590 0.931 . S
H613 C592 0.930 . S
H614 C596 0.931 . S
H615 C594 0.931 . S
H616 C598 0.931 . S
H617 C599 0.929 . S
H618 C600 0.930 . S
H619 C603 0.930 . S
H620 C604 0.931 . S
H621 C608 0.928 . S
H622 C607 0.929 . S
H623 C605 0.932 . S
C624 C625 1.386 . S
C624 C626 1.397 . S
C624 H648 0.931 . S
C625 C624 1.386 . S
C625 C629 1.397 . S
C626 C624 1.397 . S
C626 C627 1.384 . S
C626 H649 0.930 . S
C627 C626 1.384 . S
C627 C628 1.377 . S
C627 C630 1.481 . S
C628 C627 1.377 . S
C628 C629 1.389 . S
C628 H650 0.929 . S
C629 C625 1.397 . S
C629 C628 1.389 . S
C629 H651 0.931 . S
C630 C627 1.481 . S
C630 C631 1.387 . S
C630 C635 1.390 . S
C631 C630 1.387 . S
C631 C632 1.401 . S
C631 H652 0.930 . S
C632 C631 1.401 . S
C632 C633 1.376 . S
C632 C641 1.511 . S
C633 C632 1.376 . S
C633 C634 1.392 . S
C633 H654 0.931 . S
C634 C633 1.392 . S
C634 C635 1.361 . S
C634 C636 1.500 . S
C635 C630 1.390 . S
C635 C634 1.361 . S
C635 H653 0.931 . S
C636 C634 1.500 . S
C636 C637 1.371 . S
C636 C638 1.365 . S
C637 C636 1.371 . S
C637 C647 1.386 . S
C637 H655 0.931 . S
C638 C636 1.365 . S
C638 C639 1.409 . S
C638 H656 0.929 . S
C639 C638 1.409 . S
C639 C640 1.380 . S
C639 H657 0.930 . S
C640 C639 1.380 . S
C640 C647 1.357 . S
C641 C632 1.511 . S
C641 C642 1.341 . S
C641 C643 1.371 . S
C642 C641 1.341 . S
C642 C646 1.394 . S
C642 H658 0.930 . S
C643 C641 1.371 . S
C643 C644 1.392 . S
C643 H659 0.931 . S
C644 C643 1.392 . S
C644 C645 1.331 . S
C644 H662 0.932 . S
C645 C644 1.331 . S
C645 C646 1.336 . S
C646 C642 1.394 . S
C646 C645 1.336 . S
C646 H661 0.929 . S
C647 C637 1.386 . S
C647 C640 1.357 . S
C647 H660 0.928 . S
H648 C624 0.931 . S
H649 C626 0.930 . S
H650 C628 0.929 . S
H651 C629 0.931 . S
H652 C631 0.930 . S
H653 C635 0.931 . S
H654 C633 0.931 . S
H655 C637 0.931 . S
H656 C638 0.929 . S
H657 C639 0.930 . S
H658 C642 0.930 . S
H659 C643 0.931 . S
H660 C647 0.928 . S
H661 C646 0.929 . S
H662 C644 0.932 . S
C663 C664 1.386 . S
C663 C665 1.397 . S
C663 H687 0.931 . S
C664 C663 1.386 . S
C664 C668 1.397 . S
C665 C663 1.397 . S
C665 C666 1.384 . S
C665 H688 0.930 . S
C666 C665 1.384 . S
C666 C667 1.377 . S
C666 C669 1.481 . S
C667 C666 1.377 . S
C667 C668 1.389 . S
C667 H689 0.929 . S
C668 C664 1.397 . S
C668 C667 1.389 . S
C668 H690 0.931 . S
C669 C666 1.481 . S
C669 C670 1.387 . S
C669 C674 1.390 . S
C670 C669 1.387 . S
C670 C671 1.401 . S
C670 H691 0.930 . S
C671 C670 1.401 . S
C671 C672 1.376 . S
C671 C680 1.511 . S
C672 C671 1.376 . S
C672 C673 1.392 . S
C672 H693 0.931 . S
C673 C672 1.392 . S
C673 C674 1.361 . S
C673 C675 1.500 . S
C674 C669 1.390 . S
C674 C673 1.361 . S
C674 H692 0.931 . S
C675 C673 1.500 . S
C675 C676 1.371 . S
C675 C677 1.365 . S
C676 C675 1.371 . S
C676 C686 1.386 . S
C676 H694 0.931 . S
C677 C675 1.365 . S
C677 C678 1.409 . S
C677 H695 0.929 . S
C678 C677 1.409 . S
C678 C679 1.380 . S
C678 H696 0.930 . S
C679 C678 1.380 . S
C679 C686 1.357 . S
C680 C671 1.511 . S
C680 C681 1.341 . S
C680 C682 1.371 . S
C681 C680 1.341 . S
C681 C685 1.394 . S
C681 H697 0.930 . S
C682 C680 1.371 . S
C682 C683 1.392 . S
C682 H698 0.931 . S
C683 C682 1.392 . S
C683 C684 1.331 . S
C683 H701 0.932 . S
C684 C683 1.331 . S
C684 C685 1.336 . S
C685 C681 1.394 . S
C685 C684 1.336 . S
C685 H700 0.929 . S
C686 C676 1.386 . S
C686 C679 1.357 . S
C686 H699 0.928 . S
H687 C663 0.931 . S
H688 C665 0.930 . S
H689 C667 0.929 . S
H690 C668 0.931 . S
H691 C670 0.930 . S
H692 C674 0.931 . S
H693 C672 0.931 . S
H694 C676 0.931 . S
H695 C677 0.929 . S
H696 C678 0.930 . S
H697 C681 0.930 . S
H698 C682 0.931 . S
H699 C686 0.928 . S
H700 C685 0.929 . S
H701 C683 0.932 . S
Tb702 O705 2.453 . S
Tb702 O706 2.596 1_545 S
Tb702 O707 2.374 1_545 S
Tb702 O715 2.343 1_554 S
Tb702 O717 2.353 . S
Tb702 O719 2.427 1_554 S
Tb702 O720 2.513 1_554 S
C703 O707 1.251 . S
C703 O709 1.260 1_554 S
Tb704 O706 2.343 1_556 S
Tb704 O709 2.355 . S
Tb704 O712 2.427 1_556 S
Tb704 O713 2.513 1_556 S
Tb704 O714 2.453 . S
Tb704 O715 2.596 1_565 S
Tb704 O716 2.374 1_565 S
O705 Tb702 2.453 . S
O705 C721 1.245 . S
O706 Tb702 2.596 1_565 S
O706 Tb704 2.343 1_554 S
O706 C721 1.259 1_565 S
O707 Tb702 2.374 1_565 S
O707 C703 1.251 . S
C708 O712 1.275 . S
C708 O713 1.246 . S
O709 C703 1.260 1_556 S
O709 Tb704 2.355 . S
C710 O714 1.247 . S
C710 O715 1.259 1_565 S
C711 O716 1.250 . S
C711 O717 1.263 1_556 S
O712 Tb704 2.427 1_554 S
O712 C708 1.275 . S
O713 Tb704 2.513 1_554 S
O713 C708 1.246 . S
O714 Tb704 2.453 . S
O714 C710 1.247 . S
O715 Tb702 2.343 1_556 S
O715 Tb704 2.596 1_545 S
O715 C710 1.259 1_545 S
O716 Tb704 2.374 1_545 S
O716 C711 1.250 . S
O717 Tb702 2.353 . S
O717 C711 1.263 1_554 S
C718 O719 1.275 . S
C718 O720 1.246 . S
O719 Tb702 2.427 1_556 S
O719 C718 1.275 . S
O720 Tb702 2.513 1_556 S
O720 C718 1.246 . S
C721 O705 1.245 . S
C721 O706 1.259 1_545 S
Tb722 O725 2.453 . S
Tb722 O726 2.596 1_655 S
Tb722 O727 2.374 1_655 S
Tb722 O735 2.343 1_554 S
Tb722 O737 2.353 . S
Tb722 O739 2.427 1_554 S
Tb722 O740 2.513 1_554 S
C723 O727 1.251 . S
C723 O729 1.263 . S
Tb724 O726 2.343 1_556 S
Tb724 O729 2.353 1_556 S
Tb724 O732 2.427 1_556 S
Tb724 O733 2.513 1_556 S
Tb724 O734 2.453 . S
Tb724 O735 2.596 1_455 S
Tb724 O736 2.374 1_455 S
O725 Tb722 2.453 . S
O725 C741 1.245 1_655 S
O726 Tb722 2.596 1_455 S
O726 Tb724 2.343 1_554 S
O726 C741 1.259 . S
O727 Tb722 2.374 1_455 S
O727 C723 1.251 . S
C728 O732 1.275 . S
C728 O733 1.246 . S
O729 C723 1.263 . S
O729 Tb724 2.353 1_554 S
C730 O734 1.277 . S
C730 O735 1.248 1_455 S
C731 O736 1.250 . S
C731 O737 1.263 1_556 S
O732 Tb724 2.427 1_554 S
O732 C728 1.275 . S
O733 Tb724 2.513 1_554 S
O733 C728 1.246 . S
O734 Tb724 2.453 . S
O734 C730 1.277 . S
O735 Tb722 2.343 1_556 S
O735 Tb724 2.596 1_655 S
O735 C730 1.248 1_655 S
O736 Tb724 2.374 1_655 S
O736 C731 1.250 . S
O737 Tb722 2.353 . S
O737 C731 1.263 1_554 S
C738 O739 1.275 . S
C738 O740 1.246 . S
O739 Tb722 2.427 1_556 S
O739 C738 1.275 . S
O740 Tb722 2.513 1_556 S
O740 C738 1.246 . S
C741 O725 1.245 1_455 S
C741 O726 1.259 . S
Tb742 O745 2.453 . S
Tb742 O746 2.596 . S
Tb742 O747 2.374 . S
Tb742 O755 2.343 1_556 S
Tb742 O757 2.353 1_556 S
Tb742 O759 2.427 1_556 S
Tb742 O760 2.513 1_556 S
C743 O747 1.251 . S
C743 O749 1.263 1_556 S
Tb744 O746 2.343 1_554 S
Tb744 O749 2.353 . S
Tb744 O752 2.427 1_554 S
Tb744 O753 2.513 1_554 S
Tb744 O754 2.453 . S
Tb744 O755 2.596 . S
Tb744 O756 2.374 . S
O745 Tb742 2.453 . S
O745 C761 1.245 . S
O746 Tb742 2.596 . S
O746 Tb744 2.343 1_556 S
O746 C761 1.259 . S
O747 Tb742 2.374 . S
O747 C743 1.251 . S
C748 O752 1.275 . S
C748 O753 1.246 . S
O749 C743 1.263 1_554 S
O749 Tb744 2.353 . S
C750 O754 1.245 . S
C750 O755 1.259 . S
C751 O756 1.250 . S
C751 O757 1.263 . S
O752 Tb744 2.427 1_556 S
O752 C748 1.275 . S
O753 Tb744 2.513 1_556 S
O753 C748 1.246 . S
O754 Tb744 2.453 . S
O754 C750 1.245 . S
O755 Tb742 2.343 1_554 S
O755 Tb744 2.596 . S
O755 C750 1.259 . S
O756 Tb744 2.374 . S
O756 C751 1.250 . S
O757 Tb742 2.353 1_554 S
O757 C751 1.263 . S
C758 O759 1.275 . S
C758 O760 1.246 . S
O759 Tb742 2.427 1_554 S
O759 C758 1.275 . S
O760 Tb742 2.513 1_554 S
O760 C758 1.246 . S
C761 O745 1.245 . S
C761 O746 1.259 . S
Tb762 O765 2.453 . S
Tb762 O766 2.596 . S
Tb762 O767 2.374 . S
Tb762 O775 2.343 . S
Tb762 O777 2.353 . S
Tb762 O779 2.427 . S
Tb762 O780 2.513 . S
C763 O767 1.251 . S
C763 O769 1.263 . S
Tb764 O766 2.343 . S
Tb764 O769 2.353 . S
Tb764 O772 2.427 . S
Tb764 O773 2.513 . S
Tb764 O774 2.453 . S
Tb764 O775 2.596 . S
Tb764 O776 2.374 . S
O765 Tb762 2.453 . S
O765 C781 1.245 . S
O766 Tb762 2.596 . S
O766 Tb764 2.343 . S
O766 C781 1.259 . S
O767 Tb762 2.374 . S
O767 C763 1.251 . S
C768 O772 1.275 . S
C768 O773 1.246 . S
O769 C763 1.263 . S
O769 Tb764 2.353 . S
C770 O774 1.245 . S
C770 O775 1.259 . S
C771 O776 1.250 . S
C771 O777 1.263 . S
O772 Tb764 2.427 . S
O772 C768 1.275 . S
O773 Tb764 2.513 . S
O773 C768 1.246 . S
O774 Tb764 2.453 . S
O774 C770 1.245 . S
O775 Tb762 2.343 . S
O775 Tb764 2.596 . S
O775 C770 1.259 . S
O776 Tb764 2.374 . S
O776 C771 1.250 . S
O777 Tb762 2.353 . S
O777 C771 1.263 . S
C778 O779 1.275 . S
C778 O780 1.246 . S
O779 Tb762 2.427 . S
O779 C778 1.275 . S
O780 Tb762 2.513 . S
O780 C778 1.246 . S
C781 O765 1.245 . S
C781 O766 1.259 . S
Tb782 O785 2.453 . S
Tb782 O786 2.596 . S
Tb782 O787 2.374 . S
Tb782 O795 2.343 . S
Tb782 O797 2.353 . S
Tb782 O799 2.427 . S
Tb782 O800 2.513 . S
C783 O787 1.251 . S
C783 O789 1.263 . S
Tb784 O786 2.343 . S
Tb784 O789 2.353 . S
Tb784 O792 2.427 . S
Tb784 O793 2.513 . S
Tb784 O794 2.453 . S
Tb784 O795 2.596 . S
Tb784 O796 2.374 . S
O785 Tb782 2.453 . S
O785 C801 1.245 . S
O786 Tb782 2.596 . S
O786 Tb784 2.343 . S
O786 C801 1.259 . S
O787 Tb782 2.374 . S
O787 C783 1.251 . S
C788 O792 1.275 . S
C788 O793 1.246 . S
O789 C783 1.263 . S
O789 Tb784 2.353 . S
C790 O794 1.245 . S
C790 O795 1.259 . S
C791 O796 1.250 . S
C791 O797 1.263 . S
O792 Tb784 2.427 . S
O792 C788 1.275 . S
O793 Tb784 2.513 . S
O793 C788 1.246 . S
O794 Tb784 2.453 . S
O794 C790 1.245 . S
O795 Tb782 2.343 . S
O795 Tb784 2.596 . S
O795 C790 1.259 . S
O796 Tb784 2.374 . S
O796 C791 1.250 . S
O797 Tb782 2.353 . S
O797 C791 1.263 . S
C798 O799 1.275 . S
C798 O800 1.246 . S
O799 Tb782 2.427 . S
O799 C798 1.275 . S
O800 Tb782 2.513 . S
O800 C798 1.246 . S
C801 O785 1.245 . S
C801 O786 1.259 . S
Tb802 O805 2.453 . S
Tb802 O806 2.596 . S
Tb802 O807 2.374 . S
Tb802 O815 2.343 . S
Tb802 O817 2.353 . S
Tb802 O819 2.427 . S
Tb802 O820 2.513 . S
C803 O807 1.251 . S
C803 O809 1.263 . S
Tb804 O806 2.343 . S
Tb804 O809 2.353 . S
Tb804 O812 2.427 . S
Tb804 O813 2.513 . S
Tb804 O814 2.453 . S
Tb804 O815 2.596 . S
Tb804 O816 2.374 . S
O805 Tb802 2.453 . S
O805 C821 1.245 . S
O806 Tb802 2.596 . S
O806 Tb804 2.343 . S
O806 C821 1.259 . S
O807 Tb802 2.374 . S
O807 C803 1.251 . S
C808 O812 1.275 . S
C808 O813 1.246 . S
O809 C803 1.263 . S
O809 Tb804 2.353 . S
C810 O814 1.245 . S
C810 O815 1.259 . S
C811 O816 1.250 . S
C811 O817 1.263 . S
O812 Tb804 2.427 . S
O812 C808 1.275 . S
O813 Tb804 2.513 . S
O813 C808 1.246 . S
O814 Tb804 2.453 . S
O814 C810 1.245 . S
O815 Tb802 2.343 . S
O815 Tb804 2.596 . S
O815 C810 1.259 . S
O816 Tb804 2.374 . S
O816 C811 1.250 . S
O817 Tb802 2.353 . S
O817 C811 1.263 . S
C818 O819 1.275 . S
C818 O820 1.246 . S
O819 Tb802 2.427 . S
O819 C818 1.275 . S
O820 Tb802 2.513 . S
O820 C818 1.246 . S
C821 O805 1.245 . S
C821 O806 1.259 . S
Tb822 O825 2.453 . S
Tb822 O826 2.596 . S
Tb822 O827 2.374 . S
Tb822 O835 2.343 . S
Tb822 O837 2.353 . S
Tb822 O839 2.427 . S
Tb822 O840 2.513 . S
C823 O827 1.251 . S
C823 O829 1.263 . S
Tb824 O826 2.343 . S
Tb824 O829 2.353 . S
Tb824 O832 2.427 . S
Tb824 O833 2.513 . S
Tb824 O834 2.453 . S
Tb824 O835 2.596 . S
Tb824 O836 2.374 . S
O825 Tb822 2.453 . S
O825 C841 1.245 . S
O826 Tb822 2.596 . S
O826 Tb824 2.343 . S
O826 C841 1.259 . S
O827 Tb822 2.374 . S
O827 C823 1.251 . S
C828 O832 1.275 . S
C828 O833 1.246 . S
O829 C823 1.263 . S
O829 Tb824 2.353 . S
C830 O834 1.245 . S
C830 O835 1.259 . S
C831 O836 1.250 . S
C831 O837 1.263 . S
O832 Tb824 2.427 . S
O832 C828 1.275 . S
O833 Tb824 2.513 . S
O833 C828 1.246 . S
O834 Tb824 2.453 . S
O834 C830 1.245 . S
O835 Tb822 2.343 . S
O835 Tb824 2.596 . S
O835 C830 1.259 . S
O836 Tb824 2.374 . S
O836 C831 1.250 . S
O837 Tb822 2.353 . S
O837 C831 1.263 . S
C838 O839 1.275 . S
C838 O840 1.246 . S
O839 Tb822 2.427 . S
O839 C838 1.275 . S
O840 Tb822 2.513 . S
O840 C838 1.246 . S
C841 O825 1.245 . S
C841 O826 1.259 . S
Tb842 O845 2.453 . S
Tb842 O846 2.596 . S
Tb842 O847 2.374 . S
Tb842 O855 2.343 . S
Tb842 O857 2.353 . S
Tb842 O859 2.427 . S
Tb842 O860 2.513 . S
C843 O847 1.251 . S
C843 O849 1.263 . S
Tb844 O846 2.343 . S
Tb844 O849 2.353 . S
Tb844 O852 2.427 . S
Tb844 O853 2.513 . S
Tb844 O854 2.453 . S
Tb844 O855 2.596 . S
Tb844 O856 2.374 . S
O845 Tb842 2.453 . S
O845 C861 1.245 . S
O846 Tb842 2.596 . S
O846 Tb844 2.343 . S
O846 C861 1.259 . S
O847 Tb842 2.374 . S
O847 C843 1.251 . S
C848 O852 1.275 . S
C848 O853 1.246 . S
O849 C843 1.263 . S
O849 Tb844 2.353 . S
C850 O854 1.245 . S
C850 O855 1.259 . S
C851 O856 1.250 . S
C851 O857 1.263 . S
O852 Tb844 2.427 . S
O852 C848 1.275 . S
O853 Tb844 2.513 . S
O853 C848 1.246 . S
O854 Tb844 2.453 . S
O854 C850 1.245 . S
O855 Tb842 2.343 . S
O855 Tb844 2.596 . S
O855 C850 1.259 . S
O856 Tb844 2.374 . S
O856 C851 1.250 . S
O857 Tb842 2.353 . S
O857 C851 1.263 . S
C858 O859 1.275 . S
C858 O860 1.246 . S
O859 Tb842 2.427 . S
O859 C858 1.275 . S
O860 Tb842 2.513 . S
O860 C858 1.246 . S
C861 O845 1.245 . S
C861 O846 1.259 . S
Tb862 O865 2.453 . S
Tb862 O866 2.596 . S
Tb862 O867 2.374 . S
Tb862 O875 2.343 . S
Tb862 O877 2.353 . S
Tb862 O879 2.427 . S
Tb862 O880 2.513 . S
C863 O867 1.251 . S
C863 O869 1.263 . S
Tb864 O866 2.343 . S
Tb864 O869 2.353 . S
Tb864 O872 2.427 . S
Tb864 O873 2.513 . S
Tb864 O874 2.453 . S
Tb864 O875 2.596 . S
Tb864 O876 2.374 . S
O865 Tb862 2.453 . S
O865 C881 1.245 . S
O866 Tb862 2.596 . S
O866 Tb864 2.343 . S
O866 C881 1.259 . S
O867 Tb862 2.374 . S
O867 C863 1.251 . S
C868 O872 1.275 . S
C868 O873 1.246 . S
O869 C863 1.263 . S
O869 Tb864 2.353 . S
C870 O874 1.245 . S
C870 O875 1.259 . S
C871 O876 1.250 . S
C871 O877 1.263 . S
O872 Tb864 2.427 . S
O872 C868 1.275 . S
O873 Tb864 2.513 . S
O873 C868 1.246 . S
O874 Tb864 2.453 . S
O874 C870 1.245 . S
O875 Tb862 2.343 . S
O875 Tb864 2.596 . S
O875 C870 1.259 . S
O876 Tb864 2.374 . S
O876 C871 1.250 . S
O877 Tb862 2.353 . S
O877 C871 1.263 . S
C878 O879 1.275 . S
C878 O880 1.246 . S
O879 Tb862 2.427 . S
O879 C878 1.275 . S
O880 Tb862 2.513 . S
O880 C878 1.246 . S
C881 O865 1.245 . S
C881 O866 1.259 . S
H882 C894 0.930 . S
H883 C896 0.930 . S
H884 C897 0.930 . S
H885 C901 0.959 . S
H886 C901 0.959 . S
H887 C901 0.961 . S
H888 C902 0.960 . S
H889 C902 0.961 1_556 S
H890 C902 0.959 . S
H891 C905 0.929 . S
H892 C906 0.931 . S
H893 C908 0.930 . S
C894 H882 0.930 . S
C894 C895 1.399 . S
C894 C899 1.399 . S
C895 C894 1.399 . S
C895 C896 1.376 . S
C896 H883 0.930 . S
C896 C895 1.376 . S
C896 C897 1.388 . S
C897 H884 0.930 . S
C897 C896 1.388 . S
C897 C898 1.390 . S
C898 C897 1.390 . S
C898 C899 1.394 . S
C898 C904 1.465 . S
C899 C894 1.399 . S
C899 C898 1.394 . S
C899 C900 1.516 . S
C900 C899 1.516 . S
C900 C901 1.502 . S
C900 C902 1.561 . S
C900 C903 1.526 . S
C901 H885 0.959 . S
C901 H886 0.959 . S
C901 H887 0.961 . S
C901 C900 1.502 . S
C902 H888 0.960 . S
C902 H889 0.961 1_554 S
C902 H890 0.959 . S
C902 C900 1.561 . S
C903 C900 1.526 . S
C903 C904 1.396 . S
C903 C908 1.390 . S
C904 C898 1.465 . S
C904 C903 1.396 . S
C904 C905 1.399 . S
C905 H891 0.929 . S
C905 C904 1.399 . S
C905 C906 1.385 . S
C906 H892 0.931 . S
C906 C905 1.385 . S
C906 C907 1.389 . S
C907 C906 1.389 . S
C907 C908 1.387 . S
C908 H893 0.930 . S
C908 C903 1.390 . S
C908 C907 1.387 . S
H909 C921 0.930 . S
H910 C923 0.930 . S
H911 C924 0.930 . S
H912 C928 0.959 . S
H913 C928 0.959 . S
H914 C928 0.961 . S
H915 C929 0.960 . S
H916 C929 0.961 . S
H917 C929 0.959 . S
H918 C932 0.929 . S
H919 C933 0.931 . S
H920 C935 0.930 . S
C921 H909 0.930 . S
C921 C922 1.399 . S
C921 C926 1.399 . S
C922 C921 1.399 . S
C922 C923 1.376 . S
C923 H910 0.930 . S
C923 C922 1.376 . S
C923 C924 1.388 . S
C924 H911 0.930 . S
C924 C923 1.388 . S
C924 C925 1.390 . S
C925 C924 1.390 . S
C925 C926 1.394 . S
C925 C931 1.465 . S
C926 C921 1.399 . S
C926 C925 1.394 . S
C926 C927 1.516 . S
C927 C926 1.516 . S
C927 C928 1.502 . S
C927 C929 1.561 . S
C927 C930 1.526 . S
C928 H912 0.959 . S
C928 H913 0.959 . S
C928 H914 0.961 . S
C928 C927 1.502 . S
C929 H915 0.960 . S
C929 H916 0.961 . S
C929 H917 0.959 . S
C929 C927 1.561 . S
C930 C927 1.526 . S
C930 C931 1.396 . S
C930 C935 1.390 . S
C931 C925 1.465 . S
C931 C930 1.396 . S
C931 C932 1.399 . S
C932 H918 0.929 . S
C932 C931 1.399 . S
C932 C933 1.385 . S
C933 H919 0.931 . S
C933 C932 1.385 . S
C933 C934 1.389 . S
C934 C933 1.389 . S
C934 C935 1.387 . S
C935 H920 0.930 . S
C935 C930 1.390 . S
C935 C934 1.387 . S
H936 C948 0.930 . S
H937 C950 0.930 . S
H938 C951 0.930 . S
H939 C955 0.959 1_554 S
H940 C955 0.959 . S
H941 C955 0.961 . S
H942 C956 0.960 . S
H943 C956 0.961 . S
H944 C956 0.959 1_554 S
H945 C959 0.929 . S
H946 C960 0.931 . S
H947 C962 0.930 1_556 S
C948 H936 0.930 . S
C948 C949 1.399 . S
C948 C953 1.399 . S
C949 C948 1.399 . S
C949 C950 1.376 . S
C950 H937 0.930 . S
C950 C949 1.376 . S
C950 C951 1.388 . S
C951 H938 0.930 . S
C951 C950 1.388 . S
C951 C952 1.390 . S
C952 C951 1.390 . S
C952 C953 1.394 . S
C952 C958 1.465 . S
C953 C948 1.399 . S
C953 C952 1.394 . S
C953 C954 1.516 . S
C954 C953 1.516 . S
C954 C955 1.502 1_554 S
C954 C956 1.561 1_554 S
C954 C957 1.526 . S
C955 H939 0.959 1_556 S
C955 H940 0.959 . S
C955 H941 0.961 . S
C955 C954 1.502 1_556 S
C956 H942 0.960 . S
C956 H943 0.961 . S
C956 H944 0.959 1_556 S
C956 C954 1.561 1_556 S
C957 C954 1.526 . S
C957 C958 1.396 . S
C957 C962 1.390 . S
C958 C952 1.465 . S
C958 C957 1.396 . S
C958 C959 1.399 . S
C959 H945 0.929 . S
C959 C958 1.399 . S
C959 C960 1.385 . S
C960 H946 0.931 . S
C960 C959 1.385 . S
C960 C961 1.389 . S
C961 C960 1.389 . S
C961 C962 1.387 . S
C962 H947 0.930 1_554 S
C962 C957 1.390 . S
C962 C961 1.387 . S
H963 C975 0.930 . S
H964 C977 0.930 . S
H965 C978 0.930 . S
H966 C982 0.959 . S
H967 C982 0.959 1_554 S
H968 C982 0.961 . S
H969 C983 0.960 . S
H970 C983 0.961 . S
H971 C983 0.959 . S
H972 C986 0.929 . S
H973 C987 0.931 . S
H974 C989 0.930 1_554 S
C975 H963 0.930 . S
C975 C976 1.399 . S
C975 C980 1.399 . S
C976 C975 1.399 . S
C976 C977 1.376 . S
C977 H964 0.930 . S
C977 C976 1.376 . S
C977 C978 1.388 . S
C978 H965 0.930 . S
C978 C977 1.388 . S
C978 C979 1.390 . S
C979 C978 1.390 . S
C979 C980 1.394 . S
C979 C985 1.465 . S
C980 C975 1.399 . S
C980 C979 1.394 . S
C980 C981 1.516 . S
C981 C980 1.516 . S
C981 C982 1.502 . S
C981 C983 1.561 1_556 S
C981 C984 1.526 . S
C982 H966 0.959 . S
C982 H967 0.959 1_556 S
C982 H968 0.961 . S
C982 C981 1.502 . S
C983 H969 0.960 . S
C983 H970 0.961 . S
C983 H971 0.959 . S
C983 C981 1.561 1_554 S
C984 C981 1.526 . S
C984 C985 1.396 . S
C984 C989 1.390 . S
C985 C979 1.465 . S
C985 C984 1.396 . S
C985 C986 1.399 . S
C986 H972 0.929 . S
C986 C985 1.399 . S
C986 C987 1.385 . S
C987 H973 0.931 . S
C987 C986 1.385 . S
C987 C988 1.389 . S
C988 C987 1.389 . S
C988 C989 1.387 . S
C989 H974 0.930 1_556 S
C989 C984 1.390 . S
C989 C988 1.387 . S
H990 C1002 0.930 . S
H991 C1004 0.930 . S
H992 C1005 0.930 . S
H993 C1009 0.959 . S
H994 C1009 0.959 . S
H995 C1009 0.961 . S
H996 C1010 0.960 . S
H997 C1010 0.961 . S
H998 C1010 0.959 . S
H999 C1013 0.929 . S
H1000 C1014 0.931 . S
H1001 C1016 0.930 . S
C1002 H990 0.930 . S
C1002 C1003 1.399 . S
C1002 C1007 1.399 . S
C1003 C1002 1.399 . S
C1003 C1004 1.376 . S
C1004 H991 0.930 . S
C1004 C1003 1.376 . S
C1004 C1005 1.388 . S
C1005 H992 0.930 . S
C1005 C1004 1.388 . S
C1005 C1006 1.390 . S
C1006 C1005 1.390 . S
C1006 C1007 1.394 . S
C1006 C1012 1.465 . S
C1007 C1002 1.399 . S
C1007 C1006 1.394 . S
C1007 C1008 1.516 . S
C1008 C1007 1.516 . S
C1008 C1009 1.502 . S
C1008 C1010 1.561 . S
C1008 C1011 1.526 . S
C1009 H993 0.959 . S
C1009 H994 0.959 . S
C1009 H995 0.961 . S
C1009 C1008 1.502 . S
C1010 H996 0.960 . S
C1010 H997 0.961 . S
C1010 H998 0.959 . S
C1010 C1008 1.561 . S
C1011 C1008 1.526 . S
C1011 C1012 1.396 . S
C1011 C1016 1.390 . S
C1012 C1006 1.465 . S
C1012 C1011 1.396 . S
C1012 C1013 1.399 . S
C1013 H999 0.929 . S
C1013 C1012 1.399 . S
C1013 C1014 1.385 . S
C1014 H1000 0.931 . S
C1014 C1013 1.385 . S
C1014 C1015 1.389 . S
C1015 C1014 1.389 . S
C1015 C1016 1.387 . S
C1016 H1001 0.930 . S
C1016 C1011 1.390 . S
C1016 C1015 1.387 . S
H1017 C1029 0.930 . S
H1018 C1031 0.930 . S
H1019 C1032 0.930 . S
H1020 C1036 0.959 . S
H1021 C1036 0.959 . S
H1022 C1036 0.961 . S
H1023 C1037 0.960 . S
H1024 C1037 0.961 . S
H1025 C1037 0.959 . S
H1026 C1040 0.929 . S
H1027 C1041 0.931 1_554 S
H1028 C1043 0.930 . S
C1029 H1017 0.930 . S
C1029 C1030 1.399 . S
C1029 C1034 1.399 . S
C1030 C1029 1.399 . S
C1030 C1031 1.376 . S
C1031 H1018 0.930 . S
C1031 C1030 1.376 . S
C1031 C1032 1.388 . S
C1032 H1019 0.930 . S
C1032 C1031 1.388 . S
C1032 C1033 1.390 . S
C1033 C1032 1.390 . S
C1033 C1034 1.394 . S
C1033 C1039 1.465 . S
C1034 C1029 1.399 . S
C1034 C1033 1.394 . S
C1034 C1035 1.516 . S
C1035 C1034 1.516 . S
C1035 C1036 1.502 . S
C1035 C1037 1.561 . S
C1035 C1038 1.526 . S
C1036 H1020 0.959 . S
C1036 H1021 0.959 . S
C1036 H1022 0.961 . S
C1036 C1035 1.502 . S
C1037 H1023 0.960 . S
C1037 H1024 0.961 . S
C1037 H1025 0.959 . S
C1037 C1035 1.561 . S
C1038 C1035 1.526 . S
C1038 C1039 1.396 . S
C1038 C1043 1.390 . S
C1039 C1033 1.465 . S
C1039 C1038 1.396 . S
C1039 C1040 1.399 . S
C1040 H1026 0.929 . S
C1040 C1039 1.399 . S
C1040 C1041 1.385 . S
C1041 H1027 0.931 1_556 S
C1041 C1040 1.385 . S
C1041 C1042 1.389 . S
C1042 C1041 1.389 . S
C1042 C1043 1.387 . S
C1043 H1028 0.930 . S
C1043 C1038 1.390 . S
C1043 C1042 1.387 . S
H1044 C1056 0.930 . S
H1045 C1058 0.930 . S
H1046 C1059 0.930 . S
H1047 C1063 0.959 . S
H1048 C1063 0.959 . S
H1049 C1063 0.961 . S
H1050 C1064 0.960 . S
H1051 C1064 0.961 1_554 S
H1052 C1064 0.959 . S
H1053 C1067 0.929 . S
H1054 C1068 0.931 . S
H1055 C1070 0.930 . S
C1056 H1044 0.930 . S
C1056 C1057 1.399 . S
C1056 C1061 1.399 . S
C1057 C1056 1.399 . S
C1057 C1058 1.376 . S
C1058 H1045 0.930 . S
C1058 C1057 1.376 . S
C1058 C1059 1.388 . S
C1059 H1046 0.930 . S
C1059 C1058 1.388 . S
C1059 C1060 1.390 . S
C1060 C1059 1.390 . S
C1060 C1061 1.394 . S
C1060 C1066 1.465 . S
C1061 C1056 1.399 . S
C1061 C1060 1.394 . S
C1061 C1062 1.516 . S
C1062 C1061 1.516 . S
C1062 C1063 1.502 . S
C1062 C1064 1.561 . S
C1062 C1065 1.526 . S
C1063 H1047 0.959 . S
C1063 H1048 0.959 . S
C1063 H1049 0.961 . S
C1063 C1062 1.502 . S
C1064 H1050 0.960 . S
C1064 H1051 0.961 1_556 S
C1064 H1052 0.959 . S
C1064 C1062 1.561 . S
C1065 C1062 1.526 . S
C1065 C1066 1.396 . S
C1065 C1070 1.390 . S
C1066 C1060 1.465 . S
C1066 C1065 1.396 . S
C1066 C1067 1.399 . S
C1067 H1053 0.929 . S
C1067 C1066 1.399 . S
C1067 C1068 1.385 . S
C1068 H1054 0.931 . S
C1068 C1067 1.385 . S
C1068 C1069 1.389 . S
C1069 C1068 1.389 . S
C1069 C1070 1.387 . S
C1070 H1055 0.930 . S
C1070 C1065 1.390 . S
C1070 C1069 1.387 . S
H1071 C1083 0.930 . S
H1072 C1085 0.930 . S
H1073 C1086 0.930 . S
H1074 C1090 0.959 . S
H1075 C1090 0.959 . S
H1076 C1090 0.961 . S
H1077 C1091 0.960 . S
H1078 C1091 0.961 . S
H1079 C1091 0.959 . S
H1080 C1094 0.929 . S
H1081 C1095 0.931 . S
H1082 C1097 0.930 . S
C1083 H1071 0.930 . S
C1083 C1084 1.399 . S
C1083 C1088 1.399 . S
C1084 C1083 1.399 . S
C1084 C1085 1.376 . S
C1085 H1072 0.930 . S
C1085 C1084 1.376 . S
C1085 C1086 1.388 . S
C1086 H1073 0.930 . S
C1086 C1085 1.388 . S
C1086 C1087 1.390 . S
C1087 C1086 1.390 . S
C1087 C1088 1.394 . S
C1087 C1093 1.465 . S
C1088 C1083 1.399 . S
C1088 C1087 1.394 . S
C1088 C1089 1.516 . S
C1089 C1088 1.516 . S
C1089 C1090 1.502 . S
C1089 C1091 1.561 . S
C1089 C1092 1.526 . S
C1090 H1074 0.959 . S
C1090 H1075 0.959 . S
C1090 H1076 0.961 . S
C1090 C1089 1.502 . S
C1091 H1077 0.960 . S
C1091 H1078 0.961 . S
C1091 H1079 0.959 . S
C1091 C1089 1.561 . S
C1092 C1089 1.526 . S
C1092 C1093 1.396 . S
C1092 C1097 1.390 . S
C1093 C1087 1.465 . S
C1093 C1092 1.396 . S
C1093 C1094 1.399 . S
C1094 H1080 0.929 . S
C1094 C1093 1.399 . S
C1094 C1095 1.385 . S
C1095 H1081 0.931 . S
C1095 C1094 1.385 . S
C1095 C1096 1.389 . S
C1096 C1095 1.389 . S
C1096 C1097 1.387 . S
C1097 H1082 0.930 . S
C1097 C1092 1.390 . S
C1097 C1096 1.387 . S
H1098 C1110 0.930 . S
H1099 C1112 0.930 . S
H1100 C1113 0.930 . S
H1101 C1117 0.959 . S
H1102 C1117 0.959 1_554 S
H1103 C1117 0.961 . S
H1104 C1118 0.960 . S
H1105 C1118 0.961 . S
H1106 C1118 0.959 . S
H1107 C1121 0.929 . S
H1108 C1122 0.931 . S
H1109 C1124 0.930 1_554 S
C1110 H1098 0.930 . S
C1110 C1111 1.399 . S
C1110 C1115 1.399 . S
C1111 C1110 1.399 . S
C1111 C1112 1.376 . S
C1112 H1099 0.930 . S
C1112 C1111 1.376 . S
C1112 C1113 1.388 . S
C1113 H1100 0.930 . S
C1113 C1112 1.388 . S
C1113 C1114 1.390 . S
C1114 C1113 1.390 . S
C1114 C1115 1.394 . S
C1114 C1120 1.465 . S
C1115 C1110 1.399 . S
C1115 C1114 1.394 . S
C1115 C1116 1.516 . S
C1116 C1115 1.516 . S
C1116 C1117 1.502 . S
C1116 C1118 1.561 1_556 S
C1116 C1119 1.526 . S
C1117 H1101 0.959 . S
C1117 H1102 0.959 1_556 S
C1117 H1103 0.961 . S
C1117 C1116 1.502 . S
C1118 H1104 0.960 . S
C1118 H1105 0.961 . S
C1118 H1106 0.959 . S
C1118 C1116 1.561 1_554 S
C1119 C1116 1.526 . S
C1119 C1120 1.396 . S
C1119 C1124 1.390 . S
C1120 C1114 1.465 . S
C1120 C1119 1.396 . S
C1120 C1121 1.399 . S
C1121 H1107 0.929 . S
C1121 C1120 1.399 . S
C1121 C1122 1.385 . S
C1122 H1108 0.931 . S
C1122 C1121 1.385 . S
C1122 C1123 1.389 . S
C1123 C1122 1.389 . S
C1123 C1124 1.387 . S
C1124 H1109 0.930 1_556 S
C1124 C1119 1.390 . S
C1124 C1123 1.387 . S
H1125 C1137 0.930 . S
H1126 C1139 0.930 . S
H1127 C1140 0.930 . S
H1128 C1144 0.959 . S
H1129 C1144 0.959 . S
H1130 C1144 0.961 . S
H1131 C1145 0.965 . S
H1132 C1145 0.961 1_556 S
H1133 C1145 0.963 . S
H1134 C1148 0.929 . S
H1135 C1149 0.931 . S
H1136 C1151 0.930 . S
C1137 H1125 0.930 . S
C1137 C1138 1.399 . S
C1137 C1142 1.399 . S
C1138 C1137 1.399 . S
C1138 C1139 1.376 . S
C1139 H1126 0.930 . S
C1139 C1138 1.376 . S
C1139 C1140 1.388 . S
C1140 H1127 0.930 . S
C1140 C1139 1.388 . S
C1140 C1141 1.390 . S
C1141 C1140 1.390 . S
C1141 C1142 1.394 . S
C1141 C1147 1.465 . S
C1142 C1137 1.399 . S
C1142 C1141 1.394 . S
C1142 C1143 1.516 . S
C1143 C1142 1.516 . S
C1143 C1144 1.502 . S
C1143 C1145 1.561 . S
C1143 C1146 1.526 . S
C1144 H1128 0.959 . S
C1144 H1129 0.959 . S
C1144 H1130 0.961 . S
C1144 C1143 1.502 . S
C1145 H1131 0.965 . S
C1145 H1132 0.961 1_554 S
C1145 H1133 0.963 . S
C1145 C1143 1.561 . S
C1146 C1143 1.526 . S
C1146 C1147 1.396 . S
C1146 C1151 1.390 . S
C1147 C1141 1.465 . S
C1147 C1146 1.396 . S
C1147 C1148 1.399 . S
C1148 H1134 0.929 . S
C1148 C1147 1.399 . S
C1148 C1149 1.385 . S
C1149 H1135 0.931 . S
C1149 C1148 1.385 . S
C1149 C1150 1.389 . S
C1150 C1149 1.389 . S
C1150 C1151 1.387 . S
C1151 H1136 0.930 . S
C1151 C1146 1.390 . S
C1151 C1150 1.387 . S
H1152 C1164 0.930 . S
H1153 C1166 0.930 . S
H1154 C1167 0.930 . S
H1155 C1171 0.959 . S
H1156 C1171 0.959 . S
H1157 C1171 0.961 . S
H1158 C1172 0.960 . S
H1159 C1172 0.961 . S
H1160 C1172 0.959 . S
H1161 C1175 0.929 . S
H1162 C1176 0.931 . S
H1163 C1178 0.930 . S
C1164 H1152 0.930 . S
C1164 C1165 1.399 . S
C1164 C1169 1.399 . S
C1165 C1164 1.399 . S
C1165 C1166 1.376 . S
C1166 H1153 0.930 . S
C1166 C1165 1.376 . S
C1166 C1167 1.388 . S
C1167 H1154 0.930 . S
C1167 C1166 1.388 . S
C1167 C1168 1.390 . S
C1168 C1167 1.390 . S
C1168 C1169 1.394 . S
C1168 C1174 1.465 . S
C1169 C1164 1.399 . S
C1169 C1168 1.394 . S
C1169 C1170 1.516 . S
C1170 C1169 1.516 . S
C1170 C1171 1.502 . S
C1170 C1172 1.561 . S
C1170 C1173 1.526 . S
C1171 H1155 0.959 . S
C1171 H1156 0.959 . S
C1171 H1157 0.961 . S
C1171 C1170 1.502 . S
C1172 H1158 0.960 . S
C1172 H1159 0.961 . S
C1172 H1160 0.959 . S
C1172 C1170 1.561 . S
C1173 C1170 1.526 . S
C1173 C1174 1.396 . S
C1173 C1178 1.390 . S
C1174 C1168 1.465 . S
C1174 C1173 1.396 . S
C1174 C1175 1.399 . S
C1175 H1161 0.929 . S
C1175 C1174 1.399 . S
C1175 C1176 1.385 . S
C1176 H1162 0.931 . S
C1176 C1175 1.385 . S
C1176 C1177 1.389 . S
C1177 C1176 1.389 . S
C1177 C1178 1.387 . S
C1178 H1163 0.930 . S
C1178 C1173 1.390 . S
C1178 C1177 1.387 . S
H1179 C1191 0.930 . S
H1180 C1193 0.930 . S
H1181 C1194 0.930 . S
H1182 C1198 0.959 . S
H1183 C1198 0.959 . S
H1184 C1198 0.961 . S
H1185 C1199 0.960 . S
H1186 C1199 0.961 . S
H1187 C1199 0.959 . S
H1188 C1202 0.929 1_556 S
H1189 C1203 0.891 1_556 S
H1190 C1205 0.930 . S
C1191 H1179 0.930 . S
C1191 C1192 1.399 . S
C1191 C1196 1.399 . S
C1192 C1191 1.399 . S
C1192 C1193 1.376 . S
C1193 H1180 0.930 . S
C1193 C1192 1.376 . S
C1193 C1194 1.388 . S
C1194 H1181 0.930 . S
C1194 C1193 1.388 . S
C1194 C1195 1.390 . S
C1195 C1194 1.390 . S
C1195 C1196 1.394 . S
C1195 C1201 1.465 . S
C1196 C1191 1.399 . S
C1196 C1195 1.394 . S
C1196 C1197 1.516 . S
C1197 C1196 1.516 . S
C1197 C1198 1.502 . S
C1197 C1199 1.561 . S
C1197 C1200 1.526 . S
C1198 H1182 0.959 . S
C1198 H1183 0.959 . S
C1198 H1184 0.961 . S
C1198 C1197 1.502 . S
C1199 H1185 0.960 . S
C1199 H1186 0.961 . S
C1199 H1187 0.959 . S
C1199 C1197 1.561 . S
C1200 C1197 1.526 . S
C1200 C1201 1.396 . S
C1200 C1205 1.390 . S
C1201 C1195 1.465 . S
C1201 C1200 1.396 . S
C1201 C1202 1.399 . S
C1202 H1188 0.929 1_554 S
C1202 C1201 1.399 . S
C1202 C1203 1.391 . S
C1203 H1189 0.891 1_554 S
C1203 C1202 1.391 . S
C1203 C1204 1.424 . S
C1204 C1203 1.424 . S
C1204 C1205 1.387 . S
C1205 H1190 0.930 . S
C1205 C1200 1.390 . S
C1205 C1204 1.387 . S
H1206 C1218 0.930 . S
H1207 C1220 0.930 . S
H1208 C1221 0.930 . S
H1209 C1225 0.959 . S
H1210 C1225 0.959 . S
H1211 C1225 0.961 . S
H1212 C1226 0.960 . S
H1213 C1226 0.961 . S
H1214 C1226 0.959 . S
H1215 C1229 0.929 . S
H1216 C1230 0.931 . S
H1217 C1232 0.930 . S
C1218 H1206 0.930 . S
C1218 C1219 1.399 . S
C1218 C1223 1.399 1_655 S
C1219 C1218 1.399 . S
C1219 C1220 1.376 . S
C1220 H1207 0.930 . S
C1220 C1219 1.376 . S
C1220 C1221 1.388 . S
C1221 H1208 0.930 . S
C1221 C1220 1.388 . S
C1221 C1222 1.390 1_655 S
C1222 C1221 1.390 1_455 S
C1222 C1223 1.394 . S
C1222 C1228 1.465 . S
C1223 C1218 1.399 1_455 S
C1223 C1222 1.394 . S
C1223 C1224 1.516 . S
C1224 C1223 1.516 . S
C1224 C1225 1.502 . S
C1224 C1226 1.561 . S
C1224 C1227 1.526 . S
C1225 H1209 0.959 . S
C1225 H1210 0.959 . S
C1225 H1211 0.961 . S
C1225 C1224 1.502 . S
C1226 H1212 0.960 . S
C1226 H1213 0.961 . S
C1226 H1214 0.959 . S
C1226 C1224 1.561 . S
C1227 C1224 1.526 . S
C1227 C1228 1.396 . S
C1227 C1232 1.390 . S
C1228 C1222 1.465 . S
C1228 C1227 1.396 . S
C1228 C1229 1.399 . S
C1229 H1215 0.929 . S
C1229 C1228 1.399 . S
C1229 C1230 1.385 . S
C1230 H1216 0.931 . S
C1230 C1229 1.385 . S
C1230 C1231 1.389 . S
C1231 C1230 1.389 . S
C1231 C1232 1.387 . S
C1232 H1217 0.930 . S
C1232 C1227 1.390 . S
C1232 C1231 1.387 . S
H1233 C1245 0.930 . S
H1234 C1247 0.930 . S
H1235 C1248 0.930 . S
H1236 C1252 0.959 . S
H1237 C1252 0.959 . S
H1238 C1252 0.961 . S
H1239 C1253 0.960 . S
H1240 C1253 0.961 . S
H1241 C1253 0.959 . S
H1242 C1256 0.929 . S
H1243 C1257 0.931 . S
H1244 C1259 0.930 . S
C1245 H1233 0.930 . S
C1245 C1246 1.399 . S
C1245 C1250 1.399 . S
C1246 C1245 1.399 . S
C1246 C1247 1.376 . S
C1247 H1234 0.930 . S
C1247 C1246 1.376 . S
C1247 C1248 1.388 . S
C1248 H1235 0.930 . S
C1248 C1247 1.388 . S
C1248 C1249 1.390 . S
C1249 C1248 1.390 . S
C1249 C1250 1.394 . S
C1249 C1255 1.465 . S
C1250 C1245 1.399 . S
C1250 C1249 1.394 . S
C1250 C1251 1.516 . S
C1251 C1250 1.516 . S
C1251 C1252 1.502 . S
C1251 C1253 1.561 . S
C1251 C1254 1.526 . S
C1252 H1236 0.959 . S
C1252 H1237 0.959 . S
C1252 H1238 0.961 . S
C1252 C1251 1.502 . S
C1253 H1239 0.960 . S
C1253 H1240 0.961 . S
C1253 H1241 0.959 . S
C1253 C1251 1.561 . S
C1254 C1251 1.526 . S
C1254 C1255 1.396 . S
C1254 C1259 1.390 . S
C1255 C1249 1.465 . S
C1255 C1254 1.396 . S
C1255 C1256 1.399 . S
C1256 H1242 0.929 . S
C1256 C1255 1.399 . S
C1256 C1257 1.385 . S
C1257 H1243 0.931 . S
C1257 C1256 1.385 . S
C1257 C1258 1.389 . S
C1258 C1257 1.389 . S
C1258 C1259 1.387 . S
C1259 H1244 0.930 . S
C1259 C1254 1.390 . S
C1259 C1258 1.387 . S
H1260 C1272 0.930 . S
H1261 C1274 0.930 . S
H1262 C1275 0.930 1_565 S
H1263 C1279 0.959 . S
H1264 C1279 0.959 . S
H1265 C1279 0.961 . S
H1266 C1280 0.960 . S
H1267 C1280 0.961 . S
H1268 C1280 0.959 . S
H1269 C1283 0.929 . S
H1270 C1284 0.931 . S
H1271 C1286 0.930 . S
C1272 H1260 0.930 . S
C1272 C1273 1.399 . S
C1272 C1277 1.399 1_545 S
C1273 C1272 1.399 . S
C1273 C1274 1.376 . S
C1274 H1261 0.930 . S
C1274 C1273 1.376 . S
C1274 C1275 1.388 . S
C1275 H1262 0.930 1_545 S
C1275 C1274 1.388 . S
C1275 C1276 1.390 1_545 S
C1276 C1275 1.390 1_565 S
C1276 C1277 1.394 . S
C1276 C1282 1.465 . S
C1277 C1272 1.399 1_565 S
C1277 C1276 1.394 . S
C1277 C1278 1.516 . S
C1278 C1277 1.516 . S
C1278 C1279 1.502 . S
C1278 C1280 1.561 . S
C1278 C1281 1.526 . S
C1279 H1263 0.959 . S
C1279 H1264 0.959 . S
C1279 H1265 0.961 . S
C1279 C1278 1.502 . S
C1280 H1266 0.960 . S
C1280 H1267 0.961 . S
C1280 H1268 0.959 . S
C1280 C1278 1.561 . S
C1281 C1278 1.526 . S
C1281 C1282 1.396 . S
C1281 C1286 1.390 . S
C1282 C1276 1.465 . S
C1282 C1281 1.396 . S
C1282 C1283 1.399 . S
C1283 H1269 0.929 . S
C1283 C1282 1.399 . S
C1283 C1284 1.385 . S
C1284 H1270 0.931 . S
C1284 C1283 1.385 . S
C1284 C1285 1.389 . S
C1285 C1284 1.389 . S
C1285 C1286 1.387 . S
C1286 H1271 0.930 . S
C1286 C1281 1.390 . S
C1286 C1285 1.387 . S
H1287 C1299 0.930 . S
H1288 C1301 0.930 . S
H1289 C1302 0.930 . S
H1290 C1306 0.959 . S
H1291 C1306 0.959 . S
H1292 C1306 0.961 . S
H1293 C1307 0.960 . S
H1294 C1307 0.961 . S
H1295 C1307 0.959 . S
H1296 C1310 0.929 . S
H1297 C1311 0.931 . S
H1298 C1313 0.930 . S
C1299 H1287 0.930 . S
C1299 C1300 1.399 . S
C1299 C1304 1.399 . S
C1300 C1299 1.399 . S
C1300 C1301 1.376 . S
C1301 H1288 0.930 . S
C1301 C1300 1.376 . S
C1301 C1302 1.388 . S
C1302 H1289 0.930 . S
C1302 C1301 1.388 . S
C1302 C1303 1.390 . S
C1303 C1302 1.390 . S
C1303 C1304 1.394 . S
C1303 C1309 1.465 . S
C1304 C1299 1.399 . S
C1304 C1303 1.394 . S
C1304 C1305 1.516 . S
C1305 C1304 1.516 . S
C1305 C1306 1.502 . S
C1305 C1307 1.561 . S
C1305 C1308 1.526 . S
C1306 H1290 0.959 . S
C1306 H1291 0.959 . S
C1306 H1292 0.961 . S
C1306 C1305 1.502 . S
C1307 H1293 0.960 . S
C1307 H1294 0.961 . S
C1307 H1295 0.959 . S
C1307 C1305 1.561 . S
C1308 C1305 1.526 . S
C1308 C1309 1.396 . S
C1308 C1313 1.390 . S
C1309 C1303 1.465 . S
C1309 C1308 1.396 . S
C1309 C1310 1.399 . S
C1310 H1296 0.929 . S
C1310 C1309 1.399 . S
C1310 C1311 1.385 . S
C1311 H1297 0.931 . S
C1311 C1310 1.385 . S
C1311 C1312 1.389 . S
C1312 C1311 1.389 . S
C1312 C1313 1.387 . S
C1313 H1298 0.930 . S
C1313 C1308 1.390 . S
C1313 C1312 1.387 . S
H1314 C1326 0.930 . S
H1315 C1328 0.930 . S
H1316 C1329 0.930 . S
H1317 C1333 0.959 . S
H1318 C1333 0.959 . S
H1319 C1333 0.961 . S
H1320 C1334 0.960 . S
H1321 C1334 0.961 . S
H1322 C1334 0.959 . S
H1323 C1337 0.929 . S
H1324 C1338 0.931 . S
H1325 C1340 0.930 . S
C1326 H1314 0.930 . S
C1326 C1327 1.399 . S
C1326 C1331 1.399 . S
C1327 C1326 1.399 . S
C1327 C1328 1.376 . S
C1328 H1315 0.930 . S
C1328 C1327 1.376 . S
C1328 C1329 1.388 . S
C1329 H1316 0.930 . S
C1329 C1328 1.388 . S
C1329 C1330 1.390 . S
C1330 C1329 1.390 . S
C1330 C1331 1.394 . S
C1330 C1336 1.465 . S
C1331 C1326 1.399 . S
C1331 C1330 1.394 . S
C1331 C1332 1.516 . S
C1332 C1331 1.516 . S
C1332 C1333 1.502 . S
C1332 C1334 1.561 . S
C1332 C1335 1.526 . S
C1333 H1317 0.959 . S
C1333 H1318 0.959 . S
C1333 H1319 0.961 . S
C1333 C1332 1.502 . S
C1334 H1320 0.960 . S
C1334 H1321 0.961 . S
C1334 H1322 0.959 . S
C1334 C1332 1.561 . S
C1335 C1332 1.526 . S
C1335 C1336 1.396 . S
C1335 C1340 1.390 . S
C1336 C1330 1.465 . S
C1336 C1335 1.396 . S
C1336 C1337 1.399 . S
C1337 H1323 0.929 . S
C1337 C1336 1.399 . S
C1337 C1338 1.385 . S
C1338 H1324 0.931 . S
C1338 C1337 1.385 . S
C1338 C1339 1.389 . S
C1339 C1338 1.389 . S
C1339 C1340 1.387 . S
C1340 H1325 0.930 . S
C1340 C1335 1.390 . S
C1340 C1339 1.387 . S
H1341 C1353 0.930 . S
H1342 C1355 0.930 . S
H1343 C1356 0.930 . S
H1344 C1360 0.959 . S
H1345 C1360 0.959 . S
H1346 C1360 0.961 . S
H1347 C1361 0.960 . S
H1348 C1361 0.961 . S
H1349 C1361 0.959 . S
H1350 C1364 0.929 . S
H1351 C1365 0.931 . S
H1352 C1367 0.930 . S
C1353 H1341 0.930 . S
C1353 C1354 1.399 . S
C1353 C1358 1.399 . S
C1354 C1353 1.399 . S
C1354 C1355 1.376 . S
C1355 H1342 0.930 . S
C1355 C1354 1.376 . S
C1355 C1356 1.388 . S
C1356 H1343 0.930 . S
C1356 C1355 1.388 . S
C1356 C1357 1.390 . S
C1357 C1356 1.390 . S
C1357 C1358 1.394 . S
C1357 C1363 1.465 . S
C1358 C1353 1.399 . S
C1358 C1357 1.394 . S
C1358 C1359 1.516 . S
C1359 C1358 1.516 . S
C1359 C1360 1.502 . S
C1359 C1361 1.561 . S
C1359 C1362 1.526 . S
C1360 H1344 0.959 . S
C1360 H1345 0.959 . S
C1360 H1346 0.961 . S
C1360 C1359 1.502 . S
C1361 H1347 0.960 . S
C1361 H1348 0.961 . S
C1361 H1349 0.959 . S
C1361 C1359 1.561 . S
C1362 C1359 1.526 . S
C1362 C1363 1.396 . S
C1362 C1367 1.390 . S
C1363 C1357 1.465 . S
C1363 C1362 1.396 . S
C1363 C1364 1.399 . S
C1364 H1350 0.929 . S
C1364 C1363 1.399 . S
C1364 C1365 1.385 . S
C1365 H1351 0.931 . S
C1365 C1364 1.385 . S
C1365 C1366 1.389 . S
C1366 C1365 1.389 . S
C1366 C1367 1.387 . S
C1367 H1352 0.930 . S
C1367 C1362 1.390 . S
C1367 C1366 1.387 . S
H1368 C1380 0.930 . S
H1369 C1382 0.930 . S
H1370 C1383 0.930 . S
H1371 C1387 0.959 . S
H1372 C1387 0.959 . S
H1373 C1387 0.961 . S
H1374 C1388 0.960 . S
H1375 C1388 0.961 . S
H1376 C1388 0.959 . S
H1377 C1391 0.929 . S
H1378 C1392 0.931 . S
H1379 C1394 0.930 . S
C1380 H1368 0.930 . S
C1380 C1381 1.399 . S
C1380 C1385 1.399 . S
C1381 C1380 1.399 . S
C1381 C1382 1.376 . S
C1382 H1369 0.930 . S
C1382 C1381 1.376 . S
C1382 C1383 1.388 . S
C1383 H1370 0.930 . S
C1383 C1382 1.388 . S
C1383 C1384 1.390 . S
C1384 C1383 1.390 . S
C1384 C1385 1.394 . S
C1384 C1390 1.465 . S
C1385 C1380 1.399 . S
C1385 C1384 1.394 . S
C1385 C1386 1.516 . S
C1386 C1385 1.516 . S
C1386 C1387 1.502 . S
C1386 C1388 1.561 . S
C1386 C1389 1.526 . S
C1387 H1371 0.959 . S
C1387 H1372 0.959 . S
C1387 H1373 0.961 . S
C1387 C1386 1.502 . S
C1388 H1374 0.960 . S
C1388 H1375 0.961 . S
C1388 H1376 0.959 . S
C1388 C1386 1.561 . S
C1389 C1386 1.526 . S
C1389 C1390 1.396 . S
C1389 C1394 1.390 . S
C1390 C1384 1.465 . S
C1390 C1389 1.396 . S
C1390 C1391 1.399 . S
C1391 H1377 0.929 . S
C1391 C1390 1.399 . S
C1391 C1392 1.385 . S
C1392 H1378 0.931 . S
C1392 C1391 1.385 . S
C1392 C1393 1.389 . S
C1393 C1392 1.389 . S
C1393 C1394 1.387 . S
C1394 H1379 0.930 . S
C1394 C1389 1.390 . S
C1394 C1393 1.387 . S
H1395 C1407 0.930 . S
H1396 C1409 0.930 . S
H1397 C1410 0.930 . S
H1398 C1414 0.959 . S
H1399 C1414 0.959 . S
H1400 C1414 0.961 . S
H1401 C1415 0.960 . S
H1402 C1415 0.961 . S
H1403 C1415 0.959 . S
H1404 C1418 0.929 . S
H1405 C1419 0.931 . S
H1406 C1421 0.930 . S
C1407 H1395 0.930 . S
C1407 C1408 1.399 . S
C1407 C1412 1.399 . S
C1408 C1407 1.399 . S
C1408 C1409 1.376 . S
C1409 H1396 0.930 . S
C1409 C1408 1.376 . S
C1409 C1410 1.388 . S
C1410 H1397 0.930 . S
C1410 C1409 1.388 . S
C1410 C1411 1.390 . S
C1411 C1410 1.390 . S
C1411 C1412 1.394 . S
C1411 C1417 1.465 . S
C1412 C1407 1.399 . S
C1412 C1411 1.394 . S
C1412 C1413 1.516 . S
C1413 C1412 1.516 . S
C1413 C1414 1.502 . S
C1413 C1415 1.561 . S
C1413 C1416 1.526 . S
C1414 H1398 0.959 . S
C1414 H1399 0.959 . S
C1414 H1400 0.961 . S
C1414 C1413 1.502 . S
C1415 H1401 0.960 . S
C1415 H1402 0.961 . S
C1415 H1403 0.959 . S
C1415 C1413 1.561 . S
C1416 C1413 1.526 . S
C1416 C1417 1.396 . S
C1416 C1421 1.390 . S
C1417 C1411 1.465 . S
C1417 C1416 1.396 . S
C1417 C1418 1.399 . S
C1418 H1404 0.929 . S
C1418 C1417 1.399 . S
C1418 C1419 1.385 . S
C1419 H1405 0.931 . S
C1419 C1418 1.385 . S
C1419 C1420 1.389 . S
C1420 C1419 1.389 . S
C1420 C1421 1.387 . S
C1421 H1406 0.930 . S
C1421 C1416 1.390 . S
C1421 C1420 1.387 . S
H1422 C1434 0.930 . S
H1423 C1436 0.930 . S
H1424 C1437 0.930 . S
H1425 C1441 0.959 . S
H1426 C1441 0.959 . S
H1427 C1441 0.961 . S
H1428 C1442 0.960 . S
H1429 C1442 0.961 . S
H1430 C1442 0.959 . S
H1431 C1445 0.929 . S
H1432 C1446 0.931 . S
H1433 C1448 0.930 . S
C1434 H1422 0.930 . S
C1434 C1435 1.399 . S
C1434 C1439 1.399 . S
C1435 C1434 1.399 . S
C1435 C1436 1.376 . S
C1436 H1423 0.930 . S
C1436 C1435 1.376 . S
C1436 C1437 1.388 . S
C1437 H1424 0.930 . S
C1437 C1436 1.388 . S
C1437 C1438 1.390 . S
C1438 C1437 1.390 . S
C1438 C1439 1.394 . S
C1438 C1444 1.465 . S
C1439 C1434 1.399 . S
C1439 C1438 1.394 . S
C1439 C1440 1.516 . S
C1440 C1439 1.516 . S
C1440 C1441 1.502 . S
C1440 C1442 1.561 . S
C1440 C1443 1.526 . S
C1441 H1425 0.959 . S
C1441 H1426 0.959 . S
C1441 H1427 0.961 . S
C1441 C1440 1.502 . S
C1442 H1428 0.960 . S
C1442 H1429 0.961 . S
C1442 H1430 0.959 . S
C1442 C1440 1.561 . S
C1443 C1440 1.526 . S
C1443 C1444 1.396 . S
C1443 C1448 1.390 . S
C1444 C1438 1.465 . S
C1444 C1443 1.396 . S
C1444 C1445 1.399 . S
C1445 H1431 0.929 . S
C1445 C1444 1.399 . S
C1445 C1446 1.385 . S
C1446 H1432 0.931 . S
C1446 C1445 1.385 . S
C1446 C1447 1.389 . S
C1447 C1446 1.389 . S
C1447 C1448 1.387 . S
C1448 H1433 0.930 . S
C1448 C1443 1.390 . S
C1448 C1447 1.387 . S
H1449 C1461 0.930 . S
H1450 C1463 0.930 . S
H1451 C1464 0.922 . S
H1452 C1468 0.959 . S
H1453 C1468 0.959 . S
H1454 C1468 0.961 . S
H1455 C1469 0.960 . S
H1456 C1469 0.961 . S
H1457 C1469 0.959 . S
H1458 C1472 0.929 . S
H1459 C1473 0.931 . S
H1460 C1475 0.930 . S
C1461 H1449 0.930 . S
C1461 C1462 1.399 . S
C1461 C1466 1.399 1_545 S
C1462 C1461 1.399 . S
C1462 C1463 1.376 . S
C1463 H1450 0.930 . S
C1463 C1462 1.376 . S
C1463 C1464 1.388 . S
C1464 H1451 0.922 . S
C1464 C1463 1.388 . S
C1464 C1465 1.390 1_545 S
C1465 C1464 1.390 1_565 S
C1465 C1466 1.394 . S
C1465 C1471 1.465 . S
C1466 C1461 1.399 1_565 S
C1466 C1465 1.394 . S
C1466 C1467 1.516 . S
C1467 C1466 1.516 . S
C1467 C1468 1.502 . S
C1467 C1469 1.561 . S
C1467 C1470 1.526 . S
C1468 H1452 0.959 . S
C1468 H1453 0.959 . S
C1468 H1454 0.961 . S
C1468 C1467 1.502 . S
C1469 H1455 0.960 . S
C1469 H1456 0.961 . S
C1469 H1457 0.959 . S
C1469 C1467 1.561 . S
C1470 C1467 1.526 . S
C1470 C1471 1.396 . S
C1470 C1475 1.390 . S
C1471 C1465 1.465 . S
C1471 C1470 1.396 . S
C1471 C1472 1.399 . S
C1472 H1458 0.929 . S
C1472 C1471 1.399 . S
C1472 C1473 1.385 . S
C1473 H1459 0.931 . S
C1473 C1472 1.385 . S
C1473 C1474 1.389 . S
C1474 C1473 1.389 . S
C1474 C1475 1.387 . S
C1475 H1460 0.930 . S
C1475 C1470 1.390 . S
C1475 C1474 1.387 . S
H1476 C1488 0.930 . S
H1477 C1490 0.930 . S
H1478 C1491 0.930 . S
H1479 C1495 0.959 . S
H1480 C1495 0.959 . S
H1481 C1495 0.961 . S
H1482 C1496 0.960 . S
H1483 C1496 0.961 . S
H1484 C1496 0.959 . S
H1485 C1499 0.929 . S
H1486 C1500 0.931 . S
H1487 C1502 0.930 . S
C1488 H1476 0.930 . S
C1488 C1489 1.399 1_455 S
C1488 C1493 1.399 . S
C1489 C1488 1.399 1_655 S
C1489 C1490 1.376 . S
C1490 H1477 0.930 . S
C1490 C1489 1.376 . S
C1490 C1491 1.388 . S
C1491 H1478 0.930 . S
C1491 C1490 1.388 . S
C1491 C1492 1.390 1_655 S
C1492 C1491 1.390 1_455 S
C1492 C1493 1.394 . S
C1492 C1498 1.465 . S
C1493 C1488 1.399 . S
C1493 C1492 1.394 . S
C1493 C1494 1.516 . S
C1494 C1493 1.516 . S
C1494 C1495 1.502 . S
C1494 C1496 1.561 . S
C1494 C1497 1.526 . S
C1495 H1479 0.959 . S
C1495 H1480 0.959 . S
C1495 H1481 0.961 . S
C1495 C1494 1.502 . S
C1496 H1482 0.960 . S
C1496 H1483 0.961 . S
C1496 H1484 0.959 . S
C1496 C1494 1.561 . S
C1497 C1494 1.526 . S
C1497 C1498 1.396 . S
C1497 C1502 1.390 . S
C1498 C1492 1.465 . S
C1498 C1497 1.396 . S
C1498 C1499 1.399 . S
C1499 H1485 0.929 . S
C1499 C1498 1.399 . S
C1499 C1500 1.385 . S
C1500 H1486 0.931 . S
C1500 C1499 1.385 . S
C1500 C1501 1.389 . S
C1501 C1500 1.389 . S
C1501 C1502 1.387 . S
C1502 H1487 0.930 . S
C1502 C1497 1.390 . S
C1502 C1501 1.387 . S
H1503 C1515 0.930 . S
H1504 C1517 0.930 . S
H1505 C1518 0.930 . S
H1506 C1522 0.959 . S
H1507 C1522 0.959 . S
H1508 C1522 0.961 . S
H1509 C1523 0.960 . S
H1510 C1523 0.961 . S
H1511 C1523 0.959 . S
H1512 C1526 0.929 . S
H1513 C1527 0.931 . S
H1514 C1529 0.930 . S
C1515 H1503 0.930 . S
C1515 C1516 1.399 . S
C1515 C1520 1.399 . S
C1516 C1515 1.399 . S
C1516 C1517 1.376 . S
C1517 H1504 0.930 . S
C1517 C1516 1.376 . S
C1517 C1518 1.388 . S
C1518 H1505 0.930 . S
C1518 C1517 1.388 . S
C1518 C1519 1.390 . S
C1519 C1518 1.390 . S
C1519 C1520 1.394 . S
C1519 C1525 1.465 . S
C1520 C1515 1.399 . S
C1520 C1519 1.394 . S
C1520 C1521 1.516 . S
C1521 C1520 1.516 . S
C1521 C1522 1.502 . S
C1521 C1523 1.561 . S
C1521 C1524 1.526 . S
C1522 H1506 0.959 . S
C1522 H1507 0.959 . S
C1522 H1508 0.961 . S
C1522 C1521 1.502 . S
C1523 H1509 0.960 . S
C1523 H1510 0.961 . S
C1523 H1511 0.959 . S
C1523 C1521 1.561 . S
C1524 C1521 1.526 . S
C1524 C1525 1.396 . S
C1524 C1529 1.390 . S
C1525 C1519 1.465 . S
C1525 C1524 1.396 . S
C1525 C1526 1.399 . S
C1526 H1512 0.929 . S
C1526 C1525 1.399 . S
C1526 C1527 1.385 . S
C1527 H1513 0.931 . S
C1527 C1526 1.385 . S
C1527 C1528 1.389 . S
C1528 C1527 1.389 . S
C1528 C1529 1.387 . S
C1529 H1514 0.930 . S
C1529 C1524 1.390 . S
C1529 C1528 1.387 . S
H1530 C1542 0.930 . S
H1531 C1544 0.930 . S
H1532 C1545 0.930 . S
H1533 C1549 0.959 . S
H1534 C1549 0.959 . S
H1535 C1549 0.961 . S
H1536 C1550 0.960 . S
H1537 C1550 0.961 . S
H1538 C1550 0.959 . S
H1539 C1553 0.929 . S
H1540 C1554 0.931 . S
H1541 C1556 0.930 . S
C1542 H1530 0.930 . S
C1542 C1543 1.399 . S
C1542 C1547 1.399 . S
C1543 C1542 1.399 . S
C1543 C1544 1.376 . S
C1544 H1531 0.930 . S
C1544 C1543 1.376 . S
C1544 C1545 1.388 . S
C1545 H1532 0.930 . S
C1545 C1544 1.388 . S
C1545 C1546 1.390 . S
C1546 C1545 1.390 . S
C1546 C1547 1.394 . S
C1546 C1552 1.465 . S
C1547 C1542 1.399 . S
C1547 C1546 1.394 . S
C1547 C1548 1.516 . S
C1548 C1547 1.516 . S
C1548 C1549 1.502 . S
C1548 C1550 1.561 . S
C1548 C1551 1.526 . S
C1549 H1533 0.959 . S
C1549 H1534 0.959 . S
C1549 H1535 0.961 . S
C1549 C1548 1.502 . S
C1550 H1536 0.960 . S
C1550 H1537 0.961 . S
C1550 H1538 0.959 . S
C1550 C1548 1.561 . S
C1551 C1548 1.526 . S
C1551 C1552 1.396 . S
C1551 C1556 1.390 . S
C1552 C1546 1.465 . S
C1552 C1551 1.396 . S
C1552 C1553 1.399 . S
C1553 H1539 0.929 . S
C1553 C1552 1.399 . S
C1553 C1554 1.385 . S
C1554 H1540 0.931 . S
C1554 C1553 1.385 . S
C1554 C1555 1.389 . S
C1555 C1554 1.389 . S
C1555 C1556 1.387 . S
C1556 H1541 0.930 . S
C1556 C1551 1.390 . S
C1556 C1555 1.387 . S
H1557 C1569 0.930 . S
H1558 C1571 0.930 . S
H1559 C1572 0.930 . S
H1560 C1576 0.959 . S
H1561 C1576 0.959 . S
H1562 C1576 0.961 . S
H1563 C1577 0.960 . S
H1564 C1577 0.961 . S
H1565 C1577 0.959 . S
H1566 C1580 0.929 . S
H1567 C1581 0.931 . S
H1568 C1583 0.930 . S
C1569 H1557 0.930 . S
C1569 C1570 1.399 . S
C1569 C1574 1.399 . S
C1570 C1569 1.399 . S
C1570 C1571 1.376 . S
C1571 H1558 0.930 . S
C1571 C1570 1.376 . S
C1571 C1572 1.388 . S
C1572 H1559 0.930 . S
C1572 C1571 1.388 . S
C1572 C1573 1.390 . S
C1573 C1572 1.390 . S
C1573 C1574 1.394 . S
C1573 C1579 1.465 . S
C1574 C1569 1.399 . S
C1574 C1573 1.394 . S
C1574 C1575 1.516 . S
C1575 C1574 1.516 . S
C1575 C1576 1.502 . S
C1575 C1577 1.561 . S
C1575 C1578 1.526 . S
C1576 H1560 0.959 . S
C1576 H1561 0.959 . S
C1576 H1562 0.961 . S
C1576 C1575 1.502 . S
C1577 H1563 0.960 . S
C1577 H1564 0.961 . S
C1577 H1565 0.959 . S
C1577 C1575 1.561 . S
C1578 C1575 1.526 . S
C1578 C1579 1.396 . S
C1578 C1583 1.390 . S
C1579 C1573 1.465 . S
C1579 C1578 1.396 . S
C1579 C1580 1.399 . S
C1580 H1566 0.929 . S
C1580 C1579 1.399 . S
C1580 C1581 1.385 . S
C1581 H1567 0.931 . S
C1581 C1580 1.385 . S
C1581 C1582 1.389 . S
C1582 C1581 1.389 . S
C1582 C1583 1.387 . S
C1583 H1568 0.930 . S
C1583 C1578 1.390 . S
C1583 C1582 1.387 . S
H1584 C1596 0.930 . S
H1585 C1598 0.930 . S
H1586 C1599 0.930 . S
H1587 C1603 0.959 . S
H1588 C1603 0.959 . S
H1589 C1603 0.961 . S
H1590 C1604 0.960 . S
H1591 C1604 0.961 . S
H1592 C1604 0.959 . S
H1593 C1607 0.929 . S
H1594 C1608 0.931 . S
H1595 C1610 0.930 . S
C1596 H1584 0.930 . S
C1596 C1597 1.399 . S
C1596 C1601 1.399 . S
C1597 C1596 1.399 . S
C1597 C1598 1.376 . S
C1598 H1585 0.930 . S
C1598 C1597 1.376 . S
C1598 C1599 1.388 . S
C1599 H1586 0.930 . S
C1599 C1598 1.388 . S
C1599 C1600 1.390 . S
C1600 C1599 1.390 . S
C1600 C1601 1.394 . S
C1600 C1606 1.465 . S
C1601 C1596 1.399 . S
C1601 C1600 1.394 . S
C1601 C1602 1.516 . S
C1602 C1601 1.516 . S
C1602 C1603 1.502 . S
C1602 C1604 1.561 . S
C1602 C1605 1.526 . S
C1603 H1587 0.959 . S
C1603 H1588 0.959 . S
C1603 H1589 0.961 . S
C1603 C1602 1.502 . S
C1604 H1590 0.960 . S
C1604 H1591 0.961 . S
C1604 H1592 0.959 . S
C1604 C1602 1.561 . S
C1605 C1602 1.526 . S
C1605 C1606 1.396 . S
C1605 C1610 1.390 . S
C1606 C1600 1.465 . S
C1606 C1605 1.396 . S
C1606 C1607 1.399 . S
C1607 H1593 0.929 . S
C1607 C1606 1.399 . S
C1607 C1608 1.385 . S
C1608 H1594 0.931 . S
C1608 C1607 1.385 . S
C1608 C1609 1.389 . S
C1609 C1608 1.389 . S
C1609 C1610 1.387 . S
C1610 H1595 0.930 . S
C1610 C1605 1.390 . S
C1610 C1609 1.387 . S
H1611 C1623 0.930 . S
H1612 C1625 0.930 . S
H1613 C1626 0.930 . S
H1614 C1630 0.959 . S
H1615 C1630 0.959 . S
H1616 C1630 0.961 . S
H1617 C1631 0.960 . S
H1618 C1631 0.961 . S
H1619 C1631 0.959 . S
H1620 C1634 0.929 . S
H1621 C1635 0.931 . S
H1622 C1637 0.930 . S
C1623 H1611 0.930 . S
C1623 C1624 1.399 . S
C1623 C1628 1.399 1_565 S
C1624 C1623 1.399 . S
C1624 C1625 1.376 . S
C1625 H1612 0.930 . S
C1625 C1624 1.376 . S
C1625 C1626 1.388 1_565 S
C1626 H1613 0.930 . S
C1626 C1625 1.388 1_545 S
C1626 C1627 1.390 . S
C1627 C1626 1.390 . S
C1627 C1628 1.394 . S
C1627 C1633 1.465 . S
C1628 C1623 1.399 1_545 S
C1628 C1627 1.394 . S
C1628 C1629 1.516 . S
C1629 C1628 1.516 . S
C1629 C1630 1.502 . S
C1629 C1631 1.561 . S
C1629 C1632 1.526 . S
C1630 H1614 0.959 . S
C1630 H1615 0.959 . S
C1630 H1616 0.961 . S
C1630 C1629 1.502 . S
C1631 H1617 0.960 . S
C1631 H1618 0.961 . S
C1631 H1619 0.959 . S
C1631 C1629 1.561 . S
C1632 C1629 1.526 . S
C1632 C1633 1.396 . S
C1632 C1637 1.390 . S
C1633 C1627 1.465 . S
C1633 C1632 1.396 . S
C1633 C1634 1.399 . S
C1634 H1620 0.929 . S
C1634 C1633 1.399 . S
C1634 C1635 1.385 . S
C1635 H1621 0.931 . S
C1635 C1634 1.385 . S
C1635 C1636 1.389 . S
C1636 C1635 1.389 . S
C1636 C1637 1.387 . S
C1637 H1622 0.930 . S
C1637 C1632 1.390 . S
C1637 C1636 1.387 . S
H1638 C1650 0.930 . S
H1639 C1652 0.931 1_455 S
H1640 C1653 0.930 . S
H1641 C1657 0.959 . S
H1642 C1657 0.959 . S
H1643 C1657 0.961 1_455 S
H1644 C1658 0.960 1_455 S
H1645 C1658 0.961 . S
H1646 C1658 0.959 . S
H1647 C1661 0.929 . S
H1648 C1662 0.931 . S
H1649 C1664 0.930 . S
C1650 H1638 0.930 . S
C1650 C1651 1.399 . S
C1650 C1655 1.399 1_455 S
C1651 C1650 1.399 . S
C1651 C1652 1.377 1_455 S
C1652 H1639 0.931 1_655 S
C1652 C1651 1.377 1_655 S
C1652 C1653 1.387 . S
C1653 H1640 0.930 . S
C1653 C1652 1.387 . S
C1653 C1654 1.390 . S
C1654 C1653 1.390 . S
C1654 C1655 1.394 . S
C1654 C1660 1.465 . S
C1655 C1650 1.399 1_655 S
C1655 C1654 1.394 . S
C1655 C1656 1.516 . S
C1656 C1655 1.516 . S
C1656 C1657 1.502 . S
C1656 C1658 1.561 . S
C1656 C1659 1.526 . S
C1657 H1641 0.959 . S
C1657 H1642 0.959 . S
C1657 H1643 0.961 1_655 S
C1657 C1656 1.502 . S
C1658 H1644 0.960 1_655 S
C1658 H1645 0.961 . S
C1658 H1646 0.959 . S
C1658 C1656 1.561 . S
C1659 C1656 1.526 . S
C1659 C1660 1.396 . S
C1659 C1664 1.390 . S
C1660 C1654 1.465 . S
C1660 C1659 1.396 . S
C1660 C1661 1.399 . S
C1661 H1647 0.929 . S
C1661 C1660 1.399 . S
C1661 C1662 1.385 . S
C1662 H1648 0.931 . S
C1662 C1661 1.385 . S
C1662 C1663 1.389 . S
C1663 C1662 1.389 . S
C1663 C1664 1.387 . S
C1664 H1649 0.930 . S
C1664 C1659 1.390 . S
C1664 C1663 1.387 . S
H1665 C1677 0.930 . S
H1666 C1679 0.930 . S
H1667 C1680 0.930 . S
H1668 C1684 0.959 . S
H1669 C1684 0.959 . S
H1670 C1684 0.961 . S
H1671 C1685 0.960 . S
H1672 C1685 0.961 . S
H1673 C1685 0.959 . S
H1674 C1688 0.929 . S
H1675 C1689 0.931 . S
H1676 C1691 0.930 . S
C1677 H1665 0.930 . S
C1677 C1678 1.399 . S
C1677 C1682 1.399 . S
C1678 C1677 1.399 . S
C1678 C1679 1.376 . S
C1679 H1666 0.930 . S
C1679 C1678 1.376 . S
C1679 C1680 1.388 . S
C1680 H1667 0.930 . S
C1680 C1679 1.388 . S
C1680 C1681 1.390 . S
C1681 C1680 1.390 . S
C1681 C1682 1.394 . S
C1681 C1687 1.465 . S
C1682 C1677 1.399 . S
C1682 C1681 1.394 . S
C1682 C1683 1.516 . S
C1683 C1682 1.516 . S
C1683 C1684 1.502 . S
C1683 C1685 1.561 . S
C1683 C1686 1.526 . S
C1684 H1668 0.959 . S
C1684 H1669 0.959 . S
C1684 H1670 0.961 . S
C1684 C1683 1.502 . S
C1685 H1671 0.960 . S
C1685 H1672 0.961 . S
C1685 H1673 0.959 . S
C1685 C1683 1.561 . S
C1686 C1683 1.526 . S
C1686 C1687 1.396 . S
C1686 C1691 1.390 . S
C1687 C1681 1.465 . S
C1687 C1686 1.396 . S
C1687 C1688 1.399 . S
C1688 H1674 0.929 . S
C1688 C1687 1.399 . S
C1688 C1689 1.385 . S
C1689 H1675 0.931 . S
C1689 C1688 1.385 . S
C1689 C1690 1.389 . S
C1690 C1689 1.389 . S
C1690 C1691 1.387 . S
C1691 H1676 0.930 . S
C1691 C1686 1.390 . S
C1691 C1690 1.387 . S
H1692 C1704 0.930 . S
H1693 C1706 0.930 . S
H1694 C1707 0.930 . S
H1695 C1711 0.959 . S
H1696 C1711 0.959 . S
H1697 C1711 0.961 . S
H1698 C1712 0.960 . S
H1699 C1712 0.961 . S
H1700 C1712 0.959 . S
H1701 C1715 0.929 . S
H1702 C1716 0.931 . S
H1703 C1718 0.930 . S
C1704 H1692 0.930 . S
C1704 C1705 1.399 . S
C1704 C1709 1.399 1_455 S
C1705 C1704 1.399 . S
C1705 C1706 1.376 . S
C1706 H1693 0.930 . S
C1706 C1705 1.376 . S
C1706 C1707 1.388 . S
C1707 H1694 0.930 . S
C1707 C1706 1.388 . S
C1707 C1708 1.390 1_455 S
C1708 C1707 1.390 1_655 S
C1708 C1709 1.394 . S
C1708 C1714 1.465 . S
C1709 C1704 1.399 1_655 S
C1709 C1708 1.394 . S
C1709 C1710 1.516 . S
C1710 C1709 1.516 . S
C1710 C1711 1.502 . S
C1710 C1712 1.561 . S
C1710 C1713 1.526 . S
C1711 H1695 0.959 . S
C1711 H1696 0.959 . S
C1711 H1697 0.961 . S
C1711 C1710 1.502 . S
C1712 H1698 0.960 . S
C1712 H1699 0.961 . S
C1712 H1700 0.959 . S
C1712 C1710 1.561 . S
C1713 C1710 1.526 . S
C1713 C1714 1.396 . S
C1713 C1718 1.390 . S
C1714 C1708 1.465 . S
C1714 C1713 1.396 . S
C1714 C1715 1.399 . S
C1715 H1701 0.929 . S
C1715 C1714 1.399 . S
C1715 C1716 1.385 . S
C1716 H1702 0.931 . S
C1716 C1715 1.385 . S
C1716 C1717 1.389 . S
C1717 C1716 1.389 . S
C1717 C1718 1.387 . S
C1718 H1703 0.930 . S
C1718 C1713 1.390 . S
C1718 C1717 1.387 . S
H1719 C1731 0.930 . S
H1720 C1733 0.930 . S
H1721 C1734 0.930 . S
H1722 C1738 0.959 . S
H1723 C1738 0.959 . S
H1724 C1738 0.961 . S
H1725 C1739 0.960 . S
H1726 C1739 0.961 . S
H1727 C1739 0.959 . S
H1728 C1742 0.929 . S
H1729 C1743 0.931 . S
H1730 C1745 0.930 . S
C1731 H1719 0.930 . S
C1731 C1732 1.399 . S
C1731 C1736 1.399 . S
C1732 C1731 1.399 . S
C1732 C1733 1.376 . S
C1733 H1720 0.930 . S
C1733 C1732 1.376 . S
C1733 C1734 1.388 . S
C1734 H1721 0.930 . S
C1734 C1733 1.388 . S
C1734 C1735 1.390 . S
C1735 C1734 1.390 . S
C1735 C1736 1.394 . S
C1735 C1741 1.465 . S
C1736 C1731 1.399 . S
C1736 C1735 1.394 . S
C1736 C1737 1.516 . S
C1737 C1736 1.516 . S
C1737 C1738 1.502 . S
C1737 C1739 1.561 . S
C1737 C1740 1.526 . S
C1738 H1722 0.959 . S
C1738 H1723 0.959 . S
C1738 H1724 0.961 . S
C1738 C1737 1.502 . S
C1739 H1725 0.960 . S
C1739 H1726 0.961 . S
C1739 H1727 0.959 . S
C1739 C1737 1.561 . S
C1740 C1737 1.526 . S
C1740 C1741 1.396 . S
C1740 C1745 1.390 . S
C1741 C1735 1.465 . S
C1741 C1740 1.396 . S
C1741 C1742 1.399 . S
C1742 H1728 0.929 . S
C1742 C1741 1.399 . S
C1742 C1743 1.385 . S
C1743 H1729 0.931 . S
C1743 C1742 1.385 . S
C1743 C1744 1.389 . S
C1744 C1743 1.389 . S
C1744 C1745 1.387 . S
C1745 H1730 0.930 . S
C1745 C1740 1.390 . S
C1745 C1744 1.387 . S
H1746 C1758 0.930 . S
H1747 C1760 0.930 . S
H1748 C1761 0.926 1_545 S
H1749 C1765 0.959 . S
H1750 C1765 0.959 . S
H1751 C1765 0.961 . S
H1752 C1766 0.960 . S
H1753 C1766 0.961 . S
H1754 C1766 0.959 . S
H1755 C1769 0.929 . S
H1756 C1770 0.931 . S
H1757 C1772 0.930 . S
C1758 H1746 0.930 . S
C1758 C1759 1.399 . S
C1758 C1763 1.399 1_565 S
C1759 C1758 1.399 . S
C1759 C1760 1.376 . S
C1760 H1747 0.930 . S
C1760 C1759 1.376 . S
C1760 C1761 1.430 . S
C1761 H1748 0.926 1_565 S
C1761 C1760 1.430 . S
C1761 C1762 1.354 1_565 S
C1762 C1761 1.354 1_545 S
C1762 C1763 1.394 . S
C1762 C1768 1.465 . S
C1763 C1758 1.399 1_545 S
C1763 C1762 1.394 . S
C1763 C1764 1.516 . S
C1764 C1763 1.516 . S
C1764 C1765 1.502 . S
C1764 C1766 1.561 . S
C1764 C1767 1.526 . S
C1765 H1749 0.959 . S
C1765 H1750 0.959 . S
C1765 H1751 0.961 . S
C1765 C1764 1.502 . S
C1766 H1752 0.960 . S
C1766 H1753 0.961 . S
C1766 H1754 0.959 . S
C1766 C1764 1.561 . S
C1767 C1764 1.526 . S
C1767 C1768 1.396 . S
C1767 C1772 1.390 . S
C1768 C1762 1.465 . S
C1768 C1767 1.396 . S
C1768 C1769 1.399 . S
C1769 H1755 0.929 . S
C1769 C1768 1.399 . S
C1769 C1770 1.385 . S
C1770 H1756 0.931 . S
C1770 C1769 1.385 . S
C1770 C1771 1.389 . S
C1771 C1770 1.389 . S
C1771 C1772 1.387 . S
C1772 H1757 0.930 . S
C1772 C1767 1.390 . S
C1772 C1771 1.387 . S
H1773 C1785 0.930 . S
H1774 C1787 0.930 . S
H1775 C1788 0.930 . S
H1776 C1792 0.959 . S
H1777 C1792 0.959 . S
H1778 C1792 0.961 . S
H1779 C1793 0.960 . S
H1780 C1793 0.961 . S
H1781 C1793 0.959 . S
H1782 C1796 0.929 . S
H1783 C1797 0.931 . S
H1784 C1799 0.930 . S
C1785 H1773 0.930 . S
C1785 C1786 1.399 . S
C1785 C1790 1.399 . S
C1786 C1785 1.399 . S
C1786 C1787 1.376 . S
C1787 H1774 0.930 . S
C1787 C1786 1.376 . S
C1787 C1788 1.388 . S
C1788 H1775 0.930 . S
C1788 C1787 1.388 . S
C1788 C1789 1.390 . S
C1789 C1788 1.390 . S
C1789 C1790 1.394 . S
C1789 C1795 1.465 . S
C1790 C1785 1.399 . S
C1790 C1789 1.394 . S
C1790 C1791 1.516 . S
C1791 C1790 1.516 . S
C1791 C1792 1.502 . S
C1791 C1793 1.561 . S
C1791 C1794 1.526 . S
C1792 H1776 0.959 . S
C1792 H1777 0.959 . S
C1792 H1778 0.961 . S
C1792 C1791 1.502 . S
C1793 H1779 0.960 . S
C1793 H1780 0.961 . S
C1793 H1781 0.959 . S
C1793 C1791 1.561 . S
C1794 C1791 1.526 . S
C1794 C1795 1.396 . S
C1794 C1799 1.390 . S
C1795 C1789 1.465 . S
C1795 C1794 1.396 . S
C1795 C1796 1.399 . S
C1796 H1782 0.929 . S
C1796 C1795 1.399 . S
C1796 C1797 1.385 . S
C1797 H1783 0.931 . S
C1797 C1796 1.385 . S
C1797 C1798 1.389 . S
C1798 C1797 1.389 . S
C1798 C1799 1.387 . S
C1799 H1784 0.930 . S
C1799 C1794 1.390 . S
C1799 C1798 1.387 . S
H1800 C1812 0.930 . S
H1801 C1814 0.930 . S
H1802 C1815 0.930 . S
H1803 C1819 0.959 . S
H1804 C1819 0.959 . S
H1805 C1819 0.961 . S
H1806 C1820 0.960 . S
H1807 C1820 0.961 . S
H1808 C1820 0.959 . S
H1809 C1823 0.929 . S
H1810 C1824 0.931 . S
H1811 C1826 0.930 . S
C1812 H1800 0.930 . S
C1812 C1813 1.399 . S
C1812 C1817 1.399 . S
C1813 C1812 1.399 . S
C1813 C1814 1.376 . S
C1814 H1801 0.930 . S
C1814 C1813 1.376 . S
C1814 C1815 1.388 . S
C1815 H1802 0.930 . S
C1815 C1814 1.388 . S
C1815 C1816 1.390 . S
C1816 C1815 1.390 . S
C1816 C1817 1.394 . S
C1816 C1822 1.465 . S
C1817 C1812 1.399 . S
C1817 C1816 1.394 . S
C1817 C1818 1.516 . S
C1818 C1817 1.516 . S
C1818 C1819 1.502 . S
C1818 C1820 1.561 . S
C1818 C1821 1.526 . S
C1819 H1803 0.959 . S
C1819 H1804 0.959 . S
C1819 H1805 0.961 . S
C1819 C1818 1.502 . S
C1820 H1806 0.960 . S
C1820 H1807 0.961 . S
C1820 H1808 0.959 . S
C1820 C1818 1.561 . S
C1821 C1818 1.526 . S
C1821 C1822 1.396 . S
C1821 C1826 1.390 . S
C1822 C1816 1.465 . S
C1822 C1821 1.396 . S
C1822 C1823 1.399 . S
C1823 H1809 0.929 . S
C1823 C1822 1.399 . S
C1823 C1824 1.385 . S
C1824 H1810 0.931 . S
C1824 C1823 1.385 . S
C1824 C1825 1.389 . S
C1825 C1824 1.389 . S
C1825 C1826 1.387 . S
C1826 H1811 0.930 . S
C1826 C1821 1.390 . S
C1826 C1825 1.387 . S
H1827 C1839 0.930 . S
H1828 C1841 0.930 . S
H1829 C1842 0.930 . S
H1830 C1846 0.959 . S
H1831 C1846 0.959 . S
H1832 C1846 0.961 . S
H1833 C1847 0.960 . S
H1834 C1847 0.961 . S
H1835 C1847 0.959 . S
H1836 C1850 0.929 . S
H1837 C1851 0.931 . S
H1838 C1853 0.930 . S
C1839 H1827 0.930 . S
C1839 C1840 1.399 . S
C1839 C1844 1.399 . S
C1840 C1839 1.399 . S
C1840 C1841 1.376 . S
C1841 H1828 0.930 . S
C1841 C1840 1.376 . S
C1841 C1842 1.388 . S
C1842 H1829 0.930 . S
C1842 C1841 1.388 . S
C1842 C1843 1.390 . S
C1843 C1842 1.390 . S
C1843 C1844 1.394 . S
C1843 C1849 1.465 . S
C1844 C1839 1.399 . S
C1844 C1843 1.394 . S
C1844 C1845 1.516 . S
C1845 C1844 1.516 . S
C1845 C1846 1.502 . S
C1845 C1847 1.561 . S
C1845 C1848 1.526 . S
C1846 H1830 0.959 . S
C1846 H1831 0.959 . S
C1846 H1832 0.961 . S
C1846 C1845 1.502 . S
C1847 H1833 0.960 . S
C1847 H1834 0.961 . S
C1847 H1835 0.959 . S
C1847 C1845 1.561 . S
C1848 C1845 1.526 . S
C1848 C1849 1.396 . S
C1848 C1853 1.390 . S
C1849 C1843 1.465 . S
C1849 C1848 1.396 . S
C1849 C1850 1.399 . S
C1850 H1836 0.929 . S
C1850 C1849 1.399 . S
C1850 C1851 1.385 . S
C1851 H1837 0.931 . S
C1851 C1850 1.385 . S
C1851 C1852 1.389 . S
C1852 C1851 1.389 . S
C1852 C1853 1.387 . S
C1853 H1838 0.930 . S
C1853 C1848 1.390 . S
C1853 C1852 1.387 . S
H1854 C1866 0.930 . S
H1855 C1868 0.930 . S
H1856 C1869 0.930 . S
H1857 C1873 0.959 . S
H1858 C1873 0.959 . S
H1859 C1873 0.961 . S
H1860 C1874 0.960 . S
H1861 C1874 0.961 . S
H1862 C1874 0.959 1_565 S
H1863 C1877 0.929 . S
H1864 C1878 0.931 . S
H1865 C1880 0.930 . S
C1866 H1854 0.930 . S
C1866 C1867 1.399 . S
C1866 C1871 1.399 . S
C1867 C1866 1.399 . S
C1867 C1868 1.376 . S
C1868 H1855 0.930 . S
C1868 C1867 1.376 . S
C1868 C1869 1.388 . S
C1869 H1856 0.930 . S
C1869 C1868 1.388 . S
C1869 C1870 1.390 . S
C1870 C1869 1.390 . S
C1870 C1871 1.394 . S
C1870 C1876 1.465 . S
C1871 C1866 1.399 . S
C1871 C1870 1.394 . S
C1871 C1872 1.516 1_565 S
C1872 C1871 1.516 1_545 S
C1872 C1873 1.502 . S
C1872 C1874 1.561 . S
C1872 C1875 1.526 1_545 S
C1873 H1857 0.959 . S
C1873 H1858 0.959 . S
C1873 H1859 0.961 . S
C1873 C1872 1.502 . S
C1874 H1860 0.960 . S
C1874 H1861 0.961 . S
C1874 H1862 0.959 1_545 S
C1874 C1872 1.561 . S
C1875 C1872 1.526 1_565 S
C1875 C1876 1.396 . S
C1875 C1880 1.390 1_565 S
C1876 C1870 1.465 . S
C1876 C1875 1.396 . S
C1876 C1877 1.399 . S
C1877 H1863 0.929 . S
C1877 C1876 1.399 . S
C1877 C1878 1.385 . S
C1878 H1864 0.931 . S
C1878 C1877 1.385 . S
C1878 C1879 1.389 . S
C1879 C1878 1.389 . S
C1879 C1880 1.387 1_565 S
C1880 H1865 0.930 . S
C1880 C1875 1.390 1_545 S
C1880 C1879 1.387 1_545 S
H1881 C1893 0.930 . S
H1882 C1895 0.939 . S
H1883 C1896 0.930 . S
H1884 C1900 0.959 . S
H1885 C1900 0.959 . S
H1886 C1900 0.961 . S
H1887 C1901 0.960 . S
H1888 C1901 0.961 . S
H1889 C1901 0.959 . S
H1890 C1904 0.929 . S
H1891 C1905 0.931 . S
H1892 C1907 0.930 . S
C1893 H1881 0.930 . S
C1893 C1894 1.399 . S
C1893 C1898 1.399 . S
C1894 C1893 1.399 . S
C1894 C1895 1.365 1_455 S
C1895 H1882 0.939 . S
C1895 C1894 1.365 1_655 S
C1895 C1896 1.392 . S
C1896 H1883 0.930 . S
C1896 C1895 1.392 . S
C1896 C1897 1.390 1_655 S
C1897 C1896 1.390 1_455 S
C1897 C1898 1.394 . S
C1897 C1903 1.465 . S
C1898 C1893 1.399 . S
C1898 C1897 1.394 . S
C1898 C1899 1.516 . S
C1899 C1898 1.516 . S
C1899 C1900 1.502 . S
C1899 C1901 1.561 . S
C1899 C1902 1.526 . S
C1900 H1884 0.959 . S
C1900 H1885 0.959 . S
C1900 H1886 0.961 . S
C1900 C1899 1.502 . S
C1901 H1887 0.960 . S
C1901 H1888 0.961 . S
C1901 H1889 0.959 . S
C1901 C1899 1.561 . S
C1902 C1899 1.526 . S
C1902 C1903 1.396 . S
C1902 C1907 1.390 . S
C1903 C1897 1.465 . S
C1903 C1902 1.396 . S
C1903 C1904 1.399 1_455 S
C1904 H1890 0.929 . S
C1904 C1903 1.399 1_655 S
C1904 C1905 1.385 . S
C1905 H1891 0.931 . S
C1905 C1904 1.385 . S
C1905 C1906 1.389 1_655 S
C1906 C1905 1.389 1_455 S
C1906 C1907 1.387 . S
C1907 H1892 0.930 . S
C1907 C1902 1.390 . S
C1907 C1906 1.387 . S
H1908 C1920 0.930 . S
H1909 C1922 0.930 . S
H1910 C1923 0.930 . S
H1911 C1927 0.959 . S
H1912 C1927 0.959 . S
H1913 C1927 0.961 . S
H1914 C1928 0.960 . S
H1915 C1928 0.961 . S
H1916 C1928 0.959 . S
H1917 C1931 0.929 . S
H1918 C1932 0.931 . S
H1919 C1934 0.930 . S
C1920 H1908 0.930 . S
C1920 C1921 1.399 . S
C1920 C1925 1.399 . S
C1921 C1920 1.399 . S
C1921 C1922 1.376 . S
C1922 H1909 0.930 . S
C1922 C1921 1.376 . S
C1922 C1923 1.388 . S
C1923 H1910 0.930 . S
C1923 C1922 1.388 . S
C1923 C1924 1.390 . S
C1924 C1923 1.390 . S
C1924 C1925 1.394 . S
C1924 C1930 1.465 . S
C1925 C1920 1.399 . S
C1925 C1924 1.394 . S
C1925 C1926 1.516 . S
C1926 C1925 1.516 . S
C1926 C1927 1.502 . S
C1926 C1928 1.561 . S
C1926 C1929 1.526 . S
C1927 H1911 0.959 . S
C1927 H1912 0.959 . S
C1927 H1913 0.961 . S
C1927 C1926 1.502 . S
C1928 H1914 0.960 . S
C1928 H1915 0.961 . S
C1928 H1916 0.959 . S
C1928 C1926 1.561 . S
C1929 C1926 1.526 . S
C1929 C1930 1.396 . S
C1929 C1934 1.390 . S
C1930 C1924 1.465 . S
C1930 C1929 1.396 . S
C1930 C1931 1.399 . S
C1931 H1917 0.929 . S
C1931 C1930 1.399 . S
C1931 C1932 1.385 . S
C1932 H1918 0.931 . S
C1932 C1931 1.385 . S
C1932 C1933 1.389 . S
C1933 C1932 1.389 . S
C1933 C1934 1.387 . S
C1934 H1919 0.930 . S
C1934 C1929 1.390 . S
C1934 C1933 1.387 . S
H1935 C1947 0.930 . S
H1936 C1949 0.930 . S
H1937 C1950 0.930 . S
H1938 C1954 0.959 . S
H1939 C1954 0.959 . S
H1940 C1954 0.961 . S
H1941 C1955 0.960 . S
H1942 C1955 0.961 . S
H1943 C1955 0.959 . S
H1944 C1958 0.929 . S
H1945 C1959 0.931 . S
H1946 C1961 0.930 . S
C1947 H1935 0.930 . S
C1947 C1948 1.399 . S
C1947 C1952 1.399 . S
C1948 C1947 1.399 . S
C1948 C1949 1.376 1_655 S
C1949 H1936 0.930 . S
C1949 C1948 1.376 1_455 S
C1949 C1950 1.388 . S
C1950 H1937 0.930 . S
C1950 C1949 1.388 . S
C1950 C1951 1.390 1_455 S
C1951 C1950 1.390 1_655 S
C1951 C1952 1.394 . S
C1951 C1957 1.465 . S
C1952 C1947 1.399 . S
C1952 C1951 1.394 . S
C1952 C1953 1.516 . S
C1953 C1952 1.516 . S
C1953 C1954 1.502 . S
C1953 C1955 1.561 . S
C1953 C1956 1.526 . S
C1954 H1938 0.959 . S
C1954 H1939 0.959 . S
C1954 H1940 0.961 . S
C1954 C1953 1.502 . S
C1955 H1941 0.960 . S
C1955 H1942 0.961 . S
C1955 H1943 0.959 . S
C1955 C1953 1.561 . S
C1956 C1953 1.526 . S
C1956 C1957 1.396 . S
C1956 C1961 1.390 . S
C1957 C1951 1.465 . S
C1957 C1956 1.396 . S
C1957 C1958 1.399 1_655 S
C1958 H1944 0.929 . S
C1958 C1957 1.399 1_455 S
C1958 C1959 1.385 . S
C1959 H1945 0.931 . S
C1959 C1958 1.385 . S
C1959 C1960 1.389 1_455 S
C1960 C1959 1.389 1_655 S
C1960 C1961 1.387 . S
C1961 H1946 0.930 . S
C1961 C1956 1.390 . S
C1961 C1960 1.387 . S
H1962 C1974 0.930 . S
H1963 C1976 0.930 . S
H1964 C1977 0.930 . S
H1965 C1981 0.959 . S
H1966 C1981 0.959 . S
H1967 C1981 0.961 . S
H1968 C1982 0.960 . S
H1969 C1982 0.961 . S
H1970 C1982 0.959 . S
H1971 C1985 0.929 . S
H1972 C1986 0.931 . S
H1973 C1988 0.930 . S
C1974 H1962 0.930 . S
C1974 C1975 1.399 . S
C1974 C1979 1.399 . S
C1975 C1974 1.399 . S
C1975 C1976 1.376 . S
C1976 H1963 0.930 . S
C1976 C1975 1.376 . S
C1976 C1977 1.388 . S
C1977 H1964 0.930 . S
C1977 C1976 1.388 . S
C1977 C1978 1.390 . S
C1978 C1977 1.390 . S
C1978 C1979 1.394 . S
C1978 C1984 1.465 . S
C1979 C1974 1.399 . S
C1979 C1978 1.394 . S
C1979 C1980 1.516 . S
C1980 C1979 1.516 . S
C1980 C1981 1.502 . S
C1980 C1982 1.561 . S
C1980 C1983 1.526 . S
C1981 H1965 0.959 . S
C1981 H1966 0.959 . S
C1981 H1967 0.961 . S
C1981 C1980 1.502 . S
C1982 H1968 0.960 . S
C1982 H1969 0.961 . S
C1982 H1970 0.959 . S
C1982 C1980 1.561 . S
C1983 C1980 1.526 . S
C1983 C1984 1.396 . S
C1983 C1988 1.390 . S
C1984 C1978 1.465 . S
C1984 C1983 1.396 . S
C1984 C1985 1.399 . S
C1985 H1971 0.929 . S
C1985 C1984 1.399 . S
C1985 C1986 1.385 . S
C1986 H1972 0.931 . S
C1986 C1985 1.385 . S
C1986 C1987 1.389 . S
C1987 C1986 1.389 . S
C1987 C1988 1.387 . S
C1988 H1973 0.930 . S
C1988 C1983 1.390 . S
C1988 C1987 1.387 . S
H1989 C2001 0.930 . S
H1990 C2003 0.930 . S
H1991 C2004 0.930 . S
H1992 C2008 0.959 . S
H1993 C2008 0.959 . S
H1994 C2008 0.961 . S
H1995 C2009 0.960 . S
H1996 C2009 0.961 . S
H1997 C2009 0.959 . S
H1998 C2012 0.929 . S
H1999 C2013 0.931 . S
H2000 C2015 0.930 . S
C2001 H1989 0.930 . S
C2001 C2002 1.399 . S
C2001 C2006 1.399 . S
C2002 C2001 1.399 . S
C2002 C2003 1.376 . S
C2003 H1990 0.930 . S
C2003 C2002 1.376 . S
C2003 C2004 1.388 . S
C2004 H1991 0.930 . S
C2004 C2003 1.388 . S
C2004 C2005 1.390 . S
C2005 C2004 1.390 . S
C2005 C2006 1.394 . S
C2005 C2011 1.465 . S
C2006 C2001 1.399 . S
C2006 C2005 1.394 . S
C2006 C2007 1.516 1_545 S
C2007 C2006 1.516 1_565 S
C2007 C2008 1.502 . S
C2007 C2009 1.561 . S
C2007 C2010 1.526 1_565 S
C2008 H1992 0.959 . S
C2008 H1993 0.959 . S
C2008 H1994 0.961 . S
C2008 C2007 1.502 . S
C2009 H1995 0.960 . S
C2009 H1996 0.961 . S
C2009 H1997 0.959 . S
C2009 C2007 1.561 . S
C2010 C2007 1.526 1_545 S
C2010 C2011 1.396 . S
C2010 C2015 1.390 1_545 S
C2011 C2005 1.465 . S
C2011 C2010 1.396 . S
C2011 C2012 1.399 . S
C2012 H1998 0.929 . S
C2012 C2011 1.399 . S
C2012 C2013 1.385 . S
C2013 H1999 0.931 . S
C2013 C2012 1.385 . S
C2013 C2014 1.389 . S
C2014 C2013 1.389 . S
C2014 C2015 1.387 1_545 S
C2015 H2000 0.930 . S
C2015 C2010 1.390 1_565 S
C2015 C2014 1.387 1_565 S
H2016 C2028 0.930 . S
H2017 C2030 0.930 . S
H2018 C2031 0.930 . S
H2019 C2035 0.959 . S
H2020 C2035 0.959 . S
H2021 C2035 0.961 . S
H2022 C2036 0.960 . S
H2023 C2036 0.961 . S
H2024 C2036 0.959 . S
H2025 C2039 0.929 . S
H2026 C2040 0.931 . S
H2027 C2042 0.930 . S
C2028 H2016 0.930 . S
C2028 C2029 1.399 . S
C2028 C2033 1.399 . S
C2029 C2028 1.399 . S
C2029 C2030 1.376 . S
C2030 H2017 0.930 . S
C2030 C2029 1.376 . S
C2030 C2031 1.388 . S
C2031 H2018 0.930 . S
C2031 C2030 1.388 . S
C2031 C2032 1.390 . S
C2032 C2031 1.390 . S
C2032 C2033 1.394 . S
C2032 C2038 1.465 . S
C2033 C2028 1.399 . S
C2033 C2032 1.394 . S
C2033 C2034 1.516 . S
C2034 C2033 1.516 . S
C2034 C2035 1.502 . S
C2034 C2036 1.561 . S
C2034 C2037 1.526 . S
C2035 H2019 0.959 . S
C2035 H2020 0.959 . S
C2035 H2021 0.961 . S
C2035 C2034 1.502 . S
C2036 H2022 0.960 . S
C2036 H2023 0.961 . S
C2036 H2024 0.959 . S
C2036 C2034 1.561 . S
C2037 C2034 1.526 . S
C2037 C2038 1.396 . S
C2037 C2042 1.390 . S
C2038 C2032 1.465 . S
C2038 C2037 1.396 . S
C2038 C2039 1.399 . S
C2039 H2025 0.929 . S
C2039 C2038 1.399 . S
C2039 C2040 1.385 . S
C2040 H2026 0.931 . S
C2040 C2039 1.385 . S
C2040 C2041 1.389 . S
C2041 C2040 1.389 . S
C2041 C2042 1.387 . S
C2042 H2027 0.930 . S
C2042 C2037 1.390 . S
C2042 C2041 1.387 . S
H2043 C2055 0.930 . S
H2044 C2057 0.930 . S
H2045 C2058 0.930 . S
H2046 C2062 0.959 . S
H2047 C2062 0.959 . S
H2048 C2062 0.961 . S
H2049 C2063 0.960 . S
H2050 C2063 0.961 . S
H2051 C2063 0.959 . S
H2052 C2066 0.929 . S
H2053 C2067 0.931 . S
H2054 C2069 0.930 . S
C2055 H2043 0.930 . S
C2055 C2056 1.399 . S
C2055 C2060 1.399 . S
C2056 C2055 1.399 . S
C2056 C2057 1.376 . S
C2057 H2044 0.930 . S
C2057 C2056 1.376 . S
C2057 C2058 1.388 . S
C2058 H2045 0.930 . S
C2058 C2057 1.388 . S
C2058 C2059 1.390 . S
C2059 C2058 1.390 . S
C2059 C2060 1.394 . S
C2059 C2065 1.465 . S
C2060 C2055 1.399 . S
C2060 C2059 1.394 . S
C2060 C2061 1.516 . S
C2061 C2060 1.516 . S
C2061 C2062 1.502 . S
C2061 C2063 1.561 . S
C2061 C2064 1.526 . S
C2062 H2046 0.959 . S
C2062 H2047 0.959 . S
C2062 H2048 0.961 . S
C2062 C2061 1.502 . S
C2063 H2049 0.960 . S
C2063 H2050 0.961 . S
C2063 H2051 0.959 . S
C2063 C2061 1.561 . S
C2064 C2061 1.526 . S
C2064 C2065 1.396 . S
C2064 C2069 1.390 . S
C2065 C2059 1.465 . S
C2065 C2064 1.396 . S
C2065 C2066 1.399 . S
C2066 H2052 0.929 . S
C2066 C2065 1.399 . S
C2066 C2067 1.385 . S
C2067 H2053 0.931 . S
C2067 C2066 1.385 . S
C2067 C2068 1.389 . S
C2068 C2067 1.389 . S
C2068 C2069 1.387 . S
C2069 H2054 0.930 . S
C2069 C2064 1.390 . S
C2069 C2068 1.387 . S
H2070 C2082 0.930 . S
H2071 C2084 0.930 . S
H2072 C2085 0.930 . S
H2073 C2089 0.959 . S
H2074 C2089 0.959 . S
H2075 C2089 0.961 . S
H2076 C2090 0.960 . S
H2077 C2090 0.961 . S
H2078 C2090 0.959 . S
H2079 C2093 0.929 . S
H2080 C2094 0.931 . S
H2081 C2096 0.930 . S
C2082 H2070 0.930 . S
C2082 C2083 1.399 . S
C2082 C2087 1.399 . S
C2083 C2082 1.399 . S
C2083 C2084 1.376 . S
C2084 H2071 0.930 . S
C2084 C2083 1.376 . S
C2084 C2085 1.388 . S
C2085 H2072 0.930 . S
C2085 C2084 1.388 . S
C2085 C2086 1.390 . S
C2086 C2085 1.390 . S
C2086 C2087 1.394 . S
C2086 C2092 1.465 . S
C2087 C2082 1.399 . S
C2087 C2086 1.394 . S
C2087 C2088 1.516 . S
C2088 C2087 1.516 . S
C2088 C2089 1.502 . S
C2088 C2090 1.561 . S
C2088 C2091 1.526 . S
C2089 H2073 0.959 . S
C2089 H2074 0.959 . S
C2089 H2075 0.961 . S
C2089 C2088 1.502 . S
C2090 H2076 0.960 . S
C2090 H2077 0.961 . S
C2090 H2078 0.959 . S
C2090 C2088 1.561 . S
C2091 C2088 1.526 . S
C2091 C2092 1.396 . S
C2091 C2096 1.390 . S
C2092 C2086 1.465 . S
C2092 C2091 1.396 . S
C2092 C2093 1.399 . S
C2093 H2079 0.929 . S
C2093 C2092 1.399 . S
C2093 C2094 1.385 . S
C2094 H2080 0.931 . S
C2094 C2093 1.385 . S
C2094 C2095 1.389 . S
C2095 C2094 1.389 . S
C2095 C2096 1.387 . S
C2096 H2081 0.930 . S
C2096 C2091 1.390 . S
C2096 C2095 1.387 . S
H2097 C2109 0.930 . S
H2098 C2111 0.930 . S
H2099 C2112 0.930 . S
H2100 C2116 0.959 . S
H2101 C2116 0.959 . S
H2102 C2116 0.961 . S
H2103 C2117 0.960 . S
H2104 C2117 0.961 . S
H2105 C2117 0.959 . S
H2106 C2120 0.929 . S
H2107 C2121 0.931 . S
H2108 C2123 0.930 . S
C2109 H2097 0.930 . S
C2109 C2110 1.399 . S
C2109 C2114 1.399 . S
C2110 C2109 1.399 . S
C2110 C2111 1.376 . S
C2111 H2098 0.930 . S
C2111 C2110 1.376 . S
C2111 C2112 1.388 . S
C2112 H2099 0.930 . S
C2112 C2111 1.388 . S
C2112 C2113 1.390 . S
C2113 C2112 1.390 . S
C2113 C2114 1.394 . S
C2113 C2119 1.465 . S
C2114 C2109 1.399 . S
C2114 C2113 1.394 . S
C2114 C2115 1.516 . S
C2115 C2114 1.516 . S
C2115 C2116 1.502 . S
C2115 C2117 1.561 . S
C2115 C2118 1.526 . S
C2116 H2100 0.959 . S
C2116 H2101 0.959 . S
C2116 H2102 0.961 . S
C2116 C2115 1.502 . S
C2117 H2103 0.960 . S
C2117 H2104 0.961 . S
C2117 H2105 0.959 . S
C2117 C2115 1.561 . S
C2118 C2115 1.526 . S
C2118 C2119 1.396 . S
C2118 C2123 1.390 . S
C2119 C2113 1.465 . S
C2119 C2118 1.396 . S
C2119 C2120 1.399 . S
C2120 H2106 0.929 . S
C2120 C2119 1.399 . S
C2120 C2121 1.385 . S
C2121 H2107 0.931 . S
C2121 C2120 1.385 . S
C2121 C2122 1.389 . S
C2122 C2121 1.389 . S
C2122 C2123 1.387 . S
C2123 H2108 0.930 . S
C2123 C2118 1.390 . S
C2123 C2122 1.387 . S
H2124 C2136 0.930 . S
H2125 C2138 0.930 . S
H2126 C2139 0.930 . S
H2127 C2143 0.959 . S
H2128 C2143 0.959 . S
H2129 C2143 0.961 . S
H2130 C2144 0.960 . S
H2131 C2144 0.961 . S
H2132 C2144 0.959 . S
H2133 C2147 0.929 . S
H2134 C2148 0.931 . S
H2135 C2150 0.930 . S
C2136 H2124 0.930 . S
C2136 C2137 1.399 . S
C2136 C2141 1.399 . S
C2137 C2136 1.399 . S
C2137 C2138 1.376 . S
C2138 H2125 0.930 . S
C2138 C2137 1.376 . S
C2138 C2139 1.388 . S
C2139 H2126 0.930 . S
C2139 C2138 1.388 . S
C2139 C2140 1.390 . S
C2140 C2139 1.390 . S
C2140 C2141 1.394 . S
C2140 C2146 1.465 . S
C2141 C2136 1.399 . S
C2141 C2140 1.394 . S
C2141 C2142 1.516 . S
C2142 C2141 1.516 . S
C2142 C2143 1.502 . S
C2142 C2144 1.561 . S
C2142 C2145 1.526 . S
C2143 H2127 0.959 . S
C2143 H2128 0.959 . S
C2143 H2129 0.961 . S
C2143 C2142 1.502 . S
C2144 H2130 0.960 . S
C2144 H2131 0.961 . S
C2144 H2132 0.959 . S
C2144 C2142 1.561 . S
C2145 C2142 1.526 . S
C2145 C2146 1.396 . S
C2145 C2150 1.390 . S
C2146 C2140 1.465 . S
C2146 C2145 1.396 . S
C2146 C2147 1.399 . S
C2147 H2133 0.929 . S
C2147 C2146 1.399 . S
C2147 C2148 1.385 . S
C2148 H2134 0.931 . S
C2148 C2147 1.385 . S
C2148 C2149 1.389 . S
C2149 C2148 1.389 . S
C2149 C2150 1.387 . S
C2150 H2135 0.930 . S
C2150 C2145 1.390 . S
C2150 C2149 1.387 . S
H2151 C2163 0.930 . S
H2152 C2165 0.930 . S
H2153 C2166 0.930 . S
H2154 C2170 0.959 . S
H2155 C2170 0.959 . S
H2156 C2170 0.961 . S
H2157 C2171 0.960 . S
H2158 C2171 0.961 . S
H2159 C2171 0.959 . S
H2160 C2174 0.929 . S
H2161 C2175 0.931 . S
H2162 C2177 0.930 . S
C2163 H2151 0.930 . S
C2163 C2164 1.399 . S
C2163 C2168 1.399 . S
C2164 C2163 1.399 . S
C2164 C2165 1.376 . S
C2165 H2152 0.930 . S
C2165 C2164 1.376 . S
C2165 C2166 1.388 . S
C2166 H2153 0.930 . S
C2166 C2165 1.388 . S
C2166 C2167 1.390 . S
C2167 C2166 1.390 . S
C2167 C2168 1.394 . S
C2167 C2173 1.465 . S
C2168 C2163 1.399 . S
C2168 C2167 1.394 . S
C2168 C2169 1.516 . S
C2169 C2168 1.516 . S
C2169 C2170 1.502 . S
C2169 C2171 1.561 . S
C2169 C2172 1.526 . S
C2170 H2154 0.959 . S
C2170 H2155 0.959 . S
C2170 H2156 0.961 . S
C2170 C2169 1.502 . S
C2171 H2157 0.960 . S
C2171 H2158 0.961 . S
C2171 H2159 0.959 . S
C2171 C2169 1.561 . S
C2172 C2169 1.526 . S
C2172 C2173 1.396 . S
C2172 C2177 1.390 . S
C2173 C2167 1.465 . S
C2173 C2172 1.396 . S
C2173 C2174 1.399 . S
C2174 H2160 0.929 . S
C2174 C2173 1.399 . S
C2174 C2175 1.385 . S
C2175 H2161 0.931 . S
C2175 C2174 1.385 . S
C2175 C2176 1.389 . S
C2176 C2175 1.389 . S
C2176 C2177 1.387 . S
C2177 H2162 0.930 . S
C2177 C2172 1.390 . S
C2177 C2176 1.387 . S
H2178 C2190 0.930 . S
H2179 C2192 0.930 . S
H2180 C2193 0.930 . S
H2181 C2197 0.959 . S
H2182 C2197 0.959 . S
H2183 C2197 0.961 . S
H2184 C2198 0.960 . S
H2185 C2198 0.961 . S
H2186 C2198 0.959 . S
H2187 C2201 0.929 . S
H2188 C2202 0.931 . S
H2189 C2204 0.930 . S
C2190 H2178 0.930 . S
C2190 C2191 1.399 . S
C2190 C2195 1.399 . S
C2191 C2190 1.399 . S
C2191 C2192 1.376 . S
C2192 H2179 0.930 . S
C2192 C2191 1.376 . S
C2192 C2193 1.388 . S
C2193 H2180 0.930 . S
C2193 C2192 1.388 . S
C2193 C2194 1.390 . S
C2194 C2193 1.390 . S
C2194 C2195 1.394 . S
C2194 C2200 1.465 . S
C2195 C2190 1.399 . S
C2195 C2194 1.394 . S
C2195 C2196 1.516 . S
C2196 C2195 1.516 . S
C2196 C2197 1.502 . S
C2196 C2198 1.561 . S
C2196 C2199 1.526 . S
C2197 H2181 0.959 . S
C2197 H2182 0.959 . S
C2197 H2183 0.961 . S
C2197 C2196 1.502 . S
C2198 H2184 0.960 . S
C2198 H2185 0.961 . S
C2198 H2186 0.959 . S
C2198 C2196 1.561 . S
C2199 C2196 1.526 . S
C2199 C2200 1.396 . S
C2199 C2204 1.390 . S
C2200 C2194 1.465 . S
C2200 C2199 1.396 . S
C2200 C2201 1.399 . S
C2201 H2187 0.929 . S
C2201 C2200 1.399 . S
C2201 C2202 1.385 . S
C2202 H2188 0.931 . S
C2202 C2201 1.385 . S
C2202 C2203 1.389 . S
C2203 C2202 1.389 . S
C2203 C2204 1.387 . S
C2204 H2189 0.930 . S
C2204 C2199 1.390 . S
C2204 C2203 1.387 . S
H2205 C2217 0.930 . S
H2206 C2219 0.930 . S
H2207 C2220 0.930 . S
H2208 C2224 0.959 . S
H2209 C2224 0.959 . S
H2210 C2224 0.961 . S
H2211 C2225 0.960 . S
H2212 C2225 0.961 . S
H2213 C2225 0.959 . S
H2214 C2228 0.929 . S
H2215 C2229 0.931 . S
H2216 C2231 0.930 . S
C2217 H2205 0.930 . S
C2217 C2218 1.399 . S
C2217 C2222 1.399 . S
C2218 C2217 1.399 . S
C2218 C2219 1.376 . S
C2219 H2206 0.930 . S
C2219 C2218 1.376 . S
C2219 C2220 1.388 . S
C2220 H2207 0.930 . S
C2220 C2219 1.388 . S
C2220 C2221 1.390 . S
C2221 C2220 1.390 . S
C2221 C2222 1.394 . S
C2221 C2227 1.465 . S
C2222 C2217 1.399 . S
C2222 C2221 1.394 . S
C2222 C2223 1.516 . S
C2223 C2222 1.516 . S
C2223 C2224 1.502 . S
C2223 C2225 1.561 . S
C2223 C2226 1.526 . S
C2224 H2208 0.959 . S
C2224 H2209 0.959 . S
C2224 H2210 0.961 . S
C2224 C2223 1.502 . S
C2225 H2211 0.960 . S
C2225 H2212 0.961 . S
C2225 H2213 0.959 . S
C2225 C2223 1.561 . S
C2226 C2223 1.526 . S
C2226 C2227 1.396 . S
C2226 C2231 1.390 . S
C2227 C2221 1.465 . S
C2227 C2226 1.396 . S
C2227 C2228 1.399 . S
C2228 H2214 0.929 . S
C2228 C2227 1.399 . S
C2228 C2229 1.385 . S
C2229 H2215 0.931 . S
C2229 C2228 1.385 . S
C2229 C2230 1.389 . S
C2230 C2229 1.389 . S
C2230 C2231 1.387 . S
C2231 H2216 0.930 . S
C2231 C2226 1.390 . S
C2231 C2230 1.387 . S
H2232 C2244 0.930 . S
H2233 C2246 0.930 . S
H2234 C2247 0.930 . S
H2235 C2251 0.959 . S
H2236 C2251 0.959 . S
H2237 C2251 0.961 . S
H2238 C2252 0.960 . S
H2239 C2252 0.961 . S
H2240 C2252 0.959 . S
H2241 C2255 0.929 . S
H2242 C2256 0.931 . S
H2243 C2258 0.930 . S
C2244 H2232 0.930 . S
C2244 C2245 1.399 . S
C2244 C2249 1.399 . S
C2245 C2244 1.399 . S
C2245 C2246 1.376 . S
C2246 H2233 0.930 . S
C2246 C2245 1.376 . S
C2246 C2247 1.388 . S
C2247 H2234 0.930 . S
C2247 C2246 1.388 . S
C2247 C2248 1.390 . S
C2248 C2247 1.390 . S
C2248 C2249 1.394 . S
C2248 C2254 1.465 . S
C2249 C2244 1.399 . S
C2249 C2248 1.394 . S
C2249 C2250 1.516 . S
C2250 C2249 1.516 . S
C2250 C2251 1.502 . S
C2250 C2252 1.561 . S
C2250 C2253 1.526 . S
C2251 H2235 0.959 . S
C2251 H2236 0.959 . S
C2251 H2237 0.961 . S
C2251 C2250 1.502 . S
C2252 H2238 0.960 . S
C2252 H2239 0.961 . S
C2252 H2240 0.959 . S
C2252 C2250 1.561 . S
C2253 C2250 1.526 . S
C2253 C2254 1.396 . S
C2253 C2258 1.390 . S
C2254 C2248 1.465 . S
C2254 C2253 1.396 . S
C2254 C2255 1.399 . S
C2255 H2241 0.929 . S
C2255 C2254 1.399 . S
C2255 C2256 1.385 . S
C2256 H2242 0.931 . S
C2256 C2255 1.385 . S
C2256 C2257 1.389 . S
C2257 C2256 1.389 . S
C2257 C2258 1.387 . S
C2258 H2243 0.930 . S
C2258 C2253 1.390 . S
C2258 C2257 1.387 . S
H2259 C2271 0.930 . S
H2260 C2273 0.930 . S
H2261 C2274 0.930 . S
H2262 C2278 0.959 . S
H2263 C2278 0.959 . S
H2264 C2278 0.961 . S
H2265 C2279 0.960 . S
H2266 C2279 0.961 . S
H2267 C2279 0.959 . S
H2268 C2282 0.929 . S
H2269 C2283 0.931 . S
H2270 C2285 0.930 . S
C2271 H2259 0.930 . S
C2271 C2272 1.399 . S
C2271 C2276 1.399 . S
C2272 C2271 1.399 . S
C2272 C2273 1.376 . S
C2273 H2260 0.930 . S
C2273 C2272 1.376 . S
C2273 C2274 1.388 . S
C2274 H2261 0.930 . S
C2274 C2273 1.388 . S
C2274 C2275 1.390 . S
C2275 C2274 1.390 . S
C2275 C2276 1.394 . S
C2275 C2281 1.465 . S
C2276 C2271 1.399 . S
C2276 C2275 1.394 . S
C2276 C2277 1.516 . S
C2277 C2276 1.516 . S
C2277 C2278 1.502 . S
C2277 C2279 1.561 . S
C2277 C2280 1.526 . S
C2278 H2262 0.959 . S
C2278 H2263 0.959 . S
C2278 H2264 0.961 . S
C2278 C2277 1.502 . S
C2279 H2265 0.960 . S
C2279 H2266 0.961 . S
C2279 H2267 0.959 . S
C2279 C2277 1.561 . S
C2280 C2277 1.526 . S
C2280 C2281 1.396 . S
C2280 C2285 1.390 . S
C2281 C2275 1.465 . S
C2281 C2280 1.396 . S
C2281 C2282 1.399 . S
C2282 H2268 0.929 . S
C2282 C2281 1.399 . S
C2282 C2283 1.385 . S
C2283 H2269 0.931 . S
C2283 C2282 1.385 . S
C2283 C2284 1.389 . S
C2284 C2283 1.389 . S
C2284 C2285 1.387 . S
C2285 H2270 0.930 . S
C2285 C2280 1.390 . S
C2285 C2284 1.387 . S
H2286 C2298 0.930 . S
H2287 C2300 0.930 . S
H2288 C2301 0.930 . S
H2289 C2305 0.959 . S
H2290 C2305 0.959 . S
H2291 C2305 0.961 . S
H2292 C2306 0.960 . S
H2293 C2306 0.961 . S
H2294 C2306 0.959 . S
H2295 C2309 0.929 . S
H2296 C2310 0.931 . S
H2297 C2312 0.930 . S
C2298 H2286 0.930 . S
C2298 C2299 1.399 . S
C2298 C2303 1.399 . S
C2299 C2298 1.399 . S
C2299 C2300 1.376 . S
C2300 H2287 0.930 . S
C2300 C2299 1.376 . S
C2300 C2301 1.388 . S
C2301 H2288 0.930 . S
C2301 C2300 1.388 . S
C2301 C2302 1.390 . S
C2302 C2301 1.390 . S
C2302 C2303 1.394 . S
C2302 C2308 1.465 . S
C2303 C2298 1.399 . S
C2303 C2302 1.394 . S
C2303 C2304 1.516 . S
C2304 C2303 1.516 . S
C2304 C2305 1.502 . S
C2304 C2306 1.561 . S
C2304 C2307 1.526 . S
C2305 H2289 0.959 . S
C2305 H2290 0.959 . S
C2305 H2291 0.961 . S
C2305 C2304 1.502 . S
C2306 H2292 0.960 . S
C2306 H2293 0.961 . S
C2306 H2294 0.959 . S
C2306 C2304 1.561 . S
C2307 C2304 1.526 . S
C2307 C2308 1.396 . S
C2307 C2312 1.390 . S
C2308 C2302 1.465 . S
C2308 C2307 1.396 . S
C2308 C2309 1.399 . S
C2309 H2295 0.929 . S
C2309 C2308 1.399 . S
C2309 C2310 1.385 . S
C2310 H2296 0.931 . S
C2310 C2309 1.385 . S
C2310 C2311 1.389 . S
C2311 C2310 1.389 . S
C2311 C2312 1.387 . S
C2312 H2297 0.930 . S
C2312 C2307 1.390 . S
C2312 C2311 1.387 . S
H2313 C2325 0.930 . S
H2314 C2327 0.930 . S
H2315 C2328 0.930 . S
H2316 C2332 0.959 . S
H2317 C2332 0.959 . S
H2318 C2332 0.961 . S
H2319 C2333 0.960 . S
H2320 C2333 0.961 . S
H2321 C2333 0.959 . S
H2322 C2336 0.929 . S
H2323 C2337 0.931 . S
H2324 C2339 0.930 . S
C2325 H2313 0.930 . S
C2325 C2326 1.399 . S
C2325 C2330 1.399 . S
C2326 C2325 1.399 . S
C2326 C2327 1.376 . S
C2327 H2314 0.930 . S
C2327 C2326 1.376 . S
C2327 C2328 1.388 . S
C2328 H2315 0.930 . S
C2328 C2327 1.388 . S
C2328 C2329 1.390 . S
C2329 C2328 1.390 . S
C2329 C2330 1.394 . S
C2329 C2335 1.465 . S
C2330 C2325 1.399 . S
C2330 C2329 1.394 . S
C2330 C2331 1.516 . S
C2331 C2330 1.516 . S
C2331 C2332 1.502 . S
C2331 C2333 1.561 . S
C2331 C2334 1.526 . S
C2332 H2316 0.959 . S
C2332 H2317 0.959 . S
C2332 H2318 0.961 . S
C2332 C2331 1.502 . S
C2333 H2319 0.960 . S
C2333 H2320 0.961 . S
C2333 H2321 0.959 . S
C2333 C2331 1.561 . S
C2334 C2331 1.526 . S
C2334 C2335 1.396 . S
C2334 C2339 1.390 . S
C2335 C2329 1.465 . S
C2335 C2334 1.396 . S
C2335 C2336 1.399 . S
C2336 H2322 0.929 . S
C2336 C2335 1.399 . S
C2336 C2337 1.385 . S
C2337 H2323 0.931 . S
C2337 C2336 1.385 . S
C2337 C2338 1.389 . S
C2338 C2337 1.389 . S
C2338 C2339 1.387 . S
C2339 H2324 0.930 . S
C2339 C2334 1.390 . S
C2339 C2338 1.387 . S
C895 C528 1.558 . S
C907 C708 1.533 . S
C922 C562 1.522 . S
C934 C728 1.527 . S
C949 C484 1.556 . S
C961 C751 1.572 . S
C976 C445 1.465 . S
C988 C731 1.465 . S
C1015 C748 1.427 . S
C1003 C367 1.439 . S
C1030 C411 1.439 . S
C1042 C711 1.464 . S
C1069 C718 1.567 . S
C1057 C450 1.530 . S
C1096 C738 1.472 . S
C1084 C372 1.528 . S
C1111 C406 1.536 . S
C1123 C743 1.582 . S
C1138 C523 1.441 . S
C1150 C723 1.478 . S
C1165 C567 1.428 . S
C1177 C758 1.443 . S
C1204 C703 1.452 . S
C1192 C489 1.484 . S
C1231 C768 1.521 . S
C1219 C60 1.531 . S
C1246 C94 1.539 . S
C1258 C788 1.472 . S
C1273 C16 1.562 . S
C1285 C811 1.550 . S
C1300 C679 1.477 . S
C1312 C791 1.435 . S
C1327 C601 1.441 . S
C1339 C808 1.420 . S
C1354 C645 1.443 . S
C1366 C771 1.457 . S
C1381 C684 1.546 . S
C1393 C778 1.559 . S
C1408 C606 1.499 . S
C1420 C798 1.517 . S
C1447 C803 1.581 . S
C1435 C640 1.536 . S
C1462 C55 1.481 . S
C1474 C783 1.434 . S
C1501 C818 1.394 . S
C1489 C99 1.444 . S
C1516 C21 1.482 . S
C1528 C763 1.455 . S
C1555 C828 1.531 . S
C1543 C294 1.559 . S
C1570 C328 1.527 . S
C1582 C848 1.533 . S
C1609 C871 1.549 . S
C1597 C250 1.564 . S
C1636 C851 1.465 . S
C1624 C211 1.465 . S
C1663 C868 1.463 . S
C1651 C133 1.455 . S
C1678 C177 1.444 . S
C1690 C831 1.472 . S
C1705 C216 1.565 . S
C1717 C838 1.515 . S
C1732 C138 1.517 . S
C1744 C858 1.497 . S
C1771 C863 1.536 . S
C1759 C172 1.583 . S
C1786 C289 1.481 . S
C1798 C843 1.434 . S
C1813 C333 1.452 . S
C1825 C878 1.404 . S
C1840 C255 1.487 . S
C1852 C823 1.449 . S
C1867 C586 1.266 . S
C1879 C721 1.290 1_565 S
C1906 C741 1.564 . S
C1894 C625 1.681 . S
C1921 C664 1.476 . S
C1933 C750 1.482 . S
C1948 C235 1.695 . S
C1960 C730 1.577 1_655 S
C1975 C274 1.483 . S
C1987 C761 1.449 . S
C2014 C710 1.285 1_545 S
C2002 C313 1.271 . S
C2029 C118 1.295 . S
C2041 C781 1.247 . S
C2056 C157 1.660 . S
C2068 C801 1.618 . S
C2083 C196 1.476 . S
C2095 C810 1.479 . S
C2110 C469 1.695 . S
C2122 C790 1.597 . S
C2149 C821 1.420 . S
C2137 C508 1.483 . S
C2164 C547 1.280 . S
C2176 C770 1.210 . S
C2191 C352 1.264 . S
C2203 C841 1.274 . S
C2218 C391 1.663 . S
C2230 C861 1.612 . S
C2257 C870 1.433 . S
C2245 C430 1.515 . S
C2272 C1 1.656 . S
C2284 C850 1.643 . S
C2299 C40 1.483 . S
C2311 C881 1.447 . S
C2326 C79 1.271 . S
C2338 C830 1.287 . S
