# Generated by pormake.
# Topology ssa, (4,4)-cn, num edge types: 1
# Building blocks:
#     Node 0, Type 0, BuildingBlock: NAWXER_clean_sbu_0, # of connection points: 4
#     Node 1, Type 0, BuildingBlock: NAWXER_clean_sbu_0, # of connection points: 4
#     Node 2, Type 0, BuildingBlock: NAWXER_clean_sbu_0, # of connection points: 4
#     Node 3, Type 0, BuildingBlock: NAWXER_clean_sbu_0, # of connection points: 4
#     Node 4, Type 0, BuildingBlock: NAWXER_clean_sbu_0, # of connection points: 4
#     Node 5, Type 0, BuildingBlock: NAWXER_clean_sbu_0, # of connection points: 4
#     Node 6, Type 1, BuildingBlock: GIZVER_clean_linker_0, # of connection points: 4
#     Node 7, Type 1, BuildingBlock: GIZVER_clean_linker_0, # of connection points: 4
#     Node 8, Type 1, BuildingBlock: GIZVER_clean_linker_0, # of connection points: 4
#     Node 9, Type 1, BuildingBlock: GIZVER_clean_linker_0, # of connection points: 4
#     Node 10, Type 1, BuildingBlock: GIZVER_clean_linker_0, # of connection points: 4
#     Node 11, Type 1, BuildingBlock: GIZVER_clean_linker_0, # of connection points: 4
#     Edge 12, Type (0, 1), BuildingBlock: UVAHIK_clean_linker_0, # of connection points: 2
#     Edge 13, Type (0, 1), BuildingBlock: UVAHIK_clean_linker_0, # of connection points: 2
#     Edge 14, Type (0, 1), BuildingBlock: UVAHIK_clean_linker_0, # of connection points: 2
#     Edge 15, Type (0, 1), BuildingBlock: UVAHIK_clean_linker_0, # of connection points: 2
#     Edge 16, Type (0, 1), BuildingBlock: UVAHIK_clean_linker_0, # of connection points: 2
#     Edge 17, Type (0, 1), BuildingBlock: UVAHIK_clean_linker_0, # of connection points: 2
#     Edge 18, Type (0, 1), BuildingBlock: UVAHIK_clean_linker_0, # of connection points: 2
#     Edge 19, Type (0, 1), BuildingBlock: UVAHIK_clean_linker_0, # of connection points: 2
#     Edge 20, Type (0, 1), BuildingBlock: UVAHIK_clean_linker_0, # of connection points: 2
#     Edge 21, Type (0, 1), BuildingBlock: UVAHIK_clean_linker_0, # of connection points: 2
#     Edge 22, Type (0, 1), BuildingBlock: UVAHIK_clean_linker_0, # of connection points: 2
#     Edge 23, Type (0, 1), BuildingBlock: UVAHIK_clean_linker_0, # of connection points: 2
#     Edge 24, Type (0, 1), BuildingBlock: UVAHIK_clean_linker_0, # of connection points: 2
#     Edge 25, Type (0, 1), BuildingBlock: UVAHIK_clean_linker_0, # of connection points: 2
#     Edge 26, Type (0, 1), BuildingBlock: UVAHIK_clean_linker_0, # of connection points: 2
#     Edge 27, Type (0, 1), BuildingBlock: UVAHIK_clean_linker_0, # of connection points: 2
#     Edge 28, Type (0, 1), BuildingBlock: UVAHIK_clean_linker_0, # of connection points: 2
#     Edge 29, Type (0, 1), BuildingBlock: UVAHIK_clean_linker_0, # of connection points: 2
#     Edge 30, Type (0, 1), BuildingBlock: UVAHIK_clean_linker_0, # of connection points: 2
#     Edge 31, Type (0, 1), BuildingBlock: UVAHIK_clean_linker_0, # of connection points: 2
#     Edge 32, Type (0, 1), BuildingBlock: UVAHIK_clean_linker_0, # of connection points: 2
#     Edge 33, Type (0, 1), BuildingBlock: UVAHIK_clean_linker_0, # of connection points: 2
#     Edge 34, Type (0, 1), BuildingBlock: UVAHIK_clean_linker_0, # of connection points: 2
#     Edge 35, Type (0, 1), BuildingBlock: UVAHIK_clean_linker_0, # of connection points: 2
# Relax obj value: 0.007
# Max RMSD: 0.038
# Mean RMSD: 0.029
data_MOF--net-ssa--node1-NAWXER_clean_sbu_0--node2-GIZVER_clean_linker_0--edge1-UVAHIK_clean_linker_0
_symmetry_space_group_name_H-M    P1
_symmetry_Int_Tables_number       1
_symmetry_cell_setting            triclinic
loop_
_symmetry_equiv_pos_as_xyz
'x, y, z'
_cell_length_a     67.49786
_cell_length_b     67.500272
_cell_length_c     36.63765
_cell_angle_alpha  89.721069
_cell_angle_beta   89.711882
_cell_angle_gamma 119.65014
loop_
_atom_site_label
_atom_site_type_symbol
_atom_site_fract_x
_atom_site_fract_y
_atom_site_fract_z
_atom_type_partial_charge
C0 C 0.04766 0.58561 0.98551 0.0
C1 C 0.99773 0.50717 0.94737 0.0
O2 O 0.03593 0.57236 0.01184 0.0
Zn3 Zn 0.01152 0.53731 0.02054 0.0
O4 O 0.04558 0.5777 0.95349 0.0
Zn5 Zn 0.02308 0.54639 0.96533 0.0
O6 O 0.99283 0.5475 0.97949 0.0
O7 O 0.98501 0.53873 0.03804 0.0
O8 O 0.01134 0.52391 0.92727 0.0
O9 O 0.99655 0.51006 0.98172 0.0
O10 O 0.02744 0.52714 0.05285 0.0
O11 O 0.04217 0.53529 -0.00272 0.0
C12 C 0.98013 0.54422 0.00753 0.0
C13 C 0.0423 0.5285 0.02995 0.0
C14 C 0.52039 0.03011 0.53874 0.0
C15 C 0.54271 0.97332 0.50913 0.0
O16 O 0.52011 0.0151 0.5602 0.0
Zn17 Zn 0.53155 1.00151 0.52541 0.0
O18 O 0.52697 0.03126 0.50556 0.0
Zn19 Zn 0.53874 0.01407 0.47026 0.0
O20 O 0.51449 1.00081 0.43424 0.0
O21 O 0.50358 0.98581 0.48927 0.0
O22 O 0.54484 0.98644 0.48218 0.0
O23 O 0.53529 0.97587 0.53971 0.0
O24 O 0.56572 0.02835 0.51489 0.0
O25 O 0.56868 0.03875 0.45687 0.0
C26 C 0.49893 0.98679 0.45572 0.0
C27 C 0.57764 0.04112 0.48816 0.0
C28 C 0.49311 0.44292 0.98531 0.0
C29 C 0.51284 0.51546 0.0432 0.0
O30 O 0.49278 0.45773 0.96362 0.0
Zn31 Zn 0.49869 0.49191 0.9648 0.0
O32 O 0.49775 0.44776 0.01883 0.0
Zn33 Zn 0.5024 0.47857 0.01603 0.0
O34 O 0.469 0.47297 0.00533 0.0
O35 O 0.46937 0.48911 0.95256 0.0
O36 O 0.51041 0.49763 0.05926 0.0
O37 O 0.50919 0.51518 0.00892 0.0
O38 O 0.52441 0.50711 0.93173 0.0
O39 O 0.53273 0.49546 0.9829 0.0
C40 C 0.45861 0.47793 0.98088 0.0
C41 C 0.53891 0.50542 0.95166 0.0
C42 C 0.04847 0.55327 0.5048 0.0
C43 C 0.99211 0.47373 0.53136 0.0
O44 O 0.04726 0.54218 0.53372 0.0
Zn45 Zn 0.02053 0.51393 0.51996 0.0
O46 O 0.03384 0.5436 0.47937 0.0
Zn47 Zn 1.00484 0.51094 0.46773 0.0
O48 O 0.98026 0.51804 0.4634 0.0
O49 O 0.99452 0.52327 0.51892 0.0
O50 O 0.98947 0.48085 0.50031 0.0
O51 O 1.00813 0.4873 0.55206 0.0
O52 O 0.0344 0.50397 0.4763 0.0
O53 O 0.01553 0.50097 0.42567 0.0
C54 C 0.98051 0.52412 0.4963 0.0
C55 C 0.03136 0.49959 0.4422 0.0
C56 C 0.54048 0.97733 -0.00049 0.0
C57 C 0.51508 0.02915 0.95342 0.0
O58 O 0.54169 0.99184 0.02317 0.0
Zn59 Zn 0.53387 0.01899 0.02729 0.0
O60 O 0.5331 0.97739 0.96765 0.0
Zn61 Zn 0.52777 1.00281 0.97504 0.0
O62 O 0.56142 0.03115 0.98279 0.0
O63 O 0.56318 0.04521 0.03785 0.0
O64 O 0.51559 0.01318 0.93593 0.0
O65 O 0.52149 0.0327 0.98672 0.0
O66 O 0.50925 0.00734 0.06344 0.0
O67 O 0.49986 0.98789 0.01218 0.0
C68 C 0.57268 0.04584 0.00745 0.0
C69 C 0.49464 0.99088 0.04451 0.0
C70 C 0.53459 0.4998 0.5431 0.0
C71 C 0.46094 0.47934 0.4884 0.0
O72 O 0.51755 0.49901 0.55949 0.0
Zn73 Zn 0.49734 0.4897 0.51743 0.0
O74 O 0.53352 0.49548 0.509 0.0
Zn75 Zn 0.51029 0.48653 0.46524 0.0
O76 O 0.52546 0.51329 0.43341 0.0
O77 O 0.51266 0.51988 0.48482 0.0
O78 O 0.4757 0.47966 0.46581 0.0
O79 O 0.46625 0.48402 0.52179 0.0
O80 O 0.49231 0.45648 0.50527 0.0
O81 O 0.50758 0.4576 0.45113 0.0
C82 C 0.52273 0.52695 0.4539 0.0
C83 C 0.49702 0.44655 0.47969 0.0
H84 H 0.2404 0.50534 0.17111 0.0
H85 H 0.22832 0.48702 0.28518 0.0
H86 H 0.17203 0.46696 0.21214 0.0
H87 H 0.27104 0.52379 0.21417 0.0
H88 H 0.2653 0.51949 0.26203 0.0
H89 H 0.27494 0.49376 0.17782 0.0
H90 H 0.30529 0.46097 0.23851 0.0
H91 H 0.27527 0.4952 0.29533 0.0
C92 C 0.22874 0.49619 0.19339 0.0
C93 C 0.20518 0.48504 0.18736 0.0
C94 C 0.23721 0.49654 0.22856 0.0
C95 C 0.22184 0.48588 0.25781 0.0
C96 C 0.19817 0.47491 0.25208 0.0
C97 C 0.19017 0.4741 0.21657 0.0
C98 C 0.26245 0.51043 0.23562 0.0
C99 C 0.27331 0.49556 0.23647 0.0
C100 C 0.27894 0.48871 0.20364 0.0
C101 C 0.29036 0.47605 0.20407 0.0
C102 C 0.2956 0.46985 0.23782 0.0
C103 C 0.29033 0.47678 0.27075 0.0
C104 C 0.27904 0.48951 0.26995 0.0
H105 H 0.75359 0.23775 0.68581 0.0
H106 H 0.75851 0.23945 0.80291 0.0
H107 H 0.7172 0.17582 0.74794 0.0
H108 H 0.7662 0.27315 0.71736 0.0
H109 H 0.76364 0.27313 0.76582 0.0
H110 H 0.79903 0.26561 0.69235 0.0
H111 H 0.8616 0.31385 0.74372 0.0
H112 H 0.79799 0.29422 0.79678 0.0
C113 C 0.74973 0.22887 0.71187 0.0
C114 C 0.7351 0.20525 0.71322 0.0
C115 C 0.75795 0.24131 0.74423 0.0
C116 C 0.75222 0.22976 0.77802 0.0
C117 C 0.73769 0.20601 0.77979 0.0
C118 C 0.72922 0.19396 0.74711 0.0
C119 C 0.77012 0.26697 0.74306 0.0
C120 C 0.79563 0.27732 0.74556 0.0
C121 C 0.80807 0.27573 0.71578 0.0
C122 C 0.83203 0.28868 0.71491 0.0
C123 C 0.84329 0.30259 0.74479 0.0
C124 C 0.83116 0.30474 0.77405 0.0
C125 C 0.80737 0.29172 0.77487 0.0
H126 H 0.51558 0.72653 0.19489 0.0
H127 H 0.53604 0.74067 0.30728 0.0
H128 H 0.55535 0.69988 0.24233 0.0
H129 H 0.49855 0.74253 0.23297 0.0
H130 H 0.5008 0.74077 0.28115 0.0
H131 H 0.52676 0.77752 0.19869 0.0
H132 H 0.55539 0.83897 0.26161 0.0
H133 H 0.52626 0.77385 0.31599 0.0
C134 C 0.52541 0.72583 0.21768 0.0
C135 C 0.53665 0.71318 0.21457 0.0
C136 C 0.52562 0.73631 0.2509 0.0
C137 C 0.53692 0.73364 0.28119 0.0
C138 C 0.54788 0.72057 0.27846 0.0
C139 C 0.54824 0.71115 0.24456 0.0
C140 C 0.51102 0.74732 0.25556 0.0
C141 C 0.52518 0.77295 0.25718 0.0
C142 C 0.53133 0.78602 0.22483 0.0
C143 C 0.54265 0.80994 0.22622 0.0
C144 C 0.54794 0.82061 0.26042 0.0
C145 C 0.54217 0.80787 0.29306 0.0
C146 C 0.53102 0.78397 0.29111 0.0
H147 H 0.77879 0.59105 0.68545 0.0
H148 H 0.7792 0.58468 0.80278 0.0
H149 H 0.7166 0.54837 0.74382 0.0
H150 H 0.81264 0.61615 0.719 0.0
H151 H 0.81152 0.61705 0.76764 0.0
H152 H 0.82738 0.59386 0.68912 0.0
H153 H 0.85922 0.56525 0.75602 0.0
H154 H 0.81822 0.59031 0.80592 0.0
C155 C 0.77005 0.58325 0.71087 0.0
C156 C 0.74641 0.56861 0.71102 0.0
C157 C 0.7822 0.58859 0.74389 0.0
C158 C 0.77026 0.57963 0.77705 0.0
C159 C 0.74664 0.56473 0.77701 0.0
C160 C 0.73504 0.55896 0.74384 0.0
C161 C 0.80743 0.60534 0.7441 0.0
C162 C 0.82104 0.59317 0.74716 0.0
C163 C 0.83028 0.58874 0.71574 0.0
C164 C 0.84435 0.57895 0.71888 0.0
C165 C 0.84821 0.57264 0.75355 0.0
C166 C 0.83875 0.57649 0.7851 0.0
C167 C 0.82526 0.58688 0.78169 0.0
H168 H 0.27882 0.79586 0.19565 0.0
H169 H 0.28198 0.79242 0.31262 0.0
H170 H 0.31159 0.8573 0.2585 0.0
H171 H 0.27582 0.76207 0.22646 0.0
H172 H 0.27621 0.76043 0.27494 0.0
H173 H 0.24085 0.75797 0.19498 0.0
H174 H 0.17856 0.71033 0.24994 0.0
H175 H 0.2412 0.74354 0.30941 0.0
C176 C 0.28305 0.80438 0.22177 0.0
C177 C 0.29507 0.82833 0.22299 0.0
C178 C 0.27812 0.79131 0.25404 0.0
C179 C 0.28469 0.80235 0.28788 0.0
C180 C 0.29634 0.82623 0.28955 0.0
C181 C 0.30094 0.83894 0.25717 0.0
C182 C 0.26942 0.76603 0.25188 0.0
C183 C 0.24375 0.75252 0.25223 0.0
C184 C 0.23166 0.74928 0.21963 0.0
C185 C 0.20802 0.73425 0.21846 0.0
C186 C 0.1966 0.7227 0.25062 0.0
C187 C 0.2084 0.7261 0.2835 0.0
C188 C 0.23191 0.74138 0.28433 0.0
H189 H 0.43816 0.2275 0.79075 0.0
H190 H 0.4323 0.22644 0.67379 0.0
H191 H 0.47627 0.28927 0.72823 0.0
H192 H 0.40519 0.19634 0.75987 0.0
H193 H 0.40337 0.19548 0.7113 0.0
H194 H 0.42483 0.17949 0.79206 0.0
H195 H 0.44443 0.13819 0.72969 0.0
H196 H 0.42693 0.18345 0.6741 0.0
C197 C 0.44347 0.23621 0.76459 0.0
C198 C 0.45894 0.25974 0.7633 0.0
C199 C 0.43397 0.22406 0.73236 0.0
C200 C 0.44016 0.23561 0.69858 0.0
C201 C 0.45565 0.25913 0.69684 0.0
C202 C 0.46525 0.27093 0.72926 0.0
C203 C 0.41539 0.19946 0.73438 0.0
C204 C 0.42503 0.18353 0.73323 0.0
C205 C 0.42832 0.17438 0.7659 0.0
C206 C 0.43496 0.15772 0.76455 0.0
C207 C 0.43907 0.15093 0.73074 0.0
C208 C 0.43626 0.16006 0.69819 0.0
C209 C 0.42952 0.17663 0.69934 0.0
C210 C 0.076 0.5241 0.01419 0.0
C211 C 0.0599 0.52253 0.04029 0.0
C212 C 0.09288 0.51882 0.02352 0.0
C213 C 0.10732 0.48778 0.09189 0.0
H214 H 0.16941 0.52724 0.05814 0.0
C215 C 0.20055 0.51027 0.14276 0.0
C216 C 0.19547 0.48821 0.15321 0.0
C217 C 0.1858 0.51341 0.11986 0.0
C218 C 0.15214 0.516 0.06763 0.0
H219 H 0.04891 0.51408 0.09669 0.0
H220 H 0.07858 0.50502 0.11313 0.0
H221 H 0.13925 0.53502 0.03929 0.0
H222 H 0.17276 0.4522 0.14467 0.0
H223 H 0.14739 0.45761 0.10366 0.0
H224 H 0.12024 0.46935 0.12151 0.0
C225 C 0.07793 0.5101 0.08528 0.0
C226 C 0.13483 0.52037 0.05667 0.0
C227 C 0.061 0.51542 0.07594 0.0
C228 C 0.17697 0.46938 0.13701 0.0
C229 C 0.16232 0.4725 0.11395 0.0
C230 C 0.12458 0.48341 0.1028 0.0
C231 C 0.09409 0.5118 0.05917 0.0
C232 C 0.11229 0.5065 0.06917 0.0
C233 C 0.16581 0.49451 0.10694 0.0
C234 C 0.14727 0.49764 0.09123 0.0
H235 H 0.07563 0.52945 0.9864 0.0
H236 H 0.10487 0.52002 0.00267 0.0
H237 H 0.09009 0.47659 0.10158 0.0
H238 H 0.21456 0.52506 0.15522 0.0
H239 H 0.18902 0.5306 0.11507 0.0
C240 C 0.61326 0.05726 0.52435 0.0
C241 C 0.60101 0.05962 0.49541 0.0
C242 C 0.63339 0.07594 0.53632 0.0
C243 C 0.67913 0.11782 0.55208 0.0
H244 H 0.66674 0.16623 0.57851 0.0
C245 C 0.73644 0.19186 0.64988 0.0
C246 C 0.72377 0.19263 0.67982 0.0
C247 C 0.72528 0.17891 0.61916 0.0
C248 C 0.67062 0.15303 0.57083 0.0
H249 H 0.60084 0.08297 0.4548 0.0
H250 H 0.63599 0.11596 0.47636 0.0
H251 H 0.64134 0.13659 0.53664 0.0
H252 H 0.6898 0.18143 0.70088 0.0
H253 H 0.67032 0.15922 0.64714 0.0
H254 H 0.70778 0.13372 0.58792 0.0
C255 C 0.63003 0.09955 0.48952 0.0
C256 C 0.65621 0.13617 0.54663 0.0
C257 C 0.61002 0.08069 0.47709 0.0
C258 C 0.69989 0.18093 0.67818 0.0
C259 C 0.68879 0.16842 0.64735 0.0
C260 C 0.69373 0.13487 0.57596 0.0
C261 C 0.64153 0.09748 0.51996 0.0
C262 C 0.65979 0.11789 0.53817 0.0
C263 C 0.70133 0.16707 0.61769 0.0
C264 C 0.68904 0.15208 0.58668 0.0
H265 H 0.60673 0.04118 0.53885 0.0
H266 H 0.64171 0.07383 0.56004 0.0
H267 H 0.68234 0.10397 0.54586 0.0
H268 H 0.7549 0.2008 0.65067 0.0
H269 H 0.73529 0.17807 0.59664 0.0
C270 C 0.53414 0.55761 0.04732 0.0
C271 C 0.51877 0.53647 0.06321 0.0
C272 C 0.53703 0.57782 0.06232 0.0
C273 C 0.50585 0.60089 0.10439 0.0
H274 H 0.56297 0.64992 0.14026 0.0
C275 C 0.51155 0.67745 0.18216 0.0
C276 C 0.53254 0.6977 0.18376 0.0
C277 C 0.50954 0.6589 0.16243 0.0
C278 C 0.54697 0.63671 0.1295 0.0
H279 H 0.4946 0.51969 0.10733 0.0
H280 H 0.49916 0.5553 0.13312 0.0
H281 H 0.56104 0.61488 0.11897 0.0
H282 H 0.56733 0.71533 0.16394 0.0
H283 H 0.56349 0.6836 0.12703 0.0
H284 H 0.49182 0.62275 0.11323 0.0
C285 C 0.50923 0.55609 0.10948 0.0
C286 C 0.54587 0.61651 0.11785 0.0
C287 C 0.5068 0.53584 0.09501 0.0
C288 C 0.55091 0.69991 0.16268 0.0
C289 C 0.54878 0.68152 0.14223 0.0
C290 C 0.50703 0.62127 0.11522 0.0
C291 C 0.52412 0.57716 0.09284 0.0
C292 C 0.52524 0.59837 0.10571 0.0
C293 C 0.52842 0.66036 0.14344 0.0
C294 C 0.52756 0.63941 0.1284 0.0
H295 H 0.54342 0.55843 0.02261 0.0
H296 H 0.54855 0.5939 0.04907 0.0
H297 H 0.48985 0.58718 0.09443 0.0
H298 H 0.49732 0.67525 0.19893 0.0
H299 H 0.49363 0.64297 0.16451 0.0
C300 C 0.97098 0.54602 0.54063 0.0
C301 C 0.96517 0.5325 0.5092 0.0
C302 C 0.95646 0.55334 0.55454 0.0
C303 C 0.89697 0.53773 0.56203 0.0
H304 H 0.92231 0.59898 0.60005 0.0
C305 C 0.84491 0.56575 0.65476 0.0
C306 C 0.85653 0.57667 0.68674 0.0
C307 C 0.85657 0.56226 0.62588 0.0
C308 C 0.91492 0.58182 0.58952 0.0
H309 H 0.93958 0.51618 0.46745 0.0
H310 H 0.91369 0.52869 0.49251 0.0
H311 H 0.94584 0.58924 0.56177 0.0
H312 H 0.88949 0.59342 0.71293 0.0
H313 H 0.9097 0.58737 0.66304 0.0
H314 H 0.86637 0.53004 0.59136 0.0
C315 C 0.9297 0.53371 0.50603 0.0
C316 C 0.92839 0.57627 0.56754 0.0
C317 C 0.94452 0.52665 0.49166 0.0
C318 C 0.88006 0.58475 0.68876 0.0
C319 C 0.89168 0.58149 0.65996 0.0
C320 C 0.88346 0.54328 0.58421 0.0
C321 C 0.93557 0.54713 0.53767 0.0
C322 C 0.91985 0.55396 0.55467 0.0
C323 C 0.88009 0.56999 0.62832 0.0
C324 C 0.89261 0.56518 0.59932 0.0
H325 H 0.98679 0.55091 0.55474 0.0
H326 H 0.96133 0.56338 0.57922 0.0
H327 H 0.88997 0.52037 0.5526 0.0
H328 H 0.82675 0.55934 0.65258 0.0
H329 H 0.84719 0.55342 0.60179 0.0
C330 C 0.45963 0.95286 0.04329 0.0
C331 C 0.47178 0.97457 0.05906 0.0
C332 C 0.43795 0.93711 0.056 0.0
C333 C 0.38688 0.92979 0.10029 0.0
H334 H 0.37899 0.87152 0.13245 0.0
C335 C 0.3106 0.86517 0.18779 0.0
C336 C 0.30609 0.84247 0.18976 0.0
C337 C 0.32768 0.88093 0.16458 0.0
C338 C 0.38053 0.88739 0.12268 0.0
H339 H 0.47059 0.99695 0.10016 0.0
H340 H 0.43208 0.9692 0.1222 0.0
H341 H 0.41563 0.90038 0.10856 0.0
H342 H 0.31341 0.81782 0.16415 0.0
H343 H 0.34156 0.84471 0.12166 0.0
H344 H 0.35163 0.9167 0.11363 0.0
C345 C 0.43963 0.96456 0.10003 0.0
C346 C 0.40171 0.90405 0.10946 0.0
C347 C 0.46165 0.9803 0.08767 0.0
C348 C 0.31649 0.83515 0.16388 0.0
C349 C 0.33311 0.85078 0.13995 0.0
C350 C 0.36544 0.91291 0.11294 0.0
C351 C 0.42774 0.94279 0.08441 0.0
C352 C 0.40514 0.92544 0.09847 0.0
C353 C 0.34013 0.87417 0.14195 0.0
C354 C 0.36203 0.8915 0.12464 0.0
H355 H 0.46698 0.94788 0.02126 0.0
H356 H 0.42909 0.92044 0.04354 0.0
H357 H 0.38912 0.94614 0.09152 0.0
H358 H 0.30235 0.87124 0.20651 0.0
H359 H 0.33226 0.89867 0.16676 0.0
C360 C 0.50848 0.4171 0.48935 0.0
C361 C 0.49119 0.42271 0.4854 0.0
C362 C 0.5034 0.39578 0.50357 0.0
C363 C 0.45877 0.34983 0.56162 0.0
H364 H 0.49582 0.32124 0.54701 0.0
C365 C 0.44073 0.2695 0.64187 0.0
C366 C 0.45946 0.2722 0.66231 0.0
C367 C 0.44379 0.28461 0.61335 0.0
C368 C 0.48529 0.32902 0.55117 0.0
H369 H 0.45502 0.41033 0.49054 0.0
H370 H 0.44576 0.37258 0.51265 0.0
H371 H 0.50185 0.35331 0.50797 0.0
H372 H 0.49619 0.29181 0.66734 0.0
H373 H 0.50157 0.31809 0.61702 0.0
H374 H 0.44219 0.3255 0.60464 0.0
C375 C 0.46341 0.38477 0.50656 0.0
C376 C 0.4888 0.34749 0.52899 0.0
C377 C 0.46859 0.40626 0.49334 0.0
C378 C 0.48146 0.28939 0.65208 0.0
C379 C 0.48455 0.30433 0.62321 0.0
C380 C 0.45502 0.33119 0.58321 0.0
C381 C 0.48085 0.37956 0.51353 0.0
C382 C 0.47582 0.35842 0.53429 0.0
C383 C 0.46565 0.30255 0.60439 0.0
C384 C 0.46843 0.3208 0.57863 0.0
H385 H 0.5261 0.42976 0.48396 0.0
H386 H 0.51739 0.39266 0.50878 0.0
H387 H 0.4488 0.358 0.56752 0.0
H388 H 0.42356 0.25657 0.64932 0.0
H389 H 0.42895 0.28279 0.59914 0.0
C390 C 0.53406 0.93313 0.52017 0.0
C391 C 0.54737 0.95441 0.50301 0.0
C392 C 0.53571 0.91418 0.50896 0.0
C393 C 0.57064 0.89583 0.45642 0.0
H394 H 0.51303 0.84864 0.41871 0.0
C395 C 0.56537 0.84112 0.33398 0.0
C396 C 0.54591 0.81973 0.32869 0.0
C397 C 0.56709 0.85419 0.36447 0.0
C398 C 0.52923 0.8612 0.42985 0.0
H399 H 0.57396 0.97302 0.4628 0.0
H400 H 0.57729 0.94019 0.444 0.0
H401 H 0.51378 0.87806 0.45754 0.0
H402 H 0.51374 0.79459 0.35306 0.0
H403 H 0.51724 0.81689 0.40709 0.0
H404 H 0.58621 0.87929 0.42829 0.0
C405 C 0.56546 0.93802 0.4658 0.0
C406 C 0.52962 0.87814 0.45211 0.0
C407 C 0.56346 0.95678 0.4764 0.0
C408 C 0.52902 0.81097 0.35617 0.0
C409 C 0.53087 0.82394 0.38698 0.0
C410 C 0.57023 0.87868 0.43462 0.0
C411 C 0.55109 0.91639 0.48108 0.0
C412 C 0.5504 0.89607 0.46448 0.0
C413 C 0.54952 0.84609 0.39087 0.0
C414 C 0.54962 0.86164 0.4198 0.0
H415 H 0.52142 0.93084 0.5406 0.0
H416 H 0.52446 0.89767 0.52115 0.0
H417 H 0.58687 0.90937 0.46592 0.0
H418 H 0.57894 0.84821 0.31375 0.0
H419 H 0.58166 0.87117 0.36614 0.0
C420 C 0.5689 0.52055 0.90231 0.0
C421 C 0.56262 0.51391 0.93884 0.0
C422 C 0.59085 0.52669 0.88989 0.0
C423 C 0.64966 0.54513 0.91968 0.0
H424 H 0.65321 0.51827 0.82834 0.0
C425 C 0.73151 0.57433 0.8321 0.0
C426 C 0.73276 0.55773 0.81085 0.0
C427 C 0.71274 0.56823 0.85519 0.0
C428 C 0.65253 0.52566 0.85417 0.0
H429 H 0.57476 0.50942 -0.00867 0.0
H430 H 0.61296 0.52017 0.96961 0.0
H431 H 0.61627 0.51048 0.85178 0.0
H432 H 0.71706 0.52162 0.79998 0.0
H433 H 0.68465 0.51083 0.84106 0.0
H434 H 0.6861 0.56044 0.92177 0.0
C435 C 0.60096 0.52064 0.9506 0.0
C436 C 0.63137 0.52149 0.86727 0.0
C437 C 0.579 0.51435 0.96295 0.0
C438 C 0.71643 0.5347 0.81616 0.0
C439 C 0.69777 0.52859 0.83929 0.0
C440 C 0.67095 0.54947 0.90638 0.0
C441 C 0.607 0.52649 0.9138 0.0
C442 C 0.62968 0.53125 0.90005 0.0
C443 C 0.69504 0.54545 0.85731 0.0
C444 C 0.67259 0.53976 0.87345 0.0
H445 H 0.55671 0.52046 0.88309 0.0
H446 H 0.59513 0.53142 0.86145 0.0
H447 H 0.64888 0.55294 0.945 0.0
H448 H 0.74376 0.59223 0.82809 0.0
H449 H 0.71114 0.58161 0.86872 0.0
C450 C 0.06445 0.5912 0.47442 0.0
C451 C 0.0675 0.57661 0.49831 0.0
C452 C 0.08307 0.61161 0.46247 0.0
C453 C 0.12537 0.65752 0.44771 0.0
H454 H 0.17066 0.64577 0.40281 0.0
C455 C 0.19669 0.72183 0.34961 0.0
C456 C 0.1964 0.7119 0.31586 0.0
C457 C 0.18436 0.70809 0.37946 0.0
C458 C 0.15832 0.64941 0.4156 0.0
H459 H 0.09221 0.57247 0.53007 0.0
H460 H 0.12506 0.60817 0.50847 0.0
H461 H 0.14228 0.61756 0.44449 0.0
H462 H 0.18395 0.68003 0.28706 0.0
H463 H 0.16278 0.65608 0.33913 0.0
H464 H 0.14084 0.68893 0.41732 0.0
C465 C 0.10816 0.60379 0.49927 0.0
C466 C 0.1422 0.63337 0.43971 0.0
C467 C 0.08939 0.58347 0.51176 0.0
C468 C 0.18426 0.68808 0.31274 0.0
C469 C 0.17234 0.67439 0.3426 0.0
C470 C 0.14169 0.67371 0.4239 0.0
C471 C 0.10522 0.61774 0.47372 0.0
C472 C 0.12504 0.63688 0.45496 0.0
C473 C 0.17206 0.68423 0.37616 0.0
C474 C 0.15777 0.66939 0.40658 0.0
H475 H 0.04773 0.58635 0.46371 0.0
H476 H 0.08025 0.62185 0.44253 0.0
H477 H 0.11241 0.6607 0.45923 0.0
H478 H 0.20596 0.74019 0.35259 0.0
H479 H 0.1844 0.71607 0.40506 0.0
C480 C 0.51378 0.06538 0.95061 0.0
C481 C 0.50675 0.04356 0.93655 0.0
C482 C 0.50492 0.07868 0.93687 0.0
C483 C 0.45489 0.07479 0.89371 0.0
H484 H 0.49507 0.13671 0.8602 0.0
C485 C 0.4252 0.12233 0.79901 0.0
C486 C 0.43713 0.14624 0.79749 0.0
C487 C 0.43161 0.11066 0.82335 0.0
C488 C 0.48352 0.11968 0.8703 0.0
H489 H 0.48505 0.01859 0.89696 0.0
H490 H 0.46912 0.04182 0.87328 0.0
H491 H 0.51119 0.11448 0.8859 0.0
H492 H 0.46368 0.17681 0.82232 0.0
H493 H 0.47449 0.1564 0.86631 0.0
H494 H 0.42718 0.07992 0.87877 0.0
C495 C 0.48162 0.04857 0.89485 0.0
C496 C 0.49282 0.10688 0.88465 0.0
C497 C 0.49084 0.03539 0.90814 0.0
C498 C 0.45419 0.15835 0.82315 0.0
C499 C 0.46057 0.14662 0.84785 0.0
C500 C 0.44555 0.08771 0.87997 0.0
C501 C 0.48853 0.07029 0.90925 0.0
C502 C 0.47861 0.08417 0.89571 0.0
C503 C 0.45005 0.12263 0.84705 0.0
C504 C 0.45974 0.11016 0.8672 0.0
H505 H 0.52608 0.07216 0.97246 0.0
H506 H 0.51049 0.09534 0.94845 0.0
H507 H 0.44357 0.05744 0.90275 0.0
H508 H 0.41199 0.11266 0.77935 0.0
H509 H 0.42316 0.09227 0.82148 0.0
C510 C 0.42208 0.47561 0.49711 0.0
C511 C 0.43834 0.47434 0.47455 0.0
C512 C 0.40137 0.47208 0.48262 0.0
C513 C 0.3645 0.44885 0.40063 0.0
H514 H 0.34375 0.49135 0.4255 0.0
C515 C 0.31456 0.49171 0.32612 0.0
C516 C 0.29931 0.473 0.30529 0.0
C517 C 0.32674 0.48884 0.35445 0.0
C518 C 0.34932 0.47935 0.41815 0.0
H519 H 0.44535 0.468 0.4192 0.0
H520 H 0.40991 0.46234 0.39417 0.0
H521 H 0.37494 0.49181 0.45949 0.0
H522 H 0.28336 0.43643 0.29937 0.0
H523 H 0.30366 0.4311 0.35003 0.0
H524 H 0.34032 0.43749 0.35764 0.0
C525 C 0.41273 0.46559 0.42313 0.0
C526 C 0.36703 0.47941 0.43803 0.0
C527 C 0.43326 0.46907 0.4375 0.0
C528 C 0.29517 0.45114 0.31495 0.0
C529 C 0.307 0.44818 0.34375 0.0
C530 C 0.34706 0.44897 0.38053 0.0
C531 C 0.39653 0.46713 0.44535 0.0
C532 C 0.37533 0.46465 0.42868 0.0
C533 C 0.32369 0.46711 0.3629 0.0
C534 C 0.33963 0.46466 0.38826 0.0
H535 H 0.42547 0.47964 0.52577 0.0
H536 H 0.3892 0.47326 0.50055 0.0
H537 H 0.37009 0.43687 0.39321 0.0
H538 H 0.31821 0.50879 0.31891 0.0
H539 H 0.33957 0.50391 0.36807 0.0
C540 C 0.9762 0.48308 0.89423 0.0
C541 C 0.98177 0.48486 0.93139 0.0
C542 C 0.95875 0.46263 0.88042 0.0
C543 C 0.92507 0.40102 0.89593 0.0
H544 H 0.87927 0.40596 0.83937 0.0
C545 C 0.84756 0.32157 0.83505 0.0
C546 C 0.84342 0.32435 0.79845 0.0
C547 C 0.86227 0.34063 0.85572 0.0
C548 C 0.89197 0.40426 0.85492 0.0
H549 H 0.9743 0.46631 0.9828 0.0
H550 H 0.94414 0.43048 0.95838 0.0
H551 H 0.9111 0.44015 0.86461 0.0
H552 H 0.85035 0.34876 0.75493 0.0
H553 H 0.87599 0.38178 0.79037 0.0
H554 H 0.90641 0.36522 0.88513 0.0
C555 C 0.95311 0.44495 0.94011 0.0
C556 C 0.9102 0.42386 0.8693 0.0
C557 C 0.97033 0.46548 0.95405 0.0
C558 C 0.85327 0.34632 0.78325 0.0
C559 C 0.86786 0.36523 0.80368 0.0
C560 C 0.90693 0.38138 0.88113 0.0
C561 C 0.94679 0.44351 0.9034 0.0
C562 C 0.92712 0.42248 0.8894 0.0
C563 C 0.87291 0.36265 0.83997 0.0
C564 C 0.8904 0.38285 0.85986 0.0
H565 H 0.98467 0.49772 0.87615 0.0
H566 H 0.95435 0.46184 0.85186 0.0
H567 H 0.93791 0.39954 0.91142 0.0
H568 H 0.84016 0.30468 0.84711 0.0
H569 H 0.86565 0.33812 0.88372 0.0
C570 C 0.94338 0.52966 0.97617 0.0
C571 C 0.95864 0.54431 0.00227 0.0
C572 C 0.92459 0.53165 0.96594 0.0
C573 C 0.90957 0.57516 0.9522 0.0
H574 H 0.85126 0.52385 0.92533 0.0
C575 C 0.85167 0.58674 0.84995 0.0
C576 C 0.84439 0.57084 0.82145 0.0
C577 C 0.8603 0.58277 0.88215 0.0
C578 C 0.86741 0.53839 0.93275 0.0
H579 H 0.96619 0.57208 0.03905 0.0
H580 H 0.93332 0.57609 0.02028 0.0
H581 H 0.87658 0.51784 0.96552 0.0
H582 H 0.83878 0.53761 0.80545 0.0
H583 H 0.85418 0.53087 0.86093 0.0
H584 H 0.90127 0.59547 0.91744 0.0
C585 C 0.93575 0.56281 0.00829 0.0
C586 C 0.88184 0.53495 0.95592 0.0
C587 C 0.95442 0.56048 0.01913 0.0
C588 C 0.84456 0.55031 0.82674 0.0
C589 C 0.85314 0.54634 0.85882 0.0
C590 C 0.89522 0.57858 0.92879 0.0
C591 C 0.92092 0.54866 0.98105 0.0
C592 C 0.90346 0.55314 0.96464 0.0
C593 C 0.86174 0.56279 0.88653 0.0
C594 C 0.8744 0.56006 0.91753 0.0
H595 H 0.94649 0.51718 0.96269 0.0
H596 H 0.91373 0.52074 0.94449 0.0
H597 H 0.92622 0.58946 0.95818 0.0
H598 H 0.85181 0.60276 0.84664 0.0
H599 H 0.86652 0.59567 0.90312 0.0
C600 C 0.4699 0.96909 0.40585 0.0
C601 C 0.47547 0.97131 0.44304 0.0
C602 C 0.44777 0.95348 0.39461 0.0
C603 C 0.39652 0.90076 0.42545 0.0
H604 H 0.3676 0.91429 0.34555 0.0
C605 C 0.30906 0.85886 0.33253 0.0
C606 C 0.30845 0.83844 0.32291 0.0
C607 C 0.32625 0.8745 0.3551 0.0
C608 C 0.37522 0.91034 0.36838 0.0
H609 H 0.46193 0.95945 0.49769 0.0
H610 H 0.4236 0.93268 0.47814 0.0
H611 H 0.40458 0.94372 0.36715 0.0
H612 H 0.32383 0.81731 0.33229 0.0
H613 H 0.35367 0.84442 0.37182 0.0
H614 H 0.36721 0.86734 0.42653 0.0
C615 C 0.43633 0.94256 0.45756 0.0
C616 C 0.39661 0.92712 0.38032 0.0
C617 C 0.45835 0.95803 0.46873 0.0
C618 C 0.32374 0.83281 0.33952 0.0
C619 C 0.34095 0.84846 0.36206 0.0
C620 C 0.37514 0.88398 0.41348 0.0
C621 C 0.43082 0.93987 0.42038 0.0
C622 C 0.40764 0.92244 0.40868 0.0
C623 C 0.34312 0.86997 0.36844 0.0
C624 C 0.36438 0.88847 0.38448 0.0
H625 H 0.4827 0.97906 0.38542 0.0
H626 H 0.4441 0.95167 0.36569 0.0
H627 H 0.40464 0.89652 0.44718 0.0
H628 H 0.29736 0.86352 0.32022 0.0
H629 H 0.32716 0.89071 0.36027 0.0
C630 C 0.48389 0.41641 0.933 0.0
C631 C 0.48949 0.42109 0.97004 0.0
C632 C 0.48258 0.39718 0.91686 0.0
C633 C 0.47464 0.34029 0.933 0.0
H634 H 0.50347 0.35101 0.83758 0.0
C635 C 0.44974 0.2711 0.82324 0.0
C636 C 0.46612 0.27347 0.79715 0.0
C637 C 0.45545 0.28709 0.85107 0.0
C638 C 0.49569 0.34764 0.86447 0.0
H639 H 0.49718 0.40859 0.01959 0.0
H640 H 0.4947 0.37456 -0.00892 0.0
H641 H 0.50755 0.38303 0.87309 0.0
H642 H 0.50176 0.29312 0.7817 0.0
H643 H 0.51191 0.32079 0.83072 0.0
H644 H 0.46242 0.30473 0.92389 0.0
C645 C 0.49145 0.38603 0.97471 0.0
C646 C 0.49779 0.36603 0.88463 0.0
C647 C 0.49287 0.40548 -0.00902 0.0
C648 C 0.48873 0.29107 0.80117 0.0
C649 C 0.49449 0.30695 0.82915 0.0
C650 C 0.47247 0.32177 0.91268 0.0
C651 C 0.4868 0.38202 0.93726 0.0
C652 C 0.48678 0.36253 0.91862 0.0
C653 C 0.4777 0.30572 0.85347 0.0
C654 C 0.48256 0.32521 0.87778 0.0
H655 H 0.48093 0.42787 0.91605 0.0
H656 H 0.47844 0.39427 0.88815 0.0
H657 H 0.46601 0.33712 0.95916 0.0
H658 H 0.43212 0.25783 0.82064 0.0
H659 H 0.44203 0.28568 0.86907 0.0
C660 C 0.06906 0.50188 0.43652 0.0
C661 C 0.0469 0.49349 0.42314 0.0
C662 C 0.08377 0.49532 0.42096 0.0
C663 C 0.09292 0.46919 0.33834 0.0
H664 H 0.13792 0.46643 0.40051 0.0
C665 C 0.15954 0.44914 0.2793 0.0
C666 C 0.18155 0.46808 0.28285 0.0
C667 C 0.1416 0.44694 0.30134 0.0
C668 C 0.12532 0.46695 0.38295 0.0
H669 H 0.02271 0.47176 0.38275 0.0
H670 H 0.04824 0.45954 0.35597 0.0
H671 H 0.10846 0.4728 0.4276 0.0
H672 H 0.20247 0.49796 0.3154 0.0
H673 H 0.17131 0.49351 0.35487 0.0
H674 H 0.10984 0.46314 0.29378 0.0
C675 C 0.05445 0.47163 0.37811 0.0
C676 C 0.10856 0.47084 0.3983 0.0
C677 C 0.03979 0.47858 0.39339 0.0
C678 C 0.1858 0.48312 0.31199 0.0
C679 C 0.1679 0.48067 0.33447 0.0
C680 C 0.10941 0.46486 0.32312 0.0
C681 C 0.0766 0.47978 0.39197 0.0
C682 C 0.09256 0.47275 0.37608 0.0
C683 C 0.14548 0.46329 0.32798 0.0
C684 C 0.12609 0.46427 0.34517 0.0
H685 H 0.07513 0.51366 0.45914 0.0
H686 H 0.10087 0.50265 0.43164 0.0
H687 H 0.08114 0.47076 0.32023 0.0
H688 H 0.15581 0.43701 0.25753 0.0
H689 H 0.12449 0.43319 0.29621 0.0
C690 C 0.60499 0.08584 0.01434 0.0
C691 C 0.59611 0.0641 -0.00111 0.0
C692 C 0.62562 0.10398 0.00139 0.0
C693 C 0.67716 0.11866 0.94577 0.0
H694 H 0.66959 0.16837 0.90873 0.0
C695 C 0.72554 0.17159 0.82001 0.0
C696 C 0.72932 0.19389 0.81543 0.0
C697 C 0.71422 0.15875 0.85099 0.0
C698 C 0.67241 0.15503 0.91961 0.0
H699 H 0.60251 0.04385 0.95984 0.0
H700 H 0.63856 0.07527 0.93782 0.0
H701 H 0.64087 0.1401 0.94939 0.0
H702 H 0.72548 0.22069 0.84125 0.0
H703 H 0.7066 0.19862 0.89594 0.0
H704 H 0.70842 0.13324 0.91533 0.0
C705 C 0.62964 0.07843 0.95968 0.0
C706 C 0.65585 0.13877 0.94294 0.0
C707 C 0.6089 0.06047 0.97211 0.0
C708 C 0.72295 0.2036 0.84385 0.0
C709 C 0.71181 0.19081 0.87505 0.0
C710 C 0.69387 0.13507 0.92276 0.0
C711 C 0.63788 0.10051 0.97336 0.0
C712 C 0.65765 0.11999 0.95519 0.0
C713 C 0.7066 0.16795 0.87846 0.0
C714 C 0.69128 0.153 0.90825 0.0
H715 H 0.59542 0.08912 0.03494 0.0
H716 H 0.63164 0.12084 0.01245 0.0
H717 H 0.67908 0.10447 0.95518 0.0
H718 H 0.73058 0.16372 0.79897 0.0
H719 H 0.71041 0.14119 0.85234 0.0
C720 C 0.54447 0.56081 0.4119 0.0
C721 C 0.53021 0.55072 0.44247 0.0
C722 C 0.55066 0.58314 0.40121 0.0
C723 C 0.52834 0.62197 0.40245 0.0
H724 H 0.58986 0.67012 0.38078 0.0
C725 C 0.54009 0.7044 0.34202 0.0
C726 C 0.55464 0.71231 0.31136 0.0
C727 C 0.54149 0.68939 0.3669 0.0
C728 C 0.57255 0.65685 0.38647 0.0
H729 H 0.51163 0.55633 0.48608 0.0
H730 H 0.52202 0.5948 0.46692 0.0
H731 H 0.5834 0.63325 0.40372 0.0
H732 H 0.58451 0.71374 0.28638 0.0
H733 H 0.58607 0.68661 0.32804 0.0
H734 H 0.51702 0.64445 0.38338 0.0
C735 C 0.52852 0.58556 0.45143 0.0
C736 C 0.56891 0.63577 0.39963 0.0
C737 C 0.52261 0.56351 0.46236 0.0
C738 C 0.57255 0.70736 0.30906 0.0
C739 C 0.57357 0.69186 0.33332 0.0
C740 C 0.53188 0.64277 0.38872 0.0
C741 C 0.5424 0.59552 0.4206 0.0
C742 C 0.54674 0.61813 0.40751 0.0
C743 C 0.55709 0.68152 0.36118 0.0
C744 C 0.55401 0.66053 0.3802 0.0
H745 H 0.55067 0.55143 0.39614 0.0
H746 H 0.56127 0.59044 0.37715 0.0
H747 H 0.51104 0.60855 0.40796 0.0
H748 H 0.52621 0.708 0.34507 0.0
H749 H 0.52919 0.68266 0.38906 0.0
C750 C 0.495 0.03905 0.57699 0.0
C751 C 0.51245 0.04584 0.55078 0.0
C752 C 0.48598 0.05325 0.58526 0.0
C753 C 0.49887 0.11148 0.59007 0.0
H754 H 0.43406 0.08833 0.57805 0.0
C755 C 0.45947 0.1638 0.64273 0.0
C756 C 0.43975 0.1509 0.66382 0.0
C757 C 0.46702 0.15291 0.61845 0.0
C758 C 0.45216 0.09507 0.5818 0.0
H759 H 0.53475 0.07303 0.51365 0.0
H760 H 0.51959 0.09821 0.52935 0.0
H761 H 0.45068 0.06477 0.56065 0.0
H762 H 0.4113 0.11715 0.67401 0.0
H763 H 0.4244 0.09812 0.6327 0.0
H764 H 0.50039 0.14104 0.61355 0.0
C765 C 0.51263 0.08176 0.54284 0.0
C766 C 0.46163 0.08155 0.57175 0.0
C767 C 0.52126 0.06737 0.53393 0.0
C768 C 0.42649 0.12742 0.6577 0.0
C769 C 0.43409 0.11653 0.63388 0.0
C770 C 0.48935 0.12481 0.60091 0.0
C771 C 0.49467 0.07464 0.56808 0.0
C772 C 0.48496 0.0895 0.57646 0.0
C773 C 0.45509 0.12895 0.61537 0.0
C774 C 0.46575 0.11658 0.59772 0.0
H775 H 0.48781 0.02248 0.59015 0.0
H776 H 0.47222 0.04754 0.60506 0.0
H777 H 0.51694 0.11793 0.59386 0.0
H778 H 0.47002 0.18193 0.64727 0.0
H779 H 0.48294 0.16312 0.6039 0.0
C780 C 0.4203 0.45201 0.00719 0.0
C781 C 0.43488 0.47223 0.98827 0.0
C782 C 0.39967 0.44854 0.02174 0.0
C783 C 0.36031 0.47271 0.02818 0.0
H784 H 0.35161 0.44808 0.12648 0.0
C785 C 0.31103 0.48885 0.14391 0.0
C786 C 0.29925 0.4714 0.16987 0.0
C787 C 0.32315 0.4859 0.11535 0.0
C788 C 0.35343 0.45458 0.09885 0.0
H789 H 0.43887 0.50414 0.9678 0.0
H790 H 0.40317 0.49857 -0.00554 0.0
H791 H 0.38087 0.44838 0.08779 0.0
H792 H 0.28926 0.43651 0.18432 0.0
H793 H 0.31033 0.43132 0.13445 0.0
H794 H 0.33334 0.47987 0.04049 0.0
C795 C 0.40731 0.48507 -0.00265 0.0
C796 C 0.37026 0.45471 0.07648 0.0
C797 C 0.4278 0.48831 0.98204 0.0
C798 C 0.29849 0.45039 0.1651 0.0
C799 C 0.31058 0.44744 0.13659 0.0
C800 C 0.3435 0.47273 0.05082 0.0
C801 C 0.39343 0.46552 0.01866 0.0
C802 C 0.37409 0.4639 0.0409 0.0
C803 C 0.32374 0.46544 0.1122 0.0
C804 C 0.34001 0.4638 0.08653 0.0
H805 H 0.42532 0.43926 0.01207 0.0
H806 H 0.38911 0.43294 0.0369 0.0
H807 H 0.36262 0.47974 0.00086 0.0
H808 H 0.31211 0.50531 0.14699 0.0
H809 H 0.33323 0.50015 0.09718 0.0
C810 C 0.98038 0.43978 0.5729 0.0
C811 C 0.97626 0.44981 0.54227 0.0
C812 C 0.96493 0.41715 0.58273 0.0
C813 C 0.90468 0.37638 0.57809 0.0
H814 H 0.92115 0.33097 0.60591 0.0
C815 C 0.8376 0.29712 0.64791 0.0
C816 C 0.84536 0.29242 0.68058 0.0
C817 C 0.8531 0.30985 0.62021 0.0
C818 C 0.91622 0.34344 0.59836 0.0
H819 H 0.95293 0.44376 0.49758 0.0
H820 H 0.92601 0.40469 0.51519 0.0
H821 H 0.95034 0.36788 0.58159 0.0
H822 H 0.87454 0.29332 0.70666 0.0
H823 H 0.90165 0.31663 0.65992 0.0
H824 H 0.87119 0.35321 0.5969 0.0
C825 C 0.94117 0.41424 0.53145 0.0
C826 C 0.93298 0.36456 0.58442 0.0
C827 C 0.95663 0.43665 0.52143 0.0
C828 C 0.86818 0.29739 0.68229 0.0
C829 C 0.88378 0.3107 0.65516 0.0
C830 C 0.88809 0.35556 0.59255 0.0
C831 C 0.94503 0.40432 0.56234 0.0
C832 C 0.92737 0.38132 0.5747 0.0
C833 C 0.87667 0.31862 0.62512 0.0
C834 C 0.89363 0.33887 0.60359 0.0
H835 H 0.99541 0.44943 0.58934 0.0
H836 H 0.96817 0.40992 0.6069 0.0
H837 H 0.89993 0.38909 0.57113 0.0
H838 H 0.82008 0.29325 0.64521 0.0
H839 H 0.84679 0.31457 0.59652 0.0
C840 C 0.53232 0.93691 0.00162 0.0
C841 C 0.54628 0.95986 0.01093 0.0
C842 C 0.53527 0.91989 0.01859 0.0
C843 C 0.55979 0.91173 0.1041 0.0
H844 H 0.54269 0.85256 0.06329 0.0
C845 C 0.56757 0.84502 0.18914 0.0
C846 C 0.54719 0.8241 0.19266 0.0
C847 C 0.57021 0.86045 0.16149 0.0
C848 C 0.54756 0.86905 0.07493 0.0
H849 H 0.57542 0.98335 0.04256 0.0
H850 H 0.58158 0.95405 0.07032 0.0
H851 H 0.54307 0.88235 0.02429 0.0
H852 H 0.51427 0.80232 0.16817 0.0
H853 H 0.51905 0.82929 0.11946 0.0
H854 H 0.56429 0.89854 0.15457 0.0
C855 C 0.5676 0.94884 0.05145 0.0
C856 C 0.54769 0.8861 0.05269 0.0
C857 C 0.56427 0.96571 0.03526 0.0
C858 C 0.53023 0.81823 0.1661 0.0
C859 C 0.53294 0.83368 0.13823 0.0
C860 C 0.55997 0.89489 0.12602 0.0
C861 C 0.55253 0.92561 0.04466 0.0
C862 C 0.55367 0.90766 0.06709 0.0
C863 C 0.5526 0.85529 0.13653 0.0
C864 C 0.55373 0.87333 0.11183 0.0
H865 H 0.51819 0.93199 0.98313 0.0
H866 H 0.52322 0.90225 0.01272 0.0
H867 H 0.5638 0.92775 0.11671 0.0
H868 H 0.58113 0.84986 0.20875 0.0
H869 H 0.58571 0.87684 0.16044 0.0
C870 C 0.56843 0.4951 0.55171 0.0
C871 C 0.55597 0.50579 0.56213 0.0
C872 C 0.59007 0.50233 0.56574 0.0
C873 C 0.64014 0.5522 0.59723 0.0
H874 H 0.65618 0.50999 0.64215 0.0
C875 C 0.72409 0.58129 0.67459 0.0
C876 C 0.73223 0.56595 0.67905 0.0
C877 C 0.70437 0.57511 0.65454 0.0
C878 C 0.65226 0.52198 0.62884 0.0
H879 H 0.55609 0.53218 0.59564 0.0
H880 H 0.59458 0.54534 0.61976 0.0
H881 H 0.61728 0.49639 0.62215 0.0
H882 H 0.72756 0.53301 0.66402 0.0
H883 H 0.69399 0.52269 0.62663 0.0
H884 H 0.67516 0.5777 0.60273 0.0
C885 C 0.58731 0.53118 0.60098 0.0
C886 C 0.62984 0.51417 0.61789 0.0
C887 C 0.56532 0.52355 0.58753 0.0
C888 C 0.72171 0.54522 0.66039 0.0
C889 C 0.70221 0.53918 0.63969 0.0
C890 C 0.66272 0.55996 0.60755 0.0
C891 C 0.59991 0.52073 0.58987 0.0
C892 C 0.62354 0.52924 0.60233 0.0
C893 C 0.69253 0.5535 0.63825 0.0
C894 C 0.66907 0.54499 0.62383 0.0
H895 H 0.56156 0.48137 0.53211 0.0
H896 H 0.59948 0.49406 0.55672 0.0
H897 H 0.63572 0.56405 0.58467 0.0
H898 H 0.73169 0.59715 0.68954 0.0
H899 H 0.69749 0.58659 0.65445 0.0
C900 C 0.06144 0.62002 0.02421 0.0
C901 C 0.06482 0.60935 -0.0061 0.0
C902 C 0.07916 0.64053 0.0371 0.0
C903 C 0.13988 0.66744 0.0462 0.0
H904 H 0.13321 0.71567 0.09135 0.0
C905 C 0.20509 0.72586 0.15121 0.0
C906 C 0.19543 0.72886 0.18336 0.0
C907 C 0.19206 0.71758 0.1196 0.0
C908 C 0.13538 0.70234 0.07894 0.0
H909 H 0.0889 0.61237 0.95192 0.0
H910 H 0.12025 0.6482 0.97509 0.0
H911 H 0.10409 0.68946 0.04946 0.0
H912 H 0.165 0.7272 0.2065 0.0
H913 H 0.14206 0.71189 0.15223 0.0
H914 H 0.17015 0.67902 0.07746 0.0
C915 C 0.10377 0.64071 0.9886 0.0
C916 C 0.11878 0.68745 0.05476 0.0
C917 C 0.08583 0.62031 0.97526 0.0
C918 C 0.17286 0.72467 0.18245 0.0
C919 C 0.15978 0.7162 0.15101 0.0
C920 C 0.15635 0.68215 0.07067 0.0
C921 C 0.10076 0.65064 0.02031 0.0
C922 C 0.12049 0.66938 0.03912 0.0
C923 C 0.169 0.71191 0.11947 0.0
C924 C 0.1539 0.69929 0.08839 0.0
H925 H 0.04536 0.61195 0.039 0.0
H926 H 0.07636 0.64763 0.06177 0.0
H927 H 0.14153 0.65352 0.03492 0.0
H928 H 0.22238 0.7288 0.15088 0.0
H929 H 0.19987 0.7149 0.09565 0.0
loop_
_geom_bond_atom_site_label_1
_geom_bond_atom_site_label_2
_geom_bond_distance
_geom_bond_site_symmetry_2
_ccdc_geom_bond_type
C0 O2 1.247 . S
C0 O4 1.258 . S
C1 O8 1.247 . S
C1 O9 1.258 1_556 S
O2 C0 1.247 . S
O2 Zn3 2.028 1_455 S
Zn3 O2 2.028 1_655 S
Zn3 O7 2.035 . S
Zn3 O9 2.035 . S
Zn3 O10 2.028 1_655 S
O4 C0 1.258 . S
O4 Zn5 2.035 1_554 S
Zn5 O4 2.035 1_556 S
Zn5 O6 2.028 1_455 S
Zn5 O8 2.028 1_455 S
Zn5 O11 2.035 1_556 S
O6 Zn5 2.028 1_655 S
O6 C12 1.247 . S
O7 Zn3 2.035 . S
O7 C12 1.258 1_554 S
O8 C1 1.247 . S
O8 Zn5 2.028 1_655 S
O9 C1 1.258 1_554 S
O9 Zn3 2.035 . S
O10 Zn3 2.028 1_455 S
O10 C13 1.247 . S
O11 Zn5 2.035 1_554 S
O11 C13 1.258 . S
C12 O6 1.247 . S
C12 O7 1.258 1_556 S
C13 O10 1.247 . S
C13 O11 1.258 . S
C14 O16 1.247 . S
C14 O18 1.258 . S
C15 O22 1.247 . S
C15 O23 1.258 . S
O16 C14 1.247 . S
O16 Zn17 2.028 1_545 S
Zn17 O16 2.028 1_565 S
Zn17 O21 2.035 . S
Zn17 O23 2.035 . S
Zn17 O24 2.028 1_565 S
O18 C14 1.258 . S
O18 Zn19 2.035 . S
Zn19 O18 2.035 . S
Zn19 O20 2.028 1_545 S
Zn19 O22 2.028 1_545 S
Zn19 O25 2.035 . S
O20 Zn19 2.028 1_565 S
O20 C26 1.247 . S
O21 Zn17 2.035 . S
O21 C26 1.258 . S
O22 C15 1.247 . S
O22 Zn19 2.028 1_565 S
O23 C15 1.258 . S
O23 Zn17 2.035 . S
O24 Zn17 2.028 1_545 S
O24 C27 1.247 . S
O25 Zn19 2.035 . S
O25 C27 1.258 . S
C26 O20 1.247 . S
C26 O21 1.258 . S
C27 O24 1.247 . S
C27 O25 1.258 . S
C28 O30 1.247 . S
C28 O32 1.258 1_556 S
C29 O36 1.247 . S
C29 O37 1.258 . S
O30 C28 1.247 . S
O30 Zn31 2.028 . S
Zn31 O30 2.028 . S
Zn31 O35 2.035 1_556 S
Zn31 O37 2.035 1_556 S
Zn31 O38 2.028 . S
O32 C28 1.258 1_554 S
O32 Zn33 2.035 . S
Zn33 O32 2.035 . S
Zn33 O34 2.028 . S
Zn33 O36 2.028 . S
Zn33 O39 2.035 . S
O34 Zn33 2.028 . S
O34 C40 1.247 . S
O35 Zn31 2.035 1_554 S
O35 C40 1.258 . S
O36 C29 1.247 . S
O36 Zn33 2.028 . S
O37 C29 1.258 . S
O37 Zn31 2.035 1_554 S
O38 Zn31 2.028 . S
O38 C41 1.247 . S
O39 Zn33 2.035 . S
O39 C41 1.258 1_554 S
C40 O34 1.247 . S
C40 O35 1.258 . S
C41 O38 1.247 . S
C41 O39 1.258 1_556 S
C42 O44 1.247 . S
C42 O46 1.258 . S
C43 O50 1.247 . S
C43 O51 1.258 . S
O44 C42 1.247 . S
O44 Zn45 2.028 . S
Zn45 O44 2.028 . S
Zn45 O49 2.035 1_455 S
Zn45 O51 2.035 1_455 S
Zn45 O52 2.028 . S
O46 C42 1.258 . S
O46 Zn47 2.035 1_455 S
Zn47 O46 2.035 1_655 S
Zn47 O48 2.028 . S
Zn47 O50 2.028 . S
Zn47 O53 2.035 1_655 S
O48 Zn47 2.028 . S
O48 C54 1.247 . S
O49 Zn45 2.035 1_655 S
O49 C54 1.258 . S
O50 C43 1.247 . S
O50 Zn47 2.028 . S
O51 C43 1.258 . S
O51 Zn45 2.035 1_655 S
O52 Zn45 2.028 . S
O52 C55 1.247 . S
O53 Zn47 2.035 1_455 S
O53 C55 1.258 . S
C54 O48 1.247 . S
C54 O49 1.258 . S
C55 O52 1.247 . S
C55 O53 1.258 . S
C56 O58 1.247 . S
C56 O60 1.276 . S
C57 O64 1.247 . S
C57 O65 1.258 1_556 S
O58 C56 1.247 . S
O58 Zn59 2.028 1_565 S
Zn59 O58 2.028 1_545 S
Zn59 O63 2.035 . S
Zn59 O65 2.035 . S
Zn59 O66 2.028 1_545 S
O60 C56 1.276 . S
O60 Zn61 2.025 1_554 S
Zn61 O60 2.025 1_556 S
Zn61 O62 2.028 1_565 S
Zn61 O64 2.028 1_565 S
Zn61 O67 2.023 1_556 S
O62 Zn61 2.028 1_545 S
O62 C68 1.247 . S
O63 Zn59 2.035 . S
O63 C68 1.258 1_554 S
O64 C57 1.247 . S
O64 Zn61 2.028 1_545 S
O65 C57 1.258 1_554 S
O65 Zn59 2.035 . S
O66 Zn59 2.028 1_565 S
O66 C69 1.247 . S
O67 Zn61 2.023 1_554 S
O67 C69 1.278 . S
C68 O62 1.247 . S
C68 O63 1.258 1_556 S
C69 O66 1.247 . S
C69 O67 1.278 . S
C70 O72 1.247 . S
C70 O74 1.258 . S
C71 O78 1.247 . S
C71 O79 1.258 . S
O72 C70 1.247 . S
O72 Zn73 2.028 . S
Zn73 O72 2.028 . S
Zn73 O77 2.035 . S
Zn73 O79 2.035 . S
Zn73 O80 2.028 . S
O74 C70 1.258 . S
O74 Zn75 2.035 . S
Zn75 O74 2.035 . S
Zn75 O76 2.028 . S
Zn75 O78 2.028 . S
Zn75 O81 2.035 . S
O76 Zn75 2.028 . S
O76 C82 1.247 . S
O77 Zn73 2.035 . S
O77 C82 1.258 . S
O78 C71 1.247 . S
O78 Zn75 2.028 . S
O79 C71 1.258 . S
O79 Zn73 2.035 . S
O80 Zn73 2.028 . S
O80 C83 1.247 . S
O81 Zn75 2.035 . S
O81 C83 1.258 . S
C82 O76 1.247 . S
C82 O77 1.258 . S
C83 O80 1.247 . S
C83 O81 1.258 . S
H84 C92 0.930 . S
H85 C95 0.930 . S
H86 C97 0.930 . S
H87 C98 0.970 . S
H88 C98 0.970 . S
H89 C100 0.930 . S
H90 C102 0.930 . S
H91 C104 0.930 . S
C92 H84 0.930 . S
C92 C93 1.382 . S
C92 C94 1.426 . S
C93 C92 1.382 . S
C93 C97 1.389 . S
C94 C92 1.426 . S
C94 C95 1.375 . S
C94 C98 1.532 . S
C95 H85 0.930 . S
C95 C94 1.375 . S
C95 C96 1.416 . S
C96 C95 1.416 . S
C96 C97 1.371 . S
C97 H86 0.930 . S
C97 C93 1.389 . S
C97 C96 1.371 . S
C98 H87 0.970 . S
C98 H88 0.970 . S
C98 C94 1.532 . S
C98 C99 1.499 . S
C99 C98 1.499 . S
C99 C100 1.370 . S
C99 C104 1.415 . S
C100 H89 0.930 . S
C100 C99 1.370 . S
C100 C101 1.407 . S
C101 C100 1.407 . S
C101 C102 1.365 . S
C102 H90 0.930 . S
C102 C101 1.365 . S
C102 C103 1.393 . S
C103 C102 1.393 . S
C103 C104 1.387 . S
C104 H91 0.930 . S
C104 C99 1.415 . S
C104 C103 1.387 . S
H105 C113 0.930 . S
H106 C116 0.930 . S
H107 C118 0.930 . S
H108 C119 0.970 . S
H109 C119 0.970 . S
H110 C121 0.930 . S
H111 C123 0.930 . S
H112 C125 0.930 . S
C113 H105 0.930 . S
C113 C114 1.382 . S
C113 C115 1.426 . S
C114 C113 1.382 . S
C114 C118 1.389 . S
C115 C113 1.426 . S
C115 C116 1.375 . S
C115 C119 1.532 . S
C116 H106 0.930 . S
C116 C115 1.375 . S
C116 C117 1.416 . S
C117 C116 1.416 . S
C117 C118 1.371 . S
C118 H107 0.930 . S
C118 C114 1.389 . S
C118 C117 1.371 . S
C119 H108 0.970 . S
C119 H109 0.970 . S
C119 C115 1.532 . S
C119 C120 1.499 . S
C120 C119 1.499 . S
C120 C121 1.370 . S
C120 C125 1.415 . S
C121 H110 0.930 . S
C121 C120 1.370 . S
C121 C122 1.407 . S
C122 C121 1.407 . S
C122 C123 1.365 . S
C123 H111 0.930 . S
C123 C122 1.365 . S
C123 C124 1.393 . S
C124 C123 1.393 . S
C124 C125 1.387 . S
C125 H112 0.930 . S
C125 C120 1.415 . S
C125 C124 1.387 . S
H126 C134 0.930 . S
H127 C137 0.930 . S
H128 C139 0.930 . S
H129 C140 0.970 . S
H130 C140 0.970 . S
H131 C142 0.930 . S
H132 C144 0.930 . S
H133 C146 0.930 . S
C134 H126 0.930 . S
C134 C135 1.382 . S
C134 C136 1.426 . S
C135 C134 1.382 . S
C135 C139 1.389 . S
C136 C134 1.426 . S
C136 C137 1.375 . S
C136 C140 1.532 . S
C137 H127 0.930 . S
C137 C136 1.375 . S
C137 C138 1.416 . S
C138 C137 1.416 . S
C138 C139 1.371 . S
C139 H128 0.930 . S
C139 C135 1.389 . S
C139 C138 1.371 . S
C140 H129 0.970 . S
C140 H130 0.970 . S
C140 C136 1.532 . S
C140 C141 1.499 . S
C141 C140 1.499 . S
C141 C142 1.370 . S
C141 C146 1.415 . S
C142 H131 0.930 . S
C142 C141 1.370 . S
C142 C143 1.407 . S
C143 C142 1.407 . S
C143 C144 1.365 . S
C144 H132 0.930 . S
C144 C143 1.365 . S
C144 C145 1.393 . S
C145 C144 1.393 . S
C145 C146 1.387 . S
C146 H133 0.930 . S
C146 C141 1.415 . S
C146 C145 1.387 . S
H147 C155 0.930 . S
H148 C158 0.930 . S
H149 C160 0.930 . S
H150 C161 0.970 . S
H151 C161 0.970 . S
H152 C163 0.930 . S
H153 C165 0.930 . S
H154 C167 0.930 . S
C155 H147 0.930 . S
C155 C156 1.382 . S
C155 C157 1.426 . S
C156 C155 1.382 . S
C156 C160 1.389 . S
C157 C155 1.426 . S
C157 C158 1.375 . S
C157 C161 1.532 . S
C158 H148 0.930 . S
C158 C157 1.375 . S
C158 C159 1.416 . S
C159 C158 1.416 . S
C159 C160 1.371 . S
C160 H149 0.930 . S
C160 C156 1.389 . S
C160 C159 1.371 . S
C161 H150 0.970 . S
C161 H151 0.970 . S
C161 C157 1.532 . S
C161 C162 1.499 . S
C162 C161 1.499 . S
C162 C163 1.370 . S
C162 C167 1.415 . S
C163 H152 0.930 . S
C163 C162 1.370 . S
C163 C164 1.407 . S
C164 C163 1.407 . S
C164 C165 1.365 . S
C165 H153 0.930 . S
C165 C164 1.365 . S
C165 C166 1.393 . S
C166 C165 1.393 . S
C166 C167 1.387 . S
C167 H154 0.930 . S
C167 C162 1.415 . S
C167 C166 1.387 . S
H168 C176 0.930 . S
H169 C179 0.930 . S
H170 C181 0.930 . S
H171 C182 0.970 . S
H172 C182 0.970 . S
H173 C184 0.930 . S
H174 C186 0.930 . S
H175 C188 0.930 . S
C176 H168 0.930 . S
C176 C177 1.382 . S
C176 C178 1.426 . S
C177 C176 1.382 . S
C177 C181 1.389 . S
C178 C176 1.426 . S
C178 C179 1.375 . S
C178 C182 1.532 . S
C179 H169 0.930 . S
C179 C178 1.375 . S
C179 C180 1.416 . S
C180 C179 1.416 . S
C180 C181 1.371 . S
C181 H170 0.930 . S
C181 C177 1.389 . S
C181 C180 1.371 . S
C182 H171 0.970 . S
C182 H172 0.970 . S
C182 C178 1.532 . S
C182 C183 1.499 . S
C183 C182 1.499 . S
C183 C184 1.370 . S
C183 C188 1.415 . S
C184 H173 0.930 . S
C184 C183 1.370 . S
C184 C185 1.407 . S
C185 C184 1.407 . S
C185 C186 1.365 . S
C186 H174 0.930 . S
C186 C185 1.365 . S
C186 C187 1.393 . S
C187 C186 1.393 . S
C187 C188 1.387 . S
C188 H175 0.930 . S
C188 C183 1.415 . S
C188 C187 1.387 . S
H189 C197 0.930 . S
H190 C200 0.930 . S
H191 C202 0.930 . S
H192 C203 0.970 . S
H193 C203 0.970 . S
H194 C205 0.930 . S
H195 C207 0.930 . S
H196 C209 0.930 . S
C197 H189 0.930 . S
C197 C198 1.382 . S
C197 C199 1.426 . S
C198 C197 1.382 . S
C198 C202 1.389 . S
C199 C197 1.426 . S
C199 C200 1.375 . S
C199 C203 1.532 . S
C200 H190 0.930 . S
C200 C199 1.375 . S
C200 C201 1.416 . S
C201 C200 1.416 . S
C201 C202 1.371 . S
C202 H191 0.930 . S
C202 C198 1.389 . S
C202 C201 1.371 . S
C203 H192 0.970 . S
C203 H193 0.970 . S
C203 C199 1.532 . S
C203 C204 1.499 . S
C204 C203 1.499 . S
C204 C205 1.370 . S
C204 C209 1.415 . S
C205 H194 0.930 . S
C205 C204 1.370 . S
C205 C206 1.407 . S
C206 C205 1.407 . S
C206 C207 1.365 . S
C207 H195 0.930 . S
C207 C206 1.365 . S
C207 C208 1.393 . S
C208 C207 1.393 . S
C208 C209 1.387 . S
C209 H196 0.930 . S
C209 C204 1.415 . S
C209 C208 1.387 . S
C210 C211 1.349 . S
C210 C212 1.327 . S
C210 H235 0.950 . S
C211 C210 1.349 . S
C211 C227 1.349 . S
C212 C210 1.327 . S
C212 C231 1.429 . S
C212 H236 0.950 . S
C213 C230 1.574 . S
C213 C232 1.368 . S
C213 H237 0.949 . S
H214 C218 0.949 . S
C215 C216 1.349 . S
C215 C217 1.327 . S
C215 H238 0.950 . S
C216 C215 1.349 . S
C216 C228 1.349 . S
C217 C215 1.327 . S
C217 C233 1.429 . S
C217 H239 0.950 . S
C218 H214 0.949 . S
C218 C226 1.574 . S
C218 C234 1.368 . S
H219 C227 0.950 . S
H220 C225 0.950 . S
H221 C226 0.949 . S
H222 C228 0.950 . S
H223 C229 0.950 . S
H224 C230 0.949 . S
C225 H220 0.950 . S
C225 C227 1.327 . S
C225 C231 1.429 . S
C226 C218 1.574 . S
C226 H221 0.949 . S
C226 C232 1.368 . S
C227 C211 1.349 . S
C227 H219 0.950 . S
C227 C225 1.327 . S
C228 C216 1.349 . S
C228 H222 0.950 . S
C228 C229 1.327 . S
C229 H223 0.950 . S
C229 C228 1.327 . S
C229 C233 1.429 . S
C230 C213 1.574 . S
C230 H224 0.949 . S
C230 C234 1.368 . S
C231 C212 1.429 . S
C231 C225 1.429 . S
C231 C232 1.523 . S
C232 C213 1.368 . S
C232 C226 1.368 . S
C232 C231 1.523 . S
C233 C217 1.429 . S
C233 C229 1.429 . S
C233 C234 1.523 . S
C234 C218 1.368 . S
C234 C230 1.368 . S
C234 C233 1.523 . S
H235 C210 0.950 . S
H236 C212 0.950 . S
H237 C213 0.949 . S
H238 C215 0.950 . S
H239 C217 0.950 . S
C240 C241 1.349 . S
C240 C242 1.327 . S
C240 H265 0.950 . S
C241 C240 1.349 . S
C241 C257 1.349 . S
C242 C240 1.327 . S
C242 C261 1.429 . S
C242 H266 0.950 . S
C243 C260 1.574 . S
C243 C262 1.368 . S
C243 H267 0.949 . S
H244 C248 0.949 . S
C245 C246 1.349 . S
C245 C247 1.327 . S
C245 H268 0.950 . S
C246 C245 1.349 . S
C246 C258 1.349 . S
C247 C245 1.327 . S
C247 C263 1.429 . S
C247 H269 0.950 . S
C248 H244 0.949 . S
C248 C256 1.574 . S
C248 C264 1.368 . S
H249 C257 0.950 . S
H250 C255 0.950 . S
H251 C256 0.949 . S
H252 C258 0.950 . S
H253 C259 0.950 . S
H254 C260 0.949 . S
C255 H250 0.950 . S
C255 C257 1.327 . S
C255 C261 1.429 . S
C256 C248 1.574 . S
C256 H251 0.949 . S
C256 C262 1.368 . S
C257 C241 1.349 . S
C257 H249 0.950 . S
C257 C255 1.327 . S
C258 C246 1.349 . S
C258 H252 0.950 . S
C258 C259 1.327 . S
C259 H253 0.950 . S
C259 C258 1.327 . S
C259 C263 1.429 . S
C260 C243 1.574 . S
C260 H254 0.949 . S
C260 C264 1.368 . S
C261 C242 1.429 . S
C261 C255 1.429 . S
C261 C262 1.523 . S
C262 C243 1.368 . S
C262 C256 1.368 . S
C262 C261 1.523 . S
C263 C247 1.429 . S
C263 C259 1.429 . S
C263 C264 1.523 . S
C264 C248 1.368 . S
C264 C260 1.368 . S
C264 C263 1.523 . S
H265 C240 0.950 . S
H266 C242 0.950 . S
H267 C243 0.949 . S
H268 C245 0.950 . S
H269 C247 0.950 . S
C270 C271 1.349 . S
C270 C272 1.327 . S
C270 H295 0.950 . S
C271 C270 1.349 . S
C271 C287 1.349 . S
C272 C270 1.327 . S
C272 C291 1.429 . S
C272 H296 0.950 . S
C273 C290 1.574 . S
C273 C292 1.368 . S
C273 H297 0.949 . S
H274 C278 0.949 . S
C275 C276 1.349 . S
C275 C277 1.327 . S
C275 H298 0.950 . S
C276 C275 1.349 . S
C276 C288 1.349 . S
C277 C275 1.327 . S
C277 C293 1.429 . S
C277 H299 0.950 . S
C278 H274 0.949 . S
C278 C286 1.574 . S
C278 C294 1.368 . S
H279 C287 0.950 . S
H280 C285 0.950 . S
H281 C286 0.949 . S
H282 C288 0.950 . S
H283 C289 0.950 . S
H284 C290 0.949 . S
C285 H280 0.950 . S
C285 C287 1.327 . S
C285 C291 1.429 . S
C286 C278 1.574 . S
C286 H281 0.949 . S
C286 C292 1.368 . S
C287 C271 1.349 . S
C287 H279 0.950 . S
C287 C285 1.327 . S
C288 C276 1.349 . S
C288 H282 0.950 . S
C288 C289 1.327 . S
C289 H283 0.950 . S
C289 C288 1.327 . S
C289 C293 1.429 . S
C290 C273 1.574 . S
C290 H284 0.949 . S
C290 C294 1.368 . S
C291 C272 1.429 . S
C291 C285 1.429 . S
C291 C292 1.523 . S
C292 C273 1.368 . S
C292 C286 1.368 . S
C292 C291 1.523 . S
C293 C277 1.429 . S
C293 C289 1.429 . S
C293 C294 1.523 . S
C294 C278 1.368 . S
C294 C290 1.368 . S
C294 C293 1.523 . S
H295 C270 0.950 . S
H296 C272 0.950 . S
H297 C273 0.949 . S
H298 C275 0.950 . S
H299 C277 0.950 . S
C300 C301 1.349 . S
C300 C302 1.327 . S
C300 H325 0.950 . S
C301 C300 1.349 . S
C301 C317 1.349 . S
C302 C300 1.327 . S
C302 C321 1.429 . S
C302 H326 0.950 . S
C303 C320 1.574 . S
C303 C322 1.368 . S
C303 H327 0.949 . S
H304 C308 0.949 . S
C305 C306 1.349 . S
C305 C307 1.327 . S
C305 H328 0.950 . S
C306 C305 1.349 . S
C306 C318 1.349 . S
C307 C305 1.327 . S
C307 C323 1.429 . S
C307 H329 0.950 . S
C308 H304 0.949 . S
C308 C316 1.574 . S
C308 C324 1.368 . S
H309 C317 0.950 . S
H310 C315 0.950 . S
H311 C316 0.949 . S
H312 C318 0.950 . S
H313 C319 0.950 . S
H314 C320 0.949 . S
C315 H310 0.950 . S
C315 C317 1.327 . S
C315 C321 1.429 . S
C316 C308 1.574 . S
C316 H311 0.949 . S
C316 C322 1.368 . S
C317 C301 1.349 . S
C317 H309 0.950 . S
C317 C315 1.327 . S
C318 C306 1.349 . S
C318 H312 0.950 . S
C318 C319 1.327 . S
C319 H313 0.950 . S
C319 C318 1.327 . S
C319 C323 1.429 . S
C320 C303 1.574 . S
C320 H314 0.949 . S
C320 C324 1.368 . S
C321 C302 1.429 . S
C321 C315 1.429 . S
C321 C322 1.523 . S
C322 C303 1.368 . S
C322 C316 1.368 . S
C322 C321 1.523 . S
C323 C307 1.429 . S
C323 C319 1.429 . S
C323 C324 1.523 . S
C324 C308 1.368 . S
C324 C320 1.368 . S
C324 C323 1.523 . S
H325 C300 0.950 . S
H326 C302 0.950 . S
H327 C303 0.949 . S
H328 C305 0.950 . S
H329 C307 0.950 . S
C330 C331 1.349 . S
C330 C332 1.327 . S
C330 H355 0.950 . S
C331 C330 1.349 . S
C331 C347 1.349 . S
C332 C330 1.327 . S
C332 C351 1.429 . S
C332 H356 0.950 . S
C333 C350 1.574 . S
C333 C352 1.368 . S
C333 H357 0.949 . S
H334 C338 0.949 . S
C335 C336 1.349 . S
C335 C337 1.327 . S
C335 H358 0.950 . S
C336 C335 1.349 . S
C336 C348 1.349 . S
C337 C335 1.327 . S
C337 C353 1.429 . S
C337 H359 0.950 . S
C338 H334 0.949 . S
C338 C346 1.574 . S
C338 C354 1.368 . S
H339 C347 0.950 . S
H340 C345 0.950 . S
H341 C346 0.949 . S
H342 C348 0.950 . S
H343 C349 0.950 . S
H344 C350 0.949 . S
C345 H340 0.950 . S
C345 C347 1.327 . S
C345 C351 1.429 . S
C346 C338 1.574 . S
C346 H341 0.949 . S
C346 C352 1.368 . S
C347 C331 1.349 . S
C347 H339 0.950 . S
C347 C345 1.327 . S
C348 C336 1.349 . S
C348 H342 0.950 . S
C348 C349 1.327 . S
C349 H343 0.950 . S
C349 C348 1.327 . S
C349 C353 1.429 . S
C350 C333 1.574 . S
C350 H344 0.949 . S
C350 C354 1.368 . S
C351 C332 1.429 . S
C351 C345 1.429 . S
C351 C352 1.523 . S
C352 C333 1.368 . S
C352 C346 1.368 . S
C352 C351 1.523 . S
C353 C337 1.429 . S
C353 C349 1.429 . S
C353 C354 1.523 . S
C354 C338 1.368 . S
C354 C350 1.368 . S
C354 C353 1.523 . S
H355 C330 0.950 . S
H356 C332 0.950 . S
H357 C333 0.949 . S
H358 C335 0.950 . S
H359 C337 0.950 . S
C360 C361 1.349 . S
C360 C362 1.327 . S
C360 H385 0.950 . S
C361 C360 1.349 . S
C361 C377 1.349 . S
C362 C360 1.327 . S
C362 C381 1.429 . S
C362 H386 0.950 . S
C363 C380 1.574 . S
C363 C382 1.368 . S
C363 H387 0.949 . S
H364 C368 0.949 . S
C365 C366 1.349 . S
C365 C367 1.327 . S
C365 H388 0.950 . S
C366 C365 1.349 . S
C366 C378 1.349 . S
C367 C365 1.327 . S
C367 C383 1.429 . S
C367 H389 0.950 . S
C368 H364 0.949 . S
C368 C376 1.574 . S
C368 C384 1.368 . S
H369 C377 0.950 . S
H370 C375 0.950 . S
H371 C376 0.949 . S
H372 C378 0.950 . S
H373 C379 0.950 . S
H374 C380 0.949 . S
C375 H370 0.950 . S
C375 C377 1.327 . S
C375 C381 1.429 . S
C376 C368 1.574 . S
C376 H371 0.949 . S
C376 C382 1.368 . S
C377 C361 1.349 . S
C377 H369 0.950 . S
C377 C375 1.327 . S
C378 C366 1.349 . S
C378 H372 0.950 . S
C378 C379 1.327 . S
C379 H373 0.950 . S
C379 C378 1.327 . S
C379 C383 1.429 . S
C380 C363 1.574 . S
C380 H374 0.949 . S
C380 C384 1.368 . S
C381 C362 1.429 . S
C381 C375 1.429 . S
C381 C382 1.523 . S
C382 C363 1.368 . S
C382 C376 1.368 . S
C382 C381 1.523 . S
C383 C367 1.429 . S
C383 C379 1.429 . S
C383 C384 1.523 . S
C384 C368 1.368 . S
C384 C380 1.368 . S
C384 C383 1.523 . S
H385 C360 0.950 . S
H386 C362 0.950 . S
H387 C363 0.949 . S
H388 C365 0.950 . S
H389 C367 0.950 . S
C390 C391 1.349 . S
C390 C392 1.327 . S
C390 H415 0.950 . S
C391 C390 1.349 . S
C391 C407 1.349 . S
C392 C390 1.327 . S
C392 C411 1.429 . S
C392 H416 0.950 . S
C393 C410 1.574 . S
C393 C412 1.368 . S
C393 H417 0.949 . S
H394 C398 0.949 . S
C395 C396 1.349 . S
C395 C397 1.327 . S
C395 H418 0.950 . S
C396 C395 1.349 . S
C396 C408 1.349 . S
C397 C395 1.327 . S
C397 C413 1.429 . S
C397 H419 0.950 . S
C398 H394 0.949 . S
C398 C406 1.574 . S
C398 C414 1.368 . S
H399 C407 0.950 . S
H400 C405 0.950 . S
H401 C406 0.949 . S
H402 C408 0.950 . S
H403 C409 0.950 . S
H404 C410 0.949 . S
C405 H400 0.950 . S
C405 C407 1.327 . S
C405 C411 1.429 . S
C406 C398 1.574 . S
C406 H401 0.949 . S
C406 C412 1.368 . S
C407 C391 1.349 . S
C407 H399 0.950 . S
C407 C405 1.327 . S
C408 C396 1.349 . S
C408 H402 0.950 . S
C408 C409 1.327 . S
C409 H403 0.950 . S
C409 C408 1.327 . S
C409 C413 1.429 . S
C410 C393 1.574 . S
C410 H404 0.949 . S
C410 C414 1.368 . S
C411 C392 1.429 . S
C411 C405 1.429 . S
C411 C412 1.523 . S
C412 C393 1.368 . S
C412 C406 1.368 . S
C412 C411 1.523 . S
C413 C397 1.429 . S
C413 C409 1.429 . S
C413 C414 1.523 . S
C414 C398 1.368 . S
C414 C410 1.368 . S
C414 C413 1.523 . S
H415 C390 0.950 . S
H416 C392 0.950 . S
H417 C393 0.949 . S
H418 C395 0.950 . S
H419 C397 0.950 . S
C420 C421 1.349 . S
C420 C422 1.327 . S
C420 H445 0.950 . S
C421 C420 1.349 . S
C421 C437 1.349 . S
C422 C420 1.327 . S
C422 C441 1.429 . S
C422 H446 0.950 . S
C423 C440 1.574 . S
C423 C442 1.368 . S
C423 H447 0.949 . S
H424 C428 0.949 . S
C425 C426 1.349 . S
C425 C427 1.327 . S
C425 H448 0.950 . S
C426 C425 1.349 . S
C426 C438 1.349 . S
C427 C425 1.327 . S
C427 C443 1.429 . S
C427 H449 0.950 . S
C428 H424 0.949 . S
C428 C436 1.574 . S
C428 C444 1.368 . S
H429 C437 0.950 . S
H430 C435 0.950 . S
H431 C436 0.949 . S
H432 C438 0.950 . S
H433 C439 0.950 . S
H434 C440 0.949 . S
C435 H430 0.950 . S
C435 C437 1.327 . S
C435 C441 1.429 . S
C436 C428 1.574 . S
C436 H431 0.949 . S
C436 C442 1.368 . S
C437 C421 1.349 . S
C437 H429 0.950 . S
C437 C435 1.327 . S
C438 C426 1.349 . S
C438 H432 0.950 . S
C438 C439 1.327 . S
C439 H433 0.950 . S
C439 C438 1.327 . S
C439 C443 1.429 . S
C440 C423 1.574 . S
C440 H434 0.949 . S
C440 C444 1.368 . S
C441 C422 1.429 . S
C441 C435 1.429 . S
C441 C442 1.523 . S
C442 C423 1.368 . S
C442 C436 1.368 . S
C442 C441 1.523 . S
C443 C427 1.429 . S
C443 C439 1.429 . S
C443 C444 1.523 . S
C444 C428 1.368 . S
C444 C440 1.368 . S
C444 C443 1.523 . S
H445 C420 0.950 . S
H446 C422 0.950 . S
H447 C423 0.949 . S
H448 C425 0.950 . S
H449 C427 0.950 . S
C450 C451 1.349 . S
C450 C452 1.327 . S
C450 H475 0.950 . S
C451 C450 1.349 . S
C451 C467 1.349 . S
C452 C450 1.327 . S
C452 C471 1.429 . S
C452 H476 0.950 . S
C453 C470 1.574 . S
C453 C472 1.368 . S
C453 H477 0.949 . S
H454 C458 0.949 . S
C455 C456 1.349 . S
C455 C457 1.327 . S
C455 H478 0.950 . S
C456 C455 1.349 . S
C456 C468 1.349 . S
C457 C455 1.327 . S
C457 C473 1.429 . S
C457 H479 0.950 . S
C458 H454 0.949 . S
C458 C466 1.574 . S
C458 C474 1.368 . S
H459 C467 0.950 . S
H460 C465 0.950 . S
H461 C466 0.949 . S
H462 C468 0.950 . S
H463 C469 0.950 . S
H464 C470 0.949 . S
C465 H460 0.950 . S
C465 C467 1.327 . S
C465 C471 1.429 . S
C466 C458 1.574 . S
C466 H461 0.949 . S
C466 C472 1.368 . S
C467 C451 1.349 . S
C467 H459 0.950 . S
C467 C465 1.327 . S
C468 C456 1.349 . S
C468 H462 0.950 . S
C468 C469 1.327 . S
C469 H463 0.950 . S
C469 C468 1.327 . S
C469 C473 1.429 . S
C470 C453 1.574 . S
C470 H464 0.949 . S
C470 C474 1.368 . S
C471 C452 1.429 . S
C471 C465 1.429 . S
C471 C472 1.523 . S
C472 C453 1.368 . S
C472 C466 1.368 . S
C472 C471 1.523 . S
C473 C457 1.429 . S
C473 C469 1.429 . S
C473 C474 1.523 . S
C474 C458 1.368 . S
C474 C470 1.368 . S
C474 C473 1.523 . S
H475 C450 0.950 . S
H476 C452 0.950 . S
H477 C453 0.949 . S
H478 C455 0.950 . S
H479 C457 0.950 . S
C480 C481 1.349 . S
C480 C482 1.327 . S
C480 H505 0.950 . S
C481 C480 1.349 . S
C481 C497 1.349 . S
C482 C480 1.327 . S
C482 C501 1.429 . S
C482 H506 0.950 . S
C483 C500 1.574 . S
C483 C502 1.368 . S
C483 H507 0.949 . S
H484 C488 0.949 . S
C485 C486 1.349 . S
C485 C487 1.327 . S
C485 H508 0.950 . S
C486 C485 1.349 . S
C486 C498 1.349 . S
C487 C485 1.327 . S
C487 C503 1.429 . S
C487 H509 0.950 . S
C488 H484 0.949 . S
C488 C496 1.574 . S
C488 C504 1.368 . S
H489 C497 0.950 . S
H490 C495 0.950 . S
H491 C496 0.949 . S
H492 C498 0.950 . S
H493 C499 0.950 . S
H494 C500 0.949 . S
C495 H490 0.950 . S
C495 C497 1.327 . S
C495 C501 1.429 . S
C496 C488 1.574 . S
C496 H491 0.949 . S
C496 C502 1.368 . S
C497 C481 1.349 . S
C497 H489 0.950 . S
C497 C495 1.327 . S
C498 C486 1.349 . S
C498 H492 0.950 . S
C498 C499 1.327 . S
C499 H493 0.950 . S
C499 C498 1.327 . S
C499 C503 1.429 . S
C500 C483 1.574 . S
C500 H494 0.949 . S
C500 C504 1.368 . S
C501 C482 1.429 . S
C501 C495 1.429 . S
C501 C502 1.523 . S
C502 C483 1.368 . S
C502 C496 1.368 . S
C502 C501 1.523 . S
C503 C487 1.429 . S
C503 C499 1.429 . S
C503 C504 1.523 . S
C504 C488 1.368 . S
C504 C500 1.368 . S
C504 C503 1.523 . S
H505 C480 0.950 . S
H506 C482 0.950 . S
H507 C483 0.949 . S
H508 C485 0.950 . S
H509 C487 0.950 . S
C510 C511 1.349 . S
C510 C512 1.327 . S
C510 H535 0.950 . S
C511 C510 1.349 . S
C511 C527 1.349 . S
C512 C510 1.327 . S
C512 C531 1.429 . S
C512 H536 0.950 . S
C513 C530 1.574 . S
C513 C532 1.368 . S
C513 H537 0.949 . S
H514 C518 0.949 . S
C515 C516 1.349 . S
C515 C517 1.327 . S
C515 H538 0.950 . S
C516 C515 1.349 . S
C516 C528 1.349 . S
C517 C515 1.327 . S
C517 C533 1.429 . S
C517 H539 0.950 . S
C518 H514 0.949 . S
C518 C526 1.574 . S
C518 C534 1.368 . S
H519 C527 0.950 . S
H520 C525 0.950 . S
H521 C526 0.949 . S
H522 C528 0.950 . S
H523 C529 0.950 . S
H524 C530 0.949 . S
C525 H520 0.950 . S
C525 C527 1.327 . S
C525 C531 1.429 . S
C526 C518 1.574 . S
C526 H521 0.949 . S
C526 C532 1.368 . S
C527 C511 1.349 . S
C527 H519 0.950 . S
C527 C525 1.327 . S
C528 C516 1.349 . S
C528 H522 0.950 . S
C528 C529 1.327 . S
C529 H523 0.950 . S
C529 C528 1.327 . S
C529 C533 1.429 . S
C530 C513 1.574 . S
C530 H524 0.949 . S
C530 C534 1.368 . S
C531 C512 1.429 . S
C531 C525 1.429 . S
C531 C532 1.523 . S
C532 C513 1.368 . S
C532 C526 1.368 . S
C532 C531 1.523 . S
C533 C517 1.429 . S
C533 C529 1.429 . S
C533 C534 1.523 . S
C534 C518 1.368 . S
C534 C530 1.368 . S
C534 C533 1.523 . S
H535 C510 0.950 . S
H536 C512 0.950 . S
H537 C513 0.949 . S
H538 C515 0.950 . S
H539 C517 0.950 . S
C540 C541 1.349 . S
C540 C542 1.327 . S
C540 H565 0.950 . S
C541 C540 1.349 . S
C541 C557 1.349 . S
C542 C540 1.327 . S
C542 C561 1.429 . S
C542 H566 0.950 . S
C543 C560 1.574 . S
C543 C562 1.368 . S
C543 H567 0.949 . S
H544 C548 0.949 . S
C545 C546 1.349 . S
C545 C547 1.327 . S
C545 H568 0.950 . S
C546 C545 1.349 . S
C546 C558 1.349 . S
C547 C545 1.327 . S
C547 C563 1.429 . S
C547 H569 0.950 . S
C548 H544 0.949 . S
C548 C556 1.574 . S
C548 C564 1.368 . S
H549 C557 0.980 . S
H550 C555 0.950 . S
H551 C556 0.949 . S
H552 C558 0.950 . S
H553 C559 0.950 . S
H554 C560 0.949 . S
C555 H550 0.950 . S
C555 C557 1.327 . S
C555 C561 1.429 . S
C556 C548 1.574 . S
C556 H551 0.949 . S
C556 C562 1.368 . S
C557 C541 1.349 . S
C557 H549 0.980 . S
C557 C555 1.327 . S
C558 C546 1.349 . S
C558 H552 0.950 . S
C558 C559 1.327 . S
C559 H553 0.950 . S
C559 C558 1.327 . S
C559 C563 1.429 . S
C560 C543 1.574 . S
C560 H554 0.949 . S
C560 C564 1.368 . S
C561 C542 1.429 . S
C561 C555 1.429 . S
C561 C562 1.523 . S
C562 C543 1.368 . S
C562 C556 1.368 . S
C562 C561 1.523 . S
C563 C547 1.429 . S
C563 C559 1.429 . S
C563 C564 1.523 . S
C564 C548 1.368 . S
C564 C560 1.368 . S
C564 C563 1.523 . S
H565 C540 0.950 . S
H566 C542 0.950 . S
H567 C543 0.949 . S
H568 C545 0.950 . S
H569 C547 0.950 . S
C570 C571 1.349 . S
C570 C572 1.327 . S
C570 H595 0.950 . S
C571 C570 1.349 . S
C571 C587 1.349 . S
C572 C570 1.327 . S
C572 C591 1.429 . S
C572 H596 0.950 . S
C573 C590 1.574 . S
C573 C592 1.368 . S
C573 H597 0.949 . S
H574 C578 0.949 . S
C575 C576 1.349 . S
C575 C577 1.327 . S
C575 H598 0.950 . S
C576 C575 1.349 . S
C576 C588 1.349 . S
C577 C575 1.327 . S
C577 C593 1.429 . S
C577 H599 0.950 . S
C578 H574 0.949 . S
C578 C586 1.574 . S
C578 C594 1.368 . S
H579 C587 0.950 . S
H580 C585 0.950 . S
H581 C586 0.949 . S
H582 C588 0.950 . S
H583 C589 0.950 . S
H584 C590 0.949 . S
C585 H580 0.950 . S
C585 C587 1.327 . S
C585 C591 1.429 . S
C586 C578 1.574 . S
C586 H581 0.949 . S
C586 C592 1.368 . S
C587 C571 1.349 . S
C587 H579 0.950 . S
C587 C585 1.327 . S
C588 C576 1.349 . S
C588 H582 0.950 . S
C588 C589 1.327 . S
C589 H583 0.950 . S
C589 C588 1.327 . S
C589 C593 1.429 . S
C590 C573 1.574 . S
C590 H584 0.949 . S
C590 C594 1.368 . S
C591 C572 1.429 . S
C591 C585 1.429 . S
C591 C592 1.523 . S
C592 C573 1.368 . S
C592 C586 1.368 . S
C592 C591 1.523 . S
C593 C577 1.429 . S
C593 C589 1.429 . S
C593 C594 1.523 . S
C594 C578 1.368 . S
C594 C590 1.368 . S
C594 C593 1.523 . S
H595 C570 0.950 . S
H596 C572 0.950 . S
H597 C573 0.949 . S
H598 C575 0.950 . S
H599 C577 0.950 . S
C600 C601 1.349 . S
C600 C602 1.327 . S
C600 H625 0.950 . S
C601 C600 1.349 . S
C601 C617 1.349 . S
C602 C600 1.327 . S
C602 C621 1.429 . S
C602 H626 0.950 . S
C603 C620 1.574 . S
C603 C622 1.368 . S
C603 H627 0.949 . S
H604 C608 0.949 . S
C605 C606 1.349 . S
C605 C607 1.327 . S
C605 H628 0.950 . S
C606 C605 1.349 . S
C606 C618 1.349 . S
C607 C605 1.327 . S
C607 C623 1.429 . S
C607 H629 0.950 . S
C608 H604 0.949 . S
C608 C616 1.574 . S
C608 C624 1.368 . S
H609 C617 0.950 . S
H610 C615 0.950 . S
H611 C616 0.949 . S
H612 C618 0.950 . S
H613 C619 0.950 . S
H614 C620 0.949 . S
C615 H610 0.950 . S
C615 C617 1.327 . S
C615 C621 1.429 . S
C616 C608 1.574 . S
C616 H611 0.949 . S
C616 C622 1.368 . S
C617 C601 1.349 . S
C617 H609 0.950 . S
C617 C615 1.327 . S
C618 C606 1.349 . S
C618 H612 0.950 . S
C618 C619 1.327 . S
C619 H613 0.950 . S
C619 C618 1.327 . S
C619 C623 1.429 . S
C620 C603 1.574 . S
C620 H614 0.949 . S
C620 C624 1.368 . S
C621 C602 1.429 . S
C621 C615 1.429 . S
C621 C622 1.523 . S
C622 C603 1.368 . S
C622 C616 1.368 . S
C622 C621 1.523 . S
C623 C607 1.429 . S
C623 C619 1.429 . S
C623 C624 1.523 . S
C624 C608 1.368 . S
C624 C620 1.368 . S
C624 C623 1.523 . S
H625 C600 0.950 . S
H626 C602 0.950 . S
H627 C603 0.949 . S
H628 C605 0.950 . S
H629 C607 0.950 . S
C630 C631 1.349 . S
C630 C632 1.327 . S
C630 H655 0.950 . S
C631 C630 1.349 . S
C631 C647 1.349 . S
C632 C630 1.327 . S
C632 C651 1.429 . S
C632 H656 0.950 . S
C633 C650 1.574 . S
C633 C652 1.368 . S
C633 H657 0.949 . S
H634 C638 0.949 . S
C635 C636 1.349 . S
C635 C637 1.327 . S
C635 H658 0.950 . S
C636 C635 1.349 . S
C636 C648 1.349 . S
C637 C635 1.327 . S
C637 C653 1.429 . S
C637 H659 0.950 . S
C638 H634 0.949 . S
C638 C646 1.574 . S
C638 C654 1.368 . S
H639 C647 0.950 . S
H640 C645 0.950 . S
H641 C646 0.949 . S
H642 C648 0.950 . S
H643 C649 0.950 . S
H644 C650 0.949 . S
C645 H640 0.950 . S
C645 C647 1.327 . S
C645 C651 1.429 . S
C646 C638 1.574 . S
C646 H641 0.949 . S
C646 C652 1.368 . S
C647 C631 1.349 . S
C647 H639 0.950 . S
C647 C645 1.327 . S
C648 C636 1.349 . S
C648 H642 0.950 . S
C648 C649 1.327 . S
C649 H643 0.950 . S
C649 C648 1.327 . S
C649 C653 1.429 . S
C650 C633 1.574 . S
C650 H644 0.949 . S
C650 C654 1.368 . S
C651 C632 1.429 . S
C651 C645 1.429 . S
C651 C652 1.523 . S
C652 C633 1.368 . S
C652 C646 1.368 . S
C652 C651 1.523 . S
C653 C637 1.429 . S
C653 C649 1.429 . S
C653 C654 1.523 . S
C654 C638 1.368 . S
C654 C650 1.368 . S
C654 C653 1.523 . S
H655 C630 0.950 . S
H656 C632 0.950 . S
H657 C633 0.949 . S
H658 C635 0.950 . S
H659 C637 0.950 . S
C660 C661 1.349 . S
C660 C662 1.327 . S
C660 H685 0.950 . S
C661 C660 1.349 . S
C661 C677 1.349 . S
C662 C660 1.327 . S
C662 C681 1.429 . S
C662 H686 0.950 . S
C663 C680 1.574 . S
C663 C682 1.368 . S
C663 H687 0.949 . S
H664 C668 0.949 . S
C665 C666 1.349 . S
C665 C667 1.327 . S
C665 H688 0.950 . S
C666 C665 1.349 . S
C666 C678 1.349 . S
C667 C665 1.327 . S
C667 C683 1.429 . S
C667 H689 0.950 . S
C668 H664 0.949 . S
C668 C676 1.574 . S
C668 C684 1.368 . S
H669 C677 0.950 . S
H670 C675 0.950 . S
H671 C676 0.949 . S
H672 C678 0.950 . S
H673 C679 0.950 . S
H674 C680 0.949 . S
C675 H670 0.950 . S
C675 C677 1.327 . S
C675 C681 1.429 . S
C676 C668 1.574 . S
C676 H671 0.949 . S
C676 C682 1.368 . S
C677 C661 1.349 . S
C677 H669 0.950 . S
C677 C675 1.327 . S
C678 C666 1.349 . S
C678 H672 0.950 . S
C678 C679 1.327 . S
C679 H673 0.950 . S
C679 C678 1.327 . S
C679 C683 1.429 . S
C680 C663 1.574 . S
C680 H674 0.949 . S
C680 C684 1.368 . S
C681 C662 1.429 . S
C681 C675 1.429 . S
C681 C682 1.523 . S
C682 C663 1.368 . S
C682 C676 1.368 . S
C682 C681 1.523 . S
C683 C667 1.429 . S
C683 C679 1.429 . S
C683 C684 1.523 . S
C684 C668 1.368 . S
C684 C680 1.368 . S
C684 C683 1.523 . S
H685 C660 0.950 . S
H686 C662 0.950 . S
H687 C663 0.949 . S
H688 C665 0.950 . S
H689 C667 0.950 . S
C690 C691 1.349 . S
C690 C692 1.327 . S
C690 H715 0.950 . S
C691 C690 1.349 . S
C691 C707 1.349 . S
C692 C690 1.327 . S
C692 C711 1.429 . S
C692 H716 0.950 . S
C693 C710 1.574 . S
C693 C712 1.368 . S
C693 H717 0.949 . S
H694 C698 0.949 . S
C695 C696 1.349 . S
C695 C697 1.327 . S
C695 H718 0.950 . S
C696 C695 1.349 . S
C696 C708 1.349 . S
C697 C695 1.327 . S
C697 C713 1.429 . S
C697 H719 0.950 . S
C698 H694 0.949 . S
C698 C706 1.574 . S
C698 C714 1.368 . S
H699 C707 0.950 . S
H700 C705 0.950 . S
H701 C706 0.949 . S
H702 C708 0.950 . S
H703 C709 0.950 . S
H704 C710 0.949 . S
C705 H700 0.950 . S
C705 C707 1.327 . S
C705 C711 1.429 . S
C706 C698 1.574 . S
C706 H701 0.949 . S
C706 C712 1.368 . S
C707 C691 1.349 . S
C707 H699 0.950 . S
C707 C705 1.327 . S
C708 C696 1.349 . S
C708 H702 0.950 . S
C708 C709 1.327 . S
C709 H703 0.950 . S
C709 C708 1.327 . S
C709 C713 1.429 . S
C710 C693 1.574 . S
C710 H704 0.949 . S
C710 C714 1.368 . S
C711 C692 1.429 . S
C711 C705 1.429 . S
C711 C712 1.523 . S
C712 C693 1.368 . S
C712 C706 1.368 . S
C712 C711 1.523 . S
C713 C697 1.429 . S
C713 C709 1.429 . S
C713 C714 1.523 . S
C714 C698 1.368 . S
C714 C710 1.368 . S
C714 C713 1.523 . S
H715 C690 0.950 . S
H716 C692 0.950 . S
H717 C693 0.949 . S
H718 C695 0.950 . S
H719 C697 0.950 . S
C720 C721 1.349 . S
C720 C722 1.327 . S
C720 H745 0.950 . S
C721 C720 1.349 . S
C721 C737 1.349 . S
C722 C720 1.327 . S
C722 C741 1.429 . S
C722 H746 0.950 . S
C723 C740 1.574 . S
C723 C742 1.368 . S
C723 H747 0.949 . S
H724 C728 0.949 . S
C725 C726 1.349 . S
C725 C727 1.327 . S
C725 H748 0.950 . S
C726 C725 1.349 . S
C726 C738 1.349 . S
C727 C725 1.327 . S
C727 C743 1.429 . S
C727 H749 0.950 . S
C728 H724 0.949 . S
C728 C736 1.574 . S
C728 C744 1.368 . S
H729 C737 0.950 . S
H730 C735 0.950 . S
H731 C736 0.949 . S
H732 C738 0.950 . S
H733 C739 0.950 . S
H734 C740 0.949 . S
C735 H730 0.950 . S
C735 C737 1.327 . S
C735 C741 1.429 . S
C736 C728 1.574 . S
C736 H731 0.949 . S
C736 C742 1.368 . S
C737 C721 1.349 . S
C737 H729 0.950 . S
C737 C735 1.327 . S
C738 C726 1.349 . S
C738 H732 0.950 . S
C738 C739 1.327 . S
C739 H733 0.950 . S
C739 C738 1.327 . S
C739 C743 1.429 . S
C740 C723 1.574 . S
C740 H734 0.949 . S
C740 C744 1.368 . S
C741 C722 1.429 . S
C741 C735 1.429 . S
C741 C742 1.523 . S
C742 C723 1.368 . S
C742 C736 1.368 . S
C742 C741 1.523 . S
C743 C727 1.429 . S
C743 C739 1.429 . S
C743 C744 1.523 . S
C744 C728 1.368 . S
C744 C740 1.368 . S
C744 C743 1.523 . S
H745 C720 0.950 . S
H746 C722 0.950 . S
H747 C723 0.949 . S
H748 C725 0.950 . S
H749 C727 0.950 . S
C750 C751 1.349 . S
C750 C752 1.327 . S
C750 H775 0.950 . S
C751 C750 1.349 . S
C751 C767 1.349 . S
C752 C750 1.327 . S
C752 C771 1.429 . S
C752 H776 0.950 . S
C753 C770 1.574 . S
C753 C772 1.368 . S
C753 H777 0.949 . S
H754 C758 0.949 . S
C755 C756 1.349 . S
C755 C757 1.327 . S
C755 H778 0.950 . S
C756 C755 1.349 . S
C756 C768 1.349 . S
C757 C755 1.327 . S
C757 C773 1.429 . S
C757 H779 0.950 . S
C758 H754 0.949 . S
C758 C766 1.574 . S
C758 C774 1.368 . S
H759 C767 0.950 . S
H760 C765 0.950 . S
H761 C766 0.949 . S
H762 C768 0.950 . S
H763 C769 0.950 . S
H764 C770 0.949 . S
C765 H760 0.950 . S
C765 C767 1.327 . S
C765 C771 1.429 . S
C766 C758 1.574 . S
C766 H761 0.949 . S
C766 C772 1.368 . S
C767 C751 1.349 . S
C767 H759 0.950 . S
C767 C765 1.327 . S
C768 C756 1.349 . S
C768 H762 0.950 . S
C768 C769 1.327 . S
C769 H763 0.950 . S
C769 C768 1.327 . S
C769 C773 1.429 . S
C770 C753 1.574 . S
C770 H764 0.949 . S
C770 C774 1.368 . S
C771 C752 1.429 . S
C771 C765 1.429 . S
C771 C772 1.523 . S
C772 C753 1.368 . S
C772 C766 1.368 . S
C772 C771 1.523 . S
C773 C757 1.429 . S
C773 C769 1.429 . S
C773 C774 1.523 . S
C774 C758 1.368 . S
C774 C770 1.368 . S
C774 C773 1.523 . S
H775 C750 0.950 . S
H776 C752 0.950 . S
H777 C753 0.949 . S
H778 C755 0.950 . S
H779 C757 0.950 . S
C780 C781 1.349 . S
C780 C782 1.327 . S
C780 H805 0.950 . S
C781 C780 1.349 . S
C781 C797 1.349 . S
C782 C780 1.327 . S
C782 C801 1.429 . S
C782 H806 0.950 . S
C783 C800 1.574 . S
C783 C802 1.368 . S
C783 H807 0.949 . S
H784 C788 0.949 . S
C785 C786 1.349 . S
C785 C787 1.327 . S
C785 H808 0.950 . S
C786 C785 1.349 . S
C786 C798 1.349 . S
C787 C785 1.327 . S
C787 C803 1.429 . S
C787 H809 0.950 . S
C788 H784 0.949 . S
C788 C796 1.574 . S
C788 C804 1.368 . S
H789 C797 0.950 . S
H790 C795 0.950 . S
H791 C796 0.949 . S
H792 C798 0.950 . S
H793 C799 0.950 . S
H794 C800 0.949 . S
C795 H790 0.950 . S
C795 C797 1.327 . S
C795 C801 1.429 . S
C796 C788 1.574 . S
C796 H791 0.949 . S
C796 C802 1.368 . S
C797 C781 1.349 . S
C797 H789 0.950 . S
C797 C795 1.327 . S
C798 C786 1.349 . S
C798 H792 0.950 . S
C798 C799 1.327 . S
C799 H793 0.950 . S
C799 C798 1.327 . S
C799 C803 1.429 . S
C800 C783 1.574 . S
C800 H794 0.949 . S
C800 C804 1.368 . S
C801 C782 1.429 . S
C801 C795 1.429 . S
C801 C802 1.523 . S
C802 C783 1.368 . S
C802 C796 1.368 . S
C802 C801 1.523 . S
C803 C787 1.429 . S
C803 C799 1.429 . S
C803 C804 1.523 . S
C804 C788 1.368 . S
C804 C800 1.368 . S
C804 C803 1.523 . S
H805 C780 0.950 . S
H806 C782 0.950 . S
H807 C783 0.949 . S
H808 C785 0.950 . S
H809 C787 0.950 . S
C810 C811 1.349 . S
C810 C812 1.327 . S
C810 H835 0.950 . S
C811 C810 1.349 . S
C811 C827 1.349 . S
C812 C810 1.327 . S
C812 C831 1.429 . S
C812 H836 0.950 . S
C813 C830 1.574 . S
C813 C832 1.368 . S
C813 H837 0.949 . S
H814 C818 0.949 . S
C815 C816 1.349 . S
C815 C817 1.327 . S
C815 H838 0.950 . S
C816 C815 1.349 . S
C816 C828 1.349 . S
C817 C815 1.327 . S
C817 C833 1.429 . S
C817 H839 0.950 . S
C818 H814 0.949 . S
C818 C826 1.574 . S
C818 C834 1.368 . S
H819 C827 0.950 . S
H820 C825 0.950 . S
H821 C826 0.949 . S
H822 C828 0.950 . S
H823 C829 0.950 . S
H824 C830 0.949 . S
C825 H820 0.950 . S
C825 C827 1.327 . S
C825 C831 1.429 . S
C826 C818 1.574 . S
C826 H821 0.949 . S
C826 C832 1.368 . S
C827 C811 1.349 . S
C827 H819 0.950 . S
C827 C825 1.327 . S
C828 C816 1.349 . S
C828 H822 0.950 . S
C828 C829 1.327 . S
C829 H823 0.950 . S
C829 C828 1.327 . S
C829 C833 1.429 . S
C830 C813 1.574 . S
C830 H824 0.949 . S
C830 C834 1.368 . S
C831 C812 1.429 . S
C831 C825 1.429 . S
C831 C832 1.523 . S
C832 C813 1.368 . S
C832 C826 1.368 . S
C832 C831 1.523 . S
C833 C817 1.429 . S
C833 C829 1.429 . S
C833 C834 1.523 . S
C834 C818 1.368 . S
C834 C830 1.368 . S
C834 C833 1.523 . S
H835 C810 0.950 . S
H836 C812 0.950 . S
H837 C813 0.949 . S
H838 C815 0.950 . S
H839 C817 0.950 . S
C840 C841 1.349 . S
C840 C842 1.327 . S
C840 H865 0.950 . S
C841 C840 1.349 . S
C841 C857 1.349 . S
C842 C840 1.327 . S
C842 C861 1.429 . S
C842 H866 0.950 . S
C843 C860 1.574 . S
C843 C862 1.368 . S
C843 H867 0.949 . S
H844 C848 0.949 . S
C845 C846 1.349 . S
C845 C847 1.327 . S
C845 H868 0.950 . S
C846 C845 1.349 . S
C846 C858 1.349 . S
C847 C845 1.327 . S
C847 C863 1.429 . S
C847 H869 0.950 . S
C848 H844 0.949 . S
C848 C856 1.574 . S
C848 C864 1.368 . S
H849 C857 0.950 . S
H850 C855 0.950 . S
H851 C856 0.949 . S
H852 C858 0.950 . S
H853 C859 0.950 . S
H854 C860 0.949 . S
C855 H850 0.950 . S
C855 C857 1.327 . S
C855 C861 1.429 . S
C856 C848 1.574 . S
C856 H851 0.949 . S
C856 C862 1.368 . S
C857 C841 1.349 . S
C857 H849 0.950 . S
C857 C855 1.327 . S
C858 C846 1.349 . S
C858 H852 0.950 . S
C858 C859 1.327 . S
C859 H853 0.950 . S
C859 C858 1.327 . S
C859 C863 1.429 . S
C860 C843 1.574 . S
C860 H854 0.949 . S
C860 C864 1.368 . S
C861 C842 1.429 . S
C861 C855 1.429 . S
C861 C862 1.523 . S
C862 C843 1.368 . S
C862 C856 1.368 . S
C862 C861 1.523 . S
C863 C847 1.429 . S
C863 C859 1.429 . S
C863 C864 1.523 . S
C864 C848 1.368 . S
C864 C860 1.368 . S
C864 C863 1.523 . S
H865 C840 0.950 . S
H866 C842 0.950 . S
H867 C843 0.949 . S
H868 C845 0.950 . S
H869 C847 0.950 . S
C870 C871 1.349 . S
C870 C872 1.327 . S
C870 H895 0.950 . S
C871 C870 1.349 . S
C871 C887 1.349 . S
C872 C870 1.327 . S
C872 C891 1.429 . S
C872 H896 0.950 . S
C873 C890 1.574 . S
C873 C892 1.368 . S
C873 H897 0.949 . S
H874 C878 0.949 . S
C875 C876 1.349 . S
C875 C877 1.327 . S
C875 H898 0.950 . S
C876 C875 1.349 . S
C876 C888 1.349 . S
C877 C875 1.327 . S
C877 C893 1.429 . S
C877 H899 0.950 . S
C878 H874 0.949 . S
C878 C886 1.574 . S
C878 C894 1.368 . S
H879 C887 0.950 . S
H880 C885 0.950 . S
H881 C886 0.949 . S
H882 C888 0.950 . S
H883 C889 0.950 . S
H884 C890 0.949 . S
C885 H880 0.950 . S
C885 C887 1.327 . S
C885 C891 1.429 . S
C886 C878 1.574 . S
C886 H881 0.949 . S
C886 C892 1.368 . S
C887 C871 1.349 . S
C887 H879 0.950 . S
C887 C885 1.327 . S
C888 C876 1.349 . S
C888 H882 0.950 . S
C888 C889 1.327 . S
C889 H883 0.950 . S
C889 C888 1.327 . S
C889 C893 1.429 . S
C890 C873 1.574 . S
C890 H884 0.949 . S
C890 C894 1.368 . S
C891 C872 1.429 . S
C891 C885 1.429 . S
C891 C892 1.523 . S
C892 C873 1.368 . S
C892 C886 1.368 . S
C892 C891 1.523 . S
C893 C877 1.429 . S
C893 C889 1.429 . S
C893 C894 1.523 . S
C894 C878 1.368 . S
C894 C890 1.368 . S
C894 C893 1.523 . S
H895 C870 0.950 . S
H896 C872 0.950 . S
H897 C873 0.949 . S
H898 C875 0.950 . S
H899 C877 0.950 . S
C900 C901 1.349 . S
C900 C902 1.327 . S
C900 H925 0.950 . S
C901 C900 1.349 . S
C901 C917 1.349 . S
C902 C900 1.327 . S
C902 C921 1.429 . S
C902 H926 0.950 . S
C903 C920 1.574 . S
C903 C922 1.368 . S
C903 H927 0.949 . S
H904 C908 0.949 . S
C905 C906 1.349 . S
C905 C907 1.327 . S
C905 H928 0.950 . S
C906 C905 1.349 . S
C906 C918 1.349 . S
C907 C905 1.327 . S
C907 C923 1.429 . S
C907 H929 0.950 . S
C908 H904 0.949 . S
C908 C916 1.574 . S
C908 C924 1.368 . S
H909 C917 0.950 . S
H910 C915 0.950 . S
H911 C916 0.949 . S
H912 C918 0.950 . S
H913 C919 0.950 . S
H914 C920 0.949 . S
C915 H910 0.950 . S
C915 C917 1.327 . S
C915 C921 1.429 . S
C916 C908 1.574 . S
C916 H911 0.949 . S
C916 C922 1.368 . S
C917 C901 1.349 . S
C917 H909 0.950 . S
C917 C915 1.327 . S
C918 C906 1.349 . S
C918 H912 0.950 . S
C918 C919 1.327 . S
C919 H913 0.950 . S
C919 C918 1.327 . S
C919 C923 1.429 . S
C920 C903 1.574 . S
C920 H914 0.949 . S
C920 C924 1.368 . S
C921 C902 1.429 . S
C921 C915 1.429 . S
C921 C922 1.523 . S
C922 C903 1.368 . S
C922 C916 1.368 . S
C922 C921 1.523 . S
C923 C907 1.429 . S
C923 C919 1.429 . S
C923 C924 1.523 . S
C924 C908 1.368 . S
C924 C920 1.368 . S
C924 C923 1.523 . S
H925 C900 0.950 . S
H926 C902 0.950 . S
H927 C903 0.949 . S
H928 C905 0.950 . S
H929 C907 0.950 . S
C211 C13 1.591 . S
C216 C93 1.441 . S
C241 C27 1.628 . S
C246 C114 1.476 . S
C276 C135 1.445 . S
C271 C29 1.596 . S
C306 C164 1.556 . S
C301 C54 1.640 . S
C336 C177 1.442 . S
C331 C69 1.592 . S
C366 C201 1.545 . S
C361 C83 1.628 . S
C391 C15 1.583 . S
C396 C145 1.452 . S
C421 C41 1.634 . S
C426 C159 1.550 . S
C456 C187 1.456 . S
C451 C42 1.588 . S
C486 C206 1.556 . S
C481 C57 1.642 . S
C511 C71 1.590 . S
C516 C103 1.458 . S
C546 C124 1.492 . S
C541 C1 1.626 . S
C576 C166 1.547 . S
C571 C12 1.616 . S
C601 C26 1.667 . S
C606 C180 1.473 . S
C636 C198 1.555 . S
C631 C28 1.629 . S
C661 C55 1.668 . S
C666 C96 1.473 . S
C691 C68 1.631 . S
C696 C117 1.439 . S
C721 C82 1.664 . S
C726 C138 1.471 . S
C751 C14 1.614 . S
C756 C208 1.546 . S
C786 C101 1.490 . S
C781 C40 1.665 . S
C811 C43 1.630 . S
C816 C122 1.457 . S
C841 C56 1.672 . S
C846 C143 1.496 . S
C871 C70 1.624 . S
C876 C156 1.551 . S
C901 C0 1.665 . S
C906 C185 1.490 . S
