# Generated by pormake.
# Topology anh, (6,3)-cn, num edge types: 1
# Building blocks:
#     Node 0, Type 0, BuildingBlock: INOVEN_clean_sbu_0, # of connection points: 6
#     Node 1, Type 0, BuildingBlock: INOVEN_clean_sbu_0, # of connection points: 6
#     Node 2, Type 0, BuildingBlock: INOVEN_clean_sbu_0, # of connection points: 6
#     Node 3, Type 1, BuildingBlock: CUQRIR_clean_linker_1, # of connection points: 3
#     Node 4, Type 1, BuildingBlock: CUQRIR_clean_linker_1, # of connection points: 3
#     Node 5, Type 1, BuildingBlock: CUQRIR_clean_linker_1, # of connection points: 3
#     Node 6, Type 1, BuildingBlock: CUQRIR_clean_linker_1, # of connection points: 3
#     Node 7, Type 1, BuildingBlock: CUQRIR_clean_linker_1, # of connection points: 3
#     Node 8, Type 1, BuildingBlock: CUQRIR_clean_linker_1, # of connection points: 3
#     Edge 9, Type (0, 1), BuildingBlock: UVAHIK_clean_linker_0, # of connection points: 2
#     Edge 10, Type (0, 1), BuildingBlock: UVAHIK_clean_linker_0, # of connection points: 2
#     Edge 11, Type (0, 1), BuildingBlock: UVAHIK_clean_linker_0, # of connection points: 2
#     Edge 12, Type (0, 1), BuildingBlock: UVAHIK_clean_linker_0, # of connection points: 2
#     Edge 13, Type (0, 1), BuildingBlock: UVAHIK_clean_linker_0, # of connection points: 2
#     Edge 14, Type (0, 1), BuildingBlock: UVAHIK_clean_linker_0, # of connection points: 2
#     Edge 15, Type (0, 1), BuildingBlock: UVAHIK_clean_linker_0, # of connection points: 2
#     Edge 16, Type (0, 1), BuildingBlock: UVAHIK_clean_linker_0, # of connection points: 2
#     Edge 17, Type (0, 1), BuildingBlock: UVAHIK_clean_linker_0, # of connection points: 2
#     Edge 18, Type (0, 1), BuildingBlock: UVAHIK_clean_linker_0, # of connection points: 2
#     Edge 19, Type (0, 1), BuildingBlock: UVAHIK_clean_linker_0, # of connection points: 2
#     Edge 20, Type (0, 1), BuildingBlock: UVAHIK_clean_linker_0, # of connection points: 2
#     Edge 21, Type (0, 1), BuildingBlock: UVAHIK_clean_linker_0, # of connection points: 2
#     Edge 22, Type (0, 1), BuildingBlock: UVAHIK_clean_linker_0, # of connection points: 2
#     Edge 23, Type (0, 1), BuildingBlock: UVAHIK_clean_linker_0, # of connection points: 2
#     Edge 24, Type (0, 1), BuildingBlock: UVAHIK_clean_linker_0, # of connection points: 2
#     Edge 25, Type (0, 1), BuildingBlock: UVAHIK_clean_linker_0, # of connection points: 2
#     Edge 26, Type (0, 1), BuildingBlock: UVAHIK_clean_linker_0, # of connection points: 2
# Relax obj value: 0.168
# Max RMSD: 0.212
# Mean RMSD: 0.163
data_MOF--net-anh--node1-INOVEN_clean_sbu_0--node2-CUQRIR_clean_linker_1--edge1-UVAHIK_clean_linker_0
_symmetry_space_group_name_H-M    P1
_symmetry_Int_Tables_number       1
_symmetry_cell_setting            triclinic
loop_
_symmetry_equiv_pos_as_xyz
'x, y, z'
_cell_length_a     37.130983
_cell_length_b     44.327493
_cell_length_c     61.141885
_cell_angle_alpha  88.326242
_cell_angle_beta   90.295959
_cell_angle_gamma 127.95914
loop_
_atom_site_label
_atom_site_type_symbol
_atom_site_fract_x
_atom_site_fract_y
_atom_site_fract_z
_atom_type_partial_charge
Gd0 Gd 0.10256 0.47219 0.1547 0.0
Gd1 Gd 1.04603 0.49688 0.16037 0.0
C2 C 0.15097 0.5634 0.16074 0.0
C3 C 0.16761 0.46916 0.14523 0.0
C4 C 0.21537 0.4934 0.15275 0.0
C5 C 0.22788 0.48019 0.17006 0.0
C6 C 0.24758 0.53106 0.14434 0.0
C7 C 0.3029 0.54219 0.17111 0.0
C8 C 0.29095 0.5552 0.15343 0.0
C9 C 0.27107 0.50436 0.17921 0.0
C10 C 0.07847 0.46977 0.1967 0.0
C11 C 0.99767 0.40613 0.15433 0.0
C12 C 0.98037 0.49763 0.17232 0.0
C13 C 0.93073 0.46816 0.16988 0.0
C14 C 0.91233 0.45267 0.14938 0.0
C15 C 0.9018 0.453 0.18839 0.0
C16 C 0.83628 0.40867 0.16574 0.0
C17 C 0.85504 0.42343 0.18637 0.0
C18 C 0.86566 0.42348 0.14732 0.0
C19 C 0.07183 0.50119 0.11851 0.0
O20 O 0.15427 0.53746 0.15317 0.0
O21 O 0.11149 0.55346 0.16793 0.0
O22 O 0.13663 0.44702 0.16035 0.0
O23 O 0.15583 0.4856 0.13216 0.0
O24 O 0.07944 0.4438 0.18838 0.0
O25 O 0.09172 0.49625 0.18279 0.0
O26 O 0.99522 0.43205 0.16255 0.0
O27 O 1.03662 0.41608 0.1463 0.0
O28 O 1.00432 0.51496 0.1543 0.0
O29 O 0.99967 0.48816 0.18576 0.0
O30 O 0.06997 0.52655 0.12718 0.0
O31 O 1.05789 0.47378 0.13192 0.0
H32 H 0.20394 0.45129 0.17682 0.0
H33 H 0.2391 0.54219 0.131 0.0
H34 H 0.315 0.58416 0.14678 0.0
H35 H 0.2798 0.49322 0.19243 0.0
H36 H 0.9339 0.46317 0.13483 0.0
H37 H 0.91543 0.46393 0.20443 0.0
H38 H 0.83355 0.41239 0.20095 0.0
H39 H 0.85252 0.41346 0.1311 0.0
Gd40 Gd 0.68216 0.04171 0.48163 0.0
Gd41 Gd 0.62112 0.06302 0.46993 0.0
C42 C 0.57365 0.97478 0.47372 0.0
C43 C 0.71859 0.0128 0.49951 0.0
C44 C 0.70685 0.97474 0.5045 0.0
C45 C 0.72293 0.96035 0.49075 0.0
C46 C 0.68171 0.95335 0.52351 0.0
C47 C 0.68927 0.90414 0.51493 0.0
C48 C 0.67301 0.91843 0.52866 0.0
C49 C 0.71407 0.92539 0.49585 0.0
C50 C 0.67725 0.0529 0.43838 0.0
C51 C 0.73115 0.13035 0.47565 0.0
C52 C 0.58462 0.09283 0.45374 0.0
C53 C 0.58619 0.12591 0.4591 0.0
C54 C 0.57388 0.12914 0.48012 0.0
C55 C 0.60084 0.155 0.44321 0.0
C56 C 0.59053 0.18982 0.4692 0.0
C57 C 0.60323 0.1868 0.44824 0.0
C58 C 0.57586 0.16066 0.48506 0.0
C59 C 0.62605 0.05274 0.51327 0.0
O60 O 0.61061 0.98481 0.48428 0.0
O61 O 0.57292 1.00062 0.46289 0.0
O62 O 0.72459 0.0238 0.47888 0.0
O63 O 0.69707 0.02226 0.51067 0.0
O64 O 0.71412 0.06214 0.4477 0.0
O65 O 0.64448 0.03604 0.45192 0.0
O66 O 0.69206 0.11999 0.46749 0.0
O67 O 0.73478 0.10505 0.48491 0.0
O68 O 0.56371 0.06394 0.4679 0.0
O69 O 0.6224 0.10075 0.44587 0.0
O70 O 0.58983 0.04434 0.50378 0.0
O71 O 0.65896 0.0692 0.49978 0.0
H72 H 0.74299 0.97639 0.47617 0.0
H73 H 0.6691 0.96371 0.53457 0.0
H74 H 0.65348 0.90258 0.54338 0.0
H75 H 0.72769 0.91548 0.48511 0.0
H76 H 0.56291 0.10744 0.49283 0.0
H77 H 0.61056 0.15316 0.42692 0.0
H78 H 0.61444 0.20877 0.43567 0.0
H79 H 0.56654 0.1625 0.50145 0.0
Gd80 Gd 0.62966 0.60158 0.84026 0.0
Gd81 Gd 0.56738 0.51724 0.85199 0.0
C82 C 0.51998 0.55785 0.85074 0.0
C83 C 0.66725 0.66806 0.82152 0.0
C84 C 0.65893 0.69644 0.81762 0.0
C85 C 0.66405 0.71984 0.83438 0.0
C86 C 0.64874 0.70211 0.79645 0.0
C87 C 0.65026 0.75469 0.80868 0.0
C88 C 0.64424 0.73078 0.79204 0.0
C89 C 0.65976 0.74863 0.82994 0.0
C90 C 0.62529 0.58445 0.88319 0.0
C91 C 0.67808 0.5618 0.84446 0.0
C92 C 0.53068 0.44889 0.86748 0.0
C93 C 0.53978 0.42156 0.86352 0.0
C94 C 0.57606 0.43203 0.84966 0.0
C95 C 0.51135 0.38444 0.87287 0.0
C96 C 0.55525 0.36835 0.85436 0.0
C97 C 0.51889 0.35795 0.86827 0.0
C98 C 0.58397 0.40579 0.84525 0.0
C99 C 0.57364 0.53486 0.80887 0.0
O100 O 0.55854 0.58723 0.84095 0.0
O101 O 0.5172 0.5287 0.85945 0.0
O102 O 0.67612 0.66335 0.84152 0.0
O103 O 0.64123 0.6359 0.8112 0.0
O104 O 0.66216 0.61322 0.87327 0.0
O105 O 0.59195 0.56795 0.87042 0.0
O106 O 0.63821 0.53176 0.85272 0.0
O107 O 0.68243 0.5918 0.83601 0.0
O108 O 0.51444 0.45597 0.85082 0.0
O109 O 0.56278 0.47992 0.87751 0.0
O110 O 0.53633 0.50671 0.81867 0.0
O111 O 0.60629 0.55081 0.82199 0.0
H112 H 0.67209 0.71639 0.85086 0.0
H113 H 0.64518 0.68486 0.78315 0.0
H114 H 0.63746 0.73498 0.77544 0.0
H115 H 0.66408 0.76628 0.84316 0.0
H116 H 0.59785 0.46032 0.84194 0.0
H117 H 0.48305 0.37584 0.88353 0.0
H118 H 0.49637 0.32937 0.8756 0.0
H119 H 0.61181 0.41448 0.83423 0.0
C120 C 0.57542 0.98538 0.17844 0.0
N121 N 0.60181 0.01388 0.19267 0.0
N122 N 0.53886 0.95374 0.18901 0.0
C123 C 0.58358 0.98913 0.15414 0.0
C124 C 0.54405 0.96392 0.21011 0.0
N125 N 0.58191 1.00048 0.21231 0.0
C126 C 0.51394 0.93714 0.22882 0.0
H127 H 0.55121 0.96875 0.14541 0.0
H128 H 0.60732 0.98262 0.15042 0.0
H129 H 0.59947 0.01877 0.14808 0.0
H130 H 0.53394 0.94396 0.24395 0.0
H131 H 0.49706 0.9069 0.2249 0.0
H132 H 0.4871 0.94037 0.23201 0.0
C133 C 0.63671 0.53909 0.54458 0.0
N134 N 0.63477 0.55832 0.56079 0.0
N135 N 0.62391 0.50474 0.5523 0.0
C136 C 0.64721 0.55229 0.52093 0.0
C137 C 0.61414 0.50379 0.57372 0.0
N138 N 0.62033 0.53613 0.57881 0.0
C139 C 0.60106 0.47226 0.58998 0.0
H140 H 0.63582 0.56968 0.51663 0.0
H141 H 0.6305 0.52761 0.51001 0.0
H142 H 0.6847 0.57036 0.51813 0.0
H143 H 0.61461 0.45714 0.58481 0.0
H144 H 0.56326 0.45132 0.59113 0.0
H145 H 0.61406 0.48378 0.60647 0.0
C146 C 0.09608 0.55453 0.8574 0.0
N147 N 0.11965 0.54807 0.87151 0.0
N148 N 1.05883 0.54778 0.86754 0.0
C149 C 0.10784 0.56539 0.83361 0.0
C150 C 1.06104 0.5374 0.88824 0.0
N151 N 0.0972 0.53728 0.89058 0.0
C152 C 1.0285 0.52855 0.90655 0.0
H153 H 0.13394 0.59693 0.83185 0.0
H154 H 0.07731 0.55672 0.82424 0.0
H155 H 0.12241 0.552 0.82677 0.0
H156 H 0.99984 0.49739 0.90706 0.0
H157 H 1.01428 0.54423 0.90391 0.0
H158 H 1.04549 0.53609 0.92263 0.0
C159 C 0.14625 0.55499 0.45661 0.0
N160 N 0.11645 0.52781 0.4424 0.0
N161 N 0.17511 0.58954 0.44602 0.0
C162 C 0.14563 0.54836 0.48088 0.0
C163 C 0.16195 0.5823 0.42491 0.0
N164 N 0.12616 0.54503 0.42279 0.0
C165 C 0.18563 0.61118 0.40616 0.0
H166 H 0.16003 0.57504 0.48969 0.0
H167 H 0.16681 0.53902 0.48446 0.0
H168 H 0.11033 0.52554 0.48695 0.0
H169 H 0.18183 0.59722 0.39062 0.0
H170 H 0.22251 0.6331 0.40944 0.0
H171 H 0.16995 0.62576 0.40409 0.0
C172 C 0.62893 0.08349 0.77747 0.0
N173 N 0.63118 0.06427 0.76136 0.0
N174 N 0.61929 0.10636 0.76905 0.0
C175 C 0.63253 0.07781 0.80152 0.0
C176 C 0.61561 0.10035 0.74732 0.0
N177 N 0.62257 0.07463 0.74265 0.0
C178 C 0.60761 0.12113 0.73058 0.0
H179 H 0.61445 0.08545 0.81146 0.0
H180 H 0.66909 0.09658 0.806 0.0
H181 H 0.61814 0.0477 0.80546 0.0
H182 H 0.62578 0.12582 0.71497 0.0
H183 H 0.6191 0.14913 0.73658 0.0
H184 H 0.57049 0.10344 0.7273 0.0
C185 C 0.57762 0.47873 0.14606 0.0
N186 N 0.58125 0.47073 0.12534 0.0
N187 N 0.58631 0.51317 0.14653 0.0
C188 C 0.56916 0.45447 0.16608 0.0
C189 C 0.59527 0.52583 0.12536 0.0
N190 N 0.59305 0.50036 0.11257 0.0
C191 C 0.60184 0.56121 0.11691 0.0
H192 H 0.581 0.47152 0.18106 0.0
H193 H 0.58697 0.4417 0.16447 0.0
H194 H 0.53199 0.43081 0.16785 0.0
H195 H 0.63842 0.58619 0.1182 0.0
H196 H 0.58138 0.56658 0.12674 0.0
H197 H 0.59191 0.55869 0.09952 0.0
C198 C 0.35655 0.56725 0.20268 0.0
C199 C 0.34959 0.56653 0.18002 0.0
C200 C 0.39997 0.58302 0.21071 0.0
C201 C 0.47256 0.57359 0.2177 0.0
H202 H 0.57774 0.63325 0.17861 0.0
C203 C 0.53682 0.50766 0.17532 0.0
C204 C 0.57919 0.52932 0.16443 0.0
C205 C 0.52576 0.52511 0.18936 0.0
C206 C 0.54971 0.61721 0.19035 0.0
H207 H 0.38307 0.58518 0.14818 0.0
H208 H 0.45782 0.61129 0.16181 0.0
H209 H 0.5259 0.6489 0.18088 0.0
H210 H 0.64524 0.58493 0.16125 0.0
H211 H 0.62604 0.61602 0.18591 0.0
H212 H 0.4957 0.54122 0.22668 0.0
C213 C 0.4306 0.60062 0.17368 0.0
C214 C 0.51947 0.62592 0.19141 0.0
C215 C 0.38741 0.58529 0.16572 0.0
C216 C 0.61206 0.56797 0.16933 0.0
C217 C 0.60105 0.58561 0.18343 0.0
C218 C 0.5034 0.56552 0.21706 0.0
C219 C 0.43698 0.59771 0.19618 0.0
C220 C 0.47803 0.60149 0.20322 0.0
C221 C 0.5569 0.56476 0.19274 0.0
C222 C 0.5394 0.58452 0.20157 0.0
H223 H 0.32797 0.55374 0.2141 0.0
H224 H 0.40378 0.58119 0.22816 0.0
H225 H 0.44172 0.55458 0.2275 0.0
H226 H 0.51092 0.47789 0.1716 0.0
H227 H 0.49117 0.50801 0.19585 0.0
C228 C 0.81475 0.18381 0.48126 0.0
C229 C 0.7717 0.1714 0.474 0.0
C230 C 0.85316 0.22234 0.47867 0.0
C231 C 0.89582 0.30991 0.44543 0.0
H232 H 0.98611 0.36278 0.49077 0.0
C233 C 1.03462 0.4733 0.44102 0.0
C234 C 0.07898 0.48815 0.44722 0.0
C235 C 0.99822 0.43461 0.44482 0.0
C236 C 0.96149 0.34831 0.47784 0.0
H237 H 0.73532 0.19021 0.45876 0.0
H238 H 0.80184 0.25702 0.45448 0.0
H239 H 0.92057 0.29536 0.49656 0.0
H240 H 0.12042 0.47468 0.46238 0.0
H241 H 1.05663 0.40657 0.46913 0.0
H242 H 0.93645 0.36262 0.42669 0.0
C243 C 0.80619 0.23695 0.46184 0.0
C244 C 0.9239 0.30965 0.48117 0.0
C245 C 0.7679 0.19856 0.46444 0.0
C246 C 0.08632 0.46377 0.45763 0.0
C247 C 1.04983 0.42491 0.46148 0.0
C248 C 0.93329 0.34843 0.44211 0.0
C249 C 0.84943 0.24931 0.4687 0.0
C250 C 0.89034 0.29008 0.46507 0.0
C251 C 1.00534 0.40977 0.45493 0.0
C252 C 0.96641 0.36828 0.45834 0.0
H253 H 0.81898 0.16369 0.48867 0.0
H254 H 0.88599 0.23081 0.484 0.0
H255 H 0.87123 0.29556 0.43247 0.0
H256 H 1.02815 0.49183 0.43335 0.0
H257 H 0.96435 0.42421 0.43997 0.0
C258 C 0.61449 0.78145 0.78991 0.0
C259 C 0.64824 0.78666 0.80368 0.0
C260 C 0.6134 0.81185 0.78482 0.0
C261 C 0.65544 0.90722 0.80365 0.0
H262 H 0.62571 0.91957 0.74483 0.0
C263 C 0.67283 0.04123 0.77582 0.0
C264 C 0.63621 0.03464 0.76404 0.0
C265 C 0.67577 0.01159 0.77983 0.0
C266 C 0.63375 0.91634 0.76137 0.0
H267 H 0.7077 0.8281 0.82263 0.0
H268 H 0.70605 0.88113 0.81366 0.0
H269 H 0.62733 0.86641 0.75378 0.0
H270 H 0.57442 0.99248 0.74689 0.0
H271 H 0.57959 0.94055 0.75361 0.0
H272 H 0.66203 0.95724 0.81121 0.0
C273 C 0.67982 0.85338 0.80712 0.0
C274 C 0.63455 0.8858 0.76653 0.0
C275 C 0.68079 0.82295 0.81227 0.0
C276 C 0.60325 0.99825 0.75578 0.0
C277 C 0.60625 0.96862 0.75966 0.0
C278 C 0.65483 0.93782 0.79847 0.0
C279 C 0.64615 0.84826 0.7933 0.0
C280 C 0.64533 0.8808 0.78776 0.0
C281 C 0.64222 0.9748 0.772 0.0
C282 C 0.6439 0.94272 0.77728 0.0
H283 H 0.5886 0.75372 0.78323 0.0
H284 H 0.58651 0.80667 0.77444 0.0
H285 H 0.66311 0.90393 0.82026 0.0
H286 H 0.6989 0.06927 0.78208 0.0
H287 H 0.70429 0.01745 0.78908 0.0
C288 C 0.76704 0.35405 0.14638 0.0
C289 C 0.78601 0.3813 0.16283 0.0
C290 C 0.72192 0.3355 0.13991 0.0
C291 C 0.65702 0.34473 0.11652 0.0
H292 H 0.56836 0.33804 0.15392 0.0
C293 C 0.61912 0.44683 0.10907 0.0
C294 C 0.58034 0.43935 0.11891 0.0
C295 C 0.62325 0.41776 0.10766 0.0
C296 C 0.5915 0.33857 0.14291 0.0
H297 H 0.77059 0.40685 0.18707 0.0
H298 H 0.69278 0.37464 0.17611 0.0
H299 H 0.61424 0.3206 0.1687 0.0
H300 H 0.51305 0.39529 0.13249 0.0
H301 H 0.52027 0.34404 0.13035 0.0
H302 H 0.63646 0.36522 0.09114 0.0
C303 C 0.71229 0.36731 0.1681 0.0
C304 C 0.61815 0.32883 0.1515 0.0
C305 C 0.75733 0.38605 0.1744 0.0
C306 C 0.54362 0.40159 0.12521 0.0
C307 C 0.54773 0.37239 0.12391 0.0
C308 C 0.63004 0.35409 0.10786 0.0
C309 C 0.69489 0.34358 0.14994 0.0
C310 C 0.65411 0.33542 0.13897 0.0
C311 C 0.58867 0.38066 0.11621 0.0
C312 C 0.6002 0.35463 0.12157 0.0
H313 H 0.78785 0.34881 0.13758 0.0
H314 H 0.70924 0.31691 0.12609 0.0
H315 H 0.68393 0.3496 0.10625 0.0
H316 H 0.64789 0.47583 0.10425 0.0
H317 H 0.65554 0.42548 0.10186 0.0
C318 C 0.53382 0.90501 0.48276 0.0
C319 C 0.5327 0.93393 0.47364 0.0
C320 C 0.49484 0.86657 0.48276 0.0
C321 C 0.36902 0.8054 0.47868 0.0
H322 H 0.37863 0.72762 0.46027 0.0
C323 C 0.21349 0.65803 0.45064 0.0
C324 C 0.21185 0.6259 0.45465 0.0
C325 C 0.25186 0.69442 0.45627 0.0
C326 C 0.37534 0.74879 0.46586 0.0
H327 H 0.48953 0.94499 0.45745 0.0
H328 H 0.42189 0.87822 0.45748 0.0
H329 H 0.44764 0.79349 0.4635 0.0
H330 H 0.24786 0.60601 0.46838 0.0
H331 H 0.31506 0.66976 0.47879 0.0
H332 H 0.29682 0.76096 0.48089 0.0
C333 C 0.45275 0.88522 0.46477 0.0
C334 C 0.41496 0.78661 0.46764 0.0
C335 C 0.49171 0.92352 0.46461 0.0
C336 C 0.24844 0.63048 0.46527 0.0
C337 C 0.28698 0.66698 0.47095 0.0
C338 C 0.32947 0.76761 0.47701 0.0
C339 C 0.45378 0.85626 0.47385 0.0
C340 C 0.41217 0.8155 0.47367 0.0
C341 C 0.28953 0.69954 0.46614 0.0
C342 C 0.33199 0.73891 0.47017 0.0
H343 H 0.56481 0.912 0.48987 0.0
H344 H 0.49667 0.84495 0.49 0.0
H345 H 0.36576 0.82684 0.48377 0.0
H346 H 0.1855 0.655 0.44251 0.0
H347 H 0.25265 0.71872 0.45204 0.0
C348 C 0.52541 0.30303 0.84261 0.0
C349 C 0.56242 0.34001 0.84869 0.0
C350 C 0.53241 0.27704 0.836 0.0
C351 C 0.62343 0.27335 0.81505 0.0
H352 H 0.5321 0.16435 0.827 0.0
C353 C 0.64923 0.1618 0.79199 0.0
C354 C 0.61307 0.13076 0.78048 0.0
C355 C 0.64392 0.18686 0.80202 0.0
C356 C 0.55782 0.19472 0.82351 0.0
H357 H 0.63561 0.37833 0.85334 0.0
H358 H 0.64784 0.33274 0.84238 0.0
H359 H 0.52163 0.20901 0.84187 0.0
H360 H 0.54305 0.10061 0.77069 0.0
H361 H 0.53317 0.14403 0.78853 0.0
H362 H 0.65976 0.25882 0.79688 0.0
C363 C 0.61347 0.32404 0.84211 0.0
C364 C 0.55178 0.22036 0.83193 0.0
C365 C 0.60649 0.35016 0.84849 0.0
C366 C 0.57123 0.1245 0.77953 0.0
C367 C 0.56564 0.14917 0.78979 0.0
C368 C 0.62971 0.24772 0.80686 0.0
C369 C 0.57659 0.28724 0.83553 0.0
C370 C 0.58422 0.26002 0.82759 0.0
C371 C 0.60208 0.18085 0.80094 0.0
C372 C 0.59672 0.20812 0.81079 0.0
H373 H 0.49113 0.29456 0.84231 0.0
H374 H 0.50325 0.2493 0.83069 0.0
H375 H 0.6488 0.30354 0.81101 0.0
H376 H 0.68177 0.167 0.79278 0.0
H377 H 0.67247 0.21092 0.8106 0.0
C378 C 0.68724 0.85973 0.54232 0.0
C379 C 0.68159 0.86776 0.52072 0.0
C380 C 0.68203 0.82631 0.54757 0.0
C381 C 0.68409 0.75263 0.52223 0.0
H382 H 0.62562 0.69555 0.57671 0.0
C383 C 0.6832 0.62678 0.54987 0.0
C384 C 0.64201 0.59411 0.55866 0.0
C385 C 0.68909 0.66089 0.54643 0.0
C386 C 0.64182 0.71104 0.56137 0.0
H387 H 0.66453 0.84636 0.48785 0.0
H388 H 0.65503 0.78792 0.49702 0.0
H389 H 0.63171 0.75258 0.56789 0.0
H390 H 0.57486 0.57105 0.57096 0.0
H391 H 0.58473 0.63057 0.56493 0.0
H392 H 0.69314 0.71062 0.51541 0.0
C393 C 0.66448 0.80784 0.50983 0.0
C394 C 0.64574 0.74397 0.55642 0.0
C395 C 0.66983 0.84129 0.50457 0.0
C396 C 0.60711 0.59617 0.56442 0.0
C397 C 0.61286 0.63022 0.56096 0.0
C398 C 0.68013 0.71972 0.52716 0.0
C399 C 0.67092 0.80008 0.53135 0.0
C400 C 0.6668 0.7651 0.53675 0.0
C401 C 0.65374 0.6629 0.55167 0.0
C402 C 0.65889 0.69847 0.54677 0.0
H403 H 0.69691 0.87979 0.55508 0.0
H404 H 0.68782 0.8215 0.56425 0.0
H405 H 0.70105 0.76847 0.50707 0.0
H406 H 0.71063 0.62572 0.54553 0.0
H407 H 0.72129 0.68567 0.53961 0.0
C408 C 0.76272 0.5936 0.83842 0.0
C409 C 0.71834 0.56117 0.84471 0.0
C410 C 0.80026 0.59288 0.8393 0.0
C411 C 0.83595 0.53553 0.86388 0.0
H412 H 0.9383 0.59637 0.82314 0.0
C413 C 0.97688 0.51617 0.86118 0.0
C414 C 1.02283 0.54897 0.85918 0.0
C415 C 0.94093 0.51822 0.85775 0.0
C416 C 0.91024 0.57936 0.8348 0.0
H417 H 0.67947 0.5022 0.85655 0.0
H418 H 0.74362 0.50052 0.85747 0.0
H419 H 0.87433 0.59875 0.82063 0.0
H420 H 0.06677 0.60962 0.85125 0.0
H421 H 1.00405 0.6134 0.84482 0.0
H422 H 0.87156 0.51595 0.87794 0.0
C423 C 0.75017 0.5271 0.85237 0.0
C424 C 0.87326 0.58078 0.8334 0.0
C425 C 0.71285 0.52792 0.85164 0.0
C426 C 1.0318 0.58372 0.85257 0.0
C427 C 0.99567 0.58582 0.84902 0.0
C428 C 0.87263 0.53393 0.86516 0.0
C429 C 0.79484 0.55963 0.84641 0.0
C430 C 0.83515 0.55873 0.84787 0.0
C431 C 0.9495 0.55324 0.85216 0.0
C432 C 0.91046 0.55562 0.8506 0.0
H433 H 0.7687 0.61986 0.83306 0.0
H434 H 0.83375 0.61882 0.83478 0.0
H435 H 0.8084 0.51879 0.8758 0.0
H436 H 0.96881 0.48902 0.86633 0.0
H437 H 0.90621 0.49223 0.85987 0.0
C438 C 0.18922 0.63229 0.1685 0.0
C439 C 0.19231 0.60411 0.1613 0.0
C440 C 0.22794 0.67072 0.16875 0.0
C441 C 0.35424 0.73333 0.16946 0.0
H442 H 0.34355 0.81264 0.15298 0.0
C443 C 0.51 0.89421 0.17031 0.0
C444 C 0.50181 0.91758 0.18031 0.0
C445 C 0.47341 0.85672 0.16487 0.0
C446 C 0.34711 0.79087 0.15774 0.0
H447 H 0.23889 0.59448 0.14873 0.0
H448 H 0.30638 0.6615 0.14911 0.0
H449 H 0.27755 0.74553 0.15013 0.0
H450 H 0.4497 0.92127 0.19164 0.0
H451 H 0.38572 0.85603 0.18228 0.0
H452 H 0.4236 0.7787 0.17743 0.0
C453 C 0.274 0.65381 0.15473 0.0
C454 C 0.3092 0.75235 0.15615 0.0
C455 C 0.23521 0.61535 0.15443 0.0
C456 C 0.4566 0.90361 0.18389 0.0
C457 C 0.42009 0.86634 0.17843 0.0
C458 C 0.39218 0.77189 0.17107 0.0
C459 C 0.27084 0.68204 0.16183 0.0
C460 C 0.31205 0.72305 0.16229 0.0
C461 C 0.42797 0.84208 0.16925 0.0
C462 C 0.38892 0.80118 0.16554 0.0
H463 H 0.15682 0.62474 0.17397 0.0
H464 H 0.22432 0.69154 0.17466 0.0
H465 H 0.35759 0.71156 0.17454 0.0
H466 H 0.54471 0.90447 0.16755 0.0
H467 H 0.48071 0.839 0.15759 0.0
C468 C 0.55656 0.21785 0.48643 0.0
C469 C 0.59268 0.22325 0.47474 0.0
C470 C 0.55944 0.24921 0.49287 0.0
C471 C 0.62315 0.35383 0.48333 0.0
H472 H 0.57677 0.34647 0.54152 0.0
C473 C 0.65649 0.48246 0.52869 0.0
C474 C 0.61934 0.47498 0.5405 0.0
C475 C 0.65299 0.45262 0.51887 0.0
C476 C 0.58943 0.34883 0.52514 0.0
H477 H 0.65984 0.26572 0.46028 0.0
H478 H 0.66528 0.32071 0.47184 0.0
H479 H 0.5714 0.29291 0.52787 0.0
H480 H 0.54896 0.43146 0.55045 0.0
H481 H 0.54264 0.37913 0.53348 0.0
H482 H 0.64191 0.4103 0.48093 0.0
C483 C 0.63438 0.29219 0.47573 0.0
C484 C 0.58627 0.31808 0.51727 0.0
C485 C 0.63133 0.26072 0.46914 0.0
C486 C 0.57818 0.43761 0.5417 0.0
C487 C 0.57469 0.4078 0.53203 0.0
C488 C 0.62658 0.3848 0.49129 0.0
C489 C 0.59869 0.28679 0.48795 0.0
C490 C 0.60275 0.32001 0.49621 0.0
C491 C 0.61229 0.41484 0.52085 0.0
C492 C 0.60941 0.38246 0.51223 0.0
H493 H 0.526 0.18928 0.49064 0.0
H494 H 0.53084 0.24394 0.50179 0.0
H495 H 0.63583 0.35617 0.46696 0.0
H496 H 0.68858 0.51114 0.5277 0.0
H497 H 0.68259 0.45886 0.51045 0.0
C498 C 0.48154 0.5892 0.84438 0.0
C499 C 0.47942 0.55796 0.85241 0.0
C500 C 0.44344 0.58902 0.84592 0.0
C501 C 0.32915 0.53827 0.87511 0.0
H502 H 0.30728 0.58844 0.83012 0.0
C503 C 0.15863 0.51823 0.87342 0.0
C504 C 0.15935 0.54942 0.86721 0.0
C505 C 0.19762 0.52002 0.87109 0.0
C506 C 0.31292 0.57457 0.84302 0.0
H507 H 0.43421 0.50173 0.86825 0.0
H508 H 0.36829 0.50109 0.87061 0.0
H509 H 0.37403 0.59005 0.82724 0.0
H510 H 0.20221 0.60699 0.8532 0.0
H511 H 0.27038 0.61029 0.84887 0.0
H512 H 0.26806 0.52264 0.89084 0.0
C513 C 0.39964 0.5263 0.86346 0.0
C514 C 0.35158 0.57552 0.84137 0.0
C515 C 0.4377 0.52652 0.86196 0.0
C516 C 0.2002 0.58229 0.85798 0.0
C517 C 0.2394 0.5841 0.85554 0.0
C518 C 0.29052 0.53722 0.8767 0.0
C519 C 0.40161 0.55756 0.85552 0.0
C520 C 0.36045 0.55721 0.85734 0.0
C521 C 0.23906 0.55313 0.86234 0.0
C522 C 0.28137 0.55514 0.86065 0.0
H523 H 0.51284 0.61405 0.83693 0.0
H524 H 0.44717 0.61399 0.83982 0.0
H525 H 0.3347 0.52451 0.88811 0.0
H526 H 0.1276 0.49217 0.88014 0.0
H527 H 0.19502 0.4951 0.87606 0.0
C528 C 0.91476 0.35547 0.16351 0.0
C529 C 0.95623 0.36539 0.15527 0.0
C530 C 0.87646 0.31713 0.1663 0.0
C531 C 0.82471 0.21853 0.15009 0.0
H532 H 0.75702 0.19051 0.20475 0.0
C533 C 0.67953 0.06028 0.17668 0.0
C534 C 0.64148 0.05269 0.18762 0.0
C535 C 0.71822 0.09809 0.17213 0.0
C536 C 0.77505 0.19781 0.18926 0.0
H537 H 0.98928 0.34251 0.1428 0.0
H538 H 0.92214 0.27534 0.14768 0.0
H539 H 0.8231 0.25671 0.19731 0.0
H540 H 0.61328 0.07814 0.202 0.0
H541 H 0.68028 0.14416 0.19389 0.0
H542 H 0.7763 0.15958 0.14197 0.0
C543 C 0.9194 0.29742 0.15193 0.0
C544 C 0.81308 0.23586 0.185 0.0
C545 C 0.95792 0.33592 0.14918 0.0
C546 C 0.64254 0.08344 0.19379 0.0
C547 C 0.68101 0.12118 0.18919 0.0
C548 C 0.78641 0.18039 0.1543 0.0
C549 C 0.87845 0.28757 0.1609 0.0
C550 C 0.83829 0.24678 0.16533 0.0
C551 C 0.71955 0.12911 0.17839 0.0
C552 C 0.7609 0.16954 0.17391 0.0
H553 H 0.91192 0.37733 0.1682 0.0
H554 H 0.84524 0.31063 0.17284 0.0
H555 H 0.84314 0.22603 0.1347 0.0
H556 H 0.67951 0.0369 0.172 0.0
H557 H 0.74738 0.10299 0.16408 0.0
C558 C 0.10626 0.53699 0.08295 0.0
C559 C 0.08377 0.50255 0.09532 0.0
C560 C 0.11597 0.53835 0.06073 0.0
C561 C 0.07183 0.47937 0.01334 0.0
H562 H 0.18788 0.56114 0.98585 0.0
C563 C 0.08731 0.49373 0.91992 0.0
C564 C 0.11123 0.53098 0.91102 0.0
C565 C 0.09195 0.48763 0.94197 0.0
C566 C 0.15511 0.53824 0.99319 0.0
H567 H 1.05464 0.44268 0.0944 0.0
H568 H 0.07045 0.44478 0.05521 0.0
H569 H 0.18019 0.55593 0.0257 0.0
H570 H 0.15949 0.59103 0.91754 0.0
H571 H 0.16683 0.581 0.95627 0.0
H572 H 1.04549 0.46293 0.98118 0.0
C573 C 0.08089 0.47076 0.06282 0.0
C574 C 0.15087 0.53518 0.01604 0.0
C575 C 0.07191 0.46957 0.08519 0.0
C576 C 0.14163 0.5621 0.92412 0.0
C577 C 0.14565 0.55615 0.94631 0.0
C578 C 0.07579 0.48278 0.99053 0.0
C579 C 0.10274 0.50513 0.05035 0.0
C580 C 0.10897 0.50605 0.02632 0.0
C581 C 0.11956 0.5188 0.95576 0.0
C582 C 0.11729 0.51265 0.98006 0.0
H583 H 0.116 0.56288 0.09041 0.0
H584 H 0.13244 0.56512 0.05149 0.0
H585 H 1.03896 0.45692 0.02082 0.0
H586 H 1.06319 0.46945 0.91003 0.0
H587 H 0.07223 0.45845 0.94839 0.0
C588 C 0.63181 0.04842 0.40674 0.0
C589 C 0.67231 0.05649 0.41469 0.0
C590 C 0.62569 0.04966 0.38427 0.0
C591 C 0.68627 0.08165 0.33002 0.0
H592 H 0.56525 1.00058 0.30945 0.0
C593 C 0.6418 0.03168 0.24017 0.0
C594 C 0.59936 0.01995 0.2326 0.0
C595 C 0.65462 0.04349 0.26171 0.0
C596 C 0.59907 0.02379 0.31491 0.0
H597 H 0.73874 0.07318 0.40555 0.0
H598 H 0.72757 0.07409 0.36618 0.0
H599 H 0.57973 0.00622 0.34839 0.0
H600 H 0.53878 0.01422 0.2405 0.0
H601 H 0.56097 0.035 0.27813 0.0
H602 H 0.70565 0.09809 0.29617 0.0
C603 C 0.70081 0.06757 0.37726 0.0
C604 C 0.60742 0.0271 0.33731 0.0
C605 C 0.70714 0.06679 0.39981 0.0
C606 C 0.57143 0.02282 0.24622 0.0
C607 C 0.58407 0.0345 0.26769 0.0
C608 C 0.67795 0.07809 0.3075 0.0
C609 C 0.65968 0.05843 0.36919 0.0
C610 C 0.65109 0.05604 0.34522 0.0
C611 C 0.62501 0.04359 0.27593 0.0
C612 C 0.6342 0.0491 0.29973 0.0
H613 H 0.60457 0.04079 0.41788 0.0
H614 H 0.59402 0.04336 0.37874 0.0
H615 H 0.72019 0.10454 0.33551 0.0
H616 H 0.66362 0.02943 0.22985 0.0
H617 H 0.6863 0.05021 0.2676 0.0
C618 C 0.62122 0.569 0.7749 0.0
C619 C 0.57826 0.54209 0.78498 0.0
C620 C 0.6253 0.57346 0.75206 0.0
C621 C 0.56628 0.51823 0.70335 0.0
H622 H 0.64544 0.61551 0.67133 0.0
C623 C 0.57065 0.52196 0.61012 0.0
C624 C 0.61392 0.54524 0.60007 0.0
C625 C 0.56532 0.52629 0.63209 0.0
C626 C 0.62341 0.58813 0.68007 0.0
H627 H 0.50576 0.50012 0.77929 0.0
H628 H 0.51279 0.50794 0.73957 0.0
H629 H 0.63871 0.6143 0.71125 0.0
H630 H 0.68519 0.59236 0.60423 0.0
H631 H 0.67649 0.59974 0.64305 0.0
H632 H 0.55172 0.49181 0.67258 0.0
C633 C 0.54341 0.52517 0.74919 0.0
C634 C 0.61957 0.58746 0.7029 0.0
C635 C 0.53936 0.52078 0.77194 0.0
C636 C 0.65154 0.57436 0.61184 0.0
C637 C 0.6464 0.57851 0.63397 0.0
C638 C 0.57026 0.51888 0.68066 0.0
C639 C 0.58648 0.55098 0.73896 0.0
C640 C 0.59079 0.55245 0.71475 0.0
C641 C 0.60341 0.55365 0.64453 0.0
C642 C 0.59869 0.55378 0.66868 0.0
H643 H 0.65175 0.58587 0.78462 0.0
H644 H 0.65896 0.59343 0.74464 0.0
H645 H 0.54464 0.49076 0.71203 0.0
H646 H 0.54132 0.49951 0.60111 0.0
H647 H 0.53154 0.50733 0.63952 0.0
C648 C 0.67097 0.06339 0.54701 0.0
C649 C 0.6292 0.04893 0.53712 0.0
C650 C 0.67331 0.0607 0.5698 0.0
C651 C 0.60016 0.01101 0.61989 0.0
H652 H 0.69902 0.10176 0.64908 0.0
C653 C 0.58595 0.04582 0.70769 0.0
C654 C 0.62404 0.06296 0.72119 0.0
C655 C 0.58884 0.03856 0.68596 0.0
C656 C 0.67162 0.07591 0.64119 0.0
H657 H 0.55711 0.01976 0.54312 0.0
H658 H 0.56121 0.01573 0.58263 0.0
H659 H 0.70058 0.0998 0.6093 0.0
H660 H 0.69436 0.08485 0.72323 0.0
H661 H 0.69989 0.07245 0.68491 0.0
H662 H 0.57027 0.98788 0.65177 0.0
C663 C 0.5921 0.02853 0.57298 0.0
C664 C 0.67252 0.07476 0.61837 0.0
C665 C 0.5898 0.03117 0.5503 0.0
C666 C 0.66465 0.07148 0.71297 0.0
C667 C 0.66779 0.06463 0.69111 0.0
C668 C 0.59913 0.01229 0.64267 0.0
C669 C 0.63389 0.04346 0.58307 0.0
C670 C 0.63619 0.04268 0.60739 0.0
C671 C 0.63009 0.04867 0.67728 0.0
C672 C 0.63429 0.04511 0.65352 0.0
H673 H 0.70186 0.07718 0.53719 0.0
H674 H 0.70597 0.07221 0.57703 0.0
H675 H 0.57213 0.98549 0.61202 0.0
H676 H 0.55438 0.03904 0.71387 0.0
H677 H 0.55933 0.02659 0.67569 0.0
C678 C 0.66174 0.59457 0.91935 0.0
C679 C 0.62272 0.57325 0.90638 0.0
C680 C 0.65955 0.58436 0.94139 0.0
C681 C 0.5934 0.50465 0.9819 0.0
H682 H 0.64839 0.58582 0.02351 0.0
C683 C 0.56347 0.477 0.07577 0.0
C684 C 0.59944 0.5036 0.08924 0.0
C685 C 0.56773 0.48309 0.05304 0.0
C686 C 0.63356 0.56283 0.01213 0.0
H687 H 0.55096 0.5243 0.90607 0.0
H688 H 0.54713 0.5063 0.94472 0.0
H689 H 0.65277 0.60117 0.98466 0.0
H690 H 0.66876 0.55572 0.09007 0.0
H691 H 0.67721 0.56609 0.05032 0.0
H692 H 0.5743 0.46629 0.00944 0.0
C693 C 0.57943 0.5308 0.93779 0.0
C694 C 0.63593 0.57167 0.98985 0.0
C695 C 0.58155 0.54121 0.91575 0.0
C696 C 0.64059 0.53519 0.07979 0.0
C697 C 0.64512 0.54116 0.05713 0.0
C698 C 0.59128 0.4958 0.00425 0.0
C699 C 0.61835 0.55248 0.95087 0.0
C700 C 0.61588 0.54271 0.9745 0.0
C701 C 0.60828 0.5158 0.04349 0.0
C702 C 0.61136 0.52483 0.01963 0.0
H703 H 0.69397 0.61928 0.91249 0.0
H704 H 0.69021 0.60134 0.95101 0.0
H705 H 0.57798 0.4818 0.97039 0.0
H706 H 0.53144 0.45255 0.08293 0.0
H707 H 0.53858 0.46312 0.04308 0.0
C708 C 0.08915 0.50711 0.22918 0.0
C709 C 0.07222 0.47196 0.22021 0.0
C710 C 0.08619 0.50977 0.25171 0.0
C711 C 0.069 0.45763 0.30438 0.0
H712 H 0.06654 0.53691 0.32727 0.0
C713 C 0.12392 0.50954 0.39217 0.0
C714 C 0.10705 0.52638 0.40249 0.0
C715 C 0.1114 0.49717 0.37076 0.0
C716 C 0.06628 0.51401 0.32135 0.0
H717 H 1.03696 0.41166 0.22738 0.0
H718 H 1.02957 0.4157 0.26661 0.0
H719 H 1.0577 0.52575 0.28845 0.0
H720 H 1.06291 0.54242 0.3995 0.0
H721 H 1.03826 0.5186 0.36253 0.0
H722 H 0.07554 0.44477 0.33742 0.0
C723 C 1.04685 0.44165 0.2565 0.0
C724 C 1.06212 0.50811 0.29886 0.0
C725 C 1.05072 0.4392 0.234 0.0
C726 C 0.07587 0.52916 0.39166 0.0
C727 C 1.06243 0.51602 0.37043 0.0
C728 C 0.07216 0.46298 0.32693 0.0
C729 C 0.06528 0.47712 0.26576 0.0
C730 C 0.06467 0.48055 0.28996 0.0
C731 C 0.08113 0.50091 0.35939 0.0
C732 C 0.07208 0.49193 0.33571 0.0
H733 H 0.10608 0.53286 0.21887 0.0
H734 H 0.10165 0.53775 0.2581 0.0
H735 H 0.07151 0.4363 0.29828 0.0
H736 H 0.14864 0.50788 0.40031 0.0
H737 H 0.12733 0.48646 0.36286 0.0
loop_
_geom_bond_atom_site_label_1
_geom_bond_atom_site_label_2
_geom_bond_distance
_geom_bond_site_symmetry_2
_ccdc_geom_bond_type
Gd0 C3 2.818 . S
Gd0 O20 2.377 . S
Gd0 O22 2.448 . S
Gd0 O23 2.506 . S
Gd0 O24 2.435 . S
Gd0 O25 2.717 1_455 S
Gd0 O27 2.395 1_455 S
Gd0 O31 2.327 . S
Gd1 C12 2.818 . S
Gd1 O21 2.395 1_655 S
Gd1 O25 2.327 . S
Gd1 O26 2.377 . S
Gd1 O28 2.448 . S
Gd1 O29 2.506 . S
Gd1 O30 2.435 . S
Gd1 O31 2.717 1_655 S
C2 O20 1.240 . S
C2 O21 1.240 . S
C3 Gd0 2.818 . S
C3 C4 1.510 . S
C3 O22 1.249 . S
C3 O23 1.252 . S
C4 C3 1.510 . S
C4 C5 1.404 . S
C4 C6 1.352 . S
C5 C4 1.404 . S
C5 C9 1.389 . S
C5 H32 0.930 . S
C6 C4 1.352 . S
C6 C8 1.374 . S
C6 H33 0.931 . S
C7 C8 1.359 . S
C7 C9 1.364 . S
C8 C6 1.374 . S
C8 C7 1.359 . S
C8 H34 0.931 . S
C9 C5 1.389 . S
C9 C7 1.364 . S
C9 H35 0.931 . S
C10 O24 1.256 . S
C10 O25 1.257 1_455 S
C11 O26 1.240 . S
C11 O27 1.240 . S
C12 Gd1 2.818 . S
C12 C13 1.510 . S
C12 O28 1.249 . S
C12 O29 1.252 . S
C13 C12 1.510 . S
C13 C14 1.404 . S
C13 C15 1.352 . S
C14 C13 1.404 . S
C14 C18 1.389 . S
C14 H36 0.930 . S
C15 C13 1.352 . S
C15 C17 1.374 . S
C15 H37 0.931 . S
C16 C17 1.359 . S
C16 C18 1.364 . S
C17 C15 1.374 . S
C17 C16 1.359 . S
C17 H38 0.931 . S
C18 C14 1.389 . S
C18 C16 1.364 . S
C18 H39 0.931 . S
C19 O30 1.256 1_455 S
C19 O31 1.257 . S
O20 Gd0 2.377 . S
O20 C2 1.240 . S
O21 Gd1 2.395 1_455 S
O21 C2 1.240 . S
O22 Gd0 2.448 . S
O22 C3 1.249 . S
O23 Gd0 2.506 . S
O23 C3 1.252 . S
O24 Gd0 2.435 . S
O24 C10 1.256 . S
O25 Gd0 2.717 1_655 S
O25 Gd1 2.327 . S
O25 C10 1.257 1_655 S
O26 Gd1 2.377 . S
O26 C11 1.240 . S
O27 Gd0 2.395 1_655 S
O27 C11 1.240 . S
O28 Gd1 2.448 . S
O28 C12 1.249 . S
O29 Gd1 2.506 . S
O29 C12 1.252 . S
O30 Gd1 2.435 . S
O30 C19 1.256 1_655 S
O31 Gd0 2.327 . S
O31 Gd1 2.717 1_455 S
O31 C19 1.257 . S
H32 C5 0.930 . S
H33 C6 0.931 . S
H34 C8 0.931 . S
H35 C9 0.931 . S
H36 C14 0.930 . S
H37 C15 0.931 . S
H38 C17 0.931 . S
H39 C18 0.931 . S
Gd40 C43 2.818 1_545 S
Gd40 O60 2.377 1_545 S
Gd40 O62 2.448 1_545 S
Gd40 O63 2.506 1_545 S
Gd40 O64 2.435 . S
Gd40 O65 2.717 . S
Gd40 O67 2.395 . S
Gd40 O71 2.327 . S
Gd41 C52 2.818 . S
Gd41 O61 2.395 1_545 S
Gd41 O65 2.327 . S
Gd41 O66 2.377 . S
Gd41 O68 2.448 . S
Gd41 O69 2.506 . S
Gd41 O70 2.435 . S
Gd41 O71 2.717 . S
C42 O60 1.240 . S
C42 O61 1.240 . S
C43 Gd40 2.818 1_565 S
C43 C44 1.510 . S
C43 O62 1.249 . S
C43 O63 1.252 . S
C44 C43 1.510 . S
C44 C45 1.404 . S
C44 C46 1.352 . S
C45 C44 1.404 . S
C45 C49 1.389 . S
C45 H72 0.930 . S
C46 C44 1.352 . S
C46 C48 1.374 . S
C46 H73 0.931 . S
C47 C48 1.359 . S
C47 C49 1.364 . S
C48 C46 1.374 . S
C48 C47 1.359 . S
C48 H74 0.931 . S
C49 C45 1.389 . S
C49 C47 1.364 . S
C49 H75 0.931 . S
C50 O64 1.256 . S
C50 O65 1.257 . S
C51 O66 1.240 . S
C51 O67 1.240 . S
C52 Gd41 2.818 . S
C52 C53 1.510 . S
C52 O68 1.249 . S
C52 O69 1.252 . S
C53 C52 1.510 . S
C53 C54 1.404 . S
C53 C55 1.352 . S
C54 C53 1.404 . S
C54 C58 1.389 . S
C54 H76 0.930 . S
C55 C53 1.352 . S
C55 C57 1.374 . S
C55 H77 0.931 . S
C56 C57 1.359 . S
C56 C58 1.364 . S
C57 C55 1.374 . S
C57 C56 1.359 . S
C57 H78 0.931 . S
C58 C54 1.389 . S
C58 C56 1.364 . S
C58 H79 0.931 . S
C59 O70 1.256 . S
C59 O71 1.257 . S
O60 Gd40 2.377 1_565 S
O60 C42 1.240 . S
O61 Gd41 2.395 1_565 S
O61 C42 1.240 . S
O62 Gd40 2.448 1_565 S
O62 C43 1.249 . S
O63 Gd40 2.506 1_565 S
O63 C43 1.252 . S
O64 Gd40 2.435 . S
O64 C50 1.256 . S
O65 Gd40 2.717 . S
O65 Gd41 2.327 . S
O65 C50 1.257 . S
O66 Gd41 2.377 . S
O66 C51 1.240 . S
O67 Gd40 2.395 . S
O67 C51 1.240 . S
O68 Gd41 2.448 . S
O68 C52 1.249 . S
O69 Gd41 2.506 . S
O69 C52 1.252 . S
O70 Gd41 2.435 . S
O70 C59 1.256 . S
O71 Gd40 2.327 . S
O71 Gd41 2.717 . S
O71 C59 1.257 . S
H72 C45 0.930 . S
H73 C46 0.931 . S
H74 C48 0.931 . S
H75 C49 0.931 . S
H76 C54 0.930 . S
H77 C55 0.931 . S
H78 C57 0.931 . S
H79 C58 0.931 . S
Gd80 C83 2.818 . S
Gd80 O100 2.377 . S
Gd80 O102 2.448 . S
Gd80 O103 2.506 . S
Gd80 O104 2.435 . S
Gd80 O105 2.717 . S
Gd80 O107 2.395 . S
Gd80 O111 2.327 . S
Gd81 C92 2.818 . S
Gd81 O101 2.395 . S
Gd81 O105 2.327 . S
Gd81 O106 2.377 . S
Gd81 O108 2.448 . S
Gd81 O109 2.506 . S
Gd81 O110 2.435 . S
Gd81 O111 2.717 . S
C82 O100 1.240 . S
C82 O101 1.240 . S
C83 Gd80 2.818 . S
C83 C84 1.510 . S
C83 O102 1.249 . S
C83 O103 1.252 . S
C84 C83 1.510 . S
C84 C85 1.404 . S
C84 C86 1.352 . S
C85 C84 1.404 . S
C85 C89 1.389 . S
C85 H112 0.930 . S
C86 C84 1.352 . S
C86 C88 1.374 . S
C86 H113 0.931 . S
C87 C88 1.359 . S
C87 C89 1.364 . S
C88 C86 1.374 . S
C88 C87 1.359 . S
C88 H114 0.931 . S
C89 C85 1.389 . S
C89 C87 1.364 . S
C89 H115 0.931 . S
C90 O104 1.256 . S
C90 O105 1.257 . S
C91 O106 1.240 . S
C91 O107 1.240 . S
C92 Gd81 2.818 . S
C92 C93 1.510 . S
C92 O108 1.249 . S
C92 O109 1.252 . S
C93 C92 1.510 . S
C93 C94 1.404 . S
C93 C95 1.352 . S
C94 C93 1.404 . S
C94 C98 1.389 . S
C94 H116 0.930 . S
C95 C93 1.352 . S
C95 C97 1.374 . S
C95 H117 0.931 . S
C96 C97 1.359 . S
C96 C98 1.364 . S
C97 C95 1.374 . S
C97 C96 1.359 . S
C97 H118 0.931 . S
C98 C94 1.389 . S
C98 C96 1.364 . S
C98 H119 0.931 . S
C99 O110 1.256 . S
C99 O111 1.257 . S
O100 Gd80 2.377 . S
O100 C82 1.240 . S
O101 Gd81 2.395 . S
O101 C82 1.240 . S
O102 Gd80 2.448 . S
O102 C83 1.249 . S
O103 Gd80 2.506 . S
O103 C83 1.252 . S
O104 Gd80 2.435 . S
O104 C90 1.256 . S
O105 Gd80 2.717 . S
O105 Gd81 2.327 . S
O105 C90 1.257 . S
O106 Gd81 2.377 . S
O106 C91 1.240 . S
O107 Gd80 2.395 . S
O107 C91 1.240 . S
O108 Gd81 2.448 . S
O108 C92 1.249 . S
O109 Gd81 2.506 . S
O109 C92 1.252 . S
O110 Gd81 2.435 . S
O110 C99 1.256 . S
O111 Gd80 2.327 . S
O111 Gd81 2.717 . S
O111 C99 1.257 . S
H112 C85 0.930 . S
H113 C86 0.931 . S
H114 C88 0.931 . S
H115 C89 0.931 . S
H116 C94 0.930 . S
H117 C95 0.931 . S
H118 C97 0.931 . S
H119 C98 0.931 . S
C120 N121 1.317 1_565 S
C120 N122 1.348 . S
C120 C123 1.485 1_565 S
N121 C120 1.317 1_545 S
N121 N125 1.370 . S
N122 C120 1.348 . S
N122 C124 1.346 . S
C123 C120 1.485 1_545 S
C123 H127 0.960 . S
C123 H128 0.961 1_545 S
C123 H129 0.960 . S
C124 N122 1.346 . S
C124 N125 1.307 1_565 S
C124 C126 1.486 . S
N125 N121 1.370 . S
N125 C124 1.307 1_545 S
C126 C124 1.486 . S
C126 H130 0.960 . S
C126 H131 0.960 . S
C126 H132 0.959 . S
H127 C123 0.960 . S
H128 C123 0.961 1_565 S
H129 C123 0.960 . S
H130 C126 0.960 . S
H131 C126 0.960 . S
H132 C126 0.959 . S
C133 N134 1.317 . S
C133 N135 1.348 . S
C133 C136 1.485 . S
N134 C133 1.317 . S
N134 N138 1.370 . S
N135 C133 1.348 . S
N135 C137 1.346 . S
C136 C133 1.485 . S
C136 H140 0.960 . S
C136 H141 0.961 . S
C136 H142 0.960 . S
C137 N135 1.346 . S
C137 N138 1.307 . S
C137 C139 1.486 . S
N138 N134 1.370 . S
N138 C137 1.307 . S
C139 C137 1.486 . S
C139 H143 0.960 . S
C139 H144 0.960 . S
C139 H145 0.959 . S
H140 C136 0.960 . S
H141 C136 0.961 . S
H142 C136 0.960 . S
H143 C139 0.960 . S
H144 C139 0.960 . S
H145 C139 0.959 . S
C146 N147 1.317 . S
C146 N148 1.348 . S
C146 C149 1.485 . S
N147 C146 1.317 . S
N147 N151 1.370 . S
N148 C146 1.348 . S
N148 C150 1.346 . S
C149 C146 1.485 . S
C149 H153 0.960 . S
C149 H154 0.961 . S
C149 H155 0.960 . S
C150 N148 1.346 . S
C150 N151 1.307 . S
C150 C152 1.486 . S
N151 N147 1.370 . S
N151 C150 1.307 . S
C152 C150 1.486 . S
C152 H156 0.960 1_455 S
C152 H157 0.982 . S
C152 H158 0.959 . S
H153 C149 0.960 . S
H154 C149 0.961 . S
H155 C149 0.960 . S
H156 C152 0.960 1_655 S
H157 C152 0.982 . S
H158 C152 0.959 . S
C159 N160 1.317 . S
C159 N161 1.348 . S
C159 C162 1.485 . S
N160 C159 1.317 . S
N160 N164 1.370 . S
N161 C159 1.348 . S
N161 C163 1.346 . S
C162 C159 1.485 . S
C162 H166 0.960 . S
C162 H167 0.961 . S
C162 H168 0.960 . S
C163 N161 1.346 . S
C163 N164 1.307 . S
C163 C165 1.486 . S
N164 N160 1.370 . S
N164 C163 1.307 . S
C165 C163 1.486 . S
C165 H169 0.960 . S
C165 H170 0.960 . S
C165 H171 0.959 . S
H166 C162 0.960 . S
H167 C162 0.961 . S
H168 C162 0.960 . S
H169 C165 0.960 . S
H170 C165 0.960 . S
H171 C165 0.959 . S
C172 N173 1.317 . S
C172 N174 1.348 . S
C172 C175 1.485 . S
N173 C172 1.317 . S
N173 N177 1.370 . S
N174 C172 1.348 . S
N174 C176 1.346 . S
C175 C172 1.485 . S
C175 H179 0.960 . S
C175 H180 0.961 . S
C175 H181 0.960 . S
C176 N174 1.346 . S
C176 N177 1.307 . S
C176 C178 1.486 . S
N177 N173 1.370 . S
N177 C176 1.307 . S
C178 C176 1.486 . S
C178 H182 0.960 . S
C178 H183 0.960 . S
C178 H184 0.959 . S
H179 C175 0.960 . S
H180 C175 0.961 . S
H181 C175 0.960 . S
H182 C178 0.960 . S
H183 C178 0.960 . S
H184 C178 0.959 . S
C185 N186 1.317 . S
C185 N187 1.348 . S
C185 C188 1.485 . S
N186 C185 1.317 . S
N186 N190 1.370 . S
N187 C185 1.348 . S
N187 C189 1.346 . S
C188 C185 1.485 . S
C188 H192 0.960 . S
C188 H193 0.961 . S
C188 H194 0.960 . S
C189 N187 1.346 . S
C189 N190 1.307 . S
C189 C191 1.486 . S
N190 N186 1.370 . S
N190 C189 1.307 . S
C191 C189 1.486 . S
C191 H195 0.960 . S
C191 H196 0.960 . S
C191 H197 0.959 . S
H192 C188 0.960 . S
H193 C188 0.961 . S
H194 C188 0.960 . S
H195 C191 0.960 . S
H196 C191 0.960 . S
H197 C191 0.959 . S
C198 C199 1.349 . S
C198 C200 1.327 . S
C198 H223 0.950 . S
C199 C198 1.349 . S
C199 C215 1.349 . S
C200 C198 1.327 . S
C200 C219 1.429 . S
C200 H224 0.950 . S
C201 C218 1.574 . S
C201 C220 1.368 . S
C201 H225 0.949 . S
H202 C206 0.949 . S
C203 C204 1.349 . S
C203 C205 1.327 . S
C203 H226 0.950 . S
C204 C203 1.349 . S
C204 C216 1.349 . S
C205 C203 1.327 . S
C205 C221 1.429 . S
C205 H227 0.950 . S
C206 H202 0.949 . S
C206 C214 1.574 . S
C206 C222 1.368 . S
H207 C215 0.950 . S
H208 C213 0.950 . S
H209 C214 0.949 . S
H210 C216 0.950 . S
H211 C217 0.950 . S
H212 C218 0.949 . S
C213 H208 0.950 . S
C213 C215 1.327 . S
C213 C219 1.429 . S
C214 C206 1.574 . S
C214 H209 0.949 . S
C214 C220 1.368 . S
C215 C199 1.349 . S
C215 H207 0.950 . S
C215 C213 1.327 . S
C216 C204 1.349 . S
C216 H210 0.950 . S
C216 C217 1.327 . S
C217 H211 0.950 . S
C217 C216 1.327 . S
C217 C221 1.429 . S
C218 C201 1.574 . S
C218 H212 0.949 . S
C218 C222 1.368 . S
C219 C200 1.429 . S
C219 C213 1.429 . S
C219 C220 1.523 . S
C220 C201 1.368 . S
C220 C214 1.368 . S
C220 C219 1.523 . S
C221 C205 1.429 . S
C221 C217 1.429 . S
C221 C222 1.523 . S
C222 C206 1.368 . S
C222 C218 1.368 . S
C222 C221 1.523 . S
H223 C198 0.950 . S
H224 C200 0.950 . S
H225 C201 0.949 . S
H226 C203 0.950 . S
H227 C205 0.950 . S
C228 C229 1.349 . S
C228 C230 1.327 . S
C228 H253 0.950 . S
C229 C228 1.349 . S
C229 C245 1.349 . S
C230 C228 1.327 . S
C230 C249 1.429 . S
C230 H254 0.950 . S
C231 C248 1.574 . S
C231 C250 1.368 . S
C231 H255 0.949 . S
H232 C236 0.949 . S
C233 C234 1.349 . S
C233 C235 1.327 . S
C233 H256 0.950 . S
C234 C233 1.349 . S
C234 C246 1.349 . S
C235 C233 1.327 . S
C235 C251 1.429 . S
C235 H257 0.950 . S
C236 H232 0.949 . S
C236 C244 1.574 . S
C236 C252 1.368 . S
H237 C245 0.950 . S
H238 C243 0.950 . S
H239 C244 0.949 . S
H240 C246 0.950 . S
H241 C247 0.950 . S
H242 C248 0.949 . S
C243 H238 0.950 . S
C243 C245 1.327 . S
C243 C249 1.429 . S
C244 C236 1.574 . S
C244 H239 0.949 . S
C244 C250 1.368 . S
C245 C229 1.349 . S
C245 H237 0.950 . S
C245 C243 1.327 . S
C246 C234 1.349 . S
C246 H240 0.950 . S
C246 C247 1.327 . S
C247 H241 0.950 . S
C247 C246 1.327 . S
C247 C251 1.429 . S
C248 C231 1.574 . S
C248 H242 0.949 . S
C248 C252 1.368 . S
C249 C230 1.429 . S
C249 C243 1.429 . S
C249 C250 1.523 . S
C250 C231 1.368 . S
C250 C244 1.368 . S
C250 C249 1.523 . S
C251 C235 1.429 . S
C251 C247 1.429 . S
C251 C252 1.523 . S
C252 C236 1.368 . S
C252 C248 1.368 . S
C252 C251 1.523 . S
H253 C228 0.950 . S
H254 C230 0.950 . S
H255 C231 0.949 . S
H256 C233 0.950 . S
H257 C235 0.950 . S
C258 C259 1.349 . S
C258 C260 1.327 . S
C258 H283 0.950 . S
C259 C258 1.349 . S
C259 C275 1.349 . S
C260 C258 1.327 . S
C260 C279 1.429 . S
C260 H284 0.950 . S
C261 C278 1.574 . S
C261 C280 1.368 . S
C261 H285 0.949 . S
H262 C266 0.949 . S
C263 C264 1.349 . S
C263 C265 1.327 1_545 S
C263 H286 0.950 . S
C264 C263 1.349 . S
C264 C276 1.349 1_545 S
C265 C263 1.327 1_565 S
C265 C281 1.429 . S
C265 H287 0.950 . S
C266 H262 0.949 . S
C266 C274 1.574 . S
C266 C282 1.368 . S
H267 C275 0.950 . S
H268 C273 0.950 . S
H269 C274 0.949 . S
H270 C276 0.950 . S
H271 C277 0.950 . S
H272 C278 0.949 . S
C273 H268 0.950 . S
C273 C275 1.327 . S
C273 C279 1.429 . S
C274 C266 1.574 . S
C274 H269 0.949 . S
C274 C280 1.368 . S
C275 C259 1.349 . S
C275 H267 0.950 . S
C275 C273 1.327 . S
C276 C264 1.349 1_565 S
C276 H270 0.950 . S
C276 C277 1.327 . S
C277 H271 0.950 . S
C277 C276 1.327 . S
C277 C281 1.429 . S
C278 C261 1.574 . S
C278 H272 0.949 . S
C278 C282 1.368 . S
C279 C260 1.429 . S
C279 C273 1.429 . S
C279 C280 1.523 . S
C280 C261 1.368 . S
C280 C274 1.368 . S
C280 C279 1.523 . S
C281 C265 1.429 . S
C281 C277 1.429 . S
C281 C282 1.523 . S
C282 C266 1.368 . S
C282 C278 1.368 . S
C282 C281 1.523 . S
H283 C258 0.950 . S
H284 C260 0.950 . S
H285 C261 0.949 . S
H286 C263 0.950 . S
H287 C265 0.950 . S
C288 C289 1.349 . S
C288 C290 1.327 . S
C288 H313 0.950 . S
C289 C288 1.349 . S
C289 C305 1.349 . S
C290 C288 1.327 . S
C290 C309 1.429 . S
C290 H314 0.950 . S
C291 C308 1.574 . S
C291 C310 1.368 . S
C291 H315 0.949 . S
H292 C296 0.949 . S
C293 C294 1.349 . S
C293 C295 1.327 . S
C293 H316 0.950 . S
C294 C293 1.349 . S
C294 C306 1.349 . S
C295 C293 1.327 . S
C295 C311 1.429 . S
C295 H317 0.950 . S
C296 H292 0.949 . S
C296 C304 1.574 . S
C296 C312 1.368 . S
H297 C305 0.950 . S
H298 C303 0.950 . S
H299 C304 0.949 . S
H300 C306 0.950 . S
H301 C307 0.950 . S
H302 C308 0.949 . S
C303 H298 0.950 . S
C303 C305 1.327 . S
C303 C309 1.429 . S
C304 C296 1.574 . S
C304 H299 0.949 . S
C304 C310 1.368 . S
C305 C289 1.349 . S
C305 H297 0.950 . S
C305 C303 1.327 . S
C306 C294 1.349 . S
C306 H300 0.950 . S
C306 C307 1.327 . S
C307 H301 0.950 . S
C307 C306 1.327 . S
C307 C311 1.429 . S
C308 C291 1.574 . S
C308 H302 0.949 . S
C308 C312 1.368 . S
C309 C290 1.429 . S
C309 C303 1.429 . S
C309 C310 1.523 . S
C310 C291 1.368 . S
C310 C304 1.368 . S
C310 C309 1.523 . S
C311 C295 1.429 . S
C311 C307 1.429 . S
C311 C312 1.523 . S
C312 C296 1.368 . S
C312 C308 1.368 . S
C312 C311 1.523 . S
H313 C288 0.950 . S
H314 C290 0.950 . S
H315 C291 0.949 . S
H316 C293 0.950 . S
H317 C295 0.950 . S
C318 C319 1.349 . S
C318 C320 1.327 . S
C318 H343 0.950 . S
C319 C318 1.349 . S
C319 C335 1.349 . S
C320 C318 1.327 . S
C320 C339 1.429 . S
C320 H344 0.950 . S
C321 C338 1.574 . S
C321 C340 1.368 . S
C321 H345 0.949 . S
H322 C326 0.949 . S
C323 C324 1.349 . S
C323 C325 1.327 . S
C323 H346 0.950 . S
C324 C323 1.349 . S
C324 C336 1.349 . S
C325 C323 1.327 . S
C325 C341 1.429 . S
C325 H347 0.950 . S
C326 H322 0.949 . S
C326 C334 1.574 . S
C326 C342 1.368 . S
H327 C335 0.950 . S
H328 C333 0.950 . S
H329 C334 0.949 . S
H330 C336 0.950 . S
H331 C337 0.950 . S
H332 C338 0.949 . S
C333 H328 0.950 . S
C333 C335 1.327 . S
C333 C339 1.429 . S
C334 C326 1.574 . S
C334 H329 0.949 . S
C334 C340 1.368 . S
C335 C319 1.349 . S
C335 H327 0.950 . S
C335 C333 1.327 . S
C336 C324 1.349 . S
C336 H330 0.950 . S
C336 C337 1.327 . S
C337 H331 0.950 . S
C337 C336 1.327 . S
C337 C341 1.429 . S
C338 C321 1.574 . S
C338 H332 0.949 . S
C338 C342 1.368 . S
C339 C320 1.429 . S
C339 C333 1.429 . S
C339 C340 1.523 . S
C340 C321 1.368 . S
C340 C334 1.368 . S
C340 C339 1.523 . S
C341 C325 1.429 . S
C341 C337 1.429 . S
C341 C342 1.523 . S
C342 C326 1.368 . S
C342 C338 1.368 . S
C342 C341 1.523 . S
H343 C318 0.950 . S
H344 C320 0.950 . S
H345 C321 0.949 . S
H346 C323 0.950 . S
H347 C325 0.950 . S
C348 C349 1.349 . S
C348 C350 1.327 . S
C348 H373 0.950 . S
C349 C348 1.349 . S
C349 C365 1.349 . S
C350 C348 1.327 . S
C350 C369 1.429 . S
C350 H374 0.950 . S
C351 C368 1.574 . S
C351 C370 1.368 . S
C351 H375 0.949 . S
H352 C356 0.949 . S
C353 C354 1.349 . S
C353 C355 1.327 . S
C353 H376 0.950 . S
C354 C353 1.349 . S
C354 C366 1.349 . S
C355 C353 1.327 . S
C355 C371 1.429 . S
C355 H377 0.950 . S
C356 H352 0.949 . S
C356 C364 1.574 . S
C356 C372 1.368 . S
H357 C365 0.950 . S
H358 C363 0.950 . S
H359 C364 0.949 . S
H360 C366 0.950 . S
H361 C367 0.950 . S
H362 C368 0.949 . S
C363 H358 0.950 . S
C363 C365 1.327 . S
C363 C369 1.429 . S
C364 C356 1.574 . S
C364 H359 0.949 . S
C364 C370 1.368 . S
C365 C349 1.349 . S
C365 H357 0.950 . S
C365 C363 1.327 . S
C366 C354 1.349 . S
C366 H360 0.950 . S
C366 C367 1.327 . S
C367 H361 0.950 . S
C367 C366 1.327 . S
C367 C371 1.429 . S
C368 C351 1.574 . S
C368 H362 0.949 . S
C368 C372 1.368 . S
C369 C350 1.429 . S
C369 C363 1.429 . S
C369 C370 1.523 . S
C370 C351 1.368 . S
C370 C364 1.368 . S
C370 C369 1.523 . S
C371 C355 1.429 . S
C371 C367 1.429 . S
C371 C372 1.523 . S
C372 C356 1.368 . S
C372 C368 1.368 . S
C372 C371 1.523 . S
H373 C348 0.950 . S
H374 C350 0.950 . S
H375 C351 0.949 . S
H376 C353 0.950 . S
H377 C355 0.950 . S
C378 C379 1.349 . S
C378 C380 1.327 . S
C378 H403 0.950 . S
C379 C378 1.349 . S
C379 C395 1.349 . S
C380 C378 1.327 . S
C380 C399 1.429 . S
C380 H404 0.950 . S
C381 C398 1.574 . S
C381 C400 1.368 . S
C381 H405 0.949 . S
H382 C386 0.949 . S
C383 C384 1.349 . S
C383 C385 1.327 . S
C383 H406 0.950 . S
C384 C383 1.349 . S
C384 C396 1.349 . S
C385 C383 1.327 . S
C385 C401 1.429 . S
C385 H407 0.950 . S
C386 H382 0.949 . S
C386 C394 1.574 . S
C386 C402 1.368 . S
H387 C395 0.950 . S
H388 C393 0.950 . S
H389 C394 0.949 . S
H390 C396 0.950 . S
H391 C397 0.950 . S
H392 C398 0.949 . S
C393 H388 0.950 . S
C393 C395 1.327 . S
C393 C399 1.429 . S
C394 C386 1.574 . S
C394 H389 0.949 . S
C394 C400 1.368 . S
C395 C379 1.349 . S
C395 H387 0.950 . S
C395 C393 1.327 . S
C396 C384 1.349 . S
C396 H390 0.950 . S
C396 C397 1.327 . S
C397 H391 0.950 . S
C397 C396 1.327 . S
C397 C401 1.429 . S
C398 C381 1.574 . S
C398 H392 0.949 . S
C398 C402 1.368 . S
C399 C380 1.429 . S
C399 C393 1.429 . S
C399 C400 1.523 . S
C400 C381 1.368 . S
C400 C394 1.368 . S
C400 C399 1.523 . S
C401 C385 1.429 . S
C401 C397 1.429 . S
C401 C402 1.523 . S
C402 C386 1.368 . S
C402 C398 1.368 . S
C402 C401 1.523 . S
H403 C378 0.950 . S
H404 C380 0.950 . S
H405 C381 0.949 . S
H406 C383 0.950 . S
H407 C385 0.950 . S
C408 C409 1.349 . S
C408 C410 1.327 . S
C408 H433 0.950 . S
C409 C408 1.349 . S
C409 C425 1.349 . S
C410 C408 1.327 . S
C410 C429 1.429 . S
C410 H434 0.950 . S
C411 C428 1.574 . S
C411 C430 1.368 . S
C411 H435 0.949 . S
H412 C416 0.949 . S
C413 C414 1.349 . S
C413 C415 1.327 . S
C413 H436 0.950 . S
C414 C413 1.349 . S
C414 C426 1.349 . S
C415 C413 1.327 . S
C415 C431 1.429 . S
C415 H437 0.950 . S
C416 H412 0.949 . S
C416 C424 1.574 . S
C416 C432 1.368 . S
H417 C425 0.950 . S
H418 C423 0.950 . S
H419 C424 0.949 . S
H420 C426 0.950 . S
H421 C427 0.950 . S
H422 C428 0.949 . S
C423 H418 0.950 . S
C423 C425 1.327 . S
C423 C429 1.429 . S
C424 C416 1.574 . S
C424 H419 0.949 . S
C424 C430 1.368 . S
C425 C409 1.349 . S
C425 H417 0.950 . S
C425 C423 1.327 . S
C426 C414 1.349 . S
C426 H420 0.950 . S
C426 C427 1.327 . S
C427 H421 0.950 . S
C427 C426 1.327 . S
C427 C431 1.429 . S
C428 C411 1.574 . S
C428 H422 0.949 . S
C428 C432 1.368 . S
C429 C410 1.429 . S
C429 C423 1.429 . S
C429 C430 1.523 . S
C430 C411 1.368 . S
C430 C424 1.368 . S
C430 C429 1.523 . S
C431 C415 1.429 . S
C431 C427 1.429 . S
C431 C432 1.523 . S
C432 C416 1.368 . S
C432 C428 1.368 . S
C432 C431 1.523 . S
H433 C408 0.950 . S
H434 C410 0.950 . S
H435 C411 0.949 . S
H436 C413 0.950 . S
H437 C415 0.950 . S
C438 C439 1.349 . S
C438 C440 1.327 . S
C438 H463 0.950 . S
C439 C438 1.349 . S
C439 C455 1.349 . S
C440 C438 1.327 . S
C440 C459 1.429 . S
C440 H464 0.950 . S
C441 C458 1.574 . S
C441 C460 1.368 . S
C441 H465 0.949 . S
H442 C446 0.949 . S
C443 C444 1.349 . S
C443 C445 1.327 . S
C443 H466 0.950 . S
C444 C443 1.349 . S
C444 C456 1.349 . S
C445 C443 1.327 . S
C445 C461 1.429 . S
C445 H467 0.950 . S
C446 H442 0.949 . S
C446 C454 1.574 . S
C446 C462 1.368 . S
H447 C455 0.950 . S
H448 C453 0.950 . S
H449 C454 0.949 . S
H450 C456 0.950 . S
H451 C457 0.950 . S
H452 C458 0.949 . S
C453 H448 0.950 . S
C453 C455 1.327 . S
C453 C459 1.429 . S
C454 C446 1.574 . S
C454 H449 0.949 . S
C454 C460 1.368 . S
C455 C439 1.349 . S
C455 H447 0.950 . S
C455 C453 1.327 . S
C456 C444 1.349 . S
C456 H450 0.950 . S
C456 C457 1.327 . S
C457 H451 0.950 . S
C457 C456 1.327 . S
C457 C461 1.429 . S
C458 C441 1.574 . S
C458 H452 0.949 . S
C458 C462 1.368 . S
C459 C440 1.429 . S
C459 C453 1.429 . S
C459 C460 1.523 . S
C460 C441 1.368 . S
C460 C454 1.368 . S
C460 C459 1.523 . S
C461 C445 1.429 . S
C461 C457 1.429 . S
C461 C462 1.523 . S
C462 C446 1.368 . S
C462 C458 1.368 . S
C462 C461 1.523 . S
H463 C438 0.950 . S
H464 C440 0.950 . S
H465 C441 0.949 . S
H466 C443 0.950 . S
H467 C445 0.950 . S
C468 C469 1.349 . S
C468 C470 1.327 . S
C468 H493 0.950 . S
C469 C468 1.349 . S
C469 C485 1.349 . S
C470 C468 1.327 . S
C470 C489 1.429 . S
C470 H494 0.950 . S
C471 C488 1.574 . S
C471 C490 1.368 . S
C471 H495 0.949 . S
H472 C476 0.949 . S
C473 C474 1.349 . S
C473 C475 1.327 . S
C473 H496 0.950 . S
C474 C473 1.349 . S
C474 C486 1.349 . S
C475 C473 1.327 . S
C475 C491 1.429 . S
C475 H497 0.950 . S
C476 H472 0.949 . S
C476 C484 1.574 . S
C476 C492 1.368 . S
H477 C485 0.950 . S
H478 C483 0.950 . S
H479 C484 0.949 . S
H480 C486 0.950 . S
H481 C487 0.950 . S
H482 C488 0.949 . S
C483 H478 0.950 . S
C483 C485 1.327 . S
C483 C489 1.429 . S
C484 C476 1.574 . S
C484 H479 0.949 . S
C484 C490 1.368 . S
C485 C469 1.349 . S
C485 H477 0.950 . S
C485 C483 1.327 . S
C486 C474 1.349 . S
C486 H480 0.950 . S
C486 C487 1.327 . S
C487 H481 0.950 . S
C487 C486 1.327 . S
C487 C491 1.429 . S
C488 C471 1.574 . S
C488 H482 0.949 . S
C488 C492 1.368 . S
C489 C470 1.429 . S
C489 C483 1.429 . S
C489 C490 1.523 . S
C490 C471 1.368 . S
C490 C484 1.368 . S
C490 C489 1.523 . S
C491 C475 1.429 . S
C491 C487 1.429 . S
C491 C492 1.523 . S
C492 C476 1.368 . S
C492 C488 1.368 . S
C492 C491 1.523 . S
H493 C468 0.950 . S
H494 C470 0.950 . S
H495 C471 0.949 . S
H496 C473 0.950 . S
H497 C475 0.950 . S
C498 C499 1.349 . S
C498 C500 1.327 . S
C498 H523 0.950 . S
C499 C498 1.349 . S
C499 C515 1.349 . S
C500 C498 1.327 . S
C500 C519 1.429 . S
C500 H524 0.950 . S
C501 C518 1.574 . S
C501 C520 1.368 . S
C501 H525 0.949 . S
H502 C506 0.949 . S
C503 C504 1.349 . S
C503 C505 1.327 . S
C503 H526 0.950 . S
C504 C503 1.349 . S
C504 C516 1.349 . S
C505 C503 1.327 . S
C505 C521 1.429 . S
C505 H527 0.950 . S
C506 H502 0.949 . S
C506 C514 1.574 . S
C506 C522 1.368 . S
H507 C515 0.950 . S
H508 C513 0.950 . S
H509 C514 0.949 . S
H510 C516 0.950 . S
H511 C517 0.950 . S
H512 C518 0.949 . S
C513 H508 0.950 . S
C513 C515 1.327 . S
C513 C519 1.429 . S
C514 C506 1.574 . S
C514 H509 0.949 . S
C514 C520 1.368 . S
C515 C499 1.349 . S
C515 H507 0.950 . S
C515 C513 1.327 . S
C516 C504 1.349 . S
C516 H510 0.950 . S
C516 C517 1.327 . S
C517 H511 0.950 . S
C517 C516 1.327 . S
C517 C521 1.429 . S
C518 C501 1.574 . S
C518 H512 0.949 . S
C518 C522 1.368 . S
C519 C500 1.429 . S
C519 C513 1.429 . S
C519 C520 1.523 . S
C520 C501 1.368 . S
C520 C514 1.368 . S
C520 C519 1.523 . S
C521 C505 1.429 . S
C521 C517 1.429 . S
C521 C522 1.523 . S
C522 C506 1.368 . S
C522 C518 1.368 . S
C522 C521 1.523 . S
H523 C498 0.950 . S
H524 C500 0.950 . S
H525 C501 0.949 . S
H526 C503 0.950 . S
H527 C505 0.950 . S
C528 C529 1.349 . S
C528 C530 1.327 . S
C528 H553 0.950 . S
C529 C528 1.349 . S
C529 C545 1.349 . S
C530 C528 1.327 . S
C530 C549 1.429 . S
C530 H554 0.950 . S
C531 C548 1.574 . S
C531 C550 1.368 . S
C531 H555 0.949 . S
H532 C536 0.949 . S
C533 C534 1.349 . S
C533 C535 1.327 . S
C533 H556 0.950 . S
C534 C533 1.349 . S
C534 C546 1.349 . S
C535 C533 1.327 . S
C535 C551 1.429 . S
C535 H557 0.950 . S
C536 H532 0.949 . S
C536 C544 1.574 . S
C536 C552 1.368 . S
H537 C545 0.950 . S
H538 C543 0.950 . S
H539 C544 0.949 . S
H540 C546 0.950 . S
H541 C547 0.950 . S
H542 C548 0.949 . S
C543 H538 0.950 . S
C543 C545 1.327 . S
C543 C549 1.429 . S
C544 C536 1.574 . S
C544 H539 0.949 . S
C544 C550 1.368 . S
C545 C529 1.349 . S
C545 H537 0.950 . S
C545 C543 1.327 . S
C546 C534 1.349 . S
C546 H540 0.950 . S
C546 C547 1.327 . S
C547 H541 0.950 . S
C547 C546 1.327 . S
C547 C551 1.429 . S
C548 C531 1.574 . S
C548 H542 0.949 . S
C548 C552 1.368 . S
C549 C530 1.429 . S
C549 C543 1.429 . S
C549 C550 1.523 . S
C550 C531 1.368 . S
C550 C544 1.368 . S
C550 C549 1.523 . S
C551 C535 1.429 . S
C551 C547 1.429 . S
C551 C552 1.523 . S
C552 C536 1.368 . S
C552 C548 1.368 . S
C552 C551 1.523 . S
H553 C528 0.950 . S
H554 C530 0.950 . S
H555 C531 0.949 . S
H556 C533 0.950 . S
H557 C535 0.950 . S
C558 C559 1.349 . S
C558 C560 1.327 . S
C558 H583 0.950 . S
C559 C558 1.349 . S
C559 C575 1.349 1_455 S
C560 C558 1.327 . S
C560 C579 1.429 . S
C560 H584 0.950 . S
C561 C578 1.574 1_654 S
C561 C580 1.368 1_655 S
C561 H585 0.949 . S
H562 C566 0.957 . S
C563 C564 1.349 . S
C563 C565 1.327 . S
C563 H586 0.960 . S
C564 C563 1.349 . S
C564 C576 1.349 . S
C565 C563 1.327 . S
C565 C581 1.429 . S
C565 H587 0.950 1_455 S
C566 H562 0.957 . S
C566 C574 1.556 1_556 S
C566 C582 1.378 . S
H567 C575 0.950 . S
H568 C573 0.950 . S
H569 C574 0.949 . S
H570 C576 0.950 . S
H571 C577 0.950 . S
H572 C578 0.949 1_655 S
C573 H568 0.950 . S
C573 C575 1.327 . S
C573 C579 1.429 1_655 S
C574 C566 1.556 1_554 S
C574 H569 0.949 . S
C574 C580 1.368 . S
C575 C559 1.349 1_655 S
C575 H567 0.950 . S
C575 C573 1.327 . S
C576 C564 1.349 . S
C576 H570 0.950 . S
C576 C577 1.327 . S
C577 H571 0.950 . S
C577 C576 1.327 . S
C577 C581 1.429 . S
C578 C561 1.574 1_456 S
C578 H572 0.949 1_455 S
C578 C582 1.368 . S
C579 C560 1.429 . S
C579 C573 1.429 1_455 S
C579 C580 1.523 . S
C580 C561 1.368 1_455 S
C580 C574 1.368 . S
C580 C579 1.523 . S
C581 C565 1.429 . S
C581 C577 1.429 . S
C581 C582 1.523 . S
C582 C566 1.378 . S
C582 C578 1.368 . S
C582 C581 1.523 . S
H583 C558 0.950 . S
H584 C560 0.950 . S
H585 C561 0.949 . S
H586 C563 0.960 . S
H587 C565 0.950 1_655 S
C588 C589 1.349 . S
C588 C590 1.327 . S
C588 H613 0.950 1_545 S
C589 C588 1.349 . S
C589 C605 1.349 . S
C590 C588 1.327 . S
C590 C609 1.429 . S
C590 H614 0.950 1_545 S
C591 C608 1.574 . S
C591 C610 1.368 . S
C591 H615 0.949 . S
H592 C596 0.949 . S
C593 C594 1.349 . S
C593 C595 1.327 . S
C593 H616 0.950 . S
C594 C593 1.349 . S
C594 C606 1.349 1_545 S
C595 C593 1.327 . S
C595 C611 1.429 . S
C595 H617 0.950 . S
C596 H592 0.949 . S
C596 C604 1.574 . S
C596 C612 1.368 1_565 S
H597 C605 0.950 . S
H598 C603 0.950 . S
H599 C604 0.949 . S
H600 C606 0.950 . S
H601 C607 0.950 . S
H602 C608 0.949 . S
C603 H598 0.950 . S
C603 C605 1.327 . S
C603 C609 1.429 . S
C604 C596 1.574 . S
C604 H599 0.949 . S
C604 C610 1.368 1_565 S
C605 C589 1.349 . S
C605 H597 0.950 . S
C605 C603 1.327 . S
C606 C594 1.349 1_565 S
C606 H600 0.950 . S
C606 C607 1.327 . S
C607 H601 0.950 . S
C607 C606 1.327 . S
C607 C611 1.429 1_565 S
C608 C591 1.574 . S
C608 H602 0.949 . S
C608 C612 1.368 . S
C609 C590 1.429 . S
C609 C603 1.429 . S
C609 C610 1.523 . S
C610 C591 1.368 . S
C610 C604 1.368 1_545 S
C610 C609 1.523 . S
C611 C595 1.429 . S
C611 C607 1.429 1_545 S
C611 C612 1.523 . S
C612 C596 1.368 1_545 S
C612 C608 1.368 . S
C612 C611 1.523 . S
H613 C588 0.950 1_565 S
H614 C590 0.950 1_565 S
H615 C591 0.949 . S
H616 C593 0.950 . S
H617 C595 0.950 . S
C618 C619 1.349 . S
C618 C620 1.327 . S
C618 H643 0.950 . S
C619 C618 1.349 . S
C619 C635 1.349 . S
C620 C618 1.327 . S
C620 C639 1.429 . S
C620 H644 0.950 . S
C621 C638 1.574 . S
C621 C640 1.368 . S
C621 H645 0.949 . S
H622 C626 0.949 . S
C623 C624 1.349 . S
C623 C625 1.327 . S
C623 H646 0.950 . S
C624 C623 1.349 . S
C624 C636 1.349 . S
C625 C623 1.327 . S
C625 C641 1.429 . S
C625 H647 0.950 . S
C626 H622 0.949 . S
C626 C634 1.574 . S
C626 C642 1.368 . S
H627 C635 0.950 . S
H628 C633 0.950 . S
H629 C634 0.949 . S
H630 C636 0.950 . S
H631 C637 0.950 . S
H632 C638 0.949 . S
C633 H628 0.950 . S
C633 C635 1.327 . S
C633 C639 1.429 . S
C634 C626 1.574 . S
C634 H629 0.949 . S
C634 C640 1.368 . S
C635 C619 1.349 . S
C635 H627 0.950 . S
C635 C633 1.327 . S
C636 C624 1.349 . S
C636 H630 0.950 . S
C636 C637 1.327 . S
C637 H631 0.950 . S
C637 C636 1.327 . S
C637 C641 1.429 . S
C638 C621 1.574 . S
C638 H632 0.949 . S
C638 C642 1.368 . S
C639 C620 1.429 . S
C639 C633 1.429 . S
C639 C640 1.523 . S
C640 C621 1.368 . S
C640 C634 1.368 . S
C640 C639 1.523 . S
C641 C625 1.429 . S
C641 C637 1.429 . S
C641 C642 1.523 . S
C642 C626 1.368 . S
C642 C638 1.368 . S
C642 C641 1.523 . S
H643 C618 0.950 . S
H644 C620 0.950 . S
H645 C621 0.949 . S
H646 C623 0.950 . S
H647 C625 0.950 . S
C648 C649 1.349 . S
C648 C650 1.327 . S
C648 H673 0.950 . S
C649 C648 1.349 . S
C649 C665 1.349 . S
C650 C648 1.327 . S
C650 C669 1.429 . S
C650 H674 0.950 . S
C651 C668 1.574 . S
C651 C670 1.368 . S
C651 H675 0.949 1_545 S
H652 C656 0.949 . S
C653 C654 1.349 . S
C653 C655 1.327 . S
C653 H676 0.950 1_545 S
C654 C653 1.349 . S
C654 C666 1.349 . S
C655 C653 1.327 . S
C655 C671 1.429 . S
C655 H677 0.950 1_545 S
C656 H652 0.949 . S
C656 C664 1.574 . S
C656 C672 1.368 . S
H657 C665 0.950 1_565 S
H658 C663 0.950 1_565 S
H659 C664 0.949 . S
H660 C666 0.950 . S
H661 C667 0.950 . S
H662 C668 0.949 1_565 S
C663 H658 0.950 1_545 S
C663 C665 1.327 . S
C663 C669 1.429 . S
C664 C656 1.574 . S
C664 H659 0.949 . S
C664 C670 1.368 . S
C665 C649 1.349 . S
C665 H657 0.950 1_545 S
C665 C663 1.327 . S
C666 C654 1.349 . S
C666 H660 0.950 . S
C666 C667 1.327 . S
C667 H661 0.950 . S
C667 C666 1.327 . S
C667 C671 1.429 . S
C668 C651 1.574 . S
C668 H662 0.949 1_545 S
C668 C672 1.368 . S
C669 C650 1.429 . S
C669 C663 1.429 . S
C669 C670 1.523 . S
C670 C651 1.368 . S
C670 C664 1.368 . S
C670 C669 1.523 . S
C671 C655 1.429 . S
C671 C667 1.429 . S
C671 C672 1.523 . S
C672 C656 1.368 . S
C672 C668 1.368 . S
C672 C671 1.523 . S
H673 C648 0.950 . S
H674 C650 0.950 . S
H675 C651 0.949 1_565 S
H676 C653 0.950 1_565 S
H677 C655 0.950 1_565 S
C678 C679 1.349 . S
C678 C680 1.327 . S
C678 H703 0.950 . S
C679 C678 1.349 . S
C679 C695 1.349 . S
C680 C678 1.327 . S
C680 C699 1.429 . S
C680 H704 0.950 . S
C681 C698 1.574 . S
C681 C700 1.368 . S
C681 H705 0.949 . S
H682 C686 0.949 . S
C683 C684 1.349 . S
C683 C685 1.327 . S
C683 H706 0.950 . S
C684 C683 1.349 . S
C684 C696 1.349 . S
C685 C683 1.327 . S
C685 C701 1.429 . S
C685 H707 0.950 . S
C686 H682 0.949 . S
C686 C694 1.574 1_554 S
C686 C702 1.368 . S
H687 C695 0.950 . S
H688 C693 0.950 . S
H689 C694 0.949 . S
H690 C696 0.950 . S
H691 C697 0.950 . S
H692 C698 0.949 1_554 S
C693 H688 0.950 . S
C693 C695 1.327 . S
C693 C699 1.429 . S
C694 C686 1.574 1_556 S
C694 H689 0.949 . S
C694 C700 1.368 . S
C695 C679 1.349 . S
C695 H687 0.950 . S
C695 C693 1.327 . S
C696 C684 1.349 . S
C696 H690 0.950 . S
C696 C697 1.327 . S
C697 H691 0.950 . S
C697 C696 1.327 . S
C697 C701 1.429 . S
C698 C681 1.574 . S
C698 H692 0.949 1_556 S
C698 C702 1.368 1_556 S
C699 C680 1.429 . S
C699 C693 1.429 . S
C699 C700 1.523 . S
C700 C681 1.368 . S
C700 C694 1.368 . S
C700 C699 1.523 . S
C701 C685 1.429 . S
C701 C697 1.429 . S
C701 C702 1.523 . S
C702 C686 1.368 . S
C702 C698 1.368 1_554 S
C702 C701 1.523 . S
H703 C678 0.950 . S
H704 C680 0.950 . S
H705 C681 0.949 . S
H706 C683 0.950 . S
H707 C685 0.950 . S
C708 C709 1.349 . S
C708 C710 1.327 1_655 S
C708 H733 0.950 . S
C709 C708 1.349 . S
C709 C725 1.349 . S
C710 C708 1.327 1_455 S
C710 C729 1.429 . S
C710 H734 0.950 . S
C711 C728 1.574 . S
C711 C730 1.368 . S
C711 H735 0.949 . S
H712 C716 0.949 . S
C713 C714 1.349 . S
C713 C715 1.327 . S
C713 H736 0.950 . S
C714 C713 1.349 . S
C714 C726 1.349 . S
C715 C713 1.327 . S
C715 C731 1.429 . S
C715 H737 0.950 . S
C716 H712 0.949 . S
C716 C724 1.574 . S
C716 C732 1.368 . S
H717 C725 0.950 . S
H718 C723 0.966 . S
H719 C724 0.949 . S
H720 C726 0.950 . S
H721 C727 0.950 . S
H722 C728 0.949 . S
C723 H718 0.966 . S
C723 C725 1.327 1_455 S
C723 C729 1.413 . S
C724 C716 1.574 . S
C724 H719 0.949 . S
C724 C730 1.368 . S
C725 C709 1.349 . S
C725 H717 0.950 . S
C725 C723 1.327 1_655 S
C726 C714 1.349 . S
C726 H720 0.950 . S
C726 C727 1.327 . S
C727 H721 0.950 . S
C727 C726 1.327 . S
C727 C731 1.429 . S
C728 C711 1.574 . S
C728 H722 0.949 . S
C728 C732 1.368 . S
C729 C710 1.429 . S
C729 C723 1.413 . S
C729 C730 1.523 . S
C730 C711 1.368 . S
C730 C724 1.368 . S
C730 C729 1.523 . S
C731 C715 1.429 . S
C731 C727 1.429 . S
C731 C732 1.523 . S
C732 C716 1.368 . S
C732 C728 1.368 . S
C732 C731 1.523 . S
H733 C708 0.950 . S
H734 C710 0.950 . S
H735 C711 0.949 . S
H736 C713 0.950 . S
H737 C715 0.950 . S
C199 C7 0.282 . S
C204 N187 0.275 . S
C229 C51 1.759 . S
C234 N160 1.754 1_655 S
C259 C87 1.077 . S
C264 N173 1.077 . S
C289 C16 0.619 . S
C294 N186 0.601 . S
C324 N161 1.993 . S
C319 C42 1.997 . S
C354 N174 1.332 . S
C349 C96 1.328 . S
C379 C47 1.023 . S
C384 N134 1.024 . S
C409 C91 2.742 . S
C414 N148 2.696 1_655 S
C439 C2 2.011 . S
C444 N122 2.013 . S
C474 N135 1.381 . S
C469 C56 1.368 . S
C504 N147 3.280 . S
C499 C82 3.251 . S
C529 C11 1.751 . S
C534 N121 1.755 . S
C564 N151 1.730 . S
C559 C19 1.708 . S
C589 C50 1.473 . S
C594 N125 1.487 . S
C619 C99 1.518 . S
C624 N138 1.592 . S
C654 N177 1.545 . S
C649 C59 1.485 . S
C684 N190 1.306 . S
C679 C90 1.311 . S
C709 C10 1.454 1_655 S
C714 N164 1.478 . S
