# Generated by pormake.
# Topology anh, (6,3)-cn, num edge types: 1
# Building blocks:
#     Node 0, Type 0, BuildingBlock: BETFAJ_clean_sbu_0, # of connection points: 6
#     Node 1, Type 0, BuildingBlock: BETFAJ_clean_sbu_0, # of connection points: 6
#     Node 2, Type 0, BuildingBlock: BETFAJ_clean_sbu_0, # of connection points: 6
#     Node 3, Type 1, BuildingBlock: KAKCAD_clean_linker_0, # of connection points: 3
#     Node 4, Type 1, BuildingBlock: KAKCAD_clean_linker_0, # of connection points: 3
#     Node 5, Type 1, BuildingBlock: KAKCAD_clean_linker_0, # of connection points: 3
#     Node 6, Type 1, BuildingBlock: KAKCAD_clean_linker_0, # of connection points: 3
#     Node 7, Type 1, BuildingBlock: KAKCAD_clean_linker_0, # of connection points: 3
#     Node 8, Type 1, BuildingBlock: KAKCAD_clean_linker_0, # of connection points: 3
#     Edge 9, Type (0, 1), BuildingBlock: CIFDUS_clean_linker_0, # of connection points: 2
#     Edge 10, Type (0, 1), BuildingBlock: CIFDUS_clean_linker_0, # of connection points: 2
#     Edge 11, Type (0, 1), BuildingBlock: CIFDUS_clean_linker_0, # of connection points: 2
#     Edge 12, Type (0, 1), BuildingBlock: CIFDUS_clean_linker_0, # of connection points: 2
#     Edge 13, Type (0, 1), BuildingBlock: CIFDUS_clean_linker_0, # of connection points: 2
#     Edge 14, Type (0, 1), BuildingBlock: CIFDUS_clean_linker_0, # of connection points: 2
#     Edge 15, Type (0, 1), BuildingBlock: CIFDUS_clean_linker_0, # of connection points: 2
#     Edge 16, Type (0, 1), BuildingBlock: CIFDUS_clean_linker_0, # of connection points: 2
#     Edge 17, Type (0, 1), BuildingBlock: CIFDUS_clean_linker_0, # of connection points: 2
#     Edge 18, Type (0, 1), BuildingBlock: CIFDUS_clean_linker_0, # of connection points: 2
#     Edge 19, Type (0, 1), BuildingBlock: CIFDUS_clean_linker_0, # of connection points: 2
#     Edge 20, Type (0, 1), BuildingBlock: CIFDUS_clean_linker_0, # of connection points: 2
#     Edge 21, Type (0, 1), BuildingBlock: CIFDUS_clean_linker_0, # of connection points: 2
#     Edge 22, Type (0, 1), BuildingBlock: CIFDUS_clean_linker_0, # of connection points: 2
#     Edge 23, Type (0, 1), BuildingBlock: CIFDUS_clean_linker_0, # of connection points: 2
#     Edge 24, Type (0, 1), BuildingBlock: CIFDUS_clean_linker_0, # of connection points: 2
#     Edge 25, Type (0, 1), BuildingBlock: CIFDUS_clean_linker_0, # of connection points: 2
#     Edge 26, Type (0, 1), BuildingBlock: CIFDUS_clean_linker_0, # of connection points: 2
# Relax obj value: 0.194
# Max RMSD: 0.215
# Mean RMSD: 0.159
data_MOF--net-anh--node1-BETFAJ_clean_sbu_0--node2-KAKCAD_clean_linker_0--edge1-CIFDUS_clean_linker_0
_symmetry_space_group_name_H-M    P1
_symmetry_Int_Tables_number       1
_symmetry_cell_setting            triclinic
loop_
_symmetry_equiv_pos_as_xyz
'x, y, z'
_cell_length_a     33.579484
_cell_length_b     39.689625
_cell_length_c     60.326779
_cell_angle_alpha  92.032564
_cell_angle_beta   89.560801
_cell_angle_gamma 128.51251
loop_
_atom_site_label
_atom_site_type_symbol
_atom_site_fract_x
_atom_site_fract_y
_atom_site_fract_z
_atom_type_partial_charge
Sm0 Sm 0.1611 0.56276 0.14965 0.0
Sm1 Sm 0.10119 0.5932 0.15697 0.0
C2 C 0.21946 0.5424 0.13703 0.0
C3 C 0.21391 0.50251 0.1356 0.0
C4 C 0.24963 0.50134 0.14661 0.0
C5 C 0.24482 0.46377 0.14591 0.0
C6 C 0.20439 0.42673 0.134 0.0
C7 C 0.16838 0.42776 0.12309 0.0
C8 C 0.17287 0.46526 0.124 0.0
C9 C 0.13898 0.56444 0.19329 0.0
C10 C 0.22061 0.668 0.15473 0.0
C11 C 1.03373 0.60264 0.17078 0.0
C12 C 0.97811 0.5729 0.1686 0.0
C13 C 0.948 0.5742 0.18425 0.0
C14 C 0.89495 0.543 0.18317 0.0
C15 C 0.87156 0.50994 0.16653 0.0
C16 C 0.90209 0.50919 0.15079 0.0
C17 C 0.95482 0.5403 0.15185 0.0
C18 C 0.11852 0.58684 0.11281 0.0
C19 C 1.04037 0.48733 0.15325 0.0
O20 O 0.22115 0.55692 0.15706 0.0
O21 O 0.1924 0.54563 0.12307 0.0
O22 O 0.15416 0.59402 0.18001 0.0
O23 O 0.13553 0.53288 0.18377 0.0
O24 O 0.22133 0.63749 0.14556 0.0
O25 O 0.17882 0.65796 0.16374 0.0
O26 O 1.05265 0.58957 0.1835 0.0
O27 O 1.05853 0.6183 0.15231 0.0
O28 O 0.10579 0.55953 0.12712 0.0
O29 O 0.12147 0.61875 0.12148 0.0
O30 O 1.03946 0.51919 0.15928 0.0
O31 O 0.08296 0.49529 0.14669 0.0
H32 H 0.28144 0.52963 0.15571 0.0
H33 H 0.27357 0.46407 0.15418 0.0
H34 H 0.13683 0.39958 0.11384 0.0
H35 H 0.14434 0.46506 0.11559 0.0
H36 H 0.96552 0.59884 0.19747 0.0
H37 H 0.87233 0.54427 0.19554 0.0
H38 H 0.8852 0.48465 0.13754 0.0
H39 H 0.9775 0.53846 0.13976 0.0
Sm40 Sm 0.63723 0.03523 0.47077 0.0
Sm41 Sm 0.56796 0.05683 0.46649 0.0
C42 C 0.68592 1.00521 0.48175 0.0
C43 C 0.67729 0.965 0.48646 0.0
C44 C 0.63683 0.93351 0.49958 0.0
C45 C 0.63193 0.89709 0.50502 0.0
C46 C 0.66731 0.89153 0.49738 0.0
C47 C 0.70667 0.92252 0.48363 0.0
C48 C 0.71164 0.9589 0.4783 0.0
C49 C 0.62662 0.05068 0.42805 0.0
C50 C 0.51381 0.95651 0.46303 0.0
C51 C 0.52122 0.08939 0.45748 0.0
C52 C 0.52747 0.12879 0.46386 0.0
C53 C 0.57171 0.16998 0.45877 0.0
C54 C 0.57738 0.20683 0.4656 0.0
C55 C 0.53907 0.20334 0.47775 0.0
C56 C 0.49471 0.16201 0.48263 0.0
C57 C 0.48893 0.12521 0.47568 0.0
C58 C 0.58098 0.0433 0.50943 0.0
C59 C 0.69253 0.13682 0.47052 0.0
O60 O 0.66998 0.0195 0.49628 0.0
O61 O 0.6789 0.01023 0.46124 0.0
O62 O 0.59054 0.02846 0.44134 0.0
O63 O 0.66986 0.06511 0.43701 0.0
O64 O 0.55615 0.96799 0.47273 0.0
O65 O 0.51191 0.98606 0.45522 0.0
O66 O 0.55575 0.09372 0.44473 0.0
O67 O 0.50684 0.06215 0.47313 0.0
O68 O 0.61595 0.06487 0.49565 0.0
O69 O 0.53742 0.02885 0.50093 0.0
O70 O 0.64688 0.12416 0.4651 0.0
O71 O 0.69925 0.10864 0.47576 0.0
H72 H 0.60964 0.93743 0.50597 0.0
H73 H 0.60139 0.87403 0.51576 0.0
H74 H 0.73396 0.91885 0.4771 0.0
H75 H 0.74291 0.98271 0.46803 0.0
H76 H 0.60213 0.17388 0.44962 0.0
H77 H 0.61171 0.23805 0.46126 0.0
H78 H 0.46475 0.15802 0.49224 0.0
H79 H 0.45449 0.09384 0.47982 0.0
Sm80 Sm 0.61762 0.57158 0.84828 0.0
Sm81 Sm 0.53998 0.4756 0.84534 0.0
C82 C 0.66944 0.65503 0.84194 0.0
C83 C 0.65712 0.68325 0.83556 0.0
C84 C 0.61525 0.66768 0.82155 0.0
C85 C 0.60453 0.69494 0.81527 0.0
C86 C 0.63528 0.73837 0.82294 0.0
C87 C 0.67683 0.75359 0.83723 0.0
C88 C 0.68761 0.72631 0.84344 0.0
C89 C 0.589 0.53217 0.88817 0.0
C90 C 0.49216 0.5262 0.8476 0.0
C91 C 0.48793 0.39164 0.84982 0.0
C92 C 0.49503 0.35909 0.84402 0.0
C93 C 0.53834 0.36413 0.85111 0.0
C94 C 0.54508 0.33374 0.84461 0.0
C95 C 0.5086 0.29755 0.83095 0.0
C96 C 0.46508 0.29247 0.82411 0.0
C97 C 0.4584 0.32283 0.8306 0.0
C98 C 0.5645 0.5127 0.80492 0.0
C99 C 0.66675 0.52192 0.84829 0.0
O100 O 0.66236 0.62752 0.8266 0.0
O101 O 0.65453 0.63839 0.86147 0.0
O102 O 0.55987 0.52369 0.87224 0.0
O103 O 0.63623 0.56349 0.88376 0.0
O104 O 0.53975 0.55978 0.84281 0.0
O105 O 0.48225 0.48923 0.85233 0.0
O106 O 0.51718 0.42052 0.86558 0.0
O107 O 0.48107 0.40782 0.83317 0.0
O108 O 0.59627 0.52347 0.82026 0.0
O109 O 0.51878 0.48045 0.81039 0.0
O110 O 0.61802 0.48685 0.84918 0.0
O111 O 0.67804 0.56021 0.84639 0.0
H112 H 0.59103 0.6345 0.81529 0.0
H113 H 0.57263 0.68209 0.80404 0.0
H114 H 0.70085 0.78655 0.8438 0.0
H115 H 0.7199 0.73889 0.85438 0.0
H116 H 0.56713 0.39162 0.86158 0.0
H117 H 0.57873 0.33847 0.85044 0.0
H118 H 0.43652 0.26541 0.81334 0.0
H119 H 0.42474 0.31822 0.82487 0.0
C120 C 0.6557 0.11165 0.2855 0.0
C121 C 0.6431 0.07634 0.29717 0.0
C122 C 0.65475 0.11009 0.26231 0.0
C123 C 0.64238 0.07353 0.25024 0.0
C124 C 0.62938 0.03805 0.26211 0.0
C125 C 0.62926 0.03932 0.28531 0.0
C126 C 0.64389 0.07279 0.22546 0.0
C127 C 0.68011 0.11058 0.21427 0.0
C128 C 0.68176 0.11098 0.19095 0.0
C129 C 0.64702 0.07183 0.17859 0.0
C130 C 0.61106 0.03326 0.18961 0.0
C131 C 0.60958 0.03439 0.21289 0.0
C132 C 0.57408 0.99089 0.17764 0.0
C133 C 0.5341 0.98273 0.16469 0.0
C134 C 0.57366 0.95622 0.18231 0.0
C135 C 0.53327 0.9141 0.17501 0.0
C136 C 0.49172 0.90534 0.16307 0.0
C137 C 0.72091 0.15294 0.18035 0.0
C138 C 0.73036 0.19087 0.18885 0.0
C139 C 0.75282 0.15661 0.1637 0.0
C140 C 0.79478 0.19741 0.15669 0.0
C141 C 0.80578 0.23555 0.16611 0.0
C142 C 0.77213 0.2314 0.18196 0.0
C143 C 0.49321 0.94037 0.15757 0.0
H144 H 0.66616 0.14044 0.29435 0.0
H145 H 0.66371 0.13764 0.25389 0.0
H146 H 0.62049 0.00961 0.25355 0.0
H147 H 0.61991 0.01186 0.29402 0.0
H148 H 0.70825 0.13999 0.22381 0.0
H149 H 0.58074 1.00502 0.22118 0.0
H150 H 0.64794 0.07131 0.16063 0.0
H151 H 0.53309 0.00875 0.16113 0.0
H152 H 0.60368 0.96154 0.1925 0.0
H153 H 0.53337 0.88809 0.17977 0.0
H154 H 0.70629 0.18931 0.20153 0.0
H155 H 0.74677 0.12813 0.15683 0.0
H156 H 0.46212 0.93489 0.14824 0.0
H157 H 0.77911 0.25957 0.1899 0.0
H158 H 0.81911 0.19903 0.14416 0.0
C159 C 0.55631 0.49791 0.65944 0.0
C160 C 0.58334 0.53459 0.67385 0.0
C161 C 0.56453 0.50182 0.63665 0.0
C162 C 0.59986 0.54251 0.62772 0.0
C163 C 0.62748 0.57921 0.64214 0.0
C164 C 0.61949 0.57526 0.66502 0.0
C165 C 0.60664 0.54649 0.60335 0.0
C166 C 0.60738 0.57755 0.59251 0.0
C167 C 0.61104 0.58011 0.56932 0.0
C168 C 0.6149 0.55155 0.55696 0.0
C169 C 0.61425 0.52019 0.56756 0.0
C170 C 0.61006 0.51797 0.59076 0.0
C171 C 0.61594 0.48855 0.55452 0.0
C172 C 0.58769 0.46921 0.5346 0.0
C173 C 0.64389 0.47586 0.56247 0.0
C174 C 0.64228 0.44364 0.55122 0.0
C175 C 0.61292 0.42343 0.53163 0.0
C176 C 0.60984 0.61219 0.55811 0.0
C177 C 0.57439 0.61844 0.56439 0.0
C178 C 0.64464 0.63738 0.54144 0.0
C179 C 0.64484 0.66895 0.5317 0.0
C180 C 0.60998 0.67573 0.5383 0.0
C181 C 0.57439 0.64978 0.55457 0.0
C182 C 0.58627 0.43709 0.52328 0.0
H183 H 0.52863 0.46609 0.6658 0.0
H184 H 0.54234 0.473 0.62595 0.0
H185 H 0.65525 0.61096 0.63572 0.0
H186 H 0.64071 0.60407 0.67574 0.0
H187 H 0.60431 0.59941 0.60213 0.0
H188 H 0.60869 0.49353 0.59909 0.0
H189 H 0.61778 0.55343 0.53908 0.0
H190 H 0.56539 0.47794 0.52808 0.0
H191 H 0.66665 0.49051 0.57758 0.0
H192 H 0.66293 0.43374 0.55828 0.0
H193 H 0.54666 0.59913 0.57699 0.0
H194 H 0.67252 0.6334 0.53632 0.0
H195 H 0.56386 0.42268 0.50807 0.0
H196 H 0.54732 0.65443 0.56015 0.0
H197 H 0.67241 0.68817 0.51904 0.0
C198 C 0.15485 0.59979 0.96577 0.0
C199 C 0.11423 0.57284 0.98004 0.0
C200 C 0.1489 0.5908 0.94284 0.0
C201 C 0.10193 0.5551 0.93367 0.0
C202 C 1.06125 0.52823 0.94793 0.0
C203 C 0.06748 0.53679 0.9709 0.0
C204 C 0.09535 0.54607 0.90927 0.0
C205 C 0.13024 0.54449 0.89742 0.0
C206 C 0.12541 0.53583 0.87437 0.0
C207 C 0.08327 0.52944 0.86295 0.0
C208 C 1.04721 0.53142 0.87492 0.0
C209 C 1.05441 0.53932 0.89803 0.0
C210 C 1.00162 0.52639 0.86505 0.0
C211 C 1.0077 0.55646 0.85061 0.0
C212 C 0.95266 0.49719 0.87422 0.0
C213 C 0.91244 0.4989 0.86991 0.0
C214 C 0.91895 0.53027 0.85633 0.0
C215 C 0.16575 0.53363 0.86405 0.0
C216 C 0.21818 0.56792 0.86809 0.0
C217 C 0.15362 0.49482 0.85513 0.0
C218 C 0.1919 0.49007 0.85134 0.0
C219 C 0.24428 0.52387 0.85635 0.0
C220 C 0.25637 0.5633 0.86425 0.0
C221 C 0.9674 0.55834 0.84634 0.0
H222 H 0.19137 0.62768 0.97237 0.0
H223 H 0.18081 0.61215 0.93223 0.0
H224 H 1.02473 0.50037 0.94131 0.0
H225 H 1.03543 0.51564 0.98149 0.0
H226 H 0.16114 0.54906 0.9065 0.0
H227 H 1.02839 0.54148 0.90747 0.0
H228 H 0.07867 0.52307 0.84518 0.0
H229 H 1.04457 0.58024 0.84351 0.0
H230 H 0.94607 0.47396 0.88577 0.0
H231 H 0.87681 0.47669 0.87826 0.0
H232 H 0.22964 0.59817 0.8754 0.0
H233 H 0.11411 0.46717 0.8522 0.0
H234 H 0.97488 0.58268 0.83543 0.0
H235 H 0.29534 0.59035 0.86863 0.0
H236 H 0.17991 0.45921 0.84485 0.0
C237 C 1.06119 0.51892 0.33622 0.0
C238 C 0.10635 0.54275 0.32418 0.0
C239 C 1.06284 0.51947 0.35939 0.0
C240 C 0.10975 0.54311 0.37105 0.0
C241 C 0.15496 0.56736 0.35885 0.0
C242 C 0.15323 0.56747 0.33569 0.0
C243 C 0.11141 0.54173 0.39574 0.0
C244 C 0.07404 0.50386 0.40663 0.0
C245 C 0.07439 0.50192 0.42988 0.0
C246 C 0.11458 0.53861 0.4424 0.0
C247 C 0.15272 0.57676 0.43164 0.0
C248 C 0.15042 0.57803 0.4085 0.0
C249 C 0.1955 0.61648 0.44384 0.0
C250 C 0.19106 0.64818 0.45063 0.0
C251 C 0.24373 0.62666 0.4445 0.0
C252 C 0.28704 0.66826 0.45107 0.0
C253 C 0.28319 0.70083 0.45684 0.0
C254 C 1.03197 0.461 0.44034 0.0
C255 C 0.98158 0.43902 0.43271 0.0
C256 C 1.04132 0.44145 0.45621 0.0
C257 C 1.00154 0.40001 0.4634 0.0
C258 C 0.95141 0.37726 0.45499 0.0
C259 C 0.94205 0.39787 0.43984 0.0
C260 C 0.23435 0.68983 0.45712 0.0
H261 H 1.02456 0.49985 0.32768 0.0
H262 H 1.0272 0.50127 0.36811 0.0
H263 H 0.19181 0.5854 0.36708 0.0
H264 H 0.18858 0.58574 0.32671 0.0
H265 H 1.04477 0.47517 0.39693 0.0
H266 H 0.1791 0.60786 0.40052 0.0
H267 H 0.11579 0.53777 0.46029 0.0
H268 H 0.15443 0.64135 0.44981 0.0
H269 H 0.24825 0.60303 0.43881 0.0
H270 H 0.32389 0.67549 0.45042 0.0
H271 H 0.97283 0.45325 0.42065 0.0
H272 H 0.07967 0.45739 0.46238 0.0
H273 H 0.2297 0.7138 0.46173 0.0
H274 H 0.9044 0.38157 0.43271 0.0
H275 H 1.01024 0.38557 0.47532 0.0
C276 C 0.55034 0.9837 0.65307 0.0
C277 C 0.57869 0.02123 0.64076 0.0
C278 C 0.55565 0.98624 0.67619 0.0
C279 C 0.58906 0.02641 0.68754 0.0
C280 C 0.61787 0.0639 0.67521 0.0
C281 C 0.61293 0.06132 0.65207 0.0
C282 C 0.59306 0.02931 0.7122 0.0
C283 C 0.59681 1.00124 0.72373 0.0
C284 C 0.60068 1.0038 0.74704 0.0
C285 C 0.60032 0.03491 0.75885 0.0
C286 C 0.59628 0.06321 0.74757 0.0
C287 C 0.59278 0.06008 0.72426 0.0
C288 C 0.59495 0.09578 0.75989 0.0
C289 C 0.56551 0.08501 0.77899 0.0
C290 C 0.62152 0.13755 0.75199 0.0
C291 C 0.61781 0.16741 0.76255 0.0
C292 C 0.58746 0.15642 0.78136 0.0
C293 C 0.60632 0.97451 0.7588 0.0
C294 C 0.57697 0.93066 0.75217 0.0
C295 C 0.64268 0.99047 0.77599 0.0
C296 C 0.65058 0.96355 0.78582 0.0
C297 C 0.62206 0.91994 0.77882 0.0
C298 C 0.58464 0.90371 0.76208 0.0
C299 C 0.5617 0.11493 0.78956 0.0
H300 H 0.52392 0.95232 0.64481 0.0
H301 H 0.53273 0.95682 0.68523 0.0
H302 H 0.64428 0.09528 0.68347 0.0
H303 H 0.635 0.09083 0.64308 0.0
H304 H 0.59821 0.97811 0.71445 0.0
H305 H 0.58837 0.08092 0.71543 0.0
H306 H 0.60326 0.03714 0.7768 0.0
H307 H 0.54428 0.05306 0.78544 0.0
H308 H 0.64504 0.14715 0.73749 0.0
H309 H 0.63781 0.19885 0.7556 0.0
H310 H 0.54828 0.91722 0.73913 0.0
H311 H 0.66615 0.02411 0.7814 0.0
H312 H 0.53845 0.1055 0.80415 0.0
H313 H 0.56226 0.87042 0.75616 0.0
H314 H 0.67934 0.977 0.79883 0.0
C315 C 0.53181 0.36321 -0.00221 0.0
C316 C 0.52082 0.39142 0.99401 0.0
C317 C 0.50956 0.33526 0.01545 0.0
C318 C 0.4761 0.33516 0.02968 0.0
C319 C 0.46581 0.36387 0.02597 0.0
C320 C 0.48774 0.3915 0.00833 0.0
C321 C 0.45413 0.30731 0.04919 0.0
C322 C 0.48515 0.30426 0.06297 0.0
C323 C 0.46787 0.28484 0.08361 0.0
C324 C 0.41834 0.26739 0.09012 0.0
C325 C 0.38693 0.27038 0.07659 0.0
C326 C 0.40448 0.28906 0.05586 0.0
C327 C 0.34153 0.26363 0.08582 0.0
C328 C 0.29706 0.24393 0.07288 0.0
C329 C 0.34636 0.28439 0.10612 0.0
C330 C 0.31016 0.28939 0.11222 0.0
C331 C 0.26785 0.27329 0.09828 0.0
C332 C 0.50486 0.29027 0.09972 0.0
C333 C 0.54242 0.28715 0.09256 0.0
C334 C 0.50751 0.30493 0.12165 0.0
C335 C 0.54919 0.31984 0.13538 0.0
C336 C 0.58922 0.32068 0.12743 0.0
C337 C 0.58425 0.30228 0.10626 0.0
C338 C 0.26027 0.24835 0.07916 0.0
H339 H 0.55691 0.36227 0.98689 0.0
H340 H 0.51829 0.31356 0.01788 0.0
H341 H 0.4416 0.36576 0.03699 0.0
H342 H 0.4793 0.41345 0.00609 0.0
H343 H 0.52443 0.32052 0.05853 0.0
H344 H 0.38088 0.29255 0.04568 0.0
H345 H 0.40525 0.25378 0.10632 0.0
H346 H 0.29224 0.22737 0.05724 0.0
H347 H 0.3805 0.30037 0.11634 0.0
H348 H 0.31807 0.30925 0.12691 0.0
H349 H 0.54101 0.27543 0.07586 0.0
H350 H 0.47945 0.30803 0.12771 0.0
H351 H 0.22751 0.23446 0.06832 0.0
H352 H 0.61449 0.30255 0.0996 0.0
H353 H 0.5516 0.33319 0.15175 0.0
H354 H 0.19173 0.38224 0.09615 0.0
H355 H 0.21387 0.38629 0.16678 0.0
H356 H 0.22543 0.33138 0.16219 0.0
H357 H 0.24071 0.29007 0.13765 0.0
H358 H 0.22815 0.29329 0.06663 0.0
H359 H 0.19843 0.33517 0.07193 0.0
C360 C 0.19779 0.37026 0.11057 0.0
C361 C 0.20246 0.38847 0.13172 0.0
C362 C 0.20597 0.33977 0.10773 0.0
C363 C 0.21081 0.37304 0.15029 0.0
C364 C 0.21735 0.34166 0.14767 0.0
C365 C 0.23119 0.29964 0.1233 0.0
C366 C 0.23778 0.28901 0.10178 0.0
C367 C 0.21695 0.32605 0.12637 0.0
C368 C 0.22337 0.30052 0.08345 0.0
C369 C 0.207 0.32517 0.08642 0.0
H370 H 0.79495 0.17598 0.47076 0.0
H371 H 0.6894 0.20366 0.46909 0.0
H372 H 0.75968 0.28 0.46569 0.0
H373 H 0.85071 0.33894 0.46159 0.0
H374 H 0.95687 0.31189 0.46143 0.0
H375 H 0.8873 0.23608 0.46771 0.0
C376 C 0.78736 0.19876 0.46986 0.0
C377 C 0.73663 0.18372 0.47008 0.0
C378 C 0.82826 0.24304 0.46762 0.0
C379 C 0.72778 0.21393 0.46879 0.0
C380 C 0.76808 0.2578 0.46687 0.0
C381 C 0.85883 0.31656 0.46283 0.0
C382 C 0.90937 0.33156 0.46087 0.0
C383 C 0.81841 0.27268 0.46595 0.0
C384 C 0.91874 0.30181 0.46309 0.0
C385 C 0.87876 0.25817 0.46649 0.0
H386 H 0.70346 0.82334 0.81283 0.0
H387 H 0.54218 0.71943 0.81707 0.0
H388 H 0.52393 0.76611 0.80403 0.0
H389 H 0.55357 0.83637 0.79103 0.0
H390 H 0.7148 0.94048 0.78749 0.0
H391 H 0.73306 0.8942 0.80126 0.0
C392 C 0.66428 0.81096 0.81123 0.0
C393 C 0.62434 0.76765 0.81585 0.0
C394 C 0.65395 0.83816 0.80393 0.0
C395 C 0.57381 0.75227 0.81328 0.0
C396 C 0.56327 0.77907 0.80595 0.0
C397 C 0.59271 0.8489 0.79322 0.0
C398 C 0.63271 0.89192 0.78819 0.0
C399 C 0.60301 0.82199 0.80107 0.0
C400 C 0.68321 0.90773 0.79145 0.0
C401 C 0.69373 0.88116 0.79919 0.0
H402 H 0.81691 0.42375 0.15849 0.0
H403 H 0.8005 0.52232 0.17076 0.0
H404 H 0.70926 0.46995 0.1628 0.0
H405 H 0.63732 0.39938 0.14747 0.0
H406 H 0.65371 0.3012 0.13351 0.0
H407 H 0.7422 0.35044 0.14686 0.0
C408 C 0.79323 0.43365 0.15955 0.0
C409 C 0.81548 0.47695 0.16488 0.0
C410 C 0.74107 0.40363 0.15444 0.0
C411 C 0.78428 0.48917 0.16673 0.0
C412 C 0.73218 0.45932 0.16203 0.0
C413 C 0.65966 0.3882 0.14796 0.0
C414 C 0.63903 0.34673 0.13941 0.0
C415 C 0.71055 0.41685 0.15522 0.0
C416 C 0.66892 0.33313 0.13979 0.0
C417 C 0.71946 0.36126 0.1474 0.0
H418 H 0.49726 0.88414 0.47879 0.0
H419 H 0.42561 0.9245 0.44111 0.0
H420 H 0.34898 0.85031 0.43646 0.0
H421 H 0.3017 0.77363 0.44242 0.0
H422 H 0.37093 0.73131 0.48004 0.0
H423 H 0.44853 0.80601 0.48517 0.0
C424 C 0.46491 0.87668 0.46956 0.0
C425 C 0.46767 0.91031 0.46037 0.0
C426 C 0.42017 0.83336 0.46688 0.0
C427 C 0.42505 0.89972 0.44846 0.0
C428 C 0.3809 0.85708 0.44576 0.0
C429 C 0.33338 0.78065 0.45205 0.0
C430 C 0.33001 0.74661 0.46093 0.0
C431 C 0.37791 0.82365 0.4549 0.0
C432 C 0.37229 0.75663 0.47288 0.0
C433 C 0.41675 0.79946 0.47587 0.0
H434 H 0.59663 0.31281 0.81794 0.0
H435 H 0.43685 0.20967 0.82735 0.0
H436 H 0.44731 0.15716 0.81345 0.0
H437 H 0.50106 0.14053 0.79738 0.0
H438 H 0.66126 0.24338 0.78886 0.0
H439 H 0.65133 0.29572 0.80375 0.0
C440 C 0.56419 0.2788 0.81726 0.0
C441 C 0.51593 0.26542 0.82358 0.0
C442 C 0.57046 0.24861 0.8093 0.0
C443 C 0.47428 0.22114 0.82226 0.0
C444 C 0.48026 0.19097 0.81442 0.0
C445 C 0.534 0.17429 0.79909 0.0
C446 C 0.5818 0.18786 0.79186 0.0
C447 C 0.52807 0.20434 0.80771 0.0
C448 C 0.62384 0.23196 0.79394 0.0
C449 C 0.61826 0.26197 0.80256 0.0
H450 H 0.58273 0.80764 0.50144 0.0
H451 H 0.74634 0.89274 0.50952 0.0
H452 H 0.74309 0.83323 0.52171 0.0
H453 H 0.6939 0.75776 0.53149 0.0
H454 H 0.53025 0.67259 0.52442 0.0
H455 H 0.53337 0.73152 0.51084 0.0
C456 C 0.61764 0.81322 0.50599 0.0
C457 C 0.6647 0.85466 0.50445 0.0
C458 C 0.61552 0.77888 0.51329 0.0
C459 C 0.70962 0.8611 0.51016 0.0
C460 C 0.70783 0.82713 0.51729 0.0
C461 C 0.65896 0.75194 0.52669 0.0
C462 C 0.61195 0.71086 0.52894 0.0
C463 C 0.66102 0.78596 0.51901 0.0
C464 C 0.56693 0.70404 0.52303 0.0
C465 C 0.56869 0.73768 0.5152 0.0
H466 H 0.77354 0.58468 0.84628 0.0
H467 H 0.65657 0.44827 0.85349 0.0
H468 H 0.72119 0.43852 0.85638 0.0
H469 H 0.81187 0.4679 0.85705 0.0
H470 H 0.92937 0.60441 0.84991 0.0
H471 H 0.86476 0.61406 0.84657 0.0
C472 C 0.7619 0.5527 0.84846 0.0
C473 C 0.70893 0.51733 0.84969 0.0
C474 C 0.80007 0.54701 0.85005 0.0
C475 C 0.69608 0.47641 0.85249 0.0
C476 C 0.73348 0.47069 0.85416 0.0
C477 C 0.82388 0.49998 0.85487 0.0
C478 C 0.87698 0.53521 0.85366 0.0
C479 C 0.7858 0.50567 0.85303 0.0
C480 C 0.88984 0.57611 0.85053 0.0
C481 C 0.85243 0.58187 0.84879 0.0
H482 H 0.32009 0.70344 0.14524 0.0
H483 H 0.22534 0.73751 0.16565 0.0
H484 H 0.29946 0.81316 0.16863 0.0
H485 H 0.39179 0.86999 0.16733 0.0
H486 H 0.4881 0.83735 0.14774 0.0
H487 H 0.41335 0.76151 0.14262 0.0
C488 C 0.31563 0.72744 0.15019 0.0
C489 C 0.26685 0.71435 0.1553 0.0
C490 C 0.35895 0.77146 0.15213 0.0
C491 C 0.26214 0.74618 0.16175 0.0
C492 C 0.30466 0.78972 0.16344 0.0
C493 C 0.39647 0.84648 0.16156 0.0
C494 C 0.44575 0.85965 0.15792 0.0
C495 C 0.35332 0.80276 0.1589 0.0
C496 C 0.45081 0.82828 0.15086 0.0
C497 C 0.40797 0.7848 0.14789 0.0
H498 H 0.62567 0.27976 0.49396 0.0
H499 H 0.46692 0.21514 0.47943 0.0
H500 H 0.47604 0.27755 0.4944 0.0
H501 H 0.52813 0.34932 0.51281 0.0
H502 H 0.68782 0.41545 0.52571 0.0
H503 H 0.67919 0.35362 0.51002 0.0
C504 C 0.5932 0.27951 0.4937 0.0
C505 C 0.54557 0.24251 0.48569 0.0
C506 C 0.59878 0.31573 0.50213 0.0
C507 C 0.50382 0.24273 0.48586 0.0
C508 C 0.50905 0.27856 0.4943 0.0
C509 C 0.56133 0.35062 0.51184 0.0
C510 C 0.60851 0.38704 0.52057 0.0
C511 C 0.55623 0.31507 0.50265 0.0
C512 C 0.65083 0.38764 0.51948 0.0
C513 C 0.64601 0.35235 0.5104 0.0
H514 H 0.387 0.46558 0.85552 0.0
H515 H 0.50195 0.59923 0.84084 0.0
H516 H 0.43825 0.61038 0.84194 0.0
H517 H 0.34909 0.58314 0.84719 0.0
H518 H 0.23378 0.44952 0.86199 0.0
H519 H 0.29715 0.43808 0.86039 0.0
C520 C 0.39836 0.49722 0.85252 0.0
C521 C 0.45044 0.53142 0.84811 0.0
C522 C 0.36075 0.5037 0.85309 0.0
C523 C 0.46303 0.57196 0.84428 0.0
C524 C 0.4262 0.5785 0.84492 0.0
C525 C 0.33735 0.55139 0.85019 0.0
C526 C 0.28513 0.51734 0.8546 0.0
C527 C 0.37477 0.54475 0.84936 0.0
C528 C 0.27242 0.47661 0.85811 0.0
C529 C 0.30922 0.46996 0.85739 0.0
H530 H 1.02698 0.41134 0.15004 0.0
H531 H 0.94432 0.46123 0.15851 0.0
H532 H 0.865 0.3885 0.16146 0.0
H533 H 0.81877 0.31077 0.16299 0.0
H534 H 0.90099 0.26013 0.15699 0.0
H535 H 0.97975 0.33243 0.15114 0.0
C536 C 0.99159 0.40629 0.1524 0.0
C537 C 0.99207 0.44211 0.15408 0.0
C538 C 0.9456 0.36396 0.15446 0.0
C539 C 0.94558 0.43464 0.15722 0.0
C540 C 0.89993 0.39287 0.15891 0.0
C541 C 0.85384 0.31533 0.16057 0.0
C542 C 0.85333 0.27948 0.16059 0.0
C543 C 0.89949 0.35729 0.15783 0.0
C544 C 0.89947 0.28657 0.15681 0.0
C545 C 0.9449 0.32818 0.15367 0.0
H546 H 0.14739 0.64235 0.07971 0.0
H547 H 0.08727 0.51199 0.09172 0.0
H548 H 0.08043 0.49601 0.05179 0.0
H549 H 0.08955 0.51855 0.0133 0.0
H550 H 0.15278 0.6496 0.00124 0.0
H551 H 0.16062 0.66592 0.04121 0.0
C552 C 0.13297 0.61052 0.07355 0.0
C553 C 0.11746 0.57832 0.08863 0.0
C554 C 0.12962 0.60165 0.05053 0.0
C555 C 0.09932 0.53732 0.08045 0.0
C556 C 0.0953 0.52812 0.05761 0.0
C557 C 0.10496 0.55064 0.01947 0.0
C558 C 0.1203 0.58276 0.00436 0.0
C559 C 0.10991 0.55991 0.04248 0.0
C560 C 0.14092 0.62439 0.01255 0.0
C561 C 0.14525 0.63369 0.0354 0.0
H562 H 0.69819 0.10686 0.39937 0.0
H563 H 0.53949 0.99685 0.40307 0.0
H564 H 0.53023 0.99501 0.36271 0.0
H565 H 0.56862 0.02306 0.3261 0.0
H566 H 0.72607 0.13551 0.32287 0.0
H567 H 0.73466 0.13823 0.36328 0.0
C568 C 0.66154 0.08267 0.3913 0.0
C569 C 0.61972 0.05179 0.40405 0.0
C570 C 0.65642 0.0822 0.3682 0.0
C571 C 0.57224 0.02092 0.39354 0.0
C572 C 0.56699 0.01976 0.37048 0.0
C573 C 0.60464 0.04816 0.33436 0.0
C574 C 0.64678 0.07888 0.32168 0.0
C575 C 0.60899 0.04992 0.35761 0.0
C576 C 0.69319 0.11163 0.33241 0.0
C577 C 0.69812 0.11311 0.35546 0.0
H578 H 0.49919 0.48586 0.77069 0.0
H579 H 0.65948 0.56934 0.78732 0.0
H580 H 0.67987 0.58564 0.74807 0.0
H581 H 0.65143 0.57207 0.7087 0.0
H582 H 0.49055 0.487 0.6929 0.0
H583 H 0.47104 0.47515 0.73219 0.0
C584 C 0.53864 0.50784 0.76576 0.0
C585 C 0.57781 0.52609 0.78178 0.0
C586 C 0.54989 0.51644 0.7433 0.0
C587 C 0.6287 0.55477 0.77521 0.0
C588 C 0.64031 0.56398 0.7528 0.0
C589 C 0.61216 0.55136 0.71393 0.0
C590 C 0.57247 0.53006 0.69791 0.0
C591 C 0.60116 0.54441 0.73664 0.0
C592 C 0.52174 0.50313 0.70489 0.0
C593 C 0.51054 0.4965 0.72734 0.0
H594 H 0.50935 0.99733 0.54048 0.0
H595 H 0.6718 0.08556 0.53173 0.0
H596 H 0.68566 0.08599 0.57157 0.0
H597 H 0.65133 0.06292 0.60913 0.0
H598 H 0.48873 0.97402 0.61753 0.0
H599 H 0.4752 0.97189 0.57763 0.0
C600 C 0.54778 0.01653 0.5473 0.0
C601 C 0.58948 0.04167 0.53325 0.0
C602 C 0.55542 0.01649 0.57017 0.0
C603 C 0.63907 0.06608 0.54225 0.0
C604 C 0.64701 0.06638 0.56502 0.0
C605 C 0.61297 0.04315 0.60219 0.0
C606 C 0.57111 0.01875 0.61631 0.0
C607 C 0.60545 0.04205 0.57918 0.0
C608 C 0.52162 0.99279 0.60704 0.0
C609 C 0.51383 0.99174 0.58423 0.0
H610 H 0.64324 0.52342 0.91761 0.0
H611 H 0.49293 0.48219 0.9029 0.0
H612 H 0.45883 0.43517 0.93427 0.0
H613 H 0.47081 0.40435 0.96524 0.0
H614 H 0.61965 0.44281 0.98006 0.0
H615 H 0.65516 0.49173 0.94912 0.0
C616 C 0.6032 0.50443 0.9215 0.0
C617 C 0.57066 0.50641 0.90814 0.0
C618 C 0.5835 0.47663 0.93938 0.0
C619 C 0.51869 0.48121 0.91303 0.0
C620 C 0.49911 0.45425 0.93092 0.0
C621 C 0.51112 0.4237 0.96181 0.0
C622 C 0.54261 0.42021 0.97496 0.0
C623 C 0.53104 0.4515 0.94409 0.0
C624 C 0.59458 0.44479 0.97005 0.0
C625 C 0.61492 0.47292 0.95247 0.0
H626 H 0.08849 0.49937 0.22148 0.0
H627 H 0.17837 0.63732 0.21897 0.0
H628 H 0.17591 0.64302 0.25949 0.0
H629 H 0.15117 0.6086 0.29582 0.0
H630 H 1.05752 0.47029 0.29777 0.0
H631 H 1.05821 0.46471 0.25728 0.0
C632 C 0.1073 0.53064 0.22984 0.0
C633 C 0.13405 0.56791 0.2174 0.0
C634 C 0.10513 0.53353 0.253 0.0
C635 C 0.15765 0.6082 0.22829 0.0
C636 C 0.15639 0.61146 0.25142 0.0
C637 C 0.13082 0.57733 0.28728 0.0
C638 C 0.1046 0.5399 0.29964 0.0
C639 C 0.13079 0.57437 0.26397 0.0
C640 C 0.07781 0.49946 0.28851 0.0
C641 C 0.07835 0.49628 0.26541 0.0
loop_
_geom_bond_atom_site_label_1
_geom_bond_atom_site_label_2
_geom_bond_distance
_geom_bond_site_symmetry_2
_ccdc_geom_bond_type
Sm0 C2 2.846 . S
Sm0 O20 2.543 . S
Sm0 O21 2.450 . S
Sm0 O22 2.681 . S
Sm0 O23 2.464 . S
Sm0 O24 2.396 . S
Sm0 O28 2.386 . S
Sm0 O31 2.408 1_455 S
Sm1 C11 2.846 . S
Sm1 O22 2.386 1_655 S
Sm1 O25 2.408 1_655 S
Sm1 O26 2.543 . S
Sm1 O27 2.450 . S
Sm1 O28 2.681 1_655 S
Sm1 O29 2.464 . S
Sm1 O30 2.396 . S
C2 Sm0 2.846 . S
C2 C3 1.506 . S
C2 O20 1.261 . S
C2 O21 1.242 . S
C3 C2 1.506 . S
C3 C4 1.358 . S
C3 C8 1.382 . S
C4 C3 1.358 . S
C4 C5 1.385 . S
C4 H32 0.930 . S
C5 C4 1.385 . S
C5 C6 1.395 . S
C5 H33 0.929 . S
C6 C5 1.395 . S
C6 C7 1.335 . S
C7 C6 1.335 . S
C7 C8 1.398 . S
C7 H34 0.930 . S
C8 C3 1.382 . S
C8 C7 1.398 . S
C8 H35 0.929 . S
C9 O22 1.271 . S
C9 O23 1.251 . S
C10 O24 1.252 . S
C10 O25 1.272 . S
C11 Sm1 2.846 . S
C11 C12 1.506 . S
C11 O26 1.261 . S
C11 O27 1.242 . S
C12 C11 1.506 . S
C12 C13 1.358 . S
C12 C17 1.382 . S
C13 C12 1.358 . S
C13 C14 1.385 . S
C13 H36 0.930 . S
C14 C13 1.385 . S
C14 C15 1.395 . S
C14 H37 0.929 . S
C15 C14 1.395 . S
C15 C16 1.335 . S
C16 C15 1.335 . S
C16 C17 1.398 . S
C16 H38 0.930 . S
C17 C12 1.382 . S
C17 C16 1.398 . S
C17 H39 0.929 . S
C18 O28 1.271 . S
C18 O29 1.251 1_455 S
C19 O30 1.252 . S
C19 O31 1.272 . S
O20 Sm0 2.543 . S
O20 C2 1.261 . S
O21 Sm0 2.450 . S
O21 C2 1.242 . S
O22 Sm0 2.681 . S
O22 Sm1 2.386 1_455 S
O22 C9 1.271 . S
O23 Sm0 2.464 . S
O23 C9 1.251 . S
O24 Sm0 2.396 . S
O24 C10 1.252 . S
O25 Sm1 2.408 1_455 S
O25 C10 1.272 . S
O26 Sm1 2.543 . S
O26 C11 1.261 . S
O27 Sm1 2.450 . S
O27 C11 1.242 . S
O28 Sm0 2.386 . S
O28 Sm1 2.681 1_455 S
O28 C18 1.271 . S
O29 Sm1 2.464 . S
O29 C18 1.251 1_655 S
O30 Sm1 2.396 . S
O30 C19 1.252 . S
O31 Sm0 2.408 1_655 S
O31 C19 1.272 . S
H32 C4 0.930 . S
H33 C5 0.929 . S
H34 C7 0.930 . S
H35 C8 0.929 . S
H36 C13 0.930 . S
H37 C14 0.929 . S
H38 C16 0.930 . S
H39 C17 0.929 . S
Sm40 C42 2.846 . S
Sm40 O60 2.543 . S
Sm40 O61 2.450 . S
Sm40 O62 2.681 1_565 S
Sm40 O63 2.464 . S
Sm40 O64 2.396 . S
Sm40 O68 2.404 . S
Sm40 O71 2.408 1_565 S
Sm41 C51 2.846 . S
Sm41 O62 2.386 . S
Sm41 O65 2.408 1_545 S
Sm41 O66 2.543 . S
Sm41 O67 2.450 . S
Sm41 O68 2.653 1_545 S
Sm41 O69 2.464 . S
Sm41 O70 2.396 . S
C42 Sm40 2.846 . S
C42 C43 1.506 . S
C42 O60 1.261 . S
C42 O61 1.242 . S
C43 C42 1.506 . S
C43 C44 1.358 . S
C43 C48 1.382 . S
C44 C43 1.358 . S
C44 C45 1.385 . S
C44 H72 0.930 . S
C45 C44 1.385 . S
C45 C46 1.395 . S
C45 H73 0.929 . S
C46 C45 1.395 . S
C46 C47 1.335 . S
C47 C46 1.335 . S
C47 C48 1.398 . S
C47 H74 0.930 . S
C48 C43 1.382 . S
C48 C47 1.398 . S
C48 H75 0.929 . S
C49 O62 1.271 . S
C49 O63 1.251 1_545 S
C50 O64 1.252 . S
C50 O65 1.272 . S
C51 Sm41 2.846 . S
C51 C52 1.506 . S
C51 O66 1.261 . S
C51 O67 1.242 . S
C52 C51 1.506 . S
C52 C53 1.358 . S
C52 C57 1.382 . S
C53 C52 1.358 . S
C53 C54 1.385 . S
C53 H76 0.930 . S
C54 C53 1.385 . S
C54 C55 1.395 . S
C54 H77 0.929 . S
C55 C54 1.395 . S
C55 C56 1.335 . S
C56 C55 1.335 . S
C56 C57 1.398 . S
C56 H78 0.930 . S
C57 C52 1.382 . S
C57 C56 1.398 . S
C57 H79 0.929 . S
C58 O68 1.256 1_545 S
C58 O69 1.251 . S
C59 O70 1.252 . S
C59 O71 1.272 . S
O60 Sm40 2.543 . S
O60 C42 1.261 . S
O61 Sm40 2.450 . S
O61 C42 1.242 . S
O62 Sm40 2.681 1_545 S
O62 Sm41 2.386 . S
O62 C49 1.271 . S
O63 Sm40 2.464 . S
O63 C49 1.251 1_565 S
O64 Sm40 2.396 . S
O64 C50 1.252 . S
O65 Sm41 2.408 1_565 S
O65 C50 1.272 . S
O66 Sm41 2.543 . S
O66 C51 1.261 . S
O67 Sm41 2.450 . S
O67 C51 1.242 . S
O68 Sm40 2.404 . S
O68 Sm41 2.653 1_565 S
O68 C58 1.256 1_565 S
O69 Sm41 2.464 . S
O69 C58 1.251 . S
O70 Sm41 2.396 . S
O70 C59 1.252 . S
O71 Sm40 2.408 1_545 S
O71 C59 1.272 . S
H72 C44 0.930 . S
H73 C45 0.929 . S
H74 C47 0.930 . S
H75 C48 0.929 . S
H76 C53 0.930 . S
H77 C54 0.929 . S
H78 C56 0.930 . S
H79 C57 0.929 . S
Sm80 C82 2.846 . S
Sm80 O100 2.543 . S
Sm80 O101 2.450 . S
Sm80 O102 2.681 . S
Sm80 O103 2.464 . S
Sm80 O104 2.396 . S
Sm80 O108 2.386 . S
Sm80 O111 2.408 . S
Sm81 C91 2.846 . S
Sm81 O102 2.386 . S
Sm81 O105 2.408 . S
Sm81 O106 2.543 . S
Sm81 O107 2.450 . S
Sm81 O108 2.681 . S
Sm81 O109 2.464 . S
Sm81 O110 2.396 . S
C82 Sm80 2.846 . S
C82 C83 1.506 . S
C82 O100 1.261 . S
C82 O101 1.242 . S
C83 C82 1.506 . S
C83 C84 1.358 . S
C83 C88 1.382 . S
C84 C83 1.358 . S
C84 C85 1.385 . S
C84 H112 0.930 . S
C85 C84 1.385 . S
C85 C86 1.395 . S
C85 H113 0.929 . S
C86 C85 1.395 . S
C86 C87 1.335 . S
C87 C86 1.335 . S
C87 C88 1.398 . S
C87 H114 0.930 . S
C88 C83 1.382 . S
C88 C87 1.398 . S
C88 H115 0.929 . S
C89 O102 1.271 . S
C89 O103 1.251 . S
C90 O104 1.252 . S
C90 O105 1.272 . S
C91 Sm81 2.846 . S
C91 C92 1.506 . S
C91 O106 1.261 . S
C91 O107 1.242 . S
C92 C91 1.506 . S
C92 C93 1.358 . S
C92 C97 1.382 . S
C93 C92 1.358 . S
C93 C94 1.385 . S
C93 H116 0.930 . S
C94 C93 1.385 . S
C94 C95 1.395 . S
C94 H117 0.929 . S
C95 C94 1.395 . S
C95 C96 1.335 . S
C96 C95 1.335 . S
C96 C97 1.398 . S
C96 H118 0.930 . S
C97 C92 1.382 . S
C97 C96 1.398 . S
C97 H119 0.929 . S
C98 O108 1.271 . S
C98 O109 1.251 . S
C99 O110 1.252 . S
C99 O111 1.272 . S
O100 Sm80 2.543 . S
O100 C82 1.261 . S
O101 Sm80 2.450 . S
O101 C82 1.242 . S
O102 Sm80 2.681 . S
O102 Sm81 2.386 . S
O102 C89 1.271 . S
O103 Sm80 2.464 . S
O103 C89 1.251 . S
O104 Sm80 2.396 . S
O104 C90 1.252 . S
O105 Sm81 2.408 . S
O105 C90 1.272 . S
O106 Sm81 2.543 . S
O106 C91 1.261 . S
O107 Sm81 2.450 . S
O107 C91 1.242 . S
O108 Sm80 2.386 . S
O108 Sm81 2.681 . S
O108 C98 1.271 . S
O109 Sm81 2.464 . S
O109 C98 1.251 . S
O110 Sm81 2.396 . S
O110 C99 1.252 . S
O111 Sm80 2.408 . S
O111 C99 1.272 . S
H112 C84 0.930 . S
H113 C85 0.929 . S
H114 C87 0.930 . S
H115 C88 0.929 . S
H116 C93 0.930 . S
H117 C94 0.929 . S
H118 C96 0.930 . S
H119 C97 0.929 . S
C120 C121 1.386 . S
C120 C122 1.397 . S
C120 H144 0.931 . S
C121 C120 1.386 . S
C121 C125 1.397 1_545 S
C122 C120 1.397 . S
C122 C123 1.384 . S
C122 H145 0.930 . S
C123 C122 1.384 . S
C123 C124 1.377 1_545 S
C123 C126 1.481 . S
C124 C123 1.377 1_565 S
C124 C125 1.389 . S
C124 H146 0.929 . S
C125 C121 1.397 1_565 S
C125 C124 1.389 . S
C125 H147 0.931 . S
C126 C123 1.481 . S
C126 C127 1.387 . S
C126 C131 1.390 1_545 S
C127 C126 1.387 . S
C127 C128 1.401 . S
C127 H148 0.930 . S
C128 C127 1.401 . S
C128 C129 1.376 . S
C128 C137 1.511 . S
C129 C128 1.376 . S
C129 C130 1.392 1_545 S
C129 H150 0.931 . S
C130 C129 1.392 1_565 S
C130 C131 1.361 . S
C130 C132 1.500 . S
C131 C126 1.390 1_565 S
C131 C130 1.361 . S
C131 H149 0.931 . S
C132 C130 1.500 . S
C132 C133 1.371 . S
C132 C134 1.365 . S
C133 C132 1.371 . S
C133 C143 1.386 . S
C133 H151 0.931 . S
C134 C132 1.365 . S
C134 C135 1.409 . S
C134 H152 0.929 . S
C135 C134 1.409 . S
C135 C136 1.380 . S
C135 H153 0.930 . S
C136 C135 1.380 . S
C136 C143 1.357 . S
C137 C128 1.511 . S
C137 C138 1.341 . S
C137 C139 1.371 . S
C138 C137 1.341 . S
C138 C142 1.394 . S
C138 H154 0.930 . S
C139 C137 1.371 . S
C139 C140 1.392 . S
C139 H155 0.931 . S
C140 C139 1.392 . S
C140 C141 1.331 . S
C140 H158 0.932 . S
C141 C140 1.331 . S
C141 C142 1.336 . S
C142 C138 1.394 . S
C142 C141 1.336 . S
C142 H157 0.929 . S
C143 C133 1.386 . S
C143 C136 1.357 . S
C143 H156 0.928 . S
H144 C120 0.931 . S
H145 C122 0.930 . S
H146 C124 0.929 . S
H147 C125 0.931 . S
H148 C127 0.930 . S
H149 C131 0.931 . S
H150 C129 0.931 . S
H151 C133 0.931 . S
H152 C134 0.929 . S
H153 C135 0.930 . S
H154 C138 0.930 . S
H155 C139 0.931 . S
H156 C143 0.928 . S
H157 C142 0.929 . S
H158 C140 0.932 . S
C159 C160 1.386 . S
C159 C161 1.397 . S
C159 H183 0.931 . S
C160 C159 1.386 . S
C160 C164 1.397 . S
C161 C159 1.397 . S
C161 C162 1.384 . S
C161 H184 0.930 . S
C162 C161 1.384 . S
C162 C163 1.377 . S
C162 C165 1.481 . S
C163 C162 1.377 . S
C163 C164 1.389 . S
C163 H185 0.929 . S
C164 C160 1.397 . S
C164 C163 1.389 . S
C164 H186 0.931 . S
C165 C162 1.481 . S
C165 C166 1.387 . S
C165 C170 1.390 . S
C166 C165 1.387 . S
C166 C167 1.401 . S
C166 H187 0.930 . S
C167 C166 1.401 . S
C167 C168 1.376 . S
C167 C176 1.511 . S
C168 C167 1.376 . S
C168 C169 1.392 . S
C168 H189 0.931 . S
C169 C168 1.392 . S
C169 C170 1.361 . S
C169 C171 1.500 . S
C170 C165 1.390 . S
C170 C169 1.361 . S
C170 H188 0.931 . S
C171 C169 1.500 . S
C171 C172 1.371 . S
C171 C173 1.365 . S
C172 C171 1.371 . S
C172 C182 1.386 . S
C172 H190 0.931 . S
C173 C171 1.365 . S
C173 C174 1.409 . S
C173 H191 0.929 . S
C174 C173 1.409 . S
C174 C175 1.380 . S
C174 H192 0.930 . S
C175 C174 1.380 . S
C175 C182 1.357 . S
C176 C167 1.511 . S
C176 C177 1.341 . S
C176 C178 1.371 . S
C177 C176 1.341 . S
C177 C181 1.394 . S
C177 H193 0.930 . S
C178 C176 1.371 . S
C178 C179 1.392 . S
C178 H194 0.931 . S
C179 C178 1.392 . S
C179 C180 1.331 . S
C179 H197 0.932 . S
C180 C179 1.331 . S
C180 C181 1.336 . S
C181 C177 1.394 . S
C181 C180 1.336 . S
C181 H196 0.929 . S
C182 C172 1.386 . S
C182 C175 1.357 . S
C182 H195 0.928 . S
H183 C159 0.931 . S
H184 C161 0.930 . S
H185 C163 0.929 . S
H186 C164 0.931 . S
H187 C166 0.930 . S
H188 C170 0.931 . S
H189 C168 0.931 . S
H190 C172 0.931 . S
H191 C173 0.929 . S
H192 C174 0.930 . S
H193 C177 0.930 . S
H194 C178 0.931 . S
H195 C182 0.928 . S
H196 C181 0.929 . S
H197 C179 0.932 . S
C198 C199 1.386 . S
C198 C200 1.397 . S
C198 H222 0.931 . S
C199 C198 1.386 . S
C199 C203 1.395 1_455 S
C200 C198 1.397 . S
C200 C201 1.384 . S
C200 H223 0.930 . S
C201 C200 1.384 . S
C201 C202 1.377 . S
C201 C204 1.481 . S
C202 C201 1.377 . S
C202 C203 1.389 1_455 S
C202 H224 0.929 1_455 S
C203 C199 1.395 1_655 S
C203 C202 1.389 1_655 S
C203 H225 0.934 . S
C204 C201 1.481 . S
C204 C205 1.387 . S
C204 C209 1.390 . S
C205 C204 1.387 . S
C205 C206 1.401 . S
C205 H226 0.930 . S
C206 C205 1.401 . S
C206 C207 1.376 . S
C206 C215 1.511 . S
C207 C206 1.376 . S
C207 C208 1.392 . S
C207 H228 0.931 . S
C208 C207 1.392 . S
C208 C209 1.361 . S
C208 C210 1.500 1_455 S
C209 C204 1.390 . S
C209 C208 1.361 . S
C209 H227 0.931 1_455 S
C210 C208 1.500 1_655 S
C210 C211 1.371 . S
C210 C212 1.365 . S
C211 C210 1.371 . S
C211 C221 1.386 . S
C211 H229 0.931 1_655 S
C212 C210 1.365 . S
C212 C213 1.409 . S
C212 H230 0.929 . S
C213 C212 1.409 . S
C213 C214 1.380 . S
C213 H231 0.930 . S
C214 C213 1.380 . S
C214 C221 1.357 . S
C215 C206 1.511 . S
C215 C216 1.341 . S
C215 C217 1.371 . S
C216 C215 1.341 . S
C216 C220 1.394 . S
C216 H232 0.930 . S
C217 C215 1.371 . S
C217 C218 1.392 . S
C217 H233 0.931 . S
C218 C217 1.392 . S
C218 C219 1.331 . S
C218 H236 0.932 . S
C219 C218 1.331 . S
C219 C220 1.336 . S
C220 C216 1.394 . S
C220 C219 1.336 . S
C220 H235 0.929 . S
C221 C211 1.386 . S
C221 C214 1.357 . S
C221 H234 0.928 . S
H222 C198 0.931 . S
H223 C200 0.930 . S
H224 C202 0.929 1_655 S
H225 C203 0.934 . S
H226 C205 0.930 . S
H227 C209 0.931 1_655 S
H228 C207 0.931 . S
H229 C211 0.931 1_455 S
H230 C212 0.929 . S
H231 C213 0.930 . S
H232 C216 0.930 . S
H233 C217 0.931 . S
H234 C221 0.928 . S
H235 C220 0.929 . S
H236 C218 0.932 . S
C237 C238 1.394 . S
C237 C239 1.397 . S
C237 H261 0.931 . S
C238 C237 1.394 . S
C238 C242 1.390 1_655 S
C239 C237 1.397 . S
C239 C240 1.384 . S
C239 H262 0.930 . S
C240 C239 1.384 . S
C240 C241 1.377 1_655 S
C240 C243 1.481 . S
C241 C240 1.377 1_455 S
C241 C242 1.389 . S
C241 H263 0.929 . S
C242 C238 1.390 1_455 S
C242 C241 1.389 . S
C242 H264 0.931 . S
C243 C240 1.481 . S
C243 C244 1.387 . S
C243 C248 1.390 1_655 S
C244 C243 1.387 . S
C244 C245 1.401 . S
C244 H265 0.930 . S
C245 C244 1.401 . S
C245 C246 1.376 . S
C245 C254 1.511 . S
C246 C245 1.376 . S
C246 C247 1.392 1_655 S
C246 H267 0.931 . S
C247 C246 1.392 1_455 S
C247 C248 1.361 . S
C247 C249 1.500 . S
C248 C243 1.390 1_455 S
C248 C247 1.361 . S
C248 H266 0.931 . S
C249 C247 1.500 . S
C249 C250 1.371 . S
C249 C251 1.365 . S
C250 C249 1.371 . S
C250 C260 1.386 . S
C250 H268 0.931 . S
C251 C249 1.365 . S
C251 C252 1.409 . S
C251 H269 0.929 . S
C252 C251 1.409 . S
C252 C253 1.380 . S
C252 H270 0.930 . S
C253 C252 1.380 . S
C253 C260 1.357 . S
C254 C245 1.511 . S
C254 C255 1.341 . S
C254 C256 1.371 . S
C255 C254 1.341 . S
C255 C259 1.394 . S
C255 H271 0.930 . S
C256 C254 1.371 . S
C256 C257 1.392 . S
C256 H272 0.931 . S
C257 C256 1.392 . S
C257 C258 1.331 . S
C257 H275 0.932 . S
C258 C257 1.331 . S
C258 C259 1.336 . S
C259 C255 1.394 . S
C259 C258 1.336 . S
C259 H274 0.929 . S
C260 C250 1.386 . S
C260 C253 1.357 . S
C260 H273 0.928 . S
H261 C237 0.931 . S
H262 C239 0.930 . S
H263 C241 0.929 . S
H264 C242 0.931 . S
H265 C244 0.930 . S
H266 C248 0.931 . S
H267 C246 0.931 . S
H268 C250 0.931 . S
H269 C251 0.929 . S
H270 C252 0.930 . S
H271 C255 0.930 . S
H272 C256 0.931 . S
H273 C260 0.928 . S
H274 C259 0.929 . S
H275 C257 0.932 . S
C276 C277 1.386 . S
C276 C278 1.397 . S
C276 H300 0.931 . S
C277 C276 1.386 . S
C277 C281 1.397 1_565 S
C278 C276 1.397 . S
C278 C279 1.384 . S
C278 H301 0.930 . S
C279 C278 1.384 . S
C279 C280 1.377 1_565 S
C279 C282 1.480 . S
C280 C279 1.377 1_545 S
C280 C281 1.389 . S
C280 H302 0.929 . S
C281 C277 1.397 1_545 S
C281 C280 1.389 . S
C281 H303 0.931 . S
C282 C279 1.480 . S
C282 C283 1.407 . S
C282 C287 1.371 1_565 S
C283 C282 1.407 . S
C283 C284 1.401 . S
C283 H304 0.930 . S
C284 C283 1.401 . S
C284 C285 1.376 1_565 S
C284 C293 1.511 . S
C285 C284 1.376 1_545 S
C285 C286 1.392 . S
C285 H306 0.931 . S
C286 C285 1.392 . S
C286 C287 1.361 . S
C286 C288 1.500 . S
C287 C282 1.371 1_545 S
C287 C286 1.361 . S
C287 H305 0.931 . S
C288 C286 1.500 . S
C288 C289 1.371 . S
C288 C290 1.365 . S
C289 C288 1.371 . S
C289 C299 1.386 . S
C289 H307 0.931 . S
C290 C288 1.365 . S
C290 C291 1.409 . S
C290 H308 0.929 . S
C291 C290 1.409 . S
C291 C292 1.380 . S
C291 H309 0.930 . S
C292 C291 1.380 . S
C292 C299 1.357 . S
C293 C284 1.511 . S
C293 C294 1.341 . S
C293 C295 1.371 . S
C294 C293 1.341 . S
C294 C298 1.394 . S
C294 H310 0.930 . S
C295 C293 1.371 . S
C295 C296 1.392 . S
C295 H311 0.931 . S
C296 C295 1.392 . S
C296 C297 1.331 . S
C296 H314 0.932 . S
C297 C296 1.331 . S
C297 C298 1.336 . S
C298 C294 1.394 . S
C298 C297 1.336 . S
C298 H313 0.929 . S
C299 C289 1.386 . S
C299 C292 1.357 . S
C299 H312 0.928 . S
H300 C276 0.931 . S
H301 C278 0.930 . S
H302 C280 0.929 . S
H303 C281 0.931 . S
H304 C283 0.930 . S
H305 C287 0.931 . S
H306 C285 0.931 . S
H307 C289 0.931 . S
H308 C290 0.929 . S
H309 C291 0.930 . S
H310 C294 0.930 . S
H311 C295 0.931 . S
H312 C299 0.928 . S
H313 C298 0.929 . S
H314 C296 0.932 . S
C315 C316 1.386 1_554 S
C315 C317 1.397 . S
C315 H339 0.931 1_554 S
C316 C315 1.386 1_556 S
C316 C320 1.397 1_556 S
C317 C315 1.397 . S
C317 C318 1.384 . S
C317 H340 0.930 . S
C318 C317 1.384 . S
C318 C319 1.377 . S
C318 C321 1.481 . S
C319 C318 1.377 . S
C319 C320 1.389 . S
C319 H341 0.929 . S
C320 C316 1.397 1_554 S
C320 C319 1.389 . S
C320 H342 0.931 1_554 S
C321 C318 1.481 . S
C321 C322 1.387 . S
C321 C326 1.390 . S
C322 C321 1.387 . S
C322 C323 1.401 . S
C322 H343 0.930 . S
C323 C322 1.401 . S
C323 C324 1.376 . S
C323 C332 1.511 . S
C324 C323 1.376 . S
C324 C325 1.392 . S
C324 H345 0.931 . S
C325 C324 1.392 . S
C325 C326 1.361 . S
C325 C327 1.500 . S
C326 C321 1.390 . S
C326 C325 1.361 . S
C326 H344 0.931 . S
C327 C325 1.500 . S
C327 C328 1.371 . S
C327 C329 1.365 . S
C328 C327 1.371 . S
C328 C338 1.386 . S
C328 H346 0.931 . S
C329 C327 1.365 . S
C329 C330 1.409 . S
C329 H347 0.929 . S
C330 C329 1.409 . S
C330 C331 1.380 . S
C330 H348 0.930 . S
C331 C330 1.380 . S
C331 C338 1.357 . S
C332 C323 1.511 . S
C332 C333 1.341 . S
C332 C334 1.371 . S
C333 C332 1.341 . S
C333 C337 1.394 . S
C333 H349 0.930 . S
C334 C332 1.371 . S
C334 C335 1.392 . S
C334 H350 0.931 . S
C335 C334 1.392 . S
C335 C336 1.331 . S
C335 H353 0.932 . S
C336 C335 1.331 . S
C336 C337 1.336 . S
C337 C333 1.394 . S
C337 C336 1.336 . S
C337 H352 0.929 . S
C338 C328 1.386 . S
C338 C331 1.357 . S
C338 H351 0.928 . S
H339 C315 0.931 1_556 S
H340 C317 0.930 . S
H341 C319 0.929 . S
H342 C320 0.931 1_556 S
H343 C322 0.930 . S
H344 C326 0.931 . S
H345 C324 0.931 . S
H346 C328 0.931 . S
H347 C329 0.929 . S
H348 C330 0.930 . S
H349 C333 0.930 . S
H350 C334 0.931 . S
H351 C338 0.928 . S
H352 C337 0.929 . S
H353 C335 0.932 . S
H354 C360 0.930 . S
H355 C363 0.930 . S
H356 C364 0.930 . S
H357 C365 0.930 . S
H358 C368 0.930 . S
H359 C369 0.930 . S
C360 H354 0.930 . S
C360 C361 1.355 . S
C360 C362 1.415 . S
C361 C360 1.355 . S
C361 C363 1.419 . S
C362 C360 1.415 . S
C362 C367 1.425 . S
C362 C369 1.409 . S
C363 H355 0.930 . S
C363 C361 1.419 . S
C363 C364 1.362 . S
C364 H356 0.930 . S
C364 C363 1.362 . S
C364 C367 1.409 . S
C365 H357 0.930 . S
C365 C366 1.355 . S
C365 C367 1.415 . S
C366 C365 1.355 . S
C366 C368 1.419 . S
C367 C362 1.425 . S
C367 C364 1.409 . S
C367 C365 1.415 . S
C368 H358 0.930 . S
C368 C366 1.419 . S
C368 C369 1.362 . S
C369 H359 0.930 . S
C369 C362 1.409 . S
C369 C368 1.362 . S
H370 C376 0.930 . S
H371 C379 0.930 . S
H372 C380 0.930 . S
H373 C381 0.930 . S
H374 C384 0.930 . S
H375 C385 0.930 . S
C376 H370 0.930 . S
C376 C377 1.355 . S
C376 C378 1.415 . S
C377 C376 1.355 . S
C377 C379 1.419 . S
C378 C376 1.415 . S
C378 C383 1.425 . S
C378 C385 1.409 . S
C379 H371 0.930 . S
C379 C377 1.419 . S
C379 C380 1.362 . S
C380 H372 0.930 . S
C380 C379 1.362 . S
C380 C383 1.409 . S
C381 H373 0.930 . S
C381 C382 1.355 . S
C381 C383 1.415 . S
C382 C381 1.355 . S
C382 C384 1.419 . S
C383 C378 1.425 . S
C383 C380 1.409 . S
C383 C381 1.415 . S
C384 H374 0.930 . S
C384 C382 1.419 . S
C384 C385 1.362 . S
C385 H375 0.930 . S
C385 C378 1.409 . S
C385 C384 1.362 . S
H386 C392 0.930 . S
H387 C395 0.930 . S
H388 C396 0.930 . S
H389 C397 0.930 . S
H390 C400 0.930 . S
H391 C401 0.930 . S
C392 H386 0.930 . S
C392 C393 1.355 . S
C392 C394 1.415 . S
C393 C392 1.355 . S
C393 C395 1.419 . S
C394 C392 1.415 . S
C394 C399 1.425 . S
C394 C401 1.409 . S
C395 H387 0.930 . S
C395 C393 1.419 . S
C395 C396 1.362 . S
C396 H388 0.930 . S
C396 C395 1.362 . S
C396 C399 1.409 . S
C397 H389 0.930 . S
C397 C398 1.355 . S
C397 C399 1.415 . S
C398 C397 1.355 . S
C398 C400 1.419 . S
C399 C394 1.425 . S
C399 C396 1.409 . S
C399 C397 1.415 . S
C400 H390 0.930 . S
C400 C398 1.419 . S
C400 C401 1.362 . S
C401 H391 0.930 . S
C401 C394 1.409 . S
C401 C400 1.362 . S
H402 C408 0.930 . S
H403 C411 0.930 . S
H404 C412 0.930 . S
H405 C413 0.930 . S
H406 C416 0.930 . S
H407 C417 0.930 . S
C408 H402 0.930 . S
C408 C409 1.355 . S
C408 C410 1.415 . S
C409 C408 1.355 . S
C409 C411 1.419 . S
C410 C408 1.415 . S
C410 C415 1.425 . S
C410 C417 1.409 . S
C411 H403 0.930 . S
C411 C409 1.419 . S
C411 C412 1.362 . S
C412 H404 0.930 . S
C412 C411 1.362 . S
C412 C415 1.409 . S
C413 H405 0.930 . S
C413 C414 1.355 . S
C413 C415 1.415 . S
C414 C413 1.355 . S
C414 C416 1.419 . S
C415 C410 1.425 . S
C415 C412 1.409 . S
C415 C413 1.415 . S
C416 H406 0.930 . S
C416 C414 1.419 . S
C416 C417 1.362 . S
C417 H407 0.930 . S
C417 C410 1.409 . S
C417 C416 1.362 . S
H418 C424 0.930 . S
H419 C427 0.930 . S
H420 C428 0.930 . S
H421 C429 0.930 . S
H422 C432 0.930 . S
H423 C433 0.930 . S
C424 H418 0.930 . S
C424 C425 1.355 . S
C424 C426 1.415 . S
C425 C424 1.355 . S
C425 C427 1.419 . S
C426 C424 1.415 . S
C426 C431 1.425 . S
C426 C433 1.409 . S
C427 H419 0.930 . S
C427 C425 1.419 . S
C427 C428 1.362 . S
C428 H420 0.930 . S
C428 C427 1.362 . S
C428 C431 1.409 . S
C429 H421 0.930 . S
C429 C430 1.355 . S
C429 C431 1.415 . S
C430 C429 1.355 . S
C430 C432 1.419 . S
C431 C426 1.425 . S
C431 C428 1.409 . S
C431 C429 1.415 . S
C432 H422 0.930 . S
C432 C430 1.419 . S
C432 C433 1.362 . S
C433 H423 0.930 . S
C433 C426 1.409 . S
C433 C432 1.362 . S
H434 C440 0.930 . S
H435 C443 0.930 . S
H436 C444 0.930 . S
H437 C445 0.930 . S
H438 C448 0.930 . S
H439 C449 0.930 . S
C440 H434 0.930 . S
C440 C441 1.355 . S
C440 C442 1.415 . S
C441 C440 1.355 . S
C441 C443 1.419 . S
C442 C440 1.415 . S
C442 C447 1.425 . S
C442 C449 1.409 . S
C443 H435 0.930 . S
C443 C441 1.419 . S
C443 C444 1.362 . S
C444 H436 0.930 . S
C444 C443 1.362 . S
C444 C447 1.409 . S
C445 H437 0.930 . S
C445 C446 1.355 . S
C445 C447 1.415 . S
C446 C445 1.355 . S
C446 C448 1.419 . S
C447 C442 1.425 . S
C447 C444 1.409 . S
C447 C445 1.415 . S
C448 H438 0.930 . S
C448 C446 1.419 . S
C448 C449 1.362 . S
C449 H439 0.930 . S
C449 C442 1.409 . S
C449 C448 1.362 . S
H450 C456 0.930 . S
H451 C459 0.930 . S
H452 C460 0.930 . S
H453 C461 0.930 . S
H454 C464 0.930 . S
H455 C465 0.930 . S
C456 H450 0.930 . S
C456 C457 1.355 . S
C456 C458 1.415 . S
C457 C456 1.355 . S
C457 C459 1.419 . S
C458 C456 1.415 . S
C458 C463 1.425 . S
C458 C465 1.409 . S
C459 H451 0.930 . S
C459 C457 1.419 . S
C459 C460 1.362 . S
C460 H452 0.930 . S
C460 C459 1.362 . S
C460 C463 1.409 . S
C461 H453 0.930 . S
C461 C462 1.355 . S
C461 C463 1.415 . S
C462 C461 1.355 . S
C462 C464 1.419 . S
C463 C458 1.425 . S
C463 C460 1.409 . S
C463 C461 1.415 . S
C464 H454 0.930 . S
C464 C462 1.419 . S
C464 C465 1.362 . S
C465 H455 0.930 . S
C465 C458 1.409 . S
C465 C464 1.362 . S
H466 C472 0.930 . S
H467 C475 0.930 . S
H468 C476 0.930 . S
H469 C477 0.930 . S
H470 C480 0.930 . S
H471 C481 0.930 . S
C472 H466 0.930 . S
C472 C473 1.355 . S
C472 C474 1.415 . S
C473 C472 1.355 . S
C473 C475 1.419 . S
C474 C472 1.415 . S
C474 C479 1.425 . S
C474 C481 1.409 . S
C475 H467 0.930 . S
C475 C473 1.419 . S
C475 C476 1.362 . S
C476 H468 0.930 . S
C476 C475 1.362 . S
C476 C479 1.409 . S
C477 H469 0.930 . S
C477 C478 1.355 . S
C477 C479 1.415 . S
C478 C477 1.355 . S
C478 C480 1.419 . S
C479 C474 1.425 . S
C479 C476 1.409 . S
C479 C477 1.415 . S
C480 H470 0.930 . S
C480 C478 1.419 . S
C480 C481 1.362 . S
C481 H471 0.930 . S
C481 C474 1.409 . S
C481 C480 1.362 . S
H482 C488 0.930 . S
H483 C491 0.930 . S
H484 C492 0.930 . S
H485 C493 0.930 . S
H486 C496 0.930 . S
H487 C497 0.930 . S
C488 H482 0.930 . S
C488 C489 1.355 . S
C488 C490 1.415 . S
C489 C488 1.355 . S
C489 C491 1.419 . S
C490 C488 1.415 . S
C490 C495 1.425 . S
C490 C497 1.409 . S
C491 H483 0.930 . S
C491 C489 1.419 . S
C491 C492 1.362 . S
C492 H484 0.930 . S
C492 C491 1.362 . S
C492 C495 1.409 . S
C493 H485 0.930 . S
C493 C494 1.355 . S
C493 C495 1.415 . S
C494 C493 1.355 . S
C494 C496 1.419 . S
C495 C490 1.425 . S
C495 C492 1.409 . S
C495 C493 1.415 . S
C496 H486 0.930 . S
C496 C494 1.419 . S
C496 C497 1.362 . S
C497 H487 0.930 . S
C497 C490 1.409 . S
C497 C496 1.362 . S
H498 C504 0.930 . S
H499 C507 0.930 . S
H500 C508 0.930 . S
H501 C509 0.930 . S
H502 C512 0.930 . S
H503 C513 0.930 . S
C504 H498 0.930 . S
C504 C505 1.355 . S
C504 C506 1.415 . S
C505 C504 1.355 . S
C505 C507 1.419 . S
C506 C504 1.415 . S
C506 C511 1.425 . S
C506 C513 1.409 . S
C507 H499 0.930 . S
C507 C505 1.419 . S
C507 C508 1.362 . S
C508 H500 0.930 . S
C508 C507 1.362 . S
C508 C511 1.409 . S
C509 H501 0.930 . S
C509 C510 1.355 . S
C509 C511 1.415 . S
C510 C509 1.355 . S
C510 C512 1.419 . S
C511 C506 1.425 . S
C511 C508 1.409 . S
C511 C509 1.415 . S
C512 H502 0.930 . S
C512 C510 1.419 . S
C512 C513 1.362 . S
C513 H503 0.930 . S
C513 C506 1.409 . S
C513 C512 1.362 . S
H514 C520 0.930 . S
H515 C523 0.930 . S
H516 C524 0.930 . S
H517 C525 0.930 . S
H518 C528 0.930 . S
H519 C529 0.930 . S
C520 H514 0.930 . S
C520 C521 1.355 . S
C520 C522 1.415 . S
C521 C520 1.355 . S
C521 C523 1.419 . S
C522 C520 1.415 . S
C522 C527 1.425 . S
C522 C529 1.409 . S
C523 H515 0.930 . S
C523 C521 1.419 . S
C523 C524 1.362 . S
C524 H516 0.930 . S
C524 C523 1.362 . S
C524 C527 1.409 . S
C525 H517 0.930 . S
C525 C526 1.355 . S
C525 C527 1.415 . S
C526 C525 1.355 . S
C526 C528 1.419 . S
C527 C522 1.425 . S
C527 C524 1.409 . S
C527 C525 1.415 . S
C528 H518 0.930 . S
C528 C526 1.419 . S
C528 C529 1.362 . S
C529 H519 0.930 . S
C529 C522 1.409 . S
C529 C528 1.362 . S
H530 C536 0.930 . S
H531 C539 0.930 . S
H532 C540 0.930 . S
H533 C541 0.930 . S
H534 C544 0.930 . S
H535 C545 0.930 . S
C536 H530 0.930 . S
C536 C537 1.355 . S
C536 C538 1.415 . S
C537 C536 1.355 . S
C537 C539 1.419 . S
C538 C536 1.415 . S
C538 C543 1.425 . S
C538 C545 1.409 . S
C539 H531 0.930 . S
C539 C537 1.419 . S
C539 C540 1.362 . S
C540 H532 0.930 . S
C540 C539 1.362 . S
C540 C543 1.409 . S
C541 H533 0.930 . S
C541 C542 1.355 . S
C541 C543 1.415 . S
C542 C541 1.355 . S
C542 C544 1.419 . S
C543 C538 1.425 . S
C543 C540 1.409 . S
C543 C541 1.415 . S
C544 H534 0.930 . S
C544 C542 1.419 . S
C544 C545 1.362 . S
C545 H535 0.930 . S
C545 C538 1.409 . S
C545 C544 1.362 . S
H546 C552 0.930 . S
H547 C555 0.930 . S
H548 C556 0.930 . S
H549 C557 0.929 . S
H550 C560 0.930 . S
H551 C561 0.930 . S
C552 H546 0.930 . S
C552 C553 1.355 . S
C552 C554 1.415 . S
C553 C552 1.355 . S
C553 C555 1.419 1_455 S
C554 C552 1.415 . S
C554 C559 1.425 . S
C554 C561 1.409 . S
C555 H547 0.930 . S
C555 C553 1.419 1_655 S
C555 C556 1.362 . S
C556 H548 0.930 . S
C556 C555 1.362 . S
C556 C559 1.409 1_655 S
C557 H549 0.929 . S
C557 C558 1.355 . S
C557 C559 1.415 . S
C558 C557 1.355 . S
C558 C560 1.419 . S
C559 C554 1.425 . S
C559 C556 1.409 1_455 S
C559 C557 1.415 . S
C560 H550 0.930 . S
C560 C558 1.419 . S
C560 C561 1.362 . S
C561 H551 0.930 . S
C561 C554 1.409 . S
C561 C560 1.362 . S
H562 C568 0.930 . S
H563 C571 0.930 . S
H564 C572 0.930 . S
H565 C573 0.930 . S
H566 C576 0.930 . S
H567 C577 0.930 . S
C568 H562 0.930 . S
C568 C569 1.355 . S
C568 C570 1.415 . S
C569 C568 1.355 . S
C569 C571 1.419 1_545 S
C570 C568 1.415 . S
C570 C575 1.425 1_545 S
C570 C577 1.409 . S
C571 H563 0.930 . S
C571 C569 1.419 1_565 S
C571 C572 1.362 . S
C572 H564 0.930 . S
C572 C571 1.362 . S
C572 C575 1.409 . S
C573 H565 0.930 . S
C573 C574 1.355 1_565 S
C573 C575 1.415 . S
C574 C573 1.355 1_545 S
C574 C576 1.419 . S
C575 C570 1.425 1_565 S
C575 C572 1.409 . S
C575 C573 1.415 . S
C576 H566 0.930 . S
C576 C574 1.419 . S
C576 C577 1.362 . S
C577 H567 0.930 . S
C577 C570 1.409 . S
C577 C576 1.362 . S
H578 C584 0.930 . S
H579 C587 0.930 . S
H580 C588 0.930 . S
H581 C589 0.930 . S
H582 C592 0.930 . S
H583 C593 0.930 . S
C584 H578 0.930 . S
C584 C585 1.355 . S
C584 C586 1.415 . S
C585 C584 1.355 . S
C585 C587 1.419 . S
C586 C584 1.415 . S
C586 C591 1.425 . S
C586 C593 1.409 . S
C587 H579 0.930 . S
C587 C585 1.419 . S
C587 C588 1.362 . S
C588 H580 0.930 . S
C588 C587 1.362 . S
C588 C591 1.409 . S
C589 H581 0.930 . S
C589 C590 1.355 . S
C589 C591 1.415 . S
C590 C589 1.355 . S
C590 C592 1.419 . S
C591 C586 1.425 . S
C591 C588 1.409 . S
C591 C589 1.415 . S
C592 H582 0.930 . S
C592 C590 1.419 . S
C592 C593 1.362 . S
C593 H583 0.930 . S
C593 C586 1.409 . S
C593 C592 1.362 . S
H594 C600 0.930 . S
H595 C603 0.930 . S
H596 C604 0.930 . S
H597 C605 0.930 . S
H598 C608 0.930 . S
H599 C609 0.930 . S
C600 H594 0.930 . S
C600 C601 1.355 . S
C600 C602 1.415 . S
C601 C600 1.355 . S
C601 C603 1.419 1_545 S
C602 C600 1.415 . S
C602 C607 1.425 1_545 S
C602 C609 1.409 . S
C603 H595 0.930 . S
C603 C601 1.419 1_565 S
C603 C604 1.362 . S
C604 H596 0.930 . S
C604 C603 1.362 . S
C604 C607 1.409 . S
C605 H597 0.930 . S
C605 C606 1.371 . S
C605 C607 1.415 . S
C606 C605 1.371 . S
C606 C608 1.396 1_565 S
C607 C602 1.425 1_565 S
C607 C604 1.409 . S
C607 C605 1.415 . S
C608 H598 0.930 . S
C608 C606 1.396 1_545 S
C608 C609 1.362 . S
C609 H599 0.930 . S
C609 C602 1.409 . S
C609 C608 1.362 . S
H610 C616 0.930 . S
H611 C619 0.930 . S
H612 C620 0.930 . S
H613 C621 0.930 . S
H614 C624 0.930 . S
H615 C625 0.930 . S
C616 H610 0.930 . S
C616 C617 1.355 . S
C616 C618 1.415 . S
C617 C616 1.355 . S
C617 C619 1.419 . S
C618 C616 1.415 . S
C618 C623 1.425 . S
C618 C625 1.409 . S
C619 H611 0.930 . S
C619 C617 1.419 . S
C619 C620 1.362 . S
C620 H612 0.930 . S
C620 C619 1.362 . S
C620 C623 1.409 . S
C621 H613 0.930 . S
C621 C622 1.355 . S
C621 C623 1.415 . S
C622 C621 1.355 . S
C622 C624 1.419 . S
C623 C618 1.425 . S
C623 C620 1.409 . S
C623 C621 1.415 . S
C624 H614 0.930 . S
C624 C622 1.419 . S
C624 C625 1.362 . S
C625 H615 0.930 . S
C625 C618 1.409 . S
C625 C624 1.362 . S
H626 C632 0.930 . S
H627 C635 0.930 . S
H628 C636 0.930 . S
H629 C637 0.930 . S
H630 C640 0.930 . S
H631 C641 0.930 . S
C632 H626 0.930 . S
C632 C633 1.355 1_655 S
C632 C634 1.415 . S
C633 C632 1.355 1_455 S
C633 C635 1.419 . S
C634 C632 1.415 . S
C634 C639 1.425 1_655 S
C634 C641 1.409 . S
C635 H627 0.930 . S
C635 C633 1.419 . S
C635 C636 1.362 . S
C636 H628 0.930 . S
C636 C635 1.362 . S
C636 C639 1.409 . S
C637 H629 0.930 . S
C637 C638 1.355 . S
C637 C639 1.415 . S
C638 C637 1.355 . S
C638 C640 1.419 1_455 S
C639 C634 1.425 1_455 S
C639 C636 1.409 . S
C639 C637 1.415 . S
C640 H630 0.930 . S
C640 C638 1.419 1_655 S
C640 C641 1.362 . S
C641 H631 0.930 . S
C641 C634 1.409 . S
C641 C640 1.362 . S
C361 C6 0.813 . S
C366 C331 0.764 . S
C377 C59 1.974 . S
C382 C258 1.924 . S
C393 C86 1.284 . S
C398 C297 1.276 . S
C409 C15 0.383 . S
C414 C336 0.400 . S
C430 C253 1.993 . S
C425 C50 2.066 . S
C446 C292 1.337 . S
C441 C95 1.300 . S
C457 C46 1.227 . S
C462 C180 1.249 . S
C473 C99 3.151 . S
C478 C214 3.102 . S
C489 C10 2.090 . S
C494 C136 2.030 . S
C510 C175 1.328 . S
C505 C55 1.284 . S
C526 C219 3.001 . S
C521 C90 3.047 . S
C537 C19 1.962 . S
C542 C141 1.913 . S
C558 C199 1.774 1_554 S
C553 C18 1.710 . S
C569 C49 1.331 . S
C574 C121 1.374 . S
C585 C98 1.414 . S
C590 C160 1.504 . S
C606 C277 1.485 . S
C601 C58 1.469 . S
C622 C316 1.071 . S
C617 C89 1.084 . S
C633 C9 1.351 . S
C638 C238 1.357 1_455 S
