# Generated by pormake.
# Topology rtl, (3,6)-cn, num edge types: 1
# Building blocks:
#     Node 0, Type 0, BuildingBlock: QEWDON_clean_linker_0, # of connection points: 3
#     Node 1, Type 0, BuildingBlock: QEWDON_clean_linker_0, # of connection points: 3
#     Node 2, Type 0, BuildingBlock: QEWDON_clean_linker_0, # of connection points: 3
#     Node 3, Type 0, BuildingBlock: QEWDON_clean_linker_0, # of connection points: 3
#     Node 4, Type 1, BuildingBlock: LEVNOQ01_clean_sbu_1, # of connection points: 6
#     Node 5, Type 1, BuildingBlock: LEVNOQ01_clean_sbu_1, # of connection points: 6
#     Edge 6, Type (0, 1), BuildingBlock: ZUJKAS_clean_linker_0, # of connection points: 2
#     Edge 7, Type (0, 1), BuildingBlock: ZUJKAS_clean_linker_0, # of connection points: 2
#     Edge 8, Type (0, 1), BuildingBlock: ZUJKAS_clean_linker_0, # of connection points: 2
#     Edge 9, Type (0, 1), BuildingBlock: ZUJKAS_clean_linker_0, # of connection points: 2
#     Edge 10, Type (0, 1), BuildingBlock: ZUJKAS_clean_linker_0, # of connection points: 2
#     Edge 11, Type (0, 1), BuildingBlock: ZUJKAS_clean_linker_0, # of connection points: 2
#     Edge 12, Type (0, 1), BuildingBlock: ZUJKAS_clean_linker_0, # of connection points: 2
#     Edge 13, Type (0, 1), BuildingBlock: ZUJKAS_clean_linker_0, # of connection points: 2
#     Edge 14, Type (0, 1), BuildingBlock: ZUJKAS_clean_linker_0, # of connection points: 2
#     Edge 15, Type (0, 1), BuildingBlock: ZUJKAS_clean_linker_0, # of connection points: 2
#     Edge 16, Type (0, 1), BuildingBlock: ZUJKAS_clean_linker_0, # of connection points: 2
#     Edge 17, Type (0, 1), BuildingBlock: ZUJKAS_clean_linker_0, # of connection points: 2
# Relax obj value: 0.039
# Max RMSD: 0.180
# Mean RMSD: 0.140
data_MOF--net-rtl--node1-LEVNOQ01_clean_sbu_1--node2-QEWDON_clean_linker_0--edge1-ZUJKAS_clean_linker_0
_symmetry_space_group_name_H-M    P1
_symmetry_Int_Tables_number       1
_symmetry_cell_setting            triclinic
loop_
_symmetry_equiv_pos_as_xyz
'x, y, z'
_cell_length_a     48.027116
_cell_length_b     47.860728
_cell_length_c     28.363528
_cell_angle_alpha  91.525389
_cell_angle_beta   99.891506
_cell_angle_gamma 89.963826
loop_
_atom_site_label
_atom_site_type_symbol
_atom_site_fract_x
_atom_site_fract_y
_atom_site_fract_z
_atom_type_partial_charge
H0 H 0.23709 0.85184 0.15061 0.0
C1 C 0.22319 0.85489 0.11677 0.0
C2 C 0.19553 0.86465 0.11625 0.0
C3 C 0.23341 0.85023 0.07376 0.0
H4 H 0.15658 0.87638 0.07166 0.0
C5 C 0.17788 0.86882 0.07204 0.0
C6 C 0.18784 0.86466 0.02855 0.0
C7 C 0.21573 0.85527 0.02994 0.0
C8 C 0.26339 0.84274 0.07446 0.0
H9 H 0.22416 0.85274 0.99702 0.0
C10 C 0.275 0.81828 0.09638 0.0
C11 C 0.30343 0.81109 0.09545 0.0
C12 C 0.28047 0.86022 0.05239 0.0
H13 H 0.27199 0.87919 0.03557 0.0
C14 C 0.30866 0.85349 0.05206 0.0
H15 H 0.26181 0.80477 0.11337 0.0
C16 C 0.32006 0.82911 0.07315 0.0
H17 H 0.34176 0.82402 0.07078 0.0
H18 H 0.32164 0.86706 0.03483 0.0
H19 H 0.7307 0.71037 0.54381 0.0
C20 C 0.72006 0.70365 0.57231 0.0
C21 C 0.69325 0.69079 0.56119 0.0
C22 C 0.73409 0.70569 0.62015 0.0
H23 H 0.65949 0.67166 0.59043 0.0
C24 C 0.68032 0.68114 0.59862 0.0
C25 C 0.69409 0.68303 0.64636 0.0
C26 C 0.72086 0.69556 0.65684 0.0
C27 C 0.764 0.71471 0.6322 0.0
H28 H 0.73205 0.69637 0.69348 0.0
C29 C 0.77239 0.74239 0.62592 0.0
C30 C 0.80051 0.75091 0.64304 0.0
C31 C 0.78411 0.69553 0.65374 0.0
H32 H 0.77808 0.67415 0.65879 0.0
C33 C 0.81204 0.70379 0.6695 0.0
H34 H 0.75697 0.75741 0.60983 0.0
C35 C 0.82017 0.73134 0.66462 0.0
H36 H 0.84193 0.7374 0.67758 0.0
H37 H 0.82735 0.68886 0.68613 0.0
H38 H 0.79405 0.20731 0.04729 0.0
C39 C 0.80381 0.20276 0.01622 0.0
C40 C 0.83173 0.19276 0.02219 0.0
C41 C 0.78758 0.20453 0.97019 0.0
H42 H 0.86486 0.17766 0.98572 0.0
C43 C 0.8435 0.18571 0.98135 0.0
C44 C 0.82746 0.18723 0.93514 0.0
C45 C 0.79946 0.19672 0.92994 0.0
C46 C 0.75693 0.20995 0.96423 0.0
H47 H 0.78657 0.19736 0.89463 0.0
C48 C 0.74625 0.23717 0.96799 0.0
C49 C 0.7168 0.24161 0.96163 0.0
C50 C 0.73815 0.18731 0.95385 0.0
H51 H 0.74607 0.16626 0.95063 0.0
C52 C 0.70907 0.1916 0.9477 0.0
H53 H 0.76074 0.25469 0.97594 0.0
C54 C 0.69842 0.21852 0.95159 0.0
H55 H 0.67572 0.22133 0.94605 0.0
H56 H 0.69472 0.17402 0.93971 0.0
H57 H 0.3371 0.3005 0.55803 0.0
C58 C 0.33885 0.31556 0.5308 0.0
C59 C 0.34819 0.34297 0.54425 0.0
C60 C 0.33286 0.30725 0.48221 0.0
H61 H 0.35869 0.38301 0.5186 0.0
C62 C 0.35106 0.36203 0.50843 0.0
C63 C 0.34543 0.3539 0.45973 0.0
C64 C 0.33615 0.32648 0.44704 0.0
C65 C 0.32645 0.27771 0.46775 0.0
H66 H 0.33262 0.3196 0.40975 0.0
C67 C 0.301 0.26493 0.47417 0.0
C68 C 0.2949 0.23707 0.45798 0.0
C69 C 0.3458 0.26251 0.44548 0.0
H70 H 0.36544 0.27204 0.44011 0.0
C71 C 0.34001 0.23494 0.4299 0.0
H72 H 0.28602 0.27668 0.49127 0.0
C73 C 0.31476 0.22231 0.43592 0.0
H74 H 0.31056 0.20106 0.42245 0.0
H75 H 0.35504 0.2234 0.41265 0.0
O76 O 0.01395 0.05874 0.63049 0.0
Mg77 Mg 0.04412 0.04812 0.58742 0.0
O78 O 0.98082 0.0473 0.56991 0.0
Mg79 Mg 1.00729 0.02417 0.51844 0.0
O80 O 0.04141 0.06123 0.51838 0.0
O81 O 0.06676 0.08269 0.5836 0.0
O82 O 0.03406 1.00051 0.46709 0.0
O83 O 0.98181 0.05218 0.45745 0.0
Mg84 Mg 0.97026 0.99043 0.44331 0.0
O85 O 0.97309 0.98856 0.51615 0.0
O86 O 1.00485 0.97382 0.41661 0.0
O87 O 0.9503 0.02551 0.41148 0.0
O88 O 0.94411 0.96165 0.46277 0.0
C89 C 0.05616 0.99372 0.60402 0.0
C90 C 0.9881 0.0577 0.61205 0.0
C91 C 0.05922 0.08062 0.53784 0.0
C92 C 0.02966 0.98231 0.43276 0.0
C93 C 0.96094 0.04938 0.42291 0.0
C94 C 0.95382 0.96906 0.50657 0.0
O95 O 0.0715 0.0152 0.60707 0.0
O96 O 0.03123 0.99449 0.57954 0.0
O97 O 0.56665 0.52804 0.15972 0.0
Mg98 Mg 0.54714 0.49327 0.1223 0.0
O99 O 0.53622 0.5552 0.11554 0.0
Mg100 Mg 0.5098 0.52692 0.05321 0.0
O101 O 0.54512 0.49275 0.04925 0.0
O102 O 0.57464 0.46641 0.1002 0.0
O103 O 0.48358 0.49893 0.99032 0.0
O104 O 0.53463 0.5514 1.00179 0.0
Mg105 Mg 0.47174 0.56127 0.98447 0.0
O106 O 0.47452 0.56085 0.05742 0.0
O107 O 0.45342 0.52623 0.94585 0.0
O108 O 0.50533 0.58115 0.9611 0.0
O109 O 0.44401 0.58725 0.00839 0.0
C110 C 0.48923 0.48354 0.13542 0.0
C111 C 0.55682 0.5521 0.15012 0.0
C112 C 0.56502 0.474 0.0572 0.0
C113 C 0.46339 0.50217 0.9551 0.0
C114 C 0.52994 0.57136 0.97242 0.0
C115 C 0.45447 0.57947 0.05095 0.0
O116 O 0.51388 0.47408 0.14791 0.0
O117 O 0.48471 0.50268 0.10448 0.0
H118 H 0.28723 0.1838 0.48557 0.0
H119 H 0.24273 0.15965 0.48776 0.0
H120 H 0.19663 0.2347 0.44461 0.0
H121 H 0.24125 0.25891 0.44105 0.0
H122 H 0.20248 0.17264 0.54287 0.0
H123 H 0.15649 0.17504 0.3494 0.0
H124 H 0.19336 0.18227 0.37188 0.0
H125 H 0.16716 0.20842 0.37716 0.0
C126 C 0.26763 0.19516 0.47617 0.0
C127 C 0.2678 0.22324 0.46278 0.0
C128 C 0.2422 0.18133 0.47755 0.0
C129 C 0.21631 0.19518 0.46544 0.0
C130 C 0.21633 0.22341 0.45308 0.0
H131 H 0.0632 0.13656 0.54977 0.0
H132 H 0.09865 0.1664 0.52376 0.0
C133 C 0.24186 0.23734 0.45174 0.0
C134 C 0.18956 0.18014 0.46784 0.0
H135 H 0.1273 0.1568 0.40105 0.0
C136 C 0.18606 0.16922 0.51185 0.0
C137 C 0.16828 0.17541 0.42718 0.0
C138 C 0.17148 0.18566 0.37857 0.0
C139 C 0.16187 0.15388 0.51648 0.0
C140 C 0.14028 0.14966 0.47616 0.0
C141 C 0.14378 0.1603 0.43193 0.0
C142 C 0.11415 0.13411 0.48032 0.0
C143 C 0.15975 0.14196 0.56451 0.0
C144 C 0.10979 0.10665 0.46166 0.0
C145 C 0.08909 0.08962 0.47589 0.0
C146 C 0.0728 0.09995 0.50911 0.0
C147 C 0.07543 0.1282 0.52393 0.0
C148 C 0.09577 0.14521 0.50933 0.0
H149 H 0.18053 0.14187 0.5888 0.0
H150 H 0.14498 0.15486 0.58191 0.0
H151 H 0.15136 0.12025 0.56022 0.0
H152 H 0.12382 0.09773 0.43923 0.0
H153 H 0.08773 0.06778 0.46462 0.0
H154 H 0.27792 0.75947 0.08853 0.0
H155 H 0.3004 0.71441 0.10779 0.0
H156 H 0.3794 0.75638 0.16135 0.0
H157 H 0.35676 0.80144 0.14465 0.0
H158 H 0.34054 0.69564 0.06372 0.0
H159 H 0.38301 0.69631 0.25728 0.0
H160 H 0.35697 0.72122 0.23114 0.0
H161 H 0.39397 0.7269 0.23018 0.0
C162 C 0.2998 0.7592 0.10608 0.0
C163 C 0.31558 0.78413 0.11454 0.0
C164 C 0.31269 0.73336 0.11686 0.0
C165 C 0.3416 0.73188 0.1364 0.0
C166 C 0.35697 0.75683 0.14731 0.0
H167 H 0.47571 0.62501 0.10302 0.0
H168 H 0.44652 0.6594 0.13729 0.0
C169 C 0.34406 0.78265 0.13692 0.0
C170 C 0.35661 0.70459 0.13821 0.0
H171 H 0.40616 0.66488 0.20744 0.0
C172 C 0.35434 0.6886 0.09551 0.0
C173 C 0.37487 0.69545 0.17955 0.0
C174 C 0.37712 0.71077 0.22721 0.0
C175 C 0.37076 0.66465 0.09224 0.0
C176 C 0.38978 0.65605 0.13306 0.0
C177 C 0.39151 0.67145 0.17628 0.0
C178 C 0.40962 0.63266 0.12925 0.0
C179 C 0.36869 0.64954 0.04428 0.0
C180 C 0.39923 0.60555 0.11691 0.0
C181 C 0.41592 0.58592 0.09735 0.0
C182 C 0.44329 0.59305 0.09071 0.0
C183 C 0.45487 0.61887 0.10879 0.0
C184 C 0.43811 0.63859 0.12805 0.0
H185 H 0.35666 0.66167 0.01468 0.0
H186 H 0.39007 0.64522 0.03595 0.0
H187 H 0.35772 0.62924 0.0454 0.0
H188 H 0.37734 0.60052 0.11783 0.0
H189 H 0.4064 0.56633 0.08275 0.0
H190 H 0.82406 0.78584 0.71593 0.0
H191 H 0.84693 0.831 0.71005 0.0
H192 H 0.82331 0.82571 0.5562 0.0
H193 H 0.79943 0.78103 0.56239 0.0
H194 H 0.89115 0.83856 0.67181 0.0
H195 H 0.80784 0.9063 0.57793 0.0
H196 H 0.79979 0.8737 0.60332 0.0
H197 H 0.80939 0.87419 0.5446 0.0
C198 C 0.82312 0.79479 0.681 0.0
C199 C 0.80995 0.78012 0.63959 0.0
C200 C 0.83624 0.82053 0.67764 0.0
C201 C 0.8367 0.83203 0.63273 0.0
C202 C 0.82263 0.81779 0.59138 0.0
H203 H 0.96218 0.91461 0.52233 0.0
H204 H 0.93505 0.8846 0.56585 0.0
C205 C 0.80909 0.79218 0.59483 0.0
C206 C 0.85465 0.85696 0.6288 0.0
H207 H 0.85609 0.91836 0.57063 0.0
C208 C 0.88325 0.85627 0.65048 0.0
C209 C 0.84446 0.88049 0.60194 0.0
C210 C 0.81361 0.88386 0.58113 0.0
C211 C 0.90223 0.87739 0.64332 0.0
C212 C 0.89259 0.89948 0.61265 0.0
C213 C 0.86363 0.90127 0.59373 0.0
C214 C 0.91253 0.91851 0.59444 0.0
C215 C 0.93262 0.87542 0.66778 0.0
C216 C 0.90933 0.94774 0.59651 0.0
C217 C 0.92513 0.96503 0.57167 0.0
C218 C 0.944 0.95318 0.54419 0.0
C219 C 0.94819 0.92419 0.54423 0.0
C220 C 0.93267 0.90704 0.56913 0.0
H221 H 0.93425 0.86472 0.70243 0.0
H222 H 0.94466 0.86286 0.64473 0.0
H223 H 0.94264 0.89638 0.67447 0.0
H224 H 0.89371 0.95702 0.61542 0.0
H225 H 0.92109 0.9873 0.57107 0.0
H226 H 0.73052 0.28931 0.91897 0.0
H227 H 0.70765 0.33533 0.92019 0.0
H228 H 0.65296 0.30373 0.01226 0.0
H229 H 0.67556 0.25795 0.01123 0.0
H230 H 0.64145 0.3444 0.89509 0.0
H231 H 0.69466 0.3788 0.07713 0.0
H232 H 0.71008 0.3535 0.04082 0.0
H233 H 0.68184 0.34333 0.07082 0.0
C234 C 0.71384 0.29234 0.93988 0.0
C235 C 0.70479 0.27006 0.96499 0.0
C236 C 0.70068 0.3185 0.94021 0.0
C237 C 0.67861 0.3228 0.96621 0.0
C238 C 0.66994 0.30077 0.99196 0.0
H239 H 0.5443 0.42968 1.00086 0.0
H240 H 0.5736 0.39588 0.96561 0.0
C241 C 0.68284 0.27465 0.99129 0.0
C242 C 0.66432 0.35019 0.96692 0.0
H243 H 0.65412 0.40414 0.04284 0.0
C244 C 0.64448 0.3578 0.92701 0.0
C245 C 0.6685 0.36762 0.00846 0.0
C246 C 0.69006 0.36063 0.05176 0.0
C247 C 0.62773 0.38185 0.92852 0.0
C248 C 0.63084 0.39847 0.97111 0.0
C249 C 0.6517 0.39147 0.01009 0.0
C250 C 0.61131 0.42171 0.97835 0.0
C251 C 0.60659 0.389 0.88485 0.0
C252 C 0.62231 0.44799 0.99531 0.0
C253 C 0.60553 0.46725 0.01544 0.0
C254 C 0.57747 0.46062 0.01863 0.0
C255 C 0.56564 0.43556 0.99746 0.0
C256 C 0.58247 0.41618 0.97749 0.0
H257 H 0.61295 0.38024 0.85164 0.0
H258 H 0.58576 0.37984 0.88782 0.0
H259 H 0.60407 0.41198 0.88163 0.0
H260 H 0.6445 0.45266 0.99661 0.0
H261 H 0.61526 0.48616 0.03265 0.0
H262 H 0.14453 0.85338 0.14226 0.0
H263 H 0.12578 0.87331 0.21071 0.0
H264 H 0.20523 0.91521 0.26061 0.0
H265 H 0.224 0.89575 0.19165 0.0
H266 H 0.14612 0.87165 0.31336 0.0
H267 H 0.14553 0.97891 0.24117 0.0
H268 H 0.14913 0.94808 0.20467 0.0
H269 H 0.17833 0.96004 0.24874 0.0
C270 C 0.15808 0.86664 0.16804 0.0
C271 C 0.18566 0.87316 0.16138 0.0
C272 C 0.1474 0.87792 0.2072 0.0
C273 C 0.16399 0.89604 0.24029 0.0
C274 C 0.19198 0.90154 0.23512 0.0
H275 H 0.08576 0.99872 0.44705 0.0
H276 H 0.12368 0.97813 0.40895 0.0
C277 C 0.20275 0.89017 0.19598 0.0
C278 C 0.15116 0.91023 0.27838 0.0
H279 H 0.12425 0.973 0.30869 0.0
C280 C 0.14175 0.89389 0.31288 0.0
C281 C 0.14569 0.9393 0.27789 0.0
C282 C 0.155 0.95772 0.24107 0.0
C283 C 0.12591 0.90564 0.3456 0.0
C284 C 0.11885 0.93433 0.34308 0.0
C285 C 0.12972 0.95102 0.31053 0.0
C286 C 0.09693 0.94631 0.36858 0.0
C287 C 0.11614 0.88702 0.38168 0.0
C288 C 0.0694 0.93554 0.35792 0.0
C289 C 0.04789 0.94724 0.37911 0.0
C290 C 0.05328 0.97017 0.41152 0.0
C291 C 0.08094 0.98102 0.4224 0.0
C292 C 0.10259 0.96929 0.40073 0.0
H293 H 0.13069 0.86909 0.39011 0.0
H294 H 0.11462 0.89879 0.41542 0.0
H295 H 0.09493 0.87845 0.36653 0.0
H296 H 0.06437 0.91827 0.33236 0.0
H297 H 0.0269 0.93827 0.36975 0.0
H298 H 0.66908 0.63177 0.64415 0.0
H299 H 0.64611 0.61118 0.70555 0.0
H300 H 0.66725 0.6843 0.79679 0.0
H301 H 0.69051 0.70505 0.73539 0.0
H302 H 0.67514 0.63289 0.84587 0.0
H303 H 0.56935 0.63926 0.73125 0.0
H304 H 0.59514 0.62062 0.70389 0.0
H305 H 0.59985 0.65737 0.71779 0.0
C306 C 0.66872 0.64354 0.67719 0.0
C307 C 0.68117 0.67024 0.68465 0.0
C308 C 0.65569 0.6317 0.71229 0.0
C309 C 0.65459 0.6464 0.75536 0.0
C310 C 0.66783 0.67264 0.7637 0.0
H311 H 0.53168 0.62289 0.93593 0.0
H312 H 0.56504 0.64064 0.88828 0.0
C313 C 0.68106 0.68447 0.72864 0.0
C314 C 0.63843 0.63494 0.79056 0.0
H315 H 0.57194 0.61552 0.80374 0.0
C316 C 0.65257 0.62908 0.83682 0.0
C317 C 0.60895 0.63025 0.77867 0.0
C318 C 0.59232 0.63742 0.73038 0.0
C319 C 0.63794 0.61853 0.87151 0.0
C320 C 0.60855 0.61346 0.85927 0.0
C321 C 0.59453 0.61927 0.81297 0.0
C322 C 0.59124 0.60369 0.89421 0.0
C323 C 0.65385 0.61353 0.92118 0.0
C324 C 0.59532 0.57722 0.91463 0.0
C325 C 0.57626 0.56702 0.9425 0.0
C326 C 0.55268 0.58301 0.94955 0.0
C327 C 0.54946 0.60992 0.93072 0.0
C328 C 0.56854 0.62014 0.9035 0.0
H329 H 0.67481 0.62409 0.92773 0.0
H330 H 0.64151 0.62106 0.94869 0.0
H331 H 0.65731 0.59076 0.92564 0.0
H332 H 0.61246 0.56399 0.90732 0.0
H333 H 0.57917 0.54616 0.95641 0.0
H334 H 0.86149 0.1457 0.04889 0.0
H335 H 0.88669 0.1341 0.12782 0.0
H336 H 0.8631 0.21341 0.18485 0.0
H337 H 0.83741 0.22518 0.10518 0.0
H338 H 0.93126 0.16006 0.18675 0.0
H339 H 0.83568 0.15791 0.2735 0.0
H340 H 0.83322 0.15921 0.20943 0.0
H341 H 0.843 0.18994 0.24622 0.0
C342 C 0.86191 0.16091 0.07798 0.0
C343 C 0.84758 0.18648 0.07062 0.0
C344 C 0.87629 0.15419 0.12321 0.0
C345 C 0.87671 0.17278 0.1624 0.0
C346 C 0.86273 0.19855 0.1553 0.0
H347 H 0.98306 0.10267 0.42065 0.0
H348 H 0.96449 0.13998 0.36583 0.0
C349 C 0.84811 0.20526 0.1098 0.0
C350 C 0.8912 0.16418 0.21042 0.0
H351 H 0.87789 0.14151 0.31756 0.0
C352 C 0.9198 0.15651 0.21584 0.0
C353 C 0.87617 0.15962 0.24831 0.0
C354 C 0.84528 0.16689 0.2443 0.0
C355 C 0.9332 0.14256 0.25652 0.0
C356 C 0.91771 0.13663 0.29326 0.0
C357 C 0.88974 0.14618 0.28941 0.0
C358 C 0.92805 0.11618 0.33081 0.0
C359 C 0.96309 0.1324 0.25808 0.0
C360 C 0.91324 0.09095 0.33061 0.0
C361 C 0.9236 0.06991 0.36175 0.0
C362 C 0.94913 0.07345 0.39411 0.0
C363 C 0.96343 0.09924 0.39599 0.0
C364 C 0.95293 0.12048 0.36451 0.0
H365 H 0.97076 0.13559 0.22382 0.0
H366 H 0.97738 0.14398 0.28693 0.0
H367 H 0.96459 0.10982 0.26616 0.0
H368 H 0.89402 0.0871 0.30506 0.0
H369 H 0.91179 0.05051 0.35952 0.0
H370 H 0.38351 0.31519 0.61351 0.0
H371 H 0.40308 0.33233 0.69488 0.0
H372 H 0.35366 0.40746 0.6709 0.0
H373 H 0.33404 0.39046 0.58989 0.0
H374 H 0.43431 0.38378 0.71494 0.0
H375 H 0.34043 0.38237 0.80404 0.0
H376 H 0.34261 0.36176 0.75046 0.0
H377 H 0.33392 0.39828 0.74657 0.0
C378 C 0.37633 0.33506 0.62607 0.0
C379 C 0.35718 0.35148 0.59541 0.0
C380 C 0.38765 0.34488 0.67241 0.0
C381 C 0.37962 0.37103 0.68911 0.0
C382 C 0.35982 0.38702 0.65906 0.0
H383 H 0.41654 0.50252 0.8862 0.0
H384 H 0.3985 0.46572 0.82869 0.0
C385 C 0.34875 0.37737 0.61269 0.0
C386 C 0.39344 0.38295 0.73623 0.0
H387 H 0.37854 0.41276 0.83963 0.0
C388 C 0.42234 0.3896 0.7428 0.0
C389 C 0.37778 0.39037 0.7725 0.0
C390 C 0.34701 0.3826 0.76837 0.0
C391 C 0.4355 0.4054 0.78305 0.0
C392 C 0.41938 0.41427 0.81804 0.0
C393 C 0.39091 0.40601 0.81282 0.0
C394 C 0.43024 0.43545 0.8561 0.0
C395 C 0.46597 0.41409 0.78611 0.0
C396 C 0.45396 0.43062 0.89155 0.0
C397 C 0.46459 0.45194 0.92487 0.0
C398 C 0.45159 0.47835 0.92317 0.0
C399 C 0.42732 0.48259 0.88853 0.0
C400 C 0.41682 0.46146 0.85557 0.0
H401 H 0.47408 0.40911 0.75247 0.0
H402 H 0.46848 0.43688 0.79405 0.0
H403 H 0.47922 0.40294 0.81562 0.0
H404 H 0.4644 0.41052 0.89316 0.0
H405 H 0.48325 0.44794 0.95116 0.0
H406 H 0.66927 0.64188 0.52415 0.0
H407 H 0.64372 0.6319 0.44371 0.0
H408 H 0.66025 0.71561 0.40282 0.0
H409 H 0.68605 0.72593 0.48436 0.0
H410 H 0.595 0.66115 0.39627 0.0
H411 H 0.68596 0.66351 0.29791 0.0
H412 H 0.69115 0.66 0.36205 0.0
H413 H 0.68051 0.69292 0.33618 0.0
C414 C 0.66741 0.6583 0.49823 0.0
C415 C 0.6794 0.68483 0.51083 0.0
C416 C 0.65282 0.65252 0.45219 0.0
C417 C 0.64995 0.67301 0.41732 0.0
C418 C 0.66235 0.69944 0.42917 0.0
H419 H 0.536 0.60571 0.15813 0.0
H420 H 0.55655 0.64311 0.21494 0.0
C421 C 0.67711 0.70528 0.47563 0.0
C422 C 0.63379 0.66592 0.369 0.0
H423 H 0.64322 0.64484 0.25694 0.0
C424 C 0.60526 0.65824 0.36528 0.0
C425 C 0.64729 0.66221 0.32877 0.0
C426 C 0.67794 0.66995 0.33103 0.0
C427 C 0.5905 0.6449 0.3237 0.0
C428 C 0.60459 0.63944 0.28454 0.0
C429 C 0.63244 0.64914 0.28694 0.0
C430 C 0.59307 0.61902 0.24568 0.0
C431 C 0.56076 0.63467 0.32353 0.0
C432 C 0.60718 0.59356 0.24301 0.0
C433 C 0.59564 0.57242 0.21093 0.0
C434 C 0.56962 0.57614 0.18038 0.0
C435 C 0.55599 0.60215 0.18135 0.0
C436 C 0.56764 0.62346 0.21389 0.0
H437 H 0.55402 0.63804 0.3588 0.0
H438 H 0.54591 0.64599 0.29632 0.0
H439 H 0.55901 0.61202 0.31385 0.0
H440 H 0.62679 0.5896 0.26711 0.0
H441 H 0.60696 0.55284 0.21089 0.0
H442 H 0.80152 0.15301 0.86172 0.0
H443 H 0.82285 0.13058 0.7979 0.0
H444 H 0.90151 0.17311 0.85078 0.0
H445 H 0.88031 0.19597 0.91433 0.0
H446 H 0.8685 0.16522 0.7313 0.0
H447 H 0.9008 0.07526 0.84921 0.0
H448 H 0.86787 0.0933 0.85049 0.0
H449 H 0.90066 0.11018 0.87478 0.0
C450 C 0.82314 0.15815 0.85908 0.0
C451 C 0.83926 0.17625 0.89317 0.0
C452 C 0.83529 0.14522 0.82274 0.0
C453 C 0.86367 0.15025 0.81984 0.0
C454 C 0.87952 0.16907 0.85255 0.0
H455 H 0.99823 0.0801 0.70251 0.0
H456 H 0.96468 0.10097 0.748 0.0
C457 C 0.86744 0.18196 0.88892 0.0
C458 C 0.87761 0.13424 0.78525 0.0
H459 H 0.9174 0.07595 0.77596 0.0
C460 C 0.8789 0.14551 0.74056 0.0
C461 C 0.8911 0.10863 0.79782 0.0
C462 C 0.89017 0.0959 0.84561 0.0
C463 C 0.89432 0.13217 0.70855 0.0
C464 C 0.90849 0.10687 0.72168 0.0
C465 C 0.90638 0.09525 0.76588 0.0
C466 C 0.92817 0.09371 0.69279 0.0
C467 C 0.89648 0.14586 0.66202 0.0
C468 C 0.91873 0.08238 0.6466 0.0
C469 C 0.93802 0.07031 0.62014 0.0
C470 C 0.967 0.06939 0.63963 0.0
C471 C 0.97613 0.08046 0.68619 0.0
C472 C 0.95695 0.09241 0.7124 0.0
H473 H 0.88797 0.16747 0.66066 0.0
H474 H 0.91883 0.14656 0.65662 0.0
H475 H 0.88429 0.13339 0.63188 0.0
H476 H 0.8965 0.08279 0.63111 0.0
H477 H 0.93029 0.06188 0.58448 0.0
H478 H 0.3916 0.3877 0.46345 0.0
H479 H 0.40453 0.41545 0.39968 0.0
H480 H 0.32719 0.39073 0.30693 0.0
H481 H 0.31405 0.36274 0.37093 0.0
H482 H 0.37207 0.38235 0.26416 0.0
H483 H 0.37897 0.48931 0.34271 0.0
H484 H 0.39912 0.46556 0.38284 0.0
H485 H 0.36134 0.46128 0.36742 0.0
C486 C 0.37693 0.38875 0.42998 0.0
C487 C 0.35172 0.37308 0.42239 0.0
C488 C 0.38433 0.40472 0.3935 0.0
C489 C 0.3666 0.40564 0.34872 0.0
C490 C 0.3411 0.39052 0.3413 0.0
H491 H 0.43643 0.50586 0.1374 0.0
H492 H 0.40039 0.48825 0.18143 0.0
C493 C 0.33369 0.37444 0.37781 0.0
C494 C 0.37635 0.4199 0.30854 0.0
H495 H 0.40779 0.47997 0.2813 0.0
C496 C 0.37926 0.4039 0.26746 0.0
C497 C 0.38526 0.44819 0.31216 0.0
C498 C 0.38071 0.46714 0.35347 0.0
C499 C 0.39289 0.41473 0.23189 0.0
C500 C 0.40431 0.44208 0.23795 0.0
C501 C 0.39937 0.45886 0.27698 0.0
C502 C 0.42459 0.45208 0.20811 0.0
C503 C 0.39584 0.3964 0.18896 0.0
C504 C 0.45006 0.43768 0.20874 0.0
C505 C 0.47054 0.44766 0.18409 0.0
C506 C 0.46614 0.4724 0.1582 0.0
C507 C 0.44037 0.48665 0.15678 0.0
C508 C 0.41983 0.47667 0.18196 0.0
H509 H 0.37838 0.38085 0.18112 0.0
H510 H 0.39603 0.40898 0.15668 0.0
H511 H 0.41601 0.38471 0.19654 0.0
H512 H 0.45446 0.41901 0.22947 0.0
H513 H 0.49009 0.43611 0.18599 0.0
H514 H 0.15106 0.9086 0.01166 0.0
H515 H 0.12392 0.92279 0.93579 0.0
H516 H 0.15865 0.85425 0.86317 0.0
H517 H 0.18452 0.83865 0.93975 0.0
H518 H 0.14521 0.9408 0.86373 0.0
H519 H 0.07726 0.84936 0.79939 0.0
H520 H 0.09602 0.85288 0.86012 0.0
H521 H 0.11407 0.8407 0.81294 0.0
C522 C 0.15232 0.89589 0.97997 0.0
C523 C 0.16998 0.8723 0.98221 0.0
C524 C 0.13691 0.90424 0.93635 0.0
C525 C 0.13891 0.88946 0.89365 0.0
C526 C 0.15619 0.86568 0.89564 0.0
H527 H 0.10956 0.97401 0.62494 0.0
H528 H 0.12867 0.94416 0.69128 0.0
C529 C 0.17138 0.85705 0.93948 0.0
C530 C 0.12507 0.90071 0.84702 0.0
H531 H 0.08031 0.88472 0.74229 0.0
C532 C 0.1309 0.9285 0.83739 0.0
C533 C 0.10616 0.88482 0.81268 0.0
C534 C 0.09776 0.85538 0.82192 0.0
C535 C 0.11865 0.94081 0.79454 0.0
C536 C 0.10072 0.92462 0.7593 0.0
C537 C 0.09442 0.89693 0.769 0.0
C538 C 0.08826 0.93667 0.71269 0.0
C539 C 0.12468 0.9713 0.78792 0.0
C540 C 0.05891 0.94045 0.7003 0.0
C541 C 0.04782 0.95702 0.66148 0.0
C542 C 0.06606 0.97019 0.63509 0.0
C543 C 0.09509 0.96428 0.64502 0.0
C544 C 0.10604 0.94738 0.68307 0.0
H545 H 0.1321 0.98242 0.8227 0.0
H546 H 0.14158 0.97299 0.76591 0.0
H547 H 0.10559 0.98209 0.76932 0.0
H548 H 0.04479 0.93218 0.72251 0.0
H549 H 0.02537 0.96135 0.65467 0.0
loop_
_geom_bond_atom_site_label_1
_geom_bond_atom_site_label_2
_geom_bond_distance
_geom_bond_site_symmetry_2
_ccdc_geom_bond_type
H0 C1 0.949 . S
C1 H0 0.949 . S
C1 C2 1.395 . S
C1 C3 1.391 . S
C2 C1 1.395 . S
C2 C5 1.390 . S
C3 C1 1.391 . S
C3 C7 1.387 . S
C3 C8 1.491 . S
H4 C5 0.950 . S
C5 C2 1.390 . S
C5 H4 0.950 . S
C5 C6 1.378 . S
C6 C5 1.378 . S
C6 C7 1.409 . S
C7 C3 1.387 . S
C7 C6 1.409 . S
C7 H9 0.951 1_554 S
C8 C3 1.491 . S
C8 C10 1.382 . S
C8 C12 1.404 . S
H9 C7 0.951 1_556 S
C10 C8 1.382 . S
C10 C11 1.390 . S
C10 H15 0.949 . S
C11 C10 1.390 . S
C11 C16 1.399 . S
C12 C8 1.404 . S
C12 H13 0.950 . S
C12 C14 1.375 . S
H13 C12 0.950 . S
C14 C12 1.375 . S
C14 C16 1.382 . S
C14 H18 0.950 . S
H15 C10 0.949 . S
C16 C11 1.399 . S
C16 C14 1.382 . S
C16 H17 0.952 . S
H17 C16 0.952 . S
H18 C14 0.950 . S
H19 C20 0.949 . S
C20 H19 0.949 . S
C20 C21 1.395 . S
C20 C22 1.391 . S
C21 C20 1.395 . S
C21 C24 1.390 . S
C22 C20 1.391 . S
C22 C26 1.387 . S
C22 C27 1.491 . S
H23 C24 0.950 . S
C24 C21 1.390 . S
C24 H23 0.950 . S
C24 C25 1.378 . S
C25 C24 1.378 . S
C25 C26 1.409 . S
C26 C22 1.387 . S
C26 C25 1.409 . S
C26 H28 0.951 . S
C27 C22 1.491 . S
C27 C29 1.382 . S
C27 C31 1.404 . S
H28 C26 0.951 . S
C29 C27 1.382 . S
C29 C30 1.390 . S
C29 H34 0.949 . S
C30 C29 1.390 . S
C30 C35 1.399 . S
C31 C27 1.404 . S
C31 H32 0.950 . S
C31 C33 1.375 . S
H32 C31 0.950 . S
C33 C31 1.375 . S
C33 C35 1.382 . S
C33 H37 0.950 . S
H34 C29 0.949 . S
C35 C30 1.399 . S
C35 C33 1.382 . S
C35 H36 0.952 . S
H36 C35 0.952 . S
H37 C33 0.950 . S
H38 C39 0.949 . S
C39 H38 0.949 . S
C39 C40 1.395 . S
C39 C41 1.391 1_554 S
C40 C39 1.395 . S
C40 C43 1.401 . S
C41 C39 1.391 1_556 S
C41 C45 1.387 . S
C41 C46 1.491 . S
H42 C43 0.951 . S
C43 C40 1.401 . S
C43 H42 0.951 . S
C43 C44 1.366 1_554 S
C44 C43 1.366 1_556 S
C44 C45 1.409 . S
C45 C41 1.387 . S
C45 C44 1.409 . S
C45 H47 0.951 . S
C46 C41 1.491 . S
C46 C48 1.389 . S
C46 C50 1.404 . S
H47 C45 0.951 . S
C48 C46 1.389 . S
C48 C49 1.390 . S
C48 H53 0.941 1_556 S
C49 C48 1.390 . S
C49 C54 1.399 . S
C50 C46 1.404 . S
C50 H51 0.950 . S
C50 C52 1.375 . S
H51 C50 0.950 . S
C52 C50 1.375 . S
C52 C54 1.382 . S
C52 H56 0.950 . S
H53 C48 0.941 1_554 S
C54 C49 1.399 . S
C54 C52 1.382 . S
C54 H55 0.952 . S
H55 C54 0.952 . S
H56 C52 0.950 . S
H57 C58 0.949 . S
C58 H57 0.949 . S
C58 C59 1.395 . S
C58 C60 1.391 . S
C59 C58 1.395 . S
C59 C62 1.390 . S
C60 C58 1.391 . S
C60 C64 1.387 . S
C60 C65 1.491 . S
H61 C62 0.950 . S
C62 C59 1.390 . S
C62 H61 0.950 . S
C62 C63 1.378 . S
C63 C62 1.378 . S
C63 C64 1.409 . S
C64 C60 1.387 . S
C64 C63 1.409 . S
C64 H66 0.951 . S
C65 C60 1.491 . S
C65 C67 1.382 . S
C65 C69 1.404 . S
H66 C64 0.951 . S
C67 C65 1.382 . S
C67 C68 1.390 . S
C67 H72 0.949 . S
C68 C67 1.390 . S
C68 C73 1.399 . S
C69 C65 1.404 . S
C69 H70 0.950 . S
C69 C71 1.375 . S
H70 C69 0.950 . S
C71 C69 1.375 . S
C71 C73 1.382 . S
C71 H75 0.950 . S
H72 C67 0.949 . S
C73 C68 1.399 . S
C73 C71 1.382 . S
C73 H74 0.952 . S
H74 C73 0.952 . S
H75 C71 0.950 . S
O76 Mg77 1.990 . S
O76 C90 1.253 1_455 S
Mg77 O76 1.990 . S
Mg77 O80 2.180 . S
Mg77 O81 2.117 . S
Mg77 O95 2.030 . S
O78 Mg79 2.072 1_655 S
O78 C90 1.260 . S
Mg79 O78 2.072 1_455 S
Mg79 O80 2.099 . S
Mg79 O82 2.079 1_545 S
Mg79 O83 2.072 1_455 S
Mg79 O85 2.099 1_445 S
Mg79 O96 2.079 1_545 S
O80 Mg77 2.180 . S
O80 Mg79 2.099 . S
O80 C91 1.279 . S
O81 Mg77 2.117 . S
O81 C91 1.250 . S
O82 Mg79 2.079 1_565 S
O82 C92 1.264 . S
O83 Mg79 2.072 1_655 S
O83 C93 1.260 . S
Mg84 O85 2.180 . S
Mg84 O86 2.030 1_655 S
Mg84 O87 1.990 1_565 S
Mg84 O88 2.117 . S
O85 Mg79 2.099 1_665 S
O85 Mg84 2.180 . S
O85 C94 1.279 . S
O86 Mg84 2.030 1_455 S
O86 C92 1.248 . S
O87 Mg84 1.990 1_545 S
O87 C93 1.253 . S
O88 Mg84 2.117 . S
O88 C94 1.250 . S
C89 O95 1.248 1_565 S
C89 O96 1.264 . S
C90 O76 1.253 1_655 S
C90 O78 1.260 . S
C91 O80 1.279 . S
C91 O81 1.250 . S
C92 O82 1.264 . S
C92 O86 1.248 . S
C93 O83 1.260 . S
C93 O87 1.253 . S
C94 O85 1.279 . S
C94 O88 1.250 . S
O95 Mg77 2.030 . S
O95 C89 1.248 1_545 S
O96 Mg79 2.079 1_565 S
O96 C89 1.264 . S
O97 Mg98 1.990 . S
O97 C111 1.253 . S
Mg98 O97 1.990 . S
Mg98 O101 2.180 . S
Mg98 O102 2.117 . S
Mg98 O116 2.030 . S
O99 Mg100 2.072 . S
O99 C111 1.260 . S
Mg100 O99 2.072 . S
Mg100 O101 2.099 . S
Mg100 O103 2.079 1_554 S
Mg100 O104 2.072 . S
Mg100 O106 2.099 . S
Mg100 O117 2.079 . S
O101 Mg98 2.180 . S
O101 Mg100 2.099 . S
O101 C112 1.279 . S
O102 Mg98 2.117 . S
O102 C112 1.250 . S
O103 Mg100 2.079 1_556 S
O103 C113 1.264 . S
O104 Mg100 2.072 . S
O104 C114 1.260 1_554 S
Mg105 O106 2.180 1_556 S
Mg105 O107 2.030 . S
Mg105 O108 1.990 . S
Mg105 O109 2.117 1_556 S
O106 Mg100 2.099 . S
O106 Mg105 2.180 1_554 S
O106 C115 1.279 . S
O107 Mg105 2.030 . S
O107 C113 1.248 . S
O108 Mg105 1.990 . S
O108 C114 1.253 . S
O109 Mg105 2.117 1_554 S
O109 C115 1.250 . S
C110 O116 1.248 . S
C110 O117 1.264 . S
C111 O97 1.253 . S
C111 O99 1.260 . S
C112 O101 1.279 . S
C112 O102 1.250 . S
C113 O103 1.264 . S
C113 O107 1.248 . S
C114 O104 1.260 1_556 S
C114 O108 1.253 . S
C115 O106 1.279 . S
C115 O109 1.250 . S
O116 Mg98 2.030 . S
O116 C110 1.248 . S
O117 Mg100 2.079 . S
O117 C110 1.264 . S
H118 C126 0.929 . S
H119 C128 0.930 . S
H120 C130 0.930 . S
H121 C133 0.929 . S
H122 C136 0.930 . S
H123 C138 0.960 . S
H124 C138 0.960 . S
H125 C138 0.960 . S
C126 H118 0.929 . S
C126 C127 1.377 . S
C126 C128 1.384 . S
C127 C126 1.377 . S
C127 C133 1.390 . S
C128 H119 0.930 . S
C128 C126 1.384 . S
C128 C129 1.372 . S
C129 C128 1.372 . S
C129 C130 1.400 . S
C129 C134 1.490 . S
C130 H120 0.930 . S
C130 C129 1.400 . S
C130 C133 1.386 . S
H131 C147 0.930 . S
H132 C148 0.931 . S
C133 H121 0.929 . S
C133 C127 1.390 . S
C133 C130 1.386 . S
C134 C129 1.490 . S
C134 C136 1.395 . S
C134 C137 1.403 . S
H135 C141 0.930 . S
C136 H122 0.930 . S
C136 C134 1.395 . S
C136 C139 1.403 . S
C137 C134 1.403 . S
C137 C138 1.524 . S
C137 C141 1.400 . S
C138 H123 0.960 . S
C138 H124 0.960 . S
C138 H125 0.960 . S
C138 C137 1.524 . S
C139 C136 1.403 . S
C139 C140 1.392 . S
C139 C143 1.495 . S
C140 C139 1.392 . S
C140 C141 1.385 . S
C140 C142 1.478 . S
C141 H135 0.930 . S
C141 C137 1.400 . S
C141 C140 1.385 . S
C142 C140 1.478 . S
C142 C144 1.381 . S
C142 C148 1.383 . S
C143 C139 1.495 . S
C143 H149 0.959 . S
C143 H150 0.961 . S
C143 H151 0.960 . S
C144 C142 1.381 . S
C144 C145 1.394 . S
C144 H152 0.930 . S
C145 C144 1.394 . S
C145 C146 1.383 . S
C145 H153 0.929 . S
C146 C145 1.383 . S
C146 C147 1.377 . S
C147 H131 0.930 . S
C147 C146 1.377 . S
C147 C148 1.379 . S
C148 H132 0.931 . S
C148 C142 1.383 . S
C148 C147 1.379 . S
H149 C143 0.959 . S
H150 C143 0.961 . S
H151 C143 0.960 . S
H152 C144 0.930 . S
H153 C145 0.929 . S
H154 C162 0.929 . S
H155 C164 0.930 . S
H156 C166 0.930 . S
H157 C169 0.929 . S
H158 C172 0.930 . S
H159 C174 0.960 . S
H160 C174 0.960 . S
H161 C174 0.960 . S
C162 H154 0.929 . S
C162 C163 1.377 . S
C162 C164 1.384 . S
C163 C162 1.377 . S
C163 C169 1.390 . S
C164 H155 0.930 . S
C164 C162 1.384 . S
C164 C165 1.372 . S
C165 C164 1.372 . S
C165 C166 1.400 . S
C165 C170 1.490 . S
C166 H156 0.930 . S
C166 C165 1.400 . S
C166 C169 1.386 . S
H167 C183 0.930 . S
H168 C184 0.931 . S
C169 H157 0.929 . S
C169 C163 1.390 . S
C169 C166 1.386 . S
C170 C165 1.490 . S
C170 C172 1.395 . S
C170 C173 1.403 . S
H171 C177 0.930 . S
C172 H158 0.930 . S
C172 C170 1.395 . S
C172 C175 1.403 . S
C173 C170 1.403 . S
C173 C174 1.524 . S
C173 C177 1.400 . S
C174 H159 0.960 . S
C174 H160 0.960 . S
C174 H161 0.960 . S
C174 C173 1.524 . S
C175 C172 1.403 . S
C175 C176 1.392 . S
C175 C179 1.495 1_554 S
C176 C175 1.392 . S
C176 C177 1.385 . S
C176 C178 1.478 . S
C177 H171 0.930 . S
C177 C173 1.400 . S
C177 C176 1.385 . S
C178 C176 1.478 . S
C178 C180 1.381 . S
C178 C184 1.383 . S
C179 C175 1.495 1_556 S
C179 H185 0.959 . S
C179 H186 0.961 . S
C179 H187 0.960 . S
C180 C178 1.381 . S
C180 C181 1.394 . S
C180 H188 0.930 . S
C181 C180 1.394 . S
C181 C182 1.383 . S
C181 H189 0.929 . S
C182 C181 1.383 . S
C182 C183 1.377 . S
C183 H167 0.930 . S
C183 C182 1.377 . S
C183 C184 1.379 . S
C184 H168 0.931 . S
C184 C178 1.383 . S
C184 C183 1.379 . S
H185 C179 0.959 . S
H186 C179 0.961 . S
H187 C179 0.960 . S
H188 C180 0.930 . S
H189 C181 0.929 . S
H190 C198 0.929 . S
H191 C200 0.930 . S
H192 C202 0.930 . S
H193 C205 0.929 . S
H194 C208 0.930 . S
H195 C210 0.960 . S
H196 C210 0.960 . S
H197 C210 0.960 . S
C198 H190 0.929 . S
C198 C199 1.377 . S
C198 C200 1.384 . S
C199 C198 1.377 . S
C199 C205 1.390 . S
C200 H191 0.930 . S
C200 C198 1.384 . S
C200 C201 1.372 . S
C201 C200 1.372 . S
C201 C202 1.400 . S
C201 C206 1.490 . S
C202 H192 0.930 . S
C202 C201 1.400 . S
C202 C205 1.386 . S
H203 C219 0.930 . S
H204 C220 0.931 . S
C205 H193 0.929 . S
C205 C199 1.390 . S
C205 C202 1.386 . S
C206 C201 1.490 . S
C206 C208 1.395 . S
C206 C209 1.403 . S
H207 C213 0.930 . S
C208 H194 0.930 . S
C208 C206 1.395 . S
C208 C211 1.403 . S
C209 C206 1.403 . S
C209 C210 1.524 . S
C209 C213 1.400 . S
C210 H195 0.960 . S
C210 H196 0.960 . S
C210 H197 0.960 . S
C210 C209 1.524 . S
C211 C208 1.403 . S
C211 C212 1.392 . S
C211 C215 1.495 . S
C212 C211 1.392 . S
C212 C213 1.385 . S
C212 C214 1.478 . S
C213 H207 0.930 . S
C213 C209 1.400 . S
C213 C212 1.385 . S
C214 C212 1.478 . S
C214 C216 1.381 . S
C214 C220 1.383 . S
C215 C211 1.495 . S
C215 H221 0.959 . S
C215 H222 0.961 . S
C215 H223 0.960 . S
C216 C214 1.381 . S
C216 C217 1.394 . S
C216 H224 0.930 . S
C217 C216 1.394 . S
C217 C218 1.383 . S
C217 H225 0.929 . S
C218 C217 1.383 . S
C218 C219 1.377 . S
C219 H203 0.930 . S
C219 C218 1.377 . S
C219 C220 1.379 . S
C220 H204 0.931 . S
C220 C214 1.383 . S
C220 C219 1.379 . S
H221 C215 0.959 . S
H222 C215 0.961 . S
H223 C215 0.960 . S
H224 C216 0.930 . S
H225 C217 0.929 . S
H226 C234 0.929 . S
H227 C236 0.930 . S
H228 C238 0.930 1_556 S
H229 C241 0.931 . S
H230 C244 0.930 . S
H231 C246 0.960 . S
H232 C246 0.960 . S
H233 C246 0.960 . S
C234 H226 0.929 . S
C234 C235 1.377 . S
C234 C236 1.384 . S
C235 C234 1.377 . S
C235 C241 1.389 1_554 S
C236 H227 0.930 . S
C236 C234 1.384 . S
C236 C237 1.372 . S
C237 C236 1.372 . S
C237 C238 1.400 . S
C237 C242 1.490 . S
C238 H228 0.930 1_554 S
C238 C237 1.400 . S
C238 C241 1.384 1_554 S
H239 C255 0.930 . S
H240 C256 0.931 1_556 S
C241 H229 0.931 . S
C241 C235 1.389 1_556 S
C241 C238 1.384 1_556 S
C242 C237 1.490 . S
C242 C244 1.395 1_554 S
C242 C245 1.403 . S
H243 C249 0.930 . S
C244 H230 0.930 . S
C244 C242 1.395 1_556 S
C244 C247 1.403 . S
C245 C242 1.403 . S
C245 C246 1.524 . S
C245 C249 1.400 . S
C246 H231 0.960 . S
C246 H232 0.960 . S
C246 H233 0.960 . S
C246 C245 1.524 . S
C247 C244 1.403 . S
C247 C248 1.392 1_556 S
C247 C251 1.495 . S
C248 C247 1.392 1_554 S
C248 C249 1.385 . S
C248 C250 1.478 . S
C249 H243 0.930 . S
C249 C245 1.400 . S
C249 C248 1.385 . S
C250 C248 1.478 . S
C250 C252 1.381 . S
C250 C256 1.383 . S
C251 C247 1.495 . S
C251 H257 0.959 . S
C251 H258 0.961 . S
C251 H259 0.960 . S
C252 C250 1.381 . S
C252 C253 1.394 . S
C252 H260 0.930 . S
C253 C252 1.394 . S
C253 C254 1.383 . S
C253 H261 0.929 . S
C254 C253 1.383 . S
C254 C255 1.377 . S
C255 H239 0.930 . S
C255 C254 1.377 . S
C255 C256 1.379 . S
C256 H240 0.931 1_554 S
C256 C250 1.383 . S
C256 C255 1.379 . S
H257 C251 0.959 . S
H258 C251 0.961 . S
H259 C251 0.960 . S
H260 C252 0.930 . S
H261 C253 0.929 . S
H262 C270 0.929 . S
H263 C272 0.930 . S
H264 C274 0.930 . S
H265 C277 0.929 . S
H266 C280 0.930 . S
H267 C282 0.960 . S
H268 C282 0.960 . S
H269 C282 0.960 . S
C270 H262 0.929 . S
C270 C271 1.377 . S
C270 C272 1.384 . S
C271 C270 1.377 . S
C271 C277 1.390 . S
C272 H263 0.930 . S
C272 C270 1.384 . S
C272 C273 1.372 . S
C273 C272 1.372 . S
C273 C274 1.400 . S
C273 C278 1.490 . S
C274 H264 0.930 . S
C274 C273 1.400 . S
C274 C277 1.386 . S
H275 C291 0.930 . S
H276 C292 0.931 . S
C277 H265 0.929 . S
C277 C271 1.390 . S
C277 C274 1.386 . S
C278 C273 1.490 . S
C278 C280 1.395 . S
C278 C281 1.403 . S
H279 C285 0.930 . S
C280 H266 0.930 . S
C280 C278 1.395 . S
C280 C283 1.403 . S
C281 C278 1.403 . S
C281 C282 1.524 . S
C281 C285 1.400 . S
C282 H267 0.960 . S
C282 H268 0.960 . S
C282 H269 0.960 . S
C282 C281 1.524 . S
C283 C280 1.403 . S
C283 C284 1.392 . S
C283 C287 1.495 . S
C284 C283 1.392 . S
C284 C285 1.385 . S
C284 C286 1.478 . S
C285 H279 0.930 . S
C285 C281 1.400 . S
C285 C284 1.385 . S
C286 C284 1.478 . S
C286 C288 1.381 . S
C286 C292 1.383 . S
C287 C283 1.495 . S
C287 H293 0.959 . S
C287 H294 0.961 . S
C287 H295 0.960 . S
C288 C286 1.381 . S
C288 C289 1.394 . S
C288 H296 0.930 . S
C289 C288 1.394 . S
C289 C290 1.383 . S
C289 H297 0.929 . S
C290 C289 1.383 . S
C290 C291 1.377 . S
C291 H275 0.930 . S
C291 C290 1.377 . S
C291 C292 1.379 . S
C292 H276 0.931 . S
C292 C286 1.383 . S
C292 C291 1.379 . S
H293 C287 0.959 . S
H294 C287 0.961 . S
H295 C287 0.960 . S
H296 C288 0.930 . S
H297 C289 0.929 . S
H298 C306 0.929 . S
H299 C308 0.930 . S
H300 C310 0.930 . S
H301 C313 0.929 . S
H302 C316 0.930 . S
H303 C318 0.960 . S
H304 C318 0.960 . S
H305 C318 0.960 . S
C306 H298 0.929 . S
C306 C307 1.377 . S
C306 C308 1.384 . S
C307 C306 1.377 . S
C307 C313 1.390 . S
C308 H299 0.930 . S
C308 C306 1.384 . S
C308 C309 1.372 . S
C309 C308 1.372 . S
C309 C310 1.400 . S
C309 C314 1.490 . S
C310 H300 0.930 . S
C310 C309 1.400 . S
C310 C313 1.386 . S
H311 C327 0.930 . S
H312 C328 0.931 . S
C313 H301 0.929 . S
C313 C307 1.390 . S
C313 C310 1.386 . S
C314 C309 1.490 . S
C314 C316 1.395 . S
C314 C317 1.403 . S
H315 C321 0.930 . S
C316 H302 0.930 . S
C316 C314 1.395 . S
C316 C319 1.403 . S
C317 C314 1.403 . S
C317 C318 1.524 . S
C317 C321 1.400 . S
C318 H303 0.960 . S
C318 H304 0.960 . S
C318 H305 0.960 . S
C318 C317 1.524 . S
C319 C316 1.403 . S
C319 C320 1.392 . S
C319 C323 1.495 . S
C320 C319 1.392 . S
C320 C321 1.385 . S
C320 C322 1.478 . S
C321 H315 0.930 . S
C321 C317 1.400 . S
C321 C320 1.385 . S
C322 C320 1.478 . S
C322 C324 1.381 . S
C322 C328 1.383 . S
C323 C319 1.495 . S
C323 H329 0.959 . S
C323 H330 0.961 . S
C323 H331 0.960 . S
C324 C322 1.381 . S
C324 C325 1.394 . S
C324 H332 0.930 . S
C325 C324 1.394 . S
C325 C326 1.383 . S
C325 H333 0.929 . S
C326 C325 1.383 . S
C326 C327 1.377 . S
C327 H311 0.930 . S
C327 C326 1.377 . S
C327 C328 1.379 . S
C328 H312 0.931 . S
C328 C322 1.383 . S
C328 C327 1.379 . S
H329 C323 0.959 . S
H330 C323 0.961 . S
H331 C323 0.960 . S
H332 C324 0.930 . S
H333 C325 0.929 . S
H334 C342 0.929 . S
H335 C344 0.930 . S
H336 C346 0.930 . S
H337 C349 0.929 . S
H338 C352 0.930 . S
H339 C354 0.960 . S
H340 C354 0.960 . S
H341 C354 0.960 . S
C342 H334 0.929 . S
C342 C343 1.377 . S
C342 C344 1.384 . S
C343 C342 1.377 . S
C343 C349 1.390 . S
C344 H335 0.930 . S
C344 C342 1.384 . S
C344 C345 1.372 . S
C345 C344 1.372 . S
C345 C346 1.400 . S
C345 C350 1.490 . S
C346 H336 0.930 . S
C346 C345 1.400 . S
C346 C349 1.386 . S
H347 C363 0.930 . S
H348 C364 0.931 . S
C349 H337 0.929 . S
C349 C343 1.390 . S
C349 C346 1.386 . S
C350 C345 1.490 . S
C350 C352 1.395 . S
C350 C353 1.403 . S
H351 C357 0.930 . S
C352 H338 0.930 . S
C352 C350 1.395 . S
C352 C355 1.403 . S
C353 C350 1.403 . S
C353 C354 1.524 . S
C353 C357 1.400 . S
C354 H339 0.960 . S
C354 H340 0.960 . S
C354 H341 0.960 . S
C354 C353 1.524 . S
C355 C352 1.403 . S
C355 C356 1.392 . S
C355 C359 1.495 . S
C356 C355 1.392 . S
C356 C357 1.385 . S
C356 C358 1.478 . S
C357 H351 0.930 . S
C357 C353 1.400 . S
C357 C356 1.385 . S
C358 C356 1.478 . S
C358 C360 1.381 . S
C358 C364 1.383 . S
C359 C355 1.495 . S
C359 H365 0.959 . S
C359 H366 0.961 . S
C359 H367 0.960 . S
C360 C358 1.381 . S
C360 C361 1.394 . S
C360 H368 0.930 . S
C361 C360 1.394 . S
C361 C362 1.383 . S
C361 H369 0.929 . S
C362 C361 1.383 . S
C362 C363 1.377 . S
C363 H347 0.930 . S
C363 C362 1.377 . S
C363 C364 1.379 . S
C364 H348 0.931 . S
C364 C358 1.383 . S
C364 C363 1.379 . S
H365 C359 0.959 . S
H366 C359 0.961 . S
H367 C359 0.960 . S
H368 C360 0.930 . S
H369 C361 0.929 . S
H370 C378 0.929 . S
H371 C380 0.930 . S
H372 C382 0.930 . S
H373 C385 0.929 . S
H374 C388 0.930 . S
H375 C390 0.960 . S
H376 C390 0.960 . S
H377 C390 0.960 . S
C378 H370 0.929 . S
C378 C379 1.377 . S
C378 C380 1.384 . S
C379 C378 1.377 . S
C379 C385 1.390 . S
C380 H371 0.930 . S
C380 C378 1.384 . S
C380 C381 1.372 . S
C381 C380 1.372 . S
C381 C382 1.400 . S
C381 C386 1.490 . S
C382 H372 0.930 . S
C382 C381 1.400 . S
C382 C385 1.386 . S
H383 C399 0.930 . S
H384 C400 0.931 . S
C385 H373 0.929 . S
C385 C379 1.390 . S
C385 C382 1.386 . S
C386 C381 1.490 . S
C386 C388 1.395 . S
C386 C389 1.403 . S
H387 C393 0.930 . S
C388 H374 0.930 . S
C388 C386 1.395 . S
C388 C391 1.403 . S
C389 C386 1.403 . S
C389 C390 1.524 . S
C389 C393 1.400 . S
C390 H375 0.960 . S
C390 H376 0.960 . S
C390 H377 0.960 . S
C390 C389 1.524 . S
C391 C388 1.403 . S
C391 C392 1.392 . S
C391 C395 1.495 . S
C392 C391 1.392 . S
C392 C393 1.385 . S
C392 C394 1.478 . S
C393 H387 0.930 . S
C393 C389 1.400 . S
C393 C392 1.385 . S
C394 C392 1.478 . S
C394 C396 1.381 . S
C394 C400 1.383 . S
C395 C391 1.495 . S
C395 H401 0.959 . S
C395 H402 0.961 . S
C395 H403 0.960 . S
C396 C394 1.381 . S
C396 C397 1.394 . S
C396 H404 0.930 . S
C397 C396 1.394 . S
C397 C398 1.383 . S
C397 H405 0.929 . S
C398 C397 1.383 . S
C398 C399 1.377 . S
C399 H383 0.930 . S
C399 C398 1.377 . S
C399 C400 1.379 . S
C400 H384 0.931 . S
C400 C394 1.383 . S
C400 C399 1.379 . S
H401 C395 0.959 . S
H402 C395 0.961 . S
H403 C395 0.960 . S
H404 C396 0.930 . S
H405 C397 0.929 . S
H406 C414 0.929 . S
H407 C416 0.930 . S
H408 C418 0.930 . S
H409 C421 0.929 . S
H410 C424 0.930 . S
H411 C426 0.960 . S
H412 C426 0.960 . S
H413 C426 0.960 . S
C414 H406 0.929 . S
C414 C415 1.377 . S
C414 C416 1.384 . S
C415 C414 1.377 . S
C415 C421 1.390 . S
C416 H407 0.930 . S
C416 C414 1.384 . S
C416 C417 1.372 . S
C417 C416 1.372 . S
C417 C418 1.400 . S
C417 C422 1.490 . S
C418 H408 0.930 . S
C418 C417 1.400 . S
C418 C421 1.386 . S
H419 C435 0.930 . S
H420 C436 0.931 . S
C421 H409 0.929 . S
C421 C415 1.390 . S
C421 C418 1.386 . S
C422 C417 1.490 . S
C422 C424 1.395 . S
C422 C425 1.403 . S
H423 C429 0.930 . S
C424 H410 0.930 . S
C424 C422 1.395 . S
C424 C427 1.403 . S
C425 C422 1.403 . S
C425 C426 1.524 . S
C425 C429 1.400 . S
C426 H411 0.960 . S
C426 H412 0.960 . S
C426 H413 0.960 . S
C426 C425 1.524 . S
C427 C424 1.403 . S
C427 C428 1.392 . S
C427 C431 1.495 . S
C428 C427 1.392 . S
C428 C429 1.385 . S
C428 C430 1.478 . S
C429 H423 0.930 . S
C429 C425 1.400 . S
C429 C428 1.385 . S
C430 C428 1.478 . S
C430 C432 1.381 . S
C430 C436 1.383 . S
C431 C427 1.495 . S
C431 H437 0.959 . S
C431 H438 0.961 . S
C431 H439 0.960 . S
C432 C430 1.381 . S
C432 C433 1.394 . S
C432 H440 0.930 . S
C433 C432 1.394 . S
C433 C434 1.383 . S
C433 H441 0.929 . S
C434 C433 1.383 . S
C434 C435 1.377 . S
C435 H419 0.930 . S
C435 C434 1.377 . S
C435 C436 1.379 . S
C436 H420 0.931 . S
C436 C430 1.383 . S
C436 C435 1.379 . S
H437 C431 0.959 . S
H438 C431 0.961 . S
H439 C431 0.960 . S
H440 C432 0.930 . S
H441 C433 0.929 . S
H442 C450 0.929 . S
H443 C452 0.930 . S
H444 C454 0.930 . S
H445 C457 0.929 . S
H446 C460 0.930 . S
H447 C462 0.960 . S
H448 C462 0.960 . S
H449 C462 0.960 . S
C450 H442 0.929 . S
C450 C451 1.377 . S
C450 C452 1.384 . S
C451 C450 1.377 . S
C451 C457 1.390 . S
C452 H443 0.930 . S
C452 C450 1.384 . S
C452 C453 1.372 . S
C453 C452 1.372 . S
C453 C454 1.400 . S
C453 C458 1.490 . S
C454 H444 0.930 . S
C454 C453 1.400 . S
C454 C457 1.386 . S
H455 C471 0.930 . S
H456 C472 0.931 . S
C457 H445 0.929 . S
C457 C451 1.390 . S
C457 C454 1.386 . S
C458 C453 1.490 . S
C458 C460 1.395 . S
C458 C461 1.403 . S
H459 C465 0.930 . S
C460 H446 0.930 . S
C460 C458 1.395 . S
C460 C463 1.403 . S
C461 C458 1.403 . S
C461 C462 1.524 . S
C461 C465 1.400 . S
C462 H447 0.960 . S
C462 H448 0.960 . S
C462 H449 0.960 . S
C462 C461 1.524 . S
C463 C460 1.403 . S
C463 C464 1.392 . S
C463 C467 1.495 . S
C464 C463 1.392 . S
C464 C465 1.385 . S
C464 C466 1.478 . S
C465 H459 0.930 . S
C465 C461 1.400 . S
C465 C464 1.385 . S
C466 C464 1.478 . S
C466 C468 1.381 . S
C466 C472 1.383 . S
C467 C463 1.495 . S
C467 H473 0.959 . S
C467 H474 0.961 . S
C467 H475 0.960 . S
C468 C466 1.381 . S
C468 C469 1.394 . S
C468 H476 0.930 . S
C469 C468 1.394 . S
C469 C470 1.383 . S
C469 H477 0.929 . S
C470 C469 1.383 . S
C470 C471 1.377 . S
C471 H455 0.930 . S
C471 C470 1.377 . S
C471 C472 1.379 . S
C472 H456 0.931 . S
C472 C466 1.383 . S
C472 C471 1.379 . S
H473 C467 0.959 . S
H474 C467 0.961 . S
H475 C467 0.960 . S
H476 C468 0.930 . S
H477 C469 0.929 . S
H478 C486 0.929 . S
H479 C488 0.930 . S
H480 C490 0.930 . S
H481 C493 0.929 . S
H482 C496 0.930 . S
H483 C498 0.960 . S
H484 C498 0.960 . S
H485 C498 0.960 . S
C486 H478 0.929 . S
C486 C487 1.377 . S
C486 C488 1.384 . S
C487 C486 1.377 . S
C487 C493 1.390 . S
C488 H479 0.930 . S
C488 C486 1.384 . S
C488 C489 1.372 . S
C489 C488 1.372 . S
C489 C490 1.400 . S
C489 C494 1.490 . S
C490 H480 0.930 . S
C490 C489 1.400 . S
C490 C493 1.386 . S
H491 C507 0.930 . S
H492 C508 0.931 . S
C493 H481 0.929 . S
C493 C487 1.390 . S
C493 C490 1.386 . S
C494 C489 1.490 . S
C494 C496 1.395 . S
C494 C497 1.403 . S
H495 C501 0.930 . S
C496 H482 0.930 . S
C496 C494 1.395 . S
C496 C499 1.403 . S
C497 C494 1.403 . S
C497 C498 1.524 . S
C497 C501 1.400 . S
C498 H483 0.960 . S
C498 H484 0.960 . S
C498 H485 0.960 . S
C498 C497 1.524 . S
C499 C496 1.403 . S
C499 C500 1.392 . S
C499 C503 1.495 . S
C500 C499 1.392 . S
C500 C501 1.385 . S
C500 C502 1.478 . S
C501 H495 0.930 . S
C501 C497 1.400 . S
C501 C500 1.385 . S
C502 C500 1.478 . S
C502 C504 1.381 . S
C502 C508 1.383 . S
C503 C499 1.495 . S
C503 H509 0.959 . S
C503 H510 0.961 . S
C503 H511 0.960 . S
C504 C502 1.381 . S
C504 C505 1.394 . S
C504 H512 0.930 . S
C505 C504 1.394 . S
C505 C506 1.383 . S
C505 H513 0.929 . S
C506 C505 1.383 . S
C506 C507 1.377 . S
C507 H491 0.930 . S
C507 C506 1.377 . S
C507 C508 1.379 . S
C508 H492 0.931 . S
C508 C502 1.383 . S
C508 C507 1.379 . S
H509 C503 0.959 . S
H510 C503 0.961 . S
H511 C503 0.960 . S
H512 C504 0.930 . S
H513 C505 0.929 . S
H514 C522 0.929 1_554 S
H515 C524 0.930 . S
H516 C526 0.930 . S
H517 C529 0.929 . S
H518 C532 0.930 . S
H519 C534 0.960 . S
H520 C534 0.960 . S
H521 C534 0.960 . S
C522 H514 0.929 1_556 S
C522 C523 1.377 . S
C522 C524 1.384 . S
C523 C522 1.377 . S
C523 C529 1.390 . S
C524 H515 0.930 . S
C524 C522 1.384 . S
C524 C525 1.372 . S
C525 C524 1.372 . S
C525 C526 1.400 . S
C525 C530 1.490 . S
C526 H516 0.930 . S
C526 C525 1.400 . S
C526 C529 1.386 . S
H527 C543 0.930 . S
H528 C544 0.931 . S
C529 H517 0.929 . S
C529 C523 1.390 . S
C529 C526 1.386 . S
C530 C525 1.490 . S
C530 C532 1.395 . S
C530 C533 1.403 . S
H531 C537 0.930 . S
C532 H518 0.930 . S
C532 C530 1.395 . S
C532 C535 1.403 . S
C533 C530 1.403 . S
C533 C534 1.524 . S
C533 C537 1.400 . S
C534 H519 0.960 . S
C534 H520 0.960 . S
C534 H521 0.960 . S
C534 C533 1.524 . S
C535 C532 1.403 . S
C535 C536 1.392 . S
C535 C539 1.495 . S
C536 C535 1.392 . S
C536 C537 1.385 . S
C536 C538 1.478 . S
C537 H531 0.930 . S
C537 C533 1.400 . S
C537 C536 1.385 . S
C538 C536 1.478 . S
C538 C540 1.381 . S
C538 C544 1.383 . S
C539 C535 1.495 . S
C539 H545 0.959 . S
C539 H546 0.961 . S
C539 H547 0.960 . S
C540 C538 1.381 . S
C540 C541 1.394 . S
C540 H548 0.930 . S
C541 C540 1.394 . S
C541 C542 1.383 . S
C541 H549 0.929 1_565 S
C542 C541 1.383 . S
C542 C543 1.377 . S
C543 H527 0.930 . S
C543 C542 1.377 . S
C543 C544 1.379 . S
C544 H528 0.931 . S
C544 C538 1.383 . S
C544 C543 1.379 . S
H545 C539 0.959 . S
H546 C539 0.961 . S
H547 C539 0.960 . S
H548 C540 0.930 . S
H549 C541 0.929 1_545 S
C146 C91 1.242 . S
C127 C68 1.388 . S
C163 C11 1.390 . S
C182 C115 1.281 . S
C199 C30 1.580 . S
C218 C94 1.501 . S
C235 C49 1.571 1_554 S
C254 C112 1.488 . S
C290 C92 1.552 . S
C271 C2 1.564 . S
C326 C114 1.646 . S
C307 C25 1.693 . S
C343 C40 1.647 . S
C362 C93 1.627 . S
C379 C59 1.562 . S
C398 C113 1.510 . S
C434 C111 1.500 . S
C415 C21 1.539 . S
C470 C90 1.526 . S
C451 C44 1.579 . S
C506 C110 1.438 . S
C487 C63 1.492 . S
C523 C6 1.493 1_556 S
C542 C89 1.415 . S
