# Generated by pormake.
# Topology pyr, (3,6)-cn, num edge types: 1
# Building blocks:
#     Node 0, Type 0, BuildingBlock: ESEHIV_clean_linker_0, # of connection points: 3
#     Node 1, Type 0, BuildingBlock: ESEHIV_clean_linker_0, # of connection points: 3
#     Node 2, Type 0, BuildingBlock: ESEHIV_clean_linker_0, # of connection points: 3
#     Node 3, Type 0, BuildingBlock: ESEHIV_clean_linker_0, # of connection points: 3
#     Node 4, Type 0, BuildingBlock: ESEHIV_clean_linker_0, # of connection points: 3
#     Node 5, Type 0, BuildingBlock: ESEHIV_clean_linker_0, # of connection points: 3
#     Node 6, Type 0, BuildingBlock: ESEHIV_clean_linker_0, # of connection points: 3
#     Node 7, Type 0, BuildingBlock: ESEHIV_clean_linker_0, # of connection points: 3
#     Node 8, Type 1, BuildingBlock: MIDCAF_clean_sbu_0, # of connection points: 6
#     Node 9, Type 1, BuildingBlock: MIDCAF_clean_sbu_0, # of connection points: 6
#     Node 10, Type 1, BuildingBlock: MIDCAF_clean_sbu_0, # of connection points: 6
#     Node 11, Type 1, BuildingBlock: MIDCAF_clean_sbu_0, # of connection points: 6
#     Edge 12, Type (0, 1), BuildingBlock: MIFKUJ_clean_linker_0, # of connection points: 2
#     Edge 13, Type (0, 1), BuildingBlock: MIFKUJ_clean_linker_0, # of connection points: 2
#     Edge 14, Type (0, 1), BuildingBlock: MIFKUJ_clean_linker_0, # of connection points: 2
#     Edge 15, Type (0, 1), BuildingBlock: MIFKUJ_clean_linker_0, # of connection points: 2
#     Edge 16, Type (0, 1), BuildingBlock: MIFKUJ_clean_linker_0, # of connection points: 2
#     Edge 17, Type (0, 1), BuildingBlock: MIFKUJ_clean_linker_0, # of connection points: 2
#     Edge 18, Type (0, 1), BuildingBlock: MIFKUJ_clean_linker_0, # of connection points: 2
#     Edge 19, Type (0, 1), BuildingBlock: MIFKUJ_clean_linker_0, # of connection points: 2
#     Edge 20, Type (0, 1), BuildingBlock: MIFKUJ_clean_linker_0, # of connection points: 2
#     Edge 21, Type (0, 1), BuildingBlock: MIFKUJ_clean_linker_0, # of connection points: 2
#     Edge 22, Type (0, 1), BuildingBlock: MIFKUJ_clean_linker_0, # of connection points: 2
#     Edge 23, Type (0, 1), BuildingBlock: MIFKUJ_clean_linker_0, # of connection points: 2
#     Edge 24, Type (0, 1), BuildingBlock: MIFKUJ_clean_linker_0, # of connection points: 2
#     Edge 25, Type (0, 1), BuildingBlock: MIFKUJ_clean_linker_0, # of connection points: 2
#     Edge 26, Type (0, 1), BuildingBlock: MIFKUJ_clean_linker_0, # of connection points: 2
#     Edge 27, Type (0, 1), BuildingBlock: MIFKUJ_clean_linker_0, # of connection points: 2
#     Edge 28, Type (0, 1), BuildingBlock: MIFKUJ_clean_linker_0, # of connection points: 2
#     Edge 29, Type (0, 1), BuildingBlock: MIFKUJ_clean_linker_0, # of connection points: 2
#     Edge 30, Type (0, 1), BuildingBlock: MIFKUJ_clean_linker_0, # of connection points: 2
#     Edge 31, Type (0, 1), BuildingBlock: MIFKUJ_clean_linker_0, # of connection points: 2
#     Edge 32, Type (0, 1), BuildingBlock: MIFKUJ_clean_linker_0, # of connection points: 2
#     Edge 33, Type (0, 1), BuildingBlock: MIFKUJ_clean_linker_0, # of connection points: 2
#     Edge 34, Type (0, 1), BuildingBlock: MIFKUJ_clean_linker_0, # of connection points: 2
#     Edge 35, Type (0, 1), BuildingBlock: MIFKUJ_clean_linker_0, # of connection points: 2
# Relax obj value: 0.019
# Max RMSD: 0.062
# Mean RMSD: 0.024
data_MOF--net-pry--node1-MIDCAF_clean_sbu_0--node2-ESEHIV_clean_linker_0--edge1-MIFKUJ_clean_linker_0
_symmetry_space_group_name_H-M    P1
_symmetry_Int_Tables_number       1
_symmetry_cell_setting            triclinic
loop_
_symmetry_equiv_pos_as_xyz
'x, y, z'
_cell_length_a     44.39106
_cell_length_b     44.400635
_cell_length_c     44.412224
_cell_angle_alpha  90.024996
_cell_angle_beta   90.138354
_cell_angle_gamma 90.359478
loop_
_atom_site_label
_atom_site_type_symbol
_atom_site_fract_x
_atom_site_fract_y
_atom_site_fract_z
_atom_type_partial_charge
H0 H 0.18616 0.25665 0.25661 0.0
H1 H 0.24983 0.18387 0.25816 0.0
H2 H 0.25245 0.24835 0.18651 0.0
C3 C 0.2052 0.2451 0.24686 0.0
C4 C 0.2176 0.25569 0.21963 0.0
C5 C 0.21676 0.21938 0.2613 0.0
C6 C 0.2413 0.20438 0.24815 0.0
C7 C 0.25398 0.21461 0.22111 0.0
C8 C 0.24218 0.24029 0.20712 0.0
H9 H 0.28007 0.84514 0.75855 0.0
H10 H 0.35099 0.78125 0.74344 0.0
H11 H 0.27631 0.78552 0.68196 0.0
C12 C 0.28929 0.82658 0.74573 0.0
C13 C 0.27472 0.81685 0.71924 0.0
C14 C 0.31695 0.81397 0.75444 0.0
C15 C 0.32952 0.79089 0.737 0.0
C16 C 0.31462 0.78023 0.71125 0.0
C17 C 0.28734 0.79327 0.70238 0.0
H18 H 0.76207 0.29286 0.84932 0.0
H19 H 0.75747 0.35359 0.77418 0.0
H20 H 0.69141 0.28305 0.78373 0.0
C21 C 0.75164 0.29969 0.82836 0.0
C22 C 0.72542 0.28476 0.81846 0.0
C23 C 0.76384 0.32418 0.81225 0.0
C24 C 0.7487 0.33432 0.78631 0.0
C25 C 0.72206 0.3201 0.77622 0.0
C26 C 0.71111 0.29492 0.79209 0.0
H27 H 0.77888 0.7532 0.35004 0.0
H28 H 0.85443 0.76211 0.28953 0.0
H29 H 0.78871 0.69195 0.27603 0.0
C30 C 0.79106 0.74632 0.33009 0.0
C31 C 0.7805 0.72144 0.3136 0.0
C32 C 0.81798 0.76117 0.32193 0.0
C33 C 0.83392 0.75081 0.29656 0.0
C34 C 0.82334 0.72608 0.27979 0.0
C35 C 0.79664 0.71149 0.28847 0.0
H36 H 0.89308 0.95628 0.88471 0.0
H37 H 0.94678 0.87691 0.89716 0.0
H38 H 0.87156 0.89391 0.95552 0.0
C39 C 0.89811 0.93587 0.89708 0.0
C40 C 0.87972 0.92747 0.92135 0.0
C41 C 0.92253 0.91788 0.8883 0.0
C42 C 0.92829 0.89111 0.9041 0.0
C43 C 0.90998 0.88222 0.92837 0.0
C44 C 0.88588 0.90067 0.93695 0.0
H45 H 0.5833 0.16152 0.38451 0.0
H46 H 0.64479 0.08856 0.3702 0.0
H47 H 0.66372 0.15489 0.43838 0.0
C48 C 0.60398 0.15005 0.39039 0.0
C49 C 0.62242 0.1614 0.4136 0.0
C50 C 0.61182 0.12377 0.37478 0.0
C51 C 0.63825 0.10842 0.38274 0.0
C52 C 0.65723 0.11971 0.40549 0.0
C53 C 0.64902 0.14605 0.42093 0.0
H54 H 0.39156 0.64308 0.07324 0.0
H55 H 0.4031 0.58186 0.14713 0.0
H56 H 0.46561 0.65535 0.13478 0.0
C57 C 0.40439 0.63563 0.09264 0.0
C58 C 0.43014 0.65183 0.10161 0.0
C59 C 0.39461 0.61032 0.10885 0.0
C60 C 0.41109 0.60093 0.13408 0.0
C61 C 0.43674 0.61707 0.14368 0.0
C62 C 0.44651 0.64217 0.12694 0.0
H63 H 0.09006 0.37673 0.64594 0.0
H64 H 0.16194 0.39614 0.58409 0.0
H65 H 0.14719 0.4543 0.65995 0.0
C66 C 0.10877 0.39093 0.63907 0.0
C67 C 0.11621 0.41675 0.65594 0.0
C68 C 0.12501 0.3836 0.61296 0.0
C69 C 0.14889 0.40225 0.60375 0.0
C70 C 0.15719 0.42766 0.62076 0.0
C71 C 0.14068 0.4348 0.6467 0.0
Zn72 Zn 0.98415 0.07211 0.56362 0.0
Zn73 Zn 0.03878 0.98888 0.49613 0.0
Zn74 Zn 0.01024 0.02921 0.53163 0.0
C75 C 0.06353 0.04494 0.48313 0.0
C76 C 0.9769 0.98547 0.48264 0.0
O77 O 0.01521 0.01662 0.57971 0.0
O78 O 0.99011 0.05265 0.60307 0.0
C79 C 0.02921 0.10085 0.53314 0.0
O80 O 0.04357 0.05264 0.5027 0.0
O81 O 0.06717 0.01759 0.47638 0.0
O82 O 0.00191 0.97525 0.47399 0.0
O83 O 0.97572 0.00529 0.50386 0.0
O84 O 0.01015 0.10648 0.5533 0.0
O85 O 0.03161 0.07403 0.52224 0.0
O86 O 0.96206 0.02961 0.51889 0.0
O87 O 0.94473 0.06953 0.54309 0.0
C88 C 0.94061 0.04808 0.52486 0.0
O89 O 0.03329 0.99717 0.56219 0.0
O90 O 0.05387 0.96457 0.53071 0.0
C91 C 0.00503 0.02855 0.6041 0.0
C92 C 0.04919 0.97344 0.55734 0.0
Zn93 Zn 0.48916 0.04852 0.98152 0.0
Zn94 Zn 0.55378 0.98183 0.0534 0.0
Zn95 Zn 0.52221 0.01702 0.01927 0.0
C96 C 0.59505 0.01514 0.02025 0.0
C97 C 0.51985 0.94299 0.02019 0.0
O98 O 0.49335 0.04617 0.04748 0.0
O99 O 0.46219 0.06473 0.0133 0.0
C100 C 0.54853 0.06655 0.97217 0.0
O101 O 0.57052 0.02456 0.00788 0.0
O102 O 0.59392 0.99735 0.04236 0.0
O103 O 0.54212 0.94185 0.03778 0.0
O104 O 0.50916 0.96868 0.01191 0.0
O105 O 0.52199 0.07377 0.96507 0.0
O106 O 0.55315 0.04506 0.99116 0.0
O107 O 0.49366 0.9865 0.99118 0.0
O108 O 0.47399 0.01547 0.95572 0.0
C109 C 0.47794 0.98972 0.96694 0.0
O110 O 0.51396 0.03051 0.06681 0.0
O111 O 0.53714 0.99468 0.09249 0.0
C112 C 0.4699 0.06173 0.04053 0.0
C113 C 0.52139 0.01822 0.09206 0.0
Zn114 Zn 0.55448 0.54973 0.53738 0.0
Zn115 Zn 0.47415 0.47931 0.48043 0.0
Zn116 Zn 0.51356 0.51558 0.50851 0.0
C117 C 0.51684 0.44232 0.50697 0.0
C118 C 0.49993 0.51757 0.43694 0.0
O119 O 0.48852 0.54482 0.53964 0.0
O120 O 0.52374 0.57618 0.55659 0.0
C121 C 0.56569 0.49052 0.55393 0.0
O122 O 0.52714 0.46822 0.51528 0.0
O123 O 0.4931 0.44035 0.49138 0.0
O124 O 0.4803 0.49708 0.43992 0.0
O125 O 0.51536 0.52681 0.45982 0.0
O126 O 0.5742 0.51693 0.56039 0.0
O127 O 0.54433 0.48609 0.53468 0.0
O128 O 0.5385 0.5428 0.47437 0.0
O129 O 0.57531 0.56405 0.50084 0.0
C130 C 0.5627 0.55898 0.47586 0.0
O131 O 0.46747 0.52464 0.52678 0.0
O132 O 0.43802 0.49239 0.50223 0.0
C133 C 0.49643 0.56808 0.55521 0.0
C134 C 0.44123 0.51311 0.52141 0.0
Zn135 Zn 0.05834 0.56833 0.98195 0.0
Zn136 Zn 0.99344 0.49079 0.04992 0.0
Zn137 Zn 0.02781 0.52771 0.0143 0.0
C138 C 0.05484 0.48368 0.06591 0.0
C139 C 0.98513 0.47431 0.9886 0.0
O140 O 0.00899 0.57389 0.02049 0.0
O141 O 0.03654 0.60518 0.99304 0.0
C142 C 0.09893 0.54078 0.02161 0.0
O143 O 0.05905 0.50301 0.04463 0.0
O144 O 0.02856 0.47514 0.07284 0.0
O145 O 0.97728 0.46717 0.01502 0.0
O146 O 0.0038 0.49618 0.98414 0.0
O147 O 0.09729 0.56141 0.00216 0.0
O148 O 0.07552 0.52498 0.02858 0.0
O149 O 0.02336 0.51399 0.96659 0.0
O150 O 0.04946 0.54907 0.94247 0.0
C151 C 0.03368 0.52529 0.94194 0.0
O152 O 0.99609 0.55442 0.04159 0.0
O153 O 0.96897 0.52291 0.06938 0.0
C154 C 0.01483 0.60067 0.01075 0.0
C155 C 0.9756 0.54944 0.06151 0.0
H156 H 0.15655 0.21859 0.27638 0.0
H157 H 0.13304 0.19532 0.3203 0.0
H158 H 0.22007 0.16727 0.35244 0.0
H159 H 0.2442 0.19207 0.30964 0.0
H160 H 0.17142 0.12024 0.34217 0.0
H161 H 0.19253 0.21462 0.39187 0.0
H162 H 0.19095 0.26973 0.39833 0.0
H163 H 0.09428 0.26664 0.40006 0.0
H164 H 0.09526 0.21153 0.39311 0.0
H165 H 0.12329 0.04362 0.47055 0.0
H166 H 0.15168 0.07867 0.43878 0.0
H167 H 0.07162 0.132 0.42624 0.0
H168 H 0.04355 0.09743 0.45899 0.0
H169 H 0.1181 0.16801 0.42769 0.0
H170 H 0.09417 0.07753 0.3742 0.0
H171 H 0.09192 0.02278 0.36504 0.0
H172 H 0.18854 0.0188 0.36592 0.0
H173 H 0.19136 0.07351 0.37549 0.0
C174 C 0.17093 0.20834 0.29315 0.0
C175 C 0.20241 0.20718 0.28919 0.0
C176 C 0.15734 0.19489 0.3182 0.0
C177 C 0.17486 0.17967 0.33954 0.0
C178 C 0.20622 0.17896 0.33614 0.0
C179 C 0.2199 0.19289 0.31145 0.0
C180 C 0.16021 0.16205 0.36374 0.0
C181 C 0.1602 0.13061 0.36119 0.0
C182 C 0.14461 0.17578 0.38777 0.0
C183 C 0.14398 0.20897 0.39156 0.0
C184 C 0.17093 0.22572 0.39322 0.0
C185 C 0.17014 0.25695 0.39708 0.0
C186 C 0.14253 0.27169 0.3995 0.0
C187 C 0.11565 0.25521 0.39812 0.0
C188 C 0.11631 0.22397 0.39423 0.0
C189 C 0.11198 0.06314 0.46139 0.0
C190 C 0.08134 0.06799 0.46718 0.0
C191 C 0.12812 0.08307 0.44313 0.0
C192 C 0.11363 0.1076 0.42945 0.0
C193 C 0.08331 0.11323 0.43643 0.0
C194 C 0.06731 0.09356 0.4552 0.0
C195 C 0.12948 0.126 0.40633 0.0
C196 C 0.12952 0.15755 0.40886 0.0
C197 C 0.14456 0.11243 0.38174 0.0
C198 C 0.14296 0.07955 0.37587 0.0
C199 C 0.11493 0.06494 0.37264 0.0
C200 C 0.11356 0.03393 0.36736 0.0
C201 C 0.14007 0.01731 0.36498 0.0
C202 C 0.16802 0.0317 0.36781 0.0
C203 C 0.16953 0.06271 0.37315 0.0
H204 H 0.13896 0.9933 0.36088 0.0
H205 H 0.14197 0.29587 0.40253 0.0
H206 H 0.29855 0.81857 0.81293 0.0
H207 H 0.32698 0.83967 0.85554 0.0
H208 H 0.40138 0.85968 0.79617 0.0
H209 H 0.37365 0.83704 0.75418 0.0
H210 H 0.4233 0.84202 0.84606 0.0
H211 H 0.34571 0.91373 0.82018 0.0
H212 H 0.29348 0.93051 0.81178 0.0
H213 H 0.27102 0.90759 0.90297 0.0
H214 H 0.32306 0.89032 0.91178 0.0
H215 H 0.49009 0.97252 0.91014 0.0
H216 H 0.46409 0.93373 0.88054 0.0
H217 H 0.40987 0.91066 0.95779 0.0
H218 H 0.43591 0.94983 0.98739 0.0
H219 H 0.37648 0.92295 0.90665 0.0
H220 H 0.46124 0.86421 0.93332 0.0
H221 H 0.51448 0.85023 0.939 0.0
H222 H 0.52617 0.85369 0.84321 0.0
H223 H 0.47299 0.86783 0.83676 0.0
C224 C 0.32104 0.82738 0.80919 0.0
C225 C 0.33394 0.82636 0.78038 0.0
C226 C 0.33725 0.83953 0.83345 0.0
C227 C 0.36621 0.85183 0.82908 0.0
C228 C 0.37917 0.85032 0.80028 0.0
C229 C 0.36329 0.83753 0.77624 0.0
C230 C 0.3828 0.86728 0.85396 0.0
C231 C 0.41316 0.85994 0.85909 0.0
C232 C 0.36935 0.89 0.87178 0.0
C233 C 0.33812 0.90042 0.86652 0.0
C234 C 0.32956 0.91209 0.83836 0.0
C235 C 0.30001 0.92171 0.83354 0.0
C236 C 0.27892 0.92003 0.8568 0.0
C237 C 0.28736 0.90882 0.88496 0.0
C238 C 0.31687 0.89912 0.88989 0.0
C239 C 0.4731 0.95863 0.92091 0.0
C240 C 0.46527 0.96355 0.95106 0.0
C241 C 0.45833 0.93648 0.90407 0.0
C242 C 0.43526 0.91911 0.91706 0.0
C243 C 0.42782 0.92361 0.94746 0.0
C244 C 0.44284 0.94568 0.96441 0.0
C245 C 0.41722 0.89847 0.89785 0.0
C246 C 0.38656 0.90481 0.89385 0.0
C247 C 0.43067 0.87539 0.88062 0.0
C248 C 0.46289 0.86709 0.88453 0.0
C249 C 0.47508 0.86213 0.9134 0.0
C250 C 0.5053 0.85415 0.91679 0.0
C251 C 0.52369 0.85111 0.89152 0.0
C252 C 0.51188 0.856 0.86278 0.0
C253 C 0.48164 0.86391 0.85923 0.0
H254 H 0.54709 0.84496 0.89421 0.0
H255 H 0.25606 0.92749 0.85302 0.0
H256 H 0.66069 0.3233 0.76878 0.0
H257 H 0.63276 0.34567 0.72708 0.0
H258 H 0.71624 0.36839 0.68302 0.0
H259 H 0.7445 0.34485 0.72393 0.0
H260 H 0.67562 0.41721 0.69101 0.0
H261 H 0.67538 0.31526 0.65357 0.0
H262 H 0.66579 0.26058 0.65635 0.0
H263 H 0.57148 0.27672 0.66968 0.0
H264 H 0.58058 0.33155 0.66742 0.0
H265 H 0.6254 0.48067 0.55926 0.0
H266 H 0.65023 0.44505 0.5929 0.0
H267 H 0.56356 0.40946 0.61946 0.0
H268 H 0.53878 0.44391 0.58397 0.0
H269 H 0.6027 0.36637 0.62272 0.0
H270 H 0.60056 0.46602 0.66094 0.0
H271 H 0.60744 0.52117 0.66083 0.0
H272 H 0.70289 0.51033 0.65025 0.0
H273 H 0.69653 0.45509 0.64985 0.0
C274 C 0.67322 0.33233 0.74992 0.0
C275 C 0.70499 0.33225 0.7499 0.0
C276 C 0.65714 0.34525 0.72613 0.0
C277 C 0.67243 0.3586 0.70195 0.0
C278 C 0.70403 0.35822 0.70154 0.0
C279 C 0.72015 0.34496 0.7251 0.0
C280 C 0.65559 0.37488 0.67818 0.0
C281 C 0.6601 0.40602 0.67568 0.0
C282 C 0.63422 0.36046 0.65926 0.0
C283 C 0.62873 0.32752 0.66069 0.0
C284 C 0.65264 0.30716 0.65741 0.0
C285 C 0.64728 0.27614 0.65881 0.0
C286 C 0.61806 0.26518 0.66328 0.0
C287 C 0.59412 0.28524 0.66627 0.0
C288 C 0.59936 0.31629 0.66491 0.0
C289 C 0.61175 0.46468 0.57173 0.0
C290 C 0.58027 0.46517 0.56944 0.0
C291 C 0.62588 0.44455 0.59118 0.0
C292 C 0.60873 0.42547 0.60978 0.0
C293 C 0.57729 0.42428 0.60575 0.0
C294 C 0.56314 0.44391 0.58548 0.0
C295 C 0.62363 0.40865 0.63469 0.0
C296 C 0.61836 0.37758 0.63786 0.0
C297 C 0.64404 0.42318 0.65467 0.0
C298 C 0.64803 0.45641 0.65512 0.0
C299 C 0.623 0.4754 0.65841 0.0
C300 C 0.6268 0.50668 0.65845 0.0
C301 C 0.65558 0.51925 0.65547 0.0
C302 C 0.68061 0.50056 0.65252 0.0
C303 C 0.67692 0.46926 0.65242 0.0
H304 H 0.65848 0.54347 0.65551 0.0
H305 H 0.61395 0.24115 0.66435 0.0
H306 H 0.80344 0.71663 0.22248 0.0
H307 H 0.831 0.69363 0.18075 0.0
H308 H 0.90936 0.68485 0.23779 0.0
H309 H 0.8822 0.70923 0.27903 0.0
H310 H 0.92693 0.69815 0.18387 0.0
H311 H 0.85771 0.62517 0.2244 0.0
H312 H 0.80806 0.60564 0.24018 0.0
H313 H 0.77477 0.61527 0.14985 0.0
H314 H 0.82413 0.63527 0.13363 0.0
H315 H 0.99841 0.57513 0.1114 0.0
H316 H 0.97422 0.61212 0.14403 0.0
H317 H 0.8995 0.61738 0.0818 0.0
H318 H 0.92333 0.57916 0.04988 0.0
H319 H 0.87942 0.60914 0.13532 0.0
H320 H 0.95396 0.67649 0.09459 0.0
H321 H 0.00442 0.69607 0.08177 0.0
H322 H 0.03018 0.69378 0.17481 0.0
H323 H 0.97986 0.67451 0.18844 0.0
C324 C 0.82666 0.71005 0.22589 0.0
C325 C 0.84071 0.71446 0.25391 0.0
C326 C 0.84235 0.69678 0.20215 0.0
C327 C 0.87206 0.68677 0.2063 0.0
C328 C 0.88645 0.69225 0.23401 0.0
C329 C 0.87095 0.70612 0.25757 0.0
C330 C 0.88769 0.66948 0.18232 0.0
C331 C 0.91673 0.67846 0.17347 0.0
C332 C 0.87412 0.64418 0.16822 0.0
C333 C 0.8445 0.63198 0.17788 0.0
C334 C 0.83974 0.62329 0.20795 0.0
C335 C 0.81166 0.61213 0.21697 0.0
C336 C 0.78825 0.60929 0.19604 0.0
C337 C 0.79291 0.61753 0.16604 0.0
C338 C 0.82093 0.62877 0.15692 0.0
C339 C 0.97707 0.58469 0.10455 0.0
C340 C 0.96265 0.57466 0.07827 0.0
C341 C 0.96335 0.606 0.12303 0.0
C342 C 0.93517 0.61801 0.11525 0.0
C343 C 0.92128 0.60862 0.08826 0.0
C344 C 0.93485 0.58691 0.07 0.0
C345 C 0.91886 0.63766 0.1368 0.0
C346 C 0.88965 0.62899 0.14541 0.0
C347 C 0.93255 0.66291 0.15095 0.0
C348 C 0.96304 0.67398 0.14255 0.0
C349 C 0.97036 0.68005 0.11235 0.0
C350 C 0.99894 0.69111 0.10491 0.0
C351 C 0.02049 0.69601 0.12737 0.0
C352 C 0.01347 0.68998 0.15741 0.0
C353 C 0.98488 0.67912 0.16503 0.0
H354 H 0.0426 0.70453 0.1215 0.0
H355 H 0.76653 0.60064 0.20307 0.0
H356 H 0.30713 0.19625 0.24627 0.0
H357 H 0.34763 0.16768 0.22182 0.0
H358 H 0.29623 0.16542 0.13933 0.0
H359 H 0.25608 0.19432 0.16341 0.0
H360 H 0.32155 0.10741 0.16076 0.0
H361 H 0.34928 0.21298 0.14211 0.0
H362 H 0.36261 0.26425 0.15916 0.0
H363 H 0.43687 0.22906 0.21005 0.0
H364 H 0.42371 0.17752 0.1936 0.0
H365 H 0.40932 0.06804 0.03824 0.0
H366 H 0.3765 0.09115 0.07538 0.0
H367 H 0.45321 0.10842 0.13295 0.0
H368 H 0.48633 0.08754 0.09404 0.0
H369 H 0.41944 0.15474 0.13401 0.0
H370 H 0.39936 0.05191 0.14952 0.0
H371 H 0.38817 0.99892 0.13699 0.0
H372 H 0.30273 0.02461 0.09982 0.0
H373 H 0.31358 0.07785 0.1117 0.0
C374 C 0.30459 0.18962 0.22292 0.0
C375 C 0.27862 0.19757 0.20662 0.0
C376 C 0.32767 0.1734 0.20902 0.0
C377 C 0.32483 0.16449 0.17882 0.0
C378 C 0.29876 0.17209 0.16268 0.0
C379 C 0.27599 0.18872 0.17636 0.0
C380 C 0.34896 0.1474 0.16365 0.0
C381 C 0.34293 0.11769 0.15473 0.0
C382 C 0.37736 0.16042 0.15724 0.0
C383 C 0.38529 0.1914 0.16693 0.0
C384 C 0.36828 0.21616 0.15716 0.0
C385 C 0.37584 0.24527 0.16666 0.0
C386 C 0.40052 0.2499 0.18575 0.0
C387 C 0.41773 0.22544 0.1953 0.0
C388 C 0.41024 0.19629 0.18589 0.0
C389 C 0.4192 0.07667 0.05887 0.0
C390 C 0.45038 0.07496 0.06392 0.0
C391 C 0.40035 0.08958 0.08029 0.0
C392 C 0.41214 0.10068 0.10754 0.0
C393 C 0.44341 0.09947 0.11243 0.0
C394 C 0.46234 0.0869 0.09063 0.0
C395 C 0.39169 0.11487 0.12989 0.0
C396 C 0.39836 0.14403 0.14035 0.0
C397 C 0.36418 0.10099 0.1385 0.0
C398 C 0.35738 0.06895 0.13136 0.0
C399 C 0.37826 0.04631 0.13849 0.0
C400 C 0.37197 0.01621 0.13153 0.0
C401 C 0.34477 0.00841 0.11759 0.0
C402 C 0.32379 0.03069 0.11063 0.0
C403 C 0.32998 0.06084 0.11751 0.0
H404 H 0.33994 0.9851 0.11221 0.0
H405 H 0.40634 0.27246 0.19307 0.0
H406 H 0.22271 0.83102 0.74934 0.0
H407 H 0.17891 0.85848 0.72945 0.0
H408 H 0.22335 0.86732 0.64364 0.0
H409 H 0.26668 0.83967 0.66314 0.0
H410 H 0.19825 0.92154 0.66537 0.0
H411 H 0.17328 0.81748 0.64928 0.0
H412 H 0.164 0.76481 0.66417 0.0
H413 H 0.09063 0.79271 0.72024 0.0
H414 H 0.09972 0.84559 0.70599 0.0
H415 H 0.06436 0.91437 0.55843 0.0
H416 H 0.09666 0.88893 0.59466 0.0
H417 H 0.09984 0.96944 0.64909 0.0
H418 H 0.06889 0.99561 0.61176 0.0
H419 H 0.09838 0.87281 0.6508 0.0
H420 H 0.16872 0.97707 0.6792 0.0
H421 H 0.18007 0.02765 0.65894 0.0
H422 H 0.16599 0.99502 0.56892 0.0
H423 H 0.15482 0.94422 0.58868 0.0
C424 C 0.22299 0.83883 0.72624 0.0
C425 C 0.24793 0.83303 0.70767 0.0
C426 C 0.19804 0.85444 0.71493 0.0
C427 C 0.19795 0.86492 0.68509 0.0
C428 C 0.22301 0.85947 0.66674 0.0
C429 C 0.24762 0.84348 0.67782 0.0
C430 C 0.17181 0.88138 0.67251 0.0
C431 C 0.17629 0.91102 0.66252 0.0
C432 C 0.14328 0.86753 0.66855 0.0
C433 C 0.13768 0.83568 0.67713 0.0
C434 C 0.15546 0.81248 0.66514 0.0
C435 C 0.15014 0.78253 0.67336 0.0
C436 C 0.12687 0.77543 0.69331 0.0
C437 C 0.10876 0.79825 0.70493 0.0
C438 C 0.11402 0.82825 0.69681 0.0
C439 C 0.0716 0.92657 0.57834 0.0
C440 C 0.06402 0.957 0.58225 0.0
C441 C 0.0899 0.91189 0.5992 0.0
C442 C 0.10109 0.92729 0.6245 0.0
C443 C 0.09184 0.95713 0.62958 0.0
C444 C 0.07385 0.97201 0.60839 0.0
C445 C 0.12489 0.91294 0.64323 0.0
C446 C 0.12007 0.88365 0.65436 0.0
C447 C 0.15342 0.9268 0.64761 0.0
C448 C 0.16068 0.95701 0.63543 0.0
C449 C 0.16816 0.98071 0.65509 0.0
C450 C 0.17453 0.0094 0.6437 0.0
C451 C 0.17366 0.01456 0.61267 0.0
C452 C 0.16657 0.99101 0.59295 0.0
C453 C 0.16021 0.96228 0.60423 0.0
H454 H 0.17855 0.03679 0.6039 0.0
H455 H 0.12277 0.75222 0.69963 0.0
H456 H 0.77783 0.38486 0.81121 0.0
H457 H 0.82205 0.40992 0.83295 0.0
H458 H 0.8566 0.32412 0.86163 0.0
H459 H 0.81348 0.29859 0.83856 0.0
H460 H 0.84521 0.37275 0.90801 0.0
H461 H 0.89407 0.35237 0.81318 0.0
H462 H 0.89993 0.35462 0.75806 0.0
H463 H 0.90311 0.4512 0.76177 0.0
H464 H 0.89665 0.44957 0.81689 0.0
H465 H 0.97433 0.41442 0.98439 0.0
H466 H 0.94313 0.3885 0.947 0.0
H467 H 0.93115 0.47215 0.89911 0.0
H468 H 0.96354 0.49795 0.93604 0.0
H469 H 0.93127 0.42601 0.86013 0.0
H470 H 0.87969 0.44906 0.95135 0.0
H471 H 0.87159 0.45044 0.00624 0.0
H472 H 0.86969 0.35378 0.00895 0.0
H473 H 0.87823 0.35181 0.9541 0.0
C474 C 0.79519 0.37114 0.82132 0.0
C475 C 0.79178 0.3396 0.82331 0.0
C476 C 0.82043 0.38557 0.83381 0.0
C477 C 0.84255 0.36883 0.84877 0.0
C478 C 0.83974 0.3374 0.85009 0.0
C479 C 0.81485 0.32291 0.83719 0.0
C480 C 0.86666 0.38417 0.86614 0.0
C481 C 0.86427 0.38403 0.89757 0.0
C482 C 0.89078 0.39987 0.85234 0.0
C483 C 0.89434 0.40085 0.81915 0.0
C484 C 0.89553 0.37411 0.80222 0.0
C485 C 0.89904 0.37527 0.77097 0.0
C486 C 0.90163 0.40304 0.7564 0.0
C487 C 0.90091 0.42971 0.77307 0.0
C488 C 0.89732 0.42868 0.80432 0.0
C489 C 0.96559 0.4271 0.96548 0.0
C490 C 0.97107 0.45816 0.96315 0.0
C491 C 0.94769 0.41233 0.94419 0.0
C492 C 0.93405 0.42854 0.92074 0.0
C493 C 0.94124 0.45921 0.91713 0.0
C494 C 0.95971 0.47393 0.93821 0.0
C495 C 0.91011 0.41408 0.90212 0.0
C496 C 0.91229 0.41462 0.87057 0.0
C497 C 0.88527 0.39922 0.9157 0.0
C498 C 0.87988 0.40029 0.94866 0.0
C499 C 0.87774 0.42809 0.96368 0.0
C500 C 0.87305 0.42898 0.99478 0.0
C501 C 0.8702 0.40221 0.01108 0.0
C502 C 0.87195 0.37449 0.99629 0.0
C503 C 0.87669 0.37348 0.9652 0.0
H504 H 0.86657 0.40295 0.03516 0.0
H505 H 0.9044 0.40389 0.73221 0.0
H506 H 0.72239 0.74083 0.3162 0.0
H507 H 0.67817 0.71239 0.3337 0.0
H508 H 0.73502 0.63613 0.35301 0.0
H509 H 0.77862 0.66395 0.33374 0.0
H510 H 0.68637 0.61565 0.33202 0.0
H511 H 0.70878 0.68972 0.40835 0.0
H512 H 0.71712 0.74087 0.42854 0.0
H513 H 0.62763 0.76584 0.40193 0.0
H514 H 0.61891 0.71491 0.38123 0.0
H515 H 0.61898 0.54672 0.45812 0.0
H516 H 0.64851 0.57306 0.41991 0.0
H517 H 0.57056 0.62536 0.39556 0.0
H518 H 0.54072 0.59858 0.43407 0.0
H519 H 0.62137 0.6599 0.41096 0.0
H520 H 0.59894 0.5772 0.34577 0.0
H521 H 0.59399 0.52319 0.33352 0.0
H522 H 0.68915 0.51181 0.3455 0.0
H523 H 0.69447 0.56537 0.35931 0.0
C524 C 0.72519 0.71791 0.32404 0.0
C525 C 0.7537 0.70448 0.32381 0.0
C526 C 0.70003 0.70172 0.33418 0.0
C527 C 0.7032 0.67219 0.34523 0.0
C528 C 0.73181 0.65877 0.34455 0.0
C529 C 0.75676 0.67468 0.33372 0.0
C530 C 0.67718 0.65535 0.35831 0.0
C531 C 0.67228 0.62534 0.34938 0.0
C532 C 0.65815 0.66807 0.38047 0.0
C533 C 0.66334 0.69867 0.3929 0.0
C534 C 0.69097 0.7062 0.40661 0.0
C535 C 0.69575 0.73513 0.41817 0.0
C536 C 0.67295 0.75663 0.41643 0.0
C537 C 0.64529 0.7492 0.40319 0.0
C538 C 0.64041 0.72031 0.39155 0.0
C539 C 0.60795 0.56322 0.44397 0.0
C540 C 0.57765 0.57055 0.44871 0.0
C541 C 0.62479 0.57822 0.42212 0.0
C542 C 0.61172 0.60108 0.40476 0.0
C543 C 0.58101 0.60768 0.40864 0.0
C544 C 0.56398 0.59234 0.43043 0.0
C545 C 0.63133 0.62004 0.38535 0.0
C546 C 0.63504 0.65047 0.39311 0.0
C547 C 0.64992 0.60739 0.36287 0.0
C548 C 0.647 0.57529 0.35378 0.0
C549 C 0.61873 0.56309 0.34607 0.0
C550 C 0.61588 0.53257 0.3388 0.0
C551 C 0.64123 0.51412 0.33853 0.0
C552 C 0.66952 0.52614 0.34567 0.0
C553 C 0.67245 0.55657 0.35331 0.0
H554 H 0.63894 0.49051 0.33282 0.0
H555 H 0.67669 0.77901 0.4254 0.0
H556 H 0.19363 0.30707 0.24451 0.0
H557 H 0.16988 0.34915 0.21834 0.0
H558 H 0.18902 0.30763 0.13286 0.0
H559 H 0.21128 0.2646 0.15866 0.0
H560 H 0.20398 0.37304 0.13902 0.0
H561 H 0.123 0.30093 0.15285 0.0
H562 H 0.0911 0.26673 0.18294 0.0
H563 H 0.06324 0.34091 0.23811 0.0
H564 H 0.09537 0.37549 0.2086 0.0
H565 H 0.10276 0.45395 0.0422 0.0
H566 H 0.13731 0.4207 0.06948 0.0
H567 H 0.09658 0.4472 0.1535 0.0
H568 H 0.06213 0.48018 0.12616 0.0
H569 H 0.09404 0.38948 0.14864 0.0
H570 H 0.17439 0.46064 0.14182 0.0
H571 H 0.21213 0.49597 0.12165 0.0
H572 H 0.24279 0.4285 0.05978 0.0
H573 H 0.20556 0.39238 0.08024 0.0
C574 C 0.19251 0.30658 0.22016 0.0
C575 C 0.20436 0.2822 0.20381 0.0
C576 C 0.17916 0.33083 0.20526 0.0
C577 C 0.17775 0.33142 0.17372 0.0
C578 C 0.19011 0.30762 0.15724 0.0
C579 C 0.203 0.28311 0.1721 0.0
C580 C 0.16255 0.3565 0.15797 0.0
C581 C 0.17987 0.37648 0.14066 0.0
C582 C 0.13132 0.36145 0.16112 0.0
C583 C 0.11184 0.34073 0.17873 0.0
C584 C 0.11029 0.3099 0.17157 0.0
C585 C 0.09213 0.29046 0.18849 0.0
C586 C 0.07522 0.30163 0.21248 0.0
C587 C 0.07638 0.33228 0.21955 0.0
C588 C 0.09455 0.35182 0.20272 0.0
C589 C 0.10227 0.45369 0.06657 0.0
C590 C 0.08023 0.46991 0.08217 0.0
C591 C 0.12186 0.43454 0.08219 0.0
C592 C 0.11956 0.43132 0.11362 0.0
C593 C 0.09876 0.44914 0.12928 0.0
C594 C 0.07918 0.46808 0.11369 0.0
C595 C 0.13546 0.40657 0.1296 0.0
C596 C 0.11818 0.38631 0.14685 0.0
C597 C 0.16681 0.40173 0.12684 0.0
C598 C 0.18702 0.42397 0.11232 0.0
C599 C 0.18885 0.45349 0.12358 0.0
C600 C 0.21033 0.47358 0.11226 0.0
C601 C 0.22985 0.46452 0.08939 0.0
C602 C 0.2277 0.43544 0.07755 0.0
C603 C 0.20652 0.4151 0.0891 0.0
H604 H 0.24678 0.47994 0.08099 0.0
H605 H 0.06117 0.28654 0.22554 0.0
H606 H 0.75557 0.24039 0.84958 0.0
H607 H 0.73384 0.19929 0.87941 0.0
H608 H 0.64455 0.22894 0.85623 0.0
H609 H 0.66575 0.27111 0.82792 0.0
H610 H 0.67119 0.2115 0.92752 0.0
H611 H 0.6291 0.15155 0.82396 0.0
H612 H 0.64357 0.14205 0.77116 0.0
H613 H 0.737 0.14253 0.79653 0.0
H614 H 0.72299 0.15164 0.84947 0.0
H615 H 0.54903 0.08978 0.91606 0.0
H616 H 0.58717 0.12182 0.89306 0.0
H617 H 0.6433 0.11263 0.972 0.0
H618 H 0.604 0.08167 0.99592 0.0
H619 H 0.64283 0.11621 0.87602 0.0
H620 H 0.6828 0.17931 0.98142 0.0
H621 H 0.66561 0.19101 0.03292 0.0
H622 H 0.57351 0.18689 0.00331 0.0
H623 H 0.59019 0.17546 0.95162 0.0
C624 C 0.73129 0.23851 0.85113 0.0
C625 C 0.71247 0.25916 0.83613 0.0
C626 C 0.71897 0.21485 0.86802 0.0
C627 C 0.68767 0.21107 0.86973 0.0
C628 C 0.66881 0.23148 0.85494 0.0
C629 C 0.68103 0.25539 0.83848 0.0
C630 C 0.6742 0.18571 0.88664 0.0
C631 C 0.66555 0.19034 0.9166 0.0
C632 C 0.66644 0.15848 0.87212 0.0
C633 C 0.67502 0.15265 0.8405 0.0
C634 C 0.65271 0.14958 0.81822 0.0
C635 C 0.66083 0.14426 0.78829 0.0
C636 C 0.69119 0.14182 0.78047 0.0
C637 C 0.7135 0.14458 0.80258 0.0
C638 C 0.70548 0.1499 0.83253 0.0
C639 C 0.56957 0.09442 0.92851 0.0
C640 C 0.57366 0.08303 0.95772 0.0
C641 C 0.5915 0.11258 0.91521 0.0
C642 C 0.61807 0.11987 0.93079 0.0
C643 C 0.62284 0.10757 0.95961 0.0
C644 C 0.6006 0.08954 0.97312 0.0
C645 C 0.63942 0.14187 0.91714 0.0
C646 C 0.64917 0.1369 0.88747 0.0
C647 C 0.64808 0.16884 0.93201 0.0
C648 C 0.63775 0.17613 0.96282 0.0
C649 C 0.65889 0.18094 0.98594 0.0
C650 C 0.64924 0.18752 0.01514 0.0
C651 C 0.61848 0.18956 0.02141 0.0
C652 C 0.59732 0.18517 0.99845 0.0
C653 C 0.60686 0.17862 0.96921 0.0
H654 H 0.61105 0.19463 0.04403 0.0
H655 H 0.69744 0.1377 0.75729 0.0
H656 H 0.87699 0.77465 0.3355 0.0
H657 H 0.8964 0.8164 0.3655 0.0
H658 H 0.80568 0.84633 0.38218 0.0
H659 H 0.78611 0.80581 0.35039 0.0
H660 H 0.83836 0.89275 0.37263 0.0
H661 H 0.84863 0.8076 0.43648 0.0
H662 H 0.86371 0.75632 0.45126 0.0
H663 H 0.95677 0.77998 0.43872 0.0
H664 H 0.94223 0.8313 0.42346 0.0
H665 H 0.936 0.95084 0.51178 0.0
H666 H 0.89809 0.91773 0.48862 0.0
H667 H 0.9197 0.95443 0.4013 0.0
H668 H 0.95755 0.98753 0.42458 0.0
H669 H 0.91473 0.87477 0.45214 0.0
H670 H 0.86708 0.94604 0.35442 0.0
H671 H 0.83879 0.99269 0.34426 0.0
H672 H 0.80596 0.99267 0.43511 0.0
H673 H 0.83504 0.94684 0.44611 0.0
C674 C 0.86109 0.79034 0.34508 0.0
C675 C 0.82989 0.78672 0.3404 0.0
C676 C 0.87226 0.81401 0.3627 0.0
C677 C 0.85252 0.83428 0.37665 0.0
C678 C 0.8214 0.83093 0.37183 0.0
C679 C 0.81021 0.80749 0.35386 0.0
C680 C 0.86442 0.85917 0.39587 0.0
C681 C 0.85506 0.88875 0.39003 0.0
C682 C 0.88543 0.85406 0.41935 0.0
C683 C 0.89431 0.82323 0.42859 0.0
C684 C 0.8723 0.80181 0.43667 0.0
C685 C 0.88075 0.77274 0.44517 0.0
C686 C 0.91117 0.76488 0.44587 0.0
C687 C 0.93321 0.78609 0.43814 0.0
C688 C 0.92488 0.81519 0.4296 0.0
C689 C 0.93173 0.95261 0.48782 0.0
C690 C 0.9493 0.97189 0.46994 0.0
C691 C 0.91018 0.93363 0.47457 0.0
C692 C 0.90595 0.93353 0.44318 0.0
C693 C 0.92215 0.95434 0.42557 0.0
C694 C 0.94385 0.97318 0.43883 0.0
C695 C 0.88915 0.90843 0.42843 0.0
C696 C 0.89786 0.87874 0.43491 0.0
C697 C 0.86679 0.91331 0.4063 0.0
C698 C 0.85341 0.94326 0.40112 0.0
C699 C 0.85432 0.95642 0.37236 0.0
C700 C 0.83815 0.98269 0.36647 0.0
C701 C 0.82055 0.99562 0.38901 0.0
C702 C 0.81979 0.98282 0.41775 0.0
C703 C 0.83642 0.95692 0.42394 0.0
H704 H 0.80753 0.01557 0.38419 0.0
H705 H 0.91767 0.74237 0.45245 0.0
H706 H 0.29913 0.72091 0.70868 0.0
H707 H 0.32477 0.68087 0.68034 0.0
H708 H 0.38678 0.74666 0.64419 0.0
H709 H 0.36154 0.78646 0.67292 0.0
H710 H 0.36288 0.70366 0.60084 0.0
H711 H 0.40886 0.70817 0.7002 0.0
H712 H 0.40772 0.70625 0.75566 0.0
H713 H 0.37188 0.61625 0.75219 0.0
H714 H 0.37243 0.61781 0.69668 0.0
H715 H 0.49334 0.62879 0.55446 0.0
H716 H 0.45631 0.6608 0.57932 0.0
H717 H 0.41154 0.58192 0.61477 0.0
H718 H 0.44964 0.54989 0.59062 0.0
H719 H 0.41985 0.62624 0.65753 0.0
H720 H 0.38068 0.61817 0.55888 0.0
H721 H 0.38065 0.61912 0.50351 0.0
H722 H 0.40192 0.71358 0.50461 0.0
H723 H 0.40252 0.7132 0.56011 0.0
C724 C 0.3181 0.72666 0.69446 0.0
C725 C 0.32854 0.75651 0.69282 0.0
C726 C 0.33268 0.70392 0.67837 0.0
C727 C 0.35766 0.71088 0.66025 0.0
C728 C 0.36748 0.7409 0.65796 0.0
C729 C 0.35319 0.76352 0.67437 0.0
C730 C 0.3746 0.68682 0.64472 0.0
C731 C 0.37552 0.68682 0.61315 0.0
C732 C 0.39021 0.66432 0.6609 0.0
C733 C 0.39021 0.66329 0.69428 0.0
C734 C 0.40043 0.68809 0.71125 0.0
C735 C 0.39997 0.68704 0.74271 0.0
C736 C 0.38961 0.66119 0.75745 0.0
C737 C 0.3798 0.6363 0.74075 0.0
C738 C 0.38018 0.63726 0.70929 0.0
C739 C 0.47553 0.61832 0.5675 0.0
C740 C 0.47365 0.58687 0.57005 0.0
C741 C 0.45431 0.63657 0.58152 0.0
C742 C 0.43088 0.62372 0.59846 0.0
C743 C 0.42925 0.59226 0.6015 0.0
C744 C 0.45056 0.57397 0.58734 0.0
C745 C 0.40885 0.64353 0.61358 0.0
C746 C 0.40696 0.6428 0.64509 0.0
C747 C 0.39221 0.66525 0.5973 0.0
C748 C 0.39172 0.66564 0.56381 0.0
C749 C 0.38549 0.63917 0.54741 0.0
C750 C 0.38537 0.63959 0.51594 0.0
C751 C 0.39129 0.66639 0.50054 0.0
C752 C 0.39731 0.69284 0.51658 0.0
C753 C 0.3975 0.69254 0.54806 0.0
H754 H 0.3912 0.66668 0.47617 0.0
H755 H 0.38927 0.66042 0.7818 0.0
H756 H 0.94328 0.97398 0.8732 0.0
H757 H 0.96748 0.98922 0.8262 0.0
H758 H 0.96839 0.89678 0.79655 0.0
H759 H 0.94348 0.88132 0.84323 0.0
H760 H 0.0227 0.93424 0.78071 0.0
H761 H 0.91341 0.93266 0.77392 0.0
H762 H 0.86266 0.94536 0.79226 0.0
H763 H 0.88392 0.03962 0.78583 0.0
H764 H 0.93502 0.02744 0.76795 0.0
H765 H 0.00708 0.96822 0.6177 0.0
H766 H 0.00496 0.94582 0.66832 0.0
H767 H 0.0076 0.03457 0.70766 0.0
H768 H 0.01082 0.05691 0.65759 0.0
H769 H 0.95377 0.99599 0.71829 0.0
H770 H 0.06056 1.00039 0.7237 0.0
H771 H 0.11345 0.99113 0.71016 0.0
H772 H 0.09989 0.89618 0.722 0.0
H773 H 0.04649 0.90464 0.73458 0.0
C774 C 0.94881 0.95683 0.8568 0.0
C775 C 0.941 0.9265 0.86176 0.0
C776 C 0.96292 0.96554 0.83013 0.0
C777 C 0.96953 0.94411 0.80793 0.0
C778 C 0.96362 0.91358 0.81354 0.0
C779 C 0.94935 0.90483 0.84022 0.0
C780 C 0.9787 0.95416 0.77755 0.0
C781 C 0.00757 0.94733 0.76674 0.0
C782 C 0.95907 0.97177 0.75981 0.0
C783 C 0.92811 0.97913 0.76985 0.0
C784 C 0.90733 0.95609 0.77661 0.0
C785 C 0.8785 0.96319 0.78691 0.0
C786 C 0.87009 0.99328 0.79027 0.0
C787 C 0.89047 0.01632 0.78324 0.0
C788 C 0.91936 0.00933 0.77301 0.0
C789 C 0.00842 0.9828 0.63721 0.0
C790 C 0.00923 0.01426 0.63378 0.0
C791 C 0.00713 0.97002 0.66604 0.0
C792 C 0.00618 0.98863 0.69158 0.0
C793 C 0.00848 0.0199 0.68817 0.0
C794 C 0.01017 0.03259 0.65957 0.0
C795 C 0.99789 0.97626 0.72129 0.0
C796 C 0.96894 0.98262 0.73198 0.0
C797 C 0.01765 0.95858 0.73885 0.0
C798 C 0.04927 0.95314 0.7296 0.0
C799 C 0.06858 0.97744 0.72273 0.0
C800 C 0.09872 0.97233 0.71537 0.0
C801 C 0.10996 0.94304 0.71511 0.0
C802 C 0.09103 0.91878 0.72198 0.0
C803 C 0.06081 0.92372 0.72919 0.0
H804 H 0.13338 0.93915 0.70982 0.0
H805 H 0.84777 0.99873 0.79828 0.0
H806 H 0.59344 0.15692 0.32678 0.0
H807 H 0.56669 0.13938 0.28193 0.0
H808 H 0.56121 0.04995 0.31983 0.0
H809 H 0.58929 0.06733 0.3642 0.0
H810 H 0.57852 0.04497 0.26647 0.0
H811 H 0.49789 0.09889 0.30998 0.0
H812 H 0.47085 0.14114 0.3334 0.0
H813 H 0.4846 0.19466 0.25407 0.0
H814 H 0.51228 0.15297 0.23037 0.0
H815 H 0.49585 0.99302 0.14139 0.0
H816 H 0.49917 0.01225 0.1931 0.0
H817 H 0.53949 0.09444 0.16023 0.0
H818 H 0.53716 0.0748 0.10869 0.0
H819 H 0.497 0.09982 0.21351 0.0
H820 H 0.58564 0.04616 0.176 0.0
H821 H 0.60975 0.00198 0.15281 0.0
H822 H 0.57587 0.94555 0.22374 0.0
H823 H 0.55112 0.98938 0.24706 0.0
C824 C 0.58612 0.13362 0.32566 0.0
C825 C 0.59339 0.11344 0.34887 0.0
C826 C 0.57061 0.12363 0.30011 0.0
C827 C 0.5614 0.09339 0.29756 0.0
C828 C 0.56801 0.07339 0.32119 0.0
C829 C 0.58405 0.08327 0.34652 0.0
C830 C 0.54748 0.08212 0.26912 0.0
C831 C 0.5602 0.05669 0.25541 0.0
C832 C 0.52379 0.09749 0.25419 0.0
C833 C 0.50744 0.12282 0.26849 0.0
C834 C 0.49544 0.11976 0.29763 0.0
C835 C 0.47995 0.14361 0.31095 0.0
C836 C 0.47608 0.17059 0.29527 0.0
C837 C 0.48767 0.17377 0.26622 0.0
C838 C 0.50326 0.15003 0.25283 0.0
C839 C 0.50431 0.01565 0.14518 0.0
C840 C 0.51545 0.03287 0.1211 0.0
C841 C 0.50621 0.02657 0.17464 0.0
C842 C 0.51945 0.05478 0.18037 0.0
C843 C 0.52877 0.07282 0.15616 0.0
C844 C 0.52728 0.06169 0.12676 0.0
C845 C 0.52835 0.06322 0.21136 0.0
C846 C 0.51486 0.08804 0.22524 0.0
C847 C 0.55099 0.04713 0.22679 0.0
C848 C 0.56626 0.02093 0.21305 0.0
C849 C 0.58313 0.02428 0.1865 0.0
C850 C 0.59693 0.99932 0.17335 0.0
C851 C 0.59426 0.97095 0.18674 0.0
C852 C 0.57786 0.96752 0.21336 0.0
C853 C 0.56395 0.99241 0.22655 0.0
H854 H 0.60497 0.95165 0.17654 0.0
H855 H 0.46404 0.18901 0.30561 0.0
H856 H 0.40852 0.60627 0.1968 0.0
H857 H 0.43114 0.59524 0.24557 0.0
H858 H 0.5198 0.60101 0.20641 0.0
H859 H 0.49707 0.612 0.15698 0.0
H860 H 0.51083 0.55017 0.24491 0.0
H861 H 0.50127 0.65619 0.24898 0.0
H862 H 0.47639 0.70522 0.24226 0.0
H863 H 0.4081 0.67948 0.30571 0.0
H864 H 0.43228 0.63009 0.31245 0.0
H865 H 0.55047 0.53034 0.40326 0.0
H866 H 0.55144 0.55317 0.35259 0.0
H867 H 0.45474 0.56078 0.35424 0.0
H868 H 0.45364 0.53823 0.40428 0.0
H869 H 0.48314 0.6125 0.33325 0.0
H870 H 0.48861 0.50351 0.32157 0.0
H871 H 0.51237 0.45373 0.32635 0.0
H872 H 0.58846 0.48493 0.27538 0.0
H873 H 0.56549 0.5352 0.27097 0.0
C874 C 0.43283 0.60491 0.19842 0.0
C875 C 0.45103 0.60976 0.17302 0.0
C876 C 0.44574 0.59889 0.22638 0.0
C877 C 0.47714 0.59762 0.22965 0.0
C878 C 0.49551 0.60205 0.20433 0.0
C879 C 0.48254 0.60839 0.17622 0.0
C880 C 0.49011 0.59125 0.25976 0.0
C881 C 0.50558 0.56417 0.26421 0.0
C882 C 0.48313 0.60953 0.28484 0.0
C883 C 0.46858 0.63935 0.28114 0.0
C884 C 0.48085 0.6609 0.26137 0.0
C885 C 0.46687 0.68877 0.25757 0.0
C886 C 0.44067 0.69545 0.27354 0.0
C887 C 0.42842 0.67428 0.29337 0.0
C888 C 0.44228 0.64635 0.29723 0.0
C889 C 0.52959 0.53743 0.39287 0.0
C890 C 0.50199 0.53284 0.4076 0.0
C891 C 0.53017 0.55022 0.36397 0.0
C892 C 0.50321 0.55866 0.34971 0.0
C893 C 0.47582 0.5546 0.36486 0.0
C894 C 0.4752 0.5416 0.39336 0.0
C895 C 0.5026 0.57072 0.31858 0.0
C896 C 0.48938 0.59897 0.31392 0.0
C897 C 0.51171 0.55347 0.29337 0.0
C898 C 0.52563 0.52335 0.29652 0.0
C899 C 0.51064 0.49995 0.31182 0.0
C900 C 0.52392 0.47159 0.31438 0.0
C901 C 0.55198 0.46621 0.30132 0.0
C902 C 0.56675 0.48914 0.28555 0.0
C903 C 0.55365 0.51759 0.28308 0.0
H904 H 0.56221 0.44424 0.30331 0.0
H905 H 0.42988 0.71704 0.27056 0.0
H906 H 0.09588 0.37902 0.70068 0.0
H907 H 0.07197 0.39324 0.74827 0.0
H908 H 0.07433 0.48653 0.72137 0.0
H909 H 0.09774 0.47253 0.67376 0.0
H910 H 0.10094 0.47736 0.77541 0.0
H911 H 0.0089 0.44838 0.72594 0.0
H912 H 0.97385 0.41446 0.69907 0.0
H913 H 0.97445 0.35337 0.77396 0.0
H914 H 0.01001 0.38663 0.80109 0.0
H915 H 0.02722 0.55206 0.8877 0.0
H916 H 0.03133 0.52839 0.83833 0.0
H917 H 0.03517 0.4409 0.88023 0.0
H918 H 0.0309 0.46464 0.93008 0.0
H919 H 0.00458 0.44285 0.82064 0.0
H920 H 0.09805 0.47024 0.86884 0.0
H921 H 0.13236 0.50441 0.89641 0.0
H922 H 0.12862 0.5679 0.82361 0.0
H923 H 0.09386 0.5343 0.79581 0.0
C924 C 0.0907 0.40249 0.70464 0.0
C925 C 0.09907 0.4247 0.68357 0.0
C926 C 0.07701 0.41056 0.73184 0.0
C927 C 0.07138 0.44094 0.73838 0.0
C928 C 0.07859 0.46296 0.71685 0.0
C929 C 0.09218 0.45494 0.68973 0.0
C930 C 0.06097 0.45037 0.76868 0.0
C931 C 0.07969 0.47 0.78505 0.0
C932 C 0.03373 0.43995 0.78178 0.0
C933 C 0.01258 0.41978 0.76535 0.0
C934 C 0.00193 0.42751 0.73653 0.0
C935 C 0.98191 0.40842 0.72127 0.0
C936 C 0.97218 0.38164 0.73468 0.0
C937 C 0.98222 0.37401 0.7635 0.0
C938 C 0.00231 0.39297 0.77883 0.0
C939 C 0.02811 0.52771 0.88639 0.0
C940 C 0.02906 0.51018 0.91267 0.0
C941 C 0.03036 0.51422 0.85817 0.0
C942 C 0.03404 0.48298 0.85571 0.0
C943 C 0.03234 0.46507 0.88172 0.0
C944 C 0.02991 0.47863 0.91013 0.0
C945 C 0.04432 0.47019 0.82671 0.0
C946 C 0.02582 0.44994 0.81082 0.0
C947 C 0.0719 0.4798 0.81391 0.0
C948 C 0.09315 0.49987 0.83037 0.0
C949 C 0.10437 0.49159 0.85881 0.0
C950 C 0.12392 0.51084 0.87447 0.0
C951 C 0.13262 0.53834 0.8618 0.0
C952 C 0.12184 0.5466 0.83341 0.0
C953 C 0.10224 0.52745 0.81768 0.0
H954 H 0.14775 0.55321 0.87395 0.0
H955 H 0.95663 0.36692 0.72285 0.0
H956 H 0.86217 0.9444 0.9777 0.0
H957 H 0.81575 0.97011 0.99188 0.0
H958 H 0.79097 0.97777 0.89824 0.0
H959 H 0.8375 0.95214 0.88387 0.0
H960 H 0.77486 0.02869 0.93174 0.0
H961 H 0.76368 0.921 0.93711 0.0
H962 H 0.77819 0.86981 0.95276 0.0
H963 H 0.76905 0.89497 0.04564 0.0
H964 H 0.75496 0.94648 0.03054 0.0
H965 H 0.61115 0.02131 0.96097 0.0
H966 H 0.66278 0.0191 0.94117 0.0
H967 H 0.69778 0.02068 0.03179 0.0
H968 H 0.64664 0.02333 0.05156 0.0
H969 H 0.70844 0.96692 0.99718 0.0
H970 H 0.71808 0.07393 0.99243 0.0
H971 H 0.70759 0.1263 0.97771 0.0
H972 H 0.71951 0.10325 0.88465 0.0
H973 H 0.72966 0.05053 0.89874 0.0
C974 C 0.84694 0.95177 0.96013 0.0
C975 C 0.85325 0.9459 0.92972 0.0
C976 C 0.82053 0.96658 0.96823 0.0
C977 C 0.79975 0.97546 0.94611 0.0
C978 C 0.80673 0.97113 0.91564 0.0
C979 C 0.83328 0.95644 0.90749 0.0
C980 C 0.7696 0.98645 0.95503 0.0
C981 C 0.76008 0.01511 0.94571 0.0
C982 C 0.75058 0.96879 0.97356 0.0
C983 C 0.75852 0.93767 0.98269 0.0
C984 C 0.76494 0.91566 0.96087 0.0
C985 C 0.77308 0.88659 0.96964 0.0
C986 C 0.7746 0.87916 1.00017 0.0
C987 C 0.76789 0.90077 0.022 0.0
C988 C 0.75981 0.9299 0.01335 0.0
C989 C 0.62995 0.02249 0.97653 0.0
C990 C 0.625 0.02228 0.00777 0.0
C991 C 0.65938 0.02119 0.96522 0.0
C992 C 0.68398 0.01951 0.98509 0.0
C993 C 0.67907 0.02194 0.01614 0.0
C994 C 0.64986 0.02338 0.02738 0.0
C995 C 0.71378 0.00943 0.97438 0.0
C996 C 0.7231 0.98061 0.98315 0.0
C997 C 0.73237 0.02697 0.95536 0.0
C998 C 0.72435 0.05816 0.94664 0.0
C999 C 0.71794 0.07985 0.96878 0.0
C1000 C 0.71225 0.10966 0.96056 0.0
C1001 C 0.71308 0.11811 0.9303 0.0
C1002 C 0.71903 0.09668 0.90811 0.0
C1003 C 0.72475 0.06682 0.91619 0.0
H1004 H 0.70934 0.14131 0.92406 0.0
H1005 H 0.78092 0.85664 0.00692 0.0
H1006 H 0.66853 0.05952 0.41363 0.0
H1007 H 0.71682 0.03619 0.427 0.0
H1008 H 0.75972 0.12364 0.4259 0.0
H1009 H 0.71195 0.14685 0.41217 0.0
H1010 H 0.79455 0.08033 0.39902 0.0
H1011 H 0.73551 0.09238 0.49128 0.0
H1012 H 0.69118 0.08278 0.52334 0.0
H1013 H 0.70713 0.9876 0.51849 0.0
H1014 H 0.75137 0.99667 0.48606 0.0
H1015 H 0.91338 0.09512 0.49884 0.0
H1016 H 0.86543 0.0958 0.47205 0.0
H1017 H 0.8552 1.0001 0.48618 0.0
H1018 H 0.90333 0.99972 0.51414 0.0
H1019 H 0.80348 0.03301 0.49981 0.0
H1020 H 0.87194 0.0235 0.42037 0.0
H1021 H 0.91642 0.03295 0.38893 0.0
H1022 H 0.88444 0.12172 0.36862 0.0
H1023 H 0.83978 0.11304 0.40031 0.0
C1024 C 0.68839 0.07365 0.41594 0.0
C1025 C 0.68644 0.10504 0.41224 0.0
C1026 C 0.71587 0.06033 0.42364 0.0
C1027 C 0.74179 0.07823 0.42762 0.0
C1028 C 0.74002 0.1094 0.42293 0.0
C1029 C 0.71264 0.12268 0.41541 0.0
C1030 C 0.77058 0.06523 0.43831 0.0
C1031 C 0.79662 0.06999 0.42104 0.0
C1032 C 0.77297 0.05055 0.46648 0.0
C1033 C 0.74646 0.04517 0.48597 0.0
C1034 C 0.7294 0.0694 0.49686 0.0
C1035 C 0.70433 0.06406 0.51513 0.0
C1036 C 0.69628 0.03459 0.52287 0.0
C1037 C 0.71334 0.01041 0.51242 0.0
C1038 C 0.73841 0.01563 0.4941 0.0
C1039 C 0.90098 0.07419 0.49611 0.0
C1040 C 0.91217 0.04719 0.5079 0.0
C1041 C 0.87371 0.07457 0.48067 0.0
C1042 C 0.85703 0.04794 0.47676 0.0
C1043 C 0.86797 0.02082 0.48873 0.0
C1044 C 0.89554 0.02047 0.5042 0.0
C1045 C 0.82765 0.04943 0.4611 0.0
C1046 C 0.8015 0.04261 0.47743 0.0
C1047 C 0.82522 0.06209 0.43196 0.0
C1048 C 0.85224 0.06754 0.4128 0.0
C1049 C 0.87429 0.04512 0.40935 0.0
C1050 C 0.89962 0.05033 0.39144 0.0
C1051 C 0.90325 0.07791 0.37675 0.0
C1052 C 0.88155 0.10033 0.37996 0.0
C1053 C 0.85615 0.09523 0.39785 0.0
H1054 H 0.92289 0.08193 0.36289 0.0
H1055 H 0.67687 0.0305 0.53702 0.0
H1056 H 0.34116 0.63798 0.0993 0.0
H1057 H 0.29217 0.61465 0.08938 0.0
H1058 H 0.33265 0.52665 0.092 0.0
H1059 H 0.38212 0.55004 0.10225 0.0
H1060 H 0.28986 0.53941 0.04107 0.0
H1061 H 0.29574 0.53943 0.14828 0.0
H1062 H 0.30668 0.56103 0.1983 0.0
H1063 H 0.24015 0.62931 0.18369 0.0
H1064 H 0.22916 0.60842 0.13335 0.0
H1065 H 0.13668 0.49227 0.02519 0.0
H1066 H 0.18789 0.49231 0.04641 0.0
H1067 H 0.1767 0.58495 0.07371 0.0
H1068 H 0.12556 0.58433 0.05371 0.0
H1069 H 0.20778 0.55688 0.1146 0.0
H1070 H 0.20984 0.56334 0.0048 0.0
H1071 H 0.19936 0.54402 0.95371 0.0
H1072 H 0.25091 0.46472 0.97275 0.0
H1073 H 0.26144 0.48348 0.02406 0.0
C1074 C 0.33973 0.61368 0.09743 0.0
C1075 C 0.36541 0.59579 0.10138 0.0
C1076 C 0.31174 0.6004 0.09195 0.0
C1077 C 0.30888 0.56898 0.09013 0.0
C1078 C 0.33452 0.55095 0.09338 0.0
C1079 C 0.36261 0.56428 0.09931 0.0
C1080 C 0.2787 0.55556 0.08534 0.0
C1081 C 0.27198 0.54243 0.0574 0.0
C1082 C 0.25548 0.55992 0.10656 0.0
C1083 C 0.26176 0.57245 0.13695 0.0
C1084 C 0.2836 0.55919 0.15563 0.0
C1085 C 0.28979 0.57129 0.18406 0.0
C1086 C 0.27415 0.59655 0.19415 0.0
C1087 C 0.25225 0.60974 0.17585 0.0
C1088 C 0.246 0.59775 0.14737 0.0
C1089 C 0.14487 0.51206 0.03692 0.0
C1090 C 0.12725 0.53811 0.03841 0.0
C1091 C 0.17423 0.5123 0.0486 0.0
C1092 C 0.18631 0.53879 0.06138 0.0
C1093 C 0.16795 0.56423 0.06408 0.0
C1094 C 0.13877 0.56391 0.05261 0.0
C1095 C 0.21856 0.54151 0.0699 0.0
C1096 C 0.22571 0.55297 0.09852 0.0
C1097 C 0.2421 0.5357 0.04923 0.0
C1098 C 0.23612 0.52463 0.01832 0.0
C1099 C 0.2188 0.54172 0.99811 0.0
C1100 C 0.21287 0.53088 0.96912 0.0
C1101 C 0.22439 0.50311 0.96002 0.0
C1102 C 0.24195 0.48619 0.97986 0.0
C1103 C 0.24792 0.49691 0.00888 0.0
H1104 H 0.21976 0.49475 0.93758 0.0
H1105 H 0.27897 0.60589 0.21617 0.0
H1106 H 0.1723 0.44904 0.56506 0.0
H1107 H 0.21886 0.47497 0.55048 0.0
H1108 H 0.24982 0.47204 0.6426 0.0
H1109 H 0.20303 0.44669 0.65735 0.0
H1110 H 0.26622 0.52402 0.61754 0.0
H1111 H 0.27222 0.41952 0.59083 0.0
H1112 H 0.25512 0.37231 0.5668 0.0
H1113 H 0.26007 0.41426 0.47984 0.0
H1114 H 0.27676 0.46189 0.50342 0.0
H1115 H 0.42675 0.50033 0.57926 0.0
H1116 H 0.37562 0.49996 0.6001 0.0
H1117 H 0.34238 0.54168 0.51909 0.0
H1118 H 0.39365 0.54305 0.4987 0.0
H1119 H 0.32622 0.47457 0.53771 0.0
H1120 H 0.32211 0.5794 0.56628 0.0
H1121 H 0.33563 0.62662 0.59245 0.0
H1122 H 0.32962 0.58169 0.67777 0.0
H1123 H 0.3157 0.53426 0.65218 0.0
C1124 C 0.18897 0.45415 0.5822 0.0
C1125 C 0.18416 0.44565 0.61229 0.0
C1126 C 0.21554 0.46896 0.57388 0.0
C1127 C 0.23809 0.475 0.59536 0.0
C1128 C 0.23277 0.46764 0.62563 0.0
C1129 C 0.20604 0.45314 0.63403 0.0
C1130 C 0.26791 0.48716 0.58601 0.0
C1131 C 0.27944 0.51308 0.60024 0.0
C1132 C 0.28507 0.47309 0.5632 0.0
C1133 C 0.27543 0.44436 0.54892 0.0
C1134 C 0.26947 0.41873 0.5666 0.0
C1135 C 0.25987 0.39189 0.55306 0.0
C1136 C 0.25643 0.39031 0.52182 0.0
C1137 C 0.26269 0.41554 0.50405 0.0
C1138 C 0.27224 0.44246 0.51748 0.0
C1139 C 0.40882 0.51115 0.56679 0.0
C1140 C 0.41414 0.52246 0.53778 0.0
C1141 C 0.37962 0.51077 0.5786 0.0
C1142 C 0.35532 0.52099 0.56119 0.0
C1143 C 0.36092 0.53416 0.53304 0.0
C1144 C 0.39017 0.53499 0.52147 0.0
C1145 C 0.32436 0.51148 0.56909 0.0
C1146 C 0.31281 0.4857 0.55477 0.0
C1147 C 0.30752 0.52543 0.59204 0.0
C1148 C 0.31818 0.5532 0.60729 0.0
C1149 C 0.32419 0.57945 0.59058 0.0
C1150 C 0.33177 0.60629 0.60532 0.0
C1151 C 0.33366 0.60709 0.6367 0.0
C1152 C 0.3282 0.58101 0.65345 0.0
C1153 C 0.32035 0.55418 0.63886 0.0
H1154 H 0.33897 0.62799 0.64806 0.0
H1155 H 0.24897 0.36951 0.51139 0.0
H1156 H 0.96398 0.8581 0.94533 0.0
H1157 H 0.97308 0.80827 0.96673 0.0
H1158 H 0.87746 0.79062 0.9683 0.0
H1159 H 0.86813 0.84032 0.94644 0.0
H1160 H 0.90732 0.76943 0.02003 0.0
H1161 H 0.91538 0.7628 0.91265 0.0
H1162 H 0.93354 0.77827 0.86253 0.0
H1163 H 0.02469 0.76087 0.88965 0.0
H1164 H 0.00711 0.74576 0.94012 0.0
H1165 H 0.95407 0.60322 0.00375 0.0
H1166 H 0.9246 0.64952 0.99863 0.0
H1167 H 0.00201 0.70196 0.02581 0.0
H1168 H 0.03164 0.65594 0.03015 0.0
H1169 H 0.97118 0.70169 0.95884 0.0
H1170 H 0.93714 0.75382 0.07193 0.0
H1171 H 0.91271 0.74131 0.12026 0.0
H1172 H 0.86782 0.666 0.0789 0.0
H1173 H 0.89159 0.67831 0.0303 0.0
C1174 C 0.94487 0.84364 0.95022 0.0
C1175 C 0.91536 0.85306 0.94387 0.0
C1176 C 0.95009 0.81526 0.9626 0.0
C1177 C 0.92594 0.79568 0.96878 0.0
C1178 C 0.89638 0.80544 0.96374 0.0
C1179 C 0.89112 0.83386 0.95129 0.0
C1180 C 0.93186 0.76438 0.97858 0.0
C1181 C 0.92113 0.7545 0.00663 0.0
C1182 C 0.9493 0.74474 0.96073 0.0
C1183 C 0.95993 0.75335 0.93024 0.0
C1184 C 0.93931 0.76245 0.90799 0.0
C1185 C 0.9495 0.77114 0.87951 0.0
C1186 C 0.98025 0.7706 0.87292 0.0
C1187 C 0.00087 0.76129 0.89479 0.0
C1188 C 0.99081 0.75263 0.92333 0.0
C1189 C 0.96423 0.62453 0.01016 0.0
C1190 C 0.99497 0.62616 0.01753 0.0
C1191 C 0.94736 0.65095 0.00733 0.0
C1192 C 0.96092 0.67912 0.01263 0.0
C1193 C 0.99093 0.68039 0.02244 0.0
C1194 C 0.00787 0.65415 0.02479 0.0
C1195 C 0.94737 0.70697 0.00067 0.0
C1196 C 0.95701 0.71642 0.97213 0.0
C1197 C 0.92865 0.72589 0.01792 0.0
C1198 C 0.9166 0.71667 0.0476 0.0
C1199 C 0.92228 0.73442 0.07323 0.0
C1200 C 0.90839 0.72749 0.10062 0.0
C1201 C 0.88863 0.70296 0.10256 0.0
C1202 C 0.8832 0.68494 0.07733 0.0
C1203 C 0.89704 0.69177 0.0499 0.0
H1204 H 0.87738 0.69801 0.12356 0.0
H1205 H 0.9881 0.77735 0.85087 0.0
H1206 H 0.48565 0.67065 0.08213 0.0
H1207 H 0.4985 0.71885 0.05828 0.0
H1208 H 0.40541 0.74582 0.06347 0.0
H1209 H 0.39245 0.69757 0.08653 0.0
H1210 H 0.42796 0.76395 0.01188 0.0
H1211 H 0.459 0.76899 0.11594 0.0
H1212 H 0.48627 0.75217 0.16131 0.0
H1213 H 0.57058 0.76277 0.1152 0.0
H1214 H 0.54376 0.77926 0.0694 0.0
H1215 H 0.46189 0.92751 0.03123 0.0
H1216 H 0.44192 0.87615 0.03382 0.0
H1217 H 0.52476 0.84233 0.99683 0.0
H1218 H 0.54501 0.89374 0.99485 0.0
H1219 H 0.50662 0.82722 0.06053 0.0
H1220 H 0.45699 0.78831 0.95327 0.0
H1221 H 0.42465 0.80193 0.91006 0.0
H1222 H 0.37324 0.86057 0.96678 0.0
H1223 H 0.40466 0.84655 0.0104 0.0
C1224 C 0.46798 0.68687 0.07802 0.0
C1225 C 0.43809 0.68041 0.08619 0.0
C1226 C 0.4753 0.71437 0.06442 0.0
C1227 C 0.45295 0.73613 0.05939 0.0
C1228 C 0.423 0.72938 0.06696 0.0
C1229 C 0.41564 0.7018 0.08018 0.0
C1230 C 0.46082 0.76652 0.04767 0.0
C1231 C 0.44512 0.7778 0.0226 0.0
C1232 C 0.48319 0.78468 0.06156 0.0
C1233 C 0.49936 0.77506 0.08917 0.0
C1234 C 0.48334 0.76755 0.11543 0.0
C1235 C 0.49871 0.7581 0.14122 0.0
C1236 C 0.53013 0.75633 0.14111 0.0
C1237 C 0.54625 0.7641 0.11523 0.0
C1238 C 0.53097 0.77352 0.08936 0.0
C1239 C 0.47508 0.90928 0.02199 0.0
C1240 C 0.50471 0.9145 0.01232 0.0
C1241 C 0.46361 0.87989 0.02336 0.0
C1242 C 0.48151 0.85542 0.01471 0.0
C1243 C 0.51032 0.86094 0.00294 0.0
C1244 C 0.52188 0.89025 0.00185 0.0
C1245 C 0.47368 0.82464 0.02491 0.0
C1246 C 0.4896 0.81325 0.04972 0.0
C1247 C 0.45112 0.80673 0.01122 0.0
C1248 C 0.43371 0.81709 0.98483 0.0
C1249 C 0.43895 0.80432 0.9564 0.0
C1250 C 0.42058 0.81184 0.93193 0.0
C1251 C 0.39693 0.83211 0.9357 0.0
C1252 C 0.39168 0.84501 0.96388 0.0
C1253 C 0.40982 0.83735 0.98846 0.0
H1254 H 0.38256 0.8377 0.91684 0.0
H1255 H 0.54199 0.74899 0.1611 0.0
H1256 H 0.12028 0.32677 0.63526 0.0
H1257 H 0.10988 0.28018 0.60732 0.0
H1258 H 0.10306 0.33079 0.52481 0.0
H1259 H 0.11436 0.37753 0.55258 0.0
H1260 H 0.05114 0.28031 0.55471 0.0
H1261 H 0.14918 0.29985 0.5087 0.0
H1262 H 0.2028 0.3145 0.51166 0.0
H1263 H 0.2196 0.24131 0.57248 0.0
H1264 H 0.16592 0.22658 0.57027 0.0
H1265 H 0.01881 0.14249 0.48985 0.0
H1266 H 0.04252 0.19244 0.4874 0.0
H1267 H 0.10568 0.16599 0.55638 0.0
H1268 H 0.08279 0.11575 0.55772 0.0
H1269 H 0.13044 0.20906 0.52214 0.0
H1270 H 0.03596 0.1931 0.57472 0.0
H1271 H 0.98259 0.17772 0.57831 0.0
H1272 H 0.95888 0.24345 0.51157 0.0
H1273 H 0.01224 0.2589 0.50729 0.0
C1274 C 0.11657 0.32793 0.61117 0.0
C1275 C 0.11802 0.35566 0.59604 0.0
C1276 C 0.11085 0.30137 0.59525 0.0
C1277 C 0.10609 0.30214 0.56404 0.0
C1278 C 0.1071 0.32981 0.54885 0.0
C1279 C 0.11344 0.35638 0.5647 0.0
C1280 C 0.09861 0.27391 0.548 0.0
C1281 C 0.06834 0.26504 0.54667 0.0
C1282 C 0.12122 0.25382 0.53847 0.0
C1283 C 0.15351 0.26237 0.5396 0.0
C1284 C 0.16425 0.28711 0.52296 0.0
C1285 C 0.19466 0.29537 0.52444 0.0
C1286 C 0.21458 0.2789 0.54232 0.0
C1287 C 0.20414 0.25407 0.55868 0.0
C1288 C 0.17373 0.24575 0.55731 0.0
C1289 C 0.03878 0.14696 0.50323 0.0
C1290 C 0.04925 0.12545 0.52379 0.0
C1291 C 0.05216 0.17553 0.50205 0.0
C1292 C 0.07535 0.18323 0.52232 0.0
C1293 C 0.08778 0.16065 0.54059 0.0
C1294 C 0.07475 0.13193 0.54135 0.0
C1295 C 0.08277 0.2153 0.52869 0.0
C1296 C 0.11305 0.22472 0.52887 0.0
C1297 C 0.06015 0.23588 0.53762 0.0
C1298 C 0.02807 0.22688 0.54042 0.0
C1299 C 0.01936 0.20414 0.5607 0.0
C1300 C 0.98914 0.19542 0.56286 0.0
C1301 C 0.96737 0.20954 0.54511 0.0
C1302 C 0.97578 0.23248 0.52524 0.0
C1303 C 0.006 0.24123 0.52293 0.0
H1304 H 0.94397 0.20276 0.54681 0.0
H1305 H 0.23811 0.28534 0.54345 0.0
H1306 H 0.62839 0.17438 0.47385 0.0
H1307 H 0.61462 0.22098 0.49983 0.0
H1308 H 0.58409 0.25868 0.41577 0.0
H1309 H 0.59852 0.21273 0.38948 0.0
H1310 H 0.63269 0.28218 0.49043 0.0
H1311 H 0.51806 0.29375 0.42991 0.0
H1312 H 0.47906 0.26101 0.40718 0.0
H1313 H 0.50446 0.18881 0.46611 0.0
H1314 H 0.54329 0.22124 0.48949 0.0
H1315 H 0.57394 0.43089 0.48961 0.0
H1316 H 0.59657 0.38116 0.48485 0.0
H1317 H 0.52131 0.34207 0.53281 0.0
H1318 H 0.49759 0.3916 0.53507 0.0
H1319 H 0.52604 0.3143 0.48508 0.0
H1320 H 0.60173 0.34263 0.55814 0.0
H1321 H 0.6417 0.3746 0.58033 0.0
H1322 H 0.6942 0.36646 0.49995 0.0
H1323 H 0.65465 0.33464 0.47701 0.0
C1324 C 0.61911 0.19274 0.46081 0.0
C1325 C 0.61435 0.18969 0.42958 0.0
C1326 C 0.61123 0.2193 0.47572 0.0
C1327 C 0.59815 0.24311 0.45974 0.0
C1328 C 0.59384 0.24038 0.42855 0.0
C1329 C 0.60188 0.21398 0.41361 0.0
C1330 C 0.58797 0.27058 0.47554 0.0
C1331 C 0.60936 0.28925 0.48963 0.0
C1332 C 0.55748 0.27937 0.47478 0.0
C1333 C 0.53373 0.25988 0.46128 0.0
C1334 C 0.5152 0.27094 0.43813 0.0
C1335 C 0.49315 0.25243 0.42511 0.0
C1336 C 0.48934 0.22283 0.43514 0.0
C1337 C 0.5075 0.21171 0.4583 0.0
C1338 C 0.52955 0.23014 0.47141 0.0
C1339 C 0.56281 0.41174 0.49995 0.0
C1340 C 0.53409 0.41479 0.51257 0.0
C1341 C 0.57583 0.38325 0.49741 0.0
C1342 C 0.56077 0.35757 0.5085 0.0
C1343 C 0.53332 0.36135 0.5238 0.0
C1344 C 0.51983 0.38964 0.52531 0.0
C1345 C 0.57082 0.32676 0.49993 0.0
C1346 C 0.54935 0.30731 0.4868 0.0
C1347 C 0.60124 0.31731 0.50183 0.0
C1348 C 0.62511 0.3363 0.5158 0.0
C1349 C 0.62172 0.34776 0.54512 0.0
C1350 C 0.64429 0.36585 0.55784 0.0
C1351 C 0.67034 0.37262 0.54159 0.0
C1352 C 0.67399 0.36121 0.51254 0.0
C1353 C 0.65156 0.34307 0.49968 0.0
H1354 H 0.68771 0.38668 0.55154 0.0
H1355 H 0.47228 0.20852 0.425 0.0
loop_
_geom_bond_atom_site_label_1
_geom_bond_atom_site_label_2
_geom_bond_distance
_geom_bond_site_symmetry_2
_ccdc_geom_bond_type
H0 C3 0.931 . S
H1 C6 0.928 . S
H2 C8 0.930 . S
C3 H0 0.931 . S
C3 C4 1.413 . S
C3 C5 1.360 . S
C4 C3 1.413 . S
C4 C8 1.429 . S
C5 C3 1.360 . S
C5 C6 1.372 . S
C6 H1 0.928 . S
C6 C5 1.372 . S
C6 C7 1.404 . S
C7 C6 1.404 . S
C7 C8 1.391 . S
C8 H2 0.930 . S
C8 C4 1.429 . S
C8 C7 1.391 . S
H9 C12 0.931 . S
H10 C15 0.928 . S
H11 C17 0.930 . S
C12 H9 0.931 . S
C12 C13 1.413 . S
C12 C14 1.360 . S
C13 C12 1.413 . S
C13 C17 1.429 . S
C14 C12 1.360 . S
C14 C15 1.372 . S
C15 H10 0.928 . S
C15 C14 1.372 . S
C15 C16 1.404 . S
C16 C15 1.404 . S
C16 C17 1.391 . S
C17 H11 0.930 . S
C17 C13 1.429 . S
C17 C16 1.391 . S
H18 C21 0.931 . S
H19 C24 0.928 . S
H20 C26 0.930 . S
C21 H18 0.931 . S
C21 C22 1.413 . S
C21 C23 1.360 . S
C22 C21 1.413 . S
C22 C26 1.429 . S
C23 C21 1.360 . S
C23 C24 1.372 . S
C24 H19 0.928 . S
C24 C23 1.372 . S
C24 C25 1.404 . S
C25 C24 1.404 . S
C25 C26 1.391 . S
C26 H20 0.930 . S
C26 C22 1.429 . S
C26 C25 1.391 . S
H27 C30 0.931 . S
H28 C33 0.928 . S
H29 C35 0.930 . S
C30 H27 0.931 . S
C30 C31 1.413 . S
C30 C32 1.360 . S
C31 C30 1.413 . S
C31 C35 1.429 . S
C32 C30 1.360 . S
C32 C33 1.372 . S
C33 H28 0.928 . S
C33 C32 1.372 . S
C33 C34 1.404 . S
C34 C33 1.404 . S
C34 C35 1.391 . S
C35 H29 0.930 . S
C35 C31 1.429 . S
C35 C34 1.391 . S
H36 C39 0.931 . S
H37 C42 0.928 . S
H38 C44 0.930 . S
C39 H36 0.931 . S
C39 C40 1.413 . S
C39 C41 1.360 . S
C40 C39 1.413 . S
C40 C44 1.429 . S
C41 C39 1.360 . S
C41 C42 1.372 . S
C42 H37 0.928 . S
C42 C41 1.372 . S
C42 C43 1.404 . S
C43 C42 1.404 . S
C43 C44 1.391 . S
C44 H38 0.930 . S
C44 C40 1.429 . S
C44 C43 1.391 . S
H45 C48 0.931 . S
H46 C51 0.928 . S
H47 C53 0.930 . S
C48 H45 0.931 . S
C48 C49 1.413 . S
C48 C50 1.360 . S
C49 C48 1.413 . S
C49 C53 1.429 . S
C50 C48 1.360 . S
C50 C51 1.372 . S
C51 H46 0.928 . S
C51 C50 1.372 . S
C51 C52 1.404 . S
C52 C51 1.404 . S
C52 C53 1.391 . S
C53 H47 0.930 . S
C53 C49 1.429 . S
C53 C52 1.391 . S
H54 C57 0.931 . S
H55 C60 0.928 . S
H56 C62 0.930 . S
C57 H54 0.931 . S
C57 C58 1.413 . S
C57 C59 1.360 . S
C58 C57 1.413 . S
C58 C62 1.429 . S
C59 C57 1.360 . S
C59 C60 1.372 . S
C60 H55 0.928 . S
C60 C59 1.372 . S
C60 C61 1.404 . S
C61 C60 1.404 . S
C61 C62 1.391 . S
C62 H56 0.930 . S
C62 C58 1.429 . S
C62 C61 1.391 . S
H63 C66 0.931 . S
H64 C69 0.928 . S
H65 C71 0.930 . S
C66 H63 0.931 . S
C66 C67 1.413 . S
C66 C68 1.360 . S
C67 C66 1.413 . S
C67 C71 1.429 . S
C68 C66 1.360 . S
C68 C69 1.372 . S
C69 H64 0.928 . S
C69 C68 1.372 . S
C69 C70 1.404 . S
C70 C69 1.404 . S
C70 C71 1.391 . S
C71 H65 0.930 . S
C71 C67 1.429 . S
C71 C70 1.391 . S
Zn72 O78 1.920 . S
Zn72 O84 1.898 . S
Zn72 O87 1.905 . S
Zn73 O81 1.905 1_565 S
Zn73 O82 1.898 . S
Zn73 O90 1.920 . S
Zn74 O77 2.080 1_455 S
Zn74 O80 2.114 . S
Zn74 O83 2.120 1_445 S
Zn74 O85 2.120 . S
Zn74 O86 2.114 1_455 S
Zn74 O89 2.080 . S
C75 O80 1.166 . S
C75 O81 1.182 . S
C76 O82 1.167 1_655 S
C76 O83 1.299 . S
O77 Zn74 2.080 1_655 S
O77 C91 1.305 . S
O78 Zn72 1.920 . S
O78 C91 1.234 . S
C79 O84 1.167 1_455 S
C79 O85 1.299 . S
O80 Zn74 2.114 . S
O80 C75 1.166 . S
O81 Zn73 1.905 1_545 S
O81 C75 1.182 . S
O82 Zn73 1.898 . S
O82 C76 1.167 1_455 S
O83 Zn74 2.120 1_665 S
O83 C76 1.299 . S
O84 Zn72 1.898 . S
O84 C79 1.167 1_655 S
O85 Zn74 2.120 . S
O85 C79 1.299 . S
O86 Zn74 2.114 1_655 S
O86 C88 1.166 . S
O87 Zn72 1.905 . S
O87 C88 1.182 . S
C88 O86 1.166 . S
C88 O87 1.182 . S
O89 Zn74 2.080 . S
O89 C92 1.305 1_545 S
O90 Zn73 1.920 . S
O90 C92 1.234 . S
C91 O77 1.305 . S
C91 O78 1.234 . S
C92 O89 1.305 1_565 S
C92 O90 1.234 . S
Zn93 O99 1.920 1_556 S
Zn93 O105 1.898 . S
Zn93 O108 1.905 . S
Zn94 O102 1.905 . S
Zn94 O103 1.898 . S
Zn94 O111 1.920 . S
Zn95 O98 2.080 . S
Zn95 O101 2.114 1_545 S
Zn95 O104 2.120 1_545 S
Zn95 O106 2.120 . S
Zn95 O107 2.114 1_544 S
Zn95 O110 2.080 . S
C96 O101 1.166 . S
C96 O102 1.182 . S
C97 O103 1.167 . S
C97 O104 1.299 . S
O98 Zn95 2.080 . S
O98 C112 1.305 . S
O99 Zn93 1.920 1_554 S
O99 C112 1.234 . S
C100 O105 1.167 . S
C100 O106 1.299 1_556 S
O101 Zn95 2.114 1_565 S
O101 C96 1.166 . S
O102 Zn94 1.905 . S
O102 C96 1.182 . S
O103 Zn94 1.898 . S
O103 C97 1.167 . S
O104 Zn95 2.120 1_565 S
O104 C97 1.299 . S
O105 Zn93 1.898 . S
O105 C100 1.167 . S
O106 Zn95 2.120 . S
O106 C100 1.299 1_554 S
O107 Zn95 2.114 1_566 S
O107 C109 1.166 . S
O108 Zn93 1.905 . S
O108 C109 1.182 1_545 S
C109 O107 1.166 . S
C109 O108 1.182 1_565 S
O110 Zn95 2.080 . S
O110 C113 1.305 . S
O111 Zn94 1.920 . S
O111 C113 1.234 1_565 S
C112 O98 1.305 . S
C112 O99 1.234 . S
C113 O110 1.305 . S
C113 O111 1.234 1_545 S
Zn114 O120 1.920 . S
Zn114 O126 1.898 . S
Zn114 O129 1.905 . S
Zn115 O123 1.905 . S
Zn115 O124 1.898 . S
Zn115 O132 1.920 . S
Zn116 O119 2.080 . S
Zn116 O122 2.114 . S
Zn116 O125 2.120 . S
Zn116 O127 2.120 . S
Zn116 O128 2.114 . S
Zn116 O131 2.080 . S
C117 O122 1.166 . S
C117 O123 1.182 . S
C118 O124 1.167 . S
C118 O125 1.299 . S
O119 Zn116 2.080 . S
O119 C133 1.305 . S
O120 Zn114 1.920 . S
O120 C133 1.234 . S
C121 O126 1.167 . S
C121 O127 1.299 . S
O122 Zn116 2.114 . S
O122 C117 1.166 . S
O123 Zn115 1.905 . S
O123 C117 1.182 . S
O124 Zn115 1.898 . S
O124 C118 1.167 . S
O125 Zn116 2.120 . S
O125 C118 1.299 . S
O126 Zn114 1.898 . S
O126 C121 1.167 . S
O127 Zn116 2.120 . S
O127 C121 1.299 . S
O128 Zn116 2.114 . S
O128 C130 1.166 . S
O129 Zn114 1.905 . S
O129 C130 1.182 . S
C130 O128 1.166 . S
C130 O129 1.182 . S
O131 Zn116 2.080 . S
O131 C134 1.305 . S
O132 Zn115 1.920 . S
O132 C134 1.234 . S
C133 O119 1.305 . S
C133 O120 1.234 . S
C134 O131 1.305 . S
C134 O132 1.234 . S
Zn135 O141 1.920 . S
Zn135 O147 1.898 . S
Zn135 O150 1.905 . S
Zn136 O144 1.905 1_655 S
Zn136 O145 1.898 . S
Zn136 O153 1.920 . S
Zn137 O140 2.080 1_554 S
Zn137 O143 2.114 . S
Zn137 O146 2.120 1_454 S
Zn137 O148 2.120 . S
Zn137 O149 2.114 1_554 S
Zn137 O152 2.080 . S
C138 O143 1.166 . S
C138 O144 1.182 . S
C139 O145 1.167 1_556 S
C139 O146 1.299 . S
O140 Zn137 2.080 1_556 S
O140 C154 1.305 . S
O141 Zn135 1.920 . S
O141 C154 1.234 . S
C142 O147 1.167 1_554 S
C142 O148 1.299 . S
O143 Zn137 2.114 . S
O143 C138 1.166 . S
O144 Zn136 1.905 1_455 S
O144 C138 1.182 . S
O145 Zn136 1.898 . S
O145 C139 1.167 1_554 S
O146 Zn137 2.120 1_656 S
O146 C139 1.299 . S
O147 Zn135 1.898 . S
O147 C142 1.167 1_556 S
O148 Zn137 2.120 . S
O148 C142 1.299 . S
O149 Zn137 2.114 1_556 S
O149 C151 1.166 . S
O150 Zn135 1.905 . S
O150 C151 1.182 . S
C151 O149 1.166 . S
C151 O150 1.182 . S
O152 Zn137 2.080 . S
O152 C155 1.305 1_455 S
O153 Zn136 1.920 . S
O153 C155 1.234 . S
C154 O140 1.305 . S
C154 O141 1.234 . S
C155 O152 1.305 1_655 S
C155 O153 1.234 . S
H156 C174 0.951 . S
H157 C176 0.951 . S
H158 C178 0.950 . S
H159 C179 0.950 . S
H160 C181 0.950 . S
H161 C184 0.950 . S
H162 C185 0.950 . S
H163 C187 0.950 . S
H164 C188 0.950 . S
H165 C189 0.951 . S
H166 C191 0.951 . S
H167 C193 0.950 . S
H168 C194 0.950 . S
H169 C196 0.950 . S
H170 C199 0.950 . S
H171 C200 0.950 1_565 S
H172 C202 0.950 . S
H173 C203 0.950 . S
C174 H156 0.951 . S
C174 C175 1.366 . S
C174 C176 1.388 . S
C175 C174 1.366 . S
C175 C179 1.385 . S
C176 H157 0.951 . S
C176 C174 1.388 . S
C176 C177 1.366 . S
C177 C176 1.366 . S
C177 C178 1.414 . S
C177 C180 1.499 . S
C178 H158 0.950 . S
C178 C177 1.414 . S
C178 C179 1.374 . S
C179 H159 0.950 . S
C179 C175 1.385 . S
C179 C178 1.374 . S
C180 C177 1.499 . S
C180 C181 1.373 . S
C180 C182 1.389 . S
C181 H160 0.950 . S
C181 C180 1.373 . S
C181 C197 1.377 . S
C182 C180 1.389 . S
C182 C183 1.524 . S
C182 C196 1.377 . S
C183 C182 1.524 . S
C183 C184 1.397 . S
C183 C188 1.363 . S
C184 H161 0.950 . S
C184 C183 1.397 . S
C184 C185 1.334 . S
C185 H162 0.950 . S
C185 C184 1.334 . S
C185 C186 1.287 . S
C186 C185 1.287 . S
C186 C187 1.524 . S
C186 H205 0.913 . S
C187 H163 0.950 . S
C187 C186 1.524 . S
C187 C188 1.415 . S
C188 H164 0.950 . S
C188 C183 1.363 . S
C188 C187 1.415 . S
C189 H165 0.951 . S
C189 C190 1.366 . S
C189 C191 1.388 . S
C190 C189 1.366 . S
C190 C194 1.385 . S
C191 H166 0.951 . S
C191 C189 1.388 . S
C191 C192 1.366 . S
C192 C191 1.366 . S
C192 C193 1.414 . S
C192 C195 1.499 . S
C193 H167 0.950 . S
C193 C192 1.414 . S
C193 C194 1.374 . S
C194 H168 0.950 . S
C194 C190 1.385 . S
C194 C193 1.374 . S
C195 C192 1.499 . S
C195 C196 1.373 . S
C195 C197 1.389 . S
C196 H169 0.950 . S
C196 C182 1.377 . S
C196 C195 1.373 . S
C197 C181 1.377 . S
C197 C195 1.389 . S
C197 C198 1.524 . S
C198 C197 1.524 . S
C198 C199 1.397 . S
C198 C203 1.363 . S
C199 H170 0.950 . S
C199 C198 1.397 . S
C199 C200 1.334 . S
C200 H171 0.950 1_545 S
C200 C199 1.334 . S
C200 C201 1.287 1_545 S
C201 C200 1.287 1_565 S
C201 C202 1.524 1_565 S
C201 H204 0.999 . S
C202 H172 0.950 . S
C202 C201 1.524 1_545 S
C202 C203 1.415 . S
C203 H173 0.950 . S
C203 C198 1.363 . S
C203 C202 1.415 . S
H204 C201 0.999 . S
H205 C186 0.913 . S
H206 C224 0.951 . S
H207 C226 0.951 . S
H208 C228 0.950 . S
H209 C229 0.950 . S
H210 C231 0.950 . S
H211 C234 0.950 . S
H212 C235 0.950 . S
H213 C237 0.950 . S
H214 C238 0.950 . S
H215 C239 0.951 . S
H216 C241 0.951 . S
H217 C243 0.950 . S
H218 C244 0.950 . S
H219 C246 0.950 . S
H220 C249 0.950 . S
H221 C250 0.950 . S
H222 C252 0.950 . S
H223 C253 0.950 . S
C224 H206 0.951 . S
C224 C225 1.366 . S
C224 C226 1.388 . S
C225 C224 1.366 . S
C225 C229 1.385 . S
C226 H207 0.951 . S
C226 C224 1.388 . S
C226 C227 1.366 . S
C227 C226 1.366 . S
C227 C228 1.414 . S
C227 C230 1.499 . S
C228 H208 0.950 . S
C228 C227 1.414 . S
C228 C229 1.374 . S
C229 H209 0.950 . S
C229 C225 1.385 . S
C229 C228 1.374 . S
C230 C227 1.499 . S
C230 C231 1.373 . S
C230 C232 1.389 . S
C231 H210 0.950 . S
C231 C230 1.373 . S
C231 C247 1.377 . S
C232 C230 1.389 . S
C232 C233 1.524 . S
C232 C246 1.377 . S
C233 C232 1.524 . S
C233 C234 1.397 . S
C233 C238 1.363 . S
C234 H211 0.950 . S
C234 C233 1.397 . S
C234 C235 1.334 . S
C235 H212 0.950 . S
C235 C234 1.334 . S
C235 C236 1.287 . S
C236 C235 1.287 . S
C236 C237 1.524 . S
C236 H255 0.913 . S
C237 H213 0.950 . S
C237 C236 1.524 . S
C237 C238 1.415 . S
C238 H214 0.950 . S
C238 C233 1.363 . S
C238 C237 1.415 . S
C239 H215 0.951 . S
C239 C240 1.366 . S
C239 C241 1.388 . S
C240 C239 1.366 . S
C240 C244 1.385 . S
C241 H216 0.951 . S
C241 C239 1.388 . S
C241 C242 1.366 . S
C242 C241 1.366 . S
C242 C243 1.414 . S
C242 C245 1.499 . S
C243 H217 0.950 . S
C243 C242 1.414 . S
C243 C244 1.374 . S
C244 H218 0.950 . S
C244 C240 1.385 . S
C244 C243 1.374 . S
C245 C242 1.499 . S
C245 C246 1.373 . S
C245 C247 1.389 . S
C246 H219 0.950 . S
C246 C232 1.377 . S
C246 C245 1.373 . S
C247 C231 1.377 . S
C247 C245 1.389 . S
C247 C248 1.524 . S
C248 C247 1.524 . S
C248 C249 1.397 . S
C248 C253 1.363 . S
C249 H220 0.950 . S
C249 C248 1.397 . S
C249 C250 1.334 . S
C250 H221 0.950 . S
C250 C249 1.334 . S
C250 C251 1.287 . S
C251 C250 1.287 . S
C251 C252 1.524 . S
C251 H254 0.999 . S
C252 H222 0.950 . S
C252 C251 1.524 . S
C252 C253 1.415 . S
C253 H223 0.950 . S
C253 C248 1.363 . S
C253 C252 1.415 . S
H254 C251 0.999 . S
H255 C236 0.913 . S
H256 C274 0.951 . S
H257 C276 0.951 . S
H258 C278 0.950 . S
H259 C279 0.950 . S
H260 C281 0.950 . S
H261 C284 0.950 . S
H262 C285 0.950 . S
H263 C287 0.950 . S
H264 C288 0.950 . S
H265 C289 0.951 . S
H266 C291 0.951 . S
H267 C293 0.950 . S
H268 C294 0.950 . S
H269 C296 0.950 . S
H270 C299 0.950 . S
H271 C300 0.950 . S
H272 C302 0.950 . S
H273 C303 0.950 . S
C274 H256 0.951 . S
C274 C275 1.366 . S
C274 C276 1.388 . S
C275 C274 1.366 . S
C275 C279 1.385 . S
C276 H257 0.951 . S
C276 C274 1.388 . S
C276 C277 1.366 . S
C277 C276 1.366 . S
C277 C278 1.414 . S
C277 C280 1.499 . S
C278 H258 0.950 . S
C278 C277 1.414 . S
C278 C279 1.374 . S
C279 H259 0.950 . S
C279 C275 1.385 . S
C279 C278 1.374 . S
C280 C277 1.499 . S
C280 C281 1.373 . S
C280 C282 1.389 . S
C281 H260 0.950 . S
C281 C280 1.373 . S
C281 C297 1.377 . S
C282 C280 1.389 . S
C282 C283 1.524 . S
C282 C296 1.377 . S
C283 C282 1.524 . S
C283 C284 1.397 . S
C283 C288 1.363 . S
C284 H261 0.950 . S
C284 C283 1.397 . S
C284 C285 1.334 . S
C285 H262 0.950 . S
C285 C284 1.334 . S
C285 C286 1.287 . S
C286 C285 1.287 . S
C286 C287 1.524 . S
C286 H305 0.913 . S
C287 H263 0.950 . S
C287 C286 1.524 . S
C287 C288 1.415 . S
C288 H264 0.950 . S
C288 C283 1.363 . S
C288 C287 1.415 . S
C289 H265 0.951 . S
C289 C290 1.366 . S
C289 C291 1.388 . S
C290 C289 1.366 . S
C290 C294 1.385 . S
C291 H266 0.951 . S
C291 C289 1.388 . S
C291 C292 1.366 . S
C292 C291 1.366 . S
C292 C293 1.414 . S
C292 C295 1.499 . S
C293 H267 0.950 . S
C293 C292 1.414 . S
C293 C294 1.374 . S
C294 H268 0.950 . S
C294 C290 1.385 . S
C294 C293 1.374 . S
C295 C292 1.499 . S
C295 C296 1.373 . S
C295 C297 1.389 . S
C296 H269 0.950 . S
C296 C282 1.377 . S
C296 C295 1.373 . S
C297 C281 1.377 . S
C297 C295 1.389 . S
C297 C298 1.524 . S
C298 C297 1.524 . S
C298 C299 1.397 . S
C298 C303 1.363 . S
C299 H270 0.950 . S
C299 C298 1.397 . S
C299 C300 1.334 . S
C300 H271 0.950 . S
C300 C299 1.334 . S
C300 C301 1.287 . S
C301 C300 1.287 . S
C301 C302 1.524 . S
C301 H304 0.999 . S
C302 H272 0.950 . S
C302 C301 1.524 . S
C302 C303 1.415 . S
C303 H273 0.950 . S
C303 C298 1.363 . S
C303 C302 1.415 . S
H304 C301 0.999 . S
H305 C286 0.913 . S
H306 C324 0.951 . S
H307 C326 0.951 . S
H308 C328 0.950 . S
H309 C329 0.950 . S
H310 C331 0.950 . S
H311 C334 0.950 . S
H312 C335 0.950 . S
H313 C337 0.950 . S
H314 C338 0.950 . S
H315 C339 0.964 . S
H316 C341 0.973 . S
H317 C343 0.950 . S
H318 C344 0.950 . S
H319 C346 0.950 . S
H320 C349 0.950 . S
H321 C350 0.950 . S
H322 C352 0.950 . S
H323 C353 0.950 . S
C324 H306 0.951 . S
C324 C325 1.366 . S
C324 C326 1.388 . S
C325 C324 1.366 . S
C325 C329 1.385 . S
C326 H307 0.951 . S
C326 C324 1.388 . S
C326 C327 1.366 . S
C327 C326 1.366 . S
C327 C328 1.414 . S
C327 C330 1.499 . S
C328 H308 0.950 . S
C328 C327 1.414 . S
C328 C329 1.374 . S
C329 H309 0.950 . S
C329 C325 1.385 . S
C329 C328 1.374 . S
C330 C327 1.499 . S
C330 C331 1.373 . S
C330 C332 1.389 . S
C331 H310 0.950 . S
C331 C330 1.373 . S
C331 C347 1.377 . S
C332 C330 1.389 . S
C332 C333 1.524 . S
C332 C346 1.377 . S
C333 C332 1.524 . S
C333 C334 1.397 . S
C333 C338 1.363 . S
C334 H311 0.950 . S
C334 C333 1.397 . S
C334 C335 1.334 . S
C335 H312 0.950 . S
C335 C334 1.334 . S
C335 C336 1.287 . S
C336 C335 1.287 . S
C336 C337 1.524 . S
C336 H355 0.913 . S
C337 H313 0.950 . S
C337 C336 1.524 . S
C337 C338 1.415 . S
C338 H314 0.950 . S
C338 C333 1.363 . S
C338 C337 1.415 . S
C339 H315 0.964 . S
C339 C340 1.359 1_455 S
C339 C341 1.382 1_455 S
C340 C339 1.359 1_655 S
C340 C344 1.385 . S
C341 H316 0.973 . S
C341 C339 1.382 1_655 S
C341 C342 1.366 . S
C342 C341 1.366 . S
C342 C343 1.414 . S
C342 C345 1.499 . S
C343 H317 0.950 . S
C343 C342 1.414 . S
C343 C344 1.374 . S
C344 H318 0.950 . S
C344 C340 1.385 . S
C344 C343 1.374 . S
C345 C342 1.499 . S
C345 C346 1.373 . S
C345 C347 1.389 . S
C346 H319 0.950 . S
C346 C332 1.377 . S
C346 C345 1.373 . S
C347 C331 1.377 . S
C347 C345 1.389 . S
C347 C348 1.524 . S
C348 C347 1.524 . S
C348 C349 1.397 . S
C348 C353 1.363 . S
C349 H320 0.950 . S
C349 C348 1.397 . S
C349 C350 1.334 . S
C350 H321 0.950 . S
C350 C349 1.334 . S
C350 C351 1.287 . S
C351 C350 1.287 . S
C351 C352 1.524 1_655 S
C351 H354 0.999 1_655 S
C352 H322 0.950 . S
C352 C351 1.524 1_455 S
C352 C353 1.415 1_455 S
C353 H323 0.950 . S
C353 C348 1.363 . S
C353 C352 1.415 1_655 S
H354 C351 0.999 1_455 S
H355 C336 0.913 . S
H356 C374 0.951 . S
H357 C376 0.951 . S
H358 C378 0.950 . S
H359 C379 0.950 . S
H360 C381 0.950 . S
H361 C384 0.950 . S
H362 C385 0.950 . S
H363 C387 0.950 . S
H364 C388 0.950 . S
H365 C389 0.951 . S
H366 C391 0.951 . S
H367 C393 0.950 . S
H368 C394 0.950 . S
H369 C396 0.950 . S
H370 C399 0.950 . S
H371 C400 0.951 . S
H372 C402 0.950 . S
H373 C403 0.950 . S
C374 H356 0.951 . S
C374 C375 1.366 . S
C374 C376 1.388 . S
C375 C374 1.366 . S
C375 C379 1.385 . S
C376 H357 0.951 . S
C376 C374 1.388 . S
C376 C377 1.366 . S
C377 C376 1.366 . S
C377 C378 1.414 . S
C377 C380 1.499 . S
C378 H358 0.950 . S
C378 C377 1.414 . S
C378 C379 1.374 . S
C379 H359 0.950 . S
C379 C375 1.385 . S
C379 C378 1.374 . S
C380 C377 1.499 . S
C380 C381 1.373 . S
C380 C382 1.389 . S
C381 H360 0.950 . S
C381 C380 1.373 . S
C381 C397 1.377 . S
C382 C380 1.389 . S
C382 C383 1.524 . S
C382 C396 1.377 . S
C383 C382 1.524 . S
C383 C384 1.397 . S
C383 C388 1.363 . S
C384 H361 0.950 . S
C384 C383 1.397 . S
C384 C385 1.334 . S
C385 H362 0.950 . S
C385 C384 1.334 . S
C385 C386 1.287 . S
C386 C385 1.287 . S
C386 C387 1.524 . S
C386 H405 0.913 . S
C387 H363 0.950 . S
C387 C386 1.524 . S
C387 C388 1.415 . S
C388 H364 0.950 . S
C388 C383 1.363 . S
C388 C387 1.415 . S
C389 H365 0.951 . S
C389 C390 1.366 . S
C389 C391 1.388 . S
C390 C389 1.366 . S
C390 C394 1.385 . S
C391 H366 0.951 . S
C391 C389 1.388 . S
C391 C392 1.366 . S
C392 C391 1.366 . S
C392 C393 1.414 . S
C392 C395 1.499 . S
C393 H367 0.950 . S
C393 C392 1.414 . S
C393 C394 1.374 . S
C394 H368 0.950 . S
C394 C390 1.385 . S
C394 C393 1.374 . S
C395 C392 1.499 . S
C395 C396 1.373 . S
C395 C397 1.389 . S
C396 H369 0.950 . S
C396 C382 1.377 . S
C396 C395 1.373 . S
C397 C381 1.377 . S
C397 C395 1.389 . S
C397 C398 1.524 . S
C398 C397 1.524 . S
C398 C399 1.397 . S
C398 C403 1.363 . S
C399 H370 0.950 . S
C399 C398 1.397 . S
C399 C400 1.334 1_545 S
C400 H371 0.951 . S
C400 C399 1.334 1_565 S
C400 C401 1.287 . S
C401 C400 1.287 . S
C401 C402 1.524 . S
C401 H404 0.999 . S
C402 H372 0.950 . S
C402 C401 1.524 . S
C402 C403 1.415 1_565 S
C403 H373 0.950 . S
C403 C398 1.363 . S
C403 C402 1.415 1_545 S
H404 C401 0.999 . S
H405 C386 0.913 . S
H406 C424 0.951 . S
H407 C426 0.951 . S
H408 C428 0.950 . S
H409 C429 0.950 . S
H410 C431 0.950 . S
H411 C434 0.950 . S
H412 C435 0.950 . S
H413 C437 0.950 . S
H414 C438 0.950 . S
H415 C439 0.951 . S
H416 C441 0.951 . S
H417 C443 0.950 . S
H418 C444 0.950 . S
H419 C446 0.950 . S
H420 C449 0.950 . S
H421 C450 0.950 . S
H422 C452 0.950 . S
H423 C453 0.950 . S
C424 H406 0.951 . S
C424 C425 1.366 . S
C424 C426 1.388 . S
C425 C424 1.366 . S
C425 C429 1.385 . S
C426 H407 0.951 . S
C426 C424 1.388 . S
C426 C427 1.366 . S
C427 C426 1.366 . S
C427 C428 1.414 . S
C427 C430 1.499 . S
C428 H408 0.950 . S
C428 C427 1.414 . S
C428 C429 1.374 . S
C429 H409 0.950 . S
C429 C425 1.385 . S
C429 C428 1.374 . S
C430 C427 1.499 . S
C430 C431 1.373 . S
C430 C432 1.389 . S
C431 H410 0.950 . S
C431 C430 1.373 . S
C431 C447 1.377 . S
C432 C430 1.389 . S
C432 C433 1.524 . S
C432 C446 1.377 . S
C433 C432 1.524 . S
C433 C434 1.397 . S
C433 C438 1.363 . S
C434 H411 0.950 . S
C434 C433 1.397 . S
C434 C435 1.334 . S
C435 H412 0.950 . S
C435 C434 1.334 . S
C435 C436 1.287 . S
C436 C435 1.287 . S
C436 C437 1.524 . S
C436 H455 0.913 . S
C437 H413 0.950 . S
C437 C436 1.524 . S
C437 C438 1.415 . S
C438 H414 0.950 . S
C438 C433 1.363 . S
C438 C437 1.415 . S
C439 H415 0.951 . S
C439 C440 1.366 . S
C439 C441 1.388 . S
C440 C439 1.366 . S
C440 C444 1.385 . S
C441 H416 0.951 . S
C441 C439 1.388 . S
C441 C442 1.366 . S
C442 C441 1.366 . S
C442 C443 1.414 . S
C442 C445 1.499 . S
C443 H417 0.950 . S
C443 C442 1.414 . S
C443 C444 1.374 . S
C444 H418 0.950 . S
C444 C440 1.385 . S
C444 C443 1.374 . S
C445 C442 1.499 . S
C445 C446 1.373 . S
C445 C447 1.389 . S
C446 H419 0.950 . S
C446 C432 1.377 . S
C446 C445 1.373 . S
C447 C431 1.377 . S
C447 C445 1.389 . S
C447 C448 1.524 . S
C448 C447 1.524 . S
C448 C449 1.397 1_565 S
C448 C453 1.363 . S
C449 H420 0.950 . S
C449 C448 1.397 1_545 S
C449 C450 1.334 . S
C450 H421 0.950 . S
C450 C449 1.334 . S
C450 C451 1.287 . S
C451 C450 1.287 . S
C451 C452 1.524 1_545 S
C451 H454 0.999 . S
C452 H422 0.950 . S
C452 C451 1.524 1_565 S
C452 C453 1.415 . S
C453 H423 0.950 . S
C453 C448 1.363 . S
C453 C452 1.415 . S
H454 C451 0.999 . S
H455 C436 0.913 . S
H456 C474 0.951 . S
H457 C476 0.951 . S
H458 C478 0.950 . S
H459 C479 0.950 . S
H460 C481 0.950 . S
H461 C484 0.950 . S
H462 C485 0.950 . S
H463 C487 0.950 . S
H464 C488 0.950 . S
H465 C489 0.951 . S
H466 C491 0.951 . S
H467 C493 0.950 . S
H468 C494 0.950 . S
H469 C496 0.950 . S
H470 C499 0.949 1_556 S
H471 C500 0.950 . S
H472 C502 0.950 . S
H473 C503 0.950 . S
C474 H456 0.951 . S
C474 C475 1.366 . S
C474 C476 1.388 . S
C475 C474 1.366 . S
C475 C479 1.385 . S
C476 H457 0.951 . S
C476 C474 1.388 . S
C476 C477 1.366 . S
C477 C476 1.366 . S
C477 C478 1.414 . S
C477 C480 1.499 . S
C478 H458 0.950 . S
C478 C477 1.414 . S
C478 C479 1.374 . S
C479 H459 0.950 . S
C479 C475 1.385 . S
C479 C478 1.374 . S
C480 C477 1.499 . S
C480 C481 1.373 . S
C480 C482 1.389 . S
C481 H460 0.950 . S
C481 C480 1.373 . S
C481 C497 1.377 . S
C482 C480 1.389 . S
C482 C483 1.524 . S
C482 C496 1.377 . S
C483 C482 1.524 . S
C483 C484 1.397 . S
C483 C488 1.363 . S
C484 H461 0.950 . S
C484 C483 1.397 . S
C484 C485 1.334 . S
C485 H462 0.950 . S
C485 C484 1.334 . S
C485 C486 1.287 . S
C486 C485 1.287 . S
C486 C487 1.524 . S
C486 H505 0.913 . S
C487 H463 0.950 . S
C487 C486 1.524 . S
C487 C488 1.415 . S
C488 H464 0.950 . S
C488 C483 1.363 . S
C488 C487 1.415 . S
C489 H465 0.951 . S
C489 C490 1.366 . S
C489 C491 1.388 . S
C490 C489 1.366 . S
C490 C494 1.385 . S
C491 H466 0.951 . S
C491 C489 1.388 . S
C491 C492 1.366 . S
C492 C491 1.366 . S
C492 C493 1.414 . S
C492 C495 1.499 . S
C493 H467 0.950 . S
C493 C492 1.414 . S
C493 C494 1.374 . S
C494 H468 0.950 . S
C494 C490 1.385 . S
C494 C493 1.374 . S
C495 C492 1.499 . S
C495 C496 1.373 . S
C495 C497 1.389 . S
C496 H469 0.950 . S
C496 C482 1.377 . S
C496 C495 1.373 . S
C497 C481 1.377 . S
C497 C495 1.389 . S
C497 C498 1.524 . S
C498 C497 1.524 . S
C498 C499 1.396 1_556 S
C498 C503 1.363 . S
C499 H470 0.949 1_554 S
C499 C498 1.396 1_554 S
C499 C500 1.336 . S
C500 H471 0.950 . S
C500 C499 1.336 . S
C500 C501 1.287 . S
C501 C500 1.287 . S
C501 C502 1.524 . S
C501 H504 0.999 . S
C502 H472 0.950 . S
C502 C501 1.524 . S
C502 C503 1.415 1_554 S
C503 H473 0.950 . S
C503 C498 1.363 . S
C503 C502 1.415 1_556 S
H504 C501 0.999 . S
H505 C486 0.913 . S
H506 C524 0.951 . S
H507 C526 0.951 . S
H508 C528 0.950 . S
H509 C529 0.950 . S
H510 C531 0.950 . S
H511 C534 0.950 . S
H512 C535 0.950 . S
H513 C537 0.950 . S
H514 C538 0.950 . S
H515 C539 0.951 . S
H516 C541 0.951 . S
H517 C543 0.950 . S
H518 C544 0.950 . S
H519 C546 0.950 . S
H520 C549 0.950 . S
H521 C550 0.950 . S
H522 C552 0.950 . S
H523 C553 0.950 . S
C524 H506 0.951 . S
C524 C525 1.366 . S
C524 C526 1.388 . S
C525 C524 1.366 . S
C525 C529 1.385 . S
C526 H507 0.951 . S
C526 C524 1.388 . S
C526 C527 1.366 . S
C527 C526 1.366 . S
C527 C528 1.414 . S
C527 C530 1.499 . S
C528 H508 0.950 . S
C528 C527 1.414 . S
C528 C529 1.374 . S
C529 H509 0.950 . S
C529 C525 1.385 . S
C529 C528 1.374 . S
C530 C527 1.499 . S
C530 C531 1.373 . S
C530 C532 1.389 . S
C531 H510 0.950 . S
C531 C530 1.373 . S
C531 C547 1.377 . S
C532 C530 1.389 . S
C532 C533 1.524 . S
C532 C546 1.377 . S
C533 C532 1.524 . S
C533 C534 1.397 . S
C533 C538 1.363 . S
C534 H511 0.950 . S
C534 C533 1.397 . S
C534 C535 1.334 . S
C535 H512 0.950 . S
C535 C534 1.334 . S
C535 C536 1.287 . S
C536 C535 1.287 . S
C536 C537 1.524 . S
C536 H555 0.913 . S
C537 H513 0.950 . S
C537 C536 1.524 . S
C537 C538 1.415 . S
C538 H514 0.950 . S
C538 C533 1.363 . S
C538 C537 1.415 . S
C539 H515 0.951 . S
C539 C540 1.366 . S
C539 C541 1.388 . S
C540 C539 1.366 . S
C540 C544 1.385 . S
C541 H516 0.951 . S
C541 C539 1.388 . S
C541 C542 1.366 . S
C542 C541 1.366 . S
C542 C543 1.414 . S
C542 C545 1.499 . S
C543 H517 0.950 . S
C543 C542 1.414 . S
C543 C544 1.374 . S
C544 H518 0.950 . S
C544 C540 1.385 . S
C544 C543 1.374 . S
C545 C542 1.499 . S
C545 C546 1.373 . S
C545 C547 1.389 . S
C546 H519 0.950 . S
C546 C532 1.377 . S
C546 C545 1.373 . S
C547 C531 1.377 . S
C547 C545 1.389 . S
C547 C548 1.524 . S
C548 C547 1.524 . S
C548 C549 1.397 . S
C548 C553 1.363 . S
C549 H520 0.950 . S
C549 C548 1.397 . S
C549 C550 1.334 . S
C550 H521 0.950 . S
C550 C549 1.334 . S
C550 C551 1.287 . S
C551 C550 1.287 . S
C551 C552 1.524 . S
C551 H554 0.999 . S
C552 H522 0.950 . S
C552 C551 1.524 . S
C552 C553 1.415 . S
C553 H523 0.950 . S
C553 C548 1.363 . S
C553 C552 1.415 . S
H554 C551 0.999 . S
H555 C536 0.913 . S
H556 C574 0.951 . S
H557 C576 0.951 . S
H558 C578 0.950 . S
H559 C579 0.950 . S
H560 C581 0.950 . S
H561 C584 0.950 . S
H562 C585 0.950 . S
H563 C587 0.950 . S
H564 C588 0.950 . S
H565 C589 0.951 . S
H566 C591 0.951 . S
H567 C593 0.950 . S
H568 C594 0.950 . S
H569 C596 0.950 . S
H570 C599 0.950 . S
H571 C600 0.950 . S
H572 C602 0.950 . S
H573 C603 0.950 . S
C574 H556 0.951 . S
C574 C575 1.366 . S
C574 C576 1.388 . S
C575 C574 1.366 . S
C575 C579 1.385 . S
C576 H557 0.951 . S
C576 C574 1.388 . S
C576 C577 1.366 . S
C577 C576 1.366 . S
C577 C578 1.414 . S
C577 C580 1.499 . S
C578 H558 0.950 . S
C578 C577 1.414 . S
C578 C579 1.374 . S
C579 H559 0.950 . S
C579 C575 1.385 . S
C579 C578 1.374 . S
C580 C577 1.499 . S
C580 C581 1.373 . S
C580 C582 1.389 . S
C581 H560 0.950 . S
C581 C580 1.373 . S
C581 C597 1.377 . S
C582 C580 1.389 . S
C582 C583 1.524 . S
C582 C596 1.377 . S
C583 C582 1.524 . S
C583 C584 1.397 . S
C583 C588 1.363 . S
C584 H561 0.950 . S
C584 C583 1.397 . S
C584 C585 1.334 . S
C585 H562 0.950 . S
C585 C584 1.334 . S
C585 C586 1.287 . S
C586 C585 1.287 . S
C586 C587 1.524 . S
C586 H605 0.913 . S
C587 H563 0.950 . S
C587 C586 1.524 . S
C587 C588 1.415 . S
C588 H564 0.950 . S
C588 C583 1.363 . S
C588 C587 1.415 . S
C589 H565 0.951 . S
C589 C590 1.366 . S
C589 C591 1.388 . S
C590 C589 1.366 . S
C590 C594 1.385 . S
C591 H566 0.951 . S
C591 C589 1.388 . S
C591 C592 1.366 . S
C592 C591 1.366 . S
C592 C593 1.414 . S
C592 C595 1.499 . S
C593 H567 0.950 . S
C593 C592 1.414 . S
C593 C594 1.374 . S
C594 H568 0.950 . S
C594 C590 1.385 . S
C594 C593 1.374 . S
C595 C592 1.499 . S
C595 C596 1.373 . S
C595 C597 1.389 . S
C596 H569 0.950 . S
C596 C582 1.377 . S
C596 C595 1.373 . S
C597 C581 1.377 . S
C597 C595 1.389 . S
C597 C598 1.524 . S
C598 C597 1.524 . S
C598 C599 1.397 . S
C598 C603 1.363 . S
C599 H570 0.950 . S
C599 C598 1.397 . S
C599 C600 1.334 . S
C600 H571 0.950 . S
C600 C599 1.334 . S
C600 C601 1.287 . S
C601 C600 1.287 . S
C601 C602 1.524 . S
C601 H604 0.999 . S
C602 H572 0.950 . S
C602 C601 1.524 . S
C602 C603 1.415 . S
C603 H573 0.950 . S
C603 C598 1.363 . S
C603 C602 1.415 . S
H604 C601 0.999 . S
H605 C586 0.913 . S
H606 C624 0.951 . S
H607 C626 0.951 . S
H608 C628 0.950 . S
H609 C629 0.950 . S
H610 C631 0.950 . S
H611 C634 0.950 . S
H612 C635 0.950 . S
H613 C637 0.950 . S
H614 C638 0.950 . S
H615 C639 0.951 . S
H616 C641 0.951 . S
H617 C643 0.950 . S
H618 C644 0.950 . S
H619 C646 0.950 . S
H620 C649 0.942 1_554 S
H621 C650 0.950 . S
H622 C652 0.950 . S
H623 C653 0.950 . S
C624 H606 0.951 . S
C624 C625 1.366 . S
C624 C626 1.388 . S
C625 C624 1.366 . S
C625 C629 1.385 . S
C626 H607 0.951 . S
C626 C624 1.388 . S
C626 C627 1.366 . S
C627 C626 1.366 . S
C627 C628 1.414 . S
C627 C630 1.499 . S
C628 H608 0.950 . S
C628 C627 1.414 . S
C628 C629 1.374 . S
C629 H609 0.950 . S
C629 C625 1.385 . S
C629 C628 1.374 . S
C630 C627 1.499 . S
C630 C631 1.373 . S
C630 C632 1.389 . S
C631 H610 0.950 . S
C631 C630 1.373 . S
C631 C647 1.377 . S
C632 C630 1.389 . S
C632 C633 1.524 . S
C632 C646 1.377 . S
C633 C632 1.524 . S
C633 C634 1.397 . S
C633 C638 1.363 . S
C634 H611 0.950 . S
C634 C633 1.397 . S
C634 C635 1.334 . S
C635 H612 0.950 . S
C635 C634 1.334 . S
C635 C636 1.287 . S
C636 C635 1.287 . S
C636 C637 1.524 . S
C636 H655 0.913 . S
C637 H613 0.950 . S
C637 C636 1.524 . S
C637 C638 1.415 . S
C638 H614 0.950 . S
C638 C633 1.363 . S
C638 C637 1.415 . S
C639 H615 0.951 . S
C639 C640 1.366 . S
C639 C641 1.388 . S
C640 C639 1.366 . S
C640 C644 1.385 . S
C641 H616 0.951 . S
C641 C639 1.388 . S
C641 C642 1.366 . S
C642 C641 1.366 . S
C642 C643 1.414 . S
C642 C645 1.499 . S
C643 H617 0.950 . S
C643 C642 1.414 . S
C643 C644 1.374 . S
C644 H618 0.950 . S
C644 C640 1.385 . S
C644 C643 1.374 . S
C645 C642 1.499 . S
C645 C646 1.373 . S
C645 C647 1.389 . S
C646 H619 0.950 . S
C646 C632 1.377 . S
C646 C645 1.373 . S
C647 C631 1.377 . S
C647 C645 1.389 . S
C647 C648 1.524 . S
C648 C647 1.524 . S
C648 C649 1.397 . S
C648 C653 1.363 . S
C649 H620 0.942 1_556 S
C649 C648 1.397 . S
C649 C650 1.334 1_556 S
C650 H621 0.950 . S
C650 C649 1.334 1_554 S
C650 C651 1.287 . S
C651 C650 1.287 . S
C651 C652 1.524 1_554 S
C651 H654 0.999 . S
C652 H622 0.950 . S
C652 C651 1.524 1_556 S
C652 C653 1.415 . S
C653 H623 0.950 . S
C653 C648 1.363 . S
C653 C652 1.415 . S
H654 C651 0.999 . S
H655 C636 0.913 . S
H656 C674 0.951 . S
H657 C676 0.951 . S
H658 C678 0.950 . S
H659 C679 0.950 . S
H660 C681 0.950 . S
H661 C684 0.950 . S
H662 C685 0.950 . S
H663 C687 0.950 . S
H664 C688 0.950 . S
H665 C689 0.951 . S
H666 C691 0.951 . S
H667 C693 0.950 . S
H668 C694 0.950 1_455 S
H669 C696 0.950 . S
H670 C699 0.950 . S
H671 C700 0.950 . S
H672 C702 0.950 . S
H673 C703 0.950 . S
C674 H656 0.951 . S
C674 C675 1.366 . S
C674 C676 1.388 . S
C675 C674 1.366 . S
C675 C679 1.385 . S
C676 H657 0.951 . S
C676 C674 1.388 . S
C676 C677 1.366 . S
C677 C676 1.366 . S
C677 C678 1.414 . S
C677 C680 1.499 . S
C678 H658 0.950 . S
C678 C677 1.414 . S
C678 C679 1.374 . S
C679 H659 0.950 . S
C679 C675 1.385 . S
C679 C678 1.374 . S
C680 C677 1.499 . S
C680 C681 1.373 . S
C680 C682 1.389 . S
C681 H660 0.950 . S
C681 C680 1.373 . S
C681 C697 1.377 . S
C682 C680 1.389 . S
C682 C683 1.524 . S
C682 C696 1.377 . S
C683 C682 1.524 . S
C683 C684 1.397 . S
C683 C688 1.363 . S
C684 H661 0.950 . S
C684 C683 1.397 . S
C684 C685 1.334 . S
C685 H662 0.950 . S
C685 C684 1.334 . S
C685 C686 1.287 . S
C686 C685 1.287 . S
C686 C687 1.524 1_655 S
C686 H705 0.913 1_655 S
C687 H663 0.950 . S
C687 C686 1.524 1_455 S
C687 C688 1.415 1_455 S
C688 H664 0.950 . S
C688 C683 1.363 . S
C688 C687 1.415 1_655 S
C689 H665 0.951 . S
C689 C690 1.366 . S
C689 C691 1.388 . S
C690 C689 1.366 . S
C690 C694 1.385 . S
C691 H666 0.951 . S
C691 C689 1.388 . S
C691 C692 1.366 . S
C692 C691 1.366 . S
C692 C693 1.414 . S
C692 C695 1.499 . S
C693 H667 0.950 . S
C693 C692 1.414 . S
C693 C694 1.374 . S
C694 H668 0.950 1_655 S
C694 C690 1.385 . S
C694 C693 1.374 . S
C695 C692 1.499 . S
C695 C696 1.373 . S
C695 C697 1.389 . S
C696 H669 0.950 . S
C696 C682 1.377 . S
C696 C695 1.373 . S
C697 C681 1.377 . S
C697 C695 1.389 . S
C697 C698 1.524 . S
C698 C697 1.524 . S
C698 C699 1.397 . S
C698 C703 1.363 . S
C699 H670 0.950 . S
C699 C698 1.397 . S
C699 C700 1.334 . S
C700 H671 0.950 . S
C700 C699 1.334 . S
C700 C701 1.287 . S
C701 C700 1.287 . S
C701 C702 1.524 . S
C701 H704 0.999 . S
C702 H672 0.950 . S
C702 C701 1.524 . S
C702 C703 1.415 . S
C703 H673 0.950 . S
C703 C698 1.363 . S
C703 C702 1.415 . S
H704 C701 0.999 . S
H705 C686 0.913 1_455 S
H706 C724 0.951 . S
H707 C726 0.951 . S
H708 C728 0.950 . S
H709 C729 0.950 . S
H710 C731 0.950 . S
H711 C734 0.950 . S
H712 C735 0.950 . S
H713 C737 0.950 . S
H714 C738 0.950 . S
H715 C739 0.951 . S
H716 C741 0.951 . S
H717 C743 0.950 . S
H718 C744 0.950 . S
H719 C746 0.950 . S
H720 C749 0.950 . S
H721 C750 0.950 . S
H722 C752 0.950 . S
H723 C753 0.950 . S
C724 H706 0.951 . S
C724 C725 1.366 . S
C724 C726 1.388 . S
C725 C724 1.366 . S
C725 C729 1.385 . S
C726 H707 0.951 . S
C726 C724 1.388 . S
C726 C727 1.366 . S
C727 C726 1.366 . S
C727 C728 1.414 . S
C727 C730 1.499 . S
C728 H708 0.950 . S
C728 C727 1.414 . S
C728 C729 1.374 . S
C729 H709 0.950 . S
C729 C725 1.385 . S
C729 C728 1.374 . S
C730 C727 1.499 . S
C730 C731 1.373 . S
C730 C732 1.389 . S
C731 H710 0.950 . S
C731 C730 1.373 . S
C731 C747 1.377 . S
C732 C730 1.389 . S
C732 C733 1.524 . S
C732 C746 1.377 . S
C733 C732 1.524 . S
C733 C734 1.397 . S
C733 C738 1.363 . S
C734 H711 0.950 . S
C734 C733 1.397 . S
C734 C735 1.334 . S
C735 H712 0.950 . S
C735 C734 1.334 . S
C735 C736 1.287 . S
C736 C735 1.287 . S
C736 C737 1.524 . S
C736 H755 0.913 . S
C737 H713 0.950 . S
C737 C736 1.524 . S
C737 C738 1.415 . S
C738 H714 0.950 . S
C738 C733 1.363 . S
C738 C737 1.415 . S
C739 H715 0.951 . S
C739 C740 1.366 . S
C739 C741 1.388 . S
C740 C739 1.366 . S
C740 C744 1.385 . S
C741 H716 0.951 . S
C741 C739 1.388 . S
C741 C742 1.366 . S
C742 C741 1.366 . S
C742 C743 1.414 . S
C742 C745 1.499 . S
C743 H717 0.950 . S
C743 C742 1.414 . S
C743 C744 1.374 . S
C744 H718 0.950 . S
C744 C740 1.385 . S
C744 C743 1.374 . S
C745 C742 1.499 . S
C745 C746 1.373 . S
C745 C747 1.389 . S
C746 H719 0.950 . S
C746 C732 1.377 . S
C746 C745 1.373 . S
C747 C731 1.377 . S
C747 C745 1.389 . S
C747 C748 1.524 . S
C748 C747 1.524 . S
C748 C749 1.397 . S
C748 C753 1.363 . S
C749 H720 0.950 . S
C749 C748 1.397 . S
C749 C750 1.334 . S
C750 H721 0.950 . S
C750 C749 1.334 . S
C750 C751 1.287 . S
C751 C750 1.287 . S
C751 C752 1.524 . S
C751 H754 0.999 . S
C752 H722 0.950 . S
C752 C751 1.524 . S
C752 C753 1.415 . S
C753 H723 0.950 . S
C753 C748 1.363 . S
C753 C752 1.415 . S
H754 C751 0.999 . S
H755 C736 0.913 . S
H756 C774 0.951 . S
H757 C776 0.951 1_545 S
H758 C778 0.950 . S
H759 C779 0.950 . S
H760 C781 0.950 1_455 S
H761 C784 0.950 . S
H762 C785 0.950 . S
H763 C787 0.950 . S
H764 C788 0.950 . S
H765 C789 0.951 . S
H766 C791 0.951 1_455 S
H767 C793 0.950 . S
H768 C794 0.950 . S
H769 C796 0.951 . S
H770 C799 0.950 . S
H771 C800 0.950 . S
H772 C802 0.950 . S
H773 C803 0.950 . S
C774 H756 0.951 . S
C774 C775 1.366 . S
C774 C776 1.388 . S
C775 C774 1.366 . S
C775 C779 1.385 . S
C776 H757 0.951 1_565 S
C776 C774 1.388 . S
C776 C777 1.366 . S
C777 C776 1.366 . S
C777 C778 1.414 . S
C777 C780 1.499 . S
C778 H758 0.950 . S
C778 C777 1.414 . S
C778 C779 1.374 . S
C779 H759 0.950 . S
C779 C775 1.385 . S
C779 C778 1.374 . S
C780 C777 1.499 . S
C780 C781 1.373 . S
C780 C782 1.389 . S
C781 H760 0.950 1_655 S
C781 C780 1.373 . S
C781 C797 1.377 . S
C782 C780 1.389 . S
C782 C783 1.524 . S
C782 C796 1.377 . S
C783 C782 1.524 . S
C783 C784 1.397 . S
C783 C788 1.363 1_565 S
C784 H761 0.950 . S
C784 C783 1.397 . S
C784 C785 1.334 . S
C785 H762 0.950 . S
C785 C784 1.334 . S
C785 C786 1.287 . S
C786 C785 1.287 . S
C786 C787 1.524 1_565 S
C786 H805 0.913 . S
C787 H763 0.950 . S
C787 C786 1.524 1_545 S
C787 C788 1.415 . S
C788 H764 0.950 . S
C788 C783 1.363 1_545 S
C788 C787 1.415 . S
C789 H765 0.951 . S
C789 C790 1.366 1_465 S
C789 C791 1.388 1_455 S
C790 C789 1.366 1_645 S
C790 C794 1.385 . S
C791 H766 0.951 1_655 S
C791 C789 1.388 1_655 S
C791 C792 1.342 1_565 S
C792 C791 1.342 1_545 S
C792 C793 1.446 . S
C792 C795 1.491 1_545 S
C793 H767 0.950 . S
C793 C792 1.446 . S
C793 C794 1.374 . S
C794 H768 0.950 . S
C794 C790 1.385 . S
C794 C793 1.374 . S
C795 C792 1.491 1_565 S
C795 C796 1.373 . S
C795 C797 1.389 . S
C796 H769 0.951 . S
C796 C782 1.377 . S
C796 C795 1.373 . S
C797 C781 1.377 . S
C797 C795 1.389 . S
C797 C798 1.524 1_655 S
C798 C797 1.524 1_455 S
C798 C799 1.397 1_565 S
C798 C803 1.363 . S
C799 H770 0.950 . S
C799 C798 1.397 1_545 S
C799 C800 1.334 . S
C800 H771 0.950 . S
C800 C799 1.334 . S
C800 C801 1.287 1_545 S
C801 C800 1.287 1_565 S
C801 C802 1.524 . S
C801 H804 0.998 1_565 S
C802 H772 0.950 . S
C802 C801 1.524 . S
C802 C803 1.415 . S
C803 H773 0.950 . S
C803 C798 1.363 . S
C803 C802 1.415 . S
H804 C801 0.998 1_545 S
H805 C786 0.913 . S
H806 C824 0.951 . S
H807 C826 0.951 . S
H808 C828 0.950 . S
H809 C829 0.950 . S
H810 C831 0.950 . S
H811 C834 0.950 . S
H812 C835 0.950 . S
H813 C837 0.950 . S
H814 C838 0.950 . S
H815 C839 0.955 . S
H816 C841 0.951 . S
H817 C843 0.950 . S
H818 C844 0.950 . S
H819 C846 0.950 . S
H820 C849 0.925 1_545 S
H821 C850 0.950 . S
H822 C852 0.950 . S
H823 C853 0.950 . S
C824 H806 0.951 . S
C824 C825 1.366 . S
C824 C826 1.388 . S
C825 C824 1.366 . S
C825 C829 1.385 . S
C826 H807 0.951 . S
C826 C824 1.388 . S
C826 C827 1.366 . S
C827 C826 1.366 . S
C827 C828 1.414 . S
C827 C830 1.499 . S
C828 H808 0.950 . S
C828 C827 1.414 . S
C828 C829 1.374 . S
C829 H809 0.950 . S
C829 C825 1.385 . S
C829 C828 1.374 . S
C830 C827 1.499 . S
C830 C831 1.373 . S
C830 C832 1.389 . S
C831 H810 0.950 . S
C831 C830 1.373 . S
C831 C847 1.377 . S
C832 C830 1.389 . S
C832 C833 1.524 . S
C832 C846 1.377 . S
C833 C832 1.524 . S
C833 C834 1.397 . S
C833 C838 1.363 . S
C834 H811 0.950 . S
C834 C833 1.397 . S
C834 C835 1.334 . S
C835 H812 0.950 . S
C835 C834 1.334 . S
C835 C836 1.287 . S
C836 C835 1.287 . S
C836 C837 1.524 . S
C836 H855 0.913 . S
C837 H813 0.950 . S
C837 C836 1.524 . S
C837 C838 1.415 . S
C838 H814 0.950 . S
C838 C833 1.363 . S
C838 C837 1.415 . S
C839 H815 0.955 . S
C839 C840 1.366 . S
C839 C841 1.388 . S
C840 C839 1.366 . S
C840 C844 1.385 . S
C841 H816 0.951 . S
C841 C839 1.388 . S
C841 C842 1.366 . S
C842 C841 1.366 . S
C842 C843 1.414 . S
C842 C845 1.499 . S
C843 H817 0.950 . S
C843 C842 1.414 . S
C843 C844 1.374 . S
C844 H818 0.950 . S
C844 C840 1.385 . S
C844 C843 1.374 . S
C845 C842 1.499 . S
C845 C846 1.373 . S
C845 C847 1.389 . S
C846 H819 0.950 . S
C846 C832 1.377 . S
C846 C845 1.373 . S
C847 C831 1.377 . S
C847 C845 1.389 . S
C847 C848 1.524 1_545 S
C848 C847 1.524 1_565 S
C848 C849 1.397 . S
C848 C853 1.363 . S
C849 H820 0.925 1_565 S
C849 C848 1.397 . S
C849 C850 1.334 . S
C850 H821 0.950 . S
C850 C849 1.334 . S
C850 C851 1.287 . S
C851 C850 1.287 . S
C851 C852 1.524 . S
C851 H854 0.999 . S
C852 H822 0.950 . S
C852 C851 1.524 . S
C852 C853 1.415 . S
C853 H823 0.950 . S
C853 C848 1.363 . S
C853 C852 1.415 . S
H854 C851 0.999 . S
H855 C836 0.913 . S
H856 C874 0.951 . S
H857 C876 0.951 . S
H858 C878 0.950 . S
H859 C879 0.950 . S
H860 C881 0.950 . S
H861 C884 0.950 . S
H862 C885 0.950 . S
H863 C887 0.950 . S
H864 C888 0.950 . S
H865 C889 0.951 . S
H866 C891 0.951 . S
H867 C893 0.950 . S
H868 C894 0.950 . S
H869 C896 0.950 . S
H870 C899 0.950 . S
H871 C900 0.950 . S
H872 C902 0.950 . S
H873 C903 0.950 . S
C874 H856 0.951 . S
C874 C875 1.366 . S
C874 C876 1.388 . S
C875 C874 1.366 . S
C875 C879 1.385 . S
C876 H857 0.951 . S
C876 C874 1.388 . S
C876 C877 1.366 . S
C877 C876 1.366 . S
C877 C878 1.414 . S
C877 C880 1.499 . S
C878 H858 0.950 . S
C878 C877 1.414 . S
C878 C879 1.374 . S
C879 H859 0.950 . S
C879 C875 1.385 . S
C879 C878 1.374 . S
C880 C877 1.499 . S
C880 C881 1.373 . S
C880 C882 1.389 . S
C881 H860 0.950 . S
C881 C880 1.373 . S
C881 C897 1.377 . S
C882 C880 1.389 . S
C882 C883 1.524 . S
C882 C896 1.377 . S
C883 C882 1.524 . S
C883 C884 1.397 . S
C883 C888 1.363 . S
C884 H861 0.950 . S
C884 C883 1.397 . S
C884 C885 1.334 . S
C885 H862 0.950 . S
C885 C884 1.334 . S
C885 C886 1.287 . S
C886 C885 1.287 . S
C886 C887 1.524 . S
C886 H905 0.913 . S
C887 H863 0.950 . S
C887 C886 1.524 . S
C887 C888 1.415 . S
C888 H864 0.950 . S
C888 C883 1.363 . S
C888 C887 1.415 . S
C889 H865 0.951 . S
C889 C890 1.366 . S
C889 C891 1.388 . S
C890 C889 1.366 . S
C890 C894 1.385 . S
C891 H866 0.951 . S
C891 C889 1.388 . S
C891 C892 1.366 . S
C892 C891 1.366 . S
C892 C893 1.414 . S
C892 C895 1.499 . S
C893 H867 0.950 . S
C893 C892 1.414 . S
C893 C894 1.374 . S
C894 H868 0.950 . S
C894 C890 1.385 . S
C894 C893 1.374 . S
C895 C892 1.499 . S
C895 C896 1.373 . S
C895 C897 1.389 . S
C896 H869 0.950 . S
C896 C882 1.377 . S
C896 C895 1.373 . S
C897 C881 1.377 . S
C897 C895 1.389 . S
C897 C898 1.524 . S
C898 C897 1.524 . S
C898 C899 1.397 . S
C898 C903 1.363 . S
C899 H870 0.950 . S
C899 C898 1.397 . S
C899 C900 1.334 . S
C900 H871 0.950 . S
C900 C899 1.334 . S
C900 C901 1.287 . S
C901 C900 1.287 . S
C901 C902 1.524 . S
C901 H904 0.999 . S
C902 H872 0.950 . S
C902 C901 1.524 . S
C902 C903 1.415 . S
C903 H873 0.950 . S
C903 C898 1.363 . S
C903 C902 1.415 . S
H904 C901 0.999 . S
H905 C886 0.913 . S
H906 C924 0.951 . S
H907 C926 0.951 . S
H908 C928 0.950 . S
H909 C929 0.950 . S
H910 C931 0.950 . S
H911 C934 0.950 . S
H912 C935 0.950 . S
H913 C937 0.950 . S
H914 C938 0.950 . S
H915 C939 0.951 . S
H916 C941 0.951 . S
H917 C943 0.950 . S
H918 C944 0.950 . S
H919 C946 0.950 . S
H920 C949 0.950 . S
H921 C950 0.950 . S
H922 C952 0.950 . S
H923 C953 0.950 . S
C924 H906 0.951 . S
C924 C925 1.366 . S
C924 C926 1.388 . S
C925 C924 1.366 . S
C925 C929 1.385 . S
C926 H907 0.951 . S
C926 C924 1.388 . S
C926 C927 1.366 . S
C927 C926 1.366 . S
C927 C928 1.414 . S
C927 C930 1.499 . S
C928 H908 0.950 . S
C928 C927 1.414 . S
C928 C929 1.374 . S
C929 H909 0.950 . S
C929 C925 1.385 . S
C929 C928 1.374 . S
C930 C927 1.499 . S
C930 C931 1.373 . S
C930 C932 1.389 . S
C931 H910 0.950 . S
C931 C930 1.373 . S
C931 C947 1.377 . S
C932 C930 1.389 . S
C932 C933 1.524 . S
C932 C946 1.377 . S
C933 C932 1.524 . S
C933 C934 1.397 . S
C933 C938 1.363 . S
C934 H911 0.950 . S
C934 C933 1.397 . S
C934 C935 1.334 . S
C935 H912 0.950 . S
C935 C934 1.334 . S
C935 C936 1.287 . S
C936 C935 1.287 . S
C936 C937 1.524 . S
C936 H955 0.913 . S
C937 H913 0.950 . S
C937 C936 1.524 . S
C937 C938 1.415 . S
C938 H914 0.950 . S
C938 C933 1.363 . S
C938 C937 1.415 . S
C939 H915 0.951 . S
C939 C940 1.366 . S
C939 C941 1.388 . S
C940 C939 1.366 . S
C940 C944 1.385 . S
C941 H916 0.951 . S
C941 C939 1.388 . S
C941 C942 1.366 . S
C942 C941 1.366 . S
C942 C943 1.414 . S
C942 C945 1.499 . S
C943 H917 0.950 . S
C943 C942 1.414 . S
C943 C944 1.374 . S
C944 H918 0.950 . S
C944 C940 1.385 . S
C944 C943 1.374 . S
C945 C942 1.499 . S
C945 C946 1.373 . S
C945 C947 1.389 . S
C946 H919 0.950 . S
C946 C932 1.377 . S
C946 C945 1.373 . S
C947 C931 1.377 . S
C947 C945 1.389 . S
C947 C948 1.524 . S
C948 C947 1.524 . S
C948 C949 1.397 . S
C948 C953 1.363 . S
C949 H920 0.950 . S
C949 C948 1.397 . S
C949 C950 1.334 . S
C950 H921 0.950 . S
C950 C949 1.334 . S
C950 C951 1.287 . S
C951 C950 1.287 . S
C951 C952 1.524 . S
C951 H954 0.999 . S
C952 H922 0.950 . S
C952 C951 1.524 . S
C952 C953 1.415 . S
C953 H923 0.950 . S
C953 C948 1.363 . S
C953 C952 1.415 . S
H954 C951 0.999 . S
H955 C936 0.913 . S
H956 C974 0.951 . S
H957 C976 0.951 1_554 S
H958 C978 0.950 . S
H959 C979 0.950 . S
H960 C981 0.950 1_545 S
H961 C984 0.950 . S
H962 C985 0.950 . S
H963 C987 0.950 1_554 S
H964 C988 0.950 . S
H965 C989 0.951 . S
H966 C991 0.962 . S
H967 C993 0.950 . S
H968 C994 0.950 . S
H969 C996 0.950 . S
H970 C999 0.950 . S
H971 C1000 0.950 . S
H972 C1002 0.950 . S
H973 C1003 0.950 . S
C974 H956 0.951 . S
C974 C975 1.366 . S
C974 C976 1.388 . S
C975 C974 1.366 . S
C975 C979 1.385 . S
C976 H957 0.951 1_556 S
C976 C974 1.388 . S
C976 C977 1.366 . S
C977 C976 1.366 . S
C977 C978 1.414 . S
C977 C980 1.499 . S
C978 H958 0.950 . S
C978 C977 1.414 . S
C978 C979 1.374 . S
C979 H959 0.950 . S
C979 C975 1.385 . S
C979 C978 1.374 . S
C980 C977 1.499 . S
C980 C981 1.373 . S
C980 C982 1.389 . S
C981 H960 0.950 1_565 S
C981 C980 1.373 . S
C981 C997 1.377 1_565 S
C982 C980 1.389 . S
C982 C983 1.524 . S
C982 C996 1.377 . S
C983 C982 1.524 . S
C983 C984 1.397 . S
C983 C988 1.363 1_556 S
C984 H961 0.950 . S
C984 C983 1.397 . S
C984 C985 1.334 . S
C985 H962 0.950 . S
C985 C984 1.334 . S
C985 C986 1.287 . S
C986 C985 1.287 . S
C986 C987 1.524 . S
C986 H1005 0.913 . S
C987 H963 0.950 1_556 S
C987 C986 1.524 . S
C987 C988 1.415 1_556 S
C988 H964 0.950 . S
C988 C983 1.363 1_554 S
C988 C987 1.415 1_554 S
C989 H965 0.951 . S
C989 C990 1.366 1_546 S
C989 C991 1.392 . S
C990 C989 1.366 1_564 S
C990 C994 1.385 . S
C991 H966 0.962 . S
C991 C989 1.392 . S
C991 C992 1.351 1_545 S
C992 C991 1.351 1_565 S
C992 C993 1.414 1_556 S
C992 C995 1.499 . S
C993 H967 0.950 . S
C993 C992 1.414 1_554 S
C993 C994 1.374 . S
C994 H968 0.950 . S
C994 C990 1.385 . S
C994 C993 1.374 . S
C995 C992 1.499 . S
C995 C996 1.373 . S
C995 C997 1.389 1_565 S
C996 H969 0.950 . S
C996 C982 1.377 . S
C996 C995 1.373 . S
C997 C981 1.377 1_545 S
C997 C995 1.389 1_545 S
C997 C998 1.524 . S
C998 C997 1.524 . S
C998 C999 1.397 1_556 S
C998 C1003 1.363 . S
C999 H970 0.950 . S
C999 C998 1.397 1_554 S
C999 C1000 1.334 . S
C1000 H971 0.950 . S
C1000 C999 1.334 . S
C1000 C1001 1.290 . S
C1001 C1000 1.290 . S
C1001 C1002 1.520 1_554 S
C1001 H1004 1.000 . S
C1002 H972 0.950 . S
C1002 C1001 1.520 1_556 S
C1002 C1003 1.415 . S
C1003 H973 0.950 . S
C1003 C998 1.363 . S
C1003 C1002 1.415 . S
H1004 C1001 1.000 . S
H1005 C986 0.913 . S
H1006 C1024 0.951 . S
H1007 C1026 0.951 . S
H1008 C1028 0.950 . S
H1009 C1029 0.950 . S
H1010 C1031 0.950 . S
H1011 C1034 0.950 . S
H1012 C1035 0.950 . S
H1013 C1037 0.950 . S
H1014 C1038 0.933 1_565 S
H1015 C1039 0.951 . S
H1016 C1041 0.951 . S
H1017 C1043 0.950 . S
H1018 C1044 0.950 . S
H1019 C1046 0.950 . S
H1020 C1049 0.950 . S
H1021 C1050 0.950 . S
H1022 C1052 0.950 . S
H1023 C1053 0.950 . S
C1024 H1006 0.951 . S
C1024 C1025 1.366 . S
C1024 C1026 1.388 . S
C1025 C1024 1.366 . S
C1025 C1029 1.385 . S
C1026 H1007 0.951 . S
C1026 C1024 1.388 . S
C1026 C1027 1.366 . S
C1027 C1026 1.366 . S
C1027 C1028 1.414 . S
C1027 C1030 1.499 . S
C1028 H1008 0.950 . S
C1028 C1027 1.414 . S
C1028 C1029 1.374 . S
C1029 H1009 0.950 . S
C1029 C1025 1.385 . S
C1029 C1028 1.374 . S
C1030 C1027 1.499 . S
C1030 C1031 1.373 . S
C1030 C1032 1.389 . S
C1031 H1010 0.950 . S
C1031 C1030 1.373 . S
C1031 C1047 1.377 . S
C1032 C1030 1.389 . S
C1032 C1033 1.524 . S
C1032 C1046 1.377 . S
C1033 C1032 1.524 . S
C1033 C1034 1.397 . S
C1033 C1038 1.363 . S
C1034 H1011 0.950 . S
C1034 C1033 1.397 . S
C1034 C1035 1.334 . S
C1035 H1012 0.950 . S
C1035 C1034 1.334 . S
C1035 C1036 1.287 . S
C1036 C1035 1.287 . S
C1036 C1037 1.524 1_545 S
C1036 H1055 0.913 . S
C1037 H1013 0.950 . S
C1037 C1036 1.524 1_565 S
C1037 C1038 1.415 1_565 S
C1038 H1014 0.933 1_545 S
C1038 C1033 1.363 . S
C1038 C1037 1.415 1_545 S
C1039 H1015 0.951 . S
C1039 C1040 1.366 . S
C1039 C1041 1.388 . S
C1040 C1039 1.366 . S
C1040 C1044 1.385 . S
C1041 H1016 0.951 . S
C1041 C1039 1.388 . S
C1041 C1042 1.366 . S
C1042 C1041 1.366 . S
C1042 C1043 1.414 . S
C1042 C1045 1.499 . S
C1043 H1017 0.950 . S
C1043 C1042 1.414 . S
C1043 C1044 1.374 . S
C1044 H1018 0.950 . S
C1044 C1040 1.385 . S
C1044 C1043 1.374 . S
C1045 C1042 1.499 . S
C1045 C1046 1.373 . S
C1045 C1047 1.389 . S
C1046 H1019 0.950 . S
C1046 C1032 1.377 . S
C1046 C1045 1.373 . S
C1047 C1031 1.377 . S
C1047 C1045 1.389 . S
C1047 C1048 1.524 . S
C1048 C1047 1.524 . S
C1048 C1049 1.397 . S
C1048 C1053 1.363 . S
C1049 H1020 0.950 . S
C1049 C1048 1.397 . S
C1049 C1050 1.334 . S
C1050 H1021 0.950 . S
C1050 C1049 1.334 . S
C1050 C1051 1.287 . S
C1051 C1050 1.287 . S
C1051 C1052 1.524 . S
C1051 H1054 0.999 . S
C1052 H1022 0.950 . S
C1052 C1051 1.524 . S
C1052 C1053 1.415 . S
C1053 H1023 0.950 . S
C1053 C1048 1.363 . S
C1053 C1052 1.415 . S
H1054 C1051 0.999 . S
H1055 C1036 0.913 . S
H1056 C1074 0.951 . S
H1057 C1076 0.951 . S
H1058 C1078 0.950 . S
H1059 C1079 0.950 . S
H1060 C1081 0.950 . S
H1061 C1084 0.950 . S
H1062 C1085 0.950 . S
H1063 C1087 0.950 . S
H1064 C1088 0.950 . S
H1065 C1089 0.951 . S
H1066 C1091 0.951 . S
H1067 C1093 0.950 . S
H1068 C1094 0.950 . S
H1069 C1096 0.950 . S
H1070 C1099 0.950 . S
H1071 C1100 0.950 . S
H1072 C1102 0.950 . S
H1073 C1103 0.950 . S
C1074 H1056 0.951 . S
C1074 C1075 1.366 . S
C1074 C1076 1.388 . S
C1075 C1074 1.366 . S
C1075 C1079 1.385 . S
C1076 H1057 0.951 . S
C1076 C1074 1.388 . S
C1076 C1077 1.366 . S
C1077 C1076 1.366 . S
C1077 C1078 1.414 . S
C1077 C1080 1.499 . S
C1078 H1058 0.950 . S
C1078 C1077 1.414 . S
C1078 C1079 1.374 . S
C1079 H1059 0.950 . S
C1079 C1075 1.385 . S
C1079 C1078 1.374 . S
C1080 C1077 1.499 . S
C1080 C1081 1.373 . S
C1080 C1082 1.389 . S
C1081 H1060 0.950 . S
C1081 C1080 1.373 . S
C1081 C1097 1.377 . S
C1082 C1080 1.389 . S
C1082 C1083 1.524 . S
C1082 C1096 1.377 . S
C1083 C1082 1.524 . S
C1083 C1084 1.397 . S
C1083 C1088 1.363 . S
C1084 H1061 0.950 . S
C1084 C1083 1.397 . S
C1084 C1085 1.334 . S
C1085 H1062 0.950 . S
C1085 C1084 1.334 . S
C1085 C1086 1.287 . S
C1086 C1085 1.287 . S
C1086 C1087 1.524 . S
C1086 H1105 0.913 . S
C1087 H1063 0.950 . S
C1087 C1086 1.524 . S
C1087 C1088 1.415 . S
C1088 H1064 0.950 . S
C1088 C1083 1.363 . S
C1088 C1087 1.415 . S
C1089 H1065 0.951 . S
C1089 C1090 1.366 . S
C1089 C1091 1.388 . S
C1090 C1089 1.366 . S
C1090 C1094 1.385 . S
C1091 H1066 0.951 . S
C1091 C1089 1.388 . S
C1091 C1092 1.366 . S
C1092 C1091 1.366 . S
C1092 C1093 1.414 . S
C1092 C1095 1.499 . S
C1093 H1067 0.950 . S
C1093 C1092 1.414 . S
C1093 C1094 1.374 . S
C1094 H1068 0.950 . S
C1094 C1090 1.385 . S
C1094 C1093 1.374 . S
C1095 C1092 1.499 . S
C1095 C1096 1.373 . S
C1095 C1097 1.389 . S
C1096 H1069 0.950 . S
C1096 C1082 1.377 . S
C1096 C1095 1.373 . S
C1097 C1081 1.377 . S
C1097 C1095 1.389 . S
C1097 C1098 1.524 . S
C1098 C1097 1.524 . S
C1098 C1099 1.397 1_554 S
C1098 C1103 1.363 . S
C1099 H1070 0.950 . S
C1099 C1098 1.397 1_556 S
C1099 C1100 1.334 . S
C1100 H1071 0.950 . S
C1100 C1099 1.334 . S
C1100 C1101 1.287 . S
C1101 C1100 1.287 . S
C1101 C1102 1.524 1_556 S
C1101 H1104 0.999 . S
C1102 H1072 0.950 . S
C1102 C1101 1.524 1_554 S
C1102 C1103 1.415 . S
C1103 H1073 0.950 . S
C1103 C1098 1.363 . S
C1103 C1102 1.415 . S
H1104 C1101 0.999 . S
H1105 C1086 0.913 . S
H1106 C1124 0.951 . S
H1107 C1126 0.951 . S
H1108 C1128 0.950 . S
H1109 C1129 0.950 . S
H1110 C1131 0.950 . S
H1111 C1134 0.950 . S
H1112 C1135 0.950 . S
H1113 C1137 0.950 . S
H1114 C1138 0.950 . S
H1115 C1139 0.951 . S
H1116 C1141 0.951 . S
H1117 C1143 0.950 . S
H1118 C1144 0.950 . S
H1119 C1146 0.950 . S
H1120 C1149 0.950 . S
H1121 C1150 0.950 . S
H1122 C1152 0.950 . S
H1123 C1153 0.950 . S
C1124 H1106 0.951 . S
C1124 C1125 1.366 . S
C1124 C1126 1.388 . S
C1125 C1124 1.366 . S
C1125 C1129 1.385 . S
C1126 H1107 0.951 . S
C1126 C1124 1.388 . S
C1126 C1127 1.366 . S
C1127 C1126 1.366 . S
C1127 C1128 1.414 . S
C1127 C1130 1.499 . S
C1128 H1108 0.950 . S
C1128 C1127 1.414 . S
C1128 C1129 1.374 . S
C1129 H1109 0.950 . S
C1129 C1125 1.385 . S
C1129 C1128 1.374 . S
C1130 C1127 1.499 . S
C1130 C1131 1.373 . S
C1130 C1132 1.389 . S
C1131 H1110 0.950 . S
C1131 C1130 1.373 . S
C1131 C1147 1.377 . S
C1132 C1130 1.389 . S
C1132 C1133 1.524 . S
C1132 C1146 1.377 . S
C1133 C1132 1.524 . S
C1133 C1134 1.397 . S
C1133 C1138 1.363 . S
C1134 H1111 0.950 . S
C1134 C1133 1.397 . S
C1134 C1135 1.334 . S
C1135 H1112 0.950 . S
C1135 C1134 1.334 . S
C1135 C1136 1.287 . S
C1136 C1135 1.287 . S
C1136 C1137 1.524 . S
C1136 H1155 0.913 . S
C1137 H1113 0.950 . S
C1137 C1136 1.524 . S
C1137 C1138 1.415 . S
C1138 H1114 0.950 . S
C1138 C1133 1.363 . S
C1138 C1137 1.415 . S
C1139 H1115 0.951 . S
C1139 C1140 1.366 . S
C1139 C1141 1.388 . S
C1140 C1139 1.366 . S
C1140 C1144 1.385 . S
C1141 H1116 0.951 . S
C1141 C1139 1.388 . S
C1141 C1142 1.366 . S
C1142 C1141 1.366 . S
C1142 C1143 1.414 . S
C1142 C1145 1.499 . S
C1143 H1117 0.950 . S
C1143 C1142 1.414 . S
C1143 C1144 1.374 . S
C1144 H1118 0.950 . S
C1144 C1140 1.385 . S
C1144 C1143 1.374 . S
C1145 C1142 1.499 . S
C1145 C1146 1.373 . S
C1145 C1147 1.389 . S
C1146 H1119 0.950 . S
C1146 C1132 1.377 . S
C1146 C1145 1.373 . S
C1147 C1131 1.377 . S
C1147 C1145 1.389 . S
C1147 C1148 1.524 . S
C1148 C1147 1.524 . S
C1148 C1149 1.397 . S
C1148 C1153 1.363 . S
C1149 H1120 0.950 . S
C1149 C1148 1.397 . S
C1149 C1150 1.334 . S
C1150 H1121 0.950 . S
C1150 C1149 1.334 . S
C1150 C1151 1.287 . S
C1151 C1150 1.287 . S
C1151 C1152 1.524 . S
C1151 H1154 0.999 . S
C1152 H1122 0.950 . S
C1152 C1151 1.524 . S
C1152 C1153 1.415 . S
C1153 H1123 0.950 . S
C1153 C1148 1.363 . S
C1153 C1152 1.415 . S
H1154 C1151 0.999 . S
H1155 C1136 0.913 . S
H1156 C1174 0.939 1_455 S
H1157 C1176 0.951 1_455 S
H1158 C1178 0.950 . S
H1159 C1179 0.950 . S
H1160 C1181 0.950 . S
H1161 C1184 0.950 . S
H1162 C1185 0.950 1_655 S
H1163 C1187 0.950 . S
H1164 C1188 0.950 . S
H1165 C1189 0.951 . S
H1166 C1191 0.951 . S
H1167 C1193 0.950 . S
H1168 C1194 0.950 . S
H1169 C1196 0.950 . S
H1170 C1199 0.950 . S
H1171 C1200 0.950 . S
H1172 C1202 0.950 . S
H1173 C1203 0.950 . S
C1174 H1156 0.939 1_655 S
C1174 C1175 1.366 . S
C1174 C1176 1.388 . S
C1175 C1174 1.366 . S
C1175 C1179 1.385 . S
C1176 H1157 0.951 1_655 S
C1176 C1174 1.388 . S
C1176 C1177 1.366 . S
C1177 C1176 1.366 . S
C1177 C1178 1.414 . S
C1177 C1180 1.499 . S
C1178 H1158 0.950 . S
C1178 C1177 1.414 . S
C1178 C1179 1.374 . S
C1179 H1159 0.950 . S
C1179 C1175 1.385 . S
C1179 C1178 1.374 . S
C1180 C1177 1.499 . S
C1180 C1181 1.373 . S
C1180 C1182 1.389 . S
C1181 H1160 0.950 . S
C1181 C1180 1.373 . S
C1181 C1197 1.377 . S
C1182 C1180 1.389 . S
C1182 C1183 1.524 1_655 S
C1182 C1196 1.377 1_655 S
C1183 C1182 1.524 1_455 S
C1183 C1184 1.397 1_455 S
C1183 C1188 1.363 . S
C1184 H1161 0.950 . S
C1184 C1183 1.397 1_655 S
C1184 C1185 1.334 1_655 S
C1185 H1162 0.950 1_455 S
C1185 C1184 1.334 1_455 S
C1185 C1186 1.287 . S
C1186 C1185 1.287 . S
C1186 C1187 1.524 . S
C1186 H1205 0.913 . S
C1187 H1163 0.950 . S
C1187 C1186 1.524 . S
C1187 C1188 1.415 . S
C1188 H1164 0.950 . S
C1188 C1183 1.363 . S
C1188 C1187 1.415 . S
C1189 H1165 0.951 . S
C1189 C1190 1.366 1_655 S
C1189 C1191 1.388 . S
C1190 C1189 1.366 1_455 S
C1190 C1194 1.385 . S
C1191 H1166 0.951 . S
C1191 C1189 1.388 . S
C1191 C1192 1.366 . S
C1192 C1191 1.366 . S
C1192 C1193 1.414 1_655 S
C1192 C1195 1.499 . S
C1193 H1167 0.950 . S
C1193 C1192 1.414 1_455 S
C1193 C1194 1.374 . S
C1194 H1168 0.950 . S
C1194 C1190 1.385 . S
C1194 C1193 1.374 . S
C1195 C1192 1.499 . S
C1195 C1196 1.373 1_655 S
C1195 C1197 1.389 . S
C1196 H1169 0.950 . S
C1196 C1182 1.377 1_455 S
C1196 C1195 1.373 1_455 S
C1197 C1181 1.377 . S
C1197 C1195 1.389 . S
C1197 C1198 1.524 1_556 S
C1198 C1197 1.524 1_554 S
C1198 C1199 1.397 . S
C1198 C1203 1.363 . S
C1199 H1170 0.950 . S
C1199 C1198 1.397 . S
C1199 C1200 1.334 . S
C1200 H1171 0.950 . S
C1200 C1199 1.334 . S
C1200 C1201 1.287 . S
C1201 C1200 1.287 . S
C1201 C1202 1.524 . S
C1201 H1204 0.999 . S
C1202 H1172 0.950 . S
C1202 C1201 1.524 . S
C1202 C1203 1.415 . S
C1203 H1173 0.950 . S
C1203 C1198 1.363 . S
C1203 C1202 1.415 . S
H1204 C1201 0.999 . S
H1205 C1186 0.913 . S
H1206 C1224 0.951 . S
H1207 C1226 0.951 . S
H1208 C1228 0.950 . S
H1209 C1229 0.950 . S
H1210 C1231 0.950 . S
H1211 C1234 0.950 . S
H1212 C1235 0.950 . S
H1213 C1237 0.950 . S
H1214 C1238 0.950 . S
H1215 C1239 0.951 . S
H1216 C1241 0.951 . S
H1217 C1243 0.950 . S
H1218 C1244 0.950 . S
H1219 C1246 0.950 . S
H1220 C1249 0.950 . S
H1221 C1250 0.950 1_556 S
H1222 C1252 0.950 . S
H1223 C1253 0.950 . S
C1224 H1206 0.951 . S
C1224 C1225 1.366 . S
C1224 C1226 1.388 . S
C1225 C1224 1.366 . S
C1225 C1229 1.385 . S
C1226 H1207 0.951 . S
C1226 C1224 1.388 . S
C1226 C1227 1.366 . S
C1227 C1226 1.366 . S
C1227 C1228 1.414 . S
C1227 C1230 1.499 . S
C1228 H1208 0.950 . S
C1228 C1227 1.414 . S
C1228 C1229 1.374 . S
C1229 H1209 0.950 . S
C1229 C1225 1.385 . S
C1229 C1228 1.374 . S
C1230 C1227 1.499 . S
C1230 C1231 1.373 . S
C1230 C1232 1.389 . S
C1231 H1210 0.950 . S
C1231 C1230 1.373 . S
C1231 C1247 1.377 . S
C1232 C1230 1.389 . S
C1232 C1233 1.524 . S
C1232 C1246 1.377 . S
C1233 C1232 1.524 . S
C1233 C1234 1.397 . S
C1233 C1238 1.363 . S
C1234 H1211 0.950 . S
C1234 C1233 1.397 . S
C1234 C1235 1.334 . S
C1235 H1212 0.950 . S
C1235 C1234 1.334 . S
C1235 C1236 1.287 . S
C1236 C1235 1.287 . S
C1236 C1237 1.524 . S
C1236 H1255 0.913 . S
C1237 H1213 0.950 . S
C1237 C1236 1.524 . S
C1237 C1238 1.415 . S
C1238 H1214 0.950 . S
C1238 C1233 1.363 . S
C1238 C1237 1.415 . S
C1239 H1215 0.951 . S
C1239 C1240 1.366 . S
C1239 C1241 1.388 . S
C1240 C1239 1.366 . S
C1240 C1244 1.385 . S
C1241 H1216 0.951 . S
C1241 C1239 1.388 . S
C1241 C1242 1.366 . S
C1242 C1241 1.366 . S
C1242 C1243 1.414 . S
C1242 C1245 1.499 . S
C1243 H1217 0.950 . S
C1243 C1242 1.414 . S
C1243 C1244 1.374 . S
C1244 H1218 0.950 . S
C1244 C1240 1.385 . S
C1244 C1243 1.374 . S
C1245 C1242 1.499 . S
C1245 C1246 1.373 . S
C1245 C1247 1.389 . S
C1246 H1219 0.950 . S
C1246 C1232 1.377 . S
C1246 C1245 1.373 . S
C1247 C1231 1.377 . S
C1247 C1245 1.389 . S
C1247 C1248 1.524 . S
C1248 C1247 1.524 . S
C1248 C1249 1.397 . S
C1248 C1253 1.363 . S
C1249 H1220 0.950 . S
C1249 C1248 1.397 . S
C1249 C1250 1.334 . S
C1250 H1221 0.950 1_554 S
C1250 C1249 1.334 . S
C1250 C1251 1.287 . S
C1251 C1250 1.287 . S
C1251 C1252 1.524 . S
C1251 H1254 0.999 . S
C1252 H1222 0.950 . S
C1252 C1251 1.524 . S
C1252 C1253 1.415 . S
C1253 H1223 0.950 . S
C1253 C1248 1.363 . S
C1253 C1252 1.415 . S
H1254 C1251 0.999 . S
H1255 C1236 0.913 . S
H1256 C1274 0.951 . S
H1257 C1276 0.951 . S
H1258 C1278 0.950 . S
H1259 C1279 0.950 . S
H1260 C1281 0.950 . S
H1261 C1284 0.950 . S
H1262 C1285 0.950 . S
H1263 C1287 0.950 . S
H1264 C1288 0.950 . S
H1265 C1289 0.951 1_655 S
H1266 C1291 0.951 . S
H1267 C1293 0.950 . S
H1268 C1294 0.950 . S
H1269 C1296 0.950 . S
H1270 C1299 0.950 . S
H1271 C1300 0.950 . S
H1272 C1302 0.950 . S
H1273 C1303 0.950 . S
C1274 H1256 0.951 . S
C1274 C1275 1.366 . S
C1274 C1276 1.388 . S
C1275 C1274 1.366 . S
C1275 C1279 1.385 . S
C1276 H1257 0.951 . S
C1276 C1274 1.388 . S
C1276 C1277 1.366 . S
C1277 C1276 1.366 . S
C1277 C1278 1.414 . S
C1277 C1280 1.499 . S
C1278 H1258 0.950 . S
C1278 C1277 1.414 . S
C1278 C1279 1.374 . S
C1279 H1259 0.950 . S
C1279 C1275 1.385 . S
C1279 C1278 1.374 . S
C1280 C1277 1.499 . S
C1280 C1281 1.373 . S
C1280 C1282 1.389 . S
C1281 H1260 0.950 . S
C1281 C1280 1.373 . S
C1281 C1297 1.377 . S
C1282 C1280 1.389 . S
C1282 C1283 1.524 . S
C1282 C1296 1.377 . S
C1283 C1282 1.524 . S
C1283 C1284 1.397 . S
C1283 C1288 1.363 . S
C1284 H1261 0.950 . S
C1284 C1283 1.397 . S
C1284 C1285 1.334 . S
C1285 H1262 0.950 . S
C1285 C1284 1.334 . S
C1285 C1286 1.287 . S
C1286 C1285 1.287 . S
C1286 C1287 1.524 . S
C1286 H1305 0.913 . S
C1287 H1263 0.950 . S
C1287 C1286 1.524 . S
C1287 C1288 1.415 . S
C1288 H1264 0.950 . S
C1288 C1283 1.363 . S
C1288 C1287 1.415 . S
C1289 H1265 0.951 1_455 S
C1289 C1290 1.366 . S
C1289 C1291 1.388 . S
C1290 C1289 1.366 . S
C1290 C1294 1.385 . S
C1291 H1266 0.951 . S
C1291 C1289 1.388 . S
C1291 C1292 1.366 . S
C1292 C1291 1.366 . S
C1292 C1293 1.414 . S
C1292 C1295 1.499 . S
C1293 H1267 0.950 . S
C1293 C1292 1.414 . S
C1293 C1294 1.374 . S
C1294 H1268 0.950 . S
C1294 C1290 1.385 . S
C1294 C1293 1.374 . S
C1295 C1292 1.499 . S
C1295 C1296 1.373 . S
C1295 C1297 1.389 . S
C1296 H1269 0.950 . S
C1296 C1282 1.377 . S
C1296 C1295 1.373 . S
C1297 C1281 1.377 . S
C1297 C1295 1.389 . S
C1297 C1298 1.524 1_455 S
C1298 C1297 1.524 1_655 S
C1298 C1299 1.397 . S
C1298 C1303 1.363 . S
C1299 H1270 0.950 . S
C1299 C1298 1.397 . S
C1299 C1300 1.334 . S
C1300 H1271 0.950 . S
C1300 C1299 1.334 . S
C1300 C1301 1.287 . S
C1301 C1300 1.287 . S
C1301 C1302 1.524 . S
C1301 H1304 0.999 . S
C1302 H1272 0.950 . S
C1302 C1301 1.524 . S
C1302 C1303 1.415 . S
C1303 H1273 0.950 . S
C1303 C1298 1.363 . S
C1303 C1302 1.415 . S
H1304 C1301 0.999 . S
H1305 C1286 0.913 . S
H1306 C1324 0.951 . S
H1307 C1326 0.951 . S
H1308 C1328 0.950 . S
H1309 C1329 0.950 . S
H1310 C1331 0.950 . S
H1311 C1334 0.950 . S
H1312 C1335 0.950 . S
H1313 C1337 0.950 . S
H1314 C1338 0.950 . S
H1315 C1339 0.951 . S
H1316 C1341 0.951 . S
H1317 C1343 0.950 . S
H1318 C1344 0.950 . S
H1319 C1346 0.950 . S
H1320 C1349 0.950 . S
H1321 C1350 0.950 . S
H1322 C1352 0.950 . S
H1323 C1353 0.950 . S
C1324 H1306 0.951 . S
C1324 C1325 1.366 . S
C1324 C1326 1.388 . S
C1325 C1324 1.366 . S
C1325 C1329 1.385 . S
C1326 H1307 0.951 . S
C1326 C1324 1.388 . S
C1326 C1327 1.366 . S
C1327 C1326 1.366 . S
C1327 C1328 1.414 . S
C1327 C1330 1.499 . S
C1328 H1308 0.950 . S
C1328 C1327 1.414 . S
C1328 C1329 1.374 . S
C1329 H1309 0.950 . S
C1329 C1325 1.385 . S
C1329 C1328 1.374 . S
C1330 C1327 1.499 . S
C1330 C1331 1.373 . S
C1330 C1332 1.389 . S
C1331 H1310 0.950 . S
C1331 C1330 1.373 . S
C1331 C1347 1.377 . S
C1332 C1330 1.389 . S
C1332 C1333 1.524 . S
C1332 C1346 1.377 . S
C1333 C1332 1.524 . S
C1333 C1334 1.397 . S
C1333 C1338 1.363 . S
C1334 H1311 0.950 . S
C1334 C1333 1.397 . S
C1334 C1335 1.334 . S
C1335 H1312 0.950 . S
C1335 C1334 1.334 . S
C1335 C1336 1.287 . S
C1336 C1335 1.287 . S
C1336 C1337 1.524 . S
C1336 H1355 0.913 . S
C1337 H1313 0.950 . S
C1337 C1336 1.524 . S
C1337 C1338 1.415 . S
C1338 H1314 0.950 . S
C1338 C1333 1.363 . S
C1338 C1337 1.415 . S
C1339 H1315 0.951 . S
C1339 C1340 1.366 . S
C1339 C1341 1.388 . S
C1340 C1339 1.366 . S
C1340 C1344 1.385 . S
C1341 H1316 0.951 . S
C1341 C1339 1.388 . S
C1341 C1342 1.366 . S
C1342 C1341 1.366 . S
C1342 C1343 1.414 . S
C1342 C1345 1.499 . S
C1343 H1317 0.950 . S
C1343 C1342 1.414 . S
C1343 C1344 1.374 . S
C1344 H1318 0.950 . S
C1344 C1340 1.385 . S
C1344 C1343 1.374 . S
C1345 C1342 1.499 . S
C1345 C1346 1.373 . S
C1345 C1347 1.389 . S
C1346 H1319 0.950 . S
C1346 C1332 1.377 . S
C1346 C1345 1.373 . S
C1347 C1331 1.377 . S
C1347 C1345 1.389 . S
C1347 C1348 1.524 . S
C1348 C1347 1.524 . S
C1348 C1349 1.397 . S
C1348 C1353 1.363 . S
C1349 H1320 0.950 . S
C1349 C1348 1.397 . S
C1349 C1350 1.334 . S
C1350 H1321 0.950 . S
C1350 C1349 1.334 . S
C1350 C1351 1.287 . S
C1351 C1350 1.287 . S
C1351 C1352 1.524 . S
C1351 H1354 0.999 . S
C1352 H1322 0.950 . S
C1352 C1351 1.524 . S
C1352 C1353 1.415 . S
C1353 H1323 0.950 . S
C1353 C1348 1.363 . S
C1353 C1352 1.415 . S
H1354 C1351 0.999 . S
H1355 C1336 0.913 . S
C175 C5 1.554 . S
C190 C75 1.444 . S
C225 C14 1.513 . S
C240 C109 1.405 . S
C290 C121 1.387 . S
C275 C25 1.496 . S
C325 C34 1.502 . S
C340 C155 1.395 . S
C390 C112 1.413 . S
C375 C7 1.524 . S
C440 C92 1.415 . S
C425 C13 1.527 . S
C490 C139 1.382 . S
C475 C23 1.490 . S
C540 C130 1.402 . S
C525 C31 1.508 . S
C575 C4 1.539 . S
C590 C138 1.429 . S
C640 C100 1.389 . S
C625 C22 1.500 . S
C675 C32 1.516 . S
C690 C76 1.398 . S
C725 C16 1.512 . S
C740 C133 1.403 . S
C790 C91 1.460 . S
C775 C41 1.555 . S
C825 C50 1.564 . S
C840 C113 1.462 . S
C875 C61 1.549 . S
C890 C118 1.450 . S
C925 C67 1.575 . S
C940 C151 1.484 . S
C975 C40 1.577 . S
C990 C96 1.482 . S
C1040 C88 1.477 . S
C1025 C52 1.574 . S
C1090 C142 1.465 . S
C1075 C59 1.566 . S
C1140 C134 1.443 . S
C1125 C70 1.537 . S
C1175 C43 1.543 . S
C1190 C154 1.449 . S
C1240 C97 1.467 . S
C1225 C58 1.569 . S
C1290 C79 1.443 . S
C1275 C68 1.542 . S
C1325 C49 1.565 . S
C1340 C117 1.470 . S
