# Generated by pormake.
# Topology zzz, (3,6)-cn, num edge types: 1
# Building blocks:
#     Node 0, Type 0, BuildingBlock: MIDCAF_clean_linker_0, # of connection points: 3
#     Node 1, Type 0, BuildingBlock: MIDCAF_clean_linker_0, # of connection points: 3
#     Node 2, Type 0, BuildingBlock: MIDCAF_clean_linker_0, # of connection points: 3
#     Node 3, Type 0, BuildingBlock: MIDCAF_clean_linker_0, # of connection points: 3
#     Node 4, Type 0, BuildingBlock: MIDCAF_clean_linker_0, # of connection points: 3
#     Node 5, Type 0, BuildingBlock: MIDCAF_clean_linker_0, # of connection points: 3
#     Node 6, Type 0, BuildingBlock: MIDCAF_clean_linker_0, # of connection points: 3
#     Node 7, Type 0, BuildingBlock: MIDCAF_clean_linker_0, # of connection points: 3
#     Node 8, Type 1, BuildingBlock: KUMBOL_clean_sbu_1, # of connection points: 6
#     Node 9, Type 1, BuildingBlock: KUMBOL_clean_sbu_1, # of connection points: 6
#     Node 10, Type 1, BuildingBlock: KUMBOL_clean_sbu_1, # of connection points: 6
#     Node 11, Type 1, BuildingBlock: KUMBOL_clean_sbu_1, # of connection points: 6
#     Edge 12, Type (0, 1), BuildingBlock: TEMPAE_clean_linker_10, # of connection points: 2
#     Edge 13, Type (0, 1), BuildingBlock: TEMPAE_clean_linker_10, # of connection points: 2
#     Edge 14, Type (0, 1), BuildingBlock: TEMPAE_clean_linker_10, # of connection points: 2
#     Edge 15, Type (0, 1), BuildingBlock: TEMPAE_clean_linker_10, # of connection points: 2
#     Edge 16, Type (0, 1), BuildingBlock: TEMPAE_clean_linker_10, # of connection points: 2
#     Edge 17, Type (0, 1), BuildingBlock: TEMPAE_clean_linker_10, # of connection points: 2
#     Edge 18, Type (0, 1), BuildingBlock: TEMPAE_clean_linker_10, # of connection points: 2
#     Edge 19, Type (0, 1), BuildingBlock: TEMPAE_clean_linker_10, # of connection points: 2
#     Edge 20, Type (0, 1), BuildingBlock: TEMPAE_clean_linker_10, # of connection points: 2
#     Edge 21, Type (0, 1), BuildingBlock: TEMPAE_clean_linker_10, # of connection points: 2
#     Edge 22, Type (0, 1), BuildingBlock: TEMPAE_clean_linker_10, # of connection points: 2
#     Edge 23, Type (0, 1), BuildingBlock: TEMPAE_clean_linker_10, # of connection points: 2
#     Edge 24, Type (0, 1), BuildingBlock: TEMPAE_clean_linker_10, # of connection points: 2
#     Edge 25, Type (0, 1), BuildingBlock: TEMPAE_clean_linker_10, # of connection points: 2
#     Edge 26, Type (0, 1), BuildingBlock: TEMPAE_clean_linker_10, # of connection points: 2
#     Edge 27, Type (0, 1), BuildingBlock: TEMPAE_clean_linker_10, # of connection points: 2
#     Edge 28, Type (0, 1), BuildingBlock: TEMPAE_clean_linker_10, # of connection points: 2
#     Edge 29, Type (0, 1), BuildingBlock: TEMPAE_clean_linker_10, # of connection points: 2
#     Edge 30, Type (0, 1), BuildingBlock: TEMPAE_clean_linker_10, # of connection points: 2
#     Edge 31, Type (0, 1), BuildingBlock: TEMPAE_clean_linker_10, # of connection points: 2
#     Edge 32, Type (0, 1), BuildingBlock: TEMPAE_clean_linker_10, # of connection points: 2
#     Edge 33, Type (0, 1), BuildingBlock: TEMPAE_clean_linker_10, # of connection points: 2
#     Edge 34, Type (0, 1), BuildingBlock: TEMPAE_clean_linker_10, # of connection points: 2
#     Edge 35, Type (0, 1), BuildingBlock: TEMPAE_clean_linker_10, # of connection points: 2
# Relax obj value: 0.314
# Max RMSD: 0.210
# Mean RMSD: 0.183
data_MOF--net-zzz--node1-KUMBOL_clean_sbu_1--node2-MIDCAF_clean_linker_0--edge1-TEMPAE_clean_linker_10
_symmetry_space_group_name_H-M    P1
_symmetry_Int_Tables_number       1
_symmetry_cell_setting            triclinic
loop_
_symmetry_equiv_pos_as_xyz
'x, y, z'
_cell_length_a     56.791547
_cell_length_b     56.658539
_cell_length_c     21.097349
_cell_angle_alpha  89.962207
_cell_angle_beta   89.890262
_cell_angle_gamma 90.534584
loop_
_atom_site_label
_atom_site_type_symbol
_atom_site_fract_x
_atom_site_fract_y
_atom_site_fract_z
_atom_type_partial_charge
C0 C 0.79172 0.57262 0.43155 0.0
C1 C 0.79817 0.55206 0.46483 0.0
C2 C 0.78113 0.53366 0.46754 0.0
C3 C 0.7597 0.53488 0.43297 0.0
H4 H 0.66813 0.523 0.27474 0.0
H5 H 0.63648 0.5213 0.19481 0.0
H6 H 0.66089 0.58723 0.1164 0.0
H7 H 0.6914 0.5896 0.19752 0.0
H8 H 0.73359 0.55382 0.0999 0.0
H9 H 0.76027 0.56105 1.01108 0.0
H10 H 0.81968 0.55854 0.13814 0.0
H11 H 0.79348 0.55107 0.22686 0.0
H12 H 0.76728 0.58931 0.36873 0.0
H13 H 0.80384 0.58745 0.42858 0.0
H14 H 0.78509 0.51747 0.49243 0.0
H15 H 0.74852 0.51931 0.4307 0.0
N16 N 0.71627 0.55389 0.32649 0.0
N17 N 0.72227 0.55062 0.21608 0.0
N18 N 0.75443 0.5497 0.28366 0.0
C19 C 0.70724 0.55278 0.26525 0.0
C20 C 0.74564 0.54929 0.22458 0.0
C21 C 0.74047 0.55181 0.33506 0.0
C22 C 0.6822 0.55678 0.24458 0.0
C23 C 0.66579 0.53792 0.24335 0.0
C24 C 0.6479 0.5367 0.19638 0.0
C25 C 0.64625 0.554 0.14835 0.0
C26 C 0.66145 0.57363 0.15249 0.0
C27 C 0.67875 0.57518 0.20018 0.0
C28 C 0.76149 0.55176 0.1703 0.0
C29 C 0.75234 0.55486 0.10898 0.0
C30 C 0.76743 0.55942 0.05844 0.0
C31 C 0.79171 0.56106 0.06883 0.0
C32 C 0.80085 0.55817 0.12988 0.0
C33 C 0.78587 0.5534 0.18024 0.0
C34 C 0.75415 0.55478 0.39576 0.0
C35 C 0.7702 0.57398 0.39836 0.0
C36 C 0.96426 0.79684 0.44072 0.0
C37 C 0.98623 0.80506 0.46388 0.0
C38 C 1.00553 0.78949 0.45465 0.0
C39 C 1.00341 0.76851 0.41797 0.0
H40 H 0.95947 0.67324 0.27489 0.0
H41 H 0.96024 0.64034 0.19853 0.0
H42 H 0.022 0.67054 0.1109 0.0
H43 H 0.02131 0.70315 0.18687 0.0
H44 H 0.96508 0.7389 0.09777 0.0
H45 H 0.96319 0.76645 1.00908 0.0
H46 H 0.95521 0.82437 0.1399 0.0
H47 H 0.95705 0.7973 0.22838 0.0
H48 H 0.94508 0.77145 0.38582 0.0
H49 H 0.94851 0.80719 0.44478 0.0
H50 H 0.02277 0.79376 0.47302 0.0
H51 H 0.01912 0.75865 0.40677 0.0
N52 N 0.98704 0.7247 0.31991 0.0
N53 N 0.97518 0.72839 0.21292 0.0
N54 N 0.9713 0.76024 0.28116 0.0
C55 C 0.98411 0.71496 0.25995 0.0
C56 C 0.9687 0.75086 0.22306 0.0
C57 C 0.98021 0.74786 0.3301 0.0
C58 C 0.9909 0.6906 0.23931 0.0
C59 C 0.97406 0.67213 0.24192 0.0
C60 C 0.97419 0.65349 0.19709 0.0
C61 C 0.99115 0.65281 0.14817 0.0
C62 C 1.00886 0.67031 0.14818 0.0
C63 C 1.00872 0.68882 0.19282 0.0
C64 C 0.96168 0.766 0.17005 0.0
C65 C 0.96208 0.75739 0.1076 0.0
C66 C 0.9608 0.77303 0.05685 0.0
C67 C 0.95891 0.79731 0.06823 0.0
C68 C 0.95612 0.80561 0.13023 0.0
C69 C 0.95751 0.79007 0.18087 0.0
C70 C 0.98174 0.76175 0.39096 0.0
C71 C 0.96209 0.77566 0.40642 0.0
C72 C 0.73585 0.96485 0.43694 0.0
C73 C 0.72933 0.98539 0.47068 0.0
C74 C 0.74618 1.00413 0.47047 0.0
C75 C 0.76706 1.00323 0.43334 0.0
H76 H 0.85573 0.01895 0.27156 0.0
H77 H 0.88742 0.02205 0.19263 0.0
H78 H 0.8667 0.95436 0.11619 0.0
H79 H 0.83658 0.95078 0.19719 0.0
H80 H 0.79258 0.98391 0.09865 0.0
H81 H 0.76671 0.97658 1.00882 0.0
H82 H 0.70707 0.97173 0.13533 0.0
H83 H 0.73254 0.97923 0.22546 0.0
H84 H 0.7593 0.94875 0.37022 0.0
H85 H 0.72458 0.9494 0.43624 0.0
H86 H 0.74272 0.02038 0.49533 0.0
H87 H 0.77807 0.01889 0.42998 0.0
N88 N 0.80965 0.98612 0.32486 0.0
N89 N 0.80334 0.98712 0.21442 0.0
N90 N 0.7712 0.98648 0.28241 0.0
C91 C 0.81852 0.98686 0.2634 0.0
C92 C 0.77995 0.98667 0.22315 0.0
C93 C 0.78537 0.98638 0.33373 0.0
C94 C 0.84372 0.98433 0.24264 0.0
C95 C 0.85892 1.0041 0.24053 0.0
C96 C 0.87671 1.00616 0.19345 0.0
C97 C 0.8796 0.98877 0.14576 0.0
C98 C 0.86564 0.96817 0.15148 0.0
C99 C 0.84836 0.96593 0.19918 0.0
C100 C 0.76449 0.98247 0.16901 0.0
C101 C 0.77401 0.98091 0.10758 0.0
C102 C 0.75944 0.97615 0.05635 0.0
C103 C 0.73528 0.9729 0.06604 0.0
C104 C 0.72589 0.97332 0.12749 0.0
C105 C 0.74037 0.97826 0.17869 0.0
C106 C 0.77219 0.98351 0.39534 0.0
C107 C 0.75659 0.96405 0.40013 0.0
C108 C 0.58002 0.73201 0.14402 0.0
C109 C 0.5727 0.73808 0.08277 0.0
C110 C 0.57115 0.76199 0.06591 0.0
C111 C 0.57408 0.77946 0.1117 0.0
H112 H 0.51961 0.82978 0.16852 0.0
H113 H 0.51486 0.86231 0.09362 0.0
H114 H 0.564 0.90445 0.20088 0.0
H115 H 0.56927 0.87135 0.27579 0.0
H116 H 0.51609 0.78126 0.38622 0.0
H117 H 0.50986 0.74573 0.45137 0.0
H118 H 0.58491 0.73827 0.47123 0.0
H119 H 0.59102 0.77356 0.40654 0.0
H120 H 0.5866 0.74404 0.23806 0.0
H121 H 0.58135 0.71368 0.15813 0.0
H122 H 0.56591 0.76705 0.01849 0.0
H123 H 0.57078 0.7976 0.09838 0.0
N124 N 0.56475 0.81164 0.21209 0.0
N125 N 0.54989 0.81628 0.31592 0.0
N126 N 0.56956 0.78156 0.28577 0.0
C127 C 0.55384 0.82528 0.25567 0.0
C128 C 0.55851 0.79418 0.33111 0.0
C129 C 0.57255 0.78986 0.22637 0.0
C130 C 0.54422 0.84799 0.22999 0.0
C131 C 0.52855 0.84636 0.17828 0.0
C132 C 0.5261 0.86493 0.1345 0.0
C133 C 0.53906 0.88602 0.14083 0.0
C134 C 0.55366 0.88847 0.19461 0.0
C135 C 0.55635 0.86963 0.23836 0.0
C136 C 0.55406 0.78079 0.39166 0.0
C137 C 0.53122 0.7728 0.40719 0.0
C138 C 0.52769 0.75202 0.44354 0.0
C139 C 0.54688 0.73863 0.46594 0.0
C140 C 0.56963 0.74792 0.45543 0.0
C141 C 0.57313 0.76849 0.41876 0.0
C142 C 0.57834 0.7732 0.17511 0.0
C143 C 0.58294 0.74946 0.18986 0.0
C144 C 0.23595 0.47052 0.86501 0.0
C145 C 0.23006 0.49202 0.83597 0.0
C146 C 0.24721 0.51029 0.83784 0.0
C147 C 0.26841 0.50785 0.87315 0.0
H148 H 0.35712 0.51876 0.0315 0.0
H149 H 0.38957 0.52115 0.10623 0.0
H150 H 0.36989 0.45205 0.17846 0.0
H151 H 0.33893 0.44993 0.10263 0.0
H152 H 0.29258 0.47463 0.20172 0.0
H153 H 0.26545 0.46748 0.28931 0.0
H154 H 0.20663 0.47347 0.16061 0.0
H155 H 0.2334 0.48003 0.07336 0.0
H156 H 0.25991 0.45158 0.92423 0.0
H157 H 0.22337 0.45603 0.86503 0.0
H158 H 0.24342 0.52713 0.81608 0.0
H159 H 0.27971 0.52317 0.87937 0.0
N160 N 0.31115 0.48763 0.9773 0.0
N161 N 0.30448 0.4838 0.08748 0.0
N162 N 0.27261 0.4851 0.01905 0.0
C163 C 0.31987 0.48604 0.0389 0.0
C164 C 0.28111 0.48317 0.07814 0.0
C165 C 0.28684 0.48736 0.96814 0.0
C166 C 0.34526 0.48401 0.05949 0.0
C167 C 0.36058 0.50367 0.06146 0.0
C168 C 0.37911 0.50518 0.10673 0.0
C169 C 0.38277 0.48737 0.15352 0.0
C170 C 0.36846 0.46689 0.14683 0.0
C171 C 0.3505 0.46525 0.10105 0.0
C172 C 0.26507 0.47825 0.13091 0.0
C173 C 0.27386 0.47408 0.19205 0.0
C174 C 0.25842 0.46971 0.242 0.0
C175 C 0.23404 0.46967 0.23148 0.0
C176 C 0.22537 0.47279 0.16984 0.0
C177 C 0.24074 0.47705 0.12002 0.0
C178 C 0.2735 0.4868 0.90617 0.0
C179 C 0.25733 0.46785 0.89817 0.0
C180 C 0.02086 0.24264 0.89739 0.0
C181 C 0.03625 0.23775 0.84684 0.0
C182 C 0.0529 0.25534 0.83021 0.0
C183 C 0.05537 0.27622 0.86678 0.0
H184 H 0.01393 0.35411 0.04587 0.0
H185 H 1.00575 0.38718 0.11874 0.0
H186 H 0.07771 0.38612 0.18276 0.0
H187 H 0.08584 0.35369 0.11086 0.0
H188 H 0.06952 0.29676 0.20102 0.0
H189 H 0.06504 0.26614 0.28107 0.0
H190 H 0.0796 0.21283 0.14077 0.0
H191 H 0.084 0.24333 0.06005 0.0
H192 H 0.01216 0.26555 0.97482 0.0
H193 H 1.00792 0.22953 0.91187 0.0
H194 H 0.06518 0.25218 0.79187 0.0
H195 H 0.07003 0.28803 0.85683 0.0
N196 N 0.04595 0.31719 0.99072 0.0
N197 N 0.06616 0.3119 0.08729 0.0
N198 N 0.06235 0.28039 0.01752 0.0
C199 C 0.05459 0.32639 0.04704 0.0
C200 C 0.06999 0.28903 0.07336 0.0
C201 C 0.05061 0.29388 0.97553 0.0
C202 C 0.05057 0.35101 0.07195 0.0
C203 C 0.02819 0.36152 0.07366 0.0
C204 C 0.02344 0.38028 0.11629 0.0
C205 C 0.04099 0.38921 0.15765 0.0
C206 C 0.06375 0.37998 0.15177 0.0
C207 C 0.06841 0.3613 0.10999 0.0
C208 C 0.07649 0.27237 0.12384 0.0
C209 C 0.0728 0.27863 0.18753 0.0
C210 C 0.07011 0.26114 0.23343 0.0
C211 C 0.07157 0.23728 0.21642 0.0
C212 C 0.0784 0.23118 0.15475 0.0
C213 C 0.08085 0.24865 0.10863 0.0
C214 C 0.0409 0.28041 0.92007 0.0
C215 C 0.02299 0.26364 0.93283 0.0
C216 C 0.28982 0.07859 0.85449 0.0
C217 C 0.29627 0.05614 0.83244 0.0
C218 C 0.28038 0.03726 0.84372 0.0
C219 C 0.25966 0.04038 0.88023 0.0
H220 H 0.17358 0.02964 0.03497 0.0
H221 H 0.14121 0.02591 0.11005 0.0
H222 H 0.15654 0.09658 0.17806 0.0
H223 H 0.18845 0.09946 0.10447 0.0
H224 H 0.23647 0.07529 0.20389 0.0
H225 H 0.26357 0.0761 0.29322 0.0
H226 H 0.32229 0.07093 0.16326 0.0
H227 H 0.29561 0.07065 0.0746 0.0
H228 H 0.26642 0.09873 0.9129 0.0
H229 H 0.30163 0.0935 0.84764 0.0
H230 H 0.28467 0.01973 0.82719 0.0
H231 H 0.24917 0.025 0.89267 0.0
N232 N 0.21751 0.06205 0.98011 0.0
N233 N 0.2245 0.0674 0.08945 0.0
N234 N 0.25613 0.06703 0.01964 0.0
C235 C 0.20904 0.06412 0.04165 0.0
C236 C 0.2478 0.06895 0.07912 0.0
C237 C 0.24165 0.06359 0.96973 0.0
C238 C 0.18371 0.06496 0.06249 0.0
C239 C 0.16931 0.04465 0.06442 0.0
C240 C 0.15074 0.04246 0.10938 0.0
C241 C 0.14605 0.06038 0.15497 0.0
C242 C 0.15929 0.08152 0.14787 0.0
C243 C 0.17755 0.08365 0.10315 0.0
C244 C 0.26395 0.07245 0.13235 0.0
C245 C 0.25521 0.07482 0.19442 0.0
C246 C 0.27064 0.07541 0.24553 0.0
C247 C 0.29491 0.07359 0.23511 0.0
C248 C 0.30365 0.07283 0.17278 0.0
C249 C 0.28831 0.07231 0.12185 0.0
C250 C 0.25424 0.06246 0.90705 0.0
C251 C 0.26926 0.08165 0.89119 0.0
C252 C 0.44754 0.31032 0.15691 0.0
C253 C 0.45413 0.30454 0.21903 0.0
C254 C 0.45648 0.28078 0.23624 0.0
C255 C 0.45555 0.2633 0.1899 0.0
H256 H 0.44422 0.18981 0.11129 0.0
H257 H 0.45073 0.15758 0.18358 0.0
H258 H 0.52276 0.15302 0.11947 0.0
H259 H 0.51635 0.18698 0.04843 0.0
H260 H 0.45523 0.25797 0.86922 0.0
H261 H 0.45878 0.29415 0.80536 0.0
H262 H 0.52411 0.3111 0.89833 0.0
H263 H 0.52029 0.27522 0.96301 0.0
H264 H 0.44387 0.29812 0.06175 0.0
H265 H 0.44534 0.32858 0.14301 0.0
H266 H 0.46163 0.27593 0.2839 0.0
H267 H 0.45984 0.2454 0.20344 0.0
N268 N 0.46475 0.23067 0.08954 0.0
N269 N 0.48469 0.22579 0.9922 0.0
N270 N 0.46806 0.26243 0.02026 0.0
C271 C 0.47641 0.21638 0.04899 0.0
C272 C 0.47992 0.24923 0.97776 0.0
C273 C 0.46053 0.25346 0.07594 0.0
C274 C 0.47972 0.19142 0.07331 0.0
C275 C 0.4614 0.18165 0.11085 0.0
C276 C 0.46516 0.16284 0.15298 0.0
C277 C 0.48744 0.1524 0.15928 0.0
C278 C 0.50544 0.16079 0.11785 0.0
C279 C 0.50168 0.18005 0.07571 0.0
C280 C 0.48796 0.26277 0.92001 0.0
C281 C 0.47106 0.26865 0.87363 0.0
C282 C 0.47284 0.28978 0.8378 0.0
C283 C 0.4917 0.30581 0.84658 0.0
C284 C 0.50948 0.29917 0.88946 0.0
C285 C 0.50753 0.2782 0.92583 0.0
C286 C 0.45251 0.26955 0.12595 0.0
C287 C 0.44676 0.2929 0.11051 0.0
C288 C 0.08424 0.04005 0.75903 0.0
C289 C 0.07572 0.04708 0.87004 0.0
C290 C 0.06884 0.03863 0.80979 0.0
C291 C 0.09739 0.0589 0.87692 0.0
C292 C 0.10683 0.05021 0.76707 0.0
C293 C 0.11296 0.06042 0.8255 0.0
N294 N 0.07829 0.02877 0.70443 0.0
C295 C 0.09475 0.02542 0.65832 0.0
C296 C 0.12317 0.04834 0.71766 0.0
C297 C 0.11723 0.03548 0.66352 0.0
Gd298 Gd 0.98651 0.03217 0.59758 0.0
Gd299 Gd 0.03991 0.01274 0.69929 0.0
N300 N 0.04871 0.02589 0.80245 0.0
C301 C 0.06161 0.04158 0.92254 0.0
C302 C 0.037 0.01766 0.85464 0.0
C303 C 0.04256 0.02613 0.91506 0.0
H304 H 0.02356 1.00418 0.84986 0.0
H305 H 0.03263 0.02019 0.95596 0.0
H306 H 0.02247 1.00697 0.48256 0.0
H307 H 0.09097 0.01395 0.61925 0.0
H308 H 0.01753 0.9916 0.37612 0.0
H309 H 0.0663 0.04764 0.9696 0.0
H310 H 0.10288 0.06565 0.92268 0.0
H311 H 0.9331 0.03037 0.66563 0.0
H312 H 0.14079 0.05562 0.72227 0.0
H313 H 0.13016 0.03274 0.62656 0.0
H314 H 0.93423 0.98191 0.35398 0.0
H315 H 0.13018 0.0684 0.83239 0.0
H316 H 0.88495 1.002 0.52948 0.0
H317 H 0.89264 0.01929 0.63508 0.0
N318 N 0.9485 0.0175 0.58046 0.0
C319 C 0.94475 1.00781 0.52238 0.0
C320 C 0.93016 0.02163 0.6208 0.0
C321 C 0.90288 1.00609 0.54348 0.0
C322 C 0.90714 0.01578 0.6032 0.0
C323 C 0.92173 1.00205 0.50217 0.0
H324 H 0.90053 0.9887 0.42454 0.0
N325 N 0.98598 1.01011 0.5024 0.0
C326 C 0.96391 1.00412 0.48223 0.0
C327 C 0.97974 0.99039 0.38238 0.0
C328 C 0.96025 0.99438 0.42134 0.0
C329 C 1.00502 1.00504 0.46544 0.0
C330 C 1.00224 0.99546 0.4049 0.0
O331 O 0.03914 0.05265 0.68602 0.0
O332 O 0.99937 0.0584 0.67347 0.0
O333 O 0.97562 0.05319 0.51775 0.0
O334 O 0.96197 0.06098 0.61168 0.0
O335 O 1.00596 0.02141 0.75486 0.0
O336 O 0.97361 0.01652 0.69049 0.0
O337 O 0.98791 0.99236 0.61235 0.0
O338 O 0.02781 0.98846 0.61822 0.0
O339 O 0.03005 0.9794 0.74215 0.0
O340 O 0.06759 0.98853 0.72485 0.0
O341 O 0.02265 0.04375 0.5597 0.0
O342 O 0.04924 0.01622 0.59464 0.0
C343 C 0.02074 0.06667 0.6859 0.0
C344 C 0.98322 0.01692 0.74713 0.0
C345 C 0.96299 0.09212 0.53681 0.0
C346 C 0.98072 0.12607 0.48445 0.0
C347 C 0.94291 0.12973 0.53691 0.0
C348 C 0.94369 0.10598 0.55411 0.0
C349 C 0.96137 0.13979 0.50226 0.0
C350 C 0.98158 0.10224 0.50171 0.0
C351 C 0.96235 0.06687 0.55191 0.0
C352 C 0.93732 0.98905 0.4009 0.0
C353 C 0.91813 0.99288 0.44114 0.0
H354 H 0.97765 0.98295 0.3354 0.0
C355 C 1.00668 0.97895 0.61078 0.0
C356 C 0.04311 0.03299 0.55459 0.0
C357 C 0.05933 0.95096 0.77531 0.0
C358 C 0.04931 0.91655 0.83775 0.0
C359 C 0.08951 0.92266 0.80284 0.0
C360 C 0.08288 0.94357 0.77288 0.0
C361 C 0.07275 0.90913 0.83546 0.0
C362 C 0.04262 0.93731 0.80767 0.0
C363 C 0.05225 0.97345 0.74764 0.0
H364 H 0.92789 0.1403 0.54996 0.0
H365 H 0.92904 0.09832 0.5802 0.0
H366 H 0.96046 0.15821 0.48865 0.0
H367 H 0.99654 0.09171 0.48747 0.0
H368 H 0.10762 0.91694 0.80077 0.0
H369 H 0.09613 0.95396 0.74825 0.0
H370 H 0.07794 0.89283 0.85813 0.0
H371 H 0.02439 0.94282 0.81006 0.0
C372 C 0.509 0.93814 0.59942 0.0
C373 C 0.47637 0.92227 0.6612 0.0
C374 C 0.48998 0.94167 0.63988 0.0
C375 C 0.48174 0.89945 0.63999 0.0
C376 C 0.51477 0.91518 0.57929 0.0
C377 C 0.50084 0.89592 0.59905 0.0
N378 N 0.52158 0.95718 0.57887 0.0
C379 C 0.54093 0.95444 0.54097 0.0
C380 C 0.53416 0.91228 0.53903 0.0
C381 C 0.54747 0.93196 0.52051 0.0
Gd382 Gd 0.52188 0.04473 0.71032 0.0
Gd383 Gd 0.50368 0.99354 0.59864 0.0
N384 N 0.48467 0.96405 0.65788 0.0
C385 C 0.4575 0.92643 0.70236 0.0
C386 C 0.46628 0.9682 0.69797 0.0
C387 C 0.45257 0.94948 0.72123 0.0
H388 H 0.46209 0.98582 0.71234 0.0
H389 H 0.43805 0.95287 0.75315 0.0
H390 H 0.56251 0.05371 0.59366 0.0
H391 H 0.55047 0.96958 0.52296 0.0
H392 H 0.58705 0.08612 0.55343 0.0
H393 H 0.44663 0.912 0.71976 0.0
H394 H 0.4712 0.8844 0.65492 0.0
H395 H 0.48068 0.06994 0.80292 0.0
H396 H 0.53898 0.89495 0.52193 0.0
H397 H 0.56238 0.92991 0.48902 0.0
H398 H 0.55902 0.15418 0.66398 0.0
H399 H 0.50472 0.87821 0.58303 0.0
H400 H 0.4934 0.14438 0.80448 0.0
H401 H 0.46998 0.10974 0.8395 0.0
N402 N 0.50819 0.08205 0.74226 0.0
C403 C 0.52101 0.10091 0.72168 0.0
C404 C 0.48985 0.08509 0.78354 0.0
C405 C 0.49756 0.12703 0.78628 0.0
C406 C 0.48422 0.10755 0.80589 0.0
C407 C 0.51621 0.12389 0.74378 0.0
H408 H 0.527 0.16066 0.74037 0.0
N409 N 0.54305 0.07493 0.65754 0.0
C410 C 0.53906 0.09722 0.67856 0.0
C411 C 0.57039 0.11233 0.61163 0.0
C412 C 0.55277 0.11649 0.65652 0.0
C413 C 0.55983 0.07097 0.61247 0.0
C414 C 0.57371 0.0895 0.58893 0.0
O415 O 0.51932 0.98126 0.69285 0.0
O416 O 0.50535 1.0115 0.75137 0.0
O417 O 0.55224 0.03462 0.76392 0.0
O418 O 0.52568 0.05697 0.8072 0.0
O419 O 0.47282 0.01719 0.63075 0.0
O420 O 0.48293 0.03719 0.72248 0.0
O421 O 0.50809 0.05744 0.61345 0.0
O422 O 0.51817 0.0263 0.55042 0.0
O423 O 0.47024 0.98993 0.55178 0.0
O424 O 0.50206 0.97942 0.50312 0.0
O425 O 0.55255 0.0218 0.67422 0.0
O426 O 0.54123 1.00579 0.57877 0.0
C427 C 0.51581 0.99091 0.74871 0.0
C428 C 0.46706 0.02991 0.68119 0.0
C429 C 0.56417 0.05805 0.85063 0.0
C430 C 0.60108 0.05246 0.90476 0.0
C431 C 0.5781 0.08749 0.92542 0.0
C432 C 0.56103 0.07959 0.88237 0.0
C433 C 0.59802 0.07381 0.93732 0.0
C434 C 0.58425 0.04488 0.86157 0.0
C435 C 0.54571 0.04654 0.8139 0.0
C436 C 0.54846 0.13926 0.67974 0.0
C437 C 0.53021 0.14296 0.7232 0.0
H438 H 0.5813 0.12663 0.59365 0.0
C439 C 0.51081 0.04808 0.55645 0.0
C440 C 0.55763 1.01068 0.62092 0.0
C441 C 0.47044 0.99332 0.44106 0.0
C442 C 0.43668 1.00783 0.38383 0.0
C443 C 0.47502 1.00752 0.33314 0.0
C444 C 0.48482 0.998 0.3881 0.0
C445 C 0.451 0.01247 0.33087 0.0
C446 C 0.44643 0.99818 0.43831 0.0
C447 C 0.4795 0.98249 0.49894 0.0
H448 H 0.57562 0.1039 0.95067 0.0
H449 H 0.54526 0.08987 0.87539 0.0
H450 H 0.61088 0.07975 0.9718 0.0
H451 H 0.58619 0.02777 0.83901 0.0
H452 H 0.48602 1.01102 0.29223 0.0
H453 H 0.50347 0.99422 0.38893 0.0
H454 H 0.44366 0.02013 0.28828 0.0
H455 H 0.43513 0.99423 0.4786 0.0
C456 C 0.44697 0.50187 0.77264 0.0
C457 C 0.4612 0.48947 0.87587 0.0
C458 C 0.46524 0.50046 0.81655 0.0
C459 C 0.4389 0.48002 0.89025 0.0
C460 C 0.42443 0.49269 0.78768 0.0
C461 C 0.42055 0.48175 0.84649 0.0
N462 N 0.45077 0.5134 0.71692 0.0
C463 C 0.43283 0.51668 0.67505 0.0
C464 C 0.40611 0.49557 0.74416 0.0
C465 C 0.41035 0.50762 0.68759 0.0
Gd466 Gd 0.5393 0.51033 0.60794 0.0
Gd467 Gd 0.48704 0.53295 0.70768 0.0
N468 N 0.48626 0.51126 0.80341 0.0
C469 C 0.47933 0.48933 0.92057 0.0
C470 C 0.50307 0.51281 0.84944 0.0
C471 C 0.50031 0.50122 0.90739 0.0
H472 H 0.51778 0.52438 0.84461 0.0
H473 H 0.51394 0.50248 0.94309 0.0
H474 H 0.50624 0.54171 0.49819 0.0
H475 H 0.43539 0.52748 0.63371 0.0
H476 H 0.51274 0.55697 0.39145 0.0
H477 H 0.47689 0.48111 0.96653 0.0
H478 H 0.43547 0.47191 0.93593 0.0
H479 H 0.59126 0.51446 0.68532 0.0
H480 H 0.38852 0.48906 0.75445 0.0
H481 H 0.39614 0.51058 0.65449 0.0
H482 H 0.5966 0.55622 0.36651 0.0
H483 H 0.40327 0.47493 0.85908 0.0
H484 H 0.64282 0.53627 0.54828 0.0
H485 H 0.63272 0.52315 0.65697 0.0
N486 N 0.57808 0.52382 0.59452 0.0
C487 C 0.58312 0.53217 0.53555 0.0
C488 C 0.59541 0.52123 0.63871 0.0
C489 C 0.62457 0.53309 0.56093 0.0
C490 C 0.61892 0.52578 0.62246 0.0
C491 C 0.60657 0.53663 0.51678 0.0
H492 H 0.62924 0.54771 0.43924 0.0
N493 N 0.5422 0.53387 0.51559 0.0
C494 C 0.56467 0.53702 0.49454 0.0
C495 C 0.55034 0.5529 0.39558 0.0
C496 C 0.56932 0.54641 0.43374 0.0
C497 C 0.52377 0.54176 0.48005 0.0
C498 C 0.52751 0.5511 0.41951 0.0
O499 O 0.48761 0.49293 0.68895 0.0
O500 O 0.52716 0.48833 0.69284 0.0
O501 O 0.53394 0.48137 0.54299 0.0
O502 O 0.56771 0.48518 0.59295 0.0
O503 O 0.5245 0.54317 0.74289 0.0
O504 O 0.54772 0.51221 0.71245 0.0
O505 O 0.53955 0.55084 0.61164 0.0
O506 O 0.50222 0.56174 0.64427 0.0
O507 O 0.47772 0.55361 0.78982 0.0
O508 O 0.45941 0.55923 0.7015 0.0
O509 O 0.5032 0.50213 0.5656 0.0
O510 O 0.4768 0.52948 0.60286 0.0
C511 C 0.50589 0.47912 0.6972 0.0
C512 C 0.54391 0.53051 0.7491 0.0
C513 C 0.56352 0.45224 0.52032 0.0
C514 C 0.55427 0.4159 0.46433 0.0
C515 C 0.59499 0.42896 0.47554 0.0
C516 C 0.58758 0.44878 0.50916 0.0
C517 C 0.57845 0.41264 0.45278 0.0
C518 C 0.54707 0.43564 0.4989 0.0
C519 C 0.55515 0.47344 0.5522 0.0
C520 C 0.59271 0.54951 0.41353 0.0
C521 C 0.6113 0.54469 0.455 0.0
H522 H 0.55317 0.5601 0.34855 0.0
C523 C 0.52309 0.56694 0.62026 0.0
C524 C 0.48313 0.51347 0.56062 0.0
C525 C 0.46306 0.59181 0.77076 0.0
C526 C 0.48086 0.62651 0.81899 0.0
C527 C 0.4441 0.6299 0.76178 0.0
C528 C 0.44444 0.60574 0.74892 0.0
C529 C 0.46224 0.6403 0.79673 0.0
C530 C 0.48134 0.60235 0.8059 0.0
C531 C 0.46235 0.56622 0.75966 0.0
H532 H 0.61354 0.42641 0.46625 0.0
H533 H 0.60055 0.46156 0.52538 0.0
H534 H 0.58455 0.39778 0.42522 0.0
H535 H 0.52856 0.43813 0.50932 0.0
H536 H 0.42963 0.64053 0.74518 0.0
H537 H 0.43003 0.59787 0.72251 0.0
H538 H 0.46165 0.65901 0.80712 0.0
H539 H 0.49581 0.59189 0.82361 0.0
C540 C 0.02884 0.45253 0.78158 0.0
C541 C 0.04372 0.46912 0.87996 0.0
C542 C 0.03346 0.47213 0.81958 0.0
C543 C 0.04827 0.44632 0.9026 0.0
C544 C 0.03428 0.42966 0.80343 0.0
C545 C 0.04359 0.42666 0.86444 0.0
N546 N 0.01889 0.45574 0.7237 0.0
C547 C 0.01476 0.43693 0.68447 0.0
C548 C 0.02991 0.41037 0.76367 0.0
C549 C 0.02038 0.41407 0.70367 0.0
Gd550 Gd 0.02488 0.54734 0.60555 0.0
Gd551 Gd 1.00325 0.49343 0.70773 0.0
N552 N 0.02812 0.49404 0.79748 0.0
C553 C 0.04913 0.48913 0.91603 0.0
C554 C 0.03463 0.51358 0.83131 0.0
C555 C 0.04505 0.51145 0.89092 0.0
H556 H 0.03244 0.5309 0.81298 0.0
H557 H 0.0498 0.52708 0.91764 0.0
H558 H 0.03156 0.52564 0.45492 0.0
H559 H 1.00589 0.43912 0.6397 0.0
H560 H 0.01515 0.53242 0.34982 0.0
H561 H 0.05692 0.48754 0.96266 0.0
H562 H 0.05565 0.44372 0.94939 0.0
H563 H 0.0184 0.59799 0.68527 0.0
H564 H 0.03373 0.39255 0.77894 0.0
H565 H 0.01668 0.39922 0.67287 0.0
H566 H 0.97458 0.60541 0.3702 0.0
H567 H 0.04736 0.40919 0.88246 0.0
H568 H 0.98234 0.64678 0.56642 0.0
H569 H 1.0011 0.63717 0.66875 0.0
N570 N 1.00841 0.58492 0.59487 0.0
C571 C 0.99867 0.59 0.53765 0.0
C572 C 0.00951 0.60158 0.64142 0.0
C573 C 0.98942 0.62931 0.57399 0.0
C574 C 0.99998 0.62396 0.63183 0.0
C575 C 0.98883 0.61237 0.52582 0.0
H576 H 0.97195 0.63456 0.45592 0.0
N577 N 0.01199 0.55314 0.50001 0.0
C578 C 1.00024 0.57353 0.48909 0.0
C579 C 0.99626 0.56344 0.37802 0.0
C580 C 0.99197 0.57915 0.42775 0.0
C581 C 0.01889 0.53956 0.44961 0.0
C582 C 0.0103 0.54384 0.38876 0.0
O583 O 0.04293 0.49476 0.68707 0.0
O584 O 0.04738 0.53457 0.68809 0.0
O585 O 0.05812 0.53914 0.56416 0.0
O586 O 0.04977 0.57631 0.58615 0.0
O587 O 0.99175 0.52998 0.74261 0.0
O588 O 0.02066 0.55604 0.70997 0.0
O589 O 0.98473 0.54611 0.6146 0.0
O590 O 0.97679 0.50659 0.6334 0.0
O591 O 0.98268 0.48698 0.7923 0.0
O592 O 0.97603 0.46627 0.70785 0.0
O593 O 0.02169 0.51213 0.55417 0.0
O594 O 1.00839 0.4794 0.60904 0.0
C595 C 0.05686 0.51345 0.69121 0.0
C596 C 1.00308 0.55036 0.74824 0.0
C597 C 0.08776 0.56787 0.53664 0.0
C598 C 0.12197 0.55638 0.47588 0.0
C599 C 0.11831 0.59672 0.51249 0.0
C600 C 0.09675 0.59097 0.54104 0.0
C601 C 0.13087 0.57951 0.47949 0.0
C602 C 0.10054 0.55071 0.50434 0.0
C603 C 0.06477 0.5613 0.56276 0.0
C604 C 0.98104 0.60088 0.41692 0.0
C605 C 0.97959 0.61749 0.46572 0.0
H606 H 0.99014 0.56709 0.33042 0.0
C607 C 0.96993 0.52798 0.61666 0.0
C608 C 0.0161 0.48958 0.55715 0.0
C609 C 0.94445 0.47112 0.77855 0.0
C610 C 0.91007 0.49041 0.82094 0.0
C611 C 0.90703 0.45015 0.78315 0.0
C612 C 0.93091 0.45068 0.76758 0.0
C613 C 0.8966 0.46994 0.81013 0.0
C614 C 0.93387 0.49112 0.80483 0.0
C615 C 0.96975 0.47062 0.76589 0.0
H616 H 0.12526 0.61453 0.51578 0.0
H617 H 0.0871 0.60451 0.56597 0.0
H618 H 0.14757 0.58412 0.45763 0.0
H619 H 0.09368 0.53284 0.50003 0.0
H620 H 0.89668 0.4343 0.77514 0.0
H621 H 0.93892 0.43503 0.74779 0.0
H622 H 0.87815 0.46924 0.82325 0.0
H623 H 0.9441 0.507 0.81411 0.0
C624 C 0.12828 0.07276 0.26301 0.0
C625 C 0.12879 0.05688 0.21101 0.0
C626 C 0.11341 0.06933 0.31628 0.0
C627 C 0.09854 0.04919 0.32024 0.0
C628 C 0.09841 0.03323 0.26838 0.0
C629 C 0.11323 0.03725 0.215 0.0
C630 C 0.11438 0.087 0.36986 0.0
C631 C 0.08234 1.01185 0.26898 0.0
C632 C 0.07922 0.02607 0.48445 0.0
C633 C 0.0576 0.03737 0.49501 0.0
C634 C 0.09277 0.03013 0.42906 0.0
C635 C 0.08392 0.04452 0.37956 0.0
C636 C 0.06147 0.05495 0.38817 0.0
C637 C 0.04902 0.0518 0.4459 0.0
C638 C 0.11682 0.01914 0.42399 0.0
C639 C 0.05047 0.06967 0.33668 0.0
H640 H 0.13991 0.08788 0.26421 0.0
H641 H 0.11236 0.02472 0.17657 0.0
H642 H 0.09641 0.09216 0.38468 0.0
H643 H 0.12297 0.0788 0.41153 0.0
H644 H 0.12435 0.10325 0.35678 0.0
H645 H 0.084 1.00109 0.22524 0.0
H646 H 0.08633 1.0005 0.31037 0.0
H647 H 0.06378 0.01754 0.27397 0.0
H648 H 0.08569 0.01378 0.51903 0.0
H649 H 0.03213 0.0603 0.45173 0.0
H650 H 0.13027 0.03302 0.41426 0.0
H651 H 0.11722 1.00654 0.38383 0.0
H652 H 0.12185 1.00962 0.46791 0.0
H653 H 0.0584 0.08764 0.3372 0.0
H654 H 0.03116 0.07142 0.34361 0.0
H655 H 0.05372 0.0619 0.28923 0.0
C656 C 0.47378 0.11899 0.23377 0.0
C657 C 0.49181 0.13439 0.21203 0.0
C658 C 0.47674 0.10412 0.28737 0.0
C659 C 0.49827 0.10439 0.32163 0.0
C660 C 0.51683 0.11907 0.2985 0.0
C661 C 0.51344 0.13369 0.2446 0.0
C662 C 0.4564 0.08857 0.30824 0.0
C663 C 0.54031 0.11975 0.33176 0.0
C664 C 0.49884 0.08592 0.49875 0.0
C665 C 0.50779 0.06284 0.49688 0.0
C666 C 0.49547 0.09937 0.44259 0.0
C667 C 0.50127 0.08986 0.38214 0.0
C668 C 0.51024 0.06656 0.38003 0.0
C669 C 0.51334 0.05349 0.43675 0.0
C670 C 0.4855 0.12385 0.44791 0.0
C671 C 0.51649 0.05528 0.31753 0.0
H672 H 0.45708 0.11858 0.20908 0.0
H673 H 0.52763 0.14531 0.22951 0.0
H674 H 0.46255 0.07069 0.32141 0.0
H675 H 0.44804 0.09637 0.35083 0.0
H676 H 0.44278 0.08677 0.27077 0.0
H677 H 0.55294 0.13223 0.30896 0.0
H678 H 0.53787 0.12503 0.38198 0.0
H679 H 0.54815 0.10189 0.33179 0.0
H680 H 0.49426 0.09349 0.54424 0.0
H681 H 0.52021 0.03575 0.43373 0.0
H682 H 0.46847 0.12463 0.4223 0.0
H683 H 0.4976 0.13683 0.4252 0.0
H684 H 0.48255 0.12918 0.49794 0.0
H685 H 0.5008 0.05482 0.28624 0.0
H686 H 0.52308 0.03701 0.32336 0.0
H687 H 0.5302 0.06596 0.293 0.0
C688 C 0.40203 0.47317 0.25875 0.0
C689 C 0.39994 0.49048 0.21032 0.0
C690 C 0.41614 0.47653 0.31362 0.0
C691 C 0.42918 0.49774 0.32231 0.0
C692 C 0.42827 0.51485 0.27316 0.0
C693 C 0.4138 0.51118 0.21891 0.0
C694 C 0.41633 0.45748 0.36375 0.0
C695 C 0.44285 0.53719 0.27764 0.0
C696 C 0.44614 0.51858 0.49156 0.0
C697 C 0.46894 0.50956 0.50002 0.0
C698 C 0.43307 0.51457 0.43507 0.0
C699 C 0.44318 0.50218 0.3832 0.0
C700 C 0.46653 0.49378 0.39048 0.0
C701 C 0.47875 0.4971 0.44849 0.0
C702 C 0.40816 0.52344 0.43118 0.0
C703 C 0.47879 0.48113 0.337 0.0
H704 H 0.3924 0.45676 0.25569 0.0
H705 H 0.41352 0.52497 0.18369 0.0
H706 H 0.43454 0.45371 0.37936 0.0
H707 H 0.40644 0.46366 0.40592 0.0
H708 H 0.40815 0.44074 0.34689 0.0
H709 H 0.44071 0.54876 0.23555 0.0
H710 H 0.43787 0.54727 0.32059 0.0
H711 H 0.46174 0.53267 0.28237 0.0
H712 H 0.43828 0.52877 0.5291 0.0
H713 H 0.49641 0.49019 0.45277 0.0
H714 H 0.39599 0.50856 0.42006 0.0
H715 H 0.40667 0.53649 0.39223 0.0
H716 H 0.40232 0.53185 0.47602 0.0
H717 H 0.47145 0.46302 0.33239 0.0
H718 H 0.49805 0.47977 0.34518 0.0
H719 H 0.47587 0.49034 0.29129 0.0
C720 C 0.04986 0.42604 0.22335 0.0
C721 C 0.0355 0.40614 0.21111 0.0
C722 C 0.04624 0.44058 0.27719 0.0
C723 C 0.02834 0.43478 0.32198 0.0
C724 C 0.01372 0.41483 0.30945 0.0
C725 C 0.01722 0.4011 0.25416 0.0
C726 C 0.06207 0.46182 0.28671 0.0
C727 C 0.99467 0.40753 0.35555 0.0
C728 C 0.03432 0.45609 0.49529 0.0
C729 C 0.01861 0.47506 0.49794 0.0
C730 C 0.03791 0.4432 0.43852 0.0
C731 C 0.02523 0.449 0.38262 0.0
C732 C 1.00919 0.46809 0.38549 0.0
C733 C 1.00613 0.48079 0.44271 0.0
C734 C 0.05557 0.42348 0.43819 0.0
C735 C 0.99551 0.47542 0.32765 0.0
H736 H 0.0641 0.4302 0.19079 0.0
H737 H 1.00622 0.38567 0.24604 0.0
H738 H 0.05196 0.47714 0.30444 0.0
H739 H 0.07564 0.4576 0.32263 0.0
H740 H 0.0712 0.46702 0.24215 0.0
H741 H 0.98569 0.39088 0.34124 0.0
H742 H 1.00228 0.40509 0.40351 0.0
H743 H 0.98134 0.42165 0.35908 0.0
H744 H 0.04424 0.45165 0.53745 0.0
H745 H 0.99379 0.49526 0.44437 0.0
H746 H 0.07021 0.42797 0.4053 0.0
H747 H 0.04722 0.40694 0.42067 0.0
H748 H 0.06306 0.42018 0.48595 0.0
H749 H 1.00791 0.48119 0.28986 0.0
H750 H 0.9832 0.49008 0.33783 0.0
H751 H 0.98527 0.46021 0.30884 0.0
C752 C 0.90659 0.97388 0.05643 0.0
C753 C 0.89545 0.99275 0.08796 0.0
C754 C 0.9204 0.9774 1.00088 0.0
C755 C 0.92323 1.00036 0.97453 0.0
C756 C 0.91216 0.01944 1.00614 0.0
C757 C 0.89862 0.01546 0.06178 0.0
C758 C 0.93254 0.95653 0.97131 0.0
C759 C 0.91444 0.04423 0.9807 0.0
C760 C 0.9755 0.01846 0.86664 0.0
C761 C 0.96744 0.01343 0.80503 0.0
C762 C 0.962 0.0132 0.92146 0.0
C763 C 0.93847 1.00469 0.9158 0.0
C764 C 0.92946 1.0012 0.85347 0.0
C765 C 0.94415 1.00484 0.79957 0.0
C766 C 0.97351 0.01705 0.98512 0.0
C767 C 0.90422 0.99365 0.84299 0.0
H768 H 0.90484 0.95622 0.07565 0.0
H769 H 0.88999 0.03029 0.0839 0.0
H770 H 0.92669 0.95424 0.92158 0.0
H771 H 0.95185 0.95976 0.97025 0.0
H772 H 0.92895 0.93983 0.9974 0.0
H773 H 0.90405 0.05708 1.00868 0.0
H774 H 0.93318 0.04991 0.98143 0.0
H775 H 0.90845 0.04473 0.93065 0.0
H776 H 0.99242 0.02685 0.87273 0.0
H777 H 0.93718 1.00103 0.75291 0.0
H778 H 0.96355 1.00914 0.0252 0.0
H779 H 0.97562 0.03628 0.9936 0.0
H780 H 0.99142 1.00937 0.98482 0.0
H781 H 0.90271 0.97422 0.84788 0.0
H782 H 0.89809 0.99846 0.79472 0.0
H783 H 0.89229 1.00182 0.8783 0.0
C784 C 0.55195 0.90078 0.03284 0.0
C785 C 0.53858 0.90412 0.08821 0.0
C786 C 0.54984 0.91592 0.97962 0.0
C787 C 0.53366 0.93493 0.98065 0.0
C788 C 0.52073 0.93884 0.03751 0.0
C789 C 0.52331 0.92347 0.09023 0.0
C790 C 0.56476 0.91134 0.92176 0.0
C791 C 0.5033 0.95869 0.04188 0.0
C792 C 0.53667 0.98444 0.85398 0.0
C793 C 0.52027 0.97677 0.80832 0.0
C794 C 0.54151 0.97107 0.90934 0.0
C795 C 0.52915 0.94957 0.92122 0.0
C796 C 0.51251 0.94181 0.87527 0.0
C797 C 0.50876 0.95509 0.81925 0.0
C798 C 0.56019 0.97985 0.95459 0.0
C799 C 0.49854 0.91933 0.88522 0.0
H800 H 0.56382 0.88593 0.03072 0.0
H801 H 0.5128 0.92617 0.1325 0.0
H802 H 0.5534 0.90848 0.87971 0.0
H803 H 0.57604 0.927 0.91174 0.0
H804 H 0.57624 0.89573 0.92773 0.0
H805 H 0.49726 0.96165 0.09133 0.0
H806 H 0.51108 0.97536 0.02341 0.0
H807 H 0.48774 0.95437 1.01217 0.0
H808 H 0.54635 1.00061 0.84571 0.0
H809 H 0.49654 0.94851 0.78429 0.0
H810 H 0.57436 0.96658 0.95859 0.0
H811 H 0.55257 0.98215 1.0026 0.0
H812 H 0.56818 0.99688 0.93911 0.0
H813 H 0.51059 0.90404 0.88579 0.0
H814 H 0.48516 0.91644 0.84759 0.0
H815 H 0.48947 0.91981 0.93186 0.0
C816 C 0.60659 0.55483 0.09117 0.0
C817 C 0.63094 0.55054 0.09024 0.0
C818 C 0.59256 0.55238 0.03569 0.0
C819 C 0.60286 0.54516 0.97731 0.0
C820 C 0.62749 0.54086 0.97646 0.0
C821 C 0.6411 0.54372 0.0323 0.0
C822 C 0.56658 0.55745 0.0396 0.0
C823 C 0.63961 0.53354 0.916 0.0
C824 C 0.56555 0.51557 0.84577 0.0
C825 C 0.55983 0.53449 0.80561 0.0
C826 C 0.57872 0.51896 0.90211 0.0
C827 C 0.58797 0.54163 0.91769 0.0
C828 C 0.58306 0.56066 0.87562 0.0
C829 C 0.56854 0.55701 0.82156 0.0
C830 C 0.58218 0.49826 0.94601 0.0
C831 C 0.59287 0.58507 0.88766 0.0
H832 H 0.59854 0.56038 0.13525 0.0
H833 H 0.65989 0.54057 0.0307 0.0
H834 H 0.56189 0.57133 1.00485 0.0
H835 H 0.55633 0.54135 0.02707 0.0
H836 H 0.56118 0.56339 0.0876 0.0
H837 H 0.65864 0.53003 0.92319 0.0
H838 H 0.63115 0.5174 0.89645 0.0
H839 H 0.63778 0.54768 0.87996 0.0
H840 H 0.5587 0.49814 0.83458 0.0
H841 H 0.56437 0.57178 0.79103 0.0
H842 H 0.57497 0.50247 0.99358 0.0
H843 H 0.60123 0.49476 0.95195 0.0
H844 H 0.5734 0.48194 0.9284 0.0
H845 H 0.58157 0.59419 0.92272 0.0
H846 H 0.59324 0.59584 0.84362 0.0
H847 H 0.61097 0.58435 0.90721 0.0
C848 C 1.0033 0.61525 0.09131 0.0
C849 C 0.98935 0.63559 0.09369 0.0
C850 C 1.00343 0.60031 0.0373 0.0
C851 C 0.98975 0.60597 0.98303 0.0
C852 C 0.97505 0.62611 0.98624 0.0
C853 C 0.97498 0.64052 0.04121 0.0
C854 C 0.01888 0.5788 0.0377 0.0
C855 C 0.95982 0.63283 0.93068 0.0
C856 C 0.01327 0.58475 0.82133 0.0
C857 C 0.99864 0.56531 0.80666 0.0
C858 C 0.01018 0.59818 0.87727 0.0
C859 C 0.99228 0.59205 0.9216 0.0
C860 C 0.97732 0.57251 0.90705 0.0
C861 C 0.98065 0.55951 0.85026 0.0
C862 C 0.02638 0.61896 0.88927 0.0
C863 C 0.95821 0.56464 0.95236 0.0
H864 H 0.01445 0.61122 0.13144 0.0
H865 H 0.96415 0.65617 0.04243 0.0
H866 H 0.00934 0.56332 0.01779 0.0
H867 H 0.03456 0.58214 1.00744 0.0
H868 H 0.02497 0.57436 0.08623 0.0
H869 H 0.94912 0.64873 0.94048 0.0
H870 H 0.97103 0.63632 0.8885 0.0
H871 H 0.94778 0.61798 0.9185 0.0
H872 H 0.02762 0.58931 0.78966 0.0
H873 H 0.96929 0.54448 0.84059 0.0
H874 H 0.03696 0.61572 0.9325 0.0
H875 H 0.0159 0.63509 0.89782 0.0
H876 H 0.03858 0.62236 0.849 0.0
H877 H 0.96632 0.55478 0.99205 0.0
H878 H 0.94509 0.55287 0.929 0.0
H879 H 0.94889 0.57996 0.97293 0.0
C880 C 0.03851 0.22129 0.27991 0.0
C881 C 0.06174 0.21904 0.25866 0.0
C882 C 0.02773 0.20342 0.31549 0.0
C883 C 0.04072 0.18304 0.33112 0.0
C884 C 0.06425 0.18069 0.30997 0.0
C885 C 0.07444 0.1987 0.27309 0.0
C886 C 1.00238 0.20631 0.33592 0.0
C887 C 0.07851 0.15914 0.32573 0.0
C888 C 0.01434 0.15379 0.47496 0.0
C889 C 0.99967 0.13691 0.44686 0.0
C890 C 0.02953 0.16764 0.43792 0.0
C891 C 0.02955 0.1647 0.3713 0.0
C892 C 0.01591 0.14645 0.34322 0.0
C893 C 1.0011 0.13261 0.38169 0.0
C894 C 0.0441 0.18666 0.46959 0.0
C895 C 0.0152 0.14297 0.27229 0.0
H896 H 0.02853 0.23681 0.26708 0.0
H897 H 0.09231 0.19697 0.25561 0.0
H898 H 0.99164 0.19105 0.31944 0.0
H899 H 1.00126 0.20671 0.38841 0.0
H900 H 0.99449 0.22275 0.31708 0.0
H901 H 0.09722 0.16111 0.31096 0.0
H902 H 0.07786 0.15557 0.37743 0.0
H903 H 0.07087 0.1435 0.30141 0.0
H904 H 0.01309 0.15688 0.52557 0.0
H905 H 0.98955 0.1195 0.36038 0.0
H906 H 0.03607 0.20411 0.4604 0.0
H907 H 0.06222 0.18712 0.44986 0.0
H908 H 0.04512 0.18405 0.52171 0.0
H909 H 1.00318 0.15615 0.25117 0.0
H910 H 1.00859 0.12508 0.25957 0.0
H911 H 0.03282 0.14566 0.25062 0.0
C912 C 0.30502 0.04947 0.32882 0.0
C913 C 0.31091 0.06798 0.28738 0.0
C914 C 0.32255 0.03784 0.36279 0.0
C915 C 0.34622 0.04493 0.35395 0.0
C916 C 0.35185 0.06525 0.31756 0.0
C917 C 0.3339 0.07693 0.28593 0.0
C918 C 0.316 0.01694 0.40382 0.0
C919 C 0.37706 0.07297 0.30546 0.0
C920 C 0.40201 0.02738 0.43159 0.0
C921 C 0.41157 0.01341 0.38334 0.0
C922 C 0.37892 0.03545 0.42721 0.0
C923 C 0.36556 0.02949 0.37315 0.0
C924 C 0.37422 0.01305 0.3284 0.0
C925 C 0.39735 1.00526 0.33399 0.0
C926 C 0.36976 0.05233 0.47658 0.0
C927 C 0.35993 1.00543 0.27146 0.0
H928 H 0.28714 0.04261 0.33018 0.0
H929 H 0.33822 0.09155 0.25466 0.0
H930 H 0.32478 1.00078 0.38647 0.0
H931 H 0.3222 0.02002 0.45296 0.0
H932 H 0.29669 0.01364 0.40491 0.0
H933 H 0.3782 0.08977 0.27844 0.0
H934 H 0.38664 0.07528 0.35079 0.0
H935 H 0.38628 0.05916 0.27784 0.0
H936 H 0.41303 0.0332 0.4706 0.0
H937 H 0.40468 0.99362 0.29841 0.0
H938 H 0.3511 0.04826 0.48819 0.0
H939 H 0.37051 0.07061 0.45772 0.0
H940 H 0.38037 0.05171 0.52071 0.0
H941 H 0.34319 0.99708 0.2872 0.0
H942 H 0.36948 0.99265 0.24116 0.0
H943 H 0.35539 0.021 0.24213 0.0
C944 C 0.45854 0.32374 0.32504 0.0
C945 C 0.46413 0.3229 0.26045 0.0
C946 C 0.47085 0.33901 0.36576 0.0
C947 C 0.48926 0.35327 0.34091 0.0
C948 C 0.49468 0.35267 0.2755 0.0
C949 C 0.48193 0.33758 0.23602 0.0
C950 C 0.46428 0.33979 0.43506 0.0
C951 C 0.51469 0.36714 0.24763 0.0
C952 C 0.51509 0.40794 0.41447 0.0
C953 C 0.53637 0.39934 0.43882 0.0
C954 C 0.49846 0.39267 0.3875 0.0
C955 C 0.50366 0.36842 0.38266 0.0
C956 C 0.52463 0.35945 0.40922 0.0
C957 C 0.54062 0.37504 0.43782 0.0
C958 C 0.47605 0.40275 0.36059 0.0
C959 C 0.53067 0.33359 0.40496 0.0
H960 H 0.44486 0.31219 0.34367 0.0
H961 H 0.48673 0.33639 0.18634 0.0
H962 H 0.48006 0.33734 0.46516 0.0
H963 H 0.45701 0.35739 0.44648 0.0
H964 H 0.45096 0.32609 0.44773 0.0
H965 H 0.51649 0.36463 0.19563 0.0
H966 H 0.51193 0.38617 0.25704 0.0
H967 H 0.53153 0.36216 0.27045 0.0
H968 H 0.51171 0.42673 0.41434 0.0
H969 H 0.55669 0.36825 0.45826 0.0
H970 H 0.46075 0.39108 0.37127 0.0
H971 H 0.47762 0.40407 0.30828 0.0
H972 H 0.47244 0.42064 0.3796 0.0
H973 H 0.51746 0.32297 0.43156 0.0
H974 H 0.5484 0.32981 0.42449 0.0
H975 H 0.53015 0.32763 0.35488 0.0
C976 C 0.19527 0.461 0.28135 0.0
C977 C 0.21759 0.47168 0.28474 0.0
C978 C 0.17662 0.46965 0.31759 0.0
C979 C 0.18081 0.48912 0.35795 0.0
C980 C 0.20394 0.49791 0.36725 0.0
C981 C 0.22215 0.48896 0.33051 0.0
C982 C 0.15221 0.45968 0.30715 0.0
C983 C 0.20904 0.51868 0.41026 0.0
C984 C 0.14066 0.54031 0.37916 0.0
C985 C 0.13481 0.53773 0.44309 0.0
C986 C 0.15362 0.52293 0.34821 0.0
C987 C 0.16116 0.50298 0.38297 0.0
C988 C 0.1537 0.49947 0.44611 0.0
C989 C 0.14051 0.51699 0.47565 0.0
C990 C 0.16083 0.5269 0.28002 0.0
C991 C 0.16125 0.47821 0.48386 0.0
H992 H 0.19195 0.44738 0.2463 0.0
H993 H 0.23936 0.49736 0.33288 0.0
H994 H 0.14177 0.45967 0.35164 0.0
H995 H 0.14287 0.47079 0.27212 0.0
H996 H 0.15284 0.4414 0.28821 0.0
H997 H 0.22822 0.52198 0.41608 0.0
H998 H 0.20105 0.53484 0.39013 0.0
H999 H 0.20114 0.51572 0.45775 0.0
H1000 H 0.13546 0.55609 0.35388 0.0
H1001 H 0.13546 0.51496 0.52498 0.0
H1002 H 0.15886 0.51042 0.25212 0.0
H1003 H 0.17967 0.53227 0.27819 0.0
H1004 H 0.15028 0.54094 0.2571 0.0
H1005 H 0.16029 0.46195 0.45464 0.0
H1006 H 0.15025 0.47566 0.52694 0.0
H1007 H 0.17984 0.48061 0.49885 0.0
C1008 C 0.98897 0.81261 0.99563 0.0
C1009 C 0.96608 0.81425 0.01958 0.0
C1010 C 0.9993 0.83158 0.96388 0.0
C1011 C 0.98605 0.85231 0.95456 0.0
C1012 C 0.96234 0.85346 0.97466 0.0
C1013 C 0.95263 0.83434 1.00797 0.0
C1014 C 0.02486 0.82993 0.94394 0.0
C1015 C 0.94757 0.87502 0.96267 0.0
C1016 C 0.02743 0.90348 0.93326 0.0
C1017 C 0.03124 0.90204 0.86803 0.0
C1018 C 0.01077 0.8887 0.96233 0.0
C1019 C 0.9977 0.87264 0.92445 0.0
C1020 C 1.00022 0.87268 0.85792 0.0
C1021 C 0.0175 0.88708 0.83058 0.0
C1022 C 1.00873 0.88875 0.03371 0.0
C1023 C 0.9864 0.85579 0.81658 0.0
H1024 H 0.99944 0.79718 1.00613 0.0
H1025 H 0.93497 0.83542 0.02728 0.0
H1026 H 0.02666 0.83301 0.89226 0.0
H1027 H 0.0354 0.84378 0.96838 0.0
H1028 H 0.03257 0.81248 0.95513 0.0
H1029 H 0.92965 0.8733 0.98347 0.0
H1030 H 0.95625 0.89095 0.98275 0.0
H1031 H 0.9459 0.87793 0.91086 0.0
H1032 H 0.03806 0.91547 0.96153 0.0
H1033 H 0.02105 0.88601 0.78036 0.0
H1034 H 0.01782 0.87305 0.053 0.0
H1035 H 0.99005 0.88761 0.04885 0.0
H1036 H 0.01686 0.90481 0.05492 0.0
H1037 H 0.99503 0.83831 0.81679 0.0
H1038 H 0.98561 0.86191 0.76687 0.0
H1039 H 0.96815 0.85334 0.83445 0.0
C1040 C 0.70069 0.96132 1.0017 0.0
C1041 C 0.71917 0.97711 0.01404 0.0
C1042 C 0.68048 0.96918 0.97065 0.0
C1043 C 0.67879 0.99341 0.95541 0.0
C1044 C 0.69829 1.00883 0.96345 0.0
C1045 C 0.71861 1.00018 0.991 0.0
C1046 C 0.66041 0.95215 0.95855 0.0
C1047 C 0.69672 0.03512 0.95141 0.0
C1048 C 0.63344 0.02707 0.86728 0.0
C1049 C 0.62062 0.0366 0.91787 0.0
C1050 C 0.65097 1.01052 0.87822 0.0
C1051 C 0.65597 1.00396 0.94118 0.0
C1052 C 0.64212 0.01245 0.99213 0.0
C1053 C 0.62445 0.02874 0.97964 0.0
C1054 C 0.66515 1.0013 0.82306 0.0
C1055 C 0.64673 1.00535 0.06007 0.0
H1056 H 0.7014 0.9435 0.02028 0.0
H1057 H 0.73291 0.01232 1.00215 0.0
H1058 H 0.64491 0.95692 0.98768 0.0
H1059 H 0.65497 0.9532 0.90815 0.0
H1060 H 0.66526 0.93364 0.96963 0.0
H1061 H 0.71392 0.04431 0.95766 0.0
H1062 H 0.69034 0.03866 0.90278 0.0
H1063 H 0.68393 0.04298 0.98503 0.0
H1064 H 0.62988 0.03281 0.8192 0.0
H1065 H 0.61364 0.03539 0.018 0.0
H1066 H 0.66802 0.98204 0.82803 0.0
H1067 H 0.68271 1.01003 0.8222 0.0
H1068 H 0.65638 1.00477 0.77707 0.0
H1069 H 0.64377 0.9861 0.06579 0.0
H1070 H 0.63509 0.01466 0.09407 0.0
H1071 H 0.66532 1.00917 0.07296 0.0
C1072 C 0.57451 0.69838 0.03132 0.0
C1073 C 0.56282 0.71974 0.04081 0.0
C1074 C 0.56394 0.68012 0.99629 0.0
C1075 C 0.5412 0.68347 0.97074 0.0
C1076 C 0.5293 0.705 0.98056 0.0
C1077 C 0.5403 0.72289 0.01539 0.0
C1078 C 0.57706 0.65737 0.98655 0.0
C1079 C 0.50473 0.709 0.95545 0.0
C1080 C 0.51613 0.65212 0.82875 0.0
C1081 C 0.49937 0.63747 0.85758 0.0
C1082 C 0.53152 0.66579 0.86555 0.0
C1083 C 0.52964 0.66488 0.93243 0.0
C1084 C 0.51376 0.64881 0.96165 0.0
C1085 C 0.49878 0.63512 0.92355 0.0
C1086 C 0.54831 0.68265 0.83286 0.0
C1087 C 0.51138 0.64737 0.03289 0.0
H1088 H 0.59186 0.69595 0.05154 0.0
H1089 H 0.53094 0.73914 0.02448 0.0
H1090 H 0.56592 0.64206 1.00071 0.0
H1091 H 0.58128 0.65521 0.93554 0.0
H1092 H 0.59373 0.65689 0.01399 0.0
H1093 H 0.49839 0.72714 0.96513 0.0
H1094 H 0.50421 0.70595 0.90353 0.0
H1095 H 0.49229 0.69623 0.9777 0.0
H1096 H 0.51649 0.65363 0.7775 0.0
H1097 H 0.48571 0.62358 0.94526 0.0
H1098 H 0.56596 0.68209 0.85524 0.0
H1099 H 0.54168 0.70093 0.83775 0.0
H1100 H 0.55017 0.67863 0.78158 0.0
H1101 H 0.52887 0.64474 0.05496 0.0
H1102 H 0.49941 0.63281 0.04803 0.0
H1103 H 0.50437 0.66424 0.05144 0.0
C1104 C 0.80748 0.54073 0.97674 0.0
C1105 C 0.80803 0.5606 0.01563 0.0
C1106 C 0.82694 0.535 0.93999 0.0
C1107 C 0.84695 0.55012 0.9409 0.0
C1108 C 0.84657 0.57157 0.97503 0.0
C1109 C 0.82703 0.57646 1.01308 0.0
C1110 C 0.82694 0.51147 0.90613 0.0
C1111 C 0.86737 0.58833 0.97492 0.0
C1112 C 0.89834 0.51089 0.91855 0.0
C1113 C 0.89931 0.5105 0.85245 0.0
C1114 C 0.88321 0.52637 0.94957 0.0
C1115 C 0.86893 0.54149 0.9128 0.0
C1116 C 0.87216 0.5431 0.84651 0.0
C1117 C 0.88732 0.52727 0.81673 0.0
C1118 C 0.88021 0.52415 0.02056 0.0
C1119 C 0.85742 0.55925 0.80627 0.0
H1120 H 0.7928 0.52837 0.98012 0.0
H1121 H 0.82718 0.5918 0.04383 0.0
H1122 H 0.83272 0.51363 0.85625 0.0
H1123 H 0.8395 0.49945 0.92981 0.0
H1124 H 0.80929 0.50284 0.90637 0.0
H1125 H 0.86361 0.60489 1.00111 0.0
H1126 H 0.8828 0.57977 0.99703 0.0
H1127 H 0.87235 0.59282 0.92547 0.0
H1128 H 0.90797 0.49785 0.94553 0.0
H1129 H 0.88849 0.52685 0.76543 0.0
H1130 H 0.86383 0.51402 0.03099 0.0
H1131 H 0.87852 0.54173 0.04302 0.0
H1132 H 0.89521 0.51481 0.04277 0.0
H1133 H 0.84061 0.55017 0.79427 0.0
H1134 H 0.86657 0.5638 0.76129 0.0
H1135 H 0.85314 0.57578 0.83183 0.0
C1136 C 0.04356 0.19384 0.85312 0.0
C1137 C 0.0364 0.2134 0.81723 0.0
C1138 C 0.04251 0.17054 0.82878 0.0
C1139 C 0.03374 0.16619 0.76674 0.0
C1140 C 0.02721 0.18606 0.7294 0.0
C1141 C 0.02865 0.20928 0.75491 0.0
C1142 C 0.05068 0.15047 0.87007 0.0
C1143 C 0.01799 0.18286 0.66294 0.0
C1144 C 0.04548 0.10432 0.69524 0.0
C1145 C 0.02397 0.09228 0.70521 0.0
C1146 C 0.04866 0.1284 0.71252 0.0
C1147 C 0.03022 0.14091 0.743 0.0
C1148 C 1.0085 0.12878 0.75321 0.0
C1149 C 1.00554 0.10498 0.7335 0.0
C1150 C 0.07175 0.14053 0.69744 0.0
C1151 C 0.98839 0.1409 0.78626 0.0
H1152 H 0.04991 0.1968 0.90091 0.0
H1153 H 0.0231 0.22417 0.72655 0.0
H1154 H 0.03696 0.13644 0.87272 0.0
H1155 H 0.06665 0.14252 0.84893 0.0
H1156 H 0.05501 0.15636 0.91893 0.0
H1157 H 0.01932 0.19946 0.63503 0.0
H1158 H 0.02767 0.16881 0.63754 0.0
H1159 H 0.99917 0.17748 0.66514 0.0
H1160 H 0.05983 0.095 0.67275 0.0
H1161 H 0.98884 0.09609 0.74176 0.0
H1162 H 0.08059 0.14605 0.74191 0.0
H1163 H 0.06853 0.15675 0.66931 0.0
H1164 H 0.08385 0.12899 0.67035 0.0
H1165 H 0.99406 0.14675 0.83412 0.0
H1166 H 0.97268 0.12923 0.79134 0.0
H1167 H 0.98332 0.15689 0.75937 0.0
C1168 C 0.32807 0.06284 0.74808 0.0
C1169 C 0.32056 0.05204 0.80481 0.0
C1170 C 0.35115 0.05945 0.72354 0.0
C1171 C 0.36766 0.04539 0.75702 0.0
C1172 C 0.36015 0.03482 0.8149 0.0
C1173 C 0.33685 0.03802 0.83743 0.0
C1174 C 0.35781 0.07081 0.66132 0.0
C1175 C 0.377 0.0206 0.85436 0.0
C1176 C 0.42308 0.01928 0.67584 0.0
C1177 C 0.44125 0.03467 0.69561 0.0
C1178 C 0.39922 0.02274 0.69421 0.0
C1179 C 0.39288 0.04222 0.73312 0.0
C1180 C 0.41104 0.05824 0.75116 0.0
C1181 C 0.43463 0.05437 0.732 0.0
C1182 C 0.38075 1.00522 0.67284 0.0
C1183 C 0.40563 0.0796 0.7912 0.0
H1184 H 0.31577 0.07382 0.7225 0.0
H1185 H 0.3315 0.03 0.8819 0.0
H1186 H 0.37387 0.08188 0.66702 0.0
H1187 H 0.36197 0.05689 0.62624 0.0
H1188 H 0.3435 0.08192 0.64199 0.0
H1189 H 0.36812 1.01183 0.89513 0.0
H1190 H 0.38562 1.00694 0.8249 0.0
H1191 H 0.39108 0.03241 0.87292 0.0
H1192 H 0.42758 1.00408 0.64728 0.0
H1193 H 0.44791 0.06709 0.74524 0.0
H1194 H 0.36694 0.01442 0.64541 0.0
H1195 H 0.37206 0.99706 0.71472 0.0
H1196 H 0.38825 0.991 0.64295 0.0
H1197 H 0.39426 0.09181 0.76414 0.0
H1198 H 0.42181 0.08934 0.80569 0.0
H1199 H 0.39578 0.07428 0.83447 0.0
C1200 C 0.47523 0.34725 0.83516 0.0
C1201 C 0.49177 0.33024 0.81653 0.0
C1202 C 0.4763 0.37092 0.81271 0.0
C1203 C 0.49394 0.37807 0.76839 0.0
C1204 C 0.50976 0.36047 0.74642 0.0
C1205 C 0.50886 0.33716 0.77168 0.0
C1206 C 0.45875 0.38843 0.83782 0.0
C1207 C 0.52809 0.36623 0.69681 0.0
C1208 C 0.48619 0.43868 0.68376 0.0
C1209 C 0.5025 0.45338 0.7154 0.0
C1210 C 0.48366 0.41425 0.69877 0.0
C1211 C 0.4969 0.40408 0.74904 0.0
C1212 C 0.51306 0.41907 0.78171 0.0
C1213 C 0.51599 0.44312 0.76383 0.0
C1214 C 0.46722 0.3992 0.65953 0.0
C1215 C 0.52715 0.4097 0.83659 0.0
H1216 H 0.46184 0.34222 0.8694 0.0
H1217 H 0.52161 0.32426 0.75611 0.0
H1218 H 0.4679 0.40467 0.85443 0.0
H1219 H 0.44658 0.39362 0.79935 0.0
H1220 H 0.4481 0.38106 0.87752 0.0
H1221 H 0.53409 0.35009 0.67187 0.0
H1222 H 0.52123 0.37882 0.66114 0.0
H1223 H 0.5436 0.37455 0.71992 0.0
H1224 H 0.47585 0.44616 0.64571 0.0
H1225 H 0.52857 0.45414 0.78897 0.0
H1226 H 0.45246 0.39261 0.68933 0.0
H1227 H 0.47667 0.38354 0.64122 0.0
H1228 H 0.45979 0.40905 0.61877 0.0
H1229 H 0.5151 0.40209 0.87288 0.0
H1230 H 0.53821 0.4236 0.85917 0.0
H1231 H 0.53877 0.39532 0.82011 0.0
C1232 C 0.18593 0.49603 0.85275 0.0
C1233 C 0.20523 0.49585 0.81082 0.0
C1234 C 0.16246 0.49932 0.83142 0.0
C1235 C 0.15745 0.50177 0.76567 0.0
C1236 C 0.17692 0.50117 0.72279 0.0
C1237 C 0.2004 0.49866 0.7458 0.0
C1238 C 0.1429 0.50019 0.8798 0.0
C1239 C 0.17314 0.50323 0.65226 0.0
C1240 C 0.09286 0.48799 0.71544 0.0
C1241 C 0.08282 0.51052 0.70831 0.0
C1242 C 0.11696 0.48495 0.73189 0.0
C1243 C 0.13194 0.50482 0.74275 0.0
C1244 C 0.12202 0.5276 0.7345 0.0
C1245 C 0.0979 0.53015 0.71746 0.0
C1246 C 0.12649 0.46027 0.73718 0.0
C1247 C 0.13687 0.54945 0.74466 0.0
H1248 H 0.18926 0.49385 0.90298 0.0
H1249 H 0.21497 0.49842 0.71258 0.0
H1250 H 0.1322 0.51627 0.87268 0.0
H1251 H 0.13101 0.48472 0.87364 0.0
H1252 H 0.14966 0.50016 0.92917 0.0
H1253 H 0.18833 0.49627 0.62505 0.0
H1254 H 0.15695 0.49365 0.63734 0.0
H1255 H 0.17101 0.52209 0.63951 0.0
H1256 H 0.08183 0.47252 0.70817 0.0
H1257 H 0.0908 0.54771 0.71175 0.0
H1258 H 0.13276 0.45703 0.78615 0.0
H1259 H 0.14185 0.45829 0.70504 0.0
H1260 H 0.11309 0.44661 0.72506 0.0
H1261 H 0.14334 0.54989 0.79427 0.0
H1262 H 0.127 0.56591 0.73512 0.0
H1263 H 0.15254 0.54907 0.71324 0.0
C1264 C 0.01129 0.84076 0.50248 0.0
C1265 C 0.98897 0.83003 0.49291 0.0
C1266 C 0.01395 0.86432 0.52476 0.0
C1267 C 0.99397 0.87857 0.53661 0.0
C1268 C 0.97142 0.86793 0.52889 0.0
C1269 C 0.96924 0.84412 0.50846 0.0
C1270 C 0.03842 0.87411 0.53537 0.0
C1271 C 0.94922 0.88185 0.53986 0.0
C1272 C 1.00106 0.93552 0.63761 0.0
C1273 C 1.0039 0.95329 0.5917 0.0
C1274 C 0.99732 0.91149 0.62047 0.0
C1275 C 0.99679 0.90452 0.55576 0.0
C1276 C 0.99913 0.92254 0.5093 0.0
C1277 C 1.00275 0.94641 0.5277 0.0
C1278 C 0.99367 0.89353 0.67191 0.0
C1279 C 0.99742 0.91663 0.43977 0.0
H1280 H 0.02707 0.83109 0.49161 0.0
H1281 H 0.95166 0.83694 0.50458 0.0
H1282 H 0.04144 0.88972 0.50453 0.0
H1283 H 0.0402 0.88009 0.58525 0.0
H1284 H 0.05229 0.86092 0.52547 0.0
H1285 H 0.93397 0.87009 0.55067 0.0
H1286 H 0.95123 0.89474 0.57903 0.0
H1287 H 0.94509 0.89188 0.49613 0.0
H1288 H 1.00152 0.94043 0.68725 0.0
H1289 H 1.00465 0.95965 0.49152 0.0
H1290 H 0.0093 0.88197 0.67414 0.0
H1291 H 0.97821 0.88209 0.66144 0.0
H1292 H 0.9908 0.90203 0.71866 0.0
H1293 H 0.01174 0.9044 0.42641 0.0
H1294 H 0.9986 0.93258 0.40923 0.0
H1295 H 0.98046 0.90743 0.43016 0.0
C1296 C 0.68561 0.97295 0.4836 0.0
C1297 C 0.70476 0.98769 0.50157 0.0
C1298 C 0.66256 0.97562 0.50871 0.0
C1299 C 0.65748 0.99418 0.55161 0.0
C1300 C 0.67659 1.00877 0.57153 0.0
C1301 C 0.69971 1.0052 0.5473 0.0
C1302 C 0.6434 0.95882 0.48728 0.0
C1303 C 0.67255 0.02854 0.61803 0.0
C1304 C 0.59314 0.01622 0.54856 0.0
C1305 C 0.58327 1.00672 0.60428 0.0
C1306 C 0.61725 0.01313 0.53284 0.0
C1307 C 0.63206 0.99915 0.57179 0.0
C1308 C 0.62206 0.98928 0.62795 0.0
C1309 C 0.5981 0.99355 0.64398 0.0
C1310 C 0.62697 0.025 0.47426 0.0
C1311 C 0.6363 0.9733 0.66993 0.0
H1312 H 0.68812 0.95945 0.44817 0.0
H1313 H 0.71376 0.01648 0.56444 0.0
H1314 H 0.63146 0.95405 0.52709 0.0
H1315 H 0.63268 0.96747 0.45018 0.0
H1316 H 0.65076 0.94233 0.46717 0.0
H1317 H 0.6889 0.0388 0.62796 0.0
H1318 H 0.65905 0.04073 0.5993 0.0
H1319 H 0.66571 0.02126 0.66335 0.0
H1320 H 0.58206 0.02657 0.51759 0.0
H1321 H 0.59075 0.98592 0.68689 0.0
H1322 H 0.633 1.01148 0.44003 0.0
H1323 H 0.6425 0.03606 0.48691 0.0
H1324 H 0.61376 0.03634 0.45063 0.0
H1325 H 0.63832 0.95596 0.64617 0.0
H1326 H 0.62771 0.97032 0.71666 0.0
H1327 H 0.65424 0.9806 0.67769 0.0
C1328 C 0.52849 0.69759 0.46378 0.0
C1329 C 0.54342 0.71406 0.49378 0.0
C1330 C 0.52617 0.674 0.48551 0.0
C1331 C 0.53852 0.66631 0.54022 0.0
C1332 C 0.55323 0.68304 0.5718 0.0
C1333 C 0.55585 0.70637 0.54765 0.0
C1334 C 0.51053 0.65715 0.4492 0.0
C1335 C 0.56655 0.67633 0.63085 0.0
C1336 C 0.51313 0.61066 0.62286 0.0
C1337 C 0.52792 0.59244 0.60153 0.0
C1338 C 0.51685 0.63458 0.60527 0.0
C1339 C 0.53567 0.64095 0.56399 0.0
C1340 C 0.55099 0.62274 0.54331 0.0
C1341 C 0.54707 0.59895 0.56246 0.0
C1342 C 0.50057 0.65313 0.63121 0.0
C1343 C 0.57142 0.62836 0.49993 0.0
H1344 H 0.51906 0.70297 0.42164 0.0
H1345 H 0.56752 0.71872 0.57152 0.0
H1346 H 0.52038 0.64095 0.43689 0.0
H1347 H 0.49537 0.65174 0.47926 0.0
H1348 H 0.50367 0.66511 0.40486 0.0
H1349 H 0.57213 0.69213 0.65836 0.0
H1350 H 0.55576 0.66471 0.66203 0.0
H1351 H 0.58257 0.66648 0.61723 0.0
H1352 H 0.4985 0.60628 0.65391 0.0
H1353 H 0.55885 0.58538 0.54579 0.0
H1354 H 0.49111 0.66183 0.59175 0.0
H1355 H 0.51095 0.66698 0.65606 0.0
H1356 H 0.48738 0.64564 0.66478 0.0
H1357 H 0.56482 0.63611 0.4551 0.0
H1358 H 0.58195 0.61249 0.48847 0.0
H1359 H 0.58313 0.6417 0.52236 0.0
C1360 C 0.82734 0.53742 0.54943 0.0
C1361 C 0.82302 0.54931 0.49189 0.0
C1362 C 0.85055 0.53434 0.57346 0.0
C1363 C 0.87051 0.54297 0.53922 0.0
C1364 C 0.86622 0.5552 0.48155 0.0
C1365 C 0.84288 0.55821 0.45898 0.0
C1366 C 0.85366 0.52214 0.6364 0.0
C1367 C 0.88643 0.56445 0.44185 0.0
C1368 C 0.93248 0.55256 0.61347 0.0
C1369 C 0.94441 0.53166 0.59782 0.0
C1370 C 0.90841 0.55601 0.59747 0.0
C1371 C 0.89577 0.53868 0.56199 0.0
C1372 C 0.90785 0.5176 0.54581 0.0
C1373 C 0.93159 0.51417 0.56494 0.0
C1374 C 0.89644 0.57828 0.61885 0.0
C1375 C 0.89571 0.49852 0.50783 0.0
H1376 H 0.81246 0.5307 0.57635 0.0
H1377 H 0.84028 0.56706 0.41404 0.0
H1378 H 0.86622 0.50736 0.63195 0.0
H1379 H 0.86124 0.53481 0.67096 0.0
H1380 H 0.83676 0.51518 0.65572 0.0
H1381 H 0.88043 0.57671 0.40421 0.0
H1382 H 0.89963 0.57379 0.4716 0.0
H1383 H 0.89543 0.54936 0.41903 0.0
H1384 H 0.94187 0.56614 0.63965 0.0
H1385 H 0.94036 0.4979 0.55257 0.0
H1386 H 0.87999 0.57381 0.64485 0.0
H1387 H 0.89143 0.58898 0.57702 0.0
H1388 H 0.90788 0.58922 0.65008 0.0
H1389 H 0.88205 0.48978 0.53752 0.0
H1390 H 0.9082 0.48488 0.49117 0.0
H1391 H 0.88674 0.50622 0.46604 0.0
loop_
_geom_bond_atom_site_label_1
_geom_bond_atom_site_label_2
_geom_bond_distance
_geom_bond_site_symmetry_2
_ccdc_geom_bond_type
C0 C1 1.384 . S
C0 H13 0.947 . S
C0 C35 1.382 . S
C1 C0 1.384 . S
C1 C2 1.378 . S
C2 C1 1.378 . S
C2 C3 1.378 . S
C2 H14 0.952 . S
C3 C2 1.378 . S
C3 H15 0.950 . S
C3 C34 1.383 . S
H4 C23 0.947 . S
H5 C24 0.946 . S
H6 C26 0.953 . S
H7 C27 0.945 . S
H8 C29 0.952 . S
H9 C30 0.949 1_556 S
H10 C32 0.950 . S
H11 C33 0.948 . S
H12 C35 0.951 . S
H13 C0 0.947 . S
H14 C2 0.952 . S
H15 C3 0.950 . S
N16 C19 1.382 . S
N16 C21 1.363 . S
N17 C19 1.371 . S
N17 C20 1.372 . S
N18 C20 1.361 . S
N18 C21 1.377 . S
C19 N16 1.382 . S
C19 N17 1.371 . S
C19 C22 1.480 . S
C20 N17 1.372 . S
C20 N18 1.361 . S
C20 C28 1.457 . S
C21 N16 1.363 . S
C21 N18 1.377 . S
C21 C34 1.479 . S
C22 C19 1.480 . S
C22 C23 1.383 . S
C22 C27 1.385 . S
C23 H4 0.947 . S
C23 C22 1.383 . S
C23 C24 1.388 . S
C24 H5 0.946 . S
C24 C23 1.388 . S
C24 C25 1.384 . S
C25 C24 1.384 . S
C25 C26 1.377 . S
C26 H6 0.953 . S
C26 C25 1.377 . S
C26 C27 1.369 . S
C27 H7 0.945 . S
C27 C22 1.385 . S
C27 C26 1.369 . S
C28 C20 1.457 . S
C28 C29 1.372 . S
C28 C33 1.364 . S
C29 H8 0.952 . S
C29 C28 1.372 . S
C29 C30 1.389 . S
C30 H9 0.949 1_554 S
C30 C29 1.389 . S
C30 C31 1.387 . S
C31 C30 1.387 . S
C31 C32 1.372 . S
C32 H10 0.950 . S
C32 C31 1.372 . S
C32 C33 1.379 . S
C33 H11 0.948 . S
C33 C28 1.364 . S
C33 C32 1.379 . S
C34 C3 1.383 . S
C34 C21 1.479 . S
C34 C35 1.398 . S
C35 C0 1.382 . S
C35 H12 0.951 . S
C35 C34 1.398 . S
C36 C37 1.384 . S
C36 H49 0.947 . S
C36 C71 1.382 . S
C37 C36 1.384 . S
C37 C38 1.378 . S
C38 C37 1.378 . S
C38 C39 1.378 . S
C38 H50 0.952 . S
C39 C38 1.378 . S
C39 H51 0.950 . S
C39 C70 1.383 . S
H40 C59 0.947 . S
H41 C60 0.946 . S
H42 C62 0.953 . S
H43 C63 0.945 . S
H44 C65 0.952 . S
H45 C66 0.949 1_556 S
H46 C68 0.950 . S
H47 C69 0.948 . S
H48 C71 0.951 . S
H49 C36 0.947 . S
H50 C38 0.952 . S
H51 C39 0.950 . S
N52 C55 1.382 . S
N52 C57 1.363 . S
N53 C55 1.371 . S
N53 C56 1.372 . S
N54 C56 1.361 . S
N54 C57 1.377 . S
C55 N52 1.382 . S
C55 N53 1.371 . S
C55 C58 1.480 . S
C56 N53 1.372 . S
C56 N54 1.361 . S
C56 C64 1.457 . S
C57 N52 1.363 . S
C57 N54 1.377 . S
C57 C70 1.479 . S
C58 C55 1.480 . S
C58 C59 1.383 . S
C58 C63 1.385 . S
C59 H40 0.947 . S
C59 C58 1.383 . S
C59 C60 1.388 . S
C60 H41 0.946 . S
C60 C59 1.388 . S
C60 C61 1.384 . S
C61 C60 1.384 . S
C61 C62 1.377 . S
C62 H42 0.953 . S
C62 C61 1.377 . S
C62 C63 1.369 . S
C63 H43 0.945 . S
C63 C58 1.385 . S
C63 C62 1.369 . S
C64 C56 1.457 . S
C64 C65 1.372 . S
C64 C69 1.364 . S
C65 H44 0.952 . S
C65 C64 1.372 . S
C65 C66 1.389 . S
C66 H45 0.949 1_554 S
C66 C65 1.389 . S
C66 C67 1.387 . S
C67 C66 1.387 . S
C67 C68 1.372 . S
C68 H46 0.950 . S
C68 C67 1.372 . S
C68 C69 1.379 . S
C69 H47 0.948 . S
C69 C64 1.364 . S
C69 C68 1.379 . S
C70 C39 1.383 . S
C70 C57 1.479 . S
C70 C71 1.398 . S
C71 C36 1.382 . S
C71 H48 0.951 . S
C71 C70 1.398 . S
C72 C73 1.384 . S
C72 H85 0.947 . S
C72 C107 1.382 . S
C73 C72 1.384 . S
C73 C74 1.378 . S
C74 C73 1.378 . S
C74 C75 1.378 . S
C74 H86 0.952 . S
C75 C74 1.378 . S
C75 H87 0.950 . S
C75 C106 1.383 . S
H76 C95 0.947 . S
H77 C96 0.946 . S
H78 C98 0.953 . S
H79 C99 0.945 . S
H80 C101 0.952 . S
H81 C102 0.949 1_556 S
H82 C104 0.950 . S
H83 C105 0.948 . S
H84 C107 0.951 . S
H85 C72 0.947 . S
H86 C74 0.952 . S
H87 C75 0.950 . S
N88 C91 1.382 . S
N88 C93 1.363 . S
N89 C91 1.371 . S
N89 C92 1.372 . S
N90 C92 1.361 . S
N90 C93 1.377 . S
C91 N88 1.382 . S
C91 N89 1.371 . S
C91 C94 1.480 . S
C92 N89 1.372 . S
C92 N90 1.361 . S
C92 C100 1.457 . S
C93 N88 1.363 . S
C93 N90 1.377 . S
C93 C106 1.479 . S
C94 C91 1.480 . S
C94 C95 1.383 . S
C94 C99 1.385 . S
C95 H76 0.947 . S
C95 C94 1.383 . S
C95 C96 1.388 . S
C96 H77 0.946 . S
C96 C95 1.388 . S
C96 C97 1.384 . S
C97 C96 1.384 . S
C97 C98 1.377 . S
C98 H78 0.953 . S
C98 C97 1.377 . S
C98 C99 1.369 . S
C99 H79 0.945 . S
C99 C94 1.385 . S
C99 C98 1.369 . S
C100 C92 1.457 . S
C100 C101 1.372 . S
C100 C105 1.364 . S
C101 H80 0.952 . S
C101 C100 1.372 . S
C101 C102 1.389 . S
C102 H81 0.949 1_554 S
C102 C101 1.389 . S
C102 C103 1.387 . S
C103 C102 1.387 . S
C103 C104 1.372 . S
C104 H82 0.950 . S
C104 C103 1.372 . S
C104 C105 1.379 . S
C105 H83 0.948 . S
C105 C100 1.364 . S
C105 C104 1.379 . S
C106 C75 1.383 . S
C106 C93 1.479 . S
C106 C107 1.398 . S
C107 C72 1.382 . S
C107 H84 0.951 . S
C107 C106 1.398 . S
C108 C109 1.384 . S
C108 H121 0.947 . S
C108 C143 1.382 . S
C109 C108 1.384 . S
C109 C110 1.378 . S
C110 C109 1.378 . S
C110 C111 1.378 . S
C110 H122 0.952 1_554 S
C111 C110 1.378 . S
C111 H123 0.950 . S
C111 C142 1.383 . S
H112 C131 0.947 . S
H113 C132 0.946 . S
H114 C134 0.953 . S
H115 C135 0.945 . S
H116 C137 0.952 . S
H117 C138 0.949 . S
H118 C140 0.950 . S
H119 C141 0.948 . S
H120 C143 0.951 . S
H121 C108 0.947 . S
H122 C110 0.952 1_556 S
H123 C111 0.950 . S
N124 C127 1.382 . S
N124 C129 1.363 . S
N125 C127 1.371 . S
N125 C128 1.372 . S
N126 C128 1.361 . S
N126 C129 1.377 . S
C127 N124 1.382 . S
C127 N125 1.371 . S
C127 C130 1.480 . S
C128 N125 1.372 . S
C128 N126 1.361 . S
C128 C136 1.457 . S
C129 N124 1.363 . S
C129 N126 1.377 . S
C129 C142 1.479 . S
C130 C127 1.480 . S
C130 C131 1.383 . S
C130 C135 1.385 . S
C131 H112 0.947 . S
C131 C130 1.383 . S
C131 C132 1.388 . S
C132 H113 0.946 . S
C132 C131 1.388 . S
C132 C133 1.384 . S
C133 C132 1.384 . S
C133 C134 1.377 . S
C134 H114 0.953 . S
C134 C133 1.377 . S
C134 C135 1.369 . S
C135 H115 0.945 . S
C135 C130 1.385 . S
C135 C134 1.369 . S
C136 C128 1.457 . S
C136 C137 1.372 . S
C136 C141 1.364 . S
C137 H116 0.952 . S
C137 C136 1.372 . S
C137 C138 1.389 . S
C138 H117 0.949 . S
C138 C137 1.389 . S
C138 C139 1.387 . S
C139 C138 1.387 . S
C139 C140 1.372 . S
C140 H118 0.950 . S
C140 C139 1.372 . S
C140 C141 1.379 . S
C141 H119 0.948 . S
C141 C136 1.364 . S
C141 C140 1.379 . S
C142 C111 1.383 . S
C142 C129 1.479 . S
C142 C143 1.398 . S
C143 C108 1.382 . S
C143 H120 0.951 . S
C143 C142 1.398 . S
C144 C145 1.384 . S
C144 H157 0.947 . S
C144 C179 1.382 . S
C145 C144 1.384 . S
C145 C146 1.378 . S
C146 C145 1.378 . S
C146 C147 1.378 . S
C146 H158 0.952 . S
C147 C146 1.378 . S
C147 H159 0.950 . S
C147 C178 1.383 . S
H148 C167 0.947 1_556 S
H149 C168 0.946 . S
H150 C170 0.953 . S
H151 C171 0.945 . S
H152 C173 0.952 . S
H153 C174 0.949 . S
H154 C176 0.950 . S
H155 C177 0.948 . S
H156 C179 0.951 . S
H157 C144 0.947 . S
H158 C146 0.952 . S
H159 C147 0.950 . S
N160 C163 1.382 1_556 S
N160 C165 1.363 . S
N161 C163 1.371 . S
N161 C164 1.372 . S
N162 C164 1.361 . S
N162 C165 1.377 1_554 S
C163 N160 1.382 1_554 S
C163 N161 1.371 . S
C163 C166 1.480 . S
C164 N161 1.372 . S
C164 N162 1.361 . S
C164 C172 1.457 . S
C165 N160 1.363 . S
C165 N162 1.377 1_556 S
C165 C178 1.479 . S
C166 C163 1.480 . S
C166 C167 1.383 . S
C166 C171 1.385 . S
C167 H148 0.947 1_554 S
C167 C166 1.383 . S
C167 C168 1.388 . S
C168 H149 0.946 . S
C168 C167 1.388 . S
C168 C169 1.384 . S
C169 C168 1.384 . S
C169 C170 1.377 . S
C170 H150 0.953 . S
C170 C169 1.377 . S
C170 C171 1.369 . S
C171 H151 0.945 . S
C171 C166 1.385 . S
C171 C170 1.369 . S
C172 C164 1.457 . S
C172 C173 1.372 . S
C172 C177 1.364 . S
C173 H152 0.952 . S
C173 C172 1.372 . S
C173 C174 1.389 . S
C174 H153 0.949 . S
C174 C173 1.389 . S
C174 C175 1.387 . S
C175 C174 1.387 . S
C175 C176 1.372 . S
C176 H154 0.950 . S
C176 C175 1.372 . S
C176 C177 1.379 . S
C177 H155 0.948 . S
C177 C172 1.364 . S
C177 C176 1.379 . S
C178 C147 1.383 . S
C178 C165 1.479 . S
C178 C179 1.398 . S
C179 C144 1.382 . S
C179 H156 0.951 . S
C179 C178 1.398 . S
C180 C181 1.384 . S
C180 H193 0.947 . S
C180 C215 1.382 . S
C181 C180 1.384 . S
C181 C182 1.378 . S
C182 C181 1.378 . S
C182 C183 1.378 . S
C182 H194 0.952 . S
C183 C182 1.378 . S
C183 H195 0.950 . S
C183 C214 1.383 . S
H184 C203 0.947 1_556 S
H185 C204 0.946 . S
H186 C206 0.953 . S
H187 C207 0.945 . S
H188 C209 0.952 . S
H189 C210 0.949 . S
H190 C212 0.950 . S
H191 C213 0.948 . S
H192 C215 0.951 . S
H193 C180 0.947 . S
H194 C182 0.952 . S
H195 C183 0.950 . S
N196 C199 1.382 1_556 S
N196 C201 1.363 . S
N197 C199 1.371 . S
N197 C200 1.372 . S
N198 C200 1.361 . S
N198 C201 1.377 1_554 S
C199 N196 1.382 1_554 S
C199 N197 1.371 . S
C199 C202 1.480 . S
C200 N197 1.372 . S
C200 N198 1.361 . S
C200 C208 1.457 . S
C201 N196 1.363 . S
C201 N198 1.377 1_556 S
C201 C214 1.479 . S
C202 C199 1.480 . S
C202 C203 1.383 . S
C202 C207 1.385 . S
C203 H184 0.947 1_554 S
C203 C202 1.383 . S
C203 C204 1.388 . S
C204 H185 0.946 . S
C204 C203 1.388 . S
C204 C205 1.384 . S
C205 C204 1.384 . S
C205 C206 1.377 . S
C206 H186 0.953 . S
C206 C205 1.377 . S
C206 C207 1.369 . S
C207 H187 0.945 . S
C207 C202 1.385 . S
C207 C206 1.369 . S
C208 C200 1.457 . S
C208 C209 1.372 . S
C208 C213 1.364 . S
C209 H188 0.952 . S
C209 C208 1.372 . S
C209 C210 1.389 . S
C210 H189 0.949 . S
C210 C209 1.389 . S
C210 C211 1.387 . S
C211 C210 1.387 . S
C211 C212 1.372 . S
C212 H190 0.950 . S
C212 C211 1.372 . S
C212 C213 1.379 . S
C213 H191 0.948 . S
C213 C208 1.364 . S
C213 C212 1.379 . S
C214 C183 1.383 . S
C214 C201 1.479 . S
C214 C215 1.398 . S
C215 C180 1.382 . S
C215 H192 0.951 . S
C215 C214 1.398 . S
C216 C217 1.384 . S
C216 H229 0.947 . S
C216 C251 1.382 . S
C217 C216 1.384 . S
C217 C218 1.378 . S
C218 C217 1.378 . S
C218 C219 1.378 . S
C218 H230 0.952 . S
C219 C218 1.378 . S
C219 H231 0.950 . S
C219 C250 1.383 . S
H220 C239 0.947 1_556 S
H221 C240 0.946 . S
H222 C242 0.953 . S
H223 C243 0.945 . S
H224 C245 0.952 . S
H225 C246 0.949 . S
H226 C248 0.950 . S
H227 C249 0.948 . S
H228 C251 0.951 . S
H229 C216 0.947 . S
H230 C218 0.952 . S
H231 C219 0.950 . S
N232 C235 1.382 1_556 S
N232 C237 1.363 . S
N233 C235 1.371 . S
N233 C236 1.372 . S
N234 C236 1.361 . S
N234 C237 1.377 1_554 S
C235 N232 1.382 1_554 S
C235 N233 1.371 . S
C235 C238 1.480 . S
C236 N233 1.372 . S
C236 N234 1.361 . S
C236 C244 1.457 . S
C237 N232 1.363 . S
C237 N234 1.377 1_556 S
C237 C250 1.479 . S
C238 C235 1.480 . S
C238 C239 1.383 . S
C238 C243 1.385 . S
C239 H220 0.947 1_554 S
C239 C238 1.383 . S
C239 C240 1.388 . S
C240 H221 0.946 . S
C240 C239 1.388 . S
C240 C241 1.384 . S
C241 C240 1.384 . S
C241 C242 1.377 . S
C242 H222 0.953 . S
C242 C241 1.377 . S
C242 C243 1.369 . S
C243 H223 0.945 . S
C243 C238 1.385 . S
C243 C242 1.369 . S
C244 C236 1.457 . S
C244 C245 1.372 . S
C244 C249 1.364 . S
C245 H224 0.952 . S
C245 C244 1.372 . S
C245 C246 1.389 . S
C246 H225 0.949 . S
C246 C245 1.389 . S
C246 C247 1.387 . S
C247 C246 1.387 . S
C247 C248 1.372 . S
C248 H226 0.950 . S
C248 C247 1.372 . S
C248 C249 1.379 . S
C249 H227 0.948 . S
C249 C244 1.364 . S
C249 C248 1.379 . S
C250 C219 1.383 . S
C250 C237 1.479 . S
C250 C251 1.398 . S
C251 C216 1.382 . S
C251 H228 0.951 . S
C251 C250 1.398 . S
C252 C253 1.384 . S
C252 H265 0.947 . S
C252 C287 1.382 . S
C253 C252 1.384 . S
C253 C254 1.378 . S
C254 C253 1.378 . S
C254 C255 1.378 . S
C254 H266 0.952 . S
C255 C254 1.378 . S
C255 H267 0.950 . S
C255 C286 1.383 . S
H256 C275 0.947 . S
H257 C276 0.946 . S
H258 C278 0.953 . S
H259 C279 0.945 1_556 S
H260 C281 0.952 . S
H261 C282 0.949 . S
H262 C284 0.950 . S
H263 C285 0.948 . S
H264 C287 0.951 . S
H265 C252 0.947 . S
H266 C254 0.952 . S
H267 C255 0.950 . S
N268 C271 1.382 . S
N268 C273 1.363 . S
N269 C271 1.371 1_556 S
N269 C272 1.372 . S
N270 C272 1.361 1_554 S
N270 C273 1.377 . S
C271 N268 1.382 . S
C271 N269 1.371 1_554 S
C271 C274 1.480 . S
C272 N269 1.372 . S
C272 N270 1.361 1_556 S
C272 C280 1.457 . S
C273 N268 1.363 . S
C273 N270 1.377 . S
C273 C286 1.479 . S
C274 C271 1.480 . S
C274 C275 1.383 . S
C274 C279 1.385 . S
C275 H256 0.947 . S
C275 C274 1.383 . S
C275 C276 1.388 . S
C276 H257 0.946 . S
C276 C275 1.388 . S
C276 C277 1.384 . S
C277 C276 1.384 . S
C277 C278 1.377 . S
C278 H258 0.953 . S
C278 C277 1.377 . S
C278 C279 1.369 . S
C279 H259 0.945 1_554 S
C279 C274 1.385 . S
C279 C278 1.369 . S
C280 C272 1.457 . S
C280 C281 1.372 . S
C280 C285 1.364 . S
C281 H260 0.952 . S
C281 C280 1.372 . S
C281 C282 1.389 . S
C282 H261 0.949 . S
C282 C281 1.389 . S
C282 C283 1.387 . S
C283 C282 1.387 . S
C283 C284 1.372 . S
C284 H262 0.950 . S
C284 C283 1.372 . S
C284 C285 1.379 . S
C285 H263 0.948 . S
C285 C280 1.364 . S
C285 C284 1.379 . S
C286 C255 1.383 . S
C286 C273 1.479 . S
C286 C287 1.398 . S
C287 C252 1.382 . S
C287 H264 0.951 . S
C287 C286 1.398 . S
C288 C290 1.422 . S
C288 C292 1.415 . S
C288 N294 1.369 . S
C289 C290 1.421 . S
C289 C291 1.417 . S
C289 C301 1.422 . S
C290 C288 1.422 . S
C290 C289 1.421 . S
C290 N300 1.359 . S
C291 C289 1.417 . S
C291 C293 1.329 . S
C291 H310 0.930 . S
C292 C288 1.415 . S
C292 C293 1.437 . S
C292 C296 1.413 . S
C293 C291 1.329 . S
C293 C292 1.437 . S
C293 H315 0.929 . S
N294 C288 1.369 . S
N294 C295 1.339 . S
N294 Gd299 2.622 1_545 S
C295 N294 1.339 . S
C295 C297 1.382 . S
C295 H307 0.923 1_545 S
C296 C292 1.413 . S
C296 C297 1.348 . S
C296 H312 0.931 . S
C297 C295 1.382 . S
C297 C296 1.348 . S
C297 H313 0.930 . S
Gd298 N318 2.622 . S
Gd298 N325 2.570 . S
Gd298 O332 2.353 1_655 S
Gd298 O333 2.468 . S
Gd298 O334 2.427 . S
Gd298 O336 2.388 . S
Gd298 O337 2.386 1_545 S
Gd298 O341 2.307 1_655 S
Gd298 C351 2.805 . S
Gd299 N294 2.622 1_565 S
Gd299 N300 2.570 1_565 S
Gd299 O331 2.386 1_565 S
Gd299 O335 2.307 1_465 S
Gd299 O338 2.353 . S
Gd299 O339 2.468 . S
Gd299 O340 2.427 . S
Gd299 O342 2.388 . S
Gd299 C363 2.805 . S
N300 C290 1.359 . S
N300 Gd299 2.570 1_545 S
N300 C302 1.343 . S
C301 C289 1.422 . S
C301 C303 1.321 . S
C301 H309 0.931 . S
C302 N300 1.343 . S
C302 C303 1.390 . S
C302 H304 0.902 1_455 S
C303 C301 1.321 . S
C303 C302 1.390 . S
C303 H305 0.930 . S
H304 C302 0.902 1_655 S
H305 C303 0.930 . S
H306 C329 0.931 1_455 S
H307 C295 0.923 1_565 S
H308 C330 0.930 1_455 S
H309 C301 0.931 . S
H310 C291 0.930 . S
H311 C320 0.929 . S
H312 C296 0.931 . S
H313 C297 0.930 . S
H314 C352 0.930 . S
H315 C293 0.929 . S
H316 C321 0.945 . S
H317 C322 0.930 . S
N318 Gd298 2.622 . S
N318 C319 1.369 . S
N318 C320 1.338 . S
C319 N318 1.369 . S
C319 C323 1.415 1_545 S
C319 C326 1.422 . S
C320 H311 0.929 . S
C320 N318 1.338 . S
C320 C322 1.378 . S
C321 H316 0.945 . S
C321 C322 1.331 1_565 S
C321 C323 1.416 . S
C322 H317 0.930 . S
C322 C320 1.378 . S
C322 C321 1.331 1_545 S
C323 C319 1.415 1_565 S
C323 C321 1.416 . S
C323 C353 1.437 . S
H324 C353 0.929 . S
N325 Gd298 2.570 . S
N325 C326 1.359 . S
N325 C329 1.343 . S
C326 C319 1.422 . S
C326 N325 1.359 . S
C326 C328 1.421 1_545 S
C327 C328 1.422 . S
C327 C330 1.321 . S
C327 H354 0.931 . S
C328 C326 1.421 1_565 S
C328 C327 1.422 . S
C328 C352 1.417 . S
C329 H306 0.931 1_655 S
C329 N325 1.343 . S
C329 C330 1.390 1_545 S
C330 H308 0.930 1_655 S
C330 C327 1.321 . S
C330 C329 1.390 1_565 S
O331 Gd299 2.386 1_545 S
O331 C343 1.265 . S
O332 Gd298 2.353 1_455 S
O332 C343 1.242 . S
O333 Gd298 2.468 . S
O333 C351 1.263 . S
O334 Gd298 2.427 . S
O334 C351 1.252 . S
O335 Gd299 2.307 1_645 S
O335 C344 1.261 . S
O336 Gd298 2.388 . S
O336 C344 1.252 . S
O337 Gd298 2.386 1_565 S
O337 C355 1.265 . S
O338 Gd299 2.353 . S
O338 C355 1.242 1_455 S
O339 Gd299 2.468 . S
O339 C363 1.263 . S
O340 Gd299 2.427 . S
O340 C363 1.252 . S
O341 Gd298 2.307 1_455 S
O341 C356 1.261 . S
O342 Gd299 2.388 . S
O342 C356 1.252 1_565 S
C343 O331 1.265 . S
C343 O332 1.242 . S
C344 O335 1.261 . S
C344 O336 1.252 . S
C345 C348 1.394 . S
C345 C350 1.370 . S
C345 C351 1.500 . S
C346 C349 1.383 . S
C346 C350 1.395 . S
C347 C348 1.396 . S
C347 C349 1.365 . S
C347 H364 0.929 . S
C348 C345 1.394 . S
C348 C347 1.396 . S
C348 H365 0.930 . S
C349 C346 1.383 . S
C349 C347 1.365 . S
C349 H366 0.931 . S
C350 C345 1.370 . S
C350 C346 1.395 . S
C350 H367 0.930 1_655 S
C351 Gd298 2.805 . S
C351 O333 1.263 . S
C351 O334 1.252 . S
C351 C345 1.500 . S
C352 H314 0.930 . S
C352 C328 1.417 . S
C352 C353 1.329 . S
C353 C323 1.437 . S
C353 H324 0.929 . S
C353 C352 1.329 . S
H354 C327 0.931 . S
C355 O337 1.265 . S
C355 O338 1.242 1_655 S
C356 O341 1.261 . S
C356 O342 1.252 1_545 S
C357 C360 1.394 . S
C357 C362 1.370 . S
C357 C363 1.500 . S
C358 C361 1.383 . S
C358 C362 1.395 . S
C359 C360 1.396 . S
C359 C361 1.365 . S
C359 H368 0.929 . S
C360 C357 1.394 . S
C360 C359 1.396 . S
C360 H369 0.930 . S
C361 C358 1.383 . S
C361 C359 1.365 . S
C361 H370 0.931 . S
C362 C357 1.370 . S
C362 C358 1.395 . S
C362 H371 0.930 . S
C363 Gd299 2.805 . S
C363 O339 1.263 . S
C363 O340 1.252 . S
C363 C357 1.500 . S
H364 C347 0.929 . S
H365 C348 0.930 . S
H366 C349 0.931 . S
H367 C350 0.930 1_455 S
H368 C359 0.929 . S
H369 C360 0.930 . S
H370 C361 0.931 . S
H371 C362 0.930 . S
C372 C374 1.422 . S
C372 C376 1.415 . S
C372 N378 1.369 . S
C373 C374 1.421 . S
C373 C375 1.417 . S
C373 C385 1.422 . S
C374 C372 1.422 . S
C374 C373 1.421 . S
C374 N384 1.359 . S
C375 C373 1.417 . S
C375 C377 1.329 . S
C375 H394 0.930 . S
C376 C372 1.415 . S
C376 C377 1.437 . S
C376 C380 1.413 . S
C377 C375 1.329 . S
C377 C376 1.437 . S
C377 H399 0.929 . S
N378 C372 1.369 . S
N378 C379 1.338 . S
N378 Gd383 2.622 . S
C379 N378 1.338 . S
C379 C381 1.378 . S
C379 H391 0.929 . S
C380 C376 1.413 . S
C380 C381 1.348 . S
C380 H396 0.931 . S
C381 C379 1.378 . S
C381 C380 1.348 . S
C381 H397 0.930 . S
Gd382 N402 2.622 . S
Gd382 N409 2.570 . S
Gd382 O416 2.353 1_545 S
Gd382 O417 2.468 . S
Gd382 O418 2.427 . S
Gd382 O420 2.388 . S
Gd382 O421 2.386 . S
Gd382 O425 2.307 . S
Gd382 C435 2.805 . S
Gd383 N378 2.622 . S
Gd383 N384 2.570 . S
Gd383 O415 2.386 . S
Gd383 O419 2.307 1_565 S
Gd383 O422 2.353 1_565 S
Gd383 O423 2.468 . S
Gd383 O424 2.427 . S
Gd383 O426 2.388 . S
Gd383 C447 2.805 . S
N384 C374 1.359 . S
N384 Gd383 2.570 . S
N384 C386 1.343 . S
C385 C373 1.422 . S
C385 C387 1.321 . S
C385 H393 0.931 . S
C386 N384 1.343 . S
C386 C387 1.390 . S
C386 H388 0.931 . S
C387 C385 1.321 . S
C387 C386 1.390 . S
C387 H389 0.930 . S
H388 C386 0.931 . S
H389 C387 0.930 . S
H390 C413 0.931 . S
H391 C379 0.929 . S
H392 C414 0.930 . S
H393 C385 0.931 . S
H394 C375 0.930 . S
H395 C404 0.929 . S
H396 C380 0.931 . S
H397 C381 0.930 . S
H398 C436 0.930 . S
H399 C377 0.929 . S
H400 C405 0.931 . S
H401 C406 0.930 . S
N402 Gd382 2.622 . S
N402 C403 1.369 . S
N402 C404 1.338 . S
C403 N402 1.369 . S
C403 C407 1.415 . S
C403 C410 1.422 . S
C404 H395 0.929 . S
C404 N402 1.338 . S
C404 C406 1.378 . S
C405 H400 0.931 . S
C405 C406 1.348 . S
C405 C407 1.413 . S
C406 H401 0.930 . S
C406 C404 1.378 . S
C406 C405 1.348 . S
C407 C403 1.415 . S
C407 C405 1.413 . S
C407 C437 1.437 . S
H408 C437 0.929 . S
N409 Gd382 2.570 . S
N409 C410 1.359 . S
N409 C413 1.343 . S
C410 C403 1.422 . S
C410 N409 1.359 . S
C410 C412 1.421 . S
C411 C412 1.422 . S
C411 C414 1.321 . S
C411 H438 0.931 . S
C412 C410 1.421 . S
C412 C411 1.422 . S
C412 C436 1.417 . S
C413 H390 0.931 . S
C413 N409 1.343 . S
C413 C414 1.390 . S
C414 H392 0.930 . S
C414 C411 1.321 . S
C414 C413 1.390 . S
O415 Gd383 2.386 . S
O415 C427 1.265 . S
O416 Gd382 2.353 1_565 S
O416 C427 1.242 . S
O417 Gd382 2.468 . S
O417 C435 1.263 . S
O418 Gd382 2.427 . S
O418 C435 1.252 . S
O419 Gd383 2.307 1_545 S
O419 C428 1.261 . S
O420 Gd382 2.388 . S
O420 C428 1.252 . S
O421 Gd382 2.386 . S
O421 C439 1.265 . S
O422 Gd383 2.353 1_545 S
O422 C439 1.242 . S
O423 Gd383 2.468 . S
O423 C447 1.263 . S
O424 Gd383 2.427 . S
O424 C447 1.252 . S
O425 Gd382 2.307 . S
O425 C440 1.252 1_545 S
O426 Gd383 2.388 . S
O426 C440 1.258 . S
C427 O415 1.265 . S
C427 O416 1.242 . S
C428 O419 1.261 . S
C428 O420 1.252 . S
C429 C432 1.394 . S
C429 C434 1.370 . S
C429 C435 1.500 . S
C430 C433 1.383 . S
C430 C434 1.395 . S
C431 C432 1.396 . S
C431 C433 1.365 . S
C431 H448 0.929 . S
C432 C429 1.394 . S
C432 C431 1.396 . S
C432 H449 0.930 . S
C433 C430 1.383 . S
C433 C431 1.365 . S
C433 H450 0.931 . S
C434 C429 1.370 . S
C434 C430 1.395 . S
C434 H451 0.930 . S
C435 Gd382 2.805 . S
C435 O417 1.263 . S
C435 O418 1.252 . S
C435 C429 1.500 . S
C436 H398 0.930 . S
C436 C412 1.417 . S
C436 C437 1.329 . S
C437 C407 1.437 . S
C437 H408 0.929 . S
C437 C436 1.329 . S
H438 C411 0.931 . S
C439 O421 1.265 . S
C439 O422 1.242 . S
C440 O425 1.252 1_565 S
C440 O426 1.258 . S
C441 C444 1.394 . S
C441 C446 1.370 1_565 S
C441 C447 1.500 . S
C442 C445 1.383 1_545 S
C442 C446 1.395 . S
C443 C444 1.396 . S
C443 C445 1.365 . S
C443 H452 0.929 . S
C444 C441 1.394 . S
C444 C443 1.396 . S
C444 H453 0.930 . S
C445 C442 1.383 1_565 S
C445 C443 1.365 . S
C445 H454 0.931 . S
C446 C441 1.370 1_545 S
C446 C442 1.395 . S
C446 H455 0.930 . S
C447 Gd383 2.805 . S
C447 O423 1.263 . S
C447 O424 1.252 . S
C447 C441 1.500 . S
H448 C431 0.929 . S
H449 C432 0.930 . S
H450 C433 0.931 . S
H451 C434 0.930 . S
H452 C443 0.929 . S
H453 C444 0.930 . S
H454 C445 0.931 . S
H455 C446 0.930 . S
C456 C458 1.422 . S
C456 C460 1.415 . S
C456 N462 1.369 . S
C457 C458 1.421 . S
C457 C459 1.417 . S
C457 C469 1.422 . S
C458 C456 1.422 . S
C458 C457 1.421 . S
C458 N468 1.359 . S
C459 C457 1.417 . S
C459 C461 1.329 . S
C459 H478 0.930 . S
C460 C456 1.415 . S
C460 C461 1.437 . S
C460 C464 1.413 . S
C461 C459 1.329 . S
C461 C460 1.437 . S
C461 H483 0.929 . S
N462 C456 1.369 . S
N462 C463 1.338 . S
N462 Gd467 2.622 . S
C463 N462 1.338 . S
C463 C465 1.378 . S
C463 H475 0.929 . S
C464 C460 1.413 . S
C464 C465 1.348 . S
C464 H480 0.931 . S
C465 C463 1.378 . S
C465 C464 1.348 . S
C465 H481 0.930 . S
Gd466 N486 2.622 . S
Gd466 N493 2.570 . S
Gd466 O500 2.353 . S
Gd466 O501 2.468 . S
Gd466 O502 2.427 . S
Gd466 O504 2.388 . S
Gd466 O505 2.386 . S
Gd466 O509 2.307 . S
Gd466 C519 2.805 . S
Gd467 N462 2.622 . S
Gd467 N468 2.570 . S
Gd467 O499 2.386 . S
Gd467 O503 2.307 . S
Gd467 O506 2.353 . S
Gd467 O507 2.468 . S
Gd467 O508 2.427 . S
Gd467 O510 2.388 . S
Gd467 C531 2.805 . S
N468 C458 1.359 . S
N468 Gd467 2.570 . S
N468 C470 1.343 . S
C469 C457 1.422 . S
C469 C471 1.321 . S
C469 H477 0.931 . S
C470 N468 1.343 . S
C470 C471 1.390 . S
C470 H472 0.931 . S
C471 C469 1.321 . S
C471 C470 1.390 . S
C471 H473 0.930 . S
H472 C470 0.931 . S
H473 C471 0.930 . S
H474 C497 0.931 . S
H475 C463 0.929 . S
H476 C498 0.930 . S
H477 C469 0.931 . S
H478 C459 0.930 . S
H479 C488 0.929 . S
H480 C464 0.931 . S
H481 C465 0.930 . S
H482 C520 0.930 . S
H483 C461 0.929 . S
H484 C489 0.931 . S
H485 C490 0.930 . S
N486 Gd466 2.622 . S
N486 C487 1.369 . S
N486 C488 1.338 . S
C487 N486 1.369 . S
C487 C491 1.415 . S
C487 C494 1.422 . S
C488 H479 0.929 . S
C488 N486 1.338 . S
C488 C490 1.378 . S
C489 H484 0.931 . S
C489 C490 1.348 . S
C489 C491 1.413 . S
C490 H485 0.930 . S
C490 C488 1.378 . S
C490 C489 1.348 . S
C491 C487 1.415 . S
C491 C489 1.413 . S
C491 C521 1.437 . S
H492 C521 0.929 . S
N493 Gd466 2.570 . S
N493 C494 1.359 . S
N493 C497 1.343 . S
C494 C487 1.422 . S
C494 N493 1.359 . S
C494 C496 1.421 . S
C495 C496 1.422 . S
C495 C498 1.321 . S
C495 H522 0.931 . S
C496 C494 1.421 . S
C496 C495 1.422 . S
C496 C520 1.417 . S
C497 H474 0.931 . S
C497 N493 1.343 . S
C497 C498 1.390 . S
C498 H476 0.930 . S
C498 C495 1.321 . S
C498 C497 1.390 . S
O499 Gd467 2.386 . S
O499 C511 1.265 . S
O500 Gd466 2.353 . S
O500 C511 1.242 . S
O501 Gd466 2.468 . S
O501 C519 1.263 . S
O502 Gd466 2.427 . S
O502 C519 1.252 . S
O503 Gd467 2.307 . S
O503 C512 1.261 . S
O504 Gd466 2.388 . S
O504 C512 1.252 . S
O505 Gd466 2.386 . S
O505 C523 1.265 . S
O506 Gd467 2.353 . S
O506 C523 1.242 . S
O507 Gd467 2.468 . S
O507 C531 1.263 . S
O508 Gd467 2.427 . S
O508 C531 1.252 . S
O509 Gd466 2.307 . S
O509 C524 1.261 . S
O510 Gd467 2.388 . S
O510 C524 1.252 . S
C511 O499 1.265 . S
C511 O500 1.242 . S
C512 O503 1.261 . S
C512 O504 1.252 . S
C513 C516 1.394 . S
C513 C518 1.370 . S
C513 C519 1.500 . S
C514 C517 1.383 . S
C514 C518 1.395 . S
C515 C516 1.396 . S
C515 C517 1.365 . S
C515 H532 0.929 . S
C516 C513 1.394 . S
C516 C515 1.396 . S
C516 H533 0.930 . S
C517 C514 1.383 . S
C517 C515 1.365 . S
C517 H534 0.931 . S
C518 C513 1.370 . S
C518 C514 1.395 . S
C518 H535 0.930 . S
C519 Gd466 2.805 . S
C519 O501 1.263 . S
C519 O502 1.252 . S
C519 C513 1.500 . S
C520 H482 0.930 . S
C520 C496 1.417 . S
C520 C521 1.329 . S
C521 C491 1.437 . S
C521 H492 0.929 . S
C521 C520 1.329 . S
H522 C495 0.931 . S
C523 O505 1.265 . S
C523 O506 1.242 . S
C524 O509 1.261 . S
C524 O510 1.252 . S
C525 C528 1.394 . S
C525 C530 1.370 . S
C525 C531 1.500 . S
C526 C529 1.383 . S
C526 C530 1.395 . S
C527 C528 1.396 . S
C527 C529 1.365 . S
C527 H536 0.929 . S
C528 C525 1.394 . S
C528 C527 1.396 . S
C528 H537 0.930 . S
C529 C526 1.383 . S
C529 C527 1.365 . S
C529 H538 0.931 . S
C530 C525 1.370 . S
C530 C526 1.395 . S
C530 H539 0.930 . S
C531 Gd467 2.805 . S
C531 O507 1.263 . S
C531 O508 1.252 . S
C531 C525 1.500 . S
H532 C515 0.929 . S
H533 C516 0.930 . S
H534 C517 0.931 . S
H535 C518 0.930 . S
H536 C527 0.929 . S
H537 C528 0.930 . S
H538 C529 0.931 . S
H539 C530 0.930 . S
C540 C542 1.422 . S
C540 C544 1.415 . S
C540 N546 1.369 1_455 S
C541 C542 1.421 . S
C541 C543 1.417 . S
C541 C553 1.422 . S
C542 C540 1.422 . S
C542 C541 1.421 . S
C542 N552 1.359 . S
C543 C541 1.417 . S
C543 C545 1.329 . S
C543 H562 0.930 . S
C544 C540 1.415 . S
C544 C545 1.437 . S
C544 C548 1.413 . S
C545 C543 1.329 . S
C545 C544 1.437 . S
C545 H567 0.929 . S
N546 C540 1.369 1_655 S
N546 C547 1.338 . S
N546 Gd551 2.622 . S
C547 N546 1.338 . S
C547 C549 1.378 1_655 S
C547 H559 0.929 . S
C548 C544 1.413 . S
C548 C549 1.348 . S
C548 H564 0.931 . S
C549 C547 1.378 1_455 S
C549 C548 1.348 . S
C549 H565 0.928 1_455 S
Gd550 N570 2.622 . S
Gd550 N577 2.570 . S
Gd550 O584 2.353 . S
Gd550 O585 2.468 . S
Gd550 O586 2.427 . S
Gd550 O588 2.388 . S
Gd550 O589 2.386 1_455 S
Gd550 O593 2.307 . S
Gd550 C603 2.805 . S
Gd551 N546 2.622 . S
Gd551 N552 2.570 1_655 S
Gd551 O583 2.386 1_655 S
Gd551 O587 2.320 . S
Gd551 O590 2.353 . S
Gd551 O591 2.468 . S
Gd551 O592 2.427 . S
Gd551 O594 2.388 . S
Gd551 C615 2.805 . S
N552 C542 1.359 . S
N552 Gd551 2.570 1_455 S
N552 C554 1.343 . S
C553 C541 1.422 . S
C553 C555 1.321 . S
C553 H561 0.931 . S
C554 N552 1.343 . S
C554 C555 1.390 . S
C554 H556 0.931 1_455 S
C555 C553 1.321 . S
C555 C554 1.390 . S
C555 H557 0.930 . S
H556 C554 0.931 1_655 S
H557 C555 0.930 . S
H558 C581 0.931 . S
H559 C547 0.929 . S
H560 C582 0.930 . S
H561 C553 0.931 . S
H562 C543 0.930 . S
H563 C572 0.929 . S
H564 C548 0.931 . S
H565 C549 0.928 1_655 S
H566 C604 0.930 . S
H567 C545 0.929 . S
H568 C573 0.931 . S
H569 C574 0.930 . S
N570 Gd550 2.622 . S
N570 C571 1.369 . S
N570 C572 1.338 . S
C571 N570 1.369 . S
C571 C575 1.415 1_455 S
C571 C578 1.426 . S
C572 H563 0.929 . S
C572 N570 1.338 . S
C572 C574 1.378 . S
C573 H568 0.931 . S
C573 C574 1.348 1_655 S
C573 C575 1.413 . S
C574 H569 0.930 . S
C574 C572 1.378 . S
C574 C573 1.348 1_455 S
C575 C571 1.415 1_655 S
C575 C573 1.413 . S
C575 C605 1.437 . S
H576 C605 0.929 . S
N577 Gd550 2.570 . S
N577 C578 1.371 . S
N577 C581 1.343 . S
C578 C571 1.426 . S
C578 N577 1.371 . S
C578 C580 1.406 1_455 S
C579 C580 1.422 . S
C579 C582 1.321 . S
C579 H606 0.931 . S
C580 C578 1.406 1_655 S
C580 C579 1.422 . S
C580 C604 1.417 . S
C581 H558 0.931 . S
C581 N577 1.343 . S
C581 C582 1.390 1_455 S
C582 H560 0.930 . S
C582 C579 1.321 . S
C582 C581 1.390 1_655 S
O583 Gd551 2.386 1_455 S
O583 C595 1.265 . S
O584 Gd550 2.353 . S
O584 C595 1.242 . S
O585 Gd550 2.468 . S
O585 C603 1.263 . S
O586 Gd550 2.427 . S
O586 C603 1.252 . S
O587 Gd551 2.320 . S
O587 C596 1.252 1_655 S
O588 Gd550 2.388 . S
O588 C596 1.252 . S
O589 Gd550 2.386 1_655 S
O589 C607 1.265 . S
O590 Gd551 2.353 . S
O590 C607 1.242 . S
O591 Gd551 2.468 . S
O591 C615 1.263 . S
O592 Gd551 2.427 . S
O592 C615 1.252 . S
O593 Gd550 2.307 . S
O593 C608 1.261 . S
O594 Gd551 2.388 . S
O594 C608 1.252 1_655 S
C595 O583 1.265 . S
C595 O584 1.242 . S
C596 O587 1.252 1_455 S
C596 O588 1.252 . S
C597 C600 1.394 . S
C597 C602 1.370 . S
C597 C603 1.500 . S
C598 C601 1.383 . S
C598 C602 1.395 . S
C599 C600 1.396 . S
C599 C601 1.365 . S
C599 H616 0.929 . S
C600 C597 1.394 . S
C600 C599 1.396 . S
C600 H617 0.930 . S
C601 C598 1.383 . S
C601 C599 1.365 . S
C601 H618 0.931 . S
C602 C597 1.370 . S
C602 C598 1.395 . S
C602 H619 0.930 . S
C603 Gd550 2.805 . S
C603 O585 1.263 . S
C603 O586 1.252 . S
C603 C597 1.500 . S
C604 H566 0.930 . S
C604 C580 1.417 . S
C604 C605 1.329 . S
C605 C575 1.437 . S
C605 H576 0.929 . S
C605 C604 1.329 . S
H606 C579 0.931 . S
C607 O589 1.265 . S
C607 O590 1.242 . S
C608 O593 1.261 . S
C608 O594 1.252 1_455 S
C609 C612 1.394 . S
C609 C614 1.370 . S
C609 C615 1.500 . S
C610 C613 1.383 . S
C610 C614 1.395 . S
C611 C612 1.396 . S
C611 C613 1.365 . S
C611 H620 0.929 . S
C612 C609 1.394 . S
C612 C611 1.396 . S
C612 H621 0.930 . S
C613 C610 1.383 . S
C613 C611 1.365 . S
C613 H622 0.931 . S
C614 C609 1.370 . S
C614 C610 1.395 . S
C614 H623 0.930 . S
C615 Gd551 2.805 . S
C615 O591 1.263 . S
C615 O592 1.252 . S
C615 C609 1.500 . S
H616 C599 0.929 . S
H617 C600 0.930 . S
H618 C601 0.931 . S
H619 C602 0.930 . S
H620 C611 0.929 . S
H621 C612 0.930 . S
H622 C613 0.931 . S
H623 C614 0.930 . S
C624 C625 1.391 . S
C624 C626 1.394 . S
C624 H640 0.931 . S
C625 C624 1.391 . S
C625 C629 1.376 . S
C626 C624 1.394 . S
C626 C627 1.369 . S
C626 C630 1.531 . S
C627 C626 1.369 . S
C627 C628 1.410 . S
C627 C635 1.503 . S
C628 C627 1.410 . S
C628 C629 1.392 . S
C628 C631 1.511 . S
C629 C625 1.376 . S
C629 C628 1.392 . S
C629 H641 0.929 . S
C630 C626 1.531 . S
C630 H642 0.960 . S
C630 H643 0.962 . S
C630 H644 0.960 . S
C631 C628 1.511 . S
C631 H645 0.961 1_545 S
C631 H646 0.961 1_545 S
C631 H647 0.961 . S
C632 C633 1.370 . S
C632 C634 1.363 . S
C632 H648 0.931 . S
C633 C632 1.370 . S
C633 C637 1.408 . S
C634 C632 1.363 . S
C634 C635 1.370 . S
C634 C638 1.524 . S
C635 C627 1.503 . S
C635 C634 1.370 . S
C635 C636 1.403 . S
C636 C635 1.403 . S
C636 C637 1.404 . S
C636 C639 1.539 . S
C637 C633 1.408 . S
C637 C636 1.404 . S
C637 H649 0.930 . S
C638 C634 1.524 . S
C638 H650 0.956 . S
C638 H651 0.961 . S
C638 H652 0.960 1_545 S
C639 C636 1.539 . S
C639 H653 0.958 . S
C639 H654 0.961 . S
C639 H655 0.960 . S
H640 C624 0.931 . S
H641 C629 0.929 . S
H642 C630 0.960 . S
H643 C630 0.962 . S
H644 C630 0.960 . S
H645 C631 0.961 1_565 S
H646 C631 0.961 1_565 S
H647 C631 0.961 . S
H648 C632 0.931 . S
H649 C637 0.930 . S
H650 C638 0.956 . S
H651 C638 0.961 . S
H652 C638 0.960 1_565 S
H653 C639 0.958 . S
H654 C639 0.961 . S
H655 C639 0.960 . S
C656 C657 1.391 . S
C656 C658 1.394 . S
C656 H672 0.931 . S
C657 C656 1.391 . S
C657 C661 1.376 . S
C658 C656 1.394 . S
C658 C659 1.369 . S
C658 C662 1.531 . S
C659 C658 1.369 . S
C659 C660 1.410 . S
C659 C667 1.503 . S
C660 C659 1.410 . S
C660 C661 1.392 . S
C660 C663 1.511 . S
C661 C657 1.376 . S
C661 C660 1.392 . S
C661 H673 0.929 . S
C662 C658 1.531 . S
C662 H674 0.960 . S
C662 H675 0.962 . S
C662 H676 0.960 . S
C663 C660 1.511 . S
C663 H677 0.961 . S
C663 H678 0.961 . S
C663 H679 0.961 . S
C664 C665 1.370 . S
C664 C666 1.363 . S
C664 H680 0.931 . S
C665 C664 1.370 . S
C665 C669 1.408 . S
C666 C664 1.363 . S
C666 C667 1.370 . S
C666 C670 1.524 . S
C667 C659 1.503 . S
C667 C666 1.370 . S
C667 C668 1.403 . S
C668 C667 1.403 . S
C668 C669 1.404 . S
C668 C671 1.539 . S
C669 C665 1.408 . S
C669 C668 1.404 . S
C669 H681 0.930 . S
C670 C666 1.524 . S
C670 H682 0.956 . S
C670 H683 0.961 . S
C670 H684 0.961 . S
C671 C668 1.539 . S
C671 H685 0.958 . S
C671 H686 0.961 . S
C671 H687 0.960 . S
H672 C656 0.931 . S
H673 C661 0.929 . S
H674 C662 0.960 . S
H675 C662 0.962 . S
H676 C662 0.960 . S
H677 C663 0.961 . S
H678 C663 0.961 . S
H679 C663 0.961 . S
H680 C664 0.931 . S
H681 C669 0.930 . S
H682 C670 0.956 . S
H683 C670 0.961 . S
H684 C670 0.961 . S
H685 C671 0.958 . S
H686 C671 0.961 . S
H687 C671 0.960 . S
C688 C689 1.391 . S
C688 C690 1.394 . S
C688 H704 0.931 . S
C689 C688 1.391 . S
C689 C693 1.376 . S
C690 C688 1.394 . S
C690 C691 1.369 . S
C690 C694 1.531 . S
C691 C690 1.369 . S
C691 C692 1.410 . S
C691 C699 1.503 . S
C692 C691 1.410 . S
C692 C693 1.392 . S
C692 C695 1.511 . S
C693 C689 1.376 . S
C693 C692 1.392 . S
C693 H705 0.929 . S
C694 C690 1.531 . S
C694 H706 0.960 . S
C694 H707 0.962 . S
C694 H708 0.960 . S
C695 C692 1.511 . S
C695 H709 0.961 . S
C695 H710 0.961 . S
C695 H711 0.961 . S
C696 C697 1.370 . S
C696 C698 1.363 . S
C696 H712 0.931 . S
C697 C696 1.370 . S
C697 C701 1.408 . S
C698 C696 1.363 . S
C698 C699 1.370 . S
C698 C702 1.524 . S
C699 C691 1.503 . S
C699 C698 1.370 . S
C699 C700 1.403 . S
C700 C699 1.403 . S
C700 C701 1.404 . S
C700 C703 1.539 . S
C701 C697 1.408 . S
C701 C700 1.404 . S
C701 H713 0.930 . S
C702 C698 1.524 . S
C702 H714 0.956 . S
C702 H715 0.961 . S
C702 H716 0.961 . S
C703 C700 1.539 . S
C703 H717 0.958 . S
C703 H718 0.961 . S
C703 H719 0.960 . S
H704 C688 0.931 . S
H705 C693 0.929 . S
H706 C694 0.960 . S
H707 C694 0.962 . S
H708 C694 0.960 . S
H709 C695 0.961 . S
H710 C695 0.961 . S
H711 C695 0.961 . S
H712 C696 0.931 . S
H713 C701 0.930 . S
H714 C702 0.956 . S
H715 C702 0.961 . S
H716 C702 0.961 . S
H717 C703 0.958 . S
H718 C703 0.961 . S
H719 C703 0.960 . S
C720 C721 1.391 . S
C720 C722 1.394 . S
C720 H736 0.931 . S
C721 C720 1.391 . S
C721 C725 1.376 . S
C722 C720 1.394 . S
C722 C723 1.369 . S
C722 C726 1.531 . S
C723 C722 1.369 . S
C723 C724 1.410 . S
C723 C731 1.503 . S
C724 C723 1.410 . S
C724 C725 1.392 . S
C724 C727 1.511 1_455 S
C725 C721 1.376 . S
C725 C724 1.392 . S
C725 H737 0.929 . S
C726 C722 1.531 . S
C726 H738 0.960 . S
C726 H739 0.962 . S
C726 H740 0.960 . S
C727 C724 1.511 1_655 S
C727 H741 0.961 . S
C727 H742 0.961 . S
C727 H743 0.961 . S
C728 C729 1.370 . S
C728 C730 1.363 . S
C728 H744 0.931 . S
C729 C728 1.370 . S
C729 C733 1.408 . S
C730 C728 1.363 . S
C730 C731 1.370 . S
C730 C734 1.524 . S
C731 C723 1.503 . S
C731 C730 1.370 . S
C731 C732 1.403 . S
C732 C731 1.403 . S
C732 C733 1.404 . S
C732 C735 1.539 1_455 S
C733 C729 1.408 . S
C733 C732 1.404 . S
C733 H745 0.930 1_455 S
C734 C730 1.524 . S
C734 H746 0.956 . S
C734 H747 0.961 . S
C734 H748 0.961 . S
C735 C732 1.539 1_655 S
C735 H749 0.958 . S
C735 H750 0.961 . S
C735 H751 0.960 . S
H736 C720 0.931 . S
H737 C725 0.929 . S
H738 C726 0.960 . S
H739 C726 0.962 . S
H740 C726 0.960 . S
H741 C727 0.961 . S
H742 C727 0.961 . S
H743 C727 0.961 . S
H744 C728 0.931 . S
H745 C733 0.930 1_655 S
H746 C734 0.956 . S
H747 C734 0.961 . S
H748 C734 0.961 . S
H749 C735 0.958 . S
H750 C735 0.961 . S
H751 C735 0.960 . S
C752 C753 1.391 . S
C752 C754 1.394 1_554 S
C752 H768 0.931 . S
C753 C752 1.391 . S
C753 C757 1.376 . S
C754 C752 1.394 1_556 S
C754 C755 1.369 . S
C754 C758 1.531 . S
C755 C754 1.369 . S
C755 C756 1.383 1_566 S
C755 C763 1.503 . S
C756 C755 1.383 1_544 S
C756 C757 1.386 1_545 S
C756 C759 1.544 1_554 S
C757 C753 1.376 . S
C757 C756 1.386 1_565 S
C757 H769 0.929 1_565 S
C758 C754 1.531 . S
C758 H770 0.960 . S
C758 H771 0.962 . S
C758 H772 0.960 . S
C759 C756 1.544 1_556 S
C759 H773 0.961 1_556 S
C759 H774 0.961 . S
C759 H775 0.961 . S
C760 C761 1.370 . S
C760 C762 1.363 . S
C760 H776 0.935 . S
C761 C760 1.370 . S
C761 C765 1.408 . S
C762 C760 1.363 . S
C762 C763 1.370 . S
C762 C766 1.524 . S
C763 C755 1.503 . S
C763 C762 1.370 . S
C763 C764 1.403 . S
C764 C763 1.403 . S
C764 C765 1.404 . S
C764 C767 1.539 . S
C765 C761 1.408 . S
C765 C764 1.404 . S
C765 H777 0.930 . S
C766 C762 1.524 . S
C766 H778 0.956 . S
C766 H779 0.961 1_565 S
C766 H780 0.961 . S
C767 C764 1.539 . S
C767 H781 0.958 . S
C767 H782 0.961 . S
C767 H783 0.960 . S
H768 C752 0.931 . S
H769 C757 0.929 1_545 S
H770 C758 0.960 . S
H771 C758 0.962 . S
H772 C758 0.960 . S
H773 C759 0.961 1_554 S
H774 C759 0.961 . S
H775 C759 0.961 . S
H776 C760 0.935 . S
H777 C765 0.930 . S
H778 C766 0.956 . S
H779 C766 0.961 1_545 S
H780 C766 0.961 . S
H781 C767 0.958 . S
H782 C767 0.961 . S
H783 C767 0.960 . S
C784 C785 1.391 . S
C784 C786 1.394 1_554 S
C784 H800 0.931 . S
C785 C784 1.391 . S
C785 C789 1.376 . S
C786 C784 1.394 1_556 S
C786 C787 1.369 . S
C786 C790 1.531 . S
C787 C786 1.369 . S
C787 C788 1.410 1_556 S
C787 C795 1.503 . S
C788 C787 1.410 1_554 S
C788 C789 1.392 . S
C788 C791 1.511 . S
C789 C785 1.376 . S
C789 C788 1.392 . S
C789 H801 0.929 . S
C790 C786 1.531 . S
C790 H802 0.960 . S
C790 H803 0.962 . S
C790 H804 0.960 . S
C791 C788 1.511 . S
C791 H805 0.961 . S
C791 H806 0.961 1_554 S
C791 H807 0.961 . S
C792 C793 1.370 . S
C792 C794 1.363 . S
C792 H808 0.931 . S
C793 C792 1.370 . S
C793 C797 1.408 . S
C794 C792 1.363 . S
C794 C795 1.370 . S
C794 C798 1.524 . S
C795 C787 1.503 . S
C795 C794 1.370 . S
C795 C796 1.403 . S
C796 C795 1.403 . S
C796 C797 1.404 . S
C796 C799 1.539 . S
C797 C793 1.408 . S
C797 C796 1.404 . S
C797 H809 0.930 . S
C798 C794 1.524 . S
C798 H810 0.956 . S
C798 H811 0.961 . S
C798 H812 0.961 . S
C799 C796 1.539 . S
C799 H813 0.958 . S
C799 H814 0.961 . S
C799 H815 0.960 . S
H800 C784 0.931 . S
H801 C789 0.929 . S
H802 C790 0.960 . S
H803 C790 0.962 . S
H804 C790 0.960 . S
H805 C791 0.961 . S
H806 C791 0.961 1_556 S
H807 C791 0.961 . S
H808 C792 0.931 . S
H809 C797 0.930 . S
H810 C798 0.956 . S
H811 C798 0.961 . S
H812 C798 0.961 . S
H813 C799 0.958 . S
H814 C799 0.961 . S
H815 C799 0.960 . S
C816 C817 1.391 . S
C816 C818 1.394 . S
C816 H832 0.931 . S
C817 C816 1.391 . S
C817 C821 1.376 . S
C818 C816 1.394 . S
C818 C819 1.369 1_554 S
C818 C822 1.531 . S
C819 C818 1.369 1_556 S
C819 C820 1.410 . S
C819 C827 1.503 . S
C820 C819 1.410 . S
C820 C821 1.392 1_556 S
C820 C823 1.511 . S
C821 C817 1.376 . S
C821 C820 1.392 1_554 S
C821 H833 0.929 . S
C822 C818 1.531 . S
C822 H834 0.960 1_554 S
C822 H835 0.962 . S
C822 H836 0.960 . S
C823 C820 1.511 . S
C823 H837 0.961 . S
C823 H838 0.961 . S
C823 H839 0.961 . S
C824 C825 1.370 . S
C824 C826 1.363 . S
C824 H840 0.931 . S
C825 C824 1.370 . S
C825 C829 1.408 . S
C826 C824 1.363 . S
C826 C827 1.370 . S
C826 C830 1.524 . S
C827 C819 1.503 . S
C827 C826 1.370 . S
C827 C828 1.403 . S
C828 C827 1.403 . S
C828 C829 1.404 . S
C828 C831 1.539 . S
C829 C825 1.408 . S
C829 C828 1.404 . S
C829 H841 0.930 . S
C830 C826 1.524 . S
C830 H842 0.956 . S
C830 H843 0.961 . S
C830 H844 0.961 . S
C831 C828 1.539 . S
C831 H845 0.958 . S
C831 H846 0.961 . S
C831 H847 0.960 . S
H832 C816 0.931 . S
H833 C821 0.929 . S
H834 C822 0.960 1_556 S
H835 C822 0.962 . S
H836 C822 0.960 . S
H837 C823 0.961 . S
H838 C823 0.961 . S
H839 C823 0.961 . S
H840 C824 0.931 . S
H841 C829 0.930 . S
H842 C830 0.956 . S
H843 C830 0.961 . S
H844 C830 0.961 . S
H845 C831 0.958 . S
H846 C831 0.961 . S
H847 C831 0.960 . S
C848 C849 1.391 . S
C848 C850 1.394 . S
C848 H864 0.931 . S
C849 C848 1.391 . S
C849 C853 1.376 . S
C850 C848 1.394 . S
C850 C851 1.369 1_554 S
C850 C854 1.531 1_655 S
C851 C850 1.369 1_556 S
C851 C852 1.410 . S
C851 C859 1.503 . S
C852 C851 1.410 . S
C852 C853 1.392 1_556 S
C852 C855 1.511 . S
C853 C849 1.376 . S
C853 C852 1.392 1_554 S
C853 H865 0.929 . S
C854 C850 1.531 1_455 S
C854 H866 0.973 1_554 S
C854 H867 0.962 . S
C854 H868 0.960 . S
C855 C852 1.511 . S
C855 H869 0.961 . S
C855 H870 0.961 . S
C855 H871 0.961 . S
C856 C857 1.370 1_455 S
C856 C858 1.364 1_455 S
C856 H872 0.931 . S
C857 C856 1.370 1_655 S
C857 C861 1.408 . S
C858 C856 1.364 1_655 S
C858 C859 1.368 . S
C858 C862 1.526 1_655 S
C859 C851 1.503 . S
C859 C858 1.368 . S
C859 C860 1.403 . S
C860 C859 1.403 . S
C860 C861 1.404 . S
C860 C863 1.539 . S
C861 C857 1.408 . S
C861 C860 1.404 . S
C861 H873 0.930 . S
C862 C858 1.526 1_455 S
C862 H874 0.956 . S
C862 H875 0.961 . S
C862 H876 0.961 . S
C863 C860 1.539 . S
C863 H877 0.958 . S
C863 H878 0.961 . S
C863 H879 0.960 . S
H864 C848 0.931 . S
H865 C853 0.929 . S
H866 C854 0.973 1_556 S
H867 C854 0.962 . S
H868 C854 0.960 . S
H869 C855 0.961 . S
H870 C855 0.961 . S
H871 C855 0.961 . S
H872 C856 0.931 . S
H873 C861 0.930 . S
H874 C862 0.956 . S
H875 C862 0.961 . S
H876 C862 0.961 . S
H877 C863 0.958 . S
H878 C863 0.961 . S
H879 C863 0.960 . S
C880 C881 1.391 . S
C880 C882 1.394 . S
C880 H896 0.931 . S
C881 C880 1.391 . S
C881 C885 1.376 . S
C882 C880 1.394 . S
C882 C883 1.369 . S
C882 C886 1.531 1_455 S
C883 C882 1.369 . S
C883 C884 1.410 . S
C883 C891 1.503 . S
C884 C883 1.410 . S
C884 C885 1.392 . S
C884 C887 1.511 . S
C885 C881 1.376 . S
C885 C884 1.392 . S
C885 H897 0.929 . S
C886 C882 1.531 1_655 S
C886 H898 0.960 . S
C886 H899 0.962 . S
C886 H900 0.960 . S
C887 C884 1.511 . S
C887 H901 0.961 . S
C887 H902 0.961 . S
C887 H903 0.961 . S
C888 C889 1.370 1_455 S
C888 C890 1.363 . S
C888 H904 0.931 . S
C889 C888 1.370 1_655 S
C889 C893 1.408 . S
C890 C888 1.363 . S
C890 C891 1.370 . S
C890 C894 1.524 . S
C891 C883 1.503 . S
C891 C890 1.370 . S
C891 C892 1.403 . S
C892 C891 1.403 . S
C892 C893 1.404 1_455 S
C892 C895 1.539 . S
C893 C889 1.408 . S
C893 C892 1.404 1_655 S
C893 H905 0.930 . S
C894 C890 1.524 . S
C894 H906 0.956 . S
C894 H907 0.961 . S
C894 H908 0.961 . S
C895 C892 1.539 . S
C895 H909 0.958 1_455 S
C895 H910 0.961 . S
C895 H911 0.960 . S
H896 C880 0.931 . S
H897 C885 0.929 . S
H898 C886 0.960 . S
H899 C886 0.962 . S
H900 C886 0.960 . S
H901 C887 0.961 . S
H902 C887 0.961 . S
H903 C887 0.961 . S
H904 C888 0.931 . S
H905 C893 0.930 . S
H906 C894 0.956 . S
H907 C894 0.961 . S
H908 C894 0.961 . S
H909 C895 0.958 1_655 S
H910 C895 0.961 . S
H911 C895 0.960 . S
C912 C913 1.391 . S
C912 C914 1.394 . S
C912 H928 0.931 . S
C913 C912 1.391 . S
C913 C917 1.376 . S
C914 C912 1.394 . S
C914 C915 1.369 . S
C914 C918 1.534 . S
C915 C914 1.369 . S
C915 C916 1.410 . S
C915 C923 1.503 . S
C916 C915 1.410 . S
C916 C917 1.392 . S
C916 C919 1.511 . S
C917 C913 1.376 . S
C917 C916 1.392 . S
C917 H929 0.929 . S
C918 C914 1.534 . S
C918 H930 0.958 1_545 S
C918 H931 0.963 . S
C918 H932 0.959 1_545 S
C919 C916 1.511 . S
C919 H933 0.961 . S
C919 H934 0.961 . S
C919 H935 0.961 . S
C920 C921 1.370 . S
C920 C922 1.363 . S
C920 H936 0.931 . S
C921 C920 1.370 . S
C921 C925 1.408 1_545 S
C922 C920 1.363 . S
C922 C923 1.370 . S
C922 C926 1.524 . S
C923 C915 1.503 . S
C923 C922 1.370 . S
C923 C924 1.403 . S
C924 C923 1.403 . S
C924 C925 1.404 1_545 S
C924 C927 1.539 1_545 S
C925 C921 1.408 1_565 S
C925 C924 1.404 1_565 S
C925 H937 0.930 . S
C926 C922 1.524 . S
C926 H938 0.956 . S
C926 H939 0.961 . S
C926 H940 0.961 . S
C927 C924 1.539 1_565 S
C927 H941 0.958 . S
C927 H942 0.961 . S
C927 H943 0.960 1_565 S
H928 C912 0.931 . S
H929 C917 0.929 . S
H930 C918 0.958 1_565 S
H931 C918 0.963 . S
H932 C918 0.959 1_565 S
H933 C919 0.961 . S
H934 C919 0.961 . S
H935 C919 0.961 . S
H936 C920 0.931 . S
H937 C925 0.930 . S
H938 C926 0.956 . S
H939 C926 0.961 . S
H940 C926 0.961 . S
H941 C927 0.958 . S
H942 C927 0.961 . S
H943 C927 0.960 1_545 S
C944 C945 1.391 . S
C944 C946 1.394 . S
C944 H960 0.931 . S
C945 C944 1.391 . S
C945 C949 1.376 . S
C946 C944 1.394 . S
C946 C947 1.369 . S
C946 C950 1.531 . S
C947 C946 1.369 . S
C947 C948 1.410 . S
C947 C955 1.503 . S
C948 C947 1.410 . S
C948 C949 1.392 . S
C948 C951 1.511 . S
C949 C945 1.376 . S
C949 C948 1.392 . S
C949 H961 0.929 . S
C950 C946 1.531 . S
C950 H962 0.960 . S
C950 H963 0.962 . S
C950 H964 0.960 . S
C951 C948 1.511 . S
C951 H965 0.961 . S
C951 H966 0.961 . S
C951 H967 0.961 . S
C952 C953 1.370 . S
C952 C954 1.363 . S
C952 H968 0.931 . S
C953 C952 1.370 . S
C953 C957 1.408 . S
C954 C952 1.363 . S
C954 C955 1.370 . S
C954 C958 1.524 . S
C955 C947 1.503 . S
C955 C954 1.370 . S
C955 C956 1.403 . S
C956 C955 1.403 . S
C956 C957 1.404 . S
C956 C959 1.539 . S
C957 C953 1.408 . S
C957 C956 1.404 . S
C957 H969 0.930 . S
C958 C954 1.524 . S
C958 H970 0.956 . S
C958 H971 0.961 . S
C958 H972 0.961 . S
C959 C956 1.539 . S
C959 H973 0.958 . S
C959 H974 0.961 . S
C959 H975 0.960 . S
H960 C944 0.931 . S
H961 C949 0.929 . S
H962 C950 0.960 . S
H963 C950 0.962 . S
H964 C950 0.960 . S
H965 C951 0.961 . S
H966 C951 0.961 . S
H967 C951 0.961 . S
H968 C952 0.931 . S
H969 C957 0.930 . S
H970 C958 0.956 . S
H971 C958 0.961 . S
H972 C958 0.961 . S
H973 C959 0.958 . S
H974 C959 0.961 . S
H975 C959 0.960 . S
C976 C977 1.391 . S
C976 C978 1.394 . S
C976 H992 0.931 . S
C977 C976 1.391 . S
C977 C981 1.376 . S
C978 C976 1.394 . S
C978 C979 1.369 . S
C978 C982 1.531 . S
C979 C978 1.369 . S
C979 C980 1.410 . S
C979 C987 1.503 . S
C980 C979 1.410 . S
C980 C981 1.392 . S
C980 C983 1.511 . S
C981 C977 1.376 . S
C981 C980 1.392 . S
C981 H993 0.929 . S
C982 C978 1.531 . S
C982 H994 0.960 . S
C982 H995 0.962 . S
C982 H996 0.960 . S
C983 C980 1.511 . S
C983 H997 0.961 . S
C983 H998 0.961 . S
C983 H999 0.961 . S
C984 C985 1.370 . S
C984 C986 1.363 . S
C984 H1000 0.931 . S
C985 C984 1.370 . S
C985 C989 1.408 . S
C986 C984 1.363 . S
C986 C987 1.370 . S
C986 C990 1.524 . S
C987 C979 1.503 . S
C987 C986 1.370 . S
C987 C988 1.403 . S
C988 C987 1.403 . S
C988 C989 1.404 . S
C988 C991 1.539 . S
C989 C985 1.408 . S
C989 C988 1.404 . S
C989 H1001 0.930 . S
C990 C986 1.524 . S
C990 H1002 0.956 . S
C990 H1003 0.961 . S
C990 H1004 0.961 . S
C991 C988 1.539 . S
C991 H1005 0.958 . S
C991 H1006 0.961 . S
C991 H1007 0.960 . S
H992 C976 0.931 . S
H993 C981 0.929 . S
H994 C982 0.960 . S
H995 C982 0.962 . S
H996 C982 0.960 . S
H997 C983 0.961 . S
H998 C983 0.961 . S
H999 C983 0.961 . S
H1000 C984 0.931 . S
H1001 C989 0.930 . S
H1002 C990 0.956 . S
H1003 C990 0.961 . S
H1004 C990 0.961 . S
H1005 C991 0.958 . S
H1006 C991 0.961 . S
H1007 C991 0.960 . S
C1008 C1009 1.391 . S
C1008 C1010 1.394 1_554 S
C1008 H1024 0.931 . S
C1009 C1008 1.391 . S
C1009 C1013 1.376 . S
C1010 C1008 1.394 1_556 S
C1010 C1011 1.369 . S
C1010 C1014 1.531 1_655 S
C1011 C1010 1.369 . S
C1011 C1012 1.410 . S
C1011 C1019 1.503 . S
C1012 C1011 1.410 . S
C1012 C1013 1.392 1_556 S
C1012 C1015 1.511 . S
C1013 C1009 1.376 . S
C1013 C1012 1.392 1_554 S
C1013 H1025 0.929 . S
C1014 C1010 1.531 1_455 S
C1014 H1026 0.960 . S
C1014 H1027 0.962 . S
C1014 H1028 0.960 . S
C1015 C1012 1.511 . S
C1015 H1029 0.961 . S
C1015 H1030 0.961 . S
C1015 H1031 0.961 . S
C1016 C1017 1.370 . S
C1016 C1018 1.363 . S
C1016 H1032 0.931 . S
C1017 C1016 1.370 . S
C1017 C1021 1.408 . S
C1018 C1016 1.363 . S
C1018 C1019 1.370 1_455 S
C1018 C1022 1.524 1_556 S
C1019 C1011 1.503 . S
C1019 C1018 1.370 1_655 S
C1019 C1020 1.403 . S
C1020 C1019 1.403 . S
C1020 C1021 1.404 1_655 S
C1020 C1023 1.539 . S
C1021 C1017 1.408 . S
C1021 C1020 1.404 1_455 S
C1021 H1033 0.930 . S
C1022 C1018 1.524 1_554 S
C1022 H1034 0.956 . S
C1022 H1035 0.961 1_455 S
C1022 H1036 0.961 . S
C1023 C1020 1.539 . S
C1023 H1037 0.958 . S
C1023 H1038 0.961 . S
C1023 H1039 0.960 . S
H1024 C1008 0.931 . S
H1025 C1013 0.929 . S
H1026 C1014 0.960 . S
H1027 C1014 0.962 . S
H1028 C1014 0.960 . S
H1029 C1015 0.961 . S
H1030 C1015 0.961 . S
H1031 C1015 0.961 . S
H1032 C1016 0.931 . S
H1033 C1021 0.930 . S
H1034 C1022 0.956 . S
H1035 C1022 0.961 1_655 S
H1036 C1022 0.961 . S
H1037 C1023 0.958 . S
H1038 C1023 0.961 . S
H1039 C1023 0.960 . S
C1040 C1041 1.391 . S
C1040 C1042 1.394 1_554 S
C1040 H1056 0.931 . S
C1041 C1040 1.391 . S
C1041 C1045 1.376 . S
C1042 C1040 1.394 1_556 S
C1042 C1043 1.369 . S
C1042 C1046 1.531 . S
C1043 C1042 1.369 . S
C1043 C1044 1.395 1_565 S
C1043 C1051 1.503 . S
C1044 C1043 1.395 1_545 S
C1044 C1045 1.379 1_546 S
C1044 C1047 1.538 . S
C1045 C1041 1.376 . S
C1045 C1044 1.379 1_564 S
C1045 H1057 0.945 . S
C1046 C1042 1.531 . S
C1046 H1058 0.960 . S
C1046 H1059 0.962 . S
C1046 H1060 0.960 1_556 S
C1047 C1044 1.538 . S
C1047 H1061 0.961 . S
C1047 H1062 0.961 . S
C1047 H1063 0.961 1_556 S
C1048 C1049 1.370 . S
C1048 C1050 1.363 1_545 S
C1048 H1064 0.931 . S
C1049 C1048 1.370 . S
C1049 C1053 1.408 . S
C1050 C1048 1.363 1_565 S
C1050 C1051 1.370 . S
C1050 C1054 1.524 . S
C1051 C1043 1.503 . S
C1051 C1050 1.370 . S
C1051 C1052 1.403 1_565 S
C1052 C1051 1.403 1_545 S
C1052 C1053 1.404 . S
C1052 C1055 1.539 1_556 S
C1053 C1049 1.408 . S
C1053 C1052 1.404 . S
C1053 H1065 0.930 . S
C1054 C1050 1.524 . S
C1054 H1066 0.956 . S
C1054 H1067 0.961 . S
C1054 H1068 0.961 . S
C1055 C1052 1.539 1_554 S
C1055 H1069 0.958 1_545 S
C1055 H1070 0.961 . S
C1055 H1071 0.960 . S
H1056 C1040 0.931 . S
H1057 C1045 0.945 . S
H1058 C1046 0.960 . S
H1059 C1046 0.962 . S
H1060 C1046 0.960 1_554 S
H1061 C1047 0.961 . S
H1062 C1047 0.961 . S
H1063 C1047 0.961 1_554 S
H1064 C1048 0.931 . S
H1065 C1053 0.930 . S
H1066 C1054 0.956 . S
H1067 C1054 0.961 . S
H1068 C1054 0.961 . S
H1069 C1055 0.958 1_565 S
H1070 C1055 0.961 . S
H1071 C1055 0.960 . S
C1072 C1073 1.391 . S
C1072 C1074 1.394 . S
C1072 H1088 0.931 . S
C1073 C1072 1.391 . S
C1073 C1077 1.376 . S
C1074 C1072 1.394 . S
C1074 C1075 1.369 1_554 S
C1074 C1078 1.531 1_554 S
C1075 C1074 1.369 1_556 S
C1075 C1076 1.410 . S
C1075 C1083 1.503 . S
C1076 C1075 1.410 . S
C1076 C1077 1.392 1_556 S
C1076 C1079 1.511 . S
C1077 C1073 1.376 . S
C1077 C1076 1.392 1_554 S
C1077 H1089 0.929 . S
C1078 C1074 1.531 1_556 S
C1078 H1090 0.960 . S
C1078 H1091 0.962 . S
C1078 H1092 0.960 1_556 S
C1079 C1076 1.511 . S
C1079 H1093 0.961 . S
C1079 H1094 0.961 . S
C1079 H1095 0.947 1_556 S
C1080 C1081 1.370 . S
C1080 C1082 1.363 . S
C1080 H1096 0.931 . S
C1081 C1080 1.370 . S
C1081 C1085 1.408 . S
C1082 C1080 1.363 . S
C1082 C1083 1.370 . S
C1082 C1086 1.524 . S
C1083 C1075 1.503 . S
C1083 C1082 1.370 . S
C1083 C1084 1.403 . S
C1084 C1083 1.403 . S
C1084 C1085 1.404 . S
C1084 C1087 1.539 1_556 S
C1085 C1081 1.408 . S
C1085 C1084 1.404 . S
C1085 H1097 0.930 . S
C1086 C1082 1.524 . S
C1086 H1098 0.956 . S
C1086 H1099 0.961 . S
C1086 H1100 0.961 . S
C1087 C1084 1.539 1_554 S
C1087 H1101 0.958 . S
C1087 H1102 0.961 . S
C1087 H1103 0.960 . S
H1088 C1072 0.931 . S
H1089 C1077 0.929 . S
H1090 C1078 0.960 . S
H1091 C1078 0.962 . S
H1092 C1078 0.960 1_554 S
H1093 C1079 0.961 . S
H1094 C1079 0.961 . S
H1095 C1079 0.947 1_554 S
H1096 C1080 0.931 . S
H1097 C1085 0.930 . S
H1098 C1086 0.956 . S
H1099 C1086 0.961 . S
H1100 C1086 0.961 . S
H1101 C1087 0.958 . S
H1102 C1087 0.961 . S
H1103 C1087 0.960 . S
C1104 C1105 1.391 . S
C1104 C1106 1.394 1_554 S
C1104 H1120 0.931 . S
C1105 C1104 1.391 . S
C1105 C1109 1.376 . S
C1106 C1104 1.394 1_556 S
C1106 C1107 1.369 . S
C1106 C1110 1.531 . S
C1107 C1106 1.369 . S
C1107 C1108 1.410 . S
C1107 C1115 1.503 . S
C1108 C1107 1.410 . S
C1108 C1109 1.392 1_556 S
C1108 C1111 1.511 . S
C1109 C1105 1.376 . S
C1109 C1108 1.392 1_554 S
C1109 H1121 0.929 . S
C1110 C1106 1.531 . S
C1110 H1122 0.960 . S
C1110 H1123 0.962 . S
C1110 H1124 0.960 . S
C1111 C1108 1.511 . S
C1111 H1125 0.954 1_556 S
C1111 H1126 0.961 . S
C1111 H1127 0.961 . S
C1112 C1113 1.370 . S
C1112 C1114 1.363 . S
C1112 H1128 0.931 . S
C1113 C1112 1.370 . S
C1113 C1117 1.408 . S
C1114 C1112 1.363 . S
C1114 C1115 1.370 . S
C1114 C1118 1.524 1_556 S
C1115 C1107 1.503 . S
C1115 C1114 1.370 . S
C1115 C1116 1.403 . S
C1116 C1115 1.403 . S
C1116 C1117 1.404 . S
C1116 C1119 1.539 . S
C1117 C1113 1.408 . S
C1117 C1116 1.404 . S
C1117 H1129 0.930 . S
C1118 C1114 1.524 1_554 S
C1118 H1130 0.956 . S
C1118 H1131 0.961 . S
C1118 H1132 0.961 . S
C1119 C1116 1.539 . S
C1119 H1133 0.958 . S
C1119 H1134 0.961 . S
C1119 H1135 0.960 . S
H1120 C1104 0.931 . S
H1121 C1109 0.929 . S
H1122 C1110 0.960 . S
H1123 C1110 0.962 . S
H1124 C1110 0.960 . S
H1125 C1111 0.954 1_554 S
H1126 C1111 0.961 . S
H1127 C1111 0.961 . S
H1128 C1112 0.931 . S
H1129 C1117 0.930 . S
H1130 C1118 0.956 . S
H1131 C1118 0.961 . S
H1132 C1118 0.961 . S
H1133 C1119 0.958 . S
H1134 C1119 0.961 . S
H1135 C1119 0.960 . S
C1136 C1137 1.391 . S
C1136 C1138 1.394 . S
C1136 H1152 0.931 . S
C1137 C1136 1.391 . S
C1137 C1141 1.376 . S
C1138 C1136 1.394 . S
C1138 C1139 1.369 . S
C1138 C1142 1.531 . S
C1139 C1138 1.369 . S
C1139 C1140 1.410 . S
C1139 C1147 1.503 . S
C1140 C1139 1.410 . S
C1140 C1141 1.392 . S
C1140 C1143 1.511 . S
C1141 C1137 1.376 . S
C1141 C1140 1.392 . S
C1141 H1153 0.929 . S
C1142 C1138 1.531 . S
C1142 H1154 0.960 . S
C1142 H1155 0.962 . S
C1142 H1156 0.960 . S
C1143 C1140 1.511 . S
C1143 H1157 0.961 . S
C1143 H1158 0.961 . S
C1143 H1159 0.961 1_455 S
C1144 C1145 1.370 . S
C1144 C1146 1.363 . S
C1144 H1160 0.931 . S
C1145 C1144 1.370 . S
C1145 C1149 1.408 . S
C1146 C1144 1.363 . S
C1146 C1147 1.370 . S
C1146 C1150 1.524 . S
C1147 C1139 1.503 . S
C1147 C1146 1.370 . S
C1147 C1148 1.403 . S
C1148 C1147 1.403 . S
C1148 C1149 1.404 . S
C1148 C1151 1.539 1_455 S
C1149 C1145 1.408 . S
C1149 C1148 1.404 . S
C1149 H1161 0.930 1_455 S
C1150 C1146 1.524 . S
C1150 H1162 0.956 . S
C1150 H1163 0.961 . S
C1150 H1164 0.961 . S
C1151 C1148 1.539 1_655 S
C1151 H1165 0.958 . S
C1151 H1166 0.961 . S
C1151 H1167 0.960 . S
H1152 C1136 0.931 . S
H1153 C1141 0.929 . S
H1154 C1142 0.960 . S
H1155 C1142 0.962 . S
H1156 C1142 0.960 . S
H1157 C1143 0.961 . S
H1158 C1143 0.961 . S
H1159 C1143 0.961 1_655 S
H1160 C1144 0.931 . S
H1161 C1149 0.930 1_655 S
H1162 C1150 0.956 . S
H1163 C1150 0.961 . S
H1164 C1150 0.961 . S
H1165 C1151 0.958 . S
H1166 C1151 0.961 . S
H1167 C1151 0.960 . S
C1168 C1169 1.391 . S
C1168 C1170 1.394 . S
C1168 H1184 0.931 . S
C1169 C1168 1.391 . S
C1169 C1173 1.376 . S
C1170 C1168 1.394 . S
C1170 C1171 1.369 . S
C1170 C1174 1.531 . S
C1171 C1170 1.369 . S
C1171 C1172 1.410 . S
C1171 C1179 1.503 . S
C1172 C1171 1.410 . S
C1172 C1173 1.392 . S
C1172 C1175 1.511 . S
C1173 C1169 1.376 . S
C1173 C1172 1.392 . S
C1173 H1185 0.929 . S
C1174 C1170 1.531 . S
C1174 H1186 0.960 . S
C1174 H1187 0.962 . S
C1174 H1188 0.960 . S
C1175 C1172 1.511 . S
C1175 H1189 0.961 . S
C1175 H1190 0.961 . S
C1175 H1191 0.961 . S
C1176 C1177 1.370 . S
C1176 C1178 1.363 . S
C1176 H1192 0.914 1_545 S
C1177 C1176 1.370 . S
C1177 C1181 1.408 . S
C1178 C1176 1.363 . S
C1178 C1179 1.370 . S
C1178 C1182 1.513 1_545 S
C1179 C1171 1.503 . S
C1179 C1178 1.370 . S
C1179 C1180 1.403 . S
C1180 C1179 1.403 . S
C1180 C1181 1.404 . S
C1180 C1183 1.539 . S
C1181 C1177 1.408 . S
C1181 C1180 1.404 . S
C1181 H1193 0.930 . S
C1182 C1178 1.513 1_565 S
C1182 H1194 0.950 1_565 S
C1182 H1195 0.965 . S
C1182 H1196 0.975 . S
C1183 C1180 1.539 . S
C1183 H1197 0.958 . S
C1183 H1198 0.961 . S
C1183 H1199 0.960 . S
H1184 C1168 0.931 . S
H1185 C1173 0.929 . S
H1186 C1174 0.960 . S
H1187 C1174 0.962 . S
H1188 C1174 0.960 . S
H1189 C1175 0.961 . S
H1190 C1175 0.961 . S
H1191 C1175 0.961 . S
H1192 C1176 0.914 1_565 S
H1193 C1181 0.930 . S
H1194 C1182 0.950 1_545 S
H1195 C1182 0.965 . S
H1196 C1182 0.975 . S
H1197 C1183 0.958 . S
H1198 C1183 0.961 . S
H1199 C1183 0.960 . S
C1200 C1201 1.391 . S
C1200 C1202 1.394 . S
C1200 H1216 0.931 . S
C1201 C1200 1.391 . S
C1201 C1205 1.376 . S
C1202 C1200 1.394 . S
C1202 C1203 1.369 . S
C1202 C1206 1.531 . S
C1203 C1202 1.369 . S
C1203 C1204 1.410 . S
C1203 C1211 1.503 . S
C1204 C1203 1.410 . S
C1204 C1205 1.392 . S
C1204 C1207 1.511 . S
C1205 C1201 1.376 . S
C1205 C1204 1.392 . S
C1205 H1217 0.929 . S
C1206 C1202 1.531 . S
C1206 H1218 0.960 . S
C1206 H1219 0.962 . S
C1206 H1220 0.960 . S
C1207 C1204 1.511 . S
C1207 H1221 0.961 . S
C1207 H1222 0.961 . S
C1207 H1223 0.961 . S
C1208 C1209 1.370 . S
C1208 C1210 1.363 . S
C1208 H1224 0.931 . S
C1209 C1208 1.370 . S
C1209 C1213 1.408 . S
C1210 C1208 1.363 . S
C1210 C1211 1.370 . S
C1210 C1214 1.524 . S
C1211 C1203 1.503 . S
C1211 C1210 1.370 . S
C1211 C1212 1.403 . S
C1212 C1211 1.403 . S
C1212 C1213 1.404 . S
C1212 C1215 1.539 . S
C1213 C1209 1.408 . S
C1213 C1212 1.404 . S
C1213 H1225 0.930 . S
C1214 C1210 1.524 . S
C1214 H1226 0.956 . S
C1214 H1227 0.961 . S
C1214 H1228 0.961 . S
C1215 C1212 1.539 . S
C1215 H1229 0.958 . S
C1215 H1230 0.961 . S
C1215 H1231 0.960 . S
H1216 C1200 0.931 . S
H1217 C1205 0.929 . S
H1218 C1206 0.960 . S
H1219 C1206 0.962 . S
H1220 C1206 0.960 . S
H1221 C1207 0.961 . S
H1222 C1207 0.961 . S
H1223 C1207 0.961 . S
H1224 C1208 0.931 . S
H1225 C1213 0.930 . S
H1226 C1214 0.956 . S
H1227 C1214 0.961 . S
H1228 C1214 0.961 . S
H1229 C1215 0.958 . S
H1230 C1215 0.961 . S
H1231 C1215 0.960 . S
C1232 C1233 1.391 . S
C1232 C1234 1.394 . S
C1232 H1248 0.931 . S
C1233 C1232 1.391 . S
C1233 C1237 1.376 . S
C1234 C1232 1.394 . S
C1234 C1235 1.369 . S
C1234 C1238 1.531 . S
C1235 C1234 1.369 . S
C1235 C1236 1.410 . S
C1235 C1243 1.503 . S
C1236 C1235 1.410 . S
C1236 C1237 1.392 . S
C1236 C1239 1.511 . S
C1237 C1233 1.376 . S
C1237 C1236 1.392 . S
C1237 H1249 0.929 . S
C1238 C1234 1.531 . S
C1238 H1250 0.960 . S
C1238 H1251 0.962 . S
C1238 H1252 0.960 . S
C1239 C1236 1.511 . S
C1239 H1253 0.961 . S
C1239 H1254 0.961 . S
C1239 H1255 0.961 . S
C1240 C1241 1.370 . S
C1240 C1242 1.363 . S
C1240 H1256 0.931 . S
C1241 C1240 1.370 . S
C1241 C1245 1.408 . S
C1242 C1240 1.363 . S
C1242 C1243 1.370 . S
C1242 C1246 1.524 . S
C1243 C1235 1.503 . S
C1243 C1242 1.370 . S
C1243 C1244 1.403 . S
C1244 C1243 1.403 . S
C1244 C1245 1.404 . S
C1244 C1247 1.539 . S
C1245 C1241 1.408 . S
C1245 C1244 1.404 . S
C1245 H1257 0.930 . S
C1246 C1242 1.524 . S
C1246 H1258 0.956 . S
C1246 H1259 0.961 . S
C1246 H1260 0.961 . S
C1247 C1244 1.539 . S
C1247 H1261 0.958 . S
C1247 H1262 0.961 . S
C1247 H1263 0.960 . S
H1248 C1232 0.931 . S
H1249 C1237 0.929 . S
H1250 C1238 0.960 . S
H1251 C1238 0.962 . S
H1252 C1238 0.960 . S
H1253 C1239 0.961 . S
H1254 C1239 0.961 . S
H1255 C1239 0.961 . S
H1256 C1240 0.931 . S
H1257 C1245 0.930 . S
H1258 C1246 0.956 . S
H1259 C1246 0.961 . S
H1260 C1246 0.961 . S
H1261 C1247 0.958 . S
H1262 C1247 0.961 . S
H1263 C1247 0.960 . S
C1264 C1265 1.391 . S
C1264 C1266 1.394 . S
C1264 H1280 0.931 1_655 S
C1265 C1264 1.391 . S
C1265 C1269 1.376 . S
C1266 C1264 1.394 . S
C1266 C1267 1.369 . S
C1266 C1270 1.531 1_655 S
C1267 C1266 1.369 . S
C1267 C1268 1.410 . S
C1267 C1275 1.503 . S
C1268 C1267 1.410 . S
C1268 C1269 1.392 . S
C1268 C1271 1.511 . S
C1269 C1265 1.376 . S
C1269 C1268 1.392 . S
C1269 H1281 0.929 . S
C1270 C1266 1.531 1_455 S
C1270 H1282 0.960 . S
C1270 H1283 0.962 . S
C1270 H1284 0.960 . S
C1271 C1268 1.511 . S
C1271 H1285 0.961 . S
C1271 H1286 0.961 . S
C1271 H1287 0.961 . S
C1272 C1273 1.370 . S
C1272 C1274 1.363 . S
C1272 H1288 0.931 . S
C1273 C1272 1.370 . S
C1273 C1277 1.408 . S
C1274 C1272 1.363 . S
C1274 C1275 1.370 . S
C1274 C1278 1.524 . S
C1275 C1267 1.503 . S
C1275 C1274 1.370 . S
C1275 C1276 1.403 . S
C1276 C1275 1.403 . S
C1276 C1277 1.404 . S
C1276 C1279 1.539 . S
C1277 C1273 1.408 . S
C1277 C1276 1.404 . S
C1277 H1289 0.930 . S
C1278 C1274 1.524 . S
C1278 H1290 0.956 . S
C1278 H1291 0.961 . S
C1278 H1292 0.961 . S
C1279 C1276 1.539 . S
C1279 H1293 0.958 . S
C1279 H1294 0.961 . S
C1279 H1295 0.960 . S
H1280 C1264 0.931 1_455 S
H1281 C1269 0.929 . S
H1282 C1270 0.960 . S
H1283 C1270 0.962 . S
H1284 C1270 0.960 . S
H1285 C1271 0.961 . S
H1286 C1271 0.961 . S
H1287 C1271 0.961 . S
H1288 C1272 0.931 . S
H1289 C1277 0.930 . S
H1290 C1278 0.956 . S
H1291 C1278 0.961 . S
H1292 C1278 0.961 . S
H1293 C1279 0.958 . S
H1294 C1279 0.961 . S
H1295 C1279 0.960 . S
C1296 C1297 1.391 . S
C1296 C1298 1.394 . S
C1296 H1312 0.931 . S
C1297 C1296 1.391 . S
C1297 C1301 1.376 . S
C1298 C1296 1.394 . S
C1298 C1299 1.369 . S
C1298 C1302 1.531 . S
C1299 C1298 1.369 . S
C1299 C1300 1.410 . S
C1299 C1307 1.503 . S
C1300 C1299 1.410 . S
C1300 C1301 1.392 . S
C1300 C1303 1.511 1_565 S
C1301 C1297 1.376 . S
C1301 C1300 1.392 . S
C1301 H1313 0.929 . S
C1302 C1298 1.531 . S
C1302 H1314 0.960 . S
C1302 H1315 0.962 . S
C1302 H1316 0.960 . S
C1303 C1300 1.511 1_545 S
C1303 H1317 0.961 . S
C1303 H1318 0.961 . S
C1303 H1319 0.938 1_545 S
C1304 C1305 1.370 1_545 S
C1304 C1306 1.363 1_545 S
C1304 H1320 0.931 . S
C1305 C1304 1.370 1_565 S
C1305 C1309 1.408 . S
C1306 C1304 1.363 1_565 S
C1306 C1307 1.370 . S
C1306 C1310 1.524 1_565 S
C1307 C1299 1.503 . S
C1307 C1306 1.370 . S
C1307 C1308 1.403 . S
C1308 C1307 1.403 . S
C1308 C1309 1.404 . S
C1308 C1311 1.539 . S
C1309 C1305 1.408 . S
C1309 C1308 1.404 . S
C1309 H1321 0.930 . S
C1310 C1306 1.524 1_545 S
C1310 H1322 0.956 . S
C1310 H1323 0.961 . S
C1310 H1324 0.961 . S
C1311 C1308 1.539 . S
C1311 H1325 0.958 . S
C1311 H1326 0.961 . S
C1311 H1327 0.960 . S
H1312 C1296 0.931 . S
H1313 C1301 0.929 . S
H1314 C1302 0.960 . S
H1315 C1302 0.962 . S
H1316 C1302 0.960 . S
H1317 C1303 0.961 . S
H1318 C1303 0.961 . S
H1319 C1303 0.938 1_565 S
H1320 C1304 0.931 . S
H1321 C1309 0.930 . S
H1322 C1310 0.956 . S
H1323 C1310 0.961 . S
H1324 C1310 0.961 . S
H1325 C1311 0.958 . S
H1326 C1311 0.961 . S
H1327 C1311 0.960 . S
C1328 C1329 1.391 . S
C1328 C1330 1.394 . S
C1328 H1344 0.931 . S
C1329 C1328 1.391 . S
C1329 C1333 1.376 . S
C1330 C1328 1.394 . S
C1330 C1331 1.369 . S
C1330 C1334 1.531 . S
C1331 C1330 1.369 . S
C1331 C1332 1.410 . S
C1331 C1339 1.503 . S
C1332 C1331 1.410 . S
C1332 C1333 1.392 . S
C1332 C1335 1.511 . S
C1333 C1329 1.376 . S
C1333 C1332 1.392 . S
C1333 H1345 0.929 . S
C1334 C1330 1.531 . S
C1334 H1346 0.960 . S
C1334 H1347 0.962 . S
C1334 H1348 0.960 . S
C1335 C1332 1.511 . S
C1335 H1349 0.961 . S
C1335 H1350 0.961 . S
C1335 H1351 0.961 . S
C1336 C1337 1.370 . S
C1336 C1338 1.363 . S
C1336 H1352 0.931 . S
C1337 C1336 1.370 . S
C1337 C1341 1.408 . S
C1338 C1336 1.363 . S
C1338 C1339 1.370 . S
C1338 C1342 1.524 . S
C1339 C1331 1.503 . S
C1339 C1338 1.370 . S
C1339 C1340 1.403 . S
C1340 C1339 1.403 . S
C1340 C1341 1.404 . S
C1340 C1343 1.539 . S
C1341 C1337 1.408 . S
C1341 C1340 1.404 . S
C1341 H1353 0.930 . S
C1342 C1338 1.524 . S
C1342 H1354 0.956 . S
C1342 H1355 0.961 . S
C1342 H1356 0.961 . S
C1343 C1340 1.539 . S
C1343 H1357 0.958 . S
C1343 H1358 0.961 . S
C1343 H1359 0.960 . S
H1344 C1328 0.931 . S
H1345 C1333 0.929 . S
H1346 C1334 0.960 . S
H1347 C1334 0.962 . S
H1348 C1334 0.960 . S
H1349 C1335 0.961 . S
H1350 C1335 0.961 . S
H1351 C1335 0.961 . S
H1352 C1336 0.931 . S
H1353 C1341 0.930 . S
H1354 C1342 0.956 . S
H1355 C1342 0.961 . S
H1356 C1342 0.961 . S
H1357 C1343 0.958 . S
H1358 C1343 0.961 . S
H1359 C1343 0.960 . S
C1360 C1361 1.391 . S
C1360 C1362 1.394 . S
C1360 H1376 0.931 . S
C1361 C1360 1.391 . S
C1361 C1365 1.376 . S
C1362 C1360 1.394 . S
C1362 C1363 1.369 . S
C1362 C1366 1.531 . S
C1363 C1362 1.369 . S
C1363 C1364 1.410 . S
C1363 C1371 1.503 . S
C1364 C1363 1.410 . S
C1364 C1365 1.392 . S
C1364 C1367 1.511 . S
C1365 C1361 1.376 . S
C1365 C1364 1.392 . S
C1365 H1377 0.929 . S
C1366 C1362 1.531 . S
C1366 H1378 0.960 . S
C1366 H1379 0.962 . S
C1366 H1380 0.960 . S
C1367 C1364 1.511 . S
C1367 H1381 0.961 . S
C1367 H1382 0.961 . S
C1367 H1383 0.961 . S
C1368 C1369 1.370 . S
C1368 C1370 1.363 . S
C1368 H1384 0.931 . S
C1369 C1368 1.370 . S
C1369 C1373 1.408 . S
C1370 C1368 1.363 . S
C1370 C1371 1.370 . S
C1370 C1374 1.524 . S
C1371 C1363 1.503 . S
C1371 C1370 1.370 . S
C1371 C1372 1.403 . S
C1372 C1371 1.403 . S
C1372 C1373 1.404 . S
C1372 C1375 1.539 . S
C1373 C1369 1.408 . S
C1373 C1372 1.404 . S
C1373 H1385 0.930 . S
C1374 C1370 1.524 . S
C1374 H1386 0.956 . S
C1374 H1387 0.961 . S
C1374 H1388 0.961 . S
C1375 C1372 1.539 . S
C1375 H1389 0.958 . S
C1375 H1390 0.961 . S
C1375 H1391 0.960 . S
H1376 C1360 0.931 . S
H1377 C1365 0.929 . S
H1378 C1366 0.960 . S
H1379 C1366 0.962 . S
H1380 C1366 0.960 . S
H1381 C1367 0.961 . S
H1382 C1367 0.961 . S
H1383 C1367 0.961 . S
H1384 C1368 0.931 . S
H1385 C1373 0.930 . S
H1386 C1374 0.956 . S
H1387 C1374 0.961 . S
H1388 C1374 0.961 . S
H1389 C1375 0.958 . S
H1390 C1375 0.961 . S
H1391 C1375 0.960 . S
C625 C241 2.253 . S
C633 C356 2.412 . S
C665 C439 2.440 . S
C657 C277 2.308 . S
C697 C524 2.409 . S
C689 C169 2.250 . S
C729 C608 2.394 . S
C721 C205 2.236 . S
C761 C344 2.421 1_565 S
C753 C97 2.163 . S
C785 C133 2.295 . S
C793 C427 2.450 . S
C817 C25 2.191 . S
C825 C512 2.420 . S
C849 C61 2.212 . S
C857 C596 2.401 1_655 S
C889 C346 0.509 . S
C881 C211 0.401 . S
C921 C442 0.496 . S
C913 C247 0.369 . S
C953 C514 0.459 . S
C945 C253 0.444 . S
C977 C175 0.525 . S
C985 C598 0.487 . S
C1009 C67 0.586 . S
C1017 C358 0.491 . S
C1049 C430 0.491 . S
C1041 C103 0.442 . S
C1081 C526 0.495 . S
C1073 C109 0.418 . S
C1105 C31 0.586 . S
C1113 C610 0.485 . S
C1137 C181 2.615 . S
C1145 C343 2.896 . S
C1169 C217 2.597 . S
C1177 C428 2.928 . S
C1209 C511 2.924 . S
C1201 C283 2.531 . S
C1241 C595 2.913 . S
C1233 C145 2.643 . S
C1265 C37 2.580 . S
C1273 C355 2.900 . S
C1305 C440 2.930 . S
C1297 C73 2.619 . S
C1337 C523 2.923 . S
C1329 C139 2.563 . S
C1361 C1 2.610 . S
C1369 C607 2.916 . S
