# Generated by pormake.
# Topology tsx, (6,3)-cn, num edge types: 1
# Building blocks:
#     Node 0, Type 0, BuildingBlock: FUNLAD_clean_sbu_0, # of connection points: 6
#     Node 1, Type 0, BuildingBlock: FUNLAD_clean_sbu_0, # of connection points: 6
#     Node 2, Type 1, BuildingBlock: ESEHIV_clean_linker_0, # of connection points: 3
#     Node 3, Type 1, BuildingBlock: ESEHIV_clean_linker_0, # of connection points: 3
#     Node 4, Type 1, BuildingBlock: ESEHIV_clean_linker_0, # of connection points: 3
#     Node 5, Type 1, BuildingBlock: ESEHIV_clean_linker_0, # of connection points: 3
#     Edge 6, Type (0, 1), BuildingBlock: TEMPAE_clean_linker_10, # of connection points: 2
#     Edge 7, Type (0, 1), BuildingBlock: TEMPAE_clean_linker_10, # of connection points: 2
#     Edge 8, Type (0, 1), BuildingBlock: TEMPAE_clean_linker_10, # of connection points: 2
#     Edge 9, Type (0, 1), BuildingBlock: TEMPAE_clean_linker_10, # of connection points: 2
#     Edge 10, Type (0, 1), BuildingBlock: TEMPAE_clean_linker_10, # of connection points: 2
#     Edge 11, Type (0, 1), BuildingBlock: TEMPAE_clean_linker_10, # of connection points: 2
#     Edge 12, Type (0, 1), BuildingBlock: TEMPAE_clean_linker_10, # of connection points: 2
#     Edge 13, Type (0, 1), BuildingBlock: TEMPAE_clean_linker_10, # of connection points: 2
#     Edge 14, Type (0, 1), BuildingBlock: TEMPAE_clean_linker_10, # of connection points: 2
#     Edge 15, Type (0, 1), BuildingBlock: TEMPAE_clean_linker_10, # of connection points: 2
#     Edge 16, Type (0, 1), BuildingBlock: TEMPAE_clean_linker_10, # of connection points: 2
#     Edge 17, Type (0, 1), BuildingBlock: TEMPAE_clean_linker_10, # of connection points: 2
# Relax obj value: 0.164
# Max RMSD: 0.154
# Mean RMSD: 0.080
data_MOF--net-tsx--node1-FUNLAD_clean_sbu_0--node2-ESEHIV_clean_linker_0--edge1-TEMPAE_clean_linker_10
_symmetry_space_group_name_H-M    P1
_symmetry_Int_Tables_number       1
_symmetry_cell_setting            triclinic
loop_
_symmetry_equiv_pos_as_xyz
'x, y, z'
_cell_length_a     17.939697
_cell_length_b     19.964628
_cell_length_c     40.777991
_cell_angle_alpha  91.251287
_cell_angle_beta   92.153122
_cell_angle_gamma 89.973316
loop_
_atom_site_label
_atom_site_type_symbol
_atom_site_fract_x
_atom_site_fract_y
_atom_site_fract_z
_atom_type_partial_charge
C0 C 0.9273 0.91177 0.0061 0.0
N1 N 0.03902 0.01924 0.08153 0.0
C2 C 0.97456 0.03794 0.09568 0.0
C3 C 0.96909 0.03787 0.12965 0.0
C4 C 0.02927 0.0152 0.14958 0.0
C5 C 0.09566 -0.00278 0.13427 0.0
C6 C 0.09972 0.00077 0.10022 0.0
Zn7 Zn 0.04064 0.01259 0.03128 0.0
C8 C 0.14406 0.90546 0.00776 0.0
N9 N 0.03858 0.99244 0.92674 0.0
C10 C 0.97346 0.98005 0.90955 0.0
C11 C 0.10283 0.00374 0.91104 0.0
C12 C 0.1024 0.00623 0.87688 0.0
C13 C 0.03573 0.99443 0.85837 0.0
C14 C 0.97112 0.97936 0.87535 0.0
Zn15 Zn 0.03833 -0.00061 0.97685 0.0
O16 O 0.95601 0.94003 0.03175 0.0
C17 C 0.9355 0.1073 -0.00176 0.0
O18 O 0.95032 0.92756 0.9782 0.0
H19 H 0.15447 0.0125 0.92495 0.0
H20 H 0.92628 0.05163 0.0807 0.0
H21 H 0.92269 0.97166 0.9223 0.0
O22 O 0.9589 0.09037 0.02668 0.0
O23 O 0.96048 0.07718 0.97324 0.0
H24 H 0.15094 0.98675 0.08877 0.0
O25 O 0.12784 0.0706 0.97733 0.0
O26 O 0.12506 0.08433 0.03084 0.0
O27 O 0.11547 0.92213 0.98022 0.0
O28 O 0.12374 0.93512 0.03385 0.0
C29 C 0.15331 0.09842 0.00377 0.0
H30 H 0.91742 0.0546 0.13995 0.0
H31 H 0.1436 0.97853 0.14811 0.0
H32 H 0.15369 0.01909 0.8654 0.0
H33 H 0.91869 0.96764 0.86255 0.0
C34 C 0.37119 0.39468 0.49327 0.0
N35 N 0.47526 0.48834 0.57518 0.0
C36 C 0.41073 0.47793 0.59081 0.0
C37 C 0.41067 0.47774 0.62507 0.0
C38 C 0.47753 0.4892 0.64345 0.0
C39 C 0.54325 0.4995 0.62652 0.0
C40 C 0.54094 0.49832 0.59232 0.0
Zn41 Zn 0.47486 0.49226 0.5252 0.0
C42 C 0.58624 0.40259 0.49641 0.0
N43 N 0.47442 0.50456 0.42115 0.0
C44 C 0.41005 0.50942 0.40258 0.0
C45 C 0.54186 0.50018 0.40706 0.0
C46 C 0.54631 0.49853 0.37304 0.0
C47 C 0.48088 0.50261 0.35332 0.0
C48 C 0.41209 0.50914 0.36833 0.0
Zn49 Zn 0.47286 0.50068 0.47107 0.0
O50 O 0.40128 0.41178 0.52085 0.0
C51 C 0.35971 0.58821 0.4994 0.0
O52 O 0.38861 0.42502 0.46755 0.0
H53 H 0.59244 0.49716 0.42222 0.0
H54 H 0.35907 0.4702 0.5767 0.0
H55 H 0.35705 0.51267 0.41431 0.0
O56 O 0.38268 0.56003 0.52557 0.0
O57 O 0.39029 0.57427 0.47251 0.0
H58 H 0.59167 0.50636 0.57945 0.0
O59 O 0.55594 0.57669 0.47513 0.0
O60 O 0.54906 0.57343 0.52859 0.0
O61 O 0.55543 0.42609 0.47061 0.0
O62 O 0.56551 0.42355 0.52426 0.0
C63 C 0.57615 0.59913 0.50346 0.0
H64 H 0.35881 0.46858 0.63697 0.0
H65 H 0.59591 0.50977 0.63949 0.0
H66 H 0.60038 0.49422 0.3622 0.0
H67 H 0.36053 0.51222 0.35374 0.0
H68 H 0.8814 0.05153 0.39433 0.0
H69 H 0.01304 0.87076 0.39873 0.0
H70 H 0.90403 0.94454 0.48382 0.0
C71 C 0.90411 0.00917 0.40751 0.0
C72 C 0.88951 0.00393 0.44081 0.0
C73 C 0.94791 0.96092 0.39157 0.0
C74 C 0.97553 0.90653 0.40976 0.0
C75 C 0.95929 0.90025 0.44299 0.0
C76 C 0.91539 0.94867 0.45821 0.0
H77 H 0.90189 0.94191 0.61041 0.0
H78 H 0.05257 0.10909 0.6037 0.0
H79 H 0.93102 0.03418 0.51815 0.0
C80 C 0.92889 0.9799 0.59646 0.0
C81 C 0.91286 0.98216 0.56271 0.0
C82 C 0.97887 0.02582 0.61197 0.0
C83 C 0.01121 0.07505 0.59278 0.0
C84 C 0.99337 0.07867 0.55899 0.0
C85 C 0.94381 0.03224 0.54417 0.0
H86 H 0.47643 0.62366 0.89693 0.0
H87 H 0.59456 0.43668 0.89037 0.0
H88 H 0.58736 0.54367 0.98267 0.0
C89 C 0.51127 0.58572 0.90838 0.0
C90 C 0.52853 0.58972 0.9423 0.0
C91 C 0.53493 0.53063 0.88951 0.0
C92 C 0.57617 0.47955 0.90473 0.0
C93 C 0.59575 0.48444 0.93825 0.0
C94 C 0.57281 0.53994 0.95679 0.0
H95 H 0.51221 0.37891 0.10371 0.0
H96 H 0.61056 0.57591 0.10764 0.0
H97 H 0.60608 0.45949 0.01795 0.0
C98 C 0.54128 0.41905 0.0921 0.0
C99 C 0.5555 0.41329 0.05853 0.0
C100 C 0.56142 0.47729 0.11033 0.0
C101 C 0.59656 0.52968 0.09439 0.0
C102 C 0.61343 0.52316 0.0612 0.0
C103 C 0.59398 0.4645 0.04357 0.0
C104 C 0.22628 0.19338 0.02853 0.0
C105 C 0.21745 0.14447 0.00361 0.0
C106 C 0.28964 0.23424 0.03076 0.0
C107 C 0.34652 0.22491 0.00789 0.0
C108 C 0.33742 0.17639 0.98223 0.0
C109 C 0.27233 0.13703 0.98017 0.0
C110 C 0.29634 0.28644 0.05814 0.0
C111 C 0.39742 0.1644 0.9578 0.0
C112 C 0.47083 0.37627 0.01216 0.0
C113 C 0.51922 0.35924 0.03844 0.0
C114 C 0.41883 0.32986 -0.00109 0.0
C115 C 0.41593 0.2651 0.01224 0.0
C116 C 0.47147 0.2452 0.03565 0.0
C117 C 0.52213 0.29293 0.04881 0.0
C118 C 0.36142 0.35319 0.97369 0.0
C119 C 0.47222 0.17579 0.04955 0.0
H120 H 0.18363 0.19943 0.04652 0.0
H121 H 0.26576 0.09868 0.96104 0.0
H122 H 0.34405 0.27413 0.07505 0.0
H123 H 0.30739 0.33641 0.04795 0.0
H124 H 0.24518 0.28983 0.07261 0.0
H125 H 0.37916 0.12886 0.93775 0.0
H126 H 0.41415 0.21223 0.94686 0.0
H127 H 0.44775 0.14364 0.97055 0.0
H128 H 0.46881 0.4276 0.00398 0.0
H129 H 0.5606 0.27959 0.06876 0.0
H130 H 0.3101 0.36836 0.98629 0.0
H131 H 0.34612 0.31262 0.9557 0.0
H132 H 0.38175 0.39702 0.96024 0.0
H133 H 0.42878 0.17244 0.06813 0.0
H134 H 0.52704 0.16389 0.06163 0.0
H135 H 0.45935 0.13745 0.03007 0.0
C136 C 0.20157 0.80362 0.9843 0.0
C137 C 0.20324 0.85447 0.00845 0.0
C138 C 0.26227 0.76061 0.98062 0.0
C139 C 0.32693 0.76952 0.00127 0.0
C140 C 0.32756 0.81857 0.0269 0.0
C141 C 0.2651 0.86043 0.03037 0.0
C142 C 0.25846 0.70783 0.95345 0.0
C143 C 0.39548 0.82944 0.04933 0.0
C144 C 0.45325 0.62112 0.99032 0.0
C145 C 0.49241 0.64098 0.96303 0.0
C146 C 0.40447 0.66536 0.00583 0.0
C147 C 0.39485 0.73068 0.9936 0.0
C148 C 0.44085 0.75315 0.96857 0.0
C149 C 0.48887 0.70773 0.95337 0.0
C150 C 0.35762 0.63958 0.0328 0.0
C151 C 0.434 0.82314 0.95554 0.0
H152 H 0.15332 0.7987 0.96758 0.0
H153 H 0.26642 0.90014 0.04894 0.0
H154 H 0.2991 0.7199 0.93459 0.0
H155 H 0.27361 0.65806 0.96328 0.0
H156 H 0.20208 0.70422 0.94131 0.0
H157 H 0.38294 0.8615 0.07105 0.0
H158 H 0.41829 0.78095 0.0579 0.0
H159 H 0.43968 0.85422 0.03564 0.0
H160 H 0.45626 0.56949 -0.00199 0.0
H161 H 0.52058 0.72341 0.93276 0.0
H162 H 0.30251 0.62351 0.02213 0.0
H163 H 0.3478 0.67913 0.05166 0.0
H164 H 0.38423 0.59581 0.0449 0.0
H165 H 0.38223 0.82682 0.9399 0.0
H166 H 0.4821 0.83637 0.94056 0.0
H167 H 0.43 0.86043 0.97597 0.0
C168 C 0.83474 0.82809 0.98177 0.0
C169 C 0.87083 0.85848 0.00939 0.0
C170 C 0.78483 0.77452 0.9852 0.0
C171 C 0.7721 0.75036 0.01689 0.0
C172 C 0.80688 0.78209 0.04482 0.0
C173 C 0.85526 0.83591 0.04073 0.0
C174 C 0.74739 0.74278 0.95495 0.0
C175 C 0.79523 0.75762 0.07909 0.0
C176 C 0.61382 0.64059 0.04218 0.0
C177 C 0.64993 0.57873 0.04496 0.0
C178 C 0.6508 0.696 0.02989 0.0
C179 C 0.72633 0.68952 0.02143 0.0
C180 C 0.76148 0.62595 0.02256 0.0
C181 C 0.72226 0.57088 0.03392 0.0
C182 C 0.61049 0.76222 0.02778 0.0
C183 C 0.842 0.61706 0.01387 0.0
H184 H 0.84612 0.84555 0.95747 0.0
H185 H 0.88262 0.8591 0.06225 0.0
H186 H 0.773 0.69322 0.94993 0.0
H187 H 0.68722 0.73425 0.95875 0.0
H188 H 0.75309 0.77407 0.93299 0.0
H189 H 0.82551 0.78861 0.09822 0.0
H190 H 0.73499 0.7582 0.0843 0.0
H191 H 0.81482 0.70507 0.08107 0.0
H192 H 0.55721 0.64586 0.05032 0.0
H193 H 0.74942 0.5225 0.03586 0.0
H194 H 0.61865 0.78498 0.0036 0.0
H195 H 0.63378 0.79748 0.04692 0.0
H196 H 0.54973 0.75679 0.03132 0.0
H197 H 0.84921 0.63112 0.98802 0.0
H198 H 0.86159 0.56477 0.01703 0.0
H199 H 0.8782 0.65062 0.02959 0.0
C200 C 0.84508 0.1916 0.0205 0.0
C201 C 0.88081 0.16215 0.99374 0.0
C202 C 0.79383 0.24425 0.01587 0.0
C203 C 0.77888 0.26807 0.98385 0.0
C204 C 0.81448 0.23819 0.95682 0.0
C205 C 0.86463 0.18554 0.96208 0.0
C206 C 0.75576 0.2744 0.0451 0.0
C207 C 0.80058 0.26257 0.92229 0.0
C208 C 0.60942 0.3665 0.9556 0.0
C209 C 0.63959 0.43083 0.9538 0.0
C210 C 0.65241 0.31369 0.96819 0.0
C211 C 0.72789 0.32551 0.97806 0.0
C212 C 0.75733 0.39133 0.97761 0.0
C213 C 0.71231 0.44357 0.96579 0.0
C214 C 0.61828 0.24471 0.9692 0.0
C215 C 0.83753 0.40587 0.98787 0.0
H216 H 0.857 0.17348 0.045 0.0
H217 H 0.89199 0.16322 0.94126 0.0
H218 H 0.76948 0.32846 0.04777 0.0
H219 H 0.69435 0.27062 0.04129 0.0
H220 H 0.77233 0.24933 0.06831 0.0
H221 H 0.83277 0.23378 0.90398 0.0
H222 H 0.7404 0.25844 0.91524 0.0
H223 H 0.81615 0.31623 0.92106 0.0
H224 H 0.55251 0.35745 0.94669 0.0
H225 H 0.73483 0.49383 0.96457 0.0
H226 H 0.63135 0.2215 0.9932 0.0
H227 H 0.64229 0.21208 0.94991 0.0
H228 H 0.55674 0.24594 0.96507 0.0
H229 H 0.84799 0.39214 0.01384 0.0
H230 H 0.85212 0.45945 0.98518 0.0
H231 H 0.87541 0.37514 0.97277 0.0
C232 C 0.66327 0.68317 0.48053 0.0
C233 C 0.62927 0.65552 0.50759 0.0
C234 C 0.71277 0.73754 0.48471 0.0
C235 C 0.72779 0.76476 0.5166 0.0
C236 C 0.69383 0.73683 0.54392 0.0
C237 C 0.64525 0.68252 0.53909 0.0
C238 C 0.74887 0.76588 0.45516 0.0
C239 C 0.70838 0.76461 0.57836 0.0
C240 C 0.89801 0.86433 0.54398 0.0
C241 C 0.86791 0.92871 0.54674 0.0
C242 C 0.8546 0.81103 0.53123 0.0
C243 C 0.77885 0.82254 0.52208 0.0
C244 C 0.74952 0.88847 0.52327 0.0
C245 C 0.79494 0.94121 0.5354 0.0
C246 C 0.88853 0.74187 0.52953 0.0
C247 C 0.66913 0.9026 0.51358 0.0
H248 H 0.65126 0.6624 0.45612 0.0
H249 H 0.61925 0.66157 0.56013 0.0
H250 H 0.7323 0.81901 0.45226 0.0
H251 H 0.8105 0.76501 0.4587 0.0
H252 H 0.73315 0.73765 0.43216 0.0
H253 H 0.67697 0.73735 0.59688 0.0
H254 H 0.76876 0.7615 0.58508 0.0
H255 H 0.69237 0.81828 0.57961 0.0
H256 H 0.95517 0.85559 0.55244 0.0
H257 H 0.77269 0.99161 0.53732 0.0
H258 H 0.87438 0.71705 0.5055 0.0
H259 H 0.86535 0.71059 0.54887 0.0
H260 H 0.95022 0.74321 0.53313 0.0
H261 H 0.65738 0.88595 0.48778 0.0
H262 H 0.65522 0.95663 0.51606 0.0
H263 H 0.63171 0.87396 0.5292 0.0
C264 C 0.67244 0.31666 0.52131 0.0
C265 C 0.64172 0.34816 0.49348 0.0
C266 C 0.71963 0.2608 0.51809 0.0
C267 C 0.73542 0.23582 0.48635 0.0
C268 C 0.70665 0.26894 0.45827 0.0
C269 C 0.66059 0.32479 0.4622 0.0
C270 C 0.75053 0.22737 0.54853 0.0
C271 C 0.7222 0.24389 0.42394 0.0
C272 C 0.89177 0.11989 0.46337 0.0
C273 C 0.8529 0.05976 0.45776 0.0
C274 C 0.85575 0.17663 0.47586 0.0
C275 C 0.77861 0.17317 0.48177 0.0
C276 C 0.74037 0.11116 0.47788 0.0
C277 C 0.77848 0.05467 0.4662 0.0
C278 C 0.89901 0.24116 0.4807 0.0
C279 C 0.6581 0.10563 0.48387 0.0
H280 H 0.65834 0.33462 0.54558 0.0
H281 H 0.6376 0.34902 0.44054 0.0
H282 H 0.72161 0.17891 0.55149 0.0
H283 H 0.8108 0.21632 0.54637 0.0
H284 H 0.74292 0.25874 0.571 0.0
H285 H 0.69674 0.27626 0.40474 0.0
H286 H 0.78321 0.24156 0.42055 0.0
H287 H 0.69987 0.19235 0.42013 0.0
H288 H 0.94987 0.12286 0.45708 0.0
H289 H 0.74925 0.00754 0.46199 0.0
H290 H 0.88974 0.26322 0.50542 0.0
H291 H 0.87902 0.27804 0.46241 0.0
H292 H 0.95986 0.23368 0.47799 0.0
H293 H 0.64717 0.12145 0.50948 0.0
H294 H 0.63672 0.05387 0.47956 0.0
H295 H 0.62611 0.13961 0.46739 0.0
C296 C 0.32001 0.29046 0.51487 0.0
C297 C 0.31426 0.34176 0.49211 0.0
C298 C 0.2614 0.24553 0.5184 0.0
C299 C 0.19481 0.25297 0.49906 0.0
C300 C 0.19039 0.30202 0.47451 0.0
C301 C 0.25078 0.34588 0.47114 0.0
C302 C 0.26911 0.19286 0.54439 0.0
C303 C 0.12035 0.3112 0.45343 0.0
C304 C 0.06851 0.10568 0.51082 0.0
C305 C 0.03177 0.12745 0.53885 0.0
C306 C 0.11673 0.14863 0.49505 0.0
C307 C 0.12818 0.21441 0.50783 0.0
C308 C 0.08507 0.23849 0.534 0.0
C309 C 0.03756 0.19444 0.54935 0.0
C310 C 0.1605 0.12137 0.46684 0.0
C311 C 0.0942 0.30893 0.54779 0.0
H312 H 0.36967 0.28688 0.53075 0.0
H313 H 0.24646 0.3858 0.45356 0.0
H314 H 0.23094 0.20472 0.56451 0.0
H315 H 0.25316 0.14291 0.53393 0.0
H316 H 0.32687 0.18981 0.55507 0.0
H317 H 0.13083 0.3414 0.43151 0.0
H318 H 0.0964 0.26213 0.44525 0.0
H319 H 0.07786 0.33749 0.46803 0.0
H320 H 0.06349 0.05385 0.5025 0.0
H321 H 0.00757 0.21149 0.57057 0.0
H322 H 0.21655 0.10569 0.47622 0.0
H323 H 0.16838 0.16006 0.44817 0.0
H324 H 0.13255 0.0771 0.45485 0.0
H325 H 0.14821 0.31304 0.56188 0.0
H326 H 0.04878 0.32287 0.56442 0.0
H327 H 0.09507 0.34551 0.52773 0.0
C328 C 0.23979 0.6291 0.52214 0.0
C329 C 0.29638 0.63515 0.49956 0.0
C330 C 0.17554 0.66937 0.51985 0.0
C331 C 0.16899 0.71718 0.49479 0.0
C332 C 0.22776 0.72536 0.47296 0.0
C333 C 0.29031 0.68378 0.47543 0.0
C334 C 0.11358 0.65881 0.54324 0.0
C335 C 0.22373 0.77675 0.44626 0.0
C336 C 0.99621 0.78154 0.45159 0.0
C337 C -0.00266 0.84837 0.46258 0.0
C338 C 0.04649 0.73509 0.46509 0.0
C339 C 0.0998 0.75682 0.48954 0.0
C340 C 0.09521 0.82238 0.50324 0.0
C341 C 0.04367 0.86754 0.48957 0.0
C342 C 0.04778 0.66491 0.45062 0.0
C343 C 0.15017 0.84749 0.5296 0.0
H344 H 0.24432 0.59109 0.5407 0.0
H345 H 0.33438 0.68888 0.45817 0.0
H346 H 0.09431 0.7074 0.55355 0.0
H347 H 0.06513 0.63532 0.52976 0.0
H348 H 0.13108 0.62594 0.56377 0.0
H349 H 0.27625 0.77951 0.43275 0.0
H350 H 0.17748 0.76403 0.42838 0.0
H351 H 0.21195 0.82708 0.45692 0.0
H352 H 0.95916 0.76669 0.43108 0.0
H353 H 0.04401 0.91931 0.49822 0.0
H354 H 0.05828 0.62769 0.47006 0.0
H355 H 0.09369 0.66066 0.43319 0.0
H356 H 0.99455 0.65212 0.43712 0.0
H357 H 0.16382 0.80805 0.54758 0.0
H358 H 0.12843 0.89215 0.54289 0.0
H359 H 0.20272 0.86192 0.51808 0.0
C360 C 0.95151 0.99427 0.19845 0.0
C361 C 0.02155 0.00799 0.18571 0.0
C362 C 0.94271 0.98812 0.23221 0.0
C363 C 0.00602 0.99204 0.25386 0.0
C364 C 0.0772 0.00386 0.24138 0.0
C365 C 0.08386 0.01335 0.20761 0.0
C366 C 0.8654 0.97769 0.24471 0.0
C367 C 0.14641 0.00584 0.26365 0.0
C368 C 0.97394 0.03295 0.34337 0.0
C369 C 0.96694 0.96882 0.35653 0.0
C370 C 0.98688 0.04125 0.31004 0.0
C371 C -0.00292 0.98415 0.28959 0.0
C372 C 0.99431 0.91941 0.30291 0.0
C373 C 0.97752 0.91245 0.33598 0.0
C374 C 0.98708 0.1111 0.2965 0.0
C375 C 0.0077 0.85736 0.2821 0.0
H376 H 0.90302 0.98761 0.18211 0.0
H377 H 0.13814 0.02513 0.19854 0.0
H378 H 0.86175 0.92787 0.25603 0.0
H379 H 0.8536 0.0159 0.26401 0.0
H380 H 0.8214 0.9808 0.2249 0.0
H381 H 0.19817 0.01089 0.24978 0.0
H382 H 0.14338 0.04854 0.28139 0.0
H383 H 0.15027 0.95942 0.27811 0.0
H384 H 0.96879 0.07713 0.35898 0.0
H385 H 0.97148 0.86258 0.34546 0.0
H386 H 0.94264 0.1154 0.27697 0.0
H387 H 0.04095 0.12132 0.28513 0.0
H388 H 0.97775 0.15026 0.31569 0.0
H389 H 0.96066 0.8499 0.26397 0.0
H390 H 0.01316 0.81167 0.29707 0.0
H391 H 0.05915 0.86318 0.26814 0.0
C392 C 0.09623 0.98584 0.8035 0.0
C393 C 0.03293 -0.00037 0.82184 0.0
C394 C 0.09447 0.99267 0.7693 0.0
C395 C 0.02682 0.01026 0.75278 0.0
C396 C 0.96249 0.02315 0.77087 0.0
C397 C 0.96685 0.01949 0.80514 0.0
C398 C 0.16501 0.98115 0.75089 0.0
C399 C 0.88859 0.04005 0.75402 0.0
C400 C 0.01445 0.07927 0.66693 0.0
C401 C -0.00242 0.0214 0.64784 0.0
C402 C 0.02865 0.07576 0.70091 0.0
C403 C 0.0222 0.0135 0.71646 0.0
C404 C 0.00643 0.95482 0.69746 0.0
C405 C 0.99652 0.95921 0.66336 0.0
C406 C 0.04868 0.139 0.72026 0.0
C407 C -0.00316 0.88773 0.71325 0.0
H408 H 0.14739 0.96922 0.81566 0.0
H409 H 0.91806 0.03261 0.81871 0.0
H410 H 0.15906 0.93566 0.73494 0.0
H411 H 0.17518 0.02395 0.73471 0.0
H412 H 0.2146 0.97479 0.76768 0.0
H413 H 0.84281 0.04469 0.77154 0.0
H414 H 0.89309 0.08796 0.74101 0.0
H415 H 0.87321 0.00067 0.73535 0.0
H416 H 0.01492 0.1278 0.6556 0.0
H417 H 0.98673 0.91361 0.649 0.0
H418 H 0.09717 0.13004 0.7373 0.0
H419 H 0.00124 0.15456 0.73533 0.0
H420 H 0.06232 0.18096 0.70406 0.0
H421 H 0.0481 0.87423 0.72763 0.0
H422 H 0.98414 0.84692 0.69494 0.0
H423 H 0.9507 0.8907 0.73062 0.0
C424 C 0.41993 0.52115 0.69688 0.0
C425 C 0.47897 0.4919 0.68 0.0
C426 C 0.4225 0.52675 0.73128 0.0
C427 C 0.48621 0.50378 0.74919 0.0
C428 C 0.54547 0.47341 0.73241 0.0
C429 C 0.54074 0.46715 0.6981 0.0
C430 C 0.35765 0.55832 0.74842 0.0
C431 C 0.61464 0.4487 0.75065 0.0
C432 C 0.53549 0.57844 0.83356 0.0
C433 C 0.51665 0.52597 0.8539 0.0
C434 C 0.52436 0.57246 0.79939 0.0
C435 C 0.49234 0.51305 0.78544 0.0
C436 C 0.47035 0.46105 0.80606 0.0
C437 C 0.48353 0.46786 0.84009 0.0
C438 C 0.54957 0.62856 0.77817 0.0
C439 C 0.43453 0.39764 0.79213 0.0
H440 H 0.37233 0.5412 0.68321 0.0
H441 H 0.58586 0.44305 0.68543 0.0
H442 H 0.33806 0.52473 0.76764 0.0
H443 H 0.37576 0.60586 0.76086 0.0
H444 H 0.31005 0.5692 0.73114 0.0
H445 H 0.65581 0.42638 0.73392 0.0
H446 H 0.64175 0.49084 0.76473 0.0
H447 H 0.59945 0.41052 0.76859 0.0
H448 H 0.56151 0.62317 0.84433 0.0
H449 H 0.46831 0.4276 0.85597 0.0
H450 H 0.50288 0.64516 0.7617 0.0
H451 H 0.59467 0.61031 0.76235 0.0
H452 H 0.57068 0.67248 0.79293 0.0
H453 H 0.38635 0.40999 0.77549 0.0
H454 H 0.41499 0.36461 0.81164 0.0
H455 H 0.47515 0.36937 0.77736 0.0
C456 C 0.523 0.44528 0.3025 0.0
C457 C 0.48508 0.49863 0.31724 0.0
C458 C 0.531 0.44201 0.26847 0.0
C459 C 0.50155 0.49408 0.24886 0.0
C460 C 0.46229 0.54771 0.2636 0.0
C461 C 0.45386 0.549 0.2977 0.0
C462 C 0.57192 0.38333 0.25358 0.0
C463 C 0.43125 0.60464 0.24351 0.0
C464 C 0.59539 0.51533 0.16799 0.0
C465 C 0.54438 0.48401 0.14568 0.0
C466 C 0.58088 0.52092 0.20148 0.0
C467 C 0.51447 0.4933 0.2131 0.0
C468 C 0.46236 0.4622 0.19077 0.0
C469 C 0.47755 0.45857 0.15728 0.0
C470 C 0.63738 0.55525 0.22454 0.0
C471 C 0.39133 0.43147 0.20233 0.0
H472 H 0.54646 0.40605 0.3177 0.0
H473 H 0.42495 0.59042 0.30926 0.0
H474 H 0.53668 0.35899 0.2338 0.0
H475 H 0.62338 0.40112 0.24227 0.0
H476 H 0.5877 0.3452 0.27203 0.0
H477 H 0.39993 0.64133 0.25855 0.0
H478 H 0.47752 0.63123 0.232 0.0
H479 H 0.39359 0.58502 0.22335 0.0
H480 H 0.64757 0.5344 0.15941 0.0
H481 H 0.43692 0.43569 0.14019 0.0
H482 H 0.66165 0.51847 0.24192 0.0
H483 H 0.60991 0.59482 0.23931 0.0
H484 H 0.68349 0.57835 0.21128 0.0
H485 H 0.40506 0.39086 0.2197 0.0
H486 H 0.35587 0.41031 0.18172 0.0
H487 H 0.35855 0.46956 0.21577 0.0
loop_
_geom_bond_atom_site_label_1
_geom_bond_atom_site_label_2
_geom_bond_distance
_geom_bond_site_symmetry_2
_ccdc_geom_bond_type
C0 O16 1.251 . S
C0 O18 1.254 1_554 S
N1 C2 1.333 1_445 S
N1 C6 1.307 . S
N1 Zn7 2.020 . S
C2 N1 1.333 1_665 S
C2 C3 1.379 . S
C2 H20 0.952 . S
C3 C2 1.379 . S
C3 C4 1.390 1_665 S
C3 H30 0.949 . S
C4 C3 1.390 1_445 S
C4 C5 1.357 . S
C5 C4 1.357 . S
C5 C6 1.370 . S
C5 H31 0.950 . S
C6 N1 1.307 . S
C6 C5 1.370 . S
C6 H24 0.948 . S
Zn7 N1 2.020 . S
Zn7 O16 2.039 1_445 S
Zn7 O22 2.034 1_455 S
Zn7 O26 2.025 . S
Zn7 O28 2.024 1_545 S
C8 O27 1.246 1_554 S
C8 O28 1.249 . S
N9 C10 1.307 1_445 S
N9 C11 1.333 . S
N9 Zn15 2.020 . S
C10 N9 1.307 1_665 S
C10 C14 1.370 . S
C10 H21 0.948 . S
C11 N9 1.333 . S
C11 C12 1.379 . S
C11 H19 0.952 . S
C12 C11 1.379 . S
C12 C13 1.390 . S
C12 H32 0.949 . S
C13 C12 1.390 . S
C13 C14 1.357 1_445 S
C14 C10 1.370 . S
C14 C13 1.357 1_665 S
C14 H33 0.950 . S
Zn15 N9 2.020 . S
Zn15 O18 2.025 1_445 S
Zn15 O23 2.024 1_455 S
Zn15 O25 2.039 . S
Zn15 O27 2.034 1_545 S
O16 C0 1.251 . S
O16 Zn7 2.039 1_665 S
C17 O22 1.246 . S
C17 O23 1.249 1_554 S
O18 C0 1.254 1_556 S
O18 Zn15 2.025 1_665 S
H19 C11 0.952 . S
H20 C2 0.952 . S
H21 C10 0.948 . S
O22 Zn7 2.034 1_655 S
O22 C17 1.246 . S
O23 Zn15 2.024 1_655 S
O23 C17 1.249 1_556 S
H24 C6 0.948 . S
O25 Zn15 2.039 . S
O25 C29 1.251 1_556 S
O26 Zn7 2.025 . S
O26 C29 1.254 . S
O27 C8 1.246 1_556 S
O27 Zn15 2.034 1_565 S
O28 Zn7 2.024 1_565 S
O28 C8 1.249 . S
C29 O25 1.251 1_554 S
C29 O26 1.254 . S
H30 C3 0.949 . S
H31 C5 0.950 . S
H32 C12 0.949 . S
H33 C14 0.950 . S
C34 O50 1.251 . S
C34 O52 1.254 . S
N35 C36 1.333 . S
N35 C40 1.307 . S
N35 Zn41 2.020 . S
C36 N35 1.333 . S
C36 C37 1.379 . S
C36 H54 0.952 . S
C37 C36 1.379 . S
C37 C38 1.390 . S
C37 H64 0.949 . S
C38 C37 1.390 . S
C38 C39 1.357 . S
C39 C38 1.357 . S
C39 C40 1.370 . S
C39 H65 0.950 . S
C40 N35 1.307 . S
C40 C39 1.370 . S
C40 H58 0.948 . S
Zn41 N35 2.020 . S
Zn41 O50 2.039 . S
Zn41 O56 2.034 . S
Zn41 O60 2.025 . S
Zn41 O62 2.024 . S
C42 O61 1.246 . S
C42 O62 1.249 . S
N43 C44 1.307 . S
N43 C45 1.333 . S
N43 Zn49 2.020 . S
C44 N43 1.307 . S
C44 C48 1.370 . S
C44 H55 0.948 . S
C45 N43 1.333 . S
C45 C46 1.379 . S
C45 H53 0.952 . S
C46 C45 1.379 . S
C46 C47 1.390 . S
C46 H66 0.949 . S
C47 C46 1.390 . S
C47 C48 1.357 . S
C48 C44 1.370 . S
C48 C47 1.357 . S
C48 H67 0.950 . S
Zn49 N43 2.020 . S
Zn49 O52 2.025 . S
Zn49 O57 2.024 . S
Zn49 O59 2.039 . S
Zn49 O61 2.034 . S
O50 C34 1.251 . S
O50 Zn41 2.039 . S
C51 O56 1.246 . S
C51 O57 1.249 . S
O52 C34 1.254 . S
O52 Zn49 2.025 . S
H53 C45 0.952 . S
H54 C36 0.952 . S
H55 C44 0.948 . S
O56 Zn41 2.034 . S
O56 C51 1.246 . S
O57 Zn49 2.024 . S
O57 C51 1.249 . S
H58 C40 0.948 . S
O59 Zn49 2.039 . S
O59 C63 1.251 . S
O60 Zn41 2.025 . S
O60 C63 1.254 . S
O61 C42 1.246 . S
O61 Zn49 2.034 . S
O62 Zn41 2.024 . S
O62 C42 1.249 . S
C63 O59 1.251 . S
C63 O60 1.254 . S
H64 C37 0.949 . S
H65 C39 0.950 . S
H66 C46 0.949 . S
H67 C48 0.950 . S
H68 C71 0.931 . S
H69 C74 0.928 . S
H70 C76 0.930 . S
C71 H68 0.931 . S
C71 C72 1.413 . S
C71 C73 1.358 1_545 S
C72 C71 1.413 . S
C72 C76 1.429 1_645 S
C73 C71 1.358 1_565 S
C73 C74 1.374 1_655 S
C74 H69 0.928 . S
C74 C73 1.374 1_455 S
C74 C75 1.404 . S
C75 C74 1.404 . S
C75 C76 1.391 . S
C76 H70 0.930 . S
C76 C72 1.429 1_465 S
C76 C75 1.391 . S
H77 C80 0.931 . S
H78 C83 0.928 . S
H79 C85 0.930 . S
C80 H77 0.931 . S
C80 C81 1.413 . S
C80 C82 1.360 1_665 S
C81 C80 1.413 . S
C81 C85 1.429 1_665 S
C82 C80 1.360 1_445 S
C82 C83 1.372 . S
C83 H78 0.928 . S
C83 C82 1.372 . S
C83 C84 1.404 . S
C84 C83 1.404 . S
C84 C85 1.391 . S
C85 H79 0.930 . S
C85 C81 1.429 1_445 S
C85 C84 1.391 . S
H86 C89 0.931 . S
H87 C92 0.928 . S
H88 C94 0.902 1_554 S
C89 H86 0.931 . S
C89 C90 1.413 . S
C89 C91 1.360 . S
C90 C89 1.413 . S
C90 C94 1.429 . S
C91 C89 1.360 . S
C91 C92 1.372 . S
C92 H87 0.928 . S
C92 C91 1.372 . S
C92 C93 1.404 . S
C93 C92 1.404 . S
C93 C94 1.391 . S
C94 H88 0.902 1_556 S
C94 C90 1.429 . S
C94 C93 1.391 . S
H95 C98 0.931 . S
H96 C101 0.928 . S
H97 C103 0.930 . S
C98 H95 0.931 . S
C98 C99 1.413 . S
C98 C100 1.360 . S
C99 C98 1.413 . S
C99 C103 1.429 . S
C100 C98 1.360 . S
C100 C101 1.372 . S
C101 H96 0.928 . S
C101 C100 1.372 . S
C101 C102 1.404 . S
C102 C101 1.404 . S
C102 C103 1.391 . S
C103 H97 0.930 . S
C103 C99 1.429 . S
C103 C102 1.391 . S
C104 C105 1.391 . S
C104 C106 1.394 . S
C104 H120 0.931 . S
C105 C104 1.391 . S
C105 C109 1.376 . S
C106 C104 1.394 . S
C106 C107 1.369 . S
C106 C110 1.531 . S
C107 C106 1.369 . S
C107 C108 1.410 . S
C107 C115 1.503 . S
C108 C107 1.410 . S
C108 C109 1.392 . S
C108 C111 1.511 . S
C109 C105 1.376 . S
C109 C108 1.392 . S
C109 H121 0.935 . S
C110 C106 1.531 . S
C110 H122 0.960 . S
C110 H123 0.962 . S
C110 H124 0.960 . S
C111 C108 1.511 . S
C111 H125 0.961 1_554 S
C111 H126 0.961 . S
C111 H127 0.961 . S
C112 C113 1.370 . S
C112 C114 1.363 . S
C112 H128 0.931 1_554 S
C113 C112 1.370 . S
C113 C117 1.408 . S
C114 C112 1.363 . S
C114 C115 1.370 . S
C114 C118 1.524 1_554 S
C115 C107 1.503 . S
C115 C114 1.370 . S
C115 C116 1.403 . S
C116 C115 1.403 . S
C116 C117 1.404 . S
C116 C119 1.539 . S
C117 C113 1.408 . S
C117 C116 1.404 . S
C117 H129 0.930 . S
C118 C114 1.524 1_556 S
C118 H130 0.956 . S
C118 H131 0.961 . S
C118 H132 0.961 . S
C119 C116 1.539 . S
C119 H133 0.958 . S
C119 H134 0.961 . S
C119 H135 0.960 . S
H120 C104 0.931 . S
H121 C109 0.935 . S
H122 C110 0.960 . S
H123 C110 0.962 . S
H124 C110 0.960 . S
H125 C111 0.961 1_556 S
H126 C111 0.961 . S
H127 C111 0.961 . S
H128 C112 0.931 1_556 S
H129 C117 0.930 . S
H130 C118 0.956 . S
H131 C118 0.961 . S
H132 C118 0.961 . S
H133 C119 0.958 . S
H134 C119 0.961 . S
H135 C119 0.960 . S
C136 C137 1.391 1_556 S
C136 C138 1.394 . S
C136 H152 0.931 . S
C137 C136 1.391 1_554 S
C137 C141 1.376 . S
C138 C136 1.394 . S
C138 C139 1.369 . S
C138 C142 1.531 . S
C139 C138 1.369 . S
C139 C140 1.410 1_556 S
C139 C147 1.503 . S
C140 C139 1.410 1_554 S
C140 C141 1.392 . S
C140 C143 1.511 . S
C141 C137 1.376 . S
C141 C140 1.392 . S
C141 H153 0.929 . S
C142 C138 1.531 . S
C142 H154 0.960 . S
C142 H155 0.962 . S
C142 H156 0.960 . S
C143 C140 1.511 . S
C143 H157 0.961 . S
C143 H158 0.961 . S
C143 H159 0.961 . S
C144 C145 1.370 . S
C144 C146 1.363 . S
C144 H160 0.931 . S
C145 C144 1.370 . S
C145 C149 1.408 . S
C146 C144 1.363 . S
C146 C147 1.370 . S
C146 C150 1.524 1_556 S
C147 C139 1.503 . S
C147 C146 1.370 . S
C147 C148 1.403 . S
C148 C147 1.403 . S
C148 C149 1.404 . S
C148 C151 1.539 . S
C149 C145 1.408 . S
C149 C148 1.404 . S
C149 H161 0.930 . S
C150 C146 1.524 1_554 S
C150 H162 0.956 1_554 S
C150 H163 0.961 . S
C150 H164 0.961 . S
C151 C148 1.539 . S
C151 H165 0.958 . S
C151 H166 0.961 . S
C151 H167 0.960 . S
H152 C136 0.931 . S
H153 C141 0.929 . S
H154 C142 0.960 . S
H155 C142 0.962 . S
H156 C142 0.960 . S
H157 C143 0.961 . S
H158 C143 0.961 . S
H159 C143 0.961 . S
H160 C144 0.931 . S
H161 C149 0.930 . S
H162 C150 0.956 1_556 S
H163 C150 0.961 . S
H164 C150 0.961 . S
H165 C151 0.958 . S
H166 C151 0.961 . S
H167 C151 0.960 . S
C168 C169 1.391 1_556 S
C168 C170 1.394 1_556 S
C168 H184 0.931 . S
C169 C168 1.391 1_554 S
C169 C173 1.376 . S
C170 C168 1.394 1_554 S
C170 C171 1.369 . S
C170 C174 1.531 1_554 S
C171 C170 1.369 . S
C171 C172 1.410 . S
C171 C179 1.503 . S
C172 C171 1.410 . S
C172 C173 1.392 . S
C172 C175 1.511 . S
C173 C169 1.376 . S
C173 C172 1.392 . S
C173 H185 0.929 . S
C174 C170 1.531 1_556 S
C174 H186 0.960 . S
C174 H187 0.962 . S
C174 H188 0.960 . S
C175 C172 1.511 . S
C175 H189 0.961 . S
C175 H190 0.961 . S
C175 H191 0.961 . S
C176 C177 1.370 . S
C176 C178 1.363 . S
C176 H192 0.931 . S
C177 C176 1.370 . S
C177 C181 1.408 . S
C178 C176 1.363 . S
C178 C179 1.370 . S
C178 C182 1.524 1_554 S
C179 C171 1.503 . S
C179 C178 1.370 . S
C179 C180 1.403 . S
C180 C179 1.403 . S
C180 C181 1.404 . S
C180 C183 1.539 . S
C181 C177 1.408 . S
C181 C180 1.404 . S
C181 H193 0.930 . S
C182 C178 1.524 1_556 S
C182 H194 0.956 . S
C182 H195 0.951 1_556 S
C182 H196 0.961 . S
C183 C180 1.539 . S
C183 H197 0.958 . S
C183 H198 0.961 . S
C183 H199 0.960 . S
H184 C168 0.931 . S
H185 C173 0.929 . S
H186 C174 0.960 . S
H187 C174 0.962 . S
H188 C174 0.960 . S
H189 C175 0.961 . S
H190 C175 0.961 . S
H191 C175 0.961 . S
H192 C176 0.931 . S
H193 C181 0.930 . S
H194 C182 0.956 . S
H195 C182 0.951 1_554 S
H196 C182 0.961 . S
H197 C183 0.958 . S
H198 C183 0.961 . S
H199 C183 0.960 . S
C200 C201 1.391 . S
C200 C202 1.394 . S
C200 H216 0.931 . S
C201 C200 1.391 . S
C201 C205 1.376 1_554 S
C202 C200 1.394 . S
C202 C203 1.369 1_554 S
C202 C206 1.531 . S
C203 C202 1.369 1_556 S
C203 C204 1.410 . S
C203 C211 1.503 . S
C204 C203 1.410 . S
C204 C205 1.392 . S
C204 C207 1.511 . S
C205 C201 1.376 1_556 S
C205 C204 1.392 . S
C205 H217 0.929 . S
C206 C202 1.531 . S
C206 H218 0.960 . S
C206 H219 0.962 . S
C206 H220 0.960 . S
C207 C204 1.511 . S
C207 H221 0.961 . S
C207 H222 0.961 . S
C207 H223 0.961 . S
C208 C209 1.370 . S
C208 C210 1.363 . S
C208 H224 0.931 . S
C209 C208 1.370 . S
C209 C213 1.408 1_556 S
C210 C208 1.363 . S
C210 C211 1.370 . S
C210 C214 1.524 . S
C211 C203 1.503 . S
C211 C210 1.370 . S
C211 C212 1.403 1_556 S
C212 C211 1.403 1_554 S
C212 C213 1.404 . S
C212 C215 1.539 . S
C213 C209 1.408 1_554 S
C213 C212 1.404 . S
C213 H225 0.930 . S
C214 C210 1.524 . S
C214 H226 0.956 . S
C214 H227 0.961 . S
C214 H228 0.961 . S
C215 C212 1.539 . S
C215 H229 0.958 . S
C215 H230 0.961 . S
C215 H231 0.960 . S
H216 C200 0.931 . S
H217 C205 0.929 . S
H218 C206 0.960 . S
H219 C206 0.962 . S
H220 C206 0.960 . S
H221 C207 0.961 . S
H222 C207 0.961 . S
H223 C207 0.961 . S
H224 C208 0.931 . S
H225 C213 0.930 . S
H226 C214 0.956 . S
H227 C214 0.961 . S
H228 C214 0.961 . S
H229 C215 0.958 . S
H230 C215 0.961 . S
H231 C215 0.960 . S
C232 C233 1.391 . S
C232 C234 1.394 . S
C232 H248 0.931 . S
C233 C232 1.391 . S
C233 C237 1.376 . S
C234 C232 1.394 . S
C234 C235 1.369 . S
C234 C238 1.531 . S
C235 C234 1.369 . S
C235 C236 1.410 . S
C235 C243 1.503 . S
C236 C235 1.410 . S
C236 C237 1.392 . S
C236 C239 1.511 . S
C237 C233 1.376 . S
C237 C236 1.392 . S
C237 H249 0.929 . S
C238 C234 1.531 . S
C238 H250 0.960 . S
C238 H251 0.962 . S
C238 H252 0.960 . S
C239 C236 1.511 . S
C239 H253 0.961 . S
C239 H254 0.961 . S
C239 H255 0.961 . S
C240 C241 1.370 . S
C240 C242 1.363 . S
C240 H256 0.931 . S
C241 C240 1.370 . S
C241 C245 1.408 . S
C242 C240 1.363 . S
C242 C243 1.370 . S
C242 C246 1.524 . S
C243 C235 1.503 . S
C243 C242 1.370 . S
C243 C244 1.403 . S
C244 C243 1.403 . S
C244 C245 1.404 . S
C244 C247 1.539 . S
C245 C241 1.408 . S
C245 C244 1.404 . S
C245 H257 0.930 . S
C246 C242 1.524 . S
C246 H258 0.956 . S
C246 H259 0.961 . S
C246 H260 0.961 . S
C247 C244 1.539 . S
C247 H261 0.958 . S
C247 H262 0.961 . S
C247 H263 0.960 . S
H248 C232 0.931 . S
H249 C237 0.929 . S
H250 C238 0.960 . S
H251 C238 0.962 . S
H252 C238 0.960 . S
H253 C239 0.961 . S
H254 C239 0.961 . S
H255 C239 0.961 . S
H256 C240 0.931 . S
H257 C245 0.930 . S
H258 C246 0.956 . S
H259 C246 0.961 . S
H260 C246 0.961 . S
H261 C247 0.958 . S
H262 C247 0.961 . S
H263 C247 0.960 . S
C264 C265 1.391 . S
C264 C266 1.394 . S
C264 H280 0.931 . S
C265 C264 1.391 . S
C265 C269 1.376 . S
C266 C264 1.394 . S
C266 C267 1.369 . S
C266 C270 1.531 . S
C267 C266 1.369 . S
C267 C268 1.410 . S
C267 C275 1.503 . S
C268 C267 1.410 . S
C268 C269 1.392 . S
C268 C271 1.511 . S
C269 C265 1.376 . S
C269 C268 1.392 . S
C269 H281 0.929 . S
C270 C266 1.531 . S
C270 H282 0.960 . S
C270 H283 0.962 . S
C270 H284 0.960 . S
C271 C268 1.511 . S
C271 H285 0.961 . S
C271 H286 0.961 . S
C271 H287 0.961 . S
C272 C273 1.370 . S
C272 C274 1.363 . S
C272 H288 0.931 . S
C273 C272 1.370 . S
C273 C277 1.408 . S
C274 C272 1.363 . S
C274 C275 1.370 . S
C274 C278 1.524 . S
C275 C267 1.503 . S
C275 C274 1.370 . S
C275 C276 1.403 . S
C276 C275 1.403 . S
C276 C277 1.404 . S
C276 C279 1.539 . S
C277 C273 1.408 . S
C277 C276 1.404 . S
C277 H289 0.930 . S
C278 C274 1.524 . S
C278 H290 0.956 . S
C278 H291 0.961 . S
C278 H292 0.961 . S
C279 C276 1.539 . S
C279 H293 0.958 . S
C279 H294 0.961 . S
C279 H295 0.960 . S
H280 C264 0.931 . S
H281 C269 0.929 . S
H282 C270 0.960 . S
H283 C270 0.962 . S
H284 C270 0.960 . S
H285 C271 0.961 . S
H286 C271 0.961 . S
H287 C271 0.961 . S
H288 C272 0.931 . S
H289 C277 0.930 . S
H290 C278 0.956 . S
H291 C278 0.961 . S
H292 C278 0.961 . S
H293 C279 0.958 . S
H294 C279 0.961 . S
H295 C279 0.960 . S
C296 C297 1.391 . S
C296 C298 1.394 . S
C296 H312 0.931 . S
C297 C296 1.391 . S
C297 C301 1.376 . S
C298 C296 1.394 . S
C298 C299 1.369 . S
C298 C302 1.531 . S
C299 C298 1.369 . S
C299 C300 1.410 . S
C299 C307 1.503 . S
C300 C299 1.410 . S
C300 C301 1.392 . S
C300 C303 1.511 . S
C301 C297 1.376 . S
C301 C300 1.392 . S
C301 H313 0.929 . S
C302 C298 1.531 . S
C302 H314 0.960 . S
C302 H315 0.962 . S
C302 H316 0.960 . S
C303 C300 1.511 . S
C303 H317 0.961 . S
C303 H318 0.961 . S
C303 H319 0.961 . S
C304 C305 1.370 . S
C304 C306 1.363 . S
C304 H320 0.931 . S
C305 C304 1.370 . S
C305 C309 1.408 . S
C306 C304 1.363 . S
C306 C307 1.370 . S
C306 C310 1.524 . S
C307 C299 1.503 . S
C307 C306 1.370 . S
C307 C308 1.403 . S
C308 C307 1.403 . S
C308 C309 1.404 . S
C308 C311 1.539 . S
C309 C305 1.408 . S
C309 C308 1.404 . S
C309 H321 0.930 . S
C310 C306 1.524 . S
C310 H322 0.956 . S
C310 H323 0.961 . S
C310 H324 0.961 . S
C311 C308 1.539 . S
C311 H325 0.958 . S
C311 H326 0.961 . S
C311 H327 0.960 . S
H312 C296 0.931 . S
H313 C301 0.929 . S
H314 C302 0.960 . S
H315 C302 0.962 . S
H316 C302 0.960 . S
H317 C303 0.961 . S
H318 C303 0.961 . S
H319 C303 0.961 . S
H320 C304 0.931 . S
H321 C309 0.930 . S
H322 C310 0.956 . S
H323 C310 0.961 . S
H324 C310 0.961 . S
H325 C311 0.958 . S
H326 C311 0.961 . S
H327 C311 0.960 . S
C328 C329 1.391 . S
C328 C330 1.394 . S
C328 H344 0.931 . S
C329 C328 1.391 . S
C329 C333 1.376 . S
C330 C328 1.394 . S
C330 C331 1.369 . S
C330 C334 1.531 . S
C331 C330 1.369 . S
C331 C332 1.410 . S
C331 C339 1.503 . S
C332 C331 1.410 . S
C332 C333 1.392 . S
C332 C335 1.511 . S
C333 C329 1.376 . S
C333 C332 1.392 . S
C333 H345 0.929 . S
C334 C330 1.531 . S
C334 H346 0.960 . S
C334 H347 0.962 . S
C334 H348 0.960 . S
C335 C332 1.511 . S
C335 H349 0.961 . S
C335 H350 0.961 . S
C335 H351 0.961 . S
C336 C337 1.370 . S
C336 C338 1.363 . S
C336 H352 0.931 . S
C337 C336 1.370 . S
C337 C341 1.408 . S
C338 C336 1.363 . S
C338 C339 1.370 . S
C338 C342 1.524 . S
C339 C331 1.503 . S
C339 C338 1.370 . S
C339 C340 1.403 . S
C340 C339 1.403 . S
C340 C341 1.404 . S
C340 C343 1.539 . S
C341 C337 1.408 . S
C341 C340 1.404 . S
C341 H353 0.930 . S
C342 C338 1.524 . S
C342 H354 0.956 . S
C342 H355 0.961 . S
C342 H356 0.961 . S
C343 C340 1.539 . S
C343 H357 0.958 . S
C343 H358 0.961 . S
C343 H359 0.960 . S
H344 C328 0.931 . S
H345 C333 0.929 . S
H346 C334 0.960 . S
H347 C334 0.962 . S
H348 C334 0.960 . S
H349 C335 0.961 . S
H350 C335 0.961 . S
H351 C335 0.961 . S
H352 C336 0.931 . S
H353 C341 0.930 . S
H354 C342 0.956 . S
H355 C342 0.961 . S
H356 C342 0.961 . S
H357 C343 0.958 . S
H358 C343 0.961 . S
H359 C343 0.960 . S
C360 C361 1.392 1_655 S
C360 C362 1.394 . S
C360 H376 0.931 . S
C361 C360 1.392 1_455 S
C361 C365 1.375 1_565 S
C362 C360 1.394 . S
C362 C363 1.369 1_655 S
C362 C366 1.531 . S
C363 C362 1.369 1_455 S
C363 C364 1.410 1_565 S
C363 C371 1.503 . S
C364 C363 1.410 1_545 S
C364 C365 1.392 . S
C364 C367 1.511 . S
C365 C361 1.375 1_545 S
C365 C364 1.392 . S
C365 H377 0.929 . S
C366 C362 1.531 . S
C366 H378 0.960 . S
C366 H379 0.962 . S
C366 H380 0.960 . S
C367 C364 1.511 . S
C367 H381 0.961 . S
C367 H382 0.961 . S
C367 H383 0.961 1_545 S
C368 C369 1.355 1_645 S
C368 C370 1.363 . S
C368 H384 0.931 . S
C369 C368 1.355 1_465 S
C369 C373 1.425 . S
C370 C368 1.363 . S
C370 C371 1.370 1_645 S
C370 C374 1.524 . S
C371 C363 1.503 . S
C371 C370 1.370 1_465 S
C371 C372 1.403 . S
C372 C371 1.403 . S
C372 C373 1.404 . S
C372 C375 1.539 . S
C373 C369 1.425 . S
C373 C372 1.404 . S
C373 H385 0.930 . S
C374 C370 1.524 . S
C374 H386 0.956 . S
C374 H387 0.961 1_655 S
C374 H388 0.961 . S
C375 C372 1.539 . S
C375 H389 0.958 . S
C375 H390 0.961 . S
C375 H391 0.960 . S
H376 C360 0.931 . S
H377 C365 0.929 . S
H378 C366 0.960 . S
H379 C366 0.962 . S
H380 C366 0.960 . S
H381 C367 0.961 . S
H382 C367 0.961 . S
H383 C367 0.961 1_565 S
H384 C368 0.931 . S
H385 C373 0.930 . S
H386 C374 0.956 . S
H387 C374 0.961 1_455 S
H388 C374 0.961 . S
H389 C375 0.958 . S
H390 C375 0.961 . S
H391 C375 0.960 . S
C392 C393 1.391 1_565 S
C392 C394 1.394 . S
C392 H408 0.931 . S
C393 C392 1.391 1_545 S
C393 C397 1.376 1_455 S
C394 C392 1.394 . S
C394 C395 1.369 . S
C394 C398 1.531 . S
C395 C394 1.369 . S
C395 C396 1.410 1_465 S
C395 C403 1.503 . S
C396 C395 1.410 1_645 S
C396 C397 1.392 . S
C396 C399 1.511 . S
C397 C393 1.376 1_655 S
C397 C396 1.392 . S
C397 H409 0.929 . S
C398 C394 1.531 . S
C398 H410 0.960 . S
C398 H411 0.962 . S
C398 H412 0.960 . S
C399 C396 1.511 . S
C399 H413 0.961 . S
C399 H414 0.961 . S
C399 H415 0.961 . S
C400 C401 1.370 . S
C400 C402 1.363 . S
C400 H416 0.931 . S
C401 C400 1.370 . S
C401 C405 1.408 1_445 S
C402 C400 1.363 . S
C402 C403 1.370 1_545 S
C402 C406 1.524 . S
C403 C395 1.503 . S
C403 C402 1.370 1_565 S
C403 C404 1.403 1_455 S
C404 C403 1.403 1_655 S
C404 C405 1.404 . S
C404 C407 1.539 . S
C405 C401 1.408 1_665 S
C405 C404 1.404 . S
C405 H417 0.930 . S
C406 C402 1.524 . S
C406 H418 0.956 . S
C406 H419 0.961 . S
C406 H420 0.961 . S
C407 C404 1.539 . S
C407 H421 0.958 . S
C407 H422 0.961 . S
C407 H423 0.960 . S
H408 C392 0.931 . S
H409 C397 0.929 . S
H410 C398 0.960 . S
H411 C398 0.962 . S
H412 C398 0.960 . S
H413 C399 0.961 . S
H414 C399 0.961 . S
H415 C399 0.961 . S
H416 C400 0.931 . S
H417 C405 0.930 . S
H418 C406 0.956 . S
H419 C406 0.961 . S
H420 C406 0.961 . S
H421 C407 0.958 . S
H422 C407 0.961 . S
H423 C407 0.960 . S
C424 C425 1.391 . S
C424 C426 1.394 . S
C424 H440 0.931 . S
C425 C424 1.391 . S
C425 C429 1.376 . S
C426 C424 1.394 . S
C426 C427 1.369 . S
C426 C430 1.531 . S
C427 C426 1.369 . S
C427 C428 1.410 . S
C427 C435 1.503 . S
C428 C427 1.410 . S
C428 C429 1.392 . S
C428 C431 1.511 . S
C429 C425 1.376 . S
C429 C428 1.392 . S
C429 H441 0.929 . S
C430 C426 1.531 . S
C430 H442 0.960 . S
C430 H443 0.962 . S
C430 H444 0.960 . S
C431 C428 1.511 . S
C431 H445 0.961 . S
C431 H446 0.961 . S
C431 H447 0.961 . S
C432 C433 1.370 . S
C432 C434 1.363 . S
C432 H448 0.931 . S
C433 C432 1.370 . S
C433 C437 1.408 . S
C434 C432 1.363 . S
C434 C435 1.370 . S
C434 C438 1.524 . S
C435 C427 1.503 . S
C435 C434 1.370 . S
C435 C436 1.403 . S
C436 C435 1.403 . S
C436 C437 1.404 . S
C436 C439 1.539 . S
C437 C433 1.408 . S
C437 C436 1.404 . S
C437 H449 0.930 . S
C438 C434 1.524 . S
C438 H450 0.956 . S
C438 H451 0.961 . S
C438 H452 0.961 . S
C439 C436 1.539 . S
C439 H453 0.958 . S
C439 H454 0.961 . S
C439 H455 0.960 . S
H440 C424 0.931 . S
H441 C429 0.929 . S
H442 C430 0.960 . S
H443 C430 0.962 . S
H444 C430 0.960 . S
H445 C431 0.961 . S
H446 C431 0.961 . S
H447 C431 0.961 . S
H448 C432 0.931 . S
H449 C437 0.930 . S
H450 C438 0.956 . S
H451 C438 0.961 . S
H452 C438 0.961 . S
H453 C439 0.958 . S
H454 C439 0.961 . S
H455 C439 0.960 . S
C456 C457 1.391 . S
C456 C458 1.394 . S
C456 H472 0.931 . S
C457 C456 1.391 . S
C457 C461 1.376 . S
C458 C456 1.394 . S
C458 C459 1.369 . S
C458 C462 1.531 . S
C459 C458 1.369 . S
C459 C460 1.410 . S
C459 C467 1.503 . S
C460 C459 1.410 . S
C460 C461 1.392 . S
C460 C463 1.511 . S
C461 C457 1.376 . S
C461 C460 1.392 . S
C461 H473 0.929 . S
C462 C458 1.531 . S
C462 H474 0.960 . S
C462 H475 0.962 . S
C462 H476 0.960 . S
C463 C460 1.511 . S
C463 H477 0.961 . S
C463 H478 0.961 . S
C463 H479 0.961 . S
C464 C465 1.370 . S
C464 C466 1.363 . S
C464 H480 0.931 . S
C465 C464 1.370 . S
C465 C469 1.408 . S
C466 C464 1.363 . S
C466 C467 1.370 . S
C466 C470 1.524 . S
C467 C459 1.503 . S
C467 C466 1.370 . S
C467 C468 1.403 . S
C468 C467 1.403 . S
C468 C469 1.404 . S
C468 C471 1.539 . S
C469 C465 1.408 . S
C469 C468 1.404 . S
C469 H481 0.930 . S
C470 C466 1.524 . S
C470 H482 0.956 . S
C470 H483 0.961 . S
C470 H484 0.961 . S
C471 C468 1.539 . S
C471 H485 0.958 . S
C471 H486 0.961 . S
C471 H487 0.960 . S
H472 C456 0.931 . S
H473 C461 0.929 . S
H474 C462 0.960 . S
H475 C462 0.962 . S
H476 C462 0.960 . S
H477 C463 0.961 . S
H478 C463 0.961 . S
H479 C463 0.961 . S
H480 C464 0.931 . S
H481 C469 0.930 . S
H482 C470 0.956 . S
H483 C470 0.961 . S
H484 C470 0.961 . S
H485 C471 0.958 . S
H486 C471 0.961 . S
H487 C471 0.960 . S
C113 C99 1.346 . S
C105 C29 1.351 . S
C137 C8 1.361 . S
C145 C90 1.357 . S
C169 C0 1.360 . S
C177 C102 1.348 . S
C201 C17 1.377 . S
C209 C93 1.360 . S
C233 C63 1.373 . S
C241 C81 1.358 . S
C265 C42 1.370 . S
C273 C72 1.354 . S
C305 C84 1.345 . S
C297 C34 1.356 . S
C337 C75 1.361 . S
C329 C51 1.378 . S
C361 C4 1.487 1_565 S
C369 C73 1.489 1_455 S
C393 C13 1.477 . S
C401 C82 1.490 . S
C433 C91 1.490 . S
C425 C38 1.491 . S
C457 C47 1.478 . S
C465 C100 1.489 . S
