# Generated by pormake.
# Topology pyr, (3,6)-cn, num edge types: 1
# Building blocks:
#     Node 0, Type 0, BuildingBlock: BETDIP_clean_linker_0, # of connection points: 3
#     Node 1, Type 0, BuildingBlock: BETDIP_clean_linker_0, # of connection points: 3
#     Node 2, Type 0, BuildingBlock: BETDIP_clean_linker_0, # of connection points: 3
#     Node 3, Type 0, BuildingBlock: BETDIP_clean_linker_0, # of connection points: 3
#     Node 4, Type 0, BuildingBlock: BETDIP_clean_linker_0, # of connection points: 3
#     Node 5, Type 0, BuildingBlock: BETDIP_clean_linker_0, # of connection points: 3
#     Node 6, Type 0, BuildingBlock: BETDIP_clean_linker_0, # of connection points: 3
#     Node 7, Type 0, BuildingBlock: BETDIP_clean_linker_0, # of connection points: 3
#     Node 8, Type 1, BuildingBlock: BETDIP_clean_sbu_0, # of connection points: 6
#     Node 9, Type 1, BuildingBlock: BETDIP_clean_sbu_0, # of connection points: 6
#     Node 10, Type 1, BuildingBlock: BETDIP_clean_sbu_0, # of connection points: 6
#     Node 11, Type 1, BuildingBlock: BETDIP_clean_sbu_0, # of connection points: 6
#     Edge 12, Type (0, 1), BuildingBlock: UVAHIK_clean_linker_0, # of connection points: 2
#     Edge 13, Type (0, 1), BuildingBlock: UVAHIK_clean_linker_0, # of connection points: 2
#     Edge 14, Type (0, 1), BuildingBlock: UVAHIK_clean_linker_0, # of connection points: 2
#     Edge 15, Type (0, 1), BuildingBlock: UVAHIK_clean_linker_0, # of connection points: 2
#     Edge 16, Type (0, 1), BuildingBlock: UVAHIK_clean_linker_0, # of connection points: 2
#     Edge 17, Type (0, 1), BuildingBlock: UVAHIK_clean_linker_0, # of connection points: 2
#     Edge 18, Type (0, 1), BuildingBlock: UVAHIK_clean_linker_0, # of connection points: 2
#     Edge 19, Type (0, 1), BuildingBlock: UVAHIK_clean_linker_0, # of connection points: 2
#     Edge 20, Type (0, 1), BuildingBlock: UVAHIK_clean_linker_0, # of connection points: 2
#     Edge 21, Type (0, 1), BuildingBlock: UVAHIK_clean_linker_0, # of connection points: 2
#     Edge 22, Type (0, 1), BuildingBlock: UVAHIK_clean_linker_0, # of connection points: 2
#     Edge 23, Type (0, 1), BuildingBlock: UVAHIK_clean_linker_0, # of connection points: 2
#     Edge 24, Type (0, 1), BuildingBlock: UVAHIK_clean_linker_0, # of connection points: 2
#     Edge 25, Type (0, 1), BuildingBlock: UVAHIK_clean_linker_0, # of connection points: 2
#     Edge 26, Type (0, 1), BuildingBlock: UVAHIK_clean_linker_0, # of connection points: 2
#     Edge 27, Type (0, 1), BuildingBlock: UVAHIK_clean_linker_0, # of connection points: 2
#     Edge 28, Type (0, 1), BuildingBlock: UVAHIK_clean_linker_0, # of connection points: 2
#     Edge 29, Type (0, 1), BuildingBlock: UVAHIK_clean_linker_0, # of connection points: 2
#     Edge 30, Type (0, 1), BuildingBlock: UVAHIK_clean_linker_0, # of connection points: 2
#     Edge 31, Type (0, 1), BuildingBlock: UVAHIK_clean_linker_0, # of connection points: 2
#     Edge 32, Type (0, 1), BuildingBlock: UVAHIK_clean_linker_0, # of connection points: 2
#     Edge 33, Type (0, 1), BuildingBlock: UVAHIK_clean_linker_0, # of connection points: 2
#     Edge 34, Type (0, 1), BuildingBlock: UVAHIK_clean_linker_0, # of connection points: 2
#     Edge 35, Type (0, 1), BuildingBlock: UVAHIK_clean_linker_0, # of connection points: 2
# Relax obj value: 0.138
# Max RMSD: 0.228
# Mean RMSD: 0.150
data_MOF--net-pyr--node1-BETDIP_clean_sbu_0--node2-BETDIP_clean_linker_0--edge1-UVAHIK_clean_linker_0
_symmetry_space_group_name_H-M    P1
_symmetry_Int_Tables_number       1
_symmetry_cell_setting            triclinic
loop_
_symmetry_equiv_pos_as_xyz
'x, y, z'
_cell_length_a     45.801405
_cell_length_b     50.076398
_cell_length_c     51.288646
_cell_angle_alpha  89.91326
_cell_angle_beta   90.559146
_cell_angle_gamma 109.5171
loop_
_atom_site_label
_atom_site_type_symbol
_atom_site_fract_x
_atom_site_fract_y
_atom_site_fract_z
_atom_type_partial_charge
H0 H 0.28809 0.26903 0.22589 0.0
H1 H 0.33807 0.25713 0.15877 0.0
H2 H 0.32222 0.19887 0.2228 0.0
H3 H 0.31695 0.28555 0.13894 0.0
C4 C 0.30762 0.29664 0.15298 0.0
C5 C 0.30079 0.25732 0.21598 0.0
C6 C 0.30377 0.23291 0.22745 0.0
C7 C 0.31244 0.26598 0.19108 0.0
C8 C 0.32851 0.25062 0.17785 0.0
C9 C 0.33188 0.22623 0.18921 0.0
C10 C 0.31941 0.21753 0.21393 0.0
N11 N 0.30615 0.28947 0.17987 0.0
H12 H 0.17684 0.79104 0.72336 0.0
H13 H 0.17552 0.73924 0.65638 0.0
H14 H 0.23951 0.7438 0.71964 0.0
H15 H 0.13216 0.75026 0.64436 0.0
C16 C 0.13548 0.77046 0.65381 0.0
C17 C 0.18538 0.77605 0.71344 0.0
C18 C 0.20942 0.76837 0.72461 0.0
C19 C 0.17296 0.76573 0.68905 0.0
C20 C 0.18436 0.74684 0.67559 0.0
C21 C 0.20798 0.73827 0.68688 0.0
C22 C 0.2202 0.74905 0.71146 0.0
N23 N 0.15127 0.77727 0.6781 0.0
H24 H 0.67984 0.39719 0.82916 0.0
H25 H 0.60121 0.31985 0.8276 0.0
H26 H 0.67393 0.33191 0.8849 0.0
H27 H 0.66655 0.40261 0.78893 0.0
C28 C 0.64191 0.39193 0.78603 0.0
C29 C 0.66748 0.3763 0.83658 0.0
C30 C 0.68024 0.36635 0.85809 0.0
C31 C 0.63921 0.35933 0.82489 0.0
C32 C 0.62324 0.33261 0.836 0.0
C33 C 0.63529 0.32254 0.858 0.0
C34 C 0.66405 0.33952 0.86839 0.0
N35 N 0.62594 0.36859 0.80252 0.0
H36 H 0.82914 0.65464 0.32776 0.0
H37 H 0.90339 0.73347 0.31606 0.0
H38 H 0.83926 0.72564 0.37842 0.0
H39 H 0.89853 0.71675 0.27384 0.0
C40 C 0.89331 0.69402 0.27565 0.0
C41 C 0.84134 0.67634 0.33358 0.0
C42 C 0.83066 0.68821 0.35474 0.0
C43 C 0.86706 0.69252 0.3191 0.0
C44 C 0.88306 0.72086 0.32655 0.0
C45 C 0.87272 0.73298 0.34779 0.0
C46 C 0.84665 0.71649 0.36164 0.0
N47 N 0.87618 0.67943 0.29742 0.0
H48 H 0.66113 0.78501 0.89512 0.0
H49 H 0.70587 0.76338 0.82916 0.0
H50 H 0.67541 0.83579 0.82567 0.0
H51 H 0.6855 0.71864 0.84756 0.0
C52 C 0.69278 0.72486 0.86752 0.0
C53 C 0.66927 0.78902 0.87524 0.0
C54 C 0.66584 0.81203 0.86143 0.0
C55 C 0.68296 0.77099 0.86356 0.0
C56 C 0.69431 0.77666 0.83803 0.0
C57 C 0.69186 0.80008 0.82416 0.0
C58 C 0.67695 0.81732 0.83586 0.0
N59 N 0.68722 0.74868 0.87856 0.0
H60 H 0.84921 0.26976 0.33427 0.0
H61 H 0.83468 0.31211 0.40322 0.0
H62 H 0.77377 0.30266 0.33708 0.0
H63 H 0.85885 0.2853 0.4231 0.0
C64 C 0.87243 0.27838 0.40907 0.0
C65 C 0.83618 0.28096 0.34445 0.0
C66 C 0.81059 0.28536 0.3323 0.0
C67 C 0.84446 0.2897 0.37016 0.0
C68 C 0.82795 0.30449 0.3836 0.0
C69 C 0.80286 0.30993 0.37143 0.0
C70 C 0.79422 0.30002 0.34592 0.0
N71 N 0.86863 0.28195 0.38192 0.0
H72 H 0.32918 0.65024 0.2259 0.0
H73 H 0.4074 0.72726 0.23472 0.0
H74 H 0.33845 0.72144 0.17569 0.0
H75 H 0.42117 0.70583 0.2681 0.0
C76 C 0.40514 0.68468 0.27157 0.0
C77 C 0.34191 0.67168 0.21982 0.0
C78 C 0.33036 0.6839 0.19911 0.0
C79 C 0.36939 0.68694 0.23327 0.0
C80 C 0.38607 0.71498 0.2251 0.0
C81 C 0.3747 0.7276 0.20441 0.0
C82 C 0.34685 0.71193 0.19184 0.0
N83 N 0.37875 0.67319 0.25484 0.0
H84 H 0.10058 0.30364 0.73616 0.0
H85 H 0.1757 0.38269 0.72817 0.0
H86 H 0.15761 0.31951 0.66798 0.0
H87 H 0.1735 0.38267 0.77193 0.0
C88 C 0.14889 0.37445 0.77605 0.0
C89 C 0.11986 0.31743 0.72519 0.0
C90 C 0.12703 0.30866 0.70078 0.0
C91 C 0.13747 0.34399 0.73553 0.0
C92 C 0.16245 0.36181 0.72099 0.0
C93 C 0.16988 0.3532 0.69655 0.0
C94 C 0.15187 0.32663 0.68659 0.0
N95 N 0.12889 0.35256 0.76003 0.0
Tb96 Tb 0.96367 1.00349 0.52897 0.0
Tb97 Tb 0.03141 0.03419 0.52502 0.0
C98 C 0.91014 0.96722 0.5304 0.0
C99 C 0.89273 0.94763 0.55046 0.0
C100 C 0.86187 0.9309 0.54577 0.0
C101 C 0.84441 0.91388 0.56557 0.0
C102 C 0.85761 0.91339 0.5904 0.0
C103 C 0.88887 0.92975 0.59473 0.0
C104 C 0.90626 0.94673 0.57494 0.0
C105 C 0.98623 0.04553 0.56268 0.0
C106 C 0.01193 0.98082 0.5591 0.0
C107 C 0.08463 0.07079 0.52359 0.0
C108 C 0.10185 0.08867 0.50241 0.0
C109 C 0.13224 0.10688 0.50657 0.0
C110 C 0.14957 0.12192 0.48569 0.0
C111 C 0.13672 0.1187 0.46039 0.0
C112 C 0.10586 0.10109 0.45656 0.0
C113 C 0.08856 0.08622 0.4774 0.0
C114 C 0.00907 0.9925 0.49092 0.0
C115 C 0.98309 0.05681 0.4947 0.0
O116 O 0.93418 0.96207 0.52103 0.0
O117 O 0.9163 0.99403 0.53581 0.0
O118 O 0.99902 0.02815 0.55561 0.0
O119 O 0.95883 0.03828 0.55245 0.0
O120 O 0.98439 0.97453 0.54774 0.0
O121 O 0.03262 1.00646 0.55719 0.0
O122 O 0.06011 0.0762 0.53149 0.0
O123 O 0.07914 0.04368 0.5203 0.0
O124 O 0.99611 1.00961 0.49836 0.0
O125 O 0.03676 1.00022 0.50062 0.0
O126 O 0.01076 0.06294 0.50581 0.0
O127 O 0.9621 0.03136 0.497 0.0
H128 H 0.85112 0.93141 0.52694 0.0
H129 H 0.82053 0.90127 0.56152 0.0
H130 H 0.89963 0.9302 0.6137 0.0
H131 H 0.93005 0.95972 0.57892 0.0
H132 H 0.14281 0.10889 0.52578 0.0
H133 H 0.17336 0.13519 0.48916 0.0
H134 H 0.09523 0.09851 0.43734 0.0
H135 H 0.06507 0.07222 0.47389 0.0
Tb136 Tb 0.54395 0.04213 0.04164 0.0
Tb137 Tb 0.47567 1.00616 0.01941 0.0
C138 C 0.59614 0.07915 0.04784 0.0
C139 C 0.61435 0.09625 0.06945 0.0
C140 C 0.60114 0.1104 0.08698 0.0
C141 C 0.61921 0.12733 0.10676 0.0
C142 C 0.65067 0.13017 0.10952 0.0
C143 C 0.66368 0.11564 0.09221 0.0
C144 C 0.64568 0.09892 0.07227 0.0
C145 C 0.51431 0.99709 0.07142 0.0
C146 C 0.48497 0.05401 0.06278 0.0
C147 C 0.42416 0.96816 1.01324 0.0
C148 C 0.40555 0.9532 0.99105 0.0
C149 C 0.37962 0.92916 0.99545 0.0
C150 C 0.36262 0.91373 0.97443 0.0
C151 C 0.37134 0.9222 0.94869 0.0
C152 C 0.39722 0.94656 0.94441 0.0
C153 C 0.41427 0.9619 0.96546 0.0
C154 C 0.50468 0.0518 0.99039 0.0
C155 C 0.53488 0.99497 0.99753 0.0
O156 O 0.57131 0.0848 0.04053 0.0
O157 O 0.59162 0.05186 0.04869 0.0
O158 O 0.5057 1.00606 0.05086 0.0
O159 O 0.54168 0.01501 0.07655 0.0
O160 O 0.51543 0.06382 0.05958 0.0
O161 O 0.46642 0.03008 0.05209 0.0
O162 O 0.45013 0.963 1.01711 0.0
O163 O 0.42756 0.99518 1.01535 0.0
O164 O 0.51356 0.04235 1.01052 0.0
O165 O 0.47736 0.03392 0.98498 0.0
O166 O 0.50436 0.98556 1.00007 0.0
O167 O 0.55363 0.01789 1.0095 0.0
H168 H 0.57693 0.1085 0.08536 0.0
H169 H 0.60852 0.13802 0.12005 0.0
H170 H 0.68792 0.11762 0.0938 0.0
H171 H 0.65628 0.08821 0.05892 0.0
H172 H 0.37272 0.92215 1.01515 0.0
H173 H 0.34262 0.89523 0.9783 0.0
H174 H 0.40471 0.95338 0.9248 0.0
H175 H 0.43449 0.98029 0.96179 0.0
Tb176 Tb 0.50156 0.54876 0.53862 0.0
Tb177 Tb 0.50269 0.49455 0.51783 0.0
C178 C 0.49966 0.59782 0.54567 0.0
C179 C 0.4752 0.60877 0.55471 0.0
C180 C 0.44995 0.60794 0.53846 0.0
C181 C 0.42613 0.61685 0.54776 0.0
C182 C 0.42699 0.62673 0.57348 0.0
C183 C 0.45256 0.62818 0.58949 0.0
C184 C 0.47647 0.61943 0.58016 0.0
C185 C 0.51781 0.51677 0.57331 0.0
C186 C 0.44293 0.4971 0.54807 0.0
C187 C 0.50407 0.44534 0.51061 0.0
C188 C 0.52812 0.43383 0.5017 0.0
C189 C 0.55414 0.43573 0.51738 0.0
C190 C 0.57732 0.42588 0.50818 0.0
C191 C 0.57504 0.41403 0.48312 0.0
C192 C 0.54876 0.41165 0.46767 0.0
C193 C 0.52549 0.42132 0.47692 0.0
C194 C 0.48704 0.52688 0.48313 0.0
C195 C 0.56142 0.54611 0.50855 0.0
O196 O 0.49517 0.58511 0.52297 0.0
O197 O 0.51061 0.58434 0.56298 0.0
O198 O 0.52609 0.52033 0.54974 0.0
O199 O 0.50121 0.53257 0.57833 0.0
O200 O 0.45332 0.52491 0.54572 0.0
O201 O 0.45952 0.48152 0.5402 0.0
O202 O 0.50861 0.45796 0.53335 0.0
O203 O 0.49365 0.45914 0.49324 0.0
O204 O 0.47834 0.52306 0.5066 0.0
O205 O 0.5037 0.51112 0.47823 0.0
O206 O 0.55101 0.5183 0.51102 0.0
O207 O 0.54481 0.56174 0.51629 0.0
H208 H 0.44826 0.59999 0.51868 0.0
H209 H 0.40665 0.61535 0.53501 0.0
H210 H 0.45411 0.63614 0.60927 0.0
H211 H 0.49578 0.62062 0.59302 0.0
H212 H 0.55689 0.44514 0.53663 0.0
H213 H 0.59739 0.42817 0.52046 0.0
H214 H 0.54615 0.40222 0.44842 0.0
H215 H 0.50556 0.41933 0.46454 0.0
Tb216 Tb 0.011 0.55055 1.00694 0.0
Tb217 Tb 0.00499 0.50171 0.0423 0.0
C218 C 1.00096 0.58689 0.97751 0.0
C219 C 0.9763 0.59915 0.97354 0.0
C220 C 0.95353 0.59649 0.99242 0.0
C221 C 0.92873 0.60614 0.98721 0.0
C222 C 0.92618 0.61828 0.96292 0.0
C223 C 0.94939 0.62135 0.94429 0.0
C224 C 0.97423 0.61187 0.94958 0.0
C225 C 0.0616 0.55509 0.03471 0.0
C226 C 0.97817 0.54703 0.06228 0.0
C227 C 0.01548 0.46517 0.07112 0.0
C228 C 0.03991 0.45234 0.07316 0.0
C229 C 0.067 0.46268 0.05838 0.0
C230 C 0.091 0.45156 0.06184 0.0
C231 C 0.08837 0.43015 0.08033 0.0
C232 C 0.06093 0.41955 0.09475 0.0
C233 C 0.03689 0.43055 0.09115 0.0
C234 C 0.95434 0.49741 1.01467 0.0
C235 C 0.03788 0.50522 0.987 0.0
O236 O 0.99325 0.56 0.97172 0.0
O237 O 0.01699 0.59327 0.99926 0.0
O238 O 0.03394 0.54499 0.04209 0.0
O239 O 0.06165 0.56503 1.01135 0.0
O240 O 0.98079 0.55659 0.03799 0.0
O241 O 0.98872 0.52658 0.06937 0.0
O242 O 0.02423 0.49218 0.07672 0.0
O243 O 0.9978 0.45882 0.05027 0.0
O244 O 0.982 0.50728 1.0072 0.0
O245 O 0.95432 0.48754 0.03807 0.0
O246 O 0.03509 0.49553 1.01123 0.0
O247 O 0.02732 0.52566 0.97997 0.0
H248 H 0.95451 0.58643 1.01092 0.0
H249 H 0.91105 0.60329 1.00184 0.0
H250 H 0.94822 0.63093 0.92553 0.0
H251 H 0.99153 0.61395 0.93474 0.0
H252 H 0.06993 0.47978 0.04464 0.0
H253 H 0.11197 0.46033 0.05065 0.0
H254 H 0.05813 0.40284 0.10892 0.0
H255 H 0.01615 0.42239 0.10275 0.0
C256 C 0.29163 0.2416 0.27371 0.0
C257 C 0.28931 0.22268 0.25295 0.0
C258 C 0.27751 0.23179 0.29755 0.0
C259 C 0.24482 0.16603 0.33614 0.0
H260 H 0.20056 0.20864 0.37213 0.0
C261 C 0.15512 0.11648 0.41502 0.0
C262 C 0.15586 0.13228 0.43777 0.0
C263 C 0.17343 0.12879 0.39374 0.0
C264 C 0.21317 0.19671 0.36247 0.0
H265 H 0.26983 0.17881 0.2407 0.0
H266 H 0.24503 0.16176 0.28206 0.0
H267 H 0.22901 0.22785 0.33247 0.0
H268 H 0.17617 0.17342 0.45606 0.0
H269 H 0.20827 0.19509 0.41861 0.0
H270 H 0.22836 0.13459 0.36577 0.0
C271 C 0.25836 0.18405 0.28023 0.0
C272 C 0.2295 0.20771 0.33978 0.0
C273 C 0.27253 0.19382 0.25649 0.0
C274 C 0.17526 0.16073 0.43879 0.0
C275 C 0.19343 0.17316 0.41735 0.0
C276 C 0.22838 0.155 0.35869 0.0
C277 C 0.2607 0.20288 0.30107 0.0
C278 C 0.24513 0.19228 0.32615 0.0
C279 C 0.1928 0.15722 0.39468 0.0
C280 C 0.21203 0.17002 0.37187 0.0
H281 H 0.30464 0.26393 0.27159 0.0
H282 H 0.28004 0.2468 0.3133 0.0
H283 H 0.25717 0.15388 0.32646 0.0
H284 H 0.14067 0.09441 0.41377 0.0
H285 H 0.17219 0.11608 0.37643 0.0
C286 C 0.23309 0.81222 0.75112 0.0
C287 C 0.22516 0.7827 0.74866 0.0
C288 C 0.24885 0.82618 0.77319 0.0
C289 C 0.26568 0.81602 0.84172 0.0
H290 H 0.33417 0.88595 0.83179 0.0
C291 C 0.34477 0.87568 0.92656 0.0
C292 C 0.35387 0.90541 0.92636 0.0
C293 C 0.32902 0.85988 0.90521 0.0
C294 C 0.31488 0.86664 0.83493 0.0
H295 H 0.22731 0.7446 0.76745 0.0
H296 H 0.2551 0.76917 0.80627 0.0
H297 H 0.30683 0.85959 0.79398 0.0
H298 H 0.35292 0.94186 0.90398 0.0
H299 H 0.32518 0.91433 0.8668 0.0
H300 H 0.27351 0.82328 0.88272 0.0
C301 C 0.24888 0.78139 0.79107 0.0
C302 C 0.29928 0.85151 0.81327 0.0
C303 C 0.23321 0.76738 0.76884 0.0
C304 C 0.3466 0.919 0.90451 0.0
C305 C 0.33077 0.90322 0.88322 0.0
C306 C 0.28123 0.83124 0.86345 0.0
C307 C 0.25706 0.81097 0.79333 0.0
C308 C 0.27436 0.82619 0.81643 0.0
C309 C 0.32199 0.87349 0.88324 0.0
C310 C 0.30585 0.85685 0.86028 0.0
H311 H 0.2276 0.82466 0.73573 0.0
H312 H 0.25455 0.84895 0.77451 0.0
H313 H 0.24636 0.7967 0.84472 0.0
H314 H 0.35042 0.86464 0.943 0.0
H315 H 0.32294 0.83705 0.9057 0.0
C316 C 0.64465 0.42558 0.74928 0.0
C317 C 0.62688 0.40189 0.76366 0.0
C318 C 0.63188 0.43575 0.72809 0.0
C319 C 0.55649 0.43339 0.6973 0.0
H320 H 0.60942 0.46786 0.63931 0.0
C321 C 0.51923 0.50063 0.61956 0.0
C322 C 0.52917 0.50104 0.59365 0.0
C323 C 0.53006 0.48668 0.63923 0.0
C324 C 0.59405 0.45806 0.65511 0.0
H325 H 0.58133 0.37024 0.76679 0.0
H326 H 0.55894 0.38768 0.72949 0.0
H327 H 0.62956 0.44648 0.67468 0.0
H328 H 0.55831 0.48673 0.56816 0.0
H329 H 0.5768 0.46178 0.60227 0.0
H330 H 0.52075 0.4444 0.67739 0.0
C331 C 0.58286 0.39874 0.73484 0.0
C332 C 0.60582 0.44607 0.67577 0.0
C333 C 0.59572 0.38858 0.75623 0.0
C334 C 0.55011 0.48681 0.58788 0.0
C335 C 0.56092 0.47269 0.6076 0.0
C336 C 0.54467 0.44531 0.67657 0.0
C337 C 0.60079 0.42251 0.72032 0.0
C338 C 0.58742 0.43384 0.69745 0.0
C339 C 0.55117 0.47246 0.6337 0.0
C340 C 0.56333 0.4582 0.65521 0.0
H341 H 0.66867 0.43648 0.75452 0.0
H342 H 0.64646 0.4544 0.71805 0.0
H343 H 0.54146 0.42443 0.71353 0.0
H344 H 0.50318 0.51141 0.62479 0.0
H345 H 0.52229 0.48764 0.65896 0.0
C346 C 0.91138 0.69249 0.23001 0.0
C347 C 0.9006 0.6783 0.25347 0.0
C348 C 0.918 0.67804 0.20873 0.0
C349 C 0.90453 0.60505 0.18264 0.0
H350 H 0.97286 0.64428 0.1375 0.0
C351 C 0.95678 0.54789 0.10709 0.0
C352 C 0.9648 0.56067 0.08253 0.0
C353 C 0.94679 0.56176 0.12703 0.0
C354 C 0.95347 0.6331 0.14973 0.0
H355 H 0.88875 0.63781 0.27317 0.0
H356 H 0.90116 0.61275 0.23644 0.0
H357 H 0.96069 0.66925 0.17431 0.0
H358 H 0.96803 0.59799 0.05965 0.0
H359 H 0.95079 0.62227 0.09454 0.0
H360 H 0.89802 0.56866 0.15831 0.0
C361 C 0.90375 0.63491 0.23409 0.0
C362 C 0.94639 0.64745 0.17089 0.0
C363 C 0.89681 0.64933 0.2553 0.0
C364 C 0.96192 0.58744 0.07825 0.0
C365 C 0.95229 0.60148 0.09833 0.0
C366 C 0.91184 0.59063 0.16163 0.0
C367 C 0.91438 0.64902 0.21042 0.0
C368 C 0.92181 0.63366 0.18771 0.0
C369 C 0.94491 0.58893 0.12305 0.0
C370 C 0.93641 0.60447 0.14492 0.0
H371 H 0.91438 0.71479 0.22801 0.0
H372 H 0.92558 0.68964 0.19082 0.0
H373 H 0.88506 0.59377 0.19473 0.0
H374 H 0.95868 0.52729 0.11109 0.0
H375 H 0.9415 0.55157 0.14587 0.0
C376 C 0.37723 0.22216 0.16454 0.0
C377 C 0.34778 0.20925 0.17524 0.0
C378 C 0.39287 0.2057 0.15283 0.0
C379 C 0.39327 0.13161 0.1502 0.0
H380 H 0.44397 0.15831 0.08917 0.0
C381 C 0.43971 0.05997 0.08618 0.0
C382 C 0.47074 0.07124 0.0783 0.0
C383 C 0.42569 0.07693 0.09919 0.0
C384 C 0.43012 0.15072 0.10637 0.0
H385 H 0.31096 0.1693 0.18116 0.0
H386 H 0.33771 0.14065 0.16011 0.0
H387 H 0.41704 0.18785 0.10862 0.0
H388 H 0.51152 0.10911 0.0783 0.0
H389 H 0.48688 0.13868 0.10084 0.0
H390 H 0.40582 0.09416 0.14745 0.0
C391 C 0.34931 0.16332 0.16146 0.0
C392 C 0.41474 0.16766 0.11756 0.0
C393 C 0.33387 0.17972 0.17339 0.0
C394 C 0.4876 0.09971 0.08414 0.0
C395 C 0.47346 0.11673 0.09688 0.0
C396 C 0.40838 0.11458 0.13884 0.0
C397 C 0.37919 0.17603 0.15135 0.0
C398 C 0.39601 0.15827 0.13958 0.0
C399 C 0.44231 0.10558 0.10433 0.0
C400 C 0.4269 0.12394 0.11679 0.0
H401 H 0.38853 0.24488 0.16591 0.0
H402 H 0.41598 0.2162 0.14553 0.0
H403 H 0.37962 0.12392 0.16747 0.0
H404 H 0.42608 0.03813 0.08202 0.0
H405 H 0.40158 0.06784 0.10459 0.0
C406 C 0.1323 0.81909 0.65076 0.0
C407 C 0.12148 0.79063 0.64267 0.0
C408 C 0.11906 0.83833 0.64083 0.0
C409 C 0.04842 0.84468 0.61373 0.0
H410 H 0.10262 0.91757 0.58935 0.0
C411 C 0.00314 0.9296 0.56785 0.0
C412 C 0.02061 0.95824 0.57221 0.0
C413 C 0.01383 0.90814 0.57685 0.0
C414 C 0.08714 0.89752 0.59647 0.0
H415 H 0.08855 0.75996 0.61778 0.0
H416 H 0.0647 0.79386 0.6006 0.0
H417 H 0.12455 0.8816 0.60275 0.0
H418 H 0.06189 0.98677 0.5909 0.0
H419 H 0.07995 0.94939 0.60744 0.0
H420 H 0.01103 0.86085 0.60817 0.0
C421 C 0.08355 0.80107 0.61462 0.0
C422 C 0.09972 0.87684 0.60391 0.0
C423 C 0.09722 0.7818 0.6243 0.0
C424 C 0.04806 0.96492 0.587 0.0
C425 C 0.05856 0.94347 0.59626 0.0
C426 C 0.03579 0.86553 0.60652 0.0
C427 C 0.09449 0.82954 0.62278 0.0
C428 C 0.08055 0.85035 0.61285 0.0
C429 C 0.04206 0.91485 0.59064 0.0
C430 C 0.05507 0.89233 0.59807 0.0
H431 H 0.15116 0.82665 0.66472 0.0
H432 H 0.12777 0.86008 0.64759 0.0
H433 H 0.0332 0.82447 0.6208 0.0
H434 H 0.98193 0.92375 0.55641 0.0
H435 H 1.00059 0.88639 0.57202 0.0
C436 C 0.71609 0.41215 0.87751 0.0
C437 C 0.71037 0.38372 0.87037 0.0
C438 C 0.74324 0.42741 0.89126 0.0
C439 C 0.82284 0.42802 0.9077 0.0
H440 H 0.81536 0.47146 0.96825 0.0
C441 C 0.89692 0.47663 1.00724 0.0
C442 C 0.92676 0.4892 0.99706 0.0
C443 C 0.87099 0.46681 0.99064 0.0
C444 C 0.81788 0.45942 0.9514 0.0
H445 H 0.72939 0.3495 0.8712 0.0
H446 H 0.77661 0.37602 0.89489 0.0
H447 H 0.76984 0.44858 0.94088 0.0
H448 H 0.95269 0.50196 0.96142 0.0
H449 H 0.90747 0.48473 0.93239 0.0
H450 H 0.87071 0.43839 0.91846 0.0
C451 C 0.76017 0.38659 0.88999 0.0
C452 C 0.79181 0.44652 0.93555 0.0
C453 C 0.73295 0.37129 0.87655 0.0
C454 C 0.93001 0.49235 0.96988 0.0
C455 C 0.9041 0.48229 0.95324 0.0
C456 C 0.84896 0.44115 0.9234 0.0
C457 C 0.76555 0.41475 0.89788 0.0
C458 C 0.79382 0.43029 0.91367 0.0
C459 C 0.87424 0.4691 0.96338 0.0
C460 C 0.84679 0.45673 0.94568 0.0
H461 H 0.69911 0.42231 0.8732 0.0
H462 H 0.74672 0.44912 0.89681 0.0
H463 H 0.82537 0.41593 0.8909 0.0
H464 H 0.89364 0.47391 0.02809 0.0
H465 H 0.84847 0.45658 0.99918 0.0
C466 C 0.7977 0.64308 0.37658 0.0
C467 C 0.80283 0.67152 0.3698 0.0
C468 C 0.77252 0.62825 0.3922 0.0
C469 C 0.71948 0.6406 0.44076 0.0
H470 H 0.66697 0.56387 0.42471 0.0
C471 C 0.60144 0.58913 0.49006 0.0
C472 C 0.59153 0.55998 0.49558 0.0
C473 C 0.62853 0.60188 0.476 0.0
C474 C 0.68168 0.58513 0.42974 0.0
H475 H 0.78444 0.70608 0.37305 0.0
H476 H 0.741 0.68043 0.40038 0.0
H477 H 0.71142 0.58724 0.39718 0.0
H478 H 0.60291 0.5215 0.49111 0.0
H479 H 0.65049 0.54389 0.467 0.0
H480 H 0.68999 0.63864 0.47328 0.0
C481 C 0.75674 0.66974 0.39408 0.0
C482 C 0.70712 0.59854 0.4139 0.0
C483 C 0.78169 0.68445 0.3784 0.0
C484 C 0.60979 0.54401 0.48718 0.0
C485 C 0.63699 0.55681 0.47316 0.0
C486 C 0.69421 0.62718 0.45665 0.0
C487 C 0.75204 0.6416 0.40146 0.0
C488 C 0.72603 0.62658 0.41901 0.0
C489 C 0.64655 0.58587 0.46715 0.0
C490 C 0.67468 0.59941 0.45117 0.0
H491 H 0.81363 0.63252 0.37047 0.0
H492 H 0.76958 0.60661 0.39763 0.0
H493 H 0.73397 0.66203 0.44553 0.0
H494 H 0.58789 0.60207 0.49605 0.0
H495 H 0.63485 0.62421 0.47144 0.0
C496 C 0.28817 0.31934 0.11638 0.0
C497 C 0.29146 0.31587 0.14329 0.0
C498 C 0.27048 0.33541 0.10708 0.0
C499 C 0.2339 0.38802 0.12766 0.0
H500 H 0.17497 0.35465 0.07213 0.0
C501 C 0.12348 0.41614 0.11106 0.0
C502 C 0.11458 0.41962 0.08533 0.0
C503 C 0.14815 0.40634 0.11599 0.0
C504 C 0.19161 0.36448 0.08737 0.0
H505 H 0.27979 0.32738 0.18163 0.0
H506 H 0.24876 0.35493 0.16552 0.0
H507 H 0.21351 0.33298 0.08447 0.0
H508 H 0.12455 0.41558 0.04459 0.0
H509 H 0.16779 0.39827 0.05325 0.0
H510 H 0.21129 0.41897 0.13112 0.0
C511 C 0.26004 0.34559 0.15149 0.0
C512 C 0.21376 0.35211 0.09442 0.0
C513 C 0.27767 0.32956 0.16075 0.0
C514 C 0.131 0.4132 0.06461 0.0
C515 C 0.15558 0.40315 0.06956 0.0
C516 C 0.21168 0.40029 0.12071 0.0
C517 C 0.25582 0.34838 0.12455 0.0
C518 C 0.23475 0.3634 0.11502 0.0
C519 C 0.16442 0.39965 0.09532 0.0
C520 C 0.1899 0.38831 0.10086 0.0
H521 H 0.29866 0.30905 0.10254 0.0
H522 H 0.26801 0.33744 0.08622 0.0
H523 H 0.25013 0.39759 0.14325 0.0
H524 H 0.1115 0.42123 0.12742 0.0
H525 H 0.15417 0.40355 0.13605 0.0
C526 C 0.6187 0.29192 0.89804 0.0
C527 C 0.6184 0.29455 0.87068 0.0
C528 C 0.60552 0.2656 0.91021 0.0
C529 C 0.57988 0.18755 0.89732 0.0
H530 H 0.54353 0.18345 0.9658 0.0
C531 C 0.51518 0.08054 0.94935 0.0
C532 C 0.51999 0.07885 0.97633 0.0
C533 C 0.52734 0.10637 0.93602 0.0
C534 C 0.5539 0.18418 0.94681 0.0
H535 H 0.60275 0.27108 0.83484 0.0
H536 H 0.57888 0.2252 0.85608 0.0
H537 H 0.56223 0.22869 0.94322 0.0
H538 H 0.53983 0.10339 1.01065 0.0
H539 H 0.56173 0.14836 0.98753 0.0
H540 H 0.57101 0.1428 0.90092 0.0
C541 C 0.59007 0.24355 0.86815 0.0
C542 C 0.56472 0.21027 0.93376 0.0
C543 C 0.60342 0.27002 0.85592 0.0
C544 C 0.53698 0.10369 0.98974 0.0
C545 C 0.54891 0.12962 0.97649 0.0
C546 C 0.56881 0.16137 0.91032 0.0
C547 C 0.59119 0.24085 0.89553 0.0
C548 C 0.57817 0.21252 0.90887 0.0
C549 C 0.54416 0.13141 0.94941 0.0
C550 C 0.55587 0.15931 0.93537 0.0
H551 H 0.62948 0.31029 0.91022 0.0
H552 H 0.60734 0.26468 0.93122 0.0
H553 H 0.59043 0.18824 0.87843 0.0
H554 H 0.50173 0.06183 0.93854 0.0
H555 H 0.52276 0.10685 0.9153 0.0
C556 C 0.87151 0.78067 0.36095 0.0
C557 C 0.8888 0.76271 0.35629 0.0
C558 C 0.88527 0.80716 0.37263 0.0
C559 C 0.96101 0.86101 0.39132 0.0
H560 H 0.91124 0.88108 0.44358 0.0
C561 C 0.01282 0.95029 0.46721 0.0
C562 C 0.99554 0.96783 0.4735 0.0
C563 C 1.00017 0.9265 0.45125 0.0
C564 C 0.92535 0.87604 0.42882 0.0
H565 H 0.93436 0.75882 0.3593 0.0
H566 H 0.95853 0.80507 0.38011 0.0
H567 H 0.88917 0.83781 0.41832 0.0
H568 H 0.95158 0.9745 0.46777 0.0
H569 H 0.92931 0.93283 0.43986 0.0
H570 H 0.9974 0.89911 0.40233 0.0
C571 C 0.93435 0.79886 0.37441 0.0
C572 C 0.91267 0.85118 0.41424 0.0
C573 C 0.92056 0.77235 0.36247 0.0
C574 C 0.96537 0.96125 0.46334 0.0
C575 C 0.95262 0.93734 0.44745 0.0
C576 C 0.97375 0.88586 0.40601 0.0
C577 C 0.91667 0.81633 0.38023 0.0
C578 C 0.93029 0.84327 0.39528 0.0
C579 C 0.96985 0.91961 0.44126 0.0
C580 C 0.95609 0.89366 0.42499 0.0
H581 H 0.84703 0.77389 0.35611 0.0
H582 H 0.87108 0.82026 0.37611 0.0
H583 H 0.97519 0.85585 0.3767 0.0
H584 H 0.03612 0.95478 0.47484 0.0
H585 H 0.01395 0.91316 0.44722 0.0
C586 C 0.23153 0.72642 0.64639 0.0
C587 C 0.2223 0.72026 0.6724 0.0
C588 C 0.24974 0.71261 0.63426 0.0
C589 C 0.30679 0.67893 0.65206 0.0
H590 H 0.3007 0.65625 0.57942 0.0
C591 C 0.38938 0.62631 0.60874 0.0
C592 C 0.40107 0.63502 0.58377 0.0
C593 C 0.36526 0.63432 0.61868 0.0
C594 C 0.30285 0.66272 0.59969 0.0
H595 H 0.22279 0.69329 0.70537 0.0
H596 H 0.25436 0.66908 0.68418 0.0
H597 H 0.26133 0.67353 0.59796 0.0
H598 H 0.39654 0.65885 0.54956 0.0
H599 H 0.35468 0.67325 0.56705 0.0
H600 H 0.34854 0.66887 0.65382 0.0
C601 C 0.24813 0.685 0.67335 0.0
C602 C 0.28026 0.67253 0.6103 0.0
C603 C 0.22998 0.69878 0.68545 0.0
C604 C 0.38783 0.65163 0.56879 0.0
C605 C 0.36378 0.65979 0.57879 0.0
C606 C 0.32938 0.66927 0.64147 0.0
C607 C 0.25904 0.69239 0.64792 0.0
C608 C 0.28202 0.68076 0.63662 0.0
C609 C 0.35235 0.65139 0.60394 0.0
C610 C 0.32776 0.66108 0.61515 0.0
H611 H 0.2262 0.74306 0.63592 0.0
H612 H 0.25791 0.71888 0.6147 0.0
H613 H 0.30922 0.6857 0.67226 0.0
H614 H 0.39871 0.61305 0.62054 0.0
H615 H 0.35662 0.62701 0.6379 0.0
C616 C 0.69258 0.81809 0.77821 0.0
C617 C 0.70686 0.8077 0.79834 0.0
C618 C 0.70772 0.82679 0.75454 0.0
C619 C 0.78633 0.85157 0.72688 0.0
H620 H 0.74272 0.83806 0.66042 0.0
C621 C 0.85117 0.88258 0.63009 0.0
C622 C 0.83858 0.89706 0.61211 0.0
C623 C 0.83415 0.86918 0.6517 0.0
C624 C 0.75515 0.84212 0.67886 0.0
H625 H 0.74826 0.79819 0.80923 0.0
H626 H 0.77409 0.81247 0.76783 0.0
H627 H 0.71459 0.81927 0.70034 0.0
H628 H 0.79794 0.90832 0.60251 0.0
H629 H 0.76819 0.88479 0.64013 0.0
H630 H 0.82681 0.8745 0.70551 0.0
C631 C 0.75139 0.81429 0.77041 0.0
C632 C 0.73905 0.83141 0.70172 0.0
C633 C 0.73635 0.80571 0.79406 0.0
C634 C 0.80819 0.89704 0.61579 0.0
C635 C 0.79113 0.88358 0.63737 0.0
C636 C 0.80241 0.86216 0.70406 0.0
C637 C 0.73746 0.82529 0.75049 0.0
C638 C 0.75446 0.83608 0.72601 0.0
C639 C 0.80412 0.8699 0.65579 0.0
C640 C 0.78701 0.85764 0.67981 0.0
H641 H 0.66977 0.81966 0.7808 0.0
H642 H 0.69643 0.83538 0.73968 0.0
H643 H 0.79881 0.85607 0.74529 0.0
H644 H 0.87431 0.88176 0.62758 0.0
H645 H 0.84458 0.85839 0.66532 0.0
C646 C 0.79927 0.24536 0.30014 0.0
C647 C 0.79943 0.27278 0.3063 0.0
C648 C 0.78637 0.23247 0.27668 0.0
C649 C 0.72728 0.23239 0.22874 0.0
H650 H 0.76485 0.18844 0.18684 0.0
C651 C 0.66852 0.17556 0.13485 0.0
C652 C 0.66987 0.14834 0.13034 0.0
C653 C 0.68641 0.19262 0.15463 0.0
C654 C 0.7539 0.2004 0.19847 0.0
H655 H 0.78731 0.30857 0.29202 0.0
H656 H 0.7642 0.28573 0.2512 0.0
H657 H 0.79311 0.21525 0.22426 0.0
H658 H 0.69077 0.11752 0.14302 0.0
H659 H 0.72149 0.14698 0.17799 0.0
H660 H 0.68768 0.21691 0.20366 0.0
C661 C 0.77395 0.27425 0.2647 0.0
C662 C 0.77016 0.21583 0.2198 0.0
C663 C 0.78711 0.28727 0.28808 0.0
C664 C 0.68956 0.13855 0.14591 0.0
C665 C 0.70724 0.1555 0.16586 0.0
C666 C 0.71091 0.21677 0.20756 0.0
C667 C 0.7731 0.24659 0.25894 0.0
C668 C 0.7569 0.2318 0.23526 0.0
C669 C 0.70583 0.18272 0.17052 0.0
C670 C 0.7239 0.20038 0.19229 0.0
H671 H 0.80802 0.23336 0.31388 0.0
H672 H 0.78568 0.21099 0.27289 0.0
H673 H 0.71631 0.24418 0.24055 0.0
H674 H 0.65386 0.18377 0.12287 0.0
H675 H 0.68515 0.21364 0.15736 0.0
C676 C 0.39189 0.64113 0.30088 0.0
C677 C 0.41183 0.66832 0.29406 0.0
C678 C 0.39898 0.62638 0.32213 0.0
C679 C 0.46564 0.62407 0.3638 0.0
H680 H 0.40198 0.57785 0.40979 0.0
C681 C 0.49088 0.54705 0.43804 0.0
C682 C 0.47754 0.54404 0.46293 0.0
C683 C 0.48231 0.56259 0.41842 0.0
C684 C 0.42013 0.59083 0.39729 0.0
H685 H 0.45467 0.70126 0.30455 0.0
H686 H 0.467 0.67584 0.34134 0.0
H687 H 0.38796 0.60382 0.374 0.0
H688 H 0.44443 0.55517 0.48659 0.0
H689 H 0.42934 0.58251 0.45223 0.0
H690 H 0.49784 0.61137 0.38703 0.0
C691 C 0.44603 0.6656 0.33022 0.0
C692 C 0.41202 0.60551 0.3765 0.0
C693 C 0.43887 0.68032 0.30913 0.0
C694 C 0.45522 0.55709 0.46767 0.0
C695 C 0.44644 0.57261 0.44786 0.0
C696 C 0.47369 0.6093 0.38442 0.0
C697 C 0.42631 0.63831 0.33707 0.0
C698 C 0.43466 0.6224 0.35937 0.0
C699 C 0.45995 0.57567 0.4229 0.0
C700 C 0.45111 0.5923 0.40148 0.0
H701 H 0.37082 0.63117 0.28978 0.0
H702 H 0.3833 0.60536 0.32653 0.0
H703 H 0.48381 0.63652 0.35104 0.0
H704 H 0.50809 0.53727 0.43362 0.0
H705 H 0.49297 0.56394 0.39949 0.0
C706 C 0.10613 0.37628 0.80615 0.0
C707 C 0.13744 0.38616 0.79888 0.0
C708 C 0.09604 0.38837 0.82745 0.0
C709 C 0.11794 0.45409 0.86706 0.0
H710 H 0.05772 0.40841 0.91596 0.0
C711 C 0.05675 0.50341 0.94145 0.0
C712 C 0.05191 0.49208 0.9668 0.0
C713 C 0.06811 0.49028 0.92183 0.0
C714 C 0.07475 0.42146 0.9026 0.0
H715 H 0.1827 0.41607 0.80835 0.0
H716 H 0.16526 0.43705 0.8454 0.0
H717 H 0.07537 0.38546 0.88025 0.0
H718 H 0.0557 0.45804 0.99134 0.0
H719 H 0.07566 0.43514 0.95701 0.0
H720 H 0.11752 0.49004 0.88938 0.0
C721 C 0.14836 0.42023 0.8346 0.0
C722 C 0.08459 0.40831 0.88194 0.0
C723 C 0.15841 0.4081 0.81344 0.0
C724 C 0.05915 0.4674 0.97207 0.0
C725 C 0.07037 0.45413 0.95233 0.0
C726 C 0.10799 0.4672 0.88757 0.0
C727 C 0.11701 0.4107 0.84182 0.0
C728 C 0.10633 0.42447 0.86388 0.0
C729 C 0.07487 0.46535 0.92691 0.0
C730 C 0.08619 0.45111 0.90559 0.0
H731 H 0.08937 0.3594 0.79531 0.0
H732 H 0.07168 0.38065 0.83231 0.0
H733 H 0.13446 0.46726 0.85341 0.0
H734 H 0.0514 0.52233 0.93659 0.0
H735 H 0.07093 0.49936 0.90246 0.0
C736 C 0.62725 0.83749 0.86213 0.0
C737 C 0.65197 0.83136 0.8741 0.0
C738 C 0.6143 0.85592 0.8741 0.0
C739 C 0.63204 0.91581 0.91816 0.0
H740 H 0.54418 0.89064 0.93298 0.0
C741 C 0.57952 0.97961 0.98532 0.0
C742 C 0.54888 0.97858 0.98086 0.0
C743 C 0.59214 0.96261 0.97081 0.0
C744 C 0.56864 0.89833 0.92855 0.0
H745 H 0.68298 0.83985 0.90754 0.0
H746 H 0.66079 0.87271 0.92821 0.0
H747 H 0.56599 0.8592 0.91002 0.0
H748 H 0.50777 0.95981 0.95704 0.0
H749 H 0.53015 0.93113 0.93088 0.0
H750 H 0.63486 0.95516 0.93588 0.0
C751 C 0.65126 0.863 0.90976 0.0
C752 C 0.5811 0.88018 0.91554 0.0
C753 C 0.66377 0.84414 0.89806 0.0
C754 C 0.53138 0.96084 0.96108 0.0
C755 C 0.54418 0.94423 0.94622 0.0
C756 C 0.61952 0.93418 0.93072 0.0
C757 C 0.62636 0.86896 0.89792 0.0
C758 C 0.61294 0.88865 0.91054 0.0
C759 C 0.5746 0.94455 0.95114 0.0
C760 C 0.58769 0.92558 0.93641 0.0
H761 H 0.61778 0.82781 0.84365 0.0
H762 H 0.59516 0.8603 0.8646 0.0
H763 H 0.65664 0.92288 0.91423 0.0
H764 H 0.59348 0.99286 1.00062 0.0
H765 H 0.61539 0.96312 0.9756 0.0
C766 C 0.90598 0.24881 0.40032 0.0
C767 C 0.88936 0.2595 0.41801 0.0
C768 C 0.91894 0.2285 0.40826 0.0
C769 C 0.90808 0.17254 0.45712 0.0
H770 H 0.98727 0.17094 0.43245 0.0
C771 C 0.94466 0.07445 0.47167 0.0
C772 C 0.97491 0.07948 0.48117 0.0
C773 C 0.93571 0.09679 0.46231 0.0
C774 C 0.96517 0.17116 0.43957 0.0
H775 H 0.87445 0.25839 0.45803 0.0
H776 H 0.89739 0.22301 0.47206 0.0
H777 H 0.97032 0.21095 0.42129 0.0
H778 H 0.01993 0.11172 0.48706 0.0
H779 H 0.00422 0.15065 0.47084 0.0
H780 H 0.90304 0.13302 0.47569 0.0
C781 C 0.89997 0.23001 0.45196 0.0
C782 C 0.95537 0.19397 0.43305 0.0
C783 C 0.88706 0.25039 0.44401 0.0
C784 C 0.99642 0.1071 0.47991 0.0
C785 C 0.98746 0.12943 0.47053 0.0
C786 C 0.91782 0.14974 0.46358 0.0
C787 C 0.91554 0.21844 0.43403 0.0
C788 C 0.92669 0.19488 0.44173 0.0
C789 C 0.9568 0.12463 0.46222 0.0
C790 C 0.94642 0.14873 0.45482 0.0
H791 H 0.90829 0.2555 0.38013 0.0
H792 H 0.93058 0.21989 0.39393 0.0
H793 H 0.88568 0.1724 0.46383 0.0
H794 H 0.92755 0.05342 0.47225 0.0
H795 H 0.91207 0.09234 0.45556 0.0
C796 C 0.27913 0.68045 0.17818 0.0
C797 C 0.30125 0.6676 0.18472 0.0
C798 C 0.25267 0.66589 0.16344 0.0
C799 C 0.1907 0.62507 0.14341 0.0
H800 H 0.20029 0.58314 0.08246 0.0
C801 C 0.08542 0.56023 0.07966 0.0
C802 C 0.08899 0.56364 0.05253 0.0
C803 C 0.11102 0.5706 0.09656 0.0
C804 C 0.19719 0.59478 0.09939 0.0
H805 H 0.31254 0.62908 0.18093 0.0
H806 H 0.26633 0.60363 0.15513 0.0
H807 H 0.24498 0.60579 0.11077 0.0
H808 H 0.12241 0.57974 0.02185 0.0
H809 H 0.16709 0.59761 0.05124 0.0
H810 H 0.14305 0.61445 0.13185 0.0
C811 C 0.26956 0.62508 0.16139 0.0
C812 C 0.22278 0.60756 0.11578 0.0
C813 C 0.29592 0.63957 0.17641 0.0
C814 C 0.11889 0.5768 0.04265 0.0
C815 C 0.14453 0.58694 0.05953 0.0
C816 C 0.16506 0.61207 0.12717 0.0
C817 C 0.24764 0.6381 0.15459 0.0
C818 C 0.21999 0.62315 0.13788 0.0
C819 C 0.14091 0.58439 0.08675 0.0
C820 C 0.16798 0.59696 0.10478 0.0
H821 H 0.28233 0.70191 0.18441 0.0
H822 H 0.2365 0.67671 0.15843 0.0
H823 H 0.18757 0.63667 0.16035 0.0
H824 H 0.06269 0.55018 0.0879 0.0
H825 H 0.10737 0.56791 0.11737 0.0
C826 C 0.19454 0.37476 0.65446 0.0
C827 C 0.19687 0.37147 0.68156 0.0
C828 C 0.22046 0.39027 0.64005 0.0
C829 C 0.27626 0.43587 0.61637 0.0
H830 H 0.35272 0.42117 0.63097 0.0
C831 C 0.39419 0.49889 0.56906 0.0
C832 C 0.41287 0.48313 0.56111 0.0
C833 C 0.36708 0.48602 0.58317 0.0
C834 C 0.33151 0.42541 0.62656 0.0
H835 H 0.22818 0.38235 0.71482 0.0
H836 H 0.27344 0.40953 0.68968 0.0
H837 H 0.30703 0.39819 0.65714 0.0
H838 H 0.4172 0.44126 0.56132 0.0
H839 H 0.37001 0.41894 0.58581 0.0
H840 H 0.30077 0.46289 0.58556 0.0
C841 C 0.25156 0.39996 0.67956 0.0
C842 C 0.30542 0.4125 0.64176 0.0
C843 C 0.22557 0.38463 0.69401 0.0
C844 C 0.40344 0.45409 0.56712 0.0
C845 C 0.37648 0.4413 0.58135 0.0
C846 C 0.30247 0.44899 0.60127 0.0
C847 C 0.24939 0.40269 0.65237 0.0
C848 C 0.27742 0.41743 0.63677 0.0
C849 C 0.35817 0.45717 0.58982 0.0
C850 C 0.33034 0.44373 0.60607 0.0
H851 H 0.17267 0.36511 0.64433 0.0
H852 H 0.21803 0.39181 0.61913 0.0
H853 H 0.25509 0.44026 0.61214 0.0
H854 H 0.40076 0.52131 0.56481 0.0
H855 H 0.35358 0.49887 0.58952 0.0
C856 C 0.72002 0.68948 0.86869 0.0
C857 C 0.71141 0.71031 0.8816 0.0
C858 C 0.73987 0.67719 0.88075 0.0
C859 C 0.80031 0.69197 0.93179 0.0
H860 H 0.79314 0.61359 0.91971 0.0
C861 C 0.88786 0.64229 0.97454 0.0
C862 C 0.89893 0.62686 0.95658 0.0
C863 C 0.86256 0.65083 0.96812 0.0
C864 C 0.79546 0.63554 0.9232 0.0
H865 H 0.71576 0.73397 0.91768 0.0
H866 H 0.75009 0.71219 0.93895 0.0
H867 H 0.75239 0.63103 0.90401 0.0
H868 H 0.89163 0.60751 0.91821 0.0
H869 H 0.8477 0.62255 0.90694 0.0
H870 H 0.84359 0.69651 0.95071 0.0
C871 C 0.74196 0.70568 0.9193 0.0
C872 C 0.77216 0.64555 0.91417 0.0
C873 C 0.72216 0.71804 0.90717 0.0
C874 C 0.88385 0.61968 0.93231 0.0
C875 C 0.85847 0.628 0.92599 0.0
C876 C 0.82354 0.68191 0.94093 0.0
C877 C 0.75145 0.68543 0.90607 0.0
C878 C 0.7746 0.67403 0.91792 0.0
C879 C 0.84766 0.64382 0.94374 0.0
C880 C 0.82163 0.65374 0.93629 0.0
H881 H 0.7121 0.68325 0.84893 0.0
H882 H 0.74701 0.66197 0.86983 0.0
H883 H 0.80316 0.71411 0.93471 0.0
H884 H 0.89911 0.64819 0.99335 0.0
H885 H 0.85461 0.66287 0.98223 0.0
C886 C 0.3762 0.77724 0.19461 0.0
C887 C 0.3914 0.75706 0.19518 0.0
C888 C 0.38988 0.80376 0.18284 0.0
C889 C 0.46486 0.85193 0.15429 0.0
H890 H 0.41004 0.88746 0.1226 0.0
C891 C 0.51413 0.96366 0.10787 0.0
C892 C 0.49868 0.97066 0.08646 0.0
C893 C 0.50088 0.93836 0.1217 0.0
C894 C 0.4259 0.87784 0.13096 0.0
H895 H 0.43299 0.74898 0.18385 0.0
H896 H 0.45658 0.79471 0.16249 0.0
H897 H 0.38841 0.84248 0.14468 0.0
H898 H 0.4563 0.95696 0.06388 0.0
H899 H 0.43379 0.91208 0.08664 0.0
H900 H 0.50234 0.88641 0.13919 0.0
C901 C 0.43444 0.79065 0.17183 0.0
C902 C 0.41336 0.85201 0.14424 0.0
C903 C 0.42094 0.76427 0.18409 0.0
C904 C 0.46922 0.95191 0.07967 0.0
C905 C 0.45608 0.92626 0.09321 0.0
C906 C 0.4774 0.87752 0.14063 0.0
C907 C 0.41897 0.8108 0.17065 0.0
C908 C 0.43257 0.83858 0.15633 0.0
C909 C 0.4718 0.91886 0.11442 0.0
C910 C 0.4582 0.89112 0.12881 0.0
H911 H 0.35338 0.77228 0.20299 0.0
H912 H 0.37735 0.81863 0.18322 0.0
H913 H 0.48073 0.84282 0.16343 0.0
H914 H 0.53674 0.97776 0.11393 0.0
H915 H 0.51358 0.9343 0.13827 0.0
C916 C 0.11465 0.25613 0.69856 0.0
C917 C 0.10919 0.28058 0.68976 0.0
C918 C 0.10094 0.23017 0.68575 0.0
C919 C 0.06309 0.20083 0.62205 0.0
H920 H 0.04214 0.129 0.65837 0.0
C921 C 0.98842 0.09384 0.57662 0.0
C922 C 1.00097 0.07181 0.57776 0.0
C923 C 1.00221 0.119 0.59048 0.0
C924 C 0.04811 0.14894 0.64799 0.0
H925 H 0.08474 0.29727 0.66134 0.0
H926 H 0.05941 0.25188 0.63977 0.0
H927 H 0.06316 0.17322 0.68288 0.0
H928 H 0.03762 0.05866 0.59439 0.0
H929 H 0.06127 0.10256 0.61951 0.0
H930 H 0.04682 0.17631 0.58734 0.0
C931 C 0.075 0.25259 0.65595 0.0
C932 C 0.06029 0.17435 0.66198 0.0
C933 C 0.08911 0.27858 0.66851 0.0
C934 C 0.02748 0.07533 0.59323 0.0
C935 C 0.04091 0.10033 0.60761 0.0
C936 C 0.05039 0.17547 0.6082 0.0
C937 C 0.08121 0.22805 0.66399 0.0
C938 C 0.06795 0.20075 0.64923 0.0
C939 C 0.02848 0.12247 0.60624 0.0
C940 C 0.04277 0.14927 0.621 0.0
H941 H 0.13047 0.25736 0.71471 0.0
H942 H 0.10676 0.21203 0.69241 0.0
H943 H 0.0694 0.2205 0.61126 0.0
H944 H 0.96809 0.09175 0.56473 0.0
H945 H 0.99209 0.13567 0.58915 0.0
C946 C 0.77412 0.34456 0.37225 0.0
C947 C 0.78441 0.32468 0.38543 0.0
C948 C 0.7537 0.356 0.38413 0.0
C949 C 0.72106 0.36713 0.44697 0.0
H950 H 0.65062 0.36638 0.40402 0.0
C951 C 0.614 0.38904 0.48853 0.0
C952 C 0.60025 0.4047 0.47288 0.0
C953 C 0.63758 0.3801 0.47868 0.0
C954 C 0.67033 0.36715 0.4162 0.0
H955 H 0.78236 0.30214 0.42187 0.0
H956 H 0.74673 0.32239 0.44278 0.0
H957 H 0.69074 0.35041 0.38576 0.0
H958 H 0.60107 0.42408 0.43496 0.0
H959 H 0.64236 0.40882 0.41785 0.0
H960 H 0.70064 0.38403 0.4774 0.0
C961 C 0.75459 0.32912 0.42323 0.0
C962 C 0.69333 0.35795 0.40572 0.0
C963 C 0.77502 0.31757 0.41128 0.0
C964 C 0.61083 0.41158 0.44732 0.0
C965 C 0.63448 0.4028 0.43752 0.0
C966 C 0.69808 0.37651 0.45744 0.0
C967 C 0.74314 0.34792 0.40951 0.0
C968 C 0.71899 0.35793 0.42094 0.0
C969 C 0.648 0.38677 0.453 0.0
C970 C 0.67248 0.3767 0.44213 0.0
H971 H 0.78142 0.35087 0.35249 0.0
H972 H 0.74578 0.3709 0.37327 0.0
H973 H 0.74069 0.3675 0.4591 0.0
H974 H 0.60613 0.38323 0.50825 0.0
H975 H 0.64718 0.36747 0.49101 0.0
loop_
_geom_bond_atom_site_label_1
_geom_bond_atom_site_label_2
_geom_bond_distance
_geom_bond_site_symmetry_2
_ccdc_geom_bond_type
H0 C5 0.930 . S
H1 C8 0.930 . S
H2 C10 0.930 . S
H3 C4 1.016 . S
C4 H3 1.016 . S
C4 N11 1.286 . S
C5 H0 0.930 . S
C5 C6 1.397 . S
C5 C7 1.361 . S
C6 C5 1.397 . S
C6 C10 1.390 . S
C7 C5 1.361 . S
C7 C8 1.393 . S
C7 N11 1.413 . S
C8 H1 0.930 . S
C8 C7 1.393 . S
C8 C9 1.399 . S
C9 C8 1.399 . S
C9 C10 1.381 . S
C10 H2 0.930 . S
C10 C6 1.390 . S
C10 C9 1.381 . S
N11 C4 1.286 . S
N11 C7 1.413 . S
H12 C17 0.930 . S
H13 C20 0.930 . S
H14 C22 0.930 . S
H15 C16 1.016 . S
C16 H15 1.016 . S
C16 N23 1.286 . S
C17 H12 0.930 . S
C17 C18 1.397 . S
C17 C19 1.361 . S
C18 C17 1.397 . S
C18 C22 1.390 . S
C19 C17 1.361 . S
C19 C20 1.393 . S
C19 N23 1.413 . S
C20 H13 0.930 . S
C20 C19 1.393 . S
C20 C21 1.399 . S
C21 C20 1.399 . S
C21 C22 1.381 . S
C22 H14 0.930 . S
C22 C18 1.390 . S
C22 C21 1.381 . S
N23 C16 1.286 . S
N23 C19 1.413 . S
H24 C29 0.930 . S
H25 C32 0.930 . S
H26 C34 0.930 . S
H27 C28 1.016 . S
C28 H27 1.016 . S
C28 N35 1.286 . S
C29 H24 0.930 . S
C29 C30 1.397 . S
C29 C31 1.361 . S
C30 C29 1.397 . S
C30 C34 1.390 . S
C31 C29 1.361 . S
C31 C32 1.393 . S
C31 N35 1.413 . S
C32 H25 0.930 . S
C32 C31 1.393 . S
C32 C33 1.399 . S
C33 C32 1.399 . S
C33 C34 1.381 . S
C34 H26 0.930 . S
C34 C30 1.390 . S
C34 C33 1.381 . S
N35 C28 1.286 . S
N35 C31 1.413 . S
H36 C41 0.930 . S
H37 C44 0.930 . S
H38 C46 0.930 . S
H39 C40 1.016 . S
C40 H39 1.016 . S
C40 N47 1.286 . S
C41 H36 0.930 . S
C41 C42 1.397 . S
C41 C43 1.361 . S
C42 C41 1.397 . S
C42 C46 1.390 . S
C43 C41 1.361 . S
C43 C44 1.393 . S
C43 N47 1.413 . S
C44 H37 0.930 . S
C44 C43 1.393 . S
C44 C45 1.399 . S
C45 C44 1.399 . S
C45 C46 1.381 . S
C46 H38 0.930 . S
C46 C42 1.390 . S
C46 C45 1.381 . S
N47 C40 1.286 . S
N47 C43 1.413 . S
H48 C53 0.930 . S
H49 C56 0.930 . S
H50 C58 0.930 . S
H51 C52 1.016 . S
C52 H51 1.016 . S
C52 N59 1.286 . S
C53 H48 0.930 . S
C53 C54 1.397 . S
C53 C55 1.361 . S
C54 C53 1.397 . S
C54 C58 1.390 . S
C55 C53 1.361 . S
C55 C56 1.393 . S
C55 N59 1.413 . S
C56 H49 0.930 . S
C56 C55 1.393 . S
C56 C57 1.399 . S
C57 C56 1.399 . S
C57 C58 1.381 . S
C58 H50 0.930 . S
C58 C54 1.390 . S
C58 C57 1.381 . S
N59 C52 1.286 . S
N59 C55 1.413 . S
H60 C65 0.930 . S
H61 C68 0.930 . S
H62 C70 0.930 . S
H63 C64 1.016 . S
C64 H63 1.016 . S
C64 N71 1.286 . S
C65 H60 0.930 . S
C65 C66 1.397 . S
C65 C67 1.361 . S
C66 C65 1.397 . S
C66 C70 1.390 . S
C67 C65 1.361 . S
C67 C68 1.393 . S
C67 N71 1.413 . S
C68 H61 0.930 . S
C68 C67 1.393 . S
C68 C69 1.399 . S
C69 C68 1.399 . S
C69 C70 1.381 . S
C70 H62 0.930 . S
C70 C66 1.390 . S
C70 C69 1.381 . S
N71 C64 1.286 . S
N71 C67 1.413 . S
H72 C77 0.930 . S
H73 C80 0.930 . S
H74 C82 0.930 . S
H75 C76 1.016 . S
C76 H75 1.016 . S
C76 N83 1.286 . S
C77 H72 0.930 . S
C77 C78 1.397 . S
C77 C79 1.361 . S
C78 C77 1.397 . S
C78 C82 1.390 . S
C79 C77 1.361 . S
C79 C80 1.393 . S
C79 N83 1.413 . S
C80 H73 0.930 . S
C80 C79 1.393 . S
C80 C81 1.399 . S
C81 C80 1.399 . S
C81 C82 1.381 . S
C82 H74 0.930 . S
C82 C78 1.390 . S
C82 C81 1.381 . S
N83 C76 1.286 . S
N83 C79 1.413 . S
H84 C89 0.930 . S
H85 C92 0.930 . S
H86 C94 0.930 . S
H87 C88 1.016 . S
C88 H87 1.016 . S
C88 N95 1.286 . S
C89 H84 0.930 . S
C89 C90 1.397 . S
C89 C91 1.361 . S
C90 C89 1.397 . S
C90 C94 1.390 . S
C91 C89 1.361 . S
C91 C92 1.393 . S
C91 N95 1.413 . S
C92 H85 0.930 . S
C92 C91 1.393 . S
C92 C93 1.399 . S
C93 C92 1.399 . S
C93 C94 1.381 . S
C94 H86 0.930 . S
C94 C90 1.390 . S
C94 C93 1.381 . S
N95 C88 1.286 . S
N95 C91 1.413 . S
Tb96 C98 2.809 . S
Tb96 O116 2.484 . S
Tb96 O117 2.440 . S
Tb96 O118 2.658 1_665 S
Tb96 O119 2.409 1_565 S
Tb96 O120 2.378 1_655 S
Tb96 O124 2.325 . S
Tb96 O127 2.341 1_565 S
Tb97 C107 2.809 . S
Tb97 O118 2.325 . S
Tb97 O121 2.341 1_545 S
Tb97 O122 2.484 . S
Tb97 O123 2.440 . S
Tb97 O124 2.658 1_445 S
Tb97 O125 2.409 1_545 S
Tb97 O126 2.378 1_455 S
C98 Tb96 2.809 . S
C98 C99 1.514 . S
C98 O116 1.248 . S
C98 O117 1.266 . S
C99 C98 1.514 . S
C99 C100 1.359 . S
C99 C104 1.348 . S
C100 C99 1.359 . S
C100 C101 1.380 . S
C100 H128 0.929 . S
C101 C100 1.380 . S
C101 C102 1.347 . S
C101 H129 0.931 . S
C102 C101 1.347 . S
C102 C103 1.369 . S
C103 C102 1.369 . S
C103 C104 1.408 . S
C103 H130 0.930 . S
C104 C99 1.348 . S
C104 C103 1.408 . S
C104 H131 0.930 . S
C105 O118 1.281 . S
C105 O119 1.254 1_455 S
C106 O120 1.236 . S
C106 O121 1.266 . S
C107 Tb97 2.809 . S
C107 C108 1.514 . S
C107 O122 1.248 . S
C107 O123 1.266 . S
C108 C107 1.514 . S
C108 C109 1.359 . S
C108 C113 1.348 . S
C109 C108 1.359 . S
C109 C110 1.380 . S
C109 H132 0.929 . S
C110 C109 1.380 . S
C110 C111 1.347 . S
C110 H133 0.931 . S
C111 C110 1.347 . S
C111 C112 1.369 . S
C112 C111 1.369 . S
C112 C113 1.408 . S
C112 H134 0.930 . S
C113 C108 1.348 . S
C113 C112 1.408 . S
C113 H135 0.930 . S
C114 O124 1.281 . S
C114 O125 1.254 1_655 S
C115 O126 1.236 . S
C115 O127 1.266 . S
O116 Tb96 2.484 . S
O116 C98 1.248 . S
O117 Tb96 2.440 . S
O117 C98 1.266 . S
O118 Tb96 2.658 1_445 S
O118 Tb97 2.325 . S
O118 C105 1.281 . S
O119 Tb96 2.409 1_545 S
O119 C105 1.254 1_655 S
O120 Tb96 2.378 1_455 S
O120 C106 1.236 . S
O121 Tb97 2.341 1_565 S
O121 C106 1.266 . S
O122 Tb97 2.484 . S
O122 C107 1.248 . S
O123 Tb97 2.440 . S
O123 C107 1.266 . S
O124 Tb96 2.325 . S
O124 Tb97 2.658 1_665 S
O124 C114 1.281 . S
O125 Tb97 2.409 1_565 S
O125 C114 1.254 1_455 S
O126 Tb97 2.378 1_655 S
O126 C115 1.236 . S
O127 Tb96 2.341 1_545 S
O127 C115 1.266 . S
H128 C100 0.929 . S
H129 C101 0.931 . S
H130 C103 0.930 . S
H131 C104 0.930 . S
H132 C109 0.929 . S
H133 C110 0.931 . S
H134 C112 0.930 . S
H135 C113 0.930 . S
Tb136 C138 2.809 . S
Tb136 O156 2.484 . S
Tb136 O157 2.440 . S
Tb136 O158 2.658 1_545 S
Tb136 O159 2.409 1_545 S
Tb136 O160 2.378 . S
Tb136 O164 2.325 1_554 S
Tb136 O167 2.341 1_544 S
Tb137 C147 2.809 1_545 S
Tb137 O158 2.325 1_546 S
Tb137 O161 2.341 1_556 S
Tb137 O162 2.484 1_545 S
Tb137 O163 2.440 1_545 S
Tb137 O164 2.658 . S
Tb137 O165 2.409 . S
Tb137 O166 2.378 1_545 S
C138 Tb136 2.809 . S
C138 C139 1.514 . S
C138 O156 1.248 . S
C138 O157 1.266 . S
C139 C138 1.514 . S
C139 C140 1.359 . S
C139 C144 1.348 . S
C140 C139 1.359 . S
C140 C141 1.380 . S
C140 H168 0.929 . S
C141 C140 1.380 . S
C141 C142 1.347 . S
C141 H169 0.931 . S
C142 C141 1.347 . S
C142 C143 1.369 . S
C143 C142 1.369 . S
C143 C144 1.408 . S
C143 H170 0.930 . S
C144 C139 1.348 . S
C144 C143 1.408 . S
C144 H171 0.930 . S
C145 O158 1.281 . S
C145 O159 1.254 . S
C146 O160 1.236 . S
C146 O161 1.266 . S
C147 Tb137 2.809 1_565 S
C147 C148 1.514 . S
C147 O162 1.248 . S
C147 O163 1.266 . S
C148 C147 1.514 . S
C148 C149 1.359 . S
C148 C153 1.348 . S
C149 C148 1.359 . S
C149 C150 1.380 . S
C149 H172 0.929 . S
C150 C149 1.380 . S
C150 C151 1.347 . S
C150 H173 0.931 . S
C151 C150 1.347 . S
C151 C152 1.369 . S
C152 C151 1.369 . S
C152 C153 1.408 . S
C152 H174 0.930 . S
C153 C148 1.348 . S
C153 C152 1.408 . S
C153 H175 0.930 . S
C154 O164 1.281 . S
C154 O165 1.254 . S
C155 O166 1.236 . S
C155 O167 1.266 . S
O156 Tb136 2.484 . S
O156 C138 1.248 . S
O157 Tb136 2.440 . S
O157 C138 1.266 . S
O158 Tb136 2.658 1_565 S
O158 Tb137 2.325 1_564 S
O158 C145 1.281 . S
O159 Tb136 2.409 1_565 S
O159 C145 1.254 . S
O160 Tb136 2.378 . S
O160 C146 1.236 . S
O161 Tb137 2.341 1_554 S
O161 C146 1.266 . S
O162 Tb137 2.484 1_565 S
O162 C147 1.248 . S
O163 Tb137 2.440 1_565 S
O163 C147 1.266 . S
O164 Tb136 2.325 1_556 S
O164 Tb137 2.658 . S
O164 C154 1.281 . S
O165 Tb137 2.409 . S
O165 C154 1.254 . S
O166 Tb137 2.378 1_565 S
O166 C155 1.236 . S
O167 Tb136 2.341 1_566 S
O167 C155 1.266 . S
H168 C140 0.929 . S
H169 C141 0.931 . S
H170 C143 0.930 . S
H171 C144 0.930 . S
H172 C149 0.929 . S
H173 C150 0.931 . S
H174 C152 0.930 . S
H175 C153 0.930 . S
Tb176 C178 2.809 . S
Tb176 O196 2.484 . S
Tb176 O197 2.440 . S
Tb176 O198 2.658 . S
Tb176 O199 2.409 . S
Tb176 O200 2.378 . S
Tb176 O204 2.325 . S
Tb176 O207 2.341 . S
Tb177 C187 2.809 . S
Tb177 O198 2.325 . S
Tb177 O201 2.341 . S
Tb177 O202 2.484 . S
Tb177 O203 2.440 . S
Tb177 O204 2.658 . S
Tb177 O205 2.409 . S
Tb177 O206 2.378 . S
C178 Tb176 2.809 . S
C178 C179 1.514 . S
C178 O196 1.248 . S
C178 O197 1.266 . S
C179 C178 1.514 . S
C179 C180 1.359 . S
C179 C184 1.348 . S
C180 C179 1.359 . S
C180 C181 1.380 . S
C180 H208 0.929 . S
C181 C180 1.380 . S
C181 C182 1.347 . S
C181 H209 0.931 . S
C182 C181 1.347 . S
C182 C183 1.369 . S
C183 C182 1.369 . S
C183 C184 1.408 . S
C183 H210 0.930 . S
C184 C179 1.348 . S
C184 C183 1.408 . S
C184 H211 0.930 . S
C185 O198 1.281 . S
C185 O199 1.254 . S
C186 O200 1.236 . S
C186 O201 1.266 . S
C187 Tb177 2.809 . S
C187 C188 1.514 . S
C187 O202 1.248 . S
C187 O203 1.266 . S
C188 C187 1.514 . S
C188 C189 1.359 . S
C188 C193 1.348 . S
C189 C188 1.359 . S
C189 C190 1.380 . S
C189 H212 0.929 . S
C190 C189 1.380 . S
C190 C191 1.347 . S
C190 H213 0.931 . S
C191 C190 1.347 . S
C191 C192 1.369 . S
C192 C191 1.369 . S
C192 C193 1.408 . S
C192 H214 0.930 . S
C193 C188 1.348 . S
C193 C192 1.408 . S
C193 H215 0.930 . S
C194 O204 1.281 . S
C194 O205 1.254 . S
C195 O206 1.236 . S
C195 O207 1.266 . S
O196 Tb176 2.484 . S
O196 C178 1.248 . S
O197 Tb176 2.440 . S
O197 C178 1.266 . S
O198 Tb176 2.658 . S
O198 Tb177 2.325 . S
O198 C185 1.281 . S
O199 Tb176 2.409 . S
O199 C185 1.254 . S
O200 Tb176 2.378 . S
O200 C186 1.236 . S
O201 Tb177 2.341 . S
O201 C186 1.266 . S
O202 Tb177 2.484 . S
O202 C187 1.248 . S
O203 Tb177 2.440 . S
O203 C187 1.266 . S
O204 Tb176 2.325 . S
O204 Tb177 2.658 . S
O204 C194 1.281 . S
O205 Tb177 2.409 . S
O205 C194 1.254 . S
O206 Tb177 2.378 . S
O206 C195 1.236 . S
O207 Tb176 2.341 . S
O207 C195 1.266 . S
H208 C180 0.929 . S
H209 C181 0.931 . S
H210 C183 0.930 . S
H211 C184 0.930 . S
H212 C189 0.929 . S
H213 C190 0.931 . S
H214 C192 0.930 . S
H215 C193 0.930 . S
Tb216 C218 2.809 1_455 S
Tb216 O236 2.484 1_455 S
Tb216 O237 2.440 . S
Tb216 O238 2.658 1_556 S
Tb216 O239 2.409 1_556 S
Tb216 O240 2.378 1_456 S
Tb216 O244 2.325 1_455 S
Tb216 O247 2.341 . S
Tb217 C227 2.809 . S
Tb217 O238 2.325 . S
Tb217 O241 2.341 1_455 S
Tb217 O242 2.484 . S
Tb217 O243 2.440 . S
Tb217 O244 2.658 1_454 S
Tb217 O245 2.389 1_454 S
Tb217 O246 2.378 1_554 S
C218 Tb216 2.809 1_655 S
C218 C219 1.514 . S
C218 O236 1.248 . S
C218 O237 1.266 1_655 S
C219 C218 1.514 . S
C219 C220 1.359 . S
C219 C224 1.348 . S
C220 C219 1.359 . S
C220 C221 1.380 . S
C220 H248 0.929 . S
C221 C220 1.380 . S
C221 C222 1.347 . S
C221 H249 0.931 . S
C222 C221 1.347 . S
C222 C223 1.369 . S
C223 C222 1.369 . S
C223 C224 1.408 . S
C223 H250 0.930 . S
C224 C219 1.348 . S
C224 C223 1.408 . S
C224 H251 0.930 1_655 S
C225 O238 1.281 . S
C225 O239 1.254 . S
C226 O240 1.236 . S
C226 O241 1.266 . S
C227 Tb217 2.809 . S
C227 C228 1.514 . S
C227 O242 1.248 . S
C227 O243 1.266 . S
C228 C227 1.514 . S
C228 C229 1.359 . S
C228 C233 1.348 . S
C229 C228 1.359 . S
C229 C230 1.380 . S
C229 H252 0.929 . S
C230 C229 1.380 . S
C230 C231 1.347 . S
C230 H253 0.931 . S
C231 C230 1.347 . S
C231 C232 1.369 . S
C232 C231 1.369 . S
C232 C233 1.408 . S
C232 H254 0.930 . S
C233 C228 1.348 . S
C233 C232 1.408 . S
C233 H255 0.930 . S
C234 O244 1.281 . S
C234 O245 1.274 . S
C235 O246 1.236 . S
C235 O247 1.266 . S
O236 Tb216 2.484 1_655 S
O236 C218 1.248 . S
O237 Tb216 2.440 . S
O237 C218 1.266 1_455 S
O238 Tb216 2.658 1_554 S
O238 Tb217 2.325 . S
O238 C225 1.281 . S
O239 Tb216 2.409 1_554 S
O239 C225 1.254 . S
O240 Tb216 2.378 1_654 S
O240 C226 1.236 . S
O241 Tb217 2.341 1_655 S
O241 C226 1.266 . S
O242 Tb217 2.484 . S
O242 C227 1.248 . S
O243 Tb217 2.440 . S
O243 C227 1.266 . S
O244 Tb216 2.325 1_655 S
O244 Tb217 2.658 1_656 S
O244 C234 1.281 . S
O245 Tb217 2.389 1_656 S
O245 C234 1.274 . S
O246 Tb217 2.378 1_556 S
O246 C235 1.236 . S
O247 Tb216 2.341 . S
O247 C235 1.266 . S
H248 C220 0.929 . S
H249 C221 0.931 . S
H250 C223 0.930 . S
H251 C224 0.930 1_455 S
H252 C229 0.929 . S
H253 C230 0.931 . S
H254 C232 0.930 . S
H255 C233 0.930 . S
C256 C257 1.349 . S
C256 C258 1.327 . S
C256 H281 0.950 . S
C257 C256 1.349 . S
C257 C273 1.349 . S
C258 C256 1.327 . S
C258 C277 1.429 . S
C258 H282 0.950 . S
C259 C276 1.574 . S
C259 C278 1.368 . S
C259 H283 0.949 . S
H260 C264 0.949 . S
C261 C262 1.349 . S
C261 C263 1.327 . S
C261 H284 0.950 . S
C262 C261 1.349 . S
C262 C274 1.349 . S
C263 C261 1.327 . S
C263 C279 1.429 . S
C263 H285 0.950 . S
C264 H260 0.949 . S
C264 C272 1.574 . S
C264 C280 1.368 . S
H265 C273 0.950 . S
H266 C271 0.950 . S
H267 C272 0.949 . S
H268 C274 0.950 . S
H269 C275 0.950 . S
H270 C276 0.949 . S
C271 H266 0.950 . S
C271 C273 1.327 . S
C271 C277 1.429 . S
C272 C264 1.574 . S
C272 H267 0.949 . S
C272 C278 1.368 . S
C273 C257 1.349 . S
C273 H265 0.950 . S
C273 C271 1.327 . S
C274 C262 1.349 . S
C274 H268 0.950 . S
C274 C275 1.327 . S
C275 H269 0.950 . S
C275 C274 1.327 . S
C275 C279 1.429 . S
C276 C259 1.574 . S
C276 H270 0.949 . S
C276 C280 1.368 . S
C277 C258 1.429 . S
C277 C271 1.429 . S
C277 C278 1.523 . S
C278 C259 1.368 . S
C278 C272 1.368 . S
C278 C277 1.523 . S
C279 C263 1.429 . S
C279 C275 1.429 . S
C279 C280 1.523 . S
C280 C264 1.368 . S
C280 C276 1.368 . S
C280 C279 1.523 . S
H281 C256 0.950 . S
H282 C258 0.950 . S
H283 C259 0.949 . S
H284 C261 0.950 . S
H285 C263 0.950 . S
C286 C287 1.349 . S
C286 C288 1.327 . S
C286 H311 0.950 . S
C287 C286 1.349 . S
C287 C303 1.349 . S
C288 C286 1.327 . S
C288 C307 1.429 . S
C288 H312 0.950 . S
C289 C306 1.574 . S
C289 C308 1.368 . S
C289 H313 0.949 . S
H290 C294 0.949 . S
C291 C292 1.349 . S
C291 C293 1.327 . S
C291 H314 0.950 . S
C292 C291 1.349 . S
C292 C304 1.349 . S
C293 C291 1.327 . S
C293 C309 1.429 . S
C293 H315 0.950 . S
C294 H290 0.949 . S
C294 C302 1.574 . S
C294 C310 1.368 . S
H295 C303 0.950 . S
H296 C301 0.950 . S
H297 C302 0.949 . S
H298 C304 0.950 . S
H299 C305 0.950 . S
H300 C306 0.949 . S
C301 H296 0.950 . S
C301 C303 1.327 . S
C301 C307 1.429 . S
C302 C294 1.574 . S
C302 H297 0.949 . S
C302 C308 1.368 . S
C303 C287 1.349 . S
C303 H295 0.950 . S
C303 C301 1.327 . S
C304 C292 1.349 . S
C304 H298 0.950 . S
C304 C305 1.327 . S
C305 H299 0.950 . S
C305 C304 1.327 . S
C305 C309 1.429 . S
C306 C289 1.574 . S
C306 H300 0.949 . S
C306 C310 1.368 . S
C307 C288 1.429 . S
C307 C301 1.429 . S
C307 C308 1.523 . S
C308 C289 1.368 . S
C308 C302 1.368 . S
C308 C307 1.523 . S
C309 C293 1.429 . S
C309 C305 1.429 . S
C309 C310 1.523 . S
C310 C294 1.368 . S
C310 C306 1.368 . S
C310 C309 1.523 . S
H311 C286 0.950 . S
H312 C288 0.950 . S
H313 C289 0.949 . S
H314 C291 0.950 . S
H315 C293 0.950 . S
C316 C317 1.349 . S
C316 C318 1.327 . S
C316 H341 0.950 . S
C317 C316 1.349 . S
C317 C333 1.349 . S
C318 C316 1.327 . S
C318 C337 1.429 . S
C318 H342 0.950 . S
C319 C336 1.574 . S
C319 C338 1.368 . S
C319 H343 0.949 . S
H320 C324 0.949 . S
C321 C322 1.349 . S
C321 C323 1.327 . S
C321 H344 0.950 . S
C322 C321 1.349 . S
C322 C334 1.349 . S
C323 C321 1.327 . S
C323 C339 1.429 . S
C323 H345 0.950 . S
C324 H320 0.949 . S
C324 C332 1.574 . S
C324 C340 1.368 . S
H325 C333 0.950 . S
H326 C331 0.950 . S
H327 C332 0.949 . S
H328 C334 0.950 . S
H329 C335 0.950 . S
H330 C336 0.949 . S
C331 H326 0.950 . S
C331 C333 1.327 . S
C331 C337 1.429 . S
C332 C324 1.574 . S
C332 H327 0.949 . S
C332 C338 1.368 . S
C333 C317 1.349 . S
C333 H325 0.950 . S
C333 C331 1.327 . S
C334 C322 1.349 . S
C334 H328 0.950 . S
C334 C335 1.327 . S
C335 H329 0.950 . S
C335 C334 1.327 . S
C335 C339 1.429 . S
C336 C319 1.574 . S
C336 H330 0.949 . S
C336 C340 1.368 . S
C337 C318 1.429 . S
C337 C331 1.429 . S
C337 C338 1.523 . S
C338 C319 1.368 . S
C338 C332 1.368 . S
C338 C337 1.523 . S
C339 C323 1.429 . S
C339 C335 1.429 . S
C339 C340 1.523 . S
C340 C324 1.368 . S
C340 C336 1.368 . S
C340 C339 1.523 . S
H341 C316 0.950 . S
H342 C318 0.950 . S
H343 C319 0.949 . S
H344 C321 0.950 . S
H345 C323 0.950 . S
C346 C347 1.349 . S
C346 C348 1.327 . S
C346 H371 0.950 . S
C347 C346 1.349 . S
C347 C363 1.349 . S
C348 C346 1.327 . S
C348 C367 1.429 . S
C348 H372 0.950 . S
C349 C366 1.574 . S
C349 C368 1.368 . S
C349 H373 0.949 . S
H350 C354 0.949 . S
C351 C352 1.349 . S
C351 C353 1.327 . S
C351 H374 0.950 . S
C352 C351 1.349 . S
C352 C364 1.349 . S
C353 C351 1.327 . S
C353 C369 1.429 . S
C353 H375 0.950 . S
C354 H350 0.949 . S
C354 C362 1.574 . S
C354 C370 1.368 . S
H355 C363 0.950 . S
H356 C361 0.950 . S
H357 C362 0.949 . S
H358 C364 0.950 . S
H359 C365 0.950 . S
H360 C366 0.949 . S
C361 H356 0.950 . S
C361 C363 1.327 . S
C361 C367 1.429 . S
C362 C354 1.574 . S
C362 H357 0.949 . S
C362 C368 1.368 . S
C363 C347 1.349 . S
C363 H355 0.950 . S
C363 C361 1.327 . S
C364 C352 1.349 . S
C364 H358 0.950 . S
C364 C365 1.327 . S
C365 H359 0.950 . S
C365 C364 1.327 . S
C365 C369 1.429 . S
C366 C349 1.574 . S
C366 H360 0.949 . S
C366 C370 1.368 . S
C367 C348 1.429 . S
C367 C361 1.429 . S
C367 C368 1.523 . S
C368 C349 1.368 . S
C368 C362 1.368 . S
C368 C367 1.523 . S
C369 C353 1.429 . S
C369 C365 1.429 . S
C369 C370 1.523 . S
C370 C354 1.368 . S
C370 C366 1.368 . S
C370 C369 1.523 . S
H371 C346 0.950 . S
H372 C348 0.950 . S
H373 C349 0.949 . S
H374 C351 0.950 . S
H375 C353 0.950 . S
C376 C377 1.349 . S
C376 C378 1.327 . S
C376 H401 0.950 . S
C377 C376 1.349 . S
C377 C393 1.349 . S
C378 C376 1.327 . S
C378 C397 1.429 . S
C378 H402 0.950 . S
C379 C396 1.574 . S
C379 C398 1.368 . S
C379 H403 0.949 . S
H380 C384 0.949 . S
C381 C382 1.349 . S
C381 C383 1.327 . S
C381 H404 0.950 . S
C382 C381 1.349 . S
C382 C394 1.349 . S
C383 C381 1.327 . S
C383 C399 1.429 . S
C383 H405 0.950 . S
C384 H380 0.949 . S
C384 C392 1.574 . S
C384 C400 1.368 . S
H385 C393 0.950 . S
H386 C391 0.950 . S
H387 C392 0.949 . S
H388 C394 0.950 . S
H389 C395 0.950 . S
H390 C396 0.949 . S
C391 H386 0.950 . S
C391 C393 1.327 . S
C391 C397 1.429 . S
C392 C384 1.574 . S
C392 H387 0.949 . S
C392 C398 1.368 . S
C393 C377 1.349 . S
C393 H385 0.950 . S
C393 C391 1.327 . S
C394 C382 1.349 . S
C394 H388 0.950 . S
C394 C395 1.327 . S
C395 H389 0.950 . S
C395 C394 1.327 . S
C395 C399 1.429 . S
C396 C379 1.574 . S
C396 H390 0.949 . S
C396 C400 1.368 . S
C397 C378 1.429 . S
C397 C391 1.429 . S
C397 C398 1.523 . S
C398 C379 1.368 . S
C398 C392 1.368 . S
C398 C397 1.523 . S
C399 C383 1.429 . S
C399 C395 1.429 . S
C399 C400 1.523 . S
C400 C384 1.368 . S
C400 C396 1.368 . S
C400 C399 1.523 . S
H401 C376 0.950 . S
H402 C378 0.950 . S
H403 C379 0.949 . S
H404 C381 0.950 . S
H405 C383 0.950 . S
C406 C407 1.349 . S
C406 C408 1.327 . S
C406 H431 0.950 . S
C407 C406 1.349 . S
C407 C423 1.349 . S
C408 C406 1.327 . S
C408 C427 1.429 . S
C408 H432 0.950 . S
C409 C426 1.574 . S
C409 C428 1.368 . S
C409 H433 0.949 . S
H410 C414 0.949 . S
C411 C412 1.349 . S
C411 C413 1.327 . S
C411 H434 0.950 . S
C412 C411 1.349 . S
C412 C424 1.349 . S
C413 C411 1.327 . S
C413 C429 1.429 . S
C413 H435 0.950 . S
C414 H410 0.949 . S
C414 C422 1.574 . S
C414 C430 1.368 . S
H415 C423 0.950 . S
H416 C421 0.950 . S
H417 C422 0.949 . S
H418 C424 0.950 . S
H419 C425 0.950 . S
H420 C426 0.949 . S
C421 H416 0.950 . S
C421 C423 1.327 . S
C421 C427 1.429 . S
C422 C414 1.574 . S
C422 H417 0.949 . S
C422 C428 1.368 . S
C423 C407 1.349 . S
C423 H415 0.950 . S
C423 C421 1.327 . S
C424 C412 1.349 . S
C424 H418 0.950 . S
C424 C425 1.327 . S
C425 H419 0.950 . S
C425 C424 1.327 . S
C425 C429 1.429 . S
C426 C409 1.574 . S
C426 H420 0.949 . S
C426 C430 1.368 . S
C427 C408 1.429 . S
C427 C421 1.429 . S
C427 C428 1.523 . S
C428 C409 1.368 . S
C428 C422 1.368 . S
C428 C427 1.523 . S
C429 C413 1.429 . S
C429 C425 1.429 . S
C429 C430 1.523 . S
C430 C414 1.368 . S
C430 C426 1.368 . S
C430 C429 1.523 . S
H431 C406 0.950 . S
H432 C408 0.950 . S
H433 C409 0.949 . S
H434 C411 0.950 . S
H435 C413 0.950 . S
C436 C437 1.349 . S
C436 C438 1.327 . S
C436 H461 0.950 . S
C437 C436 1.349 . S
C437 C453 1.349 . S
C438 C436 1.327 . S
C438 C457 1.429 . S
C438 H462 0.950 . S
C439 C456 1.574 . S
C439 C458 1.368 . S
C439 H463 0.949 . S
H440 C444 0.949 . S
C441 C442 1.349 . S
C441 C443 1.327 . S
C441 H464 0.950 . S
C442 C441 1.349 . S
C442 C454 1.349 . S
C443 C441 1.327 . S
C443 C459 1.429 . S
C443 H465 0.950 . S
C444 H440 0.949 . S
C444 C452 1.574 . S
C444 C460 1.368 . S
H445 C453 0.950 . S
H446 C451 0.950 . S
H447 C452 0.949 . S
H448 C454 0.950 . S
H449 C455 0.950 . S
H450 C456 0.949 . S
C451 H446 0.950 . S
C451 C453 1.327 . S
C451 C457 1.429 . S
C452 C444 1.574 . S
C452 H447 0.949 . S
C452 C458 1.368 . S
C453 C437 1.349 . S
C453 H445 0.950 . S
C453 C451 1.327 . S
C454 C442 1.349 . S
C454 H448 0.950 . S
C454 C455 1.327 . S
C455 H449 0.950 . S
C455 C454 1.327 . S
C455 C459 1.429 . S
C456 C439 1.574 . S
C456 H450 0.949 . S
C456 C460 1.368 . S
C457 C438 1.429 . S
C457 C451 1.429 . S
C457 C458 1.523 . S
C458 C439 1.368 . S
C458 C452 1.368 . S
C458 C457 1.523 . S
C459 C443 1.429 . S
C459 C455 1.429 . S
C459 C460 1.523 . S
C460 C444 1.368 . S
C460 C456 1.368 . S
C460 C459 1.523 . S
H461 C436 0.950 . S
H462 C438 0.950 . S
H463 C439 0.949 . S
H464 C441 0.950 . S
H465 C443 0.950 . S
C466 C467 1.349 . S
C466 C468 1.327 . S
C466 H491 0.950 . S
C467 C466 1.349 . S
C467 C483 1.349 . S
C468 C466 1.327 . S
C468 C487 1.429 . S
C468 H492 0.950 . S
C469 C486 1.574 . S
C469 C488 1.368 . S
C469 H493 0.949 . S
H470 C474 0.949 . S
C471 C472 1.349 . S
C471 C473 1.327 . S
C471 H494 0.950 . S
C472 C471 1.349 . S
C472 C484 1.349 . S
C473 C471 1.327 . S
C473 C489 1.429 . S
C473 H495 0.950 . S
C474 H470 0.949 . S
C474 C482 1.574 . S
C474 C490 1.368 . S
H475 C483 0.950 . S
H476 C481 0.950 . S
H477 C482 0.949 . S
H478 C484 0.950 . S
H479 C485 0.950 . S
H480 C486 0.949 . S
C481 H476 0.950 . S
C481 C483 1.327 . S
C481 C487 1.429 . S
C482 C474 1.574 . S
C482 H477 0.949 . S
C482 C488 1.368 . S
C483 C467 1.349 . S
C483 H475 0.950 . S
C483 C481 1.327 . S
C484 C472 1.349 . S
C484 H478 0.950 . S
C484 C485 1.327 . S
C485 H479 0.950 . S
C485 C484 1.327 . S
C485 C489 1.429 . S
C486 C469 1.574 . S
C486 H480 0.949 . S
C486 C490 1.368 . S
C487 C468 1.429 . S
C487 C481 1.429 . S
C487 C488 1.523 . S
C488 C469 1.368 . S
C488 C482 1.368 . S
C488 C487 1.523 . S
C489 C473 1.429 . S
C489 C485 1.429 . S
C489 C490 1.523 . S
C490 C474 1.368 . S
C490 C486 1.368 . S
C490 C489 1.523 . S
H491 C466 0.950 . S
H492 C468 0.950 . S
H493 C469 0.949 . S
H494 C471 0.950 . S
H495 C473 0.950 . S
C496 C497 1.349 . S
C496 C498 1.327 . S
C496 H521 0.950 . S
C497 C496 1.349 . S
C497 C513 1.349 . S
C498 C496 1.327 . S
C498 C517 1.429 . S
C498 H522 0.950 . S
C499 C516 1.574 . S
C499 C518 1.368 . S
C499 H523 0.949 . S
H500 C504 0.949 . S
C501 C502 1.349 . S
C501 C503 1.327 . S
C501 H524 0.950 . S
C502 C501 1.349 . S
C502 C514 1.349 . S
C503 C501 1.327 . S
C503 C519 1.429 . S
C503 H525 0.950 . S
C504 H500 0.949 . S
C504 C512 1.574 . S
C504 C520 1.368 . S
H505 C513 0.950 . S
H506 C511 0.950 . S
H507 C512 0.949 . S
H508 C514 0.950 . S
H509 C515 0.950 . S
H510 C516 0.949 . S
C511 H506 0.950 . S
C511 C513 1.327 . S
C511 C517 1.429 . S
C512 C504 1.574 . S
C512 H507 0.949 . S
C512 C518 1.368 . S
C513 C497 1.349 . S
C513 H505 0.950 . S
C513 C511 1.327 . S
C514 C502 1.349 . S
C514 H508 0.950 . S
C514 C515 1.327 . S
C515 H509 0.950 . S
C515 C514 1.327 . S
C515 C519 1.429 . S
C516 C499 1.574 . S
C516 H510 0.949 . S
C516 C520 1.368 . S
C517 C498 1.429 . S
C517 C511 1.429 . S
C517 C518 1.523 . S
C518 C499 1.368 . S
C518 C512 1.368 . S
C518 C517 1.523 . S
C519 C503 1.429 . S
C519 C515 1.429 . S
C519 C520 1.523 . S
C520 C504 1.368 . S
C520 C516 1.368 . S
C520 C519 1.523 . S
H521 C496 0.950 . S
H522 C498 0.950 . S
H523 C499 0.949 . S
H524 C501 0.950 . S
H525 C503 0.950 . S
C526 C527 1.349 . S
C526 C528 1.327 . S
C526 H551 0.950 . S
C527 C526 1.349 . S
C527 C543 1.349 . S
C528 C526 1.327 . S
C528 C547 1.429 . S
C528 H552 0.950 . S
C529 C546 1.574 . S
C529 C548 1.368 . S
C529 H553 0.949 . S
H530 C534 0.949 . S
C531 C532 1.349 . S
C531 C533 1.327 . S
C531 H554 0.950 . S
C532 C531 1.349 . S
C532 C544 1.349 . S
C533 C531 1.327 . S
C533 C549 1.429 . S
C533 H555 0.950 . S
C534 H530 0.949 . S
C534 C542 1.574 . S
C534 C550 1.368 . S
H535 C543 0.950 . S
H536 C541 0.950 . S
H537 C542 0.949 . S
H538 C544 0.950 . S
H539 C545 0.950 . S
H540 C546 0.949 . S
C541 H536 0.950 . S
C541 C543 1.327 . S
C541 C547 1.429 . S
C542 C534 1.574 . S
C542 H537 0.949 . S
C542 C548 1.368 . S
C543 C527 1.349 . S
C543 H535 0.950 . S
C543 C541 1.327 . S
C544 C532 1.349 . S
C544 H538 0.950 . S
C544 C545 1.327 . S
C545 H539 0.950 . S
C545 C544 1.327 . S
C545 C549 1.429 . S
C546 C529 1.574 . S
C546 H540 0.949 . S
C546 C550 1.368 . S
C547 C528 1.429 . S
C547 C541 1.429 . S
C547 C548 1.523 . S
C548 C529 1.368 . S
C548 C542 1.368 . S
C548 C547 1.523 . S
C549 C533 1.429 . S
C549 C545 1.429 . S
C549 C550 1.523 . S
C550 C534 1.368 . S
C550 C546 1.368 . S
C550 C549 1.523 . S
H551 C526 0.950 . S
H552 C528 0.950 . S
H553 C529 0.949 . S
H554 C531 0.950 . S
H555 C533 0.950 . S
C556 C557 1.349 . S
C556 C558 1.327 . S
C556 H581 0.950 . S
C557 C556 1.349 . S
C557 C573 1.349 . S
C558 C556 1.327 . S
C558 C577 1.429 . S
C558 H582 0.950 . S
C559 C576 1.574 . S
C559 C578 1.368 . S
C559 H583 0.949 . S
H560 C564 0.949 . S
C561 C562 1.349 . S
C561 C563 1.327 . S
C561 H584 0.950 . S
C562 C561 1.349 . S
C562 C574 1.349 . S
C563 C561 1.327 . S
C563 C579 1.429 . S
C563 H585 0.950 . S
C564 H560 0.949 . S
C564 C572 1.574 . S
C564 C580 1.368 . S
H565 C573 0.950 . S
H566 C571 0.950 . S
H567 C572 0.949 . S
H568 C574 0.950 . S
H569 C575 0.950 . S
H570 C576 0.949 . S
C571 H566 0.950 . S
C571 C573 1.327 . S
C571 C577 1.429 . S
C572 C564 1.574 . S
C572 H567 0.949 . S
C572 C578 1.368 . S
C573 C557 1.349 . S
C573 H565 0.950 . S
C573 C571 1.327 . S
C574 C562 1.349 . S
C574 H568 0.950 . S
C574 C575 1.327 . S
C575 H569 0.950 . S
C575 C574 1.327 . S
C575 C579 1.429 . S
C576 C559 1.574 . S
C576 H570 0.949 . S
C576 C580 1.368 . S
C577 C558 1.429 . S
C577 C571 1.429 . S
C577 C578 1.523 . S
C578 C559 1.368 . S
C578 C572 1.368 . S
C578 C577 1.523 . S
C579 C563 1.429 . S
C579 C575 1.429 . S
C579 C580 1.523 . S
C580 C564 1.368 . S
C580 C576 1.368 . S
C580 C579 1.523 . S
H581 C556 0.950 . S
H582 C558 0.950 . S
H583 C559 0.949 . S
H584 C561 0.950 . S
H585 C563 0.950 . S
C586 C587 1.349 . S
C586 C588 1.327 . S
C586 H611 0.950 . S
C587 C586 1.349 . S
C587 C603 1.349 . S
C588 C586 1.327 . S
C588 C607 1.429 . S
C588 H612 0.950 . S
C589 C606 1.574 . S
C589 C608 1.368 . S
C589 H613 0.949 . S
H590 C594 0.949 . S
C591 C592 1.349 . S
C591 C593 1.327 . S
C591 H614 0.950 . S
C592 C591 1.349 . S
C592 C604 1.349 . S
C593 C591 1.327 . S
C593 C609 1.429 . S
C593 H615 0.950 . S
C594 H590 0.949 . S
C594 C602 1.574 . S
C594 C610 1.368 . S
H595 C603 0.950 . S
H596 C601 0.950 . S
H597 C602 0.949 . S
H598 C604 0.950 . S
H599 C605 0.950 . S
H600 C606 0.949 . S
C601 H596 0.950 . S
C601 C603 1.327 . S
C601 C607 1.429 . S
C602 C594 1.574 . S
C602 H597 0.949 . S
C602 C608 1.368 . S
C603 C587 1.349 . S
C603 H595 0.950 . S
C603 C601 1.327 . S
C604 C592 1.349 . S
C604 H598 0.950 . S
C604 C605 1.327 . S
C605 H599 0.950 . S
C605 C604 1.327 . S
C605 C609 1.429 . S
C606 C589 1.574 . S
C606 H600 0.949 . S
C606 C610 1.368 . S
C607 C588 1.429 . S
C607 C601 1.429 . S
C607 C608 1.523 . S
C608 C589 1.368 . S
C608 C602 1.368 . S
C608 C607 1.523 . S
C609 C593 1.429 . S
C609 C605 1.429 . S
C609 C610 1.523 . S
C610 C594 1.368 . S
C610 C606 1.368 . S
C610 C609 1.523 . S
H611 C586 0.950 . S
H612 C588 0.950 . S
H613 C589 0.949 . S
H614 C591 0.950 . S
H615 C593 0.950 . S
C616 C617 1.349 . S
C616 C618 1.327 . S
C616 H641 0.950 . S
C617 C616 1.349 . S
C617 C633 1.349 . S
C618 C616 1.327 . S
C618 C637 1.429 . S
C618 H642 0.950 . S
C619 C636 1.574 . S
C619 C638 1.368 . S
C619 H643 0.949 . S
H620 C624 0.949 . S
C621 C622 1.349 . S
C621 C623 1.327 . S
C621 H644 0.950 . S
C622 C621 1.349 . S
C622 C634 1.349 . S
C623 C621 1.327 . S
C623 C639 1.429 . S
C623 H645 0.950 . S
C624 H620 0.949 . S
C624 C632 1.574 . S
C624 C640 1.368 . S
H625 C633 0.950 . S
H626 C631 0.950 . S
H627 C632 0.949 . S
H628 C634 0.950 . S
H629 C635 0.950 . S
H630 C636 0.949 . S
C631 H626 0.950 . S
C631 C633 1.327 . S
C631 C637 1.429 . S
C632 C624 1.574 . S
C632 H627 0.949 . S
C632 C638 1.368 . S
C633 C617 1.349 . S
C633 H625 0.950 . S
C633 C631 1.327 . S
C634 C622 1.349 . S
C634 H628 0.950 . S
C634 C635 1.327 . S
C635 H629 0.950 . S
C635 C634 1.327 . S
C635 C639 1.429 . S
C636 C619 1.574 . S
C636 H630 0.949 . S
C636 C640 1.368 . S
C637 C618 1.429 . S
C637 C631 1.429 . S
C637 C638 1.523 . S
C638 C619 1.368 . S
C638 C632 1.368 . S
C638 C637 1.523 . S
C639 C623 1.429 . S
C639 C635 1.429 . S
C639 C640 1.523 . S
C640 C624 1.368 . S
C640 C636 1.368 . S
C640 C639 1.523 . S
H641 C616 0.950 . S
H642 C618 0.950 . S
H643 C619 0.949 . S
H644 C621 0.950 . S
H645 C623 0.950 . S
C646 C647 1.349 . S
C646 C648 1.327 . S
C646 H671 0.950 . S
C647 C646 1.349 . S
C647 C663 1.349 . S
C648 C646 1.327 . S
C648 C667 1.429 . S
C648 H672 0.950 . S
C649 C666 1.574 . S
C649 C668 1.368 . S
C649 H673 0.949 . S
H650 C654 0.949 . S
C651 C652 1.349 . S
C651 C653 1.327 . S
C651 H674 0.950 . S
C652 C651 1.349 . S
C652 C664 1.349 . S
C653 C651 1.327 . S
C653 C669 1.429 . S
C653 H675 0.950 . S
C654 H650 0.949 . S
C654 C662 1.574 . S
C654 C670 1.368 . S
H655 C663 0.950 . S
H656 C661 0.950 . S
H657 C662 0.949 . S
H658 C664 0.950 . S
H659 C665 0.950 . S
H660 C666 0.949 . S
C661 H656 0.950 . S
C661 C663 1.327 . S
C661 C667 1.429 . S
C662 C654 1.574 . S
C662 H657 0.949 . S
C662 C668 1.368 . S
C663 C647 1.349 . S
C663 H655 0.950 . S
C663 C661 1.327 . S
C664 C652 1.349 . S
C664 H658 0.950 . S
C664 C665 1.327 . S
C665 H659 0.950 . S
C665 C664 1.327 . S
C665 C669 1.429 . S
C666 C649 1.574 . S
C666 H660 0.949 . S
C666 C670 1.368 . S
C667 C648 1.429 . S
C667 C661 1.429 . S
C667 C668 1.523 . S
C668 C649 1.368 . S
C668 C662 1.368 . S
C668 C667 1.523 . S
C669 C653 1.429 . S
C669 C665 1.429 . S
C669 C670 1.523 . S
C670 C654 1.368 . S
C670 C666 1.368 . S
C670 C669 1.523 . S
H671 C646 0.950 . S
H672 C648 0.950 . S
H673 C649 0.949 . S
H674 C651 0.950 . S
H675 C653 0.950 . S
C676 C677 1.349 . S
C676 C678 1.327 . S
C676 H701 0.950 . S
C677 C676 1.349 . S
C677 C693 1.349 . S
C678 C676 1.327 . S
C678 C697 1.429 . S
C678 H702 0.950 . S
C679 C696 1.574 . S
C679 C698 1.368 . S
C679 H703 0.949 . S
H680 C684 0.949 . S
C681 C682 1.349 . S
C681 C683 1.327 . S
C681 H704 0.950 . S
C682 C681 1.349 . S
C682 C694 1.349 . S
C683 C681 1.327 . S
C683 C699 1.429 . S
C683 H705 0.950 . S
C684 H680 0.949 . S
C684 C692 1.574 . S
C684 C700 1.368 . S
H685 C693 0.950 . S
H686 C691 0.950 . S
H687 C692 0.949 . S
H688 C694 0.950 . S
H689 C695 0.950 . S
H690 C696 0.949 . S
C691 H686 0.950 . S
C691 C693 1.327 . S
C691 C697 1.429 . S
C692 C684 1.574 . S
C692 H687 0.949 . S
C692 C698 1.368 . S
C693 C677 1.349 . S
C693 H685 0.950 . S
C693 C691 1.327 . S
C694 C682 1.349 . S
C694 H688 0.950 . S
C694 C695 1.327 . S
C695 H689 0.950 . S
C695 C694 1.327 . S
C695 C699 1.429 . S
C696 C679 1.574 . S
C696 H690 0.949 . S
C696 C700 1.368 . S
C697 C678 1.429 . S
C697 C691 1.429 . S
C697 C698 1.523 . S
C698 C679 1.368 . S
C698 C692 1.368 . S
C698 C697 1.523 . S
C699 C683 1.429 . S
C699 C695 1.429 . S
C699 C700 1.523 . S
C700 C684 1.368 . S
C700 C696 1.368 . S
C700 C699 1.523 . S
H701 C676 0.950 . S
H702 C678 0.950 . S
H703 C679 0.949 . S
H704 C681 0.950 . S
H705 C683 0.950 . S
C706 C707 1.349 . S
C706 C708 1.327 . S
C706 H731 0.950 . S
C707 C706 1.349 . S
C707 C723 1.349 . S
C708 C706 1.327 . S
C708 C727 1.429 . S
C708 H732 0.950 . S
C709 C726 1.574 . S
C709 C728 1.368 . S
C709 H733 0.949 . S
H710 C714 0.949 . S
C711 C712 1.349 . S
C711 C713 1.327 . S
C711 H734 0.950 . S
C712 C711 1.349 . S
C712 C724 1.349 . S
C713 C711 1.327 . S
C713 C729 1.429 . S
C713 H735 0.950 . S
C714 H710 0.949 . S
C714 C722 1.574 . S
C714 C730 1.368 . S
H715 C723 0.950 . S
H716 C721 0.950 . S
H717 C722 0.949 . S
H718 C724 0.950 . S
H719 C725 0.950 . S
H720 C726 0.949 . S
C721 H716 0.950 . S
C721 C723 1.327 . S
C721 C727 1.429 . S
C722 C714 1.574 . S
C722 H717 0.949 . S
C722 C728 1.368 . S
C723 C707 1.349 . S
C723 H715 0.950 . S
C723 C721 1.327 . S
C724 C712 1.349 . S
C724 H718 0.950 . S
C724 C725 1.327 . S
C725 H719 0.950 . S
C725 C724 1.327 . S
C725 C729 1.429 . S
C726 C709 1.574 . S
C726 H720 0.949 . S
C726 C730 1.368 . S
C727 C708 1.429 . S
C727 C721 1.429 . S
C727 C728 1.523 . S
C728 C709 1.368 . S
C728 C722 1.368 . S
C728 C727 1.523 . S
C729 C713 1.429 . S
C729 C725 1.429 . S
C729 C730 1.523 . S
C730 C714 1.368 . S
C730 C726 1.368 . S
C730 C729 1.523 . S
H731 C706 0.950 . S
H732 C708 0.950 . S
H733 C709 0.949 . S
H734 C711 0.950 . S
H735 C713 0.950 . S
C736 C737 1.349 . S
C736 C738 1.327 . S
C736 H761 0.950 . S
C737 C736 1.349 . S
C737 C753 1.349 . S
C738 C736 1.327 . S
C738 C757 1.429 . S
C738 H762 0.950 . S
C739 C756 1.574 . S
C739 C758 1.368 . S
C739 H763 0.949 . S
H740 C744 0.949 . S
C741 C742 1.349 . S
C741 C743 1.327 . S
C741 H764 0.950 . S
C742 C741 1.349 . S
C742 C754 1.349 . S
C743 C741 1.327 . S
C743 C759 1.429 . S
C743 H765 0.950 . S
C744 H740 0.949 . S
C744 C752 1.574 . S
C744 C760 1.368 . S
H745 C753 0.950 . S
H746 C751 0.950 . S
H747 C752 0.949 . S
H748 C754 0.950 . S
H749 C755 0.950 . S
H750 C756 0.949 . S
C751 H746 0.950 . S
C751 C753 1.327 . S
C751 C757 1.429 . S
C752 C744 1.574 . S
C752 H747 0.949 . S
C752 C758 1.368 . S
C753 C737 1.349 . S
C753 H745 0.950 . S
C753 C751 1.327 . S
C754 C742 1.349 . S
C754 H748 0.950 . S
C754 C755 1.327 . S
C755 H749 0.950 . S
C755 C754 1.327 . S
C755 C759 1.429 . S
C756 C739 1.574 . S
C756 H750 0.949 . S
C756 C760 1.368 . S
C757 C738 1.429 . S
C757 C751 1.429 . S
C757 C758 1.523 . S
C758 C739 1.368 . S
C758 C752 1.368 . S
C758 C757 1.523 . S
C759 C743 1.429 . S
C759 C755 1.429 . S
C759 C760 1.523 . S
C760 C744 1.368 . S
C760 C756 1.368 . S
C760 C759 1.523 . S
H761 C736 0.950 . S
H762 C738 0.950 . S
H763 C739 0.949 . S
H764 C741 0.950 . S
H765 C743 0.950 . S
C766 C767 1.349 . S
C766 C768 1.327 . S
C766 H791 0.950 . S
C767 C766 1.349 . S
C767 C783 1.349 . S
C768 C766 1.327 . S
C768 C787 1.429 . S
C768 H792 0.950 . S
C769 C786 1.574 . S
C769 C788 1.368 . S
C769 H793 0.949 . S
H770 C774 0.949 . S
C771 C772 1.349 . S
C771 C773 1.327 . S
C771 H794 0.950 . S
C772 C771 1.349 . S
C772 C784 1.349 . S
C773 C771 1.327 . S
C773 C789 1.429 . S
C773 H795 0.950 . S
C774 H770 0.949 . S
C774 C782 1.574 . S
C774 C790 1.368 . S
H775 C783 0.950 . S
H776 C781 0.950 . S
H777 C782 0.949 . S
H778 C784 0.950 . S
H779 C785 0.950 . S
H780 C786 0.949 . S
C781 H776 0.950 . S
C781 C783 1.327 . S
C781 C787 1.429 . S
C782 C774 1.574 . S
C782 H777 0.949 . S
C782 C788 1.368 . S
C783 C767 1.349 . S
C783 H775 0.950 . S
C783 C781 1.327 . S
C784 C772 1.349 . S
C784 H778 0.950 . S
C784 C785 1.327 . S
C785 H779 0.950 . S
C785 C784 1.327 . S
C785 C789 1.429 . S
C786 C769 1.574 . S
C786 H780 0.949 . S
C786 C790 1.368 . S
C787 C768 1.429 . S
C787 C781 1.429 . S
C787 C788 1.523 . S
C788 C769 1.368 . S
C788 C782 1.368 . S
C788 C787 1.523 . S
C789 C773 1.429 . S
C789 C785 1.429 . S
C789 C790 1.523 . S
C790 C774 1.368 . S
C790 C786 1.368 . S
C790 C789 1.523 . S
H791 C766 0.950 . S
H792 C768 0.950 . S
H793 C769 0.949 . S
H794 C771 0.950 . S
H795 C773 0.950 . S
C796 C797 1.349 . S
C796 C798 1.327 . S
C796 H821 0.950 . S
C797 C796 1.349 . S
C797 C813 1.349 . S
C798 C796 1.327 . S
C798 C817 1.429 . S
C798 H822 0.950 . S
C799 C816 1.574 . S
C799 C818 1.368 . S
C799 H823 0.949 . S
H800 C804 0.949 . S
C801 C802 1.349 . S
C801 C803 1.327 . S
C801 H824 0.950 . S
C802 C801 1.349 . S
C802 C814 1.349 . S
C803 C801 1.327 . S
C803 C819 1.429 . S
C803 H825 0.950 . S
C804 H800 0.949 . S
C804 C812 1.574 . S
C804 C820 1.368 . S
H805 C813 0.950 . S
H806 C811 0.950 . S
H807 C812 0.949 . S
H808 C814 0.950 . S
H809 C815 0.950 . S
H810 C816 0.949 . S
C811 H806 0.950 . S
C811 C813 1.327 . S
C811 C817 1.429 . S
C812 C804 1.574 . S
C812 H807 0.949 . S
C812 C818 1.368 . S
C813 C797 1.349 . S
C813 H805 0.950 . S
C813 C811 1.327 . S
C814 C802 1.349 . S
C814 H808 0.950 . S
C814 C815 1.327 . S
C815 H809 0.950 . S
C815 C814 1.327 . S
C815 C819 1.429 . S
C816 C799 1.574 . S
C816 H810 0.949 . S
C816 C820 1.368 . S
C817 C798 1.429 . S
C817 C811 1.429 . S
C817 C818 1.523 . S
C818 C799 1.368 . S
C818 C812 1.368 . S
C818 C817 1.523 . S
C819 C803 1.429 . S
C819 C815 1.429 . S
C819 C820 1.523 . S
C820 C804 1.368 . S
C820 C816 1.368 . S
C820 C819 1.523 . S
H821 C796 0.950 . S
H822 C798 0.950 . S
H823 C799 0.949 . S
H824 C801 0.950 . S
H825 C803 0.950 . S
C826 C827 1.349 . S
C826 C828 1.327 . S
C826 H851 0.950 . S
C827 C826 1.349 . S
C827 C843 1.349 . S
C828 C826 1.327 . S
C828 C847 1.429 . S
C828 H852 0.950 . S
C829 C846 1.574 . S
C829 C848 1.368 . S
C829 H853 0.949 . S
H830 C834 0.949 . S
C831 C832 1.349 . S
C831 C833 1.327 . S
C831 H854 0.950 . S
C832 C831 1.349 . S
C832 C844 1.349 . S
C833 C831 1.327 . S
C833 C849 1.429 . S
C833 H855 0.950 . S
C834 H830 0.949 . S
C834 C842 1.574 . S
C834 C850 1.368 . S
H835 C843 0.950 . S
H836 C841 0.950 . S
H837 C842 0.949 . S
H838 C844 0.950 . S
H839 C845 0.950 . S
H840 C846 0.949 . S
C841 H836 0.950 . S
C841 C843 1.327 . S
C841 C847 1.429 . S
C842 C834 1.574 . S
C842 H837 0.949 . S
C842 C848 1.368 . S
C843 C827 1.349 . S
C843 H835 0.950 . S
C843 C841 1.327 . S
C844 C832 1.349 . S
C844 H838 0.950 . S
C844 C845 1.327 . S
C845 H839 0.950 . S
C845 C844 1.327 . S
C845 C849 1.429 . S
C846 C829 1.574 . S
C846 H840 0.949 . S
C846 C850 1.368 . S
C847 C828 1.429 . S
C847 C841 1.429 . S
C847 C848 1.523 . S
C848 C829 1.368 . S
C848 C842 1.368 . S
C848 C847 1.523 . S
C849 C833 1.429 . S
C849 C845 1.429 . S
C849 C850 1.523 . S
C850 C834 1.368 . S
C850 C846 1.368 . S
C850 C849 1.523 . S
H851 C826 0.950 . S
H852 C828 0.950 . S
H853 C829 0.949 . S
H854 C831 0.950 . S
H855 C833 0.950 . S
C856 C857 1.349 . S
C856 C858 1.327 . S
C856 H881 0.950 . S
C857 C856 1.349 . S
C857 C873 1.349 . S
C858 C856 1.327 . S
C858 C877 1.429 . S
C858 H882 0.950 . S
C859 C876 1.574 . S
C859 C878 1.368 . S
C859 H883 0.949 . S
H860 C864 0.949 . S
C861 C862 1.349 . S
C861 C863 1.327 . S
C861 H884 0.950 . S
C862 C861 1.349 . S
C862 C874 1.349 . S
C863 C861 1.327 . S
C863 C879 1.429 . S
C863 H885 0.950 . S
C864 H860 0.949 . S
C864 C872 1.574 . S
C864 C880 1.368 . S
H865 C873 0.950 . S
H866 C871 0.950 . S
H867 C872 0.949 . S
H868 C874 0.950 . S
H869 C875 0.950 . S
H870 C876 0.949 . S
C871 H866 0.950 . S
C871 C873 1.327 . S
C871 C877 1.429 . S
C872 C864 1.574 . S
C872 H867 0.949 . S
C872 C878 1.368 . S
C873 C857 1.349 . S
C873 H865 0.950 . S
C873 C871 1.327 . S
C874 C862 1.349 . S
C874 H868 0.950 . S
C874 C875 1.327 . S
C875 H869 0.950 . S
C875 C874 1.327 . S
C875 C879 1.429 . S
C876 C859 1.574 . S
C876 H870 0.949 . S
C876 C880 1.368 . S
C877 C858 1.429 . S
C877 C871 1.429 . S
C877 C878 1.523 . S
C878 C859 1.368 . S
C878 C872 1.368 . S
C878 C877 1.523 . S
C879 C863 1.429 . S
C879 C875 1.429 . S
C879 C880 1.523 . S
C880 C864 1.368 . S
C880 C876 1.368 . S
C880 C879 1.523 . S
H881 C856 0.950 . S
H882 C858 0.950 . S
H883 C859 0.949 . S
H884 C861 0.950 . S
H885 C863 0.950 . S
C886 C887 1.349 . S
C886 C888 1.327 . S
C886 H911 0.950 . S
C887 C886 1.349 . S
C887 C903 1.349 . S
C888 C886 1.327 . S
C888 C907 1.429 . S
C888 H912 0.950 . S
C889 C906 1.574 . S
C889 C908 1.368 . S
C889 H913 0.949 . S
H890 C894 0.949 . S
C891 C892 1.349 . S
C891 C893 1.327 . S
C891 H914 0.950 . S
C892 C891 1.349 . S
C892 C904 1.349 . S
C893 C891 1.327 . S
C893 C909 1.429 . S
C893 H915 0.950 . S
C894 H890 0.949 . S
C894 C902 1.574 . S
C894 C910 1.368 . S
H895 C903 0.950 . S
H896 C901 0.950 . S
H897 C902 0.949 . S
H898 C904 0.950 . S
H899 C905 0.950 . S
H900 C906 0.949 . S
C901 H896 0.950 . S
C901 C903 1.327 . S
C901 C907 1.429 . S
C902 C894 1.574 . S
C902 H897 0.949 . S
C902 C908 1.368 . S
C903 C887 1.349 . S
C903 H895 0.950 . S
C903 C901 1.327 . S
C904 C892 1.349 . S
C904 H898 0.950 . S
C904 C905 1.327 . S
C905 H899 0.950 . S
C905 C904 1.327 . S
C905 C909 1.429 . S
C906 C889 1.574 . S
C906 H900 0.949 . S
C906 C910 1.368 . S
C907 C888 1.429 . S
C907 C901 1.429 . S
C907 C908 1.523 . S
C908 C889 1.368 . S
C908 C902 1.368 . S
C908 C907 1.523 . S
C909 C893 1.429 . S
C909 C905 1.429 . S
C909 C910 1.523 . S
C910 C894 1.368 . S
C910 C906 1.368 . S
C910 C909 1.523 . S
H911 C886 0.950 . S
H912 C888 0.950 . S
H913 C889 0.949 . S
H914 C891 0.950 . S
H915 C893 0.950 . S
C916 C917 1.349 . S
C916 C918 1.327 . S
C916 H941 0.950 . S
C917 C916 1.349 . S
C917 C933 1.349 . S
C918 C916 1.327 . S
C918 C937 1.429 . S
C918 H942 0.950 . S
C919 C936 1.574 . S
C919 C938 1.368 . S
C919 H943 0.949 . S
H920 C924 0.949 . S
C921 C922 1.349 . S
C921 C923 1.327 . S
C921 H944 0.950 . S
C922 C921 1.349 . S
C922 C934 1.349 . S
C923 C921 1.327 . S
C923 C939 1.429 . S
C923 H945 0.950 . S
C924 H920 0.949 . S
C924 C932 1.574 . S
C924 C940 1.368 . S
H925 C933 0.950 . S
H926 C931 0.950 . S
H927 C932 0.949 . S
H928 C934 0.950 . S
H929 C935 0.950 . S
H930 C936 0.949 . S
C931 H926 0.950 . S
C931 C933 1.327 . S
C931 C937 1.429 . S
C932 C924 1.574 . S
C932 H927 0.949 . S
C932 C938 1.368 . S
C933 C917 1.349 . S
C933 H925 0.950 . S
C933 C931 1.327 . S
C934 C922 1.349 . S
C934 H928 0.950 . S
C934 C935 1.327 . S
C935 H929 0.950 . S
C935 C934 1.327 . S
C935 C939 1.429 . S
C936 C919 1.574 . S
C936 H930 0.949 . S
C936 C940 1.368 . S
C937 C918 1.429 . S
C937 C931 1.429 . S
C937 C938 1.523 . S
C938 C919 1.368 . S
C938 C932 1.368 . S
C938 C937 1.523 . S
C939 C923 1.429 . S
C939 C935 1.429 . S
C939 C940 1.523 . S
C940 C924 1.368 . S
C940 C936 1.368 . S
C940 C939 1.523 . S
H941 C916 0.950 . S
H942 C918 0.950 . S
H943 C919 0.949 . S
H944 C921 0.950 . S
H945 C923 0.950 . S
C946 C947 1.349 . S
C946 C948 1.327 . S
C946 H971 0.950 . S
C947 C946 1.349 . S
C947 C963 1.349 . S
C948 C946 1.327 . S
C948 C967 1.429 . S
C948 H972 0.950 . S
C949 C966 1.574 . S
C949 C968 1.368 . S
C949 H973 0.949 . S
H950 C954 0.949 . S
C951 C952 1.349 . S
C951 C953 1.327 . S
C951 H974 0.950 . S
C952 C951 1.349 . S
C952 C964 1.349 . S
C953 C951 1.327 . S
C953 C969 1.429 . S
C953 H975 0.950 . S
C954 H950 0.949 . S
C954 C962 1.574 . S
C954 C970 1.368 . S
H955 C963 0.950 . S
H956 C961 0.950 . S
H957 C962 0.949 . S
H958 C964 0.950 . S
H959 C965 0.950 . S
H960 C966 0.949 . S
C961 H956 0.950 . S
C961 C963 1.327 . S
C961 C967 1.429 . S
C962 C954 1.574 . S
C962 H957 0.949 . S
C962 C968 1.368 . S
C963 C947 1.349 . S
C963 H955 0.950 . S
C963 C961 1.327 . S
C964 C952 1.349 . S
C964 H958 0.950 . S
C964 C965 1.327 . S
C965 H959 0.950 . S
C965 C964 1.327 . S
C965 C969 1.429 . S
C966 C949 1.574 . S
C966 H960 0.949 . S
C966 C970 1.368 . S
C967 C948 1.429 . S
C967 C961 1.429 . S
C967 C968 1.523 . S
C968 C949 1.368 . S
C968 C962 1.368 . S
C968 C967 1.523 . S
C969 C953 1.429 . S
C969 C965 1.429 . S
C969 C970 1.523 . S
C970 C954 1.368 . S
C970 C966 1.368 . S
C970 C969 1.523 . S
H971 C946 0.950 . S
H972 C948 0.950 . S
H973 C949 0.949 . S
H974 C951 0.950 . S
H975 C953 0.950 . S
C257 C6 1.258 . S
C262 C111 1.272 . S
C287 C18 1.338 . S
C292 C151 1.342 . S
C322 C185 2.297 . S
C317 C28 2.321 . S
C347 C40 1.949 . S
C352 C226 1.907 . S
C382 C146 1.662 . S
C377 C9 1.636 . S
C412 C106 2.016 . S
C407 C16 1.946 . S
C442 C234 1.450 . S
C437 C30 1.456 . S
C472 C195 1.374 . S
C467 C42 1.407 . S
C497 C4 1.188 . S
C502 C231 1.177 . S
C532 C154 2.157 . S
C527 C33 2.203 . S
C557 C45 2.123 . S
C562 C114 2.076 . S
C587 C21 1.688 . S
C592 C182 1.727 . S
C622 C102 1.321 . S
C617 C57 1.321 . S
C647 C66 1.293 . S
C652 C142 1.318 . S
C677 C76 2.371 . S
C682 C194 2.354 . S
C707 C88 1.842 . S
C712 C235 1.808 . S
C737 C54 1.637 . S
C742 C155 1.660 . S
C772 C115 2.113 . S
C767 C64 2.070 . S
C802 C225 1.349 . S
C797 C78 1.354 . S
C832 C186 1.438 . S
C827 C93 1.467 . S
C857 C52 1.186 . S
C862 C222 1.194 . S
C892 C145 2.145 . S
C887 C81 2.195 . S
C922 C105 2.035 . S
C917 C90 2.087 . S
C947 C69 1.692 . S
C952 C191 1.746 . S
