# Generated by pormake.
# Topology rtl, (3,6)-cn, num edge types: 1
# Building blocks:
#     Node 0, Type 0, BuildingBlock: BETDAH_clean_linker_0, # of connection points: 3
#     Node 1, Type 0, BuildingBlock: BETDAH_clean_linker_0, # of connection points: 3
#     Node 2, Type 0, BuildingBlock: BETDAH_clean_linker_0, # of connection points: 3
#     Node 3, Type 0, BuildingBlock: BETDAH_clean_linker_0, # of connection points: 3
#     Node 4, Type 1, BuildingBlock: KUMBUR_clean_sbu_1, # of connection points: 6
#     Node 5, Type 1, BuildingBlock: KUMBUR_clean_sbu_1, # of connection points: 6
#     Edge 6, Type (0, 1), BuildingBlock: UVAHIK_clean_linker_0, # of connection points: 2
#     Edge 7, Type (0, 1), BuildingBlock: UVAHIK_clean_linker_0, # of connection points: 2
#     Edge 8, Type (0, 1), BuildingBlock: UVAHIK_clean_linker_0, # of connection points: 2
#     Edge 9, Type (0, 1), BuildingBlock: UVAHIK_clean_linker_0, # of connection points: 2
#     Edge 10, Type (0, 1), BuildingBlock: UVAHIK_clean_linker_0, # of connection points: 2
#     Edge 11, Type (0, 1), BuildingBlock: UVAHIK_clean_linker_0, # of connection points: 2
#     Edge 12, Type (0, 1), BuildingBlock: UVAHIK_clean_linker_0, # of connection points: 2
#     Edge 13, Type (0, 1), BuildingBlock: UVAHIK_clean_linker_0, # of connection points: 2
#     Edge 14, Type (0, 1), BuildingBlock: UVAHIK_clean_linker_0, # of connection points: 2
#     Edge 15, Type (0, 1), BuildingBlock: UVAHIK_clean_linker_0, # of connection points: 2
#     Edge 16, Type (0, 1), BuildingBlock: UVAHIK_clean_linker_0, # of connection points: 2
#     Edge 17, Type (0, 1), BuildingBlock: UVAHIK_clean_linker_0, # of connection points: 2
# Relax obj value: 0.047
# Max RMSD: 0.206
# Mean RMSD: 0.150
data_MOF--net-rtl--node1-KUMBUR_clean_sbu_1--node2-BETDAH_clean_linker_0--edge1-UVAHIK_clean_linker_0
_symmetry_space_group_name_H-M    P1
_symmetry_Int_Tables_number       1
_symmetry_cell_setting            triclinic
loop_
_symmetry_equiv_pos_as_xyz
'x, y, z'
_cell_length_a     45.422048
_cell_length_b     45.285796
_cell_length_c     34.213934
_cell_angle_alpha  80.982881
_cell_angle_beta   100.67115
_cell_angle_gamma 90.851044
loop_
_atom_site_label
_atom_site_type_symbol
_atom_site_fract_x
_atom_site_fract_y
_atom_site_fract_z
_atom_type_partial_charge
H0 H 0.16489 0.87636 1.00068 0.0
H1 H 0.21961 0.82044 0.09988 0.0
H2 H 0.22734 0.81313 0.97835 0.0
C3 C 0.18189 0.85899 0.01199 0.0
C4 C 0.19516 0.84599 0.98466 0.0
C5 C 0.19033 0.84985 0.05364 0.0
C6 C 0.21278 0.82781 0.06779 0.0
C7 C 0.2261 0.81435 0.04111 0.0
C8 C 0.21701 0.82319 0.99928 0.0
N9 N 0.24892 0.79256 0.05812 0.0
C10 C 0.26145 0.77306 0.03794 0.0
H11 H 0.64616 0.65693 0.61351 0.0
H12 H 0.71927 0.71005 0.57819 0.0
H13 H 0.71092 0.69149 0.70265 0.0
C14 C 0.66575 0.67033 0.62107 0.0
C15 C 0.67627 0.6731 0.66153 0.0
C16 C 0.68124 0.68325 0.59069 0.0
C17 C 0.70718 0.69992 0.60123 0.0
C18 C 0.71779 0.70289 0.64175 0.0
C19 C 0.7025 0.68915 0.67152 0.0
N20 N 0.74429 0.71856 0.65422 0.0
C21 C 0.75756 0.74013 0.62974 0.0
H22 H 0.86735 0.15158 0.06622 0.0
H23 H 0.79414 0.19943 0.09288 0.0
H24 H 0.79621 0.18876 0.97073 0.0
C25 C 0.84645 0.16409 0.05606 0.0
C26 C 0.83371 0.1689 0.01493 0.0
C27 C 0.83234 0.17488 0.08441 0.0
C28 C 0.80517 0.19113 0.0712 0.0
C29 C 0.79243 0.19647 0.02989 0.0
C30 C 0.80666 0.18513 1.00229 0.0
N31 N 0.76509 0.21255 0.0145 0.0
C32 C 0.74974 0.22901 0.03557 0.0
H33 H 0.36021 0.36363 0.45164 0.0
H34 H 0.30882 0.28934 0.49614 0.0
H35 H 0.32783 0.29794 0.37649 0.0
C36 C 0.34739 0.34372 0.44676 0.0
C37 C 0.34531 0.33305 0.40998 0.0
C38 C 0.33452 0.32803 0.47814 0.0
C39 C 0.3187 0.30164 0.4721 0.0
C40 C 0.31625 0.29091 0.4352 0.0
C41 C 0.32984 0.30648 0.40474 0.0
N42 N 0.30131 0.26404 0.42782 0.0
C43 C 0.27932 0.25078 0.44782 0.0
Tb44 Tb 0.03096 0.97805 0.50384 0.0
C45 C 0.97124 0.09401 0.50952 0.0
N46 N 0.99553 0.08122 0.53568 0.0
C47 C 0.02145 0.12781 0.52797 0.0
C48 C 0.9717 0.1237 0.48968 0.0
C49 C 0.01953 0.09846 0.54743 0.0
C50 C 0.99769 0.14027 0.49823 0.0
C51 C 0.9185 0.091 0.48102 0.0
C52 C 0.94505 0.07804 0.50523 0.0
C53 C 0.91922 0.11992 0.45925 0.0
C54 C 0.94582 0.13623 0.4635 0.0
Tb55 Tb 0.99056 0.03197 0.56249 0.0
N56 N 0.94547 0.04989 0.5259 0.0
C57 C 0.89204 0.07462 0.48002 0.0
C58 C 0.91949 0.03443 0.52696 0.0
C59 C 0.89246 0.04639 0.50361 0.0
H60 H 0.03722 0.08981 0.57208 0.0
H61 H 0.87202 0.03382 0.50372 0.0
H62 H 0.00669 0.91074 0.53144 0.0
H63 H 0.14463 0.0182 0.5092 0.0
H64 H 0.91984 0.01264 0.54517 0.0
H65 H 0.87113 0.08377 0.4618 0.0
H66 H 0.0907 0.01746 0.48138 0.0
H67 H 0.04102 0.14096 0.53645 0.0
H68 H 0.8992 0.13014 0.43987 0.0
H69 H 0.94585 0.15887 0.44753 0.0
H70 H 0.0267 0.86377 0.57513 0.0
H71 H 0.99902 0.16315 0.48361 0.0
H72 H 0.16771 0.9779 0.56319 0.0
N73 N 0.04768 0.9338 0.54268 0.0
C74 C 0.07717 0.9319 0.55958 0.0
C75 C 0.04108 0.88286 0.57127 0.0
C76 C 0.0896 0.90579 0.58484 0.0
C77 C 0.02978 0.90942 0.54666 0.0
C78 C 0.07102 0.88118 0.59098 0.0
N79 N 0.08217 0.97956 0.52312 0.0
C80 C 0.10001 1.00071 0.50654 0.0
C81 C 0.12596 0.95462 0.56569 0.0
C82 C 0.09494 0.95595 0.55015 0.0
C83 C 0.14378 0.97801 0.55199 0.0
C84 C 0.13082 1.00082 0.52159 0.0
H85 H 0.0797 0.86065 0.61015 0.0
H86 H 0.1301 0.8853 0.62242 0.0
H87 H 0.16203 0.92812 0.60558 0.0
O88 O 0.05311 0.96358 0.46107 0.0
O89 O 0.02843 0.9657 0.56792 0.0
O90 O 0.03304 0.00982 0.59308 0.0
O91 O 0.00582 0.95794 0.45732 0.0
O92 O 0.04344 0.02554 0.49954 0.0
O93 O 0.03846 0.03896 0.56044 0.0
O94 O 0.9726 0.01471 0.61366 0.0
O95 O 0.97136 0.02382 0.50118 0.0
O96 O 0.01174 0.02078 0.47098 0.0
O97 O 0.98356 0.061 0.6025 0.0
O98 O 0.97365 0.98614 0.56504 0.0
O99 O 0.98467 0.96595 0.51028 0.0
C100 C 0.03902 0.98111 0.59672 0.0
C101 C 0.02378 0.96839 0.39608 0.0
C102 C 0.03705 0.96865 0.32997 0.0
C103 C 0.01657 0.99244 0.31408 0.0
C104 C 1.00333 0.992 0.37948 0.0
C105 C 0.99983 0.00396 0.33873 0.0
C106 C 0.0405 0.95674 0.37118 0.0
C107 C 0.05145 0.04157 0.52868 0.0
C108 C 0.02842 0.95616 0.43936 0.0
C109 C 0.12015 0.90497 0.60237 0.0
C110 C 0.13831 0.92939 0.59288 0.0
C111 C 0.98436 0.03014 0.46982 0.0
C112 C 0.98818 0.03864 0.67015 0.0
C113 C 0.98494 0.04894 0.73719 0.0
C114 C 0.01357 0.0359 0.75185 0.0
C115 C 0.01676 0.02592 0.68528 0.0
C116 C 0.9724 0.05022 0.69609 0.0
C117 C 0.02934 0.02452 0.72597 0.0
C118 C 0.96898 0.96691 0.53914 0.0
C119 C 0.97443 0.03991 0.62752 0.0
H120 H 0.01315 1.00185 0.28244 0.0
H121 H 0.99002 1.00117 0.39793 0.0
H122 H 0.98402 0.02217 0.3262 0.0
H123 H 0.0565 0.93871 0.38407 0.0
H124 H 0.02394 0.03486 0.78321 0.0
H125 H 0.02926 0.01707 0.66569 0.0
H126 H 0.9502 0.05982 0.68435 0.0
H127 H 0.05142 0.01465 0.73746 0.0
Tb128 Tb 0.47963 0.48415 0.99864 0.0
C129 C 0.58222 0.56928 0.02803 0.0
N130 N 0.58125 0.54089 0.04742 0.0
C131 C 0.63074 0.5311 0.03706 0.0
C132 C 0.60697 0.57937 0.01045 0.0
C133 C 0.60548 0.5221 0.05367 0.0
C134 C 0.6313 0.55972 0.0148 0.0
C135 C 0.55905 0.61837 0.00846 0.0
C136 C 0.55859 0.58834 0.02702 0.0
C137 C 0.5828 0.62823 0.98876 0.0
C138 C 0.60677 0.60875 0.98981 0.0
Tb139 Tb 0.53902 0.52778 0.07262 0.0
N140 N 0.53639 0.57799 0.04701 0.0
C141 C 0.53638 0.63786 0.01185 0.0
C142 C 0.51618 0.59774 0.05402 0.0
C143 C 0.51525 0.62764 0.03554 0.0
H144 H 0.60501 0.50001 0.07081 0.0
H145 H 0.49856 0.64289 0.04018 0.0
H146 H 0.42212 0.53239 0.9621 0.0
H147 H 0.47609 0.36875 0.06624 0.0
H148 H 0.50083 0.59074 0.07418 0.0
H149 H 0.53587 0.66111 0.99802 0.0
H150 H 0.49683 0.41289 0.02832 0.0
H151 H 0.64966 0.51595 0.04127 0.0
H152 H 0.58334 0.65112 0.97383 0.0
H153 H 0.62533 0.61684 0.97546 0.0
H154 H 0.37246 0.54133 0.9777 0.0
H155 H 0.65079 0.56659 1.00176 0.0
H156 H 0.42855 0.37364 0.09055 0.0
N157 N 0.43145 0.49318 0.00603 0.0
C158 C 0.41929 0.4715 0.03002 0.0
C159 C 0.38561 0.5218 0.99323 0.0
C160 C 0.39045 0.47486 0.03856 0.0
C161 C 0.41409 0.51698 0.98511 0.0
C162 C 0.37401 0.50099 0.02088 0.0
N163 N 0.46176 0.44217 0.03224 0.0
C164 C 0.47605 0.41501 0.03877 0.0
C165 C 0.42208 0.42042 0.06471 0.0
C166 C 0.43473 0.44473 0.04287 0.0
C167 C 0.4375 0.39291 0.07384 0.0
C168 C 0.46435 0.39007 0.06016 0.0
H169 H 0.35178 0.50453 0.02669 0.0
H170 H 0.35651 0.45377 0.07012 0.0
H171 H 0.38433 0.40601 0.09316 0.0
O172 O 0.49416 0.46222 0.95567 0.0
O173 O 0.49171 0.46826 0.06385 0.0
O174 O 0.49823 0.5106 0.093 0.0
O175 O 0.44809 0.47481 0.94873 0.0
O176 O 0.52533 0.46496 0.01478 0.0
O177 O 0.55019 0.48028 0.07462 0.0
O178 O 0.5563 0.55366 0.11762 0.0
O179 O 0.54695 0.51977 0.01363 0.0
O180 O 0.50075 0.52455 0.97297 0.0
O181 O 0.56328 0.50621 0.12782 0.0
O182 O 0.49133 0.54103 0.06051 0.0
O183 O 0.47397 0.53284 0.99537 0.0
C184 C 0.48848 0.4832 0.09269 0.0
C185 C 0.46723 0.47444 0.88944 0.0
C186 C 0.45322 0.46697 0.81928 0.0
C187 C 0.46732 0.49392 0.80752 0.0
C188 C 0.48091 0.50135 0.87704 0.0
C189 C 0.48096 0.51102 0.83628 0.0
C190 C 0.45317 0.45743 0.86047 0.0
C191 C 0.54664 0.46197 0.04744 0.0
C192 C 0.46799 0.46352 0.93243 0.0
C193 C 0.37845 0.45146 0.0627 0.0
C194 C 0.39424 0.42422 0.07571 0.0
C195 C 0.52975 0.52904 0.97875 0.0
C196 C 0.55675 0.5288 0.18346 0.0
C197 C 0.56103 0.54691 0.24795 0.0
C198 C 0.53843 0.52703 0.25773 0.0
C199 C 0.53435 0.50908 0.19401 0.0
C200 C 0.57009 0.5476 0.21058 0.0
C201 C 0.52524 0.50827 0.23091 0.0
C202 C 0.47299 0.5474 0.02556 0.0
C203 C 0.56593 0.53045 0.14403 0.0
H204 H 0.4675 0.50192 0.77602 0.0
H205 H 0.49168 0.51475 0.89888 0.0
H206 H 0.49165 0.53179 0.82696 0.0
H207 H 0.44275 0.43651 0.87006 0.0
H208 H 0.53123 0.52565 0.28642 0.0
H209 H 0.52393 0.49424 0.17382 0.0
H210 H 0.58719 0.56304 0.20229 0.0
H211 H 0.50797 0.49297 0.2388 0.0
C212 C 0.2295 0.2294 0.43284 0.0
C213 C 0.25466 0.23437 0.46136 0.0
C214 C 0.2066 0.21099 0.44416 0.0
C215 C 0.19236 0.14924 0.5226 0.0
H216 H 0.1098 0.16446 0.46886 0.0
C217 C 0.09396 0.07204 0.55814 0.0
C218 C 0.07451 0.06461 0.52424 0.0
C219 C 0.11555 0.0941 0.55368 0.0
C220 C 0.13278 0.15986 0.48402 0.0
H221 H 0.27593 0.2248 0.52403 0.0
H222 H 0.23544 0.19288 0.54444 0.0
H223 H 0.14767 0.20169 0.45651 0.0
H224 H 0.06217 0.07436 0.45926 0.0
H225 H 0.09967 0.11296 0.45143 0.0
H226 H 0.17723 0.10731 0.55006 0.0
C227 C 0.23347 0.20286 0.51315 0.0
C228 C 0.15453 0.18117 0.47691 0.0
C229 C 0.2565 0.22128 0.50166 0.0
C230 C 0.07696 0.0796 0.48587 0.0
C231 C 0.09825 0.10186 0.48145 0.0
C232 C 0.1705 0.12802 0.52998 0.0
C233 C 0.20836 0.19718 0.48438 0.0
C234 C 0.18474 0.1759 0.49542 0.0
C235 C 0.11779 0.10937 0.51527 0.0
C236 C 0.14059 0.13285 0.51014 0.0
H237 H 0.22792 0.23909 0.40146 0.0
H238 H 0.18801 0.20678 0.42099 0.0
H239 H 0.2154 0.1442 0.53704 0.0
H240 H 0.09255 0.0607 0.58805 0.0
H241 H 0.13022 0.0995 0.58029 0.0
C242 C 0.29037 0.75297 0.99273 0.0
C243 C 0.27756 0.74916 0.02739 0.0
C244 C 0.30873 0.73035 0.9859 0.0
C245 C 0.33128 0.64995 0.02191 0.0
H246 H 0.4046 0.67367 0.98358 0.0
C247 C 0.43573 0.57354 0.05368 0.0
C248 C 0.44957 0.57059 0.02105 0.0
C249 C 0.41294 0.5948 0.04946 0.0
C250 C 0.38404 0.66672 0.99387 0.0
H251 H 0.27334 0.7194 0.08191 0.0
H252 H 0.30557 0.68035 0.07077 0.0
H253 H 0.36712 0.71167 0.98425 0.0
H254 H 0.45108 0.5878 0.95874 0.0
H255 H 0.41152 0.62575 0.95161 0.0
H256 H 0.34895 0.60518 0.03326 0.0
C257 C 0.30112 0.70009 0.04808 0.0
C258 C 0.36245 0.68846 0.99409 0.0
C259 C 0.28275 0.72252 0.05468 0.0
C260 C 0.44059 0.58962 0.98426 0.0
C261 C 0.41811 0.61131 0.98024 0.0
C262 C 0.35299 0.62835 0.02219 0.0
C263 C 0.31466 0.70374 0.01383 0.0
C264 C 0.33604 0.68042 0.00893 0.0
C265 C 0.40389 0.61391 0.01273 0.0
C266 C 0.37982 0.63657 0.00887 0.0
H267 H 0.28672 0.77357 0.97148 0.0
H268 H 0.3185 0.73384 0.959 0.0
H269 H 0.31093 0.64274 0.03257 0.0
H270 H 0.44221 0.55907 0.08231 0.0
H271 H 0.40258 0.59653 0.07511 0.0
C272 C 0.79157 0.76058 0.58356 0.0
C273 C 0.77414 0.76451 0.61221 0.0
C274 C 0.81087 0.78322 0.57135 0.0
C275 C 0.85393 0.84451 0.61079 0.0
H276 H 0.86346 0.87196 0.50075 0.0
C277 C 0.92748 0.94516 0.5733 0.0
C278 C 0.94518 0.94444 0.5438 0.0
C279 C 0.90573 0.92361 0.57891 0.0
C280 C 0.86136 0.86428 0.5317 0.0
H281 H 0.76219 0.7948 0.64989 0.0
H282 H 0.79574 0.83434 0.62867 0.0
H283 H 0.82662 0.83355 0.51456 0.0
H284 H 0.95318 0.92057 0.49638 0.0
H285 H 0.91587 0.88235 0.50713 0.0
H286 H 0.88889 0.8744 0.62837 0.0
C287 C 0.79475 0.81394 0.61565 0.0
C288 C 0.84018 0.84234 0.53954 0.0
C289 C 0.77541 0.79148 0.62756 0.0
C290 C 0.94014 0.92179 0.51958 0.0
C291 C 0.91852 0.89996 0.52551 0.0
C292 C 0.87521 0.86612 0.60306 0.0
C293 C 0.8132 0.80983 0.58811 0.0
C294 C 0.83602 0.83252 0.57917 0.0
C295 C 0.90122 0.90042 0.55556 0.0
C296 C 0.87902 0.87661 0.5634 0.0
H297 H 0.79103 0.73971 0.57171 0.0
H298 H 0.82492 0.77938 0.55023 0.0
H299 H 0.85173 0.83692 0.64174 0.0
H300 H 0.93042 0.96234 0.59238 0.0
H301 H 0.89239 0.9252 0.60168 0.0
C302 C 0.69951 0.24986 0.02942 0.0
C303 C 0.7296 0.24818 0.04848 0.0
C304 C 0.68014 0.27095 0.03718 0.0
C305 C 0.68081 0.34396 0.07299 0.0
H306 H 0.59585 0.32865 0.06517 0.0
C307 C 0.59286 0.43297 0.08553 0.0
C308 C 0.56801 0.43637 0.05365 0.0
C309 C 0.61313 0.40903 0.09065 0.0
C310 C 0.61953 0.33323 0.06747 0.0
H311 H 0.76337 0.26636 0.09115 0.0
H312 H 0.72927 0.30304 0.10586 0.0
H313 H 0.63029 0.28764 0.06628 0.0
H314 H 0.54508 0.41685 1.0024 0.0
H315 H 0.57992 0.37498 0.01205 0.0
H316 H 0.66974 0.38968 0.07421 0.0
C317 C 0.7206 0.28837 0.08442 0.0
C318 C 0.6393 0.30977 0.06794 0.0
C319 C 0.74007 0.26725 0.07639 0.0
C320 C 0.56379 0.41502 0.02742 0.0
C321 C 0.58372 0.39089 0.03298 0.0
C322 C 0.66102 0.36738 0.07304 0.0
C323 C 0.69045 0.29081 0.06438 0.0
C324 C 0.67012 0.31495 0.06955 0.0
C325 C 0.60866 0.38768 0.06451 0.0
C326 C 0.63009 0.36237 0.06922 0.0
H327 H 0.69117 0.23554 0.00733 0.0
H328 H 0.65737 0.27243 0.02049 0.0
H329 H 0.70428 0.34895 0.07383 0.0
H330 H 0.59682 0.44884 0.10647 0.0
H331 H 0.63213 0.40702 0.11531 0.0
C332 C 0.19216 0.87074 0.11795 0.0
C333 C 0.17539 0.86286 0.08234 0.0
C334 C 0.17796 0.88225 0.14538 0.0
C335 C 0.10481 0.88483 0.17699 0.0
H336 H 0.13856 0.95186 0.22722 0.0
C337 C 0.05819 0.92519 0.30603 0.0
C338 C 0.05457 0.95625 0.30346 0.0
C339 C 0.07378 0.91355 0.28009 0.0
C340 C 0.12879 0.93321 0.21332 0.0
H341 H 0.13051 0.86076 0.04774 0.0
H342 H 0.10576 0.88115 0.09537 0.0
H343 H 0.16368 0.93253 0.17906 0.0
H344 H 0.06518 0.99945 0.27233 0.0
H345 H 0.09212 0.97915 0.22685 0.0
H346 H 0.06968 0.88578 0.21076 0.0
C347 C 0.12989 0.87825 0.10221 0.0
C348 C 0.14333 0.92195 0.18603 0.0
C349 C 0.1441 0.86688 0.0747 0.0
C350 C 0.0673 0.97541 0.2748 0.0
C351 C 0.08301 0.96378 0.24901 0.0
C352 C 0.09035 0.89599 0.20442 0.0
C353 C 0.14663 0.88598 0.13794 0.0
C354 C 0.13143 0.89772 0.16739 0.0
C355 C 0.08625 0.93272 0.25116 0.0
C356 C 0.10209 0.92039 0.22279 0.0
H357 H 0.21633 0.86814 0.12455 0.0
H358 H 0.19148 0.88778 0.17276 0.0
H359 H 0.09523 0.86594 0.16349 0.0
H360 H 0.04847 0.90983 0.32757 0.0
H361 H 0.07614 0.88952 0.28278 0.0
C362 C 0.67624 0.64205 0.72901 0.0
C363 C 0.66027 0.65872 0.69353 0.0
C364 C 0.66131 0.62863 0.7593 0.0
C365 C 0.58558 0.60543 0.77851 0.0
H366 H 0.62476 0.6009 0.89015 0.0
C367 C 0.52706 0.56499 0.91453 0.0
C368 C 0.54343 0.54391 0.94501 0.0
C369 C 0.54046 0.57959 0.88327 0.0
C370 C 0.61363 0.60188 0.85908 0.0
H371 H 0.61619 0.67465 0.66208 0.0
H372 H 0.5901 0.65189 0.71532 0.0
H373 H 0.64962 0.62575 0.83691 0.0
H374 H 0.58614 0.52074 0.9659 0.0
H375 H 0.60989 0.54696 0.91222 0.0
H376 H 0.54933 0.58194 0.80114 0.0
C377 C 0.6141 0.64853 0.71947 0.0
C378 C 0.6279 0.616 0.82849 0.0
C379 C 0.62903 0.66168 0.68896 0.0
C380 C 0.57324 0.53742 0.94337 0.0
C381 C 0.58679 0.55234 0.91258 0.0
C382 C 0.57115 0.59161 0.80918 0.0
C383 C 0.63004 0.63182 0.7551 0.0
C384 C 0.61425 0.61769 0.78773 0.0
C385 C 0.57057 0.57363 0.88226 0.0
C386 C 0.58518 0.58943 0.84973 0.0
H387 H 0.70029 0.63901 0.73312 0.0
H388 H 0.67432 0.61541 0.78581 0.0
H389 H 0.5745 0.60587 0.74755 0.0
H390 H 0.50402 0.57044 0.91513 0.0
H391 H 0.52748 0.59598 0.86033 0.0
C392 C 0.87677 0.17192 0.14031 0.0
C393 C 0.84598 0.16775 0.12774 0.0
C394 C 0.89098 0.1606 0.17946 0.0
C395 C 0.87858 0.1279 0.28173 0.0
H396 H 0.95423 0.08752 0.28681 0.0
C397 C 0.93683 0.04586 0.42142 0.0
C398 C 0.96806 0.04775 0.43229 0.0
C399 C 0.9215 0.06255 0.38576 0.0
C400 C 0.93335 0.09903 0.28608 0.0
H401 H 0.80556 0.14986 0.14682 0.0
H402 H 0.83043 0.12973 0.21542 0.0
H403 H 0.92811 0.11408 0.22281 0.0
H404 H 0.00789 0.06824 0.41444 0.0
H405 H 0.98127 0.09726 0.35202 0.0
H406 H 0.88382 0.11227 0.3452 0.0
C407 C 0.84358 0.14201 0.19509 0.0
C408 C 0.91835 0.11434 0.24934 0.0
C409 C 0.8293 0.15355 0.15584 0.0
C410 C 0.98378 0.06635 0.40671 0.0
C411 C 0.96853 0.08292 0.37097 0.0
C412 C 0.89362 0.11249 0.3186 0.0
C413 C 0.87478 0.14461 0.20696 0.0
C414 C 0.8908 0.12903 0.24664 0.0
C415 C 0.93721 0.08115 0.36 0.0
C416 C 0.9212 0.0979 0.32116 0.0
H417 H 0.89008 0.18313 0.11936 0.0
H418 H 0.91487 0.1637 0.18786 0.0
H419 H 0.85753 0.13915 0.28079 0.0
H420 H 0.92429 0.03115 0.44022 0.0
H421 H 0.89745 0.06033 0.3779 0.0
C422 C 0.33569 0.36898 0.51989 0.0
C423 C 0.33953 0.33858 0.51777 0.0
C424 C 0.34425 0.37978 0.55636 0.0
C425 C 0.39862 0.36419 0.64994 0.0
H426 H 0.35429 0.425 0.6841 0.0
C427 C 0.40988 0.43764 0.78887 0.0
C428 C 0.43887 0.44887 0.78851 0.0
C429 C 0.396 0.42163 0.7588 0.0
C430 C 0.3668 0.40781 0.67518 0.0
H431 H 0.35438 0.29544 0.55241 0.0
H432 H 0.36951 0.31435 0.61631 0.0
H433 H 0.33135 0.4013 0.6265 0.0
H434 H 0.47636 0.45142 0.75717 0.0
H435 H 0.45226 0.42332 0.70489 0.0
H436 H 0.43434 0.37122 0.69793 0.0
C437 C 0.35988 0.32981 0.58967 0.0
C438 C 0.35376 0.39441 0.64207 0.0
C439 C 0.35098 0.31894 0.55323 0.0
C440 C 0.45392 0.44324 0.75801 0.0
C441 C 0.44022 0.42694 0.72831 0.0
C442 C 0.41177 0.37783 0.68273 0.0
C443 C 0.35713 0.36045 0.59145 0.0
C444 C 0.36967 0.3727 0.62881 0.0
C445 C 0.41103 0.41616 0.72817 0.0
C446 C 0.39616 0.40006 0.69538 0.0
H447 H 0.3268 0.38458 0.49303 0.0
H448 H 0.34204 0.40352 0.55667 0.0
H449 H 0.41156 0.34775 0.64023 0.0
H450 H 0.3977 0.44179 0.8119 0.0
H451 H 0.37355 0.41346 0.75955 0.0
C452 C 0.6404 0.67779 0.53189 0.0
C453 C 0.67111 0.67748 0.54869 0.0
C454 C 0.63052 0.66856 0.49461 0.0
C455 C 0.65387 0.61979 0.42905 0.0
H456 H 0.58365 0.65392 0.35394 0.0
C457 C 0.60636 0.57036 0.2846 0.0
C458 C 0.57514 0.56656 0.27698 0.0
C459 C 0.6197 0.58737 0.31377 0.0
C460 C 0.60322 0.64406 0.3747 0.0
H461 H 0.7156 0.66839 0.53857 0.0
H462 H 0.69838 0.65282 0.47305 0.0
H463 H 0.60434 0.67831 0.41157 0.0
H464 H 0.5334 0.57869 0.29291 0.0
H465 H 0.55663 0.60794 0.34408 0.0
H466 H 0.65241 0.58522 0.39268 0.0
C467 C 0.6819 0.65979 0.48907 0.0
C468 C 0.61509 0.65804 0.40774 0.0
C469 C 0.6918 0.66906 0.5264 0.0
C470 C 0.55753 0.58086 0.2984 0.0
C471 C 0.57083 0.59793 0.32741 0.0
C472 C 0.64204 0.60584 0.39599 0.0
C473 C 0.6511 0.6588 0.47312 0.0
C474 C 0.64026 0.64579 0.43572 0.0
C475 C 0.60211 0.60111 0.33582 0.0
C476 C 0.61626 0.61751 0.3688 0.0
H477 H 0.6239 0.68448 0.54808 0.0
H478 H 0.60663 0.66789 0.48347 0.0
H479 H 0.673 0.60946 0.45028 0.0
H480 H 0.62058 0.55951 0.2688 0.0
H481 H 0.64382 0.58961 0.31925 0.0
C482 C 0.86154 0.12784 0.99477 0.0
C483 C 0.84842 0.15662 0.98535 0.0
C484 C 0.87545 0.11631 0.96712 0.0
C485 C 0.90906 0.13937 0.87652 0.0
H486 H 0.90062 0.05554 0.8657 0.0
C487 C 0.953 0.08887 0.75266 0.0
C488 C 0.96824 0.0612 0.76469 0.0
C489 C 0.93767 0.10058 0.77879 0.0
C490 C 0.90339 0.07894 0.86862 0.0
H491 H 0.8398 0.19586 0.93935 0.0
H492 H 0.86339 0.17546 0.89071 0.0
H493 H 0.87503 0.07588 0.91248 0.0
H494 H 0.97886 0.0239 0.81332 0.0
H495 H 0.95229 0.04444 0.85904 0.0
H496 H 0.93734 0.14238 0.83248 0.0
C497 C 0.86329 0.16195 0.91975 0.0
C498 C 0.88876 0.09061 0.89549 0.0
C499 C 0.84944 0.17352 0.94747 0.0
C500 C 0.96758 0.0454 0.8033 0.0
C501 C 0.95211 0.05702 0.82933 0.0
C502 C 0.92358 0.12772 0.84952 0.0
C503 C 0.87651 0.1332 0.92925 0.0
C504 C 0.89154 0.12094 0.89995 0.0
C505 C 0.93706 0.08479 0.81743 0.0
C506 C 0.92104 0.09734 0.84542 0.0
H507 H 0.86084 0.11404 0.02344 0.0
H508 H 0.88569 0.09424 0.97567 0.0
H509 H 0.91208 0.16271 0.8796 0.0
H510 H 0.95329 0.1017 0.72322 0.0
H511 H 0.92608 0.12191 0.7686 0.0
C512 C 0.37551 0.33339 0.35534 0.0
C513 C 0.35984 0.34924 0.3774 0.0
C514 C 0.3891 0.3485 0.32466 0.0
C515 C 0.41687 0.42282 0.2867 0.0
H516 H 0.41345 0.38909 0.18854 0.0
C517 C 0.458 0.48568 0.14597 0.0
C518 C 0.47432 0.46868 0.12611 0.0
C519 C 0.44383 0.47173 0.1768 0.0
C520 C 0.41485 0.39865 0.21593 0.0
H521 H 0.34597 0.39346 0.38423 0.0
H522 H 0.36959 0.41987 0.33053 0.0
H523 H 0.38886 0.36365 0.24172 0.0
H524 H 0.49005 0.42415 0.12424 0.0
H525 H 0.46495 0.39964 0.17754 0.0
H526 H 0.44285 0.45788 0.26071 0.0
C527 C 0.37174 0.39574 0.33736 0.0
C528 C 0.40077 0.38406 0.24645 0.0
C529 C 0.35818 0.38061 0.36813 0.0
C530 C 0.47686 0.43764 0.13827 0.0
C531 C 0.46255 0.42365 0.16885 0.0
C532 C 0.4309 0.43746 0.2561 0.0
C533 C 0.38734 0.37986 0.31518 0.0
C534 C 0.40175 0.39585 0.28233 0.0
C535 C 0.44571 0.4405 0.18832 0.0
C536 C 0.43021 0.42543 0.22049 0.0
H537 H 0.37768 0.30926 0.36218 0.0
H538 H 0.4014 0.33558 0.30874 0.0
H539 H 0.41841 0.43234 0.31413 0.0
H540 H 0.45579 0.50971 0.13722 0.0
H541 H 0.43091 0.48532 0.19109 0.0
C542 C 0.18673 0.88751 0.92635 0.0
C543 C 0.1858 0.85682 0.94101 0.0
C544 C 0.17427 0.8987 0.8864 0.0
C545 C 0.11434 0.88348 0.80625 0.0
H546 H 0.15126 0.94468 0.7393 0.0
C547 C 0.05331 0.93508 0.64728 0.0
C548 C 0.05715 0.96566 0.63461 0.0
C549 C 0.07091 0.92017 0.68252 0.0
C550 C 0.14044 0.92787 0.75775 0.0
H551 H 0.17198 0.81359 0.92536 0.0
H552 H 0.14965 0.83324 0.85519 0.0
H553 H 0.17967 0.92112 0.80409 0.0
H554 H 0.082 0.00486 0.64929 0.0
H555 H 0.11175 0.97934 0.71191 0.0
H556 H 0.07472 0.89096 0.76111 0.0
C557 C 0.16018 0.84858 0.87469 0.0
C558 C 0.15684 0.91423 0.79475 0.0
C559 C 0.17311 0.83731 0.91462 0.0
C560 C 0.07858 0.98123 0.65832 0.0
C561 C 0.09591 0.96646 0.69395 0.0
C562 C 0.0978 0.89736 0.76952 0.0
C563 C 0.16021 0.87947 0.86039 0.0
C564 C 0.14388 0.89207 0.81954 0.0
C565 C 0.0924 0.93566 0.70651 0.0
C566 C 0.11052 0.91996 0.74488 0.0
H567 H 0.19639 0.90298 0.9462 0.0
H568 H 0.17443 0.9226 0.87638 0.0
H569 H 0.10359 0.86681 0.82501 0.0
H570 H 0.03656 0.92264 0.63001 0.0
H571 H 0.06773 0.89643 0.69077 0.0
loop_
_geom_bond_atom_site_label_1
_geom_bond_atom_site_label_2
_geom_bond_distance
_geom_bond_site_symmetry_2
_ccdc_geom_bond_type
H0 C3 0.929 . S
H1 C6 0.929 . S
H2 C8 0.930 . S
C3 H0 0.929 . S
C3 C4 1.398 1_554 S
C3 C5 1.396 . S
C4 C3 1.398 1_556 S
C4 C8 1.407 . S
C5 C3 1.396 . S
C5 C6 1.394 . S
C6 H1 0.929 . S
C6 C5 1.394 . S
C6 C7 1.382 . S
C7 C6 1.382 . S
C7 C8 1.392 1_554 S
C7 N9 1.420 . S
C8 H2 0.930 . S
C8 C4 1.407 . S
C8 C7 1.392 1_556 S
N9 C7 1.420 . S
N9 C10 1.244 . S
C10 N9 1.244 . S
H11 C14 0.929 . S
H12 C17 0.929 . S
H13 C19 0.930 . S
C14 H11 0.929 . S
C14 C15 1.398 . S
C14 C16 1.396 . S
C15 C14 1.398 . S
C15 C19 1.407 . S
C16 C14 1.396 . S
C16 C17 1.394 . S
C17 H12 0.929 . S
C17 C16 1.394 . S
C17 C18 1.382 . S
C18 C17 1.382 . S
C18 C19 1.392 . S
C18 N20 1.420 . S
C19 H13 0.930 . S
C19 C15 1.407 . S
C19 C18 1.392 . S
N20 C18 1.420 . S
N20 C21 1.244 . S
C21 N20 1.244 . S
H22 C25 0.929 . S
H23 C28 0.929 . S
H24 C30 0.930 . S
C25 H22 0.929 . S
C25 C26 1.398 1_554 S
C25 C27 1.396 . S
C26 C25 1.398 1_556 S
C26 C30 1.407 . S
C27 C25 1.396 . S
C27 C28 1.394 . S
C28 H23 0.929 . S
C28 C27 1.394 . S
C28 C29 1.382 . S
C29 C28 1.382 . S
C29 C30 1.392 1_554 S
C29 N31 1.420 . S
C30 H24 0.930 . S
C30 C26 1.407 . S
C30 C29 1.392 1_556 S
N31 C29 1.420 . S
N31 C32 1.244 . S
C32 N31 1.244 . S
H33 C36 0.929 . S
H34 C39 0.929 . S
H35 C41 0.930 . S
C36 H33 0.929 . S
C36 C37 1.398 . S
C36 C38 1.396 . S
C37 C36 1.398 . S
C37 C41 1.407 . S
C38 C36 1.396 . S
C38 C39 1.394 . S
C39 H34 0.929 . S
C39 C38 1.394 . S
C39 C40 1.382 . S
C40 C39 1.382 . S
C40 C41 1.392 . S
C40 N42 1.420 . S
C41 H35 0.930 . S
C41 C37 1.407 . S
C41 C40 1.392 . S
N42 C40 1.420 . S
N42 C43 1.244 . S
C43 N42 1.244 . S
Tb44 N73 2.617 . S
Tb44 N79 2.572 . S
Tb44 O88 2.465 . S
Tb44 O89 2.387 . S
Tb44 O91 2.428 . S
Tb44 O92 2.308 1_565 S
Tb44 O96 2.349 1_465 S
Tb44 O99 2.393 1_455 S
Tb44 C108 2.802 . S
C45 N46 1.379 . S
C45 C48 1.416 . S
C45 C52 1.424 . S
N46 C45 1.379 . S
N46 C49 1.334 1_655 S
N46 Tb55 2.617 . S
C47 C49 1.390 . S
C47 C50 1.339 1_455 S
C47 H67 0.930 . S
C48 C45 1.416 . S
C48 C50 1.416 . S
C48 C54 1.448 . S
C49 N46 1.334 1_455 S
C49 C47 1.390 . S
C49 H60 0.930 . S
C50 C47 1.339 1_655 S
C50 C48 1.416 . S
C50 H71 0.930 . S
C51 C52 1.413 . S
C51 C53 1.427 . S
C51 C57 1.416 . S
C52 C45 1.424 . S
C52 C51 1.413 . S
C52 N56 1.361 . S
C53 C51 1.427 . S
C53 C54 1.328 . S
C53 H68 0.929 . S
C54 C48 1.448 . S
C54 C53 1.328 . S
C54 H69 0.930 . S
Tb55 N46 2.617 . S
Tb55 N56 2.572 . S
Tb55 O90 2.349 1_655 S
Tb55 O93 2.393 1_655 S
Tb55 O94 2.465 . S
Tb55 O95 2.387 . S
Tb55 O97 2.428 . S
Tb55 O98 2.308 1_545 S
Tb55 C119 2.802 . S
N56 C52 1.361 . S
N56 Tb55 2.572 . S
N56 C58 1.340 . S
C57 C51 1.416 . S
C57 C59 1.332 . S
C57 H65 0.931 . S
C58 N56 1.340 . S
C58 C59 1.407 . S
C58 H64 0.930 . S
C59 C57 1.332 . S
C59 C58 1.407 . S
C59 H61 0.929 . S
H60 C49 0.930 . S
H61 C59 0.929 . S
H62 C77 0.930 1_655 S
H63 C84 0.929 . S
H64 C58 0.930 . S
H65 C57 0.931 . S
H66 C80 0.930 . S
H67 C47 0.930 . S
H68 C53 0.929 . S
H69 C54 0.930 . S
H70 C75 0.930 1_655 S
H71 C50 0.930 . S
H72 C83 0.931 . S
N73 Tb44 2.617 . S
N73 C74 1.379 . S
N73 C77 1.334 . S
C74 N73 1.379 . S
C74 C76 1.416 . S
C74 C82 1.424 . S
C75 H70 0.930 1_455 S
C75 C77 1.390 . S
C75 C78 1.339 . S
C76 C74 1.416 . S
C76 C78 1.416 . S
C76 C109 1.448 . S
C77 H62 0.930 1_455 S
C77 N73 1.334 . S
C77 C75 1.390 . S
C78 C75 1.339 . S
C78 C76 1.416 . S
C78 H85 0.930 . S
N79 Tb44 2.572 . S
N79 C80 1.340 . S
N79 C82 1.361 . S
C80 H66 0.930 . S
C80 N79 1.340 . S
C80 C84 1.407 . S
C81 C82 1.413 . S
C81 C83 1.416 . S
C81 C110 1.427 . S
C82 C74 1.424 . S
C82 N79 1.361 . S
C82 C81 1.413 . S
C83 H72 0.931 . S
C83 C81 1.416 . S
C83 C84 1.332 . S
C84 H63 0.929 . S
C84 C80 1.407 . S
C84 C83 1.332 . S
H85 C78 0.930 . S
H86 C109 0.930 . S
H87 C110 0.929 . S
O88 Tb44 2.465 . S
O88 C108 1.264 . S
O89 Tb44 2.387 . S
O89 C100 1.264 . S
O90 Tb55 2.349 1_455 S
O90 C100 1.243 1_545 S
O91 Tb44 2.428 . S
O91 C108 1.256 . S
O92 Tb44 2.308 1_545 S
O92 C107 1.266 . S
O93 Tb55 2.393 1_455 S
O93 C107 1.248 . S
O94 Tb55 2.465 . S
O94 C119 1.264 . S
O95 Tb55 2.387 . S
O95 C111 1.264 . S
O96 Tb44 2.349 1_645 S
O96 C111 1.243 . S
O97 Tb55 2.428 . S
O97 C119 1.256 . S
O98 Tb55 2.308 1_565 S
O98 C118 1.266 . S
O99 Tb44 2.393 1_655 S
O99 C118 1.248 . S
C100 O89 1.264 . S
C100 O90 1.243 1_565 S
C101 C104 1.399 . S
C101 C106 1.383 . S
C101 C108 1.496 . S
C102 C103 1.399 . S
C102 C106 1.389 . S
C103 C102 1.399 . S
C103 C105 1.380 . S
C103 H120 0.929 . S
C104 C101 1.399 . S
C104 C105 1.392 . S
C104 H121 0.929 . S
C105 C103 1.380 . S
C105 C104 1.392 . S
C105 H122 0.929 . S
C106 C101 1.383 . S
C106 C102 1.389 . S
C106 H123 0.931 . S
C107 O92 1.266 . S
C107 O93 1.248 . S
C108 Tb44 2.802 . S
C108 O88 1.264 . S
C108 O91 1.256 . S
C108 C101 1.496 . S
C109 C76 1.448 . S
C109 H86 0.930 . S
C109 C110 1.328 . S
C110 C81 1.427 . S
C110 H87 0.929 . S
C110 C109 1.328 . S
C111 O95 1.264 . S
C111 O96 1.243 . S
C112 C115 1.399 . S
C112 C116 1.383 . S
C112 C119 1.496 . S
C113 C114 1.399 . S
C113 C116 1.389 . S
C114 C113 1.399 . S
C114 C117 1.380 . S
C114 H124 0.929 . S
C115 C112 1.399 . S
C115 C117 1.392 . S
C115 H125 0.929 . S
C116 C112 1.383 . S
C116 C113 1.389 . S
C116 H126 0.931 . S
C117 C114 1.380 . S
C117 C115 1.392 . S
C117 H127 0.929 . S
C118 O98 1.266 . S
C118 O99 1.248 . S
C119 Tb55 2.802 . S
C119 O94 1.264 . S
C119 O97 1.256 . S
C119 C112 1.496 . S
H120 C103 0.929 . S
H121 C104 0.929 . S
H122 C105 0.929 . S
H123 C106 0.931 . S
H124 C114 0.929 . S
H125 C115 0.929 . S
H126 C116 0.931 . S
H127 C117 0.929 . S
Tb128 N157 2.616 1_556 S
Tb128 N163 2.572 1_556 S
Tb128 O172 2.465 . S
Tb128 O173 2.387 1_556 S
Tb128 O175 2.428 . S
Tb128 O176 2.308 1_556 S
Tb128 O180 2.349 . S
Tb128 O183 2.393 1_556 S
Tb128 C192 2.802 . S
C129 N130 1.379 . S
C129 C132 1.416 . S
C129 C136 1.424 . S
N130 C129 1.379 . S
N130 C133 1.334 . S
N130 Tb139 2.617 . S
C131 C133 1.390 . S
C131 C134 1.339 . S
C131 H151 0.930 . S
C132 C129 1.416 . S
C132 C134 1.416 . S
C132 C138 1.448 . S
C133 N130 1.334 . S
C133 C131 1.390 . S
C133 H144 0.930 . S
C134 C131 1.339 . S
C134 C132 1.416 . S
C134 H155 0.930 . S
C135 C136 1.413 . S
C135 C137 1.427 . S
C135 C141 1.416 . S
C136 C129 1.424 . S
C136 C135 1.413 . S
C136 N140 1.361 . S
C137 C135 1.427 . S
C137 C138 1.328 . S
C137 H152 0.929 . S
C138 C132 1.448 . S
C138 C137 1.328 . S
C138 H153 0.930 . S
Tb139 N130 2.617 . S
Tb139 N140 2.572 . S
Tb139 O174 2.349 . S
Tb139 O177 2.393 . S
Tb139 O178 2.465 . S
Tb139 O179 2.387 . S
Tb139 O181 2.428 . S
Tb139 O182 2.308 . S
Tb139 C203 2.802 . S
N140 C136 1.361 . S
N140 Tb139 2.572 . S
N140 C142 1.340 . S
C141 C135 1.416 . S
C141 C143 1.332 . S
C141 H149 0.931 . S
C142 N140 1.340 . S
C142 C143 1.407 . S
C142 H148 0.930 . S
C143 C141 1.332 . S
C143 C142 1.407 . S
C143 H145 0.929 . S
H144 C133 0.930 . S
H145 C143 0.929 . S
H146 C161 0.930 . S
H147 C168 0.929 . S
H148 C142 0.930 . S
H149 C141 0.931 . S
H150 C164 0.930 . S
H151 C131 0.930 . S
H152 C137 0.929 . S
H153 C138 0.930 . S
H154 C159 0.930 . S
H155 C134 0.930 . S
H156 C167 0.931 . S
N157 Tb128 2.616 1_554 S
N157 C158 1.381 . S
N157 C161 1.335 1_554 S
C158 N157 1.381 . S
C158 C160 1.416 . S
C158 C166 1.424 . S
C159 H154 0.930 . S
C159 C161 1.392 . S
C159 C162 1.337 1_556 S
C160 C158 1.416 . S
C160 C162 1.416 . S
C160 C193 1.448 . S
C161 H146 0.930 . S
C161 N157 1.335 1_556 S
C161 C159 1.392 . S
C162 C159 1.337 1_554 S
C162 C160 1.416 . S
C162 H169 0.930 . S
N163 Tb128 2.572 1_554 S
N163 C164 1.340 . S
N163 C166 1.361 . S
C164 H150 0.930 . S
C164 N163 1.340 . S
C164 C168 1.407 . S
C165 C166 1.413 . S
C165 C167 1.416 . S
C165 C194 1.427 . S
C166 C158 1.424 . S
C166 N163 1.361 . S
C166 C165 1.413 . S
C167 H156 0.931 . S
C167 C165 1.416 . S
C167 C168 1.332 . S
C168 H147 0.929 . S
C168 C164 1.407 . S
C168 C167 1.332 . S
H169 C162 0.930 . S
H170 C193 0.930 . S
H171 C194 0.929 . S
O172 Tb128 2.465 . S
O172 C192 1.264 . S
O173 Tb128 2.387 1_554 S
O173 C184 1.264 . S
O174 Tb139 2.349 . S
O174 C184 1.243 . S
O175 Tb128 2.428 . S
O175 C192 1.256 . S
O176 Tb128 2.308 1_554 S
O176 C191 1.266 . S
O177 Tb139 2.393 . S
O177 C191 1.248 . S
O178 Tb139 2.465 . S
O178 C203 1.264 . S
O179 Tb139 2.387 . S
O179 C195 1.264 1_554 S
O180 Tb128 2.349 . S
O180 C195 1.243 . S
O181 Tb139 2.428 . S
O181 C203 1.256 . S
O182 Tb139 2.308 . S
O182 C202 1.266 . S
O183 Tb128 2.393 1_554 S
O183 C202 1.248 . S
C184 O173 1.264 . S
C184 O174 1.243 . S
C185 C188 1.399 . S
C185 C190 1.383 . S
C185 C192 1.496 . S
C186 C187 1.399 . S
C186 C190 1.389 . S
C187 C186 1.399 . S
C187 C189 1.380 . S
C187 H204 0.929 . S
C188 C185 1.399 . S
C188 C189 1.392 . S
C188 H205 0.929 . S
C189 C187 1.380 . S
C189 C188 1.392 . S
C189 H206 0.929 . S
C190 C185 1.383 . S
C190 C186 1.389 . S
C190 H207 0.931 . S
C191 O176 1.266 . S
C191 O177 1.248 . S
C192 Tb128 2.802 . S
C192 O172 1.264 . S
C192 O175 1.256 . S
C192 C185 1.496 . S
C193 C160 1.448 . S
C193 H170 0.930 . S
C193 C194 1.328 . S
C194 C165 1.427 . S
C194 H171 0.929 . S
C194 C193 1.328 . S
C195 O179 1.264 1_556 S
C195 O180 1.243 . S
C196 C199 1.399 . S
C196 C200 1.383 . S
C196 C203 1.496 . S
C197 C198 1.399 . S
C197 C200 1.389 . S
C198 C197 1.399 . S
C198 C201 1.380 . S
C198 H208 0.929 . S
C199 C196 1.399 . S
C199 C201 1.392 . S
C199 H209 0.929 . S
C200 C196 1.383 . S
C200 C197 1.389 . S
C200 H210 0.931 . S
C201 C198 1.380 . S
C201 C199 1.392 . S
C201 H211 0.929 . S
C202 O182 1.266 . S
C202 O183 1.248 . S
C203 Tb139 2.802 . S
C203 O178 1.264 . S
C203 O181 1.256 . S
C203 C196 1.496 . S
H204 C187 0.929 . S
H205 C188 0.929 . S
H206 C189 0.929 . S
H207 C190 0.931 . S
H208 C198 0.929 . S
H209 C199 0.929 . S
H210 C200 0.931 . S
H211 C201 0.929 . S
C212 C213 1.349 . S
C212 C214 1.327 . S
C212 H237 0.950 . S
C213 C212 1.349 . S
C213 C229 1.349 . S
C214 C212 1.327 . S
C214 C233 1.429 . S
C214 H238 0.950 . S
C215 C232 1.574 . S
C215 C234 1.368 . S
C215 H239 0.949 . S
H216 C220 0.949 . S
C217 C218 1.349 . S
C217 C219 1.327 . S
C217 H240 0.950 . S
C218 C217 1.349 . S
C218 C230 1.349 . S
C219 C217 1.327 . S
C219 C235 1.429 . S
C219 H241 0.950 . S
C220 H216 0.949 . S
C220 C228 1.574 . S
C220 C236 1.368 . S
H221 C229 0.950 . S
H222 C227 0.950 . S
H223 C228 0.949 . S
H224 C230 0.950 . S
H225 C231 0.950 . S
H226 C232 0.949 . S
C227 H222 0.950 . S
C227 C229 1.327 . S
C227 C233 1.429 . S
C228 C220 1.574 . S
C228 H223 0.949 . S
C228 C234 1.368 . S
C229 C213 1.349 . S
C229 H221 0.950 . S
C229 C227 1.327 . S
C230 C218 1.349 . S
C230 H224 0.950 . S
C230 C231 1.327 . S
C231 H225 0.950 . S
C231 C230 1.327 . S
C231 C235 1.429 . S
C232 C215 1.574 . S
C232 H226 0.949 . S
C232 C236 1.368 . S
C233 C214 1.429 . S
C233 C227 1.429 . S
C233 C234 1.523 . S
C234 C215 1.368 . S
C234 C228 1.368 . S
C234 C233 1.523 . S
C235 C219 1.429 . S
C235 C231 1.429 . S
C235 C236 1.523 . S
C236 C220 1.368 . S
C236 C232 1.368 . S
C236 C235 1.523 . S
H237 C212 0.950 . S
H238 C214 0.950 . S
H239 C215 0.949 . S
H240 C217 0.950 . S
H241 C219 0.950 . S
C242 C243 1.349 . S
C242 C244 1.327 . S
C242 H267 0.950 . S
C243 C242 1.349 . S
C243 C259 1.349 . S
C244 C242 1.327 . S
C244 C263 1.429 . S
C244 H268 0.950 . S
C245 C262 1.574 . S
C245 C264 1.368 . S
C245 H269 0.949 . S
H246 C250 0.949 . S
C247 C248 1.349 . S
C247 C249 1.327 . S
C247 H270 0.950 . S
C248 C247 1.349 . S
C248 C260 1.349 . S
C249 C247 1.327 . S
C249 C265 1.429 . S
C249 H271 0.950 . S
C250 H246 0.949 . S
C250 C258 1.574 . S
C250 C266 1.368 . S
H251 C259 0.950 . S
H252 C257 0.950 . S
H253 C258 0.949 . S
H254 C260 0.950 . S
H255 C261 0.950 . S
H256 C262 0.949 . S
C257 H252 0.950 . S
C257 C259 1.327 . S
C257 C263 1.429 . S
C258 C250 1.574 . S
C258 H253 0.949 . S
C258 C264 1.368 . S
C259 C243 1.349 . S
C259 H251 0.950 . S
C259 C257 1.327 . S
C260 C248 1.349 . S
C260 H254 0.950 . S
C260 C261 1.327 . S
C261 H255 0.950 . S
C261 C260 1.327 . S
C261 C265 1.429 . S
C262 C245 1.574 . S
C262 H256 0.949 . S
C262 C266 1.368 . S
C263 C244 1.429 . S
C263 C257 1.429 . S
C263 C264 1.523 . S
C264 C245 1.368 . S
C264 C258 1.368 . S
C264 C263 1.523 . S
C265 C249 1.429 . S
C265 C261 1.429 . S
C265 C266 1.523 . S
C266 C250 1.368 . S
C266 C262 1.368 . S
C266 C265 1.523 . S
H267 C242 0.950 . S
H268 C244 0.950 . S
H269 C245 0.949 . S
H270 C247 0.950 . S
H271 C249 0.950 . S
C272 C273 1.349 . S
C272 C274 1.327 . S
C272 H297 0.950 . S
C273 C272 1.349 . S
C273 C289 1.349 . S
C274 C272 1.327 . S
C274 C293 1.429 . S
C274 H298 0.950 . S
C275 C292 1.574 . S
C275 C294 1.368 . S
C275 H299 0.949 . S
H276 C280 0.949 . S
C277 C278 1.349 . S
C277 C279 1.327 . S
C277 H300 0.950 . S
C278 C277 1.349 . S
C278 C290 1.349 . S
C279 C277 1.327 . S
C279 C295 1.429 . S
C279 H301 0.950 . S
C280 H276 0.949 . S
C280 C288 1.574 . S
C280 C296 1.368 . S
H281 C289 0.950 . S
H282 C287 0.950 . S
H283 C288 0.949 . S
H284 C290 0.950 . S
H285 C291 0.950 . S
H286 C292 0.949 . S
C287 H282 0.950 . S
C287 C289 1.327 . S
C287 C293 1.429 . S
C288 C280 1.574 . S
C288 H283 0.949 . S
C288 C294 1.368 . S
C289 C273 1.349 . S
C289 H281 0.950 . S
C289 C287 1.327 . S
C290 C278 1.349 . S
C290 H284 0.950 . S
C290 C291 1.327 . S
C291 H285 0.950 . S
C291 C290 1.327 . S
C291 C295 1.429 . S
C292 C275 1.574 . S
C292 H286 0.949 . S
C292 C296 1.368 . S
C293 C274 1.429 . S
C293 C287 1.429 . S
C293 C294 1.523 . S
C294 C275 1.368 . S
C294 C288 1.368 . S
C294 C293 1.523 . S
C295 C279 1.429 . S
C295 C291 1.429 . S
C295 C296 1.523 . S
C296 C280 1.368 . S
C296 C292 1.368 . S
C296 C295 1.523 . S
H297 C272 0.950 . S
H298 C274 0.950 . S
H299 C275 0.949 . S
H300 C277 0.950 . S
H301 C279 0.950 . S
C302 C303 1.349 1_556 S
C302 C304 1.327 . S
C302 H327 0.950 . S
C303 C302 1.349 1_554 S
C303 C319 1.349 . S
C304 C302 1.327 . S
C304 C323 1.429 1_556 S
C304 H328 0.950 . S
C305 C322 1.574 . S
C305 C324 1.368 . S
C305 H329 0.949 . S
H306 C310 0.949 . S
C307 C308 1.349 . S
C307 C309 1.327 . S
C307 H330 0.950 . S
C308 C307 1.349 . S
C308 C320 1.349 . S
C309 C307 1.327 . S
C309 C325 1.429 . S
C309 H331 0.950 . S
C310 H306 0.949 . S
C310 C318 1.574 . S
C310 C326 1.368 1_556 S
H311 C319 0.950 . S
H312 C317 0.950 . S
H313 C318 0.949 . S
H314 C320 0.950 1_556 S
H315 C321 0.947 . S
H316 C322 0.949 . S
C317 H312 0.950 . S
C317 C319 1.327 . S
C317 C323 1.429 . S
C318 C310 1.574 . S
C318 H313 0.949 . S
C318 C324 1.368 1_556 S
C319 C303 1.349 . S
C319 H311 0.950 . S
C319 C317 1.327 . S
C320 C308 1.349 . S
C320 H314 0.950 1_554 S
C320 C321 1.328 1_554 S
C321 H315 0.947 . S
C321 C320 1.328 1_556 S
C321 C325 1.430 1_556 S
C322 C305 1.574 . S
C322 H316 0.949 . S
C322 C326 1.368 . S
C323 C304 1.429 1_554 S
C323 C317 1.429 . S
C323 C324 1.523 . S
C324 C305 1.368 . S
C324 C318 1.368 1_554 S
C324 C323 1.523 . S
C325 C309 1.429 . S
C325 C321 1.430 1_554 S
C325 C326 1.523 . S
C326 C310 1.368 1_554 S
C326 C322 1.368 . S
C326 C325 1.523 . S
H327 C302 0.950 . S
H328 C304 0.950 . S
H329 C305 0.949 . S
H330 C307 0.950 . S
H331 C309 0.950 . S
C332 C333 1.349 . S
C332 C334 1.327 . S
C332 H357 0.950 . S
C333 C332 1.349 . S
C333 C349 1.349 . S
C334 C332 1.327 . S
C334 C353 1.429 . S
C334 H358 0.950 . S
C335 C352 1.574 . S
C335 C354 1.368 . S
C335 H359 0.949 . S
H336 C340 0.949 . S
C337 C338 1.349 . S
C337 C339 1.327 . S
C337 H360 0.950 . S
C338 C337 1.349 . S
C338 C350 1.349 . S
C339 C337 1.327 . S
C339 C355 1.429 . S
C339 H361 0.950 . S
C340 H336 0.949 . S
C340 C348 1.574 . S
C340 C356 1.368 . S
H341 C349 0.950 . S
H342 C347 0.950 . S
H343 C348 0.949 . S
H344 C350 0.950 . S
H345 C351 0.950 . S
H346 C352 0.949 . S
C347 H342 0.950 . S
C347 C349 1.327 . S
C347 C353 1.429 . S
C348 C340 1.574 . S
C348 H343 0.949 . S
C348 C354 1.368 . S
C349 C333 1.349 . S
C349 H341 0.950 . S
C349 C347 1.327 . S
C350 C338 1.349 . S
C350 H344 0.950 . S
C350 C351 1.327 . S
C351 H345 0.950 . S
C351 C350 1.327 . S
C351 C355 1.429 . S
C352 C335 1.574 . S
C352 H346 0.949 . S
C352 C356 1.368 . S
C353 C334 1.429 . S
C353 C347 1.429 . S
C353 C354 1.523 . S
C354 C335 1.368 . S
C354 C348 1.368 . S
C354 C353 1.523 . S
C355 C339 1.429 . S
C355 C351 1.429 . S
C355 C356 1.523 . S
C356 C340 1.368 . S
C356 C352 1.368 . S
C356 C355 1.523 . S
H357 C332 0.950 . S
H358 C334 0.950 . S
H359 C335 0.949 . S
H360 C337 0.950 . S
H361 C339 0.950 . S
C362 C363 1.349 . S
C362 C364 1.327 . S
C362 H387 0.950 . S
C363 C362 1.349 . S
C363 C379 1.349 . S
C364 C362 1.327 . S
C364 C383 1.429 . S
C364 H388 0.950 . S
C365 C382 1.574 . S
C365 C384 1.368 . S
C365 H389 0.949 . S
H366 C370 0.949 . S
C367 C368 1.349 . S
C367 C369 1.327 . S
C367 H390 0.950 . S
C368 C367 1.349 . S
C368 C380 1.349 . S
C369 C367 1.327 . S
C369 C385 1.429 . S
C369 H391 0.950 . S
C370 H366 0.949 . S
C370 C378 1.574 . S
C370 C386 1.368 . S
H371 C379 0.950 . S
H372 C377 0.950 . S
H373 C378 0.949 . S
H374 C380 0.950 . S
H375 C381 0.950 . S
H376 C382 0.949 . S
C377 H372 0.950 . S
C377 C379 1.327 . S
C377 C383 1.429 . S
C378 C370 1.574 . S
C378 H373 0.949 . S
C378 C384 1.368 . S
C379 C363 1.349 . S
C379 H371 0.950 . S
C379 C377 1.327 . S
C380 C368 1.349 . S
C380 H374 0.950 . S
C380 C381 1.327 . S
C381 H375 0.950 . S
C381 C380 1.327 . S
C381 C385 1.429 . S
C382 C365 1.574 . S
C382 H376 0.949 . S
C382 C386 1.368 . S
C383 C364 1.429 . S
C383 C377 1.429 . S
C383 C384 1.523 . S
C384 C365 1.368 . S
C384 C378 1.368 . S
C384 C383 1.523 . S
C385 C369 1.429 . S
C385 C381 1.429 . S
C385 C386 1.523 . S
C386 C370 1.368 . S
C386 C382 1.368 . S
C386 C385 1.523 . S
H387 C362 0.950 . S
H388 C364 0.950 . S
H389 C365 0.949 . S
H390 C367 0.950 . S
H391 C369 0.950 . S
C392 C393 1.349 . S
C392 C394 1.327 . S
C392 H417 0.950 . S
C393 C392 1.349 . S
C393 C409 1.349 . S
C394 C392 1.327 . S
C394 C413 1.429 . S
C394 H418 0.950 . S
C395 C412 1.574 . S
C395 C414 1.368 . S
C395 H419 0.949 . S
H396 C400 0.949 . S
C397 C398 1.349 . S
C397 C399 1.327 . S
C397 H420 0.950 . S
C398 C397 1.349 . S
C398 C410 1.349 . S
C399 C397 1.327 . S
C399 C415 1.429 . S
C399 H421 0.950 . S
C400 H396 0.949 . S
C400 C408 1.574 . S
C400 C416 1.368 . S
H401 C409 0.950 . S
H402 C407 0.950 . S
H403 C408 0.949 . S
H404 C410 0.950 . S
H405 C411 0.950 . S
H406 C412 0.949 . S
C407 H402 0.950 . S
C407 C409 1.327 . S
C407 C413 1.429 . S
C408 C400 1.574 . S
C408 H403 0.949 . S
C408 C414 1.368 . S
C409 C393 1.349 . S
C409 H401 0.950 . S
C409 C407 1.327 . S
C410 C398 1.349 . S
C410 H404 0.950 . S
C410 C411 1.327 . S
C411 H405 0.950 . S
C411 C410 1.327 . S
C411 C415 1.429 . S
C412 C395 1.574 . S
C412 H406 0.949 . S
C412 C416 1.368 . S
C413 C394 1.429 . S
C413 C407 1.429 . S
C413 C414 1.523 . S
C414 C395 1.368 . S
C414 C408 1.368 . S
C414 C413 1.523 . S
C415 C399 1.429 . S
C415 C411 1.429 . S
C415 C416 1.523 . S
C416 C400 1.368 . S
C416 C412 1.368 . S
C416 C415 1.523 . S
H417 C392 0.950 . S
H418 C394 0.950 . S
H419 C395 0.949 . S
H420 C397 0.950 . S
H421 C399 0.950 . S
C422 C423 1.349 . S
C422 C424 1.327 . S
C422 H447 0.950 . S
C423 C422 1.349 . S
C423 C439 1.349 . S
C424 C422 1.327 . S
C424 C443 1.429 . S
C424 H448 0.950 . S
C425 C442 1.574 . S
C425 C444 1.368 . S
C425 H449 0.949 . S
H426 C430 0.949 . S
C427 C428 1.349 . S
C427 C429 1.327 . S
C427 H450 0.950 . S
C428 C427 1.349 . S
C428 C440 1.349 . S
C429 C427 1.327 . S
C429 C445 1.429 . S
C429 H451 0.950 . S
C430 H426 0.949 . S
C430 C438 1.574 . S
C430 C446 1.368 . S
H431 C439 0.950 . S
H432 C437 0.950 . S
H433 C438 0.949 . S
H434 C440 0.950 . S
H435 C441 0.950 . S
H436 C442 0.949 . S
C437 H432 0.950 . S
C437 C439 1.327 . S
C437 C443 1.429 . S
C438 C430 1.574 . S
C438 H433 0.949 . S
C438 C444 1.368 . S
C439 C423 1.349 . S
C439 H431 0.950 . S
C439 C437 1.327 . S
C440 C428 1.349 . S
C440 H434 0.950 . S
C440 C441 1.327 . S
C441 H435 0.950 . S
C441 C440 1.327 . S
C441 C445 1.429 . S
C442 C425 1.574 . S
C442 H436 0.949 . S
C442 C446 1.368 . S
C443 C424 1.429 . S
C443 C437 1.429 . S
C443 C444 1.523 . S
C444 C425 1.368 . S
C444 C438 1.368 . S
C444 C443 1.523 . S
C445 C429 1.429 . S
C445 C441 1.429 . S
C445 C446 1.523 . S
C446 C430 1.368 . S
C446 C442 1.368 . S
C446 C445 1.523 . S
H447 C422 0.950 . S
H448 C424 0.950 . S
H449 C425 0.949 . S
H450 C427 0.950 . S
H451 C429 0.950 . S
C452 C453 1.349 . S
C452 C454 1.327 . S
C452 H477 0.950 . S
C453 C452 1.349 . S
C453 C469 1.349 . S
C454 C452 1.327 . S
C454 C473 1.429 . S
C454 H478 0.950 . S
C455 C472 1.574 . S
C455 C474 1.368 . S
C455 H479 0.949 . S
H456 C460 0.949 . S
C457 C458 1.349 . S
C457 C459 1.327 . S
C457 H480 0.950 . S
C458 C457 1.349 . S
C458 C470 1.349 . S
C459 C457 1.327 . S
C459 C475 1.429 . S
C459 H481 0.950 . S
C460 H456 0.949 . S
C460 C468 1.574 . S
C460 C476 1.368 . S
H461 C469 0.950 . S
H462 C467 0.950 . S
H463 C468 0.949 . S
H464 C470 0.950 . S
H465 C471 0.950 . S
H466 C472 0.949 . S
C467 H462 0.950 . S
C467 C469 1.327 . S
C467 C473 1.429 . S
C468 C460 1.574 . S
C468 H463 0.949 . S
C468 C474 1.368 . S
C469 C453 1.349 . S
C469 H461 0.950 . S
C469 C467 1.327 . S
C470 C458 1.349 . S
C470 H464 0.950 . S
C470 C471 1.327 . S
C471 H465 0.950 . S
C471 C470 1.327 . S
C471 C475 1.429 . S
C472 C455 1.574 . S
C472 H466 0.949 . S
C472 C476 1.368 . S
C473 C454 1.429 . S
C473 C467 1.429 . S
C473 C474 1.523 . S
C474 C455 1.368 . S
C474 C468 1.368 . S
C474 C473 1.523 . S
C475 C459 1.429 . S
C475 C471 1.429 . S
C475 C476 1.523 . S
C476 C460 1.368 . S
C476 C472 1.368 . S
C476 C475 1.523 . S
H477 C452 0.950 . S
H478 C454 0.950 . S
H479 C455 0.949 . S
H480 C457 0.950 . S
H481 C459 0.950 . S
C482 C483 1.349 . S
C482 C484 1.327 . S
C482 H507 0.950 . S
C483 C482 1.349 . S
C483 C499 1.349 . S
C484 C482 1.327 . S
C484 C503 1.429 . S
C484 H508 0.950 . S
C485 C502 1.574 . S
C485 C504 1.368 . S
C485 H509 0.949 . S
H486 C490 0.949 . S
C487 C488 1.349 . S
C487 C489 1.327 . S
C487 H510 0.950 . S
C488 C487 1.349 . S
C488 C500 1.349 . S
C489 C487 1.327 . S
C489 C505 1.429 . S
C489 H511 0.950 . S
C490 H486 0.949 . S
C490 C498 1.574 . S
C490 C506 1.368 . S
H491 C499 0.950 . S
H492 C497 0.950 . S
H493 C498 0.949 . S
H494 C500 0.950 . S
H495 C501 0.950 . S
H496 C502 0.949 . S
C497 H492 0.950 . S
C497 C499 1.327 . S
C497 C503 1.429 . S
C498 C490 1.574 . S
C498 H493 0.949 . S
C498 C504 1.368 . S
C499 C483 1.349 . S
C499 H491 0.950 . S
C499 C497 1.327 . S
C500 C488 1.349 . S
C500 H494 0.950 . S
C500 C501 1.327 . S
C501 H495 0.950 . S
C501 C500 1.327 . S
C501 C505 1.429 . S
C502 C485 1.574 . S
C502 H496 0.949 . S
C502 C506 1.368 . S
C503 C484 1.429 . S
C503 C497 1.429 . S
C503 C504 1.523 . S
C504 C485 1.368 . S
C504 C498 1.368 . S
C504 C503 1.523 . S
C505 C489 1.429 . S
C505 C501 1.429 . S
C505 C506 1.523 . S
C506 C490 1.368 . S
C506 C502 1.368 . S
C506 C505 1.523 . S
H507 C482 0.950 . S
H508 C484 0.950 . S
H509 C485 0.949 . S
H510 C487 0.950 . S
H511 C489 0.950 . S
C512 C513 1.349 . S
C512 C514 1.327 . S
C512 H537 0.950 . S
C513 C512 1.349 . S
C513 C529 1.349 . S
C514 C512 1.327 . S
C514 C533 1.429 . S
C514 H538 0.950 . S
C515 C532 1.574 . S
C515 C534 1.368 . S
C515 H539 0.949 . S
H516 C520 0.949 . S
C517 C518 1.349 . S
C517 C519 1.327 . S
C517 H540 0.950 . S
C518 C517 1.349 . S
C518 C530 1.349 . S
C519 C517 1.327 . S
C519 C535 1.429 . S
C519 H541 0.950 . S
C520 H516 0.949 . S
C520 C528 1.574 . S
C520 C536 1.368 . S
H521 C529 0.950 . S
H522 C527 0.950 . S
H523 C528 0.949 . S
H524 C530 0.950 . S
H525 C531 0.950 . S
H526 C532 0.949 . S
C527 H522 0.950 . S
C527 C529 1.327 . S
C527 C533 1.429 . S
C528 C520 1.574 . S
C528 H523 0.949 . S
C528 C534 1.368 . S
C529 C513 1.349 . S
C529 H521 0.950 . S
C529 C527 1.327 . S
C530 C518 1.349 . S
C530 H524 0.950 . S
C530 C531 1.327 . S
C531 H525 0.950 . S
C531 C530 1.327 . S
C531 C535 1.429 . S
C532 C515 1.574 . S
C532 H526 0.949 . S
C532 C536 1.368 . S
C533 C514 1.429 . S
C533 C527 1.429 . S
C533 C534 1.523 . S
C534 C515 1.368 . S
C534 C528 1.368 . S
C534 C533 1.523 . S
C535 C519 1.429 . S
C535 C531 1.429 . S
C535 C536 1.523 . S
C536 C520 1.368 . S
C536 C532 1.368 . S
C536 C535 1.523 . S
H537 C512 0.950 . S
H538 C514 0.950 . S
H539 C515 0.949 . S
H540 C517 0.950 . S
H541 C519 0.950 . S
C542 C543 1.349 . S
C542 C544 1.327 . S
C542 H567 0.950 . S
C543 C542 1.349 . S
C543 C559 1.349 . S
C544 C542 1.327 . S
C544 C563 1.429 . S
C544 H568 0.950 . S
C545 C562 1.574 . S
C545 C564 1.368 . S
C545 H569 0.949 . S
H546 C550 0.949 . S
C547 C548 1.349 . S
C547 C549 1.327 . S
C547 H570 0.950 . S
C548 C547 1.349 . S
C548 C560 1.349 . S
C549 C547 1.327 . S
C549 C565 1.429 . S
C549 H571 0.950 . S
C550 H546 0.949 . S
C550 C558 1.574 . S
C550 C566 1.368 . S
H551 C559 0.950 . S
H552 C557 0.950 . S
H553 C558 0.949 . S
H554 C560 0.950 1_545 S
H555 C561 0.950 . S
H556 C562 0.949 . S
C557 H552 0.950 . S
C557 C559 1.327 . S
C557 C563 1.429 . S
C558 C550 1.574 . S
C558 H553 0.949 . S
C558 C564 1.368 . S
C559 C543 1.349 . S
C559 H551 0.950 . S
C559 C557 1.327 . S
C560 C548 1.349 . S
C560 H554 0.950 1_565 S
C560 C561 1.327 . S
C561 H555 0.950 . S
C561 C560 1.327 . S
C561 C565 1.429 . S
C562 C545 1.574 . S
C562 H556 0.949 . S
C562 C566 1.368 . S
C563 C544 1.429 . S
C563 C557 1.429 . S
C563 C564 1.523 . S
C564 C545 1.368 . S
C564 C558 1.368 . S
C564 C563 1.523 . S
C565 C549 1.429 . S
C565 C561 1.429 . S
C565 C566 1.523 . S
C566 C550 1.368 . S
C566 C562 1.368 . S
C566 C565 1.523 . S
H567 C542 0.950 . S
H568 C544 0.950 . S
H569 C545 0.949 . S
H570 C547 0.950 . S
H571 C549 0.950 . S
C218 C107 1.671 . S
C213 C43 1.687 . S
C243 C10 1.686 . S
C248 C202 1.665 . S
C273 C21 1.692 . S
C278 C118 1.689 . S
C303 C32 1.660 . S
C308 C191 1.651 . S
C338 C102 1.466 . S
C333 C5 1.631 . S
C368 C195 1.735 . S
C363 C15 1.733 . S
C393 C27 1.656 . S
C398 C111 1.669 . S
C423 C38 1.623 . S
C428 C186 1.457 . S
C458 C197 1.404 . S
C453 C16 1.568 . S
C488 C113 1.403 . S
C483 C26 1.575 . S
C518 C184 1.647 . S
C513 C37 1.639 . S
C543 C4 1.580 . S
C548 C100 1.589 . S
