# Generated by pormake.
# Topology zzz, (3,6)-cn, num edge types: 1
# Building blocks:
#     Node 0, Type 0, BuildingBlock: QEWDON_clean_linker_0, # of connection points: 3
#     Node 1, Type 0, BuildingBlock: QEWDON_clean_linker_0, # of connection points: 3
#     Node 2, Type 0, BuildingBlock: QEWDON_clean_linker_0, # of connection points: 3
#     Node 3, Type 0, BuildingBlock: QEWDON_clean_linker_0, # of connection points: 3
#     Node 4, Type 0, BuildingBlock: QEWDON_clean_linker_0, # of connection points: 3
#     Node 5, Type 0, BuildingBlock: QEWDON_clean_linker_0, # of connection points: 3
#     Node 6, Type 0, BuildingBlock: QEWDON_clean_linker_0, # of connection points: 3
#     Node 7, Type 0, BuildingBlock: QEWDON_clean_linker_0, # of connection points: 3
#     Node 8, Type 1, BuildingBlock: KUMBOL_clean_sbu_1, # of connection points: 6
#     Node 9, Type 1, BuildingBlock: KUMBOL_clean_sbu_1, # of connection points: 6
#     Node 10, Type 1, BuildingBlock: KUMBOL_clean_sbu_1, # of connection points: 6
#     Node 11, Type 1, BuildingBlock: KUMBOL_clean_sbu_1, # of connection points: 6
#     Edge 12, Type (0, 1), BuildingBlock: XIVTED_clean_linker_0, # of connection points: 2
#     Edge 13, Type (0, 1), BuildingBlock: XIVTED_clean_linker_0, # of connection points: 2
#     Edge 14, Type (0, 1), BuildingBlock: XIVTED_clean_linker_0, # of connection points: 2
#     Edge 15, Type (0, 1), BuildingBlock: XIVTED_clean_linker_0, # of connection points: 2
#     Edge 16, Type (0, 1), BuildingBlock: XIVTED_clean_linker_0, # of connection points: 2
#     Edge 17, Type (0, 1), BuildingBlock: XIVTED_clean_linker_0, # of connection points: 2
#     Edge 18, Type (0, 1), BuildingBlock: XIVTED_clean_linker_0, # of connection points: 2
#     Edge 19, Type (0, 1), BuildingBlock: XIVTED_clean_linker_0, # of connection points: 2
#     Edge 20, Type (0, 1), BuildingBlock: XIVTED_clean_linker_0, # of connection points: 2
#     Edge 21, Type (0, 1), BuildingBlock: XIVTED_clean_linker_0, # of connection points: 2
#     Edge 22, Type (0, 1), BuildingBlock: XIVTED_clean_linker_0, # of connection points: 2
#     Edge 23, Type (0, 1), BuildingBlock: XIVTED_clean_linker_0, # of connection points: 2
#     Edge 24, Type (0, 1), BuildingBlock: XIVTED_clean_linker_0, # of connection points: 2
#     Edge 25, Type (0, 1), BuildingBlock: XIVTED_clean_linker_0, # of connection points: 2
#     Edge 26, Type (0, 1), BuildingBlock: XIVTED_clean_linker_0, # of connection points: 2
#     Edge 27, Type (0, 1), BuildingBlock: XIVTED_clean_linker_0, # of connection points: 2
#     Edge 28, Type (0, 1), BuildingBlock: XIVTED_clean_linker_0, # of connection points: 2
#     Edge 29, Type (0, 1), BuildingBlock: XIVTED_clean_linker_0, # of connection points: 2
#     Edge 30, Type (0, 1), BuildingBlock: XIVTED_clean_linker_0, # of connection points: 2
#     Edge 31, Type (0, 1), BuildingBlock: XIVTED_clean_linker_0, # of connection points: 2
#     Edge 32, Type (0, 1), BuildingBlock: XIVTED_clean_linker_0, # of connection points: 2
#     Edge 33, Type (0, 1), BuildingBlock: XIVTED_clean_linker_0, # of connection points: 2
#     Edge 34, Type (0, 1), BuildingBlock: XIVTED_clean_linker_0, # of connection points: 2
#     Edge 35, Type (0, 1), BuildingBlock: XIVTED_clean_linker_0, # of connection points: 2
# Relax obj value: 0.115
# Max RMSD: 0.096
# Mean RMSD: 0.039
data_MOF--net-zzz--node1-KUMBOL_clean_sbu_1--node2-QEWDON_clean_linker_0--edge1-XIVTED_clean_linker_0
_symmetry_space_group_name_H-M    P1
_symmetry_Int_Tables_number       1
_symmetry_cell_setting            triclinic
loop_
_symmetry_equiv_pos_as_xyz
'x, y, z'
_cell_length_a     53.424398
_cell_length_b     53.536752
_cell_length_c     15.474325
_cell_angle_alpha  89.91643
_cell_angle_beta   90.132147
_cell_angle_gamma 90.245676
loop_
_atom_site_label
_atom_site_type_symbol
_atom_site_fract_x
_atom_site_fract_y
_atom_site_fract_z
_atom_type_partial_charge
H0 H 0.75882 0.58771 0.18891 0.0
C1 C 0.77212 0.58042 0.23529 0.0
C2 C 0.79684 0.58917 0.23193 0.0
C3 C 0.76463 0.56272 0.29787 0.0
H4 H 0.83365 0.5867 0.28839 0.0
C5 C 0.8143 0.58059 0.29266 0.0
C6 C 0.80799 0.56282 0.35501 0.0
C7 C 0.78309 0.55359 0.35714 0.0
C8 C 0.73737 0.55519 0.30312 0.0
H9 H 0.77823 0.53957 0.40473 0.0
C10 C 0.72128 0.55509 0.2292 0.0
C11 C 0.69512 0.55124 0.23764 0.0
C12 C 0.72664 0.5501 0.38428 0.0
H13 H 0.73785 0.55043 0.44259 0.0
C14 C 0.701 0.54556 0.39231 0.0
H15 H 0.72884 0.55853 0.16542 0.0
C16 C 0.68536 0.54638 0.3201 0.0
H17 H 0.6655 0.54302 0.32865 0.0
H18 H 0.69311 0.54181 0.45541 0.0
H19 H 1.00549 0.77927 0.12202 0.0
C20 C 1.0062 0.79147 0.17743 0.0
C21 C 1.00833 0.81716 0.16154 0.0
C22 C 1.00429 0.782 0.26262 0.0
H23 H 1.0098 0.85378 0.21821 0.0
C24 C 1.00782 0.83391 0.23063 0.0
C25 C 1.00556 0.82571 0.31583 0.0
C26 C 1.00461 0.79972 0.33215 0.0
C27 C 1.00084 0.75407 0.27759 0.0
H28 H 1.00383 0.79377 0.39878 0.0
C29 C 1.00598 0.73579 0.2125 0.0
C30 C 1.00054 0.71007 0.2255 0.0
C31 C 0.99097 0.74536 0.35665 0.0
H32 H 0.98572 0.75795 0.40783 0.0
C33 C 0.98688 0.71999 0.37128 0.0
H34 H 1.01373 0.74122 0.15094 0.0
C35 C 0.99155 0.70256 0.30679 0.0
H36 H 0.98795 0.68304 0.3208 0.0
H37 H 0.97953 0.7138 0.43289 0.0
H38 H 0.78754 0.99974 0.14017 0.0
C39 C 0.77591 1.00399 0.19499 0.0
C40 C 0.75055 0.99716 0.18941 0.0
C41 C 0.78551 1.01635 0.26927 0.0
H42 H 0.7147 0.99762 0.25222 0.0
C43 C 0.73444 1.00226 0.25799 0.0
C44 C 0.74257 1.01529 0.3304 0.0
C45 C 0.76795 1.02242 0.33612 0.0
C46 C 0.81322 1.02339 0.27612 0.0
H47 H 0.77315 0.0334 0.39167 0.0
C48 C 0.8306 1.02065 0.20619 0.0
C49 C 0.85635 0.02683 0.21598 0.0
C50 C 0.82293 0.03268 0.35494 0.0
H51 H 0.81173 0.03446 0.41231 0.0
C52 C 0.84787 0.03986 0.36316 0.0
H53 H 0.82473 1.01342 0.1444 0.0
C54 C 0.86439 0.03703 0.29485 0.0
H55 H 0.88363 0.0429 0.30402 0.0
H56 H 0.85448 0.04756 0.4237 0.0
H57 H 0.56563 0.78824 0.10625 0.0
C58 C 0.56295 0.77531 0.15929 0.0
C59 C 0.56236 0.74975 0.14076 0.0
C60 C 0.56093 0.78408 0.24474 0.0
H61 H 0.55953 0.71263 0.19399 0.0
C62 C 0.56037 0.73244 0.20843 0.0
C63 C 0.55846 0.74013 0.29447 0.0
C64 C 0.55829 0.76607 0.31261 0.0
C65 C 0.56344 0.81178 0.2615 0.0
H66 H 0.55646 0.77201 0.3791 0.0
C67 C 0.5567 0.83008 0.1983 0.0
C68 C 0.56202 0.85584 0.21073 0.0
C69 C 0.5747 0.82012 0.3385 0.0
H70 H 0.58074 0.80708 0.38768 0.0
C71 C 0.57959 0.84542 0.35181 0.0
H72 H 0.54726 0.82442 0.13957 0.0
C73 C 0.57369 0.86299 0.2885 0.0
H74 H 0.579 0.88222 0.29989 0.0
H75 H 0.58869 0.8514 0.41087 0.0
H76 H 0.28236 0.49695 0.21334 0.0
C77 C 0.26923 0.49991 0.16116 0.0
C78 C 0.2437 0.49867 0.18079 0.0
C79 C 0.27758 0.5044 0.07604 0.0
H80 H 0.20621 0.50039 0.1302 0.0
C81 C 0.22599 0.50088 0.11445 0.0
C82 C 0.2331 0.50503 0.02873 0.0
C83 C 0.25897 0.50748 0.00989 0.0
C84 C 0.3055 0.50458 0.05726 0.0
H85 H 0.2643 0.51148 0.94395 0.0
C86 C 0.32396 0.50905 0.12284 0.0
C87 C 0.34996 0.50644 0.10591 0.0
C88 C 0.31408 0.49856 0.97389 0.0
H89 H 0.30122 0.49423 0.92198 0.0
C90 C 0.3396 0.49714 0.95599 0.0
H91 H 0.3184 0.51409 0.18754 0.0
C92 C 0.35732 0.50089 0.02097 0.0
H93 H 0.37694 0.49943 1.00433 0.0
H94 H 0.34573 0.49258 0.89128 0.0
H95 H 0.08041 0.29976 0.15947 0.0
C96 C 0.0736 0.28609 0.11356 0.0
C97 C 0.08384 0.26208 0.11635 0.0
C98 C 0.0552 0.29242 0.05181 0.0
H99 H 0.08351 0.22535 0.06013 0.0
C100 C 0.07608 0.24416 0.05611 0.0
C101 C 0.05768 0.2493 0.99444 0.0
C102 C 0.0469 0.27344 0.9931 0.0
C103 C 0.04608 0.31909 0.04653 0.0
H104 H 0.03237 0.27733 0.94618 0.0
C105 C 0.04604 0.33536 0.11969 0.0
C106 C 0.04058 0.36113 0.11075 0.0
C107 C 0.03928 0.3292 0.96583 0.0
H108 H 0.03952 0.31794 0.90787 0.0
C109 C 0.03303 0.35438 0.95754 0.0
H110 H 0.05074 0.32831 0.18322 0.0
C111 C 0.0339 0.37024 0.02886 0.0
H112 H 0.02918 0.38974 0.0201 0.0
H113 H 0.0279 0.36176 0.89483 0.0
H114 H 0.26501 0.08297 0.17855 0.0
C115 C 0.28063 0.07621 0.14115 0.0
C116 C 0.30436 0.0858 0.16042 0.0
C117 C 0.2772 0.05775 0.07731 0.0
H118 H 0.34303 0.0866 0.12353 0.0
C119 C 0.32478 0.07876 0.1093 0.0
C120 C 0.32256 0.06053 0.04455 0.0
C121 C 0.29857 0.05 0.02891 0.0
C122 C 0.25144 0.0465 0.06402 0.0
H123 H 0.29692 0.03521 0.98168 0.0
C124 C 0.23302 0.0464 0.13078 0.0
C125 C 0.20838 0.03738 0.11624 0.0
C126 C 0.24467 0.0365 0.98324 0.0
H127 H 0.25758 0.03663 0.92953 0.0
C128 C 0.2208 0.0266 0.96947 0.0
H129 H 0.23758 0.05356 0.19406 0.0
C130 C 0.20287 0.02701 0.03482 0.0
H131 H 0.18464 1.01903 0.0212 0.0
H132 H 0.21604 1.01879 0.90702 0.0
H133 H 0.49569 0.2711 0.20252 0.0
C134 C 0.50049 0.28514 0.15499 0.0
C135 C 0.49714 0.31026 0.17683 0.0
C136 C 0.51032 0.27804 0.07459 0.0
H137 H 0.49844 0.34823 0.12945 0.0
C138 C 0.50087 0.32869 0.11339 0.0
C139 C 0.50923 0.32246 0.03037 0.0
C140 C 0.5147 0.29714 0.01182 0.0
C141 C 0.51552 0.2507 0.05846 0.0
H142 H 0.52229 0.29255 0.94909 0.0
C143 C 0.52083 0.23381 0.12765 0.0
C144 C 0.52355 0.20783 0.11344 0.0
C145 C 0.51398 0.2409 0.97437 0.0
H146 H 0.50951 0.25272 0.91977 0.0
C147 C 0.51733 0.21542 0.95951 0.0
H148 H 0.52315 0.24072 0.19283 0.0
C149 C 0.52186 0.19903 0.02802 0.0
H150 H 0.52347 0.1793 0.01395 0.0
H151 H 0.51586 0.20819 0.89438 0.0
C152 C 0.07641 0.03944 0.93027 0.0
C153 C 0.05757 1.01113 0.03369 0.0
C154 C 0.06127 1.01914 0.94781 0.0
C155 C 0.06856 0.02465 0.10181 0.0
C156 C 0.08857 0.05233 0.99788 0.0
C157 C 0.08411 0.04519 0.08388 0.0
N158 N 0.08062 0.04547 0.84653 0.0
C159 C 0.09814 0.06305 0.82527 0.0
C160 C 0.10547 0.07143 0.97674 0.0
C161 C 0.11052 0.07658 0.88993 0.0
Gd162 Gd 1.00865 0.04914 0.57399 0.0
Gd163 Gd 0.05797 1.02315 0.74153 0.0
N164 N 0.05141 1.00631 0.88031 0.0
C165 C 0.0436 0.98934 0.04818 0.0
C166 C 0.03881 0.98439 0.89375 0.0
C167 C 0.03446 0.97574 0.97777 0.0
H168 H 0.03155 0.97387 0.83965 0.0
H169 H 0.02407 0.9586 0.98814 0.0
H170 H 1.01732 1.02088 0.38483 0.0
H171 H 0.10234 0.0668 0.75814 0.0
H172 H 0.99213 0.9976 0.27658 0.0
H173 H 0.04031 0.98255 0.11318 0.0
H174 H 0.06568 1.01898 0.1683 0.0
H175 H 0.96823 0.08483 0.68286 0.0
H176 H 0.11522 0.08177 0.02677 0.0
H177 H 0.12402 0.09087 0.8728 0.0
H178 H 0.90766 1.00375 0.38361 0.0
H179 H 0.09309 0.05504 0.13667 0.0
H180 H 0.89387 0.06117 0.61655 0.0
H181 H 0.92238 0.08811 0.70233 0.0
N182 N 0.96549 0.05628 0.58799 0.0
C183 C 0.95016 0.0425 0.53705 0.0
C184 C 0.95588 0.07325 0.64458 0.0
C185 C 0.91392 0.05979 0.60757 0.0
C186 C 0.92996 0.07509 0.65589 0.0
C187 C 0.92397 0.04353 0.54607 0.0
H188 H 0.88866 0.02859 0.49986 0.0
N189 N 0.98596 0.02958 0.46308 0.0
C190 C 0.9608 0.02863 0.47206 0.0
C191 C 0.95722 1.0036 0.34302 0.0
C192 C 0.94569 1.01528 0.41334 0.0
C193 C 0.99727 1.01936 0.39261 0.0
C194 C 0.98308 1.00612 0.3316 0.0
O195 O 0.05502 0.0651 0.72385 0.0
O196 O 1.01327 0.0704 0.70123 0.0
O197 O 0.03147 0.08242 0.5611 0.0
O198 O 1.00169 0.07524 0.46896 0.0
O199 O 1.01832 1.02263 0.79799 0.0
O200 O 0.98909 0.03591 0.69513 0.0
O201 O 1.0208 1.00895 0.55501 0.0
O202 O 0.02946 0.99467 0.69224 0.0
O203 O 0.07474 0.99806 0.64812 0.0
O204 O 0.09365 1.00553 0.76914 0.0
O205 O 0.04472 0.03197 0.52817 0.0
O206 O 0.06967 0.04846 0.63115 0.0
C207 C 0.03458 0.07831 0.73448 0.0
C208 C 0.99505 0.0272 0.77234 0.0
C209 C 0.03912 0.09474 0.41907 0.0
C210 C 0.07326 0.12135 0.36759 0.0
C211 C 0.05734 0.08723 0.27838 0.0
C212 C 0.03986 0.08108 0.34187 0.0
C213 C 0.07377 0.10731 0.2905 0.0
C214 C 0.05623 0.11427 0.43241 0.0
C215 C 1.02126 0.08883 0.48825 0.0
C216 C 0.91963 1.01464 0.42578 0.0
C217 C 0.90879 0.02877 0.49207 0.0
H218 H 0.9463 0.99317 0.2962 0.0
C219 C 1.02146 0.99079 0.61265 0.0
C220 C 0.06647 0.04131 0.55077 0.0
C221 C 0.10145 0.96699 0.70151 0.0
C222 C 0.0926 0.92414 0.74631 0.0
C223 C 0.13023 0.93394 0.66405 0.0
C224 C 0.12347 0.95909 0.66133 0.0
C225 C 0.11495 0.91653 0.70617 0.0
C226 C 0.08627 0.94964 0.7442 0.0
C227 C 0.09409 0.99326 0.69652 0.0
H228 H 0.05775 0.07676 0.21868 0.0
H229 H 0.02709 0.06567 0.33067 0.0
H230 H 0.0861 0.1123 0.23783 0.0
H231 H 0.05588 0.12412 0.4935 0.0
H232 H 0.14736 0.92791 0.63341 0.0
H233 H 0.13539 0.97235 0.62784 0.0
H234 H 0.12091 0.89725 0.70824 0.0
H235 H 0.06929 0.95622 0.77407 0.0
C236 C 0.54017 0.96821 0.48035 0.0
C237 C 0.5229 0.93028 0.54111 0.0
C238 C 0.52496 0.95653 0.53944 0.0
C239 C 0.5377 0.91598 0.48496 0.0
C240 C 0.55429 0.95412 0.42119 0.0
C241 C 0.55347 0.92792 0.42533 0.0
N242 N 0.53992 0.99347 0.47741 0.0
C243 C 0.55215 1.00588 0.41278 0.0
C244 C 0.56834 0.96682 0.35873 0.0
C245 C 0.56713 0.99285 0.35435 0.0
Gd246 Gd 0.5454 0.0603 0.7693 0.0
Gd247 Gd 0.51826 1.01439 0.58833 0.0
N248 N 0.51092 0.97102 0.59169 0.0
C249 C 0.50554 0.91933 0.59737 0.0
C250 C 0.49303 0.96057 0.64341 0.0
C251 C 0.49027 0.93459 0.64787 0.0
H252 H 0.48123 0.97232 0.68267 0.0
H253 H 0.47641 0.92636 0.69027 0.0
H254 H 0.60825 0.05009 0.78811 0.0
H255 H 0.55105 0.02598 0.40794 0.0
H256 H 0.64742 0.07052 0.74329 0.0
H257 H 0.50334 0.89923 0.60067 0.0
H258 H 0.53667 0.89576 0.4858 0.0
H259 H 0.50431 0.10592 0.79357 0.0
H260 H 0.57969 0.95675 0.31259 0.0
H261 H 0.57782 1.00292 0.30651 0.0
H262 H 0.62148 0.15086 0.63974 0.0
H263 H 0.56448 0.91678 0.38141 0.0
H264 H 0.53627 0.17368 0.69393 0.0
H265 H 0.50054 0.15105 0.75967 0.0
N266 N 0.54148 0.10336 0.74623 0.0
C267 C 0.56168 0.11569 0.71496 0.0
C268 C 0.51997 0.11584 0.76539 0.0
C269 C 0.53797 0.15398 0.70872 0.0
C270 C 0.51779 0.14129 0.74616 0.0
C271 C 0.56045 0.1413 0.69424 0.0
H272 H 0.58133 0.17319 0.64606 0.0
N273 N 0.58477 0.07918 0.74047 0.0
C274 C 0.58412 0.10309 0.71129 0.0
C275 C 0.62909 0.10352 0.69529 0.0
C276 C 0.60618 0.11584 0.68695 0.0
C277 C 0.60734 0.06816 0.7573 0.0
C278 C 0.62971 0.07979 0.7327 0.0
O279 O 0.52615 0.99455 0.71524 0.0
O280 O 0.55359 1.01913 0.79617 0.0
O281 O 0.55759 0.07831 0.88764 0.0
O282 O 0.52742 0.05136 0.89142 0.0
O283 O 0.49754 1.01734 0.71586 0.0
O284 O 0.5035 0.05842 0.74869 0.0
O285 O 0.52412 0.07547 0.65281 0.0
O286 O 0.53729 0.05023 0.5447 0.0
O287 O 0.4887 0.04138 0.56744 0.0
O288 O 0.48972 1.00745 0.4912 0.0
O289 O 0.57329 0.03329 0.70857 0.0
O290 O 0.55832 0.02766 0.57091 0.0
C291 C 0.54164 0.99786 0.78075 0.0
C292 C 0.48964 0.03814 0.75121 0.0
C293 C 0.55729 0.04938 1.00139 0.0
C294 C 0.59266 1.02248 0.03747 0.0
C295 C 0.55813 0.02761 0.1385 0.0
C296 C 0.54619 0.0438 0.08094 0.0
C297 C 0.58117 1.01696 0.11701 0.0
C298 C 0.58044 0.0387 0.98013 0.0
C299 C 0.54377 0.06399 0.93618 0.0
C300 C 0.6048 0.14087 0.65989 0.0
C301 C 0.58195 0.1536 0.66361 0.0
H302 H 0.64646 0.11262 0.67727 0.0
C303 C 0.53171 0.07264 0.57278 0.0
C304 C 0.57703 0.02902 0.62598 0.0
C305 C 0.44999 1.0237 0.53056 0.0
C306 C 0.40861 0.04259 0.54551 0.0
C307 C 0.41395 0.99754 0.56094 0.0
C308 C 0.4395 0.99998 0.54465 0.0
C309 C 0.39854 1.01855 0.56046 0.0
C310 C 0.43465 0.04486 0.53363 0.0
C311 C 0.47684 0.02709 0.51309 0.0
H312 H 0.5494 1.02323 0.19972 0.0
H313 H 0.52813 0.05152 0.09764 0.0
H314 H 0.59019 1.00471 0.163 0.0
H315 H 0.58848 0.04234 0.91738 0.0
H316 H 0.40592 0.97921 0.57173 0.0
H317 H 0.45099 0.98337 0.54357 0.0
H318 H 0.37863 1.01562 0.5681 0.0
H319 H 0.44317 0.06307 0.52481 0.0
C320 C 0.47855 0.50127 0.85968 0.0
C321 C 0.5001 0.50336 0.99746 0.0
C322 C 0.49673 0.51201 0.91201 0.0
C323 C 0.48586 0.48302 0.02753 0.0
C324 C 0.46323 0.4818 0.89119 0.0
C325 C 0.46741 0.4723 0.97459 0.0
N326 N 0.47518 0.51057 0.7788 0.0
C327 C 0.45527 0.50314 0.72937 0.0
C328 C 0.44372 0.47294 0.83872 0.0
C329 C 0.43948 0.48395 0.75804 0.0
Gd330 Gd 0.55282 0.5168 0.57284 0.0
Gd331 Gd 0.5021 0.54302 0.73615 0.0
N332 N 0.50973 0.53208 0.88171 0.0
C333 C 0.51688 0.51611 0.05137 0.0
C334 C 0.52428 0.54588 0.9367 0.0
C335 C 0.52864 0.53776 0.02133 0.0
H336 H 0.53219 0.56348 0.91629 0.0
H337 H 0.54068 0.54848 0.06385 0.0
H338 H 0.52169 0.52503 0.38727 0.0
H339 H 0.45205 0.51171 0.66706 0.0
H340 H 0.52697 0.54766 0.24942 0.0
H341 H 0.52 0.51008 0.11739 0.0
H342 H 0.48837 0.47599 0.09267 0.0
H343 H 0.60915 0.51925 0.67195 0.0
H344 H 0.43149 0.45805 0.8607 0.0
H345 H 0.42409 0.47764 0.71792 0.0
H346 H 0.60789 0.58631 0.27469 0.0
H347 H 0.45605 0.45713 0.99959 0.0
H348 H 0.65671 0.56796 0.52683 0.0
H349 H 0.64944 0.54109 0.65461 0.0
N350 N 0.59264 0.53547 0.56014 0.0
C351 C 0.59677 0.54899 0.4871 0.0
C352 C 0.61153 0.53187 0.61836 0.0
C353 C 0.63873 0.55885 0.53524 0.0
C354 C 0.63466 0.5438 0.60763 0.0
C355 C 0.61985 0.56124 0.47302 0.0
H356 H 0.64103 0.58476 0.38528 0.0
N357 N 0.55636 0.53749 0.43959 0.0
C358 C 0.57816 0.54986 0.42466 0.0
C359 C 0.56321 0.56246 0.28369 0.0
C360 C 0.58205 0.563 0.34674 0.0
C361 C 0.53838 0.53598 0.37695 0.0
C362 C 0.5414 0.54865 0.29852 0.0
O363 O 0.50535 0.50133 0.70501 0.0
O364 O 0.5472 0.49688 0.70006 0.0
O365 O 0.54302 0.48179 0.51117 0.0
O366 O 0.58202 0.49181 0.52839 0.0
O367 O 0.54252 0.55434 0.7696 0.0
O368 O 0.56567 0.52212 0.71184 0.0
O369 O 0.53926 0.55659 0.54781 0.0
O370 O 0.5282 0.5726 0.68109 0.0
O371 O 0.48262 0.5679 0.82374 0.0
O372 O 0.46874 0.56256 0.69409 0.0
O373 O 0.51189 0.50945 0.53701 0.0
O374 O 0.49135 0.54306 0.5949 0.0
C375 C 0.5253 0.48788 0.72112 0.0
C376 C 0.56296 0.54048 0.76779 0.0
C377 C 0.56973 0.45041 0.56336 0.0
C378 C 0.55293 0.40991 0.60827 0.0
C379 C 0.5904 0.42655 0.67662 0.0
C380 C 0.58906 0.4479 0.62467 0.0
C381 C 0.57244 0.40764 0.66874 0.0
C382 C 0.55199 0.43123 0.55523 0.0
C383 C 0.56605 0.47382 0.51425 0.0
C384 C 0.60467 0.5759 0.33375 0.0
C385 C 0.62352 0.57505 0.39678 0.0
H386 H 0.56553 0.57223 0.22281 0.0
C387 C 0.53567 0.57559 0.60051 0.0
C388 C 0.49244 0.52454 0.5396 0.0
C389 C 0.4637 0.60219 0.75387 0.0
C390 C 0.48145 0.64427 0.75416 0.0
C391 C 0.4375 0.63755 0.71827 0.0
C392 C 0.44036 0.61188 0.73041 0.0
C393 C 0.4578 0.6537 0.73069 0.0
C394 C 0.48422 0.6183 0.76379 0.0
C395 C 0.4667 0.57518 0.76521 0.0
H396 H 0.60526 0.42481 0.72389 0.0
H397 H 0.60286 0.46254 0.63373 0.0
H398 H 0.57373 0.39135 0.71008 0.0
H399 H 0.53742 0.43297 0.50673 0.0
H400 H 0.41939 0.645 0.70067 0.0
H401 H 0.42439 0.5996 0.72142 0.0
H402 H 0.45465 0.67358 0.72456 0.0
H403 H 0.50236 0.61042 0.77863 0.0
C404 C 0.03316 0.46379 0.83993 0.0
C405 C 0.05352 0.47695 0.97274 0.0
C406 C 0.0395 0.48252 0.89788 0.0
C407 C 0.06238 0.45255 0.98562 0.0
C408 C 0.04092 0.43901 0.85497 0.0
C409 C 0.05618 0.43365 0.92665 0.0
N410 N 1.01788 0.46947 0.7725 0.0
C411 C 1.00788 0.45102 0.72234 0.0
C412 C 0.0323 0.42024 0.79933 0.0
C413 C 1.01534 0.42621 0.73367 0.0
Gd414 Gd 0.03581 0.55882 0.58267 0.0
Gd415 Gd 1.00815 0.51185 0.75494 0.0
N416 N 0.03079 0.50593 0.88341 0.0
C417 C 0.05756 0.49588 0.03361 0.0
C418 C 0.03325 0.52404 0.94504 0.0
C419 C 0.04699 0.51942 0.02037 0.0
H420 H 0.02492 0.54216 0.93539 0.0
H421 H 0.04934 0.53395 0.06831 0.0
H422 H 0.05508 0.52679 0.40703 0.0
H423 H 0.99396 0.45543 0.67412 0.0
H424 H 0.04071 0.51865 0.25847 0.0
H425 H 0.06813 0.49232 0.09216 0.0
H426 H 0.07348 0.44799 0.0421 0.0
H427 H 1.00449 0.60868 0.64998 0.0
H428 H 0.03787 0.40099 0.80851 0.0
H429 H 1.00777 0.41169 0.69251 0.0
H430 H 0.96998 0.5725 0.22335 0.0
H431 H 0.06264 0.4148 0.93852 0.0
H432 H 0.95145 0.62901 0.45403 0.0
H433 H 0.97072 0.63649 0.59735 0.0
N434 N 1.00327 0.58531 0.53922 0.0
C435 C 0.99407 0.5818 0.4582 0.0
C436 C 0.99594 0.60528 0.5877 0.0
C437 C 0.9661 0.61674 0.47702 0.0
C438 C 0.97695 0.62104 0.55797 0.0
C439 C 0.97492 0.5972 0.42538 0.0
H440 H 0.951 0.60471 0.3151 0.0
N441 N 0.02439 0.55028 0.43844 0.0
C442 C 1.00471 0.56351 0.40676 0.0
C443 C 1.00912 0.54333 0.26795 0.0
C444 C 0.99644 0.56026 0.32078 0.0
C445 C 0.03785 0.5351 0.38514 0.0
C446 C 0.03011 0.53094 0.29998 0.0
O447 O 0.04825 0.52558 0.77667 0.0
O448 O 0.06488 0.5332 0.64179 0.0
O449 O 0.06075 0.57621 0.48944 0.0
O450 O 0.05649 0.5924 0.61616 0.0
O451 O 1.00464 0.553 0.78769 0.0
O452 O 0.03711 0.57336 0.71984 0.0
O453 O 0.9942 0.55517 0.61566 0.0
O454 O 0.98846 0.51366 0.62581 0.0
O455 O 0.97155 0.52694 0.77887 0.0
O456 O 0.982 0.49188 0.83852 0.0
O457 O 0.04604 0.51794 0.55591 0.0
O458 O 1.015 0.49442 0.62287 0.0
C459 C 0.0675 0.52703 0.7237 0.0
C460 C 1.01997 0.57215 0.78043 0.0
C461 C 0.09585 0.59616 0.55183 0.0
C462 C 0.13796 0.5785 0.55341 0.0
C463 C 0.13172 0.62326 0.57284 0.0
C464 C 0.10591 0.62003 0.56505 0.0
C465 C 0.14769 0.60276 0.56626 0.0
C466 C 0.11179 0.57547 0.54796 0.0
C467 C 0.06868 0.59304 0.5437 0.0
C468 C 0.97658 0.57478 0.2891 0.0
C469 C 0.96582 0.59319 0.34129 0.0
H470 H 1.00358 0.54054 0.20129 0.0
C471 C 0.98053 0.53533 0.5981 0.0
C472 C 0.03264 0.49717 0.56373 0.0
C473 C 0.95728 0.52064 0.91891 0.0
C474 C 0.93209 0.55207 0.99186 0.0
C475 C 0.96004 0.5253 0.07452 0.0
C476 C 0.96754 0.51339 0.99869 0.0
C477 C 0.9425 0.54459 0.07133 0.0
C478 C 0.93956 0.53988 0.91622 0.0
C479 C 0.96595 0.51016 0.83653 0.0
H480 H 0.13945 0.64178 0.58231 0.0
H481 H 0.09378 0.63616 0.56914 0.0
H482 H 0.16764 0.6062 0.56841 0.0
H483 H 0.10362 0.55704 0.54079 0.0
H484 H 0.96771 0.51947 0.13604 0.0
H485 H 0.98145 0.49877 1.00249 0.0
H486 H 0.93657 0.55314 0.13121 0.0
H487 H 0.9319 0.54569 0.85444 0.0
H488 H 0.21231 0.03415 0.29574 0.0
H489 H 0.06475 0.03188 0.37702 0.0
H490 H 0.15765 0.04501 0.09299 0.0
H491 H 0.11668 0.05101 0.58052 0.0
H492 H 0.09935 0.03186 0.27425 0.0
H493 H 0.1785 0.0364 0.40244 0.0
C494 C 0.19337 0.03714 0.27314 0.0
C495 C 0.18814 0.03912 0.18404 0.0
C496 C 0.10319 0.03626 0.34116 0.0
C497 C 0.14909 0.04115 0.30701 0.0
C498 C 0.0834 0.0362 0.40023 0.0
C499 C 0.08765 0.04164 0.48785 0.0
C500 C 0.12768 0.04139 0.3694 0.0
C501 C 0.11242 0.04687 0.51361 0.0
C502 C 0.17402 0.0383 0.33447 0.0
C503 C 0.1629 0.04264 0.16005 0.0
N504 N 0.1315 0.04648 0.45488 0.0
N505 N 0.14448 0.04333 0.22071 0.0
H506 H 0.55348 0.16598 0.11814 0.0
H507 H 0.50682 0.1177 0.58367 0.0
H508 H 0.50206 0.20757 0.2765 0.0
H509 H 0.55591 0.07616 0.41715 0.0
H510 H 0.50667 0.15194 0.47787 0.0
H511 H 0.55631 0.13433 0.23137 0.0
C512 C 0.54274 0.16855 0.1767 0.0
C513 C 0.52729 0.18958 0.18667 0.0
C514 C 0.51759 0.1354 0.46464 0.0
C515 C 0.53063 0.15301 0.31842 0.0
C516 C 0.51786 0.11589 0.52558 0.0
C517 C 0.53162 0.09401 0.51021 0.0
C518 C 0.53111 0.13309 0.38708 0.0
C519 C 0.54498 0.09256 0.43216 0.0
C520 C 0.54445 0.1504 0.24178 0.0
C521 C 0.51433 0.19187 0.26551 0.0
N522 N 0.54437 0.1117 0.37393 0.0
N523 N 0.51616 0.17381 0.3278 0.0
H524 H 0.35315 0.53989 0.24309 0.0
H525 H 0.48667 0.48896 0.41147 0.0
H526 H 0.39225 0.47792 0.12848 0.0
H527 H 0.44933 0.55239 0.52369 0.0
H528 H 0.45174 0.48419 0.30975 0.0
H529 H 0.38715 0.54397 0.34963 0.0
C530 C 0.36871 0.52702 0.24045 0.0
C531 C 0.36971 0.50867 0.17551 0.0
C532 C 0.45114 0.49915 0.35669 0.0
C533 C 0.40906 0.51338 0.29767 0.0
C534 C 0.47118 0.50191 0.41498 0.0
C535 C 0.47121 0.52117 0.47669 0.0
C536 C 0.43071 0.51568 0.35973 0.0
C537 C 0.45037 0.53726 0.47754 0.0
C538 C 0.38826 0.52947 0.30113 0.0
C539 C 0.39066 0.4927 0.17574 0.0
N540 N 0.4311 0.53416 0.42032 0.0
N541 N 0.40934 0.49546 0.23521 0.0
H542 H 1.01718 0.35862 0.26931 0.0
H543 H 0.07243 0.48795 0.45291 0.0
H544 H 0.06706 0.40498 0.11999 0.0
H545 H 1.00034 0.45852 0.52721 0.0
H546 H 0.07599 0.45416 0.346 0.0
H547 H 1.01658 0.39096 0.38244 0.0
C548 C 0.0283 0.37541 0.26094 0.0
C549 C 0.04214 0.37909 0.18491 0.0
C550 C 0.0595 0.45507 0.38637 0.0
C551 C 0.04164 0.41621 0.31428 0.0
C552 C 0.05737 0.47446 0.44721 0.0
C553 C 0.03605 0.47628 0.50006 0.0
C554 C 0.04045 0.43692 0.3793 0.0
C555 C 1.01741 0.45778 0.49006 0.0
C556 C 0.02781 0.39396 0.32515 0.0
C557 C 0.05602 0.40142 0.17731 0.0
N558 N 1.02009 0.43895 0.43162 0.0
N559 N 0.05548 0.41903 0.24095 0.0
H560 H 0.90387 1.00845 0.23336 0.0
H561 H 0.94441 0.02704 0.73946 0.0
H562 H 0.85294 0.03573 0.03895 0.0
H563 H 0.99718 1.01937 0.94918 0.0
H564 H 0.91007 0.02507 0.84326 0.0
H565 H 0.93702 1.00674 0.12584 0.0
C566 C 0.89959 1.01412 0.16798 0.0
C567 C 0.87551 1.02274 0.14626 0.0
C568 C 0.92914 0.02375 0.8666 0.0
C569 C 0.91375 1.02036 0.02089 0.0
C570 C 0.94889 0.025 0.80729 0.0
C571 C 0.97399 0.02376 0.83514 0.0
C572 C 0.93429 1.02085 0.95501 0.0
C573 C 0.9783 1.02038 0.92407 0.0
C574 C 0.91861 1.01304 0.10631 0.0
C575 C 0.8711 0.02899 0.0592 0.0
N576 N 0.95873 1.01909 0.98053 0.0
N577 N 0.89004 0.02782 0.99995 0.0
H578 H 0.56455 0.8524 0.03144 0.0
H579 H 0.54708 0.99966 0.95606 0.0
H580 H 0.5469 0.90462 0.23438 0.0
H581 H 0.54261 0.94722 0.74627 0.0
H582 H 0.55142 0.96498 0.05787 0.0
H583 H 0.55935 0.88619 0.92514 0.0
C584 C 0.55936 0.8708 0.05397 0.0
C585 C 0.55653 0.87547 0.14303 0.0
C586 C 0.54963 0.96094 0.98957 0.0
C587 C 0.55111 0.91456 0.02091 0.0
C588 C 0.5476 0.98087 0.93122 0.0
C589 C 0.54511 0.97654 0.84225 0.0
C590 C 0.5492 0.93618 0.95918 0.0
C591 C 0.54462 0.95152 0.81428 0.0
C592 C 0.55658 0.89017 0.99303 0.0
C593 C 0.55003 0.89998 0.16728 0.0
N594 N 0.54679 0.93233 0.87229 0.0
N595 N 0.54779 0.91846 0.10713 0.0
H596 H 0.65365 0.58068 0.21956 0.0
H597 H 0.59859 0.50649 0.81575 0.0
H598 H 0.69572 0.52436 0.0856 0.0
H599 H 0.57301 0.58069 0.87714 0.0
H600 H 0.63181 0.51092 0.92282 0.0
H601 H 0.62192 0.57944 0.10431 0.0
C602 C 0.6563 0.56818 0.16542 0.0
C603 C 0.67743 0.5526 0.16235 0.0
C604 C 0.61904 0.52631 0.91279 0.0
C605 C 0.64086 0.5508 0.03039 0.0
C606 C 0.59998 0.52388 0.8511 0.0
C607 C 0.58289 0.54337 0.83587 0.0
C608 C 0.62098 0.5482 0.9621 0.0
C609 C 0.58553 0.56508 0.88645 0.0
C610 C 0.63819 0.56753 0.09957 0.0
C611 C 0.67989 0.53683 0.09044 0.0
N612 N 0.60405 0.56684 0.94749 0.0
N613 N 0.66173 0.53611 0.02808 0.0
H614 H 0.96929 0.67053 0.18957 0.0
H615 H 0.04908 0.61484 0.79523 0.0
H616 H 0.03735 0.70536 0.09896 0.0
H617 H 0.98553 0.57778 0.91093 0.0
H618 H 0.04455 0.64897 0.89979 0.0
H619 H 0.97435 0.63773 0.08259 0.0
C620 C 0.98546 0.6713 0.14757 0.0
C621 C 1.00312 0.69081 0.15501 0.0
C622 C 0.03161 0.63337 0.90223 0.0
C623 C 1.0088 0.65294 0.02937 0.0
C624 C 0.03417 0.6138 0.8424 0.0
C625 C 1.01769 0.5932 0.84372 0.0
C626 C 1.01234 0.63253 0.96399 0.0
C627 C 0.99874 0.59312 0.90681 0.0
C628 C 0.98825 0.65249 0.08578 0.0
C629 C 0.02319 0.69088 0.09608 0.0
N630 N 0.99662 0.61237 0.96388 0.0
N631 N 0.02552 0.67224 0.03618 0.0
H632 H 0.12845 0.23697 0.11141 0.0
H633 H 0.06123 0.16398 0.45874 0.0
H634 H 0.07419 0.267 0.28803 0.0
H635 H 0.11945 0.13346 0.2969 0.0
H636 H 0.07947 0.20484 0.44211 0.0
H637 H 0.13984 0.20568 0.21906 0.0
C638 C 0.11978 0.2377 0.1746 0.0
C639 C 0.0995 0.25367 0.18964 0.0
C640 C 0.08865 0.18919 0.41148 0.0
C641 C 0.11169 0.21757 0.3114 0.0
C642 C 0.07824 0.1655 0.42137 0.0
C643 C 0.08802 0.145 0.37583 0.0
C644 C 0.10831 0.19277 0.35277 0.0
C645 C 0.11026 0.14881 0.32914 0.0
C646 C 0.12614 0.2197 0.23597 0.0
C647 C 0.08936 0.2544 0.27292 0.0
N648 N 0.11916 0.17235 0.31641 0.0
N649 N 0.09489 0.23591 0.32981 0.0
H650 H 0.28428 0.07443 0.31822 0.0
H651 H 0.41692 0.08403 0.44221 0.0
H652 H 0.33597 0.12551 0.1964 0.0
H653 H 0.36141 0.05203 0.61324 0.0
H654 H 0.38586 0.11193 0.38597 0.0
H655 H 0.30645 0.0797 0.45369 0.0
C656 C 0.29966 0.08766 0.32049 0.0
C657 C 0.30925 0.09838 0.24444 0.0
C658 C 0.38044 0.09922 0.43719 0.0
C659 C 0.3354 0.10358 0.39899 0.0
C660 C 0.39844 0.0831 0.47031 0.0
C661 C 0.39174 0.06438 0.53 0.0
C662 C 0.35528 0.09596 0.46062 0.0
C663 C 0.36724 0.06489 0.56313 0.0
C664 C 0.31253 0.09052 0.39836 0.0
C665 C 0.32884 0.11575 0.25258 0.0
N666 N 0.34967 0.07971 0.5257 0.0
N667 N 0.34196 0.11706 0.3277 0.0
H668 H 0.517 0.28786 0.32054 0.0
H669 H 0.50241 0.41296 0.57637 0.0
H670 H 0.46911 0.34893 0.24423 0.0
H671 H 0.56231 0.35973 0.60434 0.0
H672 H 0.47777 0.3814 0.49954 0.0
H673 H 0.5198 0.30538 0.46452 0.0
C674 C 0.50638 0.30456 0.33436 0.0
C675 C 0.4934 0.31737 0.26878 0.0
C676 C 0.49599 0.37642 0.52496 0.0
C677 C 0.49735 0.33791 0.43387 0.0
C678 C 0.51011 0.39441 0.56844 0.0
C679 C 0.53492 0.38928 0.59275 0.0
C680 C 0.50683 0.35323 0.50633 0.0
C681 C 0.54354 0.36472 0.58466 0.0
C682 C 0.50815 0.31463 0.41695 0.0
C683 C 0.48015 0.33895 0.29165 0.0
N684 N 0.52975 0.34776 0.53999 0.0
N685 N 0.48298 0.34892 0.37181 0.0
H686 H 0.20655 0.4695 0.25002 0.0
H687 H 0.18598 0.57034 0.61607 0.0
H688 H 0.26037 0.52657 0.3172 0.0
H689 H 0.12919 0.53692 0.45264 0.0
H690 H 0.21635 0.54071 0.55808 0.0
H691 H 0.1828 0.47961 0.38016 0.0
C692 C 0.2138 0.48359 0.29372 0.0
C693 C 0.23488 0.49789 0.27142 0.0
C694 C 0.197 0.53956 0.53733 0.0
C695 C 0.2079 0.50951 0.41941 0.0
C696 C 0.17967 0.55668 0.56926 0.0
C697 C 0.15502 0.55703 0.53686 0.0
C698 C 0.18946 0.52234 0.47419 0.0
C699 C 0.14783 0.53786 0.47974 0.0
C700 C 0.20028 0.48931 0.36788 0.0
C701 C 0.2439 0.51544 0.33127 0.0
N702 N 0.16505 0.52161 0.4494 0.0
N703 N 0.22994 0.52129 0.40162 0.0
H704 H 0.98503 0.85648 0.08363 0.0
H705 H 0.08416 0.87434 0.70691 0.0
H706 H 0.0421 0.80111 0.04089 0.0
H707 H 0.06299 0.93173 0.88897 0.0
H708 H 0.05825 0.84443 0.78752 0.0
H709 H 1.00149 0.88066 0.96208 0.0
C710 C 1.00058 0.84907 0.04703 0.0
C711 C 1.01272 0.82718 0.07364 0.0
C712 C 0.05914 0.86374 0.80823 0.0
C713 C 0.03132 0.85452 0.93481 0.0
C714 C 0.07413 0.88079 0.76324 0.0
C715 C 0.07604 0.90578 0.79104 0.0
C716 C 0.04544 0.87192 0.8797 0.0
C717 C 0.06188 0.913 0.86321 0.0
C718 C 1.00992 0.86286 0.97799 0.0
C719 C 0.03242 0.81807 0.02288 0.0
N720 N 0.04719 0.89619 0.90472 0.0
N721 N 0.04151 0.83209 0.9565 0.0
H722 H 0.72609 0.95333 0.15607 0.0
H723 H 0.63118 0.04562 0.95095 0.0
H724 H 0.74563 0.02411 0.04215 0.0
H725 H 0.61134 0.97562 0.07237 0.0
H726 H 0.67392 0.03094 0.93535 0.0
H727 H 0.68722 0.95308 0.07294 0.0
C728 C 0.72288 0.9681 0.10942 0.0
C729 C 0.73858 0.98918 0.10789 0.0
C730 C 0.66015 1.01857 0.96403 0.0
C731 C 0.69379 0.98967 0.01602 0.0
C732 C 0.63561 0.02693 0.97289 0.0
C733 C 0.61769 1.01215 0.01564 0.0
C734 C 0.66703 0.99541 0.99941 0.0
C735 C 0.62474 0.98809 0.04226 0.0
C736 C 0.70042 0.96822 0.06315 0.0
C737 C 0.73369 1.00776 0.04639 0.0
N738 N 0.64896 0.98069 0.03537 0.0
N739 N 0.71119 1.0081 1.0053 0.0
H740 H 0.53431 0.76793 1.00703 0.0
H741 H 0.49287 0.69094 0.68626 0.0
H742 H 0.58814 0.71082 0.06941 0.0
H743 H 0.51855 0.63697 0.87466 0.0
H744 H 0.52203 0.72156 0.74795 0.0
H745 H 0.52327 0.74525 0.876 0.0
C746 C 0.54454 0.75112 0.99131 0.0
C747 C 0.56156 0.74076 0.05039 0.0
C748 C 0.52142 0.70284 0.77444 0.0
C749 C 0.54897 0.71465 0.90098 0.0
C750 C 0.50467 0.68537 0.73981 0.0
C751 C 0.50244 0.66145 0.77699 0.0
C752 C 0.53612 0.69617 0.84605 0.0
C753 C 0.51922 0.65503 0.8434 0.0
C754 C 0.53829 0.73818 0.91608 0.0
C755 C 0.57427 0.71896 0.02684 0.0
N756 N 0.53506 0.67237 0.87626 0.0
N757 N 0.56716 0.70621 0.9552 0.0
H758 H 0.78941 0.57943 0.06094 0.0
H759 H 0.92929 0.59639 0.08088 0.0
H760 H 0.8268 0.63107 0.2314 0.0
H761 H 0.88948 0.55162 0.89344 0.0
H762 H 0.89221 0.6225 0.09665 0.0
H763 H 0.82262 0.58524 0.95585 0.0
C764 C 0.80399 0.593 0.0746 0.0
C765 C 0.80634 0.60355 0.15704 0.0
C766 C 0.89178 0.60739 0.05024 0.0
C767 C 0.84504 0.60912 0.03979 0.0
C768 C 0.91288 0.59229 0.04208 0.0
C769 C 0.91213 0.57121 0.98846 0.0
C770 C 0.86962 0.60091 1.0061 0.0
C771 C 0.89078 0.56737 0.93698 0.0
C772 C 0.82326 0.59609 0.01485 0.0
C773 C 0.82515 0.62155 0.16995 0.0
N774 N 0.87019 0.58167 0.94871 0.0
N775 N 0.84455 0.62289 0.1137 0.0
H776 H 1.01201 0.22509 0.97632 0.0
H777 H 0.07675 0.10753 0.74714 0.0
H778 H 0.08785 0.22435 0.88305 0.0
H779 H 0.99721 0.1099 0.7925 0.0
H780 H 0.08035 0.15044 0.79796 0.0
H781 H 1.00487 0.18411 0.90711 0.0
C782 C 0.02689 0.21673 0.93894 0.0
C783 C 0.0505 0.22838 0.93475 0.0
C784 C 0.06204 0.1417 0.79689 0.0
C785 C 0.04281 0.18101 0.85806 0.0
C786 C 0.05999 0.11695 0.76846 0.0
C787 C 0.03666 0.10473 0.76616 0.0
C788 C 0.04064 0.1547 0.8243 0.0
C789 C 1.01561 0.11844 0.79313 0.0
C790 C 1.02293 0.19315 0.90037 0.0
C791 C 0.0693 0.21623 0.88742 0.0
N792 N 1.0181 0.14255 0.82155 0.0
N793 N 0.06515 0.19329 0.85204 0.0
H794 H 0.36927 0.05309 0.11468 0.0
H795 H 0.44861 1.00774 0.72107 0.0
H796 H 0.33015 0.04834 0.8708 0.0
H797 H 0.47245 0.07094 0.87295 0.0
H798 H 0.40648 1.0111 0.78513 0.0
H799 H 0.40878 0.04723 0.03944 0.0
C800 C 0.36884 0.05084 0.04516 0.0
C801 C 0.34608 0.05219 0.99905 0.0
C802 C 0.42098 0.02423 0.80391 0.0
C803 C 0.39184 0.04418 0.91276 0.0
C804 C 0.44501 1.02234 0.76752 0.0
C805 C 0.46413 0.03926 0.79072 0.0
C806 C 0.41632 0.04249 0.8668 0.0
C807 C 0.45838 0.05758 0.85246 0.0
C808 C 0.39153 0.04734 1.00247 0.0
C809 C 0.34707 0.04774 0.90929 0.0
N810 N 0.43522 0.05845 0.88913 0.0
N811 N 0.36959 0.04401 0.86893 0.0
H812 H 0.55306 0.34311 0.96869 0.0
H813 H 0.48486 0.45586 0.71737 0.0
H814 H 0.47299 0.35044 0.95275 0.0
H815 H 0.56102 0.46064 0.80783 0.0
H816 H 0.48131 0.41421 0.78254 0.0
H817 H 0.55762 0.38249 0.88694 0.0
C818 C 0.53646 0.35266 0.94597 0.0
C819 C 0.51261 0.34326 0.96645 0.0
C820 C 0.49881 0.42435 0.78831 0.0
C821 C 0.51761 0.38863 0.87438 0.0
C822 C 0.50079 0.44827 0.75159 0.0
C823 C 0.52311 0.46209 0.75825 0.0
C824 C 0.51945 0.41379 0.83141 0.0
C825 C 0.54338 0.45079 0.80118 0.0
C826 C 0.53905 0.37529 0.90026 0.0
C827 C 0.49172 0.35682 0.93736 0.0
N828 N 0.54107 0.42742 0.83612 0.0
N829 N 0.49469 0.37869 0.89306 0.0
H830 H 0.22184 0.54335 0.91357 0.0
H831 H 0.08474 0.48669 0.81439 0.0
H832 H 0.19626 0.47089 0.99739 0.0
H833 H 0.10894 0.55768 0.71406 0.0
H834 H 0.12635 0.4804 0.87682 0.0
H835 H 0.18252 0.54835 0.83097 0.0
C836 C 0.20829 0.52825 0.91285 0.0
C837 C 0.21249 0.50663 0.96251 0.0
C838 C 0.12276 0.49735 0.84073 0.0
C839 C 0.16705 0.51247 0.87011 0.0
C840 C 0.0988 0.50105 0.80584 0.0
C841 C 0.09323 0.52277 0.75901 0.0
C842 C 0.14158 0.51559 0.8294 0.0
C843 C 0.11255 0.54044 0.7481 0.0
C844 C 0.18569 0.53121 0.86651 0.0
C845 C 0.19393 0.48788 0.96024 0.0
N846 N 0.13575 0.53657 0.78328 0.0
N847 N 0.17214 0.49132 0.91592 0.0
H848 H 0.0368 0.83507 0.45597 0.0
H849 H 0.99016 0.97594 0.48225 0.0
H850 H 0.97096 0.86247 0.32644 0.0
H851 H 0.03853 0.94569 0.67794 0.0
H852 H 0.98389 0.93411 0.42415 0.0
H853 H 0.03852 0.87412 0.54093 0.0
C854 C 1.02229 0.84891 0.44732 0.0
C855 C 1.00366 0.84544 0.38409 0.0
C856 C 0.99597 0.93649 0.47985 0.0
C857 C 1.00598 0.89046 0.47853 0.0
C858 C 0.99979 0.96057 0.51247 0.0
C859 C 1.01571 0.96471 0.58326 0.0
C860 C 1.00834 0.91603 0.51752 0.0
C861 C 0.0267 0.94359 0.62203 0.0
C862 C 0.02341 0.87132 0.49512 0.0
C863 C 0.98564 0.86432 0.37442 0.0
N864 N 0.02317 0.92026 0.58801 0.0
N865 N 0.98746 0.88599 0.41982 0.0
H866 H 0.73247 0.99614 0.49227 0.0
H867 H 0.59247 0.04698 0.4705 0.0
H868 H 0.70663 0.05015 0.30646 0.0
H869 H 0.62077 1.01122 0.70031 0.0
H870 H 0.63457 0.04718 0.41022 0.0
H871 H 0.69303 1.00126 0.57312 0.0
C872 C 0.71889 1.00972 0.47031 0.0
C873 C 0.72299 1.02307 0.39337 0.0
C874 C 0.63174 0.03937 0.47407 0.0
C875 C 0.67746 0.02822 0.48301 0.0
C876 C 0.60757 0.03907 0.50833 0.0
C877 C 0.60298 0.02902 0.59062 0.0
C878 C 0.65174 0.02918 0.52147 0.0
C879 C 0.62347 1.01926 0.63677 0.0
C880 C 0.69626 1.01242 0.51579 0.0
C881 C 0.70439 0.0398 0.36616 0.0
N882 N 0.64691 1.01939 0.60135 0.0
N883 N 0.68245 0.04166 0.4101 0.0
H884 H 0.59432 0.70619 0.33455 0.0
H885 H 0.50256 0.6147 0.60018 0.0
H886 H 0.51906 0.72685 0.40146 0.0
H887 H 0.57716 0.59556 0.52196 0.0
H888 H 0.5089 0.65708 0.54179 0.0
H889 H 0.58943 0.66749 0.41706 0.0
C890 C 0.57695 0.70286 0.36877 0.0
C891 C 0.55722 0.72004 0.362 0.0
C892 C 0.52396 0.64366 0.53764 0.0
C893 C 0.55104 0.67496 0.45505 0.0
C894 C 0.52041 0.61953 0.57195 0.0
C895 C 0.53939 0.60151 0.56653 0.0
C896 C 0.54672 0.64989 0.49708 0.0
C897 C 0.56186 0.60857 0.52632 0.0
C898 C 0.57403 0.68057 0.41524 0.0
C899 C 0.53491 0.7144 0.4062 0.0
N900 N 0.56487 0.63204 0.4933 0.0
N901 N 0.53235 0.69229 0.45012 0.0
H902 H 0.83219 0.51737 0.35992 0.0
H903 H 0.95012 0.57635 0.61273 0.0
H904 H 0.83285 0.59042 0.47553 0.0
H905 H 0.94933 0.5003 0.52241 0.0
H906 H 0.90673 0.58094 0.5656 0.0
H907 H 0.87356 0.50919 0.42501 0.0
C908 C 0.84059 0.53132 0.40167 0.0
C909 C 0.82871 0.55443 0.41372 0.0
C910 C 0.91592 0.56318 0.55593 0.0
C911 C 0.87667 0.54568 0.48554 0.0
C912 C 0.94093 0.56065 0.58212 0.0
C913 C 0.95373 0.53805 0.57035 0.0
C914 C 0.90324 0.54297 0.51726 0.0
C915 C 0.94032 0.51813 0.5326 0.0
C916 C 0.86442 0.52681 0.43777 0.0
C917 C 0.84103 0.57218 0.46581 0.0
N918 N 0.91596 0.52108 0.507 0.0
N919 N 0.86424 0.56754 0.49886 0.0
loop_
_geom_bond_atom_site_label_1
_geom_bond_atom_site_label_2
_geom_bond_distance
_geom_bond_site_symmetry_2
_ccdc_geom_bond_type
H0 C1 0.949 . S
C1 H0 0.949 . S
C1 C2 1.395 . S
C1 C3 1.391 . S
C2 C1 1.395 . S
C2 C5 1.390 . S
C3 C1 1.391 . S
C3 C7 1.387 . S
C3 C8 1.491 . S
H4 C5 0.950 . S
C5 C2 1.390 . S
C5 H4 0.950 . S
C5 C6 1.378 . S
C6 C5 1.378 . S
C6 C7 1.409 . S
C7 C3 1.387 . S
C7 C6 1.409 . S
C7 H9 0.951 . S
C8 C3 1.491 . S
C8 C10 1.382 . S
C8 C12 1.404 . S
H9 C7 0.951 . S
C10 C8 1.382 . S
C10 C11 1.390 . S
C10 H15 0.949 . S
C11 C10 1.390 . S
C11 C16 1.399 . S
C12 C8 1.404 . S
C12 H13 0.950 . S
C12 C14 1.375 . S
H13 C12 0.950 . S
C14 C12 1.375 . S
C14 C16 1.382 . S
C14 H18 0.950 . S
H15 C10 0.949 . S
C16 C11 1.399 . S
C16 C14 1.382 . S
C16 H17 0.952 . S
H17 C16 0.952 . S
H18 C14 0.950 . S
H19 C20 0.949 . S
C20 H19 0.949 . S
C20 C21 1.395 . S
C20 C22 1.391 . S
C21 C20 1.395 . S
C21 C24 1.390 . S
C22 C20 1.391 . S
C22 C26 1.387 . S
C22 C27 1.491 . S
H23 C24 0.950 . S
C24 C21 1.390 . S
C24 H23 0.950 . S
C24 C25 1.378 . S
C25 C24 1.378 . S
C25 C26 1.409 . S
C26 C22 1.387 . S
C26 C25 1.409 . S
C26 H28 0.951 . S
C27 C22 1.491 . S
C27 C29 1.382 . S
C27 C31 1.404 . S
H28 C26 0.951 . S
C29 C27 1.382 . S
C29 C30 1.390 . S
C29 H34 0.949 . S
C30 C29 1.390 . S
C30 C35 1.399 . S
C31 C27 1.404 . S
C31 H32 0.950 . S
C31 C33 1.375 . S
H32 C31 0.950 . S
C33 C31 1.375 . S
C33 C35 1.382 . S
C33 H37 0.950 . S
H34 C29 0.949 . S
C35 C30 1.399 . S
C35 C33 1.382 . S
C35 H36 0.952 . S
H36 C35 0.952 . S
H37 C33 0.950 . S
H38 C39 0.949 . S
C39 H38 0.949 . S
C39 C40 1.395 . S
C39 C41 1.391 . S
C40 C39 1.395 . S
C40 C43 1.390 . S
C41 C39 1.391 . S
C41 C45 1.387 . S
C41 C46 1.491 . S
H42 C43 0.950 . S
C43 C40 1.390 . S
C43 H42 0.950 . S
C43 C44 1.378 . S
C44 C43 1.378 . S
C44 C45 1.409 . S
C45 C41 1.387 . S
C45 C44 1.409 . S
C45 H47 0.951 . S
C46 C41 1.491 . S
C46 C48 1.382 . S
C46 C50 1.404 . S
H47 C45 0.951 . S
C48 C46 1.382 . S
C48 C49 1.390 . S
C48 H53 0.949 . S
C49 C48 1.390 . S
C49 C54 1.399 . S
C50 C46 1.404 . S
C50 H51 0.950 . S
C50 C52 1.375 . S
H51 C50 0.950 . S
C52 C50 1.375 . S
C52 C54 1.382 . S
C52 H56 0.950 . S
H53 C48 0.949 . S
C54 C49 1.399 . S
C54 C52 1.382 . S
C54 H55 0.952 . S
H55 C54 0.952 . S
H56 C52 0.950 . S
H57 C58 0.949 . S
C58 H57 0.949 . S
C58 C59 1.395 . S
C58 C60 1.391 . S
C59 C58 1.395 . S
C59 C62 1.390 . S
C60 C58 1.391 . S
C60 C64 1.387 . S
C60 C65 1.491 . S
H61 C62 0.950 . S
C62 C59 1.390 . S
C62 H61 0.950 . S
C62 C63 1.378 . S
C63 C62 1.378 . S
C63 C64 1.409 . S
C64 C60 1.387 . S
C64 C63 1.409 . S
C64 H66 0.951 . S
C65 C60 1.491 . S
C65 C67 1.382 . S
C65 C69 1.404 . S
H66 C64 0.951 . S
C67 C65 1.382 . S
C67 C68 1.390 . S
C67 H72 0.949 . S
C68 C67 1.390 . S
C68 C73 1.399 . S
C69 C65 1.404 . S
C69 H70 0.950 . S
C69 C71 1.375 . S
H70 C69 0.950 . S
C71 C69 1.375 . S
C71 C73 1.382 . S
C71 H75 0.950 . S
H72 C67 0.949 . S
C73 C68 1.399 . S
C73 C71 1.382 . S
C73 H74 0.952 . S
H74 C73 0.952 . S
H75 C71 0.950 . S
H76 C77 0.949 . S
C77 H76 0.949 . S
C77 C78 1.395 . S
C77 C79 1.391 . S
C78 C77 1.395 . S
C78 C81 1.390 1_554 S
C79 C77 1.391 . S
C79 C83 1.387 1_554 S
C79 C84 1.491 . S
H80 C81 0.950 . S
C81 C78 1.390 1_556 S
C81 H80 0.950 . S
C81 C82 1.378 . S
C82 C81 1.378 . S
C82 C83 1.409 . S
C83 C79 1.387 1_556 S
C83 C82 1.409 . S
C83 H85 0.951 . S
C84 C79 1.491 . S
C84 C86 1.382 . S
C84 C88 1.404 1_554 S
H85 C83 0.951 . S
C86 C84 1.382 . S
C86 C87 1.390 . S
C86 H91 0.949 . S
C87 C86 1.390 . S
C87 C92 1.399 . S
C88 C84 1.404 1_556 S
C88 H89 0.950 . S
C88 C90 1.375 . S
H89 C88 0.950 . S
C90 C88 1.375 . S
C90 C92 1.382 1_556 S
C90 H94 0.950 . S
H91 C86 0.949 . S
C92 C87 1.399 . S
C92 C90 1.382 1_554 S
C92 H93 0.952 . S
H93 C92 0.952 . S
H94 C90 0.950 . S
H95 C96 0.949 . S
C96 H95 0.949 . S
C96 C97 1.395 . S
C96 C98 1.391 . S
C97 C96 1.395 . S
C97 C100 1.390 1_554 S
C98 C96 1.391 . S
C98 C102 1.387 1_554 S
C98 C103 1.491 . S
H99 C100 0.950 . S
C100 C97 1.390 1_556 S
C100 H99 0.950 . S
C100 C101 1.378 . S
C101 C100 1.378 . S
C101 C102 1.409 . S
C102 C98 1.387 1_556 S
C102 C101 1.409 . S
C102 H104 0.951 . S
C103 C98 1.491 . S
C103 C105 1.382 . S
C103 C107 1.404 1_554 S
H104 C102 0.951 . S
C105 C103 1.382 . S
C105 C106 1.390 . S
C105 H110 0.949 . S
C106 C105 1.390 . S
C106 C111 1.399 . S
C107 C103 1.404 1_556 S
C107 H108 0.949 . S
C107 C109 1.375 . S
H108 C107 0.949 . S
C109 C107 1.375 . S
C109 C111 1.382 1_556 S
C109 H113 0.950 1_455 S
H110 C105 0.949 . S
C111 C106 1.399 . S
C111 C109 1.382 1_554 S
C111 H112 0.952 . S
H112 C111 0.952 . S
H113 C109 0.950 1_655 S
H114 C115 0.949 . S
C115 H114 0.949 . S
C115 C116 1.395 . S
C115 C117 1.391 . S
C116 C115 1.395 . S
C116 C119 1.390 1_554 S
C117 C115 1.391 . S
C117 C121 1.387 1_554 S
C117 C122 1.491 . S
H118 C119 0.950 . S
C119 C116 1.390 1_556 S
C119 H118 0.950 . S
C119 C120 1.378 . S
C120 C119 1.378 . S
C120 C121 1.409 . S
C121 C117 1.387 1_556 S
C121 C120 1.409 . S
C121 H123 0.951 . S
C122 C117 1.491 . S
C122 C124 1.382 . S
C122 C126 1.404 1_554 S
H123 C121 0.951 . S
C124 C122 1.382 . S
C124 C125 1.390 . S
C124 H129 0.949 . S
C125 C124 1.390 . S
C125 C130 1.399 . S
C126 C122 1.404 1_556 S
C126 H127 0.950 . S
C126 C128 1.375 . S
H127 C126 0.950 . S
C128 C126 1.375 . S
C128 C130 1.382 1_556 S
C128 H132 0.950 1_545 S
H129 C124 0.949 . S
C130 C125 1.399 . S
C130 C128 1.382 1_554 S
C130 H131 0.952 . S
H131 C130 0.952 . S
H132 C128 0.950 1_565 S
H133 C134 0.949 . S
C134 H133 0.949 . S
C134 C135 1.395 . S
C134 C136 1.391 . S
C135 C134 1.395 . S
C135 C138 1.390 1_554 S
C136 C134 1.391 . S
C136 C140 1.387 1_554 S
C136 C141 1.491 . S
H137 C138 0.950 . S
C138 C135 1.390 1_556 S
C138 H137 0.950 . S
C138 C139 1.378 . S
C139 C138 1.378 . S
C139 C140 1.409 . S
C140 C136 1.387 1_556 S
C140 C139 1.409 . S
C140 H142 0.951 . S
C141 C136 1.491 . S
C141 C143 1.382 . S
C141 C145 1.404 1_554 S
H142 C140 0.951 . S
C143 C141 1.382 . S
C143 C144 1.390 . S
C143 H148 0.949 . S
C144 C143 1.390 . S
C144 C149 1.399 . S
C145 C141 1.404 1_556 S
C145 H146 0.950 . S
C145 C147 1.375 . S
H146 C145 0.950 . S
C147 C145 1.375 . S
C147 C149 1.382 1_556 S
C147 H151 0.950 . S
H148 C143 0.949 . S
C149 C144 1.399 . S
C149 C147 1.382 1_554 S
C149 H150 0.952 . S
H150 C149 0.952 . S
H151 C147 0.950 . S
C152 C154 1.422 . S
C152 C156 1.415 . S
C152 N158 1.369 . S
C153 C154 1.421 1_554 S
C153 C155 1.417 . S
C153 C165 1.422 . S
C154 C152 1.422 . S
C154 C153 1.421 1_556 S
C154 N164 1.359 . S
C155 C153 1.417 . S
C155 C157 1.329 . S
C155 H174 0.930 . S
C156 C152 1.415 . S
C156 C157 1.437 1_556 S
C156 C160 1.413 . S
C157 C155 1.329 . S
C157 C156 1.437 1_554 S
C157 H179 0.929 . S
N158 C152 1.369 . S
N158 C159 1.338 . S
N158 Gd163 2.622 1_545 S
C159 N158 1.338 . S
C159 C161 1.378 . S
C159 H171 0.929 1_545 S
C160 C156 1.413 . S
C160 C161 1.348 . S
C160 H176 0.931 . S
C161 C159 1.378 . S
C161 C160 1.348 . S
C161 H177 0.930 . S
Gd162 N182 2.622 . S
Gd162 N189 2.570 . S
Gd162 O196 2.353 1_655 S
Gd162 O197 2.468 1_655 S
Gd162 O198 2.427 . S
Gd162 O200 2.388 . S
Gd162 O201 2.386 1_545 S
Gd162 O205 2.307 1_655 S
Gd162 C215 2.805 . S
Gd163 N158 2.622 1_565 S
Gd163 N164 2.570 1_565 S
Gd163 O195 2.386 1_565 S
Gd163 O199 2.307 1_465 S
Gd163 O202 2.353 . S
Gd163 O203 2.468 . S
Gd163 O204 2.427 . S
Gd163 O206 2.393 . S
Gd163 C227 2.805 . S
N164 C154 1.359 . S
N164 Gd163 2.570 1_545 S
N164 C166 1.343 . S
C165 C153 1.422 . S
C165 C167 1.321 . S
C165 H173 0.931 . S
C166 N164 1.343 . S
C166 C167 1.390 1_556 S
C166 H168 0.931 1_455 S
C167 C165 1.321 . S
C167 C166 1.390 1_554 S
C167 H169 0.930 1_455 S
H168 C166 0.931 1_655 S
H169 C167 0.930 1_655 S
H170 C193 0.931 . S
H171 C159 0.929 1_565 S
H172 C194 0.930 . S
H173 C165 0.931 . S
H174 C155 0.930 . S
H175 C184 0.929 . S
H176 C160 0.931 . S
H177 C161 0.930 . S
H178 C216 0.930 . S
H179 C157 0.929 . S
H180 C185 0.931 . S
H181 C186 0.930 . S
N182 Gd162 2.622 . S
N182 C183 1.369 . S
N182 C184 1.338 . S
C183 N182 1.369 . S
C183 C187 1.415 1_545 S
C183 C190 1.422 . S
C184 H175 0.929 . S
C184 N182 1.338 . S
C184 C186 1.378 . S
C185 H180 0.931 . S
C185 C186 1.348 1_565 S
C185 C187 1.413 . S
C186 H181 0.930 . S
C186 C184 1.378 . S
C186 C185 1.348 1_545 S
C187 C183 1.415 1_565 S
C187 C185 1.413 . S
C187 C217 1.437 . S
H188 C217 0.929 . S
N189 Gd162 2.570 . S
N189 C190 1.359 . S
N189 C193 1.343 1_655 S
C190 C183 1.422 . S
C190 N189 1.359 . S
C190 C192 1.421 1_545 S
C191 C192 1.422 . S
C191 C194 1.321 1_655 S
C191 H218 0.931 . S
C192 C190 1.421 1_565 S
C192 C191 1.422 . S
C192 C216 1.417 . S
C193 H170 0.931 . S
C193 N189 1.343 1_455 S
C193 C194 1.390 1_545 S
C194 H172 0.930 . S
C194 C191 1.321 1_455 S
C194 C193 1.390 1_565 S
O195 Gd163 2.386 1_545 S
O195 C207 1.265 . S
O196 Gd162 2.353 1_455 S
O196 C207 1.242 . S
O197 Gd162 2.468 1_455 S
O197 C215 1.263 1_455 S
O198 Gd162 2.427 . S
O198 C215 1.252 . S
O199 Gd163 2.307 1_645 S
O199 C208 1.261 . S
O200 Gd162 2.388 . S
O200 C208 1.252 . S
O201 Gd162 2.386 1_565 S
O201 C219 1.265 . S
O202 Gd163 2.353 . S
O202 C219 1.242 1_455 S
O203 Gd163 2.468 . S
O203 C227 1.263 . S
O204 Gd163 2.427 . S
O204 C227 1.252 . S
O205 Gd162 2.307 1_455 S
O205 C220 1.261 . S
O206 Gd163 2.393 . S
O206 C220 1.227 1_565 S
C207 O195 1.265 . S
C207 O196 1.242 . S
C208 O199 1.261 . S
C208 O200 1.252 . S
C209 C212 1.394 . S
C209 C214 1.334 1_655 S
C209 C215 1.500 . S
C210 C213 1.383 . S
C210 C214 1.391 1_655 S
C211 C212 1.396 . S
C211 C213 1.365 . S
C211 H228 0.929 . S
C212 C209 1.394 . S
C212 C211 1.396 . S
C212 H229 0.930 . S
C213 C210 1.383 . S
C213 C211 1.365 . S
C213 H230 0.931 . S
C214 C209 1.334 1_455 S
C214 C210 1.391 1_455 S
C214 H231 0.973 . S
C215 Gd162 2.805 . S
C215 O197 1.263 1_655 S
C215 O198 1.252 . S
C215 C209 1.500 . S
C216 H178 0.930 . S
C216 C192 1.417 . S
C216 C217 1.329 . S
C217 C187 1.437 . S
C217 H188 0.929 . S
C217 C216 1.329 . S
H218 C191 0.931 . S
C219 O201 1.265 . S
C219 O202 1.242 1_655 S
C220 O205 1.261 . S
C220 O206 1.227 1_545 S
C221 C224 1.394 . S
C221 C226 1.370 . S
C221 C227 1.500 . S
C222 C225 1.383 . S
C222 C226 1.395 . S
C223 C224 1.396 . S
C223 C225 1.365 . S
C223 H232 0.929 . S
C224 C221 1.394 . S
C224 C223 1.396 . S
C224 H233 0.930 . S
C225 C222 1.383 . S
C225 C223 1.365 . S
C225 H234 0.931 1_556 S
C226 C221 1.370 . S
C226 C222 1.395 . S
C226 H235 0.902 1_455 S
C227 Gd163 2.805 . S
C227 O203 1.263 . S
C227 O204 1.252 . S
C227 C221 1.500 . S
H228 C211 0.929 . S
H229 C212 0.930 . S
H230 C213 0.931 . S
H231 C214 0.973 . S
H232 C223 0.929 . S
H233 C224 0.930 . S
H234 C225 0.931 1_554 S
H235 C226 0.902 1_655 S
C236 C238 1.422 . S
C236 C240 1.415 . S
C236 N242 1.369 . S
C237 C238 1.421 . S
C237 C239 1.417 . S
C237 C249 1.422 . S
C238 C236 1.422 . S
C238 C237 1.421 . S
C238 N248 1.359 . S
C239 C237 1.417 . S
C239 C241 1.329 . S
C239 H258 0.930 . S
C240 C236 1.415 . S
C240 C241 1.437 . S
C240 C244 1.413 . S
C241 C239 1.329 . S
C241 C240 1.437 . S
C241 H263 0.929 . S
N242 C236 1.369 . S
N242 C243 1.338 . S
N242 Gd247 2.622 . S
C243 N242 1.338 . S
C243 C245 1.378 . S
C243 H255 0.929 . S
C244 C240 1.413 . S
C244 C245 1.348 . S
C244 H260 0.931 . S
C245 C243 1.378 . S
C245 C244 1.348 . S
C245 H261 0.930 . S
Gd246 N266 2.622 . S
Gd246 N273 2.570 . S
Gd246 O280 2.353 1_545 S
Gd246 O281 2.468 . S
Gd246 O282 2.427 . S
Gd246 O284 2.388 . S
Gd246 O285 2.386 . S
Gd246 O289 2.307 . S
Gd246 C299 2.805 . S
Gd247 N242 2.622 . S
Gd247 N248 2.570 . S
Gd247 O279 2.386 . S
Gd247 O283 2.307 1_565 S
Gd247 O286 2.353 1_565 S
Gd247 O287 2.472 . S
Gd247 O288 2.427 . S
Gd247 O290 2.388 . S
Gd247 C311 2.805 . S
N248 C238 1.359 . S
N248 Gd247 2.570 . S
N248 C250 1.343 . S
C249 C237 1.422 . S
C249 C251 1.321 . S
C249 H257 0.931 . S
C250 N248 1.343 . S
C250 C251 1.390 . S
C250 H252 0.931 . S
C251 C249 1.321 . S
C251 C250 1.390 . S
C251 H253 0.930 . S
H252 C250 0.931 . S
H253 C251 0.930 . S
H254 C277 0.931 . S
H255 C243 0.929 . S
H256 C278 0.930 . S
H257 C249 0.931 . S
H258 C239 0.930 . S
H259 C268 0.929 . S
H260 C244 0.931 . S
H261 C245 0.930 . S
H262 C300 0.930 . S
H263 C241 0.929 . S
H264 C269 0.931 . S
H265 C270 0.930 . S
N266 Gd246 2.622 . S
N266 C267 1.369 . S
N266 C268 1.338 . S
C267 N266 1.369 . S
C267 C271 1.415 . S
C267 C274 1.422 . S
C268 H259 0.929 . S
C268 N266 1.338 . S
C268 C270 1.378 . S
C269 H264 0.931 . S
C269 C270 1.348 . S
C269 C271 1.413 . S
C270 H265 0.930 . S
C270 C268 1.378 . S
C270 C269 1.348 . S
C271 C267 1.415 . S
C271 C269 1.413 . S
C271 C301 1.437 . S
H272 C301 0.929 . S
N273 Gd246 2.570 . S
N273 C274 1.359 . S
N273 C277 1.343 . S
C274 C267 1.422 . S
C274 N273 1.359 . S
C274 C276 1.421 . S
C275 C276 1.422 . S
C275 C278 1.321 . S
C275 H302 0.931 . S
C276 C274 1.421 . S
C276 C275 1.422 . S
C276 C300 1.417 . S
C277 H254 0.931 . S
C277 N273 1.343 . S
C277 C278 1.390 . S
C278 H256 0.930 . S
C278 C275 1.321 . S
C278 C277 1.390 . S
O279 Gd247 2.386 . S
O279 C291 1.265 . S
O280 Gd246 2.353 1_565 S
O280 C291 1.242 . S
O281 Gd246 2.468 . S
O281 C299 1.263 . S
O282 Gd246 2.427 . S
O282 C299 1.252 . S
O283 Gd247 2.307 1_545 S
O283 C292 1.261 . S
O284 Gd246 2.388 . S
O284 C292 1.252 . S
O285 Gd246 2.386 . S
O285 C303 1.265 . S
O286 Gd247 2.353 1_545 S
O286 C303 1.242 . S
O287 Gd247 2.472 . S
O287 C311 1.266 . S
O288 Gd247 2.427 . S
O288 C311 1.252 . S
O289 Gd246 2.307 . S
O289 C304 1.261 . S
O290 Gd247 2.388 . S
O290 C304 1.252 1_565 S
C291 O279 1.265 . S
C291 O280 1.242 . S
C292 O283 1.261 . S
C292 O284 1.252 . S
C293 C296 1.394 1_556 S
C293 C298 1.370 . S
C293 C299 1.500 . S
C294 C297 1.383 . S
C294 C298 1.395 1_554 S
C295 C296 1.396 . S
C295 C297 1.365 . S
C295 H312 0.929 . S
C296 C293 1.394 1_554 S
C296 C295 1.396 . S
C296 H313 0.930 . S
C297 C294 1.383 . S
C297 C295 1.365 . S
C297 H314 0.931 . S
C298 C293 1.370 . S
C298 C294 1.395 1_556 S
C298 H315 0.930 . S
C299 Gd246 2.805 . S
C299 O281 1.263 . S
C299 O282 1.252 . S
C299 C293 1.500 . S
C300 H262 0.930 . S
C300 C276 1.417 . S
C300 C301 1.329 . S
C301 C271 1.437 . S
C301 H272 0.929 . S
C301 C300 1.329 . S
H302 C275 0.931 . S
C303 O285 1.265 . S
C303 O286 1.242 . S
C304 O289 1.261 . S
C304 O290 1.252 1_545 S
C305 C308 1.392 1_545 S
C305 C310 1.372 . S
C305 C311 1.499 1_545 S
C306 C309 1.383 . S
C306 C310 1.395 . S
C307 C308 1.396 . S
C307 C309 1.365 1_565 S
C307 H316 0.929 . S
C308 C305 1.392 1_565 S
C308 C307 1.396 . S
C308 H317 0.930 . S
C309 C306 1.383 . S
C309 C307 1.365 1_545 S
C309 H318 0.931 . S
C310 C305 1.372 . S
C310 C306 1.395 . S
C310 H319 0.930 . S
C311 Gd247 2.805 . S
C311 O287 1.266 . S
C311 O288 1.252 . S
C311 C305 1.499 1_565 S
H312 C295 0.929 . S
H313 C296 0.930 . S
H314 C297 0.931 . S
H315 C298 0.930 . S
H316 C307 0.929 . S
H317 C308 0.930 . S
H318 C309 0.931 . S
H319 C310 0.930 . S
C320 C322 1.422 . S
C320 C324 1.415 . S
C320 N326 1.369 . S
C321 C322 1.421 1_554 S
C321 C323 1.417 . S
C321 C333 1.422 . S
C322 C320 1.422 . S
C322 C321 1.421 1_556 S
C322 N332 1.359 . S
C323 C321 1.417 . S
C323 C325 1.329 . S
C323 H342 0.930 . S
C324 C320 1.415 . S
C324 C325 1.437 1_556 S
C324 C328 1.413 . S
C325 C323 1.329 . S
C325 C324 1.437 1_554 S
C325 H347 0.929 . S
N326 C320 1.369 . S
N326 C327 1.338 . S
N326 Gd331 2.622 . S
C327 N326 1.338 . S
C327 C329 1.378 . S
C327 H339 0.929 . S
C328 C324 1.413 . S
C328 C329 1.348 . S
C328 H344 0.931 . S
C329 C327 1.378 . S
C329 C328 1.348 . S
C329 H345 0.930 . S
Gd330 N350 2.622 . S
Gd330 N357 2.570 . S
Gd330 O364 2.353 . S
Gd330 O365 2.468 . S
Gd330 O366 2.427 . S
Gd330 O368 2.388 . S
Gd330 O369 2.386 . S
Gd330 O373 2.307 . S
Gd330 C383 2.805 . S
Gd331 N326 2.622 . S
Gd331 N332 2.570 . S
Gd331 O363 2.386 . S
Gd331 O367 2.307 . S
Gd331 O370 2.353 . S
Gd331 O371 2.468 . S
Gd331 O372 2.427 . S
Gd331 O374 2.388 . S
Gd331 C395 2.805 . S
N332 C322 1.359 . S
N332 Gd331 2.570 . S
N332 C334 1.343 . S
C333 C321 1.422 . S
C333 C335 1.321 . S
C333 H341 0.931 . S
C334 N332 1.343 . S
C334 C335 1.390 1_556 S
C334 H336 0.931 . S
C335 C333 1.321 . S
C335 C334 1.390 1_554 S
C335 H337 0.930 . S
H336 C334 0.931 . S
H337 C335 0.930 . S
H338 C361 0.931 . S
H339 C327 0.929 . S
H340 C362 0.930 . S
H341 C333 0.931 . S
H342 C323 0.930 . S
H343 C352 0.929 . S
H344 C328 0.931 . S
H345 C329 0.930 . S
H346 C384 0.930 . S
H347 C325 0.929 . S
H348 C353 0.931 . S
H349 C354 0.930 . S
N350 Gd330 2.622 . S
N350 C351 1.369 . S
N350 C352 1.338 . S
C351 N350 1.369 . S
C351 C355 1.415 . S
C351 C358 1.422 . S
C352 H343 0.929 . S
C352 N350 1.338 . S
C352 C354 1.378 . S
C353 H348 0.931 . S
C353 C354 1.348 . S
C353 C355 1.413 . S
C354 H349 0.930 . S
C354 C352 1.378 . S
C354 C353 1.348 . S
C355 C351 1.415 . S
C355 C353 1.413 . S
C355 C385 1.437 . S
H356 C385 0.929 . S
N357 Gd330 2.570 . S
N357 C358 1.359 . S
N357 C361 1.343 . S
C358 C351 1.422 . S
C358 N357 1.359 . S
C358 C360 1.421 . S
C359 C360 1.422 . S
C359 C362 1.321 . S
C359 H386 0.931 . S
C360 C358 1.421 . S
C360 C359 1.422 . S
C360 C384 1.417 . S
C361 H338 0.931 . S
C361 N357 1.343 . S
C361 C362 1.390 . S
C362 H340 0.930 . S
C362 C359 1.321 . S
C362 C361 1.390 . S
O363 Gd331 2.386 . S
O363 C375 1.265 . S
O364 Gd330 2.353 . S
O364 C375 1.242 . S
O365 Gd330 2.468 . S
O365 C383 1.263 . S
O366 Gd330 2.427 . S
O366 C383 1.252 . S
O367 Gd331 2.307 . S
O367 C376 1.261 . S
O368 Gd330 2.388 . S
O368 C376 1.252 . S
O369 Gd330 2.386 . S
O369 C387 1.265 . S
O370 Gd331 2.353 . S
O370 C387 1.242 . S
O371 Gd331 2.468 . S
O371 C395 1.263 . S
O372 Gd331 2.427 . S
O372 C395 1.252 . S
O373 Gd330 2.307 . S
O373 C388 1.261 . S
O374 Gd331 2.388 . S
O374 C388 1.252 . S
C375 O363 1.265 . S
C375 O364 1.242 . S
C376 O367 1.261 . S
C376 O368 1.252 . S
C377 C380 1.394 . S
C377 C382 1.370 . S
C377 C383 1.500 . S
C378 C381 1.383 . S
C378 C382 1.395 . S
C379 C380 1.396 . S
C379 C381 1.365 . S
C379 H396 0.929 . S
C380 C377 1.394 . S
C380 C379 1.396 . S
C380 H397 0.930 . S
C381 C378 1.383 . S
C381 C379 1.365 . S
C381 H398 0.931 . S
C382 C377 1.370 . S
C382 C378 1.395 . S
C382 H399 0.930 . S
C383 Gd330 2.805 . S
C383 O365 1.263 . S
C383 O366 1.252 . S
C383 C377 1.500 . S
C384 H346 0.930 . S
C384 C360 1.417 . S
C384 C385 1.329 . S
C385 C355 1.437 . S
C385 H356 0.929 . S
C385 C384 1.329 . S
H386 C359 0.931 . S
C387 O369 1.265 . S
C387 O370 1.242 . S
C388 O373 1.261 . S
C388 O374 1.252 . S
C389 C392 1.394 . S
C389 C394 1.370 . S
C389 C395 1.500 . S
C390 C393 1.383 . S
C390 C394 1.395 . S
C391 C392 1.396 . S
C391 C393 1.365 . S
C391 H400 0.929 . S
C392 C389 1.394 . S
C392 C391 1.396 . S
C392 H401 0.930 . S
C393 C390 1.383 . S
C393 C391 1.365 . S
C393 H402 0.931 1_556 S
C394 C389 1.370 . S
C394 C390 1.395 . S
C394 H403 0.930 . S
C395 Gd331 2.805 . S
C395 O371 1.263 . S
C395 O372 1.252 . S
C395 C389 1.500 . S
H396 C379 0.929 . S
H397 C380 0.930 . S
H398 C381 0.931 . S
H399 C382 0.930 . S
H400 C391 0.929 . S
H401 C392 0.930 . S
H402 C393 0.931 1_554 S
H403 C394 0.930 . S
C404 C406 1.422 . S
C404 C408 1.415 . S
C404 N410 1.369 . S
C405 C406 1.421 1_554 S
C405 C407 1.417 . S
C405 C417 1.422 . S
C406 C404 1.422 . S
C406 C405 1.421 1_556 S
C406 N416 1.359 . S
C407 C405 1.417 . S
C407 C409 1.329 . S
C407 H426 0.930 . S
C408 C404 1.415 . S
C408 C409 1.437 1_556 S
C408 C412 1.413 . S
C409 C407 1.329 . S
C409 C408 1.437 1_554 S
C409 H431 0.929 . S
N410 C404 1.369 . S
N410 C411 1.338 1_455 S
N410 Gd415 2.622 1_455 S
C411 N410 1.338 1_655 S
C411 C413 1.378 1_655 S
C411 H423 0.929 . S
C412 C408 1.413 . S
C412 C413 1.348 . S
C412 H428 0.931 . S
C413 C411 1.378 1_455 S
C413 C412 1.348 . S
C413 H429 0.930 . S
Gd414 N434 2.622 . S
Gd414 N441 2.570 . S
Gd414 O448 2.353 . S
Gd414 O449 2.468 . S
Gd414 O450 2.427 . S
Gd414 O452 2.388 . S
Gd414 O453 2.386 1_455 S
Gd414 O457 2.307 . S
Gd414 C467 2.805 . S
Gd415 N410 2.622 1_655 S
Gd415 N416 2.570 1_655 S
Gd415 O447 2.386 1_655 S
Gd415 O451 2.307 1_655 S
Gd415 O454 2.353 . S
Gd415 O455 2.468 . S
Gd415 O456 2.427 . S
Gd415 O458 2.388 . S
Gd415 C479 2.805 . S
N416 C406 1.359 . S
N416 Gd415 2.570 1_455 S
N416 C418 1.343 . S
C417 C405 1.422 . S
C417 C419 1.321 . S
C417 H425 0.931 . S
C418 N416 1.343 . S
C418 C419 1.390 1_556 S
C418 H420 0.931 . S
C419 C417 1.321 . S
C419 C418 1.390 1_554 S
C419 H421 0.930 . S
H420 C418 0.931 . S
H421 C419 0.930 . S
H422 C445 0.931 . S
H423 C411 0.929 . S
H424 C446 0.930 . S
H425 C417 0.931 . S
H426 C407 0.930 . S
H427 C436 0.929 . S
H428 C412 0.931 . S
H429 C413 0.930 . S
H430 C468 0.930 . S
H431 C409 0.929 . S
H432 C437 0.931 . S
H433 C438 0.930 . S
N434 Gd414 2.622 . S
N434 C435 1.369 . S
N434 C436 1.338 . S
C435 N434 1.369 . S
C435 C439 1.415 1_455 S
C435 C442 1.423 1_455 S
C436 H427 0.929 . S
C436 N434 1.338 . S
C436 C438 1.378 . S
C437 H432 0.931 . S
C437 C438 1.348 1_655 S
C437 C439 1.413 . S
C438 H433 0.930 . S
C438 C436 1.378 . S
C438 C437 1.348 1_455 S
C439 C435 1.415 1_655 S
C439 C437 1.413 . S
C439 C469 1.437 . S
H440 C469 0.929 . S
N441 Gd414 2.570 . S
N441 C442 1.360 1_455 S
N441 C445 1.343 . S
C442 C435 1.423 1_655 S
C442 N441 1.360 1_655 S
C442 C444 1.419 . S
C443 C444 1.422 . S
C443 C446 1.321 . S
C443 H470 0.931 . S
C444 C442 1.419 . S
C444 C443 1.422 . S
C444 C468 1.417 . S
C445 H422 0.931 . S
C445 N441 1.343 . S
C445 C446 1.390 1_455 S
C446 H424 0.930 . S
C446 C443 1.321 . S
C446 C445 1.390 1_655 S
O447 Gd415 2.386 1_455 S
O447 C459 1.265 . S
O448 Gd414 2.353 . S
O448 C459 1.242 . S
O449 Gd414 2.468 . S
O449 C467 1.263 . S
O450 Gd414 2.427 . S
O450 C467 1.252 . S
O451 Gd415 2.307 1_455 S
O451 C460 1.261 . S
O452 Gd414 2.388 . S
O452 C460 1.252 . S
O453 Gd414 2.386 1_655 S
O453 C471 1.265 . S
O454 Gd415 2.353 . S
O454 C471 1.242 . S
O455 Gd415 2.468 . S
O455 C479 1.263 . S
O456 Gd415 2.427 . S
O456 C479 1.252 . S
O457 Gd414 2.307 . S
O457 C472 1.261 . S
O458 Gd415 2.388 . S
O458 C472 1.252 1_655 S
C459 O447 1.265 . S
C459 O448 1.242 . S
C460 O451 1.261 . S
C460 O452 1.252 . S
C461 C464 1.394 . S
C461 C466 1.370 . S
C461 C467 1.500 . S
C462 C465 1.383 . S
C462 C466 1.395 . S
C463 C464 1.396 . S
C463 C465 1.365 . S
C463 H480 0.929 . S
C464 C461 1.394 . S
C464 C463 1.396 . S
C464 H481 0.930 . S
C465 C462 1.383 . S
C465 C463 1.365 . S
C465 H482 0.931 . S
C466 C461 1.370 . S
C466 C462 1.395 . S
C466 H483 0.930 . S
C467 Gd414 2.805 . S
C467 O449 1.263 . S
C467 O450 1.252 . S
C467 C461 1.500 . S
C468 H430 0.930 . S
C468 C444 1.417 . S
C468 C469 1.329 . S
C469 C439 1.437 . S
C469 H440 0.929 . S
C469 C468 1.329 . S
H470 C443 0.931 . S
C471 O453 1.265 . S
C471 O454 1.242 . S
C472 O457 1.261 . S
C472 O458 1.252 1_455 S
C473 C476 1.394 . S
C473 C478 1.370 . S
C473 C479 1.500 . S
C474 C477 1.383 . S
C474 C478 1.395 . S
C475 C476 1.396 . S
C475 C477 1.365 . S
C475 H484 0.929 . S
C476 C473 1.394 . S
C476 C475 1.396 . S
C476 H485 0.930 . S
C477 C474 1.383 . S
C477 C475 1.365 . S
C477 H486 0.931 1_556 S
C478 C473 1.370 . S
C478 C474 1.395 . S
C478 H487 0.930 . S
C479 Gd415 2.805 . S
C479 O455 1.263 . S
C479 O456 1.252 . S
C479 C473 1.500 . S
H480 C463 0.929 . S
H481 C464 0.930 . S
H482 C465 0.931 . S
H483 C466 0.930 . S
H484 C475 0.929 . S
H485 C476 0.930 . S
H486 C477 0.931 1_554 S
H487 C478 0.930 . S
H488 C494 0.930 . S
H489 C498 0.930 . S
H490 C503 0.929 . S
H491 C501 0.929 1_565 S
H492 C496 0.929 . S
H493 C502 0.929 1_565 S
C494 H488 0.930 . S
C494 C495 1.367 . S
C494 C502 1.378 . S
C495 C494 1.367 . S
C495 C503 1.433 . S
C496 H492 0.929 . S
C496 C498 1.378 . S
C496 C500 1.350 . S
C497 C500 1.463 . S
C497 C502 1.350 . S
C497 N505 1.427 . S
C498 H489 0.930 . S
C498 C496 1.378 . S
C498 C499 1.367 . S
C499 C498 1.367 . S
C499 C501 1.433 . S
C500 C496 1.350 . S
C500 C497 1.463 . S
C500 N504 1.427 . S
C501 H491 0.929 1_545 S
C501 C499 1.433 . S
C501 N504 1.384 . S
C502 H493 0.929 1_545 S
C502 C494 1.378 . S
C502 C497 1.350 . S
C503 H490 0.929 . S
C503 C495 1.433 . S
C503 N505 1.384 . S
N504 C500 1.427 . S
N504 C501 1.384 . S
N505 C497 1.427 . S
N505 C503 1.384 . S
H506 C512 0.930 . S
H507 C516 0.930 . S
H508 C521 0.929 . S
H509 C519 0.929 . S
H510 C514 0.929 . S
H511 C520 0.929 . S
C512 H506 0.930 . S
C512 C513 1.367 . S
C512 C520 1.378 . S
C513 C512 1.367 . S
C513 C521 1.433 . S
C514 H510 0.929 . S
C514 C516 1.378 . S
C514 C518 1.350 . S
C515 C518 1.463 . S
C515 C520 1.350 . S
C515 N523 1.427 . S
C516 H507 0.930 . S
C516 C514 1.378 . S
C516 C517 1.367 . S
C517 C516 1.367 . S
C517 C519 1.433 . S
C518 C514 1.350 . S
C518 C515 1.463 . S
C518 N522 1.427 . S
C519 H509 0.929 . S
C519 C517 1.433 . S
C519 N522 1.384 . S
C520 H511 0.929 . S
C520 C512 1.378 . S
C520 C515 1.350 . S
C521 H508 0.929 . S
C521 C513 1.433 . S
C521 N523 1.384 . S
N522 C518 1.427 . S
N522 C519 1.384 . S
N523 C515 1.427 . S
N523 C521 1.384 . S
H524 C530 0.930 . S
H525 C534 0.930 . S
H526 C539 0.929 . S
H527 C537 0.929 . S
H528 C532 0.929 . S
H529 C538 0.929 . S
C530 H524 0.930 . S
C530 C531 1.367 . S
C530 C538 1.378 . S
C531 C530 1.367 . S
C531 C539 1.433 . S
C532 H528 0.929 . S
C532 C534 1.378 . S
C532 C536 1.350 . S
C533 C536 1.463 . S
C533 C538 1.350 . S
C533 N541 1.427 . S
C534 H525 0.930 . S
C534 C532 1.378 . S
C534 C535 1.367 . S
C535 C534 1.367 . S
C535 C537 1.433 . S
C536 C532 1.350 . S
C536 C533 1.463 . S
C536 N540 1.427 . S
C537 H527 0.929 . S
C537 C535 1.433 . S
C537 N540 1.384 . S
C538 H529 0.929 . S
C538 C530 1.378 . S
C538 C533 1.350 . S
C539 H526 0.929 . S
C539 C531 1.433 . S
C539 N541 1.384 . S
N540 C536 1.427 . S
N540 C537 1.384 . S
N541 C533 1.427 . S
N541 C539 1.384 . S
H542 C548 0.930 . S
H543 C552 0.930 . S
H544 C557 0.929 . S
H545 C555 0.929 . S
H546 C550 0.929 . S
H547 C556 0.929 . S
C548 H542 0.930 . S
C548 C549 1.367 . S
C548 C556 1.378 . S
C549 C548 1.367 . S
C549 C557 1.433 . S
C550 H546 0.929 . S
C550 C552 1.378 . S
C550 C554 1.350 . S
C551 C554 1.463 . S
C551 C556 1.350 . S
C551 N559 1.427 . S
C552 H543 0.930 . S
C552 C550 1.378 . S
C552 C553 1.367 . S
C553 C552 1.367 . S
C553 C555 1.433 . S
C554 C550 1.350 . S
C554 C551 1.463 . S
C554 N558 1.427 . S
C555 H545 0.929 . S
C555 C553 1.433 . S
C555 N558 1.384 . S
C556 H547 0.929 . S
C556 C548 1.378 . S
C556 C551 1.350 . S
C557 H544 0.929 . S
C557 C549 1.433 . S
C557 N559 1.384 . S
N558 C554 1.427 . S
N558 C555 1.384 . S
N559 C551 1.427 . S
N559 C557 1.384 . S
H560 C566 0.930 . S
H561 C570 0.930 . S
H562 C575 0.929 1_545 S
H563 C573 0.929 . S
H564 C568 0.929 1_554 S
H565 C574 0.929 1_556 S
C566 H560 0.930 . S
C566 C567 1.367 . S
C566 C574 1.378 . S
C567 C566 1.367 . S
C567 C575 1.433 . S
C568 H564 0.929 1_556 S
C568 C570 1.378 . S
C568 C572 1.350 1_545 S
C569 C572 1.463 1_554 S
C569 C574 1.350 . S
C569 N577 1.442 . S
C570 H561 0.930 . S
C570 C568 1.378 . S
C570 C571 1.380 . S
C571 C570 1.380 . S
C571 C573 1.416 1_545 S
C572 C568 1.350 1_565 S
C572 C569 1.463 1_556 S
C572 N576 1.427 . S
C573 H563 0.929 . S
C573 C571 1.416 1_565 S
C573 N576 1.384 . S
C574 H565 0.929 1_554 S
C574 C566 1.378 . S
C574 C569 1.350 . S
C575 H562 0.929 1_565 S
C575 C567 1.433 . S
C575 N577 1.389 . S
N576 C572 1.427 . S
N576 C573 1.384 . S
N577 C569 1.442 . S
N577 C575 1.389 . S
H578 C584 0.930 . S
H579 C588 0.930 . S
H580 C593 0.929 . S
H581 C591 0.929 . S
H582 C586 0.929 1_554 S
H583 C592 0.929 1_556 S
C584 H578 0.930 . S
C584 C585 1.367 . S
C584 C592 1.378 . S
C585 C584 1.367 . S
C585 C593 1.433 . S
C586 H582 0.929 1_556 S
C586 C588 1.378 . S
C586 C590 1.350 . S
C587 C590 1.463 1_554 S
C587 C592 1.350 . S
C587 N595 1.427 . S
C588 H579 0.930 . S
C588 C586 1.378 . S
C588 C589 1.367 . S
C589 C588 1.367 . S
C589 C591 1.433 . S
C590 C586 1.350 . S
C590 C587 1.463 1_556 S
C590 N594 1.427 . S
C591 H581 0.929 . S
C591 C589 1.433 . S
C591 N594 1.384 . S
C592 H583 0.929 1_554 S
C592 C584 1.378 . S
C592 C587 1.350 . S
C593 H580 0.929 . S
C593 C585 1.433 . S
C593 N595 1.384 . S
N594 C590 1.427 . S
N594 C591 1.384 . S
N595 C587 1.427 . S
N595 C593 1.384 . S
H596 C602 0.930 . S
H597 C606 0.930 . S
H598 C611 0.929 . S
H599 C609 0.929 . S
H600 C604 0.929 . S
H601 C610 0.929 . S
C602 H596 0.930 . S
C602 C603 1.367 . S
C602 C610 1.378 . S
C603 C602 1.367 . S
C603 C611 1.433 . S
C604 H600 0.929 . S
C604 C606 1.378 . S
C604 C608 1.350 . S
C605 C608 1.463 1_554 S
C605 C610 1.350 . S
C605 N613 1.427 . S
C606 H597 0.930 . S
C606 C604 1.378 . S
C606 C607 1.367 . S
C607 C606 1.367 . S
C607 C609 1.433 . S
C608 C604 1.350 . S
C608 C605 1.463 1_556 S
C608 N612 1.427 . S
C609 H599 0.929 . S
C609 C607 1.433 . S
C609 N612 1.384 . S
C610 H601 0.929 . S
C610 C602 1.378 . S
C610 C605 1.350 . S
C611 H598 0.929 . S
C611 C603 1.433 . S
C611 N613 1.384 . S
N612 C608 1.427 . S
N612 C609 1.384 . S
N613 C605 1.427 . S
N613 C611 1.384 . S
H614 C620 0.930 . S
H615 C624 0.930 . S
H616 C629 0.929 . S
H617 C627 0.929 . S
H618 C622 0.930 . S
H619 C628 0.929 . S
C620 H614 0.930 . S
C620 C621 1.367 . S
C620 C628 1.378 . S
C621 C620 1.367 . S
C621 C629 1.433 . S
C622 H618 0.930 . S
C622 C624 1.378 1_655 S
C622 C626 1.350 . S
C623 C626 1.463 1_554 S
C623 C628 1.350 . S
C623 N631 1.427 . S
C624 H615 0.930 . S
C624 C622 1.378 1_455 S
C624 C625 1.367 1_455 S
C625 C624 1.367 1_655 S
C625 C627 1.433 . S
C626 C622 1.350 . S
C626 C623 1.463 1_556 S
C626 N630 1.427 . S
C627 H617 0.929 . S
C627 C625 1.433 . S
C627 N630 1.384 . S
C628 H619 0.929 . S
C628 C620 1.378 . S
C628 C623 1.350 . S
C629 H616 0.929 . S
C629 C621 1.433 . S
C629 N631 1.384 . S
N630 C626 1.427 . S
N630 C627 1.384 . S
N631 C623 1.427 . S
N631 C629 1.384 . S
H632 C638 0.930 . S
H633 C642 0.930 . S
H634 C647 0.929 . S
H635 C645 0.929 . S
H636 C640 0.929 . S
H637 C646 0.929 . S
C638 H632 0.930 . S
C638 C639 1.367 . S
C638 C646 1.378 . S
C639 C638 1.367 . S
C639 C647 1.433 . S
C640 H636 0.929 . S
C640 C642 1.378 . S
C640 C644 1.350 1_655 S
C641 C644 1.463 . S
C641 C646 1.350 . S
C641 N649 1.427 . S
C642 H633 0.930 . S
C642 C640 1.378 . S
C642 C643 1.367 1_655 S
C643 C642 1.367 1_455 S
C643 C645 1.433 . S
C644 C640 1.350 1_455 S
C644 C641 1.463 . S
C644 N648 1.427 . S
C645 H635 0.929 . S
C645 C643 1.433 . S
C645 N648 1.384 . S
C646 H637 0.929 . S
C646 C638 1.378 . S
C646 C641 1.350 . S
C647 H634 0.929 . S
C647 C639 1.433 . S
C647 N649 1.384 . S
N648 C644 1.427 . S
N648 C645 1.384 . S
N649 C641 1.427 . S
N649 C647 1.384 . S
H650 C656 0.930 . S
H651 C660 0.930 . S
H652 C665 0.929 . S
H653 C663 0.929 . S
H654 C658 0.929 . S
H655 C664 0.929 . S
C656 H650 0.930 . S
C656 C657 1.367 . S
C656 C664 1.378 . S
C657 C656 1.367 . S
C657 C665 1.433 . S
C658 H654 0.929 . S
C658 C660 1.378 . S
C658 C662 1.350 . S
C659 C662 1.463 . S
C659 C664 1.350 . S
C659 N667 1.427 . S
C660 H651 0.930 . S
C660 C658 1.378 . S
C660 C661 1.367 . S
C661 C660 1.367 . S
C661 C663 1.433 . S
C662 C658 1.350 . S
C662 C659 1.463 . S
C662 N666 1.427 . S
C663 H653 0.929 . S
C663 C661 1.433 . S
C663 N666 1.384 . S
C664 H655 0.929 . S
C664 C656 1.378 . S
C664 C659 1.350 . S
C665 H652 0.929 . S
C665 C657 1.433 . S
C665 N667 1.384 . S
N666 C662 1.427 . S
N666 C663 1.384 . S
N667 C659 1.427 . S
N667 C665 1.384 . S
H668 C674 0.930 . S
H669 C678 0.930 . S
H670 C683 0.929 . S
H671 C681 0.929 . S
H672 C676 0.929 . S
H673 C682 0.929 . S
C674 H668 0.930 . S
C674 C675 1.367 . S
C674 C682 1.378 . S
C675 C674 1.367 . S
C675 C683 1.433 . S
C676 H672 0.929 . S
C676 C678 1.378 . S
C676 C680 1.350 . S
C677 C680 1.463 . S
C677 C682 1.350 . S
C677 N685 1.427 . S
C678 H669 0.930 . S
C678 C676 1.378 . S
C678 C679 1.367 . S
C679 C678 1.367 . S
C679 C681 1.433 . S
C680 C676 1.350 . S
C680 C677 1.463 . S
C680 N684 1.427 . S
C681 H671 0.929 . S
C681 C679 1.433 . S
C681 N684 1.384 . S
C682 H673 0.929 . S
C682 C674 1.378 . S
C682 C677 1.350 . S
C683 H670 0.929 . S
C683 C675 1.433 . S
C683 N685 1.384 . S
N684 C680 1.427 . S
N684 C681 1.384 . S
N685 C677 1.427 . S
N685 C683 1.384 . S
H686 C692 0.930 . S
H687 C696 0.930 . S
H688 C701 0.929 . S
H689 C699 0.929 . S
H690 C694 0.929 . S
H691 C700 0.929 . S
C692 H686 0.930 . S
C692 C693 1.367 . S
C692 C700 1.378 . S
C693 C692 1.367 . S
C693 C701 1.433 . S
C694 H690 0.929 . S
C694 C696 1.378 . S
C694 C698 1.350 . S
C695 C698 1.463 . S
C695 C700 1.350 . S
C695 N703 1.427 . S
C696 H687 0.930 . S
C696 C694 1.378 . S
C696 C697 1.367 . S
C697 C696 1.367 . S
C697 C699 1.433 . S
C698 C694 1.350 . S
C698 C695 1.463 . S
C698 N702 1.427 . S
C699 H689 0.929 . S
C699 C697 1.433 . S
C699 N702 1.384 . S
C700 H691 0.929 . S
C700 C692 1.378 . S
C700 C695 1.350 . S
C701 H688 0.929 . S
C701 C693 1.433 . S
C701 N703 1.384 . S
N702 C698 1.427 . S
N702 C699 1.384 . S
N703 C695 1.427 . S
N703 C701 1.384 . S
H704 C710 0.930 . S
H705 C714 0.930 . S
H706 C719 0.929 1_455 S
H707 C717 0.929 . S
H708 C712 0.929 . S
H709 C718 0.929 . S
C710 H704 0.930 . S
C710 C711 1.367 . S
C710 C718 1.378 . S
C711 C710 1.367 . S
C711 C719 1.433 . S
C712 H708 0.929 . S
C712 C714 1.378 1_554 S
C712 C716 1.350 1_455 S
C713 C716 1.463 . S
C713 C718 1.350 . S
C713 N721 1.427 1_655 S
C714 H705 0.930 . S
C714 C712 1.378 1_556 S
C714 C715 1.367 . S
C715 C714 1.367 . S
C715 C717 1.433 1_456 S
C716 C712 1.350 1_655 S
C716 C713 1.463 . S
C716 N720 1.427 . S
C717 H707 0.929 . S
C717 C715 1.433 1_654 S
C717 N720 1.384 . S
C718 H709 0.929 . S
C718 C710 1.378 . S
C718 C713 1.350 . S
C719 H706 0.929 1_655 S
C719 C711 1.433 . S
C719 N721 1.384 1_655 S
N720 C716 1.427 . S
N720 C717 1.384 . S
N721 C713 1.427 1_455 S
N721 C719 1.384 1_455 S
H722 C728 0.930 . S
H723 C732 0.930 . S
H724 C737 0.929 . S
H725 C735 0.929 . S
H726 C730 0.929 1_556 S
H727 C736 0.929 . S
C728 H722 0.930 . S
C728 C729 1.367 . S
C728 C736 1.378 . S
C729 C728 1.367 . S
C729 C737 1.433 . S
C730 H726 0.929 1_554 S
C730 C732 1.378 1_564 S
C730 C734 1.350 . S
C731 C734 1.463 . S
C731 C736 1.350 . S
C731 N739 1.427 . S
C732 H723 0.930 . S
C732 C730 1.378 1_546 S
C732 C733 1.367 1_556 S
C733 C732 1.367 1_554 S
C733 C735 1.433 . S
C734 C730 1.350 . S
C734 C731 1.463 . S
C734 N738 1.427 1_565 S
C735 H725 0.929 . S
C735 C733 1.433 . S
C735 N738 1.384 . S
C736 H727 0.929 . S
C736 C728 1.378 . S
C736 C731 1.350 . S
C737 H724 0.929 . S
C737 C729 1.433 . S
C737 N739 1.384 . S
N738 C734 1.427 1_545 S
N738 C735 1.384 . S
N739 C731 1.427 . S
N739 C737 1.384 . S
H740 C746 0.930 . S
H741 C750 0.930 1_556 S
H742 C755 0.929 . S
H743 C753 0.929 . S
H744 C748 0.929 . S
H745 C754 0.929 . S
C746 H740 0.930 . S
C746 C747 1.367 . S
C746 C754 1.378 . S
C747 C746 1.367 . S
C747 C755 1.433 . S
C748 H744 0.929 . S
C748 C750 1.378 . S
C748 C752 1.350 . S
C749 C752 1.463 . S
C749 C754 1.350 . S
C749 N757 1.427 . S
C750 H741 0.930 1_554 S
C750 C748 1.378 . S
C750 C751 1.367 . S
C751 C750 1.367 . S
C751 C753 1.438 . S
C752 C748 1.350 . S
C752 C749 1.463 . S
C752 N756 1.427 . S
C753 H743 0.929 . S
C753 C751 1.438 . S
C753 N756 1.384 . S
C754 H745 0.929 . S
C754 C746 1.378 . S
C754 C749 1.350 . S
C755 H742 0.929 . S
C755 C747 1.433 . S
C755 N757 1.384 . S
N756 C752 1.427 . S
N756 C753 1.384 . S
N757 C749 1.427 . S
N757 C755 1.384 . S
H758 C764 0.930 . S
H759 C768 0.930 . S
H760 C773 0.929 . S
H761 C771 0.929 1_556 S
H762 C766 0.929 . S
H763 C772 0.929 . S
C764 H758 0.930 . S
C764 C765 1.367 . S
C764 C772 1.378 . S
C765 C764 1.367 . S
C765 C773 1.433 . S
C766 H762 0.929 . S
C766 C768 1.378 . S
C766 C770 1.350 . S
C767 C770 1.463 . S
C767 C772 1.350 . S
C767 N775 1.427 . S
C768 H759 0.930 . S
C768 C766 1.378 . S
C768 C769 1.363 1_554 S
C769 C768 1.363 1_556 S
C769 C771 1.433 1_556 S
C770 C766 1.350 . S
C770 C767 1.463 . S
C770 N774 1.427 . S
C771 H761 0.929 1_554 S
C771 C769 1.433 1_554 S
C771 N774 1.384 . S
C772 H763 0.929 . S
C772 C764 1.378 . S
C772 C767 1.350 . S
C773 H760 0.929 . S
C773 C765 1.433 . S
C773 N775 1.384 . S
N774 C770 1.427 . S
N774 C771 1.384 . S
N775 C767 1.427 . S
N775 C773 1.384 . S
H776 C782 0.930 . S
H777 C786 0.930 . S
H778 C791 0.929 . S
H779 C789 0.929 1_655 S
H780 C784 0.929 . S
H781 C790 0.941 . S
C782 H776 0.930 . S
C782 C783 1.367 . S
C782 C790 1.378 . S
C783 C782 1.367 . S
C783 C791 1.433 . S
C784 H780 0.929 . S
C784 C786 1.378 . S
C784 C788 1.350 . S
C785 C788 1.463 . S
C785 C790 1.350 . S
C785 N793 1.427 . S
C786 H777 0.930 . S
C786 C784 1.378 . S
C786 C787 1.367 . S
C787 C786 1.367 . S
C787 C789 1.433 . S
C788 C784 1.350 . S
C788 C785 1.463 . S
C788 N792 1.427 . S
C789 H779 0.929 1_455 S
C789 C787 1.433 . S
C789 N792 1.384 . S
C790 H781 0.941 . S
C790 C782 1.378 . S
C790 C785 1.350 . S
C791 H778 0.929 . S
C791 C783 1.433 . S
C791 N793 1.384 . S
N792 C788 1.427 . S
N792 C789 1.384 . S
N793 C785 1.427 . S
N793 C791 1.384 . S
H794 C800 0.930 . S
H795 C804 0.930 . S
H796 C809 0.929 . S
H797 C807 0.929 1_565 S
H798 C802 0.929 . S
H799 C808 0.929 . S
C800 H794 0.930 . S
C800 C801 1.367 . S
C800 C808 1.378 . S
C801 C800 1.367 . S
C801 C809 1.433 . S
C802 H798 0.929 . S
C802 C804 1.378 . S
C802 C806 1.350 . S
C803 C806 1.463 . S
C803 C808 1.350 . S
C803 N811 1.427 . S
C804 H795 0.930 . S
C804 C802 1.378 . S
C804 C805 1.367 . S
C805 C804 1.367 . S
C805 C807 1.433 . S
C806 C802 1.350 . S
C806 C803 1.463 . S
C806 N810 1.427 . S
C807 H797 0.929 1_545 S
C807 C805 1.433 . S
C807 N810 1.384 . S
C808 H799 0.929 . S
C808 C800 1.378 . S
C808 C803 1.350 . S
C809 H796 0.929 . S
C809 C801 1.433 . S
C809 N811 1.384 . S
N810 C806 1.427 . S
N810 C807 1.384 . S
N811 C803 1.427 . S
N811 C809 1.384 . S
H812 C818 0.930 . S
H813 C822 0.930 . S
H814 C827 0.929 . S
H815 C825 0.929 . S
H816 C820 0.929 . S
H817 C826 0.929 . S
C818 H812 0.930 . S
C818 C819 1.367 . S
C818 C826 1.378 . S
C819 C818 1.367 . S
C819 C827 1.433 . S
C820 H816 0.929 . S
C820 C822 1.378 . S
C820 C824 1.350 . S
C821 C824 1.463 . S
C821 C826 1.350 . S
C821 N829 1.427 . S
C822 H813 0.930 . S
C822 C820 1.378 . S
C822 C823 1.367 . S
C823 C822 1.367 . S
C823 C825 1.433 . S
C824 C820 1.350 . S
C824 C821 1.463 . S
C824 N828 1.427 . S
C825 H815 0.929 . S
C825 C823 1.433 . S
C825 N828 1.384 . S
C826 H817 0.929 . S
C826 C818 1.378 . S
C826 C821 1.350 . S
C827 H814 0.929 . S
C827 C819 1.433 . S
C827 N829 1.384 . S
N828 C824 1.427 . S
N828 C825 1.384 . S
N829 C821 1.427 . S
N829 C827 1.384 . S
H830 C836 0.930 . S
H831 C840 0.930 . S
H832 C845 0.929 . S
H833 C843 0.929 . S
H834 C838 0.929 . S
H835 C844 0.929 . S
C836 H830 0.930 . S
C836 C837 1.367 . S
C836 C844 1.378 . S
C837 C836 1.367 . S
C837 C845 1.433 . S
C838 H834 0.929 . S
C838 C840 1.378 . S
C838 C842 1.350 . S
C839 C842 1.463 . S
C839 C844 1.350 . S
C839 N847 1.427 . S
C840 H831 0.930 . S
C840 C838 1.378 . S
C840 C841 1.367 . S
C841 C840 1.367 . S
C841 C843 1.433 . S
C842 C838 1.350 . S
C842 C839 1.463 . S
C842 N846 1.427 . S
C843 H833 0.929 . S
C843 C841 1.433 . S
C843 N846 1.384 . S
C844 H835 0.929 . S
C844 C836 1.378 . S
C844 C839 1.350 . S
C845 H832 0.929 . S
C845 C837 1.433 . S
C845 N847 1.384 . S
N846 C842 1.427 . S
N846 C843 1.384 . S
N847 C839 1.427 . S
N847 C845 1.384 . S
H848 C854 0.930 1_455 S
H849 C858 0.930 . S
H850 C863 0.929 . S
H851 C861 0.929 . S
H852 C856 0.929 . S
H853 C862 0.915 1_455 S
C854 H848 0.930 1_655 S
C854 C855 1.367 . S
C854 C862 1.380 . S
C855 C854 1.367 . S
C855 C863 1.433 . S
C856 H852 0.929 . S
C856 C858 1.378 . S
C856 C860 1.350 . S
C857 C860 1.463 . S
C857 C862 1.361 . S
C857 N865 1.427 . S
C858 H849 0.930 . S
C858 C856 1.378 . S
C858 C859 1.367 . S
C859 C858 1.367 . S
C859 C861 1.433 1_655 S
C860 C856 1.350 . S
C860 C857 1.463 . S
C860 N864 1.427 1_655 S
C861 H851 0.929 . S
C861 C859 1.433 1_455 S
C861 N864 1.384 . S
C862 H853 0.915 1_655 S
C862 C854 1.380 . S
C862 C857 1.361 . S
C863 H850 0.929 . S
C863 C855 1.433 . S
C863 N865 1.384 . S
N864 C860 1.427 1_455 S
N864 C861 1.384 . S
N865 C857 1.427 . S
N865 C863 1.384 . S
H866 C872 0.930 . S
H867 C876 0.930 . S
H868 C881 0.929 . S
H869 C879 0.929 . S
H870 C874 0.929 . S
H871 C880 0.929 . S
C872 H866 0.930 . S
C872 C873 1.367 . S
C872 C880 1.378 . S
C873 C872 1.367 . S
C873 C881 1.433 1_565 S
C874 H870 0.929 . S
C874 C876 1.378 . S
C874 C878 1.350 1_545 S
C875 C878 1.463 . S
C875 C880 1.350 . S
C875 N883 1.427 1_565 S
C876 H867 0.930 . S
C876 C874 1.378 . S
C876 C877 1.367 1_545 S
C877 C876 1.367 1_565 S
C877 C879 1.433 . S
C878 C874 1.350 1_565 S
C878 C875 1.463 . S
C878 N882 1.427 . S
C879 H869 0.929 . S
C879 C877 1.433 . S
C879 N882 1.384 . S
C880 H871 0.929 . S
C880 C872 1.378 . S
C880 C875 1.350 . S
C881 H868 0.929 . S
C881 C873 1.433 1_545 S
C881 N883 1.384 . S
N882 C878 1.427 . S
N882 C879 1.384 . S
N883 C875 1.427 1_545 S
N883 C881 1.384 . S
H884 C890 0.930 . S
H885 C894 0.930 . S
H886 C899 0.929 . S
H887 C897 0.929 . S
H888 C892 0.929 . S
H889 C898 0.929 . S
C890 H884 0.930 . S
C890 C891 1.367 . S
C890 C898 1.378 . S
C891 C890 1.367 . S
C891 C899 1.433 . S
C892 H888 0.929 . S
C892 C894 1.378 . S
C892 C896 1.350 . S
C893 C896 1.463 . S
C893 C898 1.350 . S
C893 N901 1.427 . S
C894 H885 0.930 . S
C894 C892 1.378 . S
C894 C895 1.367 . S
C895 C894 1.367 . S
C895 C897 1.433 . S
C896 C892 1.350 . S
C896 C893 1.463 . S
C896 N900 1.427 . S
C897 H887 0.929 . S
C897 C895 1.433 . S
C897 N900 1.384 . S
C898 H889 0.929 . S
C898 C890 1.378 . S
C898 C893 1.350 . S
C899 H886 0.929 . S
C899 C891 1.433 . S
C899 N901 1.384 . S
N900 C896 1.427 . S
N900 C897 1.384 . S
N901 C893 1.427 . S
N901 C899 1.384 . S
H902 C908 0.930 . S
H903 C912 0.930 . S
H904 C917 0.929 . S
H905 C915 0.929 . S
H906 C910 0.929 . S
H907 C916 0.929 . S
C908 H902 0.930 . S
C908 C909 1.367 . S
C908 C916 1.378 . S
C909 C908 1.367 . S
C909 C917 1.433 . S
C910 H906 0.929 . S
C910 C912 1.378 . S
C910 C914 1.350 . S
C911 C914 1.463 . S
C911 C916 1.350 . S
C911 N919 1.427 . S
C912 H903 0.930 . S
C912 C910 1.378 . S
C912 C913 1.367 . S
C913 C912 1.367 . S
C913 C915 1.433 . S
C914 C910 1.350 . S
C914 C911 1.463 . S
C914 N918 1.427 . S
C915 H905 0.929 . S
C915 C913 1.433 . S
C915 N918 1.384 . S
C916 H907 0.929 . S
C916 C908 1.378 . S
C916 C911 1.350 . S
C917 H904 0.929 . S
C917 C909 1.433 . S
C917 N919 1.384 . S
N918 C914 1.427 . S
N918 C915 1.384 . S
N919 C911 1.427 . S
N919 C917 1.384 . S
C495 C125 1.951 . S
C499 C220 2.023 . S
C517 C303 2.037 . S
C513 C144 1.958 . S
C535 C388 2.015 . S
C531 C87 1.949 . S
C553 C472 2.002 . S
C549 C106 1.941 . S
C571 C208 2.028 . S
C567 C49 2.018 . S
C585 C68 2.025 . S
C589 C291 2.036 . S
C603 C11 2.008 . S
C607 C376 2.010 . S
C621 C30 1.998 . S
C625 C460 2.004 1_655 S
C643 C210 0.657 1_455 S
C639 C97 0.666 . S
C661 C306 0.635 . S
C657 C116 0.656 . S
C679 C378 0.697 . S
C675 C135 0.668 . S
C693 C78 0.636 . S
C697 C462 0.649 . S
C711 C21 0.659 . S
C715 C222 0.658 . S
C733 C294 0.674 . S
C729 C40 0.627 . S
C751 C390 0.690 1_554 S
C747 C59 0.658 . S
C765 C2 0.646 . S
C769 C474 0.688 . S
C783 C101 1.951 . S
C787 C207 2.113 . S
C801 C120 1.940 . S
C805 C292 2.134 . S
C823 C375 2.130 . S
C819 C139 1.956 . S
C841 C459 2.139 . S
C837 C82 1.976 . S
C855 C25 1.955 . S
C859 C219 2.114 . S
C877 C304 2.132 1_565 S
C873 C44 1.953 . S
C895 C387 2.130 . S
C891 C63 1.960 . S
C909 C6 1.980 . S
C913 C471 2.139 . S
