# Generated by pormake.
# Topology nom, (4,4)-cn, num edge types: 1
# Building blocks:
#     Node 0, Type 0, BuildingBlock: KUFVIS_clean_linker_0, # of connection points: 4
#     Node 1, Type 0, BuildingBlock: KUFVIS_clean_linker_0, # of connection points: 4
#     Node 2, Type 0, BuildingBlock: KUFVIS_clean_linker_0, # of connection points: 4
#     Node 3, Type 0, BuildingBlock: KUFVIS_clean_linker_0, # of connection points: 4
#     Node 4, Type 0, BuildingBlock: KUFVIS_clean_linker_0, # of connection points: 4
#     Node 5, Type 0, BuildingBlock: KUFVIS_clean_linker_0, # of connection points: 4
#     Node 6, Type 1, BuildingBlock: QUQFOY_clean_sbu_1, # of connection points: 4
#     Node 7, Type 1, BuildingBlock: QUQFOY_clean_sbu_1, # of connection points: 4
#     Node 8, Type 1, BuildingBlock: QUQFOY_clean_sbu_1, # of connection points: 4
#     Node 9, Type 1, BuildingBlock: QUQFOY_clean_sbu_1, # of connection points: 4
#     Node 10, Type 1, BuildingBlock: QUQFOY_clean_sbu_1, # of connection points: 4
#     Node 11, Type 1, BuildingBlock: QUQFOY_clean_sbu_1, # of connection points: 4
#     Edge 12, Type (0, 1), BuildingBlock: EZIPEK_clean_linker_0, # of connection points: 2
#     Edge 13, Type (0, 1), BuildingBlock: EZIPEK_clean_linker_0, # of connection points: 2
#     Edge 14, Type (0, 1), BuildingBlock: EZIPEK_clean_linker_0, # of connection points: 2
#     Edge 15, Type (0, 1), BuildingBlock: EZIPEK_clean_linker_0, # of connection points: 2
#     Edge 16, Type (0, 1), BuildingBlock: EZIPEK_clean_linker_0, # of connection points: 2
#     Edge 17, Type (0, 1), BuildingBlock: EZIPEK_clean_linker_0, # of connection points: 2
#     Edge 18, Type (0, 1), BuildingBlock: EZIPEK_clean_linker_0, # of connection points: 2
#     Edge 19, Type (0, 1), BuildingBlock: EZIPEK_clean_linker_0, # of connection points: 2
#     Edge 20, Type (0, 1), BuildingBlock: EZIPEK_clean_linker_0, # of connection points: 2
#     Edge 21, Type (0, 1), BuildingBlock: EZIPEK_clean_linker_0, # of connection points: 2
#     Edge 22, Type (0, 1), BuildingBlock: EZIPEK_clean_linker_0, # of connection points: 2
#     Edge 23, Type (0, 1), BuildingBlock: EZIPEK_clean_linker_0, # of connection points: 2
#     Edge 24, Type (0, 1), BuildingBlock: EZIPEK_clean_linker_0, # of connection points: 2
#     Edge 25, Type (0, 1), BuildingBlock: EZIPEK_clean_linker_0, # of connection points: 2
#     Edge 26, Type (0, 1), BuildingBlock: EZIPEK_clean_linker_0, # of connection points: 2
#     Edge 27, Type (0, 1), BuildingBlock: EZIPEK_clean_linker_0, # of connection points: 2
#     Edge 28, Type (0, 1), BuildingBlock: EZIPEK_clean_linker_0, # of connection points: 2
#     Edge 29, Type (0, 1), BuildingBlock: EZIPEK_clean_linker_0, # of connection points: 2
#     Edge 30, Type (0, 1), BuildingBlock: EZIPEK_clean_linker_0, # of connection points: 2
#     Edge 31, Type (0, 1), BuildingBlock: EZIPEK_clean_linker_0, # of connection points: 2
#     Edge 32, Type (0, 1), BuildingBlock: EZIPEK_clean_linker_0, # of connection points: 2
#     Edge 33, Type (0, 1), BuildingBlock: EZIPEK_clean_linker_0, # of connection points: 2
#     Edge 34, Type (0, 1), BuildingBlock: EZIPEK_clean_linker_0, # of connection points: 2
#     Edge 35, Type (0, 1), BuildingBlock: EZIPEK_clean_linker_0, # of connection points: 2
# Relax obj value: 0.004
# Max RMSD: 0.084
# Mean RMSD: 0.069
data_MOF--net-nom--node1-QUQFOY_clean_sbu_1--node2-KUFVIS_clean_linker_0--edge1-EZIPEK_clean_linker_0
_symmetry_space_group_name_H-M    P1
_symmetry_Int_Tables_number       1
_symmetry_cell_setting            triclinic
loop_
_symmetry_equiv_pos_as_xyz
'x, y, z'
_cell_length_a     34.679688
_cell_length_b     34.967611
_cell_length_c     34.362234
_cell_angle_alpha  90.152789
_cell_angle_beta   89.719861
_cell_angle_gamma 119.74466
loop_
_atom_site_label
_atom_site_type_symbol
_atom_site_fract_x
_atom_site_fract_y
_atom_site_fract_z
_atom_type_partial_charge
H0 H 0.2059 0.64892 0.31138 0.0
H1 H 0.0994 0.61279 0.23082 0.0
H2 H 0.07172 0.57206 0.35152 0.0
H3 H 1.00872 0.57634 0.33669 0.0
H4 H 0.90416 0.49608 0.2573 0.0
H5 H 1.0391 0.54155 0.22411 0.0
C6 C 0.17058 0.63124 0.30511 0.0
C7 C 0.14034 0.61077 0.33534 0.0
C8 C 0.1561 0.63251 0.26767 0.0
C9 C 0.11035 0.61067 0.2598 0.0
C10 C 0.07907 0.58755 0.28978 0.0
C11 C 0.09468 0.58851 0.32777 0.0
C12 C 1.03046 0.56241 0.28146 0.0
C13 C 0.9985 0.55933 0.30906 0.0
C14 C 0.95289 0.53478 0.3005 0.0
C15 C 0.93926 0.51426 0.26433 0.0
C16 C 0.97032 0.5173 0.23689 0.0
C17 C 1.01564 0.54059 0.24556 0.0
H18 H 0.58149 0.18852 0.47527 0.0
H19 H 0.50739 0.07806 0.3998 0.0
H20 H 0.54355 0.0585 0.51534 0.0
H21 H 0.46574 0.99928 0.50813 0.0
H22 H 0.42957 0.88738 0.43451 0.0
H23 H 0.52397 1.01643 0.39338 0.0
C24 C 0.56571 0.15334 0.46983 0.0
C25 C 0.56461 0.12539 0.4992 0.0
C26 C 0.54598 0.13667 0.43385 0.0
C27 C 0.52411 0.09103 0.42725 0.0
C28 C 0.52262 0.0623 0.45685 0.0
C29 C 0.54391 0.07998 0.49248 0.0
C30 C 0.49777 1.01388 0.45127 0.0
C31 C 0.46959 0.9858 0.4809 0.0
C32 C 0.44545 0.94012 0.47487 0.0
C33 C 0.44891 0.92267 0.43936 0.0
C34 C 0.47699 0.94991 0.41004 0.0
C35 C 0.50182 0.99548 0.41611 0.0
H36 H 0.59611 0.43373 0.60198 0.0
H37 H 0.51568 0.46753 0.67292 0.0
H38 H 0.54701 0.51404 0.5539 0.0
H39 H 0.4804 0.51213 0.56048 0.0
H40 H 0.44376 0.58763 0.63477 0.0
H41 H 0.52157 0.53474 0.68124 0.0
C42 C 0.57856 0.45198 0.60588 0.0
C43 C 0.57321 0.47362 0.57416 0.0
C44 C 0.55738 0.44914 0.64116 0.0
C45 C 0.53324 0.47135 0.64579 0.0
C46 C 0.5302 0.49642 0.61475 0.0
C47 C 0.54992 0.49659 0.57868 0.0
C48 C 0.50601 0.5216 0.61972 0.0
C49 C 0.48289 0.52752 0.58843 0.0
C50 C 0.46085 0.55178 0.5939 0.0
C51 C 0.46195 0.57011 0.63021 0.0
C52 C 0.4823 0.56253 0.66173 0.0
C53 C 0.50512 0.53928 0.65644 0.0
H54 H 0.20003 0.55567 0.76795 0.0
H55 H 0.08542 0.47861 0.83921 0.0
H56 H 0.07167 0.52559 0.7265 0.0
H57 H 1.00737 0.45279 0.7286 0.0
H58 H 0.89502 0.41967 0.80239 0.0
H59 H 1.02587 0.49092 0.85002 0.0
C60 C 0.16437 0.54001 0.77237 0.0
C61 C 0.13782 0.54246 0.74328 0.0
C62 C 0.14582 0.51818 0.80725 0.0
C63 C 0.0996 0.49683 0.81259 0.0
C64 C 0.07211 0.49877 0.78322 0.0
C65 C 0.09185 0.52256 0.74894 0.0
C66 C 1.02307 0.47671 0.78823 0.0
C67 C 0.99422 0.45525 0.75659 0.0
C68 C 0.94801 0.43475 0.76183 0.0
C69 C 0.93077 0.43649 0.79809 0.0
C70 C 0.95861 0.45524 0.82993 0.0
C71 C 1.00469 0.47594 0.82503 0.0
H72 H 0.49835 0.87958 -0.02787 0.0
H73 H 0.57033 0.98846 0.89457 0.0
H74 H 0.55536 1.01099 0.01632 0.0
H75 H 0.62544 0.07015 0.00331 0.0
H76 H 0.65965 0.1811 0.92949 0.0
H77 H 0.56184 0.05226 0.89129 0.0
C78 C 0.51578 0.91485 -0.03319 0.0
C79 C 0.52523 0.94362 -0.002 0.0
C80 C 0.53238 0.93068 0.92974 0.0
C81 C 0.55638 0.97639 0.92317 0.0
C82 C 0.56433 1.00617 0.95424 0.0
C83 C 0.54878 0.98915 -0.00824 0.0
C84 C 0.59019 0.05476 0.94804 0.0
C85 C 0.62019 0.0832 -0.02345 0.0
C86 C 0.64448 0.12885 -0.02994 0.0
C87 C 0.6399 0.14595 0.93491 0.0
C88 C 0.6107 0.1185 0.90644 0.0
C89 C 0.58511 0.07311 0.91331 0.0
H90 H 0.53634 0.666 0.094 0.0
H91 H 0.61262 0.63035 0.16808 0.0
H92 H 0.57191 0.57114 0.05414 0.0
H93 H 0.65017 0.58422 0.06181 0.0
H94 H 0.67902 0.50653 0.14038 0.0
H95 H 0.58954 0.5513 0.17614 0.0
C96 C 0.55289 0.64701 0.09897 0.0
C97 C 0.55213 0.61854 0.07008 0.0
C98 C 0.57382 0.65077 0.13443 0.0
C99 C 0.59566 0.62667 0.14074 0.0
C100 C 0.59567 0.59806 0.11157 0.0
C101 C 0.57332 0.59384 0.07638 0.0
C102 C 0.61771 0.57163 0.11841 0.0
C103 C 0.6451 0.56798 0.0897 0.0
C104 C 0.66679 0.54395 0.09767 0.0
C105 C 0.66157 0.52437 0.13403 0.0
C106 C 0.63392 0.52694 0.16222 0.0
C107 C 0.61146 0.54996 0.15424 0.0
O108 O 0.60843 0.40652 0.40987 0.0
Cd109 Cd 0.61894 0.37721 0.36276 0.0
Cd110 Cd 0.70601 0.45423 0.37135 0.0
O111 O 0.67826 0.45398 0.42475 0.0
O112 O 0.56558 0.31721 0.36039 0.0
O113 O 0.63337 0.32893 0.37162 0.0
C114 C 0.59125 0.30165 0.36891 0.0
C115 C 0.78281 0.48259 0.36549 0.0
C116 C 0.63698 0.43517 0.43255 0.0
C117 C 0.64666 0.44444 0.30175 0.0
O118 O 0.68061 0.46807 0.32252 0.0
O119 O 0.6191 0.40509 0.31114 0.0
O120 O 0.76656 0.50741 0.37481 0.0
O121 O 0.75567 0.44081 0.36229 0.0
O122 O 0.2511 0.60919 0.58447 0.0
Cd123 Cd 0.29027 0.6272 0.53487 0.0
Cd124 Cd 0.27837 0.70159 0.54896 0.0
O125 O 0.25283 0.67136 0.60053 0.0
O126 O 0.29953 0.57566 0.52609 0.0
O127 O 0.35399 0.6417 0.54171 0.0
C128 C 0.34052 0.60056 0.53534 0.0
C129 C 0.32649 0.77694 0.54319 0.0
C130 C 0.24103 0.63144 0.60752 0.0
C131 C 0.23757 0.64741 0.47809 0.0
O132 O 0.23683 0.67403 0.5028 0.0
O133 O 0.26145 0.62962 0.48323 0.0
O134 O 0.28586 0.76172 0.55407 0.0
O135 O 0.34077 0.74941 0.53831 0.0
O136 O 0.67481 0.23373 0.75304 0.0
Cd137 Cd 0.7014 0.2696 0.70313 0.0
Cd138 Cd 0.61878 0.27062 0.70729 0.0
O139 O 0.61236 0.23623 0.75752 0.0
O140 O 0.7616 0.27551 0.69917 0.0
O141 O 0.75142 0.33236 0.70805 0.0
C142 C 0.77841 0.31707 0.70518 0.0
C143 C 0.59468 0.32229 0.7039 0.0
C144 C 0.63842 0.22346 0.77025 0.0
C145 C 0.63492 0.22532 0.63935 0.0
O146 O 0.60898 0.2357 0.6567 0.0
O147 O 0.67329 0.23695 0.65251 0.0
O148 O 0.56725 0.28119 0.70995 0.0
O149 O 0.63652 0.33476 0.70252 0.0
O150 O 0.48031 0.66461 0.91544 0.0
Cd151 Cd 0.46067 0.68666 0.86767 0.0
Cd152 Cd 0.38755 0.5981 0.87905 0.0
O153 O 0.41947 0.6018 0.92945 0.0
O154 O 0.51131 0.74802 0.86033 0.0
O155 O 0.44405 0.73381 0.87719 0.0
C156 C 0.48517 0.76247 0.87068 0.0
C157 C 0.31081 0.56687 0.87474 0.0
C158 C 0.45916 0.63085 0.937 0.0
C159 C 0.44244 0.61806 0.80692 0.0
O160 O 0.41616 0.58892 0.83063 0.0
O161 O 0.45922 0.65886 0.81433 0.0
O162 O 0.32864 0.54329 0.88339 0.0
O163 O 0.33646 0.60896 0.87149 0.0
O164 O 0.86 0.39189 -0.00299 0.0
Cd165 Cd 0.81986 0.36615 0.04493 0.0
Cd166 Cd 0.81989 0.44605 0.03456 0.0
O167 O 0.83799 0.43873 -0.02048 0.0
O168 O 0.80975 0.30471 0.0477 0.0
O169 O 0.75606 0.31982 0.03622 0.0
C170 C 0.76897 0.29102 0.03866 0.0
C171 C 0.77704 0.48064 0.04117 0.0
C172 C 0.85952 0.41886 -0.02734 0.0
C173 C 0.87492 0.43598 0.09885 0.0
O174 O 0.8675 0.46087 0.07691 0.0
O175 O 0.85068 0.39452 0.09597 0.0
O176 O 0.81757 0.50192 0.02929 0.0
O177 O 0.76014 0.43913 0.04836 0.0
O178 O 0.50226 0.85036 0.16549 0.0
Cd179 Cd 0.49293 0.81103 0.21237 0.0
Cd180 Cd 0.40395 0.79734 0.20327 0.0
O181 O 0.43171 0.8246 0.15013 0.0
O182 O 0.54776 0.8061 0.21458 0.0
O183 O 0.48104 0.74957 0.20243 0.0
C184 C 0.52344 0.76531 0.20503 0.0
C185 C 0.32708 0.74842 0.20701 0.0
C186 C 0.47284 0.84843 0.14252 0.0
C187 C 0.46145 0.84833 0.27314 0.0
O188 O 0.42743 0.83713 0.25205 0.0
O189 O 0.49021 0.83743 0.26425 0.0
O190 O 0.34284 0.78907 0.1976 0.0
O191 O 0.35495 0.73451 0.21193 0.0
C192 C 0.20986 0.70774 0.24613 0.0
C193 C 0.19057 0.66205 0.23945 0.0
C194 C 0.25573 0.67574 0.20069 0.0
C195 C 0.27875 0.71966 0.21507 0.0
N196 N 0.2783 0.77507 0.25762 0.0
N197 N 0.19407 0.60146 0.21003 0.0
C198 C 0.2558 0.7355 0.23878 0.0
C199 C 0.21293 0.64574 0.21604 0.0
N200 N 0.18455 0.72403 0.26151 0.0
N201 N 0.27436 0.66297 0.17201 0.0
H202 H 0.16198 0.57922 0.21957 0.0
H203 H 0.21086 0.58685 0.19724 0.0
H204 H 0.30492 0.68458 0.15927 0.0
H205 H 0.25761 0.63247 0.15822 0.0
H206 H 0.19581 0.75764 0.26418 0.0
H207 H 0.15082 0.70383 0.26766 0.0
H208 H 0.26344 0.78568 0.27814 0.0
H209 H 0.31265 0.79512 0.25667 0.0
C210 C 0.5822 0.18922 0.37847 0.0
C211 C 0.54664 0.16875 0.40536 0.0
C212 C 0.53657 0.23297 0.40489 0.0
C213 C 0.57257 0.25416 0.37809 0.0
N214 N 0.62031 0.24718 0.3307 0.0
N215 N 0.48087 0.1639 0.43329 0.0
C216 C 0.59238 0.2305 0.36197 0.0
C217 C 0.52033 0.18808 0.4142 0.0
N218 N 0.60755 0.17028 0.37031 0.0
N219 N 0.52063 0.25638 0.4245 0.0
H220 H 0.46893 0.13097 0.44078 0.0
H221 H 0.45832 0.17498 0.43786 0.0
H222 H 0.53361 0.29019 0.42155 0.0
H223 H 0.49762 0.24312 0.44713 0.0
H224 H 0.63727 0.18613 0.35474 0.0
H225 H 0.59959 0.13921 0.38077 0.0
H226 H 0.63288 0.22975 0.31576 0.0
H227 H 0.6273 0.27668 0.31729 0.0
C228 C 0.4458 0.59238 0.54163 0.0
C229 C 0.43065 0.5541 0.56473 0.0
C230 C 0.3554 0.54284 0.56447 0.0
C231 C 0.37026 0.58172 0.54168 0.0
N232 N 0.42634 0.63531 0.49889 0.0
N233 N 0.3698 0.48507 0.58586 0.0
C234 C 0.4145 0.60387 0.52701 0.0
C235 C 0.38474 0.5263 0.57112 0.0
N236 N 0.49029 0.61874 0.5354 0.0
N237 N 0.31527 0.52412 0.58326 0.0
H238 H 0.39125 0.4729 0.59161 0.0
H239 H 0.33619 0.4618 0.58834 0.0
H240 H 0.2939 0.53698 0.5828 0.0
H241 H 0.30531 0.49852 0.60322 0.0
H242 H 0.50416 0.64991 0.52286 0.0
H243 H 0.51338 0.60972 0.54441 0.0
H244 H 0.45712 0.65012 0.48495 0.0
H245 H 0.40376 0.64335 0.48676 0.0
C246 C 0.89688 0.35918 0.74061 0.0
C247 C 0.91557 0.40455 0.7329 0.0
C248 C 0.8498 0.38882 0.69489 0.0
C249 C 0.82705 0.34578 0.71127 0.0
N250 N 0.82897 0.29286 0.75593 0.0
N251 N 0.91139 0.46358 0.70153 0.0
C252 C 0.85074 0.33113 0.73508 0.0
C253 C 0.89277 0.41963 0.70903 0.0
N254 N 0.9228 0.34372 0.75586 0.0
N255 N 0.83077 0.39997 0.66561 0.0
H256 H 0.94363 0.4862 0.71029 0.0
H257 H 0.89433 0.4775 0.68823 0.0
H258 H 0.80022 0.37755 0.6535 0.0
H259 H 0.84727 0.42978 0.65068 0.0
H260 H 0.91174 0.31026 0.75949 0.0
H261 H 0.95667 0.36434 0.76086 0.0
H262 H 0.84473 0.28342 0.77638 0.0
H263 H 0.79458 0.27313 0.75685 0.0
C264 C 0.55814 0.88037 0.90671 0.0
C265 C 0.52938 0.89755 0.90097 0.0
C266 C 0.47923 0.83133 0.864 0.0
C267 C 0.50271 0.81036 0.87781 0.0
N268 N 0.56191 0.81443 0.91827 0.0
N269 N 0.46278 0.89071 0.87344 0.0
C270 C 0.54211 0.83493 0.90005 0.0
C271 C 0.49026 0.87368 0.87878 0.0
N272 N 0.5999 0.90712 0.9207 0.0
N273 N 0.44705 0.8112 0.83644 0.0
H274 H 0.4714 0.92249 0.88252 0.0
H275 H 0.43108 0.87284 0.86164 0.0
H276 H 0.43931 0.78093 0.82412 0.0
H277 H 0.43131 0.82642 0.82306 0.0
H278 H 0.62379 0.8974 0.92261 0.0
H279 H 0.61185 0.94047 0.92642 0.0
H280 H 0.58796 0.83044 0.93787 0.0
H281 H 0.54942 0.78054 0.91778 0.0
C282 C 0.67887 0.50055 0.046 0.0
C283 C 0.69652 0.53866 0.06971 0.0
C284 C 0.7688 0.54259 0.07042 0.0
C285 C 0.75104 0.50351 0.04752 0.0
N286 N 0.69388 0.45384 0.00359 0.0
N287 N 0.76025 0.60383 0.09312 0.0
C288 C 0.70751 0.48523 0.03202 0.0
C289 C 0.74248 0.56266 0.0774 0.0
N290 N 0.63434 0.47774 0.03872 0.0
N291 N 0.80891 0.55841 0.08851 0.0
H292 H 0.7409 0.6185 0.09882 0.0
H293 H 0.79426 0.62475 0.0966 0.0
H294 H 0.82838 0.54345 0.08667 0.0
H295 H 0.82099 0.58402 0.10867 0.0
H296 H 0.61835 0.44666 0.0259 0.0
H297 H 0.61312 0.48944 0.04719 0.0
H298 H 0.66389 0.44195 -0.0111 0.0
H299 H 0.71455 0.44289 -0.00803 0.0
C300 C 0.43001 0.88854 0.5307 0.0
C301 C 0.41448 0.90869 0.50413 0.0
C302 C 0.3397 0.84528 0.50733 0.0
C303 C 0.35508 0.8243 0.53356 0.0
N304 N 0.41106 0.83125 0.57891 0.0
N305 N 0.35336 0.91384 0.47776 0.0
C306 C 0.39909 0.84775 0.54818 0.0
C307 C 0.36865 0.88973 0.49666 0.0
N308 N 0.47449 0.90724 0.53756 0.0
N309 N 0.29932 0.82195 0.48956 0.0
H310 H 0.37451 0.94643 0.46932 0.0
H311 H 0.3197 0.90322 0.47424 0.0
H312 H 0.27777 0.78849 0.49398 0.0
H313 H 0.289 0.83475 0.46715 0.0
H314 H 0.48857 0.89151 0.55277 0.0
H315 H 0.49754 0.93799 0.52638 0.0
H316 H 0.44157 0.84857 0.5929 0.0
H317 H 0.38875 0.80199 0.59287 0.0
C318 C 0.52817 0.37183 0.6604 0.0
C319 C 0.55599 0.41667 0.66966 0.0
C320 C 0.59952 0.39635 0.71212 0.0
C321 C 0.5783 0.3535 0.69535 0.0
N322 N 0.52618 0.30322 0.64757 0.0
N323 N 0.61786 0.47271 0.70503 0.0
C324 C 0.54286 0.34145 0.66852 0.0
C325 C 0.59123 0.42922 0.69631 0.0
N326 N 0.48894 0.35894 0.64175 0.0
N327 N 0.62692 0.40537 0.74335 0.0
H328 H 0.61102 0.49691 0.69508 0.0
H329 H 0.64735 0.48475 0.72056 0.0
H330 H 0.63235 0.38156 0.75639 0.0
H331 H 0.64054 0.43498 0.75864 0.0
H332 H 0.46549 0.326 0.6369 0.0
H333 H 0.47808 0.38112 0.63496 0.0
H334 H 0.50351 0.29553 0.62503 0.0
H335 H 0.53853 0.28155 0.64901 0.0
C336 C 0.19565 0.55277 0.86451 0.0
C337 C 0.17691 0.51831 0.83678 0.0
C338 C 0.24301 0.51061 0.83845 0.0
C339 C 0.2627 0.54599 0.86566 0.0
N340 N 0.25243 0.59091 0.91336 0.0
N341 N 0.175 0.45479 0.8083 0.0
C342 C 0.23716 0.56382 0.88168 0.0
C343 C 0.19785 0.49352 0.82817 0.0
N344 N 0.175 0.57648 0.87266 0.0
N345 N 0.26808 0.49616 0.81934 0.0
H346 H 0.14193 0.44239 0.80011 0.0
H347 H 0.18717 0.43323 0.80375 0.0
H348 H 0.30211 0.50958 0.82317 0.0
H349 H 0.25598 0.47377 0.79638 0.0
H350 H 0.18964 0.60551 0.88882 0.0
H351 H 0.14374 0.56789 0.86166 0.0
H352 H 0.23367 0.60208 0.92823 0.0
H353 H 0.28218 0.59859 0.92711 0.0
C354 C 0.72248 0.17906 -0.01108 0.0
C355 C 0.67702 0.16053 -0.00173 0.0
C356 C 0.69518 0.22114 0.04388 0.0
C357 C 0.73879 0.24413 0.02802 0.0
N358 N 0.79221 0.24628 -0.01916 0.0
N359 N 0.61892 0.16291 0.03482 0.0
C360 C 0.75246 0.22317 -0.0001 0.0
C361 C 0.66307 0.1809 0.02637 0.0
N362 N 0.73649 0.15483 -0.03184 0.0
N363 N 0.68472 0.23744 0.07592 0.0
H364 H 0.59501 0.13257 0.02364 0.0
H365 H 0.60593 0.17892 0.05132 0.0
H366 H 0.70788 0.26622 0.08993 0.0
H367 H 0.65463 0.22032 0.09078 0.0
H368 H 0.76988 0.16503 -0.03678 0.0
H369 H 0.71467 0.1225 0.95951 0.0
H370 H 0.80125 0.23365 0.95722 0.0
H371 H 0.81441 0.27954 -0.01451 0.0
C372 C 0.59668 0.72663 0.1554 0.0
C373 C 0.57212 0.68116 0.16367 0.0
C374 C 0.52598 0.69483 0.20951 0.0
C375 C 0.54389 0.73812 0.19431 0.0
N376 N 0.59342 0.79347 0.14816 0.0
N377 N 0.51332 0.62084 0.19885 0.0
C378 C 0.57925 0.75409 0.16665 0.0
C379 C 0.53721 0.66498 0.19142 0.0
N380 N 0.63569 0.74294 0.13522 0.0
N381 N 0.49876 0.68253 0.24139 0.0
H382 H 0.5219 0.5985 0.18716 0.0
H383 H 0.484 0.60628 0.21504 0.0
H384 H 0.49093 0.7041 0.25584 0.0
H385 H 0.48765 0.65264 0.25572 0.0
H386 H 0.65714 0.77651 0.13099 0.0
H387 H 0.64854 0.72287 0.12639 0.0
H388 H 0.61573 0.80402 0.12491 0.0
H389 H 0.57973 0.81368 0.15282 0.0
C390 C 0.89824 0.49598 0.35458 0.0
C391 C 0.91766 0.53113 0.32752 0.0
C392 C 0.85053 0.53726 0.32795 0.0
C393 C 0.83068 0.50206 0.3553 0.0
N394 N 0.84018 0.4565 0.40251 0.0
N395 N 0.91865 0.59386 0.29831 0.0
C396 C 0.85605 0.48414 0.3712 0.0
C397 C 0.89599 0.55499 0.31806 0.0
N398 N 0.91917 0.47265 0.36294 0.0
N399 N 0.82534 0.55117 0.30857 0.0
H400 H 0.95199 0.60709 0.29047 0.0
H401 H 0.90591 0.61486 0.29348 0.0
H402 H 0.79116 0.53718 0.31219 0.0
H403 H 0.83751 0.57348 0.28557 0.0
H404 H 0.90432 0.4433 0.37863 0.0
H405 H 0.95086 0.48175 0.35245 0.0
H406 H 0.8588 0.4454 0.41746 0.0
H407 H 0.80994 0.44813 0.41588 0.0
C408 C 0.15844 0.58298 0.39614 0.0
C409 C 0.158 0.61767 0.37536 0.0
C410 C 0.21146 0.67171 0.42051 0.0
C411 C 0.20983 0.63695 0.44295 0.0
N412 N 0.17244 0.55907 0.45784 0.0
N413 N 0.17369 0.69302 0.3738 0.0
C414 C 0.18052 0.59234 0.43252 0.0
C415 C 0.18096 0.66138 0.38975 0.0
N416 N 0.13942 0.54162 0.38057 0.0
N417 N 0.2438 0.71437 0.42686 0.0
H418 H 0.15092 0.68625 0.35143 0.0
H419 H 0.1867 0.72457 0.38543 0.0
H420 H 0.26875 0.72335 0.44752 0.0
H421 H 0.24883 0.7403 0.40873 0.0
H422 H 0.14327 0.51636 0.39251 0.0
H423 H 0.12249 0.53338 0.35416 0.0
H424 H 0.1482 0.52642 0.45304 0.0
H425 H 0.18653 0.56459 0.48546 0.0
C426 C 0.55684 0.13614 0.57059 0.0
C427 C 0.5843 0.14496 0.5373 0.0
C428 C 0.64539 0.2072 0.57057 0.0
C429 C 0.61885 0.1966 0.60471 0.0
N430 N 0.55501 0.14189 0.6405 0.0
N431 N 0.65796 0.18035 0.50953 0.0
C432 C 0.5763 0.15819 0.60581 0.0
C433 C 0.6298 0.17761 0.53872 0.0
N434 N 0.51194 0.10881 0.56834 0.0
N435 N 0.68396 0.24657 0.56742 0.0
H436 H 0.64748 0.15852 0.48605 0.0
H437 H 0.69224 0.20114 0.51077 0.0
H438 H 0.69557 0.27048 0.58918 0.0
H439 H 0.70203 0.25742 0.54157 0.0
H440 H 0.49032 0.10536 0.59097 0.0
H441 H 0.49571 0.09275 0.54289 0.0
H442 H 0.52567 0.11178 0.64285 0.0
H443 H 0.56917 0.15567 0.66729 0.0
C444 C 0.42965 0.55318 0.71508 0.0
C445 C 0.47397 0.57429 0.70099 0.0
C446 C 0.49871 0.62015 0.75935 0.0
C447 C 0.45358 0.60379 0.77019 0.0
N448 N 0.37571 0.56105 0.7537 0.0
N449 N 0.55028 0.63201 0.70682 0.0
C450 C 0.41885 0.57189 0.74684 0.0
C451 C 0.50853 0.60893 0.72233 0.0
N452 N 0.398 0.51489 0.69839 0.0
N453 N 0.53207 0.64468 0.78495 0.0
H454 H 0.55877 0.62453 0.67983 0.0
H455 H 0.57546 0.66068 0.71934 0.0
H456 H 0.52633 0.65221 0.813 0.0
H457 H 0.56514 0.65368 0.7798 0.0
H458 H 0.36613 0.49609 0.70989 0.0
H459 H 0.40495 0.49951 0.67553 0.0
H460 H 0.34976 0.54108 0.7351 0.0
H461 H 0.36639 0.57571 0.77548 0.0
C462 C 0.9128 0.40338 0.88225 0.0
C463 C 0.9381 0.44746 0.86896 0.0
C464 C 0.91739 0.47324 0.92718 0.0
C465 C 0.88637 0.42882 0.93688 0.0
N466 N 0.84873 0.3517 0.91931 0.0
N467 N 0.96014 0.52431 0.87589 0.0
C468 C 0.88255 0.39379 0.91334 0.0
C469 C 0.93937 0.48252 0.89064 0.0
N470 N 0.91807 0.3708 0.86538 0.0
N471 N 0.92743 0.50633 0.9534 0.0
H472 H 0.97683 0.53245 0.84924 0.0
H473 H 0.95773 0.55011 0.88867 0.0
H474 H 0.91372 0.50085 -0.01871 0.0
H475 H 0.9529 0.53857 0.94901 0.0
H476 H 0.90328 0.33881 0.87627 0.0
H477 H 0.94089 0.37687 0.84303 0.0
H478 H 0.84214 0.32577 0.90048 0.0
H479 H 0.82432 0.34352 0.94058 0.0
C480 C 0.53713 0.90192 0.05046 0.0
C481 C 0.51535 0.9248 0.03765 0.0
C482 C 0.47051 0.90337 0.09703 0.0
C483 C 0.48711 0.87464 0.10639 0.0
N484 N 0.53011 0.84025 0.08747 0.0
N485 N 0.45753 0.94342 0.04615 0.0
C486 C 0.51897 0.87229 0.08199 0.0
C487 C 0.48104 0.92466 0.06026 0.0
N488 N 0.57534 0.90875 0.03258 0.0
N489 N 0.44635 0.91182 0.12374 0.0
H490 H 0.46464 0.95973 0.01947 0.0
H491 H 0.42893 0.93988 0.05958 0.0
H492 H 0.43937 0.89832 0.15164 0.0
H493 H 0.43718 0.93574 0.11965 0.0
H494 H 0.59467 0.89584 0.04304 0.0
H495 H 0.59015 0.93105 0.00974 0.0
H496 H 0.55 0.83469 0.06807 0.0
H497 H 0.5157 0.81608 0.10891 0.0
C498 C 0.64519 0.52928 0.23469 0.0
C499 C 0.62913 0.50461 0.19988 0.0
C500 C 0.62509 0.44032 0.23146 0.0
C501 C 0.63819 0.46398 0.26706 0.0
N502 N 0.64558 0.52584 0.3048 0.0
N503 N 0.59076 0.43342 0.16883 0.0
C504 C 0.64353 0.50691 0.26946 0.0
C505 C 0.61446 0.45889 0.19964 0.0
N506 N 0.66422 0.57412 0.23444 0.0
N507 N 0.62571 0.40178 0.22691 0.0
H508 H 0.58176 0.44612 0.14531 0.0
H509 H 0.57618 0.39921 0.16873 0.0
H510 H 0.63641 0.3883 0.24845 0.0
H511 H 0.62038 0.38579 0.20019 0.0
H512 H 0.68055 0.59356 0.25851 0.0
H513 H 0.66737 0.59227 0.20946 0.0
H514 H 0.64571 0.55558 0.30776 0.0
H515 H 0.64176 0.50951 0.33112 0.0
C516 C 0.49287 0.89691 0.3747 0.0
C517 C 0.47963 0.92926 0.37323 0.0
C518 C 0.46406 0.91463 0.30394 0.0
C519 C 0.46898 0.87679 0.30741 0.0
N520 N 0.48061 0.82756 0.34886 0.0
N521 N 0.44546 0.96411 0.33746 0.0
C522 C 0.48172 0.86681 0.34348 0.0
C523 C 0.46344 0.93708 0.33808 0.0
N524 N 0.51612 0.89503 0.40592 0.0
N525 N 0.46169 0.93024 0.26812 0.0
H526 H 0.44332 0.9806 0.36196 0.0
H527 H 0.42897 0.96693 0.31331 0.0
H528 H 0.46465 0.91638 0.24216 0.0
H529 H 0.46206 0.95998 0.26427 0.0
H530 H 0.52986 0.87445 0.40685 0.0
H531 H 0.52562 0.91734 0.42899 0.0
H532 H 0.48555 0.81725 0.37588 0.0
H533 H 0.46997 0.80316 0.32757 0.0
C534 C 0.56722 0.42208 0.52156 0.0
C535 C 0.58696 0.46601 0.53539 0.0
C536 C 0.63599 0.491 0.47855 0.0
C537 C 0.6212 0.44632 0.46855 0.0
N538 N 0.57965 0.36933 0.48658 0.0
N539 N 0.64458 0.54204 0.53007 0.0
C540 C 0.58862 0.41177 0.49168 0.0
C541 C 0.62261 0.50056 0.51473 0.0
N542 N 0.52776 0.39027 0.53678 0.0
N543 N 0.66091 0.52413 0.45294 0.0
H544 H 0.63559 0.55029 0.55645 0.0
H545 H 0.67383 0.56726 0.5181 0.0
H546 H 0.66971 0.51858 0.42532 0.0
H547 H 0.66883 0.55669 0.45751 0.0
H548 H 0.5102 0.35854 0.52532 0.0
H549 H 0.51028 0.39697 0.55799 0.0
H550 H 0.55897 0.34375 0.50521 0.0
H551 H 0.59672 0.36052 0.4667 0.0
C552 C 0.15105 0.54398 0.67111 0.0
C553 C 0.15953 0.56659 0.70711 0.0
C554 C 0.22342 0.63075 0.67857 0.0
C555 C 0.2126 0.60965 0.64172 0.0
N556 N 0.15741 0.55163 0.60126 0.0
N557 N 0.19575 0.63552 0.74205 0.0
C558 C 0.17376 0.56786 0.63739 0.0
C559 C 0.19307 0.61142 0.70978 0.0
N560 N 0.12308 0.49949 0.66918 0.0
N561 N 0.2636 0.6677 0.68455 0.0
H562 H 0.17321 0.62252 0.76512 0.0
H563 H 0.21727 0.66938 0.74396 0.0
H564 H 0.28814 0.68158 0.66316 0.0
H565 H 0.27442 0.68168 0.71197 0.0
H566 H 0.1197 0.48115 0.64418 0.0
H567 H 0.10649 0.48024 0.69331 0.0
H568 H 0.12699 0.52307 0.59703 0.0
H569 H 0.17134 0.56917 0.57568 0.0
C570 C 0.59665 0.172 0.8701 0.0
C571 C 0.60868 0.13872 0.86922 0.0
C572 C 0.6276 0.15388 0.80038 0.0
C573 C 0.62471 0.19288 0.80369 0.0
N574 N 0.61113 0.24196 0.84385 0.0
N575 N 0.64162 0.10173 0.83432 0.0
C576 C 0.60989 0.20256 0.83898 0.0
C577 C 0.62539 0.13025 0.83448 0.0
N578 N 0.57283 0.17444 0.90084 0.0
N579 N 0.63125 0.13871 0.76463 0.0
H580 H 0.64167 0.0842 0.85876 0.0
H581 H 0.65866 0.09846 0.81064 0.0
H582 H 0.63073 0.15389 0.73869 0.0
H583 H 0.62953 0.10835 0.76061 0.0
H584 H 0.55986 0.19568 0.90147 0.0
H585 H 0.5622 0.15199 0.92384 0.0
H586 H 0.60499 0.25227 0.87049 0.0
H587 H 0.62247 0.26628 0.82248 0.0
C588 C 0.48136 0.60066 0.0372 0.0
C589 C 0.52718 0.6144 0.03402 0.0
C590 C 0.52511 0.62935 -0.03506 0.0
C591 C 0.48201 0.624 -0.02979 0.0
N592 N 0.4221 0.61178 0.01407 0.0
N593 N 0.59474 0.64799 -0.00426 0.0
C594 C 0.46064 0.61122 0.00701 0.0
C595 C 0.54971 0.63023 -0.00193 0.0
N596 N 0.45776 0.57763 0.06917 0.0
N597 N 0.54194 0.63187 0.92839 0.0
H598 H 0.61429 0.64979 0.01938 0.0
H599 H 0.61307 0.66433 -0.02893 0.0
H600 H 0.52406 0.62883 0.90315 0.0
H601 H 0.57155 0.63183 0.92319 0.0
H602 H 0.42339 0.56357 0.07139 0.0
H603 H 0.47197 0.56867 0.09155 0.0
H604 H 0.40774 0.60676 0.04164 0.0
H605 H 0.40705 0.62201 -0.00642 0.0
C606 C 0.93435 0.45017 0.19477 0.0
C607 C 0.95464 0.49659 0.19845 0.0
C608 C 0.93881 0.5024 0.13029 0.0
C609 C 0.91044 0.45606 0.12922 0.0
N610 N 0.90489 0.38781 0.15098 0.0
N611 N 0.97565 0.56759 0.17034 0.0
C612 C 0.91487 0.43008 0.15872 0.0
C613 C 0.95742 0.52304 0.16621 0.0
N614 N 0.93269 0.4253 0.22604 0.0
N615 N 0.95109 0.52611 0.0965 0.0
H616 H 0.99012 0.58429 0.1961 0.0
H617 H 0.97339 0.58754 0.14905 0.0
H618 H 0.94327 0.51103 0.06922 0.0
H619 H 0.97442 0.55956 0.09528 0.0
H620 H 0.91317 0.39113 0.2269 0.0
H621 H 0.94908 0.43908 0.25212 0.0
H622 H 0.91002 0.36815 0.17058 0.0
H623 H 0.89845 0.37476 0.12294 0.0
loop_
_geom_bond_atom_site_label_1
_geom_bond_atom_site_label_2
_geom_bond_distance
_geom_bond_site_symmetry_2
_ccdc_geom_bond_type
H0 C6 0.930 . S
H1 C9 0.931 . S
H2 C11 0.931 . S
H3 C13 0.930 . S
H4 C15 0.930 . S
H5 C17 0.931 . S
C6 H0 0.930 . S
C6 C7 1.380 . S
C6 C8 1.394 . S
C7 C6 1.380 . S
C7 C11 1.382 . S
C8 C6 1.394 . S
C8 C9 1.400 . S
C9 H1 0.931 . S
C9 C8 1.400 . S
C9 C10 1.375 . S
C10 C9 1.375 . S
C10 C11 1.415 . S
C10 C12 1.501 1_455 S
C11 H2 0.931 . S
C11 C7 1.382 . S
C11 C10 1.415 . S
C12 C10 1.501 1_655 S
C12 C13 1.384 . S
C12 C17 1.408 . S
C13 H3 0.930 . S
C13 C12 1.384 . S
C13 C14 1.389 . S
C14 C13 1.389 . S
C14 C15 1.405 . S
C15 H4 0.930 . S
C15 C14 1.405 . S
C15 C16 1.364 . S
C16 C15 1.364 . S
C16 C17 1.400 . S
C17 H5 0.931 . S
C17 C12 1.408 . S
C17 C16 1.400 . S
H18 C24 0.930 . S
H19 C27 0.931 . S
H20 C29 0.931 . S
H21 C31 0.930 . S
H22 C33 0.930 . S
H23 C35 0.932 1_545 S
C24 H18 0.930 . S
C24 C25 1.380 . S
C24 C26 1.394 . S
C25 C24 1.380 . S
C25 C29 1.382 . S
C26 C24 1.394 . S
C26 C27 1.400 . S
C27 H19 0.931 . S
C27 C26 1.400 . S
C27 C28 1.375 . S
C28 C27 1.375 . S
C28 C29 1.415 . S
C28 C30 1.501 1_545 S
C29 H20 0.931 . S
C29 C25 1.382 . S
C29 C28 1.415 . S
C30 C28 1.501 1_565 S
C30 C31 1.384 . S
C30 C35 1.408 . S
C31 H21 0.930 . S
C31 C30 1.384 . S
C31 C32 1.389 . S
C32 C31 1.389 . S
C32 C33 1.405 . S
C33 H22 0.930 . S
C33 C32 1.405 . S
C33 C34 1.364 . S
C34 C33 1.364 . S
C34 C35 1.400 . S
C35 H23 0.932 1_565 S
C35 C30 1.408 . S
C35 C34 1.400 . S
H36 C42 0.930 . S
H37 C45 0.931 . S
H38 C47 0.931 . S
H39 C49 0.930 . S
H40 C51 0.930 . S
H41 C53 0.931 . S
C42 H36 0.930 . S
C42 C43 1.380 . S
C42 C44 1.394 . S
C43 C42 1.380 . S
C43 C47 1.382 . S
C44 C42 1.394 . S
C44 C45 1.400 . S
C45 H37 0.931 . S
C45 C44 1.400 . S
C45 C46 1.375 . S
C46 C45 1.375 . S
C46 C47 1.415 . S
C46 C48 1.501 . S
C47 H38 0.931 . S
C47 C43 1.382 . S
C47 C46 1.415 . S
C48 C46 1.501 . S
C48 C49 1.384 . S
C48 C53 1.408 . S
C49 H39 0.930 . S
C49 C48 1.384 . S
C49 C50 1.389 . S
C50 C49 1.389 . S
C50 C51 1.405 . S
C51 H40 0.930 . S
C51 C50 1.405 . S
C51 C52 1.364 . S
C52 C51 1.364 . S
C52 C53 1.400 . S
C53 H41 0.931 . S
C53 C48 1.408 . S
C53 C52 1.400 . S
H54 C60 0.930 . S
H55 C63 0.931 . S
H56 C65 0.931 . S
H57 C67 0.930 . S
H58 C69 0.930 . S
H59 C71 0.931 . S
C60 H54 0.930 . S
C60 C61 1.380 . S
C60 C62 1.394 . S
C61 C60 1.380 . S
C61 C65 1.382 . S
C62 C60 1.394 . S
C62 C63 1.400 . S
C63 H55 0.931 . S
C63 C62 1.400 . S
C63 C64 1.375 . S
C64 C63 1.375 . S
C64 C65 1.415 . S
C64 C66 1.501 1_455 S
C65 H56 0.931 . S
C65 C61 1.382 . S
C65 C64 1.415 . S
C66 C64 1.501 1_655 S
C66 C67 1.384 . S
C66 C71 1.408 . S
C67 H57 0.930 . S
C67 C66 1.384 . S
C67 C68 1.389 . S
C68 C67 1.389 . S
C68 C69 1.405 . S
C69 H58 0.930 . S
C69 C68 1.405 . S
C69 C70 1.364 . S
C70 C69 1.364 . S
C70 C71 1.400 . S
C71 H59 0.931 . S
C71 C66 1.408 . S
C71 C70 1.400 . S
H72 C78 0.930 . S
H73 C81 0.931 . S
H74 C83 0.932 . S
H75 C85 0.930 . S
H76 C87 0.930 . S
H77 C89 0.931 . S
C78 H72 0.930 . S
C78 C79 1.380 . S
C78 C80 1.394 1_554 S
C79 C78 1.380 . S
C79 C83 1.382 . S
C80 C78 1.394 1_556 S
C80 C81 1.400 . S
C81 H73 0.931 . S
C81 C80 1.400 . S
C81 C82 1.375 . S
C82 C81 1.375 . S
C82 C83 1.415 1_556 S
C82 C84 1.501 1_565 S
C83 H74 0.932 . S
C83 C79 1.382 . S
C83 C82 1.415 1_554 S
C84 C82 1.501 1_545 S
C84 C85 1.384 1_556 S
C84 C89 1.408 . S
C85 H75 0.930 . S
C85 C84 1.384 1_554 S
C85 C86 1.389 . S
C86 C85 1.389 . S
C86 C87 1.405 1_554 S
C87 H76 0.930 . S
C87 C86 1.405 1_556 S
C87 C88 1.364 . S
C88 C87 1.364 . S
C88 C89 1.400 . S
C89 H77 0.931 . S
C89 C84 1.408 . S
C89 C88 1.400 . S
H90 C96 0.930 . S
H91 C99 0.931 . S
H92 C101 0.931 . S
H93 C103 0.930 . S
H94 C105 0.930 . S
H95 C107 0.931 . S
C96 H90 0.930 . S
C96 C97 1.380 . S
C96 C98 1.394 . S
C97 C96 1.380 . S
C97 C101 1.382 . S
C98 C96 1.394 . S
C98 C99 1.400 . S
C99 H91 0.931 . S
C99 C98 1.400 . S
C99 C100 1.375 . S
C100 C99 1.375 . S
C100 C101 1.415 . S
C100 C102 1.501 . S
C101 H92 0.931 . S
C101 C97 1.382 . S
C101 C100 1.415 . S
C102 C100 1.501 . S
C102 C103 1.384 . S
C102 C107 1.408 . S
C103 H93 0.930 . S
C103 C102 1.384 . S
C103 C104 1.389 . S
C104 C103 1.389 . S
C104 C105 1.405 . S
C105 H94 0.930 . S
C105 C104 1.405 . S
C105 C106 1.364 . S
C106 C105 1.364 . S
C106 C107 1.400 . S
C107 H95 0.931 . S
C107 C102 1.408 . S
C107 C106 1.400 . S
O108 Cd109 2.223 . S
O108 C116 1.315 . S
Cd109 O108 2.223 . S
Cd109 O112 2.297 . S
Cd109 O113 2.439 . S
Cd109 O119 2.240 . S
Cd110 O111 2.240 . S
Cd110 O118 2.223 . S
Cd110 O120 2.297 . S
Cd110 O121 2.439 . S
O111 Cd110 2.240 . S
O111 C116 1.279 . S
O112 Cd109 2.297 . S
O112 C114 1.247 . S
O113 Cd109 2.439 . S
O113 C114 1.208 . S
C114 O112 1.247 . S
C114 O113 1.208 . S
C115 O120 1.247 . S
C115 O121 1.208 . S
C116 O108 1.315 . S
C116 O111 1.279 . S
C117 O118 1.315 . S
C117 O119 1.279 . S
O118 Cd110 2.223 . S
O118 C117 1.315 . S
O119 Cd109 2.240 . S
O119 C117 1.279 . S
O120 Cd110 2.297 . S
O120 C115 1.247 . S
O121 Cd110 2.439 . S
O121 C115 1.208 . S
O122 Cd123 2.223 . S
O122 C130 1.315 . S
Cd123 O122 2.223 . S
Cd123 O126 2.297 . S
Cd123 O127 2.439 . S
Cd123 O133 2.240 . S
Cd124 O125 2.240 . S
Cd124 O132 2.223 . S
Cd124 O134 2.297 . S
Cd124 O135 2.439 . S
O125 Cd124 2.240 . S
O125 C130 1.279 . S
O126 Cd123 2.297 . S
O126 C128 1.247 . S
O127 Cd123 2.439 . S
O127 C128 1.208 . S
C128 O126 1.247 . S
C128 O127 1.208 . S
C129 O134 1.247 . S
C129 O135 1.208 . S
C130 O122 1.315 . S
C130 O125 1.279 . S
C131 O132 1.315 . S
C131 O133 1.279 . S
O132 Cd124 2.223 . S
O132 C131 1.315 . S
O133 Cd123 2.240 . S
O133 C131 1.279 . S
O134 Cd124 2.297 . S
O134 C129 1.247 . S
O135 Cd124 2.439 . S
O135 C129 1.208 . S
O136 Cd137 2.223 . S
O136 C144 1.315 . S
Cd137 O136 2.223 . S
Cd137 O140 2.297 . S
Cd137 O141 2.439 . S
Cd137 O147 2.240 . S
Cd138 O139 2.240 . S
Cd138 O146 2.223 . S
Cd138 O148 2.297 . S
Cd138 O149 2.439 . S
O139 Cd138 2.240 . S
O139 C144 1.279 . S
O140 Cd137 2.297 . S
O140 C142 1.247 . S
O141 Cd137 2.439 . S
O141 C142 1.208 . S
C142 O140 1.247 . S
C142 O141 1.208 . S
C143 O148 1.247 . S
C143 O149 1.208 . S
C144 O136 1.315 . S
C144 O139 1.279 . S
C145 O146 1.315 . S
C145 O147 1.279 . S
O146 Cd138 2.223 . S
O146 C145 1.315 . S
O147 Cd137 2.240 . S
O147 C145 1.279 . S
O148 Cd138 2.297 . S
O148 C143 1.247 . S
O149 Cd138 2.439 . S
O149 C143 1.208 . S
O150 Cd151 2.223 . S
O150 C158 1.315 . S
Cd151 O150 2.223 . S
Cd151 O154 2.297 . S
Cd151 O155 2.439 . S
Cd151 O161 2.240 . S
Cd152 O153 2.240 . S
Cd152 O160 2.223 . S
Cd152 O162 2.297 . S
Cd152 O163 2.439 . S
O153 Cd152 2.240 . S
O153 C158 1.279 . S
O154 Cd151 2.297 . S
O154 C156 1.247 . S
O155 Cd151 2.439 . S
O155 C156 1.208 . S
C156 O154 1.247 . S
C156 O155 1.208 . S
C157 O162 1.247 . S
C157 O163 1.208 . S
C158 O150 1.315 . S
C158 O153 1.279 . S
C159 O160 1.315 . S
C159 O161 1.279 . S
O160 Cd152 2.223 . S
O160 C159 1.315 . S
O161 Cd151 2.240 . S
O161 C159 1.279 . S
O162 Cd152 2.297 . S
O162 C157 1.247 . S
O163 Cd152 2.439 . S
O163 C157 1.208 . S
O164 Cd165 2.223 . S
O164 C172 1.315 . S
Cd165 O164 2.223 . S
Cd165 O168 2.297 . S
Cd165 O169 2.439 . S
Cd165 O175 2.240 . S
Cd166 O167 2.240 . S
Cd166 O174 2.223 . S
Cd166 O176 2.297 . S
Cd166 O177 2.439 . S
O167 Cd166 2.240 . S
O167 C172 1.279 . S
O168 Cd165 2.297 . S
O168 C170 1.247 . S
O169 Cd165 2.439 . S
O169 C170 1.208 . S
C170 O168 1.247 . S
C170 O169 1.208 . S
C171 O176 1.247 . S
C171 O177 1.208 . S
C172 O164 1.315 . S
C172 O167 1.279 . S
C173 O174 1.315 . S
C173 O175 1.279 . S
O174 Cd166 2.223 . S
O174 C173 1.315 . S
O175 Cd165 2.240 . S
O175 C173 1.279 . S
O176 Cd166 2.297 . S
O176 C171 1.247 . S
O177 Cd166 2.439 . S
O177 C171 1.208 . S
O178 Cd179 2.223 . S
O178 C186 1.315 . S
Cd179 O178 2.223 . S
Cd179 O182 2.297 . S
Cd179 O183 2.439 . S
Cd179 O189 2.240 . S
Cd180 O181 2.240 . S
Cd180 O188 2.223 . S
Cd180 O190 2.297 . S
Cd180 O191 2.439 . S
O181 Cd180 2.240 . S
O181 C186 1.279 . S
O182 Cd179 2.297 . S
O182 C184 1.247 . S
O183 Cd179 2.439 . S
O183 C184 1.208 . S
C184 O182 1.247 . S
C184 O183 1.208 . S
C185 O190 1.247 . S
C185 O191 1.208 . S
C186 O178 1.315 . S
C186 O181 1.279 . S
C187 O188 1.315 . S
C187 O189 1.279 . S
O188 Cd180 2.223 . S
O188 C187 1.315 . S
O189 Cd179 2.240 . S
O189 C187 1.279 . S
O190 Cd180 2.297 . S
O190 C185 1.247 . S
O191 Cd180 2.439 . S
O191 C185 1.208 . S
C192 C193 1.363 . S
C192 C198 1.379 . S
C192 N200 1.356 . S
C193 C192 1.363 . S
C193 C199 1.363 . S
C194 C195 1.363 . S
C194 C199 1.379 . S
C194 N201 1.356 . S
C195 C194 1.363 . S
C195 C198 1.363 . S
N196 C198 1.356 . S
N196 H208 0.984 . S
N196 H209 0.985 . S
N197 C199 1.356 . S
N197 H202 0.984 . S
N197 H203 0.985 . S
C198 C192 1.379 . S
C198 C195 1.363 . S
C198 N196 1.356 . S
C199 C193 1.363 . S
C199 C194 1.379 . S
C199 N197 1.356 . S
N200 C192 1.356 . S
N200 H206 0.984 . S
N200 H207 0.984 . S
N201 C194 1.356 . S
N201 H204 0.984 . S
N201 H205 0.985 . S
H202 N197 0.984 . S
H203 N197 0.985 . S
H204 N201 0.984 . S
H205 N201 0.985 . S
H206 N200 0.984 . S
H207 N200 0.984 . S
H208 N196 0.984 . S
H209 N196 0.985 . S
C210 C211 1.363 . S
C210 C216 1.379 . S
C210 N218 1.356 . S
C211 C210 1.363 . S
C211 C217 1.363 . S
C212 C213 1.363 . S
C212 C217 1.379 . S
C212 N219 1.356 . S
C213 C212 1.363 . S
C213 C216 1.363 . S
N214 C216 1.356 . S
N214 H226 0.984 . S
N214 H227 0.985 . S
N215 C217 1.356 . S
N215 H220 0.984 . S
N215 H221 0.985 . S
C216 C210 1.379 . S
C216 C213 1.363 . S
C216 N214 1.356 . S
C217 C211 1.363 . S
C217 C212 1.379 . S
C217 N215 1.356 . S
N218 C210 1.356 . S
N218 H224 0.984 . S
N218 H225 0.984 . S
N219 C212 1.356 . S
N219 H222 0.984 . S
N219 H223 0.985 . S
H220 N215 0.984 . S
H221 N215 0.985 . S
H222 N219 0.984 . S
H223 N219 0.985 . S
H224 N218 0.984 . S
H225 N218 0.984 . S
H226 N214 0.984 . S
H227 N214 0.985 . S
C228 C229 1.363 . S
C228 C234 1.379 . S
C228 N236 1.356 . S
C229 C228 1.363 . S
C229 C235 1.363 . S
C230 C231 1.363 . S
C230 C235 1.379 . S
C230 N237 1.356 . S
C231 C230 1.363 . S
C231 C234 1.363 . S
N232 C234 1.356 . S
N232 H244 0.984 . S
N232 H245 0.985 . S
N233 C235 1.356 . S
N233 H238 0.984 . S
N233 H239 0.985 . S
C234 C228 1.379 . S
C234 C231 1.363 . S
C234 N232 1.356 . S
C235 C229 1.363 . S
C235 C230 1.379 . S
C235 N233 1.356 . S
N236 C228 1.356 . S
N236 H242 0.984 . S
N236 H243 0.984 . S
N237 C230 1.356 . S
N237 H240 0.984 . S
N237 H241 0.985 . S
H238 N233 0.984 . S
H239 N233 0.985 . S
H240 N237 0.984 . S
H241 N237 0.985 . S
H242 N236 0.984 . S
H243 N236 0.984 . S
H244 N232 0.984 . S
H245 N232 0.985 . S
C246 C247 1.363 . S
C246 C252 1.379 . S
C246 N254 1.356 . S
C247 C246 1.363 . S
C247 C253 1.363 . S
C248 C249 1.363 . S
C248 C253 1.379 . S
C248 N255 1.356 . S
C249 C248 1.363 . S
C249 C252 1.363 . S
N250 C252 1.356 . S
N250 H262 0.984 . S
N250 H263 0.985 . S
N251 C253 1.356 . S
N251 H256 0.984 . S
N251 H257 0.985 . S
C252 C246 1.379 . S
C252 C249 1.363 . S
C252 N250 1.356 . S
C253 C247 1.363 . S
C253 C248 1.379 . S
C253 N251 1.356 . S
N254 C246 1.356 . S
N254 H260 0.984 . S
N254 H261 0.984 . S
N255 C248 1.356 . S
N255 H258 0.984 . S
N255 H259 0.985 . S
H256 N251 0.984 . S
H257 N251 0.985 . S
H258 N255 0.984 . S
H259 N255 0.985 . S
H260 N254 0.984 . S
H261 N254 0.984 . S
H262 N250 0.984 . S
H263 N250 0.985 . S
C264 C265 1.363 . S
C264 C270 1.379 . S
C264 N272 1.356 1_556 S
C265 C264 1.363 . S
C265 C271 1.363 . S
C266 C267 1.363 . S
C266 C271 1.379 . S
C266 N273 1.356 . S
C267 C266 1.363 . S
C267 C270 1.363 . S
N268 C270 1.358 . S
N268 H280 0.981 1_556 S
N268 H281 0.986 . S
N269 C271 1.356 . S
N269 H274 0.984 . S
N269 H275 0.985 . S
C270 C264 1.379 . S
C270 C267 1.363 . S
C270 N268 1.358 . S
C271 C265 1.363 . S
C271 C266 1.379 . S
C271 N269 1.356 . S
N272 C264 1.356 1_554 S
N272 H278 0.984 . S
N272 H279 0.984 . S
N273 C266 1.356 . S
N273 H276 0.984 . S
N273 H277 0.985 . S
H274 N269 0.984 . S
H275 N269 0.985 . S
H276 N273 0.984 . S
H277 N273 0.985 . S
H278 N272 0.984 . S
H279 N272 0.984 . S
H280 N268 0.981 1_554 S
H281 N268 0.986 . S
C282 C283 1.363 . S
C282 C288 1.379 . S
C282 N290 1.356 . S
C283 C282 1.363 . S
C283 C289 1.363 . S
C284 C285 1.363 . S
C284 C289 1.379 . S
C284 N291 1.356 . S
C285 C284 1.363 . S
C285 C288 1.363 . S
N286 C288 1.356 . S
N286 H298 0.984 . S
N286 H299 0.985 . S
N287 C289 1.356 . S
N287 H292 0.984 . S
N287 H293 0.985 . S
C288 C282 1.379 . S
C288 C285 1.363 . S
C288 N286 1.356 . S
C289 C283 1.363 . S
C289 C284 1.379 . S
C289 N287 1.356 . S
N290 C282 1.356 . S
N290 H296 0.984 . S
N290 H297 0.984 . S
N291 C284 1.356 . S
N291 H294 0.984 . S
N291 H295 0.985 . S
H292 N287 0.984 . S
H293 N287 0.985 . S
H294 N291 0.984 . S
H295 N291 0.985 . S
H296 N290 0.984 . S
H297 N290 0.984 . S
H298 N286 0.984 . S
H299 N286 0.985 . S
C300 C301 1.363 . S
C300 C306 1.379 . S
C300 N308 1.356 . S
C301 C300 1.363 . S
C301 C307 1.363 . S
C302 C303 1.363 . S
C302 C307 1.379 . S
C302 N309 1.356 . S
C303 C302 1.363 . S
C303 C306 1.363 . S
N304 C306 1.356 . S
N304 H316 0.984 . S
N304 H317 0.985 . S
N305 C307 1.356 . S
N305 H310 0.984 . S
N305 H311 0.985 . S
C306 C300 1.379 . S
C306 C303 1.363 . S
C306 N304 1.356 . S
C307 C301 1.363 . S
C307 C302 1.379 . S
C307 N305 1.356 . S
N308 C300 1.356 . S
N308 H314 0.984 . S
N308 H315 0.984 . S
N309 C302 1.356 . S
N309 H312 0.984 . S
N309 H313 0.985 . S
H310 N305 0.984 . S
H311 N305 0.985 . S
H312 N309 0.984 . S
H313 N309 0.985 . S
H314 N308 0.984 . S
H315 N308 0.984 . S
H316 N304 0.984 . S
H317 N304 0.985 . S
C318 C319 1.363 . S
C318 C324 1.379 . S
C318 N326 1.356 . S
C319 C318 1.363 . S
C319 C325 1.363 . S
C320 C321 1.363 . S
C320 C325 1.379 . S
C320 N327 1.356 . S
C321 C320 1.363 . S
C321 C324 1.363 . S
N322 C324 1.356 . S
N322 H334 0.984 . S
N322 H335 0.985 . S
N323 C325 1.356 . S
N323 H328 0.984 . S
N323 H329 0.985 . S
C324 C318 1.379 . S
C324 C321 1.363 . S
C324 N322 1.356 . S
C325 C319 1.363 . S
C325 C320 1.379 . S
C325 N323 1.356 . S
N326 C318 1.356 . S
N326 H332 0.984 . S
N326 H333 0.984 . S
N327 C320 1.356 . S
N327 H330 0.984 . S
N327 H331 0.985 . S
H328 N323 0.984 . S
H329 N323 0.985 . S
H330 N327 0.984 . S
H331 N327 0.985 . S
H332 N326 0.984 . S
H333 N326 0.984 . S
H334 N322 0.984 . S
H335 N322 0.985 . S
C336 C337 1.363 . S
C336 C342 1.379 . S
C336 N344 1.356 . S
C337 C336 1.363 . S
C337 C343 1.363 . S
C338 C339 1.363 . S
C338 C343 1.379 . S
C338 N345 1.356 . S
C339 C338 1.363 . S
C339 C342 1.363 . S
N340 C342 1.356 . S
N340 H352 0.984 . S
N340 H353 0.985 . S
N341 C343 1.356 . S
N341 H346 0.984 . S
N341 H347 0.985 . S
C342 C336 1.379 . S
C342 C339 1.363 . S
C342 N340 1.356 . S
C343 C337 1.363 . S
C343 C338 1.379 . S
C343 N341 1.356 . S
N344 C336 1.356 . S
N344 H350 0.984 . S
N344 H351 0.984 . S
N345 C338 1.356 . S
N345 H348 0.984 . S
N345 H349 0.985 . S
H346 N341 0.984 . S
H347 N341 0.985 . S
H348 N345 0.984 . S
H349 N345 0.985 . S
H350 N344 0.984 . S
H351 N344 0.984 . S
H352 N340 0.984 . S
H353 N340 0.985 . S
C354 C355 1.363 1_556 S
C354 C360 1.379 . S
C354 N362 1.356 . S
C355 C354 1.363 1_554 S
C355 C361 1.363 . S
C356 C357 1.363 . S
C356 C361 1.379 . S
C356 N363 1.356 . S
C357 C356 1.363 . S
C357 C360 1.364 1_554 S
N358 C360 1.356 . S
N358 H370 0.984 . S
N358 H371 0.985 . S
N359 C361 1.356 . S
N359 H364 0.984 . S
N359 H365 0.985 . S
C360 C354 1.379 . S
C360 C357 1.364 1_556 S
C360 N358 1.356 . S
C361 C355 1.363 . S
C361 C356 1.379 . S
C361 N359 1.356 . S
N362 C354 1.356 . S
N362 H368 0.984 . S
N362 H369 0.984 . S
N363 C356 1.356 . S
N363 H366 0.984 . S
N363 H367 0.985 . S
H364 N359 0.984 . S
H365 N359 0.985 . S
H366 N363 0.984 . S
H367 N363 0.985 . S
H368 N362 0.984 . S
H369 N362 0.984 . S
H370 N358 0.984 . S
H371 N358 0.985 . S
C372 C373 1.363 . S
C372 C378 1.379 . S
C372 N380 1.356 . S
C373 C372 1.363 . S
C373 C379 1.363 . S
C374 C375 1.363 . S
C374 C379 1.379 . S
C374 N381 1.356 . S
C375 C374 1.363 . S
C375 C378 1.363 . S
N376 C378 1.356 . S
N376 H388 0.984 . S
N376 H389 0.985 . S
N377 C379 1.356 . S
N377 H382 0.984 . S
N377 H383 0.985 . S
C378 C372 1.379 . S
C378 C375 1.363 . S
C378 N376 1.356 . S
C379 C373 1.363 . S
C379 C374 1.379 . S
C379 N377 1.356 . S
N380 C372 1.356 . S
N380 H386 0.984 . S
N380 H387 0.984 . S
N381 C374 1.356 . S
N381 H384 0.984 . S
N381 H385 0.985 . S
H382 N377 0.984 . S
H383 N377 0.985 . S
H384 N381 0.984 . S
H385 N381 0.985 . S
H386 N380 0.984 . S
H387 N380 0.984 . S
H388 N376 0.984 . S
H389 N376 0.985 . S
C390 C391 1.363 . S
C390 C396 1.379 . S
C390 N398 1.356 . S
C391 C390 1.363 . S
C391 C397 1.363 . S
C392 C393 1.363 . S
C392 C397 1.379 . S
C392 N399 1.356 . S
C393 C392 1.363 . S
C393 C396 1.363 . S
N394 C396 1.356 . S
N394 H406 0.984 . S
N394 H407 0.985 . S
N395 C397 1.356 . S
N395 H400 0.984 . S
N395 H401 0.985 . S
C396 C390 1.379 . S
C396 C393 1.363 . S
C396 N394 1.356 . S
C397 C391 1.363 . S
C397 C392 1.379 . S
C397 N395 1.356 . S
N398 C390 1.356 . S
N398 H404 0.984 . S
N398 H405 0.984 . S
N399 C392 1.356 . S
N399 H402 0.984 . S
N399 H403 0.985 . S
H400 N395 0.984 . S
H401 N395 0.985 . S
H402 N399 0.984 . S
H403 N399 0.985 . S
H404 N398 0.984 . S
H405 N398 0.984 . S
H406 N394 0.984 . S
H407 N394 0.985 . S
C408 C409 1.363 . S
C408 C414 1.379 . S
C408 N416 1.356 . S
C409 C408 1.363 . S
C409 C415 1.363 . S
C410 C411 1.363 . S
C410 C415 1.379 . S
C410 N417 1.356 . S
C411 C410 1.363 . S
C411 C414 1.363 . S
N412 C414 1.356 . S
N412 H424 0.984 . S
N412 H425 0.985 . S
N413 C415 1.356 . S
N413 H418 0.984 . S
N413 H419 0.985 . S
C414 C408 1.379 . S
C414 C411 1.363 . S
C414 N412 1.356 . S
C415 C409 1.363 . S
C415 C410 1.379 . S
C415 N413 1.356 . S
N416 C408 1.356 . S
N416 H422 0.984 . S
N416 H423 0.984 . S
N417 C410 1.356 . S
N417 H420 0.984 . S
N417 H421 0.985 . S
H418 N413 0.984 . S
H419 N413 0.985 . S
H420 N417 0.984 . S
H421 N417 0.985 . S
H422 N416 0.984 . S
H423 N416 0.984 . S
H424 N412 0.984 . S
H425 N412 0.985 . S
C426 C427 1.363 . S
C426 C432 1.379 . S
C426 N434 1.356 . S
C427 C426 1.363 . S
C427 C433 1.363 . S
C428 C429 1.363 . S
C428 C433 1.379 . S
C428 N435 1.356 . S
C429 C428 1.363 . S
C429 C432 1.363 . S
N430 C432 1.356 . S
N430 H442 0.984 . S
N430 H443 0.985 . S
N431 C433 1.356 . S
N431 H436 0.984 . S
N431 H437 0.985 . S
C432 C426 1.379 . S
C432 C429 1.363 . S
C432 N430 1.356 . S
C433 C427 1.363 . S
C433 C428 1.379 . S
C433 N431 1.356 . S
N434 C426 1.356 . S
N434 H440 0.984 . S
N434 H441 0.984 . S
N435 C428 1.356 . S
N435 H438 0.984 . S
N435 H439 0.985 . S
H436 N431 0.984 . S
H437 N431 0.985 . S
H438 N435 0.984 . S
H439 N435 0.985 . S
H440 N434 0.984 . S
H441 N434 0.984 . S
H442 N430 0.984 . S
H443 N430 0.985 . S
C444 C445 1.363 . S
C444 C450 1.379 . S
C444 N452 1.356 . S
C445 C444 1.363 . S
C445 C451 1.363 . S
C446 C447 1.363 . S
C446 C451 1.379 . S
C446 N453 1.356 . S
C447 C446 1.363 . S
C447 C450 1.363 . S
N448 C450 1.356 . S
N448 H460 0.984 . S
N448 H461 0.985 . S
N449 C451 1.356 . S
N449 H454 0.984 . S
N449 H455 0.985 . S
C450 C444 1.379 . S
C450 C447 1.363 . S
C450 N448 1.356 . S
C451 C445 1.363 . S
C451 C446 1.379 . S
C451 N449 1.356 . S
N452 C444 1.356 . S
N452 H458 0.984 . S
N452 H459 0.984 . S
N453 C446 1.356 . S
N453 H456 0.984 . S
N453 H457 0.985 . S
H454 N449 0.984 . S
H455 N449 0.985 . S
H456 N453 0.984 . S
H457 N453 0.985 . S
H458 N452 0.984 . S
H459 N452 0.984 . S
H460 N448 0.984 . S
H461 N448 0.985 . S
C462 C463 1.363 . S
C462 C468 1.379 . S
C462 N470 1.356 . S
C463 C462 1.363 . S
C463 C469 1.363 . S
C464 C465 1.363 . S
C464 C469 1.379 . S
C464 N471 1.356 1_556 S
C465 C464 1.363 . S
C465 C468 1.363 . S
N466 C468 1.356 . S
N466 H478 0.984 . S
N466 H479 0.985 . S
N467 C469 1.356 . S
N467 H472 0.984 . S
N467 H473 0.985 . S
C468 C462 1.379 . S
C468 C465 1.363 . S
C468 N466 1.356 . S
C469 C463 1.363 . S
C469 C464 1.379 . S
C469 N467 1.356 . S
N470 C462 1.356 . S
N470 H476 0.984 . S
N470 H477 0.984 . S
N471 C464 1.356 1_554 S
N471 H474 0.984 . S
N471 H475 0.985 . S
H472 N467 0.984 . S
H473 N467 0.985 . S
H474 N471 0.984 . S
H475 N471 0.985 . S
H476 N470 0.984 . S
H477 N470 0.984 . S
H478 N466 0.984 . S
H479 N466 0.985 . S
C480 C481 1.363 . S
C480 C486 1.379 . S
C480 N488 1.356 . S
C481 C480 1.363 . S
C481 C487 1.363 . S
C482 C483 1.363 . S
C482 C487 1.379 . S
C482 N489 1.356 . S
C483 C482 1.363 . S
C483 C486 1.363 . S
N484 C486 1.356 . S
N484 H496 0.984 . S
N484 H497 0.985 . S
N485 C487 1.356 . S
N485 H490 0.984 . S
N485 H491 0.985 . S
C486 C480 1.379 . S
C486 C483 1.363 . S
C486 N484 1.356 . S
C487 C481 1.363 . S
C487 C482 1.379 . S
C487 N485 1.356 . S
N488 C480 1.356 . S
N488 H494 0.984 . S
N488 H495 0.984 . S
N489 C482 1.356 . S
N489 H492 0.984 . S
N489 H493 0.985 . S
H490 N485 0.984 . S
H491 N485 0.985 . S
H492 N489 0.984 . S
H493 N489 0.985 . S
H494 N488 0.984 . S
H495 N488 0.984 . S
H496 N484 0.984 . S
H497 N484 0.985 . S
C498 C499 1.363 . S
C498 C504 1.379 . S
C498 N506 1.356 . S
C499 C498 1.363 . S
C499 C505 1.363 . S
C500 C501 1.363 . S
C500 C505 1.379 . S
C500 N507 1.356 . S
C501 C500 1.363 . S
C501 C504 1.363 . S
N502 C504 1.356 . S
N502 H514 0.984 . S
N502 H515 0.985 . S
N503 C505 1.356 . S
N503 H508 0.984 . S
N503 H509 0.985 . S
C504 C498 1.379 . S
C504 C501 1.363 . S
C504 N502 1.356 . S
C505 C499 1.363 . S
C505 C500 1.379 . S
C505 N503 1.356 . S
N506 C498 1.356 . S
N506 H512 0.984 . S
N506 H513 0.984 . S
N507 C500 1.356 . S
N507 H510 0.984 . S
N507 H511 0.985 . S
H508 N503 0.984 . S
H509 N503 0.985 . S
H510 N507 0.984 . S
H511 N507 0.985 . S
H512 N506 0.984 . S
H513 N506 0.984 . S
H514 N502 0.984 . S
H515 N502 0.985 . S
C516 C517 1.363 . S
C516 C522 1.379 . S
C516 N524 1.356 . S
C517 C516 1.363 . S
C517 C523 1.363 . S
C518 C519 1.363 . S
C518 C523 1.379 . S
C518 N525 1.356 . S
C519 C518 1.363 . S
C519 C522 1.363 . S
N520 C522 1.356 . S
N520 H532 0.984 . S
N520 H533 0.985 . S
N521 C523 1.356 . S
N521 H526 0.984 . S
N521 H527 0.985 . S
C522 C516 1.379 . S
C522 C519 1.363 . S
C522 N520 1.356 . S
C523 C517 1.363 . S
C523 C518 1.379 . S
C523 N521 1.356 . S
N524 C516 1.356 . S
N524 H530 0.984 . S
N524 H531 0.984 . S
N525 C518 1.356 . S
N525 H528 0.984 . S
N525 H529 0.985 . S
H526 N521 0.984 . S
H527 N521 0.985 . S
H528 N525 0.984 . S
H529 N525 0.985 . S
H530 N524 0.984 . S
H531 N524 0.984 . S
H532 N520 0.984 . S
H533 N520 0.985 . S
C534 C535 1.363 . S
C534 C540 1.379 . S
C534 N542 1.356 . S
C535 C534 1.363 . S
C535 C541 1.363 . S
C536 C537 1.363 . S
C536 C541 1.379 . S
C536 N543 1.356 . S
C537 C536 1.363 . S
C537 C540 1.363 . S
N538 C540 1.356 . S
N538 H550 0.984 . S
N538 H551 0.985 . S
N539 C541 1.356 . S
N539 H544 0.984 . S
N539 H545 0.985 . S
C540 C534 1.379 . S
C540 C537 1.363 . S
C540 N538 1.356 . S
C541 C535 1.363 . S
C541 C536 1.379 . S
C541 N539 1.356 . S
N542 C534 1.356 . S
N542 H548 0.984 . S
N542 H549 0.984 . S
N543 C536 1.356 . S
N543 H546 0.984 . S
N543 H547 0.985 . S
H544 N539 0.984 . S
H545 N539 0.985 . S
H546 N543 0.984 . S
H547 N543 0.985 . S
H548 N542 0.984 . S
H549 N542 0.984 . S
H550 N538 0.984 . S
H551 N538 0.985 . S
C552 C553 1.363 . S
C552 C558 1.379 . S
C552 N560 1.356 . S
C553 C552 1.363 . S
C553 C559 1.363 . S
C554 C555 1.363 . S
C554 C559 1.379 . S
C554 N561 1.356 . S
C555 C554 1.363 . S
C555 C558 1.363 . S
N556 C558 1.356 . S
N556 H568 0.984 . S
N556 H569 0.985 . S
N557 C559 1.356 . S
N557 H562 0.984 . S
N557 H563 0.985 . S
C558 C552 1.379 . S
C558 C555 1.363 . S
C558 N556 1.356 . S
C559 C553 1.363 . S
C559 C554 1.379 . S
C559 N557 1.356 . S
N560 C552 1.356 . S
N560 H566 0.984 . S
N560 H567 0.984 . S
N561 C554 1.356 . S
N561 H564 0.984 . S
N561 H565 0.985 . S
H562 N557 0.984 . S
H563 N557 0.985 . S
H564 N561 0.984 . S
H565 N561 0.985 . S
H566 N560 0.984 . S
H567 N560 0.984 . S
H568 N556 0.984 . S
H569 N556 0.985 . S
C570 C571 1.363 . S
C570 C576 1.379 . S
C570 N578 1.356 . S
C571 C570 1.363 . S
C571 C577 1.363 . S
C572 C573 1.363 . S
C572 C577 1.379 . S
C572 N579 1.356 . S
C573 C572 1.363 . S
C573 C576 1.363 . S
N574 C576 1.356 . S
N574 H586 0.984 . S
N574 H587 0.985 . S
N575 C577 1.356 . S
N575 H580 0.984 . S
N575 H581 0.985 . S
C576 C570 1.379 . S
C576 C573 1.363 . S
C576 N574 1.356 . S
C577 C571 1.363 . S
C577 C572 1.379 . S
C577 N575 1.356 . S
N578 C570 1.356 . S
N578 H584 0.984 . S
N578 H585 0.984 . S
N579 C572 1.356 . S
N579 H582 0.984 . S
N579 H583 0.985 . S
H580 N575 0.984 . S
H581 N575 0.985 . S
H582 N579 0.984 . S
H583 N579 0.985 . S
H584 N578 0.984 . S
H585 N578 0.984 . S
H586 N574 0.984 . S
H587 N574 0.985 . S
C588 C589 1.363 . S
C588 C594 1.379 . S
C588 N596 1.356 . S
C589 C588 1.363 . S
C589 C595 1.363 . S
C590 C591 1.363 . S
C590 C595 1.379 1_556 S
C590 N597 1.356 . S
C591 C590 1.363 . S
C591 C594 1.363 1_556 S
N592 C594 1.356 . S
N592 H604 0.984 . S
N592 H605 0.985 . S
N593 C595 1.356 . S
N593 H598 0.984 . S
N593 H599 0.985 1_554 S
C594 C588 1.379 . S
C594 C591 1.363 1_554 S
C594 N592 1.356 . S
C595 C589 1.363 . S
C595 C590 1.379 1_554 S
C595 N593 1.356 . S
N596 C588 1.356 . S
N596 H602 0.984 . S
N596 H603 0.984 . S
N597 C590 1.356 . S
N597 H600 0.984 . S
N597 H601 0.985 . S
H598 N593 0.984 . S
H599 N593 0.985 1_556 S
H600 N597 0.984 . S
H601 N597 0.985 . S
H602 N596 0.984 . S
H603 N596 0.984 . S
H604 N592 0.984 . S
H605 N592 0.985 . S
C606 C607 1.363 . S
C606 C612 1.379 . S
C606 N614 1.356 . S
C607 C606 1.363 . S
C607 C613 1.363 . S
C608 C609 1.363 . S
C608 C613 1.379 . S
C608 N615 1.356 . S
C609 C608 1.363 . S
C609 C612 1.363 . S
N610 C612 1.356 . S
N610 H622 0.984 . S
N610 H623 0.985 . S
N611 C613 1.356 . S
N611 H616 0.984 . S
N611 H617 0.985 . S
C612 C606 1.379 . S
C612 C609 1.363 . S
C612 N610 1.356 . S
C613 C607 1.363 . S
C613 C608 1.379 . S
C613 N611 1.356 . S
N614 C606 1.356 . S
N614 H620 0.984 . S
N614 H621 0.984 . S
N615 C608 1.356 . S
N615 H618 0.984 . S
N615 H619 0.985 . S
H616 N611 0.984 . S
H617 N611 0.985 . S
H618 N615 0.984 . S
H619 N615 0.985 . S
H620 N614 0.984 . S
H621 N614 0.984 . S
H622 N610 0.984 . S
H623 N610 0.985 . S
C195 C185 1.472 . S
C193 C8 1.448 . S
C211 C26 1.450 . S
C213 C114 1.474 . S
C229 C50 1.454 . S
C231 C128 1.480 . S
C247 C68 1.449 . S
C249 C142 1.475 . S
C267 C156 1.473 . S
C265 C80 1.449 . S
C283 C104 1.450 . S
C285 C171 1.476 . S
C301 C32 1.454 . S
C303 C129 1.480 . S
C319 C44 1.450 . S
C321 C143 1.474 . S
C337 C62 1.448 . S
C339 C157 1.472 . S
C357 C170 1.476 . S
C355 C86 1.450 . S
C375 C184 1.473 . S
C373 C98 1.449 . S
C393 C115 1.475 . S
C391 C14 1.449 . S
C409 C7 1.490 . S
C411 C131 1.521 . S
C427 C25 1.487 . S
C429 C145 1.518 . S
C447 C159 1.516 . S
C445 C52 1.491 . S
C463 C70 1.494 . S
C465 C172 1.520 1_556 S
C483 C186 1.517 . S
C481 C79 1.486 . S
C501 C117 1.517 . S
C499 C106 1.491 . S
C519 C187 1.516 . S
C517 C34 1.491 . S
C535 C43 1.487 . S
C537 C116 1.518 . S
C555 C130 1.520 . S
C553 C61 1.489 . S
C571 C88 1.491 . S
C573 C144 1.517 . S
C589 C97 1.486 . S
C591 C158 1.517 . S
C607 C16 1.494 . S
C609 C173 1.520 . S
