# Generated by pormake.
# Topology bwt, (3,3)-cn, num edge types: 1
# Building blocks:
#     Node 0, Type 0, BuildingBlock: OLANEW_clean_sbu_2, # of connection points: 3
#     Node 1, Type 0, BuildingBlock: OLANEW_clean_sbu_2, # of connection points: 3
#     Node 2, Type 0, BuildingBlock: OLANEW_clean_sbu_2, # of connection points: 3
#     Node 3, Type 0, BuildingBlock: OLANEW_clean_sbu_2, # of connection points: 3
#     Node 4, Type 0, BuildingBlock: OLANEW_clean_sbu_2, # of connection points: 3
#     Node 5, Type 0, BuildingBlock: OLANEW_clean_sbu_2, # of connection points: 3
#     Node 6, Type 0, BuildingBlock: OLANEW_clean_sbu_2, # of connection points: 3
#     Node 7, Type 0, BuildingBlock: OLANEW_clean_sbu_2, # of connection points: 3
#     Node 8, Type 0, BuildingBlock: OLANEW_clean_sbu_2, # of connection points: 3
#     Node 9, Type 0, BuildingBlock: OLANEW_clean_sbu_2, # of connection points: 3
#     Node 10, Type 0, BuildingBlock: OLANEW_clean_sbu_2, # of connection points: 3
#     Node 11, Type 0, BuildingBlock: OLANEW_clean_sbu_2, # of connection points: 3
#     Node 12, Type 0, BuildingBlock: OLANEW_clean_sbu_2, # of connection points: 3
#     Node 13, Type 0, BuildingBlock: OLANEW_clean_sbu_2, # of connection points: 3
#     Node 14, Type 0, BuildingBlock: OLANEW_clean_sbu_2, # of connection points: 3
#     Node 15, Type 0, BuildingBlock: OLANEW_clean_sbu_2, # of connection points: 3
#     Node 16, Type 0, BuildingBlock: OLANEW_clean_sbu_2, # of connection points: 3
#     Node 17, Type 0, BuildingBlock: OLANEW_clean_sbu_2, # of connection points: 3
#     Node 18, Type 0, BuildingBlock: OLANEW_clean_sbu_2, # of connection points: 3
#     Node 19, Type 0, BuildingBlock: OLANEW_clean_sbu_2, # of connection points: 3
#     Node 20, Type 0, BuildingBlock: OLANEW_clean_sbu_2, # of connection points: 3
#     Node 21, Type 0, BuildingBlock: OLANEW_clean_sbu_2, # of connection points: 3
#     Node 22, Type 0, BuildingBlock: OLANEW_clean_sbu_2, # of connection points: 3
#     Node 23, Type 0, BuildingBlock: OLANEW_clean_sbu_2, # of connection points: 3
#     Node 24, Type 1, BuildingBlock: KAKCAD_clean_linker_0, # of connection points: 3
#     Node 25, Type 1, BuildingBlock: KAKCAD_clean_linker_0, # of connection points: 3
#     Node 26, Type 1, BuildingBlock: KAKCAD_clean_linker_0, # of connection points: 3
#     Node 27, Type 1, BuildingBlock: KAKCAD_clean_linker_0, # of connection points: 3
#     Node 28, Type 1, BuildingBlock: KAKCAD_clean_linker_0, # of connection points: 3
#     Node 29, Type 1, BuildingBlock: KAKCAD_clean_linker_0, # of connection points: 3
#     Node 30, Type 1, BuildingBlock: KAKCAD_clean_linker_0, # of connection points: 3
#     Node 31, Type 1, BuildingBlock: KAKCAD_clean_linker_0, # of connection points: 3
#     Node 32, Type 1, BuildingBlock: KAKCAD_clean_linker_0, # of connection points: 3
#     Node 33, Type 1, BuildingBlock: KAKCAD_clean_linker_0, # of connection points: 3
#     Node 34, Type 1, BuildingBlock: KAKCAD_clean_linker_0, # of connection points: 3
#     Node 35, Type 1, BuildingBlock: KAKCAD_clean_linker_0, # of connection points: 3
#     Node 36, Type 1, BuildingBlock: KAKCAD_clean_linker_0, # of connection points: 3
#     Node 37, Type 1, BuildingBlock: KAKCAD_clean_linker_0, # of connection points: 3
#     Node 38, Type 1, BuildingBlock: KAKCAD_clean_linker_0, # of connection points: 3
#     Node 39, Type 1, BuildingBlock: KAKCAD_clean_linker_0, # of connection points: 3
#     Node 40, Type 1, BuildingBlock: KAKCAD_clean_linker_0, # of connection points: 3
#     Node 41, Type 1, BuildingBlock: KAKCAD_clean_linker_0, # of connection points: 3
#     Node 42, Type 1, BuildingBlock: KAKCAD_clean_linker_0, # of connection points: 3
#     Node 43, Type 1, BuildingBlock: KAKCAD_clean_linker_0, # of connection points: 3
#     Node 44, Type 1, BuildingBlock: KAKCAD_clean_linker_0, # of connection points: 3
#     Node 45, Type 1, BuildingBlock: KAKCAD_clean_linker_0, # of connection points: 3
#     Node 46, Type 1, BuildingBlock: KAKCAD_clean_linker_0, # of connection points: 3
#     Node 47, Type 1, BuildingBlock: KAKCAD_clean_linker_0, # of connection points: 3
#     Edge 48, Type (0, 1), None
#     Edge 49, Type (0, 1), None
#     Edge 50, Type (0, 1), None
#     Edge 51, Type (0, 1), None
#     Edge 52, Type (0, 1), None
#     Edge 53, Type (0, 1), None
#     Edge 54, Type (0, 1), None
#     Edge 55, Type (0, 1), None
#     Edge 56, Type (0, 1), None
#     Edge 57, Type (0, 1), None
#     Edge 58, Type (0, 1), None
#     Edge 59, Type (0, 1), None
#     Edge 60, Type (0, 1), None
#     Edge 61, Type (0, 1), None
#     Edge 62, Type (0, 1), None
#     Edge 63, Type (0, 1), None
#     Edge 64, Type (0, 1), None
#     Edge 65, Type (0, 1), None
#     Edge 66, Type (0, 1), None
#     Edge 67, Type (0, 1), None
#     Edge 68, Type (0, 1), None
#     Edge 69, Type (0, 1), None
#     Edge 70, Type (0, 1), None
#     Edge 71, Type (0, 1), None
#     Edge 72, Type (0, 1), None
#     Edge 73, Type (0, 1), None
#     Edge 74, Type (0, 1), None
#     Edge 75, Type (0, 1), None
#     Edge 76, Type (0, 1), None
#     Edge 77, Type (0, 1), None
#     Edge 78, Type (0, 1), None
#     Edge 79, Type (0, 1), None
#     Edge 80, Type (0, 1), None
#     Edge 81, Type (0, 1), None
#     Edge 82, Type (0, 1), None
#     Edge 83, Type (0, 1), None
#     Edge 84, Type (0, 1), None
#     Edge 85, Type (0, 1), None
#     Edge 86, Type (0, 1), None
#     Edge 87, Type (0, 1), None
#     Edge 88, Type (0, 1), None
#     Edge 89, Type (0, 1), None
#     Edge 90, Type (0, 1), None
#     Edge 91, Type (0, 1), None
#     Edge 92, Type (0, 1), None
#     Edge 93, Type (0, 1), None
#     Edge 94, Type (0, 1), None
#     Edge 95, Type (0, 1), None
#     Edge 96, Type (0, 1), None
#     Edge 97, Type (0, 1), None
#     Edge 98, Type (0, 1), None
#     Edge 99, Type (0, 1), None
#     Edge 100, Type (0, 1), None
#     Edge 101, Type (0, 1), None
#     Edge 102, Type (0, 1), None
#     Edge 103, Type (0, 1), None
#     Edge 104, Type (0, 1), None
#     Edge 105, Type (0, 1), None
#     Edge 106, Type (0, 1), None
#     Edge 107, Type (0, 1), None
#     Edge 108, Type (0, 1), None
#     Edge 109, Type (0, 1), None
#     Edge 110, Type (0, 1), None
#     Edge 111, Type (0, 1), None
#     Edge 112, Type (0, 1), None
#     Edge 113, Type (0, 1), None
#     Edge 114, Type (0, 1), None
#     Edge 115, Type (0, 1), None
#     Edge 116, Type (0, 1), None
#     Edge 117, Type (0, 1), None
#     Edge 118, Type (0, 1), None
#     Edge 119, Type (0, 1), None
# Relax obj value: 0.129
# Max RMSD: 0.137
# Mean RMSD: 0.097
data_MOF--net-bwt--node1-OLANEW_clean_sbu_2--node2-KAKCAD_clean_linker_0--edge1-none
_symmetry_space_group_name_H-M    P1
_symmetry_Int_Tables_number       1
_symmetry_cell_setting            triclinic
loop_
_symmetry_equiv_pos_as_xyz
'x, y, z'
_cell_length_a     40.135246
_cell_length_b     40.135284
_cell_length_c     40.135238
_cell_angle_alpha  93.686829
_cell_angle_beta   93.686536
_cell_angle_gamma 93.686616
loop_
_atom_site_label
_atom_site_type_symbol
_atom_site_fract_x
_atom_site_fract_y
_atom_site_fract_z
_atom_type_partial_charge
O0 O 0.28532 0.55479 0.28857 0.0
Cd1 Cd 0.28837 0.54013 0.22892 0.0
O2 O 0.32889 0.59119 0.29543 0.0
Cd3 Cd 0.34829 0.57331 0.24864 0.0
O4 O 0.39423 0.54746 0.24518 0.0
C5 C 0.40631 0.54009 0.27365 0.0
O6 O 0.3898 0.54734 0.30011 0.0
C7 C 0.30358 0.57657 0.30702 0.0
C8 C 0.22514 0.51119 0.20719 0.0
O9 O 0.24839 0.49335 0.21791 0.0
O10 O 0.23229 0.54255 0.20522 0.0
O11 O 0.19327 0.42785 0.68642 0.0
Cd12 Cd 0.19702 0.42327 0.62584 0.0
O13 O 0.17675 0.37476 0.68852 0.0
Cd14 Cd 0.16292 0.37125 0.63489 0.0
O15 O 0.11383 0.38943 0.62362 0.0
C16 C 0.09263 0.37693 0.64228 0.0
O17 O 0.10184 0.35327 0.66139 0.0
C18 C 0.18627 0.40301 0.70343 0.0
C19 C 0.26059 0.44917 0.61369 0.0
O20 O 0.23533 0.46701 0.6108 0.0
O21 O 0.25553 0.41879 0.6212 0.0
O22 O 0.74757 0.95638 0.65743 0.0
Cd23 Cd 0.77362 0.96451 0.71442 0.0
O24 O 0.76746 0.00609 0.64492 0.0
Cd25 Cd 0.80376 0.01548 0.68768 0.0
O26 O 0.85441 0.03476 0.70468 0.0
C27 C 0.87813 0.02384 0.6885 0.0
O28 O 0.87109 0.00035 0.66427 0.0
C29 C 0.74899 0.97944 0.63716 0.0
C30 C 0.73374 0.00452 0.75225 0.0
O31 O 0.75709 0.01737 0.73582 0.0
O32 O 0.72977 0.97254 0.75165 0.0
O33 O 0.7337 0.06435 0.30495 0.0
Cd34 Cd 0.74708 0.05847 0.36442 0.0
O35 O 0.69405 0.02372 0.30069 0.0
Cd36 Cd 0.65532 0.98694 0.27677 0.0
O37 O 0.60953 0.95723 0.2574 0.0
C38 C 0.59133 0.9666 0.23308 0.0
O39 O 0.6008 0.99397 0.21896 0.0
C40 C 0.71186 0.04566 0.28693 0.0
C41 C 0.81223 0.0387 0.36896 0.0
O42 O 0.78714 0.01724 0.36325 0.0
O43 O 0.80648 0.06959 0.37413 0.0
O44 O 0.28828 0.28536 0.55489 0.0
Cd45 Cd 0.22859 0.28825 0.54033 0.0
O46 O 0.29505 0.32882 0.59142 0.0
Cd47 Cd 0.24811 0.34808 0.57373 0.0
O48 O 0.24441 0.39405 0.54797 0.0
C49 C 0.27274 0.40594 0.54006 0.0
O50 O 0.29919 0.38921 0.5467 0.0
C51 C 0.30671 0.30362 0.57669 0.0
C52 C 0.20699 0.22498 0.51139 0.0
O53 O 0.21762 0.24827 0.49354 0.0
O54 O 0.20505 0.23211 0.54276 0.0
O55 O 0.30477 0.7337 0.06441 0.0
Cd56 Cd 0.36425 0.74707 0.05859 0.0
O57 O 0.30055 0.69403 0.02381 0.0
Cd58 Cd 0.27666 0.65528 0.98703 0.0
O59 O 0.2573 0.60949 0.95732 0.0
C60 C 0.23296 0.5913 0.96669 0.0
O61 O 0.21882 0.60079 0.99403 0.0
C62 C 0.28677 0.71186 0.04572 0.0
C63 C 0.36883 0.81221 0.03881 0.0
O64 O 0.36314 0.78711 0.01734 0.0
O65 O 0.37398 0.80647 0.0697 0.0
O66 O 0.68631 0.19343 0.42789 0.0
Cd67 Cd 0.62572 0.19714 0.42329 0.0
O68 O 0.68842 0.17692 0.3748 0.0
Cd69 Cd 0.6348 0.16306 0.37127 0.0
O70 O 0.62352 0.11397 0.38944 0.0
C71 C 0.64218 0.09277 0.37693 0.0
O72 O 0.66128 0.10198 0.35326 0.0
C73 C 0.70333 0.18644 0.40305 0.0
C74 C 0.61356 0.26071 0.44916 0.0
O75 O 0.61068 0.23546 0.46701 0.0
O76 O 0.62105 0.25565 0.41879 0.0
O77 O 0.65739 0.74772 0.95639 0.0
Cd78 Cd 0.71437 0.77377 0.96459 0.0
O79 O 0.64482 0.76761 0.00608 0.0
Cd80 Cd 0.68758 0.8039 0.01552 0.0
O81 O 0.7046 0.85454 0.03483 0.0
C82 C 0.68846 0.87827 0.0239 0.0
O83 O 0.66423 0.87126 0.00041 0.0
C84 C 0.63709 0.74914 0.97942 0.0
C85 C 0.75217 0.73387 0.00461 0.0
O86 O 0.73571 0.75721 0.01746 0.0
O87 O 0.7516 0.72993 0.97263 0.0
O88 O 0.55491 0.28824 0.28538 0.0
Cd89 Cd 0.54021 0.22857 0.28827 0.0
O90 O 0.5914 0.29493 0.32887 0.0
Cd91 Cd 0.57354 0.24806 0.34815 0.0
O92 O 0.54772 0.24452 0.39411 0.0
C93 C 0.53993 0.2729 0.40599 0.0
O94 O 0.54673 0.29932 0.38927 0.0
C95 C 0.57674 0.30662 0.30364 0.0
C96 C 0.51125 0.20701 0.22501 0.0
O97 O 0.49342 0.21768 0.24829 0.0
O98 O 0.54261 0.20501 0.23214 0.0
O99 O 0.06448 0.30478 0.73371 0.0
Cd100 Cd 0.05871 0.36427 0.74712 0.0
O101 O 0.02387 0.30059 0.69405 0.0
Cd102 Cd 0.98705 0.27674 0.65532 0.0
O103 O 0.95731 0.25742 0.60953 0.0
C104 C 0.96665 0.23308 0.59133 0.0
O105 O 0.99398 0.21891 0.6008 0.0
C106 C 0.04577 0.2868 0.71187 0.0
C107 C 0.03896 0.36883 0.81227 0.0
O108 O 0.01749 0.36316 0.78718 0.0
O109 O 0.06986 0.37396 0.80652 0.0
O110 O 0.42792 0.68629 0.19292 0.0
Cd111 Cd 0.42339 0.6257 0.19662 0.0
O112 O 0.37475 0.68843 0.17674 0.0
Cd113 Cd 0.37118 0.63481 0.16288 0.0
O114 O 0.38936 0.62354 0.11379 0.0
C115 C 0.37686 0.64221 0.09259 0.0
O116 O 0.3532 0.66132 0.1018 0.0
C117 C 0.40304 0.70332 0.18611 0.0
C118 C 0.4493 0.61363 0.2602 0.0
O119 O 0.46716 0.61079 0.23495 0.0
O120 O 0.41889 0.62102 0.25512 0.0
O121 O 0.9562 0.65742 0.74766 0.0
Cd122 Cd 0.96431 0.71441 0.77371 0.0
O123 O 0.00591 0.64491 0.76756 0.0
Cd124 Cd 0.0153 0.68768 0.80385 0.0
O125 O 0.03462 0.70467 0.85449 0.0
C126 C 0.02372 0.68849 0.87822 0.0
O127 O 0.00024 0.66425 0.87119 0.0
C128 C 0.97925 0.63715 0.74908 0.0
C129 C 0.00431 0.75225 0.73384 0.0
O130 O 0.01717 0.73582 0.7572 0.0
O131 O 0.97233 0.75164 0.72986 0.0
O132 O 0.70805 0.37871 0.71022 0.0
Cd133 Cd 0.73816 0.36506 0.7614 0.0
O134 O 0.67403 0.41369 0.7321 0.0
Cd135 Cd 0.63674 0.45004 0.72383 0.0
O136 O 0.59544 0.475 0.70073 0.0
C137 C 0.56706 0.45879 0.69708 0.0
O138 O 0.56397 0.42876 0.70822 0.0
C139 C 0.68531 0.39899 0.70663 0.0
C140 C 0.80345 0.38657 0.75088 0.0
O141 O 0.79146 0.35722 0.74009 0.0
O142 O 0.78526 0.40491 0.76849 0.0
O143 O 0.79051 0.64702 0.2965 0.0
Cd144 Cd 0.76897 0.64571 0.35167 0.0
O145 O 0.83456 0.61935 0.30858 0.0
Cd146 Cd 0.87993 0.5935 0.29961 0.0
O147 O 0.91441 0.56025 0.27697 0.0
C148 C 0.9455 0.56217 0.28567 0.0
O149 O 0.95748 0.5848 0.30925 0.0
C150 C 0.81613 0.63301 0.28706 0.0
C151 C 0.71173 0.60212 0.34333 0.0
O152 O 0.71067 0.63298 0.33723 0.0
O153 O 0.73969 0.59205 0.35458 0.0
O154 O 0.21251 0.00283 0.25693 0.0
Cd155 Cd 0.22139 0.00447 0.19728 0.0
O156 O 0.17494 0.04012 0.25476 0.0
Cd157 Cd 0.14426 0.07904 0.27536 0.0
O158 O 0.1218 0.12679 0.28575 0.0
C159 C 0.09238 0.13088 0.29462 0.0
O160 O 0.08202 0.16128 0.29693 0.0
C161 C 0.19272 0.02128 0.27179 0.0
C162 C 0.28111 0.97534 0.18529 0.0
O163 O 0.28113 0.00607 0.19613 0.0
O164 O 0.25284 0.95862 0.17926 0.0
O165 O 0.26658 0.98946 0.80948 0.0
Cd166 Cd 0.25085 0.98894 0.74964 0.0
O167 O 0.3141 0.01809 0.80429 0.0
Cd168 Cd 0.36488 0.03808 0.82057 0.0
O169 O 0.41774 0.05513 0.82766 0.0
C170 C 0.43781 0.04356 0.80729 0.0
O171 O 0.42606 0.02158 0.78302 0.0
C172 C 0.29411 0.00322 0.82268 0.0
C173 C 0.19256 0.02141 0.73729 0.0
O174 O 0.1913 0.99084 0.74485 0.0
O175 O 0.22139 0.03663 0.73549 0.0
O176 O 0.71039 0.70826 0.37879 0.0
Cd177 Cd 0.7616 0.73837 0.36522 0.0
O178 O 0.73217 0.67421 0.4138 0.0
Cd179 Cd 0.72381 0.6369 0.45011 0.0
O180 O 0.70069 0.59559 0.47505 0.0
C181 C 0.69702 0.56722 0.45882 0.0
O182 O 0.70815 0.56414 0.42879 0.0
C183 C 0.70674 0.68552 0.39906 0.0
C184 C 0.75103 0.80367 0.38668 0.0
O185 O 0.7403 0.79166 0.35732 0.0
O186 O 0.76863 0.78549 0.40505 0.0
O187 O 0.80964 0.26669 0.98963 0.0
Cd188 Cd 0.74981 0.25097 0.98915 0.0
O189 O 0.80446 0.31423 0.01821 0.0
Cd190 Cd 0.82073 0.36503 0.03815 0.0
O191 O 0.82779 0.41791 0.05518 0.0
C192 C 0.8074 0.43795 0.04361 0.0
O193 O 0.78313 0.42618 0.02164 0.0
C194 C 0.82285 0.29423 0.00336 0.0
C195 C 0.73745 0.19268 0.02162 0.0
O196 O 0.745 0.19142 0.99105 0.0
O197 O 0.73566 0.22151 0.03684 0.0
O198 O 0.29614 0.79041 0.64731 0.0
Cd199 Cd 0.3512 0.76862 0.64613 0.0
O200 O 0.30835 0.83438 0.61957 0.0
Cd201 Cd 0.29949 0.87973 0.59364 0.0
O202 O 0.27693 0.91422 0.56036 0.0
C203 C 0.28561 0.94531 0.5623 0.0
O204 O 0.30916 0.95729 0.58497 0.0
C205 C 0.28678 0.81602 0.63325 0.0
C206 C 0.34269 0.71137 0.60257 0.0
O207 O 0.3365 0.71035 0.63341 0.0
O208 O 0.3541 0.73928 0.59251 0.0
O209 O 0.25675 0.21248 0.00287 0.0
Cd210 Cd 0.1971 0.22133 0.00452 0.0
O211 O 0.2546 0.1749 0.04016 0.0
Cd212 Cd 0.27521 0.14423 0.07907 0.0
O213 O 0.28564 0.12178 0.12682 0.0
C214 C 0.29452 0.09236 0.13091 0.0
O215 O 0.29684 0.082 0.16132 0.0
C216 C 0.27162 0.19269 0.02132 0.0
C217 C 0.18509 0.28107 0.97541 0.0
O218 O 0.19593 0.28107 0.00614 0.0
O219 O 0.17906 0.2528 0.95868 0.0
O220 O 0.37877 0.71028 0.70803 0.0
Cd221 Cd 0.36512 0.76145 0.73814 0.0
O222 O 0.41361 0.73213 0.67385 0.0
Cd223 Cd 0.44984 0.72383 0.63645 0.0
O224 O 0.4748 0.70075 0.59514 0.0
C225 C 0.45858 0.69705 0.56677 0.0
O226 O 0.42853 0.70814 0.56369 0.0
C227 C 0.39898 0.70667 0.68522 0.0
C228 C 0.3866 0.75092 0.80345 0.0
O229 O 0.35726 0.74014 0.79143 0.0
O230 O 0.40495 0.76854 0.78527 0.0
O231 O 0.98952 0.80943 0.26668 0.0
Cd232 Cd 0.98901 0.7496 0.25095 0.0
O233 O 0.01814 0.80425 0.3142 0.0
Cd234 Cd 0.0381 0.82053 0.36499 0.0
O235 O 0.05511 0.82764 0.41787 0.0
C236 C 0.04354 0.80728 0.43792 0.0
O237 O 0.02157 0.783 0.42617 0.0
C238 C 0.00327 0.82264 0.2942 0.0
C239 C 0.02145 0.73726 0.19264 0.0
O240 O 0.99088 0.74481 0.1914 0.0
O241 O 0.03668 0.73546 0.22147 0.0
O242 O 0.647 0.29635 0.79038 0.0
Cd243 Cd 0.64579 0.35145 0.76867 0.0
O244 O 0.6193 0.30851 0.83439 0.0
Cd245 Cd 0.59342 0.2996 0.87975 0.0
O246 O 0.56016 0.277 0.91425 0.0
C247 C 0.5621 0.28569 0.94535 0.0
O248 O 0.58475 0.30925 0.95733 0.0
C249 C 0.63296 0.28696 0.816 0.0
C250 C 0.60225 0.34302 0.71141 0.0
O251 O 0.63309 0.33684 0.71039 0.0
O252 O 0.59217 0.35438 0.73932 0.0
O253 O 0.00286 0.25681 0.21247 0.0
Cd254 Cd 0.00447 0.19717 0.22137 0.0
O255 O 0.04019 0.25463 0.17494 0.0
Cd256 Cd 0.07915 0.27522 0.1443 0.0
O257 O 0.12692 0.28561 0.12188 0.0
C258 C 0.13103 0.2945 0.09246 0.0
O259 O 0.16144 0.29679 0.08212 0.0
C260 C 0.02133 0.27167 0.1927 0.0
C261 C 0.97533 0.18523 0.28111 0.0
O262 O 0.00607 0.19604 0.28112 0.0
O263 O 0.9586 0.17919 0.25283 0.0
C264 C 0.2704 0.56462 0.35612 0.0
C265 C 0.29783 0.58158 0.34301 0.0
C266 C 0.26806 0.56441 0.39067 0.0
C267 C 0.29311 0.58113 0.41284 0.0
C268 C 0.31935 0.59994 0.39973 0.0
C269 C 0.32168 0.60019 0.36515 0.0
C270 C 0.29373 0.57631 0.44924 0.0
C271 C 0.28715 0.54417 0.4602 0.0
C272 C 0.29075 0.53862 0.49421 0.0
C273 C 0.30102 0.56526 0.51762 0.0
C274 C 0.30717 0.59786 0.50738 0.0
C275 C 0.30318 0.60308 0.47299 0.0
C276 C 0.31779 0.62629 0.53245 0.0
C277 C 0.30596 0.62718 0.56476 0.0
C278 C 0.33941 0.65312 0.52418 0.0
C279 C 0.34779 0.6806 0.54703 0.0
C280 C 0.33555 0.68153 0.57903 0.0
C281 C 0.28576 0.50445 0.50506 0.0
C282 C 0.2535 0.49052 0.50933 0.0
C283 C 0.31343 0.48564 0.51104 0.0
C284 C 0.309 0.45327 0.52156 0.0
C285 C 0.27678 0.43929 0.52657 0.0
C286 C 0.24903 0.45818 0.52016 0.0
C287 C 0.31504 0.65427 0.58786 0.0
H288 H 0.25141 0.55029 0.33976 0.0
H289 H 0.24722 0.55021 0.40005 0.0
H290 H 0.33916 0.61292 0.41615 0.0
H291 H 0.34312 0.61354 0.3559 0.0
H292 H 0.28053 0.52307 0.44223 0.0
H293 H 0.30712 0.62801 0.46451 0.0
H294 H 0.30462 0.56027 0.54373 0.0
H295 H 0.2889 0.6074 0.57209 0.0
H296 H 0.34988 0.65308 0.49999 0.0
H297 H 0.36371 0.7012 0.5395 0.0
H298 H 0.23189 0.50483 0.5047 0.0
H299 H 0.33848 0.4961 0.50779 0.0
H300 H 0.30506 0.65433 0.6123 0.0
H301 H 0.22394 0.44817 0.52391 0.0
H302 H 0.33094 0.43953 0.52645 0.0
C303 C 0.20856 0.43335 0.75742 0.0
C304 C 0.18776 0.40746 0.74033 0.0
C305 C 0.20912 0.43837 0.79223 0.0
C306 C 0.18832 0.41804 0.81073 0.0
C307 C 0.16738 0.3922 0.79342 0.0
C308 C 0.16737 0.38676 0.75867 0.0
C309 C 0.18863 0.4236 0.84787 0.0
C310 C 0.19346 0.45606 0.86357 0.0
C311 C 0.19491 0.46132 0.89861 0.0
C312 C 0.19007 0.43368 0.91802 0.0
C313 C 0.18513 0.40096 0.90291 0.0
C314 C 0.18486 0.39629 0.86785 0.0
C315 C 0.1822 0.37138 0.92351 0.0
C316 C 0.20131 0.3708 0.95411 0.0
C317 C 0.1617 0.34266 0.9118 0.0
C318 C 0.16187 0.31356 0.92916 0.0
C319 C 0.18192 0.31275 0.95902 0.0
C320 C 0.20317 0.49547 0.91496 0.0
C321 C 0.22861 0.51657 0.90331 0.0
C322 C 0.18674 0.50676 0.94301 0.0
C323 C 0.19597 0.53814 0.95939 0.0
C324 C 0.2219 0.55891 0.94815 0.0
C325 C 0.23786 0.54791 0.91969 0.0
C326 C 0.20091 0.34191 0.97181 0.0
H327 H 0.22467 0.44959 0.74389 0.0
H328 H 0.22612 0.45803 0.80461 0.0
H329 H 0.15054 0.37642 0.80661 0.0
H330 H 0.15071 0.3669 0.74607 0.0
H331 H 0.1959 0.47744 0.84855 0.0
H332 H 0.18296 0.37112 0.85611 0.0
H333 H 0.1909 0.43764 0.94502 0.0
H334 H 0.21773 0.39215 0.96381 0.0
H335 H 0.14593 0.3424 0.88884 0.0
H336 H 0.14666 0.29155 0.91894 0.0
H337 H 0.24208 0.50848 0.88202 0.0
H338 H 0.16677 0.49131 0.95237 0.0
H339 H 0.21673 0.34196 0.99473 0.0
H340 H 0.25794 0.56324 0.91037 0.0
H341 H 0.18303 0.54589 0.98114 0.0
C342 C 0.7147 0.94387 0.59199 0.0
C343 C 0.73118 0.97481 0.60355 0.0
C344 C 0.70157 0.9386 0.55878 0.0
C345 C 0.70459 0.96418 0.53657 0.0
C346 C 0.71946 0.99562 0.5487 0.0
C347 C 0.73256 0.00087 0.58178 0.0
C348 C 0.69568 0.95733 0.50018 0.0
C349 C 0.68065 0.98134 0.48136 0.0
C350 C 0.67648 0.97687 0.44628 0.0
C351 C 0.6872 0.94769 0.43014 0.0
C352 C 0.70237 0.92344 0.44853 0.0
C353 C 0.70588 0.92825 0.4836 0.0
C354 C 0.71606 0.89391 0.43119 0.0
C355 C 0.69922 0.87771 0.4022 0.0
C356 C 0.74609 0.88151 0.4437 0.0
C357 C 0.75807 0.85276 0.42861 0.0
C358 C 0.74073 0.83617 0.40023 0.0
C359 C 0.66436 0.00425 0.42642 0.0
C360 C 0.63854 0.02369 0.43709 0.0
C361 C 0.68035 0.01265 0.39769 0.0
C362 C 0.67167 0.04041 0.38081 0.0
C363 C 0.64706 0.06074 0.39225 0.0
C364 C 0.62999 0.05173 0.42018 0.0
C365 C 0.71159 0.84931 0.38673 0.0
H366 H 0.713 0.92335 0.60818 0.0
H367 H 0.68988 0.91421 0.55023 0.0
H368 H 0.72257 0.01574 0.53219 0.0
H369 H 0.74489 0.02511 0.5899 0.0
H370 H 0.6735 0.00421 0.49399 0.0
H371 H 0.71773 0.90985 0.49804 0.0
H372 H 0.6847 0.94442 0.40308 0.0
H373 H 0.67592 0.8863 0.39198 0.0
H374 H 0.76036 0.89388 0.46533 0.0
H375 H 0.78073 0.8433 0.43941 0.0
H376 H 0.62544 0.01764 0.45891 0.0
H377 H 0.70076 0.99876 0.38902 0.0
H378 H 0.6975 0.83682 0.36502 0.0
H379 H 0.61083 0.06689 0.42961 0.0
H380 H 0.68541 0.04683 0.35962 0.0
C381 C 0.73795 0.06017 0.23452 0.0
C382 C 0.70972 0.04803 0.25025 0.0
C383 C 0.73735 0.06005 0.19969 0.0
C384 C 0.70865 0.04749 0.18 0.0
C385 C 0.68004 0.03645 0.19557 0.0
C386 C 0.68042 0.03726 0.23045 0.0
C387 C 0.70889 0.04507 0.14323 0.0
C388 C 0.70422 0.01374 0.12554 0.0
C389 C 0.70527 0.01091 0.0906 0.0
C390 C 0.70981 0.04007 0.07333 0.0
C391 C 0.71464 0.0718 0.0908 0.0
C392 C 0.71465 0.07386 0.12593 0.0
C393 C 0.72 0.10271 0.07258 0.0
C394 C 0.73812 0.10244 0.04368 0.0
C395 C 0.70733 0.13292 0.08417 0.0
C396 C 0.71316 0.16216 0.06773 0.0
C397 C 0.73118 0.16174 0.03891 0.0
C398 C 0.70217 0.97738 0.07241 0.0
C399 C 0.72014 0.95126 0.08459 0.0
C400 C 0.68097 0.97107 0.04315 0.0
C401 C 0.6771 0.93903 0.02695 0.0
C402 C 0.69454 0.91272 0.03954 0.0
C403 C 0.71645 0.91931 0.06828 0.0
C404 C 0.74336 0.13155 0.02686 0.0
H405 H 0.76087 0.0689 0.24907 0.0
H406 H 0.75964 0.06878 0.18809 0.0
H407 H 0.65741 0.02734 0.18071 0.0
H408 H 0.65773 0.02981 0.2418 0.0
H409 H 0.70012 0.99149 0.13911 0.0
H410 H 0.7192 0.09784 0.14006 0.0
H411 H 0.70983 0.03791 0.0463 0.0
H412 H 0.74884 0.07991 0.03429 0.0
H413 H 0.69263 0.13405 0.10586 0.0
H414 H 0.70318 0.18501 0.07739 0.0
H415 H 0.73705 0.95555 0.10682 0.0
H416 H 0.6667 0.99069 0.03329 0.0
H417 H 0.75756 0.13056 0.0048 0.0
H418 H 0.73029 0.89963 0.07862 0.0
H419 H 0.66003 0.93479 0.00484 0.0
C420 C 0.35588 0.27058 0.56463 0.0
C421 C 0.34272 0.29796 0.58163 0.0
C422 C 0.39044 0.26833 0.56439 0.0
C423 C 0.41258 0.2934 0.58111 0.0
C424 C 0.39942 0.3196 0.59994 0.0
C425 C 0.36484 0.32185 0.60023 0.0
C426 C 0.44897 0.29408 0.57628 0.0
C427 C 0.45995 0.28749 0.54415 0.0
C428 C 0.49396 0.29115 0.53861 0.0
C429 C 0.51736 0.30146 0.56524 0.0
C430 C 0.50711 0.3076 0.59784 0.0
C431 C 0.47272 0.30357 0.60305 0.0
C432 C 0.53217 0.31822 0.62628 0.0
C433 C 0.56448 0.30639 0.62717 0.0
C434 C 0.52388 0.33981 0.65312 0.0
C435 C 0.54672 0.34816 0.68061 0.0
C436 C 0.57872 0.33592 0.68155 0.0
C437 C 0.50483 0.2861 0.50445 0.0
C438 C 0.50891 0.25381 0.4905 0.0
C439 C 0.51104 0.31376 0.48567 0.0
C440 C 0.52159 0.30927 0.45332 0.0
C441 C 0.5264 0.27702 0.43932 0.0
C442 C 0.51978 0.24928 0.45818 0.0
C443 C 0.58757 0.31545 0.65427 0.0
H444 H 0.33954 0.25157 0.55031 0.0
H445 H 0.39985 0.24751 0.55017 0.0
H446 H 0.41581 0.33944 0.61292 0.0
H447 H 0.35555 0.34326 0.6136 0.0
H448 H 0.44199 0.28083 0.52305 0.0
H449 H 0.46423 0.30751 0.62798 0.0
H450 H 0.54346 0.30509 0.56026 0.0
H451 H 0.57182 0.28935 0.60738 0.0
H452 H 0.49969 0.35027 0.65308 0.0
H453 H 0.53919 0.36407 0.70123 0.0
H454 H 0.50411 0.23221 0.50477 0.0
H455 H 0.50794 0.33884 0.49614 0.0
H456 H 0.61201 0.30547 0.65433 0.0
H457 H 0.52337 0.22417 0.44815 0.0
H458 H 0.52665 0.3312 0.4396 0.0
C459 C 0.23434 0.73796 0.06014 0.0
C460 C 0.25008 0.70972 0.04804 0.0
C461 C 0.19951 0.73736 0.05999 0.0
C462 C 0.17983 0.70865 0.04744 0.0
C463 C 0.19541 0.68004 0.03644 0.0
C464 C 0.23029 0.68041 0.03728 0.0
C465 C 0.14306 0.70888 0.04501 0.0
C466 C 0.12537 0.70422 0.01368 0.0
C467 C 0.09043 0.70526 0.01085 0.0
C468 C 0.07316 0.70975 0.04001 0.0
C469 C 0.09062 0.71457 0.07174 0.0
C470 C 0.12576 0.71461 0.07381 0.0
C471 C 0.07239 0.7199 0.10265 0.0
C472 C 0.04349 0.738 0.1024 0.0
C473 C 0.084 0.7072 0.13285 0.0
C474 C 0.06756 0.713 0.16209 0.0
C475 C 0.03873 0.73101 0.16169 0.0
C476 C 0.07224 0.70216 0.97732 0.0
C477 C 0.08441 0.72015 0.95121 0.0
C478 C 0.04299 0.68095 0.971 0.0
C479 C 0.02678 0.67709 0.93896 0.0
C480 C 0.03937 0.69456 0.91266 0.0
C481 C 0.0681 0.71648 0.91925 0.0
C482 C 0.02668 0.74321 0.13152 0.0
H483 H 0.24888 0.76089 0.06886 0.0
H484 H 0.18789 0.75966 0.06869 0.0
H485 H 0.18056 0.65739 0.02734 0.0
H486 H 0.24165 0.65772 0.02987 0.0
H487 H 0.13895 0.70014 0.99143 0.0
H488 H 0.13988 0.71914 0.09778 0.0
H489 H 0.04612 0.70976 0.03785 0.0
H490 H 0.03409 0.74873 0.07988 0.0
H491 H 0.10569 0.6925 0.13396 0.0
H492 H 0.07722 0.70301 0.18494 0.0
H493 H 0.10663 0.73707 0.9555 0.0
H494 H 0.03314 0.66666 0.99061 0.0
H495 H 0.00461 0.7574 0.13055 0.0
H496 H 0.07842 0.73034 0.89959 0.0
H497 H 0.00469 0.66001 0.93471 0.0
C498 C 0.75731 0.20874 0.43341 0.0
C499 C 0.74022 0.18794 0.40751 0.0
C500 C 0.79212 0.20931 0.43842 0.0
C501 C 0.81063 0.18854 0.41809 0.0
C502 C 0.79333 0.1676 0.39224 0.0
C503 C 0.75858 0.16757 0.3868 0.0
C504 C 0.84777 0.18886 0.42364 0.0
C505 C 0.86348 0.19369 0.4561 0.0
C506 C 0.89851 0.19513 0.46135 0.0
C507 C 0.91793 0.19029 0.43371 0.0
C508 C 0.90281 0.18537 0.40099 0.0
C509 C 0.86775 0.18511 0.39632 0.0
C510 C 0.9234 0.18242 0.37141 0.0
C511 C 0.95402 0.20151 0.37083 0.0
C512 C 0.91169 0.16193 0.34269 0.0
C513 C 0.92905 0.16208 0.3136 0.0
C514 C 0.95893 0.1821 0.31278 0.0
C515 C 0.91487 0.20336 0.4955 0.0
C516 C 0.90324 0.2288 0.51662 0.0
C517 C 0.94291 0.18691 0.50678 0.0
C518 C 0.95931 0.19612 0.53815 0.0
C519 C 0.94809 0.22204 0.55895 0.0
C520 C 0.91964 0.23802 0.54796 0.0
C521 C 0.97173 0.20108 0.34194 0.0
H522 H 0.74377 0.22483 0.44965 0.0
H523 H 0.80449 0.22632 0.45809 0.0
H524 H 0.80653 0.15077 0.37645 0.0
H525 H 0.74599 0.15091 0.36694 0.0
H526 H 0.84846 0.19612 0.47749 0.0
H527 H 0.85601 0.18322 0.37116 0.0
H528 H 0.94492 0.19111 0.43767 0.0
H529 H 0.96373 0.21793 0.39217 0.0
H530 H 0.88871 0.14618 0.34243 0.0
H531 H 0.91882 0.14686 0.29159 0.0
H532 H 0.88196 0.24228 0.50855 0.0
H533 H 0.95226 0.16694 0.49131 0.0
H534 H 0.99465 0.21689 0.34199 0.0
H535 H 0.91033 0.2581 0.56331 0.0
H536 H 0.98106 0.18316 0.54589 0.0
C537 C 0.59195 0.71485 0.94381 0.0
C538 C 0.60348 0.73133 0.97476 0.0
C539 C 0.55875 0.7017 0.93851 0.0
C540 C 0.53651 0.70471 0.96407 0.0
C541 C 0.5486 0.71959 0.99551 0.0
C542 C 0.58168 0.73271 0.0008 0.0
C543 C 0.50013 0.69576 0.9572 0.0
C544 C 0.48131 0.68072 0.9812 0.0
C545 C 0.44624 0.67651 0.97671 0.0
C546 C 0.4301 0.6872 0.94752 0.0
C547 C 0.44849 0.70238 0.92326 0.0
C548 C 0.48355 0.70593 0.9281 0.0
C549 C 0.43115 0.71603 0.89371 0.0
C550 C 0.40217 0.69916 0.87751 0.0
C551 C 0.44363 0.74607 0.8813 0.0
C552 C 0.42853 0.75802 0.85254 0.0
C553 C 0.40016 0.74063 0.83596 0.0
C554 C 0.42637 0.66439 0.00408 0.0
C555 C 0.43704 0.63858 0.02353 0.0
C556 C 0.39763 0.68038 0.01247 0.0
C557 C 0.38075 0.6717 0.04023 0.0
C558 C 0.39219 0.6471 0.06057 0.0
C559 C 0.42013 0.63003 0.05157 0.0
C560 C 0.38669 0.71149 0.8491 0.0
H561 H 0.60816 0.71315 0.92331 0.0
H562 H 0.55022 0.69001 0.91411 0.0
H563 H 0.53208 0.72269 0.01562 0.0
H564 H 0.58977 0.74504 0.02504 0.0
H565 H 0.49394 0.67359 0.00408 0.0
H566 H 0.498 0.71779 0.9097 0.0
H567 H 0.40304 0.68468 0.94423 0.0
H568 H 0.39198 0.67585 0.88612 0.0
H569 H 0.46525 0.76036 0.89367 0.0
H570 H 0.4393 0.78068 0.84307 0.0
H571 H 0.45887 0.62549 0.01749 0.0
H572 H 0.38896 0.70078 0.99858 0.0
H573 H 0.365 0.69738 0.83662 0.0
H574 H 0.42955 0.61088 0.06674 0.0
H575 H 0.35956 0.68544 0.04664 0.0
C576 C 0.56479 0.35585 0.27064 0.0
C577 C 0.58177 0.34263 0.298 0.0
C578 C 0.5646 0.39041 0.26843 0.0
C579 C 0.58136 0.4125 0.29352 0.0
C580 C 0.60019 0.39928 0.31969 0.0
C581 C 0.60042 0.36469 0.32189 0.0
C582 C 0.57655 0.4489 0.29429 0.0
C583 C 0.54441 0.45991 0.28779 0.0
C584 C 0.53886 0.4939 0.29166 0.0
C585 C 0.5655 0.51726 0.30207 0.0
C586 C 0.59812 0.507 0.30805 0.0
C587 C 0.60333 0.47262 0.30385 0.0
C588 C 0.62658 0.53204 0.31865 0.0
C589 C 0.62739 0.56441 0.30694 0.0
C590 C 0.65352 0.5237 0.34008 0.0
C591 C 0.68102 0.54653 0.3484 0.0
C592 C 0.68187 0.57859 0.33628 0.0
C593 C 0.5047 0.5048 0.2867 0.0
C594 C 0.4904 0.50817 0.25439 0.0
C595 C 0.48628 0.51178 0.31445 0.0
C596 C 0.45394 0.52237 0.31004 0.0
C597 C 0.43962 0.52651 0.27775 0.0
C598 C 0.45812 0.51913 0.24993 0.0
C599 C 0.65451 0.58749 0.31597 0.0
H600 H 0.55043 0.33955 0.25162 0.0
H601 H 0.55038 0.39987 0.24764 0.0
H602 H 0.61321 0.41563 0.33954 0.0
H603 H 0.61379 0.35536 0.34329 0.0
H604 H 0.52332 0.44196 0.28106 0.0
H605 H 0.62827 0.46412 0.30769 0.0
H606 H 0.56052 0.54334 0.30585 0.0
H607 H 0.60753 0.57179 0.29001 0.0
H608 H 0.65354 0.49946 0.35045 0.0
H609 H 0.70171 0.53896 0.36418 0.0
H610 H 0.5044 0.50277 0.23272 0.0
H611 H 0.49702 0.50923 0.33955 0.0
H612 H 0.65449 0.61197 0.30608 0.0
H613 H 0.44783 0.52218 0.22478 0.0
H614 H 0.44051 0.52804 0.33203 0.0
C615 C 0.06018 0.23435 0.73795 0.0
C616 C 0.04807 0.2501 0.70973 0.0
C617 C 0.06001 0.19952 0.73735 0.0
C618 C 0.04743 0.17985 0.70865 0.0
C619 C 0.03642 0.19544 0.68004 0.0
C620 C 0.03728 0.23032 0.68043 0.0
C621 C 0.04499 0.14308 0.70887 0.0
C622 C 0.01365 0.12541 0.70422 0.0
C623 C 0.0108 0.09047 0.70526 0.0
C624 C 0.03995 0.07318 0.70976 0.0
C625 C 0.07169 0.09062 0.71457 0.0
C626 C 0.07377 0.12576 0.7146 0.0
C627 C 0.10259 0.07239 0.7199 0.0
C628 C 0.10233 0.04348 0.73801 0.0
C629 C 0.1328 0.08398 0.70721 0.0
C630 C 0.16203 0.06753 0.71301 0.0
C631 C 0.16161 0.0387 0.73103 0.0
C632 C 0.97726 0.07229 0.70216 0.0
C633 C 0.95116 0.08448 0.72016 0.0
C634 C 0.97093 0.04305 0.68096 0.0
C635 C 0.93888 0.02685 0.67711 0.0
C636 C 0.91259 0.03946 0.69457 0.0
C637 C 0.9192 0.06819 0.71649 0.0
C638 C 0.13144 0.02666 0.74323 0.0
H639 H 0.06893 0.24889 0.76088 0.0
H640 H 0.06873 0.1879 0.75964 0.0
H641 H 0.02729 0.1806 0.65741 0.0
H642 H 0.02985 0.24169 0.65774 0.0
H643 H 0.99141 0.13899 0.70014 0.0
H644 H 0.09776 0.13987 0.71914 0.0
H645 H 0.03777 0.04614 0.70977 0.0
H646 H 0.0798 0.0341 0.74874 0.0
H647 H 0.13392 0.10566 0.69251 0.0
H648 H 0.18488 0.07718 0.70303 0.0
H649 H 0.95547 0.1067 0.73708 0.0
H650 H 0.99053 0.03318 0.66667 0.0
H651 H 0.13045 0.0046 0.75743 0.0
H652 H 0.89954 0.07853 0.73035 0.0
H653 H 0.93462 0.00476 0.66002 0.0
C654 C 0.43343 0.75727 0.20843 0.0
C655 C 0.4075 0.74021 0.18765 0.0
C656 C 0.43845 0.79209 0.20904 0.0
C657 C 0.41809 0.81062 0.18833 0.0
C658 C 0.39221 0.79335 0.16741 0.0
C659 C 0.38677 0.7586 0.16734 0.0
C660 C 0.42364 0.84777 0.1887 0.0
C661 C 0.4561 0.86348 0.19353 0.0
C662 C 0.46136 0.89851 0.19503 0.0
C663 C 0.43371 0.91793 0.19023 0.0
C664 C 0.40099 0.90282 0.1853 0.0
C665 C 0.39632 0.86776 0.18499 0.0
C666 C 0.37141 0.92342 0.18239 0.0
C667 C 0.37083 0.95401 0.20152 0.0
C668 C 0.34269 0.91172 0.16189 0.0
C669 C 0.3136 0.92909 0.16207 0.0
C670 C 0.31279 0.95894 0.18213 0.0
C671 C 0.49551 0.91486 0.20328 0.0
C672 C 0.51662 0.90319 0.22869 0.0
C673 C 0.50678 0.94294 0.18688 0.0
C674 C 0.53816 0.95932 0.19611 0.0
C675 C 0.55895 0.94806 0.22201 0.0
C676 C 0.54796 0.91958 0.23794 0.0
C677 C 0.34195 0.97172 0.20112 0.0
H678 H 0.4497 0.74371 0.22447 0.0
H679 H 0.45814 0.80443 0.22604 0.0
H680 H 0.3764 0.80657 0.15062 0.0
H681 H 0.36688 0.74603 0.1507 0.0
H682 H 0.47749 0.84845 0.19592 0.0
H683 H 0.37116 0.85602 0.1831 0.0
H684 H 0.43767 0.94493 0.19109 0.0
H685 H 0.39218 0.9637 0.21795 0.0
H686 H 0.34242 0.88877 0.14611 0.0
H687 H 0.29158 0.91888 0.14685 0.0
H688 H 0.50856 0.88188 0.24214 0.0
H689 H 0.49131 0.95231 0.16693 0.0
H690 H 0.342 0.99462 0.21696 0.0
H691 H 0.56331 0.91023 0.25801 0.0
H692 H 0.54589 0.9811 0.18319 0.0
C693 C 0.94369 0.59198 0.71478 0.0
C694 C 0.97463 0.60354 0.73127 0.0
C695 C 0.93842 0.55877 0.70164 0.0
C696 C 0.964 0.53656 0.70467 0.0
C697 C 0.99543 0.54868 0.71956 0.0
C698 C 0.00068 0.58177 0.73267 0.0
C699 C 0.95716 0.50017 0.69574 0.0
C700 C 0.98118 0.48137 0.68071 0.0
C701 C 0.97672 0.44629 0.67652 0.0
C702 C 0.94752 0.43014 0.6872 0.0
C703 C 0.92325 0.44852 0.70236 0.0
C704 C 0.92807 0.48358 0.7059 0.0
C705 C 0.89371 0.43116 0.71601 0.0
C706 C 0.87753 0.40218 0.69914 0.0
C707 C 0.88128 0.44364 0.74603 0.0
C708 C 0.85252 0.42853 0.75798 0.0
C709 C 0.83596 0.40015 0.7406 0.0
C710 C 0.00411 0.42643 0.66442 0.0
C711 C 0.02356 0.4371 0.63862 0.0
C712 C 0.0125 0.3977 0.68042 0.0
C713 C 0.04026 0.38083 0.67176 0.0
C714 C 0.06061 0.39227 0.64716 0.0
C715 C 0.05161 0.42019 0.63008 0.0
C716 C 0.84912 0.38668 0.71147 0.0
H717 H 0.92317 0.60817 0.71307 0.0
H718 H 0.91404 0.55022 0.68994 0.0
H719 H 0.01555 0.53217 0.72268 0.0
H720 H 0.02492 0.58988 0.74501 0.0
H721 H 0.00406 0.494 0.67359 0.0
H722 H 0.90965 0.49802 0.71774 0.0
H723 H 0.94426 0.40308 0.68469 0.0
H724 H 0.88615 0.39198 0.67584 0.0
H725 H 0.89363 0.46527 0.76033 0.0
H726 H 0.84304 0.4393 0.78064 0.0
H727 H 0.01752 0.45893 0.62552 0.0
H728 H 0.99859 0.38903 0.70082 0.0
H729 H 0.83666 0.36498 0.69735 0.0
H730 H 0.06678 0.42962 0.61093 0.0
H731 H 0.04667 0.35963 0.6855 0.0
C732 C 0.63951 0.40725 0.66314 0.0
C733 C 0.67374 0.4066 0.67261 0.0
C734 C 0.62901 0.41257 0.63013 0.0
C735 C 0.65271 0.41816 0.60651 0.0
C736 C 0.6869 0.41837 0.61617 0.0
C737 C 0.69733 0.41224 0.6489 0.0
C738 C 0.64206 0.42059 0.57105 0.0
C739 C 0.64933 0.45001 0.55525 0.0
C740 C 0.64257 0.45111 0.52055 0.0
C741 C 0.62815 0.4222 0.50196 0.0
C742 C 0.62238 0.39192 0.51727 0.0
C743 C 0.62881 0.39178 0.55213 0.0
C744 C 0.6143 0.35962 0.49685 0.0
C745 C 0.59747 0.33234 0.51049 0.0
C746 C 0.62706 0.35441 0.46517 0.0
C747 C 0.62488 0.32253 0.44872 0.0
C748 C 0.61074 0.29497 0.46392 0.0
C749 C 0.65384 0.48126 0.50342 0.0
C750 C 0.65213 0.5136 0.51868 0.0
C751 C 0.6686 0.47774 0.47262 0.0
C752 C 0.68194 0.50573 0.45786 0.0
C753 C 0.68122 0.53789 0.47369 0.0
C754 C 0.6658 0.5416 0.50405 0.0
C755 C 0.59633 0.30028 0.49458 0.0
H756 H 0.62091 0.40267 0.68093 0.0
H757 H 0.60248 0.41191 0.62291 0.0
H758 H 0.70547 0.42218 0.5981 0.0
H759 H 0.72387 0.41185 0.65569 0.0
H760 H 0.6616 0.47149 0.56991 0.0
H761 H 0.626 0.36872 0.56459 0.0
H762 H 0.62239 0.42308 0.47532 0.0
H763 H 0.58627 0.33545 0.53418 0.0
H764 H 0.6406 0.37437 0.45376 0.0
H765 H 0.63614 0.31921 0.42502 0.0
H766 H 0.64052 0.51729 0.54213 0.0
H767 H 0.67094 0.45325 0.46038 0.0
H768 H 0.5847 0.27955 0.5066 0.0
H769 H 0.66449 0.56611 0.51667 0.0
H770 H 0.69359 0.50202 0.43441 0.0
C771 C 0.8395 0.60566 0.23605 0.0
C772 C 0.82221 0.6314 0.25093 0.0
C773 C 0.84151 0.60237 0.20137 0.0
C774 C 0.82477 0.62367 0.1804 0.0
C775 C 0.80792 0.64979 0.19548 0.0
C776 C 0.80703 0.65381 0.23019 0.0
C777 C 0.82214 0.61692 0.14319 0.0
C778 C 0.82134 0.58393 0.12884 0.0
C779 C 0.81539 0.57685 0.09418 0.0
C780 C 0.8088 0.60309 0.07371 0.0
C781 C 0.80903 0.63623 0.08745 0.0
C782 C 0.81725 0.64296 0.12193 0.0
C783 C 0.79745 0.66326 0.06663 0.0
C784 C 0.80438 0.66399 0.03274 0.0
C785 C 0.77722 0.68738 0.08016 0.0
C786 C 0.76366 0.71104 0.06025 0.0
C787 C 0.76953 0.71094 0.02615 0.0
C788 C 0.8142 0.54165 0.07992 0.0
C789 C 0.83805 0.51999 0.09113 0.0
C790 C 0.78865 0.52912 0.05594 0.0
C791 C 0.78671 0.49556 0.04384 0.0
C792 C 0.81025 0.47378 0.05548 0.0
C793 C 0.83611 0.48644 0.07906 0.0
C794 C 0.79041 0.68748 0.01266 0.0
H795 H 0.8498 0.5867 0.25059 0.0
H796 H 0.85525 0.58225 0.19106 0.0
H797 H 0.79394 0.66638 0.18061 0.0
H798 H 0.79314 0.67376 0.24071 0.0
H799 H 0.82364 0.56326 0.14468 0.0
H800 H 0.81897 0.66864 0.13228 0.0
H801 H 0.80259 0.59748 0.0472 0.0
H802 H 0.82023 0.64616 0.02157 0.0
H803 H 0.77067 0.68728 0.10591 0.0
H804 H 0.74752 0.72864 0.07139 0.0
H805 H 0.85826 0.52899 0.10933 0.0
H806 H 0.76962 0.54503 0.04712 0.0
H807 H 0.79556 0.68693 0.98648 0.0
H808 H 0.85474 0.47038 0.08844 0.0
H809 H 0.76644 0.48661 0.02571 0.0
C810 C 0.16509 0.03142 0.32541 0.0
C811 C 0.1934 0.02323 0.30871 0.0
C812 C 0.16712 0.03716 0.36025 0.0
C813 C 0.19735 0.03376 0.37898 0.0
C814 C 0.22506 0.02334 0.36244 0.0
C815 C 0.22313 0.01819 0.32761 0.0
C816 C 0.20099 0.0434 0.4153 0.0
C817 C 0.21516 0.02199 0.43774 0.0
C818 C 0.22197 0.03251 0.47171 0.0
C819 C 0.21469 0.06496 0.48294 0.0
C820 C 0.20082 0.08687 0.46072 0.0
C821 C 0.19337 0.07553 0.42704 0.0
C822 C 0.19744 0.12246 0.47206 0.0
C823 C 0.18742 0.13116 0.50425 0.0
C824 C 0.20712 0.14821 0.45176 0.0
C825 C 0.20839 0.18167 0.46395 0.0
C826 C 0.2003 0.1902 0.49681 0.0
C827 C 0.23814 0.01019 0.49511 0.0
C828 C 0.22788 0.97597 0.494 0.0
C829 C 0.26418 0.02288 0.51853 0.0
C830 C 0.27955 0.00186 0.54038 0.0
C831 C 0.26929 0.96765 0.53925 0.0
C832 C 0.24327 0.95494 0.51582 0.0
C833 C 0.18893 0.16466 0.51653 0.0
H834 H 0.14147 0.03338 0.31144 0.0
H835 H 0.14523 0.04455 0.37255 0.0
H836 H 0.24868 0.02064 0.37633 0.0
H837 H 0.24531 0.01153 0.31541 0.0
H838 H 0.2217 0.99746 0.42849 0.0
H839 H 0.18295 0.09221 0.40954 0.0
H840 H 0.22077 0.0735 0.5089 0.0
H841 H 0.17927 0.11199 0.52031 0.0
H842 H 0.21541 0.14251 0.42702 0.0
H843 H 0.21729 0.20073 0.4481 0.0
H844 H 0.20769 0.96549 0.47648 0.0
H845 H 0.27306 0.04901 0.51968 0.0
H846 H 0.18226 0.17043 0.54188 0.0
H847 H 0.23468 0.92871 0.51434 0.0
H848 H 0.29959 0.01244 0.55802 0.0
C849 C 0.32218 0.02492 0.87846 0.0
C850 C 0.30324 -0.00046 0.85843 0.0
C851 C 0.33028 0.02084 0.9124 0.0
C852 C 0.31989 0.99113 0.92661 0.0
C853 C 0.30064 0.96604 0.90658 0.0
C854 C 0.29223 0.97029 0.87297 0.0
C855 C 0.32891 0.98561 0.96214 0.0
C856 C 0.32217 0.009 0.98797 0.0
C857 C 0.3267 0.00143 0.02167 0.0
C858 C 0.33848 0.97027 0.02913 0.0
C859 C 0.34568 0.94672 0.00357 0.0
C860 C 0.34151 0.95512 0.9702 0.0
C861 C 0.35475 0.91244 0.01145 0.0
C862 C 0.37339 0.90694 0.04133 0.0
C863 C 0.34307 0.88453 0.98981 0.0
C864 C 0.34921 0.85216 0.99805 0.0
C865 C 0.36648 0.8467 0.02851 0.0
C866 C 0.31751 0.02513 0.04911 0.0
C867 C 0.32576 0.05971 0.04881 0.0
C868 C 0.30088 0.01316 0.07625 0.0
C869 C 0.29318 0.0351 0.10264 0.0
C870 C 0.30147 0.06955 0.10227 0.0
C871 C 0.31792 0.08165 0.07527 0.0
C872 C 0.37886 0.87439 0.04993 0.0
H873 H 0.3302 0.04811 0.86809 0.0
H874 H 0.34498 0.04061 0.92741 0.0
H875 H 0.29188 0.9431 0.91703 0.0
H876 H 0.27743 0.95041 0.8582 0.0
H877 H 0.31174 0.03225 0.98177 0.0
H878 H 0.34744 0.93761 0.95011 0.0
H879 H 0.3412 0.96407 0.05498 0.0
H880 H 0.3834 0.92771 0.05836 0.0
H881 H 0.32795 0.88739 0.96699 0.0
H882 H 0.33902 0.83131 0.98117 0.0
H883 H 0.3391 0.0697 0.02863 0.0
H884 H 0.29365 0.98677 0.07709 0.0
H885 H 0.39239 0.8709 0.07356 0.0
H886 H 0.32587 0.10789 0.07536 0.0
H887 H 0.28058 0.02511 0.12329 0.0
C888 C 0.66319 0.63975 0.40723 0.0
C889 C 0.67269 0.67397 0.40659 0.0
C890 C 0.63015 0.62927 0.41246 0.0
C891 C 0.60654 0.65298 0.41796 0.0
C892 C 0.61622 0.68717 0.41817 0.0
C893 C 0.64897 0.69758 0.41214 0.0
C894 C 0.57105 0.64236 0.42029 0.0
C895 C 0.5552 0.64956 0.44968 0.0
C896 C 0.52049 0.64279 0.45071 0.0
C897 C 0.50196 0.62842 0.42174 0.0
C898 C 0.51733 0.62272 0.39148 0.0
C899 C 0.55219 0.62917 0.39143 0.0
C900 C 0.49697 0.61462 0.35914 0.0
C901 C 0.51071 0.59787 0.33187 0.0
C902 C 0.46524 0.62726 0.35389 0.0
C903 C 0.44881 0.62501 0.32201 0.0
C904 C 0.46407 0.61092 0.29447 0.0
C905 C 0.5033 0.654 0.48083 0.0
C906 C 0.51851 0.65223 0.51319 0.0
C907 C 0.47251 0.66875 0.4773 0.0
C908 C 0.4577 0.68205 0.50528 0.0
C909 C 0.47349 0.68129 0.53745 0.0
C910 C 0.50383 0.66586 0.54118 0.0
C911 C 0.4948 0.59666 0.2998 0.0
H912 H 0.68098 0.62114 0.40272 0.0
H913 H 0.62292 0.60274 0.4118 0.0
H914 H 0.59814 0.70575 0.42192 0.0
H915 H 0.65578 0.72411 0.41176 0.0
H916 H 0.56982 0.66178 0.47121 0.0
H917 H 0.56471 0.62641 0.36839 0.0
H918 H 0.47532 0.62264 0.42257 0.0
H919 H 0.53444 0.58676 0.335 0.0
H920 H 0.45376 0.64075 0.37385 0.0
H921 H 0.42505 0.63617 0.31867 0.0
H922 H 0.54196 0.64061 0.5169 0.0
H923 H 0.46031 0.67114 0.45279 0.0
H924 H 0.50687 0.58504 0.27909 0.0
H925 H 0.51642 0.66451 0.56571 0.0
H926 H 0.43426 0.69371 0.50155 0.0
C927 C 0.87863 0.32232 0.02503 0.0
C928 C 0.8586 0.30336 -0.00034 0.0
C929 C 0.91258 0.3304 0.02093 0.0
C930 C 0.92678 0.31999 0.99123 0.0
C931 C 0.90674 0.30072 0.96615 0.0
C932 C 0.87313 0.29232 0.97042 0.0
C933 C 0.96231 0.32899 0.9857 0.0
C934 C 0.98813 0.32225 0.00909 0.0
C935 C 0.02183 0.32675 0.00152 0.0
C936 C 0.0293 0.3385 0.97035 0.0
C937 C 0.00375 0.34571 0.9468 0.0
C938 C 0.97037 0.34156 0.9552 0.0
C939 C 0.01163 0.35476 0.91252 0.0
C940 C 0.04152 0.37338 0.90701 0.0
C941 C 0.98998 0.3431 0.88461 0.0
C942 C 0.99821 0.34923 0.85224 0.0
C943 C 0.02868 0.36648 0.84677 0.0
C944 C 0.04927 0.31755 0.02522 0.0
C945 C 0.04897 0.32582 0.0598 0.0
C946 C 0.0764 0.30089 0.01325 0.0
C947 C 0.10277 0.29317 0.0352 0.0
C948 C 0.1024 0.30147 0.06966 0.0
C949 C 0.07542 0.31796 0.08175 0.0
C950 C 0.05012 0.37884 0.87445 0.0
H951 H 0.86827 0.33036 0.04821 0.0
H952 H 0.92758 0.34512 0.04069 0.0
H953 H 0.91718 0.29194 0.94322 0.0
H954 H 0.85836 0.27751 0.95055 0.0
H955 H 0.98193 0.31182 0.03235 0.0
H956 H 0.95028 0.3475 0.93769 0.0
H957 H 0.05515 0.3412 0.96415 0.0
H958 H 0.05856 0.38338 0.92777 0.0
H959 H 0.96715 0.32799 0.88747 0.0
H960 H 0.98132 0.33905 0.8314 0.0
H961 H 0.0288 0.33918 0.06978 0.0
H962 H 0.07723 0.29364 0.98687 0.0
H963 H 0.07375 0.39236 0.87096 0.0
H964 H 0.07552 0.32592 0.10798 0.0
H965 H 0.12341 0.28054 0.02522 0.0
C966 C 0.23584 0.83945 0.60581 0.0
C967 C 0.25067 0.82219 0.6316 0.0
C968 C 0.20117 0.84151 0.60247 0.0
C969 C 0.18016 0.82486 0.62378 0.0
C970 C 0.19518 0.80804 0.64996 0.0
C971 C 0.22989 0.80711 0.65402 0.0
C972 C 0.14295 0.82226 0.61699 0.0
C973 C 0.12864 0.8214 0.58398 0.0
C974 C 0.09398 0.81545 0.57687 0.0
C975 C 0.07348 0.80888 0.60309 0.0
C976 C 0.08719 0.80916 0.63625 0.0
C977 C 0.12165 0.8174 0.64301 0.0
C978 C 0.06635 0.79757 0.66326 0.0
C979 C 0.03244 0.80446 0.66396 0.0
C980 C 0.07989 0.77738 0.68742 0.0
C981 C 0.05997 0.7638 0.71106 0.0
C982 C 0.02585 0.76963 0.71092 0.0
C983 C 0.07976 0.8142 0.54166 0.0
C984 C 0.09099 0.83803 0.51997 0.0
C985 C 0.05579 0.78864 0.52914 0.0
C986 C 0.04372 0.78665 0.49556 0.0
C987 C 0.05538 0.81017 0.47376 0.0
C988 C 0.07895 0.83604 0.48641 0.0
C989 C 0.01236 0.79047 0.68744 0.0
H990 H 0.25042 0.84969 0.58683 0.0
H991 H 0.19091 0.85522 0.58231 0.0
H992 H 0.18028 0.79412 0.66656 0.0
H993 H 0.24035 0.79324 0.67401 0.0
H994 H 0.1445 0.82367 0.56333 0.0
H995 H 0.13197 0.81917 0.6687 0.0
H996 H 0.04697 0.80266 0.59746 0.0
H997 H 0.02127 0.82028 0.6461 0.0
H998 H 0.10565 0.77086 0.68735 0.0
H999 H 0.07112 0.7477 0.72868 0.0
H1000 H 0.10918 0.85824 0.52897 0.0
H1001 H 0.04696 0.76963 0.54506 0.0
H1002 H 0.98616 0.79559 0.68685 0.0
H1003 H 0.08834 0.85465 0.47034 0.0
H1004 H 0.0256 0.76637 0.48662 0.0
C1005 C 0.32525 0.16508 0.03146 0.0
C1006 C 0.30854 0.19339 0.02327 0.0
C1007 C 0.3601 0.16713 0.0372 0.0
C1008 C 0.37881 0.19736 0.03379 0.0
C1009 C 0.36226 0.22507 0.02338 0.0
C1010 C 0.32743 0.22312 0.01823 0.0
C1011 C 0.41513 0.20102 0.04344 0.0
C1012 C 0.43757 0.21519 0.02203 0.0
C1013 C 0.47154 0.22201 0.03254 0.0
C1014 C 0.48277 0.21473 0.06499 0.0
C1015 C 0.46055 0.20085 0.08691 0.0
C1016 C 0.42687 0.1934 0.07557 0.0
C1017 C 0.4719 0.19748 0.1225 0.0
C1018 C 0.50408 0.18744 0.13118 0.0
C1019 C 0.45161 0.20716 0.14824 0.0
C1020 C 0.4638 0.20843 0.18171 0.0
C1021 C 0.49666 0.20032 0.19023 0.0
C1022 C 0.49493 0.23819 0.01022 0.0
C1023 C 0.49382 0.22793 0.976 0.0
C1024 C 0.51835 0.26423 0.02292 0.0
C1025 C 0.54019 0.27961 0.0019 0.0
C1026 C 0.53906 0.26936 0.96768 0.0
C1027 C 0.51563 0.24333 0.95497 0.0
C1028 C 0.51637 0.18894 0.16469 0.0
H1029 H 0.31129 0.14146 0.03341 0.0
H1030 H 0.37241 0.14525 0.04458 0.0
H1031 H 0.37614 0.24869 0.02069 0.0
H1032 H 0.31522 0.2453 0.01158 0.0
H1033 H 0.42831 0.22173 0.99749 0.0
H1034 H 0.40938 0.18297 0.09225 0.0
H1035 H 0.50873 0.22082 0.07353 0.0
H1036 H 0.52014 0.17928 0.11201 0.0
H1037 H 0.42687 0.21546 0.14255 0.0
H1038 H 0.44796 0.21734 0.20076 0.0
H1039 H 0.4763 0.20773 0.96552 0.0
H1040 H 0.51949 0.27311 0.04905 0.0
H1041 H 0.54172 0.18227 0.17045 0.0
H1042 H 0.51416 0.23474 0.92875 0.0
H1043 H 0.55783 0.29966 0.01247 0.0
C1044 C 0.40712 0.66314 0.63943 0.0
C1045 C 0.40658 0.67265 0.67366 0.0
C1046 C 0.41241 0.63011 0.62894 0.0
C1047 C 0.41809 0.60653 0.65265 0.0
C1048 C 0.41841 0.61623 0.68684 0.0
C1049 C 0.41231 0.64897 0.69726 0.0
C1050 C 0.4205 0.57105 0.64204 0.0
C1051 C 0.4499 0.55525 0.64931 0.0
C1052 C 0.451 0.52054 0.64258 0.0
C1053 C 0.42207 0.50196 0.62818 0.0
C1054 C 0.3918 0.51727 0.62241 0.0
C1055 C 0.39168 0.55214 0.62881 0.0
C1056 C 0.35949 0.49685 0.61436 0.0
C1057 C 0.33221 0.51049 0.59754 0.0
C1058 C 0.35428 0.46518 0.62715 0.0
C1059 C 0.32241 0.44874 0.625 0.0
C1060 C 0.29484 0.46393 0.61086 0.0
C1061 C 0.48113 0.50341 0.65387 0.0
C1062 C 0.51348 0.51864 0.65214 0.0
C1063 C 0.4776 0.47263 0.66866 0.0
C1064 C 0.50558 0.45786 0.68201 0.0
C1065 C 0.53774 0.47367 0.68128 0.0
C1066 C 0.54147 0.504 0.66582 0.0
C1067 C 0.30014 0.49458 0.59644 0.0
H1068 H 0.40247 0.6809 0.62082 0.0
H1069 H 0.41167 0.62286 0.60241 0.0
H1070 H 0.42229 0.59819 0.70542 0.0
H1071 H 0.412 0.65579 0.7238 0.0
H1072 H 0.4714 0.56991 0.66156 0.0
H1073 H 0.36862 0.56461 0.62599 0.0
H1074 H 0.42295 0.47532 0.62244 0.0
H1075 H 0.33531 0.53416 0.58631 0.0
H1076 H 0.37426 0.45379 0.6407 0.0
H1077 H 0.31909 0.42505 0.63628 0.0
H1078 H 0.51719 0.54208 0.64051 0.0
H1079 H 0.45309 0.46041 0.67102 0.0
H1080 H 0.27941 0.5066 0.58481 0.0
H1081 H 0.56599 0.5166 0.6645 0.0
H1082 H 0.50185 0.43443 0.69369 0.0
C1083 C 0.02497 0.87842 0.32228 0.0
C1084 C -0.00041 0.85839 0.30333 0.0
C1085 C 0.02088 0.91236 0.33038 0.0
C1086 C 0.99118 0.92657 0.31998 0.0
C1087 C 0.96609 0.90654 0.30072 0.0
C1088 C 0.97034 0.87293 0.29231 0.0
C1089 C 0.98565 0.9621 0.329 0.0
C1090 C 0.00903 0.98793 0.32227 0.0
C1091 C 0.00146 0.02163 0.3268 0.0
C1092 C 0.97029 0.02909 0.33857 0.0
C1093 C 0.94675 0.00352 0.34577 0.0
C1094 C 0.95515 0.97015 0.34159 0.0
C1095 C 0.91247 0.01139 0.35484 0.0
C1096 C 0.90696 0.04126 0.37348 0.0
C1097 C 0.88456 0.98975 0.34315 0.0
C1098 C 0.85219 0.99797 0.3493 0.0
C1099 C 0.84672 0.02842 0.36658 0.0
C1100 C 0.02516 0.04907 0.31761 0.0
C1101 C 0.05974 0.04878 0.32588 0.0
C1102 C 0.01318 0.07621 0.30098 0.0
C1103 C 0.03512 0.1026 0.29328 0.0
C1104 C 0.06958 0.10224 0.30157 0.0
C1105 C 0.08168 0.07524 0.31804 0.0
C1106 C 0.87441 0.04985 0.37897 0.0
H1107 H 0.04815 0.86805 0.33031 0.0
H1108 H 0.04065 0.92737 0.34508 0.0
H1109 H 0.94315 0.91699 0.29195 0.0
H1110 H 0.95046 0.85816 0.27751 0.0
H1111 H 0.03228 0.98174 0.31184 0.0
H1112 H 0.93765 0.95006 0.34752 0.0
H1113 H 0.96409 0.05493 0.34129 0.0
H1114 H 0.92773 0.05829 0.3835 0.0
H1115 H 0.88742 0.96694 0.32801 0.0
H1116 H 0.83135 0.98109 0.3391 0.0
H1117 H 0.06972 0.0286 0.33922 0.0
H1118 H 0.9868 0.07705 0.29373 0.0
H1119 H 0.87092 0.07346 0.39252 0.0
H1120 H 0.10791 0.07535 0.32599 0.0
H1121 H 0.02514 0.12325 0.28067 0.0
C1122 C 0.60556 0.23599 0.83941 0.0
C1123 C 0.63133 0.25084 0.82214 0.0
C1124 C 0.60225 0.20132 0.84146 0.0
C1125 C 0.62357 0.18032 0.82479 0.0
C1126 C 0.64972 0.19537 0.80796 0.0
C1127 C 0.65376 0.23008 0.80703 0.0
C1128 C 0.61681 0.14312 0.82219 0.0
C1129 C 0.58381 0.12878 0.82135 0.0
C1130 C 0.57672 0.09411 0.81541 0.0
C1131 C 0.60295 0.07363 0.80885 0.0
C1132 C 0.63611 0.08736 0.80911 0.0
C1133 C 0.64284 0.12183 0.81733 0.0
C1134 C 0.66313 0.06654 0.79754 0.0
C1135 C 0.66385 0.03264 0.80445 0.0
C1136 C 0.68728 0.08007 0.77733 0.0
C1137 C 0.71093 0.06016 0.76377 0.0
C1138 C 0.71081 0.02605 0.76962 0.0
C1139 C 0.54152 0.07987 0.81418 0.0
C1140 C 0.51983 0.09109 0.83801 0.0
C1141 C 0.52901 0.05588 0.78863 0.0
C1142 C 0.49544 0.04379 0.78665 0.0
C1143 C 0.47364 0.05543 0.81017 0.0
C1144 C 0.48627 0.07902 0.83603 0.0
C1145 C 0.68734 0.01256 0.79048 0.0
H1146 H 0.58658 0.25055 0.84967 0.0
H1147 H 0.5821 0.19104 0.85518 0.0
H1148 H 0.66632 0.18048 0.79402 0.0
H1149 H 0.67373 0.24056 0.79315 0.0
H1150 H 0.56314 0.14462 0.82362 0.0
H1151 H 0.66852 0.13218 0.81909 0.0
H1152 H 0.59734 0.04712 0.80264 0.0
H1153 H 0.646 0.02147 0.82029 0.0
H1154 H 0.68719 0.10583 0.7708 0.0
H1155 H 0.72855 0.07131 0.74766 0.0
H1156 H 0.52881 0.10929 0.85822 0.0
H1157 H 0.54493 0.04706 0.76962 0.0
H1158 H 0.68677 0.98637 0.79561 0.0
H1159 H 0.4702 0.08841 0.85464 0.0
H1160 H 0.48651 0.02565 0.76638 0.0
C1161 C 0.03151 0.32528 0.16506 0.0
C1162 C 0.0233 0.30858 0.19338 0.0
C1163 C 0.03727 0.36012 0.1671 0.0
C1164 C 0.03385 0.37886 0.19732 0.0
C1165 C 0.02341 0.36232 0.22502 0.0
C1166 C 0.01824 0.32749 0.22309 0.0
C1167 C 0.04352 0.41517 0.20096 0.0
C1168 C 0.02211 0.43762 0.21512 0.0
C1169 C 0.03265 0.47158 0.22196 0.0
C1170 C 0.06511 0.4828 0.21468 0.0
C1171 C 0.08701 0.46056 0.20082 0.0
C1172 C 0.07566 0.42689 0.19337 0.0
C1173 C 0.12262 0.47189 0.19748 0.0
C1174 C 0.13134 0.50407 0.18746 0.0
C1175 C 0.14834 0.45158 0.20719 0.0
C1176 C 0.18181 0.46375 0.20852 0.0
C1177 C 0.19036 0.49661 0.20043 0.0
C1178 C 0.01034 0.49499 0.23813 0.0
C1179 C 0.97613 0.49391 0.22787 0.0
C1180 C 0.02304 0.51839 0.26419 0.0
C1181 C 0.00204 0.54023 0.27958 0.0
C1182 C 0.96783 0.53913 0.26932 0.0
C1183 C 0.95511 0.51573 0.24327 0.0
C1184 C 0.16485 0.51634 0.18902 0.0
H1185 H 0.03348 0.3113 0.14145 0.0
H1186 H 0.04468 0.37242 0.14522 0.0
H1187 H 0.02071 0.37621 0.24864 0.0
H1188 H 0.01157 0.3153 0.24528 0.0
H1189 H 0.99757 0.42838 0.22165 0.0
H1190 H 0.09233 0.40938 0.18295 0.0
H1191 H 0.07366 0.50875 0.22078 0.0
H1192 H 0.11219 0.52014 0.17928 0.0
H1193 H 0.14262 0.42684 0.21548 0.0
H1194 H 0.20084 0.4479 0.21744 0.0
H1195 H 0.96564 0.47641 0.20766 0.0
H1196 H 0.04917 0.51951 0.27308 0.0
H1197 H 0.17064 0.54169 0.18236 0.0
H1198 H 0.92888 0.51427 0.23468 0.0
H1199 H 0.01262 0.55785 0.29964 0.0
loop_
_geom_bond_atom_site_label_1
_geom_bond_atom_site_label_2
_geom_bond_distance
_geom_bond_site_symmetry_2
_ccdc_geom_bond_type
O0 Cd1 2.300 . S
O0 C7 1.275 . S
Cd1 O0 2.300 . S
Cd1 O9 2.381 . S
Cd1 O10 2.378 . S
O2 Cd3 2.385 . S
O2 C7 1.255 . S
Cd3 O2 2.385 . S
Cd3 O4 2.317 . S
O4 Cd3 2.317 . S
O4 C5 1.232 . S
C5 O4 1.232 . S
C5 O6 1.218 . S
O6 C5 1.218 . S
C7 O0 1.275 . S
C7 O2 1.255 . S
C8 O9 1.258 . S
C8 O10 1.256 . S
O9 Cd1 2.381 . S
O9 C8 1.258 . S
O10 Cd1 2.378 . S
O10 C8 1.256 . S
O11 Cd12 2.300 . S
O11 C18 1.275 . S
Cd12 O11 2.300 . S
Cd12 O20 2.381 . S
Cd12 O21 2.378 . S
O13 Cd14 2.385 . S
O13 C18 1.255 . S
Cd14 O13 2.385 . S
Cd14 O15 2.317 . S
O15 Cd14 2.317 . S
O15 C16 1.232 . S
C16 O15 1.232 . S
C16 O17 1.218 . S
O17 C16 1.218 . S
C18 O11 1.275 . S
C18 O13 1.255 . S
C19 O20 1.258 . S
C19 O21 1.256 . S
O20 Cd12 2.381 . S
O20 C19 1.258 . S
O21 Cd12 2.378 . S
O21 C19 1.256 . S
O22 Cd23 2.300 . S
O22 C29 1.275 . S
Cd23 O22 2.300 . S
Cd23 O31 2.381 1_565 S
Cd23 O32 2.378 . S
O24 Cd25 2.385 . S
O24 C29 1.255 . S
Cd25 O24 2.385 . S
Cd25 O26 2.317 . S
O26 Cd25 2.317 . S
O26 C27 1.232 . S
C27 O26 1.232 . S
C27 O28 1.218 . S
O28 C27 1.218 . S
C29 O22 1.275 . S
C29 O24 1.255 . S
C30 O31 1.258 . S
C30 O32 1.256 1_545 S
O31 Cd23 2.381 1_545 S
O31 C30 1.258 . S
O32 Cd23 2.378 . S
O32 C30 1.256 1_565 S
O33 Cd34 2.300 . S
O33 C40 1.275 . S
Cd34 O33 2.300 . S
Cd34 O42 2.381 1_545 S
Cd34 O43 2.378 . S
O35 Cd36 2.385 . S
O35 C40 1.255 . S
Cd36 O35 2.385 . S
Cd36 O37 2.317 . S
O37 Cd36 2.317 . S
O37 C38 1.232 . S
C38 O37 1.232 . S
C38 O39 1.218 . S
O39 C38 1.218 . S
C40 O33 1.275 . S
C40 O35 1.255 . S
C41 O42 1.258 . S
C41 O43 1.256 1_565 S
O42 Cd34 2.381 1_565 S
O42 C41 1.258 . S
O43 Cd34 2.378 . S
O43 C41 1.256 1_545 S
O44 Cd45 2.300 . S
O44 C51 1.275 . S
Cd45 O44 2.300 . S
Cd45 O53 2.381 . S
Cd45 O54 2.378 . S
O46 Cd47 2.385 . S
O46 C51 1.255 . S
Cd47 O46 2.385 . S
Cd47 O48 2.317 . S
O48 Cd47 2.317 . S
O48 C49 1.232 . S
C49 O48 1.232 . S
C49 O50 1.218 . S
O50 C49 1.218 . S
C51 O44 1.275 . S
C51 O46 1.255 . S
C52 O53 1.258 . S
C52 O54 1.256 . S
O53 Cd45 2.381 . S
O53 C52 1.258 . S
O54 Cd45 2.378 . S
O54 C52 1.256 . S
O55 Cd56 2.300 . S
O55 C62 1.275 . S
Cd56 O55 2.300 . S
Cd56 O64 2.381 1_554 S
Cd56 O65 2.378 . S
O57 Cd58 2.385 . S
O57 C62 1.255 . S
Cd58 O57 2.385 . S
Cd58 O59 2.317 . S
O59 Cd58 2.317 . S
O59 C60 1.232 . S
C60 O59 1.232 . S
C60 O61 1.218 . S
O61 C60 1.218 . S
C62 O55 1.275 . S
C62 O57 1.255 . S
C63 O64 1.258 . S
C63 O65 1.256 1_556 S
O64 Cd56 2.381 1_556 S
O64 C63 1.258 . S
O65 Cd56 2.378 . S
O65 C63 1.256 1_554 S
O66 Cd67 2.300 . S
O66 C73 1.275 . S
Cd67 O66 2.300 . S
Cd67 O75 2.381 . S
Cd67 O76 2.378 . S
O68 Cd69 2.385 . S
O68 C73 1.255 . S
Cd69 O68 2.385 . S
Cd69 O70 2.317 . S
O70 Cd69 2.317 . S
O70 C71 1.232 . S
C71 O70 1.232 . S
C71 O72 1.218 . S
O72 C71 1.218 . S
C73 O66 1.275 . S
C73 O68 1.255 . S
C74 O75 1.258 . S
C74 O76 1.256 . S
O75 Cd67 2.381 . S
O75 C74 1.258 . S
O76 Cd67 2.378 . S
O76 C74 1.256 . S
O77 Cd78 2.300 . S
O77 C84 1.275 . S
Cd78 O77 2.300 . S
Cd78 O86 2.381 1_556 S
Cd78 O87 2.378 . S
O79 Cd80 2.385 . S
O79 C84 1.255 . S
Cd80 O79 2.385 . S
Cd80 O81 2.317 . S
O81 Cd80 2.317 . S
O81 C82 1.232 . S
C82 O81 1.232 . S
C82 O83 1.218 . S
O83 C82 1.218 . S
C84 O77 1.275 . S
C84 O79 1.255 . S
C85 O86 1.258 . S
C85 O87 1.256 1_554 S
O86 Cd78 2.381 1_554 S
O86 C85 1.258 . S
O87 Cd78 2.378 . S
O87 C85 1.256 1_556 S
O88 Cd89 2.300 . S
O88 C95 1.275 . S
Cd89 O88 2.300 . S
Cd89 O97 2.381 . S
Cd89 O98 2.378 . S
O90 Cd91 2.385 . S
O90 C95 1.255 . S
Cd91 O90 2.385 . S
Cd91 O92 2.317 . S
O92 Cd91 2.317 . S
O92 C93 1.232 . S
C93 O92 1.232 . S
C93 O94 1.218 . S
O94 C93 1.218 . S
C95 O88 1.275 . S
C95 O90 1.255 . S
C96 O97 1.258 . S
C96 O98 1.256 . S
O97 Cd89 2.381 . S
O97 C96 1.258 . S
O98 Cd89 2.378 . S
O98 C96 1.256 . S
O99 Cd100 2.300 . S
O99 C106 1.275 . S
Cd100 O99 2.300 . S
Cd100 O108 2.381 1_455 S
Cd100 O109 2.378 . S
O101 Cd102 2.385 . S
O101 C106 1.255 . S
Cd102 O101 2.385 . S
Cd102 O103 2.317 . S
O103 Cd102 2.317 . S
O103 C104 1.232 . S
C104 O103 1.232 . S
C104 O105 1.218 . S
O105 C104 1.218 . S
C106 O99 1.275 . S
C106 O101 1.255 . S
C107 O108 1.258 . S
C107 O109 1.256 1_655 S
O108 Cd100 2.381 1_655 S
O108 C107 1.258 . S
O109 Cd100 2.378 . S
O109 C107 1.256 1_455 S
O110 Cd111 2.300 . S
O110 C117 1.275 . S
Cd111 O110 2.300 . S
Cd111 O119 2.381 . S
Cd111 O120 2.378 . S
O112 Cd113 2.385 . S
O112 C117 1.255 . S
Cd113 O112 2.385 . S
Cd113 O114 2.317 . S
O114 Cd113 2.317 . S
O114 C115 1.232 . S
C115 O114 1.232 . S
C115 O116 1.218 . S
O116 C115 1.218 . S
C117 O110 1.275 . S
C117 O112 1.255 . S
C118 O119 1.258 . S
C118 O120 1.256 . S
O119 Cd111 2.381 . S
O119 C118 1.258 . S
O120 Cd111 2.378 . S
O120 C118 1.256 . S
O121 Cd122 2.300 . S
O121 C128 1.275 . S
Cd122 O121 2.300 . S
Cd122 O130 2.381 1_655 S
Cd122 O131 2.378 . S
O123 Cd124 2.385 . S
O123 C128 1.255 . S
Cd124 O123 2.385 . S
Cd124 O125 2.317 . S
O125 Cd124 2.317 . S
O125 C126 1.232 . S
C126 O125 1.232 . S
C126 O127 1.218 . S
O127 C126 1.218 . S
C128 O121 1.275 . S
C128 O123 1.255 . S
C129 O130 1.258 . S
C129 O131 1.256 1_455 S
O130 Cd122 2.381 1_455 S
O130 C129 1.258 . S
O131 Cd122 2.378 . S
O131 C129 1.256 1_655 S
O132 Cd133 2.300 . S
O132 C139 1.275 . S
Cd133 O132 2.300 . S
Cd133 O141 2.381 . S
Cd133 O142 2.378 . S
O134 Cd135 2.385 . S
O134 C139 1.255 . S
Cd135 O134 2.385 . S
Cd135 O136 2.317 . S
O136 Cd135 2.317 . S
O136 C137 1.232 . S
C137 O136 1.232 . S
C137 O138 1.218 . S
O138 C137 1.218 . S
C139 O132 1.275 . S
C139 O134 1.255 . S
C140 O141 1.258 . S
C140 O142 1.256 . S
O141 Cd133 2.381 . S
O141 C140 1.258 . S
O142 Cd133 2.378 . S
O142 C140 1.256 . S
O143 Cd144 2.300 . S
O143 C150 1.275 . S
Cd144 O143 2.300 . S
Cd144 O152 2.381 . S
Cd144 O153 2.378 . S
O145 Cd146 2.385 . S
O145 C150 1.255 . S
Cd146 O145 2.385 . S
Cd146 O147 2.317 . S
O147 Cd146 2.317 . S
O147 C148 1.232 . S
C148 O147 1.232 . S
C148 O149 1.218 . S
O149 C148 1.218 . S
C150 O143 1.275 . S
C150 O145 1.255 . S
C151 O152 1.258 . S
C151 O153 1.256 . S
O152 Cd144 2.381 . S
O152 C151 1.258 . S
O153 Cd144 2.378 . S
O153 C151 1.256 . S
O154 Cd155 2.300 1_545 S
O154 C161 1.275 . S
Cd155 O154 2.300 1_565 S
Cd155 O163 2.381 1_565 S
Cd155 O164 2.378 . S
O156 Cd157 2.385 . S
O156 C161 1.255 1_565 S
Cd157 O156 2.385 . S
Cd157 O158 2.317 . S
O158 Cd157 2.317 . S
O158 C159 1.232 . S
C159 O158 1.232 . S
C159 O160 1.218 . S
O160 C159 1.218 . S
C161 O154 1.275 . S
C161 O156 1.255 1_545 S
C162 O163 1.258 1_565 S
C162 O164 1.256 . S
O163 Cd155 2.381 1_545 S
O163 C162 1.258 1_545 S
O164 Cd155 2.378 . S
O164 C162 1.256 . S
O165 Cd166 2.300 1_565 S
O165 C172 1.275 . S
Cd166 O165 2.300 1_545 S
Cd166 O174 2.381 1_545 S
Cd166 O175 2.378 . S
O167 Cd168 2.385 . S
O167 C172 1.255 1_545 S
Cd168 O167 2.385 . S
Cd168 O169 2.317 . S
O169 Cd168 2.317 . S
O169 C170 1.232 . S
C170 O169 1.232 . S
C170 O171 1.218 . S
O171 C170 1.218 . S
C172 O165 1.275 . S
C172 O167 1.255 1_565 S
C173 O174 1.258 1_545 S
C173 O175 1.256 . S
O174 Cd166 2.381 1_565 S
O174 C173 1.258 1_565 S
O175 Cd166 2.378 . S
O175 C173 1.256 . S
O176 Cd177 2.300 . S
O176 C183 1.275 . S
Cd177 O176 2.300 . S
Cd177 O185 2.381 . S
Cd177 O186 2.378 . S
O178 Cd179 2.385 . S
O178 C183 1.255 . S
Cd179 O178 2.385 . S
Cd179 O180 2.317 . S
O180 Cd179 2.317 . S
O180 C181 1.232 . S
C181 O180 1.232 . S
C181 O182 1.218 . S
O182 C181 1.218 . S
C183 O176 1.275 . S
C183 O178 1.255 . S
C184 O185 1.258 . S
C184 O186 1.256 . S
O185 Cd177 2.381 . S
O185 C184 1.258 . S
O186 Cd177 2.378 . S
O186 C184 1.256 . S
O187 Cd188 2.300 1_556 S
O187 C194 1.275 . S
Cd188 O187 2.300 1_554 S
Cd188 O196 2.381 1_554 S
Cd188 O197 2.378 . S
O189 Cd190 2.385 . S
O189 C194 1.255 1_554 S
Cd190 O189 2.385 . S
Cd190 O191 2.317 . S
O191 Cd190 2.317 . S
O191 C192 1.232 . S
C192 O191 1.232 . S
C192 O193 1.218 . S
O193 C192 1.218 . S
C194 O187 1.275 . S
C194 O189 1.255 1_556 S
C195 O196 1.258 1_554 S
C195 O197 1.256 . S
O196 Cd188 2.381 1_556 S
O196 C195 1.258 1_556 S
O197 Cd188 2.378 . S
O197 C195 1.256 . S
O198 Cd199 2.300 . S
O198 C205 1.275 . S
Cd199 O198 2.300 . S
Cd199 O207 2.381 . S
Cd199 O208 2.378 . S
O200 Cd201 2.385 . S
O200 C205 1.255 . S
Cd201 O200 2.385 . S
Cd201 O202 2.317 . S
O202 Cd201 2.317 . S
O202 C203 1.232 . S
C203 O202 1.232 . S
C203 O204 1.218 . S
O204 C203 1.218 . S
C205 O198 1.275 . S
C205 O200 1.255 . S
C206 O207 1.258 . S
C206 O208 1.256 . S
O207 Cd199 2.381 . S
O207 C206 1.258 . S
O208 Cd199 2.378 . S
O208 C206 1.256 . S
O209 Cd210 2.300 1_554 S
O209 C216 1.275 . S
Cd210 O209 2.300 1_556 S
Cd210 O218 2.381 1_556 S
Cd210 O219 2.378 . S
O211 Cd212 2.385 . S
O211 C216 1.255 1_556 S
Cd212 O211 2.385 . S
Cd212 O213 2.317 . S
O213 Cd212 2.317 . S
O213 C214 1.232 . S
C214 O213 1.232 . S
C214 O215 1.218 . S
O215 C214 1.218 . S
C216 O209 1.275 . S
C216 O211 1.255 1_554 S
C217 O218 1.258 1_556 S
C217 O219 1.256 . S
O218 Cd210 2.381 1_554 S
O218 C217 1.258 1_554 S
O219 Cd210 2.378 . S
O219 C217 1.256 . S
O220 Cd221 2.300 . S
O220 C227 1.275 . S
Cd221 O220 2.300 . S
Cd221 O229 2.381 . S
Cd221 O230 2.378 . S
O222 Cd223 2.385 . S
O222 C227 1.255 . S
Cd223 O222 2.385 . S
Cd223 O224 2.317 . S
O224 Cd223 2.317 . S
O224 C225 1.232 . S
C225 O224 1.232 . S
C225 O226 1.218 . S
O226 C225 1.218 . S
C227 O220 1.275 . S
C227 O222 1.255 . S
C228 O229 1.258 . S
C228 O230 1.256 . S
O229 Cd221 2.381 . S
O229 C228 1.258 . S
O230 Cd221 2.378 . S
O230 C228 1.256 . S
O231 Cd232 2.300 1_655 S
O231 C238 1.275 . S
Cd232 O231 2.300 1_455 S
Cd232 O240 2.381 1_455 S
Cd232 O241 2.378 . S
O233 Cd234 2.385 . S
O233 C238 1.255 1_455 S
Cd234 O233 2.385 . S
Cd234 O235 2.317 . S
O235 Cd234 2.317 . S
O235 C236 1.232 . S
C236 O235 1.232 . S
C236 O237 1.218 . S
O237 C236 1.218 . S
C238 O231 1.275 . S
C238 O233 1.255 1_655 S
C239 O240 1.258 1_455 S
C239 O241 1.256 . S
O240 Cd232 2.381 1_655 S
O240 C239 1.258 1_655 S
O241 Cd232 2.378 . S
O241 C239 1.256 . S
O242 Cd243 2.300 . S
O242 C249 1.275 . S
Cd243 O242 2.300 . S
Cd243 O251 2.381 . S
Cd243 O252 2.378 . S
O244 Cd245 2.385 . S
O244 C249 1.255 . S
Cd245 O244 2.385 . S
Cd245 O246 2.317 . S
O246 Cd245 2.317 . S
O246 C247 1.232 . S
C247 O246 1.232 . S
C247 O248 1.218 . S
O248 C247 1.218 . S
C249 O242 1.275 . S
C249 O244 1.255 . S
C250 O251 1.258 . S
C250 O252 1.256 . S
O251 Cd243 2.381 . S
O251 C250 1.258 . S
O252 Cd243 2.378 . S
O252 C250 1.256 . S
O253 Cd254 2.300 1_455 S
O253 C260 1.275 . S
Cd254 O253 2.300 1_655 S
Cd254 O262 2.381 1_655 S
Cd254 O263 2.378 . S
O255 Cd256 2.385 . S
O255 C260 1.255 1_655 S
Cd256 O255 2.385 . S
Cd256 O257 2.317 . S
O257 Cd256 2.317 . S
O257 C258 1.232 . S
C258 O257 1.232 . S
C258 O259 1.218 . S
O259 C258 1.218 . S
C260 O253 1.275 . S
C260 O255 1.255 1_455 S
C261 O262 1.258 1_655 S
C261 O263 1.256 . S
O262 Cd254 2.381 1_455 S
O262 C261 1.258 1_455 S
O263 Cd254 2.378 . S
O263 C261 1.256 . S
C264 C265 1.386 . S
C264 C266 1.397 . S
C264 H288 0.931 . S
C265 C264 1.386 . S
C265 C269 1.397 . S
C266 C264 1.397 . S
C266 C267 1.384 . S
C266 H289 0.930 . S
C267 C266 1.384 . S
C267 C268 1.377 . S
C267 C270 1.481 . S
C268 C267 1.377 . S
C268 C269 1.389 . S
C268 H290 0.929 . S
C269 C265 1.397 . S
C269 C268 1.389 . S
C269 H291 0.931 . S
C270 C267 1.481 . S
C270 C271 1.387 . S
C270 C275 1.390 . S
C271 C270 1.387 . S
C271 C272 1.401 . S
C271 H292 0.930 . S
C272 C271 1.401 . S
C272 C273 1.376 . S
C272 C281 1.511 . S
C273 C272 1.376 . S
C273 C274 1.392 . S
C273 H294 0.931 . S
C274 C273 1.392 . S
C274 C275 1.361 . S
C274 C276 1.500 . S
C275 C270 1.390 . S
C275 C274 1.361 . S
C275 H293 0.931 . S
C276 C274 1.500 . S
C276 C277 1.371 . S
C276 C278 1.365 . S
C277 C276 1.371 . S
C277 C287 1.386 . S
C277 H295 0.931 . S
C278 C276 1.365 . S
C278 C279 1.409 . S
C278 H296 0.929 . S
C279 C278 1.409 . S
C279 C280 1.380 . S
C279 H297 0.930 . S
C280 C279 1.380 . S
C280 C287 1.357 . S
C281 C272 1.511 . S
C281 C282 1.341 . S
C281 C283 1.371 . S
C282 C281 1.341 . S
C282 C286 1.394 . S
C282 H298 0.930 . S
C283 C281 1.371 . S
C283 C284 1.392 . S
C283 H299 0.931 . S
C284 C283 1.392 . S
C284 C285 1.331 . S
C284 H302 0.932 . S
C285 C284 1.331 . S
C285 C286 1.336 . S
C286 C282 1.394 . S
C286 C285 1.336 . S
C286 H301 0.929 . S
C287 C277 1.386 . S
C287 C280 1.357 . S
C287 H300 0.928 . S
H288 C264 0.931 . S
H289 C266 0.930 . S
H290 C268 0.929 . S
H291 C269 0.931 . S
H292 C271 0.930 . S
H293 C275 0.931 . S
H294 C273 0.931 . S
H295 C277 0.931 . S
H296 C278 0.929 . S
H297 C279 0.930 . S
H298 C282 0.930 . S
H299 C283 0.931 . S
H300 C287 0.928 . S
H301 C286 0.929 . S
H302 C284 0.932 . S
C303 C304 1.386 . S
C303 C305 1.397 . S
C303 H327 0.931 . S
C304 C303 1.386 . S
C304 C308 1.397 . S
C305 C303 1.397 . S
C305 C306 1.384 . S
C305 H328 0.930 . S
C306 C305 1.384 . S
C306 C307 1.377 . S
C306 C309 1.481 . S
C307 C306 1.377 . S
C307 C308 1.389 . S
C307 H329 0.929 . S
C308 C304 1.397 . S
C308 C307 1.389 . S
C308 H330 0.931 . S
C309 C306 1.481 . S
C309 C310 1.387 . S
C309 C314 1.390 . S
C310 C309 1.387 . S
C310 C311 1.401 . S
C310 H331 0.930 . S
C311 C310 1.401 . S
C311 C312 1.376 . S
C311 C320 1.511 . S
C312 C311 1.376 . S
C312 C313 1.392 . S
C312 H333 0.931 . S
C313 C312 1.392 . S
C313 C314 1.361 . S
C313 C315 1.500 . S
C314 C309 1.390 . S
C314 C313 1.361 . S
C314 H332 0.931 . S
C315 C313 1.500 . S
C315 C316 1.371 . S
C315 C317 1.365 . S
C316 C315 1.371 . S
C316 C326 1.386 1_556 S
C316 H334 0.931 . S
C317 C315 1.365 . S
C317 C318 1.409 . S
C317 H335 0.929 . S
C318 C317 1.409 . S
C318 C319 1.380 . S
C318 H336 0.930 . S
C319 C318 1.380 . S
C319 C326 1.357 1_556 S
C320 C311 1.511 . S
C320 C321 1.341 . S
C320 C322 1.371 . S
C321 C320 1.341 . S
C321 C325 1.394 . S
C321 H337 0.930 . S
C322 C320 1.371 . S
C322 C323 1.392 . S
C322 H338 0.931 . S
C323 C322 1.392 . S
C323 C324 1.331 . S
C323 H341 0.932 1_556 S
C324 C323 1.331 . S
C324 C325 1.336 . S
C325 C321 1.394 . S
C325 C324 1.336 . S
C325 H340 0.929 . S
C326 C316 1.386 1_554 S
C326 C319 1.357 1_554 S
C326 H339 0.928 . S
H327 C303 0.931 . S
H328 C305 0.930 . S
H329 C307 0.929 . S
H330 C308 0.931 . S
H331 C310 0.930 . S
H332 C314 0.931 . S
H333 C312 0.931 . S
H334 C316 0.931 . S
H335 C317 0.929 . S
H336 C318 0.930 . S
H337 C321 0.930 . S
H338 C322 0.931 . S
H339 C326 0.928 . S
H340 C325 0.929 . S
H341 C323 0.932 1_554 S
C342 C343 1.386 . S
C342 C344 1.397 . S
C342 H366 0.931 . S
C343 C342 1.386 . S
C343 C347 1.397 1_545 S
C344 C342 1.397 . S
C344 C345 1.384 . S
C344 H367 0.930 . S
C345 C344 1.384 . S
C345 C346 1.377 1_545 S
C345 C348 1.481 . S
C346 C345 1.377 1_565 S
C346 C347 1.389 . S
C346 H368 0.929 . S
C347 C343 1.397 1_565 S
C347 C346 1.389 . S
C347 H369 0.931 . S
C348 C345 1.481 . S
C348 C349 1.387 . S
C348 C353 1.390 1_545 S
C349 C348 1.387 . S
C349 C350 1.401 . S
C349 H370 0.930 . S
C350 C349 1.401 . S
C350 C351 1.376 1_545 S
C350 C359 1.511 . S
C351 C350 1.376 1_565 S
C351 C352 1.392 . S
C351 H372 0.931 . S
C352 C351 1.392 . S
C352 C353 1.361 . S
C352 C354 1.500 . S
C353 C348 1.390 1_565 S
C353 C352 1.361 . S
C353 H371 0.931 . S
C354 C352 1.500 . S
C354 C355 1.371 . S
C354 C356 1.365 . S
C355 C354 1.371 . S
C355 C365 1.386 . S
C355 H373 0.931 . S
C356 C354 1.365 . S
C356 C357 1.409 . S
C356 H374 0.929 . S
C357 C356 1.409 . S
C357 C358 1.380 . S
C357 H375 0.930 . S
C358 C357 1.380 . S
C358 C365 1.357 . S
C359 C350 1.511 . S
C359 C360 1.341 . S
C359 C361 1.371 . S
C360 C359 1.341 . S
C360 C364 1.394 . S
C360 H376 0.930 . S
C361 C359 1.371 . S
C361 C362 1.392 . S
C361 H377 0.931 . S
C362 C361 1.392 . S
C362 C363 1.331 . S
C362 H380 0.932 . S
C363 C362 1.331 . S
C363 C364 1.336 . S
C364 C360 1.394 . S
C364 C363 1.336 . S
C364 H379 0.929 . S
C365 C355 1.386 . S
C365 C358 1.357 . S
C365 H378 0.928 . S
H366 C342 0.931 . S
H367 C344 0.930 . S
H368 C346 0.929 . S
H369 C347 0.931 . S
H370 C349 0.930 . S
H371 C353 0.931 . S
H372 C351 0.931 . S
H373 C355 0.931 . S
H374 C356 0.929 . S
H375 C357 0.930 . S
H376 C360 0.930 . S
H377 C361 0.931 . S
H378 C365 0.928 . S
H379 C364 0.929 . S
H380 C362 0.932 . S
C381 C382 1.386 1_565 S
C381 C383 1.397 . S
C381 H405 0.931 . S
C382 C381 1.386 1_545 S
C382 C386 1.397 . S
C383 C381 1.397 . S
C383 C384 1.383 1_565 S
C383 H406 0.930 . S
C384 C383 1.383 1_545 S
C384 C385 1.378 . S
C384 C387 1.482 1_545 S
C385 C384 1.378 . S
C385 C386 1.389 . S
C385 H407 0.929 . S
C386 C382 1.397 . S
C386 C385 1.389 . S
C386 H408 0.931 . S
C387 C384 1.482 1_565 S
C387 C388 1.402 . S
C387 C392 1.374 1_565 S
C388 C387 1.402 . S
C388 C389 1.401 . S
C388 H409 0.930 . S
C389 C388 1.401 . S
C389 C390 1.376 . S
C389 C398 1.511 . S
C390 C389 1.376 . S
C390 C391 1.392 1_565 S
C390 H411 0.931 . S
C391 C390 1.392 1_545 S
C391 C392 1.361 . S
C391 C393 1.500 . S
C392 C387 1.374 1_545 S
C392 C391 1.361 . S
C392 H410 0.931 . S
C393 C391 1.500 . S
C393 C394 1.371 . S
C393 C395 1.365 . S
C394 C393 1.371 . S
C394 C404 1.386 . S
C394 H412 0.931 . S
C395 C393 1.365 . S
C395 C396 1.409 . S
C395 H413 0.929 . S
C396 C395 1.409 . S
C396 C397 1.380 . S
C396 H414 0.930 . S
C397 C396 1.380 . S
C397 C404 1.357 . S
C398 C389 1.511 . S
C398 C399 1.341 . S
C398 C400 1.371 . S
C399 C398 1.341 . S
C399 C403 1.394 . S
C399 H415 0.930 . S
C400 C398 1.371 . S
C400 C401 1.392 1_554 S
C400 H416 0.931 1_554 S
C401 C400 1.392 1_556 S
C401 C402 1.331 1_556 S
C401 H419 0.932 . S
C402 C401 1.331 1_554 S
C402 C403 1.336 . S
C403 C399 1.394 . S
C403 C402 1.336 . S
C403 H418 0.929 . S
C404 C394 1.386 . S
C404 C397 1.357 . S
C404 H417 0.928 1_554 S
H405 C381 0.931 . S
H406 C383 0.930 . S
H407 C385 0.929 . S
H408 C386 0.931 . S
H409 C388 0.930 . S
H410 C392 0.931 . S
H411 C390 0.931 . S
H412 C394 0.931 . S
H413 C395 0.929 . S
H414 C396 0.930 . S
H415 C399 0.930 . S
H416 C400 0.931 1_556 S
H417 C404 0.928 1_556 S
H418 C403 0.929 . S
H419 C401 0.932 . S
C420 C421 1.386 . S
C420 C422 1.397 . S
C420 H444 0.931 . S
C421 C420 1.386 . S
C421 C425 1.397 . S
C422 C420 1.397 . S
C422 C423 1.384 . S
C422 H445 0.930 . S
C423 C422 1.384 . S
C423 C424 1.377 . S
C423 C426 1.481 . S
C424 C423 1.377 . S
C424 C425 1.389 . S
C424 H446 0.929 . S
C425 C421 1.397 . S
C425 C424 1.389 . S
C425 H447 0.931 . S
C426 C423 1.481 . S
C426 C427 1.387 . S
C426 C431 1.390 . S
C427 C426 1.387 . S
C427 C428 1.401 . S
C427 H448 0.930 . S
C428 C427 1.401 . S
C428 C429 1.376 . S
C428 C437 1.511 . S
C429 C428 1.376 . S
C429 C430 1.392 . S
C429 H450 0.931 . S
C430 C429 1.392 . S
C430 C431 1.361 . S
C430 C432 1.500 . S
C431 C426 1.390 . S
C431 C430 1.361 . S
C431 H449 0.931 . S
C432 C430 1.500 . S
C432 C433 1.371 . S
C432 C434 1.365 . S
C433 C432 1.371 . S
C433 C443 1.386 . S
C433 H451 0.931 . S
C434 C432 1.365 . S
C434 C435 1.409 . S
C434 H452 0.929 . S
C435 C434 1.409 . S
C435 C436 1.380 . S
C435 H453 0.930 . S
C436 C435 1.380 . S
C436 C443 1.357 . S
C437 C428 1.511 . S
C437 C438 1.341 . S
C437 C439 1.371 . S
C438 C437 1.341 . S
C438 C442 1.394 . S
C438 H454 0.930 . S
C439 C437 1.371 . S
C439 C440 1.392 . S
C439 H455 0.931 . S
C440 C439 1.392 . S
C440 C441 1.331 . S
C440 H458 0.932 . S
C441 C440 1.331 . S
C441 C442 1.336 . S
C442 C438 1.394 . S
C442 C441 1.336 . S
C442 H457 0.929 . S
C443 C433 1.386 . S
C443 C436 1.357 . S
C443 H456 0.928 . S
H444 C420 0.931 . S
H445 C422 0.930 . S
H446 C424 0.929 . S
H447 C425 0.931 . S
H448 C427 0.930 . S
H449 C431 0.931 . S
H450 C429 0.931 . S
H451 C433 0.931 . S
H452 C434 0.929 . S
H453 C435 0.930 . S
H454 C438 0.930 . S
H455 C439 0.931 . S
H456 C443 0.928 . S
H457 C442 0.929 . S
H458 C440 0.932 . S
C459 C460 1.386 1_556 S
C459 C461 1.397 . S
C459 H483 0.931 . S
C460 C459 1.386 1_554 S
C460 C464 1.397 . S
C461 C459 1.397 . S
C461 C462 1.383 1_556 S
C461 H484 0.930 . S
C462 C461 1.383 1_554 S
C462 C463 1.378 . S
C462 C465 1.482 1_554 S
C463 C462 1.378 . S
C463 C464 1.389 . S
C463 H485 0.929 . S
C464 C460 1.397 . S
C464 C463 1.389 . S
C464 H486 0.931 . S
C465 C462 1.482 1_556 S
C465 C466 1.402 . S
C465 C470 1.374 1_556 S
C466 C465 1.402 . S
C466 C467 1.401 . S
C466 H487 0.930 . S
C467 C466 1.401 . S
C467 C468 1.376 . S
C467 C476 1.511 . S
C468 C467 1.376 . S
C468 C469 1.392 1_556 S
C468 H489 0.931 . S
C469 C468 1.392 1_554 S
C469 C470 1.361 . S
C469 C471 1.500 . S
C470 C465 1.374 1_554 S
C470 C469 1.361 . S
C470 H488 0.931 . S
C471 C469 1.500 . S
C471 C472 1.371 . S
C471 C473 1.365 . S
C472 C471 1.371 . S
C472 C482 1.386 . S
C472 H490 0.931 . S
C473 C471 1.365 . S
C473 C474 1.409 . S
C473 H491 0.929 . S
C474 C473 1.409 . S
C474 C475 1.380 . S
C474 H492 0.930 . S
C475 C474 1.380 . S
C475 C482 1.357 . S
C476 C467 1.511 . S
C476 C477 1.341 . S
C476 C478 1.371 . S
C477 C476 1.341 . S
C477 C481 1.394 . S
C477 H493 0.930 . S
C478 C476 1.371 . S
C478 C479 1.392 1_455 S
C478 H494 0.931 1_455 S
C479 C478 1.392 1_655 S
C479 C480 1.331 1_655 S
C479 H497 0.932 . S
C480 C479 1.331 1_455 S
C480 C481 1.336 . S
C481 C477 1.394 . S
C481 C480 1.336 . S
C481 H496 0.929 . S
C482 C472 1.386 . S
C482 C475 1.357 . S
C482 H495 0.928 1_455 S
H483 C459 0.931 . S
H484 C461 0.930 . S
H485 C463 0.929 . S
H486 C464 0.931 . S
H487 C466 0.930 . S
H488 C470 0.931 . S
H489 C468 0.931 . S
H490 C472 0.931 . S
H491 C473 0.929 . S
H492 C474 0.930 . S
H493 C477 0.930 . S
H494 C478 0.931 1_655 S
H495 C482 0.928 1_655 S
H496 C481 0.929 . S
H497 C479 0.932 . S
C498 C499 1.386 . S
C498 C500 1.397 . S
C498 H522 0.931 . S
C499 C498 1.386 . S
C499 C503 1.397 . S
C500 C498 1.397 . S
C500 C501 1.384 . S
C500 H523 0.930 . S
C501 C500 1.384 . S
C501 C502 1.377 . S
C501 C504 1.481 . S
C502 C501 1.377 . S
C502 C503 1.389 . S
C502 H524 0.929 . S
C503 C499 1.397 . S
C503 C502 1.389 . S
C503 H525 0.931 . S
C504 C501 1.481 . S
C504 C505 1.387 . S
C504 C509 1.390 . S
C505 C504 1.387 . S
C505 C506 1.401 . S
C505 H526 0.930 . S
C506 C505 1.401 . S
C506 C507 1.376 . S
C506 C515 1.511 . S
C507 C506 1.376 . S
C507 C508 1.392 . S
C507 H528 0.931 . S
C508 C507 1.392 . S
C508 C509 1.361 . S
C508 C510 1.500 . S
C509 C504 1.390 . S
C509 C508 1.361 . S
C509 H527 0.931 . S
C510 C508 1.500 . S
C510 C511 1.371 . S
C510 C512 1.365 . S
C511 C510 1.371 . S
C511 C521 1.386 1_655 S
C511 H529 0.931 . S
C512 C510 1.365 . S
C512 C513 1.409 . S
C512 H530 0.929 . S
C513 C512 1.409 . S
C513 C514 1.380 . S
C513 H531 0.930 . S
C514 C513 1.380 . S
C514 C521 1.357 1_655 S
C515 C506 1.511 . S
C515 C516 1.341 . S
C515 C517 1.371 . S
C516 C515 1.341 . S
C516 C520 1.394 . S
C516 H532 0.930 . S
C517 C515 1.371 . S
C517 C518 1.392 . S
C517 H533 0.931 . S
C518 C517 1.392 . S
C518 C519 1.331 . S
C518 H536 0.932 1_655 S
C519 C518 1.331 . S
C519 C520 1.336 . S
C520 C516 1.394 . S
C520 C519 1.336 . S
C520 H535 0.929 . S
C521 C511 1.386 1_455 S
C521 C514 1.357 1_455 S
C521 H534 0.928 . S
H522 C498 0.931 . S
H523 C500 0.930 . S
H524 C502 0.929 . S
H525 C503 0.931 . S
H526 C505 0.930 . S
H527 C509 0.931 . S
H528 C507 0.931 . S
H529 C511 0.931 . S
H530 C512 0.929 . S
H531 C513 0.930 . S
H532 C516 0.930 . S
H533 C517 0.931 . S
H534 C521 0.928 . S
H535 C520 0.929 . S
H536 C518 0.932 1_455 S
C537 C538 1.386 . S
C537 C539 1.397 . S
C537 H561 0.931 . S
C538 C537 1.386 . S
C538 C542 1.397 1_554 S
C539 C537 1.397 . S
C539 C540 1.384 . S
C539 H562 0.930 . S
C540 C539 1.384 . S
C540 C541 1.377 1_554 S
C540 C543 1.481 . S
C541 C540 1.377 1_556 S
C541 C542 1.389 . S
C541 H563 0.929 . S
C542 C538 1.397 1_556 S
C542 C541 1.389 . S
C542 H564 0.931 . S
C543 C540 1.481 . S
C543 C544 1.387 . S
C543 C548 1.390 1_554 S
C544 C543 1.387 . S
C544 C545 1.401 . S
C544 H565 0.930 . S
C545 C544 1.401 . S
C545 C546 1.376 1_554 S
C545 C554 1.511 . S
C546 C545 1.376 1_556 S
C546 C547 1.392 . S
C546 H567 0.931 . S
C547 C546 1.392 . S
C547 C548 1.361 . S
C547 C549 1.500 . S
C548 C543 1.390 1_556 S
C548 C547 1.361 . S
C548 H566 0.931 . S
C549 C547 1.500 . S
C549 C550 1.371 . S
C549 C551 1.365 . S
C550 C549 1.371 . S
C550 C560 1.386 . S
C550 H568 0.931 . S
C551 C549 1.365 . S
C551 C552 1.409 . S
C551 H569 0.929 . S
C552 C551 1.409 . S
C552 C553 1.380 . S
C552 H570 0.930 . S
C553 C552 1.380 . S
C553 C560 1.357 . S
C554 C545 1.511 . S
C554 C555 1.341 . S
C554 C556 1.371 . S
C555 C554 1.341 . S
C555 C559 1.394 . S
C555 H571 0.930 . S
C556 C554 1.371 . S
C556 C557 1.392 . S
C556 H572 0.931 . S
C557 C556 1.392 . S
C557 C558 1.331 . S
C557 H575 0.932 . S
C558 C557 1.331 . S
C558 C559 1.336 . S
C559 C555 1.394 . S
C559 C558 1.336 . S
C559 H574 0.929 . S
C560 C550 1.386 . S
C560 C553 1.357 . S
C560 H573 0.928 . S
H561 C537 0.931 . S
H562 C539 0.930 . S
H563 C541 0.929 . S
H564 C542 0.931 . S
H565 C544 0.930 . S
H566 C548 0.931 . S
H567 C546 0.931 . S
H568 C550 0.931 . S
H569 C551 0.929 . S
H570 C552 0.930 . S
H571 C555 0.930 . S
H572 C556 0.931 . S
H573 C560 0.928 . S
H574 C559 0.929 . S
H575 C557 0.932 . S
C576 C577 1.386 . S
C576 C578 1.397 . S
C576 H600 0.931 . S
C577 C576 1.386 . S
C577 C581 1.397 . S
C578 C576 1.397 . S
C578 C579 1.384 . S
C578 H601 0.930 . S
C579 C578 1.384 . S
C579 C580 1.377 . S
C579 C582 1.481 . S
C580 C579 1.377 . S
C580 C581 1.389 . S
C580 H602 0.929 . S
C581 C577 1.397 . S
C581 C580 1.389 . S
C581 H603 0.931 . S
C582 C579 1.481 . S
C582 C583 1.387 . S
C582 C587 1.390 . S
C583 C582 1.387 . S
C583 C584 1.401 . S
C583 H604 0.930 . S
C584 C583 1.401 . S
C584 C585 1.376 . S
C584 C593 1.511 . S
C585 C584 1.376 . S
C585 C586 1.392 . S
C585 H606 0.931 . S
C586 C585 1.392 . S
C586 C587 1.361 . S
C586 C588 1.500 . S
C587 C582 1.390 . S
C587 C586 1.361 . S
C587 H605 0.931 . S
C588 C586 1.500 . S
C588 C589 1.371 . S
C588 C590 1.365 . S
C589 C588 1.371 . S
C589 C599 1.386 . S
C589 H607 0.931 . S
C590 C588 1.365 . S
C590 C591 1.409 . S
C590 H608 0.929 . S
C591 C590 1.409 . S
C591 C592 1.380 . S
C591 H609 0.930 . S
C592 C591 1.380 . S
C592 C599 1.357 . S
C593 C584 1.511 . S
C593 C594 1.341 . S
C593 C595 1.371 . S
C594 C593 1.341 . S
C594 C598 1.394 . S
C594 H610 0.930 . S
C595 C593 1.371 . S
C595 C596 1.392 . S
C595 H611 0.931 . S
C596 C595 1.392 . S
C596 C597 1.331 . S
C596 H614 0.932 . S
C597 C596 1.331 . S
C597 C598 1.336 . S
C598 C594 1.394 . S
C598 C597 1.336 . S
C598 H613 0.929 . S
C599 C589 1.386 . S
C599 C592 1.357 . S
C599 H612 0.928 . S
H600 C576 0.931 . S
H601 C578 0.930 . S
H602 C580 0.929 . S
H603 C581 0.931 . S
H604 C583 0.930 . S
H605 C587 0.931 . S
H606 C585 0.931 . S
H607 C589 0.931 . S
H608 C590 0.929 . S
H609 C591 0.930 . S
H610 C594 0.930 . S
H611 C595 0.931 . S
H612 C599 0.928 . S
H613 C598 0.929 . S
H614 C596 0.932 . S
C615 C616 1.386 1_655 S
C615 C617 1.397 . S
C615 H639 0.931 . S
C616 C615 1.386 1_455 S
C616 C620 1.397 . S
C617 C615 1.397 . S
C617 C618 1.383 1_655 S
C617 H640 0.930 . S
C618 C617 1.383 1_455 S
C618 C619 1.378 . S
C618 C621 1.482 1_455 S
C619 C618 1.378 . S
C619 C620 1.389 . S
C619 H641 0.929 . S
C620 C616 1.397 . S
C620 C619 1.389 . S
C620 H642 0.931 . S
C621 C618 1.482 1_655 S
C621 C622 1.402 . S
C621 C626 1.374 1_655 S
C622 C621 1.402 . S
C622 C623 1.401 . S
C622 H643 0.930 . S
C623 C622 1.401 . S
C623 C624 1.376 . S
C623 C632 1.511 . S
C624 C623 1.376 . S
C624 C625 1.392 1_655 S
C624 H645 0.931 . S
C625 C624 1.392 1_455 S
C625 C626 1.361 . S
C625 C627 1.500 . S
C626 C621 1.374 1_455 S
C626 C625 1.361 . S
C626 H644 0.931 . S
C627 C625 1.500 . S
C627 C628 1.371 . S
C627 C629 1.365 . S
C628 C627 1.371 . S
C628 C638 1.386 . S
C628 H646 0.931 . S
C629 C627 1.365 . S
C629 C630 1.409 . S
C629 H647 0.929 . S
C630 C629 1.409 . S
C630 C631 1.380 . S
C630 H648 0.930 . S
C631 C630 1.380 . S
C631 C638 1.357 . S
C632 C623 1.511 . S
C632 C633 1.341 . S
C632 C634 1.371 . S
C633 C632 1.341 . S
C633 C637 1.394 . S
C633 H649 0.930 . S
C634 C632 1.371 . S
C634 C635 1.392 1_545 S
C634 H650 0.931 1_545 S
C635 C634 1.392 1_565 S
C635 C636 1.331 1_565 S
C635 H653 0.932 . S
C636 C635 1.331 1_545 S
C636 C637 1.336 . S
C637 C633 1.394 . S
C637 C636 1.336 . S
C637 H652 0.929 . S
C638 C628 1.386 . S
C638 C631 1.357 . S
C638 H651 0.928 1_545 S
H639 C615 0.931 . S
H640 C617 0.930 . S
H641 C619 0.929 . S
H642 C620 0.931 . S
H643 C622 0.930 . S
H644 C626 0.931 . S
H645 C624 0.931 . S
H646 C628 0.931 . S
H647 C629 0.929 . S
H648 C630 0.930 . S
H649 C633 0.930 . S
H650 C634 0.931 1_565 S
H651 C638 0.928 1_565 S
H652 C637 0.929 . S
H653 C635 0.932 . S
C654 C655 1.386 . S
C654 C656 1.397 . S
C654 H678 0.931 . S
C655 C654 1.386 . S
C655 C659 1.397 . S
C656 C654 1.397 . S
C656 C657 1.384 . S
C656 H679 0.930 . S
C657 C656 1.384 . S
C657 C658 1.377 . S
C657 C660 1.481 . S
C658 C657 1.377 . S
C658 C659 1.389 . S
C658 H680 0.929 . S
C659 C655 1.397 . S
C659 C658 1.389 . S
C659 H681 0.931 . S
C660 C657 1.481 . S
C660 C661 1.387 . S
C660 C665 1.390 . S
C661 C660 1.387 . S
C661 C662 1.401 . S
C661 H682 0.930 . S
C662 C661 1.401 . S
C662 C663 1.376 . S
C662 C671 1.511 . S
C663 C662 1.376 . S
C663 C664 1.392 . S
C663 H684 0.931 . S
C664 C663 1.392 . S
C664 C665 1.361 . S
C664 C666 1.500 . S
C665 C660 1.390 . S
C665 C664 1.361 . S
C665 H683 0.931 . S
C666 C664 1.500 . S
C666 C667 1.371 . S
C666 C668 1.365 . S
C667 C666 1.371 . S
C667 C677 1.386 1_565 S
C667 H685 0.931 . S
C668 C666 1.365 . S
C668 C669 1.409 . S
C668 H686 0.929 . S
C669 C668 1.409 . S
C669 C670 1.380 . S
C669 H687 0.930 . S
C670 C669 1.380 . S
C670 C677 1.357 1_565 S
C671 C662 1.511 . S
C671 C672 1.341 . S
C671 C673 1.371 . S
C672 C671 1.341 . S
C672 C676 1.394 . S
C672 H688 0.930 . S
C673 C671 1.371 . S
C673 C674 1.392 . S
C673 H689 0.931 . S
C674 C673 1.392 . S
C674 C675 1.331 . S
C674 H692 0.932 1_565 S
C675 C674 1.331 . S
C675 C676 1.336 . S
C676 C672 1.394 . S
C676 C675 1.336 . S
C676 H691 0.929 . S
C677 C667 1.386 1_545 S
C677 C670 1.357 1_545 S
C677 H690 0.928 . S
H678 C654 0.931 . S
H679 C656 0.930 . S
H680 C658 0.929 . S
H681 C659 0.931 . S
H682 C661 0.930 . S
H683 C665 0.931 . S
H684 C663 0.931 . S
H685 C667 0.931 . S
H686 C668 0.929 . S
H687 C669 0.930 . S
H688 C672 0.930 . S
H689 C673 0.931 . S
H690 C677 0.928 . S
H691 C676 0.929 . S
H692 C674 0.932 1_545 S
C693 C694 1.386 . S
C693 C695 1.397 . S
C693 H717 0.931 . S
C694 C693 1.386 . S
C694 C698 1.397 1_455 S
C695 C693 1.397 . S
C695 C696 1.384 . S
C695 H718 0.930 . S
C696 C695 1.384 . S
C696 C697 1.377 1_455 S
C696 C699 1.481 . S
C697 C696 1.377 1_655 S
C697 C698 1.389 . S
C697 H719 0.929 . S
C698 C694 1.397 1_655 S
C698 C697 1.389 . S
C698 H720 0.931 . S
C699 C696 1.481 . S
C699 C700 1.387 . S
C699 C704 1.390 1_455 S
C700 C699 1.387 . S
C700 C701 1.401 . S
C700 H721 0.930 . S
C701 C700 1.401 . S
C701 C702 1.376 1_455 S
C701 C710 1.511 . S
C702 C701 1.376 1_655 S
C702 C703 1.392 . S
C702 H723 0.931 . S
C703 C702 1.392 . S
C703 C704 1.361 . S
C703 C705 1.500 . S
C704 C699 1.390 1_655 S
C704 C703 1.361 . S
C704 H722 0.931 . S
C705 C703 1.500 . S
C705 C706 1.371 . S
C705 C707 1.365 . S
C706 C705 1.371 . S
C706 C716 1.386 . S
C706 H724 0.931 . S
C707 C705 1.365 . S
C707 C708 1.409 . S
C707 H725 0.929 . S
C708 C707 1.409 . S
C708 C709 1.380 . S
C708 H726 0.930 . S
C709 C708 1.380 . S
C709 C716 1.357 . S
C710 C701 1.511 . S
C710 C711 1.341 . S
C710 C712 1.371 . S
C711 C710 1.341 . S
C711 C715 1.394 . S
C711 H727 0.930 . S
C712 C710 1.371 . S
C712 C713 1.392 . S
C712 H728 0.931 . S
C713 C712 1.392 . S
C713 C714 1.331 . S
C713 H731 0.932 . S
C714 C713 1.331 . S
C714 C715 1.336 . S
C715 C711 1.394 . S
C715 C714 1.336 . S
C715 H730 0.929 . S
C716 C706 1.386 . S
C716 C709 1.357 . S
C716 H729 0.928 . S
H717 C693 0.931 . S
H718 C695 0.930 . S
H719 C697 0.929 . S
H720 C698 0.931 . S
H721 C700 0.930 . S
H722 C704 0.931 . S
H723 C702 0.931 . S
H724 C706 0.931 . S
H725 C707 0.929 . S
H726 C708 0.930 . S
H727 C711 0.930 . S
H728 C712 0.931 . S
H729 C716 0.928 . S
H730 C715 0.929 . S
H731 C713 0.932 . S
C732 C733 1.386 . S
C732 C734 1.397 . S
C732 H756 0.931 . S
C733 C732 1.386 . S
C733 C737 1.397 . S
C734 C732 1.397 . S
C734 C735 1.384 . S
C734 H757 0.930 . S
C735 C734 1.384 . S
C735 C736 1.377 . S
C735 C738 1.481 . S
C736 C735 1.377 . S
C736 C737 1.389 . S
C736 H758 0.929 . S
C737 C733 1.397 . S
C737 C736 1.389 . S
C737 H759 0.931 . S
C738 C735 1.481 . S
C738 C739 1.387 . S
C738 C743 1.390 . S
C739 C738 1.387 . S
C739 C740 1.401 . S
C739 H760 0.930 . S
C740 C739 1.401 . S
C740 C741 1.376 . S
C740 C749 1.511 . S
C741 C740 1.376 . S
C741 C742 1.392 . S
C741 H762 0.931 . S
C742 C741 1.392 . S
C742 C743 1.361 . S
C742 C744 1.500 . S
C743 C738 1.390 . S
C743 C742 1.361 . S
C743 H761 0.931 . S
C744 C742 1.500 . S
C744 C745 1.371 . S
C744 C746 1.365 . S
C745 C744 1.371 . S
C745 C755 1.386 . S
C745 H763 0.931 . S
C746 C744 1.365 . S
C746 C747 1.409 . S
C746 H764 0.929 . S
C747 C746 1.409 . S
C747 C748 1.380 . S
C747 H765 0.930 . S
C748 C747 1.380 . S
C748 C755 1.357 . S
C749 C740 1.511 . S
C749 C750 1.341 . S
C749 C751 1.371 . S
C750 C749 1.341 . S
C750 C754 1.394 . S
C750 H766 0.930 . S
C751 C749 1.371 . S
C751 C752 1.392 . S
C751 H767 0.931 . S
C752 C751 1.392 . S
C752 C753 1.331 . S
C752 H770 0.932 . S
C753 C752 1.331 . S
C753 C754 1.336 . S
C754 C750 1.394 . S
C754 C753 1.336 . S
C754 H769 0.929 . S
C755 C745 1.386 . S
C755 C748 1.357 . S
C755 H768 0.928 . S
H756 C732 0.931 . S
H757 C734 0.930 . S
H758 C736 0.929 . S
H759 C737 0.931 . S
H760 C739 0.930 . S
H761 C743 0.931 . S
H762 C741 0.931 . S
H763 C745 0.931 . S
H764 C746 0.929 . S
H765 C747 0.930 . S
H766 C750 0.930 . S
H767 C751 0.931 . S
H768 C755 0.928 . S
H769 C754 0.929 . S
H770 C752 0.932 . S
C771 C772 1.386 . S
C771 C773 1.397 . S
C771 H795 0.931 . S
C772 C771 1.386 . S
C772 C776 1.397 . S
C773 C771 1.397 . S
C773 C774 1.384 . S
C773 H796 0.930 . S
C774 C773 1.384 . S
C774 C775 1.377 . S
C774 C777 1.481 . S
C775 C774 1.377 . S
C775 C776 1.389 . S
C775 H797 0.929 . S
C776 C772 1.397 . S
C776 C775 1.389 . S
C776 H798 0.931 . S
C777 C774 1.481 . S
C777 C778 1.387 . S
C777 C782 1.390 . S
C778 C777 1.387 . S
C778 C779 1.401 . S
C778 H799 0.930 . S
C779 C778 1.401 . S
C779 C780 1.376 . S
C779 C788 1.511 . S
C780 C779 1.376 . S
C780 C781 1.392 . S
C780 H801 0.931 . S
C781 C780 1.392 . S
C781 C782 1.361 . S
C781 C783 1.500 . S
C782 C777 1.390 . S
C782 C781 1.361 . S
C782 H800 0.931 . S
C783 C781 1.500 . S
C783 C784 1.371 . S
C783 C785 1.365 . S
C784 C783 1.371 . S
C784 C794 1.386 1_554 S
C784 H802 0.924 1_554 S
C785 C783 1.365 . S
C785 C786 1.409 . S
C785 H803 0.929 . S
C786 C785 1.409 . S
C786 C787 1.380 . S
C786 H804 0.930 . S
C787 C786 1.380 . S
C787 C794 1.357 1_554 S
C788 C779 1.511 . S
C788 C789 1.341 . S
C788 C790 1.371 . S
C789 C788 1.341 . S
C789 C793 1.394 . S
C789 H805 0.930 . S
C790 C788 1.371 . S
C790 C791 1.392 . S
C790 H806 0.931 . S
C791 C790 1.392 . S
C791 C792 1.331 . S
C791 H809 0.932 1_554 S
C792 C791 1.331 . S
C792 C793 1.336 . S
C793 C789 1.394 . S
C793 C792 1.336 . S
C793 H808 0.929 . S
C794 C784 1.386 1_556 S
C794 C787 1.357 1_556 S
C794 H807 0.928 . S
H795 C771 0.931 . S
H796 C773 0.930 . S
H797 C775 0.929 . S
H798 C776 0.931 . S
H799 C778 0.930 . S
H800 C782 0.931 . S
H801 C780 0.931 . S
H802 C784 0.924 1_556 S
H803 C785 0.929 . S
H804 C786 0.930 . S
H805 C789 0.930 . S
H806 C790 0.931 . S
H807 C794 0.928 . S
H808 C793 0.929 . S
H809 C791 0.932 1_556 S
C810 C811 1.386 . S
C810 C812 1.397 . S
C810 H834 0.931 . S
C811 C810 1.386 . S
C811 C815 1.397 1_565 S
C812 C810 1.397 . S
C812 C813 1.384 . S
C812 H835 0.930 . S
C813 C812 1.384 . S
C813 C814 1.377 1_565 S
C813 C816 1.481 . S
C814 C813 1.377 1_545 S
C814 C815 1.389 . S
C814 H836 0.929 . S
C815 C811 1.397 1_545 S
C815 C814 1.389 . S
C815 H837 0.931 . S
C816 C813 1.481 . S
C816 C817 1.387 . S
C816 C821 1.390 1_565 S
C817 C816 1.387 . S
C817 C818 1.401 . S
C817 H838 0.930 . S
C818 C817 1.401 . S
C818 C819 1.376 1_565 S
C818 C827 1.511 . S
C819 C818 1.376 1_545 S
C819 C820 1.392 . S
C819 H840 0.931 . S
C820 C819 1.392 . S
C820 C821 1.361 . S
C820 C822 1.500 . S
C821 C816 1.390 1_545 S
C821 C820 1.361 . S
C821 H839 0.931 . S
C822 C820 1.500 . S
C822 C823 1.371 . S
C822 C824 1.365 . S
C823 C822 1.371 . S
C823 C833 1.386 . S
C823 H841 0.931 . S
C824 C822 1.365 . S
C824 C825 1.409 . S
C824 H842 0.929 . S
C825 C824 1.409 . S
C825 C826 1.380 . S
C825 H843 0.930 . S
C826 C825 1.380 . S
C826 C833 1.357 . S
C827 C818 1.511 . S
C827 C828 1.341 . S
C827 C829 1.371 . S
C828 C827 1.341 . S
C828 C832 1.394 . S
C828 H844 0.930 . S
C829 C827 1.371 . S
C829 C830 1.392 . S
C829 H845 0.931 . S
C830 C829 1.392 . S
C830 C831 1.331 . S
C830 H848 0.932 . S
C831 C830 1.331 . S
C831 C832 1.336 . S
C832 C828 1.394 . S
C832 C831 1.336 . S
C832 H847 0.929 . S
C833 C823 1.386 . S
C833 C826 1.357 . S
C833 H846 0.928 . S
H834 C810 0.931 . S
H835 C812 0.930 . S
H836 C814 0.929 . S
H837 C815 0.931 . S
H838 C817 0.930 . S
H839 C821 0.931 . S
H840 C819 0.931 . S
H841 C823 0.931 . S
H842 C824 0.929 . S
H843 C825 0.930 . S
H844 C828 0.930 . S
H845 C829 0.931 . S
H846 C833 0.928 . S
H847 C832 0.929 . S
H848 C830 0.932 . S
C849 C850 1.386 1_545 S
C849 C851 1.397 . S
C849 H873 0.931 . S
C850 C849 1.386 1_565 S
C850 C854 1.397 . S
C851 C849 1.397 . S
C851 C852 1.384 1_545 S
C851 H874 0.930 . S
C852 C851 1.384 1_565 S
C852 C853 1.377 . S
C852 C855 1.482 1_565 S
C853 C852 1.377 . S
C853 C854 1.389 . S
C853 H875 0.929 . S
C854 C850 1.397 . S
C854 C853 1.389 . S
C854 H876 0.931 . S
C855 C852 1.482 1_545 S
C855 C856 1.406 . S
C855 C860 1.370 1_545 S
C856 C855 1.406 . S
C856 C857 1.401 . S
C856 H877 0.930 . S
C857 C856 1.401 . S
C857 C858 1.376 . S
C857 C866 1.511 . S
C858 C857 1.376 . S
C858 C859 1.392 1_545 S
C858 H879 0.931 . S
C859 C858 1.392 1_565 S
C859 C860 1.361 . S
C859 C861 1.500 . S
C860 C855 1.370 1_565 S
C860 C859 1.361 . S
C860 H878 0.931 . S
C861 C859 1.500 . S
C861 C862 1.371 . S
C861 C863 1.365 . S
C862 C861 1.371 . S
C862 C872 1.404 . S
C862 H880 0.931 . S
C863 C861 1.365 . S
C863 C864 1.409 . S
C863 H881 0.929 . S
C864 C863 1.409 . S
C864 C865 1.380 . S
C864 H882 0.930 . S
C865 C864 1.380 . S
C865 C872 1.370 . S
C866 C857 1.511 . S
C866 C867 1.341 . S
C866 C868 1.371 . S
C867 C866 1.341 . S
C867 C871 1.394 . S
C867 H883 0.930 . S
C868 C866 1.371 . S
C868 C869 1.392 1_556 S
C868 H884 0.931 1_556 S
C869 C868 1.392 1_554 S
C869 C870 1.331 1_554 S
C869 H887 0.932 . S
C870 C869 1.331 1_556 S
C870 C871 1.336 . S
C871 C867 1.394 . S
C871 C870 1.336 . S
C871 H886 0.929 . S
C872 C862 1.404 . S
C872 C865 1.370 . S
C872 H885 0.898 1_556 S
H873 C849 0.931 . S
H874 C851 0.930 . S
H875 C853 0.929 . S
H876 C854 0.931 . S
H877 C856 0.930 . S
H878 C860 0.931 . S
H879 C858 0.931 . S
H880 C862 0.931 . S
H881 C863 0.929 . S
H882 C864 0.930 . S
H883 C867 0.930 . S
H884 C868 0.931 1_554 S
H885 C872 0.898 1_554 S
H886 C871 0.929 . S
H887 C869 0.932 . S
C888 C889 1.386 . S
C888 C890 1.397 . S
C888 H912 0.931 . S
C889 C888 1.386 . S
C889 C893 1.397 . S
C890 C888 1.397 . S
C890 C891 1.384 . S
C890 H913 0.930 . S
C891 C890 1.384 . S
C891 C892 1.377 . S
C891 C894 1.481 . S
C892 C891 1.377 . S
C892 C893 1.389 . S
C892 H914 0.929 . S
C893 C889 1.397 . S
C893 C892 1.389 . S
C893 H915 0.931 . S
C894 C891 1.481 . S
C894 C895 1.387 . S
C894 C899 1.390 . S
C895 C894 1.387 . S
C895 C896 1.401 . S
C895 H916 0.930 . S
C896 C895 1.401 . S
C896 C897 1.376 . S
C896 C905 1.511 . S
C897 C896 1.376 . S
C897 C898 1.392 . S
C897 H918 0.931 . S
C898 C897 1.392 . S
C898 C899 1.361 . S
C898 C900 1.500 . S
C899 C894 1.390 . S
C899 C898 1.361 . S
C899 H917 0.931 . S
C900 C898 1.500 . S
C900 C901 1.371 . S
C900 C902 1.365 . S
C901 C900 1.371 . S
C901 C911 1.386 . S
C901 H919 0.931 . S
C902 C900 1.365 . S
C902 C903 1.409 . S
C902 H920 0.929 . S
C903 C902 1.409 . S
C903 C904 1.380 . S
C903 H921 0.930 . S
C904 C903 1.380 . S
C904 C911 1.357 . S
C905 C896 1.511 . S
C905 C906 1.341 . S
C905 C907 1.371 . S
C906 C905 1.341 . S
C906 C910 1.394 . S
C906 H922 0.930 . S
C907 C905 1.371 . S
C907 C908 1.392 . S
C907 H923 0.931 . S
C908 C907 1.392 . S
C908 C909 1.331 . S
C908 H926 0.932 . S
C909 C908 1.331 . S
C909 C910 1.336 . S
C910 C906 1.394 . S
C910 C909 1.336 . S
C910 H925 0.929 . S
C911 C901 1.386 . S
C911 C904 1.357 . S
C911 H924 0.928 . S
H912 C888 0.931 . S
H913 C890 0.930 . S
H914 C892 0.929 . S
H915 C893 0.931 . S
H916 C895 0.930 . S
H917 C899 0.931 . S
H918 C897 0.931 . S
H919 C901 0.931 . S
H920 C902 0.929 . S
H921 C903 0.930 . S
H922 C906 0.930 . S
H923 C907 0.931 . S
H924 C911 0.928 . S
H925 C910 0.929 . S
H926 C908 0.932 . S
C927 C928 1.386 1_554 S
C927 C929 1.397 . S
C927 H951 0.931 . S
C928 C927 1.386 1_556 S
C928 C932 1.397 . S
C929 C927 1.397 . S
C929 C930 1.384 1_554 S
C929 H952 0.930 . S
C930 C929 1.384 1_556 S
C930 C931 1.377 . S
C930 C933 1.482 1_556 S
C931 C930 1.377 . S
C931 C932 1.389 . S
C931 H953 0.929 . S
C932 C928 1.397 . S
C932 C931 1.389 . S
C932 H954 0.931 . S
C933 C930 1.482 1_554 S
C933 C934 1.406 . S
C933 C938 1.370 1_554 S
C934 C933 1.406 . S
C934 C935 1.401 . S
C934 H955 0.930 . S
C935 C934 1.401 . S
C935 C936 1.376 . S
C935 C944 1.511 . S
C936 C935 1.376 . S
C936 C937 1.392 1_554 S
C936 H957 0.931 . S
C937 C936 1.392 1_556 S
C937 C938 1.361 . S
C937 C939 1.500 . S
C938 C933 1.370 1_556 S
C938 C937 1.361 . S
C938 H956 0.931 . S
C939 C937 1.500 . S
C939 C940 1.371 . S
C939 C941 1.365 . S
C940 C939 1.371 . S
C940 C950 1.404 . S
C940 H958 0.931 . S
C941 C939 1.365 . S
C941 C942 1.409 . S
C941 H959 0.929 . S
C942 C941 1.409 . S
C942 C943 1.380 . S
C942 H960 0.930 . S
C943 C942 1.380 . S
C943 C950 1.370 . S
C944 C935 1.511 . S
C944 C945 1.341 . S
C944 C946 1.371 . S
C945 C944 1.341 . S
C945 C949 1.394 . S
C945 H961 0.930 . S
C946 C944 1.371 . S
C946 C947 1.392 1_655 S
C946 H962 0.931 1_655 S
C947 C946 1.392 1_455 S
C947 C948 1.331 1_455 S
C947 H965 0.932 . S
C948 C947 1.331 1_655 S
C948 C949 1.336 . S
C949 C945 1.394 . S
C949 C948 1.336 . S
C949 H964 0.929 . S
C950 C940 1.404 . S
C950 C943 1.370 . S
C950 H963 0.898 1_655 S
H951 C927 0.931 . S
H952 C929 0.930 . S
H953 C931 0.929 . S
H954 C932 0.931 . S
H955 C934 0.930 . S
H956 C938 0.931 . S
H957 C936 0.931 . S
H958 C940 0.931 . S
H959 C941 0.929 . S
H960 C942 0.930 . S
H961 C945 0.930 . S
H962 C946 0.931 1_455 S
H963 C950 0.898 1_455 S
H964 C949 0.929 . S
H965 C947 0.932 . S
C966 C967 1.386 . S
C966 C968 1.397 . S
C966 H990 0.931 . S
C967 C966 1.386 . S
C967 C971 1.397 . S
C968 C966 1.397 . S
C968 C969 1.384 . S
C968 H991 0.930 . S
C969 C968 1.384 . S
C969 C970 1.377 . S
C969 C972 1.481 . S
C970 C969 1.377 . S
C970 C971 1.389 . S
C970 H992 0.929 . S
C971 C967 1.397 . S
C971 C970 1.389 . S
C971 H993 0.931 . S
C972 C969 1.481 . S
C972 C973 1.387 . S
C972 C977 1.390 . S
C973 C972 1.387 . S
C973 C974 1.401 . S
C973 H994 0.930 . S
C974 C973 1.401 . S
C974 C975 1.376 . S
C974 C983 1.511 . S
C975 C974 1.376 . S
C975 C976 1.392 . S
C975 H996 0.931 . S
C976 C975 1.392 . S
C976 C977 1.361 . S
C976 C978 1.500 . S
C977 C972 1.390 . S
C977 C976 1.361 . S
C977 H995 0.931 . S
C978 C976 1.500 . S
C978 C979 1.371 . S
C978 C980 1.365 . S
C979 C978 1.371 . S
C979 C989 1.386 1_455 S
C979 H997 0.924 1_455 S
C980 C978 1.365 . S
C980 C981 1.409 . S
C980 H998 0.929 . S
C981 C980 1.409 . S
C981 C982 1.380 . S
C981 H999 0.930 . S
C982 C981 1.380 . S
C982 C989 1.357 1_455 S
C983 C974 1.511 . S
C983 C984 1.341 . S
C983 C985 1.371 . S
C984 C983 1.341 . S
C984 C988 1.394 . S
C984 H1000 0.930 . S
C985 C983 1.371 . S
C985 C986 1.392 . S
C985 H1001 0.931 . S
C986 C985 1.392 . S
C986 C987 1.331 . S
C986 H1004 0.932 1_455 S
C987 C986 1.331 . S
C987 C988 1.336 . S
C988 C984 1.394 . S
C988 C987 1.336 . S
C988 H1003 0.929 . S
C989 C979 1.386 1_655 S
C989 C982 1.357 1_655 S
C989 H1002 0.928 . S
H990 C966 0.931 . S
H991 C968 0.930 . S
H992 C970 0.929 . S
H993 C971 0.931 . S
H994 C973 0.930 . S
H995 C977 0.931 . S
H996 C975 0.931 . S
H997 C979 0.924 1_655 S
H998 C980 0.929 . S
H999 C981 0.930 . S
H1000 C984 0.930 . S
H1001 C985 0.931 . S
H1002 C989 0.928 . S
H1003 C988 0.929 . S
H1004 C986 0.932 1_655 S
C1005 C1006 1.386 . S
C1005 C1007 1.397 . S
C1005 H1029 0.931 . S
C1006 C1005 1.386 . S
C1006 C1010 1.397 1_556 S
C1007 C1005 1.397 . S
C1007 C1008 1.384 . S
C1007 H1030 0.930 . S
C1008 C1007 1.384 . S
C1008 C1009 1.377 1_556 S
C1008 C1011 1.481 . S
C1009 C1008 1.377 1_554 S
C1009 C1010 1.389 . S
C1009 H1031 0.929 . S
C1010 C1006 1.397 1_554 S
C1010 C1009 1.389 . S
C1010 H1032 0.931 . S
C1011 C1008 1.481 . S
C1011 C1012 1.387 . S
C1011 C1016 1.390 1_556 S
C1012 C1011 1.387 . S
C1012 C1013 1.401 . S
C1012 H1033 0.930 . S
C1013 C1012 1.401 . S
C1013 C1014 1.376 1_556 S
C1013 C1022 1.511 . S
C1014 C1013 1.376 1_554 S
C1014 C1015 1.392 . S
C1014 H1035 0.931 . S
C1015 C1014 1.392 . S
C1015 C1016 1.361 . S
C1015 C1017 1.500 . S
C1016 C1011 1.390 1_554 S
C1016 C1015 1.361 . S
C1016 H1034 0.931 . S
C1017 C1015 1.500 . S
C1017 C1018 1.371 . S
C1017 C1019 1.365 . S
C1018 C1017 1.371 . S
C1018 C1028 1.386 . S
C1018 H1036 0.931 . S
C1019 C1017 1.365 . S
C1019 C1020 1.409 . S
C1019 H1037 0.929 . S
C1020 C1019 1.409 . S
C1020 C1021 1.380 . S
C1020 H1038 0.930 . S
C1021 C1020 1.380 . S
C1021 C1028 1.357 . S
C1022 C1013 1.511 . S
C1022 C1023 1.341 . S
C1022 C1024 1.371 . S
C1023 C1022 1.341 . S
C1023 C1027 1.394 . S
C1023 H1039 0.930 . S
C1024 C1022 1.371 . S
C1024 C1025 1.392 . S
C1024 H1040 0.931 . S
C1025 C1024 1.392 . S
C1025 C1026 1.331 . S
C1025 H1043 0.932 . S
C1026 C1025 1.331 . S
C1026 C1027 1.336 . S
C1027 C1023 1.394 . S
C1027 C1026 1.336 . S
C1027 H1042 0.929 . S
C1028 C1018 1.386 . S
C1028 C1021 1.357 . S
C1028 H1041 0.928 . S
H1029 C1005 0.931 . S
H1030 C1007 0.930 . S
H1031 C1009 0.929 . S
H1032 C1010 0.931 . S
H1033 C1012 0.930 . S
H1034 C1016 0.931 . S
H1035 C1014 0.931 . S
H1036 C1018 0.931 . S
H1037 C1019 0.929 . S
H1038 C1020 0.930 . S
H1039 C1023 0.930 . S
H1040 C1024 0.931 . S
H1041 C1028 0.928 . S
H1042 C1027 0.929 . S
H1043 C1025 0.932 . S
C1044 C1045 1.386 . S
C1044 C1046 1.397 . S
C1044 H1068 0.931 . S
C1045 C1044 1.386 . S
C1045 C1049 1.397 . S
C1046 C1044 1.397 . S
C1046 C1047 1.384 . S
C1046 H1069 0.930 . S
C1047 C1046 1.384 . S
C1047 C1048 1.377 . S
C1047 C1050 1.481 . S
C1048 C1047 1.377 . S
C1048 C1049 1.389 . S
C1048 H1070 0.929 . S
C1049 C1045 1.397 . S
C1049 C1048 1.389 . S
C1049 H1071 0.931 . S
C1050 C1047 1.481 . S
C1050 C1051 1.387 . S
C1050 C1055 1.390 . S
C1051 C1050 1.387 . S
C1051 C1052 1.401 . S
C1051 H1072 0.930 . S
C1052 C1051 1.401 . S
C1052 C1053 1.376 . S
C1052 C1061 1.511 . S
C1053 C1052 1.376 . S
C1053 C1054 1.392 . S
C1053 H1074 0.931 . S
C1054 C1053 1.392 . S
C1054 C1055 1.361 . S
C1054 C1056 1.500 . S
C1055 C1050 1.390 . S
C1055 C1054 1.361 . S
C1055 H1073 0.931 . S
C1056 C1054 1.500 . S
C1056 C1057 1.371 . S
C1056 C1058 1.365 . S
C1057 C1056 1.371 . S
C1057 C1067 1.386 . S
C1057 H1075 0.931 . S
C1058 C1056 1.365 . S
C1058 C1059 1.409 . S
C1058 H1076 0.929 . S
C1059 C1058 1.409 . S
C1059 C1060 1.380 . S
C1059 H1077 0.930 . S
C1060 C1059 1.380 . S
C1060 C1067 1.357 . S
C1061 C1052 1.511 . S
C1061 C1062 1.341 . S
C1061 C1063 1.371 . S
C1062 C1061 1.341 . S
C1062 C1066 1.394 . S
C1062 H1078 0.930 . S
C1063 C1061 1.371 . S
C1063 C1064 1.392 . S
C1063 H1079 0.931 . S
C1064 C1063 1.392 . S
C1064 C1065 1.331 . S
C1064 H1082 0.932 . S
C1065 C1064 1.331 . S
C1065 C1066 1.336 . S
C1066 C1062 1.394 . S
C1066 C1065 1.336 . S
C1066 H1081 0.929 . S
C1067 C1057 1.386 . S
C1067 C1060 1.357 . S
C1067 H1080 0.928 . S
H1068 C1044 0.931 . S
H1069 C1046 0.930 . S
H1070 C1048 0.929 . S
H1071 C1049 0.931 . S
H1072 C1051 0.930 . S
H1073 C1055 0.931 . S
H1074 C1053 0.931 . S
H1075 C1057 0.931 . S
H1076 C1058 0.929 . S
H1077 C1059 0.930 . S
H1078 C1062 0.930 . S
H1079 C1063 0.931 . S
H1080 C1067 0.928 . S
H1081 C1066 0.929 . S
H1082 C1064 0.932 . S
C1083 C1084 1.386 1_455 S
C1083 C1085 1.397 . S
C1083 H1107 0.931 . S
C1084 C1083 1.386 1_655 S
C1084 C1088 1.397 . S
C1085 C1083 1.397 . S
C1085 C1086 1.384 1_455 S
C1085 H1108 0.930 . S
C1086 C1085 1.384 1_655 S
C1086 C1087 1.377 . S
C1086 C1089 1.482 1_655 S
C1087 C1086 1.377 . S
C1087 C1088 1.389 . S
C1087 H1109 0.929 . S
C1088 C1084 1.397 . S
C1088 C1087 1.389 . S
C1088 H1110 0.931 . S
C1089 C1086 1.482 1_455 S
C1089 C1090 1.406 . S
C1089 C1094 1.370 1_455 S
C1090 C1089 1.406 . S
C1090 C1091 1.401 . S
C1090 H1111 0.930 . S
C1091 C1090 1.401 . S
C1091 C1092 1.376 . S
C1091 C1100 1.511 . S
C1092 C1091 1.376 . S
C1092 C1093 1.392 1_455 S
C1092 H1113 0.931 . S
C1093 C1092 1.392 1_655 S
C1093 C1094 1.361 . S
C1093 C1095 1.500 . S
C1094 C1089 1.370 1_655 S
C1094 C1093 1.361 . S
C1094 H1112 0.931 . S
C1095 C1093 1.500 . S
C1095 C1096 1.371 . S
C1095 C1097 1.365 . S
C1096 C1095 1.371 . S
C1096 C1106 1.404 . S
C1096 H1114 0.931 . S
C1097 C1095 1.365 . S
C1097 C1098 1.409 . S
C1097 H1115 0.929 . S
C1098 C1097 1.409 . S
C1098 C1099 1.380 . S
C1098 H1116 0.930 . S
C1099 C1098 1.380 . S
C1099 C1106 1.370 . S
C1100 C1091 1.511 . S
C1100 C1101 1.341 . S
C1100 C1102 1.371 . S
C1101 C1100 1.341 . S
C1101 C1105 1.394 . S
C1101 H1117 0.930 . S
C1102 C1100 1.371 . S
C1102 C1103 1.392 1_565 S
C1102 H1118 0.931 1_565 S
C1103 C1102 1.392 1_545 S
C1103 C1104 1.331 1_545 S
C1103 H1121 0.932 . S
C1104 C1103 1.331 1_565 S
C1104 C1105 1.336 . S
C1105 C1101 1.394 . S
C1105 C1104 1.336 . S
C1105 H1120 0.929 . S
C1106 C1096 1.404 . S
C1106 C1099 1.370 . S
C1106 H1119 0.898 1_565 S
H1107 C1083 0.931 . S
H1108 C1085 0.930 . S
H1109 C1087 0.929 . S
H1110 C1088 0.931 . S
H1111 C1090 0.930 . S
H1112 C1094 0.931 . S
H1113 C1092 0.931 . S
H1114 C1096 0.931 . S
H1115 C1097 0.929 . S
H1116 C1098 0.930 . S
H1117 C1101 0.930 . S
H1118 C1102 0.931 1_545 S
H1119 C1106 0.898 1_545 S
H1120 C1105 0.929 . S
H1121 C1103 0.932 . S
C1122 C1123 1.386 . S
C1122 C1124 1.397 . S
C1122 H1146 0.931 . S
C1123 C1122 1.386 . S
C1123 C1127 1.397 . S
C1124 C1122 1.397 . S
C1124 C1125 1.384 . S
C1124 H1147 0.930 . S
C1125 C1124 1.384 . S
C1125 C1126 1.377 . S
C1125 C1128 1.481 . S
C1126 C1125 1.377 . S
C1126 C1127 1.389 . S
C1126 H1148 0.929 . S
C1127 C1123 1.397 . S
C1127 C1126 1.389 . S
C1127 H1149 0.931 . S
C1128 C1125 1.481 . S
C1128 C1129 1.387 . S
C1128 C1133 1.390 . S
C1129 C1128 1.387 . S
C1129 C1130 1.401 . S
C1129 H1150 0.930 . S
C1130 C1129 1.401 . S
C1130 C1131 1.376 . S
C1130 C1139 1.511 . S
C1131 C1130 1.376 . S
C1131 C1132 1.392 . S
C1131 H1152 0.931 . S
C1132 C1131 1.392 . S
C1132 C1133 1.361 . S
C1132 C1134 1.500 . S
C1133 C1128 1.390 . S
C1133 C1132 1.361 . S
C1133 H1151 0.931 . S
C1134 C1132 1.500 . S
C1134 C1135 1.371 . S
C1134 C1136 1.365 . S
C1135 C1134 1.371 . S
C1135 C1145 1.386 1_545 S
C1135 H1153 0.924 1_545 S
C1136 C1134 1.365 . S
C1136 C1137 1.409 . S
C1136 H1154 0.929 . S
C1137 C1136 1.409 . S
C1137 C1138 1.380 . S
C1137 H1155 0.930 . S
C1138 C1137 1.380 . S
C1138 C1145 1.357 1_545 S
C1139 C1130 1.511 . S
C1139 C1140 1.341 . S
C1139 C1141 1.371 . S
C1140 C1139 1.341 . S
C1140 C1144 1.394 . S
C1140 H1156 0.930 . S
C1141 C1139 1.371 . S
C1141 C1142 1.392 . S
C1141 H1157 0.931 . S
C1142 C1141 1.392 . S
C1142 C1143 1.331 . S
C1142 H1160 0.932 1_545 S
C1143 C1142 1.331 . S
C1143 C1144 1.336 . S
C1144 C1140 1.394 . S
C1144 C1143 1.336 . S
C1144 H1159 0.929 . S
C1145 C1135 1.386 1_565 S
C1145 C1138 1.357 1_565 S
C1145 H1158 0.928 . S
H1146 C1122 0.931 . S
H1147 C1124 0.930 . S
H1148 C1126 0.929 . S
H1149 C1127 0.931 . S
H1150 C1129 0.930 . S
H1151 C1133 0.931 . S
H1152 C1131 0.931 . S
H1153 C1135 0.924 1_565 S
H1154 C1136 0.929 . S
H1155 C1137 0.930 . S
H1156 C1140 0.930 . S
H1157 C1141 0.931 . S
H1158 C1145 0.928 . S
H1159 C1144 0.929 . S
H1160 C1142 0.932 1_565 S
C1161 C1162 1.386 . S
C1161 C1163 1.397 . S
C1161 H1185 0.931 . S
C1162 C1161 1.386 . S
C1162 C1166 1.397 1_655 S
C1163 C1161 1.397 . S
C1163 C1164 1.384 . S
C1163 H1186 0.930 . S
C1164 C1163 1.384 . S
C1164 C1165 1.377 1_655 S
C1164 C1167 1.481 . S
C1165 C1164 1.377 1_455 S
C1165 C1166 1.389 . S
C1165 H1187 0.929 . S
C1166 C1162 1.397 1_455 S
C1166 C1165 1.389 . S
C1166 H1188 0.931 . S
C1167 C1164 1.481 . S
C1167 C1168 1.387 . S
C1167 C1172 1.390 1_655 S
C1168 C1167 1.387 . S
C1168 C1169 1.401 . S
C1168 H1189 0.930 . S
C1169 C1168 1.401 . S
C1169 C1170 1.376 1_655 S
C1169 C1178 1.511 . S
C1170 C1169 1.376 1_455 S
C1170 C1171 1.392 . S
C1170 H1191 0.931 . S
C1171 C1170 1.392 . S
C1171 C1172 1.361 . S
C1171 C1173 1.500 . S
C1172 C1167 1.390 1_455 S
C1172 C1171 1.361 . S
C1172 H1190 0.931 . S
C1173 C1171 1.500 . S
C1173 C1174 1.371 . S
C1173 C1175 1.365 . S
C1174 C1173 1.371 . S
C1174 C1184 1.386 . S
C1174 H1192 0.931 . S
C1175 C1173 1.365 . S
C1175 C1176 1.409 . S
C1175 H1193 0.929 . S
C1176 C1175 1.409 . S
C1176 C1177 1.380 . S
C1176 H1194 0.930 . S
C1177 C1176 1.380 . S
C1177 C1184 1.357 . S
C1178 C1169 1.511 . S
C1178 C1179 1.341 . S
C1178 C1180 1.371 . S
C1179 C1178 1.341 . S
C1179 C1183 1.394 . S
C1179 H1195 0.930 . S
C1180 C1178 1.371 . S
C1180 C1181 1.392 . S
C1180 H1196 0.931 . S
C1181 C1180 1.392 . S
C1181 C1182 1.331 . S
C1181 H1199 0.932 . S
C1182 C1181 1.331 . S
C1182 C1183 1.336 . S
C1183 C1179 1.394 . S
C1183 C1182 1.336 . S
C1183 H1198 0.929 . S
C1184 C1174 1.386 . S
C1184 C1177 1.357 . S
C1184 H1197 0.928 . S
H1185 C1161 0.931 . S
H1186 C1163 0.930 . S
H1187 C1165 0.929 . S
H1188 C1166 0.931 . S
H1189 C1168 0.930 . S
H1190 C1172 0.931 . S
H1191 C1170 0.931 . S
H1192 C1174 0.931 . S
H1193 C1175 0.929 . S
H1194 C1176 0.930 . S
H1195 C1179 0.930 . S
H1196 C1180 0.931 . S
H1197 C1184 0.928 . S
H1198 C1183 0.929 . S
H1199 C1181 0.932 . S
C1177 C8 2.191 . S
C1060 C19 1.960 . S
C1138 C30 1.774 . S
C1099 C41 2.332 . S
C826 C52 2.191 . S
C63 C865 2.332 . S
C748 C74 1.960 . S
C85 C787 1.773 . S
C1021 C96 2.191 . S
C107 C943 2.331 . S
C118 C904 1.960 . S
C982 C129 1.773 . S
C709 C140 2.209 . S
C151 C592 1.930 . S
C670 C162 1.802 . S
C173 C631 2.255 . S
C358 C184 2.209 . S
C397 C195 2.255 . S
C206 C280 1.930 . S
C217 C319 1.802 . S
C228 C553 2.209 . S
C239 C475 2.255 . S
C436 C250 1.930 . S
C261 C514 1.802 . S
C265 C7 2.274 . S
C304 C18 2.711 . S
C29 C343 2.230 1_565 S
C40 C382 1.661 . S
C421 C51 2.275 . S
C62 C460 1.661 . S
C499 C73 2.711 . S
C538 C84 2.230 1_554 S
C577 C95 2.275 . S
C106 C616 1.661 . S
C117 C655 2.711 . S
C128 C694 2.230 1_655 S
C139 C733 1.913 . S
C150 C772 2.337 . S
C161 C811 1.886 1_545 S
C172 C850 1.408 . S
C183 C889 1.914 . S
C928 C194 1.408 . S
C967 C205 2.337 . S
C1006 C216 1.886 1_556 S
C1045 C227 1.914 . S
C238 C1084 1.408 . S
C249 C1123 2.337 . S
C260 C1162 1.886 1_455 S
C5 C597 2.282 . S
C714 C16 2.432 . S
C27 C636 2.030 1_565 S
C675 C38 2.990 1_565 S
C49 C285 2.283 . S
C60 C324 2.990 1_554 S
C71 C363 2.432 . S
C82 C402 2.030 1_556 S
C441 C93 2.283 . S
C519 C104 2.990 1_655 S
C115 C558 2.432 . S
C126 C480 2.030 1_655 S
C1065 C137 2.179 . S
C1182 C148 2.156 . S
C159 C1104 1.954 . S
C1143 C170 2.527 . S
C181 C753 2.179 . S
C192 C792 2.527 . S
C203 C831 2.156 . S
C870 C214 1.954 . S
C909 C225 2.179 . S
C987 C236 2.527 . S
C247 C1026 2.156 . S
C948 C258 1.954 . S
