# Generated by pormake.
# Topology zzz, (3,6)-cn, num edge types: 1
# Building blocks:
#     Node 0, Type 0, BuildingBlock: CUQRIR_clean_linker_1, # of connection points: 3
#     Node 1, Type 0, BuildingBlock: CUQRIR_clean_linker_1, # of connection points: 3
#     Node 2, Type 0, BuildingBlock: CUQRIR_clean_linker_1, # of connection points: 3
#     Node 3, Type 0, BuildingBlock: CUQRIR_clean_linker_1, # of connection points: 3
#     Node 4, Type 0, BuildingBlock: CUQRIR_clean_linker_1, # of connection points: 3
#     Node 5, Type 0, BuildingBlock: CUQRIR_clean_linker_1, # of connection points: 3
#     Node 6, Type 0, BuildingBlock: CUQRIR_clean_linker_1, # of connection points: 3
#     Node 7, Type 0, BuildingBlock: CUQRIR_clean_linker_1, # of connection points: 3
#     Node 8, Type 1, BuildingBlock: KUMJIN_clean_sbu_1, # of connection points: 6
#     Node 9, Type 1, BuildingBlock: KUMJIN_clean_sbu_1, # of connection points: 6
#     Node 10, Type 1, BuildingBlock: KUMJIN_clean_sbu_1, # of connection points: 6
#     Node 11, Type 1, BuildingBlock: KUMJIN_clean_sbu_1, # of connection points: 6
#     Edge 12, Type (0, 1), BuildingBlock: TEMPAE_clean_linker_10, # of connection points: 2
#     Edge 13, Type (0, 1), BuildingBlock: TEMPAE_clean_linker_10, # of connection points: 2
#     Edge 14, Type (0, 1), BuildingBlock: TEMPAE_clean_linker_10, # of connection points: 2
#     Edge 15, Type (0, 1), BuildingBlock: TEMPAE_clean_linker_10, # of connection points: 2
#     Edge 16, Type (0, 1), BuildingBlock: TEMPAE_clean_linker_10, # of connection points: 2
#     Edge 17, Type (0, 1), BuildingBlock: TEMPAE_clean_linker_10, # of connection points: 2
#     Edge 18, Type (0, 1), BuildingBlock: TEMPAE_clean_linker_10, # of connection points: 2
#     Edge 19, Type (0, 1), BuildingBlock: TEMPAE_clean_linker_10, # of connection points: 2
#     Edge 20, Type (0, 1), BuildingBlock: TEMPAE_clean_linker_10, # of connection points: 2
#     Edge 21, Type (0, 1), BuildingBlock: TEMPAE_clean_linker_10, # of connection points: 2
#     Edge 22, Type (0, 1), BuildingBlock: TEMPAE_clean_linker_10, # of connection points: 2
#     Edge 23, Type (0, 1), BuildingBlock: TEMPAE_clean_linker_10, # of connection points: 2
#     Edge 24, Type (0, 1), BuildingBlock: TEMPAE_clean_linker_10, # of connection points: 2
#     Edge 25, Type (0, 1), BuildingBlock: TEMPAE_clean_linker_10, # of connection points: 2
#     Edge 26, Type (0, 1), BuildingBlock: TEMPAE_clean_linker_10, # of connection points: 2
#     Edge 27, Type (0, 1), BuildingBlock: TEMPAE_clean_linker_10, # of connection points: 2
#     Edge 28, Type (0, 1), BuildingBlock: TEMPAE_clean_linker_10, # of connection points: 2
#     Edge 29, Type (0, 1), BuildingBlock: TEMPAE_clean_linker_10, # of connection points: 2
#     Edge 30, Type (0, 1), BuildingBlock: TEMPAE_clean_linker_10, # of connection points: 2
#     Edge 31, Type (0, 1), BuildingBlock: TEMPAE_clean_linker_10, # of connection points: 2
#     Edge 32, Type (0, 1), BuildingBlock: TEMPAE_clean_linker_10, # of connection points: 2
#     Edge 33, Type (0, 1), BuildingBlock: TEMPAE_clean_linker_10, # of connection points: 2
#     Edge 34, Type (0, 1), BuildingBlock: TEMPAE_clean_linker_10, # of connection points: 2
#     Edge 35, Type (0, 1), BuildingBlock: TEMPAE_clean_linker_10, # of connection points: 2
# Relax obj value: 0.215
# Max RMSD: 0.112
# Mean RMSD: 0.089
data_MOF--net-zzz--node1-KUMJIN_clean_sbu_1--node2-CUQRIR_clean_linker_1--edge1-TEMPAE_clean_linker_10
_symmetry_space_group_name_H-M    P1
_symmetry_Int_Tables_number       1
_symmetry_cell_setting            triclinic
loop_
_symmetry_equiv_pos_as_xyz
'x, y, z'
_cell_length_a     47.067057
_cell_length_b     47.134061
_cell_length_c     14.395918
_cell_angle_alpha  89.752552
_cell_angle_beta   89.827104
_cell_angle_gamma 90.13967
loop_
_atom_site_label
_atom_site_type_symbol
_atom_site_fract_x
_atom_site_fract_y
_atom_site_fract_z
_atom_type_partial_charge
C0 C 0.76089 0.55335 0.33719 0.0
N1 N 0.78779 0.56473 0.33325 0.0
N2 N 0.74484 0.56184 0.26285 0.0
C3 C 0.75021 0.53369 0.41162 0.0
C4 C 0.76265 0.57915 0.21518 0.0
N5 N 0.78856 0.58045 0.25588 0.0
C6 C 0.75529 0.59328 0.12384 0.0
H7 H 0.7554 0.51154 0.39222 0.0
H8 H 0.7268 0.53531 0.41872 0.0
H9 H 0.76035 0.5386 0.47916 0.0
H10 H 0.73245 0.59148 0.10651 0.0
H11 H 0.76816 0.58385 0.06715 0.0
H12 H 0.76015 0.61624 0.12703 0.0
C13 C 0.02702 0.74821 0.32582 0.0
N14 N 1.01581 0.77462 0.34046 0.0
N15 N 1.01444 0.73517 0.25133 0.0
C16 C 0.04973 0.73503 0.38447 0.0
C17 C 0.99567 0.75494 0.22103 0.0
N18 N 0.99632 0.77838 0.27493 0.0
C19 C 0.9785 0.75238 0.13327 0.0
H20 H 0.0708 0.74094 0.35543 0.0
H21 H 0.04787 0.71154 0.38397 0.0
H22 H 0.04849 0.74297 0.45683 0.0
H23 H 0.95856 0.7407 0.14916 0.0
H24 H 0.99038 0.74032 0.07978 0.0
H25 H 0.97274 0.77345 0.10454 0.0
C26 C 0.7912 0.99949 0.31789 0.0
N27 N 0.76332 0.99109 0.31748 0.0
N28 N 0.80556 0.98911 0.24252 0.0
C29 C 0.80399 1.01867 0.3891 0.0
C30 C 0.78546 0.97427 0.19694 0.0
N31 N 0.75993 0.97585 0.24035 0.0
C32 C 0.79064 0.95918 0.10644 0.0
H33 H 0.79823 0.04091 0.37218 0.0
H34 H 0.82749 1.0168 0.38936 0.0
H35 H 0.79529 1.01359 0.45897 0.0
H36 H 0.81119 0.94772 0.10908 0.0
H37 H 0.7921 0.97502 0.04935 0.0
H38 H 0.77332 0.94392 0.09105 0.0
C39 C 0.53862 0.80399 0.36913 0.0
N40 N 0.54969 0.7773 0.37969 0.0
N41 N 0.55062 0.81785 0.29465 0.0
C42 C 0.51593 0.81625 0.42987 0.0
C43 C 0.56876 0.79828 0.25962 0.0
N44 N 0.56833 0.77406 0.31078 0.0
C45 C 0.58377 0.80124 0.16705 0.0
H46 H 0.49494 0.80848 0.40586 0.0
H47 H 0.51604 0.83976 0.4258 0.0
H48 H 0.51888 0.80918 0.50284 0.0
H49 H 0.6065 0.80613 0.17957 0.0
H50 H 0.57456 0.81827 0.12332 0.0
H51 H 0.58264 0.78124 0.12702 0.0
C52 C 0.29442 0.52522 0.15103 0.0
N53 N 0.26779 0.53666 0.14235 0.0
N54 N 0.30835 0.53586 0.22732 0.0
C55 C 0.30677 0.50381 0.08572 0.0
C56 C 0.28878 0.55377 0.26433 0.0
N57 N 0.26492 0.55448 0.21274 0.0
C58 C 0.29177 0.56937 0.35508 0.0
H59 H 0.33 0.50716 0.078 0.0
H60 H 0.29649 0.50491 0.01665 0.0
H61 H 0.30317 0.48227 0.1148 0.0
H62 H 0.30049 0.59089 0.34145 0.0
H63 H 0.30597 0.55789 0.40365 0.0
H64 H 0.27079 0.57202 0.3892 0.0
C65 C 0.04898 0.29325 0.10385 0.0
N66 N 0.04973 0.2645 0.11844 0.0
N67 N 0.05278 0.3078 0.18535 0.0
C68 C 0.04246 0.30692 1.0124 0.0
C69 C 0.05615 0.28665 0.24826 0.0
N70 N 0.05359 0.26079 0.20885 0.0
C71 C 0.05927 0.29107 0.35138 0.0
H72 H 0.05148 0.32868 1.00906 0.0
H73 H 0.01906 0.30835 1.00458 0.0
H74 H 0.05091 0.2939 0.95455 0.0
H75 H 0.06989 0.3116 0.36628 0.0
H76 H 0.07176 0.27354 0.38268 0.0
H77 H 0.03793 0.29101 0.38432 0.0
C78 C 0.25351 0.02807 0.13125 0.0
N79 N 0.27503 0.04505 0.09877 0.0
N80 N 0.2329 0.04358 0.17422 0.0
C81 C 0.25304 0.99635 0.12462 0.0
C82 C 0.24253 0.07047 0.16565 0.0
N83 N 0.2685 0.07161 0.12421 0.0
C84 C 0.22648 0.09591 0.20066 0.0
H85 H 0.23091 0.98822 0.12863 0.0
H86 H 0.2652 0.98732 0.18361 0.0
H87 H 0.26314 0.9893 0.05894 0.0
H88 H 0.2268 0.09621 0.27769 0.0
H89 H 0.20389 0.09431 0.17927 0.0
H90 H 0.23573 0.11596 0.17331 0.0
C91 C 0.51434 0.25083 0.09395 0.0
N92 N 0.50193 0.27707 0.09512 0.0
N93 N 0.50052 0.23233 0.15195 0.0
C94 C 0.54042 0.24349 0.03941 0.0
C95 C 0.47924 0.2483 0.18669 0.0
N96 N 0.48114 0.2758 0.15836 0.0
C97 C 0.45824 0.23759 0.25794 0.0
H98 H 0.54029 0.25452 0.97116 0.0
H99 H 0.54187 0.22021 0.02917 0.0
H100 H 0.55941 0.25065 0.07837 0.0
H101 H 0.46932 0.23285 0.32413 0.0
H102 H 0.44866 0.21743 0.23343 0.0
H103 H 0.4412 0.25336 0.27059 0.0
Eu104 Eu 1.00263 0.0277 0.6772 0.0
C105 C 0.12413 1.01488 0.79163 0.0
N106 N 0.10481 0.99354 0.79575 0.0
C107 C 0.13842 0.96149 0.72805 0.0
C108 C 0.15108 1.01071 0.75104 0.0
C109 C 0.11195 0.96669 0.76907 0.0
C110 C 0.15785 0.98375 0.71716 0.0
C111 C 0.13815 0.06197 0.83987 0.0
C112 C 0.11761 0.04018 0.83474 0.0
C113 C 0.16429 0.05879 0.79366 0.0
C114 C 0.17075 0.03317 0.74931 0.0
Eu115 Eu 0.05932 1.00462 0.85587 0.0
N116 N 0.09247 0.04215 0.88075 0.0
C117 C 0.1325 0.08547 0.89603 0.0
C118 C 0.08858 0.06322 0.94446 0.0
C119 C 0.10794 0.08569 0.95065 0.0
H120 H 0.09675 0.94959 0.77642 0.0
H121 H 0.10413 0.1029 0.99862 0.0
H122 H 0.95802 0.97329 0.6636 0.0
H123 H 0.03512 0.10434 0.41023 0.0
H124 H 0.07047 0.0628 0.99067 0.0
H125 H 0.1477 0.10266 0.90197 0.0
H126 H 0.0308 0.0852 0.56876 0.0
H127 H 0.14372 0.94041 0.70419 0.0
H128 H 0.18015 0.07547 0.79559 0.0
H129 H 0.19146 0.03053 0.7175 0.0
H130 H 0.92845 0.94911 0.5459 0.0
H131 H 0.17831 0.97968 0.68526 0.0
H132 H 1.01051 0.08067 0.28007 0.0
N133 N 0.97552 1.0028 0.56717 0.0
C134 C 0.97567 1.01278 0.47885 0.0
C135 C 0.94168 0.96697 0.52611 0.0
C136 C 0.95888 1.0 0.4098 0.0
C137 C 0.95854 0.98054 0.59229 0.0
C138 C 0.94183 0.97677 0.43446 0.0
N139 N 1.00599 0.04942 0.52851 0.0
C140 C 0.02061 0.07408 0.51247 0.0
C141 C 0.99269 0.04752 0.36733 0.0
C142 C 0.99183 0.03654 0.45851 0.0
C143 C 1.00904 0.07178 0.34948 0.0
C144 C 0.0229 0.08523 0.42267 0.0
H145 H 0.9287 0.96632 0.38354 0.0
H146 H 0.94761 1.00087 0.26427 0.0
H147 H 0.97836 0.04169 0.22643 0.0
O148 O 0.98026 0.04918 0.79054 0.0
O149 O 1.01654 0.98162 0.64807 0.0
O150 O 0.04295 0.96546 0.77471 0.0
O151 O 0.9613 0.04737 0.65472 0.0
O152 O 0.04826 0.03948 0.63669 0.0
O153 O 0.07115 1.00185 0.7012 0.0
O154 O 0.05322 0.96694 0.94157 0.0
O155 O 0.03591 0.04714 0.87728 0.0
O156 O 0.03175 0.06326 0.72941 0.0
O157 O 0.08225 0.99939 0.98667 0.0
O158 O 1.01442 1.01403 0.90849 0.0
O159 O 0.99126 0.9945 0.78851 0.0
C160 C 0.02989 0.96113 0.69408 0.0
C161 C 0.95429 0.08853 0.74292 0.0
C162 C 0.96187 0.13562 0.67791 0.0
C163 C 0.94586 0.14729 0.75092 0.0
C164 C 0.93826 0.10017 0.81544 0.0
C165 C 0.9342 0.12956 0.81954 0.0
C166 C 0.96644 0.10635 0.6762 0.0
C167 C 0.06975 0.02177 0.63732 0.0
C168 C 0.95978 0.05805 0.73803 0.0
C169 C 0.95972 1.01079 0.31878 0.0
C170 C 0.97702 0.03417 0.2973 0.0
C171 C 0.03504 0.06865 0.81828 0.0
C172 C 0.05223 0.97887 0.10063 0.0
C173 C 1.01188 0.96423 0.1974 0.0
C174 C 0.02165 0.9825 0.26764 0.0
C175 C 0.06021 0.99845 0.16892 0.0
C176 C 0.02827 0.9618 0.11593 0.0
C177 C 0.04535 0.9998 0.25272 0.0
C178 C 0.9919 1.00061 0.87743 0.0
C179 C 0.06753 0.97721 1.01103 0.0
H180 H 0.94205 0.16991 0.75431 0.0
H181 H 0.92912 0.08663 0.86878 0.0
H182 H 0.92187 0.13859 0.87564 0.0
H183 H 0.97971 0.0973 0.62268 0.0
H184 H 1.01117 0.98374 0.3341 0.0
H185 H 0.0778 1.01276 0.15729 0.0
H186 H 0.0227 0.9462 0.06406 0.0
H187 H 0.05213 1.01442 0.30616 0.0
Eu188 Eu 0.52865 0.05143 0.78959 0.0
C189 C 0.5414 0.93879 0.52069 0.0
N190 N 0.53706 0.96675 0.50458 0.0
C191 C 0.56666 0.96458 0.36888 0.0
C192 C 0.5596 0.92271 0.46364 0.0
C193 C 0.54817 0.97947 0.42721 0.0
C194 C 0.57295 0.93622 0.38847 0.0
C195 C 0.52733 0.89632 0.60373 0.0
C196 C 0.52553 0.92586 0.58924 0.0
C197 C 0.54682 0.88038 0.55143 0.0
C198 C 0.56289 0.89355 0.4812 0.0
Eu199 Eu 0.5084 0.99178 0.61205 0.0
N200 N 0.50655 0.94188 0.63639 0.0
C201 C 0.50871 0.88361 0.66756 0.0
C202 C 0.48694 0.92933 0.69361 0.0
C203 C 0.48809 0.90014 0.71153 0.0
H204 H 0.54314 1.00134 0.41159 0.0
H205 H 0.4731 0.89043 0.7592 0.0
H206 H 0.48073 0.10296 0.76622 0.0
H207 H 0.64374 0.06755 0.82634 0.0
H208 H 0.47103 0.94207 0.72797 0.0
H209 H 0.50943 0.86099 0.68096 0.0
H210 H 0.59753 0.04458 0.85783 0.0
H211 H 0.57576 0.97485 0.30833 0.0
H212 H 0.54887 0.85772 0.56249 0.0
H213 H 0.57704 0.88086 0.43897 0.0
H214 H 0.47785 0.15184 0.70262 0.0
H215 H 0.5872 0.9247 0.34323 0.0
H216 H 0.64601 0.11111 0.73001 0.0
N217 N 0.52485 0.09892 0.73795 0.0
C218 C 0.54906 0.11201 0.71016 0.0
C219 C 0.49797 0.1408 0.70361 0.0
C220 C 0.54852 0.13977 0.67336 0.0
C221 C 0.49966 0.11325 0.73965 0.0
C222 C 0.52243 0.15393 0.66863 0.0
N223 N 0.57404 0.07356 0.7743 0.0
C224 C 0.59826 0.0634 0.81474 0.0
C225 C 0.60045 0.113 0.71028 0.0
C226 C 0.5746 0.09878 0.72847 0.0
C227 C 0.6257 0.1009 0.74257 0.0
C228 C 0.6245 0.07639 0.79727 0.0
H229 H 0.52113 0.17541 0.64211 0.0
H230 H 0.57417 0.17421 0.61807 0.0
H231 H 0.61975 0.15067 0.65007 0.0
O232 O 0.53434 0.07968 0.90791 0.0
O233 O 0.50461 0.06193 0.65561 0.0
O234 O 0.52599 0.03366 0.55121 0.0
O235 O 0.50505 0.04466 0.91827 0.0
O236 O 0.56625 0.02327 0.73808 0.0
O237 O 0.55254 1.01065 0.59157 0.0
O238 O 0.47053 1.01492 0.56868 0.0
O239 O 0.51844 0.97336 0.75548 0.0
O240 O 0.53757 1.00766 0.85282 0.0
O241 O 0.4812 0.97479 0.50383 0.0
O242 O 0.47821 0.99716 0.73754 0.0
O243 O 0.48151 0.04489 0.7593 0.0
C244 C 0.51591 0.05875 0.57294 0.0
C245 C 0.53076 0.05597 0.05006 0.0
C246 C 0.56889 0.03228 0.1312 0.0
C247 C 0.55576 0.03828 0.21647 0.0
C248 C 0.5173 0.0614 0.13464 0.0
C249 C 0.52979 0.05255 0.21781 0.0
C250 C 0.55628 0.04102 0.04851 0.0
C251 C 0.57276 1.01576 0.65209 0.0
C252 C 0.51801 0.0648 0.96261 0.0
C253 C 0.57414 0.15304 0.64777 0.0
C254 C 0.6001 0.13963 0.66599 0.0
C255 C 0.52982 0.98125 0.83498 0.0
C256 C 0.4639 1.01149 0.40708 0.0
C257 C 0.44305 0.048 0.3093 0.0
C258 C 0.45744 0.037 0.23224 0.0
C259 C 0.47853 1.00081 0.32933 0.0
C260 C 0.44653 0.03533 0.39663 0.0
C261 C 0.47517 1.01354 0.24238 0.0
C262 C 0.46754 0.02092 0.77093 0.0
C263 C 0.46605 0.99788 0.49897 0.0
H264 H 0.56552 0.03188 0.28128 0.0
H265 H 0.49702 0.072 0.13577 0.0
H266 H 0.51916 0.05656 0.28306 0.0
H267 H 0.5666 0.03658 0.98291 0.0
H268 H 0.45382 0.04561 0.16351 0.0
H269 H 0.49213 0.98242 0.33515 0.0
H270 H 0.43424 0.04298 0.45528 0.0
H271 H 0.48591 1.00494 0.18224 0.0
Eu272 Eu 0.55154 0.51761 0.65949 0.0
C273 C 0.45611 0.49483 0.93744 0.0
N274 N 0.45726 0.51268 0.86274 0.0
C275 C 0.40873 0.50155 0.82674 0.0
C276 C 0.4317 0.47813 0.95526 0.0
C277 C 0.43335 0.51761 0.81172 0.0
C278 C 0.40815 0.48118 0.89717 0.0
C279 C 0.47745 0.47698 0.07979 0.0
C280 C 0.47848 0.49467 1.00045 0.0
C281 C 0.45378 0.45939 0.09492 0.0
C282 C 0.43094 0.46002 0.033 0.0
Eu283 Eu 0.49886 0.54086 0.85056 0.0
N284 N 0.50111 0.51213 0.98508 0.0
C285 C 0.50043 0.47731 0.14128 0.0
C286 C 0.52282 0.51362 0.04755 0.0
C287 C 0.52339 0.49542 0.12415 0.0
H288 H 0.43278 0.53438 0.7605 0.0
H289 H 0.54154 0.49549 0.17001 0.0
H290 H 0.59729 0.56629 0.75169 0.0
H291 H 0.51428 0.505 0.30667 0.0
H292 H 0.53986 0.52858 0.03789 0.0
H293 H 0.50071 0.46359 0.20186 0.0
H294 H 0.52132 0.49077 0.46836 0.0
H295 H 0.39 0.50534 0.7852 0.0
H296 H 0.45273 0.44554 0.15516 0.0
H297 H 0.41245 0.44693 0.04711 0.0
H298 H 0.62351 0.60855 0.69971 0.0
H299 H 0.38894 0.46896 0.90905 0.0
H300 H 0.53927 0.5473 0.24237 0.0
N301 N 0.57918 0.55792 0.61963 0.0
C302 C 0.57872 0.56511 0.52768 0.0
C303 C 0.61081 0.59665 0.65081 0.0
C304 C 0.59333 0.58937 0.4951 0.0
C305 C 0.59565 0.57271 0.68045 0.0
C306 C 0.60944 0.60519 0.55799 0.0
N307 N 0.54802 0.52591 0.4994 0.0
C308 C 0.53193 0.50952 0.44216 0.0
C309 C 0.55968 0.55733 0.37285 0.0
C310 C 0.56223 0.54908 0.46663 0.0
C311 C 0.54225 0.54127 0.3144 0.0
C312 C 0.52835 0.51729 0.34956 0.0
H313 H 0.6209 0.62398 0.5356 0.0
H314 H 0.60179 0.6162 0.37592 0.0
H315 H 0.57189 0.5883 0.26927 0.0
O316 O 0.5784 0.49607 0.55931 0.0
O317 O 0.53105 0.56148 0.63622 0.0
O318 O 0.52204 0.57853 0.78129 0.0
O319 O 0.58606 0.4898 0.70557 0.0
O320 O 0.5063 0.50333 0.62597 0.0
O321 O 0.48034 0.53758 0.70244 0.0
O322 O 0.48791 0.56199 0.97993 0.0
O323 O 0.5199 0.49644 0.86211 0.0
O324 O 0.5239 0.48104 0.71301 0.0
O325 O 0.4655 0.57304 0.85464 0.0
O326 O 0.54386 0.55525 0.88533 0.0
O327 O 0.57055 0.52263 0.80519 0.0
C328 C 0.52577 0.58297 0.69165 0.0
C329 C 0.59232 0.4508 0.60635 0.0
C330 C 0.57148 0.40928 0.5343 0.0
C331 C 0.59445 0.39288 0.56577 0.0
C332 C 0.61511 0.43436 0.63808 0.0
C333 C 0.616 0.40537 0.6184 0.0
C334 C 0.57021 0.43799 0.55674 0.0
C335 C 0.48323 0.519 0.63447 0.0
C336 C 0.5919 0.48144 0.62157 0.0
C337 C 0.59085 0.5975 0.40162 0.0
C338 C 0.57393 0.58164 0.34091 0.0
C339 C 0.52122 0.47532 0.8022 0.0
C340 C 0.4786 0.60985 0.95325 0.0
C341 C 0.51538 0.64604 0.96579 0.0
C342 C 0.49388 0.66688 0.96796 0.0
C343 C 0.45755 0.63073 0.95454 0.0
C344 C 0.50736 0.6176 0.95861 0.0
C345 C 0.46525 0.65922 0.96188 0.0
C346 C 0.56719 0.54031 0.87483 0.0
C347 C 0.4711 0.58008 0.9399 0.0
H348 H 0.5957 0.37049 0.54955 0.0
H349 H 0.63224 0.44399 0.67701 0.0
H350 H 0.63363 0.39266 0.64263 0.0
H351 H 0.55248 0.45058 0.53218 0.0
H352 H 0.49903 0.68913 0.97575 0.0
H353 H 0.43531 0.62501 0.9492 0.0
H354 H 0.52359 0.60143 0.95589 0.0
H355 H 0.449 0.67542 0.96334 0.0
Eu356 Eu 0.0461 0.55858 0.58924 0.0
C357 C 0.05513 0.43696 0.79635 0.0
N358 N 0.03416 0.44866 0.74433 0.0
C359 C 0.02501 0.40356 0.67355 0.0
C360 C 0.06248 0.40812 0.78686 0.0
C361 C 0.01838 0.43221 0.68592 0.0
C362 C 0.04745 0.39155 0.72314 0.0
C363 C 0.08901 0.44178 0.9219 0.0
C364 C 0.06816 0.4535 0.86301 0.0
C365 C 0.09717 0.41336 0.91048 0.0
C366 C 0.08393 0.39656 0.84308 0.0
Eu367 Eu 0.02577 0.49782 0.76444 0.0
N368 N 0.05964 0.4808 0.87261 0.0
C369 C 0.10059 0.45881 0.99174 0.0
C370 C 0.06982 0.49706 0.94356 0.0
C371 C 0.09071 0.48648 1.00317 0.0
H372 H 1.00059 0.44111 0.64868 0.0
H373 H 0.09919 0.4997 0.05775 0.0
H374 H 0.98454 0.58882 0.5162 0.0
H375 H 0.13047 0.51772 0.36427 0.0
H376 H 0.06232 0.5184 0.95352 0.0
H377 H 0.11672 0.45064 0.0382 0.0
H378 H 0.11011 0.53966 0.50621 0.0
H379 H 1.01268 0.39073 0.62635 0.0
H380 H 0.11327 0.40403 0.95465 0.0
H381 H 0.08999 0.3745 0.83641 0.0
H382 H 0.95234 0.58611 0.38186 0.0
H383 H 0.05245 0.36932 0.71371 0.0
H384 H 0.09923 0.50638 0.23154 0.0
N385 N 1.01452 0.55962 0.4603 0.0
C386 C 0.02326 0.54581 0.38273 0.0
C387 C 0.97195 0.57421 0.38183 0.0
C388 C 1.00565 0.54401 0.30368 0.0
C389 C 0.99014 0.57537 0.45836 0.0
C390 C 0.97935 0.55778 0.30516 0.0
N391 N 0.06794 0.53973 0.45401 0.0
C392 C 0.09655 0.53498 0.44768 0.0
C393 C 0.06149 0.52338 0.29705 0.0
C394 C 0.05089 0.53582 0.37906 0.0
C395 C 0.09029 0.51607 0.29311 0.0
C396 C 0.10801 0.52247 0.36794 0.0
H397 H 0.96528 0.55704 0.24577 0.0
H398 H 1.00206 0.5279 0.16336 0.0
H399 H 0.0509 0.50956 0.15787 0.0
O400 O 0.08053 0.58957 0.60719 0.0
O401 O 0.99968 0.55682 0.63986 0.0
O402 O 0.9937 0.50905 0.64932 0.0
O403 O 0.0443 0.5999 0.51851 0.0
O404 O 0.05861 0.51166 0.56014 0.0
O405 O 0.01984 0.48799 0.61161 0.0
O406 O 0.99473 0.51535 0.85997 0.0
O407 O 0.07384 0.50373 0.74401 0.0
O408 O 0.08023 0.55055 0.70016 0.0
O409 O 0.99674 0.46978 0.84042 0.0
O410 O 0.03615 0.54138 0.83016 0.0
O411 O 0.02313 0.57399 0.71956 0.0
C412 C 0.98302 0.53444 0.63427 0.0
C413 C 0.08036 0.6361 0.53518 0.0
C414 C 0.11397 0.66514 0.44845 0.0
C415 C 0.1063 0.68881 0.50159 0.0
C416 C 0.07231 0.65985 0.58709 0.0
C417 C 0.08521 0.68617 0.57 0.0
C418 C 0.10081 0.63888 0.46545 0.0
C419 C 0.04068 0.49027 0.55206 0.0
C420 C 0.06811 0.60817 0.55434 0.0
C421 C 1.01545 0.52987 0.22413 0.0
C422 C 0.04331 0.51952 0.22087 0.0
C423 C 0.08923 0.52718 0.7417 0.0
C424 C 0.9517 0.49192 0.83879 0.0
C425 C 0.91008 0.52211 0.82429 0.0
C426 C 0.90033 0.50519 0.75073 0.0
C427 C 0.94188 0.47528 0.76457 0.0
C428 C 0.935 0.51421 0.87082 0.0
C429 C 0.91602 0.48166 0.72201 0.0
C430 C 0.02939 0.56764 0.8064 0.0
C431 C 0.98148 0.4911 0.86896 0.0
H432 H 0.11676 0.70906 0.49088 0.0
H433 H 0.05642 0.65792 0.64139 0.0
H434 H 0.07922 0.70442 0.61094 0.0
H435 H 0.10732 0.62027 0.42667 0.0
H436 H 0.88111 0.51052 0.71381 0.0
H437 H 0.95464 0.45819 0.73687 0.0
H438 H 0.94256 0.52639 0.92954 0.0
H439 H 0.9087 0.46905 0.66409 0.0
C440 C 0.18322 0.02782 0.20495 0.0
C441 C 0.21037 0.03469 0.23777 0.0
C442 C 0.15985 0.02442 0.26657 0.0
C443 C 0.16337 0.02835 0.36385 0.0
C444 C 0.19104 0.03466 0.39714 0.0
C445 C 0.21401 0.03772 0.33411 0.0
C446 C 0.13112 1.01759 0.22707 0.0
C447 C 0.19626 0.03902 0.49944 0.0
C448 C 0.09917 0.04899 0.51769 0.0
C449 C 0.09256 0.02341 0.56352 0.0
C450 C 0.12173 0.05083 0.45225 0.0
C451 C 0.13823 0.02645 0.43056 0.0
C452 C 0.13107 1.00043 0.47493 0.0
C453 C 0.10849 0.99924 0.54009 0.0
C454 C 0.12831 0.07912 0.40773 0.0
C455 C 0.14747 0.97372 0.45433 0.0
H456 H 0.18009 0.02611 0.13064 0.0
H457 H 0.23483 0.04361 0.35971 0.0
H458 H 0.1166 0.03573 0.23899 0.0
H459 H 0.13205 1.01324 0.15132 0.0
H460 H 0.12185 0.99886 0.26309 0.0
H461 H 0.21888 0.04385 0.51467 0.0
H462 H 0.18294 0.05671 0.52538 0.0
H463 H 0.18998 0.0197 0.53874 0.0
H464 H 0.08712 0.06785 0.53466 0.0
H465 H 0.10321 0.97916 0.57268 0.0
H466 H 0.12778 0.07724 0.33098 0.0
H467 H 0.15009 0.08593 0.42702 0.0
H468 H 0.11309 0.09586 0.42916 0.0
H469 H 0.14741 0.96954 0.37854 0.0
H470 H 0.13858 0.95491 0.4911 0.0
H471 H 0.16994 0.97644 0.47565 0.0
C472 C 0.52561 0.20633 0.27741 0.0
C473 C 0.50998 0.20582 0.19439 0.0
C474 C 0.52866 0.18184 0.33418 0.0
C475 C 0.51559 0.15576 0.3087 0.0
C476 C 0.50083 0.15502 0.22232 0.0
C477 C 0.49809 0.17989 0.16726 0.0
C478 C 0.54433 0.18461 0.42482 0.0
C479 C 0.487 0.12846 0.18666 0.0
C480 C 0.53751 0.0865 0.4371 0.0
C481 C 0.51567 0.08294 0.50319 0.0
C482 C 0.53776 0.10975 0.37362 0.0
C483 C 0.51566 0.13031 0.37522 0.0
C484 C 0.49345 0.12653 0.4413 0.0
C485 C 0.49373 0.10316 0.50376 0.0
C486 C 0.5617 0.11231 0.30431 0.0
C487 C 0.46931 0.14742 0.44657 0.0
H488 H 0.53408 0.22648 0.30069 0.0
H489 H 0.4854 0.17934 0.10456 0.0
H490 H 0.52858 0.18667 0.48174 0.0
H491 H 0.55743 0.16557 0.43923 0.0
H492 H 0.55827 0.20366 0.42563 0.0
H493 H 0.49755 0.12238 0.12065 0.0
H494 H 0.48808 0.11043 0.23604 0.0
H495 H 0.46443 0.13279 0.16966 0.0
H496 H 0.55463 0.07117 0.43539 0.0
H497 H 0.47651 0.10063 0.55322 0.0
H498 H 0.57343 0.13244 0.3157 0.0
H499 H 0.55295 0.11308 0.23279 0.0
H500 H 0.57689 0.09436 0.30933 0.0
H501 H 0.47766 0.16854 0.46684 0.0
H502 H 0.45277 0.14086 0.49756 0.0
H503 H 0.4593 0.14981 0.3773 0.0
C504 C 0.35301 0.5543 0.29731 0.0
C505 C 0.33723 0.53128 0.26274 0.0
C506 C 0.37757 0.5505 0.35194 0.0
C507 C 0.38919 0.52294 0.36482 0.0
C508 C 0.37531 0.49982 0.31972 0.0
C509 C 0.34911 0.50408 0.27263 0.0
C510 C 0.39023 0.57636 0.39786 0.0
C511 C 0.38755 0.47029 0.32028 0.0
C512 C 0.46385 0.53002 0.47411 0.0
C513 C 0.46031 0.51724 0.56169 0.0
C514 C 0.44199 0.5298 0.40655 0.0
C515 C 0.4146 0.51867 0.42906 0.0
C516 C 0.41107 0.50562 0.51785 0.0
C517 C 0.43414 0.50412 0.58071 0.0
C518 C 0.44885 0.5418 0.31171 0.0
C519 C 0.38278 0.49363 0.54848 0.0
H520 H 0.34522 0.5756 0.28577 0.0
H521 H 0.33775 0.48594 0.24553 0.0
H522 H 0.39959 0.57124 0.46656 0.0
H523 H 0.40715 0.58528 0.35254 0.0
H524 H 0.37404 0.5932 0.40789 0.0
H525 H 0.38791 0.46185 0.24833 0.0
H526 H 0.40942 0.46933 0.3485 0.0
H527 H 0.37352 0.45604 0.36154 0.0
H528 H 0.48366 0.54074 0.45846 0.0
H529 H 0.43144 0.49295 0.6458 0.0
H530 H 0.45332 0.56485 0.31765 0.0
H531 H 0.43174 0.53841 0.26013 0.0
H532 H 0.46853 0.53182 0.28469 0.0
H533 H 0.36487 0.50696 0.52402 0.0
H534 H 0.38136 0.49171 0.62521 0.0
H535 H 0.38017 0.47206 0.51934 0.0
C536 C 0.06773 0.35885 0.18863 0.0
C537 C 0.04782 0.3375 0.20999 0.0
C538 C 0.06688 0.3858 0.23304 0.0
C539 C 0.04629 0.39142 0.3034 0.0
C540 C 0.02542 0.37027 0.32158 0.0
C541 C 0.02617 0.34411 0.2739 0.0
C542 C 0.08877 0.40789 0.20719 0.0
C543 C 1.00334 0.37436 0.39652 0.0
C544 C 0.06277 0.44379 0.50263 0.0
C545 C 0.04496 0.46686 0.48263 0.0
C546 C 0.0638 0.41955 0.44448 0.0
C547 C 0.04727 0.41838 0.36186 0.0
C548 C 0.03003 0.44222 0.3399 0.0
C549 C 0.02855 0.46564 0.40136 0.0
C550 C 0.08168 0.3946 0.47392 0.0
C551 C 1.01257 0.44275 0.25224 0.0
H552 H 0.08474 0.35404 0.1404 0.0
H553 H 1.01081 0.32776 0.29143 0.0
H554 H 0.07842 0.4287 0.19497 0.0
H555 H 0.10392 0.41062 0.26535 0.0
H556 H 0.10091 0.40194 0.14393 0.0
H557 H 0.98706 0.35726 0.3966 0.0
H558 H 1.01396 0.37442 0.46518 0.0
H559 H 0.99252 0.39508 0.38822 0.0
H560 H 0.075 0.44414 0.56632 0.0
H561 H 1.01414 0.48293 0.38633 0.0
H562 H 0.09689 0.38903 0.41794 0.0
H563 H 0.06783 0.37583 0.4859 0.0
H564 H 0.09377 0.39888 0.53857 0.0
H565 H 1.00175 0.46343 0.2417 0.0
H566 H 0.99624 0.42577 0.25487 0.0
H567 H 0.02636 0.43851 0.19122 0.0
C568 C 0.83671 1.01487 0.1316 0.0
C569 C 0.8337 0.99538 0.20507 0.0
C570 C 0.86167 1.01623 0.07645 0.0
C571 C 0.885 0.9979 0.09557 0.0
C572 C 0.8819 0.97814 0.1703 0.0
C573 C 0.85649 0.97714 0.2234 0.0
C574 C 0.86168 0.03642 0.99478 0.0
C575 C 0.90457 0.95657 0.19113 0.0
C576 C 0.94343 0.97949 0.91537 0.0
C577 C 0.9647 0.99969 0.93372 0.0
C578 C 0.91745 0.97886 0.96573 0.0
C579 C 0.9122 0.99892 0.03743 0.0
C580 C 0.93301 0.02034 0.05249 0.0
C581 C 0.95909 0.02002 1.00272 0.0
C582 C 0.89538 0.95713 0.93912 0.0
C583 C 0.92703 0.04468 0.11731 0.0
H584 H 0.81868 0.02808 0.11377 0.0
H585 H 0.85381 0.96101 0.2766 0.0
H586 H 0.88041 0.03421 0.94856 0.0
H587 H 0.84222 0.03301 0.95276 0.0
H588 H 0.86079 0.05855 0.02071 0.0
H589 H 0.90239 0.9477 0.26231 0.0
H590 H 0.90253 0.93862 0.14219 0.0
H591 H 0.92602 0.9658 0.18235 0.0
H592 H 0.94708 0.96398 0.86126 0.0
H593 H 0.97474 0.03643 0.01563 0.0
H594 H 0.87347 0.96508 0.95038 0.0
H595 H 0.89824 0.93774 0.98181 0.0
H596 H 0.89765 0.9509 0.86512 0.0
H597 H 0.90943 0.05763 0.08906 0.0
H598 H 0.94559 0.059 0.12522 0.0
H599 H 0.92007 0.03671 0.18633 0.0
C600 C 0.51828 0.85161 0.21221 0.0
C601 C 0.54479 0.8455 0.2522 0.0
C602 C 0.51467 0.87505 0.15074 0.0
C603 C 0.53819 0.89267 0.12649 0.0
C604 C 0.56452 0.88741 0.17113 0.0
C605 C 0.5674 0.86426 0.2333 0.0
C606 C 0.48583 0.88043 0.10917 0.0
C607 C 0.59022 0.9054 0.14933 0.0
C608 C 0.53873 0.93052 0.88752 0.0
C609 C 0.53293 0.95894 0.91002 0.0
C610 C 0.54048 0.90906 0.95663 0.0
C611 C 0.53583 0.91566 0.05183 0.0
C612 C 0.52979 0.94437 0.07477 0.0
C613 C 0.52839 0.96544 1.00419 0.0
C614 C 0.54751 0.87918 0.92747 0.0
C615 C 0.52379 0.95308 0.17345 0.0
H616 H 0.50073 0.83721 0.22524 0.0
H617 H 0.58799 0.85965 0.26317 0.0
H618 H 0.47966 0.90288 0.1202 0.0
H619 H 0.48664 0.87685 0.03308 0.0
H620 H 0.46921 0.86642 0.13972 0.0
H621 H 0.60866 0.89997 0.19388 0.0
H622 H 0.59635 0.90226 0.07564 0.0
H623 H 0.58517 0.92822 0.15852 0.0
H624 H 0.54222 0.92504 0.81535 0.0
H625 H 0.52318 0.98707 0.02296 0.0
H626 H 0.53004 0.8646 0.94808 0.0
H627 H 0.567 0.87192 0.9636 0.0
H628 H 0.5509 0.8774 0.8513 0.0
H629 H 0.50054 0.95194 0.18574 0.0
H630 H 0.53079 0.97527 0.18589 0.0
H631 H 0.53421 0.93901 0.22478 0.0
C632 C 0.71711 0.5382 0.13925 0.0
C633 C 0.71783 0.55126 0.22697 0.0
C634 C 0.69168 0.53575 0.08782 0.0
C635 C 0.66554 0.54506 0.12645 0.0
C636 C 0.6658 0.55571 0.21892 0.0
C637 C 0.69188 0.55937 0.26686 0.0
C638 C 0.69321 0.52501 0.98931 0.0
C639 C 0.63883 0.56474 0.26642 0.0
C640 C 0.60588 0.56794 0.9579 0.0
C641 C 0.59078 0.54254 0.94473 0.0
C642 C 0.62992 0.56915 0.0171 0.0
C643 C 0.63856 0.54472 0.06817 0.0
C644 C 0.62219 0.51953 0.05899 0.0
C645 C 0.59921 0.51852 0.99576 0.0
C646 C 0.64688 0.59629 0.02146 0.0
C647 C 0.62893 0.49352 0.11613 0.0
H648 H 0.73709 0.53216 0.10744 0.0
H649 H 0.69207 0.56979 0.3338 0.0
H650 H 0.67884 0.50655 0.98042 0.0
H651 H 0.68595 0.54185 0.94081 0.0
H652 H 0.71506 0.51859 0.96918 0.0
H653 H 0.64049 0.56194 0.34289 0.0
H654 H 0.63528 0.58759 0.25226 0.0
H655 H 0.62015 0.55262 0.24133 0.0
H656 H 0.59963 0.5866 0.91877 0.0
H657 H 0.58751 0.49887 0.98693 0.0
H658 H 0.66794 0.5929 0.98849 0.0
H659 H 0.65074 0.60241 0.09463 0.0
H660 H 0.63609 0.61412 0.98533 0.0
H661 H 0.6496 0.48454 0.0939 0.0
H662 H 0.61237 0.47682 0.10937 0.0
H663 H 0.6309 0.49931 0.19053 0.0
C664 C 0.04595 0.70058 0.16901 0.0
C665 C 0.01947 0.70757 0.20798 0.0
C666 C 0.04924 0.67658 0.11033 0.0
C667 C 0.02549 0.65902 0.08875 0.0
C668 C 0.99914 0.66523 0.13239 0.0
C669 C 0.99652 0.68916 0.19088 0.0
C670 C 0.07796 0.67071 0.06821 0.0
C671 C 0.97316 0.6474 0.11349 0.0
C672 C 0.02262 0.61917 0.85465 0.0
C673 C 0.02862 0.59085 0.87941 0.0
C674 C 0.02197 0.64126 0.92124 0.0
C675 C 0.02753 0.63546 0.01646 0.0
C676 C 0.03397 0.60699 0.04194 0.0
C677 C 0.03427 0.58521 0.97387 0.0
C678 C 1.01508 0.671 0.88941 0.0
C679 C 0.04014 0.59929 0.14168 0.0
H680 H 0.06379 0.71467 0.18076 0.0
H681 H 0.976 0.69427 0.22066 0.0
H682 H 0.08328 0.64789 0.0754 0.0
H683 H 0.07746 0.67573 0.99287 0.0
H684 H 0.09501 0.68353 0.10101 0.0
H685 H 0.95494 0.6532 0.15877 0.0
H686 H 0.96674 0.65032 0.04 0.0
H687 H 0.97796 0.62457 0.1238 0.0
H688 H 0.01836 0.62421 0.78252 0.0
H689 H 0.0389 0.56365 0.99517 0.0
H690 H 0.03247 0.68569 0.90923 0.0
H691 H 0.99545 0.67843 0.92445 0.0
H692 H 1.01197 0.67239 0.81306 0.0
H693 H 0.05078 0.57836 0.14751 0.0
H694 H 0.01989 0.59834 0.18122 0.0
H695 H 0.05383 0.61551 0.17492 0.0
C696 C 1.01134 0.23856 0.27211 0.0
C697 C 0.04071 0.23779 0.25847 0.0
C698 C 0.99824 0.22059 0.33637 0.0
C699 C 1.01503 0.2009 0.38597 0.0
C700 C 0.04452 0.19861 0.36727 0.0
C701 C 0.05721 0.21755 0.30404 0.0
C702 C 0.96687 0.22411 0.35572 0.0
C703 C 0.06274 0.1771 0.41694 0.0
C704 C 0.98752 0.17909 0.62288 0.0
C705 C 0.97423 0.15328 0.60275 0.0
C706 C 1.00128 0.19469 0.55291 0.0
C707 C 1.00178 0.18402 0.46108 0.0
C708 C 0.98806 0.1582 0.43993 0.0
C709 C 0.97424 0.14325 0.51093 0.0
C710 C 1.01524 0.22256 0.5772 0.0
C711 C 0.98795 0.14645 0.34235 0.0
H712 H 0.99902 0.25468 0.23656 0.0
H713 H 0.07998 0.21738 0.29276 0.0
H714 H 0.9557 0.20344 0.35102 0.0
H715 H 0.96384 0.23206 0.42753 0.0
H716 H 0.95668 0.23925 0.30681 0.0
H717 H 0.08459 0.17617 0.38769 0.0
H718 H 0.06417 0.18257 0.49165 0.0
H719 H 0.05295 0.15572 0.41244 0.0
H720 H 0.98769 0.18681 0.69359 0.0
H721 H 0.96347 0.12354 0.4945 0.0
H722 H 1.00674 0.2398 0.53258 0.0
H723 H 0.03842 0.22128 0.56387 0.0
H724 H 1.01187 0.22839 0.65111 0.0
H725 H 0.9765 0.12587 0.33787 0.0
H726 H 1.01009 0.14349 0.31758 0.0
H727 H 0.97771 0.16167 0.29407 0.0
C728 C 0.3101 0.10245 0.0884 0.0
C729 C 0.28961 0.09244 0.15111 0.0
C730 C 0.33676 0.11135 0.12112 0.0
C731 C 0.34212 0.11046 0.21784 0.0
C732 C 0.31863 0.11024 0.27859 0.0
C733 C 0.29278 0.09953 0.24571 0.0
C734 C 0.35898 0.12106 0.05251 0.0
C735 C 0.3223 0.11575 0.38085 0.0
C736 C 0.39209 0.05185 0.29122 0.0
C737 C 0.41805 0.06573 0.29398 0.0
C738 C 0.36731 0.0664 0.27059 0.0
C739 C 0.36843 0.09609 0.25086 0.0
C740 C 0.39473 0.11066 0.25997 0.0
C741 C 0.41946 0.0951 0.28082 0.0
C742 C 0.34028 0.04919 0.27038 0.0
C743 C 0.39726 0.14235 0.24767 0.0
H744 H 0.30607 0.10179 0.0147 0.0
H745 H 0.27671 0.09361 0.29605 0.0
H746 H 0.35762 0.14447 0.04564 0.0
H747 H 0.38076 0.11599 0.0757 0.0
H748 H 0.35536 0.11178 0.9827 0.0
H749 H 0.30294 0.1259 0.40976 0.0
H750 H 0.32548 0.09546 0.41859 0.0
H751 H 0.34099 0.12962 0.39362 0.0
H752 H 0.39134 0.02912 0.30379 0.0
H753 H 0.43967 0.10581 0.28732 0.0
H754 H 0.32744 0.05466 0.20952 0.0
H755 H 0.32773 0.05363 0.33382 0.0
H756 H 0.34432 0.02598 0.26927 0.0
H757 H 0.40822 0.14701 0.18092 0.0
H758 H 0.41061 0.15141 0.30372 0.0
H759 H 0.37639 0.15322 0.24809 0.0
C760 C 0.49002 0.2952 0.31278 0.0
C761 C 0.47764 0.29839 0.22479 0.0
C762 C 0.49506 0.31848 0.36925 0.0
C763 C 0.48995 0.3459 0.33335 0.0
C764 C 0.47382 0.34918 0.25109 0.0
C765 C 0.46695 0.32498 0.19898 0.0
C766 C 0.50994 0.3138 0.46095 0.0
C767 C 0.46519 0.37793 0.2147 0.0
C768 C 0.52059 0.40007 0.49487 0.0
C769 C 0.54953 0.39697 0.47388 0.0
C770 C 0.49989 0.38584 0.44297 0.0
C771 C 0.50855 0.36881 0.36765 0.0
C772 C 0.53749 0.36854 0.33969 0.0
C773 C 0.5577 0.38226 0.39428 0.0
C774 C 0.46923 0.38706 0.47323 0.0
C775 C 0.54781 0.35124 0.25826 0.0
H776 H 0.49827 0.27481 0.33449 0.0
H777 H 0.45502 0.32724 0.13546 0.0
H778 H 0.50287 0.32947 0.51342 0.0
H779 H 0.50591 0.2921 0.48857 0.0
H780 H 0.53321 0.31631 0.45106 0.0
H781 H 0.44314 0.38235 0.23793 0.0
H782 H 0.479 0.39527 0.24048 0.0
H783 H 0.46522 0.37826 0.13751 0.0
H784 H 0.51421 0.41238 0.55448 0.0
H785 H 0.58003 0.38083 0.37606 0.0
H786 H 0.46291 0.3663 0.50369 0.0
H787 H 0.45534 0.39107 0.41248 0.0
H788 H 0.46552 0.40384 0.52585 0.0
H789 H 0.55353 0.32965 0.2829 0.0
H790 H 0.56707 0.36091 0.22632 0.0
H791 H 0.53129 0.34904 0.20421 0.0
C792 C 0.24586 0.60178 0.18096 0.0
C793 C 0.24277 0.57505 0.22236 0.0
C794 C 0.22634 0.62351 0.1994 0.0
C795 C 0.20333 0.61802 0.26036 0.0
C796 C 0.19962 0.59051 0.29916 0.0
C797 C 0.21972 0.56946 0.28061 0.0
C798 C 0.23101 0.65247 0.15691 0.0
C799 C 0.17498 0.58353 0.36296 0.0
C800 C 0.16561 0.6673 0.42126 0.0
C801 C 0.13826 0.66571 0.38399 0.0
C802 C 0.18859 0.6549 0.37466 0.0
C803 C 0.18374 0.64094 0.28917 0.0
C804 C 0.15715 0.64367 0.24454 0.0
C805 C 0.1345 0.65596 0.29307 0.0
C806 C 0.21684 0.65303 0.42357 0.0
C807 C 0.15132 0.62998 0.15199 0.0
H808 H 0.26414 0.60583 0.13686 0.0
H809 H 0.21797 0.54882 0.31357 0.0
H810 H 0.21077 0.66131 0.13026 0.0
H811 H 0.239 0.66717 0.21088 0.0
H812 H 0.24675 0.6519 0.09929 0.0
H813 H 0.1745 0.56076 0.38323 0.0
H814 H 0.1764 0.59648 0.42699 0.0
H815 H 0.15457 0.58878 0.32859 0.0
H816 H 0.16842 0.67493 0.49163 0.0
H817 H 0.11325 0.65502 0.2642 0.0
H818 H 0.23468 0.65545 0.37365 0.0
H819 H 0.2188 0.63185 0.45693 0.0
H820 H 0.2189 0.66944 0.47835 0.0
H821 H 0.17066 0.62914 0.10787 0.0
H822 H 0.1345 0.6416 0.1138 0.0
H823 H 0.14377 0.60792 0.16376 0.0
C824 C 1.00418 0.82585 0.21442 0.0
C825 C 0.98538 0.80568 0.24958 0.0
C826 C 0.99562 0.85382 0.20011 0.0
C827 C 0.96718 0.86177 0.22149 0.0
C828 C 0.94751 0.84078 0.25136 0.0
C829 C 0.95697 0.8128 0.26567 0.0
C830 C 1.01764 0.8748 0.16512 0.0
C831 C 0.91691 0.84767 0.27219 0.0
C832 C 0.98022 0.93382 0.29811 0.0
C833 C 0.9868 0.94516 0.2104 0.0
C834 C 0.9663 0.90761 0.30535 0.0
C835 C 0.96015 0.89249 0.22327 0.0
C836 C 0.9593 0.90739 0.1383 0.0
C837 C 0.97269 0.93392 0.13257 0.0
C838 C 0.96179 0.89445 0.39968 0.0
C839 C 0.94837 0.8935 0.05145 0.0
H840 H 0.02601 0.81971 0.20142 0.0
H841 H 0.94254 0.79678 0.2925 0.0
H842 H 1.0118 0.8823 0.09464 0.0
H843 H 0.01881 0.89354 0.21094 0.0
H844 H 0.03923 0.86539 0.16098 0.0
H845 H 0.91403 0.8492 0.34854 0.0
H846 H 0.91002 0.8679 0.23967 0.0
H847 H 0.90284 0.83031 0.24763 0.0
H848 H 0.9886 0.94334 0.36046 0.0
H849 H 0.97463 0.94423 0.06541 0.0
H850 H 0.97258 0.87365 0.40335 0.0
H851 H 0.93876 0.89068 0.41076 0.0
H852 H 0.96976 0.90812 0.45668 0.0
H853 H 0.96486 0.87917 0.02286 0.0
H854 H 0.94308 0.90948 0.99733 0.0
H855 H 0.92925 0.88048 0.06745 0.0
C856 C 0.72894 0.98839 0.11005 0.0
C857 C 0.73331 0.97314 0.19262 0.0
C858 C 0.7018 0.99089 0.07224 0.0
C859 C 0.67845 0.98018 0.12327 0.0
C860 C 0.68317 0.96158 0.19948 0.0
C861 C 0.71096 0.95752 0.23112 0.0
C862 C 0.69818 1.00736 0.98288 0.0
C863 C 0.6593 0.94695 0.25158 0.0
C864 C 0.62019 0.03328 0.16252 0.0
C865 C 0.5968 1.01882 0.12707 0.0
C866 C 0.64735 0.02161 0.15639 0.0
C867 C 0.65081 0.9946 0.11473 0.0
C868 C 0.62752 0.98105 0.07192 0.0
C869 C 0.60056 0.9933 0.07921 0.0
C870 C 0.67213 0.03836 0.19489 0.0
C871 C 0.63129 0.95406 0.01748 0.0
H872 H 0.74643 0.99975 0.07783 0.0
H873 H 0.71489 0.94349 0.28922 0.0
H874 H 0.6766 1.00496 0.953 0.0
H875 H 0.70249 0.03018 0.9951 0.0
H876 H 0.714 1.00005 0.93086 0.0
H877 H 0.66424 0.94535 0.32684 0.0
H878 H 0.6385 0.9576 0.24376 0.0
H879 H 0.65718 0.92498 0.22504 0.0
H880 H 0.61718 0.05382 0.19483 0.0
H881 H 0.58246 0.98302 0.04763 0.0
H882 H 0.6848 0.04726 0.13671 0.0
H883 H 0.68635 0.0247 0.23688 0.0
H884 H 0.66507 0.05645 0.23833 0.0
H885 H 0.64774 0.95731 0.96299 0.0
H886 H 0.61124 0.94708 0.9839 0.0
H887 H 0.63895 0.93688 0.0638 0.0
C888 C 0.60384 0.74061 0.24647 0.0
C889 C 0.57602 0.74682 0.2744 0.0
C890 C 0.60932 0.71653 0.19181 0.0
C891 C 0.58643 0.69854 0.16684 0.0
C892 C 0.55925 0.7029 0.20775 0.0
C893 C 0.55431 0.72761 0.25668 0.0
C894 C 0.63908 0.71181 0.15646 0.0
C895 C 0.53388 0.68396 0.19088 0.0
C896 C 0.55563 0.68051 0.95125 0.0
C897 C 0.5457 0.65386 0.98035 0.0
C898 C 0.57725 0.69411 1.0003 0.0
C899 C 0.58764 0.68096 0.08173 0.0
C900 C 0.58437 0.6514 0.09174 0.0
C901 C 0.5627 0.6379 0.04158 0.0
C902 C 0.5836 0.72478 0.97845 0.0
C903 C 0.59866 0.63591 0.16995 0.0
H904 H 0.62077 0.75548 0.26173 0.0
H905 H 0.53271 0.73301 0.27526 0.0
H906 H 0.65436 0.71355 0.21483 0.0
H907 H 0.64175 0.69081 0.12303 0.0
H908 H 0.64466 0.72872 0.10567 0.0
H909 H 0.51605 0.68858 0.23924 0.0
H910 H 0.52581 0.68782 0.12009 0.0
H911 H 0.5394 0.6613 0.19953 0.0
H912 H 0.54404 0.69245 0.89984 0.0
H913 H 0.55658 0.61656 0.06155 0.0
H914 H 0.60612 0.72985 0.99346 0.0
H915 H 0.56997 0.73855 0.02221 0.0
H916 H 0.57917 0.72981 0.90441 0.0
H917 H 0.58612 0.63894 0.23447 0.0
H918 H 0.62034 0.64447 0.18185 0.0
H919 H 0.59993 0.61286 0.15515 0.0
C920 C 0.81774 0.61216 0.15651 0.0
C921 C 0.81408 0.58635 0.20385 0.0
C922 C 0.83718 0.61423 0.08277 0.0
C923 C 0.85455 0.59063 0.06238 0.0
C924 C 0.85484 0.56695 0.12337 0.0
C925 C 0.83355 0.56447 0.18995 0.0
C926 C 0.83664 0.64032 0.02195 0.0
C927 C 0.87496 0.5423 0.1106 0.0
C928 C 0.86488 0.54846 0.85511 0.0
C929 C 0.89462 0.54778 0.85522 0.0
C930 C 0.85042 0.56839 0.90895 0.0
C931 C 0.86626 0.58628 0.96842 0.0
C932 C 0.89568 0.58959 0.95395 0.0
C933 C 0.90959 0.57049 0.89557 0.0
C934 C 0.81847 0.56651 0.91551 0.0
C935 C 0.91322 0.60978 1.01105 0.0
H936 H 0.80377 0.62977 0.17153 0.0
H937 H 0.83095 0.54451 0.22656 0.0
H938 H 0.85559 0.64205 0.9763 0.0
H939 H 0.8174 0.63962 0.97756 0.0
H940 H 0.83513 0.65968 0.0654 0.0
H941 H 0.87591 0.52871 0.17377 0.0
H942 H 0.86763 0.52892 0.05212 0.0
H943 H 0.89674 0.54992 0.09464 0.0
H944 H 0.85282 0.53196 0.8209 0.0
H945 H 0.93251 0.5718 0.88896 0.0
H946 H 0.8091 0.58775 0.92779 0.0
H947 H 0.81248 0.55249 0.97463 0.0
H948 H 0.80921 0.55746 0.85119 0.0
H949 H 0.93105 0.61844 0.96884 0.0
H950 H 0.92253 0.59809 0.07074 0.0
H951 H 0.90037 0.62758 0.0385 0.0
C952 C 0.07016 0.22131 0.04737 0.0
C953 C 0.04745 0.24054 0.05421 0.0
C954 C 0.06736 0.19467 1.00291 0.0
C955 C 0.04087 0.18613 0.96496 0.0
C956 C 1.01788 0.20574 0.97004 0.0
C957 C 0.0214 0.23252 0.01446 0.0
C958 C 0.09266 0.17508 1.00013 0.0
C959 C 0.98904 0.19789 0.93269 0.0
C960 C 0.04097 0.12224 0.79514 0.0
C961 C 0.03474 0.09902 0.85374 0.0
C962 C 0.04237 0.1505 0.82934 0.0
C963 C 0.03715 0.15628 0.92493 0.0
C964 C 0.02983 0.13299 0.98355 0.0
C965 C 0.02876 0.10498 0.94765 0.0
C966 C 0.05049 0.1741 0.76334 0.0
C967 C 0.02356 0.13755 0.08531 0.0
H968 H 0.09008 0.22685 0.08029 0.0
H969 H 1.00338 0.24658 0.02224 0.0
H970 H 0.08851 0.15631 0.04497 0.0
H971 H 0.09619 0.16724 0.92845 0.0
H972 H 0.1124 0.18562 0.02451 0.0
H973 H 0.97485 0.21661 0.92705 0.0
H974 H 0.99099 0.18787 0.86344 0.0
H975 H 0.97893 0.18214 0.97988 0.0
H976 H 0.04551 0.11828 0.7225 0.0
H977 H 0.02336 0.08758 0.99392 0.0
H978 H 0.07246 0.18122 0.77882 0.0
H979 H 0.03632 0.19265 0.77267 0.0
H980 H 0.04964 0.16727 0.68962 0.0
H981 H 1.01663 0.11773 0.1209 0.0
H982 H 1.0067 0.15376 0.0936 0.0
H983 H 0.04281 0.1457 0.12068 0.0
C984 C 0.3072 0.04898 0.96031 0.0
C985 C 0.30064 0.03651 0.04666 0.0
C986 C 0.33363 0.0444 0.91495 0.0
C987 C 0.35419 0.02581 0.95411 0.0
C988 C 0.34673 1.01143 0.03794 0.0
C989 C 0.32001 1.01642 0.08163 0.0
C990 C 0.34013 0.06065 0.82696 0.0
C991 C 0.36762 0.99186 0.08452 0.0
C992 C 0.41706 1.00181 0.79683 0.0
C993 C 0.43883 0.02111 0.81969 0.0
C994 C 0.3898 1.00284 0.84011 0.0
C995 C 0.38387 0.02315 0.91052 0.0
C996 C 0.40632 0.04172 0.93665 0.0
C997 C 0.43295 0.0409 0.89014 0.0
C998 C 0.36722 0.98209 0.81025 0.0
C999 C 0.403 0.06195 0.01661 0.0
H1000 H 0.29182 0.06322 0.92951 0.0
H1001 H 0.31496 1.00577 0.14639 0.0
H1002 H 0.35846 0.07504 0.83896 0.0
H1003 H 0.34628 0.04581 0.77082 0.0
H1004 H 0.3218 0.07353 0.80309 0.0
H1005 H 0.35766 0.97944 0.14176 0.0
H1006 H 0.37696 0.97699 0.03336 0.0
H1007 H 0.38526 1.00463 0.11388 0.0
H1008 H 0.4211 0.98625 0.74321 0.0
H1009 H 0.44945 0.05564 0.91064 0.0
H1010 H 0.34887 0.99376 0.78077 0.0
H1011 H 0.35931 0.96997 0.87135 0.0
H1012 H 0.37516 0.9669 0.75746 0.0
H1013 H 0.41557 0.08163 1.00496 0.0
H1014 H 0.41111 0.05159 0.0804 0.0
H1015 H 0.38056 0.06751 0.02977 0.0
C1016 C 0.53523 0.31527 0.03584 0.0
C1017 C 0.50823 0.3024 0.03839 0.0
C1018 C 0.53987 0.34176 0.98974 0.0
C1019 C 0.51684 0.3567 0.94772 0.0
C1020 C 0.48981 0.34319 0.94824 0.0
C1021 C 0.48621 0.31611 0.9901 0.0
C1022 C 0.56936 0.35424 0.98902 0.0
C1023 C 0.46417 0.35786 0.90802 0.0
C1024 C 0.52305 0.43872 0.93327 0.0
C1025 C 0.52177 0.44473 0.83767 0.0
C1026 C 0.52169 0.41073 0.9695 0.0
C1027 C 0.52033 0.38695 0.90891 0.0
C1028 C 0.52097 0.39276 0.81137 0.0
C1029 C 0.52127 0.42125 0.77764 0.0
C1030 C 0.52093 0.40759 0.07378 0.0
C1031 C 0.5214 0.36928 0.74052 0.0
H1032 H 0.55256 0.30513 0.07235 0.0
H1033 H 0.46545 0.30612 0.98952 0.0
H1034 H 0.57438 0.36349 0.91979 0.0
H1035 H 0.57059 0.37155 0.04084 0.0
H1036 H 0.5857 0.33815 1.00672 0.0
H1037 H 0.44409 0.34647 0.92469 0.0
H1038 H 0.46262 0.37986 0.93495 0.0
H1039 H 0.46632 0.35918 0.83141 0.0
H1040 H 0.52517 0.45608 0.98102 0.0
H1041 H 0.52117 0.4251 0.70366 0.0
H1042 H 0.53966 0.41836 0.10457 0.0
H1043 H 0.5203 0.3854 0.09844 0.0
H1044 H 0.50177 0.41839 0.10083 0.0
H1045 H 0.53819 0.37359 0.68791 0.0
H1046 H 0.50083 0.36895 0.70294 0.0
H1047 H 0.52524 0.34804 0.77131 0.0
C1048 C 0.21817 0.52137 0.11254 0.0
C1049 C 0.24471 0.53023 0.07769 0.0
C1050 C 0.19357 0.52051 0.05636 0.0
C1051 C 0.19533 0.52756 0.96052 0.0
C1052 C 0.22243 0.53524 0.92369 0.0
C1053 C 0.24656 0.53697 0.98271 0.0
C1054 C 0.16542 0.513 0.10082 0.0
C1055 C 0.22582 0.54232 0.82204 0.0
C1056 C 0.13311 0.50262 0.80579 0.0
C1057 C 0.11725 0.52759 0.79274 0.0
C1058 C 0.15872 0.50245 0.85748 0.0
C1059 C 0.16874 0.52769 0.90025 0.0
C1060 C 0.1526 0.5529 0.88808 0.0
C1061 C 0.12751 0.55264 0.8337 0.0
C1062 C 0.17493 0.47504 0.86692 0.0
C1063 C 0.16138 0.58011 0.93504 0.0
H1064 H 0.2165 0.516 0.18553 0.0
H1065 H 0.26668 0.54446 0.95517 0.0
H1066 H 0.14972 0.53006 0.08749 0.0
H1067 H 0.1569 0.49327 0.06975 0.0
H1068 H 0.16719 0.50983 0.17711 0.0
H1069 H 0.24845 0.54533 0.80205 0.0
H1070 H 0.21658 0.52515 0.77898 0.0
H1071 H 0.21407 0.56208 0.80567 0.0
H1072 H 0.12548 0.48306 0.77527 0.0
H1073 H 0.11532 0.57199 0.82596 0.0
H1074 H 0.17434 0.46772 0.9402 0.0
H1075 H 0.19757 0.47839 0.84784 0.0
H1076 H 0.166 0.45797 0.82263 0.0
H1077 H 0.1463 0.59772 0.92124 0.0
H1078 H 0.18282 0.58663 0.91084 0.0
H1079 H 0.16268 0.57671 1.01125 0.0
C1080 C 0.04901 0.80894 0.41837 0.0
C1081 C 0.02214 0.79611 0.41118 0.0
C1082 C 0.05334 0.83384 0.47242 0.0
C1083 C 0.03008 0.84713 0.51919 0.0
C1084 C 1.00332 0.83295 0.51645 0.0
C1085 C 0.99984 0.80798 0.46314 0.0
C1086 C 0.08313 0.8455 0.4778 0.0
C1087 C 0.97774 0.84381 0.56891 0.0
C1088 C 0.03239 0.90695 0.70472 0.0
C1089 C 0.03112 0.93185 0.65051 0.0
C1090 C 0.03314 0.8795 0.66386 0.0
C1091 C 0.03288 0.87632 0.56539 0.0
C1092 C 0.03355 0.90158 0.51072 0.0
C1093 C 0.03197 0.92867 0.55333 0.0
C1094 C 0.03422 0.85404 0.72746 0.0
C1095 C 0.03697 0.90018 0.40671 0.0
H1096 H 0.06652 0.80018 0.37882 0.0
H1097 H 0.97905 0.79813 0.45911 0.0
H1098 H 0.0899 0.85297 0.40789 0.0
H1099 H 0.08538 0.86312 0.52806 0.0
H1100 H 0.09796 0.82827 0.49808 0.0
H1101 H 0.97658 0.83287 0.63719 0.0
H1102 H 0.97857 0.86699 0.5813 0.0
H1103 H 0.95777 0.83884 0.5313 0.0
H1104 H 0.03228 0.90881 0.77975 0.0
H1105 H 0.03205 0.94756 0.51006 0.0
H1106 H 0.04429 0.83548 0.69364 0.0
H1107 H 1.01227 0.84815 0.74829 0.0
H1108 H 0.04612 0.85903 0.79193 0.0
H1109 H 0.05895 0.89359 0.38981 0.0
H1110 H 0.03353 0.92103 0.37274 0.0
H1111 H 0.02243 0.88417 0.37668 0.0
C1112 C 0.7287 0.02425 0.39466 0.0
C1113 C 0.74059 0.99707 0.38509 0.0
C1114 C 0.70397 0.02897 0.45006 0.0
C1115 C 0.68976 1.00589 0.49512 0.0
C1116 C 0.70247 0.97863 0.48791 0.0
C1117 C 0.72791 0.97484 0.43602 0.0
C1118 C 0.69255 0.05869 0.45808 0.0
C1119 C 0.68845 0.95299 0.53126 0.0
C1120 C 0.62739 1.01247 0.67462 0.0
C1121 C 0.60331 1.0143 0.61681 0.0
C1122 C 0.65554 1.01074 0.6373 0.0
C1123 C 0.66015 1.00949 0.53914 0.0
C1124 C 0.6357 1.01092 0.48177 0.0
C1125 C 0.60832 1.01414 0.52051 0.0
C1126 C 0.68001 1.01011 0.70453 0.0
C1127 C 0.63767 1.00974 0.37783 0.0
H1128 H 0.73823 0.04172 0.35652 0.0
H1129 H 0.73722 0.95391 0.43105 0.0
H1130 H 0.67363 0.06101 0.41309 0.0
H1131 H 0.68584 0.06305 0.53064 0.0
H1132 H 0.70853 0.0748 0.43636 0.0
H1133 H 0.69898 0.93289 0.51073 0.0
H1134 H 0.68922 0.95474 0.60797 0.0
H1135 H 0.66575 0.95189 0.51072 0.0
H1136 H 0.62439 1.0122 0.74921 0.0
H1137 H 0.59059 1.0166 0.47358 0.0
H1138 H 0.70047 1.0162 0.6715 0.0
H1139 H 0.68203 0.98839 0.73377 0.0
H1140 H 0.67587 0.0246 0.76369 0.0
H1141 H 0.63563 0.0317 0.35122 0.0
H1142 H 0.61979 0.99734 0.34863 0.0
H1143 H 0.65777 1.00039 0.35258 0.0
C1144 C 0.51499 0.74285 0.45158 0.0
C1145 C 0.5426 0.7543 0.44541 0.0
C1146 C 0.50973 0.71577 0.49282 0.0
C1147 C 0.53252 0.69936 0.52982 0.0
C1148 C 0.56013 0.71159 0.5278 0.0
C1149 C 0.56472 0.73855 0.48627 0.0
C1150 C 0.47988 0.70412 0.49177 0.0
C1151 C 0.58524 0.69556 0.5661 0.0
C1152 C 0.52194 0.63738 0.70502 0.0
C1153 C 0.52558 0.61295 0.65023 0.0
C1154 C 0.52252 0.66523 0.666 0.0
C1155 C 0.52801 0.66947 0.56994 0.0
C1156 C 0.53064 0.64495 0.51367 0.0
C1157 C 0.5289 0.61738 0.5537 0.0
C1158 C 0.51738 0.69039 0.72767 0.0
C1159 C 0.53534 0.64783 0.41053 0.0
H1160 H 0.49777 0.75408 0.41797 0.0
H1161 H 0.58618 0.7468 0.48085 0.0
H1162 H 0.47795 0.68846 0.43483 0.0
H1163 H 0.47473 0.69301 0.55782 0.0
H1164 H 0.46395 0.72111 0.47994 0.0
H1165 H 0.60523 0.70809 0.56207 0.0
H1166 H 0.58124 0.68966 0.63973 0.0
H1167 H 0.58818 0.67557 0.52673 0.0
H1168 H 0.51857 0.63483 0.77866 0.0
H1169 H 0.53028 0.59918 0.50852 0.0
H1170 H 0.5032 0.70601 0.69356 0.0
H1171 H 0.5379 0.70124 0.74108 0.0
H1172 H 0.50744 0.68401 0.79421 0.0
H1173 H 0.53396 0.62716 0.37416 0.0
H1174 H 0.55656 0.65734 0.39699 0.0
H1175 H 0.51923 0.66226 0.38062 0.0
C1176 C 0.83306 0.58254 0.40163 0.0
C1177 C 0.81272 0.56069 0.39403 0.0
C1178 C 0.86074 0.57775 0.43604 0.0
C1179 C 0.86785 0.55132 0.47814 0.0
C1180 C 0.84644 0.5297 0.47812 0.0
C1181 C 0.81989 0.53428 0.43338 0.0
C1182 C 0.88241 0.6009 0.41865 0.0
C1183 C 0.85095 0.50109 0.52294 0.0
C1184 C 0.94407 0.52243 0.51941 0.0
C1185 C 0.95326 0.53783 0.5971 0.0
C1186 C 0.91714 0.52731 0.47819 0.0
C1187 C 0.89741 0.5464 0.51975 0.0
C1188 C 0.90658 0.56157 0.59985 0.0
C1189 C 0.93447 0.55778 0.63523 0.0
C1190 C 0.91047 0.51237 0.38835 0.0
C1191 C 0.88691 0.58186 0.64901 0.0
H1192 H 0.82812 0.60326 0.37324 0.0
H1193 H 0.80528 0.51667 0.42715 0.0
H1194 H 0.9041 0.59559 0.44237 0.0
H1195 H 0.88345 0.60549 0.34294 0.0
H1196 H 0.87537 0.62077 0.45282 0.0
H1197 H 0.83392 0.49719 0.57507 0.0
H1198 H 0.84897 0.48427 0.46954 0.0
H1199 H 0.87173 0.49883 0.55772 0.0
H1200 H 0.95863 0.50754 0.48753 0.0
H1201 H 0.94136 0.57 0.69471 0.0
H1202 H 0.93019 0.50769 0.34868 0.0
H1203 H 0.89623 0.52518 0.34351 0.0
H1204 H 0.89988 0.49185 0.40397 0.0
H1205 H 0.88352 0.60104 0.60602 0.0
H1206 H 0.8957 0.58921 0.71607 0.0
H1207 H 0.86589 0.57174 0.66109 0.0
loop_
_geom_bond_atom_site_label_1
_geom_bond_atom_site_label_2
_geom_bond_distance
_geom_bond_site_symmetry_2
_ccdc_geom_bond_type
C0 N1 1.317 . S
C0 N2 1.348 . S
C0 C3 1.485 . S
N1 C0 1.317 . S
N1 N5 1.370 . S
N2 C0 1.348 . S
N2 C4 1.346 . S
C3 C0 1.485 . S
C3 H7 0.960 . S
C3 H8 0.961 . S
C3 H9 0.960 . S
C4 N2 1.346 . S
C4 N5 1.307 . S
C4 C6 1.486 . S
N5 N1 1.370 . S
N5 C4 1.307 . S
C6 C4 1.486 . S
C6 H10 0.960 . S
C6 H11 0.960 . S
C6 H12 0.959 . S
H7 C3 0.960 . S
H8 C3 0.961 . S
H9 C3 0.960 . S
H10 C6 0.960 . S
H11 C6 0.960 . S
H12 C6 0.959 . S
C13 N14 1.317 . S
C13 N15 1.348 . S
C13 C16 1.485 . S
N14 C13 1.317 . S
N14 N18 1.370 . S
N15 C13 1.348 . S
N15 C17 1.346 . S
C16 C13 1.485 . S
C16 H20 0.960 . S
C16 H21 0.961 . S
C16 H22 0.960 . S
C17 N15 1.346 . S
C17 N18 1.307 . S
C17 C19 1.486 . S
N18 N14 1.370 . S
N18 C17 1.307 . S
C19 C17 1.486 . S
C19 H23 0.960 . S
C19 H24 0.960 . S
C19 H25 0.959 . S
H20 C16 0.960 . S
H21 C16 0.961 . S
H22 C16 0.960 . S
H23 C19 0.960 . S
H24 C19 0.960 . S
H25 C19 0.959 . S
C26 N27 1.317 . S
C26 N28 1.348 . S
C26 C29 1.485 . S
N27 C26 1.317 . S
N27 N31 1.370 . S
N28 C26 1.348 . S
N28 C30 1.346 . S
C29 C26 1.485 . S
C29 H33 0.960 . S
C29 H34 0.961 . S
C29 H35 0.960 . S
C30 N28 1.346 . S
C30 N31 1.307 . S
C30 C32 1.486 . S
N31 N27 1.370 . S
N31 C30 1.307 . S
C32 C30 1.486 . S
C32 H36 0.960 . S
C32 H37 0.987 . S
C32 H38 0.959 . S
H33 C29 0.960 . S
H34 C29 0.961 . S
H35 C29 0.960 . S
H36 C32 0.960 . S
H37 C32 0.987 . S
H38 C32 0.959 . S
C39 N40 1.317 . S
C39 N41 1.348 . S
C39 C42 1.485 . S
N40 C39 1.317 . S
N40 N44 1.370 . S
N41 C39 1.348 . S
N41 C43 1.346 . S
C42 C39 1.485 . S
C42 H46 0.960 . S
C42 H47 0.961 . S
C42 H48 0.960 . S
C43 N41 1.346 . S
C43 N44 1.307 . S
C43 C45 1.486 . S
N44 N40 1.370 . S
N44 C43 1.307 . S
C45 C43 1.486 . S
C45 H49 0.960 . S
C45 H50 0.960 . S
C45 H51 0.959 . S
H46 C42 0.960 . S
H47 C42 0.961 . S
H48 C42 0.960 . S
H49 C45 0.960 . S
H50 C45 0.960 . S
H51 C45 0.959 . S
C52 N53 1.317 . S
C52 N54 1.348 1_556 S
C52 C55 1.485 . S
N53 C52 1.317 . S
N53 N57 1.370 1_556 S
N54 C52 1.348 1_554 S
N54 C56 1.346 . S
C55 C52 1.485 . S
C55 H59 0.960 . S
C55 H60 0.961 . S
C55 H61 0.960 . S
C56 N54 1.346 . S
C56 N57 1.307 . S
C56 C58 1.486 . S
N57 N53 1.370 1_554 S
N57 C56 1.307 . S
C58 C56 1.486 . S
C58 H62 0.960 . S
C58 H63 0.960 . S
C58 H64 0.959 . S
H59 C55 0.960 . S
H60 C55 0.961 . S
H61 C55 0.960 . S
H62 C58 0.960 . S
H63 C58 0.960 . S
H64 C58 0.959 . S
C65 N66 1.318 . S
C65 N67 1.348 1_556 S
C65 C68 1.485 . S
N66 C65 1.318 . S
N66 N70 1.368 1_556 S
N67 C65 1.348 1_554 S
N67 C69 1.346 . S
C68 C65 1.485 . S
C68 H72 0.960 . S
C68 H73 0.961 . S
C68 H74 0.960 . S
C69 N67 1.346 . S
C69 N70 1.307 . S
C69 C71 1.486 . S
N70 N66 1.368 1_554 S
N70 C69 1.307 . S
C71 C69 1.486 . S
C71 H75 0.960 . S
C71 H76 0.960 . S
C71 H77 0.959 . S
H72 C68 0.960 . S
H73 C68 0.961 . S
H74 C68 0.960 . S
H75 C71 0.960 . S
H76 C71 0.960 . S
H77 C71 0.959 . S
C78 N79 1.317 . S
C78 N80 1.348 1_556 S
C78 C81 1.485 . S
N79 C78 1.317 . S
N79 N83 1.370 1_556 S
N80 C78 1.348 1_554 S
N80 C82 1.346 . S
C81 C78 1.485 . S
C81 H85 0.960 . S
C81 H86 0.961 . S
C81 H87 0.960 . S
C82 N80 1.346 . S
C82 N83 1.307 . S
C82 C84 1.486 . S
N83 N79 1.370 1_554 S
N83 C82 1.307 . S
C84 C82 1.486 . S
C84 H88 0.960 . S
C84 H89 0.960 . S
C84 H90 0.959 . S
H85 C81 0.960 . S
H86 C81 0.961 . S
H87 C81 0.960 . S
H88 C84 0.960 . S
H89 C84 0.960 . S
H90 C84 0.959 . S
C91 N92 1.317 . S
C91 N93 1.348 1_556 S
C91 C94 1.485 . S
N92 C91 1.317 . S
N92 N96 1.370 1_556 S
N93 C91 1.348 1_554 S
N93 C95 1.346 . S
C94 C91 1.485 . S
C94 H98 0.960 . S
C94 H99 0.961 . S
C94 H100 0.960 . S
C95 N93 1.346 . S
C95 N96 1.307 . S
C95 C97 1.486 . S
N96 N92 1.370 1_554 S
N96 C95 1.307 . S
C97 C95 1.486 . S
C97 H101 0.960 . S
C97 H102 0.960 . S
C97 H103 0.959 . S
H98 C94 0.960 . S
H99 C94 0.961 . S
H100 C94 0.960 . S
H101 C97 0.960 . S
H102 C97 0.960 . S
H103 C97 0.959 . S
Eu104 N133 2.600 . S
Eu104 N139 2.562 . S
Eu104 O148 2.464 . S
Eu104 O149 2.373 1_545 S
Eu104 O151 2.432 . S
Eu104 O152 2.291 1_655 S
Eu104 O156 2.335 1_655 S
Eu104 O159 2.372 . S
Eu104 C168 2.787 . S
C105 N106 1.365 . S
C105 C108 1.405 . S
C105 C112 1.448 . S
N106 C105 1.365 . S
N106 C109 1.319 . S
N106 Eu115 2.600 1_545 S
C107 C109 1.397 . S
C107 C110 1.367 . S
C107 H127 0.931 . S
C108 C105 1.405 . S
C108 C110 1.403 . S
C108 C114 1.439 1_556 S
C109 N106 1.319 . S
C109 C107 1.397 . S
C109 H120 0.930 1_545 S
C110 C107 1.367 . S
C110 C108 1.403 . S
C110 H131 0.929 . S
C111 C112 1.430 1_554 S
C111 C113 1.387 . S
C111 C117 1.404 . S
C112 C105 1.448 . S
C112 C111 1.430 1_556 S
C112 N116 1.351 . S
C113 C111 1.387 . S
C113 C114 1.374 . S
C113 H128 0.931 . S
C114 C108 1.439 1_554 S
C114 C113 1.374 . S
C114 H129 0.931 . S
Eu115 N106 2.600 1_565 S
Eu115 N116 2.562 1_565 S
Eu115 O150 2.335 . S
Eu115 O153 2.372 . S
Eu115 O154 2.462 . S
Eu115 O155 2.373 1_565 S
Eu115 O157 2.432 . S
Eu115 O158 2.291 1_465 S
Eu115 C179 2.787 . S
N116 C112 1.351 . S
N116 Eu115 2.562 1_545 S
N116 C118 1.325 1_556 S
C117 C111 1.404 . S
C117 C119 1.366 . S
C117 H125 0.930 . S
C118 N116 1.325 1_554 S
C118 C119 1.416 . S
C118 H124 0.929 1_454 S
C119 C117 1.366 . S
C119 C118 1.416 . S
C119 H121 0.903 1_455 S
H120 C109 0.930 1_565 S
H121 C119 0.903 1_655 S
H122 C137 0.930 . S
H123 C144 0.930 . S
H124 C118 0.929 1_656 S
H125 C117 0.930 . S
H126 C140 0.929 . S
H127 C107 0.931 . S
H128 C113 0.931 . S
H129 C114 0.931 . S
H130 C135 0.931 . S
H131 C110 0.929 . S
H132 C143 0.930 . S
N133 Eu104 2.600 . S
N133 C134 1.365 . S
N133 C137 1.319 . S
C134 N133 1.365 . S
C134 C136 1.405 1_545 S
C134 C142 1.447 1_545 S
C135 H130 0.931 . S
C135 C137 1.397 . S
C135 C138 1.367 1_545 S
C136 C134 1.405 1_565 S
C136 C138 1.403 . S
C136 C169 1.439 . S
C137 H122 0.930 . S
C137 N133 1.319 . S
C137 C135 1.397 . S
C138 C135 1.367 1_565 S
C138 C136 1.403 . S
C138 H145 0.929 . S
N139 Eu104 2.562 . S
N139 C140 1.325 1_655 S
N139 C142 1.348 1_545 S
C140 H126 0.929 . S
C140 N139 1.325 1_455 S
C140 C144 1.416 1_545 S
C141 C142 1.434 . S
C141 C143 1.404 . S
C141 C170 1.387 . S
C142 C134 1.447 1_565 S
C142 N139 1.348 1_565 S
C142 C141 1.434 . S
C143 H132 0.930 . S
C143 C141 1.404 . S
C143 C144 1.366 1_655 S
C144 H123 0.930 . S
C144 C140 1.416 1_565 S
C144 C143 1.366 1_455 S
H145 C138 0.929 . S
H146 C169 0.931 . S
H147 C170 0.931 . S
O148 Eu104 2.464 . S
O148 C168 1.259 . S
O149 Eu104 2.373 1_565 S
O149 C160 1.249 . S
O150 Eu115 2.335 . S
O150 C160 1.264 1_455 S
O151 Eu104 2.432 . S
O151 C168 1.268 . S
O152 Eu104 2.291 1_455 S
O152 C167 1.255 . S
O153 Eu115 2.372 . S
O153 C167 1.257 1_565 S
O154 Eu115 2.462 . S
O154 C179 1.252 . S
O155 Eu115 2.373 1_545 S
O155 C171 1.249 . S
O156 Eu104 2.335 1_455 S
O156 C171 1.264 . S
O157 Eu115 2.432 . S
O157 C179 1.268 . S
O158 Eu115 2.291 1_645 S
O158 C178 1.255 . S
O159 Eu104 2.372 . S
O159 C178 1.257 . S
C160 O149 1.249 . S
C160 O150 1.264 1_655 S
C161 C164 1.382 . S
C161 C166 1.390 . S
C161 C168 1.506 . S
C162 C163 1.398 . S
C162 C166 1.392 . S
C163 C162 1.398 . S
C163 C165 1.372 . S
C163 H180 0.931 . S
C164 C161 1.382 . S
C164 C165 1.390 . S
C164 H181 0.931 . S
C165 C163 1.372 . S
C165 C164 1.390 . S
C165 H182 0.929 . S
C166 C161 1.390 . S
C166 C162 1.392 . S
C166 H183 0.930 1_655 S
C167 O152 1.255 . S
C167 O153 1.257 1_545 S
C168 Eu104 2.787 . S
C168 O148 1.259 . S
C168 O151 1.268 . S
C168 C161 1.506 . S
C169 C136 1.439 . S
C169 H146 0.931 . S
C169 C170 1.374 . S
C170 C141 1.387 . S
C170 H147 0.931 . S
C170 C169 1.374 . S
C171 O155 1.249 . S
C171 O156 1.264 . S
C172 C175 1.382 . S
C172 C176 1.390 . S
C172 C179 1.506 . S
C173 C174 1.398 . S
C173 C176 1.392 1_554 S
C174 C173 1.398 . S
C174 C177 1.372 1_554 S
C174 H184 0.931 . S
C175 C172 1.382 . S
C175 C177 1.390 . S
C175 H185 0.931 . S
C176 C172 1.390 . S
C176 C173 1.392 1_556 S
C176 H186 0.930 . S
C177 C174 1.372 1_556 S
C177 C175 1.390 . S
C177 H187 0.929 . S
C178 O158 1.255 . S
C178 O159 1.257 . S
C179 Eu115 2.787 . S
C179 O154 1.252 . S
C179 O157 1.268 . S
C179 C172 1.506 . S
H180 C163 0.931 . S
H181 C164 0.931 . S
H182 C165 0.929 . S
H183 C166 0.930 1_455 S
H184 C174 0.931 . S
H185 C175 0.931 . S
H186 C176 0.930 . S
H187 C177 0.929 . S
Eu188 N217 2.600 . S
Eu188 N223 2.562 . S
Eu188 O232 2.462 . S
Eu188 O233 2.373 . S
Eu188 O235 2.432 . S
Eu188 O236 2.291 . S
Eu188 O240 2.335 1_545 S
Eu188 O243 2.372 . S
Eu188 C252 2.787 . S
C189 N190 1.365 . S
C189 C192 1.405 . S
C189 C196 1.448 . S
N190 C189 1.365 . S
N190 C193 1.319 . S
N190 Eu199 2.600 . S
C191 C193 1.397 . S
C191 C194 1.367 . S
C191 H211 0.931 . S
C192 C189 1.405 . S
C192 C194 1.403 . S
C192 C198 1.439 . S
C193 N190 1.319 . S
C193 C191 1.397 . S
C193 H204 0.930 . S
C194 C191 1.367 . S
C194 C192 1.403 . S
C194 H215 0.929 . S
C195 C196 1.430 . S
C195 C197 1.387 . S
C195 C201 1.404 . S
C196 C189 1.448 . S
C196 C195 1.430 . S
C196 N200 1.351 . S
C197 C195 1.387 . S
C197 C198 1.374 . S
C197 H212 0.931 . S
C198 C192 1.439 . S
C198 C197 1.374 . S
C198 H213 0.931 . S
Eu199 N190 2.600 . S
Eu199 N200 2.562 . S
Eu199 O234 2.335 1_565 S
Eu199 O237 2.372 . S
Eu199 O238 2.462 . S
Eu199 O239 2.373 . S
Eu199 O241 2.432 . S
Eu199 O242 2.291 1_565 S
Eu199 C263 2.787 . S
N200 C196 1.351 . S
N200 Eu199 2.562 . S
N200 C202 1.325 . S
C201 C195 1.404 . S
C201 C203 1.366 . S
C201 H209 0.930 . S
C202 N200 1.325 . S
C202 C203 1.416 . S
C202 H208 0.929 . S
C203 C201 1.366 . S
C203 C202 1.416 . S
C203 H205 0.930 . S
H204 C193 0.930 . S
H205 C203 0.930 . S
H206 C221 0.930 . S
H207 C228 0.930 . S
H208 C202 0.929 . S
H209 C201 0.930 . S
H210 C224 0.929 . S
H211 C191 0.931 . S
H212 C197 0.931 . S
H213 C198 0.931 . S
H214 C219 0.931 . S
H215 C194 0.929 . S
H216 C227 0.930 . S
N217 Eu188 2.600 . S
N217 C218 1.365 . S
N217 C221 1.319 . S
C218 N217 1.365 . S
C218 C220 1.405 . S
C218 C226 1.448 . S
C219 H214 0.931 . S
C219 C221 1.397 . S
C219 C222 1.367 . S
C220 C218 1.405 . S
C220 C222 1.403 . S
C220 C253 1.439 . S
C221 H206 0.930 . S
C221 N217 1.319 . S
C221 C219 1.397 . S
C222 C219 1.367 . S
C222 C220 1.403 . S
C222 H229 0.929 . S
N223 Eu188 2.562 . S
N223 C224 1.325 . S
N223 C226 1.351 . S
C224 H210 0.929 . S
C224 N223 1.325 . S
C224 C228 1.416 . S
C225 C226 1.430 . S
C225 C227 1.404 . S
C225 C254 1.387 . S
C226 C218 1.448 . S
C226 N223 1.351 . S
C226 C225 1.430 . S
C227 H216 0.930 . S
C227 C225 1.404 . S
C227 C228 1.366 . S
C228 H207 0.930 . S
C228 C224 1.416 . S
C228 C227 1.366 . S
H229 C222 0.929 . S
H230 C253 0.931 . S
H231 C254 0.931 . S
O232 Eu188 2.462 . S
O232 C252 1.252 . S
O233 Eu188 2.373 . S
O233 C244 1.249 . S
O234 Eu199 2.335 1_545 S
O234 C244 1.264 . S
O235 Eu188 2.432 . S
O235 C252 1.268 . S
O236 Eu188 2.291 . S
O236 C251 1.255 . S
O237 Eu199 2.372 . S
O237 C251 1.257 1_565 S
O238 Eu199 2.462 . S
O238 C263 1.252 . S
O239 Eu199 2.373 . S
O239 C255 1.249 . S
O240 Eu188 2.335 1_565 S
O240 C255 1.264 . S
O241 Eu199 2.432 . S
O241 C263 1.268 . S
O242 Eu199 2.291 1_545 S
O242 C262 1.255 . S
O243 Eu188 2.372 . S
O243 C262 1.257 . S
C244 O233 1.249 . S
C244 O234 1.264 . S
C245 C248 1.382 . S
C245 C250 1.390 . S
C245 C252 1.506 1_554 S
C246 C247 1.398 . S
C246 C250 1.392 . S
C247 C246 1.398 . S
C247 C249 1.372 . S
C247 H264 0.931 . S
C248 C245 1.382 . S
C248 C249 1.390 . S
C248 H265 0.931 . S
C249 C247 1.372 . S
C249 C248 1.390 . S
C249 H266 0.929 . S
C250 C245 1.390 . S
C250 C246 1.392 . S
C250 H267 0.930 1_554 S
C251 O236 1.255 . S
C251 O237 1.257 1_545 S
C252 Eu188 2.787 . S
C252 O232 1.252 . S
C252 O235 1.268 . S
C252 C245 1.506 1_556 S
C253 C220 1.439 . S
C253 H230 0.931 . S
C253 C254 1.374 . S
C254 C225 1.387 . S
C254 H231 0.931 . S
C254 C253 1.374 . S
C255 O239 1.249 . S
C255 O240 1.264 . S
C256 C259 1.382 . S
C256 C260 1.390 1_565 S
C256 C263 1.506 . S
C257 C258 1.398 1_545 S
C257 C260 1.392 . S
C258 C257 1.398 1_565 S
C258 C261 1.372 . S
C258 H268 0.931 . S
C259 C256 1.382 . S
C259 C261 1.390 . S
C259 H269 0.931 . S
C260 C256 1.390 1_545 S
C260 C257 1.392 . S
C260 H270 0.930 . S
C261 C258 1.372 . S
C261 C259 1.390 . S
C261 H271 0.929 . S
C262 O242 1.255 . S
C262 O243 1.257 . S
C263 Eu199 2.787 . S
C263 O238 1.252 . S
C263 O241 1.268 . S
C263 C256 1.506 . S
H264 C247 0.931 . S
H265 C248 0.931 . S
H266 C249 0.929 . S
H267 C250 0.930 1_556 S
H268 C258 0.931 . S
H269 C259 0.931 . S
H270 C260 0.930 . S
H271 C261 0.929 . S
Eu272 N301 2.600 . S
Eu272 N307 2.562 . S
Eu272 O316 2.462 . S
Eu272 O317 2.373 . S
Eu272 O319 2.432 . S
Eu272 O320 2.291 . S
Eu272 O324 2.335 . S
Eu272 O327 2.372 . S
Eu272 C336 2.787 . S
C273 N274 1.365 . S
C273 C276 1.405 . S
C273 C280 1.448 . S
N274 C273 1.365 . S
N274 C277 1.319 . S
N274 Eu283 2.600 . S
C275 C277 1.397 . S
C275 C278 1.367 . S
C275 H295 0.931 . S
C276 C273 1.405 . S
C276 C278 1.403 . S
C276 C282 1.439 1_556 S
C277 N274 1.319 . S
C277 C275 1.397 . S
C277 H288 0.930 . S
C278 C275 1.367 . S
C278 C276 1.403 . S
C278 H299 0.929 . S
C279 C280 1.430 1_554 S
C279 C281 1.387 . S
C279 C285 1.404 . S
C280 C273 1.448 . S
C280 C279 1.430 1_556 S
C280 N284 1.351 . S
C281 C279 1.387 . S
C281 C282 1.374 . S
C281 H296 0.931 . S
C282 C276 1.439 1_554 S
C282 C281 1.374 . S
C282 H297 0.931 . S
Eu283 N274 2.600 . S
Eu283 N284 2.562 . S
Eu283 O318 2.335 . S
Eu283 O321 2.372 . S
Eu283 O322 2.462 . S
Eu283 O323 2.373 . S
Eu283 O325 2.432 . S
Eu283 O326 2.291 . S
Eu283 C347 2.787 . S
N284 C280 1.351 . S
N284 Eu283 2.562 . S
N284 C286 1.325 1_556 S
C285 C279 1.404 . S
C285 C287 1.366 . S
C285 H293 0.930 . S
C286 N284 1.325 1_554 S
C286 C287 1.416 . S
C286 H292 0.929 1_554 S
C287 C285 1.366 . S
C287 C286 1.416 . S
C287 H289 0.930 . S
H288 C277 0.930 . S
H289 C287 0.930 . S
H290 C305 0.930 . S
H291 C312 0.930 . S
H292 C286 0.929 1_556 S
H293 C285 0.930 . S
H294 C308 0.929 . S
H295 C275 0.931 . S
H296 C281 0.931 . S
H297 C282 0.931 . S
H298 C303 0.931 . S
H299 C278 0.929 . S
H300 C311 0.930 . S
N301 Eu272 2.600 . S
N301 C302 1.365 . S
N301 C305 1.319 . S
C302 N301 1.365 . S
C302 C304 1.405 . S
C302 C310 1.448 . S
C303 H298 0.931 . S
C303 C305 1.397 . S
C303 C306 1.367 . S
C304 C302 1.405 . S
C304 C306 1.403 . S
C304 C337 1.439 . S
C305 H290 0.930 . S
C305 N301 1.319 . S
C305 C303 1.397 . S
C306 C303 1.367 . S
C306 C304 1.403 . S
C306 H313 0.929 . S
N307 Eu272 2.562 . S
N307 C308 1.325 . S
N307 C310 1.351 . S
C308 H294 0.929 . S
C308 N307 1.325 . S
C308 C312 1.416 . S
C309 C310 1.430 . S
C309 C311 1.404 . S
C309 C338 1.387 . S
C310 C302 1.448 . S
C310 N307 1.351 . S
C310 C309 1.430 . S
C311 H300 0.930 . S
C311 C309 1.404 . S
C311 C312 1.366 . S
C312 H291 0.930 . S
C312 C308 1.416 . S
C312 C311 1.366 . S
H313 C306 0.929 . S
H314 C337 0.931 . S
H315 C338 0.931 . S
O316 Eu272 2.462 . S
O316 C336 1.252 . S
O317 Eu272 2.373 . S
O317 C328 1.249 . S
O318 Eu283 2.335 . S
O318 C328 1.264 . S
O319 Eu272 2.432 . S
O319 C336 1.268 . S
O320 Eu272 2.291 . S
O320 C335 1.255 . S
O321 Eu283 2.372 . S
O321 C335 1.257 . S
O322 Eu283 2.462 . S
O322 C347 1.252 . S
O323 Eu283 2.373 . S
O323 C339 1.249 . S
O324 Eu272 2.335 . S
O324 C339 1.264 . S
O325 Eu283 2.432 . S
O325 C347 1.268 . S
O326 Eu283 2.291 . S
O326 C346 1.255 . S
O327 Eu272 2.372 . S
O327 C346 1.257 . S
C328 O317 1.249 . S
C328 O318 1.264 . S
C329 C332 1.382 . S
C329 C334 1.390 . S
C329 C336 1.506 . S
C330 C331 1.398 . S
C330 C334 1.392 . S
C331 C330 1.398 . S
C331 C333 1.372 . S
C331 H348 0.931 . S
C332 C329 1.382 . S
C332 C333 1.390 . S
C332 H349 0.931 . S
C333 C331 1.372 . S
C333 C332 1.390 . S
C333 H350 0.929 . S
C334 C329 1.390 . S
C334 C330 1.392 . S
C334 H351 0.930 . S
C335 O320 1.255 . S
C335 O321 1.257 . S
C336 Eu272 2.787 . S
C336 O316 1.252 . S
C336 O319 1.268 . S
C336 C329 1.506 . S
C337 C304 1.439 . S
C337 H314 0.931 . S
C337 C338 1.374 . S
C338 C309 1.387 . S
C338 H315 0.931 . S
C338 C337 1.374 . S
C339 O323 1.249 . S
C339 O324 1.264 . S
C340 C343 1.382 . S
C340 C344 1.390 . S
C340 C347 1.506 . S
C341 C342 1.398 . S
C341 C344 1.392 1_554 S
C342 C341 1.398 . S
C342 C345 1.372 1_554 S
C342 H352 0.931 . S
C343 C340 1.382 . S
C343 C345 1.390 . S
C343 H353 0.931 . S
C344 C340 1.390 . S
C344 C341 1.392 1_556 S
C344 H354 0.930 . S
C345 C342 1.372 1_556 S
C345 C343 1.390 . S
C345 H355 0.929 . S
C346 O326 1.255 . S
C346 O327 1.257 . S
C347 Eu283 2.787 . S
C347 O322 1.252 . S
C347 O325 1.268 . S
C347 C340 1.506 . S
H348 C331 0.931 . S
H349 C332 0.931 . S
H350 C333 0.929 . S
H351 C334 0.930 . S
H352 C342 0.931 . S
H353 C343 0.931 . S
H354 C344 0.930 . S
H355 C345 0.929 . S
Eu356 N385 2.600 . S
Eu356 N391 2.562 . S
Eu356 O400 2.462 . S
Eu356 O401 2.373 1_455 S
Eu356 O403 2.432 . S
Eu356 O404 2.291 . S
Eu356 O408 2.335 . S
Eu356 O411 2.372 . S
Eu356 C420 2.787 . S
C357 N358 1.365 . S
C357 C360 1.405 . S
C357 C364 1.448 . S
N358 C357 1.365 . S
N358 C361 1.318 1_455 S
N358 Eu367 2.600 1_455 S
C359 C361 1.395 1_455 S
C359 C362 1.367 . S
C359 H379 0.931 . S
C360 C357 1.405 . S
C360 C362 1.403 . S
C360 C366 1.439 1_556 S
C361 N358 1.318 1_655 S
C361 C359 1.395 1_655 S
C361 H372 0.933 . S
C362 C359 1.367 . S
C362 C360 1.403 . S
C362 H383 0.929 . S
C363 C364 1.430 1_554 S
C363 C365 1.387 . S
C363 C369 1.404 . S
C364 C357 1.448 . S
C364 C363 1.430 1_556 S
C364 N368 1.351 . S
C365 C363 1.387 . S
C365 C366 1.374 . S
C365 H380 0.931 . S
C366 C360 1.439 1_554 S
C366 C365 1.374 . S
C366 H381 0.931 . S
Eu367 N358 2.600 1_655 S
Eu367 N368 2.562 1_655 S
Eu367 O402 2.335 . S
Eu367 O405 2.372 . S
Eu367 O406 2.462 . S
Eu367 O407 2.373 1_655 S
Eu367 O409 2.432 . S
Eu367 O410 2.291 1_655 S
Eu367 C431 2.787 . S
N368 C364 1.351 . S
N368 Eu367 2.562 1_455 S
N368 C370 1.325 1_556 S
C369 C363 1.404 . S
C369 C371 1.366 . S
C369 H377 0.930 . S
C370 N368 1.325 1_554 S
C370 C371 1.416 . S
C370 H376 0.929 1_554 S
C371 C369 1.366 . S
C371 C370 1.416 . S
C371 H373 0.930 . S
H372 C361 0.933 . S
H373 C371 0.930 . S
H374 C389 0.930 . S
H375 C396 0.930 . S
H376 C370 0.929 1_556 S
H377 C369 0.930 . S
H378 C392 0.929 . S
H379 C359 0.931 . S
H380 C365 0.931 . S
H381 C366 0.931 . S
H382 C387 0.931 . S
H383 C362 0.929 . S
H384 C395 0.930 . S
N385 Eu356 2.600 . S
N385 C386 1.376 . S
N385 C389 1.319 . S
C386 N385 1.376 . S
C386 C388 1.396 1_455 S
C386 C394 1.446 1_455 S
C387 H382 0.931 . S
C387 C389 1.397 . S
C387 C390 1.367 1_455 S
C388 C386 1.396 1_655 S
C388 C390 1.403 . S
C388 C421 1.439 . S
C389 H374 0.930 . S
C389 N385 1.319 . S
C389 C387 1.397 . S
C390 C387 1.367 1_655 S
C390 C388 1.403 . S
C390 H397 0.929 . S
N391 Eu356 2.562 . S
N391 C392 1.325 . S
N391 C394 1.351 1_455 S
C392 H378 0.929 . S
C392 N391 1.325 . S
C392 C396 1.416 1_455 S
C393 C394 1.430 . S
C393 C395 1.404 . S
C393 C422 1.387 . S
C394 C386 1.446 1_655 S
C394 N391 1.351 1_655 S
C394 C393 1.430 . S
C395 H384 0.930 . S
C395 C393 1.404 . S
C395 C396 1.366 . S
C396 H375 0.930 . S
C396 C392 1.416 1_655 S
C396 C395 1.366 . S
H397 C390 0.929 . S
H398 C421 0.931 . S
H399 C422 0.931 . S
O400 Eu356 2.462 . S
O400 C420 1.252 . S
O401 Eu356 2.373 1_655 S
O401 C412 1.249 . S
O402 Eu367 2.335 . S
O402 C412 1.264 . S
O403 Eu356 2.432 . S
O403 C420 1.268 . S
O404 Eu356 2.291 . S
O404 C419 1.255 . S
O405 Eu367 2.372 . S
O405 C419 1.257 1_655 S
O406 Eu367 2.462 . S
O406 C431 1.252 . S
O407 Eu367 2.373 1_455 S
O407 C423 1.249 . S
O408 Eu356 2.335 . S
O408 C423 1.264 . S
O409 Eu367 2.432 . S
O409 C431 1.268 . S
O410 Eu367 2.291 1_455 S
O410 C430 1.255 . S
O411 Eu356 2.372 . S
O411 C430 1.257 . S
C412 O401 1.249 . S
C412 O402 1.264 . S
C413 C416 1.382 . S
C413 C418 1.390 . S
C413 C420 1.506 . S
C414 C415 1.398 . S
C414 C418 1.392 . S
C415 C414 1.398 . S
C415 C417 1.372 . S
C415 H432 0.931 . S
C416 C413 1.382 . S
C416 C417 1.390 . S
C416 H433 0.931 . S
C417 C415 1.372 . S
C417 C416 1.390 . S
C417 H434 0.929 . S
C418 C413 1.390 . S
C418 C414 1.392 . S
C418 H435 0.930 . S
C419 O404 1.255 . S
C419 O405 1.257 1_455 S
C420 Eu356 2.787 . S
C420 O400 1.252 . S
C420 O403 1.268 . S
C420 C413 1.506 . S
C421 C388 1.439 . S
C421 H398 0.931 . S
C421 C422 1.374 . S
C422 C393 1.387 . S
C422 H399 0.931 . S
C422 C421 1.374 . S
C423 O407 1.249 . S
C423 O408 1.264 . S
C424 C427 1.382 . S
C424 C428 1.390 . S
C424 C431 1.506 . S
C425 C426 1.398 . S
C425 C428 1.392 1_554 S
C426 C425 1.398 . S
C426 C429 1.372 1_554 S
C426 H436 0.931 . S
C427 C424 1.382 . S
C427 C429 1.390 . S
C427 H437 0.931 . S
C428 C424 1.390 . S
C428 C425 1.392 1_556 S
C428 H438 0.930 . S
C429 C426 1.372 1_556 S
C429 C427 1.390 . S
C429 H439 0.929 . S
C430 O410 1.255 . S
C430 O411 1.257 . S
C431 Eu367 2.787 . S
C431 O406 1.252 . S
C431 O409 1.268 . S
C431 C424 1.506 . S
H432 C415 0.931 . S
H433 C416 0.931 . S
H434 C417 0.929 . S
H435 C418 0.930 . S
H436 C426 0.931 . S
H437 C427 0.931 . S
H438 C428 0.930 . S
H439 C429 0.929 . S
C440 C441 1.391 . S
C440 C442 1.394 . S
C440 H456 0.931 . S
C441 C440 1.391 . S
C441 C445 1.376 . S
C442 C440 1.394 . S
C442 C443 1.369 . S
C442 C446 1.531 . S
C443 C442 1.369 . S
C443 C444 1.410 . S
C443 C451 1.503 . S
C444 C443 1.410 . S
C444 C445 1.392 . S
C444 C447 1.495 1_545 S
C445 C441 1.376 . S
C445 C444 1.392 . S
C445 H457 0.929 . S
C446 C442 1.531 . S
C446 H458 0.960 . S
C446 H459 0.962 . S
C446 H460 0.960 . S
C447 C444 1.495 1_565 S
C447 H461 0.957 1_565 S
C447 H462 0.951 1_565 S
C447 H463 0.991 . S
C448 C449 1.370 . S
C448 C450 1.363 . S
C448 H464 0.931 . S
C449 C448 1.370 . S
C449 C453 1.408 1_545 S
C450 C448 1.363 . S
C450 C451 1.370 . S
C450 C454 1.524 . S
C451 C443 1.503 . S
C451 C450 1.370 . S
C451 C452 1.427 . S
C452 C451 1.427 . S
C452 C453 1.402 1_545 S
C452 C455 1.515 1_545 S
C453 C449 1.408 1_565 S
C453 C452 1.402 1_565 S
C453 H465 0.930 . S
C454 C450 1.524 . S
C454 H466 0.956 . S
C454 H467 0.961 . S
C454 H468 0.961 . S
C455 C452 1.515 1_565 S
C455 H469 0.958 . S
C455 H470 0.961 . S
C455 H471 0.960 . S
H456 C440 0.931 . S
H457 C445 0.929 . S
H458 C446 0.960 . S
H459 C446 0.962 . S
H460 C446 0.960 . S
H461 C447 0.957 1_545 S
H462 C447 0.951 1_545 S
H463 C447 0.991 . S
H464 C448 0.931 . S
H465 C453 0.930 . S
H466 C454 0.956 . S
H467 C454 0.961 . S
H468 C454 0.961 . S
H469 C455 0.958 . S
H470 C455 0.961 . S
H471 C455 0.960 . S
C472 C473 1.391 . S
C472 C474 1.394 . S
C472 H488 0.931 . S
C473 C472 1.391 . S
C473 C477 1.376 . S
C474 C472 1.394 . S
C474 C475 1.369 . S
C474 C478 1.531 . S
C475 C474 1.369 . S
C475 C476 1.410 . S
C475 C483 1.503 . S
C476 C475 1.410 . S
C476 C477 1.392 . S
C476 C479 1.511 . S
C477 C473 1.376 . S
C477 C476 1.392 . S
C477 H489 0.929 . S
C478 C474 1.531 . S
C478 H490 0.960 . S
C478 H491 0.962 . S
C478 H492 0.960 . S
C479 C476 1.511 . S
C479 H493 0.961 . S
C479 H494 0.961 . S
C479 H495 0.961 . S
C480 C481 1.370 . S
C480 C482 1.363 . S
C480 H496 0.931 . S
C481 C480 1.370 . S
C481 C485 1.408 . S
C482 C480 1.363 . S
C482 C483 1.370 . S
C482 C486 1.524 . S
C483 C475 1.503 . S
C483 C482 1.370 . S
C483 C484 1.403 . S
C484 C483 1.403 . S
C484 C485 1.404 . S
C484 C487 1.539 . S
C485 C481 1.408 . S
C485 C484 1.404 . S
C485 H497 0.930 . S
C486 C482 1.524 . S
C486 H498 0.956 . S
C486 H499 0.961 . S
C486 H500 0.961 . S
C487 C484 1.539 . S
C487 H501 0.958 . S
C487 H502 0.961 . S
C487 H503 0.960 . S
H488 C472 0.931 . S
H489 C477 0.929 . S
H490 C478 0.960 . S
H491 C478 0.962 . S
H492 C478 0.960 . S
H493 C479 0.961 . S
H494 C479 0.961 . S
H495 C479 0.961 . S
H496 C480 0.931 . S
H497 C485 0.930 . S
H498 C486 0.956 . S
H499 C486 0.961 . S
H500 C486 0.961 . S
H501 C487 0.958 . S
H502 C487 0.961 . S
H503 C487 0.960 . S
C504 C505 1.391 . S
C504 C506 1.394 . S
C504 H520 0.931 . S
C505 C504 1.391 . S
C505 C509 1.376 . S
C506 C504 1.394 . S
C506 C507 1.369 . S
C506 C510 1.531 . S
C507 C506 1.369 . S
C507 C508 1.410 . S
C507 C515 1.503 . S
C508 C507 1.410 . S
C508 C509 1.392 . S
C508 C511 1.511 . S
C509 C505 1.376 . S
C509 C508 1.392 . S
C509 H521 0.929 . S
C510 C506 1.531 . S
C510 H522 0.960 . S
C510 H523 0.962 . S
C510 H524 0.960 . S
C511 C508 1.511 . S
C511 H525 0.961 . S
C511 H526 0.961 . S
C511 H527 0.961 . S
C512 C513 1.370 . S
C512 C514 1.363 . S
C512 H528 0.931 . S
C513 C512 1.370 . S
C513 C517 1.408 . S
C514 C512 1.363 . S
C514 C515 1.370 . S
C514 C518 1.524 . S
C515 C507 1.503 . S
C515 C514 1.370 . S
C515 C516 1.403 . S
C516 C515 1.403 . S
C516 C517 1.404 . S
C516 C519 1.539 . S
C517 C513 1.408 . S
C517 C516 1.404 . S
C517 H529 0.930 . S
C518 C514 1.524 . S
C518 H530 0.956 . S
C518 H531 0.961 . S
C518 H532 0.961 . S
C519 C516 1.539 . S
C519 H533 0.958 . S
C519 H534 0.961 . S
C519 H535 0.960 . S
H520 C504 0.931 . S
H521 C509 0.929 . S
H522 C510 0.960 . S
H523 C510 0.962 . S
H524 C510 0.960 . S
H525 C511 0.961 . S
H526 C511 0.961 . S
H527 C511 0.961 . S
H528 C512 0.931 . S
H529 C517 0.930 . S
H530 C518 0.956 . S
H531 C518 0.961 . S
H532 C518 0.961 . S
H533 C519 0.958 . S
H534 C519 0.961 . S
H535 C519 0.960 . S
C536 C537 1.391 . S
C536 C538 1.394 . S
C536 H552 0.931 . S
C537 C536 1.391 . S
C537 C541 1.376 . S
C538 C536 1.394 . S
C538 C539 1.369 . S
C538 C542 1.531 . S
C539 C538 1.369 . S
C539 C540 1.410 . S
C539 C547 1.503 . S
C540 C539 1.410 . S
C540 C541 1.392 . S
C540 C543 1.511 1_455 S
C541 C537 1.376 . S
C541 C540 1.392 . S
C541 H553 0.929 1_455 S
C542 C538 1.531 . S
C542 H554 0.960 . S
C542 H555 0.962 . S
C542 H556 0.960 . S
C543 C540 1.511 1_655 S
C543 H557 0.961 . S
C543 H558 0.961 . S
C543 H559 0.961 . S
C544 C545 1.370 . S
C544 C546 1.363 . S
C544 H560 0.931 . S
C545 C544 1.370 . S
C545 C549 1.408 . S
C546 C544 1.363 . S
C546 C547 1.370 . S
C546 C550 1.524 . S
C547 C539 1.503 . S
C547 C546 1.370 . S
C547 C548 1.403 . S
C548 C547 1.403 . S
C548 C549 1.404 . S
C548 C551 1.539 1_455 S
C549 C545 1.408 . S
C549 C548 1.404 . S
C549 H561 0.930 1_455 S
C550 C546 1.524 . S
C550 H562 0.956 . S
C550 H563 0.961 . S
C550 H564 0.961 . S
C551 C548 1.539 1_655 S
C551 H565 0.958 . S
C551 H566 0.961 . S
C551 H567 0.960 . S
H552 C536 0.931 . S
H553 C541 0.929 1_655 S
H554 C542 0.960 . S
H555 C542 0.962 . S
H556 C542 0.960 . S
H557 C543 0.961 . S
H558 C543 0.961 . S
H559 C543 0.961 . S
H560 C544 0.931 . S
H561 C549 0.930 1_655 S
H562 C550 0.956 . S
H563 C550 0.961 . S
H564 C550 0.961 . S
H565 C551 0.958 . S
H566 C551 0.961 . S
H567 C551 0.960 . S
C568 C569 1.391 1_545 S
C568 C570 1.394 . S
C568 H584 0.931 . S
C569 C568 1.391 1_565 S
C569 C573 1.376 . S
C570 C568 1.394 . S
C570 C571 1.369 1_545 S
C570 C574 1.531 . S
C571 C570 1.369 1_565 S
C571 C572 1.410 . S
C571 C579 1.503 . S
C572 C571 1.410 . S
C572 C573 1.392 . S
C572 C575 1.511 . S
C573 C569 1.376 . S
C573 C572 1.392 . S
C573 H585 0.929 . S
C574 C570 1.531 . S
C574 H586 0.960 . S
C574 H587 0.962 . S
C574 H588 0.960 . S
C575 C572 1.511 . S
C575 H589 0.961 . S
C575 H590 0.961 . S
C575 H591 0.961 . S
C576 C577 1.370 1_565 S
C576 C578 1.365 . S
C576 H592 0.929 1_565 S
C577 C576 1.370 1_545 S
C577 C581 1.409 . S
C578 C576 1.365 . S
C578 C579 1.370 1_556 S
C578 C582 1.524 . S
C579 C571 1.503 . S
C579 C578 1.370 1_554 S
C579 C580 1.403 . S
C580 C579 1.403 . S
C580 C581 1.401 1_564 S
C580 C583 1.539 . S
C581 C577 1.409 . S
C581 C580 1.401 1_546 S
C581 H593 0.933 . S
C582 C578 1.524 . S
C582 H594 0.956 1_565 S
C582 H595 0.961 . S
C582 H596 0.961 . S
C583 C580 1.539 . S
C583 H597 0.958 1_565 S
C583 H598 0.961 . S
C583 H599 0.960 . S
H584 C568 0.931 . S
H585 C573 0.929 . S
H586 C574 0.960 . S
H587 C574 0.962 . S
H588 C574 0.960 . S
H589 C575 0.961 . S
H590 C575 0.961 . S
H591 C575 0.961 . S
H592 C576 0.929 1_545 S
H593 C581 0.933 . S
H594 C582 0.956 1_545 S
H595 C582 0.961 . S
H596 C582 0.961 . S
H597 C583 0.958 1_545 S
H598 C583 0.961 . S
H599 C583 0.960 . S
C600 C601 1.391 . S
C600 C602 1.394 . S
C600 H616 0.931 . S
C601 C600 1.391 . S
C601 C605 1.376 . S
C602 C600 1.394 . S
C602 C603 1.369 . S
C602 C606 1.531 . S
C603 C602 1.369 . S
C603 C604 1.410 . S
C603 C611 1.503 . S
C604 C603 1.410 . S
C604 C605 1.392 . S
C604 C607 1.511 . S
C605 C601 1.376 . S
C605 C604 1.392 . S
C605 H617 0.929 . S
C606 C602 1.531 . S
C606 H618 0.960 . S
C606 H619 0.962 . S
C606 H620 0.960 . S
C607 C604 1.511 . S
C607 H621 0.961 . S
C607 H622 0.961 . S
C607 H623 0.961 . S
C608 C609 1.370 . S
C608 C610 1.363 . S
C608 H624 0.931 . S
C609 C608 1.370 . S
C609 C613 1.408 . S
C610 C608 1.363 . S
C610 C611 1.370 1_556 S
C610 C614 1.524 . S
C611 C603 1.503 . S
C611 C610 1.370 1_554 S
C611 C612 1.403 . S
C612 C611 1.403 . S
C612 C613 1.404 1_554 S
C612 C615 1.539 . S
C613 C609 1.408 . S
C613 C612 1.404 1_556 S
C613 H625 0.930 . S
C614 C610 1.524 . S
C614 H626 0.956 . S
C614 H627 0.961 . S
C614 H628 0.961 . S
C615 C612 1.539 . S
C615 H629 0.958 . S
C615 H630 0.961 . S
C615 H631 0.960 . S
H616 C600 0.931 . S
H617 C605 0.929 . S
H618 C606 0.960 . S
H619 C606 0.962 . S
H620 C606 0.960 . S
H621 C607 0.961 . S
H622 C607 0.961 . S
H623 C607 0.961 . S
H624 C608 0.931 . S
H625 C613 0.930 . S
H626 C614 0.956 . S
H627 C614 0.961 . S
H628 C614 0.961 . S
H629 C615 0.958 . S
H630 C615 0.961 . S
H631 C615 0.960 . S
C632 C633 1.391 . S
C632 C634 1.394 . S
C632 H648 0.931 . S
C633 C632 1.391 . S
C633 C637 1.376 . S
C634 C632 1.394 . S
C634 C635 1.369 . S
C634 C638 1.531 . S
C635 C634 1.369 . S
C635 C636 1.410 . S
C635 C643 1.503 . S
C636 C635 1.410 . S
C636 C637 1.392 . S
C636 C639 1.511 . S
C637 C633 1.376 . S
C637 C636 1.392 . S
C637 H649 0.929 . S
C638 C634 1.531 . S
C638 H650 0.960 1_554 S
C638 H651 0.962 1_554 S
C638 H652 0.960 . S
C639 C636 1.511 . S
C639 H653 0.961 . S
C639 H654 0.961 . S
C639 H655 0.961 . S
C640 C641 1.370 . S
C640 C642 1.363 . S
C640 H656 0.931 . S
C641 C640 1.370 . S
C641 C645 1.408 . S
C642 C640 1.363 . S
C642 C643 1.370 1_556 S
C642 C646 1.524 1_556 S
C643 C635 1.503 . S
C643 C642 1.370 1_554 S
C643 C644 1.403 . S
C644 C643 1.403 . S
C644 C645 1.404 1_554 S
C644 C647 1.539 . S
C645 C641 1.408 . S
C645 C644 1.404 1_556 S
C645 H657 0.930 . S
C646 C642 1.524 1_554 S
C646 H658 0.956 . S
C646 H659 0.961 . S
C646 H660 0.961 1_554 S
C647 C644 1.539 . S
C647 H661 0.958 . S
C647 H662 0.961 . S
C647 H663 0.960 . S
H648 C632 0.931 . S
H649 C637 0.929 . S
H650 C638 0.960 1_556 S
H651 C638 0.962 1_556 S
H652 C638 0.960 . S
H653 C639 0.961 . S
H654 C639 0.961 . S
H655 C639 0.961 . S
H656 C640 0.931 . S
H657 C645 0.930 . S
H658 C646 0.956 . S
H659 C646 0.961 . S
H660 C646 0.961 1_556 S
H661 C647 0.958 . S
H662 C647 0.961 . S
H663 C647 0.960 . S
C664 C665 1.391 1_455 S
C664 C666 1.394 . S
C664 H680 0.931 . S
C665 C664 1.391 1_655 S
C665 C669 1.376 . S
C666 C664 1.394 . S
C666 C667 1.369 1_455 S
C666 C670 1.531 . S
C667 C666 1.369 1_655 S
C667 C668 1.410 . S
C667 C675 1.503 . S
C668 C667 1.410 . S
C668 C669 1.392 . S
C668 C671 1.511 . S
C669 C665 1.376 . S
C669 C668 1.392 . S
C669 H681 0.929 . S
C670 C666 1.531 . S
C670 H682 0.960 . S
C670 H683 0.962 . S
C670 H684 0.960 . S
C671 C668 1.511 . S
C671 H685 0.961 . S
C671 H686 0.961 1_554 S
C671 H687 0.961 . S
C672 C673 1.370 1_455 S
C672 C674 1.363 . S
C672 H688 0.931 . S
C673 C672 1.370 1_655 S
C673 C677 1.408 . S
C674 C672 1.363 . S
C674 C675 1.370 1_456 S
C674 C678 1.524 . S
C675 C667 1.503 . S
C675 C674 1.370 1_654 S
C675 C676 1.403 . S
C676 C675 1.403 . S
C676 C677 1.404 1_554 S
C676 C679 1.539 . S
C677 C673 1.408 . S
C677 C676 1.404 1_556 S
C677 H689 0.930 . S
C678 C674 1.524 . S
C678 H690 0.956 1_556 S
C678 H691 0.961 . S
C678 H692 0.961 . S
C679 C676 1.539 . S
C679 H693 0.958 . S
C679 H694 0.961 . S
C679 H695 0.960 . S
H680 C664 0.931 . S
H681 C669 0.929 . S
H682 C670 0.960 . S
H683 C670 0.962 . S
H684 C670 0.960 . S
H685 C671 0.961 . S
H686 C671 0.961 1_556 S
H687 C671 0.961 . S
H688 C672 0.931 . S
H689 C677 0.930 . S
H690 C678 0.956 1_554 S
H691 C678 0.961 . S
H692 C678 0.961 . S
H693 C679 0.958 . S
H694 C679 0.961 . S
H695 C679 0.960 . S
C696 C697 1.391 . S
C696 C698 1.394 . S
C696 H712 0.931 1_554 S
C697 C696 1.391 . S
C697 C701 1.376 . S
C698 C696 1.394 . S
C698 C699 1.369 . S
C698 C702 1.531 . S
C699 C698 1.369 . S
C699 C700 1.410 . S
C699 C707 1.503 . S
C700 C699 1.410 . S
C700 C701 1.392 . S
C700 C703 1.511 . S
C701 C697 1.376 . S
C701 C700 1.392 . S
C701 H713 0.929 . S
C702 C698 1.531 . S
C702 H714 0.960 . S
C702 H715 0.962 1_455 S
C702 H716 0.960 1_554 S
C703 C700 1.511 . S
C703 H717 0.961 . S
C703 H718 0.961 . S
C703 H719 0.961 . S
C704 C705 1.370 1_655 S
C704 C706 1.363 . S
C704 H720 0.931 . S
C705 C704 1.370 1_455 S
C705 C709 1.408 . S
C706 C704 1.363 . S
C706 C707 1.370 1_655 S
C706 C710 1.524 . S
C707 C699 1.503 . S
C707 C706 1.370 1_455 S
C707 C708 1.403 . S
C708 C707 1.403 . S
C708 C709 1.404 . S
C708 C711 1.539 . S
C709 C705 1.408 . S
C709 C708 1.404 . S
C709 H721 0.930 . S
C710 C706 1.524 . S
C710 H722 0.956 . S
C710 H723 0.961 . S
C710 H724 0.961 . S
C711 C708 1.539 . S
C711 H725 0.958 . S
C711 H726 0.961 . S
C711 H727 0.960 . S
H712 C696 0.931 1_556 S
H713 C701 0.929 . S
H714 C702 0.960 . S
H715 C702 0.962 1_655 S
H716 C702 0.960 1_556 S
H717 C703 0.961 . S
H718 C703 0.961 . S
H719 C703 0.961 . S
H720 C704 0.931 . S
H721 C709 0.930 . S
H722 C710 0.956 . S
H723 C710 0.961 . S
H724 C710 0.961 . S
H725 C711 0.958 . S
H726 C711 0.961 . S
H727 C711 0.960 . S
C728 C729 1.391 . S
C728 C730 1.394 . S
C728 H744 0.931 . S
C729 C728 1.391 . S
C729 C733 1.376 . S
C730 C728 1.394 . S
C730 C731 1.369 . S
C730 C734 1.531 . S
C731 C730 1.369 . S
C731 C732 1.410 . S
C731 C739 1.503 . S
C732 C731 1.410 . S
C732 C733 1.392 . S
C732 C735 1.511 . S
C733 C729 1.376 . S
C733 C732 1.392 . S
C733 H745 0.929 . S
C734 C730 1.531 . S
C734 H746 0.960 . S
C734 H747 0.962 . S
C734 H748 0.960 . S
C735 C732 1.511 . S
C735 H749 0.961 1_545 S
C735 H750 0.961 1_545 S
C735 H751 0.961 . S
C736 C737 1.370 1_565 S
C736 C738 1.356 1_565 S
C736 H752 0.931 . S
C737 C736 1.370 1_545 S
C737 C741 1.408 . S
C738 C736 1.356 1_545 S
C738 C739 1.393 . S
C738 C742 1.509 1_545 S
C739 C731 1.503 . S
C739 C738 1.393 . S
C739 C740 1.403 . S
C740 C739 1.403 . S
C740 C741 1.404 . S
C740 C743 1.539 . S
C741 C737 1.408 . S
C741 C740 1.404 . S
C741 H753 0.930 . S
C742 C738 1.509 1_565 S
C742 H754 0.956 . S
C742 H755 0.961 . S
C742 H756 0.961 . S
C743 C740 1.539 . S
C743 H757 0.958 . S
C743 H758 0.961 . S
C743 H759 0.960 . S
H744 C728 0.931 . S
H745 C733 0.929 . S
H746 C734 0.960 . S
H747 C734 0.962 . S
H748 C734 0.960 . S
H749 C735 0.961 1_565 S
H750 C735 0.961 1_565 S
H751 C735 0.961 . S
H752 C736 0.931 . S
H753 C741 0.930 . S
H754 C742 0.956 . S
H755 C742 0.961 . S
H756 C742 0.961 . S
H757 C743 0.958 . S
H758 C743 0.961 . S
H759 C743 0.960 . S
C760 C761 1.391 . S
C760 C762 1.394 . S
C760 H776 0.931 . S
C761 C760 1.391 . S
C761 C765 1.376 . S
C762 C760 1.394 . S
C762 C763 1.369 . S
C762 C766 1.531 . S
C763 C762 1.369 . S
C763 C764 1.410 . S
C763 C771 1.503 . S
C764 C763 1.410 . S
C764 C765 1.392 . S
C764 C767 1.511 . S
C765 C761 1.376 . S
C765 C764 1.392 . S
C765 H777 0.929 . S
C766 C762 1.531 . S
C766 H778 0.960 . S
C766 H779 0.962 . S
C766 H780 0.960 . S
C767 C764 1.511 . S
C767 H781 0.961 . S
C767 H782 0.961 . S
C767 H783 0.961 . S
C768 C769 1.370 . S
C768 C770 1.363 . S
C768 H784 0.931 . S
C769 C768 1.370 . S
C769 C773 1.408 . S
C770 C768 1.363 . S
C770 C771 1.370 . S
C770 C774 1.524 . S
C771 C763 1.503 . S
C771 C770 1.370 . S
C771 C772 1.403 . S
C772 C771 1.403 . S
C772 C773 1.404 . S
C772 C775 1.539 . S
C773 C769 1.408 . S
C773 C772 1.404 . S
C773 H785 0.930 . S
C774 C770 1.524 . S
C774 H786 0.956 . S
C774 H787 0.961 . S
C774 H788 0.961 . S
C775 C772 1.539 . S
C775 H789 0.958 . S
C775 H790 0.961 . S
C775 H791 0.960 . S
H776 C760 0.931 . S
H777 C765 0.929 . S
H778 C766 0.960 . S
H779 C766 0.962 . S
H780 C766 0.960 . S
H781 C767 0.961 . S
H782 C767 0.961 . S
H783 C767 0.961 . S
H784 C768 0.931 . S
H785 C773 0.930 . S
H786 C774 0.956 . S
H787 C774 0.961 . S
H788 C774 0.961 . S
H789 C775 0.958 . S
H790 C775 0.961 . S
H791 C775 0.960 . S
C792 C793 1.391 . S
C792 C794 1.394 . S
C792 H808 0.931 . S
C793 C792 1.391 . S
C793 C797 1.376 . S
C794 C792 1.394 . S
C794 C795 1.369 . S
C794 C798 1.531 . S
C795 C794 1.369 . S
C795 C796 1.410 . S
C795 C803 1.503 . S
C796 C795 1.410 . S
C796 C797 1.392 . S
C796 C799 1.511 . S
C797 C793 1.376 . S
C797 C796 1.392 . S
C797 H809 0.940 . S
C798 C794 1.531 . S
C798 H810 0.960 . S
C798 H811 0.962 . S
C798 H812 0.960 . S
C799 C796 1.511 . S
C799 H813 0.961 . S
C799 H814 0.961 . S
C799 H815 0.961 . S
C800 C801 1.370 . S
C800 C802 1.363 . S
C800 H816 0.931 . S
C801 C800 1.370 . S
C801 C805 1.408 . S
C802 C800 1.363 . S
C802 C803 1.370 . S
C802 C806 1.524 . S
C803 C795 1.503 . S
C803 C802 1.370 . S
C803 C804 1.403 . S
C804 C803 1.403 . S
C804 C805 1.404 . S
C804 C807 1.539 . S
C805 C801 1.408 . S
C805 C804 1.404 . S
C805 H817 0.930 . S
C806 C802 1.524 . S
C806 H818 0.956 . S
C806 H819 0.961 . S
C806 H820 0.961 . S
C807 C804 1.539 . S
C807 H821 0.958 . S
C807 H822 0.961 . S
C807 H823 0.960 . S
H808 C792 0.931 . S
H809 C797 0.940 . S
H810 C798 0.960 . S
H811 C798 0.962 . S
H812 C798 0.960 . S
H813 C799 0.961 . S
H814 C799 0.961 . S
H815 C799 0.961 . S
H816 C800 0.931 . S
H817 C805 0.930 . S
H818 C806 0.956 . S
H819 C806 0.961 . S
H820 C806 0.961 . S
H821 C807 0.958 . S
H822 C807 0.961 . S
H823 C807 0.960 . S
C824 C825 1.381 1_455 S
C824 C826 1.396 . S
C824 H840 0.938 . S
C825 C824 1.381 1_655 S
C825 C829 1.376 . S
C826 C824 1.396 . S
C826 C827 1.369 1_455 S
C826 C830 1.531 . S
C827 C826 1.369 1_655 S
C827 C828 1.410 . S
C827 C835 1.503 . S
C828 C827 1.410 . S
C828 C829 1.392 . S
C828 C831 1.511 . S
C829 C825 1.376 . S
C829 C828 1.392 . S
C829 H841 0.929 . S
C830 C826 1.531 . S
C830 H842 0.960 . S
C830 H843 0.962 . S
C830 H844 0.960 . S
C831 C828 1.511 . S
C831 H845 0.961 . S
C831 H846 0.961 . S
C831 H847 0.961 . S
C832 C833 1.370 . S
C832 C834 1.363 . S
C832 H848 0.931 . S
C833 C832 1.370 . S
C833 C837 1.408 1_455 S
C834 C832 1.363 . S
C834 C835 1.370 1_455 S
C834 C838 1.524 . S
C835 C827 1.503 . S
C835 C834 1.370 1_655 S
C835 C836 1.403 . S
C836 C835 1.403 . S
C836 C837 1.404 . S
C836 C839 1.539 . S
C837 C833 1.408 1_655 S
C837 C836 1.404 . S
C837 H849 0.930 1_554 S
C838 C834 1.524 . S
C838 H850 0.956 . S
C838 H851 0.961 . S
C838 H852 0.961 . S
C839 C836 1.539 . S
C839 H853 0.958 1_554 S
C839 H854 0.961 1_554 S
C839 H855 0.960 . S
H840 C824 0.938 . S
H841 C829 0.929 . S
H842 C830 0.960 . S
H843 C830 0.962 . S
H844 C830 0.960 . S
H845 C831 0.961 . S
H846 C831 0.961 . S
H847 C831 0.961 . S
H848 C832 0.931 . S
H849 C837 0.930 1_556 S
H850 C838 0.956 . S
H851 C838 0.961 . S
H852 C838 0.961 . S
H853 C839 0.958 1_556 S
H854 C839 0.961 1_556 S
H855 C839 0.960 . S
C856 C857 1.415 . S
C856 C858 1.387 1_565 S
C856 H872 0.915 1_565 S
C857 C856 1.415 . S
C857 C861 1.376 . S
C858 C856 1.387 1_545 S
C858 C859 1.369 1_545 S
C858 C862 1.531 . S
C859 C858 1.369 1_565 S
C859 C860 1.410 . S
C859 C867 1.504 1_565 S
C860 C859 1.410 . S
C860 C861 1.392 . S
C860 C863 1.511 . S
C861 C857 1.376 . S
C861 C860 1.392 . S
C861 H873 0.929 . S
C862 C858 1.531 . S
C862 H874 0.960 . S
C862 H875 0.962 . S
C862 H876 0.960 . S
C863 C860 1.511 . S
C863 H877 0.961 . S
C863 H878 0.961 . S
C863 H879 0.961 . S
C864 C865 1.370 . S
C864 C866 1.363 . S
C864 H880 0.931 . S
C865 C864 1.370 . S
C865 C869 1.408 1_545 S
C866 C864 1.363 . S
C866 C867 1.368 . S
C866 C870 1.524 . S
C867 C859 1.504 1_545 S
C867 C866 1.368 . S
C867 C868 1.404 1_545 S
C868 C867 1.404 1_565 S
C868 C869 1.404 . S
C868 C871 1.539 . S
C869 C865 1.408 1_565 S
C869 C868 1.404 . S
C869 H881 0.930 1_554 S
C870 C866 1.524 . S
C870 H882 0.956 . S
C870 H883 0.961 . S
C870 H884 0.961 . S
C871 C868 1.539 . S
C871 H885 0.958 1_554 S
C871 H886 0.961 . S
C871 H887 0.960 . S
H872 C856 0.915 1_545 S
H873 C861 0.929 . S
H874 C862 0.960 . S
H875 C862 0.962 . S
H876 C862 0.960 . S
H877 C863 0.961 . S
H878 C863 0.961 . S
H879 C863 0.961 . S
H880 C864 0.931 . S
H881 C869 0.930 1_556 S
H882 C870 0.956 . S
H883 C870 0.961 . S
H884 C870 0.961 . S
H885 C871 0.958 1_556 S
H886 C871 0.961 . S
H887 C871 0.960 . S
C888 C889 1.391 . S
C888 C890 1.394 . S
C888 H904 0.931 . S
C889 C888 1.391 . S
C889 C893 1.376 . S
C890 C888 1.394 . S
C890 C891 1.369 . S
C890 C894 1.531 . S
C891 C890 1.369 . S
C891 C892 1.410 . S
C891 C899 1.503 . S
C892 C891 1.410 . S
C892 C893 1.392 . S
C892 C895 1.511 . S
C893 C889 1.376 . S
C893 C892 1.392 . S
C893 H905 0.929 . S
C894 C890 1.531 . S
C894 H906 0.960 . S
C894 H907 0.962 . S
C894 H908 0.960 . S
C895 C892 1.511 . S
C895 H909 0.961 . S
C895 H910 0.961 . S
C895 H911 0.961 . S
C896 C897 1.370 . S
C896 C898 1.363 . S
C896 H912 0.931 1_554 S
C897 C896 1.370 . S
C897 C901 1.408 . S
C898 C896 1.363 . S
C898 C899 1.370 . S
C898 C902 1.524 . S
C899 C891 1.503 . S
C899 C898 1.370 . S
C899 C900 1.403 . S
C900 C899 1.403 . S
C900 C901 1.404 . S
C900 C903 1.539 . S
C901 C897 1.408 . S
C901 C900 1.404 . S
C901 H913 0.930 . S
C902 C898 1.524 . S
C902 H914 0.956 . S
C902 H915 0.961 . S
C902 H916 0.961 1_554 S
C903 C900 1.539 . S
C903 H917 0.958 . S
C903 H918 0.961 . S
C903 H919 0.960 . S
H904 C888 0.931 . S
H905 C893 0.929 . S
H906 C894 0.960 . S
H907 C894 0.962 . S
H908 C894 0.960 . S
H909 C895 0.961 . S
H910 C895 0.961 . S
H911 C895 0.961 . S
H912 C896 0.931 1_556 S
H913 C901 0.930 . S
H914 C902 0.956 . S
H915 C902 0.961 . S
H916 C902 0.961 1_556 S
H917 C903 0.958 . S
H918 C903 0.961 . S
H919 C903 0.960 . S
C920 C921 1.391 . S
C920 C922 1.394 . S
C920 H936 0.931 . S
C921 C920 1.391 . S
C921 C925 1.376 . S
C922 C920 1.394 . S
C922 C923 1.369 . S
C922 C926 1.531 . S
C923 C922 1.369 . S
C923 C924 1.410 . S
C923 C931 1.503 . S
C924 C923 1.410 . S
C924 C925 1.392 . S
C924 C927 1.511 . S
C925 C921 1.376 . S
C925 C924 1.392 . S
C925 H937 0.929 . S
C926 C922 1.531 . S
C926 H938 0.960 . S
C926 H939 0.962 . S
C926 H940 0.960 . S
C927 C924 1.511 . S
C927 H941 0.961 . S
C927 H942 0.961 . S
C927 H943 0.961 . S
C928 C929 1.370 . S
C928 C930 1.363 . S
C928 H944 0.931 . S
C929 C928 1.370 . S
C929 C933 1.408 . S
C930 C928 1.363 . S
C930 C931 1.370 . S
C930 C934 1.524 . S
C931 C923 1.503 . S
C931 C930 1.370 . S
C931 C932 1.403 . S
C932 C931 1.403 . S
C932 C933 1.404 . S
C932 C935 1.539 . S
C933 C929 1.408 . S
C933 C932 1.404 . S
C933 H945 0.930 . S
C934 C930 1.524 . S
C934 H946 0.956 . S
C934 H947 0.961 . S
C934 H948 0.961 . S
C935 C932 1.539 . S
C935 H949 0.958 . S
C935 H950 0.961 . S
C935 H951 0.960 . S
H936 C920 0.931 . S
H937 C925 0.929 . S
H938 C926 0.960 . S
H939 C926 0.962 . S
H940 C926 0.960 . S
H941 C927 0.961 . S
H942 C927 0.961 . S
H943 C927 0.961 . S
H944 C928 0.931 . S
H945 C933 0.930 . S
H946 C934 0.956 . S
H947 C934 0.961 . S
H948 C934 0.961 . S
H949 C935 0.958 . S
H950 C935 0.961 . S
H951 C935 0.960 . S
C952 C953 1.391 . S
C952 C954 1.394 . S
C952 H968 0.931 1_556 S
C953 C952 1.391 . S
C953 C957 1.376 . S
C954 C952 1.394 . S
C954 C955 1.369 . S
C954 C958 1.531 1_556 S
C955 C954 1.369 . S
C955 C956 1.410 . S
C955 C963 1.503 . S
C956 C955 1.410 . S
C956 C957 1.392 . S
C956 C959 1.511 1_455 S
C957 C953 1.376 . S
C957 C956 1.392 . S
C957 H969 0.929 1_455 S
C958 C954 1.531 1_554 S
C958 H970 0.960 . S
C958 H971 0.962 1_554 S
C958 H972 0.960 . S
C959 C956 1.511 1_655 S
C959 H973 0.961 . S
C959 H974 0.961 . S
C959 H975 0.961 . S
C960 C961 1.370 . S
C960 C962 1.363 . S
C960 H976 0.931 . S
C961 C960 1.370 . S
C961 C965 1.408 . S
C962 C960 1.363 . S
C962 C963 1.370 . S
C962 C966 1.524 . S
C963 C955 1.503 . S
C963 C962 1.370 . S
C963 C964 1.403 . S
C964 C963 1.403 . S
C964 C965 1.404 . S
C964 C967 1.539 1_456 S
C965 C961 1.408 . S
C965 C964 1.404 . S
C965 H977 0.930 1_455 S
C966 C962 1.524 . S
C966 H978 0.956 . S
C966 H979 0.961 . S
C966 H980 0.961 . S
C967 C964 1.539 1_654 S
C967 H981 0.958 1_655 S
C967 H982 0.961 . S
C967 H983 0.960 . S
H968 C952 0.931 1_554 S
H969 C957 0.929 1_655 S
H970 C958 0.960 . S
H971 C958 0.962 1_556 S
H972 C958 0.960 . S
H973 C959 0.961 . S
H974 C959 0.961 . S
H975 C959 0.961 . S
H976 C960 0.931 . S
H977 C965 0.930 1_655 S
H978 C966 0.956 . S
H979 C966 0.961 . S
H980 C966 0.961 . S
H981 C967 0.958 1_455 S
H982 C967 0.961 . S
H983 C967 0.960 . S
C984 C985 1.391 . S
C984 C986 1.394 . S
C984 H1000 0.931 . S
C985 C984 1.391 . S
C985 C989 1.376 . S
C986 C984 1.394 . S
C986 C987 1.369 . S
C986 C990 1.531 . S
C987 C986 1.369 . S
C987 C988 1.410 . S
C987 C995 1.503 . S
C988 C987 1.410 . S
C988 C989 1.392 . S
C988 C991 1.511 1_545 S
C989 C985 1.376 . S
C989 C988 1.392 . S
C989 H1001 0.929 1_545 S
C990 C986 1.531 . S
C990 H1002 0.960 . S
C990 H1003 0.962 . S
C990 H1004 0.960 1_556 S
C991 C988 1.511 1_565 S
C991 H1005 0.961 . S
C991 H1006 0.961 . S
C991 H1007 0.961 . S
C992 C993 1.370 . S
C992 C994 1.363 . S
C992 H1008 0.931 . S
C993 C992 1.370 . S
C993 C997 1.408 . S
C994 C992 1.363 . S
C994 C995 1.370 . S
C994 C998 1.524 . S
C995 C987 1.503 . S
C995 C994 1.370 . S
C995 C996 1.403 . S
C996 C995 1.403 . S
C996 C997 1.404 . S
C996 C999 1.539 1_556 S
C997 C993 1.408 . S
C997 C996 1.404 . S
C997 H1009 0.930 . S
C998 C994 1.524 . S
C998 H1010 0.956 . S
C998 H1011 0.961 . S
C998 H1012 0.961 . S
C999 C996 1.539 1_554 S
C999 H1013 0.958 . S
C999 H1014 0.961 1_545 S
C999 H1015 0.960 . S
H1000 C984 0.931 . S
H1001 C989 0.929 1_565 S
H1002 C990 0.960 . S
H1003 C990 0.962 . S
H1004 C990 0.960 1_554 S
H1005 C991 0.961 . S
H1006 C991 0.961 . S
H1007 C991 0.961 . S
H1008 C992 0.931 . S
H1009 C997 0.930 . S
H1010 C998 0.956 . S
H1011 C998 0.961 . S
H1012 C998 0.961 . S
H1013 C999 0.958 . S
H1014 C999 0.961 1_565 S
H1015 C999 0.960 . S
C1016 C1017 1.391 . S
C1016 C1018 1.394 . S
C1016 H1032 0.931 . S
C1017 C1016 1.391 . S
C1017 C1021 1.376 . S
C1018 C1016 1.394 . S
C1018 C1019 1.369 . S
C1018 C1022 1.531 . S
C1019 C1018 1.369 . S
C1019 C1020 1.410 . S
C1019 C1027 1.503 . S
C1020 C1019 1.410 . S
C1020 C1021 1.392 . S
C1020 C1023 1.511 . S
C1021 C1017 1.376 . S
C1021 C1020 1.392 . S
C1021 H1033 0.929 . S
C1022 C1018 1.531 . S
C1022 H1034 0.960 . S
C1022 H1035 0.962 . S
C1022 H1036 0.960 . S
C1023 C1020 1.511 . S
C1023 H1037 0.961 . S
C1023 H1038 0.961 . S
C1023 H1039 0.961 . S
C1024 C1025 1.370 . S
C1024 C1026 1.363 . S
C1024 H1040 0.931 . S
C1025 C1024 1.370 . S
C1025 C1029 1.408 . S
C1026 C1024 1.363 . S
C1026 C1027 1.370 . S
C1026 C1030 1.524 . S
C1027 C1019 1.503 . S
C1027 C1026 1.370 . S
C1027 C1028 1.403 . S
C1028 C1027 1.403 . S
C1028 C1029 1.404 . S
C1028 C1031 1.539 . S
C1029 C1025 1.408 . S
C1029 C1028 1.404 . S
C1029 H1041 0.930 . S
C1030 C1026 1.524 . S
C1030 H1042 0.956 . S
C1030 H1043 0.961 1_556 S
C1030 H1044 0.961 1_556 S
C1031 C1028 1.539 . S
C1031 H1045 0.958 . S
C1031 H1046 0.961 . S
C1031 H1047 0.960 . S
H1032 C1016 0.931 . S
H1033 C1021 0.929 . S
H1034 C1022 0.960 . S
H1035 C1022 0.962 . S
H1036 C1022 0.960 . S
H1037 C1023 0.961 . S
H1038 C1023 0.961 . S
H1039 C1023 0.961 . S
H1040 C1024 0.931 . S
H1041 C1029 0.930 . S
H1042 C1030 0.956 . S
H1043 C1030 0.961 1_554 S
H1044 C1030 0.961 1_554 S
H1045 C1031 0.958 . S
H1046 C1031 0.961 . S
H1047 C1031 0.960 . S
C1048 C1049 1.391 1_554 S
C1048 C1050 1.394 1_554 S
C1048 H1064 0.931 . S
C1049 C1048 1.391 1_556 S
C1049 C1053 1.376 . S
C1050 C1048 1.394 1_556 S
C1050 C1051 1.369 . S
C1050 C1054 1.531 1_556 S
C1051 C1050 1.369 . S
C1051 C1052 1.410 . S
C1051 C1059 1.503 . S
C1052 C1051 1.410 . S
C1052 C1053 1.392 . S
C1052 C1055 1.511 . S
C1053 C1049 1.376 . S
C1053 C1052 1.392 . S
C1053 H1065 0.929 . S
C1054 C1050 1.531 1_554 S
C1054 H1066 0.960 . S
C1054 H1067 0.962 . S
C1054 H1068 0.960 . S
C1055 C1052 1.511 . S
C1055 H1069 0.961 . S
C1055 H1070 0.961 . S
C1055 H1071 0.961 . S
C1056 C1057 1.370 . S
C1056 C1058 1.363 . S
C1056 H1072 0.931 . S
C1057 C1056 1.370 . S
C1057 C1061 1.408 . S
C1058 C1056 1.363 . S
C1058 C1059 1.370 . S
C1058 C1062 1.524 . S
C1059 C1051 1.503 . S
C1059 C1058 1.370 . S
C1059 C1060 1.403 . S
C1060 C1059 1.403 . S
C1060 C1061 1.404 . S
C1060 C1063 1.539 . S
C1061 C1057 1.408 . S
C1061 C1060 1.404 . S
C1061 H1073 0.930 . S
C1062 C1058 1.524 . S
C1062 H1074 0.956 . S
C1062 H1075 0.961 . S
C1062 H1076 0.961 . S
C1063 C1060 1.539 . S
C1063 H1077 0.958 . S
C1063 H1078 0.961 . S
C1063 H1079 0.960 . S
H1064 C1048 0.931 . S
H1065 C1053 0.929 . S
H1066 C1054 0.960 . S
H1067 C1054 0.962 . S
H1068 C1054 0.960 . S
H1069 C1055 0.961 . S
H1070 C1055 0.961 . S
H1071 C1055 0.961 . S
H1072 C1056 0.931 . S
H1073 C1061 0.930 . S
H1074 C1062 0.956 . S
H1075 C1062 0.961 . S
H1076 C1062 0.961 . S
H1077 C1063 0.958 . S
H1078 C1063 0.961 . S
H1079 C1063 0.960 . S
C1080 C1081 1.391 1_455 S
C1080 C1082 1.394 . S
C1080 H1096 0.931 . S
C1081 C1080 1.391 1_655 S
C1081 C1085 1.376 . S
C1082 C1080 1.394 . S
C1082 C1083 1.369 1_455 S
C1082 C1086 1.531 . S
C1083 C1082 1.369 1_655 S
C1083 C1084 1.410 . S
C1083 C1091 1.503 . S
C1084 C1083 1.410 . S
C1084 C1085 1.392 . S
C1084 C1087 1.511 . S
C1085 C1081 1.376 . S
C1085 C1084 1.392 . S
C1085 H1097 0.929 . S
C1086 C1082 1.531 . S
C1086 H1098 0.960 . S
C1086 H1099 0.962 . S
C1086 H1100 0.960 . S
C1087 C1084 1.511 . S
C1087 H1101 0.961 . S
C1087 H1102 0.961 . S
C1087 H1103 0.961 . S
C1088 C1089 1.370 . S
C1088 C1090 1.363 . S
C1088 H1104 0.931 . S
C1089 C1088 1.370 . S
C1089 C1093 1.408 1_655 S
C1090 C1088 1.363 . S
C1090 C1091 1.370 . S
C1090 C1094 1.524 . S
C1091 C1083 1.503 . S
C1091 C1090 1.370 . S
C1091 C1092 1.403 1_655 S
C1092 C1091 1.403 1_455 S
C1092 C1093 1.404 . S
C1092 C1095 1.539 . S
C1093 C1089 1.408 1_455 S
C1093 C1092 1.404 . S
C1093 H1105 0.930 . S
C1094 C1090 1.524 . S
C1094 H1106 0.956 . S
C1094 H1107 0.961 . S
C1094 H1108 0.961 . S
C1095 C1092 1.539 . S
C1095 H1109 0.958 . S
C1095 H1110 0.961 . S
C1095 H1111 0.960 . S
H1096 C1080 0.931 . S
H1097 C1085 0.929 . S
H1098 C1086 0.960 . S
H1099 C1086 0.962 . S
H1100 C1086 0.960 . S
H1101 C1087 0.961 . S
H1102 C1087 0.961 . S
H1103 C1087 0.961 . S
H1104 C1088 0.931 . S
H1105 C1093 0.930 . S
H1106 C1094 0.956 . S
H1107 C1094 0.961 . S
H1108 C1094 0.961 . S
H1109 C1095 0.958 . S
H1110 C1095 0.961 . S
H1111 C1095 0.960 . S
C1112 C1113 1.391 1_545 S
C1112 C1114 1.394 . S
C1112 H1128 0.931 . S
C1113 C1112 1.391 1_565 S
C1113 C1117 1.376 . S
C1114 C1112 1.394 . S
C1114 C1115 1.369 1_545 S
C1114 C1118 1.531 . S
C1115 C1114 1.369 1_565 S
C1115 C1116 1.410 . S
C1115 C1123 1.503 . S
C1116 C1115 1.410 . S
C1116 C1117 1.392 . S
C1116 C1119 1.511 . S
C1117 C1113 1.376 . S
C1117 C1116 1.392 . S
C1117 H1129 0.929 . S
C1118 C1114 1.531 . S
C1118 H1130 0.960 . S
C1118 H1131 0.962 . S
C1118 H1132 0.960 . S
C1119 C1116 1.511 . S
C1119 H1133 0.961 . S
C1119 H1134 0.961 . S
C1119 H1135 0.961 . S
C1120 C1121 1.370 1_545 S
C1120 C1122 1.363 . S
C1120 H1136 0.931 . S
C1121 C1120 1.370 1_565 S
C1121 C1125 1.408 . S
C1122 C1120 1.363 . S
C1122 C1123 1.370 1_545 S
C1122 C1126 1.524 . S
C1123 C1115 1.503 . S
C1123 C1122 1.370 1_565 S
C1123 C1124 1.403 . S
C1124 C1123 1.403 . S
C1124 C1125 1.404 . S
C1124 C1127 1.539 . S
C1125 C1121 1.408 . S
C1125 C1124 1.404 . S
C1125 H1137 0.930 . S
C1126 C1122 1.524 . S
C1126 H1138 0.956 . S
C1126 H1139 0.955 1_545 S
C1126 H1140 0.961 . S
C1127 C1124 1.539 . S
C1127 H1141 0.958 . S
C1127 H1142 0.961 . S
C1127 H1143 0.960 . S
H1128 C1112 0.931 . S
H1129 C1117 0.929 . S
H1130 C1118 0.960 . S
H1131 C1118 0.962 . S
H1132 C1118 0.960 . S
H1133 C1119 0.961 . S
H1134 C1119 0.961 . S
H1135 C1119 0.961 . S
H1136 C1120 0.931 . S
H1137 C1125 0.930 . S
H1138 C1126 0.956 . S
H1139 C1126 0.955 1_565 S
H1140 C1126 0.961 . S
H1141 C1127 0.958 . S
H1142 C1127 0.961 . S
H1143 C1127 0.960 . S
C1144 C1145 1.391 . S
C1144 C1146 1.394 . S
C1144 H1160 0.931 . S
C1145 C1144 1.391 . S
C1145 C1149 1.376 . S
C1146 C1144 1.394 . S
C1146 C1147 1.369 . S
C1146 C1150 1.531 . S
C1147 C1146 1.369 . S
C1147 C1148 1.410 . S
C1147 C1155 1.503 . S
C1148 C1147 1.410 . S
C1148 C1149 1.392 . S
C1148 C1151 1.511 . S
C1149 C1145 1.376 . S
C1149 C1148 1.392 . S
C1149 H1161 0.929 . S
C1150 C1146 1.531 . S
C1150 H1162 0.960 . S
C1150 H1163 0.962 . S
C1150 H1164 0.960 . S
C1151 C1148 1.511 . S
C1151 H1165 0.961 . S
C1151 H1166 0.961 . S
C1151 H1167 0.961 . S
C1152 C1153 1.370 . S
C1152 C1154 1.363 . S
C1152 H1168 0.931 . S
C1153 C1152 1.370 . S
C1153 C1157 1.408 . S
C1154 C1152 1.363 . S
C1154 C1155 1.370 . S
C1154 C1158 1.524 . S
C1155 C1147 1.503 . S
C1155 C1154 1.370 . S
C1155 C1156 1.403 . S
C1156 C1155 1.403 . S
C1156 C1157 1.404 . S
C1156 C1159 1.539 . S
C1157 C1153 1.408 . S
C1157 C1156 1.404 . S
C1157 H1169 0.930 . S
C1158 C1154 1.524 . S
C1158 H1170 0.956 . S
C1158 H1171 0.961 . S
C1158 H1172 0.961 . S
C1159 C1156 1.539 . S
C1159 H1173 0.958 . S
C1159 H1174 0.961 . S
C1159 H1175 0.960 . S
H1160 C1144 0.931 . S
H1161 C1149 0.929 . S
H1162 C1150 0.960 . S
H1163 C1150 0.962 . S
H1164 C1150 0.960 . S
H1165 C1151 0.961 . S
H1166 C1151 0.961 . S
H1167 C1151 0.961 . S
H1168 C1152 0.931 . S
H1169 C1157 0.930 . S
H1170 C1158 0.956 . S
H1171 C1158 0.961 . S
H1172 C1158 0.961 . S
H1173 C1159 0.958 . S
H1174 C1159 0.961 . S
H1175 C1159 0.960 . S
C1176 C1177 1.391 . S
C1176 C1178 1.394 . S
C1176 H1192 0.931 . S
C1177 C1176 1.391 . S
C1177 C1181 1.376 . S
C1178 C1176 1.394 . S
C1178 C1179 1.369 . S
C1178 C1182 1.531 . S
C1179 C1178 1.369 . S
C1179 C1180 1.410 . S
C1179 C1187 1.503 . S
C1180 C1179 1.410 . S
C1180 C1181 1.392 . S
C1180 C1183 1.511 . S
C1181 C1177 1.376 . S
C1181 C1180 1.392 . S
C1181 H1193 0.929 . S
C1182 C1178 1.531 . S
C1182 H1194 0.960 . S
C1182 H1195 0.962 . S
C1182 H1196 0.960 . S
C1183 C1180 1.511 . S
C1183 H1197 0.961 . S
C1183 H1198 0.961 . S
C1183 H1199 0.961 . S
C1184 C1185 1.370 . S
C1184 C1186 1.363 . S
C1184 H1200 0.931 . S
C1185 C1184 1.370 . S
C1185 C1189 1.408 . S
C1186 C1184 1.363 . S
C1186 C1187 1.370 . S
C1186 C1190 1.524 . S
C1187 C1179 1.503 . S
C1187 C1186 1.370 . S
C1187 C1188 1.403 . S
C1188 C1187 1.403 . S
C1188 C1189 1.404 . S
C1188 C1191 1.539 . S
C1189 C1185 1.408 . S
C1189 C1188 1.404 . S
C1189 H1201 0.930 . S
C1190 C1186 1.524 . S
C1190 H1202 0.956 . S
C1190 H1203 0.961 . S
C1190 H1204 0.961 . S
C1191 C1188 1.539 . S
C1191 H1205 0.958 . S
C1191 H1206 0.961 . S
C1191 H1207 0.960 . S
H1192 C1176 0.931 . S
H1193 C1181 0.929 . S
H1194 C1182 0.960 . S
H1195 C1182 0.962 . S
H1196 C1182 0.960 . S
H1197 C1183 0.961 . S
H1198 C1183 0.961 . S
H1199 C1183 0.961 . S
H1200 C1184 0.931 . S
H1201 C1189 0.930 . S
H1202 C1190 0.956 . S
H1203 C1190 0.961 . S
H1204 C1190 0.961 . S
H1205 C1191 0.958 . S
H1206 C1191 0.961 . S
H1207 C1191 0.960 . S
C441 N80 1.941 . S
C449 C167 2.002 . S
C481 C244 2.022 . S
C473 N93 1.913 . S
C513 C335 2.010 . S
C505 N54 1.928 . S
C545 C419 1.991 . S
C537 N67 1.940 . S
C577 C178 2.007 . S
C569 N28 1.966 . S
C601 N41 1.962 . S
C609 C255 2.018 . S
C633 N2 1.937 . S
C641 C346 1.997 . S
C665 N15 1.948 . S
C673 C430 2.000 1_655 S
C705 C162 0.622 1_455 S
C697 N70 0.576 . S
C737 C257 0.601 . S
C729 N83 0.534 . S
C769 C330 0.580 . S
C761 N96 0.521 . S
C793 N57 0.482 . S
C801 C414 0.550 . S
C825 N18 0.534 . S
C833 C173 0.599 . S
C865 C246 0.594 . S
C857 N31 0.523 . S
C897 C341 0.595 . S
C889 N44 0.553 . S
C921 N5 0.553 . S
C929 C425 0.612 . S
C953 N66 1.989 . S
C961 C171 2.094 . S
C985 N79 1.992 . S
C993 C262 2.096 . S
C1025 C339 2.100 . S
C1017 N92 2.047 . S
C1057 C423 2.111 . S
C1049 N53 2.016 . S
C1081 N14 2.005 . S
C1089 C160 2.094 . S
C1121 C251 2.100 1_565 S
C1113 N27 2.003 . S
C1153 C328 2.107 . S
C1145 N40 2.006 . S
C1177 N1 2.056 . S
C1185 C412 2.106 . S
