# Generated by pormake.
# Topology ptr, (4,4)-cn, num edge types: 1
# Building blocks:
#     Node 0, Type 0, BuildingBlock: QUQFOY_clean_sbu_1, # of connection points: 4
#     Node 1, Type 0, BuildingBlock: QUQFOY_clean_sbu_1, # of connection points: 4
#     Node 2, Type 0, BuildingBlock: QUQFOY_clean_sbu_1, # of connection points: 4
#     Node 3, Type 0, BuildingBlock: QUQFOY_clean_sbu_1, # of connection points: 4
#     Node 4, Type 0, BuildingBlock: QUQFOY_clean_sbu_1, # of connection points: 4
#     Node 5, Type 0, BuildingBlock: QUQFOY_clean_sbu_1, # of connection points: 4
#     Node 6, Type 0, BuildingBlock: QUQFOY_clean_sbu_1, # of connection points: 4
#     Node 7, Type 0, BuildingBlock: QUQFOY_clean_sbu_1, # of connection points: 4
#     Node 8, Type 0, BuildingBlock: QUQFOY_clean_sbu_1, # of connection points: 4
#     Node 9, Type 0, BuildingBlock: QUQFOY_clean_sbu_1, # of connection points: 4
#     Node 10, Type 0, BuildingBlock: QUQFOY_clean_sbu_1, # of connection points: 4
#     Node 11, Type 0, BuildingBlock: QUQFOY_clean_sbu_1, # of connection points: 4
#     Node 12, Type 0, BuildingBlock: QUQFOY_clean_sbu_1, # of connection points: 4
#     Node 13, Type 0, BuildingBlock: QUQFOY_clean_sbu_1, # of connection points: 4
#     Node 14, Type 0, BuildingBlock: QUQFOY_clean_sbu_1, # of connection points: 4
#     Node 15, Type 0, BuildingBlock: QUQFOY_clean_sbu_1, # of connection points: 4
#     Node 16, Type 0, BuildingBlock: QUQFOY_clean_sbu_1, # of connection points: 4
#     Node 17, Type 0, BuildingBlock: QUQFOY_clean_sbu_1, # of connection points: 4
#     Node 18, Type 1, BuildingBlock: AZAVOO_clean_linker_0, # of connection points: 4
#     Node 19, Type 1, BuildingBlock: AZAVOO_clean_linker_0, # of connection points: 4
#     Node 20, Type 1, BuildingBlock: AZAVOO_clean_linker_0, # of connection points: 4
#     Node 21, Type 1, BuildingBlock: AZAVOO_clean_linker_0, # of connection points: 4
#     Node 22, Type 1, BuildingBlock: AZAVOO_clean_linker_0, # of connection points: 4
#     Node 23, Type 1, BuildingBlock: AZAVOO_clean_linker_0, # of connection points: 4
#     Node 24, Type 1, BuildingBlock: AZAVOO_clean_linker_0, # of connection points: 4
#     Node 25, Type 1, BuildingBlock: AZAVOO_clean_linker_0, # of connection points: 4
#     Node 26, Type 1, BuildingBlock: AZAVOO_clean_linker_0, # of connection points: 4
#     Node 27, Type 1, BuildingBlock: AZAVOO_clean_linker_0, # of connection points: 4
#     Node 28, Type 1, BuildingBlock: AZAVOO_clean_linker_0, # of connection points: 4
#     Node 29, Type 1, BuildingBlock: AZAVOO_clean_linker_0, # of connection points: 4
#     Node 30, Type 1, BuildingBlock: AZAVOO_clean_linker_0, # of connection points: 4
#     Node 31, Type 1, BuildingBlock: AZAVOO_clean_linker_0, # of connection points: 4
#     Node 32, Type 1, BuildingBlock: AZAVOO_clean_linker_0, # of connection points: 4
#     Node 33, Type 1, BuildingBlock: AZAVOO_clean_linker_0, # of connection points: 4
#     Node 34, Type 1, BuildingBlock: AZAVOO_clean_linker_0, # of connection points: 4
#     Node 35, Type 1, BuildingBlock: AZAVOO_clean_linker_0, # of connection points: 4
#     Edge 36, Type (0, 1), BuildingBlock: AJUNOK_clean_linker_0, # of connection points: 2
#     Edge 37, Type (0, 1), BuildingBlock: AJUNOK_clean_linker_0, # of connection points: 2
#     Edge 38, Type (0, 1), BuildingBlock: AJUNOK_clean_linker_0, # of connection points: 2
#     Edge 39, Type (0, 1), BuildingBlock: AJUNOK_clean_linker_0, # of connection points: 2
#     Edge 40, Type (0, 1), BuildingBlock: AJUNOK_clean_linker_0, # of connection points: 2
#     Edge 41, Type (0, 1), BuildingBlock: AJUNOK_clean_linker_0, # of connection points: 2
#     Edge 42, Type (0, 1), BuildingBlock: AJUNOK_clean_linker_0, # of connection points: 2
#     Edge 43, Type (0, 1), BuildingBlock: AJUNOK_clean_linker_0, # of connection points: 2
#     Edge 44, Type (0, 1), BuildingBlock: AJUNOK_clean_linker_0, # of connection points: 2
#     Edge 45, Type (0, 1), BuildingBlock: AJUNOK_clean_linker_0, # of connection points: 2
#     Edge 46, Type (0, 1), BuildingBlock: AJUNOK_clean_linker_0, # of connection points: 2
#     Edge 47, Type (0, 1), BuildingBlock: AJUNOK_clean_linker_0, # of connection points: 2
#     Edge 48, Type (0, 1), BuildingBlock: AJUNOK_clean_linker_0, # of connection points: 2
#     Edge 49, Type (0, 1), BuildingBlock: AJUNOK_clean_linker_0, # of connection points: 2
#     Edge 50, Type (0, 1), BuildingBlock: AJUNOK_clean_linker_0, # of connection points: 2
#     Edge 51, Type (0, 1), BuildingBlock: AJUNOK_clean_linker_0, # of connection points: 2
#     Edge 52, Type (0, 1), BuildingBlock: AJUNOK_clean_linker_0, # of connection points: 2
#     Edge 53, Type (0, 1), BuildingBlock: AJUNOK_clean_linker_0, # of connection points: 2
#     Edge 54, Type (0, 1), BuildingBlock: AJUNOK_clean_linker_0, # of connection points: 2
#     Edge 55, Type (0, 1), BuildingBlock: AJUNOK_clean_linker_0, # of connection points: 2
#     Edge 56, Type (0, 1), BuildingBlock: AJUNOK_clean_linker_0, # of connection points: 2
#     Edge 57, Type (0, 1), BuildingBlock: AJUNOK_clean_linker_0, # of connection points: 2
#     Edge 58, Type (0, 1), BuildingBlock: AJUNOK_clean_linker_0, # of connection points: 2
#     Edge 59, Type (0, 1), BuildingBlock: AJUNOK_clean_linker_0, # of connection points: 2
#     Edge 60, Type (0, 1), BuildingBlock: AJUNOK_clean_linker_0, # of connection points: 2
#     Edge 61, Type (0, 1), BuildingBlock: AJUNOK_clean_linker_0, # of connection points: 2
#     Edge 62, Type (0, 1), BuildingBlock: AJUNOK_clean_linker_0, # of connection points: 2
#     Edge 63, Type (0, 1), BuildingBlock: AJUNOK_clean_linker_0, # of connection points: 2
#     Edge 64, Type (0, 1), BuildingBlock: AJUNOK_clean_linker_0, # of connection points: 2
#     Edge 65, Type (0, 1), BuildingBlock: AJUNOK_clean_linker_0, # of connection points: 2
#     Edge 66, Type (0, 1), BuildingBlock: AJUNOK_clean_linker_0, # of connection points: 2
#     Edge 67, Type (0, 1), BuildingBlock: AJUNOK_clean_linker_0, # of connection points: 2
#     Edge 68, Type (0, 1), BuildingBlock: AJUNOK_clean_linker_0, # of connection points: 2
#     Edge 69, Type (0, 1), BuildingBlock: AJUNOK_clean_linker_0, # of connection points: 2
#     Edge 70, Type (0, 1), BuildingBlock: AJUNOK_clean_linker_0, # of connection points: 2
#     Edge 71, Type (0, 1), BuildingBlock: AJUNOK_clean_linker_0, # of connection points: 2
#     Edge 72, Type (0, 1), BuildingBlock: AJUNOK_clean_linker_0, # of connection points: 2
#     Edge 73, Type (0, 1), BuildingBlock: AJUNOK_clean_linker_0, # of connection points: 2
#     Edge 74, Type (0, 1), BuildingBlock: AJUNOK_clean_linker_0, # of connection points: 2
#     Edge 75, Type (0, 1), BuildingBlock: AJUNOK_clean_linker_0, # of connection points: 2
#     Edge 76, Type (0, 1), BuildingBlock: AJUNOK_clean_linker_0, # of connection points: 2
#     Edge 77, Type (0, 1), BuildingBlock: AJUNOK_clean_linker_0, # of connection points: 2
#     Edge 78, Type (0, 1), BuildingBlock: AJUNOK_clean_linker_0, # of connection points: 2
#     Edge 79, Type (0, 1), BuildingBlock: AJUNOK_clean_linker_0, # of connection points: 2
#     Edge 80, Type (0, 1), BuildingBlock: AJUNOK_clean_linker_0, # of connection points: 2
#     Edge 81, Type (0, 1), BuildingBlock: AJUNOK_clean_linker_0, # of connection points: 2
#     Edge 82, Type (0, 1), BuildingBlock: AJUNOK_clean_linker_0, # of connection points: 2
#     Edge 83, Type (0, 1), BuildingBlock: AJUNOK_clean_linker_0, # of connection points: 2
#     Edge 84, Type (0, 1), BuildingBlock: AJUNOK_clean_linker_0, # of connection points: 2
#     Edge 85, Type (0, 1), BuildingBlock: AJUNOK_clean_linker_0, # of connection points: 2
#     Edge 86, Type (0, 1), BuildingBlock: AJUNOK_clean_linker_0, # of connection points: 2
#     Edge 87, Type (0, 1), BuildingBlock: AJUNOK_clean_linker_0, # of connection points: 2
#     Edge 88, Type (0, 1), BuildingBlock: AJUNOK_clean_linker_0, # of connection points: 2
#     Edge 89, Type (0, 1), BuildingBlock: AJUNOK_clean_linker_0, # of connection points: 2
#     Edge 90, Type (0, 1), BuildingBlock: AJUNOK_clean_linker_0, # of connection points: 2
#     Edge 91, Type (0, 1), BuildingBlock: AJUNOK_clean_linker_0, # of connection points: 2
#     Edge 92, Type (0, 1), BuildingBlock: AJUNOK_clean_linker_0, # of connection points: 2
#     Edge 93, Type (0, 1), BuildingBlock: AJUNOK_clean_linker_0, # of connection points: 2
#     Edge 94, Type (0, 1), BuildingBlock: AJUNOK_clean_linker_0, # of connection points: 2
#     Edge 95, Type (0, 1), BuildingBlock: AJUNOK_clean_linker_0, # of connection points: 2
#     Edge 96, Type (0, 1), BuildingBlock: AJUNOK_clean_linker_0, # of connection points: 2
#     Edge 97, Type (0, 1), BuildingBlock: AJUNOK_clean_linker_0, # of connection points: 2
#     Edge 98, Type (0, 1), BuildingBlock: AJUNOK_clean_linker_0, # of connection points: 2
#     Edge 99, Type (0, 1), BuildingBlock: AJUNOK_clean_linker_0, # of connection points: 2
#     Edge 100, Type (0, 1), BuildingBlock: AJUNOK_clean_linker_0, # of connection points: 2
#     Edge 101, Type (0, 1), BuildingBlock: AJUNOK_clean_linker_0, # of connection points: 2
#     Edge 102, Type (0, 1), BuildingBlock: AJUNOK_clean_linker_0, # of connection points: 2
#     Edge 103, Type (0, 1), BuildingBlock: AJUNOK_clean_linker_0, # of connection points: 2
#     Edge 104, Type (0, 1), BuildingBlock: AJUNOK_clean_linker_0, # of connection points: 2
#     Edge 105, Type (0, 1), BuildingBlock: AJUNOK_clean_linker_0, # of connection points: 2
#     Edge 106, Type (0, 1), BuildingBlock: AJUNOK_clean_linker_0, # of connection points: 2
#     Edge 107, Type (0, 1), BuildingBlock: AJUNOK_clean_linker_0, # of connection points: 2
# Relax obj value: 0.052
# Max RMSD: 0.178
# Mean RMSD: 0.114
data_MOF--net-ptr--node1-QUQFOY_clean_sbu_1--node2-AZAVOO_clean_linker_0--edge1-AJUNOK_clean_linker_0
_symmetry_space_group_name_H-M    P1
_symmetry_Int_Tables_number       1
_symmetry_cell_setting            triclinic
loop_
_symmetry_equiv_pos_as_xyz
'x, y, z'
_cell_length_a     65.904075
_cell_length_b     64.822253
_cell_length_c     54.945618
_cell_angle_alpha  92.853836
_cell_angle_beta   92.090312
_cell_angle_gamma 120.06445
loop_
_atom_site_label
_atom_site_type_symbol
_atom_site_fract_x
_atom_site_fract_y
_atom_site_fract_z
_atom_type_partial_charge
O0 O 0.01969 0.40804 0.06533 0.0
Cd1 Cd 0.03202 0.39522 0.03815 0.0
Cd2 Cd 0.98489 0.36946 0.02505 0.0
O3 O 0.98152 0.38399 0.05813 0.0
O4 O 0.06419 0.40544 0.05247 0.0
O5 O 0.03664 0.36745 0.04519 0.0
C6 C 0.05745 0.3832 0.0543 0.0
C7 C 0.9604 0.32887 0.01262 0.0
C8 C 0.99885 0.40064 0.07124 0.0
C9 C 0.01683 0.4054 0.99067 0.0
O10 O 0.99611 0.39125 0.99656 0.0
O11 O 0.03454 0.40884 1.00418 0.0
O12 O 0.95265 0.34361 0.01333 0.0
O13 O 0.98208 0.33701 0.02009 0.0
O14 O 0.59754 0.60402 0.09433 0.0
Cd15 Cd 0.61543 0.62622 0.06732 0.0
Cd16 Cd 0.6303 0.59554 0.0635 0.0
O17 O 0.61815 0.58596 0.09778 0.0
O18 O 0.61109 0.6543 0.07328 0.0
O19 O 0.64574 0.65684 0.07767 0.0
C20 C 0.63332 0.66714 0.07915 0.0
C21 C 0.66851 0.60946 0.05203 0.0
C22 C 0.60235 0.59002 0.10535 0.0
C23 C 0.59825 0.59313 0.02273 0.0
O24 O 0.60525 0.58123 0.0345 0.0
O25 O 0.60327 0.61387 0.0312 0.0
O26 O 0.65453 0.58708 0.05482 0.0
O27 O 0.66132 0.62425 0.05756 0.0
O28 O 0.42548 0.0179 1.00063 0.0
Cd29 Cd 0.40961 0.02402 0.02987 0.0
Cd30 Cd 0.39067 0.97726 0.02879 0.0
O31 O 0.40197 0.97904 0.99381 0.0
O32 O 0.4164 0.05725 0.02601 0.0
O33 O 0.38037 0.02599 0.02267 0.0
C34 C 0.39421 0.04862 0.02113 0.0
C35 C 0.35185 0.95424 0.03896 0.0
C36 C 0.41867 0.99861 0.9874 0.0
C37 C 0.42396 0.0058 0.07152 0.0
O38 O 0.41529 0.98652 0.05781 0.0
O39 O 0.42144 0.02301 0.0651 0.0
O40 O 0.36458 0.94469 0.03445 0.0
O41 O 0.36076 0.97677 0.03614 0.0
O42 O 0.98426 0.59002 0.02487 0.0
Cd43 Cd 0.97415 0.60668 0.05068 0.0
Cd44 Cd 0.01987 0.63236 0.05942 0.0
O45 O 0.02149 0.61819 0.02553 0.0
O46 O 0.94269 0.60063 0.03811 0.0
O47 O 0.97451 0.63653 0.04145 0.0
C48 C 0.95252 0.62303 0.03435 0.0
C49 C 0.04461 0.67239 0.07295 0.0
C50 C 1.00427 0.59855 0.01616 0.0
C51 C 0.99116 0.59699 0.09576 0.0
O52 O 0.01089 0.60946 0.08691 0.0
O53 O 0.97279 0.59564 0.08573 0.0
O54 O 0.05233 0.65768 0.07114 0.0
O55 O 0.02295 0.66479 0.06591 0.0
O56 O 0.41453 0.40476 0.98735 0.0
Cd57 Cd 0.39661 0.38204 0.01397 0.0
Cd58 Cd 0.38062 0.41167 0.01844 0.0
O59 O 0.39278 0.4216 0.98427 0.0
O60 O 0.40171 0.35449 0.0079 0.0
O61 O 0.36674 0.35113 1.00319 0.0
C62 C 0.37956 0.34127 1.00182 0.0
C63 C 0.34183 0.396 0.02877 0.0
C64 C 0.40889 0.41822 0.97644 0.0
C65 C 0.4119 0.41406 0.05961 0.0
O66 O 0.40503 0.4262 0.04805 0.0
O67 O 0.40775 0.39385 0.05033 0.0
O68 O 0.35501 0.41846 0.02575 0.0
O69 O 0.3503 0.38213 0.02424 0.0
O70 O 0.58926 0.98561 0.08127 0.0
Cd71 Cd 0.6059 0.98081 0.05198 0.0
Cd72 Cd 0.62349 0.02732 0.05312 0.0
O73 O 0.61228 0.02458 0.0883 0.0
O74 O 0.60258 0.94864 0.05467 0.0
O75 O 0.63669 0.98231 0.05991 0.0
C76 C 0.62493 0.95932 0.06016 0.0
C77 C 0.66209 0.05033 0.04226 0.0
C78 C 0.59585 0.00479 0.09467 0.0
C79 C 0.59078 0.99861 0.01041 0.0
O80 O 0.59859 0.01765 0.02433 0.0
O81 O 0.5942 0.98191 0.01671 0.0
O82 O 0.64953 0.05998 0.04723 0.0
O83 O 0.65321 0.02783 0.0451 0.0
O84 O 0.68833 0.74976 0.39738 0.0
Cd85 Cd 0.70513 0.73799 0.37472 0.0
Cd86 Cd 0.65915 0.70711 0.3564 0.0
O87 O 0.65198 0.72018 0.38834 0.0
O88 O 0.73562 0.74823 0.39329 0.0
O89 O 0.70898 0.71023 0.3835 0.0
C90 C 0.72884 0.72592 0.3947 0.0
C91 C 0.63242 0.66754 0.34146 0.0
C92 C 0.66667 0.73909 0.40124 0.0
C93 C 0.69421 0.74558 0.32486 0.0
O94 O 0.67337 0.72952 0.32849 0.0
O95 O 0.71098 0.75134 0.34084 0.0
O96 O 0.62737 0.68428 0.34064 0.0
O97 O 0.65262 0.67301 0.35168 0.0
O98 O 0.26467 0.93269 0.4273 0.0
Cd99 Cd 0.28206 0.95466 0.40006 0.0
Cd100 Cd 0.29931 0.92587 0.39632 0.0
O101 O 0.28674 0.91617 0.4306 0.0
O102 O 0.27782 0.98293 0.40496 0.0
O103 O 0.31237 0.98529 0.41017 0.0
C104 C 0.30006 0.99572 0.41082 0.0
C105 C 0.33821 0.94275 0.38576 0.0
C106 C 0.27055 0.9195 0.4384 0.0
C107 C 0.26736 0.92191 0.35474 0.0
O108 O 0.27541 0.91076 0.36635 0.0
O109 O 0.27033 0.94165 0.36406 0.0
O110 O 0.32585 0.92031 0.3893 0.0
O111 O 0.32898 0.95593 0.39028 0.0
O112 O 0.09379 0.35289 0.33502 0.0
Cd113 Cd 0.07749 0.35771 0.36448 0.0
Cd114 Cd 0.05687 0.31069 0.36169 0.0
O115 O 0.06885 0.31444 0.32668 0.0
O116 O 0.08116 0.39017 0.36271 0.0
O117 O 0.04695 0.35668 0.35671 0.0
C118 C 0.05886 0.37969 0.35697 0.0
C119 C 0.01773 0.28827 0.37159 0.0
C120 C 0.08622 0.33394 0.32096 0.0
C121 C 0.09001 0.33676 0.4052 0.0
O122 O 0.08074 0.31782 0.39088 0.0
O123 O 0.08859 0.35476 0.39932 0.0
O124 O 0.02948 0.27805 0.3653 0.0
O125 O 0.02777 0.31114 0.37048 0.0
O126 O 0.65639 0.92636 0.35611 0.0
Cd127 Cd 0.64318 0.93917 0.38239 0.0
Cd128 Cd 0.69038 0.96508 0.39842 0.0
O129 O 0.69432 0.94987 0.36608 0.0
O130 O 0.61166 0.9315 0.36806 0.0
O131 O 0.64157 0.96847 0.37479 0.0
C132 C 0.62022 0.95407 0.36605 0.0
C133 C 0.71798 0.0045 0.41238 0.0
C134 C 0.67767 0.93353 0.35197 0.0
C135 C 0.65579 0.92897 0.43119 0.0
O136 O 0.67684 0.94364 0.42683 0.0
O137 O 0.63882 0.92492 0.41615 0.0
O138 O 0.72286 0.98761 0.41254 0.0
O139 O 0.69764 0.99938 0.40281 0.0
O140 O 0.0801 0.7374 0.31824 0.0
Cd141 Cd 0.06393 0.71604 0.3464 0.0
Cd142 Cd 0.04806 0.74626 0.35164 0.0
O143 O 0.06086 0.75709 0.31793 0.0
O144 O 0.06806 0.68778 0.34063 0.0
O145 O 0.03341 0.68536 0.33723 0.0
C146 C 0.04571 0.67498 0.33538 0.0
C147 C 0.00904 0.72913 0.36149 0.0
C148 C 0.07545 0.75214 0.30859 0.0
C149 C 0.07992 0.74874 0.39236 0.0
O150 O 0.07184 0.76027 0.38159 0.0
O151 O 0.07677 0.72913 0.38235 0.0
O152 O 0.02162 0.75177 0.35898 0.0
O153 O 0.01822 0.716 0.35651 0.0
O154 O 0.25549 0.31799 0.41468 0.0
Cd155 Cd 0.27058 0.31266 0.38432 0.0
Cd156 Cd 0.2911 0.35945 0.38662 0.0
O157 O 0.28099 0.35639 0.42221 0.0
O158 O 0.26547 0.27966 0.3856 0.0
O159 O 0.30059 0.31212 0.39062 0.0
C160 C 0.28781 0.28914 0.39033 0.0
C161 C 0.32983 0.38193 0.37563 0.0
C162 C 0.26393 0.3371 0.42868 0.0
C163 C 0.2562 0.33304 0.34466 0.0
O164 O 0.26587 0.35211 0.35878 0.0
O165 O 0.25837 0.31532 0.34994 0.0
O166 O 0.31812 0.39204 0.38241 0.0
O167 O 0.31989 0.35902 0.37649 0.0
O168 O 0.36109 0.07902 0.72808 0.0
Cd169 Cd 0.37213 0.06482 0.70054 0.0
Cd170 Cd 0.32538 0.04042 0.68841 0.0
O171 O 0.32274 0.05495 0.72152 0.0
O172 O 0.40418 0.07226 0.7126 0.0
O173 O 0.37364 0.03548 0.70822 0.0
C174 C 0.39551 0.04979 0.71524 0.0
C175 C 0.29919 1.00065 0.67462 0.0
C176 C 0.34028 0.07186 0.73415 0.0
C177 C 0.35702 0.07603 0.65398 0.0
O178 O 0.33651 0.06305 0.66091 0.0
O179 O 0.37473 0.07789 0.66616 0.0
O180 O 0.2929 0.01655 0.67537 0.0
O181 O 0.32025 0.00699 0.68295 0.0
O182 O 0.93458 0.26742 0.76521 0.0
Cd183 Cd 0.94849 0.2896 0.73731 0.0
Cd184 Cd 0.96714 0.2615 0.72921 0.0
O185 O 0.95363 0.24761 0.762 0.0
O186 O 0.94403 0.3171 0.74622 0.0
O187 O 0.97907 0.32054 0.74515 0.0
C188 C 0.96654 0.33032 0.74969 0.0
C189 C 1.00568 0.2751 0.71912 0.0
C190 C 0.93945 0.25214 0.77297 0.0
C191 C 0.93293 0.25965 0.69007 0.0
O192 O 0.94424 0.25018 0.69857 0.0
O193 O 0.93314 0.27701 0.70213 0.0
O194 O 0.9908 0.2526 0.71977 0.0
O195 O 0.9992 0.29011 0.72621 0.0
O196 O 0.75594 0.68222 0.66458 0.0
Cd197 Cd 0.74244 0.68778 0.69616 0.0
Cd198 Cd 0.72269 0.64023 0.69441 0.0
O199 O 0.73398 0.64293 0.65942 0.0
O200 O 0.7464 0.7204 0.69455 0.0
O201 O 0.71179 0.68732 0.69141 0.0
C202 C 0.72388 0.71023 0.6907 0.0
C203 C 0.68375 0.61901 0.70486 0.0
C204 C 0.74923 0.66269 0.65179 0.0
C205 C 0.75784 0.66776 0.73618 0.0
O206 O 0.74716 0.64816 0.72294 0.0
O207 O 0.75644 0.68575 0.73008 0.0
O208 O 0.695 0.60811 0.6991 0.0
O209 O 0.69424 0.6418 0.70305 0.0
O210 O 0.32645 0.25801 0.68411 0.0
Cd211 Cd 0.31406 0.27204 0.71003 0.0
Cd212 Cd 0.36095 0.29915 0.72352 0.0
O213 O 0.36435 0.28331 0.69141 0.0
O214 O 0.28266 0.26339 0.69477 0.0
O215 O 0.31169 0.30088 0.70215 0.0
C216 C 0.29077 0.28587 0.6927 0.0
C217 C 0.38683 0.33977 0.73394 0.0
C218 C 0.3475 0.26572 0.67873 0.0
C219 C 0.32889 0.26471 0.75902 0.0
O220 O 0.34959 0.27893 0.75317 0.0
O221 O 0.31116 0.2598 0.74469 0.0
O222 O 0.39377 0.3244 0.73401 0.0
O223 O 0.3651 0.33224 0.72724 0.0
O224 O 0.74592 0.07212 0.64751 0.0
Cd225 Cd 0.73378 0.04999 0.67569 0.0
Cd226 Cd 0.71187 0.07601 0.68394 0.0
O227 O 0.72661 0.0916 0.65209 0.0
O228 O 0.74014 0.02394 0.66576 0.0
O229 O 0.70421 0.01787 0.66894 0.0
C230 C 0.71774 0.00951 0.66331 0.0
C231 C 0.67264 0.06113 0.6924 0.0
C232 C 0.74074 0.08742 0.64056 0.0
C233 C 0.74595 0.0785 0.72391 0.0
O234 O 0.73309 0.08639 0.71571 0.0
O235 O 0.74863 0.06326 0.71109 0.0
O236 O 0.68707 0.08376 0.69206 0.0
O237 O 0.68004 0.04674 0.68585 0.0
O238 O 0.92023 0.65313 0.74947 0.0
Cd239 Cd 0.93553 0.64622 0.72025 0.0
Cd240 Cd 0.95582 0.69293 0.7206 0.0
O241 O 0.94509 0.69182 0.75595 0.0
O242 O 0.93053 0.61373 0.72483 0.0
O243 O 0.9658 0.64612 0.72654 0.0
C244 C 0.95301 0.62341 0.7285 0.0
C245 C 0.99386 0.71709 0.70861 0.0
C246 C 0.92786 0.67268 0.7625 0.0
C247 C 0.921 0.66386 0.67862 0.0
O248 O 0.93075 0.68345 0.69193 0.0
O249 O 0.92274 0.64629 0.68531 0.0
O250 O 0.98067 0.72585 0.71408 0.0
O251 O 0.98623 0.69487 0.71205 0.0
H252 H 0.1814 0.38982 1.00396 0.0
H253 H 0.30839 0.31906 0.18729 0.0
H254 H 0.17517 0.38934 0.13571 0.0
H255 H 0.14687 0.39669 0.11392 0.0
H256 H 0.09339 0.32262 0.11731 0.0
H257 H 0.12256 0.31512 0.13785 0.0
H258 H 0.21127 0.38937 0.10539 0.0
H259 H 0.20442 0.39634 0.06332 0.0
H260 H 0.14526 0.32419 0.05261 0.0
H261 H 0.15256 0.31734 0.0946 0.0
H262 H 0.24903 0.38743 0.13756 0.0
H263 H 0.27972 0.39784 0.10897 0.0
H264 H 0.23619 0.33029 0.06705 0.0
H265 H 0.20544 0.31981 0.09605 0.0
H266 H 0.24766 0.37615 0.18929 0.0
H267 H 0.28268 0.37447 0.20224 0.0
H268 H 0.25418 0.30589 0.16118 0.0
H269 H 0.2191 0.30769 0.14861 0.0
H270 H 0.20991 0.37408 0.21541 0.0
H271 H 0.22295 0.37115 0.2566 0.0
H272 H 0.19893 0.29635 0.23877 0.0
H273 H 0.18718 0.29995 0.19704 0.0
H274 H 0.16603 0.37709 0.19038 0.0
H275 H 0.14334 0.37492 0.22553 0.0
H276 H 0.12086 0.30005 0.22796 0.0
H277 H 0.14302 0.30218 0.19235 0.0
O278 O 0.18395 0.38659 0.02046 0.0
O279 O 0.15356 0.34943 0.01599 0.0
O280 O 0.30826 0.35515 0.20377 0.0
O281 O 0.29465 0.32008 0.18257 0.0
C282 C 0.16993 0.34673 0.14591 0.0
C283 C 0.18626 0.34872 0.12872 0.0
C284 C 0.20629 0.34736 0.13607 0.0
C285 C 0.20953 0.34301 0.16041 0.0
C286 C 0.19288 0.34018 0.17743 0.0
C287 C 0.17298 0.34199 0.17025 0.0
C288 C 0.15099 0.35168 0.13827 0.0
C289 C 0.15724 0.37476 0.1321 0.0
C290 C 0.14099 0.37891 0.11959 0.0
C291 C 0.11789 0.36015 0.11333 0.0
C292 C 0.11121 0.33732 0.12108 0.0
C293 C 0.12769 0.33308 0.13329 0.0
C294 C 0.18254 0.35278 0.10295 0.0
C295 C 0.19702 0.37501 0.09383 0.0
C296 C 0.19298 0.37898 0.06983 0.0
C297 C 0.17429 0.36082 0.05459 0.0
C298 C 0.15983 0.33855 0.06384 0.0
C299 C 0.16395 0.33458 0.0878 0.0
C300 C 0.22503 0.35286 0.11892 0.0
C301 C 0.24614 0.37481 0.12229 0.0
C302 C 0.26353 0.38082 0.10582 0.0
C303 C 0.26016 0.36503 0.08557 0.0
C304 C 0.23917 0.34281 0.08244 0.0
C305 C 0.22165 0.33683 0.09893 0.0
C306 C 0.23078 0.34194 0.16821 0.0
C307 C 0.24894 0.3607 0.18328 0.0
C308 C 0.26896 0.35973 0.19057 0.0
C309 C 0.27122 0.34001 0.18277 0.0
C310 C 0.253 0.32131 0.16754 0.0
C311 C 0.23295 0.32228 0.16032 0.0
C312 C 0.19752 0.33721 0.20332 0.0
C313 C 0.2071 0.35698 0.22057 0.0
C314 C 0.21437 0.35518 0.24419 0.0
C315 C 0.21172 0.3334 0.25118 0.0
C316 C 0.20134 0.31341 0.23398 0.0
C317 C 0.19445 0.31535 0.21022 0.0
C318 C 0.15618 0.3398 0.18875 0.0
C319 C 0.15573 0.36008 0.1981 0.0
C320 C 0.14302 0.35888 0.21838 0.0
C321 C 0.13069 0.33741 0.22982 0.0
C322 C 0.13018 0.31683 0.21958 0.0
C323 C 0.14283 0.31803 0.19926 0.0
C324 C 0.1699 0.36517 0.02918 0.0
C325 C 0.29251 0.33896 0.19039 0.0
H326 H 0.62693 0.77943 0.01988 0.0
H327 H 0.7089 0.99772 0.20698 0.0
H328 H 0.64416 0.78829 0.16176 0.0
H329 H 0.63377 0.74939 0.14174 0.0
H330 H 0.70417 0.77907 0.11822 0.0
H331 H 0.71465 0.8181 0.13886 0.0
H332 H 0.63727 0.81404 0.12248 0.0
H333 H 0.62586 0.79622 0.08035 0.0
H334 H 0.69887 0.83433 0.06381 0.0
H335 H 0.71 0.85187 0.10609 0.0
H336 H 0.64051 0.86294 0.14722 0.0
H337 H 0.62845 0.88547 0.12198 0.0
H338 H 0.6957 0.91789 0.09036 0.0
H339 H 0.70788 0.89555 0.11632 0.0
H340 H 0.65545 0.87859 0.20098 0.0
H341 H 0.65642 0.9156 0.21465 0.0
H342 H 0.72215 0.95644 0.18128 0.0
H343 H 0.72114 0.91928 0.16807 0.0
H344 H 0.65903 0.83913 0.22617 0.0
H345 H 0.65857 0.85565 0.2668 0.0
H346 H 0.72689 0.91698 0.25873 0.0
H347 H 0.72792 0.8994 0.21858 0.0
H348 H 0.65508 0.80101 0.20645 0.0
H349 H 0.65912 0.77853 0.23874 0.0
H350 H 0.73471 0.81953 0.23686 0.0
H351 H 0.73041 0.84274 0.20514 0.0
O352 O 0.63179 0.78696 0.03633 0.0
O353 O 0.66948 0.80755 0.02852 0.0
O354 O 0.67443 0.961 0.21894 0.0
O355 O 0.70809 0.98281 0.20184 0.0
C356 C 0.68476 0.83007 0.16028 0.0
C357 C 0.68131 0.84375 0.14308 0.0
C358 C 0.68261 0.86545 0.1508 0.0
C359 C 0.68788 0.87383 0.17572 0.0
C360 C 0.69134 0.86022 0.19306 0.0
C361 C 0.68978 0.83828 0.18529 0.0
C362 C 0.68024 0.80589 0.15207 0.0
C363 C 0.65756 0.78624 0.15296 0.0
C364 C 0.65157 0.76416 0.14121 0.0
C365 C 0.66807 0.7614 0.12809 0.0
C366 C 0.69114 0.78079 0.12819 0.0
C367 C 0.69716 0.80297 0.14002 0.0
C368 C 0.67442 0.83424 0.11719 0.0
C369 C 0.65072 0.81862 0.10964 0.0
C370 C 0.64428 0.80843 0.08561 0.0
C371 C 0.66146 0.81382 0.06871 0.0
C372 C 0.6852 0.8298 0.07635 0.0
C373 C 0.69161 0.8399 0.10043 0.0
C374 C 0.67506 0.8777 0.13362 0.0
C375 C 0.65257 0.87477 0.1347 0.0
C376 C 0.6457 0.88759 0.12022 0.0
C377 C 0.66119 0.90359 0.10431 0.0
C378 C 0.68354 0.90599 0.10274 0.0
C379 C 0.69044 0.89312 0.11734 0.0
C380 C 0.68835 0.89631 0.18377 0.0
C381 C 0.67011 0.89556 0.19679 0.0
C382 C 0.67068 0.91672 0.2045 0.0
C383 C 0.68941 0.939 0.1991 0.0
C384 C 0.70751 0.93961 0.1858 0.0
C385 C 0.70697 0.91843 0.1782 0.0
C386 C 0.69367 0.86781 0.2195 0.0
C387 C 0.67445 0.85549 0.23363 0.0
C388 C 0.67403 0.8652 0.2567 0.0
C389 C 0.69262 0.88771 0.26594 0.0
C390 C 0.71247 0.89945 0.25234 0.0
C391 C 0.71305 0.88946 0.22936 0.0
C392 C 0.69244 0.82352 0.20352 0.0
C393 C 0.6725 0.80503 0.2129 0.0
C394 C 0.67487 0.79216 0.23131 0.0
C395 C 0.69726 0.79736 0.24058 0.0
C396 C 0.71724 0.81545 0.23056 0.0
C397 C 0.71483 0.82856 0.21229 0.0
C398 C 0.65458 0.80267 0.0433 0.0
C399 C 0.6901 0.96153 0.20726 0.0
H400 H 0.15326 0.82985 0.99604 0.0
H401 H 0.3427 0.95588 0.20965 0.0
H402 H 0.13297 0.82508 0.1225 0.0
H403 H 0.09911 0.78679 0.10584 0.0
H404 H 0.1316 0.74945 0.13677 0.0
H405 H 0.16472 0.78743 0.15385 0.0
H406 H 0.17971 0.87005 0.09753 0.0
H407 H 0.16834 0.85923 0.05385 0.0
H408 H 0.17146 0.79463 0.06033 0.0
H409 H 0.18311 0.80582 0.1039 0.0
H410 H 0.23279 0.9124 0.12899 0.0
H411 H 0.26534 0.93358 0.10313 0.0
H412 H 0.26087 0.86667 0.07974 0.0
H413 H 0.23004 0.84613 0.10748 0.0
H414 H 0.22841 0.91531 0.18522 0.0
H415 H 0.26712 0.9473 0.20197 0.0
H416 H 0.29763 0.90482 0.17828 0.0
H417 H 0.25882 0.87292 0.16178 0.0
H418 H 0.18367 0.87879 0.213 0.0
H419 H 0.19728 0.89294 0.256 0.0
H420 H 0.24775 0.86921 0.25073 0.0
H421 H 0.23353 0.85443 0.20817 0.0
H422 H 0.13523 0.83285 0.17925 0.0
H423 H 0.10812 0.8108 0.21009 0.0
H424 H 0.15805 0.79214 0.23936 0.0
H425 H 0.18438 0.81303 0.20768 0.0
O426 O 0.15787 0.83383 0.01333 0.0
O427 O 0.15963 0.80082 0.01766 0.0
O428 O 0.31148 0.96633 0.2116 0.0
O429 O 0.3274 0.94399 0.20227 0.0
C430 C 0.17281 0.83189 0.1478 0.0
C431 C 0.18875 0.84531 0.13044 0.0
C432 C 0.2111 0.86508 0.1383 0.0
C433 C 0.21711 0.8718 0.16359 0.0
C434 C 0.20089 0.85885 0.18091 0.0
C435 C 0.17873 0.83884 0.17306 0.0
C436 C 0.15115 0.80898 0.1396 0.0
C437 C 0.13246 0.80854 0.12603 0.0
C438 C 0.11326 0.78673 0.11643 0.0
C439 C 0.11249 0.76506 0.1203 0.0
C440 C 0.13124 0.7657 0.13409 0.0
C441 C 0.15025 0.7874 0.14379 0.0
C442 C 0.18204 0.83864 0.1039 0.0
C443 C 0.17796 0.85359 0.08945 0.0
C444 C 0.17144 0.84735 0.06452 0.0
C445 C 0.16891 0.82602 0.0536 0.0
C446 C 0.17317 0.81114 0.06816 0.0
C447 C 0.17974 0.81744 0.09307 0.0
C448 C 0.22891 0.87764 0.12022 0.0
C449 C 0.23881 0.90232 0.11822 0.0
C450 C 0.25721 0.91436 0.10307 0.0
C451 C 0.26566 0.90185 0.08901 0.0
C452 C 0.25501 0.87696 0.09039 0.0
C453 C 0.23711 0.86509 0.10602 0.0
C454 C 0.24085 0.89185 0.17224 0.0
C455 C 0.24352 0.91303 0.18354 0.0
C456 C 0.26563 0.93126 0.19309 0.0
C457 C 0.28547 0.92858 0.19152 0.0
C458 C 0.28273 0.90744 0.17984 0.0
C459 C 0.26062 0.88924 0.17029 0.0
C460 C 0.20777 0.86581 0.20742 0.0
C461 C 0.19748 0.87645 0.22126 0.0
C462 C 0.20542 0.8847 0.24569 0.0
C463 C 0.22385 0.88252 0.25658 0.0
C464 C 0.23353 0.87112 0.24285 0.0
C465 C 0.22553 0.8628 0.21853 0.0
C466 C 0.16194 0.82483 0.19136 0.0
C467 C 0.14021 0.82384 0.19222 0.0
C468 C 0.12487 0.81147 0.21004 0.0
C469 C 0.13109 0.80007 0.2275 0.0
C470 C 0.15268 0.8007 0.2262 0.0
C471 C 0.16786 0.81281 0.20824 0.0
C472 C 0.16187 0.81939 0.02714 0.0
C473 C 0.30886 0.94752 0.20235 0.0
H474 H 0.32553 0.1889 0.07595 0.0
H475 H 0.37099 0.04801 0.87476 0.0
H476 H 0.30163 0.18843 0.9486 0.0
H477 H 0.31107 0.22765 0.96784 0.0
H478 H 0.37822 0.26019 0.93622 0.0
H479 H 0.36901 0.2212 0.9176 0.0
H480 H 0.30247 0.14328 0.97644 0.0
H481 H 0.30582 0.15671 0.01959 0.0
H482 H 0.3744 0.21734 0.01027 0.0
H483 H 0.37101 0.20348 0.96732 0.0
H484 H 0.30877 0.09726 0.94746 0.0
H485 H 0.32296 0.07508 0.97058 0.0
H486 H 0.3885 0.14066 0.98982 0.0
H487 H 0.37517 0.16213 0.9647 0.0
H488 H 0.2989 0.09038 0.8956 0.0
H489 H 0.30458 0.05708 0.88242 0.0
H490 H 0.37978 0.10333 0.89562 0.0
H491 H 0.37382 0.1365 0.9085 0.0
H492 H 0.29199 0.11587 0.86304 0.0
H493 H 0.2932 0.09716 0.82375 0.0
H494 H 0.36769 0.14768 0.82419 0.0
H495 H 0.36656 0.16481 0.86434 0.0
H496 H 0.29074 0.17257 0.88267 0.0
H497 H 0.28861 0.19673 0.85053 0.0
H498 H 0.36236 0.22476 0.84069 0.0
H499 H 0.36445 0.2013 0.87307 0.0
O500 O 0.32465 0.18381 0.05889 0.0
O501 O 0.35974 0.21477 0.05307 0.0
O502 O 0.32945 0.03783 0.87332 0.0
O503 O 0.36823 0.06084 0.87991 0.0
C504 C 0.33151 0.17814 0.92425 0.0
C505 C 0.33392 0.16452 0.9424 0.0
C506 C 0.33477 0.14366 0.93552 0.0
C507 C 0.33257 0.13613 0.91048 0.0
C508 C 0.32951 0.14931 0.89242 0.0
C509 C 0.32917 0.17042 0.89924 0.0
C510 C 0.33458 0.20198 0.93157 0.0
C511 C 0.3181 0.20415 0.94535 0.0
C512 C 0.32351 0.22646 0.95634 0.0
C513 C 0.3455 0.24675 0.95377 0.0
C514 C 0.36128 0.24472 0.93872 0.0
C515 C 0.3559 0.22253 0.9278 0.0
C516 C 0.33637 0.17253 0.9687 0.0
C517 C 0.31823 0.15941 0.98379 0.0
C518 C 0.32017 0.16715 0.00841 0.0
C519 C 0.34034 0.18816 0.01836 0.0
C520 C 0.3586 0.20113 1.00319 0.0
C521 C 0.35667 0.19331 0.97862 0.0
C522 C 0.34101 0.1313 0.95404 0.0
C523 C 0.32615 0.10685 0.9568 0.0
C524 C 0.33423 0.09422 0.97015 0.0
C525 C 0.35716 0.10596 0.98144 0.0
C526 C 0.37111 0.13088 0.98055 0.0
C527 C 0.3633 0.14332 0.96661 0.0
C528 C 0.33595 0.1158 0.90291 0.0
C529 C 0.31657 0.09326 0.89555 0.0
C530 C 0.31987 0.07429 0.88808 0.0
C531 C 0.34265 0.07756 0.88793 0.0
C532 C 0.36202 0.1002 0.89548 0.0
C533 C 0.35868 0.11916 0.90287 0.0
C534 C 0.32911 0.1419 0.86635 0.0
C535 C 0.30842 0.12322 0.8543 0.0
C536 C 0.30915 0.11264 0.83178 0.0
C537 C 0.33055 0.12098 0.8207 0.0
C538 C 0.35097 0.14065 0.8323 0.0
C539 C 0.35031 0.15077 0.85504 0.0
C540 C 0.32773 0.18512 0.8801 0.0
C541 C 0.30641 0.18407 0.87362 0.0
C542 C 0.30522 0.19778 0.85527 0.0
C543 C 0.32539 0.21288 0.84334 0.0
C544 C 0.34664 0.21375 0.84992 0.0
C545 C 0.34782 0.20013 0.8682 0.0
C546 C 0.34225 0.19645 0.04446 0.0
C547 C 0.34627 0.05749 0.87994 0.0
H548 H 0.85307 0.20968 0.07763 0.0
H549 H 0.68504 0.02274 0.85634 0.0
H550 H 0.85081 0.21259 0.92075 0.0
H551 H 0.88199 0.25069 0.94012 0.0
H552 H 0.90883 0.21349 0.98156 0.0
H553 H 0.87813 0.17531 0.96108 0.0
H554 H 0.82912 0.19542 0.97229 0.0
H555 H 0.83907 0.2076 0.01592 0.0
H556 H 0.84059 0.14275 0.02676 0.0
H557 H 0.83097 0.13093 0.98299 0.0
H558 H 0.78206 0.15538 0.96853 0.0
H559 H 0.75137 0.13595 0.9967 0.0
H560 H 0.74649 0.0683 0.97597 0.0
H561 H 0.77891 0.08844 0.94969 0.0
H562 H 0.75631 0.13091 0.91259 0.0
H563 H 0.71719 0.10052 0.89515 0.0
H564 H 0.74378 0.05309 0.87725 0.0
H565 H 0.78276 0.08359 0.89498 0.0
H566 H 0.78792 0.15308 0.86778 0.0
H567 H 0.77323 0.13837 0.82537 0.0
H568 H 0.8078 0.09666 0.82565 0.0
H569 H 0.82353 0.11262 0.86794 0.0
H570 H 0.83138 0.18878 0.87275 0.0
H571 H 0.85829 0.21037 0.84184 0.0
H572 H 0.90562 0.18716 0.86813 0.0
H573 H 0.87787 0.16454 0.89842 0.0
O574 O 0.84914 0.2045 0.06043 0.0
O575 O 0.84948 0.17079 0.06507 0.0
O576 O 0.68763 0.0602 0.87289 0.0
O577 O 0.70022 0.03487 0.8638 0.0
C578 C 0.84061 0.16813 0.93086 0.0
C579 C 0.82391 0.15515 0.94787 0.0
C580 C 0.80158 0.13554 0.9396 0.0
C581 C 0.7963 0.12852 0.91432 0.0
C582 C 0.81324 0.14087 0.89742 0.0
C583 C 0.83534 0.16079 0.9056 0.0
C584 C 0.86219 0.19111 0.93938 0.0
C585 C 0.86389 0.21266 0.93333 0.0
C586 C 0.88154 0.23441 0.94469 0.0
C587 C 0.89775 0.2351 0.96253 0.0
C588 C 0.89679 0.21359 0.96769 0.0
C589 C 0.87922 0.19177 0.95607 0.0
C590 C 0.82955 0.1624 0.97445 0.0
C591 C 0.83176 0.18395 0.98409 0.0
C592 C 0.83736 0.19082 0.00904 0.0
C593 C 0.84068 0.17618 0.02483 0.0
C594 C 0.8382 0.15447 0.0151 0.0
C595 C 0.83268 0.14766 0.99013 0.0
C596 C 0.78308 0.12348 0.9572 0.0
C597 C 0.77488 0.1365 0.97061 0.0
C598 C 0.75706 0.12525 0.9865 0.0
C599 C 0.74647 0.10051 0.98891 0.0
C600 C 0.75464 0.08747 0.97531 0.0
C601 C 0.77295 0.09889 0.9599 0.0
C602 C 0.77231 0.1094 0.90509 0.0
C603 C 0.75357 0.11385 0.90512 0.0
C604 C 0.73129 0.0965 0.89505 0.0
C605 C 0.72737 0.07439 0.88472 0.0
C606 C 0.74618 0.06992 0.88501 0.0
C607 C 0.76845 0.08729 0.89513 0.0
C608 C 0.80676 0.13391 0.87089 0.0
C609 C 0.79266 0.14111 0.85853 0.0
C610 C 0.78404 0.13241 0.83443 0.0
C611 C 0.78879 0.11579 0.82239 0.0
C612 C 0.80376 0.10936 0.83448 0.0
C613 C 0.81274 0.11842 0.85858 0.0
C614 C 0.8524 0.17468 0.88753 0.0
C615 C 0.84738 0.18805 0.87163 0.0
C616 C 0.86292 0.20059 0.85415 0.0
C617 C 0.88401 0.2003 0.85233 0.0
C618 C 0.88929 0.18731 0.86867 0.0
C619 C 0.87357 0.17457 0.88611 0.0
C620 C 0.84669 0.18356 0.05132 0.0
C621 C 0.70385 0.05612 0.8735 0.0
H622 H 0.85781 0.6702 0.09038 0.0
H623 H 0.67832 0.61758 0.87458 0.0
H624 H 0.88285 0.69459 0.96726 0.0
H625 H 0.911 0.68763 0.99055 0.0
H626 H 0.88235 0.61838 0.95114 0.0
H627 H 0.85368 0.62503 0.92877 0.0
H628 H 0.83721 0.69052 0.99291 0.0
H629 H 0.84634 0.68837 0.03596 0.0
H630 H 0.8394 0.61923 0.01841 0.0
H631 H 0.82986 0.62142 0.97553 0.0
H632 H 0.78671 0.68302 0.96088 0.0
H633 H 0.75457 0.67252 0.98753 0.0
H634 H 0.75378 0.60702 1.00114 0.0
H635 H 0.78425 0.61658 0.97264 0.0
H636 H 0.79219 0.69184 0.90658 0.0
H637 H 0.75427 0.68544 0.8901 0.0
H638 H 0.7222 0.6103 0.90181 0.0
H639 H 0.76023 0.61692 0.91804 0.0
H640 H 0.83528 0.70254 0.88039 0.0
H641 H 0.82363 0.70521 0.8382 0.0
H642 H 0.77828 0.62847 0.83027 0.0
H643 H 0.79055 0.62595 0.87205 0.0
H644 H 0.8765 0.70434 0.89709 0.0
H645 H 0.89857 0.7075 0.86099 0.0
H646 H 0.86332 0.63044 0.85089 0.0
H647 H 0.84057 0.62752 0.88603 0.0
O648 O 0.85396 0.67059 0.0733 0.0
O649 O 0.85038 0.63519 0.06327 0.0
O650 O 0.71025 0.65984 0.87755 0.0
O651 O 0.69338 0.62079 0.88165 0.0
C652 C 0.84499 0.66129 0.93778 0.0
C653 C 0.82814 0.65799 0.95489 0.0
C654 C 0.80655 0.6562 0.94715 0.0
C655 C 0.80214 0.65845 0.92232 0.0
C656 C 0.81921 0.66253 0.90537 0.0
C657 C 0.8405 0.66362 0.91297 0.0
C658 C 0.8663 0.66043 0.94608 0.0
C659 C 0.88324 0.67829 0.96303 0.0
C660 C 0.89928 0.67426 0.97637 0.0
C661 C 0.89881 0.65238 0.97278 0.0
C662 C 0.883 0.63532 0.95447 0.0
C663 C 0.86688 0.63928 0.9413 0.0
C664 C 0.83307 0.65623 0.98109 0.0
C665 C 0.83757 0.67489 0.99844 0.0
C666 C 0.84283 0.67363 0.023 0.0
C667 C 0.84369 0.65367 0.03062 0.0
C668 C 0.83895 0.63489 0.01316 0.0
C669 C 0.83359 0.63613 0.98864 0.0
C670 C 0.78803 0.65067 0.9648 0.0
C671 C 0.77955 0.66638 0.96958 0.0
C672 C 0.7614 0.66051 0.98521 0.0
C673 C 0.75174 0.63907 0.99695 0.0
C674 C 0.76064 0.62362 0.99241 0.0
C675 C 0.77832 0.62921 0.97631 0.0
C676 C 0.77892 0.65485 0.91352 0.0
C677 C 0.77692 0.67404 0.90562 0.0
C678 C 0.75525 0.67033 0.89624 0.0
C679 C 0.7352 0.64733 0.89459 0.0
C680 C 0.73727 0.62821 0.90279 0.0
C681 C 0.75895 0.63195 0.91215 0.0
C682 C 0.81389 0.66403 0.87918 0.0
C683 C 0.82321 0.6863 0.86932 0.0
C684 C 0.81641 0.6878 0.84533 0.0
C685 C 0.80021 0.66703 0.83082 0.0
C686 C 0.79121 0.64474 0.84073 0.0
C687 C 0.79807 0.64326 0.86464 0.0
C688 C 0.85707 0.66569 0.89431 0.0
C689 C 0.8739 0.68818 0.8873 0.0
C690 C 0.88644 0.68994 0.86666 0.0
C691 C 0.88234 0.66922 0.85274 0.0
C692 C 0.86642 0.64676 0.86076 0.0
C693 C 0.8537 0.64503 0.88111 0.0
C694 C 0.84953 0.6525 0.05668 0.0
C695 C 0.71224 0.64315 0.88413 0.0
H696 H 0.85156 0.73021 0.34019 0.0
H697 H 0.9651 0.63812 0.5216 0.0
H698 H 0.84442 0.72591 0.47483 0.0
H699 H 0.81685 0.73581 0.45553 0.0
H700 H 0.76305 0.66111 0.44983 0.0
H701 H 0.79147 0.65123 0.46794 0.0
H702 H 0.87968 0.7258 0.44112 0.0
H703 H 0.8735 0.73447 0.39955 0.0
H704 H 0.81458 0.66246 0.3859 0.0
H705 H 0.82116 0.65396 0.42744 0.0
H706 H 0.9176 0.72109 0.47067 0.0
H707 H 0.94792 0.73038 0.4419 0.0
H708 H 0.90177 0.66398 0.39913 0.0
H709 H 0.87159 0.65447 0.42855 0.0
H710 H 0.91974 0.70977 0.51662 0.0
H711 H 0.95223 0.70359 0.52903 0.0
H712 H 0.91215 0.63042 0.49788 0.0
H713 H 0.87974 0.63685 0.48575 0.0
H714 H 0.88939 0.7096 0.5461 0.0
H715 H 0.90115 0.70462 0.58708 0.0
H716 H 0.85553 0.62811 0.57467 0.0
H717 H 0.84447 0.6333 0.53315 0.0
H718 H 0.84909 0.71096 0.54062 0.0
H719 H 0.82501 0.70622 0.57506 0.0
H720 H 0.7732 0.63554 0.54403 0.0
H721 H 0.7982 0.63995 0.51043 0.0
O722 O 0.85379 0.72635 0.35649 0.0
O723 O 0.8236 0.68917 0.35044 0.0
O724 O 0.97208 0.67856 0.5333 0.0
O725 O 0.95257 0.64108 0.51679 0.0
C726 C 0.83833 0.68208 0.48002 0.0
C727 C 0.85443 0.6841 0.46256 0.0
C728 C 0.87417 0.68203 0.46939 0.0
C729 C 0.87742 0.6772 0.49352 0.0
C730 C 0.86138 0.67509 0.51098 0.0
C731 C 0.84175 0.67745 0.50427 0.0
C732 C 0.81986 0.68791 0.47318 0.0
C733 C 0.82651 0.71174 0.46999 0.0
C734 C 0.81065 0.71736 0.45901 0.0
C735 C 0.78756 0.6993 0.45145 0.0
C736 C 0.78069 0.67544 0.45545 0.0
C737 C 0.79676 0.66978 0.46614 0.0
C738 C 0.85095 0.68922 0.43719 0.0
C739 C 0.86558 0.71188 0.42904 0.0
C740 C 0.86194 0.7168 0.40533 0.0
C741 C 0.84354 0.69915 0.38939 0.0
C742 C 0.82892 0.67645 0.39769 0.0
C743 C 0.83262 0.67154 0.42138 0.0
C744 C 0.89251 0.68697 0.45189 0.0
C745 C 0.91412 0.70839 0.45527 0.0
C746 C 0.93132 0.71378 0.43868 0.0
C747 C 0.92727 0.69788 0.41829 0.0
C748 C 0.90553 0.67641 0.41486 0.0
C749 C 0.88827 0.671 0.43155 0.0
C750 C 0.8974 0.67371 0.50043 0.0
C751 C 0.91803 0.69243 0.51255 0.0
C752 C 0.93655 0.68884 0.51959 0.0
C753 C 0.93476 0.66647 0.5145 0.0
C754 C 0.9141 0.64784 0.50211 0.0
C755 C 0.89558 0.65146 0.49513 0.0
C756 C 0.86619 0.67181 0.53668 0.0
C757 C 0.88181 0.69178 0.55231 0.0
C758 C 0.88844 0.68889 0.57573 0.0
C759 C 0.87949 0.66594 0.58403 0.0
C760 C 0.86313 0.64597 0.5686 0.0
C761 C 0.8566 0.6489 0.54503 0.0
C762 C 0.82543 0.6758 0.52304 0.0
C763 C 0.83247 0.69452 0.54121 0.0
C764 C 0.81863 0.69178 0.56083 0.0
C765 C 0.79731 0.67033 0.56257 0.0
C766 C 0.7898 0.65202 0.54367 0.0
C767 C 0.80386 0.65465 0.52422 0.0
C768 C 0.83964 0.70449 0.36426 0.0
C769 C 0.95431 0.6625 0.52212 0.0
H770 H 0.29182 0.11763 0.34424 0.0
H771 H 0.37161 0.32602 0.53906 0.0
H772 H 0.30745 0.12113 0.47851 0.0
H773 H 0.29748 0.08211 0.45941 0.0
H774 H 0.37128 0.10645 0.45453 0.0
H775 H 0.38119 0.14555 0.47463 0.0
H776 H 0.30291 0.15392 0.44633 0.0
H777 H 0.29145 0.13719 0.40388 0.0
H778 H 0.36349 0.15696 0.39318 0.0
H779 H 0.37472 0.17379 0.43565 0.0
H780 H 0.30529 0.19315 0.47661 0.0
H781 H 0.29198 0.21479 0.45152 0.0
H782 H 0.35826 0.24778 0.41807 0.0
H783 H 0.3716 0.22599 0.44355 0.0
H784 H 0.32108 0.20708 0.53042 0.0
H785 H 0.3213 0.24328 0.54573 0.0
H786 H 0.38536 0.28627 0.51039 0.0
H787 H 0.3851 0.2499 0.4955 0.0
H788 H 0.32803 0.16806 0.55505 0.0
H789 H 0.3284 0.18484 0.59594 0.0
H790 H 0.39394 0.24843 0.58444 0.0
H791 H 0.39421 0.23081 0.54412 0.0
H792 H 0.32246 0.12509 0.52444 0.0
H793 H 0.3252 0.10191 0.55658 0.0
H794 H 0.39761 0.15658 0.57453 0.0
H795 H 0.39521 0.17891 0.54086 0.0
O796 O 0.29681 0.12472 0.36085 0.0
O797 O 0.33415 0.13557 0.35617 0.0
O798 O 0.33823 0.28849 0.55117 0.0
O799 O 0.37107 0.31141 0.5332 0.0
C800 C 0.35026 0.16043 0.48674 0.0
C801 C 0.34635 0.17423 0.47003 0.0
C802 C 0.34743 0.19568 0.47837 0.0
C803 C 0.35332 0.20391 0.50328 0.0
C804 C 0.35783 0.1905 0.52003 0.0
C805 C 0.35617 0.16858 0.51179 0.0
C806 C 0.34502 0.13609 0.47804 0.0
C807 C 0.3215 0.11793 0.47369 0.0
C808 C 0.31584 0.09578 0.46247 0.0
C809 C 0.33359 0.09146 0.45486 0.0
C810 C 0.35725 0.10937 0.46008 0.0
C811 C 0.36294 0.1316 0.47159 0.0
C812 C 0.33967 0.16528 0.44393 0.0
C813 C 0.31623 0.1549 0.43468 0.0
C814 C 0.30972 0.14523 0.41047 0.0
C815 C 0.32655 0.14573 0.39513 0.0
C816 C 0.35009 0.1563 0.40449 0.0
C817 C 0.35657 0.16598 0.4287 0.0
C818 C 0.33935 0.20797 0.46182 0.0
C819 C 0.31685 0.20486 0.46368 0.0
C820 C 0.30923 0.21709 0.44924 0.0
C821 C 0.32397 0.2327 0.43261 0.0
C822 C 0.34653 0.23576 0.43068 0.0
C823 C 0.35413 0.22333 0.4451 0.0
C824 C 0.35319 0.22592 0.51205 0.0
C825 C 0.33519 0.22434 0.5261 0.0
C826 C 0.33533 0.24504 0.53476 0.0
C827 C 0.35339 0.26769 0.52933 0.0
C828 C 0.37123 0.26913 0.51496 0.0
C829 C 0.37112 0.24841 0.50639 0.0
C830 C 0.36111 0.19817 0.54657 0.0
C831 C 0.34302 0.18512 0.56176 0.0
C832 C 0.34309 0.1949 0.58499 0.0
C833 C 0.36108 0.21806 0.59335 0.0
C834 C 0.38001 0.23042 0.57875 0.0
C835 C 0.38013 0.22043 0.55564 0.0
C836 C 0.35877 0.15348 0.52981 0.0
C837 C 0.33923 0.13163 0.53454 0.0
C838 C 0.34073 0.11858 0.55325 0.0
C839 C 0.36164 0.12735 0.56815 0.0
C840 C 0.3814 0.14903 0.5631 0.0
C841 C 0.38 0.16191 0.544 0.0
C842 C 0.3195 0.13508 0.36954 0.0
C843 C 0.35369 0.28975 0.53859 0.0
H844 H 0.8251 0.14529 0.33287 0.0
H845 H 0.99541 0.3118 0.56436 0.0
H846 H 0.7945 0.15363 0.47673 0.0
H847 H 0.76324 0.11341 0.46078 0.0
H848 H 0.81533 0.0923 0.45183 0.0
H849 H 0.84601 0.13179 0.4687 0.0
H850 H 0.82672 0.18147 0.43302 0.0
H851 H 0.82058 0.16749 0.38973 0.0
H852 H 0.87778 0.15318 0.39828 0.0
H853 H 0.88351 0.1669 0.44159 0.0
H854 H 0.88097 0.23158 0.43783 0.0
H855 H 0.91247 0.25085 0.40981 0.0
H856 H 0.95312 0.22607 0.44901 0.0
H857 H 0.92167 0.20678 0.47666 0.0
H858 H 0.89662 0.25864 0.49147 0.0
H859 H 0.93213 0.29517 0.50807 0.0
H860 H 0.95351 0.25266 0.54819 0.0
H861 H 0.91816 0.21627 0.53112 0.0
H862 H 0.86955 0.23949 0.541 0.0
H863 H 0.884 0.25413 0.58364 0.0
H864 H 0.88526 0.1893 0.5951 0.0
H865 H 0.87264 0.17574 0.55221 0.0
H866 H 0.81197 0.1869 0.52664 0.0
H867 H 0.78377 0.16472 0.55655 0.0
H868 H 0.81028 0.11577 0.55829 0.0
H869 H 0.83714 0.13709 0.52717 0.0
O870 O 0.82783 0.15074 0.35003 0.0
O871 O 0.85747 0.14385 0.35535 0.0
O872 O 0.97126 0.31847 0.53381 0.0
O873 O 0.98147 0.29762 0.55716 0.0
C874 C 0.84186 0.16988 0.4828 0.0
C875 C 0.85908 0.18369 0.46669 0.0
C876 C 0.87968 0.205 0.47567 0.0
C877 C 0.88277 0.21279 0.50071 0.0
C878 C 0.86526 0.19935 0.51677 0.0
C879 C 0.84468 0.17796 0.50774 0.0
C880 C 0.8225 0.14558 0.47395 0.0
C881 C 0.79902 0.14016 0.4716 0.0
C882 C 0.78127 0.11731 0.46233 0.0
C883 C 0.78681 0.09962 0.45536 0.0
C884 C 0.8104 0.10531 0.45761 0.0
C885 C 0.82798 0.12793 0.46704 0.0
C886 C 0.85568 0.17541 0.44036 0.0
C887 C 0.8379 0.17532 0.42548 0.0
C888 C 0.83445 0.16733 0.40077 0.0
C889 C 0.84874 0.15928 0.39052 0.0
C890 C 0.86651 0.15934 0.40557 0.0
C891 C 0.8699 0.16727 0.43028 0.0
C892 C 0.89904 0.21781 0.45931 0.0
C893 C 0.89672 0.2304 0.44036 0.0
C894 C 0.91467 0.24136 0.42441 0.0
C895 C 0.93506 0.23962 0.42702 0.0
C896 C 0.93741 0.22728 0.44625 0.0
C897 C 0.91959 0.21649 0.46221 0.0
C898 C 0.90474 0.23484 0.51024 0.0
C899 C 0.90908 0.25726 0.50373 0.0
C900 C 0.92934 0.27809 0.51327 0.0
C901 C 0.94559 0.27684 0.52958 0.0
C902 C 0.9413 0.25428 0.5358 0.0
C903 C 0.92111 0.23347 0.52611 0.0
C904 C 0.86982 0.20643 0.54348 0.0
C905 C 0.87258 0.2283 0.55287 0.0
C906 C 0.88066 0.23655 0.57729 0.0
C907 C 0.8857 0.22283 0.59282 0.0
C908 C 0.88172 0.20038 0.58359 0.0
C909 C 0.87413 0.19241 0.55915 0.0
C910 C 0.82663 0.16364 0.52479 0.0
C911 C 0.81143 0.1712 0.53333 0.0
C912 C 0.79556 0.15868 0.55069 0.0
C913 C 0.79503 0.13869 0.56034 0.0
C914 C 0.81003 0.13095 0.55125 0.0
C915 C 0.82548 0.14315 0.53351 0.0
C916 C 0.84502 0.15081 0.36427 0.0
C917 C 0.96687 0.29894 0.54021 0.0
H918 H 0.01304 0.53534 0.41106 0.0
H919 H 0.01306 0.36979 0.18693 0.0
H920 H 0.96625 0.52307 0.27581 0.0
H921 H 0.97532 0.56195 0.29538 0.0
H922 H 0.04905 0.58953 0.28542 0.0
H923 H 0.03993 0.55043 0.26738 0.0
H924 H 0.97225 0.49432 0.31204 0.0
H925 H 0.98258 0.50942 0.35506 0.0
H926 H 0.05544 0.53252 0.3446 0.0
H927 H 0.04484 0.51744 0.30158 0.0
H928 H 0.97623 0.44494 0.30421 0.0
H929 H 0.98877 0.42238 0.32937 0.0
H930 H 0.05489 0.45385 0.29555 0.0
H931 H 0.04244 0.47651 0.27098 0.0
H932 H 0.96306 0.42045 0.25108 0.0
H933 H 0.96316 0.38439 0.23564 0.0
H934 H 0.0279 0.42836 0.2018 0.0
H935 H 0.02772 0.4642 0.21759 0.0
H936 H 0.95298 0.44067 0.20361 0.0
H937 H 0.95305 0.42173 0.16384 0.0
H938 H 0.02027 0.48306 0.15244 0.0
H939 H 0.02057 0.50145 0.19248 0.0
H940 H 0.95316 0.49404 0.20812 0.0
H941 H 0.95156 0.51732 0.17481 0.0
H942 H 0.02549 0.56806 0.1902 0.0
H943 H 0.02724 0.54425 0.22231 0.0
O944 O 0.00933 0.5294 0.39402 0.0
O945 O 0.04655 0.54099 0.38767 0.0
O946 O 0.97995 0.36192 0.21209 0.0
O947 O 0.01272 0.38373 0.19354 0.0
C948 C 0.99771 0.51 0.261 0.0
C949 C 1.00148 0.49608 0.27764 0.0
C950 C 1.0006 0.47475 0.26917 0.0
C951 C 0.99489 0.46671 0.24421 0.0
C952 C 0.99038 0.48018 0.22754 0.0
C953 C 0.99216 0.50211 0.23587 0.0
C954 C 1.00241 0.5341 0.26985 0.0
C955 C 0.98428 0.53768 0.27758 0.0
C956 C 0.9895 0.55991 0.28866 0.0
C957 C 0.01292 0.57893 0.29185 0.0
C958 C 0.03087 0.57525 0.2835 0.0
C959 C 0.02569 0.55302 0.27289 0.0
C960 C 0.00778 0.50469 0.30382 0.0
C961 C 0.99041 0.50259 0.31913 0.0
C962 C 0.99637 0.51124 0.34367 0.0
C963 C 0.01984 0.52216 0.35329 0.0
C964 C 0.0372 0.52417 0.3378 0.0
C965 C 0.0312 0.51553 0.31327 0.0
C966 C 0.0084 0.46224 0.28573 0.0
C967 C 0.99348 0.44707 0.30248 0.0
C968 C 1.00059 0.43411 0.31665 0.0
C969 C 0.02273 0.43621 0.31424 0.0
C970 C 0.0378 0.45197 0.29791 0.0
C971 C 0.0307 0.46483 0.2838 0.0
C972 C 0.99525 0.44487 0.23525 0.0
C973 C 0.97727 0.42221 0.24039 0.0
C974 C 0.97736 0.40168 0.23151 0.0
C975 C 0.99548 0.40349 0.21735 0.0
C976 C 0.01362 0.4263 0.21251 0.0
C977 C 0.01355 0.4468 0.22147 0.0
C978 C 0.98683 0.47239 0.20104 0.0
C979 C 0.96734 0.45035 0.19216 0.0
C980 C 0.96741 0.43953 0.1695 0.0
C981 C 0.98693 0.45072 0.15542 0.0
C982 C 1.00524 0.47387 0.16323 0.0
C983 C 1.00527 0.48456 0.18592 0.0
C984 C 0.99026 0.51759 0.2179 0.0
C985 C 0.96891 0.51037 0.20446 0.0
C986 C 0.968 0.52368 0.18554 0.0
C987 C 0.98846 0.54432 0.17975 0.0
C988 C 0.00952 0.55202 0.194 0.0
C989 C 0.01047 0.53864 0.21265 0.0
C990 C 0.02614 0.53144 0.37933 0.0
C991 C 0.99551 0.38175 0.20757 0.0
H992 H 0.49391 0.53031 0.41472 0.0
H993 H 0.36413 0.34125 0.20288 0.0
H994 H 0.50302 0.54311 0.28532 0.0
H995 H 0.53475 0.58131 0.30375 0.0
H996 H 0.58518 0.55971 0.28638 0.0
H997 H 0.5529 0.52073 0.26894 0.0
H998 H 0.46511 0.50641 0.31047 0.0
H999 H 0.47182 0.51786 0.35437 0.0
H1000 H 0.52877 0.50281 0.35765 0.0
H1001 H 0.52163 0.49107 0.31376 0.0
H1002 H 0.42656 0.469 0.27404 0.0
H1003 H 0.39507 0.44831 0.30128 0.0
H1004 H 0.43481 0.42011 0.33611 0.0
H1005 H 0.46637 0.44082 0.30845 0.0
H1006 H 0.42728 0.46019 0.22136 0.0
H1007 H 0.39204 0.42417 0.20345 0.0
H1008 H 0.41748 0.38058 0.23442 0.0
H1009 H 0.4528 0.41682 0.25198 0.0
H1010 H 0.46715 0.49743 0.19842 0.0
H1011 H 0.45195 0.48227 0.15614 0.0
H1012 H 0.47002 0.42715 0.16285 0.0
H1013 H 0.48407 0.44176 0.20557 0.0
H1014 H 0.51375 0.54345 0.22978 0.0
H1015 H 0.53981 0.56713 0.19904 0.0
H1016 H 0.55443 0.51045 0.18105 0.0
H1017 H 0.52933 0.48742 0.21282 0.0
O1018 O 0.49148 0.52558 0.39739 0.0
O1019 O 0.52069 0.51773 0.39807 0.0
O1020 O 0.36574 0.37903 0.19412 0.0
O1021 O 0.37784 0.35577 0.20989 0.0
C1022 C 0.50565 0.50538 0.26626 0.0
C1023 C 0.48874 0.49078 0.2823 0.0
C1024 C 0.46796 0.46984 0.27297 0.0
C1025 C 0.46451 0.46301 0.2477 0.0
C1026 C 0.48162 0.47719 0.23171 0.0
C1027 C 0.50226 0.49843 0.2409 0.0
C1028 C 0.5256 0.52904 0.27599 0.0
C1029 C 0.52089 0.54652 0.28564 0.0
C1030 C 0.53907 0.5684 0.29603 0.0
C1031 C 0.56249 0.57349 0.29673 0.0
C1032 C 0.56728 0.55612 0.28661 0.0
C1033 C 0.54893 0.534 0.27638 0.0
C1034 C 0.49273 0.49768 0.309 0.0
C1035 C 0.47887 0.50538 0.32074 0.0
C1036 C 0.48282 0.51202 0.34581 0.0
C1037 C 0.50081 0.51121 0.35954 0.0
C1038 C 0.51474 0.5036 0.34763 0.0
C1039 C 0.51072 0.4969 0.32258 0.0
C1040 C 0.44873 0.45639 0.28923 0.0
C1041 C 0.42845 0.45827 0.28745 0.0
C1042 C 0.41061 0.44665 0.30318 0.0
C1043 C 0.41269 0.43293 0.32106 0.0
C1044 C 0.43283 0.43067 0.32255 0.0
C1045 C 0.45081 0.44245 0.30683 0.0
C1046 C 0.44263 0.44108 0.23781 0.0
C1047 C 0.42521 0.44284 0.22421 0.0
C1048 C 0.40509 0.42224 0.21403 0.0
C1049 C 0.40197 0.39948 0.21743 0.0
C1050 C 0.41935 0.39782 0.2314 0.0
C1051 C 0.4395 0.41846 0.24151 0.0
C1052 C 0.47658 0.47061 0.20503 0.0
C1053 C 0.46814 0.48231 0.1906 0.0
C1054 C 0.45946 0.47361 0.16647 0.0
C1055 C 0.45928 0.45316 0.15628 0.0
C1056 C 0.46919 0.44244 0.17039 0.0
C1057 C 0.47753 0.45094 0.19465 0.0
C1058 C 0.51958 0.51366 0.22361 0.0
C1059 C 0.52293 0.53633 0.21956 0.0
C1060 C 0.53758 0.54969 0.20174 0.0
C1061 C 0.54881 0.54045 0.18722 0.0
C1062 C 0.54605 0.51808 0.1919 0.0
C1063 C 0.53161 0.50485 0.20994 0.0
C1064 C 0.505 0.51835 0.38615 0.0
C1065 C 0.38074 0.37755 0.20642 0.0
H1066 H 0.52092 0.97564 0.41693 0.0
H1067 H 0.37078 0.99864 0.19094 0.0
H1068 H 0.55252 0.02489 0.29273 0.0
H1069 H 0.58032 0.0179 0.31655 0.0
H1070 H 0.54168 0.94336 0.28985 0.0
H1071 H 0.51323 0.9503 0.26739 0.0
H1072 H 0.51913 0.01788 0.32581 0.0
H1073 H 0.52402 0.00711 0.36681 0.0
H1074 H 0.47855 0.93235 0.34299 0.0
H1075 H 0.4739 0.94343 0.30204 0.0
H1076 H 0.47573 0.01683 0.3193 0.0
H1077 H 0.44493 0.00698 0.34792 0.0
H1078 H 0.39959 0.94094 0.30424 0.0
H1079 H 0.43062 0.95062 0.27614 0.0
H1080 H 0.4645 0.03168 0.26773 0.0
H1081 H 0.43337 0.03854 0.25178 0.0
H1082 H 0.4028 0.97168 0.20709 0.0
H1083 H 0.43372 0.96481 0.22359 0.0
H1084 H 0.49473 0.03888 0.2193 0.0
H1085 H 0.4822 0.0433 0.17829 0.0
H1086 H 0.45898 0.96913 0.15788 0.0
H1087 H 0.47255 0.96526 0.19853 0.0
H1088 H 0.53885 0.03606 0.22362 0.0
H1089 H 0.56107 0.03842 0.18801 0.0
H1090 H 0.5381 0.96334 0.18962 0.0
H1091 H 0.51492 0.96086 0.22426 0.0
O1092 O 0.5186 0.97951 0.40066 0.0
O1093 O 0.49509 0.94133 0.38751 0.0
O1094 O 0.39626 0.02769 0.22493 0.0
O1095 O 0.38264 0.99584 0.19838 0.0
C1096 C 0.51102 0.99101 0.26935 0.0
C1097 C 0.49397 0.98792 0.28602 0.0
C1098 C 0.47426 0.98981 0.27861 0.0
C1099 C 0.47171 0.99508 0.25448 0.0
C1100 C 0.48856 0.99795 0.23764 0.0
C1101 C 0.50828 0.99591 0.24499 0.0
C1102 C 0.5311 0.98822 0.27789 0.0
C1103 C 0.55054 0.00723 0.2914 0.0
C1104 C 0.56642 0.00318 0.30504 0.0
C1105 C 0.56331 0.98005 0.30511 0.0
C1106 C 0.5445 0.96134 0.29041 0.0
C1107 C 0.52845 0.96534 0.27715 0.0
C1108 C 0.49619 0.98142 0.31107 0.0
C1109 C 0.51021 0.99921 0.32955 0.0
C1110 C 0.51297 0.993 0.35292 0.0
C1111 C 0.5017 0.96886 0.35817 0.0
C1112 C 0.48749 0.9511 0.33956 0.0
C1113 C 0.48475 0.95735 0.3162 0.0
C1114 C 0.45541 0.98446 0.2956 0.0
C1115 C 0.45914 1.00025 0.31595 0.0
C1116 C 0.44148 0.99468 0.33217 0.0
C1117 C 0.41977 0.97323 0.32827 0.0
C1118 C 0.41616 0.95751 0.30783 0.0
C1119 C 0.43379 0.96309 0.29167 0.0
C1120 C 0.45143 0.99785 0.24668 0.0
C1121 C 0.45085 0.01838 0.25477 0.0
C1122 C 0.43313 0.0223 0.24554 0.0
C1123 C 0.41574 0.00576 0.22796 0.0
C1124 C 0.41602 0.98486 0.22044 0.0
C1125 C 0.43364 0.98087 0.22986 0.0
C1126 C 0.4845 1.00174 0.21186 0.0
C1127 C 0.48739 0.02377 0.20576 0.0
C1128 C 0.4799 0.02614 0.18246 0.0
C1129 C 0.46901 0.00639 0.16499 0.0
C1130 C 0.46728 0.98469 0.17086 0.0
C1131 C 0.47504 0.98243 0.19406 0.0
C1132 C 0.52534 0.99831 0.22672 0.0
C1133 C 0.53894 0.02021 0.21652 0.0
C1134 C 0.55163 0.02153 0.19617 0.0
C1135 C 0.55099 1.00097 0.18566 0.0
C1136 C 0.53848 0.97939 0.19687 0.0
C1137 C 0.52558 0.97802 0.21701 0.0
C1138 C 0.50486 0.96231 0.38295 0.0
C1139 C 0.39761 0.01046 0.21713 0.0
H1140 H 0.51263 0.07028 0.68066 0.0
H1141 H 0.63799 0.97946 0.85348 0.0
H1142 H 0.50138 0.05261 0.8144 0.0
H1143 H 0.47385 0.0603 0.79119 0.0
H1144 H 0.43227 0.98525 0.76727 0.0
H1145 H 0.45951 0.97755 0.7915 0.0
H1146 H 0.53931 0.05923 0.77977 0.0
H1147 H 0.53288 0.07098 0.73984 0.0
H1148 H 0.48542 0.99662 0.71592 0.0
H1149 H 0.49212 0.98516 0.75593 0.0
H1150 H 0.58191 0.05294 0.8034 0.0
H1151 H 0.61207 0.06341 0.7741 0.0
H1152 H 0.56733 0.99647 0.73161 0.0
H1153 H 0.53725 0.9859 0.76136 0.0
H1154 H 0.58062 0.03998 0.85554 0.0
H1155 H 0.61453 0.03656 0.86905 0.0
H1156 H 0.5853 0.96905 0.82575 0.0
H1157 H 0.55128 0.97254 0.81268 0.0
H1158 H 0.54231 0.03787 0.88229 0.0
H1159 H 0.55612 0.03441 0.92299 0.0
H1160 H 0.53355 0.96031 0.90302 0.0
H1161 H 0.5209 0.96438 0.86191 0.0
H1162 H 0.49892 0.04138 0.85757 0.0
H1163 H 0.47597 0.03894 0.89239 0.0
H1164 H 0.4543 0.96426 0.89504 0.0
H1165 H 0.47632 0.96655 0.85925 0.0
O1166 O 0.51528 0.06521 0.69614 0.0
O1167 O 0.49062 0.02677 0.68492 0.0
O1168 O 0.63807 0.01509 0.87178 0.0
O1169 O 0.62486 0.98133 0.84825 0.0
C1170 C 0.50234 0.01132 0.81265 0.0
C1171 C 0.51898 0.01458 0.7954 0.0
C1172 C 0.53897 0.01297 0.8021 0.0
C1173 C 0.54231 0.00793 0.82613 0.0
C1174 C 0.52583 0.00481 0.8435 0.0
C1175 C 0.50575 0.00648 0.83682 0.0
C1176 C 0.48229 0.01448 0.80495 0.0
C1177 C 0.48578 0.03766 0.80506 0.0
C1178 C 0.47032 0.04209 0.79132 0.0
C1179 C 0.45132 0.02347 0.77679 0.0
C1180 C 0.44683 0.99996 0.77817 0.0
C1181 C 0.46223 0.9955 0.79217 0.0
C1182 C 0.51619 0.02138 0.77064 0.0
C1183 C 0.52771 0.04553 0.76577 0.0
C1184 C 0.52394 0.05217 0.74299 0.0
C1185 C 0.50858 0.03474 0.7247 0.0
C1186 C 0.49733 0.01049 0.7296 0.0
C1187 C 0.50115 0.00389 0.75239 0.0
C1188 C 0.55741 0.01867 0.78453 0.0
C1189 C 0.57865 0.04049 0.78782 0.0
C1190 C 0.59573 0.04654 0.77094 0.0
C1191 C 0.59187 0.03093 0.75033 0.0
C1192 C 0.57071 0.00887 0.74726 0.0
C1193 C 0.55356 0.00284 0.76418 0.0
C1194 C 0.56343 0.0064 0.83332 0.0
C1195 C 0.58156 0.02444 0.84906 0.0
C1196 C 0.60091 0.02246 0.85671 0.0
C1197 C 0.60257 1.00246 0.84856 0.0
C1198 C 0.58455 0.98464 0.83241 0.0
C1199 C 0.56514 0.9866 0.82487 0.0
C1200 C 0.53072 1.00142 0.86916 0.0
C1201 C 0.54011 0.02083 0.88684 0.0
C1202 C 0.54797 0.01879 0.91008 0.0
C1203 C 0.5464 0.99721 0.91614 0.0
C1204 C 0.53575 0.9774 0.89873 0.0
C1205 C 0.5282 0.97957 0.87536 0.0
C1206 C 0.48914 0.0041 0.85562 0.0
C1207 C 0.48863 0.0243 0.86512 0.0
C1208 C 0.47585 0.02297 0.88534 0.0
C1209 C 0.46373 1.00152 0.89684 0.0
C1210 C 0.46344 0.98104 0.88663 0.0
C1211 C 0.47602 0.98232 0.8662 0.0
C1212 C 0.50424 0.04189 0.7007 0.0
C1213 C 0.62294 1.00011 0.85693 0.0
H1214 H 0.98461 0.45167 0.67889 0.0
H1215 H 0.0233 0.65182 0.88746 0.0
H1216 H 0.97893 0.45089 0.83494 0.0
H1217 H 0.97013 0.41178 0.81725 0.0
H1218 H 0.0349 0.44502 0.78103 0.0
H1219 H 0.04422 0.48419 0.79988 0.0
H1220 H 0.97655 0.46892 0.78259 0.0
H1221 H 0.97346 0.45579 0.73944 0.0
H1222 H 0.04182 0.51709 0.73094 0.0
H1223 H 0.04483 0.52986 0.77426 0.0
H1224 H 0.97291 0.51117 0.78397 0.0
H1225 H 0.9608 0.53316 0.75822 0.0
H1226 H 0.02585 0.59837 0.78051 0.0
H1227 H 0.03888 0.57567 0.80411 0.0
H1228 H 0.97479 0.54047 0.83577 0.0
H1229 H 0.97113 0.57502 0.84891 0.0
H1230 H 0.04466 0.61376 0.87433 0.0
H1231 H 0.04816 0.5792 0.86077 0.0
H1232 H 0.97746 0.5157 0.88004 0.0
H1233 H 0.97591 0.53263 0.92012 0.0
H1234 H 0.05073 0.56223 0.93381 0.0
H1235 H 0.05218 0.54547 0.89312 0.0
H1236 H 0.98331 0.47609 0.88225 0.0
H1237 H 0.98556 0.45296 0.91491 0.0
H1238 H 0.05465 0.4694 0.89512 0.0
H1239 H 0.05263 0.49348 0.86297 0.0
O1240 O 0.98622 0.45718 0.69593 0.0
O1241 O 0.02135 0.48908 0.69247 0.0
O1242 O 0.98668 0.61744 0.86816 0.0
O1243 O 0.02431 0.63799 0.88187 0.0
C1244 C 0.01511 0.49421 0.82614 0.0
C1245 C 0.01308 0.50801 0.80792 0.0
C1246 C 0.01224 0.52891 0.81469 0.0
C1247 C 0.01382 0.53619 0.83971 0.0
C1248 C 0.01594 0.52254 0.85786 0.0
C1249 C 0.01671 0.50161 0.85119 0.0
C1250 C 0.01227 0.47044 0.81883 0.0
C1251 C 0.99166 0.4497 0.82392 0.0
C1252 C 0.9865 0.42739 0.81352 0.0
C1253 C 1.00173 0.42535 0.7976 0.0
C1254 C 0.02297 0.44598 0.79345 0.0
C1255 C 0.02826 0.46836 0.80412 0.0
C1256 C 0.01103 0.50021 0.7816 0.0
C1257 C 0.99091 0.4794 0.77142 0.0
C1258 C 0.98915 0.47198 0.74674 0.0
C1259 C 0.00742 0.48536 0.73175 0.0
C1260 C 0.02746 0.50635 0.74199 0.0
C1261 C 0.02922 0.5137 0.7667 0.0
C1262 C 0.00686 0.54171 0.79592 0.0
C1263 C 0.98503 0.52999 0.78242 0.0
C1264 C 0.97796 0.54272 0.76801 0.0
C1265 C 0.99223 0.56764 0.76733 0.0
C1266 C 0.01456 0.57917 0.78004 0.0
C1267 C 0.02196 0.56624 0.79384 0.0
C1268 C 0.01177 0.55741 0.84719 0.0
C1269 C 0.99012 0.55651 0.844 0.0
C1270 C 0.98807 0.57623 0.8516 0.0
C1271 C 0.00762 0.59716 0.86269 0.0
C1272 C 0.02927 0.59795 0.86586 0.0
C1273 C 0.03133 0.57824 0.85814 0.0
C1274 C 0.01489 0.52925 0.8838 0.0
C1275 C 0.99342 0.52535 0.89192 0.0
C1276 C 0.99257 0.53498 0.91483 0.0
C1277 C 0.01318 0.54856 0.93016 0.0
C1278 C 0.03461 0.55181 0.92232 0.0
C1279 C 0.03544 0.54211 0.89928 0.0
C1280 C 0.01796 0.48685 0.87048 0.0
C1281 C 0.99906 0.47497 0.88514 0.0
C1282 C 1.0003 0.46156 0.90364 0.0
C1283 C 0.02038 0.45952 0.90778 0.0
C1284 C 0.03915 0.47105 0.89275 0.0
C1285 C 0.03795 0.48462 0.87426 0.0
C1286 C 1.00551 0.47741 0.70554 0.0
C1287 C 1.00548 0.61808 0.87102 0.0
H1288 H 0.49184 0.46596 0.66813 0.0
H1289 H 0.66058 0.64717 0.89256 0.0
H1290 H 0.46449 0.48873 0.79933 0.0
H1291 H 0.43407 0.45114 0.77734 0.0
H1292 H 0.47696 0.41937 0.79149 0.0
H1293 H 0.50755 0.45714 0.81215 0.0
H1294 H 0.49656 0.51291 0.7636 0.0
H1295 H 0.48998 0.49543 0.72151 0.0
H1296 H 0.54085 0.47341 0.73704 0.0
H1297 H 0.54711 0.49084 0.77912 0.0
H1298 H 0.54525 0.55845 0.7693 0.0
H1299 H 0.57643 0.57823 0.74118 0.0
H1300 H 0.62009 0.55837 0.78266 0.0
H1301 H 0.58871 0.53811 0.81011 0.0
H1302 H 0.55937 0.58736 0.82387 0.0
H1303 H 0.5939 0.6254 0.83915 0.0
H1304 H 0.62096 0.587 0.87831 0.0
H1305 H 0.58654 0.54912 0.86259 0.0
H1306 H 0.53055 0.56573 0.87472 0.0
H1307 H 0.54312 0.58027 0.9178 0.0
H1308 H 0.55978 0.5244 0.92678 0.0
H1309 H 0.54618 0.50945 0.88427 0.0
H1310 H 0.48349 0.51906 0.86657 0.0
H1311 H 0.45763 0.49748 0.89841 0.0
H1312 H 0.47471 0.44158 0.88755 0.0
H1313 H 0.50169 0.46407 0.857 0.0
O1314 O 0.49491 0.47299 0.68476 0.0
O1315 O 0.52125 0.46212 0.69366 0.0
O1316 O 0.63352 0.65118 0.86345 0.0
O1317 O 0.64693 0.63239 0.88596 0.0
C1318 C 0.5083 0.49916 0.81653 0.0
C1319 C 0.52534 0.51263 0.80014 0.0
C1320 C 0.54578 0.53425 0.80858 0.0
C1321 C 0.54904 0.54258 0.83347 0.0
C1322 C 0.53216 0.52899 0.84996 0.0
C1323 C 0.51166 0.5073 0.84151 0.0
C1324 C 0.48811 0.47555 0.80743 0.0
C1325 C 0.46706 0.47348 0.79796 0.0
C1326 C 0.4498 0.45208 0.78535 0.0
C1327 C 0.45341 0.43251 0.78213 0.0
C1328 C 0.47399 0.43436 0.79291 0.0
C1329 C 0.4913 0.45576 0.80513 0.0
C1330 C 0.52233 0.50315 0.77431 0.0
C1331 C 0.50631 0.50438 0.75781 0.0
C1332 C 0.50259 0.49436 0.73381 0.0
C1333 C 0.51486 0.48298 0.72592 0.0
C1334 C 0.5311 0.48203 0.74252 0.0
C1335 C 0.53478 0.49203 0.76652 0.0
C1336 C 0.56478 0.54699 0.79186 0.0
C1337 C 0.56158 0.55842 0.77228 0.0
C1338 C 0.57943 0.56982 0.75635 0.0
C1339 C 0.60078 0.56999 0.75981 0.0
C1340 C 0.60381 0.55843 0.77943 0.0
C1341 C 0.586 0.54704 0.79525 0.0
C1342 C 0.57036 0.56553 0.84232 0.0
C1343 C 0.57283 0.58723 0.83568 0.0
C1344 C 0.59254 0.60891 0.84445 0.0
C1345 C 0.61012 0.60924 0.86009 0.0
C1346 C 0.60769 0.5874 0.86645 0.0
C1347 C 0.58802 0.56573 0.85755 0.0
C1348 C 0.53726 0.53642 0.8765 0.0
C1349 C 0.53641 0.55636 0.88623 0.0
C1350 C 0.54374 0.56471 0.91074 0.0
C1351 C 0.5522 0.55334 0.92584 0.0
C1352 C 0.55268 0.53314 0.91597 0.0
C1353 C 0.54506 0.52464 0.89162 0.0
C1354 C 0.4942 0.49297 0.85909 0.0
C1355 C 0.48143 0.50202 0.87091 0.0
C1356 C 0.46648 0.48954 0.88895 0.0
C1357 C 0.46377 0.46756 0.8953 0.0
C1358 C 0.47636 0.45843 0.88312 0.0
C1359 C 0.49156 0.47109 0.86538 0.0
C1360 C 0.51062 0.47206 0.70051 0.0
C1361 C 0.63087 0.63224 0.86984 0.0
H1362 H 0.67777 0.86429 0.74373 0.0
H1363 H 0.65931 0.69092 0.51311 0.0
H1364 H 0.63665 0.86099 0.59594 0.0
H1365 H 0.64799 0.90173 0.61162 0.0
H1366 H 0.71873 0.91638 0.62895 0.0
H1367 H 0.70774 0.87658 0.61156 0.0
H1368 H 0.63979 0.83062 0.6426 0.0
H1369 H 0.64931 0.84403 0.68605 0.0
H1370 H 0.7183 0.85249 0.6802 0.0
H1371 H 0.70867 0.83936 0.63672 0.0
H1372 H 0.64224 0.77737 0.63902 0.0
H1373 H 0.65485 0.7552 0.66477 0.0
H1374 H 0.71642 0.77816 0.62394 0.0
H1375 H 0.70408 0.80055 0.59891 0.0
H1376 H 0.62248 0.75178 0.58208 0.0
H1377 H 0.61657 0.7135 0.56458 0.0
H1378 H 0.68274 0.75087 0.53114 0.0
H1379 H 0.68859 0.78892 0.54907 0.0
H1380 H 0.61575 0.77614 0.53363 0.0
H1381 H 0.6137 0.7589 0.49217 0.0
H1382 H 0.68671 0.81173 0.48642 0.0
H1383 H 0.68825 0.82922 0.52719 0.0
H1384 H 0.61828 0.82937 0.54849 0.0
H1385 H 0.61466 0.85339 0.51737 0.0
H1386 H 0.6904 0.89478 0.51745 0.0
H1387 H 0.69374 0.87156 0.54949 0.0
O1388 O 0.67437 0.85898 0.72652 0.0
O1389 O 0.70956 0.86286 0.72259 0.0
O1390 O 0.62778 0.68729 0.5387 0.0
O1391 O 0.66144 0.70573 0.52072 0.0
C1392 C 0.6648 0.84094 0.59385 0.0
C1393 C 0.66758 0.82603 0.61011 0.0
C1394 C 0.66508 0.80401 0.60112 0.0
C1395 C 0.65863 0.79631 0.57614 0.0
C1396 C 0.65537 0.81088 0.55997 0.0
C1397 C 0.65843 0.83318 0.56878 0.0
C1398 C 0.67131 0.86571 0.60277 0.0
C1399 C 0.65464 0.87314 0.6029 0.0
C1400 C 0.66107 0.8963 0.61223 0.0
C1401 C 0.6842 0.91226 0.62196 0.0
C1402 C 0.70081 0.90468 0.62152 0.0
C1403 C 0.69451 0.88183 0.61178 0.0
C1404 C 0.67343 0.83376 0.63658 0.0
C1405 C 0.65693 0.83533 0.65077 0.0
C1406 C 0.66242 0.843 0.67557 0.0
C1407 C 0.68454 0.84926 0.68663 0.0
C1408 C 0.70107 0.84771 0.67229 0.0
C1409 C 0.69557 0.84009 0.64748 0.0
C1410 C 0.67216 0.79041 0.61699 0.0
C1411 C 0.65844 0.77758 0.63573 0.0
C1412 C 0.66559 0.76486 0.6503 0.0
C1413 C 0.68657 0.76487 0.64628 0.0
C1414 C 0.70027 0.77795 0.6276 0.0
C1415 C 0.69316 0.79058 0.61316 0.0
C1416 C 0.65585 0.77308 0.56667 0.0
C1417 C 0.63574 0.75161 0.57113 0.0
C1418 C 0.63239 0.7298 0.56104 0.0
C1419 C 0.64913 0.72914 0.54633 0.0
C1420 C 0.66946 0.75073 0.54229 0.0
C1421 C 0.67283 0.77249 0.55247 0.0
C1422 C 0.65212 0.80397 0.53333 0.0
C1423 C 0.63101 0.7844 0.52301 0.0
C1424 C 0.63001 0.77437 0.49952 0.0
C1425 C 0.65021 0.7836 0.48621 0.0
C1426 C 0.6708 0.80423 0.49607 0.0
C1427 C 0.67171 0.81435 0.51936 0.0
C1428 C 0.65627 0.8488 0.55126 0.0
C1429 C 0.63405 0.84386 0.54196 0.0
C1430 C 0.63203 0.85741 0.52396 0.0
C1431 C 0.65224 0.87579 0.51455 0.0
C1432 C 0.67447 0.88091 0.52436 0.0
C1433 C 0.67645 0.86764 0.54262 0.0
C1434 C 0.69033 0.85745 0.71297 0.0
C1435 C 0.6454 0.70609 0.5351 0.0
H1436 H 0.18524 0.87124 0.74896 0.0
H1437 H 0.02195 0.68605 0.52847 0.0
H1438 H 0.17274 0.87983 0.60873 0.0
H1439 H 0.20452 0.918 0.62697 0.0
H1440 H 0.25163 0.88971 0.62627 0.0
H1441 H 0.21888 0.85073 0.60945 0.0
H1442 H 0.15375 0.85895 0.64569 0.0
H1443 H 0.16517 0.86928 0.68934 0.0
H1444 H 0.18501 0.81503 0.69051 0.0
H1445 H 0.17371 0.80502 0.64672 0.0
H1446 H 0.11349 0.824 0.63498 0.0
H1447 H 0.08204 0.80428 0.66216 0.0
H1448 H 0.08047 0.73765 0.64521 0.0
H1449 H 0.11381 0.75828 0.61985 0.0
H1450 H 0.08835 0.79699 0.58059 0.0
H1451 H 0.04986 0.76423 0.56434 0.0
H1452 H 0.08099 0.72069 0.54755 0.0
H1453 H 0.11932 0.7535 0.56416 0.0
H1454 H 0.12098 0.82215 0.53645 0.0
H1455 H 0.1065 0.80731 0.49391 0.0
H1456 H 0.14456 0.76905 0.4936 0.0
H1457 H 0.15808 0.78315 0.53656 0.0
H1458 H 0.17761 0.87405 0.55823 0.0
H1459 H 0.20442 0.89648 0.52741 0.0
H1460 H 0.22298 0.84153 0.51795 0.0
H1461 H 0.19733 0.82011 0.54997 0.0
O1462 O 0.18083 0.86685 0.73168 0.0
O1463 O 0.19067 0.83866 0.73134 0.0
O1464 O 0.02187 0.72241 0.54413 0.0
O1465 O 0.03693 0.69919 0.53525 0.0
C1466 C 0.17298 0.83888 0.59949 0.0
C1467 C 0.15666 0.82522 0.61641 0.0
C1468 C 0.13483 0.80501 0.6081 0.0
C1469 C 0.12998 0.79777 0.58283 0.0
C1470 C 0.1469 0.8106 0.56605 0.0
C1471 C 0.1684 0.83128 0.57432 0.0
C1472 C 0.19346 0.86249 0.60809 0.0
C1473 C 0.18992 0.88185 0.6126 0.0
C1474 C 0.20818 0.90371 0.62289 0.0
C1475 C 0.23065 0.90694 0.62839 0.0
C1476 C 0.23441 0.88768 0.62294 0.0
C1477 C 0.21586 0.86552 0.61301 0.0
C1478 C 0.16307 0.83136 0.64302 0.0
C1479 C 0.1607 0.84942 0.65535 0.0
C1480 C 0.16716 0.85523 0.68033 0.0
C1481 C 0.17605 0.84302 0.69342 0.0
C1482 C 0.17825 0.82481 0.68098 0.0
C1483 C 0.1718 0.81904 0.65599 0.0
C1484 C 0.11626 0.79274 0.62555 0.0
C1485 C 0.10691 0.80532 0.63767 0.0
C1486 C 0.08848 0.79384 0.6528 0.0
C1487 C 0.0782 0.76917 0.6554 0.0
C1488 C 0.08793 0.75665 0.64366 0.0
C1489 C 0.10687 0.76837 0.629 0.0
C1490 C 0.10657 0.77757 0.57358 0.0
C1491 C 0.08676 0.78029 0.57354 0.0
C1492 C 0.06483 0.76159 0.56419 0.0
C1493 C 0.06236 0.73983 0.55461 0.0
C1494 C 0.08228 0.73718 0.55477 0.0
C1495 C 0.10419 0.75589 0.56421 0.0
C1496 C 0.14066 0.80383 0.53949 0.0
C1497 C 0.12636 0.81076 0.52708 0.0
C1498 C 0.11815 0.80229 0.50281 0.0
C1499 C 0.12416 0.78677 0.49047 0.0
C1500 C 0.1392 0.78054 0.50276 0.0
C1501 C 0.14722 0.78885 0.52715 0.0
C1502 C 0.18554 0.84546 0.55642 0.0
C1503 C 0.18784 0.86712 0.54985 0.0
C1504 C 0.20303 0.8798 0.53207 0.0
C1505 C 0.21604 0.87094 0.52024 0.0
C1506 C 0.21377 0.84926 0.52705 0.0
C1507 C 0.19885 0.8368 0.54513 0.0
C1508 C 0.18298 0.8493 0.71994 0.0
C1509 C 0.03914 0.72002 0.54439 0.0
H1510 H 0.2015 0.33983 0.7547 0.0
H1511 H 0.01607 0.2894 0.54103 0.0
H1512 H 0.22288 0.35804 0.6246 0.0
H1513 H 0.25251 0.35061 0.64413 0.0
H1514 H 0.20986 0.27567 0.61979 0.0
H1515 H 0.18136 0.28356 0.59937 0.0
H1516 H 0.17907 0.3578 0.65684 0.0
H1517 H 0.18994 0.35709 0.69974 0.0
H1518 H 0.17333 0.28384 0.6857 0.0
H1519 H 0.1622 0.2847 0.64298 0.0
H1520 H 0.12476 0.34962 0.62945 0.0
H1521 H 0.09308 0.33936 0.65673 0.0
H1522 H 0.09024 0.27237 0.66753 0.0
H1523 H 0.12013 0.28174 0.63842 0.0
H1524 H 0.12991 0.35958 0.57589 0.0
H1525 H 0.09272 0.35521 0.55973 0.0
H1526 H 0.0581 0.27927 0.56822 0.0
H1527 H 0.09542 0.28388 0.58415 0.0
H1528 H 0.16989 0.3683 0.54781 0.0
H1529 H 0.15676 0.37188 0.50672 0.0
H1530 H 0.11163 0.29513 0.49726 0.0
H1531 H 0.12564 0.2917 0.53794 0.0
H1532 H 0.208 0.36805 0.55936 0.0
H1533 H 0.23072 0.37111 0.5241 0.0
H1534 H 0.20244 0.29467 0.52005 0.0
H1535 H 0.17861 0.29168 0.5543 0.0
O1536 O 0.19695 0.33967 0.73771 0.0
O1537 O 0.18829 0.30208 0.7295 0.0
O1538 O 0.04874 0.33128 0.54657 0.0
O1539 O 0.03078 0.29184 0.54828 0.0
C1540 C 0.17997 0.32442 0.60291 0.0
C1541 C 0.16412 0.32232 0.62068 0.0
C1542 C 0.14291 0.32169 0.61378 0.0
C1543 C 0.13818 0.32437 0.58919 0.0
C1544 C 0.15459 0.32774 0.57165 0.0
C1545 C 0.17539 0.3275 0.57841 0.0
C1546 C 0.20023 0.32143 0.6101 0.0
C1547 C 0.22052 0.34024 0.6227 0.0
C1548 C 0.23722 0.33588 0.63414 0.0
C1549 C 0.23376 0.31257 0.63337 0.0
C1550 C 0.21365 0.29397 0.6201 0.0
C1551 C 0.19725 0.29843 0.60837 0.0
C1552 C 0.17007 0.3214 0.64679 0.0
C1553 C 0.17774 0.34161 0.66311 0.0
C1554 C 0.18397 0.34116 0.68758 0.0
C1555 C 0.1826 0.32043 0.69613 0.0
C1556 C 0.17469 0.30012 0.67971 0.0
C1557 C 0.16841 0.30059 0.65527 0.0
C1558 C 0.12496 0.31652 0.63196 0.0
C1559 C 0.11727 0.33273 0.63771 0.0
C1560 C 0.09939 0.32698 0.65368 0.0
C1561 C 0.08925 0.30515 0.66473 0.0
C1562 C 0.09749 0.28928 0.65933 0.0
C1563 C 0.11485 0.29475 0.6429 0.0
C1564 C 0.11531 0.32205 0.58119 0.0
C1565 C 0.11423 0.34205 0.57437 0.0
C1566 C 0.09298 0.3395 0.56515 0.0
C1567 C 0.07244 0.31686 0.56261 0.0
C1568 C 0.07357 0.29694 0.56988 0.0
C1569 C 0.09483 0.29953 0.57909 0.0
C1570 C 0.14886 0.32973 0.54576 0.0
C1571 C 0.15758 0.35225 0.53662 0.0
C1572 C 0.14978 0.35427 0.51331 0.0
C1573 C 0.13283 0.33381 0.4989 0.0
C1574 C 0.12474 0.31122 0.50787 0.0
C1575 C 0.13271 0.30921 0.53107 0.0
C1576 C 0.19175 0.32967 0.55949 0.0
C1577 C 0.20697 0.35202 0.55102 0.0
C1578 C 0.22011 0.35375 0.53099 0.0
C1579 C 0.21864 0.33315 0.51932 0.0
C1580 C 0.20392 0.31087 0.52848 0.0
C1581 C 0.19049 0.30914 0.54824 0.0
C1582 C 0.18942 0.32007 0.72209 0.0
C1583 C 0.04998 0.31388 0.55207 0.0
C1584 C 0.97457 0.41338 0.09509 0.0
C1585 C 0.99516 0.41204 0.09339 0.0
C1586 C 0.97183 0.42582 0.11524 0.0
C1587 C 0.98959 0.43729 0.1343 0.0
H1588 H 0.96076 0.40532 0.08049 0.0
H1589 H 0.95594 0.42685 0.1157 0.0
S1590 S 0.04518 0.43601 0.14037 0.0
N1591 N 0.03251 0.42128 0.11372 0.0
N1592 N 0.02721 0.44431 0.15147 0.0
C1593 C 0.00974 0.43517 0.13328 0.0
C1594 C 0.01257 0.42265 0.11286 0.0
C1595 C 0.59749 0.56791 0.14314 0.0
C1596 C 0.58874 0.57782 0.12638 0.0
C1597 C 0.58465 0.55607 0.16287 0.0
C1598 C 0.5625 0.55357 0.16656 0.0
H1599 H 0.61446 0.56943 0.14111 0.0
H1600 H 0.5922 0.54894 0.17542 0.0
S1601 S 0.5307 0.57432 0.12673 0.0
N1602 N 0.5559 0.58324 0.11426 0.0
N1603 N 0.53174 0.56063 0.15085 0.0
C1604 C 0.5534 0.56304 0.14972 0.0
C1605 C 0.5665 0.57523 0.12978 0.0
C1606 C 0.45055 0.99712 0.09701 0.0
C1607 C 0.43649 0.00771 0.09518 0.0
C1608 C 0.46154 0.9974 0.11947 0.0
C1609 C 0.45857 0.00791 0.14109 0.0
H1610 H 0.45308 0.98852 0.08093 0.0
H1611 H 0.47232 0.98913 0.11993 0.0
S1612 S 0.42188 0.03639 0.14629 0.0
N1613 N 0.41964 0.02847 0.11684 0.0
N1614 N 0.43939 0.02811 0.15927 0.0
C1615 C 0.4444 0.01847 0.13948 0.0
C1616 C 0.43358 0.01857 0.11649 0.0
C1617 C 0.41886 0.98134 0.94535 0.0
C1618 C 0.4305 0.99924 0.96464 0.0
C1619 C 0.42962 0.98216 0.92348 0.0
C1620 C 0.45248 1.00084 0.9201 0.0
H1621 H 0.40115 0.96678 0.94698 0.0
H1622 H 0.41985 0.96821 0.90899 0.0
S1623 S 0.49156 0.05055 0.96601 0.0
N1624 N 0.46682 0.03534 0.97943 0.0
N1625 N 0.48709 0.03651 0.93875 0.0
C1626 C 0.46453 0.01844 0.93952 0.0
C1627 C 0.45355 0.01773 0.96165 0.0
C1628 C 1.00087 0.40958 0.95044 0.0
C1629 C 0.01972 0.41848 0.96838 0.0
C1630 C 1.00167 0.42259 0.93053 0.0
C1631 C 0.02129 0.44516 0.92772 0.0
H1632 H 0.98509 0.39254 0.95196 0.0
H1633 H 0.98656 0.41504 0.91743 0.0
S1634 S 0.07558 0.47641 0.96917 0.0
N1635 N 0.05901 0.45103 0.98156 0.0
N1636 N 0.06032 0.4757 0.94431 0.0
C1637 C 0.04062 0.45399 0.94504 0.0
C1638 C 0.03988 0.44062 0.96532 0.0
C1639 C 0.58843 0.59777 0.97969 0.0
C1640 C 0.58485 0.58295 0.99882 0.0
C1641 C 0.57734 0.58813 0.9563 0.0
C1642 C 0.56197 0.56335 0.95131 0.0
H1643 H 0.60057 0.61684 0.98255 0.0
H1644 H 0.58148 0.60011 0.94184 0.0
S1645 S 0.544 0.51745 0.99631 0.0
N1646 N 0.56339 0.54265 0.01193 0.0
N1647 N 0.54179 0.52463 0.96832 0.0
C1648 C 0.55732 0.54855 0.9707 0.0
C1649 C 0.56893 0.55831 0.99436 0.0
C1650 C 0.02525 0.59738 0.97938 0.0
C1651 C 0.00739 0.58528 0.99527 0.0
C1652 C 0.02758 0.58522 0.95878 0.0
C1653 C 0.01227 0.56051 0.95349 0.0
H1654 H 0.03706 0.6165 0.98244 0.0
H1655 H 0.04094 0.59539 0.94647 0.0
S1656 S 0.96481 0.51998 0.99114 0.0
N1657 N 0.97552 0.54676 0.00546 0.0
N1658 N 0.98024 0.52399 0.96703 0.0
C1659 C 0.9951 0.54803 0.96985 0.0
C1660 C 0.99258 0.56039 0.99066 0.0
C1661 C 0.44447 0.43357 0.95239 0.0
C1662 C 0.42206 0.43064 0.95533 0.0
C1663 C 0.45768 0.44548 0.93302 0.0
C1664 C 0.449 0.4548 0.91552 0.0
H1665 H 0.45214 0.42694 0.96541 0.0
H1666 H 0.47504 0.44769 0.93199 0.0
S1667 S 0.39063 0.45053 0.91382 0.0
N1668 N 0.39142 0.43743 0.93857 0.0
N1669 N 0.416 0.45925 0.90174 0.0
C1670 C 0.42646 0.45172 0.91798 0.0
C1671 C 0.41306 0.43978 0.93794 0.0
C1672 C 0.56427 0.00696 0.9843 0.0
C1673 C 0.57837 0.99645 0.98657 0.0
C1674 C 0.55346 0.00649 0.96165 0.0
C1675 C 0.55664 0.99585 0.94025 0.0
H1676 H 0.56159 0.01567 1.00019 0.0
H1677 H 0.54265 0.01471 0.96088 0.0
S1678 S 0.59331 0.96727 0.93621 0.0
N1679 N 0.59536 0.97548 0.96554 0.0
N1680 N 0.57592 0.97546 0.92278 0.0
C1681 C 0.57079 0.9853 0.94231 0.0
C1682 C 0.58144 0.9854 0.96549 0.0
C1683 C 0.59586 0.02144 0.1371 0.0
C1684 C 0.58413 0.00381 0.1176 0.0
C1685 C 0.58516 0.02039 0.15907 0.0
C1686 C 0.56225 1.00174 0.16235 0.0
H1687 H 0.61359 0.03599 0.13553 0.0
H1688 H 0.59501 0.03416 0.17369 0.0
S1689 S 0.52296 0.95268 0.11593 0.0
N1690 N 0.54771 0.96797 0.10255 0.0
N1691 N 0.52752 0.96638 0.14339 0.0
C1692 C 0.55012 0.98438 0.14274 0.0
C1693 C 0.56106 0.98532 0.12051 0.0
C1694 C 0.97248 0.57693 0.13355 0.0
C1695 C 0.98988 0.58292 0.11676 0.0
C1696 C 0.97184 0.56419 0.15383 0.0
C1697 C 0.9885 0.55695 0.15788 0.0
H1698 H 0.95958 0.58251 0.13128 0.0
H1699 H 0.95852 0.56039 0.16665 0.0
S1700 S 0.0354 0.56508 0.11741 0.0
N1701 N 0.02279 0.57864 0.10445 0.0
N1702 N 0.02124 0.55451 0.14207 0.0
C1703 C 1.00532 0.56198 0.14067 0.0
C1704 C 1.00609 0.57502 0.12026 0.0
C1705 C 0.43986 0.4481 0.08909 0.0
C1706 C 0.42444 0.42341 0.08402 0.0
C1707 C 0.45149 0.45749 0.11228 0.0
C1708 C 0.44784 0.44259 0.13143 0.0
H1709 H 0.44309 0.46025 0.07496 0.0
H1710 H 0.4634 0.4766 0.11525 0.0
S1711 S 0.40749 0.37684 0.12801 0.0
N1712 N 0.40546 0.3843 0.1001 0.0
N1713 N 0.42646 0.40197 0.14399 0.0
C1714 C 0.4322 0.41785 0.12662 0.0
C1715 C 0.4207 0.40826 0.10286 0.0
C1716 C 0.66686 0.77363 0.42314 0.0
C1717 C 0.65897 0.74904 0.42117 0.0
C1718 C 0.66262 0.78437 0.44355 0.0
C1719 C 0.6508 0.77102 0.46306 0.0
H1720 H 0.67685 0.78476 0.409 0.0
H1721 H 0.66934 0.80347 0.44441 0.0
S1722 S 0.62696 0.70585 0.46669 0.0
N1723 N 0.63836 0.7114 0.43987 0.0
N1724 N 0.6313 0.73167 0.47893 0.0
C1725 C 0.64229 0.74619 0.46097 0.0
C1726 C 0.6462 0.73519 0.43986 0.0
C1727 C 0.23507 0.9043 0.46265 0.0
C1728 C 0.25753 0.90733 0.45974 0.0
C1729 C 0.22197 0.89263 0.4822 0.0
C1730 C 0.23079 0.88364 0.49993 0.0
H1731 H 0.22726 0.91065 0.44947 0.0
H1732 H 0.20457 0.89031 0.48316 0.0
S1733 S 0.28942 0.88843 0.50184 0.0
N1734 N 0.28841 0.90107 0.4768 0.0
N1735 N 0.26407 0.87973 0.51397 0.0
C1736 C 0.25342 0.88687 0.49751 0.0
C1737 C 0.26669 0.89857 0.47737 0.0
C1738 C 0.11007 0.32121 0.43203 0.0
C1739 C 0.10196 0.33738 0.42893 0.0
C1740 C 0.12042 0.32053 0.45451 0.0
C1741 C 0.12299 0.33587 0.4749 0.0
H1742 H 0.10838 0.3089 0.41696 0.0
H1743 H 0.12642 0.3078 0.45594 0.0
S1744 S 0.10357 0.38066 0.47693 0.0
N1745 N 0.09684 0.36884 0.44843 0.0
N1746 N 0.11578 0.36713 0.49078 0.0
C1747 C 0.11498 0.35214 0.47209 0.0
C1748 C 0.10461 0.353 0.44912 0.0
C1749 C 0.08577 0.31757 0.27824 0.0
C1750 C 0.09786 0.33483 0.29797 0.0
C1751 C 0.09638 0.31853 0.25623 0.0
C1752 C 0.11952 0.33675 0.25311 0.0
H1753 H 0.06784 0.30337 0.27966 0.0
H1754 H 0.08631 0.30504 0.24145 0.0
S1755 S 0.15977 0.38465 0.30002 0.0
N1756 N 0.13492 0.36978 0.31336 0.0
N1757 N 0.15481 0.37127 0.27232 0.0
C1758 C 0.13199 0.35374 0.27289 0.0
C1759 C 0.1212 0.35286 0.2952 0.0
C1760 C 0.68335 0.74681 0.28122 0.0
C1761 C 0.69812 0.75857 0.30248 0.0
C1762 C 0.68408 0.7593 0.26089 0.0
C1763 C 0.69934 0.78416 0.26108 0.0
H1764 H 0.67069 0.72784 0.28048 0.0
H1765 H 0.67209 0.74947 0.24509 0.0
S1766 S 0.74189 0.82331 0.31226 0.0
N1767 N 0.7291 0.79631 0.32227 0.0
N1768 N 0.72995 0.82001 0.28436 0.0
C1769 C 0.71481 0.79602 0.28194 0.0
C1770 C 0.71431 0.78318 0.30256 0.0
C1771 C 0.24801 0.88828 0.32197 0.0
C1772 C 0.25508 0.91203 0.33011 0.0
C1773 C 0.23744 0.87874 0.29843 0.0
C1774 C 0.23352 0.89255 0.282 0.0
H1775 H 0.25078 0.87691 0.33382 0.0
H1776 H 0.23242 0.86042 0.29298 0.0
S1777 S 0.2492 0.95585 0.29382 0.0
N1778 N 0.25741 0.94918 0.3196 0.0
N1779 N 0.23787 0.93129 0.27525 0.0
C1780 C 0.24026 0.91623 0.28989 0.0
C1781 C 0.25096 0.92595 0.31393 0.0
C1782 C 0.66505 0.91081 0.31108 0.0
C1783 C 0.68264 0.92268 0.33023 0.0
C1784 C 0.6686 0.89975 0.2905 0.0
C1785 C 0.68982 0.89982 0.28821 0.0
H1786 H 0.64833 0.91015 0.31184 0.0
H1787 H 0.65459 0.89122 0.27613 0.0
S1788 S 0.7414 0.92783 0.33338 0.0
N1789 N 0.72217 0.93376 0.34562 0.0
N1790 N 0.72866 0.91245 0.307 0.0
C1791 C 0.70767 0.91167 0.30712 0.0
C1792 C 0.70412 0.92318 0.3281 0.0
C1793 C 0.09812 0.75356 0.2725 0.0
C1794 C 0.08788 0.76401 0.2869 0.0
C1795 C 0.11148 0.76504 0.25302 0.0
C1796 C 0.11537 0.78758 0.24718 0.0
H1797 H 0.09596 0.73638 0.27639 0.0
H1798 H 0.11898 0.75622 0.24255 0.0
S1799 S 0.09289 0.82296 0.27945 0.0
N1800 N 0.08248 0.79825 0.29384 0.0
N1801 N 0.10808 0.8201 0.25763 0.0
C1802 C 0.10498 0.79813 0.2612 0.0
C1803 C 0.09115 0.7863 0.28094 0.0
C1804 C 0.24477 0.31987 0.30031 0.0
C1805 C 0.2433 0.33194 0.32154 0.0
C1806 C 0.23415 0.32008 0.27779 0.0
C1807 C 0.22128 0.33199 0.2757 0.0
H1808 H 0.25489 0.3109 0.30091 0.0
H1809 H 0.23666 0.3114 0.26177 0.0
S1810 S 0.20947 0.36341 0.32673 0.0
N1811 N 0.22661 0.3546 0.33958 0.0
N1812 N 0.20572 0.35406 0.29753 0.0
C1813 C 0.21878 0.34318 0.2971 0.0
C1814 C 0.23 0.34337 0.31993 0.0
C1815 C 0.22993 0.31863 0.45496 0.0
C1816 C 0.2532 0.33668 0.45215 0.0
C1817 C 0.21906 0.31767 0.47667 0.0
C1818 C 0.23105 0.33454 0.49671 0.0
H1819 H 0.21979 0.30527 0.44009 0.0
H1820 H 0.20093 0.30375 0.47758 0.0
S1821 S 0.29293 0.38438 0.4995 0.0
N1822 N 0.28823 0.37138 0.47162 0.0
N1823 N 0.26805 0.36915 0.51273 0.0
C1824 C 0.2545 0.35248 0.49433 0.0
C1825 C 0.2655 0.35363 0.47203 0.0
C1826 C 0.66668 0.92704 0.47459 0.0
C1827 C 0.65175 0.91567 0.45334 0.0
C1828 C 0.66591 0.9142 0.49465 0.0
C1829 C 0.65048 0.88934 0.49416 0.0
H1830 H 0.67948 0.94598 0.47551 0.0
H1831 H 0.67795 0.92378 0.51048 0.0
S1832 S 0.60775 0.85113 0.44264 0.0
N1833 N 0.62062 0.87833 0.43313 0.0
N1834 N 0.61973 0.85389 0.47041 0.0
C1835 C 0.63496 0.87786 0.47322 0.0
C1836 C 0.63547 0.89109 0.45292 0.0
C1837 C 0.10299 0.78258 0.42413 0.0
C1838 C 0.0924 0.75803 0.41692 0.0
C1839 C 0.11373 0.79177 0.44768 0.0
C1840 C 0.11414 0.77676 0.46509 0.0
H1841 H 0.10293 0.79486 0.41149 0.0
H1842 H 0.12164 0.8108 0.45235 0.0
S1843 S 0.08802 0.71095 0.45582 0.0
N1844 N 0.0828 0.71879 0.42921 0.0
N1845 N 0.10241 0.73596 0.47369 0.0
C1846 C 0.10374 0.75217 0.45811 0.0
C1847 C 0.09301 0.74283 0.434 0.0
C1848 C 0.35348 0.09209 0.7761 0.0
C1849 C 0.33675 0.08354 0.75607 0.0
C1850 C 0.35113 0.1039 0.79687 0.0
C1851 C 0.33221 0.10815 0.79829 0.0
H1852 H 0.36844 0.0894 0.77585 0.0
H1853 H 0.36423 0.10961 0.81204 0.0
S1854 S 0.28434 0.09054 0.74995 0.0
N1855 N 0.30081 0.08037 0.73858 0.0
N1856 N 0.29686 0.10354 0.77725 0.0
C1857 C 0.3154 0.09982 0.77824 0.0
C1858 C 0.31758 0.08733 0.75723 0.0
C1859 C 0.91848 0.24956 0.81067 0.0
C1860 C 0.92768 0.23929 0.7945 0.0
C1861 C 0.90518 0.23714 0.82975 0.0
C1862 C 0.90028 0.2138 0.83345 0.0
H1863 H 0.92129 0.26728 0.80838 0.0
H1864 H 0.89835 0.24579 0.84152 0.0
S1865 S 0.92044 0.17884 0.7965 0.0
N1866 N 0.93147 0.20457 0.78388 0.0
N1867 N 0.90598 0.18098 0.8195 0.0
C1868 C 0.90989 0.20352 0.81787 0.0
C1869 C 0.92368 0.2163 0.79848 0.0
C1870 C 0.77377 0.68517 0.77912 0.0
C1871 C 0.77086 0.66901 0.75938 0.0
C1872 C 0.78391 0.68492 0.80196 0.0
C1873 C 0.79169 0.6686 0.80589 0.0
H1874 H 0.76737 0.69753 0.7772 0.0
H1875 H 0.78491 0.69702 0.81689 0.0
S1876 S 0.79131 0.62501 0.75923 0.0
N1877 N 0.77867 0.63778 0.74469 0.0
N1878 N 0.79808 0.63768 0.7874 0.0
C1879 C 0.78999 0.65321 0.78597 0.0
C1880 C 0.77952 0.65333 0.76279 0.0
C1881 C 0.769 0.68409 0.61544 0.0
C1882 C 0.7598 0.6633 0.6282 0.0
C1883 C 0.78045 0.6859 0.59395 0.0
C1884 C 0.78345 0.66711 0.58441 0.0
H1885 H 0.76744 0.6992 0.62216 0.0
H1886 H 0.78717 0.70229 0.58482 0.0
S1887 S 0.76338 0.60911 0.61141 0.0
N1888 N 0.75453 0.62351 0.62979 0.0
N1889 N 0.7767 0.62718 0.58987 0.0
C1890 C 0.77417 0.64612 0.5969 0.0
C1891 C 0.76222 0.64415 0.61866 0.0
C1892 C 0.34163 0.09444 0.6255 0.0
C1893 C 0.35965 0.08977 0.63232 0.0
C1894 C 0.34273 0.10678 0.60501 0.0
C1895 C 0.36177 0.11484 0.59013 0.0
H1896 H 0.32646 0.08866 0.63619 0.0
H1897 H 0.32849 0.11015 0.60089 0.0
S1898 S 0.41349 0.107 0.59964 0.0
N1899 N 0.39731 0.09433 0.62262 0.0
N1900 N 0.39914 0.11714 0.58353 0.0
C1901 C 0.3801 0.11053 0.59676 0.0
C1902 C 0.37908 0.09807 0.61794 0.0
C1903 C 0.92769 0.23899 0.6489 0.0
C1904 C 0.92037 0.25076 0.66551 0.0
C1905 C 0.91642 0.23022 0.62556 0.0
C1906 C 0.8971 0.23254 0.61785 0.0
H1907 H 0.94251 0.23676 0.65382 0.0
H1908 H 0.92311 0.22176 0.61334 0.0
S1909 S 0.87025 0.26091 0.65474 0.0
N1910 N 0.89234 0.26398 0.6728 0.0
N1911 N 0.87065 0.24684 0.62901 0.0
C1912 C 0.88947 0.24416 0.63428 0.0
C1913 C 0.90119 0.25339 0.65807 0.0
C1914 C 0.33353 0.2404 0.63932 0.0
C1915 C 0.35195 0.25408 0.65728 0.0
C1916 C 0.33674 0.22882 0.61895 0.0
C1917 C 0.35844 0.23018 0.6157 0.0
H1918 H 0.31645 0.2388 0.64081 0.0
H1919 H 0.32211 0.21898 0.60541 0.0
S1920 S 0.41211 0.26284 0.65783 0.0
N1921 N 0.39267 0.26803 0.67068 0.0
N1922 N 0.39854 0.24576 0.63248 0.0
C1923 C 0.37704 0.24369 0.63352 0.0
C1924 C 0.37383 0.25573 0.65427 0.0
C1925 C 0.7548 0.08853 0.59886 0.0
C1926 C 0.75209 0.10071 0.61923 0.0
C1927 C 0.76786 0.10086 0.57955 0.0
C1928 C 0.77928 0.126 0.58005 0.0
H1929 H 0.74697 0.06927 0.59797 0.0
H1930 H 0.76931 0.09058 0.56427 0.0
S1931 S 0.7782 0.16628 0.62995 0.0
N1932 N 0.76156 0.13914 0.63885 0.0
N1933 N 0.78715 0.1626 0.60325 0.0
C1934 C 0.77641 0.13837 0.60029 0.0
C1935 C 0.7626 0.12567 0.61971 0.0
C1936 C 0.89994 0.67797 0.65145 0.0
C1937 C 0.90844 0.6622 0.65496 0.0
C1938 C 0.88982 0.67839 0.62874 0.0
C1939 C 0.88793 0.6632 0.6085 0.0
H1940 H 0.90136 0.69036 0.66631 0.0
H1941 H 0.88373 0.69101 0.62692 0.0
S1942 S 0.90776 0.61875 0.60785 0.0
N1943 N 0.91404 0.63076 0.63628 0.0
N1944 N 0.89554 0.63198 0.59342 0.0
C1945 C 0.89593 0.64699 0.61184 0.0
C1946 C 0.90605 0.6464 0.63509 0.0
C1947 C 0.92891 0.68773 0.80599 0.0
C1948 C 0.91605 0.6728 0.78499 0.0
C1949 C 0.91795 0.6867 0.82781 0.0
C1950 C 0.8937 0.67087 0.82932 0.0
H1951 H 0.94767 0.6998 0.80578 0.0
H1952 H 0.92863 0.69801 0.84373 0.0
S1953 S 0.85164 0.63079 0.77828 0.0
N1954 N 0.87745 0.64333 0.76646 0.0
N1955 N 0.85682 0.64199 0.80694 0.0
C1956 C 0.88053 0.65671 0.80805 0.0
C1957 C 0.8917 0.65752 0.78605 0.0
C1958 C 0.30785 0.22912 0.78359 0.0
C1959 C 0.32596 0.25288 0.78209 0.0
C1960 C 0.30713 0.21652 0.80395 0.0
C1961 C 0.32442 0.2273 0.82356 0.0
H1962 H 0.29483 0.21981 0.76842 0.0
H1963 H 0.29359 0.19789 0.80383 0.0
S1964 S 0.37299 0.29042 0.83041 0.0
N1965 N 0.3599 0.28752 0.80323 0.0
N1966 N 0.35824 0.26405 0.84157 0.0
C1967 C 0.34162 0.25153 0.82297 0.0
C1968 C 0.34247 0.26425 0.80223 0.0
C1969 C 0.78021 0.09365 0.75502 0.0
C1970 C 0.75647 0.08628 0.74925 0.0
C1971 C 0.79057 0.10287 0.77882 0.0
C1972 C 0.77743 0.1047 0.79762 0.0
H1973 H 0.791 0.09304 0.74091 0.0
H1974 H 0.80912 0.10918 0.78235 0.0
S1975 S 0.71358 0.08387 0.79251 0.0
N1976 N 0.71959 0.07919 0.76456 0.0
N1977 N 0.73866 0.09545 0.80931 0.0
C1978 C 0.75333 0.09608 0.79223 0.0
C1979 C 0.74297 0.08714 0.76803 0.0
C1980 C 0.0871 0.39196 0.08855 0.0
C1981 C 0.07242 0.37645 0.06868 0.0
C1982 C 0.10107 0.38614 0.1032 0.0
C1983 C 0.10135 0.36475 0.0984 0.0
H1984 H 0.08755 0.40864 0.09313 0.0
H1985 H 0.11177 0.39861 0.11848 0.0
S1986 S 0.06685 0.31851 0.04761 0.0
N1987 N 0.05897 0.33883 0.04474 0.0
N1988 N 0.08613 0.32832 0.07151 0.0
C1989 C 0.08677 0.34907 0.07844 0.0
C1990 C 0.07213 0.35483 0.06377 0.0
C1991 C 0.66442 0.70332 0.10458 0.0
C1992 C 0.6437 0.69238 0.08898 0.0
C1993 C 0.67274 0.72605 0.11665 0.0
C1994 C 0.66065 0.73857 0.11347 0.0
H1995 H 0.67373 0.69388 0.10831 0.0
H1996 H 0.68822 0.73346 0.12923 0.0
S1997 S 0.60795 0.71968 0.07151 0.0
N1998 N 0.61289 0.69711 0.06896 0.0
N1999 N 0.62872 0.73979 0.09136 0.0
C2000 C 0.64079 0.72848 0.09681 0.0
C2001 C 0.63227 0.7054 0.08464 0.0
C2002 C 0.32454 0.92049 0.0626 0.0
C2003 C 0.32879 0.94022 0.04951 0.0
C2004 C 0.30405 0.90818 0.07495 0.0
C2005 C 0.28664 0.91474 0.07447 0.0
H2006 H 0.33755 0.915 0.06411 0.0
H2007 H 0.30223 0.89379 0.08559 0.0
S2008 S 0.28813 0.96356 0.04047 0.0
N2009 N 0.31338 0.96502 0.03559 0.0
N2010 N 0.2743 0.94119 0.0579 0.0
C2011 C 0.29027 0.93391 0.06063 0.0
C2012 C 0.31142 0.94677 0.04836 0.0
C2013 C 0.36251 0.05922 0.01647 0.0
C2014 C 0.38529 0.06395 0.01208 0.0
C2015 C 0.35366 0.07314 0.00699 0.0
C2016 C 0.36712 0.09204 0.99243 0.0
H2017 H 0.3515 0.04473 0.02739 0.0
H2018 H 0.33612 0.06904 0.01105 0.0
S2019 S 0.42684 0.10975 0.97327 0.0
N2020 N 0.42064 0.08798 0.99121 0.0
N2021 N 0.40373 0.1133 0.97253 0.0
C2022 C 0.38976 0.09654 0.98752 0.0
C2023 C 0.39889 0.08271 0.99754 0.0
C2024 C 0.92058 0.29494 0.99855 0.0
C2025 C 0.94491 0.30387 1.00211 0.0
C2026 C 0.90558 0.27253 0.98628 0.0
C2027 C 0.91422 0.25807 0.97685 0.0
H2028 H 0.913 0.3055 1.00496 0.0
H2029 H 0.887 0.26656 0.98395 0.0
S2030 S 0.97638 0.27269 0.98172 0.0
N2031 N 0.9769 0.29607 0.99584 0.0
N2032 N 0.94862 0.25398 0.9724 0.0
C2033 C 0.93839 0.26638 0.98087 0.0
C2034 C 0.95374 0.28926 0.99355 0.0
C2035 C 0.69306 0.60093 0.02431 0.0
C2036 C 0.6909 0.61732 0.0402 0.0
C2037 C 0.71279 0.60811 0.01071 0.0
C2038 C 0.73151 0.63196 0.01266 0.0
H2039 H 0.67896 0.58249 0.02159 0.0
H2040 H 0.713 0.5949 0.99802 0.0
S2041 S 0.73569 0.68134 0.05393 0.0
N2042 N 0.70973 0.6582 0.05826 0.0
N2043 N 0.74737 0.67155 0.03357 0.0
C2044 C 0.72999 0.64838 0.02926 0.0
C2045 C 0.70961 0.6411 0.04282 0.0
C2046 C 0.91487 0.61721 0.01499 0.0
C2047 C 0.9392 0.63221 0.02055 0.0
C2048 C 0.90208 0.62408 0.99983 0.0
C2049 C 0.91302 0.64622 0.98945 0.0
H2050 H 0.90557 0.59977 0.02209 0.0
H2051 H 0.88339 0.61184 0.99614 0.0
S2052 S 0.9762 0.69243 0.99845 0.0
N2053 N 0.97367 0.67067 0.01482 0.0
N2054 N 0.94956 0.68339 0.9861 0.0
C2055 C 0.93721 0.66171 0.99527 0.0
C2056 C 0.9503 0.65475 0.01083 0.0
C2057 C 0.34812 0.30418 0.97775 0.0
C2058 C 0.36966 0.31606 0.99204 0.0
C2059 C 0.33989 0.28136 0.96595 0.0
C2060 C 0.35295 0.26973 0.96804 0.0
H2061 H 0.33795 0.3129 0.97492 0.0
H2062 H 0.32366 0.27315 0.95444 0.0
S2063 S 0.40844 0.29131 0.00615 0.0
N2064 N 0.40251 0.31315 0.00959 0.0
N2065 N 0.38695 0.2704 0.98752 0.0
C2066 C 0.37378 0.2808 0.9833 0.0
C2067 C 0.38216 0.30393 0.99527 0.0
C2068 C 0.68859 0.0832 0.01718 0.0
C2069 C 0.68483 0.06407 0.03103 0.0
C2070 C 0.70859 0.09491 1.00395 0.0
C2071 C 0.72599 0.08832 1.0043 0.0
H2072 H 0.6755 0.08861 0.01571 0.0
H2073 H 0.71002 0.10881 0.99277 0.0
S2074 S 0.72579 0.04111 0.0402 0.0
N2075 N 0.70074 0.03992 0.04558 0.0
N2076 N 0.73894 0.06264 0.02167 0.0
C2077 C 0.72289 0.06981 0.01895 0.0
C2078 C 0.70222 0.05757 0.03209 0.0
C2079 C 0.62272 0.92046 0.06723 0.0
C2080 C 0.63611 0.9456 0.06839 0.0
C2081 C 0.63143 0.907 0.07789 0.0
C2082 C 0.6539 0.91808 0.09018 0.0
H2083 H 0.60501 0.91104 0.05866 0.0
H2084 H 0.6202 0.88774 0.07707 0.0
S2085 S 0.69669 0.98325 0.09725 0.0
N2086 N 0.67366 0.98097 0.08167 0.0
N2087 N 0.68982 0.95561 0.10205 0.0
C2088 C 0.66794 0.9431 0.09055 0.0
C2089 C 0.6591 0.95686 0.07959 0.0
C2090 C 0.06897 0.71689 0.07253 0.0
C2091 C 0.05962 0.69629 0.08546 0.0
C2092 C 0.08546 0.73934 0.08414 0.0
C2093 C 0.09291 0.74183 0.10906 0.0
H2094 H 0.06423 0.71549 0.05318 0.0
H2095 H 0.09312 0.75466 0.0733 0.0
S2096 S 0.07079 0.69339 0.15138 0.0
N2097 N 0.05727 0.67979 0.12459 0.0
N2098 N 0.08747 0.72193 0.14669 0.0
C2099 C 0.08253 0.7214 0.12235 0.0
C2100 C 0.06609 0.69863 0.11046 0.0
C2101 C 0.30761 0.36417 0.04888 0.0
C2102 C 0.31883 0.38697 0.03975 0.0
C2103 C 0.28798 0.35672 0.0628 0.0
C2104 C 0.27885 0.3718 0.06816 0.0
H2105 H 0.31464 0.35234 0.0462 0.0
H2106 H 0.28056 0.33947 0.07034 0.0
S2107 S 0.29927 0.4316 0.04561 0.0
N2108 N 0.31753 0.42345 0.03496 0.0
N2109 N 0.2807 0.40934 0.06101 0.0
C2110 C 0.28895 0.39398 0.05794 0.0
C2111 C 0.30888 0.40158 0.04375 0.0
C2112 C 0.74394 0.69804 0.40287 0.0
C2113 C 0.74305 0.71874 0.40974 0.0
C2114 C 0.75798 0.69157 0.4167 0.0
C2115 C 0.7713 0.70534 0.43814 0.0
H2116 H 0.73423 0.68713 0.38635 0.0
H2117 H 0.75887 0.67602 0.41017 0.0
S2118 S 0.77204 0.75917 0.46583 0.0
N2119 N 0.75504 0.75183 0.44037 0.0
N2120 N 0.78053 0.73918 0.46684 0.0
C2121 C 0.7696 0.72544 0.44575 0.0
C2122 C 0.75571 0.73226 0.43145 0.0
C2123 C 0.32923 0.03166 0.43777 0.0
C2124 C 0.31063 0.02123 0.41948 0.0
C2125 C 0.33725 0.05479 0.44861 0.0
C2126 C 0.32708 0.06831 0.44133 0.0
H2127 H 0.33687 0.02147 0.44458 0.0
H2128 H 0.35081 0.06173 0.46345 0.0
S2129 S 0.28095 0.05076 0.39105 0.0
N2130 N 0.28419 0.02718 0.39263 0.0
N2131 N 0.29974 0.07082 0.41237 0.0
C2132 C 0.30962 0.05866 0.42188 0.0
C2133 C 0.30127 0.03508 0.41112 0.0
C2134 C 0.98406 0.28704 0.39283 0.0
C2135 C 0.9946 0.27472 0.38237 0.0
C2136 C 0.96421 0.27538 0.4064 0.0
C2137 C 0.95418 0.25097 0.41014 0.0
H2138 H 0.99171 0.30608 0.39137 0.0
H2139 H 0.9573 0.28579 0.41491 0.0
S2140 S 0.97274 0.20969 0.38396 0.0
N2141 N 0.99179 0.236 0.37476 0.0
N2142 N 0.95458 0.21427 0.40021 0.0
C2143 C 0.96366 0.23814 0.39869 0.0
C2144 C 0.9838 0.24994 0.3848 0.0
C2145 C 0.06141 0.41881 0.35024 0.0
C2146 C 0.04786 0.39367 0.349 0.0
C2147 C 0.05275 0.43246 0.33989 0.0
C2148 C 0.03015 0.42157 0.32791 0.0
H2149 H 0.07918 0.42808 0.35862 0.0
H2150 H 0.06407 0.4517 0.34075 0.0
S2151 S 0.98705 0.35652 0.3205 0.0
N2152 N 0.01011 0.35853 0.33573 0.0
N2153 N 0.99404 0.38425 0.31605 0.0
C2154 C 0.016 0.39657 0.32738 0.0
C2155 C 0.0248 0.38261 0.33797 0.0
C2156 C 0.59791 0.64046 0.31279 0.0
C2157 C 0.61563 0.64328 0.33 0.0
C2158 C 0.58134 0.61797 0.30174 0.0
C2159 C 0.58157 0.5972 0.30756 0.0
H2160 H 0.59678 0.6558 0.30767 0.0
H2161 H 0.56813 0.61685 0.28855 0.0
S2162 S 0.62411 0.59464 0.35168 0.0
N2163 N 0.63261 0.62336 0.35221 0.0
N2164 N 0.60097 0.58084 0.33185 0.0
C2165 C 0.59935 0.5997 0.32453 0.0
C2166 C 0.61646 0.62277 0.33567 0.0
C2167 C 0.36959 0.93681 0.36798 0.0
C2168 C 0.36103 0.95227 0.3742 0.0
C2169 C 0.38897 0.94399 0.35378 0.0
C2170 C 0.40074 0.96699 0.34527 0.0
H2171 H 0.3608 0.91867 0.37341 0.0
H2172 H 0.39454 0.93125 0.34906 0.0
S2173 S 0.38632 0.01486 0.3573 0.0
N2174 N 0.36672 0.99221 0.37155 0.0
N2175 N 0.40298 0.00553 0.34476 0.0
C2176 C 0.39303 0.98299 0.35213 0.0
C2177 C 0.37325 0.97569 0.3666 0.0
C2178 C 0.58163 0.94834 0.34989 0.0
C2179 C 0.60628 0.96261 0.35246 0.0
C2180 C 0.56801 0.95442 0.33498 0.0
C2181 C 0.57844 0.97486 0.32164 0.0
H2182 H 0.57274 0.93213 0.3593 0.0
H2183 H 0.54909 0.94287 0.33381 0.0
S2184 S 0.64241 0.01809 0.32171 0.0
N2185 N 0.64062 0.99832 0.34063 0.0
N2186 N 0.61509 0.00937 0.312 0.0
C2187 C 0.60308 0.98953 0.32433 0.0
C2188 C 0.61696 0.98349 0.33985 0.0
C2189 C 0.04668 0.63701 0.33208 0.0
C2190 C 0.03509 0.64955 0.32628 0.0
C2191 C 0.03877 0.61389 0.32159 0.0
C2192 C 0.01916 0.60245 0.3045 0.0
H2193 H 0.06226 0.64526 0.34459 0.0
H2194 H 0.04841 0.60507 0.32662 0.0
S2195 S 0.98235 0.62745 0.28338 0.0
N2196 N 1.00246 0.64856 0.30305 0.0
N2197 N 0.98803 0.60535 0.28262 0.0
C2198 C 0.00695 0.6145 0.29906 0.0
C2199 C 0.01483 0.63799 0.31008 0.0
C2200 C 0.36301 0.38371 0.35293 0.0
C2201 C 0.35291 0.39578 0.36487 0.0
C2202 C 0.38296 0.39596 0.33963 0.0
C2203 C 0.39352 0.42074 0.3377 0.0
H2204 H 0.35495 0.36448 0.35302 0.0
H2205 H 0.38955 0.38581 0.32993 0.0
S2206 S 0.37621 0.46133 0.36824 0.0
N2207 N 0.35667 0.43448 0.37582 0.0
N2208 N 0.39407 0.45733 0.35089 0.0
C2209 C 0.38446 0.43322 0.35062 0.0
C2210 C 0.36421 0.42081 0.3642 0.0
C2211 C 0.32089 0.28526 0.40915 0.0
C2212 C 0.29809 0.2743 0.3975 0.0
C2213 C 0.32967 0.27162 0.41942 0.0
C2214 C 0.31598 0.24654 0.41839 0.0
H2215 H 0.33167 0.30456 0.41137 0.0
H2216 H 0.34682 0.28083 0.42926 0.0
S2217 S 0.2568 0.2089 0.38669 0.0
N2218 N 0.26312 0.23661 0.38322 0.0
N2219 N 0.27974 0.21115 0.40241 0.0
C2220 C 0.29382 0.2353 0.40548 0.0
C2221 C 0.28486 0.24913 0.39504 0.0
C2222 C 0.73512 0.04908 0.41624 0.0
C2223 C 0.73491 0.02861 0.42397 0.0
C2224 C 0.75161 0.07203 0.42681 0.0
C2225 C 0.76826 0.07523 0.44563 0.0
H2226 H 0.72284 0.04742 0.40157 0.0
H2227 H 0.7517 0.0874 0.41979 0.0
S2228 S 0.77272 0.02713 0.47486 0.0
N2229 N 0.75143 0.01291 0.45307 0.0
N2230 N 0.78182 0.05579 0.47323 0.0
C2231 C 0.76747 0.05479 0.45422 0.0
C2232 C 0.75096 0.03156 0.44332 0.0
C2233 C 0.97707 0.73447 0.37844 0.0
C2234 C 0.98593 0.71924 0.37245 0.0
C2235 C 0.95753 0.72704 0.3924 0.0
C2236 C 0.94595 0.70405 0.40092 0.0
H2237 H 0.98578 0.75264 0.3731 0.0
H2238 H 0.95179 0.73966 0.39709 0.0
S2239 S 0.96093 0.65658 0.38901 0.0
N2240 N 0.98054 0.6794 0.37495 0.0
N2241 N 0.94398 0.66563 0.40138 0.0
C2242 C 0.95383 0.68819 0.39409 0.0
C2243 C 0.97377 0.69573 0.37982 0.0
C2244 C 0.39897 0.02178 0.74271 0.0
C2245 C 0.40977 0.0413 0.72818 0.0
C2246 C 0.41244 0.01573 0.75803 0.0
C2247 C 0.43716 0.02891 0.75928 0.0
H2248 H 0.38001 0.01177 0.74308 0.0
H2249 H 0.40344 1.00116 0.76959 0.0
S2250 S 0.4738 0.07896 0.72177 0.0
N2251 N 0.44655 0.07211 0.71408 0.0
N2252 N 0.47176 0.06035 0.74225 0.0
C2253 C 0.44808 0.04751 0.7437 0.0
C2254 C 0.43442 0.0538 0.72833 0.0
C2255 C 0.96301 0.36608 0.76089 0.0
C2256 C 0.97715 0.3555 0.7599 0.0
C2257 C 0.97139 0.3888 0.77262 0.0
C2258 C 0.99424 0.40195 0.78401 0.0
H2259 H 0.9451 0.35658 0.75286 0.0
H2260 H 0.95973 0.39606 0.77297 0.0
S2261 S 0.03873 0.38289 0.78606 0.0
N2262 N 0.01556 0.36038 0.77063 0.0
N2263 N 0.03119 0.40311 0.79303 0.0
C2264 C 0.00889 0.39201 0.78256 0.0
C2265 C 1.00037 0.36879 0.77045 0.0
C2266 C 0.65124 0.58197 0.72045 0.0
C2267 C 0.66061 0.60612 0.71571 0.0
C2268 C 0.63144 0.57025 0.73398 0.0
C2269 C 0.62007 0.58212 0.74325 0.0
H2270 H 0.65973 0.57218 0.71444 0.0
H2271 H 0.62526 0.55184 0.73764 0.0
S2272 S 0.63638 0.64485 0.73462 0.0
N2273 N 0.65595 0.64107 0.72018 0.0
N2274 N 0.61891 0.61904 0.7458 0.0
C2275 C 0.62853 0.60591 0.73773 0.0
C2276 C 0.64874 0.6179 0.72394 0.0
C2277 C 0.72694 0.74901 0.68129 0.0
C2278 C 0.71276 0.72423 0.68314 0.0
C2279 C 0.71798 0.76218 0.67044 0.0
C2280 C 0.69444 0.75118 0.66103 0.0
H2281 H 0.74541 0.75825 0.6874 0.0
H2282 H 0.7298 0.78105 0.66874 0.0
S2283 S 0.64929 0.68725 0.66314 0.0
N2284 N 0.67336 0.68955 0.67624 0.0
N2285 N 0.65668 0.71435 0.65558 0.0
C2286 C 0.67968 0.72672 0.66395 0.0
C2287 C 0.6888 0.71324 0.67505 0.0
C2288 C 0.26788 0.9741 0.6428 0.0
C2289 C 0.28301 0.97651 0.6628 0.0
C2290 C 0.25181 0.95166 0.63128 0.0
C2291 C 0.24975 0.93053 0.63961 0.0
H2292 H 0.26852 0.98975 0.63585 0.0
H2293 H 0.2407 0.95087 0.61582 0.0
S2294 S 0.28526 0.92721 0.69174 0.0
N2295 N 0.29546 0.95613 0.69029 0.0
N2296 N 0.26434 0.91362 0.66944 0.0
C2297 C 0.26504 0.93271 0.65949 0.0
C2298 C 0.28184 0.95576 0.67091 0.0
C2299 C 0.03009 0.26699 0.69092 0.0
C2300 C 0.02823 0.28303 0.70763 0.0
C2301 C 0.04989 0.27431 0.67747 0.0
C2302 C 0.06899 0.29793 0.68036 0.0
H2303 H 0.0157 0.24876 0.68742 0.0
H2304 H 0.04984 0.26141 0.66413 0.0
S2305 S 0.07399 0.34631 0.72382 0.0
N2306 N 0.04771 0.32331 0.7274 0.0
N2307 N 0.08549 0.33689 0.70288 0.0
C2308 C 0.06777 0.31398 0.69773 0.0
C2309 C 0.04731 0.30657 0.71119 0.0
C2310 C 0.27194 0.31082 0.68638 0.0
C2311 C 0.27742 0.29369 0.67733 0.0
C2312 C 0.25826 0.31727 0.67188 0.0
C2313 C 0.25006 0.3072 0.64767 0.0
H2314 H 0.27762 0.31869 0.70498 0.0
H2315 H 0.25352 0.32972 0.67996 0.0
S2316 S 0.26316 0.26432 0.61454 0.0
N2317 N 0.27551 0.26827 0.64235 0.0
N2318 N 0.25103 0.28127 0.61467 0.0
C2319 C 0.25664 0.29099 0.63815 0.0
C2320 C 0.27002 0.28404 0.65308 0.0
C2321 C 0.72163 0.97939 0.63716 0.0
C2322 C 0.70819 0.98458 0.65294 0.0
C2323 C 0.71341 0.95616 0.62684 0.0
C2324 C 0.69153 0.93696 0.63217 0.0
H2325 H 0.73863 0.99347 0.63247 0.0
H2326 H 0.72437 0.95326 0.61452 0.0
S2327 S 0.64988 0.94095 0.67323 0.0
N2328 N 0.67191 0.96874 0.6735 0.0
N2329 N 0.65677 0.92474 0.65492 0.0
C2330 C 0.67784 0.9419 0.64795 0.0
C2331 C 0.6861 0.96576 0.65816 0.0
C2332 C 0.03444 0.72664 0.69832 0.0
C2333 C 0.01586 0.7314 0.69628 0.0
C2334 C 0.05465 0.73908 0.68535 0.0
C2335 C 0.05687 0.75646 0.66951 0.0
H2336 H 0.03338 0.71323 0.71004 0.0
H2337 H 0.06865 0.73504 0.68778 0.0
S2338 S 0.01182 0.77347 0.65564 0.0
N2339 N 1.00042 0.75379 0.67627 0.0
N2340 N 0.03766 0.77623 0.65118 0.0
C2341 C 0.03811 0.76095 0.66697 0.0
C2342 C 0.01781 0.74866 0.68051 0.0
C2343 C 0.94976 0.58878 0.74939 0.0
C2344 C 0.96338 0.60902 0.73664 0.0
C2345 C 0.95922 0.57553 0.75889 0.0
C2346 C 0.98264 0.5816 0.75567 0.0
H2347 H 0.93177 0.58352 0.7528 0.0
H2348 H 0.94816 0.56074 0.76945 0.0
S2349 S 0.02506 0.63178 0.7215 0.0
N2350 N 1.00116 0.63402 0.72026 0.0
N2351 N 0.01875 0.60843 0.73715 0.0
C2352 C 0.99629 0.60143 0.74225 0.0
C2353 C 0.98671 0.61525 0.73295 0.0
C2354 C 0.3957 0.37704 0.75887 0.0
C2355 C 0.40317 0.36485 0.74303 0.0
C2356 C 0.41191 0.39934 0.77093 0.0
C2357 C 0.43607 0.41026 0.7673 0.0
H2358 H 0.37742 0.36873 0.76298 0.0
H2359 H 0.40562 0.40759 0.78392 0.0
S2360 S 0.46368 0.38754 0.72402 0.0
N2361 N 0.43572 0.36639 0.72222 0.0
N2362 N 0.466 0.40867 0.74394 0.0
C2363 C 0.4434 0.39895 0.7501 0.0
C2364 C 0.427 0.37615 0.73821 0.0
C2365 C 0.63777 0.02916 0.71157 0.0
C2366 C 0.6496 0.05228 0.70323 0.0
C2367 C 0.61845 0.02196 0.72593 0.0
C2368 C 0.61024 0.03761 0.7325 0.0
H2369 H 0.64418 0.01691 0.70805 0.0
H2370 H 0.61061 0.00444 0.73289 0.0
S2371 S 0.63238 0.0985 0.71209 0.0
N2372 N 0.64978 0.08973 0.70033 0.0
N2373 N 0.61347 0.07608 0.72711 0.0
C2374 C 0.62088 0.06014 0.72296 0.0
C2375 C 0.64051 0.06748 0.70837 0.0
loop_
_geom_bond_atom_site_label_1
_geom_bond_atom_site_label_2
_geom_bond_distance
_geom_bond_site_symmetry_2
_ccdc_geom_bond_type
O0 Cd1 2.223 . S
O0 C8 1.315 . S
Cd1 O0 2.223 . S
Cd1 O4 2.297 . S
Cd1 O5 2.439 . S
Cd1 O11 2.238 1_554 S
Cd2 O3 2.240 . S
Cd2 O10 2.223 . S
Cd2 O12 2.297 1_554 S
Cd2 O13 2.439 . S
O3 Cd2 2.240 . S
O3 C8 1.279 1_655 S
O4 Cd1 2.297 . S
O4 C6 1.247 . S
O5 Cd1 2.439 . S
O5 C6 1.208 . S
C6 O4 1.247 . S
C6 O5 1.208 . S
C7 O12 1.247 . S
C7 O13 1.208 1_556 S
C8 O0 1.315 . S
C8 O3 1.279 1_455 S
C9 O10 1.315 1_556 S
C9 O11 1.280 1_655 S
O10 Cd2 2.223 . S
O10 C9 1.315 1_554 S
O11 Cd1 2.238 1_556 S
O11 C9 1.280 1_455 S
O12 Cd2 2.297 1_556 S
O12 C7 1.247 . S
O13 Cd2 2.439 . S
O13 C7 1.208 1_554 S
O14 Cd15 2.223 . S
O14 C22 1.315 . S
Cd15 O14 2.223 . S
Cd15 O18 2.297 . S
Cd15 O19 2.439 . S
Cd15 O25 2.240 . S
Cd16 O17 2.240 . S
Cd16 O24 2.223 . S
Cd16 O26 2.297 . S
Cd16 O27 2.439 . S
O17 Cd16 2.240 . S
O17 C22 1.279 . S
O18 Cd15 2.297 . S
O18 C20 1.247 . S
O19 Cd15 2.439 . S
O19 C20 1.208 . S
C20 O18 1.247 . S
C20 O19 1.208 . S
C21 O26 1.247 . S
C21 O27 1.208 . S
C22 O14 1.315 . S
C22 O17 1.279 . S
C23 O24 1.315 . S
C23 O25 1.279 . S
O24 Cd16 2.223 . S
O24 C23 1.315 . S
O25 Cd15 2.240 . S
O25 C23 1.279 . S
O26 Cd16 2.297 . S
O26 C21 1.247 . S
O27 Cd16 2.439 . S
O27 C21 1.208 . S
O28 Cd29 2.223 . S
O28 C36 1.311 1_544 S
Cd29 O28 2.223 . S
Cd29 O32 2.297 1_554 S
Cd29 O33 2.439 . S
Cd29 O39 2.240 . S
Cd30 O31 2.214 1_554 S
Cd30 O38 2.223 . S
Cd30 O40 2.297 . S
Cd30 O41 2.439 . S
O31 Cd30 2.214 1_556 S
O31 C36 1.288 . S
O32 Cd29 2.297 1_556 S
O32 C34 1.247 . S
O33 Cd29 2.439 . S
O33 C34 1.208 1_554 S
C34 O32 1.247 . S
C34 O33 1.208 1_556 S
C35 O40 1.247 . S
C35 O41 1.208 . S
C36 O28 1.311 1_566 S
C36 O31 1.288 . S
C37 O38 1.360 . S
C37 O39 1.235 1_565 S
O38 Cd30 2.223 . S
O38 C37 1.360 . S
O39 Cd29 2.240 . S
O39 C37 1.235 1_545 S
O40 Cd30 2.297 . S
O40 C35 1.247 . S
O41 Cd30 2.439 . S
O41 C35 1.208 . S
O42 Cd43 2.223 . S
O42 C50 1.315 . S
Cd43 O42 2.223 . S
Cd43 O46 2.297 . S
Cd43 O47 2.439 . S
Cd43 O53 2.240 . S
Cd44 O45 2.240 . S
Cd44 O52 2.223 . S
Cd44 O54 2.297 . S
Cd44 O55 2.439 . S
O45 Cd44 2.240 . S
O45 C50 1.279 1_455 S
O46 Cd43 2.297 . S
O46 C48 1.247 . S
O47 Cd43 2.439 . S
O47 C48 1.208 . S
C48 O46 1.247 . S
C48 O47 1.208 . S
C49 O54 1.247 . S
C49 O55 1.208 . S
C50 O42 1.315 . S
C50 O45 1.279 1_655 S
C51 O52 1.315 . S
C51 O53 1.279 1_455 S
O52 Cd44 2.223 . S
O52 C51 1.315 . S
O53 Cd43 2.240 . S
O53 C51 1.279 1_655 S
O54 Cd44 2.297 . S
O54 C49 1.247 . S
O55 Cd44 2.439 . S
O55 C49 1.208 . S
O56 Cd57 2.212 1_556 S
O56 C64 1.315 . S
Cd57 O56 2.212 1_554 S
Cd57 O60 2.281 1_554 S
Cd57 O61 2.431 1_554 S
Cd57 O67 2.256 . S
Cd58 O59 2.240 1_554 S
Cd58 O66 2.223 . S
Cd58 O68 2.297 . S
Cd58 O69 2.439 . S
O59 Cd58 2.240 1_556 S
O59 C64 1.279 . S
O60 Cd57 2.281 1_556 S
O60 C62 1.247 . S
O61 Cd57 2.431 1_556 S
O61 C62 1.208 . S
C62 O60 1.247 . S
C62 O61 1.208 . S
C63 O68 1.247 . S
C63 O69 1.208 . S
C64 O56 1.315 . S
C64 O59 1.279 . S
C65 O66 1.315 . S
C65 O67 1.279 . S
O66 Cd58 2.223 . S
O66 C65 1.315 . S
O67 Cd57 2.256 . S
O67 C65 1.279 . S
O68 Cd58 2.297 . S
O68 C63 1.247 . S
O69 Cd58 2.439 . S
O69 C63 1.208 . S
O70 Cd71 2.223 . S
O70 C78 1.302 1_565 S
Cd71 O70 2.223 . S
Cd71 O74 2.297 . S
Cd71 O75 2.439 . S
Cd71 O81 2.240 . S
Cd72 O73 2.240 . S
Cd72 O80 2.223 . S
Cd72 O82 2.297 . S
Cd72 O83 2.439 . S
O73 Cd72 2.240 . S
O73 C78 1.279 . S
O74 Cd71 2.297 . S
O74 C76 1.247 . S
O75 Cd71 2.439 . S
O75 C76 1.208 . S
C76 O74 1.247 . S
C76 O75 1.208 . S
C77 O82 1.247 . S
C77 O83 1.208 . S
C78 O70 1.302 1_545 S
C78 O73 1.279 . S
C79 O80 1.315 . S
C79 O81 1.279 1_545 S
O80 Cd72 2.223 . S
O80 C79 1.315 . S
O81 Cd71 2.240 . S
O81 C79 1.279 1_565 S
O82 Cd72 2.297 . S
O82 C77 1.247 . S
O83 Cd72 2.439 . S
O83 C77 1.208 . S
O84 Cd85 2.223 . S
O84 C92 1.315 . S
Cd85 O84 2.223 . S
Cd85 O88 2.297 . S
Cd85 O89 2.439 . S
Cd85 O95 2.240 . S
Cd86 O87 2.240 . S
Cd86 O94 2.223 . S
Cd86 O96 2.297 . S
Cd86 O97 2.439 . S
O87 Cd86 2.240 . S
O87 C92 1.279 . S
O88 Cd85 2.297 . S
O88 C90 1.247 . S
O89 Cd85 2.439 . S
O89 C90 1.208 . S
C90 O88 1.247 . S
C90 O89 1.208 . S
C91 O96 1.247 . S
C91 O97 1.208 . S
C92 O84 1.315 . S
C92 O87 1.279 . S
C93 O94 1.315 . S
C93 O95 1.279 . S
O94 Cd86 2.223 . S
O94 C93 1.315 . S
O95 Cd85 2.240 . S
O95 C93 1.279 . S
O96 Cd86 2.297 . S
O96 C91 1.247 . S
O97 Cd86 2.439 . S
O97 C91 1.208 . S
O98 Cd99 2.223 . S
O98 C106 1.315 . S
Cd99 O98 2.223 . S
Cd99 O102 2.297 . S
Cd99 O103 2.439 . S
Cd99 O109 2.240 . S
Cd100 O101 2.240 . S
Cd100 O108 2.223 . S
Cd100 O110 2.297 . S
Cd100 O111 2.439 . S
O101 Cd100 2.240 . S
O101 C106 1.279 . S
O102 Cd99 2.297 . S
O102 C104 1.247 1_565 S
O103 Cd99 2.439 . S
O103 C104 1.207 1_565 S
C104 O102 1.247 1_545 S
C104 O103 1.207 1_545 S
C105 O110 1.247 . S
C105 O111 1.208 . S
C106 O98 1.315 . S
C106 O101 1.279 . S
C107 O108 1.315 . S
C107 O109 1.279 . S
O108 Cd100 2.223 . S
O108 C107 1.315 . S
O109 Cd99 2.240 . S
O109 C107 1.279 . S
O110 Cd100 2.297 . S
O110 C105 1.247 . S
O111 Cd100 2.439 . S
O111 C105 1.208 . S
O112 Cd113 2.223 . S
O112 C120 1.315 . S
Cd113 O112 2.223 . S
Cd113 O116 2.297 . S
Cd113 O117 2.439 . S
Cd113 O123 2.240 . S
Cd114 O115 2.240 . S
Cd114 O122 2.223 . S
Cd114 O124 2.297 . S
Cd114 O125 2.439 . S
O115 Cd114 2.240 . S
O115 C120 1.279 . S
O116 Cd113 2.297 . S
O116 C118 1.247 . S
O117 Cd113 2.439 . S
O117 C118 1.208 . S
C118 O116 1.247 . S
C118 O117 1.208 . S
C119 O124 1.244 1_655 S
C119 O125 1.209 1_655 S
C120 O112 1.315 . S
C120 O115 1.279 . S
C121 O122 1.315 . S
C121 O123 1.279 . S
O122 Cd114 2.223 . S
O122 C121 1.315 . S
O123 Cd113 2.240 . S
O123 C121 1.279 . S
O124 Cd114 2.297 . S
O124 C119 1.244 1_455 S
O125 Cd114 2.439 . S
O125 C119 1.209 1_455 S
O126 Cd127 2.223 . S
O126 C134 1.315 . S
Cd127 O126 2.223 . S
Cd127 O130 2.297 . S
Cd127 O131 2.439 . S
Cd127 O137 2.240 . S
Cd128 O129 2.240 . S
Cd128 O136 2.223 . S
Cd128 O138 2.297 1_565 S
Cd128 O139 2.439 1_565 S
O129 Cd128 2.240 . S
O129 C134 1.279 . S
O130 Cd127 2.297 . S
O130 C132 1.247 . S
O131 Cd127 2.439 . S
O131 C132 1.208 . S
C132 O130 1.247 . S
C132 O131 1.208 . S
C133 O138 1.247 . S
C133 O139 1.208 . S
C134 O126 1.315 . S
C134 O129 1.279 . S
C135 O136 1.315 . S
C135 O137 1.279 . S
O136 Cd128 2.223 . S
O136 C135 1.315 . S
O137 Cd127 2.240 . S
O137 C135 1.279 . S
O138 Cd128 2.297 1_545 S
O138 C133 1.247 . S
O139 Cd128 2.439 1_545 S
O139 C133 1.208 . S
O140 Cd141 2.223 . S
O140 C148 1.315 . S
Cd141 O140 2.223 . S
Cd141 O144 2.297 . S
Cd141 O145 2.439 . S
Cd141 O151 2.240 . S
Cd142 O143 2.240 . S
Cd142 O150 2.223 . S
Cd142 O152 2.276 1_455 S
Cd142 O153 2.439 1_455 S
O143 Cd142 2.240 . S
O143 C148 1.279 . S
O144 Cd141 2.297 . S
O144 C146 1.247 . S
O145 Cd141 2.439 . S
O145 C146 1.208 . S
C146 O144 1.247 . S
C146 O145 1.208 . S
C147 O152 1.246 . S
C147 O153 1.208 . S
C148 O140 1.315 . S
C148 O143 1.279 . S
C149 O150 1.315 . S
C149 O151 1.279 . S
O150 Cd142 2.223 . S
O150 C149 1.315 . S
O151 Cd141 2.240 . S
O151 C149 1.279 . S
O152 Cd142 2.276 1_655 S
O152 C147 1.246 . S
O153 Cd142 2.439 1_655 S
O153 C147 1.208 . S
O154 Cd155 2.223 . S
O154 C162 1.315 . S
Cd155 O154 2.223 . S
Cd155 O158 2.297 . S
Cd155 O159 2.439 . S
Cd155 O165 2.240 . S
Cd156 O157 2.240 . S
Cd156 O164 2.223 . S
Cd156 O166 2.297 . S
Cd156 O167 2.439 . S
O157 Cd156 2.240 . S
O157 C162 1.279 . S
O158 Cd155 2.297 . S
O158 C160 1.247 . S
O159 Cd155 2.439 . S
O159 C160 1.208 . S
C160 O158 1.247 . S
C160 O159 1.208 . S
C161 O166 1.247 . S
C161 O167 1.208 . S
C162 O154 1.315 . S
C162 O157 1.279 . S
C163 O164 1.315 . S
C163 O165 1.279 . S
O164 Cd156 2.223 . S
O164 C163 1.315 . S
O165 Cd155 2.240 . S
O165 C163 1.279 . S
O166 Cd156 2.297 . S
O166 C161 1.247 . S
O167 Cd156 2.439 . S
O167 C161 1.208 . S
O168 Cd169 2.223 . S
O168 C176 1.315 . S
Cd169 O168 2.223 . S
Cd169 O172 2.297 . S
Cd169 O173 2.439 . S
Cd169 O179 2.240 . S
Cd170 O171 2.240 . S
Cd170 O178 2.223 . S
Cd170 O180 2.297 1_545 S
Cd170 O181 2.439 1_545 S
O171 Cd170 2.240 . S
O171 C176 1.279 . S
O172 Cd169 2.297 . S
O172 C174 1.247 . S
O173 Cd169 2.439 . S
O173 C174 1.208 . S
C174 O172 1.247 . S
C174 O173 1.208 . S
C175 O180 1.247 . S
C175 O181 1.208 . S
C176 O168 1.315 . S
C176 O171 1.279 . S
C177 O178 1.315 . S
C177 O179 1.279 . S
O178 Cd170 2.223 . S
O178 C177 1.315 . S
O179 Cd169 2.240 . S
O179 C177 1.279 . S
O180 Cd170 2.297 1_565 S
O180 C175 1.247 . S
O181 Cd170 2.439 1_565 S
O181 C175 1.208 . S
O182 Cd183 2.223 . S
O182 C190 1.315 . S
Cd183 O182 2.223 . S
Cd183 O186 2.297 . S
Cd183 O187 2.439 . S
Cd183 O193 2.240 . S
Cd184 O185 2.240 . S
Cd184 O192 2.223 . S
Cd184 O194 2.297 1_655 S
Cd184 O195 2.439 1_655 S
O185 Cd184 2.240 . S
O185 C190 1.279 . S
O186 Cd183 2.297 . S
O186 C188 1.247 . S
O187 Cd183 2.439 . S
O187 C188 1.208 . S
C188 O186 1.247 . S
C188 O187 1.208 . S
C189 O194 1.247 . S
C189 O195 1.208 . S
C190 O182 1.315 . S
C190 O185 1.279 . S
C191 O192 1.315 . S
C191 O193 1.279 . S
O192 Cd184 2.223 . S
O192 C191 1.315 . S
O193 Cd183 2.240 . S
O193 C191 1.279 . S
O194 Cd184 2.297 1_455 S
O194 C189 1.247 . S
O195 Cd184 2.439 1_455 S
O195 C189 1.208 . S
O196 Cd197 2.223 . S
O196 C204 1.315 . S
Cd197 O196 2.223 . S
Cd197 O200 2.297 . S
Cd197 O201 2.439 . S
Cd197 O207 2.240 . S
Cd198 O199 2.240 . S
Cd198 O206 2.223 . S
Cd198 O208 2.297 . S
Cd198 O209 2.439 . S
O199 Cd198 2.240 . S
O199 C204 1.279 . S
O200 Cd197 2.297 . S
O200 C202 1.247 . S
O201 Cd197 2.439 . S
O201 C202 1.208 . S
C202 O200 1.247 . S
C202 O201 1.208 . S
C203 O208 1.247 . S
C203 O209 1.208 . S
C204 O196 1.315 . S
C204 O199 1.279 . S
C205 O206 1.315 . S
C205 O207 1.279 . S
O206 Cd198 2.223 . S
O206 C205 1.315 . S
O207 Cd197 2.240 . S
O207 C205 1.279 . S
O208 Cd198 2.297 . S
O208 C203 1.247 . S
O209 Cd198 2.439 . S
O209 C203 1.208 . S
O210 Cd211 2.223 . S
O210 C218 1.315 . S
Cd211 O210 2.223 . S
Cd211 O214 2.297 . S
Cd211 O215 2.439 . S
Cd211 O221 2.240 . S
Cd212 O213 2.240 . S
Cd212 O220 2.223 . S
Cd212 O222 2.297 . S
Cd212 O223 2.439 . S
O213 Cd212 2.240 . S
O213 C218 1.279 . S
O214 Cd211 2.297 . S
O214 C216 1.247 . S
O215 Cd211 2.439 . S
O215 C216 1.208 . S
C216 O214 1.247 . S
C216 O215 1.208 . S
C217 O222 1.247 . S
C217 O223 1.208 . S
C218 O210 1.315 . S
C218 O213 1.279 . S
C219 O220 1.315 . S
C219 O221 1.279 . S
O220 Cd212 2.223 . S
O220 C219 1.315 . S
O221 Cd211 2.240 . S
O221 C219 1.279 . S
O222 Cd212 2.297 . S
O222 C217 1.247 . S
O223 Cd212 2.439 . S
O223 C217 1.208 . S
O224 Cd225 2.223 . S
O224 C232 1.315 . S
Cd225 O224 2.223 . S
Cd225 O228 2.297 . S
Cd225 O229 2.438 . S
Cd225 O235 2.240 . S
Cd226 O227 2.240 . S
Cd226 O234 2.223 . S
Cd226 O236 2.297 . S
Cd226 O237 2.439 . S
O227 Cd226 2.240 . S
O227 C232 1.279 . S
O228 Cd225 2.297 . S
O228 C230 1.247 1_545 S
O229 Cd225 2.438 . S
O229 C230 1.210 1_545 S
C230 O228 1.247 1_565 S
C230 O229 1.210 1_565 S
C231 O236 1.247 . S
C231 O237 1.208 . S
C232 O224 1.315 . S
C232 O227 1.279 . S
C233 O234 1.315 . S
C233 O235 1.279 . S
O234 Cd226 2.223 . S
O234 C233 1.315 . S
O235 Cd225 2.240 . S
O235 C233 1.279 . S
O236 Cd226 2.297 . S
O236 C231 1.247 . S
O237 Cd226 2.439 . S
O237 C231 1.208 . S
O238 Cd239 2.223 . S
O238 C246 1.315 . S
Cd239 O238 2.223 . S
Cd239 O242 2.297 . S
Cd239 O243 2.439 . S
Cd239 O249 2.240 . S
Cd240 O241 2.240 . S
Cd240 O248 2.223 . S
Cd240 O250 2.297 . S
Cd240 O251 2.439 . S
O241 Cd240 2.240 . S
O241 C246 1.279 . S
O242 Cd239 2.297 . S
O242 C244 1.247 . S
O243 Cd239 2.439 . S
O243 C244 1.208 . S
C244 O242 1.247 . S
C244 O243 1.208 . S
C245 O250 1.222 1_455 S
C245 O251 1.211 1_455 S
C246 O238 1.315 . S
C246 O241 1.279 . S
C247 O248 1.315 . S
C247 O249 1.279 . S
O248 Cd240 2.223 . S
O248 C247 1.315 . S
O249 Cd239 2.240 . S
O249 C247 1.279 . S
O250 Cd240 2.297 . S
O250 C245 1.222 1_655 S
O251 Cd240 2.439 . S
O251 C245 1.211 1_655 S
H252 O278 0.856 . S
H253 O281 0.854 . S
H254 C289 0.930 . S
H255 C290 0.930 . S
H256 C292 0.930 . S
H257 C293 0.930 . S
H258 C295 0.931 . S
H259 C296 0.930 . S
H260 C298 0.930 . S
H261 C299 0.929 . S
H262 C301 0.930 . S
H263 C302 0.931 . S
H264 C304 0.930 . S
H265 C305 0.929 . S
H266 C307 0.931 . S
H267 C308 0.930 . S
H268 C310 0.930 . S
H269 C311 0.932 . S
H270 C313 0.930 . S
H271 C314 0.929 . S
H272 C316 0.931 . S
H273 C317 0.930 . S
H274 C319 0.929 . S
H275 C320 0.931 . S
H276 C322 0.930 . S
H277 C323 0.929 . S
O278 H252 0.856 . S
O278 C324 1.300 . S
O279 C324 1.209 . S
O280 C325 1.199 . S
O281 H253 0.854 . S
O281 C325 1.297 . S
C282 C283 1.404 . S
C282 C287 1.397 . S
C282 C288 1.492 . S
C283 C282 1.404 . S
C283 C284 1.396 . S
C283 C294 1.492 . S
C284 C283 1.396 . S
C284 C285 1.397 . S
C284 C300 1.509 . S
C285 C284 1.397 . S
C285 C286 1.412 . S
C285 C306 1.485 . S
C286 C285 1.412 . S
C286 C287 1.388 . S
C286 C312 1.490 . S
C287 C282 1.397 . S
C287 C286 1.388 . S
C287 C318 1.519 . S
C288 C282 1.492 . S
C288 C289 1.363 . S
C288 C293 1.390 . S
C289 H254 0.930 . S
C289 C288 1.363 . S
C289 C290 1.372 . S
C290 H255 0.930 . S
C290 C289 1.372 . S
C290 C291 1.383 . S
C291 C290 1.383 . S
C291 C292 1.395 . S
C292 H256 0.930 . S
C292 C291 1.395 . S
C292 C293 1.362 . S
C293 H257 0.930 . S
C293 C288 1.390 . S
C293 C292 1.362 . S
C294 C283 1.492 . S
C294 C295 1.377 . S
C294 C299 1.397 . S
C295 H258 0.931 . S
C295 C294 1.377 . S
C295 C296 1.376 . S
C296 H259 0.930 . S
C296 C295 1.376 . S
C296 C297 1.376 . S
C297 C296 1.376 . S
C297 C298 1.378 . S
C297 C324 1.486 . S
C298 H260 0.930 . S
C298 C297 1.378 . S
C298 C299 1.376 . S
C299 H261 0.929 . S
C299 C294 1.397 . S
C299 C298 1.376 . S
C300 C284 1.509 . S
C300 C301 1.391 . S
C300 C305 1.386 . S
C301 H262 0.930 . S
C301 C300 1.391 . S
C301 C302 1.375 . S
C302 H263 0.931 . S
C302 C301 1.375 . S
C302 C303 1.375 . S
C303 C302 1.375 . S
C303 C304 1.361 . S
C304 H264 0.930 . S
C304 C303 1.361 . S
C304 C305 1.399 . S
C305 H265 0.929 . S
C305 C300 1.386 . S
C305 C304 1.399 . S
C306 C285 1.485 . S
C306 C307 1.394 . S
C306 C311 1.360 . S
C307 H266 0.931 . S
C307 C306 1.394 . S
C307 C308 1.372 . S
C308 H267 0.930 . S
C308 C307 1.372 . S
C308 C309 1.397 . S
C309 C308 1.397 . S
C309 C310 1.390 . S
C309 C325 1.476 . S
C310 H268 0.930 . S
C310 C309 1.390 . S
C310 C311 1.366 . S
C311 H269 0.932 . S
C311 C306 1.360 . S
C311 C310 1.366 . S
C312 C286 1.490 . S
C312 C313 1.380 . S
C312 C317 1.386 . S
C313 H270 0.930 . S
C313 C312 1.380 . S
C313 C314 1.381 . S
C314 H271 0.929 . S
C314 C313 1.381 . S
C314 C315 1.371 . S
C315 C314 1.371 . S
C315 C316 1.380 . S
C316 H272 0.931 . S
C316 C315 1.380 . S
C316 C317 1.387 . S
C317 H273 0.930 . S
C317 C312 1.386 . S
C317 C316 1.387 . S
C318 C287 1.519 . S
C318 C319 1.377 . S
C318 C323 1.361 . S
C319 H274 0.929 . S
C319 C318 1.377 . S
C319 C320 1.386 . S
C320 H275 0.931 . S
C320 C319 1.386 . S
C320 C321 1.363 . S
C321 C320 1.363 . S
C321 C322 1.385 . S
C322 H276 0.930 . S
C322 C321 1.385 . S
C322 C323 1.396 . S
C323 H277 0.929 . S
C323 C318 1.361 . S
C323 C322 1.396 . S
C324 O278 1.300 . S
C324 O279 1.209 . S
C324 C297 1.486 . S
C325 O280 1.199 . S
C325 O281 1.297 . S
C325 C309 1.476 . S
H326 O352 0.856 . S
H327 O355 0.854 . S
H328 C363 0.930 . S
H329 C364 0.930 . S
H330 C366 0.930 . S
H331 C367 0.930 . S
H332 C369 0.931 . S
H333 C370 0.930 . S
H334 C372 0.930 . S
H335 C373 0.929 . S
H336 C375 0.930 . S
H337 C376 0.931 . S
H338 C378 0.930 . S
H339 C379 0.929 . S
H340 C381 0.931 . S
H341 C382 0.930 . S
H342 C384 0.930 . S
H343 C385 0.932 . S
H344 C387 0.930 . S
H345 C388 0.929 . S
H346 C390 0.931 . S
H347 C391 0.930 . S
H348 C393 0.929 . S
H349 C394 0.931 . S
H350 C396 0.930 . S
H351 C397 0.929 . S
O352 H326 0.856 . S
O352 C398 1.300 . S
O353 C398 1.209 . S
O354 C399 1.199 . S
O355 H327 0.854 . S
O355 C399 1.297 . S
C356 C357 1.404 . S
C356 C361 1.397 . S
C356 C362 1.492 . S
C357 C356 1.404 . S
C357 C358 1.396 . S
C357 C368 1.492 . S
C358 C357 1.396 . S
C358 C359 1.397 . S
C358 C374 1.509 . S
C359 C358 1.397 . S
C359 C360 1.412 . S
C359 C380 1.485 . S
C360 C359 1.412 . S
C360 C361 1.388 . S
C360 C386 1.490 . S
C361 C356 1.397 . S
C361 C360 1.388 . S
C361 C392 1.519 . S
C362 C356 1.492 . S
C362 C363 1.363 . S
C362 C367 1.390 . S
C363 H328 0.930 . S
C363 C362 1.363 . S
C363 C364 1.372 . S
C364 H329 0.930 . S
C364 C363 1.372 . S
C364 C365 1.383 . S
C365 C364 1.383 . S
C365 C366 1.395 . S
C366 H330 0.930 . S
C366 C365 1.395 . S
C366 C367 1.362 . S
C367 H331 0.930 . S
C367 C362 1.390 . S
C367 C366 1.362 . S
C368 C357 1.492 . S
C368 C369 1.377 . S
C368 C373 1.397 . S
C369 H332 0.931 . S
C369 C368 1.377 . S
C369 C370 1.376 . S
C370 H333 0.930 . S
C370 C369 1.376 . S
C370 C371 1.376 . S
C371 C370 1.376 . S
C371 C372 1.378 . S
C371 C398 1.486 . S
C372 H334 0.930 . S
C372 C371 1.378 . S
C372 C373 1.376 . S
C373 H335 0.929 . S
C373 C368 1.397 . S
C373 C372 1.376 . S
C374 C358 1.509 . S
C374 C375 1.391 . S
C374 C379 1.386 . S
C375 H336 0.930 . S
C375 C374 1.391 . S
C375 C376 1.375 . S
C376 H337 0.931 . S
C376 C375 1.375 . S
C376 C377 1.375 . S
C377 C376 1.375 . S
C377 C378 1.361 . S
C378 H338 0.930 . S
C378 C377 1.361 . S
C378 C379 1.399 . S
C379 H339 0.929 . S
C379 C374 1.386 . S
C379 C378 1.399 . S
C380 C359 1.485 . S
C380 C381 1.394 . S
C380 C385 1.360 . S
C381 H340 0.931 . S
C381 C380 1.394 . S
C381 C382 1.372 . S
C382 H341 0.930 . S
C382 C381 1.372 . S
C382 C383 1.397 . S
C383 C382 1.397 . S
C383 C384 1.390 . S
C383 C399 1.476 . S
C384 H342 0.930 . S
C384 C383 1.390 . S
C384 C385 1.366 . S
C385 H343 0.932 . S
C385 C380 1.360 . S
C385 C384 1.366 . S
C386 C360 1.490 . S
C386 C387 1.380 . S
C386 C391 1.386 . S
C387 H344 0.930 . S
C387 C386 1.380 . S
C387 C388 1.381 . S
C388 H345 0.929 . S
C388 C387 1.381 . S
C388 C389 1.371 . S
C389 C388 1.371 . S
C389 C390 1.380 . S
C390 H346 0.931 . S
C390 C389 1.380 . S
C390 C391 1.387 . S
C391 H347 0.930 . S
C391 C386 1.386 . S
C391 C390 1.387 . S
C392 C361 1.519 . S
C392 C393 1.377 . S
C392 C397 1.361 . S
C393 H348 0.929 . S
C393 C392 1.377 . S
C393 C394 1.386 . S
C394 H349 0.931 . S
C394 C393 1.386 . S
C394 C395 1.363 . S
C395 C394 1.363 . S
C395 C396 1.385 . S
C396 H350 0.930 . S
C396 C395 1.385 . S
C396 C397 1.396 . S
C397 H351 0.929 . S
C397 C392 1.361 . S
C397 C396 1.396 . S
C398 O352 1.300 . S
C398 O353 1.209 . S
C398 C371 1.486 . S
C399 O354 1.199 . S
C399 O355 1.297 . S
C399 C383 1.476 . S
H400 O426 0.856 . S
H401 O429 0.854 . S
H402 C437 0.930 . S
H403 C438 0.930 . S
H404 C440 0.930 . S
H405 C441 0.930 . S
H406 C443 0.931 . S
H407 C444 0.930 . S
H408 C446 0.930 . S
H409 C447 0.929 . S
H410 C449 0.930 . S
H411 C450 0.931 . S
H412 C452 0.930 . S
H413 C453 0.929 . S
H414 C455 0.931 . S
H415 C456 0.930 . S
H416 C458 0.930 . S
H417 C459 0.932 . S
H418 C461 0.930 . S
H419 C462 0.929 . S
H420 C464 0.931 . S
H421 C465 0.930 . S
H422 C467 0.929 . S
H423 C468 0.931 . S
H424 C470 0.930 . S
H425 C471 0.929 . S
O426 H400 0.856 . S
O426 C472 1.300 . S
O427 C472 1.209 . S
O428 C473 1.199 . S
O429 H401 0.854 . S
O429 C473 1.297 . S
C430 C431 1.404 . S
C430 C435 1.397 . S
C430 C436 1.492 . S
C431 C430 1.404 . S
C431 C432 1.396 . S
C431 C442 1.492 . S
C432 C431 1.396 . S
C432 C433 1.397 . S
C432 C448 1.509 . S
C433 C432 1.397 . S
C433 C434 1.412 . S
C433 C454 1.485 . S
C434 C433 1.412 . S
C434 C435 1.388 . S
C434 C460 1.490 . S
C435 C430 1.397 . S
C435 C434 1.388 . S
C435 C466 1.519 . S
C436 C430 1.492 . S
C436 C437 1.363 . S
C436 C441 1.390 . S
C437 H402 0.930 . S
C437 C436 1.363 . S
C437 C438 1.372 . S
C438 H403 0.930 . S
C438 C437 1.372 . S
C438 C439 1.383 . S
C439 C438 1.383 . S
C439 C440 1.395 . S
C440 H404 0.930 . S
C440 C439 1.395 . S
C440 C441 1.362 . S
C441 H405 0.930 . S
C441 C436 1.390 . S
C441 C440 1.362 . S
C442 C431 1.492 . S
C442 C443 1.377 . S
C442 C447 1.397 . S
C443 H406 0.931 . S
C443 C442 1.377 . S
C443 C444 1.376 . S
C444 H407 0.930 . S
C444 C443 1.376 . S
C444 C445 1.376 . S
C445 C444 1.376 . S
C445 C446 1.378 . S
C445 C472 1.486 . S
C446 H408 0.930 . S
C446 C445 1.378 . S
C446 C447 1.376 . S
C447 H409 0.929 . S
C447 C442 1.397 . S
C447 C446 1.376 . S
C448 C432 1.509 . S
C448 C449 1.391 . S
C448 C453 1.386 . S
C449 H410 0.930 . S
C449 C448 1.391 . S
C449 C450 1.375 . S
C450 H411 0.931 . S
C450 C449 1.375 . S
C450 C451 1.375 . S
C451 C450 1.375 . S
C451 C452 1.361 . S
C452 H412 0.930 . S
C452 C451 1.361 . S
C452 C453 1.399 . S
C453 H413 0.929 . S
C453 C448 1.386 . S
C453 C452 1.399 . S
C454 C433 1.485 . S
C454 C455 1.394 . S
C454 C459 1.360 . S
C455 H414 0.931 . S
C455 C454 1.394 . S
C455 C456 1.372 . S
C456 H415 0.930 . S
C456 C455 1.372 . S
C456 C457 1.397 . S
C457 C456 1.397 . S
C457 C458 1.390 . S
C457 C473 1.476 . S
C458 H416 0.930 . S
C458 C457 1.390 . S
C458 C459 1.366 . S
C459 H417 0.932 . S
C459 C454 1.360 . S
C459 C458 1.366 . S
C460 C434 1.490 . S
C460 C461 1.380 . S
C460 C465 1.386 . S
C461 H418 0.930 . S
C461 C460 1.380 . S
C461 C462 1.381 . S
C462 H419 0.929 . S
C462 C461 1.381 . S
C462 C463 1.371 . S
C463 C462 1.371 . S
C463 C464 1.380 . S
C464 H420 0.931 . S
C464 C463 1.380 . S
C464 C465 1.387 . S
C465 H421 0.930 . S
C465 C460 1.386 . S
C465 C464 1.387 . S
C466 C435 1.519 . S
C466 C467 1.377 . S
C466 C471 1.361 . S
C467 H422 0.929 . S
C467 C466 1.377 . S
C467 C468 1.386 . S
C468 H423 0.931 . S
C468 C467 1.386 . S
C468 C469 1.363 . S
C469 C468 1.363 . S
C469 C470 1.385 . S
C470 H424 0.930 . S
C470 C469 1.385 . S
C470 C471 1.396 . S
C471 H425 0.929 . S
C471 C466 1.361 . S
C471 C470 1.396 . S
C472 O426 1.300 . S
C472 O427 1.209 . S
C472 C445 1.486 . S
C473 O428 1.199 . S
C473 O429 1.297 . S
C473 C457 1.476 . S
H474 O500 0.856 . S
H475 O503 0.854 . S
H476 C511 0.930 . S
H477 C512 0.930 . S
H478 C514 0.930 . S
H479 C515 0.930 . S
H480 C517 0.931 . S
H481 C518 0.930 . S
H482 C520 0.930 . S
H483 C521 0.929 . S
H484 C523 0.930 . S
H485 C524 0.931 . S
H486 C526 0.930 . S
H487 C527 0.929 . S
H488 C529 0.931 . S
H489 C530 0.930 . S
H490 C532 0.930 . S
H491 C533 0.932 . S
H492 C535 0.930 . S
H493 C536 0.929 . S
H494 C538 0.931 . S
H495 C539 0.930 . S
H496 C541 0.929 . S
H497 C542 0.931 . S
H498 C544 0.930 . S
H499 C545 0.929 . S
O500 H474 0.856 . S
O500 C546 1.300 . S
O501 C546 1.209 . S
O502 C547 1.199 . S
O503 H475 0.854 . S
O503 C547 1.297 . S
C504 C505 1.404 . S
C504 C509 1.397 . S
C504 C510 1.492 . S
C505 C504 1.404 . S
C505 C506 1.396 . S
C505 C516 1.492 . S
C506 C505 1.396 . S
C506 C507 1.397 . S
C506 C522 1.509 . S
C507 C506 1.397 . S
C507 C508 1.412 . S
C507 C528 1.485 . S
C508 C507 1.412 . S
C508 C509 1.388 . S
C508 C534 1.490 . S
C509 C504 1.397 . S
C509 C508 1.388 . S
C509 C540 1.519 . S
C510 C504 1.492 . S
C510 C511 1.363 . S
C510 C515 1.390 . S
C511 H476 0.930 . S
C511 C510 1.363 . S
C511 C512 1.372 . S
C512 H477 0.930 . S
C512 C511 1.372 . S
C512 C513 1.383 . S
C513 C512 1.383 . S
C513 C514 1.395 . S
C514 H478 0.930 . S
C514 C513 1.395 . S
C514 C515 1.362 . S
C515 H479 0.930 . S
C515 C510 1.390 . S
C515 C514 1.362 . S
C516 C505 1.492 . S
C516 C517 1.377 . S
C516 C521 1.397 . S
C517 H480 0.931 . S
C517 C516 1.377 . S
C517 C518 1.376 . S
C518 H481 0.930 . S
C518 C517 1.376 . S
C518 C519 1.376 . S
C519 C518 1.376 . S
C519 C520 1.378 . S
C519 C546 1.486 1_556 S
C520 H482 0.930 . S
C520 C519 1.378 . S
C520 C521 1.376 . S
C521 H483 0.929 . S
C521 C516 1.397 . S
C521 C520 1.376 . S
C522 C506 1.509 . S
C522 C523 1.391 . S
C522 C527 1.386 . S
C523 H484 0.930 . S
C523 C522 1.391 . S
C523 C524 1.375 . S
C524 H485 0.931 . S
C524 C523 1.375 . S
C524 C525 1.375 . S
C525 C524 1.375 . S
C525 C526 1.361 . S
C526 H486 0.930 . S
C526 C525 1.361 . S
C526 C527 1.399 . S
C527 H487 0.929 . S
C527 C522 1.386 . S
C527 C526 1.399 . S
C528 C507 1.485 . S
C528 C529 1.394 . S
C528 C533 1.360 . S
C529 H488 0.931 . S
C529 C528 1.394 . S
C529 C530 1.372 . S
C530 H489 0.930 . S
C530 C529 1.372 . S
C530 C531 1.397 . S
C531 C530 1.397 . S
C531 C532 1.390 . S
C531 C547 1.476 . S
C532 H490 0.930 . S
C532 C531 1.390 . S
C532 C533 1.366 . S
C533 H491 0.932 . S
C533 C528 1.360 . S
C533 C532 1.366 . S
C534 C508 1.490 . S
C534 C535 1.380 . S
C534 C539 1.386 . S
C535 H492 0.930 . S
C535 C534 1.380 . S
C535 C536 1.381 . S
C536 H493 0.929 . S
C536 C535 1.381 . S
C536 C537 1.371 . S
C537 C536 1.371 . S
C537 C538 1.380 . S
C538 H494 0.931 . S
C538 C537 1.380 . S
C538 C539 1.387 . S
C539 H495 0.930 . S
C539 C534 1.386 . S
C539 C538 1.387 . S
C540 C509 1.519 . S
C540 C541 1.377 . S
C540 C545 1.361 . S
C541 H496 0.929 . S
C541 C540 1.377 . S
C541 C542 1.386 . S
C542 H497 0.931 . S
C542 C541 1.386 . S
C542 C543 1.363 . S
C543 C542 1.363 . S
C543 C544 1.385 . S
C544 H498 0.930 . S
C544 C543 1.385 . S
C544 C545 1.396 . S
C545 H499 0.929 . S
C545 C540 1.361 . S
C545 C544 1.396 . S
C546 O500 1.300 . S
C546 O501 1.209 . S
C546 C519 1.486 1_554 S
C547 O502 1.199 . S
C547 O503 1.297 . S
C547 C531 1.476 . S
H548 O574 0.856 . S
H549 O577 0.854 1_565 S
H550 C585 0.930 . S
H551 C586 0.930 . S
H552 C588 0.930 . S
H553 C589 0.930 . S
H554 C591 0.931 . S
H555 C592 0.930 . S
H556 C594 0.930 . S
H557 C595 0.929 . S
H558 C597 0.930 . S
H559 C598 0.931 . S
H560 C600 0.930 . S
H561 C601 0.929 . S
H562 C603 0.931 . S
H563 C604 0.930 . S
H564 C606 0.930 . S
H565 C607 0.932 . S
H566 C609 0.930 . S
H567 C610 0.929 . S
H568 C612 0.931 . S
H569 C613 0.930 . S
H570 C615 0.929 . S
H571 C616 0.931 . S
H572 C618 0.930 . S
H573 C619 0.929 . S
O574 H548 0.856 . S
O574 C620 1.300 . S
O575 C620 1.209 . S
O576 C621 1.199 . S
O577 H549 0.854 1_545 S
O577 C621 1.297 . S
C578 C579 1.404 . S
C578 C583 1.397 . S
C578 C584 1.492 . S
C579 C578 1.404 . S
C579 C580 1.396 . S
C579 C590 1.492 . S
C580 C579 1.396 . S
C580 C581 1.397 . S
C580 C596 1.509 . S
C581 C580 1.397 . S
C581 C582 1.412 . S
C581 C602 1.485 . S
C582 C581 1.412 . S
C582 C583 1.388 . S
C582 C608 1.490 . S
C583 C578 1.397 . S
C583 C582 1.388 . S
C583 C614 1.519 . S
C584 C578 1.492 . S
C584 C585 1.363 . S
C584 C589 1.390 . S
C585 H550 0.930 . S
C585 C584 1.363 . S
C585 C586 1.372 . S
C586 H551 0.930 . S
C586 C585 1.372 . S
C586 C587 1.383 . S
C587 C586 1.383 . S
C587 C588 1.395 . S
C588 H552 0.930 . S
C588 C587 1.395 . S
C588 C589 1.362 . S
C589 H553 0.930 . S
C589 C584 1.390 . S
C589 C588 1.362 . S
C590 C579 1.492 . S
C590 C591 1.377 . S
C590 C595 1.397 . S
C591 H554 0.931 . S
C591 C590 1.377 . S
C591 C592 1.376 . S
C592 H555 0.930 . S
C592 C591 1.376 . S
C592 C593 1.376 . S
C593 C592 1.376 . S
C593 C594 1.378 . S
C593 C620 1.486 1_556 S
C594 H556 0.930 . S
C594 C593 1.378 . S
C594 C595 1.376 . S
C595 H557 0.929 . S
C595 C590 1.397 . S
C595 C594 1.376 . S
C596 C580 1.509 . S
C596 C597 1.391 . S
C596 C601 1.386 . S
C597 H558 0.930 . S
C597 C596 1.391 . S
C597 C598 1.375 . S
C598 H559 0.931 . S
C598 C597 1.375 . S
C598 C599 1.375 . S
C599 C598 1.375 . S
C599 C600 1.361 . S
C600 H560 0.930 . S
C600 C599 1.361 . S
C600 C601 1.399 . S
C601 H561 0.929 . S
C601 C596 1.386 . S
C601 C600 1.399 . S
C602 C581 1.485 . S
C602 C603 1.394 . S
C602 C607 1.360 . S
C603 H562 0.931 . S
C603 C602 1.394 . S
C603 C604 1.372 . S
C604 H563 0.930 . S
C604 C603 1.372 . S
C604 C605 1.397 . S
C605 C604 1.397 . S
C605 C606 1.390 . S
C605 C621 1.476 . S
C606 H564 0.930 . S
C606 C605 1.390 . S
C606 C607 1.366 . S
C607 H565 0.932 . S
C607 C602 1.360 . S
C607 C606 1.366 . S
C608 C582 1.490 . S
C608 C609 1.380 . S
C608 C613 1.386 . S
C609 H566 0.930 . S
C609 C608 1.380 . S
C609 C610 1.381 . S
C610 H567 0.929 . S
C610 C609 1.381 . S
C610 C611 1.371 . S
C611 C610 1.371 . S
C611 C612 1.380 . S
C612 H568 0.931 . S
C612 C611 1.380 . S
C612 C613 1.387 . S
C613 H569 0.930 . S
C613 C608 1.386 . S
C613 C612 1.387 . S
C614 C583 1.519 . S
C614 C615 1.377 . S
C614 C619 1.361 . S
C615 H570 0.929 . S
C615 C614 1.377 . S
C615 C616 1.386 . S
C616 H571 0.931 . S
C616 C615 1.386 . S
C616 C617 1.363 . S
C617 C616 1.363 . S
C617 C618 1.385 . S
C618 H572 0.930 . S
C618 C617 1.385 . S
C618 C619 1.396 . S
C619 H573 0.929 . S
C619 C614 1.361 . S
C619 C618 1.396 . S
C620 O574 1.300 . S
C620 O575 1.209 . S
C620 C593 1.486 1_554 S
C621 O576 1.199 . S
C621 O577 1.297 . S
C621 C605 1.476 . S
H622 O648 0.856 . S
H623 O651 0.854 . S
H624 C659 0.930 . S
H625 C660 0.930 . S
H626 C662 0.930 . S
H627 C663 0.930 . S
H628 C665 0.931 . S
H629 C666 0.930 1_554 S
H630 C668 0.930 . S
H631 C669 0.929 . S
H632 C671 0.930 . S
H633 C672 0.931 . S
H634 C674 0.930 . S
H635 C675 0.929 . S
H636 C677 0.931 . S
H637 C678 0.930 . S
H638 C680 0.930 . S
H639 C681 0.932 . S
H640 C683 0.930 . S
H641 C684 0.929 . S
H642 C686 0.931 . S
H643 C687 0.930 . S
H644 C689 0.929 . S
H645 C690 0.931 . S
H646 C692 0.930 . S
H647 C693 0.929 . S
O648 H622 0.856 . S
O648 C694 1.300 . S
O649 C694 1.209 . S
O650 C695 1.199 . S
O651 H623 0.854 . S
O651 C695 1.297 . S
C652 C653 1.404 . S
C652 C657 1.397 . S
C652 C658 1.492 . S
C653 C652 1.404 . S
C653 C654 1.396 . S
C653 C664 1.492 . S
C654 C653 1.396 . S
C654 C655 1.397 . S
C654 C670 1.509 . S
C655 C654 1.397 . S
C655 C656 1.412 . S
C655 C676 1.485 . S
C656 C655 1.412 . S
C656 C657 1.388 . S
C656 C682 1.490 . S
C657 C652 1.397 . S
C657 C656 1.388 . S
C657 C688 1.519 . S
C658 C652 1.492 . S
C658 C659 1.363 . S
C658 C663 1.390 . S
C659 H624 0.930 . S
C659 C658 1.363 . S
C659 C660 1.372 . S
C660 H625 0.930 . S
C660 C659 1.372 . S
C660 C661 1.383 . S
C661 C660 1.383 . S
C661 C662 1.395 . S
C662 H626 0.930 . S
C662 C661 1.395 . S
C662 C663 1.362 . S
C663 H627 0.930 . S
C663 C658 1.390 . S
C663 C662 1.362 . S
C664 C653 1.492 . S
C664 C665 1.377 . S
C664 C669 1.397 . S
C665 H628 0.931 . S
C665 C664 1.377 . S
C665 C666 1.376 . S
C666 H629 0.930 1_556 S
C666 C665 1.376 . S
C666 C667 1.376 1_556 S
C667 C666 1.376 1_554 S
C667 C668 1.378 1_554 S
C667 C694 1.486 . S
C668 H630 0.930 . S
C668 C667 1.378 1_556 S
C668 C669 1.376 . S
C669 H631 0.929 . S
C669 C664 1.397 . S
C669 C668 1.376 . S
C670 C654 1.509 . S
C670 C671 1.391 . S
C670 C675 1.386 . S
C671 H632 0.930 . S
C671 C670 1.391 . S
C671 C672 1.375 . S
C672 H633 0.931 . S
C672 C671 1.375 . S
C672 C673 1.375 . S
C673 C672 1.375 . S
C673 C674 1.361 . S
C674 H634 0.930 . S
C674 C673 1.361 . S
C674 C675 1.399 . S
C675 H635 0.929 . S
C675 C670 1.386 . S
C675 C674 1.399 . S
C676 C655 1.485 . S
C676 C677 1.394 . S
C676 C681 1.360 . S
C677 H636 0.931 . S
C677 C676 1.394 . S
C677 C678 1.372 . S
C678 H637 0.930 . S
C678 C677 1.372 . S
C678 C679 1.397 . S
C679 C678 1.397 . S
C679 C680 1.390 . S
C679 C695 1.476 . S
C680 H638 0.930 . S
C680 C679 1.390 . S
C680 C681 1.366 . S
C681 H639 0.932 . S
C681 C676 1.360 . S
C681 C680 1.366 . S
C682 C656 1.490 . S
C682 C683 1.380 . S
C682 C687 1.386 . S
C683 H640 0.930 . S
C683 C682 1.380 . S
C683 C684 1.381 . S
C684 H641 0.929 . S
C684 C683 1.381 . S
C684 C685 1.371 . S
C685 C684 1.371 . S
C685 C686 1.380 . S
C686 H642 0.931 . S
C686 C685 1.380 . S
C686 C687 1.387 . S
C687 H643 0.930 . S
C687 C682 1.386 . S
C687 C686 1.387 . S
C688 C657 1.519 . S
C688 C689 1.377 . S
C688 C693 1.361 . S
C689 H644 0.929 . S
C689 C688 1.377 . S
C689 C690 1.386 . S
C690 H645 0.931 . S
C690 C689 1.386 . S
C690 C691 1.363 . S
C691 C690 1.363 . S
C691 C692 1.385 . S
C692 H646 0.930 . S
C692 C691 1.385 . S
C692 C693 1.396 . S
C693 H647 0.929 . S
C693 C688 1.361 . S
C693 C692 1.396 . S
C694 O648 1.300 . S
C694 O649 1.209 . S
C694 C667 1.486 . S
C695 O650 1.199 . S
C695 O651 1.297 . S
C695 C679 1.476 . S
H696 O722 0.856 . S
H697 O725 0.854 . S
H698 C733 0.930 . S
H699 C734 0.930 . S
H700 C736 0.930 . S
H701 C737 0.930 . S
H702 C739 0.931 . S
H703 C740 0.930 . S
H704 C742 0.930 . S
H705 C743 0.929 . S
H706 C745 0.930 . S
H707 C746 0.931 . S
H708 C748 0.930 . S
H709 C749 0.929 . S
H710 C751 0.931 . S
H711 C752 0.930 . S
H712 C754 0.930 . S
H713 C755 0.932 . S
H714 C757 0.930 . S
H715 C758 0.929 . S
H716 C760 0.931 . S
H717 C761 0.930 . S
H718 C763 0.929 . S
H719 C764 0.931 . S
H720 C766 0.930 . S
H721 C767 0.929 . S
O722 H696 0.856 . S
O722 C768 1.300 . S
O723 C768 1.209 . S
O724 C769 1.199 . S
O725 H697 0.854 . S
O725 C769 1.297 . S
C726 C727 1.404 . S
C726 C731 1.397 . S
C726 C732 1.492 . S
C727 C726 1.404 . S
C727 C728 1.396 . S
C727 C738 1.492 . S
C728 C727 1.396 . S
C728 C729 1.397 . S
C728 C744 1.509 . S
C729 C728 1.397 . S
C729 C730 1.412 . S
C729 C750 1.485 . S
C730 C729 1.412 . S
C730 C731 1.388 . S
C730 C756 1.490 . S
C731 C726 1.397 . S
C731 C730 1.388 . S
C731 C762 1.519 . S
C732 C726 1.492 . S
C732 C733 1.363 . S
C732 C737 1.390 . S
C733 H698 0.930 . S
C733 C732 1.363 . S
C733 C734 1.372 . S
C734 H699 0.930 . S
C734 C733 1.372 . S
C734 C735 1.383 . S
C735 C734 1.383 . S
C735 C736 1.395 . S
C736 H700 0.930 . S
C736 C735 1.395 . S
C736 C737 1.362 . S
C737 H701 0.930 . S
C737 C732 1.390 . S
C737 C736 1.362 . S
C738 C727 1.492 . S
C738 C739 1.377 . S
C738 C743 1.397 . S
C739 H702 0.931 . S
C739 C738 1.377 . S
C739 C740 1.376 . S
C740 H703 0.930 . S
C740 C739 1.376 . S
C740 C741 1.376 . S
C741 C740 1.376 . S
C741 C742 1.378 . S
C741 C768 1.486 . S
C742 H704 0.930 . S
C742 C741 1.378 . S
C742 C743 1.376 . S
C743 H705 0.929 . S
C743 C738 1.397 . S
C743 C742 1.376 . S
C744 C728 1.509 . S
C744 C745 1.391 . S
C744 C749 1.386 . S
C745 H706 0.930 . S
C745 C744 1.391 . S
C745 C746 1.375 . S
C746 H707 0.931 . S
C746 C745 1.375 . S
C746 C747 1.375 . S
C747 C746 1.375 . S
C747 C748 1.361 . S
C748 H708 0.930 . S
C748 C747 1.361 . S
C748 C749 1.399 . S
C749 H709 0.929 . S
C749 C744 1.386 . S
C749 C748 1.399 . S
C750 C729 1.485 . S
C750 C751 1.394 . S
C750 C755 1.360 . S
C751 H710 0.931 . S
C751 C750 1.394 . S
C751 C752 1.372 . S
C752 H711 0.930 . S
C752 C751 1.372 . S
C752 C753 1.397 . S
C753 C752 1.397 . S
C753 C754 1.390 . S
C753 C769 1.476 . S
C754 H712 0.930 . S
C754 C753 1.390 . S
C754 C755 1.366 . S
C755 H713 0.932 . S
C755 C750 1.360 . S
C755 C754 1.366 . S
C756 C730 1.490 . S
C756 C757 1.380 . S
C756 C761 1.386 . S
C757 H714 0.930 . S
C757 C756 1.380 . S
C757 C758 1.381 . S
C758 H715 0.929 . S
C758 C757 1.381 . S
C758 C759 1.371 . S
C759 C758 1.371 . S
C759 C760 1.380 . S
C760 H716 0.931 . S
C760 C759 1.380 . S
C760 C761 1.387 . S
C761 H717 0.930 . S
C761 C756 1.386 . S
C761 C760 1.387 . S
C762 C731 1.519 . S
C762 C763 1.377 . S
C762 C767 1.361 . S
C763 H718 0.929 . S
C763 C762 1.377 . S
C763 C764 1.386 . S
C764 H719 0.931 . S
C764 C763 1.386 . S
C764 C765 1.363 . S
C765 C764 1.363 . S
C765 C766 1.385 . S
C766 H720 0.930 . S
C766 C765 1.385 . S
C766 C767 1.396 . S
C767 H721 0.929 . S
C767 C762 1.361 . S
C767 C766 1.396 . S
C768 O722 1.300 . S
C768 O723 1.209 . S
C768 C741 1.486 . S
C769 O724 1.199 . S
C769 O725 1.297 . S
C769 C753 1.476 . S
H770 O796 0.856 . S
H771 O799 0.854 . S
H772 C807 0.930 . S
H773 C808 0.930 . S
H774 C810 0.930 . S
H775 C811 0.930 . S
H776 C813 0.931 . S
H777 C814 0.930 . S
H778 C816 0.930 . S
H779 C817 0.929 . S
H780 C819 0.930 . S
H781 C820 0.931 . S
H782 C822 0.930 . S
H783 C823 0.929 . S
H784 C825 0.931 . S
H785 C826 0.930 . S
H786 C828 0.930 . S
H787 C829 0.932 . S
H788 C831 0.930 . S
H789 C832 0.929 . S
H790 C834 0.931 . S
H791 C835 0.930 . S
H792 C837 0.929 . S
H793 C838 0.931 . S
H794 C840 0.930 . S
H795 C841 0.929 . S
O796 H770 0.856 . S
O796 C842 1.300 . S
O797 C842 1.209 . S
O798 C843 1.199 . S
O799 H771 0.854 . S
O799 C843 1.297 . S
C800 C801 1.404 . S
C800 C805 1.397 . S
C800 C806 1.492 . S
C801 C800 1.404 . S
C801 C802 1.396 . S
C801 C812 1.492 . S
C802 C801 1.396 . S
C802 C803 1.397 . S
C802 C818 1.509 . S
C803 C802 1.397 . S
C803 C804 1.412 . S
C803 C824 1.485 . S
C804 C803 1.412 . S
C804 C805 1.388 . S
C804 C830 1.490 . S
C805 C800 1.397 . S
C805 C804 1.388 . S
C805 C836 1.519 . S
C806 C800 1.492 . S
C806 C807 1.363 . S
C806 C811 1.390 . S
C807 H772 0.930 . S
C807 C806 1.363 . S
C807 C808 1.372 . S
C808 H773 0.930 . S
C808 C807 1.372 . S
C808 C809 1.383 . S
C809 C808 1.383 . S
C809 C810 1.395 . S
C810 H774 0.930 . S
C810 C809 1.395 . S
C810 C811 1.362 . S
C811 H775 0.930 . S
C811 C806 1.390 . S
C811 C810 1.362 . S
C812 C801 1.492 . S
C812 C813 1.377 . S
C812 C817 1.397 . S
C813 H776 0.931 . S
C813 C812 1.377 . S
C813 C814 1.376 . S
C814 H777 0.930 . S
C814 C813 1.376 . S
C814 C815 1.376 . S
C815 C814 1.376 . S
C815 C816 1.378 . S
C815 C842 1.486 . S
C816 H778 0.930 . S
C816 C815 1.378 . S
C816 C817 1.376 . S
C817 H779 0.929 . S
C817 C812 1.397 . S
C817 C816 1.376 . S
C818 C802 1.509 . S
C818 C819 1.391 . S
C818 C823 1.386 . S
C819 H780 0.930 . S
C819 C818 1.391 . S
C819 C820 1.375 . S
C820 H781 0.931 . S
C820 C819 1.375 . S
C820 C821 1.375 . S
C821 C820 1.375 . S
C821 C822 1.361 . S
C822 H782 0.930 . S
C822 C821 1.361 . S
C822 C823 1.399 . S
C823 H783 0.929 . S
C823 C818 1.386 . S
C823 C822 1.399 . S
C824 C803 1.485 . S
C824 C825 1.394 . S
C824 C829 1.360 . S
C825 H784 0.931 . S
C825 C824 1.394 . S
C825 C826 1.372 . S
C826 H785 0.930 . S
C826 C825 1.372 . S
C826 C827 1.397 . S
C827 C826 1.397 . S
C827 C828 1.390 . S
C827 C843 1.476 . S
C828 H786 0.930 . S
C828 C827 1.390 . S
C828 C829 1.366 . S
C829 H787 0.932 . S
C829 C824 1.360 . S
C829 C828 1.366 . S
C830 C804 1.490 . S
C830 C831 1.380 . S
C830 C835 1.386 . S
C831 H788 0.930 . S
C831 C830 1.380 . S
C831 C832 1.381 . S
C832 H789 0.929 . S
C832 C831 1.381 . S
C832 C833 1.371 . S
C833 C832 1.371 . S
C833 C834 1.380 . S
C834 H790 0.931 . S
C834 C833 1.380 . S
C834 C835 1.387 . S
C835 H791 0.930 . S
C835 C830 1.386 . S
C835 C834 1.387 . S
C836 C805 1.519 . S
C836 C837 1.377 . S
C836 C841 1.361 . S
C837 H792 0.929 . S
C837 C836 1.377 . S
C837 C838 1.386 . S
C838 H793 0.931 . S
C838 C837 1.386 . S
C838 C839 1.363 . S
C839 C838 1.363 . S
C839 C840 1.385 . S
C840 H794 0.930 . S
C840 C839 1.385 . S
C840 C841 1.396 . S
C841 H795 0.929 . S
C841 C836 1.361 . S
C841 C840 1.396 . S
C842 O796 1.300 . S
C842 O797 1.209 . S
C842 C815 1.486 . S
C843 O798 1.199 . S
C843 O799 1.297 . S
C843 C827 1.476 . S
H844 O870 0.856 . S
H845 O873 0.854 . S
H846 C881 0.930 . S
H847 C882 0.930 . S
H848 C884 0.930 . S
H849 C885 0.930 . S
H850 C887 0.931 . S
H851 C888 0.930 . S
H852 C890 0.930 . S
H853 C891 0.929 . S
H854 C893 0.930 . S
H855 C894 0.931 . S
H856 C896 0.930 . S
H857 C897 0.929 . S
H858 C899 0.931 . S
H859 C900 0.930 . S
H860 C902 0.930 . S
H861 C903 0.932 . S
H862 C905 0.930 . S
H863 C906 0.929 . S
H864 C908 0.931 . S
H865 C909 0.930 . S
H866 C911 0.929 . S
H867 C912 0.931 . S
H868 C914 0.930 . S
H869 C915 0.929 . S
O870 H844 0.856 . S
O870 C916 1.300 . S
O871 C916 1.209 . S
O872 C917 1.199 . S
O873 H845 0.854 . S
O873 C917 1.297 . S
C874 C875 1.404 . S
C874 C879 1.397 . S
C874 C880 1.492 . S
C875 C874 1.404 . S
C875 C876 1.396 . S
C875 C886 1.492 . S
C876 C875 1.396 . S
C876 C877 1.397 . S
C876 C892 1.509 . S
C877 C876 1.397 . S
C877 C878 1.412 . S
C877 C898 1.485 . S
C878 C877 1.412 . S
C878 C879 1.388 . S
C878 C904 1.490 . S
C879 C874 1.397 . S
C879 C878 1.388 . S
C879 C910 1.519 . S
C880 C874 1.492 . S
C880 C881 1.363 . S
C880 C885 1.390 . S
C881 H846 0.930 . S
C881 C880 1.363 . S
C881 C882 1.372 . S
C882 H847 0.930 . S
C882 C881 1.372 . S
C882 C883 1.383 . S
C883 C882 1.383 . S
C883 C884 1.395 . S
C884 H848 0.930 . S
C884 C883 1.395 . S
C884 C885 1.362 . S
C885 H849 0.930 . S
C885 C880 1.390 . S
C885 C884 1.362 . S
C886 C875 1.492 . S
C886 C887 1.377 . S
C886 C891 1.397 . S
C887 H850 0.931 . S
C887 C886 1.377 . S
C887 C888 1.376 . S
C888 H851 0.930 . S
C888 C887 1.376 . S
C888 C889 1.376 . S
C889 C888 1.376 . S
C889 C890 1.378 . S
C889 C916 1.486 . S
C890 H852 0.930 . S
C890 C889 1.378 . S
C890 C891 1.376 . S
C891 H853 0.929 . S
C891 C886 1.397 . S
C891 C890 1.376 . S
C892 C876 1.509 . S
C892 C893 1.391 . S
C892 C897 1.386 . S
C893 H854 0.930 . S
C893 C892 1.391 . S
C893 C894 1.375 . S
C894 H855 0.931 . S
C894 C893 1.375 . S
C894 C895 1.375 . S
C895 C894 1.375 . S
C895 C896 1.361 . S
C896 H856 0.930 . S
C896 C895 1.361 . S
C896 C897 1.399 . S
C897 H857 0.929 . S
C897 C892 1.386 . S
C897 C896 1.399 . S
C898 C877 1.485 . S
C898 C899 1.394 . S
C898 C903 1.360 . S
C899 H858 0.931 . S
C899 C898 1.394 . S
C899 C900 1.372 . S
C900 H859 0.930 . S
C900 C899 1.372 . S
C900 C901 1.397 . S
C901 C900 1.397 . S
C901 C902 1.390 . S
C901 C917 1.476 . S
C902 H860 0.930 . S
C902 C901 1.390 . S
C902 C903 1.366 . S
C903 H861 0.932 . S
C903 C898 1.360 . S
C903 C902 1.366 . S
C904 C878 1.490 . S
C904 C905 1.380 . S
C904 C909 1.386 . S
C905 H862 0.930 . S
C905 C904 1.380 . S
C905 C906 1.381 . S
C906 H863 0.929 . S
C906 C905 1.381 . S
C906 C907 1.371 . S
C907 C906 1.371 . S
C907 C908 1.380 . S
C908 H864 0.931 . S
C908 C907 1.380 . S
C908 C909 1.387 . S
C909 H865 0.930 . S
C909 C904 1.386 . S
C909 C908 1.387 . S
C910 C879 1.519 . S
C910 C911 1.377 . S
C910 C915 1.361 . S
C911 H866 0.929 . S
C911 C910 1.377 . S
C911 C912 1.386 . S
C912 H867 0.931 . S
C912 C911 1.386 . S
C912 C913 1.363 . S
C913 C912 1.363 . S
C913 C914 1.385 . S
C914 H868 0.930 . S
C914 C913 1.385 . S
C914 C915 1.396 . S
C915 H869 0.929 . S
C915 C910 1.361 . S
C915 C914 1.396 . S
C916 O870 1.300 . S
C916 O871 1.209 . S
C916 C889 1.486 . S
C917 O872 1.199 . S
C917 O873 1.297 . S
C917 C901 1.476 . S
H918 O944 0.856 . S
H919 O947 0.854 . S
H920 C955 0.930 . S
H921 C956 0.930 . S
H922 C958 0.930 . S
H923 C959 0.930 . S
H924 C961 0.931 . S
H925 C962 0.930 1_655 S
H926 C964 0.930 . S
H927 C965 0.929 . S
H928 C967 0.930 . S
H929 C968 0.911 1_655 S
H930 C970 0.930 . S
H931 C971 0.929 . S
H932 C973 0.931 . S
H933 C974 0.930 . S
H934 C976 0.930 . S
H935 C977 0.932 . S
H936 C979 0.930 . S
H937 C980 0.929 . S
H938 C982 0.931 . S
H939 C983 0.930 . S
H940 C985 0.929 . S
H941 C986 0.931 . S
H942 C988 0.930 . S
H943 C989 0.929 . S
O944 H918 0.856 . S
O944 C990 1.300 . S
O945 C990 1.209 . S
O946 C991 1.199 1_655 S
O947 H919 0.854 . S
O947 C991 1.297 . S
C948 C949 1.404 . S
C948 C953 1.394 . S
C948 C954 1.492 . S
C949 C948 1.404 . S
C949 C950 1.396 . S
C949 C960 1.492 . S
C950 C949 1.396 . S
C950 C951 1.397 . S
C950 C966 1.509 . S
C951 C950 1.397 . S
C951 C952 1.421 . S
C951 C972 1.485 . S
C952 C951 1.421 . S
C952 C953 1.406 . S
C952 C978 1.490 1_455 S
C953 C948 1.394 . S
C953 C952 1.406 . S
C953 C984 1.488 1_455 S
C954 C948 1.492 . S
C954 C955 1.363 1_455 S
C954 C959 1.390 . S
C955 H920 0.930 . S
C955 C954 1.363 1_655 S
C955 C956 1.372 . S
C956 H921 0.930 . S
C956 C955 1.372 . S
C956 C957 1.383 . S
C957 C956 1.383 . S
C957 C958 1.395 1_655 S
C958 H922 0.930 . S
C958 C957 1.395 1_455 S
C958 C959 1.362 . S
C959 H923 0.930 . S
C959 C954 1.390 . S
C959 C958 1.362 . S
C960 C949 1.492 . S
C960 C961 1.377 1_455 S
C960 C965 1.397 . S
C961 H924 0.931 . S
C961 C960 1.377 1_655 S
C961 C962 1.376 1_655 S
C962 H925 0.930 1_455 S
C962 C961 1.376 1_455 S
C962 C963 1.376 . S
C963 C962 1.376 . S
C963 C964 1.378 . S
C963 C990 1.486 . S
C964 H926 0.930 . S
C964 C963 1.378 . S
C964 C965 1.376 . S
C965 H927 0.929 . S
C965 C960 1.397 . S
C965 C964 1.376 . S
C966 C950 1.509 . S
C966 C967 1.391 1_455 S
C966 C971 1.386 . S
C967 H928 0.930 . S
C967 C966 1.391 1_655 S
C967 C968 1.349 1_655 S
C968 H929 0.911 1_455 S
C968 C967 1.349 1_455 S
C968 C969 1.422 . S
C969 C968 1.422 . S
C969 C970 1.361 . S
C970 H930 0.930 . S
C970 C969 1.361 . S
C970 C971 1.399 . S
C971 H931 0.929 . S
C971 C966 1.386 . S
C971 C970 1.399 . S
C972 C951 1.485 . S
C972 C973 1.394 1_455 S
C972 C977 1.360 . S
C973 H932 0.931 . S
C973 C972 1.394 1_655 S
C973 C974 1.372 . S
C974 H933 0.930 . S
C974 C973 1.372 . S
C974 C975 1.397 1_655 S
C975 C974 1.397 1_455 S
C975 C976 1.390 . S
C975 C991 1.476 . S
C976 H934 0.930 . S
C976 C975 1.390 . S
C976 C977 1.366 . S
C977 H935 0.932 . S
C977 C972 1.360 . S
C977 C976 1.366 . S
C978 C952 1.490 1_655 S
C978 C979 1.380 . S
C978 C983 1.386 1_655 S
C979 H936 0.930 . S
C979 C978 1.380 . S
C979 C980 1.381 . S
C980 H937 0.929 . S
C980 C979 1.381 . S
C980 C981 1.371 . S
C981 C980 1.371 . S
C981 C982 1.380 1_655 S
C982 H938 0.931 . S
C982 C981 1.380 1_455 S
C982 C983 1.387 . S
C983 H939 0.930 . S
C983 C978 1.386 1_455 S
C983 C982 1.387 . S
C984 C953 1.488 1_655 S
C984 C985 1.412 . S
C984 C989 1.338 1_655 S
C985 H940 0.929 . S
C985 C984 1.412 . S
C985 C986 1.386 . S
C986 H941 0.931 . S
C986 C985 1.386 . S
C986 C987 1.383 . S
C987 C986 1.383 . S
C987 C988 1.355 1_655 S
C988 H942 0.930 . S
C988 C987 1.355 1_455 S
C988 C989 1.396 . S
C989 H943 0.929 . S
C989 C984 1.338 1_455 S
C989 C988 1.396 . S
C990 O944 1.300 . S
C990 O945 1.209 . S
C990 C963 1.486 . S
C991 O946 1.199 1_455 S
C991 O947 1.297 . S
C991 C975 1.476 . S
H992 O1018 0.856 . S
H993 O1021 0.854 . S
H994 C1029 0.930 . S
H995 C1030 0.930 . S
H996 C1032 0.930 . S
H997 C1033 0.930 . S
H998 C1035 0.931 . S
H999 C1036 0.930 . S
H1000 C1038 0.930 . S
H1001 C1039 0.929 . S
H1002 C1041 0.930 . S
H1003 C1042 0.931 . S
H1004 C1044 0.930 . S
H1005 C1045 0.929 . S
H1006 C1047 0.931 . S
H1007 C1048 0.930 . S
H1008 C1050 0.930 . S
H1009 C1051 0.932 . S
H1010 C1053 0.930 . S
H1011 C1054 0.929 . S
H1012 C1056 0.931 . S
H1013 C1057 0.930 . S
H1014 C1059 0.929 . S
H1015 C1060 0.931 . S
H1016 C1062 0.930 . S
H1017 C1063 0.929 . S
O1018 H992 0.856 . S
O1018 C1064 1.300 . S
O1019 C1064 1.209 . S
O1020 C1065 1.199 . S
O1021 H993 0.854 . S
O1021 C1065 1.297 . S
C1022 C1023 1.404 . S
C1022 C1027 1.397 . S
C1022 C1028 1.492 . S
C1023 C1022 1.404 . S
C1023 C1024 1.396 . S
C1023 C1034 1.492 . S
C1024 C1023 1.396 . S
C1024 C1025 1.397 . S
C1024 C1040 1.509 . S
C1025 C1024 1.397 . S
C1025 C1026 1.412 . S
C1025 C1046 1.485 . S
C1026 C1025 1.412 . S
C1026 C1027 1.388 . S
C1026 C1052 1.490 . S
C1027 C1022 1.397 . S
C1027 C1026 1.388 . S
C1027 C1058 1.519 . S
C1028 C1022 1.492 . S
C1028 C1029 1.363 . S
C1028 C1033 1.390 . S
C1029 H994 0.930 . S
C1029 C1028 1.363 . S
C1029 C1030 1.372 . S
C1030 H995 0.930 . S
C1030 C1029 1.372 . S
C1030 C1031 1.383 . S
C1031 C1030 1.383 . S
C1031 C1032 1.395 . S
C1032 H996 0.930 . S
C1032 C1031 1.395 . S
C1032 C1033 1.362 . S
C1033 H997 0.930 . S
C1033 C1028 1.390 . S
C1033 C1032 1.362 . S
C1034 C1023 1.492 . S
C1034 C1035 1.377 . S
C1034 C1039 1.397 . S
C1035 H998 0.931 . S
C1035 C1034 1.377 . S
C1035 C1036 1.376 . S
C1036 H999 0.930 . S
C1036 C1035 1.376 . S
C1036 C1037 1.376 . S
C1037 C1036 1.376 . S
C1037 C1038 1.378 . S
C1037 C1064 1.486 . S
C1038 H1000 0.930 . S
C1038 C1037 1.378 . S
C1038 C1039 1.376 . S
C1039 H1001 0.929 . S
C1039 C1034 1.397 . S
C1039 C1038 1.376 . S
C1040 C1024 1.509 . S
C1040 C1041 1.391 . S
C1040 C1045 1.386 . S
C1041 H1002 0.930 . S
C1041 C1040 1.391 . S
C1041 C1042 1.375 . S
C1042 H1003 0.931 . S
C1042 C1041 1.375 . S
C1042 C1043 1.375 . S
C1043 C1042 1.375 . S
C1043 C1044 1.361 . S
C1044 H1004 0.930 . S
C1044 C1043 1.361 . S
C1044 C1045 1.399 . S
C1045 H1005 0.929 . S
C1045 C1040 1.386 . S
C1045 C1044 1.399 . S
C1046 C1025 1.485 . S
C1046 C1047 1.394 . S
C1046 C1051 1.360 . S
C1047 H1006 0.931 . S
C1047 C1046 1.394 . S
C1047 C1048 1.372 . S
C1048 H1007 0.930 . S
C1048 C1047 1.372 . S
C1048 C1049 1.397 . S
C1049 C1048 1.397 . S
C1049 C1050 1.390 . S
C1049 C1065 1.476 . S
C1050 H1008 0.930 . S
C1050 C1049 1.390 . S
C1050 C1051 1.366 . S
C1051 H1009 0.932 . S
C1051 C1046 1.360 . S
C1051 C1050 1.366 . S
C1052 C1026 1.490 . S
C1052 C1053 1.380 . S
C1052 C1057 1.386 . S
C1053 H1010 0.930 . S
C1053 C1052 1.380 . S
C1053 C1054 1.381 . S
C1054 H1011 0.929 . S
C1054 C1053 1.381 . S
C1054 C1055 1.371 . S
C1055 C1054 1.371 . S
C1055 C1056 1.380 . S
C1056 H1012 0.931 . S
C1056 C1055 1.380 . S
C1056 C1057 1.387 . S
C1057 H1013 0.930 . S
C1057 C1052 1.386 . S
C1057 C1056 1.387 . S
C1058 C1027 1.519 . S
C1058 C1059 1.377 . S
C1058 C1063 1.361 . S
C1059 H1014 0.929 . S
C1059 C1058 1.377 . S
C1059 C1060 1.386 . S
C1060 H1015 0.931 . S
C1060 C1059 1.386 . S
C1060 C1061 1.363 . S
C1061 C1060 1.363 . S
C1061 C1062 1.385 . S
C1062 H1016 0.930 . S
C1062 C1061 1.385 . S
C1062 C1063 1.396 . S
C1063 H1017 0.929 . S
C1063 C1058 1.361 . S
C1063 C1062 1.396 . S
C1064 O1018 1.300 . S
C1064 O1019 1.209 . S
C1064 C1037 1.486 . S
C1065 O1020 1.199 . S
C1065 O1021 1.297 . S
C1065 C1049 1.476 . S
H1066 O1092 0.856 . S
H1067 O1095 0.854 . S
H1068 C1103 0.930 . S
H1069 C1104 0.930 . S
H1070 C1106 0.930 . S
H1071 C1107 0.930 . S
H1072 C1109 0.931 . S
H1073 C1110 0.930 . S
H1074 C1112 0.930 . S
H1075 C1113 0.929 . S
H1076 C1115 0.930 . S
H1077 C1116 0.931 . S
H1078 C1118 0.930 . S
H1079 C1119 0.929 . S
H1080 C1121 0.931 . S
H1081 C1122 0.930 . S
H1082 C1124 0.930 . S
H1083 C1125 0.932 . S
H1084 C1127 0.930 . S
H1085 C1128 0.929 . S
H1086 C1130 0.931 . S
H1087 C1131 0.930 . S
H1088 C1133 0.929 . S
H1089 C1134 0.931 . S
H1090 C1136 0.930 . S
H1091 C1137 0.929 . S
O1092 H1066 0.856 . S
O1092 C1138 1.300 . S
O1093 C1138 1.209 . S
O1094 C1139 1.199 1_545 S
O1095 H1067 0.854 . S
O1095 C1139 1.297 . S
C1096 C1097 1.404 . S
C1096 C1101 1.413 . S
C1096 C1102 1.492 . S
C1097 C1096 1.404 . S
C1097 C1098 1.396 . S
C1097 C1108 1.492 . S
C1098 C1097 1.396 . S
C1098 C1099 1.397 . S
C1098 C1114 1.509 . S
C1099 C1098 1.397 . S
C1099 C1100 1.409 . S
C1099 C1120 1.485 . S
C1100 C1099 1.409 . S
C1100 C1101 1.372 . S
C1100 C1126 1.485 1_565 S
C1101 C1096 1.413 . S
C1101 C1100 1.372 . S
C1101 C1132 1.533 1_565 S
C1102 C1096 1.492 . S
C1102 C1103 1.363 1_565 S
C1102 C1107 1.390 . S
C1103 H1068 0.930 . S
C1103 C1102 1.363 1_545 S
C1103 C1104 1.372 . S
C1104 H1069 0.930 . S
C1104 C1103 1.372 . S
C1104 C1105 1.383 . S
C1105 C1104 1.383 . S
C1105 C1106 1.395 1_545 S
C1106 H1070 0.930 . S
C1106 C1105 1.395 1_565 S
C1106 C1107 1.362 . S
C1107 H1071 0.930 . S
C1107 C1102 1.390 . S
C1107 C1106 1.362 . S
C1108 C1097 1.492 . S
C1108 C1109 1.377 1_565 S
C1108 C1113 1.397 . S
C1109 H1072 0.931 . S
C1109 C1108 1.377 1_545 S
C1109 C1110 1.376 . S
C1110 H1073 0.930 . S
C1110 C1109 1.376 . S
C1110 C1111 1.376 1_545 S
C1111 C1110 1.376 1_565 S
C1111 C1112 1.378 . S
C1111 C1138 1.486 . S
C1112 H1074 0.930 . S
C1112 C1111 1.378 . S
C1112 C1113 1.376 . S
C1113 H1075 0.929 . S
C1113 C1108 1.397 . S
C1113 C1112 1.376 . S
C1114 C1098 1.509 . S
C1114 C1115 1.391 1_565 S
C1114 C1119 1.386 . S
C1115 H1076 0.930 . S
C1115 C1114 1.391 1_545 S
C1115 C1116 1.375 . S
C1116 H1077 0.931 . S
C1116 C1115 1.375 . S
C1116 C1117 1.375 1_545 S
C1117 C1116 1.375 1_565 S
C1117 C1118 1.361 . S
C1118 H1078 0.930 . S
C1118 C1117 1.361 . S
C1118 C1119 1.399 . S
C1119 H1079 0.929 . S
C1119 C1114 1.386 . S
C1119 C1118 1.399 . S
C1120 C1099 1.485 . S
C1120 C1121 1.394 1_565 S
C1120 C1125 1.360 . S
C1121 H1080 0.931 . S
C1121 C1120 1.394 1_545 S
C1121 C1122 1.372 . S
C1122 H1081 0.930 . S
C1122 C1121 1.372 . S
C1122 C1123 1.397 1_545 S
C1123 C1122 1.397 1_565 S
C1123 C1124 1.390 . S
C1123 C1139 1.476 . S
C1124 H1082 0.930 . S
C1124 C1123 1.390 . S
C1124 C1125 1.366 . S
C1125 H1083 0.932 . S
C1125 C1120 1.360 . S
C1125 C1124 1.366 . S
C1126 C1100 1.485 1_545 S
C1126 C1127 1.380 . S
C1126 C1131 1.386 1_545 S
C1127 H1084 0.930 . S
C1127 C1126 1.380 . S
C1127 C1128 1.381 . S
C1128 H1085 0.929 . S
C1128 C1127 1.381 . S
C1128 C1129 1.371 . S
C1129 C1128 1.371 . S
C1129 C1130 1.380 1_545 S
C1130 H1086 0.931 . S
C1130 C1129 1.380 1_565 S
C1130 C1131 1.387 . S
C1131 H1087 0.930 . S
C1131 C1126 1.386 1_565 S
C1131 C1130 1.387 . S
C1132 C1101 1.533 1_545 S
C1132 C1133 1.377 . S
C1132 C1137 1.360 1_545 S
C1133 H1088 0.929 . S
C1133 C1132 1.377 . S
C1133 C1134 1.386 . S
C1134 H1089 0.931 . S
C1134 C1133 1.386 . S
C1134 C1135 1.363 1_545 S
C1135 C1134 1.363 1_565 S
C1135 C1136 1.385 . S
C1136 H1090 0.930 . S
C1136 C1135 1.385 . S
C1136 C1137 1.396 . S
C1137 H1091 0.929 . S
C1137 C1132 1.360 1_565 S
C1137 C1136 1.396 . S
C1138 O1092 1.300 . S
C1138 O1093 1.209 . S
C1138 C1111 1.486 . S
C1139 O1094 1.199 1_565 S
C1139 O1095 1.297 . S
C1139 C1123 1.476 . S
H1140 O1166 0.856 . S
H1141 O1169 0.854 . S
H1142 C1177 0.930 . S
H1143 C1178 0.930 . S
H1144 C1180 0.930 . S
H1145 C1181 0.930 . S
H1146 C1183 0.931 . S
H1147 C1184 0.930 . S
H1148 C1186 0.930 . S
H1149 C1187 0.929 . S
H1150 C1189 0.930 . S
H1151 C1190 0.931 . S
H1152 C1192 0.930 . S
H1153 C1193 0.929 . S
H1154 C1195 0.931 . S
H1155 C1196 0.930 . S
H1156 C1198 0.930 . S
H1157 C1199 0.932 . S
H1158 C1201 0.930 . S
H1159 C1202 0.929 . S
H1160 C1204 0.931 . S
H1161 C1205 0.930 . S
H1162 C1207 0.929 . S
H1163 C1208 0.931 . S
H1164 C1210 0.930 . S
H1165 C1211 0.929 . S
O1166 H1140 0.856 . S
O1166 C1212 1.300 . S
O1167 C1212 1.209 1_565 S
O1168 C1213 1.199 1_545 S
O1169 H1141 0.854 . S
O1169 C1213 1.297 . S
C1170 C1171 1.404 . S
C1170 C1175 1.397 1_545 S
C1170 C1176 1.492 . S
C1171 C1170 1.404 . S
C1171 C1172 1.396 . S
C1171 C1182 1.492 . S
C1172 C1171 1.396 . S
C1172 C1173 1.394 1_545 S
C1172 C1188 1.509 . S
C1173 C1172 1.394 1_565 S
C1173 C1174 1.419 . S
C1173 C1194 1.492 . S
C1174 C1173 1.419 . S
C1174 C1175 1.371 . S
C1174 C1200 1.488 . S
C1175 C1170 1.397 1_565 S
C1175 C1174 1.371 . S
C1175 C1206 1.519 . S
C1176 C1170 1.492 . S
C1176 C1177 1.363 . S
C1176 C1181 1.390 1_545 S
C1177 H1142 0.930 . S
C1177 C1176 1.363 . S
C1177 C1178 1.372 . S
C1178 H1143 0.930 . S
C1178 C1177 1.372 . S
C1178 C1179 1.383 . S
C1179 C1178 1.383 . S
C1179 C1180 1.395 1_545 S
C1180 H1144 0.930 . S
C1180 C1179 1.395 1_565 S
C1180 C1181 1.362 . S
C1181 H1145 0.930 . S
C1181 C1176 1.390 1_565 S
C1181 C1180 1.362 . S
C1182 C1171 1.492 . S
C1182 C1183 1.377 . S
C1182 C1187 1.397 1_545 S
C1183 H1146 0.931 . S
C1183 C1182 1.377 . S
C1183 C1184 1.376 . S
C1184 H1147 0.930 . S
C1184 C1183 1.376 . S
C1184 C1185 1.376 . S
C1185 C1184 1.376 . S
C1185 C1186 1.378 1_545 S
C1185 C1212 1.486 . S
C1186 H1148 0.930 . S
C1186 C1185 1.378 1_565 S
C1186 C1187 1.376 . S
C1187 H1149 0.929 . S
C1187 C1182 1.397 1_565 S
C1187 C1186 1.376 . S
C1188 C1172 1.509 . S
C1188 C1189 1.391 . S
C1188 C1193 1.386 1_545 S
C1189 H1150 0.930 . S
C1189 C1188 1.391 . S
C1189 C1190 1.375 . S
C1190 H1151 0.931 . S
C1190 C1189 1.375 . S
C1190 C1191 1.375 . S
C1191 C1190 1.375 . S
C1191 C1192 1.361 1_545 S
C1192 H1152 0.930 . S
C1192 C1191 1.361 1_565 S
C1192 C1193 1.399 . S
C1193 H1153 0.929 . S
C1193 C1188 1.386 1_565 S
C1193 C1192 1.399 . S
C1194 C1173 1.492 . S
C1194 C1195 1.394 1_565 S
C1194 C1199 1.360 . S
C1195 H1154 0.931 . S
C1195 C1194 1.394 1_545 S
C1195 C1196 1.372 . S
C1196 H1155 0.930 . S
C1196 C1195 1.372 . S
C1196 C1197 1.397 1_545 S
C1197 C1196 1.397 1_565 S
C1197 C1198 1.390 . S
C1197 C1213 1.476 . S
C1198 H1156 0.930 . S
C1198 C1197 1.390 . S
C1198 C1199 1.366 . S
C1199 H1157 0.932 . S
C1199 C1194 1.360 . S
C1199 C1198 1.366 . S
C1200 C1174 1.488 . S
C1200 C1201 1.343 1_565 S
C1200 C1205 1.433 . S
C1201 H1158 0.930 . S
C1201 C1200 1.343 1_545 S
C1201 C1202 1.381 . S
C1202 H1159 0.929 . S
C1202 C1201 1.381 . S
C1202 C1203 1.385 . S
C1203 C1202 1.385 . S
C1203 C1204 1.368 1_545 S
C1204 H1160 0.931 . S
C1204 C1203 1.368 1_565 S
C1204 C1205 1.387 . S
C1205 H1161 0.930 . S
C1205 C1200 1.433 . S
C1205 C1204 1.387 . S
C1206 C1175 1.519 . S
C1206 C1207 1.377 1_565 S
C1206 C1211 1.361 . S
C1207 H1162 0.929 . S
C1207 C1206 1.377 1_545 S
C1207 C1208 1.386 . S
C1208 H1163 0.931 . S
C1208 C1207 1.386 . S
C1208 C1209 1.363 1_545 S
C1209 C1208 1.363 1_565 S
C1209 C1210 1.385 . S
C1210 H1164 0.930 . S
C1210 C1209 1.385 . S
C1210 C1211 1.396 . S
C1211 H1165 0.929 . S
C1211 C1206 1.361 . S
C1211 C1210 1.396 . S
C1212 O1166 1.300 . S
C1212 O1167 1.209 1_545 S
C1212 C1185 1.486 . S
C1213 O1168 1.199 1_565 S
C1213 O1169 1.297 . S
C1213 C1197 1.476 . S
H1214 O1240 0.856 . S
H1215 O1243 0.854 . S
H1216 C1251 0.930 . S
H1217 C1252 0.930 . S
H1218 C1254 0.930 . S
H1219 C1255 0.930 . S
H1220 C1257 0.931 . S
H1221 C1258 0.930 . S
H1222 C1260 0.930 . S
H1223 C1261 0.929 . S
H1224 C1263 0.930 . S
H1225 C1264 0.931 . S
H1226 C1266 0.930 . S
H1227 C1267 0.929 . S
H1228 C1269 0.931 . S
H1229 C1270 0.930 . S
H1230 C1272 0.930 . S
H1231 C1273 0.932 . S
H1232 C1275 0.930 . S
H1233 C1276 0.929 . S
H1234 C1278 0.931 . S
H1235 C1279 0.930 . S
H1236 C1281 0.929 . S
H1237 C1282 0.931 . S
H1238 C1284 0.930 . S
H1239 C1285 0.929 . S
O1240 H1214 0.856 . S
O1240 C1286 1.300 . S
O1241 C1286 1.209 1_455 S
O1242 C1287 1.199 1_655 S
O1243 H1215 0.854 . S
O1243 C1287 1.297 . S
C1244 C1245 1.404 . S
C1244 C1249 1.396 1_655 S
C1244 C1250 1.492 . S
C1245 C1244 1.404 . S
C1245 C1246 1.396 . S
C1245 C1256 1.492 . S
C1246 C1245 1.396 . S
C1246 C1247 1.398 . S
C1246 C1262 1.509 . S
C1247 C1246 1.398 . S
C1247 C1248 1.398 1_655 S
C1247 C1268 1.483 1_655 S
C1248 C1247 1.398 1_455 S
C1248 C1249 1.413 . S
C1248 C1274 1.484 . S
C1249 C1244 1.396 1_455 S
C1249 C1248 1.413 . S
C1249 C1280 1.517 . S
C1250 C1244 1.492 . S
C1250 C1251 1.363 . S
C1250 C1255 1.390 1_655 S
C1251 H1216 0.930 . S
C1251 C1250 1.363 . S
C1251 C1252 1.372 . S
C1252 H1217 0.930 . S
C1252 C1251 1.372 . S
C1252 C1253 1.383 . S
C1253 C1252 1.383 . S
C1253 C1254 1.395 1_655 S
C1254 H1218 0.930 . S
C1254 C1253 1.395 1_455 S
C1254 C1255 1.362 . S
C1255 H1219 0.930 . S
C1255 C1250 1.390 1_455 S
C1255 C1254 1.362 . S
C1256 C1245 1.492 . S
C1256 C1257 1.377 . S
C1256 C1261 1.397 1_655 S
C1257 H1220 0.931 . S
C1257 C1256 1.377 . S
C1257 C1258 1.376 . S
C1258 H1221 0.930 . S
C1258 C1257 1.376 . S
C1258 C1259 1.376 . S
C1259 C1258 1.376 . S
C1259 C1260 1.378 1_655 S
C1259 C1286 1.486 . S
C1260 H1222 0.930 . S
C1260 C1259 1.378 1_455 S
C1260 C1261 1.376 . S
C1261 H1223 0.929 . S
C1261 C1256 1.397 1_455 S
C1261 C1260 1.376 . S
C1262 C1246 1.509 . S
C1262 C1263 1.391 . S
C1262 C1267 1.386 1_655 S
C1263 H1224 0.930 . S
C1263 C1262 1.391 . S
C1263 C1264 1.375 . S
C1264 H1225 0.931 . S
C1264 C1263 1.375 . S
C1264 C1265 1.375 . S
C1265 C1264 1.375 . S
C1265 C1266 1.361 1_655 S
C1266 H1226 0.930 . S
C1266 C1265 1.361 1_455 S
C1266 C1267 1.399 . S
C1267 H1227 0.929 . S
C1267 C1262 1.386 1_455 S
C1267 C1266 1.399 . S
C1268 C1247 1.483 1_455 S
C1268 C1269 1.394 1_455 S
C1268 C1273 1.360 . S
C1269 H1228 0.931 . S
C1269 C1268 1.394 1_655 S
C1269 C1270 1.372 . S
C1270 H1229 0.930 . S
C1270 C1269 1.372 . S
C1270 C1271 1.397 1_655 S
C1271 C1270 1.397 1_455 S
C1271 C1272 1.390 . S
C1271 C1287 1.476 . S
C1272 H1230 0.930 . S
C1272 C1271 1.390 . S
C1272 C1273 1.366 . S
C1273 H1231 0.932 . S
C1273 C1268 1.360 . S
C1273 C1272 1.366 . S
C1274 C1248 1.484 . S
C1274 C1275 1.380 1_455 S
C1274 C1279 1.386 . S
C1275 H1232 0.930 . S
C1275 C1274 1.380 1_655 S
C1275 C1276 1.381 . S
C1276 H1233 0.929 . S
C1276 C1275 1.381 . S
C1276 C1277 1.371 1_655 S
C1277 C1276 1.371 1_455 S
C1277 C1278 1.380 . S
C1278 H1234 0.931 . S
C1278 C1277 1.380 . S
C1278 C1279 1.387 . S
C1279 H1235 0.930 . S
C1279 C1274 1.386 . S
C1279 C1278 1.387 . S
C1280 C1249 1.517 . S
C1280 C1281 1.377 1_455 S
C1280 C1285 1.361 . S
C1281 H1236 0.929 . S
C1281 C1280 1.377 1_655 S
C1281 C1282 1.386 . S
C1282 H1237 0.931 . S
C1282 C1281 1.386 . S
C1282 C1283 1.363 1_655 S
C1283 C1282 1.363 1_455 S
C1283 C1284 1.385 . S
C1284 H1238 0.930 . S
C1284 C1283 1.385 . S
C1284 C1285 1.396 . S
C1285 H1239 0.929 . S
C1285 C1280 1.361 . S
C1285 C1284 1.396 . S
C1286 O1240 1.300 . S
C1286 O1241 1.209 1_655 S
C1286 C1259 1.486 . S
C1287 O1242 1.199 1_455 S
C1287 O1243 1.297 . S
C1287 C1271 1.476 . S
H1288 O1314 0.856 . S
H1289 O1317 0.854 . S
H1290 C1325 0.930 . S
H1291 C1326 0.930 . S
H1292 C1328 0.930 . S
H1293 C1329 0.930 . S
H1294 C1331 0.931 . S
H1295 C1332 0.930 . S
H1296 C1334 0.930 . S
H1297 C1335 0.929 . S
H1298 C1337 0.930 . S
H1299 C1338 0.931 . S
H1300 C1340 0.930 . S
H1301 C1341 0.929 . S
H1302 C1343 0.931 . S
H1303 C1344 0.930 . S
H1304 C1346 0.930 . S
H1305 C1347 0.932 . S
H1306 C1349 0.930 . S
H1307 C1350 0.929 . S
H1308 C1352 0.931 . S
H1309 C1353 0.930 . S
H1310 C1355 0.929 . S
H1311 C1356 0.931 . S
H1312 C1358 0.930 . S
H1313 C1359 0.929 . S
O1314 H1288 0.856 . S
O1314 C1360 1.300 . S
O1315 C1360 1.209 . S
O1316 C1361 1.199 . S
O1317 H1289 0.854 . S
O1317 C1361 1.297 . S
C1318 C1319 1.404 . S
C1318 C1323 1.397 . S
C1318 C1324 1.492 . S
C1319 C1318 1.404 . S
C1319 C1320 1.396 . S
C1319 C1330 1.492 . S
C1320 C1319 1.396 . S
C1320 C1321 1.397 . S
C1320 C1336 1.509 . S
C1321 C1320 1.397 . S
C1321 C1322 1.412 . S
C1321 C1342 1.485 . S
C1322 C1321 1.412 . S
C1322 C1323 1.388 . S
C1322 C1348 1.490 . S
C1323 C1318 1.397 . S
C1323 C1322 1.388 . S
C1323 C1354 1.519 . S
C1324 C1318 1.492 . S
C1324 C1325 1.363 . S
C1324 C1329 1.390 . S
C1325 H1290 0.930 . S
C1325 C1324 1.363 . S
C1325 C1326 1.372 . S
C1326 H1291 0.930 . S
C1326 C1325 1.372 . S
C1326 C1327 1.383 . S
C1327 C1326 1.383 . S
C1327 C1328 1.395 . S
C1328 H1292 0.930 . S
C1328 C1327 1.395 . S
C1328 C1329 1.362 . S
C1329 H1293 0.930 . S
C1329 C1324 1.390 . S
C1329 C1328 1.362 . S
C1330 C1319 1.492 . S
C1330 C1331 1.377 . S
C1330 C1335 1.397 . S
C1331 H1294 0.931 . S
C1331 C1330 1.377 . S
C1331 C1332 1.376 . S
C1332 H1295 0.930 . S
C1332 C1331 1.376 . S
C1332 C1333 1.376 . S
C1333 C1332 1.376 . S
C1333 C1334 1.378 . S
C1333 C1360 1.486 . S
C1334 H1296 0.930 . S
C1334 C1333 1.378 . S
C1334 C1335 1.376 . S
C1335 H1297 0.929 . S
C1335 C1330 1.397 . S
C1335 C1334 1.376 . S
C1336 C1320 1.509 . S
C1336 C1337 1.391 . S
C1336 C1341 1.386 . S
C1337 H1298 0.930 . S
C1337 C1336 1.391 . S
C1337 C1338 1.375 . S
C1338 H1299 0.931 . S
C1338 C1337 1.375 . S
C1338 C1339 1.375 . S
C1339 C1338 1.375 . S
C1339 C1340 1.361 . S
C1340 H1300 0.930 . S
C1340 C1339 1.361 . S
C1340 C1341 1.399 . S
C1341 H1301 0.929 . S
C1341 C1336 1.386 . S
C1341 C1340 1.399 . S
C1342 C1321 1.485 . S
C1342 C1343 1.394 . S
C1342 C1347 1.360 . S
C1343 H1302 0.931 . S
C1343 C1342 1.394 . S
C1343 C1344 1.372 . S
C1344 H1303 0.930 . S
C1344 C1343 1.372 . S
C1344 C1345 1.397 . S
C1345 C1344 1.397 . S
C1345 C1346 1.390 . S
C1345 C1361 1.476 . S
C1346 H1304 0.930 . S
C1346 C1345 1.390 . S
C1346 C1347 1.366 . S
C1347 H1305 0.932 . S
C1347 C1342 1.360 . S
C1347 C1346 1.366 . S
C1348 C1322 1.490 . S
C1348 C1349 1.380 . S
C1348 C1353 1.386 . S
C1349 H1306 0.930 . S
C1349 C1348 1.380 . S
C1349 C1350 1.381 . S
C1350 H1307 0.929 . S
C1350 C1349 1.381 . S
C1350 C1351 1.371 . S
C1351 C1350 1.371 . S
C1351 C1352 1.380 . S
C1352 H1308 0.931 . S
C1352 C1351 1.380 . S
C1352 C1353 1.387 . S
C1353 H1309 0.930 . S
C1353 C1348 1.386 . S
C1353 C1352 1.387 . S
C1354 C1323 1.519 . S
C1354 C1355 1.377 . S
C1354 C1359 1.361 . S
C1355 H1310 0.929 . S
C1355 C1354 1.377 . S
C1355 C1356 1.386 . S
C1356 H1311 0.931 . S
C1356 C1355 1.386 . S
C1356 C1357 1.363 . S
C1357 C1356 1.363 . S
C1357 C1358 1.385 . S
C1358 H1312 0.930 . S
C1358 C1357 1.385 . S
C1358 C1359 1.396 . S
C1359 H1313 0.929 . S
C1359 C1354 1.361 . S
C1359 C1358 1.396 . S
C1360 O1314 1.300 . S
C1360 O1315 1.209 . S
C1360 C1333 1.486 . S
C1361 O1316 1.199 . S
C1361 O1317 1.297 . S
C1361 C1345 1.476 . S
H1362 O1388 0.856 . S
H1363 O1391 0.854 . S
H1364 C1399 0.930 . S
H1365 C1400 0.930 . S
H1366 C1402 0.930 . S
H1367 C1403 0.930 . S
H1368 C1405 0.931 . S
H1369 C1406 0.930 . S
H1370 C1408 0.930 . S
H1371 C1409 0.929 . S
H1372 C1411 0.930 . S
H1373 C1412 0.931 . S
H1374 C1414 0.930 . S
H1375 C1415 0.929 . S
H1376 C1417 0.931 . S
H1377 C1418 0.930 . S
H1378 C1420 0.930 . S
H1379 C1421 0.932 . S
H1380 C1423 0.930 . S
H1381 C1424 0.929 . S
H1382 C1426 0.931 . S
H1383 C1427 0.930 . S
H1384 C1429 0.929 . S
H1385 C1430 0.931 . S
H1386 C1432 0.930 . S
H1387 C1433 0.929 . S
O1388 H1362 0.856 . S
O1388 C1434 1.300 . S
O1389 C1434 1.209 . S
O1390 C1435 1.199 . S
O1391 H1363 0.854 . S
O1391 C1435 1.297 . S
C1392 C1393 1.404 . S
C1392 C1397 1.397 . S
C1392 C1398 1.492 . S
C1393 C1392 1.404 . S
C1393 C1394 1.396 . S
C1393 C1404 1.492 . S
C1394 C1393 1.396 . S
C1394 C1395 1.397 . S
C1394 C1410 1.509 . S
C1395 C1394 1.397 . S
C1395 C1396 1.412 . S
C1395 C1416 1.485 . S
C1396 C1395 1.412 . S
C1396 C1397 1.388 . S
C1396 C1422 1.490 . S
C1397 C1392 1.397 . S
C1397 C1396 1.388 . S
C1397 C1428 1.519 . S
C1398 C1392 1.492 . S
C1398 C1399 1.363 . S
C1398 C1403 1.390 . S
C1399 H1364 0.930 . S
C1399 C1398 1.363 . S
C1399 C1400 1.372 . S
C1400 H1365 0.930 . S
C1400 C1399 1.372 . S
C1400 C1401 1.383 . S
C1401 C1400 1.383 . S
C1401 C1402 1.395 . S
C1402 H1366 0.930 . S
C1402 C1401 1.395 . S
C1402 C1403 1.362 . S
C1403 H1367 0.930 . S
C1403 C1398 1.390 . S
C1403 C1402 1.362 . S
C1404 C1393 1.492 . S
C1404 C1405 1.377 . S
C1404 C1409 1.397 . S
C1405 H1368 0.931 . S
C1405 C1404 1.377 . S
C1405 C1406 1.376 . S
C1406 H1369 0.930 . S
C1406 C1405 1.376 . S
C1406 C1407 1.376 . S
C1407 C1406 1.376 . S
C1407 C1408 1.378 . S
C1407 C1434 1.486 . S
C1408 H1370 0.930 . S
C1408 C1407 1.378 . S
C1408 C1409 1.376 . S
C1409 H1371 0.929 . S
C1409 C1404 1.397 . S
C1409 C1408 1.376 . S
C1410 C1394 1.509 . S
C1410 C1411 1.391 . S
C1410 C1415 1.386 . S
C1411 H1372 0.930 . S
C1411 C1410 1.391 . S
C1411 C1412 1.375 . S
C1412 H1373 0.931 . S
C1412 C1411 1.375 . S
C1412 C1413 1.375 . S
C1413 C1412 1.375 . S
C1413 C1414 1.361 . S
C1414 H1374 0.930 . S
C1414 C1413 1.361 . S
C1414 C1415 1.399 . S
C1415 H1375 0.929 . S
C1415 C1410 1.386 . S
C1415 C1414 1.399 . S
C1416 C1395 1.485 . S
C1416 C1417 1.394 . S
C1416 C1421 1.360 . S
C1417 H1376 0.931 . S
C1417 C1416 1.394 . S
C1417 C1418 1.372 . S
C1418 H1377 0.930 . S
C1418 C1417 1.372 . S
C1418 C1419 1.397 . S
C1419 C1418 1.397 . S
C1419 C1420 1.390 . S
C1419 C1435 1.476 . S
C1420 H1378 0.930 . S
C1420 C1419 1.390 . S
C1420 C1421 1.366 . S
C1421 H1379 0.932 . S
C1421 C1416 1.360 . S
C1421 C1420 1.366 . S
C1422 C1396 1.490 . S
C1422 C1423 1.380 . S
C1422 C1427 1.386 . S
C1423 H1380 0.930 . S
C1423 C1422 1.380 . S
C1423 C1424 1.381 . S
C1424 H1381 0.929 . S
C1424 C1423 1.381 . S
C1424 C1425 1.371 . S
C1425 C1424 1.371 . S
C1425 C1426 1.380 . S
C1426 H1382 0.931 . S
C1426 C1425 1.380 . S
C1426 C1427 1.387 . S
C1427 H1383 0.930 . S
C1427 C1422 1.386 . S
C1427 C1426 1.387 . S
C1428 C1397 1.519 . S
C1428 C1429 1.377 . S
C1428 C1433 1.361 . S
C1429 H1384 0.929 . S
C1429 C1428 1.377 . S
C1429 C1430 1.386 . S
C1430 H1385 0.931 . S
C1430 C1429 1.386 . S
C1430 C1431 1.363 . S
C1431 C1430 1.363 . S
C1431 C1432 1.385 . S
C1432 H1386 0.930 . S
C1432 C1431 1.385 . S
C1432 C1433 1.396 . S
C1433 H1387 0.929 . S
C1433 C1428 1.361 . S
C1433 C1432 1.396 . S
C1434 O1388 1.300 . S
C1434 O1389 1.209 . S
C1434 C1407 1.486 . S
C1435 O1390 1.199 . S
C1435 O1391 1.297 . S
C1435 C1419 1.476 . S
H1436 O1462 0.856 . S
H1437 O1465 0.854 . S
H1438 C1473 0.930 . S
H1439 C1474 0.930 . S
H1440 C1476 0.930 . S
H1441 C1477 0.930 . S
H1442 C1479 0.931 . S
H1443 C1480 0.930 . S
H1444 C1482 0.930 . S
H1445 C1483 0.929 . S
H1446 C1485 0.930 . S
H1447 C1486 0.931 . S
H1448 C1488 0.930 . S
H1449 C1489 0.929 . S
H1450 C1491 0.931 . S
H1451 C1492 0.930 . S
H1452 C1494 0.930 . S
H1453 C1495 0.932 . S
H1454 C1497 0.930 . S
H1455 C1498 0.929 . S
H1456 C1500 0.931 . S
H1457 C1501 0.930 . S
H1458 C1503 0.929 . S
H1459 C1504 0.931 . S
H1460 C1506 0.930 . S
H1461 C1507 0.929 . S
O1462 H1436 0.856 . S
O1462 C1508 1.300 . S
O1463 C1508 1.209 . S
O1464 C1509 1.199 . S
O1465 H1437 0.854 . S
O1465 C1509 1.297 . S
C1466 C1467 1.404 . S
C1466 C1471 1.397 . S
C1466 C1472 1.492 . S
C1467 C1466 1.404 . S
C1467 C1468 1.396 . S
C1467 C1478 1.492 . S
C1468 C1467 1.396 . S
C1468 C1469 1.397 . S
C1468 C1484 1.509 . S
C1469 C1468 1.397 . S
C1469 C1470 1.412 . S
C1469 C1490 1.485 . S
C1470 C1469 1.412 . S
C1470 C1471 1.388 . S
C1470 C1496 1.490 . S
C1471 C1466 1.397 . S
C1471 C1470 1.388 . S
C1471 C1502 1.519 . S
C1472 C1466 1.492 . S
C1472 C1473 1.363 . S
C1472 C1477 1.390 . S
C1473 H1438 0.930 . S
C1473 C1472 1.363 . S
C1473 C1474 1.372 . S
C1474 H1439 0.930 . S
C1474 C1473 1.372 . S
C1474 C1475 1.383 . S
C1475 C1474 1.383 . S
C1475 C1476 1.395 . S
C1476 H1440 0.930 . S
C1476 C1475 1.395 . S
C1476 C1477 1.362 . S
C1477 H1441 0.930 . S
C1477 C1472 1.390 . S
C1477 C1476 1.362 . S
C1478 C1467 1.492 . S
C1478 C1479 1.377 . S
C1478 C1483 1.397 . S
C1479 H1442 0.931 . S
C1479 C1478 1.377 . S
C1479 C1480 1.376 . S
C1480 H1443 0.930 . S
C1480 C1479 1.376 . S
C1480 C1481 1.376 . S
C1481 C1480 1.376 . S
C1481 C1482 1.378 . S
C1481 C1508 1.486 . S
C1482 H1444 0.930 . S
C1482 C1481 1.378 . S
C1482 C1483 1.376 . S
C1483 H1445 0.929 . S
C1483 C1478 1.397 . S
C1483 C1482 1.376 . S
C1484 C1468 1.509 . S
C1484 C1485 1.391 . S
C1484 C1489 1.386 . S
C1485 H1446 0.930 . S
C1485 C1484 1.391 . S
C1485 C1486 1.375 . S
C1486 H1447 0.931 . S
C1486 C1485 1.375 . S
C1486 C1487 1.375 . S
C1487 C1486 1.375 . S
C1487 C1488 1.361 . S
C1488 H1448 0.930 . S
C1488 C1487 1.361 . S
C1488 C1489 1.399 . S
C1489 H1449 0.929 . S
C1489 C1484 1.386 . S
C1489 C1488 1.399 . S
C1490 C1469 1.485 . S
C1490 C1491 1.394 . S
C1490 C1495 1.360 . S
C1491 H1450 0.931 . S
C1491 C1490 1.394 . S
C1491 C1492 1.372 . S
C1492 H1451 0.930 . S
C1492 C1491 1.372 . S
C1492 C1493 1.397 . S
C1493 C1492 1.397 . S
C1493 C1494 1.390 . S
C1493 C1509 1.476 . S
C1494 H1452 0.930 . S
C1494 C1493 1.390 . S
C1494 C1495 1.366 . S
C1495 H1453 0.932 . S
C1495 C1490 1.360 . S
C1495 C1494 1.366 . S
C1496 C1470 1.490 . S
C1496 C1497 1.380 . S
C1496 C1501 1.386 . S
C1497 H1454 0.930 . S
C1497 C1496 1.380 . S
C1497 C1498 1.381 . S
C1498 H1455 0.929 . S
C1498 C1497 1.381 . S
C1498 C1499 1.371 . S
C1499 C1498 1.371 . S
C1499 C1500 1.380 . S
C1500 H1456 0.931 . S
C1500 C1499 1.380 . S
C1500 C1501 1.387 . S
C1501 H1457 0.930 . S
C1501 C1496 1.386 . S
C1501 C1500 1.387 . S
C1502 C1471 1.519 . S
C1502 C1503 1.377 . S
C1502 C1507 1.361 . S
C1503 H1458 0.929 . S
C1503 C1502 1.377 . S
C1503 C1504 1.386 . S
C1504 H1459 0.931 . S
C1504 C1503 1.386 . S
C1504 C1505 1.363 . S
C1505 C1504 1.363 . S
C1505 C1506 1.385 . S
C1506 H1460 0.930 . S
C1506 C1505 1.385 . S
C1506 C1507 1.396 . S
C1507 H1461 0.929 . S
C1507 C1502 1.361 . S
C1507 C1506 1.396 . S
C1508 O1462 1.300 . S
C1508 O1463 1.209 . S
C1508 C1481 1.486 . S
C1509 O1464 1.199 . S
C1509 O1465 1.297 . S
C1509 C1493 1.476 . S
H1510 O1536 0.856 . S
H1511 O1539 0.854 . S
H1512 C1547 0.930 . S
H1513 C1548 0.930 . S
H1514 C1550 0.930 . S
H1515 C1551 0.930 . S
H1516 C1553 0.931 . S
H1517 C1554 0.930 . S
H1518 C1556 0.930 . S
H1519 C1557 0.929 . S
H1520 C1559 0.930 . S
H1521 C1560 0.931 . S
H1522 C1562 0.930 . S
H1523 C1563 0.929 . S
H1524 C1565 0.931 . S
H1525 C1566 0.930 . S
H1526 C1568 0.930 . S
H1527 C1569 0.932 . S
H1528 C1571 0.930 . S
H1529 C1572 0.929 . S
H1530 C1574 0.931 . S
H1531 C1575 0.930 . S
H1532 C1577 0.929 . S
H1533 C1578 0.931 . S
H1534 C1580 0.930 . S
H1535 C1581 0.929 . S
O1536 H1510 0.856 . S
O1536 C1582 1.300 . S
O1537 C1582 1.209 . S
O1538 C1583 1.199 . S
O1539 H1511 0.854 . S
O1539 C1583 1.297 . S
C1540 C1541 1.404 . S
C1540 C1545 1.397 . S
C1540 C1546 1.492 . S
C1541 C1540 1.404 . S
C1541 C1542 1.396 . S
C1541 C1552 1.492 . S
C1542 C1541 1.396 . S
C1542 C1543 1.397 . S
C1542 C1558 1.509 . S
C1543 C1542 1.397 . S
C1543 C1544 1.412 . S
C1543 C1564 1.485 . S
C1544 C1543 1.412 . S
C1544 C1545 1.388 . S
C1544 C1570 1.490 . S
C1545 C1540 1.397 . S
C1545 C1544 1.388 . S
C1545 C1576 1.519 . S
C1546 C1540 1.492 . S
C1546 C1547 1.363 . S
C1546 C1551 1.390 . S
C1547 H1512 0.930 . S
C1547 C1546 1.363 . S
C1547 C1548 1.372 . S
C1548 H1513 0.930 . S
C1548 C1547 1.372 . S
C1548 C1549 1.383 . S
C1549 C1548 1.383 . S
C1549 C1550 1.395 . S
C1550 H1514 0.930 . S
C1550 C1549 1.395 . S
C1550 C1551 1.362 . S
C1551 H1515 0.930 . S
C1551 C1546 1.390 . S
C1551 C1550 1.362 . S
C1552 C1541 1.492 . S
C1552 C1553 1.377 . S
C1552 C1557 1.397 . S
C1553 H1516 0.931 . S
C1553 C1552 1.377 . S
C1553 C1554 1.376 . S
C1554 H1517 0.930 . S
C1554 C1553 1.376 . S
C1554 C1555 1.376 . S
C1555 C1554 1.376 . S
C1555 C1556 1.378 . S
C1555 C1582 1.486 . S
C1556 H1518 0.930 . S
C1556 C1555 1.378 . S
C1556 C1557 1.376 . S
C1557 H1519 0.929 . S
C1557 C1552 1.397 . S
C1557 C1556 1.376 . S
C1558 C1542 1.509 . S
C1558 C1559 1.391 . S
C1558 C1563 1.386 . S
C1559 H1520 0.930 . S
C1559 C1558 1.391 . S
C1559 C1560 1.375 . S
C1560 H1521 0.931 . S
C1560 C1559 1.375 . S
C1560 C1561 1.375 . S
C1561 C1560 1.375 . S
C1561 C1562 1.361 . S
C1562 H1522 0.930 . S
C1562 C1561 1.361 . S
C1562 C1563 1.399 . S
C1563 H1523 0.929 . S
C1563 C1558 1.386 . S
C1563 C1562 1.399 . S
C1564 C1543 1.485 . S
C1564 C1565 1.394 . S
C1564 C1569 1.360 . S
C1565 H1524 0.931 . S
C1565 C1564 1.394 . S
C1565 C1566 1.372 . S
C1566 H1525 0.930 . S
C1566 C1565 1.372 . S
C1566 C1567 1.397 . S
C1567 C1566 1.397 . S
C1567 C1568 1.390 . S
C1567 C1583 1.476 . S
C1568 H1526 0.930 . S
C1568 C1567 1.390 . S
C1568 C1569 1.366 . S
C1569 H1527 0.932 . S
C1569 C1564 1.360 . S
C1569 C1568 1.366 . S
C1570 C1544 1.490 . S
C1570 C1571 1.380 . S
C1570 C1575 1.386 . S
C1571 H1528 0.930 . S
C1571 C1570 1.380 . S
C1571 C1572 1.381 . S
C1572 H1529 0.929 . S
C1572 C1571 1.381 . S
C1572 C1573 1.371 . S
C1573 C1572 1.371 . S
C1573 C1574 1.380 . S
C1574 H1530 0.931 . S
C1574 C1573 1.380 . S
C1574 C1575 1.387 . S
C1575 H1531 0.930 . S
C1575 C1570 1.386 . S
C1575 C1574 1.387 . S
C1576 C1545 1.519 . S
C1576 C1577 1.377 . S
C1576 C1581 1.361 . S
C1577 H1532 0.929 . S
C1577 C1576 1.377 . S
C1577 C1578 1.386 . S
C1578 H1533 0.931 . S
C1578 C1577 1.386 . S
C1578 C1579 1.363 . S
C1579 C1578 1.363 . S
C1579 C1580 1.385 . S
C1580 H1534 0.930 . S
C1580 C1579 1.385 . S
C1580 C1581 1.396 . S
C1581 H1535 0.929 . S
C1581 C1576 1.361 . S
C1581 C1580 1.396 . S
C1582 O1536 1.300 . S
C1582 O1537 1.209 . S
C1582 C1555 1.486 . S
C1583 O1538 1.199 . S
C1583 O1539 1.297 . S
C1583 C1567 1.476 . S
C1584 C1585 1.369 . S
C1584 C1586 1.419 . S
C1584 H1588 0.930 . S
C1585 C1584 1.369 . S
C1585 C1594 1.429 1_655 S
C1586 C1584 1.419 . S
C1586 C1587 1.363 . S
C1586 H1589 0.929 . S
C1587 C1586 1.363 . S
C1587 C1593 1.428 1_655 S
H1588 C1584 0.930 . S
H1589 C1586 0.929 . S
S1590 N1591 1.613 . S
S1590 N1592 1.610 . S
N1591 S1590 1.613 . S
N1591 C1594 1.350 . S
N1592 S1590 1.610 . S
N1592 C1593 1.351 . S
C1593 C1587 1.428 1_455 S
C1593 N1592 1.351 . S
C1593 C1594 1.434 . S
C1594 C1585 1.429 1_455 S
C1594 N1591 1.350 . S
C1594 C1593 1.434 . S
C1595 C1596 1.369 . S
C1595 C1597 1.419 . S
C1595 H1599 0.930 . S
C1596 C1595 1.369 . S
C1596 C1605 1.429 . S
C1597 C1595 1.419 . S
C1597 C1598 1.363 . S
C1597 H1600 0.929 . S
C1598 C1597 1.363 . S
C1598 C1604 1.428 . S
H1599 C1595 0.930 . S
H1600 C1597 0.929 . S
S1601 N1602 1.613 . S
S1601 N1603 1.610 . S
N1602 S1601 1.613 . S
N1602 C1605 1.350 . S
N1603 S1601 1.610 . S
N1603 C1604 1.351 . S
C1604 C1598 1.428 . S
C1604 N1603 1.351 . S
C1604 C1605 1.434 . S
C1605 C1596 1.429 . S
C1605 N1602 1.350 . S
C1605 C1604 1.434 . S
C1606 C1607 1.381 . S
C1606 C1608 1.415 . S
C1606 H1610 0.921 1_545 S
C1607 C1606 1.381 . S
C1607 C1616 1.429 . S
C1608 C1606 1.415 . S
C1608 C1609 1.363 . S
C1608 H1611 0.933 . S
C1609 C1608 1.363 . S
C1609 C1615 1.428 . S
H1610 C1606 0.921 1_565 S
H1611 C1608 0.933 . S
S1612 N1613 1.613 . S
S1612 N1614 1.610 . S
N1613 S1612 1.613 . S
N1613 C1616 1.350 . S
N1614 S1612 1.610 . S
N1614 C1615 1.351 . S
C1615 C1609 1.428 . S
C1615 N1614 1.351 . S
C1615 C1616 1.434 . S
C1616 C1607 1.429 . S
C1616 N1613 1.350 . S
C1616 C1615 1.434 . S
C1617 C1618 1.369 . S
C1617 C1619 1.419 . S
C1617 H1621 0.930 . S
C1618 C1617 1.369 . S
C1618 C1627 1.429 1_565 S
C1619 C1617 1.419 . S
C1619 C1620 1.363 . S
C1619 H1622 0.929 . S
C1620 C1619 1.363 . S
C1620 C1626 1.428 1_565 S
H1621 C1617 0.930 . S
H1622 C1619 0.929 . S
S1623 N1624 1.613 . S
S1623 N1625 1.610 . S
N1624 S1623 1.613 . S
N1624 C1627 1.350 . S
N1625 S1623 1.610 . S
N1625 C1626 1.351 . S
C1626 C1620 1.428 1_545 S
C1626 N1625 1.351 . S
C1626 C1627 1.434 . S
C1627 C1618 1.429 1_545 S
C1627 N1624 1.350 . S
C1627 C1626 1.434 . S
C1628 C1629 1.369 1_655 S
C1628 C1630 1.419 . S
C1628 H1632 0.930 . S
C1629 C1628 1.369 1_455 S
C1629 C1638 1.429 . S
C1630 C1628 1.419 . S
C1630 C1631 1.363 1_655 S
C1630 H1633 0.929 . S
C1631 C1630 1.363 1_455 S
C1631 C1637 1.428 . S
H1632 C1628 0.930 . S
H1633 C1630 0.929 . S
S1634 N1635 1.604 1_556 S
S1634 N1636 1.610 . S
N1635 S1634 1.604 1_554 S
N1635 C1638 1.323 1_554 S
N1636 S1634 1.610 . S
N1636 C1637 1.351 . S
C1637 C1631 1.428 . S
C1637 N1636 1.351 . S
C1637 C1638 1.434 . S
C1638 C1629 1.429 . S
C1638 N1635 1.323 1_556 S
C1638 C1637 1.434 . S
C1639 C1640 1.369 1_556 S
C1639 C1641 1.419 . S
C1639 H1643 0.930 . S
C1640 C1639 1.369 1_554 S
C1640 C1649 1.429 . S
C1641 C1639 1.419 . S
C1641 C1642 1.363 . S
C1641 H1644 0.929 . S
C1642 C1641 1.363 . S
C1642 C1648 1.428 . S
H1643 C1639 0.930 . S
H1644 C1641 0.929 . S
S1645 N1646 1.613 . S
S1645 N1647 1.638 . S
N1646 S1645 1.613 . S
N1646 C1649 1.350 . S
N1647 S1645 1.638 . S
N1647 C1648 1.342 1_554 S
C1648 C1642 1.428 . S
C1648 N1647 1.342 1_556 S
C1648 C1649 1.434 1_556 S
C1649 C1640 1.429 . S
C1649 N1646 1.350 . S
C1649 C1648 1.434 1_554 S
C1650 C1651 1.355 1_556 S
C1650 C1652 1.419 . S
C1650 H1654 0.930 . S
C1651 C1650 1.355 1_554 S
C1651 C1660 1.434 1_455 S
C1652 C1650 1.419 . S
C1652 C1653 1.363 . S
C1652 H1655 0.929 . S
C1653 C1652 1.363 . S
C1653 C1659 1.428 1_455 S
H1654 C1650 0.930 . S
H1655 C1652 0.929 . S
S1656 N1657 1.613 . S
S1656 N1658 1.610 1_554 S
N1657 S1656 1.613 . S
N1657 C1660 1.350 . S
N1658 S1656 1.610 1_556 S
N1658 C1659 1.351 . S
C1659 C1653 1.428 1_655 S
C1659 N1658 1.351 . S
C1659 C1660 1.434 1_556 S
C1660 C1651 1.434 1_655 S
C1660 N1657 1.350 . S
C1660 C1659 1.434 1_554 S
C1661 C1662 1.369 . S
C1661 C1663 1.419 . S
C1661 H1665 0.930 . S
C1662 C1661 1.369 . S
C1662 C1671 1.429 . S
C1663 C1661 1.419 . S
C1663 C1664 1.363 . S
C1663 H1666 0.929 . S
C1664 C1663 1.363 . S
C1664 C1670 1.428 . S
H1665 C1661 0.930 . S
H1666 C1663 0.929 . S
S1667 N1668 1.613 . S
S1667 N1669 1.610 . S
N1668 S1667 1.613 . S
N1668 C1671 1.350 . S
N1669 S1667 1.610 . S
N1669 C1670 1.351 . S
C1670 C1664 1.428 . S
C1670 N1669 1.351 . S
C1670 C1671 1.434 . S
C1671 C1662 1.429 . S
C1671 N1668 1.350 . S
C1671 C1670 1.434 . S
C1672 C1673 1.368 1_554 S
C1672 C1674 1.430 1_554 S
C1672 H1676 0.934 . S
C1673 C1672 1.368 1_556 S
C1673 C1682 1.429 . S
C1674 C1672 1.430 1_556 S
C1674 C1675 1.365 1_565 S
C1674 H1677 0.910 1_565 S
C1675 C1674 1.365 1_545 S
C1675 C1681 1.415 1_545 S
H1676 C1672 0.934 . S
H1677 C1674 0.910 1_545 S
S1678 N1679 1.613 1_545 S
S1678 N1680 1.610 . S
N1679 S1678 1.613 1_565 S
N1679 C1682 1.350 . S
N1680 S1678 1.610 . S
N1680 C1681 1.351 1_545 S
C1681 C1675 1.415 1_565 S
C1681 N1680 1.351 1_565 S
C1681 C1682 1.437 . S
C1682 C1673 1.429 . S
C1682 N1679 1.350 . S
C1682 C1681 1.437 . S
C1683 C1684 1.369 . S
C1683 C1685 1.419 . S
C1683 H1687 0.930 . S
C1684 C1683 1.369 . S
C1684 C1693 1.429 . S
C1685 C1683 1.419 . S
C1685 C1686 1.364 . S
C1685 H1688 0.929 . S
C1686 C1685 1.364 . S
C1686 C1692 1.436 1_545 S
H1687 C1683 0.930 . S
H1688 C1685 0.929 . S
S1689 N1690 1.634 1_565 S
S1689 N1691 1.620 . S
N1690 S1689 1.634 1_545 S
N1690 C1693 1.350 . S
N1691 S1689 1.620 . S
N1691 C1692 1.338 . S
C1692 C1686 1.436 1_565 S
C1692 N1691 1.338 . S
C1692 C1693 1.438 1_565 S
C1693 C1684 1.429 . S
C1693 N1690 1.350 . S
C1693 C1692 1.438 1_545 S
C1694 C1695 1.369 . S
C1694 C1696 1.419 . S
C1694 H1698 0.930 . S
C1695 C1694 1.369 . S
C1695 C1704 1.429 1_655 S
C1696 C1694 1.419 . S
C1696 C1697 1.386 . S
C1696 H1699 0.929 . S
C1697 C1696 1.386 . S
C1697 C1703 1.420 1_655 S
H1698 C1694 0.930 . S
H1699 C1696 0.929 . S
S1700 N1701 1.613 . S
S1700 N1702 1.610 . S
N1701 S1700 1.613 . S
N1701 C1704 1.350 . S
N1702 S1700 1.610 . S
N1702 C1703 1.351 . S
C1703 C1697 1.420 1_455 S
C1703 N1702 1.351 . S
C1703 C1704 1.434 . S
C1704 C1695 1.429 1_455 S
C1704 N1701 1.350 . S
C1704 C1703 1.434 . S
C1705 C1706 1.369 . S
C1705 C1707 1.419 . S
C1705 H1709 0.930 . S
C1706 C1705 1.369 . S
C1706 C1715 1.429 . S
C1707 C1705 1.419 . S
C1707 C1708 1.363 . S
C1707 H1710 0.929 . S
C1708 C1707 1.363 . S
C1708 C1714 1.428 . S
H1709 C1705 0.930 . S
H1710 C1707 0.929 . S
S1711 N1712 1.613 . S
S1711 N1713 1.610 . S
N1712 S1711 1.613 . S
N1712 C1715 1.350 . S
N1713 S1711 1.610 . S
N1713 C1714 1.351 . S
C1714 C1708 1.428 . S
C1714 N1713 1.351 . S
C1714 C1715 1.434 . S
C1715 C1706 1.429 . S
C1715 N1712 1.350 . S
C1715 C1714 1.434 . S
C1716 C1717 1.369 . S
C1716 C1718 1.419 . S
C1716 H1720 0.930 . S
C1717 C1716 1.369 . S
C1717 C1726 1.429 . S
C1718 C1716 1.419 . S
C1718 C1719 1.363 . S
C1718 H1721 0.929 . S
C1719 C1718 1.363 . S
C1719 C1725 1.428 . S
H1720 C1716 0.930 . S
H1721 C1718 0.929 . S
S1722 N1723 1.613 . S
S1722 N1724 1.610 . S
N1723 S1722 1.613 . S
N1723 C1726 1.350 . S
N1724 S1722 1.610 . S
N1724 C1725 1.351 . S
C1725 C1719 1.428 . S
C1725 N1724 1.351 . S
C1725 C1726 1.434 . S
C1726 C1717 1.429 . S
C1726 N1723 1.350 . S
C1726 C1725 1.434 . S
C1727 C1728 1.369 . S
C1727 C1729 1.419 . S
C1727 H1731 0.930 . S
C1728 C1727 1.369 . S
C1728 C1737 1.429 . S
C1729 C1727 1.419 . S
C1729 C1730 1.363 . S
C1729 H1732 0.929 . S
C1730 C1729 1.363 . S
C1730 C1736 1.428 . S
H1731 C1727 0.930 . S
H1732 C1729 0.929 . S
S1733 N1734 1.613 . S
S1733 N1735 1.610 . S
N1734 S1733 1.613 . S
N1734 C1737 1.350 . S
N1735 S1733 1.610 . S
N1735 C1736 1.351 . S
C1736 C1730 1.428 . S
C1736 N1735 1.351 . S
C1736 C1737 1.434 . S
C1737 C1728 1.429 . S
C1737 N1734 1.350 . S
C1737 C1736 1.434 . S
C1738 C1739 1.369 . S
C1738 C1740 1.419 . S
C1738 H1742 0.930 . S
C1739 C1738 1.369 . S
C1739 C1748 1.429 . S
C1740 C1738 1.419 . S
C1740 C1741 1.363 . S
C1740 H1743 0.929 . S
C1741 C1740 1.363 . S
C1741 C1747 1.428 . S
H1742 C1738 0.930 . S
H1743 C1740 0.929 . S
S1744 N1745 1.613 . S
S1744 N1746 1.610 . S
N1745 S1744 1.613 . S
N1745 C1748 1.350 . S
N1746 S1744 1.610 . S
N1746 C1747 1.351 . S
C1747 C1741 1.428 . S
C1747 N1746 1.351 . S
C1747 C1748 1.434 . S
C1748 C1739 1.429 . S
C1748 N1745 1.350 . S
C1748 C1747 1.434 . S
C1749 C1750 1.369 . S
C1749 C1751 1.419 . S
C1749 H1753 0.930 . S
C1750 C1749 1.369 . S
C1750 C1759 1.429 . S
C1751 C1749 1.419 . S
C1751 C1752 1.363 . S
C1751 H1754 0.929 . S
C1752 C1751 1.363 . S
C1752 C1758 1.428 . S
H1753 C1749 0.930 . S
H1754 C1751 0.929 . S
S1755 N1756 1.613 . S
S1755 N1757 1.610 . S
N1756 S1755 1.613 . S
N1756 C1759 1.350 . S
N1757 S1755 1.610 . S
N1757 C1758 1.351 . S
C1758 C1752 1.428 . S
C1758 N1757 1.351 . S
C1758 C1759 1.434 . S
C1759 C1750 1.429 . S
C1759 N1756 1.350 . S
C1759 C1758 1.434 . S
C1760 C1761 1.369 . S
C1760 C1762 1.419 . S
C1760 H1764 0.930 . S
C1761 C1760 1.369 . S
C1761 C1770 1.429 . S
C1762 C1760 1.419 . S
C1762 C1763 1.363 . S
C1762 H1765 0.929 . S
C1763 C1762 1.363 . S
C1763 C1769 1.428 . S
H1764 C1760 0.930 . S
H1765 C1762 0.929 . S
S1766 N1767 1.613 . S
S1766 N1768 1.610 . S
N1767 S1766 1.613 . S
N1767 C1770 1.350 . S
N1768 S1766 1.610 . S
N1768 C1769 1.351 . S
C1769 C1763 1.428 . S
C1769 N1768 1.351 . S
C1769 C1770 1.434 . S
C1770 C1761 1.429 . S
C1770 N1767 1.350 . S
C1770 C1769 1.434 . S
C1771 C1772 1.369 . S
C1771 C1773 1.419 . S
C1771 H1775 0.930 . S
C1772 C1771 1.369 . S
C1772 C1781 1.429 . S
C1773 C1771 1.419 . S
C1773 C1774 1.363 . S
C1773 H1776 0.929 . S
C1774 C1773 1.363 . S
C1774 C1780 1.428 . S
H1775 C1771 0.930 . S
H1776 C1773 0.929 . S
S1777 N1778 1.613 . S
S1777 N1779 1.610 . S
N1778 S1777 1.613 . S
N1778 C1781 1.350 . S
N1779 S1777 1.610 . S
N1779 C1780 1.351 . S
C1780 C1774 1.428 . S
C1780 N1779 1.351 . S
C1780 C1781 1.434 . S
C1781 C1772 1.429 . S
C1781 N1778 1.350 . S
C1781 C1780 1.434 . S
C1782 C1783 1.369 . S
C1782 C1784 1.419 . S
C1782 H1786 0.930 . S
C1783 C1782 1.369 . S
C1783 C1792 1.429 . S
C1784 C1782 1.419 . S
C1784 C1785 1.363 . S
C1784 H1787 0.929 . S
C1785 C1784 1.363 . S
C1785 C1791 1.428 . S
H1786 C1782 0.930 . S
H1787 C1784 0.929 . S
S1788 N1789 1.613 . S
S1788 N1790 1.610 . S
N1789 S1788 1.613 . S
N1789 C1792 1.350 . S
N1790 S1788 1.610 . S
N1790 C1791 1.351 . S
C1791 C1785 1.428 . S
C1791 N1790 1.351 . S
C1791 C1792 1.434 . S
C1792 C1783 1.429 . S
C1792 N1789 1.350 . S
C1792 C1791 1.434 . S
C1793 C1794 1.369 . S
C1793 C1795 1.419 . S
C1793 H1797 0.930 . S
C1794 C1793 1.369 . S
C1794 C1803 1.429 . S
C1795 C1793 1.419 . S
C1795 C1796 1.363 . S
C1795 H1798 0.929 . S
C1796 C1795 1.363 . S
C1796 C1802 1.428 . S
H1797 C1793 0.930 . S
H1798 C1795 0.929 . S
S1799 N1800 1.613 . S
S1799 N1801 1.610 . S
N1800 S1799 1.613 . S
N1800 C1803 1.350 . S
N1801 S1799 1.610 . S
N1801 C1802 1.351 . S
C1802 C1796 1.428 . S
C1802 N1801 1.351 . S
C1802 C1803 1.434 . S
C1803 C1794 1.429 . S
C1803 N1800 1.350 . S
C1803 C1802 1.434 . S
C1804 C1805 1.369 . S
C1804 C1806 1.419 . S
C1804 H1808 0.930 . S
C1805 C1804 1.369 . S
C1805 C1814 1.429 . S
C1806 C1804 1.419 . S
C1806 C1807 1.363 . S
C1806 H1809 0.929 . S
C1807 C1806 1.363 . S
C1807 C1813 1.428 . S
H1808 C1804 0.930 . S
H1809 C1806 0.929 . S
S1810 N1811 1.613 . S
S1810 N1812 1.610 . S
N1811 S1810 1.613 . S
N1811 C1814 1.350 . S
N1812 S1810 1.610 . S
N1812 C1813 1.351 . S
C1813 C1807 1.428 . S
C1813 N1812 1.351 . S
C1813 C1814 1.434 . S
C1814 C1805 1.429 . S
C1814 N1811 1.350 . S
C1814 C1813 1.434 . S
C1815 C1816 1.369 . S
C1815 C1817 1.419 . S
C1815 H1819 0.930 . S
C1816 C1815 1.369 . S
C1816 C1825 1.429 . S
C1817 C1815 1.419 . S
C1817 C1818 1.363 . S
C1817 H1820 0.929 . S
C1818 C1817 1.363 . S
C1818 C1824 1.428 . S
H1819 C1815 0.930 . S
H1820 C1817 0.929 . S
S1821 N1822 1.613 . S
S1821 N1823 1.610 . S
N1822 S1821 1.613 . S
N1822 C1825 1.350 . S
N1823 S1821 1.610 . S
N1823 C1824 1.351 . S
C1824 C1818 1.428 . S
C1824 N1823 1.351 . S
C1824 C1825 1.434 . S
C1825 C1816 1.429 . S
C1825 N1822 1.350 . S
C1825 C1824 1.434 . S
C1826 C1827 1.369 . S
C1826 C1828 1.419 . S
C1826 H1830 0.930 . S
C1827 C1826 1.369 . S
C1827 C1836 1.429 . S
C1828 C1826 1.419 . S
C1828 C1829 1.363 . S
C1828 H1831 0.929 . S
C1829 C1828 1.363 . S
C1829 C1835 1.428 . S
H1830 C1826 0.930 . S
H1831 C1828 0.929 . S
S1832 N1833 1.613 . S
S1832 N1834 1.610 . S
N1833 S1832 1.613 . S
N1833 C1836 1.350 . S
N1834 S1832 1.610 . S
N1834 C1835 1.351 . S
C1835 C1829 1.428 . S
C1835 N1834 1.351 . S
C1835 C1836 1.434 . S
C1836 C1827 1.429 . S
C1836 N1833 1.350 . S
C1836 C1835 1.434 . S
C1837 C1838 1.369 . S
C1837 C1839 1.419 . S
C1837 H1841 0.930 . S
C1838 C1837 1.369 . S
C1838 C1847 1.429 . S
C1839 C1837 1.419 . S
C1839 C1840 1.363 . S
C1839 H1842 0.929 . S
C1840 C1839 1.363 . S
C1840 C1846 1.428 . S
H1841 C1837 0.930 . S
H1842 C1839 0.929 . S
S1843 N1844 1.613 . S
S1843 N1845 1.610 . S
N1844 S1843 1.613 . S
N1844 C1847 1.350 . S
N1845 S1843 1.610 . S
N1845 C1846 1.351 . S
C1846 C1840 1.428 . S
C1846 N1845 1.351 . S
C1846 C1847 1.434 . S
C1847 C1838 1.429 . S
C1847 N1844 1.350 . S
C1847 C1846 1.434 . S
C1848 C1849 1.369 . S
C1848 C1850 1.419 . S
C1848 H1852 0.930 . S
C1849 C1848 1.369 . S
C1849 C1858 1.429 . S
C1850 C1848 1.419 . S
C1850 C1851 1.363 . S
C1850 H1853 0.929 . S
C1851 C1850 1.363 . S
C1851 C1857 1.428 . S
H1852 C1848 0.930 . S
H1853 C1850 0.929 . S
S1854 N1855 1.613 . S
S1854 N1856 1.610 . S
N1855 S1854 1.613 . S
N1855 C1858 1.350 . S
N1856 S1854 1.610 . S
N1856 C1857 1.351 . S
C1857 C1851 1.428 . S
C1857 N1856 1.351 . S
C1857 C1858 1.434 . S
C1858 C1849 1.429 . S
C1858 N1855 1.350 . S
C1858 C1857 1.434 . S
C1859 C1860 1.369 . S
C1859 C1861 1.419 . S
C1859 H1863 0.930 . S
C1860 C1859 1.369 . S
C1860 C1869 1.429 . S
C1861 C1859 1.419 . S
C1861 C1862 1.363 . S
C1861 H1864 0.929 . S
C1862 C1861 1.363 . S
C1862 C1868 1.428 . S
H1863 C1859 0.930 . S
H1864 C1861 0.929 . S
S1865 N1866 1.613 . S
S1865 N1867 1.610 . S
N1866 S1865 1.613 . S
N1866 C1869 1.350 . S
N1867 S1865 1.610 . S
N1867 C1868 1.351 . S
C1868 C1862 1.428 . S
C1868 N1867 1.351 . S
C1868 C1869 1.434 . S
C1869 C1860 1.429 . S
C1869 N1866 1.350 . S
C1869 C1868 1.434 . S
C1870 C1871 1.369 . S
C1870 C1872 1.419 . S
C1870 H1874 0.930 . S
C1871 C1870 1.369 . S
C1871 C1880 1.429 . S
C1872 C1870 1.419 . S
C1872 C1873 1.363 . S
C1872 H1875 0.929 . S
C1873 C1872 1.363 . S
C1873 C1879 1.428 . S
H1874 C1870 0.930 . S
H1875 C1872 0.929 . S
S1876 N1877 1.613 . S
S1876 N1878 1.610 . S
N1877 S1876 1.613 . S
N1877 C1880 1.350 . S
N1878 S1876 1.610 . S
N1878 C1879 1.351 . S
C1879 C1873 1.428 . S
C1879 N1878 1.351 . S
C1879 C1880 1.434 . S
C1880 C1871 1.429 . S
C1880 N1877 1.350 . S
C1880 C1879 1.434 . S
C1881 C1882 1.369 . S
C1881 C1883 1.419 . S
C1881 H1885 0.930 . S
C1882 C1881 1.369 . S
C1882 C1891 1.429 . S
C1883 C1881 1.419 . S
C1883 C1884 1.363 . S
C1883 H1886 0.929 . S
C1884 C1883 1.363 . S
C1884 C1890 1.428 . S
H1885 C1881 0.930 . S
H1886 C1883 0.929 . S
S1887 N1888 1.613 . S
S1887 N1889 1.610 . S
N1888 S1887 1.613 . S
N1888 C1891 1.350 . S
N1889 S1887 1.610 . S
N1889 C1890 1.351 . S
C1890 C1884 1.428 . S
C1890 N1889 1.351 . S
C1890 C1891 1.434 . S
C1891 C1882 1.429 . S
C1891 N1888 1.350 . S
C1891 C1890 1.434 . S
C1892 C1893 1.369 . S
C1892 C1894 1.419 . S
C1892 H1896 0.930 . S
C1893 C1892 1.369 . S
C1893 C1902 1.429 . S
C1894 C1892 1.419 . S
C1894 C1895 1.363 . S
C1894 H1897 0.929 . S
C1895 C1894 1.363 . S
C1895 C1901 1.428 . S
H1896 C1892 0.930 . S
H1897 C1894 0.929 . S
S1898 N1899 1.613 . S
S1898 N1900 1.610 . S
N1899 S1898 1.613 . S
N1899 C1902 1.350 . S
N1900 S1898 1.610 . S
N1900 C1901 1.351 . S
C1901 C1895 1.428 . S
C1901 N1900 1.351 . S
C1901 C1902 1.434 . S
C1902 C1893 1.429 . S
C1902 N1899 1.350 . S
C1902 C1901 1.434 . S
C1903 C1904 1.369 . S
C1903 C1905 1.419 . S
C1903 H1907 0.930 . S
C1904 C1903 1.369 . S
C1904 C1913 1.429 . S
C1905 C1903 1.419 . S
C1905 C1906 1.363 . S
C1905 H1908 0.929 . S
C1906 C1905 1.363 . S
C1906 C1912 1.428 . S
H1907 C1903 0.930 . S
H1908 C1905 0.929 . S
S1909 N1910 1.613 . S
S1909 N1911 1.610 . S
N1910 S1909 1.613 . S
N1910 C1913 1.350 . S
N1911 S1909 1.610 . S
N1911 C1912 1.351 . S
C1912 C1906 1.428 . S
C1912 N1911 1.351 . S
C1912 C1913 1.434 . S
C1913 C1904 1.429 . S
C1913 N1910 1.350 . S
C1913 C1912 1.434 . S
C1914 C1915 1.369 . S
C1914 C1916 1.419 . S
C1914 H1918 0.930 . S
C1915 C1914 1.369 . S
C1915 C1924 1.429 . S
C1916 C1914 1.419 . S
C1916 C1917 1.363 . S
C1916 H1919 0.929 . S
C1917 C1916 1.363 . S
C1917 C1923 1.428 . S
H1918 C1914 0.930 . S
H1919 C1916 0.929 . S
S1920 N1921 1.613 . S
S1920 N1922 1.610 . S
N1921 S1920 1.613 . S
N1921 C1924 1.350 . S
N1922 S1920 1.610 . S
N1922 C1923 1.351 . S
C1923 C1917 1.428 . S
C1923 N1922 1.351 . S
C1923 C1924 1.434 . S
C1924 C1915 1.429 . S
C1924 N1921 1.350 . S
C1924 C1923 1.434 . S
C1925 C1926 1.369 . S
C1925 C1927 1.419 . S
C1925 H1929 0.930 . S
C1926 C1925 1.369 . S
C1926 C1935 1.429 . S
C1927 C1925 1.419 . S
C1927 C1928 1.363 . S
C1927 H1930 0.929 . S
C1928 C1927 1.363 . S
C1928 C1934 1.428 . S
H1929 C1925 0.930 . S
H1930 C1927 0.929 . S
S1931 N1932 1.613 . S
S1931 N1933 1.610 . S
N1932 S1931 1.613 . S
N1932 C1935 1.350 . S
N1933 S1931 1.610 . S
N1933 C1934 1.351 . S
C1934 C1928 1.428 . S
C1934 N1933 1.351 . S
C1934 C1935 1.434 . S
C1935 C1926 1.429 . S
C1935 N1932 1.350 . S
C1935 C1934 1.434 . S
C1936 C1937 1.369 . S
C1936 C1938 1.419 . S
C1936 H1940 0.930 . S
C1937 C1936 1.369 . S
C1937 C1946 1.429 . S
C1938 C1936 1.419 . S
C1938 C1939 1.363 . S
C1938 H1941 0.929 . S
C1939 C1938 1.363 . S
C1939 C1945 1.428 . S
H1940 C1936 0.930 . S
H1941 C1938 0.929 . S
S1942 N1943 1.613 . S
S1942 N1944 1.610 . S
N1943 S1942 1.613 . S
N1943 C1946 1.350 . S
N1944 S1942 1.610 . S
N1944 C1945 1.351 . S
C1945 C1939 1.428 . S
C1945 N1944 1.351 . S
C1945 C1946 1.434 . S
C1946 C1937 1.429 . S
C1946 N1943 1.350 . S
C1946 C1945 1.434 . S
C1947 C1948 1.369 . S
C1947 C1949 1.419 . S
C1947 H1951 0.930 . S
C1948 C1947 1.369 . S
C1948 C1957 1.429 . S
C1949 C1947 1.419 . S
C1949 C1950 1.363 . S
C1949 H1952 0.929 . S
C1950 C1949 1.363 . S
C1950 C1956 1.428 . S
H1951 C1947 0.930 . S
H1952 C1949 0.929 . S
S1953 N1954 1.613 . S
S1953 N1955 1.610 . S
N1954 S1953 1.613 . S
N1954 C1957 1.350 . S
N1955 S1953 1.610 . S
N1955 C1956 1.351 . S
C1956 C1950 1.428 . S
C1956 N1955 1.351 . S
C1956 C1957 1.434 . S
C1957 C1948 1.429 . S
C1957 N1954 1.350 . S
C1957 C1956 1.434 . S
C1958 C1959 1.369 . S
C1958 C1960 1.419 . S
C1958 H1962 0.930 . S
C1959 C1958 1.369 . S
C1959 C1968 1.429 . S
C1960 C1958 1.419 . S
C1960 C1961 1.363 . S
C1960 H1963 0.929 . S
C1961 C1960 1.363 . S
C1961 C1967 1.428 . S
H1962 C1958 0.930 . S
H1963 C1960 0.929 . S
S1964 N1965 1.613 . S
S1964 N1966 1.610 . S
N1965 S1964 1.613 . S
N1965 C1968 1.350 . S
N1966 S1964 1.610 . S
N1966 C1967 1.351 . S
C1967 C1961 1.428 . S
C1967 N1966 1.351 . S
C1967 C1968 1.434 . S
C1968 C1959 1.429 . S
C1968 N1965 1.350 . S
C1968 C1967 1.434 . S
C1969 C1970 1.369 . S
C1969 C1971 1.419 . S
C1969 H1973 0.930 . S
C1970 C1969 1.369 . S
C1970 C1979 1.429 . S
C1971 C1969 1.419 . S
C1971 C1972 1.363 . S
C1971 H1974 0.929 . S
C1972 C1971 1.363 . S
C1972 C1978 1.428 . S
H1973 C1969 0.930 . S
H1974 C1971 0.929 . S
S1975 N1976 1.613 . S
S1975 N1977 1.610 . S
N1976 S1975 1.613 . S
N1976 C1979 1.350 . S
N1977 S1975 1.610 . S
N1977 C1978 1.351 . S
C1978 C1972 1.428 . S
C1978 N1977 1.351 . S
C1978 C1979 1.434 . S
C1979 C1970 1.429 . S
C1979 N1976 1.350 . S
C1979 C1978 1.434 . S
C1980 C1981 1.369 . S
C1980 C1982 1.419 . S
C1980 H1984 0.930 . S
C1981 C1980 1.369 . S
C1981 C1990 1.429 . S
C1982 C1980 1.419 . S
C1982 C1983 1.363 . S
C1982 H1985 0.929 . S
C1983 C1982 1.363 . S
C1983 C1989 1.428 . S
H1984 C1980 0.930 . S
H1985 C1982 0.929 . S
S1986 N1987 1.613 . S
S1986 N1988 1.610 . S
N1987 S1986 1.613 . S
N1987 C1990 1.350 . S
N1988 S1986 1.610 . S
N1988 C1989 1.351 . S
C1989 C1983 1.428 . S
C1989 N1988 1.351 . S
C1989 C1990 1.434 . S
C1990 C1981 1.429 . S
C1990 N1987 1.350 . S
C1990 C1989 1.434 . S
C1991 C1992 1.369 . S
C1991 C1993 1.419 . S
C1991 H1995 0.930 . S
C1992 C1991 1.369 . S
C1992 C2001 1.429 . S
C1993 C1991 1.419 . S
C1993 C1994 1.363 . S
C1993 H1996 0.929 . S
C1994 C1993 1.363 . S
C1994 C2000 1.428 . S
H1995 C1991 0.930 . S
H1996 C1993 0.929 . S
S1997 N1998 1.613 . S
S1997 N1999 1.610 . S
N1998 S1997 1.613 . S
N1998 C2001 1.350 . S
N1999 S1997 1.610 . S
N1999 C2000 1.351 . S
C2000 C1994 1.428 . S
C2000 N1999 1.351 . S
C2000 C2001 1.434 . S
C2001 C1992 1.429 . S
C2001 N1998 1.350 . S
C2001 C2000 1.434 . S
C2002 C2003 1.369 . S
C2002 C2004 1.419 . S
C2002 H2006 0.930 . S
C2003 C2002 1.369 . S
C2003 C2012 1.429 . S
C2004 C2002 1.419 . S
C2004 C2005 1.363 . S
C2004 H2007 0.929 . S
C2005 C2004 1.363 . S
C2005 C2011 1.428 . S
H2006 C2002 0.930 . S
H2007 C2004 0.929 . S
S2008 N2009 1.613 . S
S2008 N2010 1.610 . S
N2009 S2008 1.613 . S
N2009 C2012 1.350 . S
N2010 S2008 1.610 . S
N2010 C2011 1.351 . S
C2011 C2005 1.428 . S
C2011 N2010 1.351 . S
C2011 C2012 1.434 . S
C2012 C2003 1.429 . S
C2012 N2009 1.350 . S
C2012 C2011 1.434 . S
C2013 C2014 1.369 . S
C2013 C2015 1.419 . S
C2013 H2017 0.950 . S
C2014 C2013 1.369 . S
C2014 C2023 1.429 . S
C2015 C2013 1.419 . S
C2015 C2016 1.363 . S
C2015 H2018 0.929 . S
C2016 C2015 1.363 . S
C2016 C2022 1.428 . S
H2017 C2013 0.950 . S
H2018 C2015 0.929 . S
S2019 N2020 1.613 . S
S2019 N2021 1.610 . S
N2020 S2019 1.613 . S
N2020 C2023 1.350 . S
N2021 S2019 1.610 . S
N2021 C2022 1.351 . S
C2022 C2016 1.428 . S
C2022 N2021 1.351 . S
C2022 C2023 1.434 . S
C2023 C2014 1.429 . S
C2023 N2020 1.350 . S
C2023 C2022 1.434 . S
C2024 C2025 1.369 . S
C2024 C2026 1.419 . S
C2024 H2028 0.930 . S
C2025 C2024 1.369 . S
C2025 C2034 1.429 . S
C2026 C2024 1.419 . S
C2026 C2027 1.363 . S
C2026 H2029 0.929 . S
C2027 C2026 1.363 . S
C2027 C2033 1.428 . S
H2028 C2024 0.930 . S
H2029 C2026 0.929 . S
S2030 N2031 1.613 . S
S2030 N2032 1.610 . S
N2031 S2030 1.613 . S
N2031 C2034 1.350 . S
N2032 S2030 1.610 . S
N2032 C2033 1.351 . S
C2033 C2027 1.428 . S
C2033 N2032 1.351 . S
C2033 C2034 1.434 . S
C2034 C2025 1.429 . S
C2034 N2031 1.350 . S
C2034 C2033 1.434 . S
C2035 C2036 1.369 1_556 S
C2035 C2037 1.419 . S
C2035 H2039 0.930 . S
C2036 C2035 1.369 1_554 S
C2036 C2045 1.429 . S
C2037 C2035 1.419 . S
C2037 C2038 1.363 . S
C2037 H2040 0.929 . S
C2038 C2037 1.363 . S
C2038 C2044 1.428 1_556 S
H2039 C2035 0.930 . S
H2040 C2037 0.929 . S
S2041 N2042 1.613 . S
S2041 N2043 1.610 . S
N2042 S2041 1.613 . S
N2042 C2045 1.350 . S
N2043 S2041 1.610 . S
N2043 C2044 1.351 . S
C2044 C2038 1.428 1_554 S
C2044 N2043 1.351 . S
C2044 C2045 1.434 . S
C2045 C2036 1.429 . S
C2045 N2042 1.350 . S
C2045 C2044 1.434 . S
C2046 C2047 1.369 . S
C2046 C2048 1.419 . S
C2046 H2050 0.930 . S
C2047 C2046 1.369 . S
C2047 C2056 1.429 . S
C2048 C2046 1.419 . S
C2048 C2049 1.363 . S
C2048 H2051 0.929 . S
C2049 C2048 1.363 . S
C2049 C2055 1.428 . S
H2050 C2046 0.930 . S
H2051 C2048 0.929 . S
S2052 N2053 1.613 . S
S2052 N2054 1.610 . S
N2053 S2052 1.613 . S
N2053 C2056 1.350 . S
N2054 S2052 1.610 . S
N2054 C2055 1.351 . S
C2055 C2049 1.428 . S
C2055 N2054 1.351 . S
C2055 C2056 1.434 . S
C2056 C2047 1.429 . S
C2056 N2053 1.350 . S
C2056 C2055 1.434 . S
C2057 C2058 1.369 . S
C2057 C2059 1.419 . S
C2057 H2061 0.930 . S
C2058 C2057 1.369 . S
C2058 C2067 1.429 . S
C2059 C2057 1.419 . S
C2059 C2060 1.363 . S
C2059 H2062 0.929 . S
C2060 C2059 1.363 . S
C2060 C2066 1.428 . S
H2061 C2057 0.930 . S
H2062 C2059 0.929 . S
S2063 N2064 1.613 . S
S2063 N2065 1.610 . S
N2064 S2063 1.613 . S
N2064 C2067 1.350 . S
N2065 S2063 1.610 . S
N2065 C2066 1.351 . S
C2066 C2060 1.428 . S
C2066 N2065 1.351 . S
C2066 C2067 1.434 . S
C2067 C2058 1.429 . S
C2067 N2064 1.350 . S
C2067 C2066 1.434 . S
C2068 C2069 1.373 1_556 S
C2068 C2070 1.419 . S
C2068 H2072 0.930 . S
C2069 C2068 1.373 1_554 S
C2069 C2078 1.427 . S
C2070 C2068 1.419 . S
C2070 C2071 1.363 . S
C2070 H2073 0.929 . S
C2071 C2070 1.363 . S
C2071 C2077 1.428 1_556 S
H2072 C2068 0.930 . S
H2073 C2070 0.929 . S
S2074 N2075 1.613 . S
S2074 N2076 1.610 . S
N2075 S2074 1.613 . S
N2075 C2078 1.350 . S
N2076 S2074 1.610 . S
N2076 C2077 1.351 . S
C2077 C2071 1.428 1_554 S
C2077 N2076 1.351 . S
C2077 C2078 1.434 . S
C2078 C2069 1.427 . S
C2078 N2075 1.350 . S
C2078 C2077 1.434 . S
C2079 C2080 1.369 . S
C2079 C2081 1.419 . S
C2079 H2083 0.930 . S
C2080 C2079 1.369 . S
C2080 C2089 1.429 . S
C2081 C2079 1.419 . S
C2081 C2082 1.363 . S
C2081 H2084 0.929 . S
C2082 C2081 1.363 . S
C2082 C2088 1.428 . S
H2083 C2079 0.930 . S
H2084 C2081 0.929 . S
S2085 N2086 1.613 . S
S2085 N2087 1.610 . S
N2086 S2085 1.613 . S
N2086 C2089 1.350 . S
N2087 S2085 1.610 . S
N2087 C2088 1.351 . S
C2088 C2082 1.428 . S
C2088 N2087 1.351 . S
C2088 C2089 1.434 . S
C2089 C2080 1.429 . S
C2089 N2086 1.350 . S
C2089 C2088 1.434 . S
C2090 C2091 1.369 . S
C2090 C2092 1.419 . S
C2090 H2094 0.930 . S
C2091 C2090 1.369 . S
C2091 C2100 1.429 . S
C2092 C2090 1.419 . S
C2092 C2093 1.363 . S
C2092 H2095 0.929 . S
C2093 C2092 1.363 . S
C2093 C2099 1.428 . S
H2094 C2090 0.930 . S
H2095 C2092 0.929 . S
S2096 N2097 1.613 . S
S2096 N2098 1.610 . S
N2097 S2096 1.613 . S
N2097 C2100 1.350 . S
N2098 S2096 1.610 . S
N2098 C2099 1.351 . S
C2099 C2093 1.428 . S
C2099 N2098 1.351 . S
C2099 C2100 1.434 . S
C2100 C2091 1.429 . S
C2100 N2097 1.350 . S
C2100 C2099 1.434 . S
C2101 C2102 1.369 . S
C2101 C2103 1.419 . S
C2101 H2105 0.930 . S
C2102 C2101 1.369 . S
C2102 C2111 1.429 . S
C2103 C2101 1.419 . S
C2103 C2104 1.363 . S
C2103 H2106 0.929 . S
C2104 C2103 1.363 . S
C2104 C2110 1.428 . S
H2105 C2101 0.930 . S
H2106 C2103 0.929 . S
S2107 N2108 1.613 . S
S2107 N2109 1.610 . S
N2108 S2107 1.613 . S
N2108 C2111 1.350 . S
N2109 S2107 1.610 . S
N2109 C2110 1.351 . S
C2110 C2104 1.428 . S
C2110 N2109 1.351 . S
C2110 C2111 1.434 . S
C2111 C2102 1.429 . S
C2111 N2108 1.350 . S
C2111 C2110 1.434 . S
C2112 C2113 1.369 . S
C2112 C2114 1.419 . S
C2112 H2116 0.930 . S
C2113 C2112 1.369 . S
C2113 C2122 1.429 . S
C2114 C2112 1.419 . S
C2114 C2115 1.363 . S
C2114 H2117 0.929 . S
C2115 C2114 1.363 . S
C2115 C2121 1.428 . S
H2116 C2112 0.930 . S
H2117 C2114 0.929 . S
S2118 N2119 1.613 . S
S2118 N2120 1.610 . S
N2119 S2118 1.613 . S
N2119 C2122 1.350 . S
N2120 S2118 1.610 . S
N2120 C2121 1.351 . S
C2121 C2115 1.428 . S
C2121 N2120 1.351 . S
C2121 C2122 1.434 . S
C2122 C2113 1.429 . S
C2122 N2119 1.350 . S
C2122 C2121 1.434 . S
C2123 C2124 1.369 . S
C2123 C2125 1.419 . S
C2123 H2127 0.930 . S
C2124 C2123 1.369 . S
C2124 C2133 1.429 . S
C2125 C2123 1.419 . S
C2125 C2126 1.363 . S
C2125 H2128 0.929 . S
C2126 C2125 1.363 . S
C2126 C2132 1.428 . S
H2127 C2123 0.930 . S
H2128 C2125 0.929 . S
S2129 N2130 1.613 . S
S2129 N2131 1.610 . S
N2130 S2129 1.613 . S
N2130 C2133 1.350 . S
N2131 S2129 1.610 . S
N2131 C2132 1.351 . S
C2132 C2126 1.428 . S
C2132 N2131 1.351 . S
C2132 C2133 1.434 . S
C2133 C2124 1.429 . S
C2133 N2130 1.350 . S
C2133 C2132 1.434 . S
C2134 C2135 1.369 . S
C2134 C2136 1.419 . S
C2134 H2138 0.930 . S
C2135 C2134 1.369 . S
C2135 C2144 1.429 . S
C2136 C2134 1.419 . S
C2136 C2137 1.363 . S
C2136 H2139 0.929 . S
C2137 C2136 1.363 . S
C2137 C2143 1.428 . S
H2138 C2134 0.930 . S
H2139 C2136 0.929 . S
S2140 N2141 1.613 . S
S2140 N2142 1.610 . S
N2141 S2140 1.613 . S
N2141 C2144 1.350 . S
N2142 S2140 1.610 . S
N2142 C2143 1.351 . S
C2143 C2137 1.428 . S
C2143 N2142 1.351 . S
C2143 C2144 1.434 . S
C2144 C2135 1.429 . S
C2144 N2141 1.350 . S
C2144 C2143 1.434 . S
C2145 C2146 1.369 . S
C2145 C2147 1.419 . S
C2145 H2149 0.930 . S
C2146 C2145 1.369 . S
C2146 C2155 1.429 . S
C2147 C2145 1.419 . S
C2147 C2148 1.363 . S
C2147 H2150 0.929 . S
C2148 C2147 1.363 . S
C2148 C2154 1.428 . S
H2149 C2145 0.930 . S
H2150 C2147 0.929 . S
S2151 N2152 1.613 . S
S2151 N2153 1.610 . S
N2152 S2151 1.613 . S
N2152 C2155 1.350 1_655 S
N2153 S2151 1.610 . S
N2153 C2154 1.351 1_655 S
C2154 C2148 1.428 . S
C2154 N2153 1.351 1_455 S
C2154 C2155 1.434 . S
C2155 C2146 1.429 . S
C2155 N2152 1.350 1_455 S
C2155 C2154 1.434 . S
C2156 C2157 1.369 . S
C2156 C2158 1.419 . S
C2156 H2160 0.930 . S
C2157 C2156 1.369 . S
C2157 C2166 1.429 . S
C2158 C2156 1.419 . S
C2158 C2159 1.363 . S
C2158 H2161 0.929 . S
C2159 C2158 1.363 . S
C2159 C2165 1.428 . S
H2160 C2156 0.930 . S
H2161 C2158 0.929 . S
S2162 N2163 1.613 . S
S2162 N2164 1.610 . S
N2163 S2162 1.613 . S
N2163 C2166 1.350 . S
N2164 S2162 1.610 . S
N2164 C2165 1.351 . S
C2165 C2159 1.428 . S
C2165 N2164 1.351 . S
C2165 C2166 1.434 . S
C2166 C2157 1.429 . S
C2166 N2163 1.350 . S
C2166 C2165 1.434 . S
C2167 C2168 1.369 . S
C2167 C2169 1.419 . S
C2167 H2171 0.930 . S
C2168 C2167 1.369 . S
C2168 C2177 1.429 . S
C2169 C2167 1.419 . S
C2169 C2170 1.363 . S
C2169 H2172 0.929 . S
C2170 C2169 1.363 . S
C2170 C2176 1.428 . S
H2171 C2167 0.930 . S
H2172 C2169 0.929 . S
S2173 N2174 1.613 . S
S2173 N2175 1.610 . S
N2174 S2173 1.613 . S
N2174 C2177 1.350 . S
N2175 S2173 1.610 . S
N2175 C2176 1.351 . S
C2176 C2170 1.428 . S
C2176 N2175 1.351 . S
C2176 C2177 1.434 . S
C2177 C2168 1.429 . S
C2177 N2174 1.350 . S
C2177 C2176 1.434 . S
C2178 C2179 1.369 . S
C2178 C2180 1.419 . S
C2178 H2182 0.930 . S
C2179 C2178 1.369 . S
C2179 C2188 1.429 1_565 S
C2180 C2178 1.419 . S
C2180 C2181 1.363 . S
C2180 H2183 0.929 . S
C2181 C2180 1.363 . S
C2181 C2187 1.428 1_565 S
H2182 C2178 0.930 . S
H2183 C2180 0.929 . S
S2184 N2185 1.613 . S
S2184 N2186 1.610 . S
N2185 S2184 1.613 . S
N2185 C2188 1.350 . S
N2186 S2184 1.610 . S
N2186 C2187 1.351 . S
C2187 C2181 1.428 1_545 S
C2187 N2186 1.351 . S
C2187 C2188 1.434 . S
C2188 C2179 1.429 1_545 S
C2188 N2185 1.350 . S
C2188 C2187 1.434 . S
C2189 C2190 1.369 . S
C2189 C2191 1.419 . S
C2189 H2193 0.930 . S
C2190 C2189 1.369 . S
C2190 C2199 1.429 1_455 S
C2191 C2189 1.419 . S
C2191 C2192 1.405 . S
C2191 H2194 0.929 . S
C2192 C2191 1.405 . S
C2192 C2198 1.379 1_455 S
H2193 C2189 0.930 . S
H2194 C2191 0.929 . S
S2195 N2196 1.613 . S
S2195 N2197 1.610 . S
N2196 S2195 1.613 . S
N2196 C2199 1.350 . S
N2197 S2195 1.610 . S
N2197 C2198 1.351 . S
C2198 C2192 1.379 1_655 S
C2198 N2197 1.351 . S
C2198 C2199 1.434 . S
C2199 C2190 1.429 1_655 S
C2199 N2196 1.350 . S
C2199 C2198 1.434 . S
C2200 C2201 1.369 . S
C2200 C2202 1.419 . S
C2200 H2204 0.930 . S
C2201 C2200 1.369 . S
C2201 C2210 1.429 . S
C2202 C2200 1.419 . S
C2202 C2203 1.363 . S
C2202 H2205 0.929 . S
C2203 C2202 1.363 . S
C2203 C2209 1.428 . S
H2204 C2200 0.930 . S
H2205 C2202 0.929 . S
S2206 N2207 1.613 . S
S2206 N2208 1.610 . S
N2207 S2206 1.613 . S
N2207 C2210 1.350 . S
N2208 S2206 1.610 . S
N2208 C2209 1.351 . S
C2209 C2203 1.428 . S
C2209 N2208 1.351 . S
C2209 C2210 1.434 . S
C2210 C2201 1.429 . S
C2210 N2207 1.350 . S
C2210 C2209 1.434 . S
C2211 C2212 1.369 . S
C2211 C2213 1.419 . S
C2211 H2215 0.930 . S
C2212 C2211 1.369 . S
C2212 C2221 1.429 . S
C2213 C2211 1.419 . S
C2213 C2214 1.363 . S
C2213 H2216 0.929 . S
C2214 C2213 1.363 . S
C2214 C2220 1.428 . S
H2215 C2211 0.930 . S
H2216 C2213 0.929 . S
S2217 N2218 1.613 . S
S2217 N2219 1.610 . S
N2218 S2217 1.613 . S
N2218 C2221 1.350 . S
N2219 S2217 1.610 . S
N2219 C2220 1.351 . S
C2220 C2214 1.428 . S
C2220 N2219 1.351 . S
C2220 C2221 1.434 . S
C2221 C2212 1.429 . S
C2221 N2218 1.350 . S
C2221 C2220 1.434 . S
C2222 C2223 1.369 . S
C2222 C2224 1.419 . S
C2222 H2226 0.930 . S
C2223 C2222 1.369 . S
C2223 C2232 1.429 . S
C2224 C2222 1.419 . S
C2224 C2225 1.363 . S
C2224 H2227 0.929 . S
C2225 C2224 1.363 . S
C2225 C2231 1.428 . S
H2226 C2222 0.930 . S
H2227 C2224 0.929 . S
S2228 N2229 1.613 . S
S2228 N2230 1.610 . S
N2229 S2228 1.613 . S
N2229 C2232 1.350 . S
N2230 S2228 1.610 . S
N2230 C2231 1.351 . S
C2231 C2225 1.428 . S
C2231 N2230 1.351 . S
C2231 C2232 1.434 . S
C2232 C2223 1.429 . S
C2232 N2229 1.350 . S
C2232 C2231 1.434 . S
C2233 C2234 1.369 . S
C2233 C2235 1.419 . S
C2233 H2237 0.930 . S
C2234 C2233 1.369 . S
C2234 C2243 1.429 . S
C2235 C2233 1.419 . S
C2235 C2236 1.363 . S
C2235 H2238 0.929 . S
C2236 C2235 1.363 . S
C2236 C2242 1.428 . S
H2237 C2233 0.930 . S
H2238 C2235 0.929 . S
S2239 N2240 1.613 . S
S2239 N2241 1.610 . S
N2240 S2239 1.613 . S
N2240 C2243 1.350 . S
N2241 S2239 1.610 . S
N2241 C2242 1.351 . S
C2242 C2236 1.428 . S
C2242 N2241 1.351 . S
C2242 C2243 1.434 . S
C2243 C2234 1.429 . S
C2243 N2240 1.350 . S
C2243 C2242 1.434 . S
C2244 C2245 1.405 . S
C2244 C2246 1.399 1_545 S
C2244 H2248 0.914 1_545 S
C2245 C2244 1.405 . S
C2245 C2254 1.429 . S
C2246 C2244 1.399 1_565 S
C2246 C2247 1.363 1_565 S
C2246 H2249 0.929 . S
C2247 C2246 1.363 1_545 S
C2247 C2253 1.428 . S
H2248 C2244 0.914 1_565 S
H2249 C2246 0.929 . S
S2250 N2251 1.613 . S
S2250 N2252 1.610 . S
N2251 S2250 1.613 . S
N2251 C2254 1.350 . S
N2252 S2250 1.610 . S
N2252 C2253 1.351 . S
C2253 C2247 1.428 . S
C2253 N2252 1.351 . S
C2253 C2254 1.434 . S
C2254 C2245 1.429 . S
C2254 N2251 1.350 . S
C2254 C2253 1.434 . S
C2255 C2256 1.369 . S
C2255 C2257 1.419 . S
C2255 H2259 0.930 . S
C2256 C2255 1.369 . S
C2256 C2265 1.429 . S
C2257 C2255 1.419 . S
C2257 C2258 1.363 . S
C2257 H2260 0.929 . S
C2258 C2257 1.363 . S
C2258 C2264 1.434 1_655 S
H2259 C2255 0.930 . S
H2260 C2257 0.929 . S
S2261 N2262 1.613 . S
S2261 N2263 1.610 . S
N2262 S2261 1.613 . S
N2262 C2265 1.350 1_455 S
N2263 S2261 1.610 . S
N2263 C2264 1.347 . S
C2264 C2258 1.434 1_455 S
C2264 N2263 1.347 . S
C2264 C2265 1.432 1_455 S
C2265 C2256 1.429 . S
C2265 N2262 1.350 1_655 S
C2265 C2264 1.432 1_655 S
C2266 C2267 1.369 . S
C2266 C2268 1.419 . S
C2266 H2270 0.930 . S
C2267 C2266 1.369 . S
C2267 C2276 1.429 . S
C2268 C2266 1.419 . S
C2268 C2269 1.363 . S
C2268 H2271 0.929 . S
C2269 C2268 1.363 . S
C2269 C2275 1.428 . S
H2270 C2266 0.930 . S
H2271 C2268 0.929 . S
S2272 N2273 1.613 . S
S2272 N2274 1.610 . S
N2273 S2272 1.613 . S
N2273 C2276 1.350 . S
N2274 S2272 1.610 . S
N2274 C2275 1.351 . S
C2275 C2269 1.428 . S
C2275 N2274 1.351 . S
C2275 C2276 1.434 . S
C2276 C2267 1.429 . S
C2276 N2273 1.350 . S
C2276 C2275 1.434 . S
C2277 C2278 1.369 . S
C2277 C2279 1.419 . S
C2277 H2281 0.930 . S
C2278 C2277 1.369 . S
C2278 C2287 1.429 . S
C2279 C2277 1.419 . S
C2279 C2280 1.363 . S
C2279 H2282 0.929 . S
C2280 C2279 1.363 . S
C2280 C2286 1.428 . S
H2281 C2277 0.930 . S
H2282 C2279 0.929 . S
S2283 N2284 1.613 . S
S2283 N2285 1.610 . S
N2284 S2283 1.613 . S
N2284 C2287 1.350 . S
N2285 S2283 1.610 . S
N2285 C2286 1.351 . S
C2286 C2280 1.428 . S
C2286 N2285 1.351 . S
C2286 C2287 1.434 . S
C2287 C2278 1.429 . S
C2287 N2284 1.350 . S
C2287 C2286 1.434 . S
C2288 C2289 1.369 . S
C2288 C2290 1.419 . S
C2288 H2292 0.930 . S
C2289 C2288 1.369 . S
C2289 C2298 1.429 . S
C2290 C2288 1.419 . S
C2290 C2291 1.363 . S
C2290 H2293 0.929 . S
C2291 C2290 1.363 . S
C2291 C2297 1.428 . S
H2292 C2288 0.930 . S
H2293 C2290 0.929 . S
S2294 N2295 1.613 . S
S2294 N2296 1.610 . S
N2295 S2294 1.613 . S
N2295 C2298 1.350 . S
N2296 S2294 1.610 . S
N2296 C2297 1.351 . S
C2297 C2291 1.428 . S
C2297 N2296 1.351 . S
C2297 C2298 1.434 . S
C2298 C2289 1.429 . S
C2298 N2295 1.350 . S
C2298 C2297 1.434 . S
C2299 C2300 1.369 . S
C2299 C2301 1.419 . S
C2299 H2303 0.930 . S
C2300 C2299 1.369 . S
C2300 C2309 1.429 . S
C2301 C2299 1.419 . S
C2301 C2302 1.363 . S
C2301 H2304 0.929 . S
C2302 C2301 1.363 . S
C2302 C2308 1.428 . S
H2303 C2299 0.930 . S
H2304 C2301 0.929 . S
S2305 N2306 1.613 . S
S2305 N2307 1.610 . S
N2306 S2305 1.613 . S
N2306 C2309 1.350 . S
N2307 S2305 1.610 . S
N2307 C2308 1.351 . S
C2308 C2302 1.428 . S
C2308 N2307 1.351 . S
C2308 C2309 1.434 . S
C2309 C2300 1.429 . S
C2309 N2306 1.350 . S
C2309 C2308 1.434 . S
C2310 C2311 1.369 . S
C2310 C2312 1.419 . S
C2310 H2314 0.930 . S
C2311 C2310 1.369 . S
C2311 C2320 1.429 . S
C2312 C2310 1.419 . S
C2312 C2313 1.363 . S
C2312 H2315 0.929 . S
C2313 C2312 1.363 . S
C2313 C2319 1.428 . S
H2314 C2310 0.930 . S
H2315 C2312 0.929 . S
S2316 N2317 1.613 . S
S2316 N2318 1.610 . S
N2317 S2316 1.613 . S
N2317 C2320 1.350 . S
N2318 S2316 1.610 . S
N2318 C2319 1.351 . S
C2319 C2313 1.428 . S
C2319 N2318 1.351 . S
C2319 C2320 1.434 . S
C2320 C2311 1.429 . S
C2320 N2317 1.350 . S
C2320 C2319 1.434 . S
C2321 C2322 1.369 . S
C2321 C2323 1.419 . S
C2321 H2325 0.930 . S
C2322 C2321 1.369 . S
C2322 C2331 1.429 . S
C2323 C2321 1.419 . S
C2323 C2324 1.363 . S
C2323 H2326 0.929 . S
C2324 C2323 1.363 . S
C2324 C2330 1.428 . S
H2325 C2321 0.930 . S
H2326 C2323 0.929 . S
S2327 N2328 1.613 . S
S2327 N2329 1.610 . S
N2328 S2327 1.613 . S
N2328 C2331 1.350 . S
N2329 S2327 1.610 . S
N2329 C2330 1.351 . S
C2330 C2324 1.428 . S
C2330 N2329 1.351 . S
C2330 C2331 1.434 . S
C2331 C2322 1.429 . S
C2331 N2328 1.350 . S
C2331 C2330 1.434 . S
C2332 C2333 1.369 . S
C2332 C2334 1.419 . S
C2332 H2336 0.930 . S
C2333 C2332 1.369 . S
C2333 C2342 1.429 . S
C2334 C2332 1.419 . S
C2334 C2335 1.363 . S
C2334 H2337 0.929 . S
C2335 C2334 1.363 . S
C2335 C2341 1.428 . S
H2336 C2332 0.930 . S
H2337 C2334 0.929 . S
S2338 N2339 1.613 . S
S2338 N2340 1.610 . S
N2339 S2338 1.613 . S
N2339 C2342 1.350 . S
N2340 S2338 1.610 . S
N2340 C2341 1.351 . S
C2341 C2335 1.428 . S
C2341 N2340 1.351 . S
C2341 C2342 1.434 . S
C2342 C2333 1.429 . S
C2342 N2339 1.350 . S
C2342 C2341 1.434 . S
C2343 C2344 1.369 . S
C2343 C2345 1.419 . S
C2343 H2347 0.930 . S
C2344 C2343 1.369 . S
C2344 C2353 1.429 . S
C2345 C2343 1.419 . S
C2345 C2346 1.363 . S
C2345 H2348 0.929 . S
C2346 C2345 1.363 . S
C2346 C2352 1.428 . S
H2347 C2343 0.930 . S
H2348 C2345 0.929 . S
S2349 N2350 1.613 . S
S2349 N2351 1.610 . S
N2350 S2349 1.613 . S
N2350 C2353 1.350 . S
N2351 S2349 1.610 . S
N2351 C2352 1.351 . S
C2352 C2346 1.428 . S
C2352 N2351 1.351 . S
C2352 C2353 1.434 . S
C2353 C2344 1.429 . S
C2353 N2350 1.350 . S
C2353 C2352 1.434 . S
C2354 C2355 1.369 . S
C2354 C2356 1.419 . S
C2354 H2358 0.930 . S
C2355 C2354 1.369 . S
C2355 C2364 1.429 . S
C2356 C2354 1.419 . S
C2356 C2357 1.363 . S
C2356 H2359 0.929 . S
C2357 C2356 1.363 . S
C2357 C2363 1.428 . S
H2358 C2354 0.930 . S
H2359 C2356 0.929 . S
S2360 N2361 1.613 . S
S2360 N2362 1.610 . S
N2361 S2360 1.613 . S
N2361 C2364 1.350 . S
N2362 S2360 1.610 . S
N2362 C2363 1.351 . S
C2363 C2357 1.428 . S
C2363 N2362 1.351 . S
C2363 C2364 1.434 . S
C2364 C2355 1.429 . S
C2364 N2361 1.350 . S
C2364 C2363 1.434 . S
C2365 C2366 1.369 . S
C2365 C2367 1.419 1_545 S
C2365 H2369 0.930 . S
C2366 C2365 1.369 . S
C2366 C2375 1.429 . S
C2367 C2365 1.419 1_565 S
C2367 C2368 1.362 1_565 S
C2367 H2370 0.930 . S
C2368 C2367 1.362 1_545 S
C2368 C2374 1.428 . S
H2369 C2365 0.930 . S
H2370 C2367 0.930 . S
S2371 N2372 1.613 . S
S2371 N2373 1.610 . S
N2372 S2371 1.613 . S
N2372 C2375 1.350 . S
N2373 S2371 1.610 . S
N2373 C2374 1.351 . S
C2374 C2368 1.428 . S
C2374 N2373 1.351 . S
C2374 C2375 1.434 . S
C2375 C2366 1.429 . S
C2375 N2372 1.350 . S
C2375 C2374 1.434 . S
C1585 C8 1.397 1_655 S
C1587 C981 1.249 . S
C1596 C22 1.627 . S
C1598 C1061 1.576 . S
C1609 C1129 1.424 . S
C1607 C37 1.493 1_545 S
C1618 C36 1.735 . S
C1620 C1209 1.741 . S
C1629 C9 1.541 1_455 S
C1631 C1283 1.524 . S
C1640 C23 1.723 . S
C1642 C1351 1.591 . S
C1651 C50 1.263 1_455 S
C1653 C1277 1.193 . S
C1664 C1357 1.490 . S
C1662 C64 1.462 . S
C1675 C1203 1.379 . S
C1673 C79 1.370 1_566 S
C1684 C78 1.658 . S
C1686 C1135 1.710 1_545 S
C1697 C987 1.471 . S
C1695 C51 1.436 1_655 S
C1706 C65 1.492 . S
C1708 C1055 1.465 . S
C1717 C92 1.586 . S
C1719 C1425 1.395 . S
C1728 C106 1.677 . S
C1730 C1505 1.616 . S
C1741 C1573 1.565 . S
C1739 C121 1.688 . S
C1750 C120 1.902 . S
C1752 C321 1.846 . S
C1761 C93 1.698 . S
C1763 C395 1.629 . S
C1772 C107 1.748 . S
C1774 C463 1.614 . S
C1783 C134 1.280 . S
C1785 C389 1.210 . S
C1794 C148 1.492 . S
C1796 C469 1.514 . S
C1807 C315 1.434 . S
C1805 C163 1.445 . S
C1818 C1579 1.815 . S
C1816 C162 1.778 . S
C1829 C1431 1.522 . S
C1827 C135 1.517 . S
C1840 C1499 1.508 . S
C1838 C149 1.536 . S
C1849 C176 1.517 . S
C1851 C537 1.337 . S
C1860 C190 1.677 . S
C1862 C617 1.616 . S
C1871 C205 1.678 . S
C1873 C685 1.556 . S
C1882 C204 1.963 . S
C1884 C765 1.902 . S
C1895 C839 1.634 . S
C1893 C177 1.706 . S
C1906 C907 1.648 . S
C1904 C191 1.784 . S
C1917 C833 1.268 . S
C1915 C218 1.350 . S
C1928 C913 1.511 . S
C1926 C232 1.494 . S
C1937 C247 1.447 . S
C1939 C759 1.429 . S
C1950 C691 1.757 . S
C1948 C246 1.726 . S
C1959 C219 1.511 . S
C1961 C543 1.525 . S
C1972 C611 1.478 . S
C1970 C233 1.499 . S
C1983 C291 1.873 . S
C1981 C6 1.952 . S
C1992 C20 1.464 . S
C1994 C365 1.459 . S
C2005 C451 1.494 . S
C2003 C35 1.500 . S
C2016 C525 1.274 . S
C2014 C34 1.288 . S
C2027 C587 1.577 . S
C2025 C7 1.604 . S
C2038 C673 1.539 . S
C2036 C21 1.542 . S
C2047 C48 2.129 1_556 S
C2049 C661 1.974 . S
C2058 C62 1.668 . S
C2060 C513 1.572 . S
C2069 C77 1.742 . S
C2071 C599 1.662 . S
C2080 C76 1.556 . S
C2082 C377 1.470 . S
C2093 C439 1.696 . S
C2091 C49 1.831 . S
C2102 C63 1.792 . S
C2104 C303 1.705 . S
C2115 C735 1.858 . S
C2113 C90 1.917 . S
C2124 C104 1.525 . S
C2126 C809 1.531 . S
C2135 C119 1.503 . S
C2137 C895 1.504 . S
C2148 C969 1.217 . S
C2146 C118 1.209 . S
C2157 C91 1.566 . S
C2159 C1031 1.549 . S
C2168 C105 1.468 . S
C2170 C1117 1.494 . S
C2179 C132 1.940 . S
C2181 C1105 1.835 1_565 S
C2190 C146 1.540 . S
C2192 C957 1.515 1_455 S
C2203 C1043 1.613 . S
C2201 C161 1.686 . S
C2212 C160 1.555 . S
C2214 C821 1.461 . S
C2223 C133 1.821 . S
C2225 C883 1.709 . S
C2236 C747 1.740 . S
C2234 C147 1.820 . S
C2247 C1179 1.797 . S
C2245 C174 1.838 . S
C2256 C188 1.421 . S
C2258 C1253 1.433 . S
C2267 C203 1.465 . S
C2269 C1339 1.467 . S
C2280 C1413 1.280 . S
C2278 C202 1.298 . S
C2291 C1475 1.598 . S
C2289 C175 1.610 . S
C2300 C189 1.578 . S
C2302 C1561 1.580 . S
C2311 C216 2.097 . S
C2313 C1549 1.947 . S
C2322 C230 1.721 . S
C2324 C1401 1.634 . S
C2335 C1487 1.652 . S
C2333 C245 1.756 . S
C2346 C1265 1.322 . S
C2344 C244 1.359 . S
C2357 C1327 1.659 . S
C2355 C217 1.774 . S
C2366 C231 1.603 . S
C2368 C1191 1.571 . S
