# Generated by pormake.
# Topology ssc, (4,4)-cn, num edge types: 1
# Building blocks:
#     Node 0, Type 0, BuildingBlock: CEKHIL_clean_sbu_0, # of connection points: 4
#     Node 1, Type 0, BuildingBlock: CEKHIL_clean_sbu_0, # of connection points: 4
#     Node 2, Type 0, BuildingBlock: CEKHIL_clean_sbu_0, # of connection points: 4
#     Node 3, Type 0, BuildingBlock: CEKHIL_clean_sbu_0, # of connection points: 4
#     Node 4, Type 0, BuildingBlock: CEKHIL_clean_sbu_0, # of connection points: 4
#     Node 5, Type 0, BuildingBlock: CEKHIL_clean_sbu_0, # of connection points: 4
#     Node 6, Type 0, BuildingBlock: CEKHIL_clean_sbu_0, # of connection points: 4
#     Node 7, Type 0, BuildingBlock: CEKHIL_clean_sbu_0, # of connection points: 4
#     Node 8, Type 0, BuildingBlock: CEKHIL_clean_sbu_0, # of connection points: 4
#     Node 9, Type 0, BuildingBlock: CEKHIL_clean_sbu_0, # of connection points: 4
#     Node 10, Type 0, BuildingBlock: CEKHIL_clean_sbu_0, # of connection points: 4
#     Node 11, Type 0, BuildingBlock: CEKHIL_clean_sbu_0, # of connection points: 4
#     Node 12, Type 1, BuildingBlock: GIZVER_clean_linker_0, # of connection points: 4
#     Node 13, Type 1, BuildingBlock: GIZVER_clean_linker_0, # of connection points: 4
#     Node 14, Type 1, BuildingBlock: GIZVER_clean_linker_0, # of connection points: 4
#     Node 15, Type 1, BuildingBlock: GIZVER_clean_linker_0, # of connection points: 4
#     Node 16, Type 1, BuildingBlock: GIZVER_clean_linker_0, # of connection points: 4
#     Node 17, Type 1, BuildingBlock: GIZVER_clean_linker_0, # of connection points: 4
#     Node 18, Type 1, BuildingBlock: GIZVER_clean_linker_0, # of connection points: 4
#     Node 19, Type 1, BuildingBlock: GIZVER_clean_linker_0, # of connection points: 4
#     Node 20, Type 1, BuildingBlock: GIZVER_clean_linker_0, # of connection points: 4
#     Node 21, Type 1, BuildingBlock: GIZVER_clean_linker_0, # of connection points: 4
#     Node 22, Type 1, BuildingBlock: GIZVER_clean_linker_0, # of connection points: 4
#     Node 23, Type 1, BuildingBlock: GIZVER_clean_linker_0, # of connection points: 4
#     Edge 24, Type (0, 1), BuildingBlock: UVAHIK_clean_linker_0, # of connection points: 2
#     Edge 25, Type (0, 1), BuildingBlock: UVAHIK_clean_linker_0, # of connection points: 2
#     Edge 26, Type (0, 1), BuildingBlock: UVAHIK_clean_linker_0, # of connection points: 2
#     Edge 27, Type (0, 1), BuildingBlock: UVAHIK_clean_linker_0, # of connection points: 2
#     Edge 28, Type (0, 1), BuildingBlock: UVAHIK_clean_linker_0, # of connection points: 2
#     Edge 29, Type (0, 1), BuildingBlock: UVAHIK_clean_linker_0, # of connection points: 2
#     Edge 30, Type (0, 1), BuildingBlock: UVAHIK_clean_linker_0, # of connection points: 2
#     Edge 31, Type (0, 1), BuildingBlock: UVAHIK_clean_linker_0, # of connection points: 2
#     Edge 32, Type (0, 1), BuildingBlock: UVAHIK_clean_linker_0, # of connection points: 2
#     Edge 33, Type (0, 1), BuildingBlock: UVAHIK_clean_linker_0, # of connection points: 2
#     Edge 34, Type (0, 1), BuildingBlock: UVAHIK_clean_linker_0, # of connection points: 2
#     Edge 35, Type (0, 1), BuildingBlock: UVAHIK_clean_linker_0, # of connection points: 2
#     Edge 36, Type (0, 1), BuildingBlock: UVAHIK_clean_linker_0, # of connection points: 2
#     Edge 37, Type (0, 1), BuildingBlock: UVAHIK_clean_linker_0, # of connection points: 2
#     Edge 38, Type (0, 1), BuildingBlock: UVAHIK_clean_linker_0, # of connection points: 2
#     Edge 39, Type (0, 1), BuildingBlock: UVAHIK_clean_linker_0, # of connection points: 2
#     Edge 40, Type (0, 1), BuildingBlock: UVAHIK_clean_linker_0, # of connection points: 2
#     Edge 41, Type (0, 1), BuildingBlock: UVAHIK_clean_linker_0, # of connection points: 2
#     Edge 42, Type (0, 1), BuildingBlock: UVAHIK_clean_linker_0, # of connection points: 2
#     Edge 43, Type (0, 1), BuildingBlock: UVAHIK_clean_linker_0, # of connection points: 2
#     Edge 44, Type (0, 1), BuildingBlock: UVAHIK_clean_linker_0, # of connection points: 2
#     Edge 45, Type (0, 1), BuildingBlock: UVAHIK_clean_linker_0, # of connection points: 2
#     Edge 46, Type (0, 1), BuildingBlock: UVAHIK_clean_linker_0, # of connection points: 2
#     Edge 47, Type (0, 1), BuildingBlock: UVAHIK_clean_linker_0, # of connection points: 2
#     Edge 48, Type (0, 1), BuildingBlock: UVAHIK_clean_linker_0, # of connection points: 2
#     Edge 49, Type (0, 1), BuildingBlock: UVAHIK_clean_linker_0, # of connection points: 2
#     Edge 50, Type (0, 1), BuildingBlock: UVAHIK_clean_linker_0, # of connection points: 2
#     Edge 51, Type (0, 1), BuildingBlock: UVAHIK_clean_linker_0, # of connection points: 2
#     Edge 52, Type (0, 1), BuildingBlock: UVAHIK_clean_linker_0, # of connection points: 2
#     Edge 53, Type (0, 1), BuildingBlock: UVAHIK_clean_linker_0, # of connection points: 2
#     Edge 54, Type (0, 1), BuildingBlock: UVAHIK_clean_linker_0, # of connection points: 2
#     Edge 55, Type (0, 1), BuildingBlock: UVAHIK_clean_linker_0, # of connection points: 2
#     Edge 56, Type (0, 1), BuildingBlock: UVAHIK_clean_linker_0, # of connection points: 2
#     Edge 57, Type (0, 1), BuildingBlock: UVAHIK_clean_linker_0, # of connection points: 2
#     Edge 58, Type (0, 1), BuildingBlock: UVAHIK_clean_linker_0, # of connection points: 2
#     Edge 59, Type (0, 1), BuildingBlock: UVAHIK_clean_linker_0, # of connection points: 2
#     Edge 60, Type (0, 1), BuildingBlock: UVAHIK_clean_linker_0, # of connection points: 2
#     Edge 61, Type (0, 1), BuildingBlock: UVAHIK_clean_linker_0, # of connection points: 2
#     Edge 62, Type (0, 1), BuildingBlock: UVAHIK_clean_linker_0, # of connection points: 2
#     Edge 63, Type (0, 1), BuildingBlock: UVAHIK_clean_linker_0, # of connection points: 2
#     Edge 64, Type (0, 1), BuildingBlock: UVAHIK_clean_linker_0, # of connection points: 2
#     Edge 65, Type (0, 1), BuildingBlock: UVAHIK_clean_linker_0, # of connection points: 2
#     Edge 66, Type (0, 1), BuildingBlock: UVAHIK_clean_linker_0, # of connection points: 2
#     Edge 67, Type (0, 1), BuildingBlock: UVAHIK_clean_linker_0, # of connection points: 2
#     Edge 68, Type (0, 1), BuildingBlock: UVAHIK_clean_linker_0, # of connection points: 2
#     Edge 69, Type (0, 1), BuildingBlock: UVAHIK_clean_linker_0, # of connection points: 2
#     Edge 70, Type (0, 1), BuildingBlock: UVAHIK_clean_linker_0, # of connection points: 2
#     Edge 71, Type (0, 1), BuildingBlock: UVAHIK_clean_linker_0, # of connection points: 2
# Relax obj value: 0.117
# Max RMSD: 0.302
# Mean RMSD: 0.276
data_MOF--net-ssc--node1-CEKHIL_clean_sbu_0--node2-GIZVER_clean_linker_0--edge1-UVAHIK_clean_linker_0
_symmetry_space_group_name_H-M    P1
_symmetry_Int_Tables_number       1
_symmetry_cell_setting            triclinic
loop_
_symmetry_equiv_pos_as_xyz
'x, y, z'
_cell_length_a     39.692253
_cell_length_b     39.811022
_cell_length_c     39.646548
_cell_angle_alpha  91.241923
_cell_angle_beta   89.889348
_cell_angle_gamma 93.153465
loop_
_atom_site_label
_atom_site_type_symbol
_atom_site_fract_x
_atom_site_fract_y
_atom_site_fract_z
_atom_type_partial_charge
Co0 Co 0.03564 0.24125 0.11022 0.0
O1 O 0.06724 0.24948 0.0741 0.0
O2 O 0.02293 0.27945 0.08465 0.0
C3 C 0.07446 0.23524 0.15073 0.0
O4 O 0.99866 0.24206 0.14623 0.0
Co5 Co 0.03075 0.17331 0.14668 0.0
O6 O 0.00256 0.19742 0.17946 0.0
C7 C 0.00143 0.17735 0.07889 0.0
C8 C 0.04965 0.27479 0.06647 0.0
C9 C 0.99014 0.22533 0.17268 0.0
O10 O 0.00759 0.20945 0.07982 0.0
O11 O 0.01034 0.15802 0.10227 0.0
O12 O 0.06628 0.26493 0.14184 0.0
O13 O 0.06131 0.21028 0.13287 0.0
Co14 Co 0.05174 0.78842 0.42236 0.0
O15 O 0.08295 0.77828 0.45748 0.0
O16 O 0.03442 0.7499 0.44694 0.0
C17 C 0.09086 0.79546 0.38139 0.0
O18 O 0.01373 0.78911 0.38796 0.0
Co19 Co 0.05427 0.85639 0.38538 0.0
O20 O 0.02022 0.83394 0.35473 0.0
C21 C 0.02729 0.85251 0.45487 0.0
C22 C 0.06198 0.75319 0.46462 0.0
C23 C 0.00499 0.80618 0.36254 0.0
O24 O 0.02836 0.82019 0.45398 0.0
O25 O 0.0388 0.87126 0.43117 0.0
O26 O 0.07927 0.76541 0.38908 0.0
O27 O 0.08036 0.8197 0.40003 0.0
Co28 Co 0.54453 0.7273 0.60565 0.0
O29 O 0.57451 0.73867 0.56888 0.0
O30 O 0.52869 0.76543 0.58222 0.0
C31 C 0.58438 0.72121 0.64507 0.0
O32 O 0.5083 0.72445 0.64216 0.0
Co33 Co 0.54399 0.65763 0.63888 0.0
O34 O 0.51486 0.67872 0.67314 0.0
C35 C 0.51399 0.66321 0.57165 0.0
C36 C 0.55461 0.76259 0.56247 0.0
C37 C 0.50085 0.70617 0.66779 0.0
O38 O 0.51737 0.69547 0.57472 0.0
O39 O 0.52511 0.64336 0.59349 0.0
O40 O 0.57484 0.75095 0.63785 0.0
O41 O 0.57213 0.69673 0.62608 0.0
Co42 Co 0.51251 0.28033 0.9233 0.0
O43 O 0.54687 0.26625 0.95342 0.0
O44 O 0.49577 0.24158 0.94816 0.0
C45 C 0.54637 0.28689 0.87773 0.0
O46 O 0.4709 0.28555 0.89407 0.0
Co47 Co 0.51653 0.35058 0.89044 0.0
O48 O 0.47874 0.3313 0.86224 0.0
C49 C 0.49826 0.34456 0.96241 0.0
C50 C 0.52535 0.24226 0.96225 0.0
C51 C 0.46183 0.30447 0.87015 0.0
O52 O 0.49575 0.31219 0.95932 0.0
O53 O 0.50892 0.36373 0.93872 0.0
O54 O 0.53362 0.25721 0.88529 0.0
O55 O 0.54051 0.31072 0.8991 0.0
Co56 Co 0.08301 0.00291 0.24102 0.0
O57 O 0.1221 0.97961 0.22699 0.0
O58 O 0.10745 0.98953 0.28009 0.0
C59 C 0.04618 0.97569 0.20552 0.0
O60 O 0.04443 0.02419 0.2658 0.0
Co61 Co 0.04389 0.04716 0.19281 0.0
O62 O 0.00863 0.04438 0.22846 0.0
C63 C 0.11142 0.07052 0.21762 0.0
C64 C 0.12829 0.9764 0.25892 0.0
C65 C 0.01605 0.03624 0.25835 0.0
O66 O 0.11019 0.04716 0.23962 0.0
O67 O 0.08888 0.07296 0.19485 0.0
O68 O 0.0543 0.96207 0.23368 0.0
O69 O 0.06249 0.00364 0.19859 0.0
Co70 Co 0.28086 0.92724 0.57666 0.0
O71 O 0.27501 0.96476 0.60739 0.0
O72 O 0.24279 0.95135 0.56301 0.0
C73 C 0.28835 0.88875 0.61639 0.0
O74 O 0.2762 0.8908 0.54027 0.0
Co75 Co 0.34552 0.88821 0.57029 0.0
O76 O 0.3168 0.85427 0.54443 0.0
C77 C 0.34374 0.95588 0.54142 0.0
C78 C 0.24882 0.97078 0.58924 0.0
C79 C 0.28906 0.8629 0.53209 0.0
O80 O 0.31199 0.95612 0.54795 0.0
O81 O 0.36209 0.93201 0.55 0.0
O82 O 0.25821 0.89682 0.60817 0.0
O83 O 0.31303 0.90561 0.60209 0.0
Co84 Co 0.42675 0.06733 0.77881 0.0
O85 O 0.39877 0.10509 0.77436 0.0
O86 O 0.40048 0.07303 0.81928 0.0
C87 C 0.47532 0.09091 0.75853 0.0
O88 O 0.45318 0.0279 0.79383 0.0
Co89 Co 0.45654 0.03124 0.7166 0.0
O90 O 0.48707 0.01377 0.75102 0.0
C91 C 0.38456 0.01939 0.73178 0.0
C92 C 0.38735 0.0979 0.80427 0.0
C93 C 0.47867 0.01281 0.78204 0.0
O94 O 0.38923 0.03653 0.75941 0.0
O95 O 0.40793 0.01549 0.70997 0.0
O96 O 0.46622 0.09708 0.78951 0.0
O97 O 0.45299 0.0744 0.74 0.0
Co98 Co 0.27664 0.11298 0.04285 0.0
O99 O 0.28446 0.08027 0.07655 0.0
O100 O 0.31793 0.09099 0.03289 0.0
C101 C 0.26315 0.15437 0.07926 0.0
O102 O 0.27841 0.14617 0.00411 0.0
Co103 Co 0.20634 0.14159 0.03343 0.0
O104 O 0.23123 0.17486 0.0049 0.0
C105 C 0.2174 0.07159 0.01251 0.0
C106 C 0.31176 0.07393 0.06004 0.0
C107 C 0.26087 0.17029 0.99393 0.0
O108 O 0.24947 0.07748 0.01578 0.0
O109 O 0.19588 0.09312 0.0208 0.0
O110 O 0.29462 0.14912 0.07289 0.0
O111 O 0.24133 0.13304 0.06564 0.0
Co112 Co 0.77805 0.41804 0.06213 0.0
O113 O 0.76926 0.4529 0.09508 0.0
O114 O 0.74368 0.44562 0.04563 0.0
C115 C 0.77774 0.37515 0.09834 0.0
O116 O 0.77787 0.38532 0.02211 0.0
Co117 Co 0.84192 0.37749 0.06204 0.0
O118 O 0.81911 0.34938 0.02595 0.0
C119 C 0.84665 0.44778 0.04015 0.0
C120 C 0.7469 0.46251 0.07393 0.0
C121 C 0.79295 0.35938 0.01151 0.0
O122 O 0.8143 0.4483 0.04134 0.0
O123 O 0.86283 0.42261 0.04942 0.0
O124 O 0.74963 0.38556 0.08668 0.0
O125 O 0.80488 0.39241 0.08983 0.0
Co126 Co 0.89786 0.58272 0.2449 0.0
O127 O 0.86727 0.61712 0.23528 0.0
O128 O 0.8726 0.59379 0.28505 0.0
C129 C 0.94368 0.60642 0.21953 0.0
O130 O 0.9277 0.54817 0.26519 0.0
Co131 Co 0.93008 0.54044 0.18798 0.0
O132 O 0.96234 0.53088 0.22427 0.0
C133 C 0.85894 0.52575 0.20622 0.0
C134 C 0.85787 0.61527 0.26662 0.0
C135 C 0.95431 0.53363 0.2553 0.0
O136 O 0.86201 0.54707 0.23108 0.0
O137 O 0.88263 0.52051 0.18512 0.0
O138 O 0.93544 0.61616 0.24982 0.0
O139 O 0.92227 0.58558 0.20451 0.0
Co140 Co 0.75011 0.59138 0.53897 0.0
O141 O 0.75509 0.55311 0.56704 0.0
O142 O 0.7866 0.56537 0.52221 0.0
C143 C 0.74603 0.63025 0.58065 0.0
O144 O 0.75333 0.62908 0.50459 0.0
Co145 Co 0.68374 0.62923 0.5407 0.0
O146 O 0.71009 0.66243 0.51333 0.0
C147 C 0.68412 0.56161 0.50966 0.0
C148 C 0.77947 0.54528 0.54697 0.0
C149 C 0.73779 0.656 0.49885 0.0
O150 O 0.71656 0.56341 0.51071 0.0
O151 O 0.66602 0.58425 0.52251 0.0
O152 O 0.77542 0.62076 0.571 0.0
O153 O 0.72034 0.61353 0.56743 0.0
Co154 Co 0.61026 0.48503 0.7313 0.0
O155 O 0.64732 0.45806 0.71873 0.0
O156 O 0.63108 0.46858 0.77122 0.0
C157 C 0.57243 0.46176 0.69422 0.0
O158 O 0.57274 0.50943 0.75459 0.0
Co159 Co 0.57816 0.53363 0.68219 0.0
O160 O 0.54028 0.53113 0.71516 0.0
C161 C 0.64462 0.55242 0.71254 0.0
C162 C 0.6512 0.45338 0.75081 0.0
C163 C 0.54536 0.52243 0.7454 0.0
O164 O 0.64131 0.52705 0.73217 0.0
O165 O 0.62346 0.55794 0.6892 0.0
O166 O 0.5783 0.44703 0.72238 0.0
O167 O 0.5918 0.48806 0.68794 0.0
H168 H 0.06768 0.27435 0.81297 0.0
H169 H 0.02135 0.24076 0.71889 0.0
H170 H 0.082 0.1749 0.77371 0.0
H171 H 0.02878 0.30977 0.78743 0.0
H172 H 0.04283 0.3089 0.74488 0.0
H173 H 0.96954 0.28461 0.80137 0.0
H174 H 0.8969 0.29624 0.72324 0.0
H175 H 0.00273 0.30569 0.69996 0.0
C176 C 0.06151 0.25448 0.79451 0.0
C177 C 0.07638 0.22344 0.79715 0.0
C178 C 0.04013 0.26051 0.76714 0.0
C179 C 0.03527 0.2356 0.7415 0.0
C180 C 0.04971 0.20444 0.74433 0.0
C181 C 0.06919 0.19826 0.77268 0.0
C182 C 0.02654 0.29498 0.76333 0.0
C183 C 0.99023 0.29361 0.75161 0.0
C184 C 0.96385 0.28797 0.77497 0.0
C185 C 0.93017 0.28821 0.76444 0.0
C186 C 0.92299 0.29392 0.73055 0.0
C187 C 0.9488 0.30081 0.7071 0.0
C188 C 0.98251 0.30011 0.71773 0.0
H189 H 0.08145 0.77645 0.72617 0.0
H190 H 0.06449 0.75667 0.83185 0.0
H191 H 0.1048 0.85306 0.80185 0.0
H192 H 0.05564 0.72327 0.74055 0.0
H193 H 0.07553 0.70991 0.77777 0.0
H194 H 0.99401 0.73065 0.7398 0.0
H195 H 0.93533 0.6937 0.82361 0.0
H196 H 0.04342 0.69961 0.82994 0.0
C197 C 0.08111 0.78496 0.75231 0.0
C198 C 0.0938 0.8177 0.7609 0.0
C199 C 0.06899 0.76293 0.77764 0.0
C200 C 0.07136 0.77367 0.81177 0.0
C201 C 0.08344 0.80642 0.82022 0.0
C202 C 0.09392 0.82829 0.79479 0.0
C203 C 0.05674 0.72719 0.76841 0.0
C204 C 0.02264 0.71773 0.78371 0.0
C205 C 0.99273 0.72168 0.76541 0.0
C206 C 0.9612 0.71305 0.77993 0.0
C207 C 0.95969 0.70135 0.81293 0.0
C208 C 0.98912 0.69635 0.83111 0.0
C209 C 0.02057 0.70414 0.81624 0.0
H210 H 0.49693 0.70372 0.20559 0.0
H211 H 0.52763 0.75737 0.2972 0.0
H212 H 0.60189 0.7258 0.22598 0.0
H213 H 0.45523 0.71538 0.24651 0.0
H214 H 0.46946 0.72445 0.28886 0.0
H215 H 0.4842 0.78084 0.21333 0.0
H216 H 0.41924 0.85469 0.25274 0.0
H217 H 0.42484 0.76073 0.30291 0.0
C218 C 0.51659 0.71557 0.22144 0.0
C219 C 0.55043 0.71378 0.21179 0.0
C220 C 0.50812 0.73192 0.25189 0.0
C221 C 0.53394 0.74589 0.27313 0.0
C222 C 0.56789 0.74438 0.26347 0.0
C223 C 0.57567 0.72876 0.2326 0.0
C224 C 0.47157 0.73295 0.26235 0.0
C225 C 0.45833 0.76774 0.26007 0.0
C226 C 0.4672 0.78894 0.23292 0.0
C227 C 0.45366 0.8206 0.23086 0.0
C228 C 0.43069 0.83072 0.25527 0.0
C229 C 0.41988 0.80918 0.28099 0.0
C230 C 0.43369 0.77768 0.28336 0.0
H231 H 0.55933 0.27576 0.20168 0.0
H232 H 0.52655 0.26571 0.3051 0.0
H233 H 0.57023 0.35964 0.27152 0.0
H234 H 0.52843 0.225 0.2167 0.0
H235 H 0.54847 0.21478 0.25493 0.0
H236 H 0.46623 0.23515 0.21634 0.0
H237 H 0.40769 0.19615 0.29929 0.0
H238 H 0.51594 0.2017 0.30527 0.0
C239 C 0.55482 0.28675 0.22642 0.0
C240 C 0.56582 0.32032 0.23336 0.0
C241 C 0.53917 0.26702 0.25176 0.0
C242 C 0.5362 0.28095 0.2846 0.0
C243 C 0.5465 0.31459 0.2914 0.0
C244 C 0.56051 0.33419 0.26557 0.0
C245 C 0.52886 0.23043 0.24434 0.0
C246 C 0.49492 0.22025 0.25941 0.0
C247 C 0.46502 0.22522 0.24157 0.0
C248 C 0.4336 0.21667 0.25617 0.0
C249 C 0.43209 0.20372 0.28868 0.0
C250 C 0.46157 0.19801 0.30654 0.0
C251 C 0.49299 0.20607 0.29166 0.0
H252 H 0.67256 0.98244 0.18684 0.0
H253 H 0.7631 0.02368 0.2358 0.0
H254 H 0.68772 0.08915 0.20356 0.0
H255 H 0.71586 0.94568 0.1991 0.0
H256 H 0.75745 0.9651 0.20397 0.0
H257 H 0.68292 0.96609 0.26446 0.0
H258 H 0.73304 0.90954 0.33837 0.0
H259 H 0.77986 0.92644 0.24227 0.0
C260 C 0.68732 0.00379 0.19749 0.0
C261 C 0.6759 0.03635 0.1941 0.0
C262 C 0.71836 0.99886 0.21344 0.0
C263 C 0.73836 0.02702 0.22527 0.0
C264 C 0.72687 0.05953 0.22228 0.0
C265 C 0.69547 0.06381 0.20748 0.0
C266 C 0.73155 0.96392 0.21483 0.0
C267 C 0.73268 0.9506 0.25029 0.0
C268 C 0.705 0.95349 0.27239 0.0
C269 C 0.70544 0.93935 0.3045 0.0
C270 C 0.73336 0.92187 0.3142 0.0
C271 C 0.75997 0.91676 0.29187 0.0
C272 C 0.75965 0.93112 0.25989 0.0
H273 H 0.19639 0.26683 0.60244 0.0
H274 H 0.23747 0.34442 0.53731 0.0
H275 H 0.30253 0.29351 0.60308 0.0
H276 H 0.16049 0.2877 0.55996 0.0
H277 H 0.16849 0.33164 0.56773 0.0
H278 H 0.19457 0.2659 0.50287 0.0
H279 H 0.17041 0.32709 0.41949 0.0
H280 H 0.15582 0.3639 0.52089 0.0
C281 C 0.21788 0.28103 0.59198 0.0
C282 C 0.25019 0.27677 0.60486 0.0
C283 C 0.21318 0.30441 0.56644 0.0
C284 C 0.24104 0.32478 0.55526 0.0
C285 C 0.27347 0.32034 0.56785 0.0
C286 C 0.27781 0.29575 0.59195 0.0
C287 C 0.17794 0.30953 0.55378 0.0
C288 C 0.17669 0.3149 0.51618 0.0
C289 C 0.18631 0.28945 0.49347 0.0
C290 C 0.18465 0.29428 0.45863 0.0
C291 C 0.17303 0.32429 0.44652 0.0
C292 C 0.16217 0.34941 0.46866 0.0
C293 C 0.16426 0.34466 0.50358 0.0
H294 H 0.80855 0.03166 0.70418 0.0
H295 H 0.72077 0.9762 0.74249 0.0
H296 H 0.80726 0.92397 0.7104 0.0
H297 H 0.75506 0.05822 0.70901 0.0
H298 H 0.71792 0.0349 0.72326 0.0
H299 H 0.79424 0.03285 0.77845 0.0
H300 H 0.76031 0.10787 0.84735 0.0
H301 H 0.70901 0.09046 0.75281 0.0
C302 C 0.79602 0.00798 0.71127 0.0
C303 C 0.81243 0.97788 0.70641 0.0
C304 C 0.76312 0.00766 0.72471 0.0
C305 C 0.74647 0.9768 0.73315 0.0
C306 C 0.76285 0.94668 0.72877 0.0
C307 C 0.79569 0.94757 0.71572 0.0
C308 C 0.74531 0.04018 0.72821 0.0
C309 C 0.74929 0.05742 0.76257 0.0
C310 C 0.77582 0.05098 0.78493 0.0
C311 C 0.77918 0.06867 0.81581 0.0
C312 C 0.75647 0.0931 0.8242 0.0
C313 C 0.73146 0.10146 0.80148 0.0
C314 C 0.72786 0.0835 0.77077 0.0
H315 H 0.32725 0.78691 0.08363 0.0
H316 H 0.29177 0.68523 0.05651 0.0
H317 H 0.23217 0.74632 0.12068 0.0
H318 H 0.36041 0.75572 0.04572 0.0
H319 H 0.35981 0.71392 0.06079 0.0
H320 H 0.33118 0.76721 0.99047 0.0
H321 H 0.32738 0.68443 0.91924 0.0
H322 H 0.34786 0.66692 0.02339 0.0
C323 C 0.30785 0.76667 0.08397 0.0
C324 C 0.27866 0.77053 0.10331 0.0
C325 C 0.31237 0.73629 0.06592 0.0
C326 C 0.28788 0.70934 0.06864 0.0
C327 C 0.2589 0.71325 0.08819 0.0
C328 C 0.25422 0.74392 0.10473 0.0
C329 C 0.34473 0.73172 0.04671 0.0
C330 C 0.33831 0.71827 0.01127 0.0
C331 C 0.33153 0.74041 0.98518 0.0
C332 C 0.32696 0.72807 0.95197 0.0
C333 C 0.32864 0.69351 0.94524 0.0
C334 C 0.33672 0.67133 0.97056 0.0
C335 C 0.34108 0.68379 0.00372 0.0
H336 H 0.72282 0.72066 0.10814 0.0
H337 H 0.74059 0.79961 0.03581 0.0
H338 H 0.81871 0.77583 0.10382 0.0
H339 H 0.68438 0.72341 0.05957 0.0
H340 H 0.67513 0.76482 0.07233 0.0
H341 H 0.70719 0.71286 -0.00028 0.0
H342 H 0.68081 0.78397 0.9257 0.0
H343 H 0.66698 0.80726 0.03098 0.0
C344 C 0.73956 0.73925 0.09615 0.0
C345 C 0.77243 0.74556 0.10862 0.0
C346 C 0.72804 0.7575 0.06868 0.0
C347 C 0.74936 0.78357 0.05526 0.0
C348 C 0.78222 0.78947 0.06749 0.0
C349 C 0.79371 0.76998 0.09347 0.0
C350 C 0.69227 0.75036 0.05605 0.0
C351 C 0.68773 0.75913 0.0195 0.0
C352 C 0.69774 0.73701 0.99359 0.0
C353 C 0.69545 0.74622 0.95978 0.0
C354 C 0.68339 0.77747 0.95198 0.0
C355 C 0.67281 0.79954 0.97735 0.0
C356 C 0.67485 0.7902 0.01117 0.0
H357 H 0.29678 0.53441 0.21376 0.0
H358 H 0.2038 0.48694 0.24985 0.0
H359 H 0.28563 0.42672 0.22114 0.0
H360 H 0.24148 0.56283 0.21273 0.0
H361 H 0.20607 0.54521 0.23574 0.0
H362 H 0.29061 0.5453 0.27849 0.0
H363 H 0.2755 0.63533 0.33589 0.0
H364 H 0.20316 0.6029 0.26015 0.0
C365 C 0.28222 0.51185 0.22092 0.0
C366 C 0.29608 0.48024 0.21701 0.0
C367 C 0.24934 0.51466 0.23385 0.0
C368 C 0.22978 0.48533 0.24179 0.0
C369 C 0.2433 0.45374 0.23771 0.0
C370 C 0.27639 0.4515 0.22603 0.0
C371 C 0.23409 0.54868 0.23572 0.0
C372 C 0.24499 0.57063 0.26597 0.0
C373 C 0.27515 0.56623 0.28399 0.0
C374 C 0.28633 0.58974 0.30889 0.0
C375 C 0.26713 0.61732 0.3163 0.0
C376 C 0.23716 0.62202 0.29907 0.0
C377 C 0.22604 0.59873 0.27398 0.0
H378 H 0.78816 0.31291 0.58127 0.0
H379 H 0.80744 0.20749 0.59004 0.0
H380 H 0.7156 0.24485 0.62832 0.0
H381 H 0.84229 0.29387 0.5644 0.0
H382 H 0.85422 0.25352 0.57756 0.0
H383 H 0.83122 0.30238 0.50537 0.0
H384 H 0.82968 0.21831 0.43566 0.0
H385 H 0.83873 0.20148 0.54149 0.0
C386 C 0.78008 0.28757 0.58833 0.0
C387 C 0.74908 0.28181 0.60489 0.0
C388 C 0.80094 0.26055 0.58163 0.0
C389 C 0.791 0.22812 0.59317 0.0
C390 C 0.75991 0.22253 0.60942 0.0
C391 C 0.7391 0.24922 0.61459 0.0
C392 C 0.83444 0.26659 0.56393 0.0
C393 C 0.83276 0.25328 0.52791 0.0
C394 C 0.83074 0.27543 0.50071 0.0
C395 C 0.82941 0.26269 0.46738 0.0
C396 C 0.82924 0.22793 0.46149 0.0
C397 C 0.83276 0.20577 0.48797 0.0
C398 C 0.83476 0.21852 0.52115 0.0
H399 H 0.19845 0.50448 0.70734 0.0
H400 H 0.27995 0.55156 0.76617 0.0
H401 H 0.20467 0.61145 0.72352 0.0
H402 H 0.24086 0.47045 0.7269 0.0
H403 H 0.2811 0.49294 0.73021 0.0
H404 H 0.20723 0.49112 0.79155 0.0
H405 H 0.26133 0.43964 0.8662 0.0
H406 H 0.30711 0.45903 0.76983 0.0
C407 C 0.21049 0.52673 0.71933 0.0
C408 C 0.19736 0.55823 0.71423 0.0
C409 C 0.23992 0.52406 0.73868 0.0
C410 C 0.25648 0.55334 0.75256 0.0
C411 C 0.24342 0.58497 0.74778 0.0
C412 C 0.21362 0.58693 0.72912 0.0
C413 C 0.25545 0.49043 0.74156 0.0
C414 C 0.2581 0.47913 0.7776 0.0
C415 C 0.23035 0.48054 0.79975 0.0
C416 C 0.23203 0.46727 0.83214 0.0
C417 C 0.26123 0.45189 0.84203 0.0
C418 C 0.28824 0.44816 0.81962 0.0
C419 C 0.28671 0.46238 0.78758 0.0
C420 C 0.09182 0.29371 0.0232 0.0
C421 C 0.06115 0.29836 0.03993 0.0
C422 C 0.10481 0.31745 0.0006 0.0
C423 C 0.13724 0.38291 0.9766 0.0
H424 H 0.087 0.41874 0.903 0.0
C425 C 0.2048 0.47398 0.88839 0.0
C426 C 0.20206 0.46393 0.85432 0.0
C427 C 0.18123 0.4617 0.91192 0.0
C428 C 0.10125 0.40911 0.92359 0.0
H429 H 0.01928 0.33091 0.04491 0.0
H430 H 0.04206 0.37251 0.00489 0.0
H431 H 0.05863 0.37908 0.94183 0.0
H432 H 0.17115 0.4357 0.81751 0.0
H433 H 0.13011 0.41379 0.85862 0.0
H434 H 0.18005 0.41155 0.95817 0.0
C435 C 0.05599 0.35043 0.00953 0.0
C436 C 0.08499 0.38657 0.94586 0.0
C437 C 0.04302 0.32667 0.03246 0.0
C438 C 0.17359 0.44406 0.84363 0.0
C439 C 0.15012 0.43148 0.86724 0.0
C440 C 0.15334 0.40547 0.95465 0.0
C441 C 0.08741 0.34639 0.994 0.0
C442 C 0.10312 0.37265 0.97208 0.0
C443 C 0.15475 0.43872 0.90188 0.0
C444 C 0.13578 0.41844 0.92749 0.0
H445 H 0.10634 0.27211 0.0282 0.0
H446 H 0.1288 0.31336 0.98853 0.0
H447 H 0.15174 0.37295 0.99685 0.0
H448 H 0.22654 0.48934 0.89718 0.0
H449 H 0.18505 0.46841 0.93831 0.0
C450 C 0.96145 0.76057 0.34573 0.0
C451 C 0.97565 0.79346 0.3419 0.0
C452 C 0.93401 0.74863 0.3259 0.0
C453 C 0.86496 0.77714 0.2731 0.0
H454 H 0.87105 0.69157 0.22563 0.0
C455 C 0.81593 0.71733 0.14101 0.0
C456 C 0.78419 0.73121 0.14032 0.0
C457 C 0.83374 0.71612 0.17124 0.0
C458 C 0.86865 0.71533 0.23897 0.0
H459 H 0.97162 0.83971 0.31453 0.0
H460 H 0.92394 0.81892 0.28013 0.0
H461 H 0.91327 0.70903 0.26794 0.0
H462 H 0.74445 0.75107 0.17099 0.0
H463 H 0.77511 0.74815 0.22414 0.0
H464 H 0.82113 0.78416 0.2436 0.0
C465 C 0.93389 0.80242 0.29859 0.0
C466 C 0.89281 0.72526 0.26336 0.0
C467 C 0.96145 0.81423 0.31812 0.0
C468 C 0.76882 0.74007 0.1709 0.0
C469 C 0.78668 0.73895 0.20122 0.0
C470 C 0.84049 0.76699 0.2492 0.0
C471 C 0.91996 0.76946 0.30212 0.0
C472 C 0.89178 0.75674 0.27992 0.0
C473 C 0.82015 0.72885 0.20141 0.0
C474 C 0.84252 0.73636 0.23109 0.0
H475 H 0.97173 0.74388 0.36381 0.0
H476 H 0.92369 0.72316 0.32926 0.0
H477 H 0.86331 0.8014 0.28575 0.0
H478 H 0.82834 0.71053 0.11766 0.0
H479 H 0.85939 0.70821 0.17022 0.0
C480 C 0.48976 0.66873 0.51389 0.0
C481 C 0.49627 0.64848 0.54149 0.0
C482 C 0.47272 0.65512 0.48557 0.0
C483 C 0.41135 0.58818 0.45979 0.0
H484 H 0.43781 0.61517 0.3697 0.0
C485 C 0.32392 0.55806 0.34613 0.0
C486 C 0.31835 0.58667 0.32728 0.0
C487 C 0.35116 0.55826 0.36859 0.0
C488 C 0.43012 0.60731 0.39468 0.0
H489 H 0.49014 0.59787 0.56076 0.0
H490 H 0.45993 0.57424 0.51128 0.0
H491 H 0.47479 0.63033 0.41737 0.0
H492 H 0.33789 0.63675 0.31495 0.0
H493 H 0.38505 0.6373 0.35393 0.0
H494 H 0.36591 0.56667 0.43744 0.0
C495 C 0.46817 0.60065 0.51169 0.0
C496 C 0.45128 0.61602 0.42195 0.0
C497 C 0.48554 0.61419 0.53995 0.0
C498 C 0.34163 0.61445 0.32939 0.0
C499 C 0.3688 0.61461 0.35157 0.0
C500 C 0.39006 0.57963 0.43252 0.0
C501 C 0.46156 0.62101 0.48424 0.0
C502 C 0.44162 0.60745 0.4549 0.0
C503 C 0.37332 0.58697 0.37224 0.0
C504 C 0.39871 0.59007 0.3998 0.0
H505 H 0.49776 0.6952 0.51411 0.0
H506 H 0.46756 0.67156 0.465 0.0
H507 H 0.40317 0.58139 0.48493 0.0
H508 H 0.3062 0.53638 0.34493 0.0
H509 H 0.3542 0.53645 0.38392 0.0
C510 C 0.58504 0.32364 0.84286 0.0
C511 C 0.56479 0.29377 0.84599 0.0
C512 C 0.60282 0.33035 0.81306 0.0
C513 C 0.63392 0.28692 0.73626 0.0
H514 H 0.65095 0.37772 0.7041 0.0
C515 C 0.6937 0.30687 0.61015 0.0
C516 C 0.72838 0.30906 0.6176 0.0
C517 C 0.6704 0.31677 0.63434 0.0
C518 C 0.64626 0.35236 0.71295 0.0
H519 H 0.54638 0.24799 0.82011 0.0
H520 H 0.57627 0.2601 0.76762 0.0
H521 H 0.6164 0.36825 0.75484 0.0
H522 H 0.76616 0.32874 0.65313 0.0
H523 H 0.72536 0.34671 0.69499 0.0
H524 H 0.66355 0.27116 0.69427 0.0
C525 C 0.57944 0.27796 0.7885 0.0
C526 C 0.6267 0.34682 0.74202 0.0
C527 C 0.56214 0.271 0.81854 0.0
C528 C 0.73959 0.32706 0.64667 0.0
C529 C 0.71623 0.33716 0.67079 0.0
C530 C 0.65307 0.29246 0.70723 0.0
C531 C 0.60034 0.30756 0.78545 0.0
C532 C 0.62035 0.31394 0.7541 0.0
C533 C 0.68163 0.32964 0.6658 0.0
C534 C 0.65948 0.32513 0.69543 0.0
H535 H 0.58764 0.34162 0.86372 0.0
H536 H 0.61904 0.35308 0.81199 0.0
H537 H 0.63047 0.26141 0.74508 0.0
H538 H 0.6845 0.29285 0.58799 0.0
H539 H 0.6438 0.3106 0.63008 0.0
C540 C 0.04646 0.70233 0.49881 0.0
C541 C 0.07003 0.72846 0.49031 0.0
C542 C 0.0549 0.67788 0.52172 0.0
C543 C 0.0749 0.6418 0.58597 0.0
H544 H 0.16469 0.60844 0.57966 0.0
C545 C 0.14533 0.58579 0.69626 0.0
C546 C 0.17027 0.56288 0.68926 0.0
C547 C 0.12625 0.59819 0.67019 0.0
C548 C 0.13926 0.61689 0.58148 0.0
H549 H 0.12077 0.74968 0.49947 0.0
H550 H 0.13541 0.70723 0.53945 0.0
H551 H 0.14602 0.64678 0.53756 0.0
H552 H 0.19229 0.5323 0.65003 0.0
H553 H 0.15839 0.55333 0.60456 0.0
H554 H 0.06846 0.61227 0.63036 0.0
C555 C 0.11052 0.70539 0.52817 0.0
C556 C 0.12877 0.63932 0.55759 0.0
C557 C 0.10203 0.7299 0.50548 0.0
C558 C 0.17323 0.5499 0.65623 0.0
C559 C 0.15411 0.56229 0.63012 0.0
C560 C 0.08547 0.61939 0.61003 0.0
C561 C 0.08718 0.67894 0.53634 0.0
C562 C 0.0968 0.65266 0.56 0.0
C563 C 0.1317 0.58787 0.63657 0.0
C564 C 0.11807 0.60722 0.60845 0.0
H565 H 0.02159 0.70052 0.48748 0.0
H566 H 0.03644 0.65775 0.52742 0.0
H567 H 0.0501 0.65166 0.58849 0.0
H568 H 0.14236 0.59602 0.72158 0.0
H569 H 0.10927 0.61786 0.67614 0.0
C570 C 0.62037 0.68442 0.67875 0.0
C571 C 0.60598 0.71554 0.67448 0.0
C572 C 0.6406 0.6792 0.70686 0.0
C573 C 0.68925 0.72581 0.77443 0.0
H574 H 0.67054 0.64618 0.82734 0.0
C575 C 0.67652 0.70021 0.92021 0.0
C576 C 0.7024 0.72307 0.93143 0.0
C577 C 0.67605 0.68828 0.88678 0.0
C578 C 0.67633 0.66844 0.81274 0.0
H579 H 0.60105 0.76537 0.69641 0.0
H580 H 0.6356 0.75611 0.74559 0.0
H581 H 0.6461 0.6494 0.7711 0.0
H582 H 0.74996 0.7485 0.91825 0.0
H583 H 0.75022 0.72637 0.86027 0.0
H584 H 0.71725 0.74611 0.81653 0.0
C585 C 0.63202 0.73595 0.72694 0.0
C586 C 0.6625 0.67019 0.78039 0.0
C587 C 0.61202 0.74123 0.69884 0.0
C588 C 0.72988 0.73063 0.9101 0.0
C589 C 0.7297 0.71832 0.87679 0.0
C590 C 0.70292 0.72415 0.80668 0.0
C591 C 0.64683 0.70499 0.73115 0.0
C592 C 0.66735 0.69969 0.76171 0.0
C593 C 0.70158 0.69899 0.86406 0.0
C594 C 0.69522 0.69617 0.827 0.0
H595 H 0.6161 0.66413 0.66035 0.0
H596 H 0.6514 0.65507 0.70956 0.0
H597 H 0.69427 0.74848 0.76024 0.0
H598 H 0.65481 0.69453 0.93613 0.0
H599 H 0.65386 0.6736 0.87807 0.0
C600 C 0.48499 0.39638 0.99538 0.0
C601 C 0.48659 0.36112 0.99389 0.0
C602 C 0.47117 0.41234 0.02333 0.0
C603 C 0.44904 0.40724 0.11197 0.0
H604 H 0.3733 0.45904 0.08726 0.0
C605 C 0.34894 0.44926 0.20746 0.0
C606 C 0.32883 0.47601 0.19936 0.0
C607 C 0.3745 0.43952 0.1857 0.0
C608 C 0.3949 0.44557 0.09482 0.0
H609 H 0.47655 0.31526 0.02168 0.0
H610 H 0.45249 0.34362 0.07103 0.0
H611 H 0.40601 0.43255 0.04356 0.0
H612 H 0.32305 0.51619 0.16402 0.0
H613 H 0.3692 0.50095 0.12767 0.0
H614 H 0.43837 0.42071 0.16329 0.0
C615 C 0.46194 0.35857 0.0502 0.0
C616 C 0.41341 0.43003 0.06964 0.0
C617 C 0.47551 0.34241 0.02191 0.0
C618 C 0.3377 0.49532 0.17111 0.0
C619 C 0.36386 0.48609 0.14979 0.0
C620 C 0.43085 0.42339 0.13731 0.0
C621 C 0.45894 0.39359 0.05067 0.0
C622 C 0.44039 0.41049 0.07795 0.0
C623 C 0.38125 0.45687 0.1557 0.0
C624 C 0.40323 0.44249 0.12908 0.0
H625 H 0.49344 0.41177 0.9745 0.0
H626 H 0.46932 0.4394 0.02325 0.0
H627 H 0.46997 0.39246 0.11889 0.0
H628 H 0.34357 0.43446 0.22963 0.0
H629 H 0.3873 0.41703 0.19144 0.0
C630 C 0.95836 0.2731 0.19779 0.0
C631 C 0.96519 0.23876 0.1967 0.0
C632 C 0.93678 0.28572 0.22254 0.0
C633 C 0.87087 0.25885 0.28448 0.0
H634 H 0.90531 0.33519 0.33891 0.0
C635 C 0.86716 0.29753 0.43083 0.0
C636 C 0.83446 0.28424 0.43769 0.0
C637 C 0.8771 0.30404 0.3976 0.0
C638 C 0.89516 0.31397 0.32388 0.0
H639 H 0.95358 0.19064 0.21996 0.0
H640 H 0.91618 0.21245 0.26258 0.0
H641 H 0.93409 0.32031 0.28657 0.0
H642 H 0.78531 0.27137 0.41619 0.0
H643 H 0.80191 0.28458 0.35845 0.0
H644 H 0.83353 0.25073 0.32252 0.0
C645 C 0.92732 0.22971 0.24442 0.0
C646 C 0.9115 0.30565 0.29368 0.0
C647 C 0.94906 0.21724 0.22009 0.0
C648 C 0.81062 0.28184 0.41152 0.0
C649 C 0.82038 0.28882 0.37836 0.0
C650 C 0.85466 0.26705 0.31459 0.0
C651 C 0.92121 0.26414 0.24627 0.0
C652 C 0.90029 0.27716 0.27437 0.0
C653 C 0.85435 0.29762 0.37068 0.0
C654 C 0.86727 0.29398 0.3354 0.0
H655 H 0.97043 0.29037 0.18018 0.0
H656 H 0.93247 0.31235 0.22327 0.0
H657 H 0.86125 0.2371 0.26985 0.0
H658 H 0.88614 0.29905 0.4505 0.0
H659 H 0.90346 0.31073 0.3929 0.0
C660 C 0.00242 0.04563 0.31941 0.0
C661 C 0.99155 0.04191 0.28576 0.0
C662 C 0.9796 0.05297 0.34508 0.0
C663 C 0.8971 0.09039 0.35634 0.0
H664 H 0.90952 0.06639 0.44964 0.0
C665 C 0.8192 0.15225 0.45601 0.0
C666 C 0.83999 0.1706 0.47925 0.0
C667 C 0.83162 0.12531 0.43764 0.0
C668 C 0.90558 0.073 0.42364 0.0
H669 H 0.94792 0.04088 0.25289 0.0
H670 H 0.90791 0.05248 0.2977 0.0
H671 H 0.94339 0.0408 0.40537 0.0
H672 H 0.88834 0.17288 0.50459 0.0
H673 H 0.91017 0.12583 0.47247 0.0
H674 H 0.85999 0.12307 0.37445 0.0
C675 C 0.93424 0.05096 0.30424 0.0
C676 C 0.92512 0.05859 0.39828 0.0
C677 C 0.95716 0.04421 0.27851 0.0
C678 C 0.87176 0.15896 0.48695 0.0
C679 C 0.88428 0.13204 0.46844 0.0
C680 C 0.8774 0.10442 0.38152 0.0
C681 C 0.94527 0.05623 0.33777 0.0
C682 C 0.92172 0.0678 0.36438 0.0
C683 C 0.8651 0.11646 0.44209 0.0
C684 C 0.88193 0.09654 0.41554 0.0
H685 H 0.02879 0.04402 0.32581 0.0
H686 H 0.98923 0.05735 0.37042 0.0
H687 H 0.89411 0.09875 0.33077 0.0
H688 H 0.79454 0.16074 0.44981 0.0
H689 H 0.81605 0.11328 0.41796 0.0
C690 C 0.32655 0.85048 0.6455 0.0
C691 C 0.29404 0.86184 0.64048 0.0
C692 C 0.33155 0.82422 0.66756 0.0
C693 C 0.32258 0.75095 0.69155 0.0
H694 H 0.27912 0.74511 0.77902 0.0
C695 C 0.24559 0.64453 0.769 0.0
C696 C 0.26277 0.61683 0.75688 0.0
C697 C 0.25986 0.67713 0.76601 0.0
C698 C 0.29129 0.74617 0.75459 0.0
H699 H 0.24151 0.85505 0.65508 0.0
H700 H 0.25035 0.81 0.69416 0.0
H701 H 0.28316 0.79872 0.75023 0.0
H702 H 0.31042 0.60108 0.73703 0.0
H703 H 0.33615 0.65781 0.73343 0.0
H704 H 0.32829 0.69823 0.69405 0.0
C705 C 0.27195 0.82142 0.68113 0.0
C706 C 0.29384 0.77699 0.73829 0.0
C707 C 0.26686 0.84711 0.65861 0.0
C708 C 0.29642 0.62197 0.74633 0.0
C709 C 0.31094 0.65465 0.74374 0.0
C710 C 0.31949 0.72001 0.70751 0.0
C711 C 0.30424 0.80941 0.68548 0.0
C712 C 0.30827 0.77929 0.70602 0.0
C713 C 0.29193 0.68275 0.75127 0.0
C714 C 0.30243 0.71683 0.7386 0.0
H715 H 0.34801 0.86139 0.63188 0.0
H716 H 0.35665 0.81525 0.67039 0.0
H717 H 0.33379 0.75205 0.66663 0.0
H718 H 0.21977 0.64121 0.77779 0.0
H719 H 0.24421 0.69778 0.77232 0.0
C720 C 0.48719 0.98438 0.83711 0.0
C721 C 0.49957 0.99427 0.80539 0.0
C722 C 0.50735 0.9671 0.85906 0.0
C723 C 0.58313 0.91658 0.85859 0.0
H724 H 0.57939 0.92978 0.95574 0.0
C725 C 0.67356 0.851 0.94252 0.0
C726 C 0.65777 0.83109 0.96742 0.0
C727 C 0.65621 0.87592 0.92694 0.0
C728 C 0.58062 0.9259 0.92865 0.0
H729 H 0.54326 0.99499 0.77239 0.0
H730 H 0.57855 0.96585 0.81079 0.0
H731 H 0.54477 0.96296 0.91936 0.0
H732 H 0.6126 0.82351 0.99766 0.0
H733 H 0.58212 0.86741 0.9704 0.0
H734 H 0.61896 0.87975 0.86772 0.0
C735 C 0.55295 0.97032 0.81842 0.0
C736 C 0.5607 0.94472 0.9078 0.0
C737 C 0.5327 0.98714 0.79637 0.0
C738 C 0.62537 0.83861 0.97861 0.0
C739 C 0.60794 0.86366 0.96297 0.0
C740 C 0.6032 0.89816 0.87931 0.0
C741 C 0.54045 0.95971 0.8499 0.0
C742 C 0.5617 0.94023 0.87247 0.0
C743 C 0.6227 0.88146 0.93596 0.0
C744 C 0.6022 0.90257 0.91453 0.0
H745 H 0.46177 0.98957 0.84481 0.0
H746 H 0.49673 0.95899 0.8829 0.0
H747 H 0.58399 0.91172 0.83163 0.0
H748 H 0.69872 0.84601 0.93378 0.0
H749 H 0.66844 0.88975 0.90666 0.0
C750 C 0.2766 0.20696 0.11329 0.0
C751 C 0.25276 0.18227 0.10135 0.0
C752 C 0.26698 0.23225 0.13568 0.0
C753 C 0.193 0.27651 0.1658 0.0
H754 H 0.25773 0.31112 0.23262 0.0
C755 C 0.23009 0.39739 0.26155 0.0
C756 C 0.22215 0.42221 0.23876 0.0
C757 C 0.22201 0.36346 0.25388 0.0
C758 C 0.23875 0.30149 0.21482 0.0
H759 H 0.19999 0.16505 0.10279 0.0
H760 H 0.18327 0.20885 0.14239 0.0
H761 H 0.26853 0.26029 0.20098 0.0
H762 H 0.19652 0.43188 0.19225 0.0
H763 H 0.18341 0.37315 0.1781 0.0
H764 H 0.16317 0.31774 0.17969 0.0
C765 C 0.20935 0.20891 0.13426 0.0
C766 C 0.24535 0.2725 0.19615 0.0
C767 C 0.21896 0.18377 0.11162 0.0
C768 C 0.20248 0.41311 0.21038 0.0
C769 C 0.19509 0.37921 0.20227 0.0
C770 C 0.18619 0.30539 0.18475 0.0
C771 C 0.23331 0.2333 0.14678 0.0
C772 C 0.22333 0.26053 0.17039 0.0
C773 C 0.20691 0.35387 0.22275 0.0
C774 C 0.20963 0.31908 0.20858 0.0
H775 H 0.30278 0.20659 0.1056 0.0
H776 H 0.28597 0.25112 0.14413 0.0
H777 H 0.17529 0.26785 0.14633 0.0
H778 H 0.24544 0.40395 0.28354 0.0
H779 H 0.23036 0.34472 0.27092 0.0
C780 C 0.00317 0.92966 0.19047 0.0
C781 C 0.01924 0.96095 0.18328 0.0
C782 C 0.97829 0.91536 0.16892 0.0
C783 C 0.91669 0.93515 0.10433 0.0
H784 H 0.91685 0.83916 0.08591 0.0
C785 C 0.83478 0.81305 0.04137 0.0
C786 C 0.80406 0.81862 0.05748 0.0
C787 C 0.86195 0.83667 0.04482 0.0
C788 C 0.9167 0.86614 0.09 0.0
H789 H 0.02157 0.00212 0.1482 0.0
H790 H 0.97797 0.97708 0.11058 0.0
H791 H 0.963 0.86698 0.11748 0.0
H792 H 0.77616 0.85427 0.08659 0.0
H793 H 0.82355 0.89537 0.09316 0.0
H794 H 0.86983 0.93403 0.07736 0.0
C795 C 0.9846 0.96367 0.13289 0.0
C796 C 0.94295 0.88196 0.10866 0.0
C797 C 0.00963 0.97791 0.15437 0.0
C798 C 0.79956 0.84977 0.07356 0.0
C799 C 0.82685 0.87324 0.0774 0.0
C800 C 0.89026 0.91925 0.08563 0.0
C801 C 0.96889 0.93211 0.13979 0.0
C802 C 0.94277 0.91641 0.11685 0.0
C803 C 0.85893 0.86583 0.06506 0.0
C804 C 0.88956 0.88437 0.07894 0.0
H805 H 0.00993 0.91608 0.21262 0.0
H806 H 0.9662 0.89125 0.17522 0.0
H807 H 0.91592 0.96178 0.11026 0.0
H808 H 0.83878 0.78901 0.02909 0.0
H809 H 0.88613 0.83063 0.03426 0.0
C810 C 0.24476 0.85268 0.48751 0.0
C811 C 0.27101 0.84059 0.50692 0.0
C812 C 0.22795 0.83192 0.46336 0.0
C813 C 0.21112 0.74315 0.43747 0.0
H814 H 0.20971 0.77663 0.34656 0.0
C815 C 0.23444 0.6838 0.30293 0.0
C816 C 0.21867 0.65197 0.30827 0.0
C817 C 0.22619 0.71134 0.32303 0.0
C818 C 0.20917 0.76696 0.37179 0.0
H819 H 0.29959 0.79694 0.51667 0.0
H820 H 0.27019 0.7607 0.47455 0.0
H821 H 0.22529 0.815 0.39315 0.0
H822 H 0.17915 0.6245 0.3354 0.0
H823 H 0.16367 0.673 0.36992 0.0
H824 H 0.19716 0.6948 0.41618 0.0
C825 C 0.26255 0.78623 0.47819 0.0
C826 C 0.21811 0.78902 0.39856 0.0
C827 C 0.27963 0.80708 0.50207 0.0
C828 C 0.19146 0.64894 0.33078 0.0
C829 C 0.183 0.67661 0.35082 0.0
C830 C 0.2019 0.72117 0.41076 0.0
C831 C 0.23671 0.79851 0.45845 0.0
C832 C 0.22067 0.77695 0.43143 0.0
C833 C 0.202 0.70746 0.34885 0.0
C834 C 0.20227 0.73247 0.37734 0.0
H835 H 0.23745 0.87839 0.49059 0.0
H836 H 0.20813 0.84199 0.4485 0.0
H837 H 0.21238 0.73334 0.46269 0.0
H838 H 0.25573 0.68653 0.28586 0.0
H839 H 0.24157 0.73449 0.32076 0.0
C840 C 0.53617 0.10833 0.76948 0.0
C841 C 0.51049 0.09741 0.7468 0.0
C842 C 0.56961 0.11312 0.75843 0.0
C843 C 0.62651 0.09401 0.68587 0.0
H844 H 0.67742 0.17422 0.71781 0.0
C845 C 0.72303 0.17041 0.60746 0.0
C846 C 0.74863 0.19006 0.62395 0.0
C847 C 0.70132 0.1488 0.62581 0.0
C848 C 0.66402 0.15122 0.70913 0.0
H849 H 0.49969 0.08298 0.69476 0.0
H850 H 0.55751 0.09234 0.67524 0.0
H851 H 0.62371 0.15831 0.74391 0.0
H852 H 0.77373 0.20057 0.67167 0.0
H853 H 0.73629 0.16225 0.7037 0.0
H854 H 0.6662 0.08816 0.64979 0.0
C855 C 0.55222 0.09639 0.70178 0.0
C856 C 0.63302 0.14211 0.7241 0.0
C857 C 0.51891 0.0914 0.71287 0.0
C858 C 0.75452 0.18514 0.65833 0.0
C859 C 0.73273 0.16363 0.67674 0.0
C860 C 0.65743 0.10327 0.67073 0.0
C861 C 0.57808 0.10727 0.72438 0.0
C862 C 0.61328 0.11404 0.71189 0.0
C863 C 0.70469 0.1468 0.66104 0.0
C864 C 0.676 0.13261 0.68145 0.0
H865 H 0.53054 0.11283 0.79588 0.0
H866 H 0.58883 0.12118 0.77665 0.0
H867 H 0.61249 0.07167 0.67644 0.0
H868 H 0.71759 0.17442 0.58112 0.0
H869 H 0.6799 0.13639 0.6129 0.0
C870 C 0.31022 0.19592 0.9611 0.0
C871 C 0.27556 0.1944 0.96905 0.0
C872 C 0.3239 0.22055 0.93937 0.0
C873 C 0.29862 0.27874 0.87375 0.0
H874 H 0.37582 0.33647 0.90142 0.0
C875 C 0.31943 0.39702 0.80484 0.0
C876 C 0.31375 0.42354 0.82779 0.0
C877 C 0.33157 0.36699 0.81626 0.0
C878 C 0.35466 0.3201 0.89302 0.0
H879 H 0.22811 0.21717 0.95953 0.0
H880 H 0.25176 0.25967 0.92227 0.0
H881 H 0.36037 0.28565 0.93339 0.0
H882 H 0.32227 0.44177 0.87911 0.0
H883 H 0.34254 0.38916 0.8992 0.0
H884 H 0.2916 0.31322 0.83453 0.0
C885 C 0.26846 0.24186 0.93255 0.0
C886 C 0.34584 0.29103 0.91125 0.0
C887 C 0.25489 0.21751 0.95417 0.0
C888 C 0.32566 0.42143 0.86104 0.0
C889 C 0.33759 0.39131 0.8725 0.0
C890 C 0.30771 0.3071 0.85529 0.0
C891 C 0.30311 0.24384 0.92495 0.0
C892 C 0.31684 0.27078 0.9025 0.0
C893 C 0.33792 0.36296 0.85079 0.0
C894 C 0.33503 0.32886 0.86536 0.0
H895 H 0.32689 0.17855 0.97216 0.0
H896 H 0.35066 0.22136 0.93382 0.0
H897 H 0.27624 0.26391 0.86618 0.0
H898 H 0.31078 0.39783 0.779 0.0
H899 H 0.33223 0.3457 0.79881 0.0
C900 C 0.36223 0.03887 0.05261 0.0
C901 C 0.33469 0.04872 0.07214 0.0
C902 C 0.38376 0.01506 0.06466 0.0
C903 C 0.4114 0.97875 0.14394 0.0
H904 H 0.43325 0.90076 0.08957 0.0
C905 C 0.43999 0.83635 0.17255 0.0
C906 C 0.45953 0.8425 0.2017 0.0
C907 C 0.43495 0.86237 0.15026 0.0
C908 C 0.4276 0.92253 0.10498 0.0
H909 H 0.30809 0.04127 0.11948 0.0
H910 H 0.3455 0.00013 0.14038 0.0
H911 H 0.4024 0.94557 0.0643 0.0
H912 H 0.49168 0.87921 0.22902 0.0
H913 H 0.48424 0.92437 0.18938 0.0
H914 H 0.43471 0.95542 0.18502 0.0
C915 C 0.35069 0.01088 0.11592 0.0
C916 C 0.41014 0.94826 0.09045 0.0
C917 C 0.3291 0.03432 0.10382 0.0
C918 C 0.4768 0.8739 0.20645 0.0
C919 C 0.4721 0.89981 0.184 0.0
C920 C 0.42886 0.95323 0.15837 0.0
C921 C 0.37834 0.00108 0.0966 0.0
C922 C 0.40096 0.97611 0.11013 0.0
C923 C 0.44944 0.89493 0.15683 0.0
C924 C 0.43643 0.92434 0.13937 0.0
H925 H 0.36711 0.04949 0.02805 0.0
H926 H 0.40491 0.00798 0.04926 0.0
H927 H 0.40509 0.00014 0.15961 0.0
H928 H 0.42594 0.81245 0.16882 0.0
H929 H 0.4172 0.85767 0.12977 0.0
C930 C 0.85155 0.50885 0.02632 0.0
C931 C 0.86596 0.47743 0.0268 0.0
C932 C 0.86911 0.53657 0.01238 0.0
C933 C 0.95369 0.56755 0.98042 0.0
H934 H 0.8994 0.62349 0.92595 0.0
C935 C 0.00219 0.64974 0.8695 0.0
C936 C 0.98603 0.67967 0.86406 0.0
C937 C 0.99241 0.62926 0.89644 0.0
C938 C 0.91492 0.60856 0.94156 0.0
H939 H 0.91041 0.45059 0.0137 0.0
H940 H 0.94051 0.49857 0.98816 0.0
H941 H 0.87205 0.57914 0.95866 0.0
H942 H 0.94984 0.71355 0.88433 0.0
H943 H 0.93297 0.67798 0.93151 0.0
H944 H 0.99676 0.59634 0.96152 0.0
C945 C 0.91602 0.50213 0.99934 0.0
C946 C 0.8992 0.58306 0.96043 0.0
C947 C 0.89865 0.47451 0.01376 0.0
C948 C 0.96236 0.69036 0.88779 0.0
C949 C 0.95263 0.66997 0.91466 0.0
C950 C 0.9695 0.59295 0.96115 0.0
C951 C 0.90128 0.53342 0.99804 0.0
C952 C 0.91833 0.562 0.97991 0.0
C953 C 0.96636 0.63847 0.91828 0.0
C954 C 0.95023 0.61356 0.94137 0.0
H955 H 0.82662 0.51206 0.03667 0.0
H956 H 0.85726 0.56043 0.01258 0.0
H957 H 0.96921 0.55212 0.99549 0.0
H958 H 0.02037 0.64086 0.85144 0.0
H959 H 0.00336 0.60507 0.89857 0.0
C960 C 0.82421 0.6381 0.31505 0.0
C961 C 0.83133 0.63647 0.28027 0.0
C962 C 0.79898 0.65844 0.32742 0.0
C963 C 0.75295 0.73228 0.30844 0.0
H964 H 0.67252 0.68609 0.34354 0.0
C965 C 0.62503 0.77133 0.27336 0.0
C966 C 0.59628 0.75421 0.28651 0.0
C967 C 0.65659 0.7678 0.28778 0.0
C968 C 0.69491 0.70019 0.33509 0.0
H969 H 0.81696 0.65412 0.23123 0.0
H970 H 0.77356 0.68971 0.25292 0.0
H971 H 0.72426 0.65676 0.33897 0.0
H972 H 0.57677 0.72559 0.32874 0.0
H973 H 0.63154 0.7215 0.35564 0.0
H974 H 0.7245 0.77592 0.30506 0.0
C975 C 0.78791 0.67585 0.27057 0.0
C976 C 0.72463 0.68301 0.33223 0.0
C977 C 0.81262 0.6553 0.2582 0.0
C978 C 0.59868 0.73864 0.31777 0.0
C979 C 0.63031 0.7357 0.33275 0.0
C980 C 0.72377 0.74998 0.31271 0.0
C981 C 0.78094 0.67774 0.30521 0.0
C982 C 0.75323 0.69834 0.31706 0.0
C983 C 0.66004 0.74757 0.31623 0.0
C984 C 0.69347 0.73343 0.32358 0.0
H985 H 0.83807 0.62369 0.33266 0.0
H986 H 0.79367 0.65924 0.35424 0.0
H987 H 0.77482 0.74455 0.29665 0.0
H988 H 0.62371 0.78401 0.24951 0.0
H989 H 0.67827 0.77792 0.27406 0.0
C990 C 0.68305 0.50102 0.49146 0.0
C991 C 0.66689 0.53151 0.49366 0.0
C992 C 0.66646 0.47225 0.47728 0.0
C993 C 0.58138 0.43724 0.44903 0.0
H994 H 0.63462 0.38029 0.39189 0.0
C995 C 0.53346 0.35956 0.33324 0.0
C996 C 0.54778 0.32874 0.3261 0.0
C997 C 0.543 0.37834 0.36214 0.0
C998 C 0.61947 0.39549 0.40834 0.0
H999 H 0.62074 0.55583 0.48272 0.0
H1000 H 0.59239 0.50623 0.45649 0.0
H1001 H 0.66254 0.4259 0.42453 0.0
H1002 H 0.58114 0.29202 0.34447 0.0
H1003 H 0.59818 0.32508 0.39503 0.0
H1004 H 0.53805 0.40783 0.43062 0.0
C1005 C 0.61742 0.50405 0.46672 0.0
C1006 C 0.63549 0.42173 0.42713 0.0
C1007 C 0.63381 0.53265 0.48143 0.0
C1008 C 0.56953 0.31558 0.3497 0.0
C1009 C 0.57946 0.33459 0.37839 0.0
C1010 C 0.5653 0.41124 0.42976 0.0
C1011 C 0.63352 0.47343 0.46442 0.0
C1012 C 0.61663 0.44342 0.4472 0.0
C1013 C 0.56742 0.36679 0.38403 0.0
C1014 C 0.58418 0.39051 0.40879 0.0
H1015 H 0.70835 0.4992 0.50121 0.0
H1016 H 0.67947 0.44905 0.47658 0.0
H1017 H 0.56607 0.45289 0.4648 0.0
H1018 H 0.51684 0.37023 0.31518 0.0
H1019 H 0.53349 0.40316 0.36573 0.0
C1020 C 0.16066 0.94936 0.30437 0.0
C1021 C 0.15766 0.95854 0.27047 0.0
C1022 C 0.18853 0.93228 0.31499 0.0
C1023 C 0.24095 0.87718 0.32107 0.0
H1024 H 0.32882 0.91124 0.29033 0.0
C1025 C 0.3594 0.80146 0.29696 0.0
C1026 C 0.39086 0.81882 0.30169 0.0
C1027 C 0.32968 0.81711 0.3053 0.0
C1028 C 0.30456 0.90162 0.29962 0.0
H1029 H 0.18138 0.95696 0.22119 0.0
H1030 H 0.23011 0.92772 0.23982 0.0
H1031 H 0.27941 0.94257 0.27896 0.0
H1032 H 0.41645 0.86395 0.32247 0.0
H1033 H 0.36465 0.89105 0.33769 0.0
H1034 H 0.26622 0.83512 0.34011 0.0
C1035 C 0.21097 0.93373 0.25816 0.0
C1036 C 0.27624 0.91942 0.29277 0.0
C1037 C 0.18299 0.95033 0.24747 0.0
C1038 C 0.39241 0.85014 0.31867 0.0
C1039 C 0.36281 0.86569 0.32712 0.0
C1040 C 0.26935 0.85886 0.32732 0.0
C1041 C 0.21402 0.92449 0.29198 0.0
C1042 C 0.24407 0.90708 0.30276 0.0
C1043 C 0.33124 0.85023 0.31846 0.0
C1044 C 0.30139 0.87083 0.31633 0.0
H1045 H 0.14139 0.95521 0.32262 0.0
H1046 H 0.19037 0.92549 0.34121 0.0
H1047 H 0.21646 0.86727 0.3293 0.0
H1048 H 0.35764 0.77743 0.28353 0.0
H1049 H 0.30568 0.80468 0.29824 0.0
C1050 C 0.22841 0.01331 0.63075 0.0
C1051 C 0.22528 0.99666 0.59925 0.0
C1052 C 0.20408 0.03525 0.64151 0.0
C1053 C 0.1348 0.08577 0.61218 0.0
H1054 H 0.10686 0.07978 0.70566 0.0
C1055 C 0.04197 0.1463 0.72045 0.0
C1056 C 0.05104 0.18041 0.71558 0.0
C1057 C 0.05509 0.12164 0.69943 0.0
C1058 C 0.11375 0.0814 0.67928 0.0
H1059 H 0.19485 0.99065 0.55389 0.0
H1060 H 0.1524 0.02889 0.57273 0.0
H1061 H 0.14814 0.04229 0.68369 0.0
H1062 H 0.07778 0.21585 0.68316 0.0
H1063 H 0.10111 0.17294 0.64666 0.0
H1064 H 0.10033 0.1251 0.60795 0.0
C1065 C 0.17369 0.02516 0.58902 0.0
C1066 C 0.13797 0.06028 0.66687 0.0
C1067 C 0.19796 0.00316 0.57831 0.0
C1068 C 0.07015 0.18968 0.68713 0.0
C1069 C 0.08363 0.165 0.66631 0.0
C1070 C 0.11048 0.107 0.62464 0.0
C1071 C 0.17617 0.04101 0.62097 0.0
C1072 C 0.14925 0.06261 0.63339 0.0
C1073 C 0.07795 0.13071 0.67358 0.0
C1074 C 0.10001 0.10537 0.6585 0.0
H1075 H 0.24915 0.00876 0.64747 0.0
H1076 H 0.207 0.04752 0.66606 0.0
H1077 H 0.14301 0.08818 0.58623 0.0
H1078 H 0.0273 0.13865 0.74233 0.0
H1079 H 0.04946 0.09544 0.70511 0.0
C1080 C 0.796 0.5206 0.21027 0.0
C1081 C 0.82644 0.50633 0.20158 0.0
C1082 C 0.76523 0.50235 0.20538 0.0
C1083 C 0.72681 0.42316 0.16434 0.0
H1084 H 0.65581 0.43764 0.22924 0.0
C1085 C 0.61861 0.32713 0.19948 0.0
C1086 C 0.5879 0.3399 0.20993 0.0
C1087 C 0.645 0.34895 0.18845 0.0
C1088 C 0.6751 0.43374 0.21041 0.0
H1089 H 0.84874 0.46181 0.1811 0.0
H1090 H 0.79555 0.42914 0.17458 0.0
H1091 H 0.70762 0.47252 0.23234 0.0
H1092 H 0.55905 0.38448 0.2129 0.0
H1093 H 0.60498 0.42254 0.19332 0.0
H1094 H 0.69453 0.38278 0.14385 0.0
C1095 C 0.79492 0.45486 0.18387 0.0
C1096 C 0.70498 0.45386 0.21214 0.0
C1097 C 0.82558 0.47347 0.18792 0.0
C1098 C 0.58261 0.37409 0.20521 0.0
C1099 C 0.60895 0.39587 0.19428 0.0
C1100 C 0.69702 0.40271 0.16286 0.0
C1101 C 0.76421 0.46898 0.19258 0.0
C1102 C 0.73149 0.44872 0.18932 0.0
C1103 C 0.64097 0.38381 0.18778 0.0
C1104 C 0.67097 0.40764 0.18609 0.0
H1105 H 0.79592 0.54614 0.2203 0.0
H1106 H 0.74227 0.51462 0.21147 0.0
H1107 H 0.74631 0.41858 0.14614 0.0
H1108 H 0.62343 0.30093 0.20311 0.0
H1109 H 0.66941 0.33893 0.18356 0.0
C1110 C 0.68518 0.59709 0.69012 0.0
C1111 C 0.67445 0.57625 0.71673 0.0
C1112 C 0.71399 0.61872 0.69352 0.0
C1113 C 0.77254 0.66026 0.75574 0.0
H1114 H 0.83742 0.65721 0.68263 0.0
C1115 C 0.92416 0.68472 0.73648 0.0
C1116 C 0.9296 0.71105 0.76021 0.0
C1117 C 0.8914 0.67477 0.72609 0.0
C1118 C 0.81977 0.65831 0.70342 0.0
H1119 H 0.68505 0.5626 0.76814 0.0
H1120 H 0.73537 0.60041 0.77404 0.0
H1121 H 0.78333 0.62571 0.6774 0.0
H1122 H 0.90582 0.74952 0.78962 0.0
H1123 H 0.84876 0.7338 0.76983 0.0
H1124 H 0.80963 0.69064 0.78297 0.0
C1125 C 0.7214 0.60003 0.75058 0.0
C1126 C 0.78848 0.64064 0.70014 0.0
C1127 C 0.69276 0.57814 0.74709 0.0
C1128 C 0.90218 0.72931 0.77102 0.0
C1129 C 0.86945 0.71981 0.76015 0.0
C1130 C 0.80401 0.67757 0.75926 0.0
C1131 C 0.73261 0.62018 0.72366 0.0
C1132 C 0.76467 0.64113 0.72637 0.0
C1133 C 0.8634 0.69127 0.73893 0.0
C1134 C 0.82835 0.67644 0.73334 0.0
H1135 H 0.67162 0.59638 0.66641 0.0
H1136 H 0.72176 0.63424 0.67251 0.0
H1137 H 0.75459 0.66128 0.77632 0.0
H1138 H 0.94488 0.66985 0.72837 0.0
H1139 H 0.88806 0.65252 0.71004 0.0
C1140 C 0.58618 0.77806 0.51001 0.0
C1141 C 0.56106 0.78511 0.53371 0.0
C1142 C 0.59253 0.79914 0.48279 0.0
C1143 C 0.58662 0.88574 0.45604 0.0
H1144 H 0.60705 0.84689 0.36833 0.0
C1145 C 0.67912 0.94582 0.36119 0.0
C1146 C 0.67542 0.93769 0.32671 0.0
C1147 C 0.65512 0.93386 0.38444 0.0
C1148 C 0.60072 0.85835 0.39238 0.0
H1149 H 0.52279 0.81978 0.54742 0.0
H1150 H 0.53428 0.85702 0.49985 0.0
H1151 H 0.58478 0.81073 0.41273 0.0
H1152 H 0.64228 0.9137 0.28901 0.0
H1153 H 0.59993 0.89308 0.32963 0.0
H1154 H 0.60375 0.93326 0.43593 0.0
C1155 C 0.54894 0.83506 0.50242 0.0
C1156 C 0.58838 0.83751 0.41797 0.0
C1157 C 0.54234 0.81372 0.52956 0.0
C1158 C 0.64558 0.92049 0.31546 0.0
C1159 C 0.62159 0.90835 0.33876 0.0
C1160 C 0.59917 0.90664 0.43043 0.0
C1161 C 0.57408 0.82792 0.4787 0.0
C1162 C 0.58221 0.85079 0.45037 0.0
C1163 C 0.62704 0.91338 0.37362 0.0
C1164 C 0.60731 0.89302 0.39859 0.0
H1165 H 0.60103 0.75622 0.51247 0.0
H1166 H 0.61244 0.79324 0.46525 0.0
H1167 H 0.58212 0.8967 0.48077 0.0
H1168 H 0.70201 0.95896 0.37042 0.0
H1169 H 0.66025 0.93812 0.41105 0.0
C1170 C 0.41265 0.26365 0.85556 0.0
C1171 C 0.43151 0.29405 0.84974 0.0
C1172 C 0.3866 0.2524 0.83349 0.0
C1173 C 0.36754 0.25632 0.74507 0.0
H1174 H 0.27282 0.23633 0.76435 0.0
C1175 C 0.24335 0.26908 0.66653 0.0
C1176 C 0.25564 0.25728 0.6355 0.0
C1177 C 0.25886 0.26077 0.69668 0.0
C1178 C 0.29928 0.24146 0.75867 0.0
H1179 H 0.43583 0.33751 0.81748 0.0
H1180 H 0.3912 0.31762 0.77908 0.0
H1181 H 0.31256 0.24943 0.81085 0.0
H1182 H 0.29028 0.22408 0.61159 0.0
H1183 H 0.31661 0.20856 0.66422 0.0
H1184 H 0.3549 0.24937 0.69316 0.0
C1185 C 0.39678 0.30239 0.80049 0.0
C1186 C 0.32191 0.24909 0.78525 0.0
C1187 C 0.42239 0.31376 0.82255 0.0
C1188 C 0.28044 0.23349 0.63528 0.0
C1189 C 0.29568 0.2249 0.66538 0.0
C1190 C 0.34524 0.24831 0.7187 0.0
C1191 C 0.37935 0.27122 0.80512 0.0
C1192 C 0.35597 0.2578 0.77847 0.0
C1193 C 0.28676 0.24045 0.69608 0.0
C1194 C 0.31064 0.24179 0.725 0.0
H1195 H 0.41868 0.24803 0.87652 0.0
H1196 H 0.37325 0.22838 0.83766 0.0
H1197 H 0.39379 0.26261 0.73923 0.0
H1198 H 0.22446 0.28772 0.66727 0.0
H1199 H 0.25136 0.27319 0.71985 0.0
C1200 C 0.9855 0.17699 0.01779 0.0
C1201 C 0.98302 0.16201 0.04949 0.0
C1202 C 0.96817 0.16241 0.98999 0.0
C1203 C 0.91911 0.08351 0.96099 0.0
H1204 H 0.88443 0.14348 0.89529 0.0
C1205 C 0.80467 0.0561 0.87124 0.0
C1206 C 0.80893 0.06603 0.83768 0.0
C1207 C 0.83079 0.06212 0.8946 0.0
C1208 C 0.89437 0.12639 0.9132 0.0
H1209 H 0.96026 0.12018 0.07706 0.0
H1210 H 0.92854 0.09579 0.02929 0.0
H1211 H 0.91926 0.1666 0.94139 0.0
H1212 H 0.8438 0.08875 0.80169 0.0
H1213 H 0.88937 0.09998 0.84278 0.0
H1214 H 0.89188 0.04361 0.93352 0.0
C1215 C 0.94486 0.11802 0.02526 0.0
C1216 C 0.91453 0.13959 0.93966 0.0
C1217 C 0.96283 0.13218 0.05285 0.0
C1218 C 0.84024 0.08036 0.82734 0.0
C1219 C 0.86612 0.08702 0.85083 0.0
C1220 C 0.89827 0.07042 0.93488 0.0
C1221 C 0.94722 0.13291 0.99337 0.0
C1222 C 0.92707 0.11842 0.96415 0.0
C1223 C 0.86121 0.0789 0.88487 0.0
C1224 C 0.88564 0.09179 0.91085 0.0
H1225 H 0.00124 0.19976 0.01435 0.0
H1226 H 0.97142 0.1743 0.96583 0.0
H1227 H 0.92879 0.06619 0.97877 0.0
H1228 H 0.78049 0.04554 0.8798 0.0
H1229 H 0.82632 0.05589 0.92076 0.0
C1230 C 0.12759 0.77536 0.33446 0.0
C1231 C 0.11433 0.80199 0.35303 0.0
C1232 C 0.15077 0.78191 0.30851 0.0
C1233 C 0.18329 0.84818 0.25106 0.0
H1234 H 0.25672 0.78857 0.24075 0.0
C1235 C 0.29551 0.80313 0.15512 0.0
C1236 C 0.27464 0.79947 0.12661 0.0
C1237 C 0.28342 0.81775 0.18486 0.0
C1238 C 0.237 0.80615 0.24359 0.0
H1239 H 0.11438 0.85634 0.35858 0.0
H1240 H 0.15466 0.86764 0.3134 0.0
H1241 H 0.2186 0.78209 0.28801 0.0
H1242 H 0.22756 0.81297 0.10471 0.0
H1243 H 0.2063 0.8381 0.15616 0.0
H1244 H 0.20138 0.87171 0.20593 0.0
C1245 C 0.1473 0.84177 0.31882 0.0
C1246 C 0.21464 0.80194 0.2705 0.0
C1247 C 0.12424 0.83524 0.34479 0.0
C1248 C 0.24402 0.81548 0.1265 0.0
C1249 C 0.23184 0.82987 0.15618 0.0
C1250 C 0.20569 0.85238 0.22398 0.0
C1251 C 0.1613 0.81522 0.30074 0.0
C1252 C 0.18686 0.8221 0.27395 0.0
C1253 C 0.25024 0.82857 0.18639 0.0
C1254 C 0.23211 0.8306 0.21922 0.0
H1255 H 0.12039 0.74947 0.34021 0.0
H1256 H 0.16059 0.76084 0.29463 0.0
H1257 H 0.16231 0.86438 0.25311 0.0
H1258 H 0.31929 0.79101 0.15577 0.0
H1259 H 0.29867 0.81736 0.20747 0.0
C1260 C 0.51095 0.19122 0.99689 0.0
C1261 C 0.53475 0.21625 0.98616 0.0
C1262 C 0.5205 0.166 0.01849 0.0
C1263 C 0.59556 0.1231 0.04589 0.0
H1264 H 0.54279 0.09939 0.12514 0.0
C1265 C 0.64551 0.03041 0.13885 0.0
C1266 C 0.64686 0.04322 0.17215 0.0
C1267 C 0.62468 0.04436 0.11504 0.0
C1268 C 0.55769 0.10557 0.10299 0.0
H1269 H 0.58711 0.23458 0.98997 0.0
H1270 H 0.60366 0.1908 0.02748 0.0
H1271 H 0.52185 0.1397 0.08552 0.0
H1272 H 0.62484 0.07801 0.2075 0.0
H1273 H 0.5887 0.10246 0.16608 0.0
H1274 H 0.63204 0.09028 0.06377 0.0
C1275 C 0.57771 0.1904 0.019 0.0
C1276 C 0.5456 0.1285 0.0802 0.0
C1277 C 0.56815 0.21568 0.99769 0.0
C1278 C 0.62447 0.06782 0.18193 0.0
C1279 C 0.60364 0.08173 0.15817 0.0
C1280 C 0.60753 0.10013 0.06848 0.0
C1281 C 0.5541 0.16512 0.02949 0.0
C1282 C 0.56485 0.13816 0.05186 0.0
C1283 C 0.60476 0.07133 0.12408 0.0
C1284 C 0.58915 0.09161 0.09773 0.0
H1285 H 0.48501 0.19097 0.98842 0.0
H1286 H 0.50176 0.14681 0.02605 0.0
H1287 H 0.61075 0.12963 0.02402 0.0
H1288 H 0.66255 0.01158 0.1305 0.0
H1289 H 0.62563 0.03533 0.08911 0.0
C1290 C 0.10935 0.25896 0.19854 0.0
C1291 C 0.09676 0.2307 0.17989 0.0
C1292 C 0.12987 0.25529 0.22653 0.0
C1293 C 0.1496 0.19481 0.29134 0.0
H1294 H 0.21332 0.26831 0.31623 0.0
C1295 C 0.21896 0.26959 0.41281 0.0
C1296 C 0.19054 0.26715 0.43384 0.0
C1297 C 0.21894 0.25208 0.38182 0.0
C1298 C 0.19644 0.24688 0.30975 0.0
H1299 H 0.09595 0.17625 0.17582 0.0
H1300 H 0.13155 0.16988 0.22541 0.0
H1301 H 0.19201 0.26367 0.25929 0.0
H1302 H 0.14114 0.24278 0.44081 0.0
H1303 H 0.14027 0.21323 0.38669 0.0
H1304 H 0.15396 0.17804 0.34197 0.0
C1305 C 0.12588 0.19487 0.21796 0.0
C1306 C 0.18369 0.24463 0.27699 0.0
C1307 C 0.10536 0.19855 0.18969 0.0
C1308 C 0.16352 0.24457 0.42511 0.0
C1309 C 0.16316 0.22759 0.39391 0.0
C1310 C 0.16277 0.19675 0.3241 0.0
C1311 C 0.13854 0.22323 0.23662 0.0
C1312 C 0.15845 0.21994 0.26805 0.0
C1313 C 0.19 0.23276 0.37092 0.0
C1314 C 0.18465 0.22411 0.33438 0.0
H1315 H 0.10305 0.28408 0.19178 0.0
H1316 H 0.13815 0.27772 0.24082 0.0
H1317 H 0.1306 0.17507 0.28524 0.0
H1318 H 0.23996 0.28713 0.41906 0.0
H1319 H 0.24051 0.2559 0.36533 0.0
C1320 C 0.00185 0.90275 0.48127 0.0
C1321 C 0.011 0.86925 0.48388 0.0
C1322 C 0.98539 0.9186 0.50775 0.0
C1323 C 0.96925 0.91846 0.59832 0.0
H1324 H 0.8857 0.95804 0.57445 0.0
C1325 C 0.86823 0.95277 0.6959 0.0
C1326 C 0.8449 0.97666 0.6877 0.0
C1327 C 0.8939 0.94497 0.67342 0.0
C1328 C 0.90937 0.94799 0.58163 0.0
H1329 H 0.01081 0.82649 0.51691 0.0
H1330 H 0.98213 0.85462 0.5636 0.0
H1331 H 0.91952 0.9328 0.53072 0.0
H1332 H 0.8329 0.01401 0.65121 0.0
H1333 H 0.87894 0.00202 0.61307 0.0
H1334 H 0.95937 0.93394 0.64925 0.0
C1335 C 0.9878 0.86837 0.54081 0.0
C1336 C 0.92859 0.93319 0.55649 0.0
C1337 C 0.00396 0.85224 0.51404 0.0
C1338 C 0.85025 0.99535 0.65833 0.0
C1339 C 0.87635 0.98799 0.6361 0.0
C1340 C 0.95025 0.93378 0.62353 0.0
C1341 C 0.97798 0.90154 0.53765 0.0
C1342 C 0.95848 0.91797 0.5646 0.0
C1343 C 0.89733 0.96142 0.64246 0.0
C1344 C 0.9198 0.9484 0.61557 0.0
H1345 H 0.00681 0.91668 0.45847 0.0
H1346 H 0.97827 0.94426 0.50477 0.0
H1347 H 0.99244 0.90717 0.60512 0.0
H1348 H 0.86534 0.93849 0.71877 0.0
H1349 H 0.90949 0.92445 0.67943 0.0
C1350 C 0.46004 0.74825 0.68913 0.0
C1351 C 0.47482 0.71706 0.69204 0.0
C1352 C 0.43591 0.75833 0.71262 0.0
C1353 C 0.37696 0.72382 0.77725 0.0
H1354 H 0.38741 0.81183 0.82096 0.0
C1355 C 0.35772 0.77001 0.91638 0.0
C1356 C 0.32793 0.75047 0.92263 0.0
C1357 C 0.36681 0.77807 0.8833 0.0
C1358 C 0.3838 0.78737 0.80859 0.0
H1359 H 0.47546 0.67203 0.72195 0.0
H1360 H 0.43402 0.6896 0.76261 0.0
H1361 H 0.42194 0.79887 0.77149 0.0
H1362 H 0.28169 0.72897 0.90039 0.0
H1363 H 0.29706 0.74375 0.84274 0.0
H1364 H 0.34045 0.71136 0.81503 0.0
C1365 C 0.44062 0.70615 0.74201 0.0
C1366 C 0.40346 0.77999 0.78022 0.0
C1367 C 0.46468 0.69617 0.71876 0.0
C1368 C 0.30488 0.74394 0.89614 0.0
C1369 C 0.31387 0.75211 0.86311 0.0
C1370 C 0.35724 0.73121 0.80526 0.0
C1371 C 0.42592 0.7373 0.73928 0.0
C1372 C 0.4011 0.74764 0.7651 0.0
C1373 C 0.34611 0.76675 0.85612 0.0
C1374 C 0.36118 0.76267 0.82201 0.0
H1375 H 0.46724 0.76499 0.66887 0.0
H1376 H 0.42492 0.78242 0.70981 0.0
H1377 H 0.37423 0.69885 0.7659 0.0
H1378 H 0.37601 0.77521 0.93633 0.0
H1379 H 0.39178 0.78947 0.87886 0.0
C1380 C 0.48511 0.52972 0.7613 0.0
C1381 C 0.51893 0.5277 0.771 0.0
C1382 C 0.46012 0.53472 0.78548 0.0
C1383 C 0.44395 0.53587 0.87876 0.0
H1384 H 0.3767 0.59796 0.85433 0.0
C1385 C 0.37955 0.6278 0.96856 0.0
C1386 C 0.34714 0.63743 0.96013 0.0
C1387 C 0.39486 0.60296 0.94942 0.0
C1388 C 0.39476 0.57994 0.86144 0.0
H1389 H 0.55307 0.52896 0.81367 0.0
H1390 H 0.50992 0.53934 0.85568 0.0
H1391 H 0.41529 0.57854 0.81178 0.0
H1392 H 0.3035 0.62536 0.92853 0.0
H1393 H 0.33023 0.58194 0.89511 0.0
H1394 H 0.42447 0.53948 0.9292 0.0
C1395 C 0.50232 0.53597 0.82956 0.0
C1396 C 0.41702 0.56874 0.83694 0.0
C1397 C 0.5272 0.53037 0.80542 0.0
C1398 C 0.32869 0.61871 0.93524 0.0
C1399 C 0.34403 0.594 0.91603 0.0
C1400 C 0.4219 0.5475 0.90345 0.0
C1401 C 0.46844 0.53846 0.81992 0.0
C1402 C 0.44242 0.54712 0.84537 0.0
C1403 C 0.37797 0.58745 0.92159 0.0
C1404 C 0.39749 0.57016 0.89512 0.0
H1405 H 0.47787 0.52715 0.73499 0.0
H1406 H 0.43427 0.53575 0.77708 0.0
H1407 H 0.46268 0.51864 0.88607 0.0
H1408 H 0.39446 0.64187 0.98748 0.0
H1409 H 0.42105 0.59846 0.95431 0.0
C1410 C 0.74919 0.32516 0.12548 0.0
C1411 C 0.77856 0.34561 0.12024 0.0
C1412 C 0.74991 0.29697 0.14578 0.0
C1413 C 0.8087 0.23739 0.18093 0.0
H1414 H 0.7274 0.20675 0.22781 0.0
C1415 C 0.739 0.1147 0.25171 0.0
C1416 C 0.74897 0.09007 0.2285 0.0
C1417 C 0.75131 0.14813 0.24895 0.0
C1418 C 0.75076 0.21506 0.2157 0.0
H1419 H 0.83158 0.35319 0.13292 0.0
H1420 H 0.83273 0.30438 0.16906 0.0
H1421 H 0.73063 0.26185 0.20325 0.0
H1422 H 0.78151 0.08015 0.1861 0.0
H1423 H 0.80232 0.13829 0.18046 0.0
H1424 H 0.82897 0.19062 0.19385 0.0
C1425 C 0.80925 0.3096 0.15687 0.0
C1426 C 0.75231 0.24661 0.2009 0.0
C1427 C 0.80858 0.33767 0.13624 0.0
C1428 C 0.7739 0.09867 0.20463 0.0
C1429 C 0.78574 0.13218 0.20141 0.0
C1430 C 0.80734 0.20593 0.19617 0.0
C1431 C 0.77995 0.28871 0.16175 0.0
C1432 C 0.7807 0.25763 0.18208 0.0
C1433 C 0.77306 0.15769 0.22228 0.0
C1434 C 0.77781 0.19373 0.21261 0.0
H1435 H 0.72567 0.3306 0.11347 0.0
H1436 H 0.72696 0.28122 0.14823 0.0
H1437 H 0.8311 0.24497 0.16678 0.0
H1438 H 0.71958 0.10861 0.27017 0.0
H1439 H 0.74178 0.16682 0.2662 0.0
C1440 C 0.00996 0.51259 0.27171 0.0
C1441 C 0.9767 0.51946 0.28059 0.0
C1442 C 0.03129 0.49873 0.29492 0.0
C1443 C 0.04264 0.48197 0.38605 0.0
H1444 H 0.10039 0.41423 0.35032 0.0
C1445 C 0.11361 0.38707 0.46617 0.0
C1446 C 0.14558 0.37853 0.45454 0.0
C1447 C 0.09469 0.40927 0.44807 0.0
C1448 C 0.08481 0.43346 0.36067 0.0
H1449 H 0.94002 0.51783 0.32119 0.0
H1450 H 0.97707 0.49255 0.3616 0.0
H1451 H 0.06327 0.44185 0.31256 0.0
H1452 H 0.18412 0.3889 0.41682 0.0
H1453 H 0.15125 0.42768 0.38538 0.0
H1454 H 0.06382 0.47246 0.43452 0.0
C1455 C 0.98681 0.49845 0.33676 0.0
C1456 C 0.06348 0.44936 0.33898 0.0
C1457 C 0.96548 0.51274 0.31355 0.0
C1458 C 0.15933 0.39464 0.42607 0.0
C1459 C 0.14047 0.41672 0.40802 0.0
C1460 C 0.0639 0.46576 0.4079 0.0
C1461 C 0.01988 0.49092 0.32757 0.0
C1462 C 0.04224 0.47398 0.35126 0.0
C1463 C 0.10744 0.42322 0.41804 0.0
C1464 C 0.08537 0.44148 0.39535 0.0
H1465 H 0.01968 0.51807 0.24676 0.0
H1466 H 0.05684 0.49414 0.28717 0.0
H1467 H 0.02685 0.50102 0.39634 0.0
H1468 H 0.10227 0.37486 0.48789 0.0
H1469 H 0.06928 0.41374 0.45637 0.0
C1470 C 0.71187 0.67548 0.60599 0.0
C1471 C 0.74242 0.65945 0.60368 0.0
C1472 C 0.70918 0.7041 0.62674 0.0
C1473 C 0.76425 0.7691 0.67409 0.0
H1474 H 0.67783 0.79845 0.70547 0.0
C1475 C 0.76132 0.88886 0.75122 0.0
C1476 C 0.74536 0.91325 0.73287 0.0
C1477 C 0.75403 0.85471 0.74442 0.0
C1478 C 0.70212 0.79027 0.69715 0.0
H1479 H 0.79364 0.65971 0.6223 0.0
H1480 H 0.78849 0.70757 0.6602 0.0
H1481 H 0.68069 0.7446 0.67513 0.0
H1482 H 0.70632 0.92136 0.69638 0.0
H1483 H 0.69316 0.86142 0.68477 0.0
H1484 H 0.78569 0.81469 0.69628 0.0
C1485 C 0.7669 0.69968 0.64483 0.0
C1486 C 0.70382 0.75953 0.67947 0.0
C1487 C 0.76986 0.67183 0.62328 0.0
C1488 C 0.71875 0.903 0.71104 0.0
C1489 C 0.71134 0.86871 0.70429 0.0
C1490 C 0.76264 0.79923 0.69238 0.0
C1491 C 0.73678 0.71686 0.64642 0.0
C1492 C 0.73488 0.74859 0.66726 0.0
C1493 C 0.73057 0.84445 0.71927 0.0
C1494 C 0.73159 0.81034 0.70378 0.0
H1495 H 0.69027 0.66652 0.59104 0.0
H1496 H 0.68566 0.71655 0.6264 0.0
H1497 H 0.78861 0.76281 0.66433 0.0
H1498 H 0.78194 0.89622 0.76817 0.0
H1499 H 0.7689 0.83642 0.75657 0.0
C1500 C 0.53868 0.46545 0.64118 0.0
C1501 C 0.54243 0.45221 0.67347 0.0
C1502 C 0.50954 0.45729 0.62219 0.0
C1503 C 0.42061 0.43066 0.63195 0.0
H1504 H 0.42532 0.39178 0.54162 0.0
C1505 C 0.33414 0.33173 0.55325 0.0
C1506 C 0.30244 0.34413 0.56062 0.0
C1507 C 0.36348 0.35241 0.55737 0.0
C1508 C 0.42362 0.40304 0.56664 0.0
H1509 H 0.51874 0.4201 0.71121 0.0
H1510 H 0.46777 0.40633 0.67835 0.0
H1511 H 0.47726 0.41278 0.57029 0.0
H1512 H 0.27617 0.3886 0.57461 0.0
H1513 H 0.3275 0.42493 0.58161 0.0
H1514 H 0.3674 0.41987 0.62917 0.0
C1515 C 0.48735 0.42293 0.66769 0.0
C1516 C 0.45328 0.4151 0.58296 0.0
C1517 C 0.51662 0.43062 0.68638 0.0
C1518 C 0.3003 0.37847 0.56862 0.0
C1519 C 0.32969 0.39915 0.57296 0.0
C1520 C 0.39104 0.41903 0.61555 0.0
C1521 C 0.48345 0.43629 0.6355 0.0
C1522 C 0.45207 0.42799 0.61619 0.0
C1523 C 0.36162 0.38581 0.56916 0.0
C1524 C 0.39226 0.40416 0.58311 0.0
H1525 H 0.55822 0.48217 0.63063 0.0
H1526 H 0.5071 0.46789 0.59744 0.0
H1527 H 0.41899 0.44082 0.65744 0.0
H1528 H 0.33638 0.30531 0.54702 0.0
H1529 H 0.38764 0.34132 0.55432 0.0
C1530 C 0.79754 0.31518 0.96592 0.0
C1531 C 0.77934 0.34064 0.9813 0.0
C1532 C 0.78439 0.29701 0.93797 0.0
C1533 C 0.7044 0.26888 0.89866 0.0
H1534 H 0.76391 0.23828 0.82814 0.0
C1535 C 0.69905 0.13806 0.83984 0.0
C1536 C 0.71404 0.13279 0.80823 0.0
C1537 C 0.69504 0.17071 0.85216 0.0
C1538 C 0.74653 0.24714 0.847 0.0
H1539 H 0.73313 0.36731 0.97885 0.0
H1540 H 0.71011 0.33524 0.93013 0.0
H1541 H 0.7841 0.28213 0.86775 0.0
H1542 H 0.73249 0.15691 0.76296 0.0
H1543 H 0.72511 0.2141 0.78421 0.0
H1544 H 0.66759 0.23201 0.87924 0.0
C1545 C 0.73456 0.32942 0.93983 0.0
C1546 C 0.7583 0.27211 0.86995 0.0
C1547 C 0.74784 0.34781 0.96769 0.0
C1548 C 0.72066 0.16037 0.7873 0.0
C1549 C 0.71679 0.1931 0.79966 0.0
C1550 C 0.6927 0.24352 0.87589 0.0
C1551 C 0.75263 0.3037 0.92478 0.0
C1552 C 0.73788 0.28229 0.89681 0.0
C1553 C 0.70621 0.19859 0.83311 0.0
C1554 C 0.71417 0.23139 0.85071 0.0
H1555 H 0.82189 0.30903 0.97561 0.0
H1556 H 0.79873 0.27698 0.9273 0.0
H1557 H 0.68803 0.27619 0.91911 0.0
H1558 H 0.69378 0.11712 0.85641 0.0
H1559 H 0.68681 0.17396 0.87804 0.0
C1560 C 0.9831 0.61061 0.17058 0.0
C1561 C 0.97765 0.61364 0.20546 0.0
C1562 C 0.01553 0.61575 0.15719 0.0
C1563 C 0.10125 0.65257 0.17934 0.0
H1564 H 0.12671 0.60481 0.09763 0.0
C1565 C 0.23413 0.6711 0.12713 0.0
C1566 C 0.23422 0.68526 0.09502 0.0
C1567 C 0.20501 0.65437 0.13948 0.0
C1568 C 0.1199 0.61813 0.12055 0.0
H1569 H 0.00173 0.62352 0.25388 0.0
H1570 H 0.0585 0.6311 0.2309 0.0
H1571 H 0.07121 0.59249 0.12273 0.0
H1572 H 0.20527 0.69108 0.0496 0.0
H1573 H 0.1543 0.66082 0.07084 0.0
H1574 H 0.15019 0.67775 0.17734 0.0
C1575 C 0.03775 0.62605 0.21353 0.0
C1576 C 0.08801 0.6114 0.13482 0.0
C1577 C 0.00519 0.62163 0.22681 0.0
C1578 C 0.20589 0.67969 0.07415 0.0
C1579 C 0.17675 0.66261 0.0864 0.0
C1580 C 0.13326 0.65876 0.16547 0.0
C1581 C 0.0434 0.6233 0.17848 0.0
C1582 C 0.07804 0.62891 0.16417 0.0
C1583 C 0.17557 0.65143 0.11981 0.0
C1584 C 0.14277 0.64191 0.13576 0.0
H1585 H 0.96222 0.60448 0.15358 0.0
H1586 H 0.01856 0.61413 0.13008 0.0
H1587 H 0.09448 0.66717 0.20143 0.0
H1588 H 0.25559 0.67567 0.1438 0.0
H1589 H 0.20477 0.64577 0.16522 0.0
C1590 C 0.78291 0.67644 0.45763 0.0
C1591 C 0.75227 0.68101 0.47469 0.0
C1592 C 0.79645 0.70111 0.43584 0.0
C1593 C 0.79164 0.7919 0.41972 0.0
H1594 H 0.8215 0.77134 0.32895 0.0
C1595 C 0.77987 0.8588 0.28904 0.0
C1596 C 0.7845 0.89201 0.30145 0.0
C1597 C 0.7914 0.83215 0.30752 0.0
C1598 C 0.81354 0.77751 0.3543 0.0
H1599 H 0.71148 0.71486 0.48118 0.0
H1600 H 0.73473 0.75708 0.44356 0.0
H1601 H 0.8086 0.72554 0.36797 0.0
H1602 H 0.80845 0.92397 0.34019 0.0
H1603 H 0.83 0.87773 0.3717 0.0
H1604 H 0.79418 0.84332 0.406 0.0
C1605 C 0.74876 0.73489 0.44741 0.0
C1606 C 0.80633 0.75126 0.37672 0.0
C1607 C 0.73528 0.71043 0.4689 0.0
C1608 C 0.80472 0.89854 0.33008 0.0
C1609 C 0.8166 0.87197 0.34833 0.0
C1610 C 0.79872 0.81796 0.39745 0.0
C1611 C 0.77973 0.73089 0.43102 0.0
C1612 C 0.79381 0.75818 0.40918 0.0
C1613 C 0.80773 0.83838 0.33872 0.0
C1614 C 0.80846 0.81112 0.36396 0.0
H1615 H 0.7966 0.65401 0.46133 0.0
H1616 H 0.82027 0.69724 0.42338 0.0
H1617 H 0.78286 0.79814 0.44485 0.0
H1618 H 0.76399 0.85313 0.26722 0.0
H1619 H 0.78424 0.80674 0.29912 0.0
C1620 C 0.83277 0.51464 0.54811 0.0
C1621 C 0.79766 0.51454 0.55201 0.0
C1622 C 0.85012 0.48612 0.55595 0.0
C1623 C 0.83756 0.40672 0.6044 0.0
H1624 H 0.92683 0.39085 0.56968 0.0
C1625 C 0.91051 0.30105 0.65685 0.0
C1626 C 0.93958 0.31426 0.67381 0.0
C1627 C 0.89519 0.3197 0.63231 0.0
C1628 C 0.90176 0.39484 0.57928 0.0
H1629 H 0.7527 0.48421 0.56456 0.0
H1630 H 0.78226 0.43376 0.57574 0.0
H1631 H 0.89428 0.43458 0.54511 0.0
H1632 H 0.97764 0.3555 0.6752 0.0
H1633 H 0.95138 0.38756 0.63161 0.0
H1634 H 0.84498 0.36671 0.6382 0.0
C1635 C 0.79704 0.45617 0.56869 0.0
C1636 C 0.88316 0.42016 0.56553 0.0
C1637 C 0.77992 0.48501 0.56199 0.0
C1638 C 0.95537 0.3445 0.6626 0.0
C1639 C 0.94024 0.36297 0.63768 0.0
C1640 C 0.85574 0.38098 0.61745 0.0
C1641 C 0.83255 0.45652 0.56687 0.0
C1642 C 0.85108 0.4271 0.57851 0.0
C1643 C 0.90902 0.35161 0.62377 0.0
C1644 C 0.88832 0.37528 0.60562 0.0
H1645 H 0.84695 0.53725 0.54048 0.0
H1646 H 0.87738 0.48789 0.55461 0.0
H1647 H 0.81349 0.41141 0.61591 0.0
H1648 H 0.89809 0.27751 0.66448 0.0
H1649 H 0.87131 0.31022 0.62169 0.0
C1650 C 0.34328 0.01469 0.52038 0.0
C1651 C 0.35966 0.98445 0.52282 0.0
C1652 C 0.35779 0.04138 0.50213 0.0
C1653 C 0.43794 0.07348 0.462 0.0
H1654 H 0.37684 0.12134 0.40672 0.0
C1655 C 0.47672 0.15231 0.34531 0.0
C1656 C 0.45873 0.18103 0.33939 0.0
C1657 C 0.46863 0.13213 0.37295 0.0
C1658 C 0.39423 0.10865 0.42243 0.0
H1659 H 0.40443 0.9587 0.50837 0.0
H1660 H 0.42924 0.00485 0.47563 0.0
H1661 H 0.35429 0.0782 0.44407 0.0
H1662 H 0.42067 0.21304 0.35935 0.0
H1663 H 0.40663 0.1779 0.40761 0.0
H1664 H 0.47799 0.10336 0.43896 0.0
C1665 C 0.40553 0.00828 0.48846 0.0
C1666 C 0.38128 0.08388 0.44393 0.0
C1667 C 0.39118 0.98169 0.50705 0.0
C1668 C 0.43452 0.1907 0.36305 0.0
C1669 C 0.42644 0.17058 0.39058 0.0
C1670 C 0.45094 0.09817 0.44018 0.0
C1671 C 0.38886 0.03836 0.48551 0.0
C1672 C 0.40293 0.06582 0.46388 0.0
C1673 C 0.44244 0.14039 0.39504 0.0
C1674 C 0.42918 0.11589 0.42009 0.0
H1675 H 0.31919 0.01783 0.53261 0.0
H1676 H 0.34456 0.0644 0.501 0.0
H1677 H 0.45532 0.06039 0.47734 0.0
H1678 H 0.49536 0.14418 0.32736 0.0
H1679 H 0.48131 0.10894 0.3757 0.0
C1680 C 0.33801 0.09901 0.84361 0.0
C1681 C 0.35833 0.11488 0.81887 0.0
C1682 C 0.30785 0.11269 0.85399 0.0
C1683 C 0.26074 0.18943 0.85639 0.0
H1684 H 0.18147 0.13093 0.83772 0.0
C1685 C 0.13438 0.23917 0.81764 0.0
C1686 C 0.10468 0.21866 0.82056 0.0
C1687 C 0.16495 0.22849 0.82984 0.0
C1688 C 0.20312 0.14755 0.84413 0.0
H1689 H 0.36397 0.15837 0.78697 0.0
H1690 H 0.3116 0.18243 0.8056 0.0
H1691 H 0.23701 0.10806 0.83596 0.0
H1692 H 0.08277 0.17282 0.84172 0.0
H1693 H 0.13577 0.15486 0.86467 0.0
H1694 H 0.22693 0.229 0.86432 0.0
C1695 C 0.31901 0.15948 0.81686 0.0
C1696 C 0.23504 0.13435 0.8429 0.0
C1697 C 0.34884 0.14557 0.80604 0.0
C1698 C 0.10539 0.18908 0.83917 0.0
C1699 C 0.13587 0.17859 0.85182 0.0
C1700 C 0.22878 0.20256 0.85825 0.0
C1701 C 0.29786 0.14281 0.84031 0.0
C1702 C 0.26417 0.15544 0.84783 0.0
C1703 C 0.16638 0.19718 0.84558 0.0
C1704 C 0.19959 0.18211 0.8508 0.0
H1705 H 0.34461 0.07523 0.85383 0.0
H1706 H 0.29195 0.09938 0.87212 0.0
H1707 H 0.28298 0.20589 0.86063 0.0
H1708 H 0.13462 0.26184 0.80297 0.0
H1709 H 0.18774 0.24352 0.82423 0.0
C1710 C 0.22549 0.01107 0.99621 0.0
C1711 C 0.20435 0.03819 0.99943 0.0
C1712 C 0.21243 0.97929 0.98529 0.0
C1713 C 0.13113 0.92889 0.97317 0.0
H1714 H 0.18113 0.88059 0.90548 0.0
C1715 C 0.07166 0.84474 0.86834 0.0
C1716 C 0.08941 0.81786 0.85536 0.0
C1717 C 0.08451 0.86403 0.89569 0.0
C1718 C 0.16712 0.89325 0.92499 0.0
H1719 H 0.15295 0.05312 0.99323 0.0
H1720 H 0.13059 0.99833 0.9735 0.0
H1721 H 0.20735 0.93047 0.93316 0.0
H1722 H 0.13294 0.78828 0.86185 0.0
H1723 H 0.15556 0.82199 0.90994 0.0
H1724 H 0.0902 0.8926 0.96344 0.0
C1725 C 0.15703 0.00122 0.98025 0.0
C1726 C 0.18216 0.92196 0.94083 0.0
C1727 C 0.16999 0.03282 0.99126 0.0
C1728 C 0.1186 0.80862 0.8719 0.0
C1729 C 0.1317 0.82814 0.89907 0.0
C1730 C 0.11601 0.9003 0.95716 0.0
C1731 C 0.17799 0.97398 0.97727 0.0
C1732 C 0.16396 0.94076 0.9643 0.0
C1733 C 0.11563 0.85701 0.91013 0.0
C1734 C 0.13351 0.88277 0.93217 0.0
H1735 H 0.25202 0.01424 0.00256 0.0
H1736 H 0.22925 0.95881 0.98345 0.0
H1737 H 0.11668 0.94231 0.99176 0.0
H1738 H 0.04942 0.85257 0.8555 0.0
H1739 H 0.07167 0.88625 0.90339 0.0
C1740 C 0.70149 0.41945 0.74145 0.0
C1741 C 0.67636 0.43059 0.76325 0.0
C1742 C 0.7243 0.39661 0.75238 0.0
C1743 C 0.76606 0.36544 0.82552 0.0
H1744 H 0.78788 0.2946 0.76189 0.0
C1745 C 0.87416 0.26618 0.78495 0.0
C1746 C 0.90185 0.28945 0.78856 0.0
C1747 C 0.8421 0.27471 0.79571 0.0
C1748 C 0.78182 0.31355 0.78059 0.0
H1749 H 0.65557 0.42678 0.81376 0.0
H1750 H 0.69573 0.38648 0.83285 0.0
H1751 H 0.73921 0.32709 0.75198 0.0
H1752 H 0.91882 0.33795 0.80965 0.0
H1753 H 0.86312 0.35335 0.8276 0.0
H1754 H 0.80934 0.35249 0.85371 0.0
C1755 C 0.69766 0.39565 0.80736 0.0
C1756 C 0.75407 0.33253 0.77453 0.0
C1757 C 0.6748 0.41873 0.79644 0.0
C1758 C 0.89787 0.31947 0.80693 0.0
C1759 C 0.86574 0.32829 0.81714 0.0
C1760 C 0.79398 0.34639 0.83165 0.0
C1761 C 0.72236 0.38408 0.78523 0.0
C1762 C 0.74693 0.35971 0.79598 0.0
C1763 C 0.83714 0.30702 0.80935 0.0
C1764 C 0.80313 0.32121 0.80838 0.0
H1765 H 0.70351 0.42829 0.71584 0.0
H1766 H 0.74383 0.38901 0.73519 0.0
H1767 H 0.76086 0.38606 0.84268 0.0
H1768 H 0.87669 0.2429 0.77075 0.0
H1769 H 0.82081 0.25723 0.79036 0.0
C1770 C 0.70008 0.49911 0.05934 0.0
C1771 C 0.72554 0.49088 0.08182 0.0
C1772 C 0.67922 0.52535 0.06707 0.0
C1773 C 0.67401 0.60179 0.12057 0.0
H1774 H 0.57739 0.58754 0.10743 0.0
C1775 C 0.58668 0.70394 0.16132 0.0
C1776 C 0.5607 0.69236 0.18297 0.0
C1777 C 0.60352 0.68131 0.14086 0.0
C1778 C 0.60432 0.59195 0.11108 0.0
H1779 H 0.74941 0.50392 0.12979 0.0
H1780 H 0.71277 0.54954 0.14353 0.0
H1781 H 0.61489 0.54378 0.08972 0.0
H1782 H 0.52987 0.64862 0.19794 0.0
H1783 H 0.55919 0.60903 0.16226 0.0
H1784 H 0.66353 0.64928 0.14312 0.0
C1785 C 0.70913 0.53592 0.11975 0.0
C1786 C 0.62582 0.567 0.10076 0.0
C1787 C 0.72996 0.50963 0.11203 0.0
C1788 C 0.54962 0.65826 0.18129 0.0
C1789 C 0.56654 0.63557 0.16089 0.0
C1790 C 0.65258 0.62674 0.13077 0.0
C1791 C 0.68345 0.544 0.09738 0.0
C1792 C 0.66084 0.57141 0.106 0.0
C1793 C 0.59475 0.64665 0.14175 0.0
C1794 C 0.61742 0.6219 0.12668 0.0
H1795 H 0.69608 0.48515 0.0358 0.0
H1796 H 0.6599 0.53119 0.04919 0.0
H1797 H 0.70091 0.60612 0.12453 0.0
H1798 H 0.59548 0.7302 0.16195 0.0
H1799 H 0.62464 0.69072 0.12578 0.0
C1800 C 0.32229 0.015 0.74233 0.0
C1801 C 0.35057 0.00318 0.72538 0.0
C1802 C 0.29041 0.99893 0.73777 0.0
C1803 C 0.24161 0.93449 0.68457 0.0
H1804 H 0.18716 0.92552 0.76536 0.0
C1805 C 0.14092 0.82892 0.72024 0.0
C1806 C 0.11191 0.83993 0.73654 0.0
C1807 C 0.16572 0.85239 0.70879 0.0
C1808 C 0.20185 0.92829 0.74242 0.0
H1809 H 0.36733 0.96562 0.68962 0.0
H1810 H 0.31198 0.93667 0.68267 0.0
H1811 H 0.23982 0.9596 0.76732 0.0
H1812 H 0.08389 0.88356 0.74949 0.0
H1813 H 0.12736 0.92444 0.72993 0.0
H1814 H 0.20381 0.90154 0.66032 0.0
C1815 C 0.31418 0.95892 0.69889 0.0
C1816 C 0.23206 0.94793 0.74346 0.0
C1817 C 0.34605 0.97537 0.70305 0.0
C1818 C 0.10612 0.87447 0.73716 0.0
C1819 C 0.131 0.89785 0.72614 0.0
C1820 C 0.21145 0.91449 0.6836 0.0
C1821 C 0.28599 0.97018 0.71661 0.0
C1822 C 0.25262 0.95103 0.71463 0.0
C1823 C 0.16177 0.88702 0.7137 0.0
C1824 C 0.19157 0.91095 0.71267 0.0
H1825 H 0.32477 0.03672 0.75927 0.0
H1826 H 0.26924 0.00894 0.75115 0.0
H1827 H 0.25647 0.93676 0.6619 0.0
H1828 H 0.14616 0.80249 0.7197 0.0
H1829 H 0.18934 0.84349 0.69935 0.0
C1830 C 0.15054 0.11138 0.18782 0.0
C1831 C 0.14094 0.09486 0.2176 0.0
C1832 C 0.17978 0.13251 0.18692 0.0
C1833 C 0.24269 0.17997 0.24109 0.0
H1834 H 0.30328 0.16508 0.16613 0.0
C1835 C 0.39333 0.18907 0.21552 0.0
C1836 C 0.40189 0.21662 0.23695 0.0
C1837 C 0.35974 0.18177 0.20631 0.0
C1838 C 0.28676 0.16967 0.18728 0.0
H1839 H 0.15384 0.08846 0.2701 0.0
H1840 H 0.20473 0.12568 0.26863 0.0
H1841 H 0.24736 0.13711 0.16604 0.0
H1842 H 0.38315 0.25988 0.26331 0.0
H1843 H 0.32463 0.24866 0.24535 0.0
H1844 H 0.28258 0.21072 0.26349 0.0
C1845 C 0.18965 0.12229 0.24596 0.0
C1846 C 0.25445 0.15389 0.18701 0.0
C1847 C 0.16064 0.10075 0.24675 0.0
C1848 C 0.37701 0.23865 0.24644 0.0
C1849 C 0.34345 0.23179 0.23665 0.0
C1850 C 0.27505 0.19567 0.24145 0.0
C1851 C 0.19982 0.13802 0.21588 0.0
C1852 C 0.23235 0.15821 0.21429 0.0
C1853 C 0.33407 0.20217 0.21808 0.0
C1854 C 0.2979 0.19009 0.2149 0.0
H1855 H 0.13594 0.10734 0.16489 0.0
H1856 H 0.18676 0.14435 0.16347 0.0
H1857 H 0.22613 0.18403 0.26236 0.0
H1858 H 0.41209 0.17141 0.20852 0.0
H1859 H 0.35382 0.15856 0.19232 0.0
loop_
_geom_bond_atom_site_label_1
_geom_bond_atom_site_label_2
_geom_bond_distance
_geom_bond_site_symmetry_2
_ccdc_geom_bond_type
Co0 O1 2.216 . S
Co0 O2 2.091 . S
Co0 O4 2.004 1_455 S
Co0 O10 2.021 1_455 S
Co0 O12 2.137 . S
Co0 O13 2.244 . S
O1 Co0 2.216 . S
O1 C8 1.247 . S
O2 Co0 2.091 . S
O2 C8 1.261 . S
C3 O12 1.247 . S
C3 O13 1.272 . S
O4 Co0 2.004 1_655 S
O4 C9 1.259 . S
Co5 O6 2.061 1_455 S
Co5 O11 2.051 1_455 S
Co5 O13 2.135 . S
O6 Co5 2.061 1_655 S
O6 C9 1.235 . S
C7 O10 1.238 . S
C7 O11 1.243 . S
C8 O1 1.247 . S
C8 O2 1.261 . S
C9 O4 1.259 . S
C9 O6 1.235 . S
O10 Co0 2.021 1_655 S
O10 C7 1.238 . S
O11 Co5 2.051 1_655 S
O11 C7 1.243 . S
O12 Co0 2.137 . S
O12 C3 1.247 . S
O13 Co0 2.244 . S
O13 C3 1.272 . S
O13 Co5 2.135 . S
Co14 O15 2.216 . S
Co14 O16 2.091 1_455 S
Co14 O18 2.004 1_455 S
Co14 O24 2.021 1_455 S
Co14 O26 2.137 . S
Co14 O27 2.244 . S
O15 Co14 2.216 . S
O15 C22 1.247 . S
O16 Co14 2.091 1_655 S
O16 C22 1.263 1_655 S
C17 O26 1.247 . S
C17 O27 1.272 . S
O18 Co14 2.004 1_655 S
O18 C23 1.259 . S
Co19 O20 2.061 1_455 S
Co19 O25 2.052 1_455 S
Co19 O27 2.135 . S
O20 Co19 2.061 1_655 S
O20 C23 1.235 . S
C21 O24 1.238 . S
C21 O25 1.241 . S
C22 O15 1.247 . S
C22 O16 1.263 1_455 S
C23 O18 1.259 . S
C23 O20 1.235 . S
O24 Co14 2.021 1_655 S
O24 C21 1.238 . S
O25 Co19 2.052 1_655 S
O25 C21 1.241 . S
O26 Co14 2.137 . S
O26 C17 1.247 . S
O27 Co14 2.244 . S
O27 C17 1.272 . S
O27 Co19 2.135 . S
Co28 O29 2.216 . S
Co28 O30 2.091 . S
Co28 O32 2.004 . S
Co28 O38 2.021 . S
Co28 O40 2.137 . S
Co28 O41 2.244 . S
O29 Co28 2.216 . S
O29 C36 1.247 . S
O30 Co28 2.091 . S
O30 C36 1.261 . S
C31 O40 1.247 . S
C31 O41 1.272 . S
O32 Co28 2.004 . S
O32 C37 1.259 . S
Co33 O34 2.061 . S
Co33 O39 2.052 . S
Co33 O41 2.135 . S
O34 Co33 2.061 . S
O34 C37 1.235 . S
C35 O38 1.238 . S
C35 O39 1.241 . S
C36 O29 1.247 . S
C36 O30 1.261 . S
C37 O32 1.259 . S
C37 O34 1.235 . S
O38 Co28 2.021 . S
O38 C35 1.238 . S
O39 Co33 2.052 . S
O39 C35 1.241 . S
O40 Co28 2.137 . S
O40 C31 1.247 . S
O41 Co28 2.244 . S
O41 C31 1.272 . S
O41 Co33 2.135 . S
Co42 O43 2.216 . S
Co42 O44 2.091 . S
Co42 O46 2.004 . S
Co42 O52 2.021 . S
Co42 O54 2.137 . S
Co42 O55 2.244 . S
O43 Co42 2.216 . S
O43 C50 1.247 . S
O44 Co42 2.091 . S
O44 C50 1.261 . S
C45 O54 1.247 . S
C45 O55 1.272 . S
O46 Co42 2.004 . S
O46 C51 1.259 . S
Co47 O48 2.061 . S
Co47 O53 2.052 . S
Co47 O55 2.135 . S
O48 Co47 2.061 . S
O48 C51 1.235 . S
C49 O52 1.238 . S
C49 O53 1.241 . S
C50 O43 1.247 . S
C50 O44 1.261 . S
C51 O46 1.259 . S
C51 O48 1.235 . S
O52 Co42 2.021 . S
O52 C49 1.238 . S
O53 Co47 2.052 . S
O53 C49 1.241 . S
O54 Co42 2.137 . S
O54 C45 1.247 . S
O55 Co42 2.244 . S
O55 C45 1.272 . S
O55 Co47 2.135 . S
Co56 O57 2.216 . S
Co56 O58 2.091 . S
Co56 O60 2.004 1_565 S
Co56 O66 2.021 1_565 S
Co56 O68 2.137 . S
Co56 O69 2.244 1_565 S
O57 Co56 2.216 . S
O57 C64 1.247 . S
O58 Co56 2.091 . S
O58 C64 1.261 . S
C59 O68 1.247 . S
C59 O69 1.272 1_565 S
O60 Co56 2.004 1_545 S
O60 C65 1.259 . S
Co61 O62 2.061 . S
Co61 O67 2.052 . S
Co61 O69 2.135 . S
O62 Co61 2.061 . S
O62 C65 1.235 . S
C63 O66 1.238 . S
C63 O67 1.241 . S
C64 O57 1.247 . S
C64 O58 1.261 . S
C65 O60 1.259 . S
C65 O62 1.235 . S
O66 Co56 2.021 1_545 S
O66 C63 1.238 . S
O67 Co61 2.052 . S
O67 C63 1.241 . S
O68 Co56 2.137 . S
O68 C59 1.247 . S
O69 Co56 2.244 1_545 S
O69 C59 1.272 1_545 S
O69 Co61 2.135 . S
Co70 O71 2.216 . S
Co70 O72 2.091 . S
Co70 O74 2.004 . S
Co70 O80 2.021 . S
Co70 O82 2.137 . S
Co70 O83 2.244 . S
O71 Co70 2.216 . S
O71 C78 1.247 . S
O72 Co70 2.091 . S
O72 C78 1.261 . S
C73 O82 1.247 . S
C73 O83 1.272 . S
O74 Co70 2.004 . S
O74 C79 1.259 . S
Co75 O76 2.061 . S
Co75 O81 2.052 . S
Co75 O83 2.135 . S
O76 Co75 2.061 . S
O76 C79 1.235 . S
C77 O80 1.238 . S
C77 O81 1.241 . S
C78 O71 1.247 . S
C78 O72 1.261 . S
C79 O74 1.259 . S
C79 O76 1.235 . S
O80 Co70 2.021 . S
O80 C77 1.238 . S
O81 Co75 2.052 . S
O81 C77 1.241 . S
O82 Co70 2.137 . S
O82 C73 1.247 . S
O83 Co70 2.244 . S
O83 C73 1.272 . S
O83 Co75 2.135 . S
Co84 O85 2.216 . S
Co84 O86 2.091 . S
Co84 O88 2.004 . S
Co84 O94 2.021 . S
Co84 O96 2.137 . S
Co84 O97 2.244 . S
O85 Co84 2.216 . S
O85 C92 1.247 . S
O86 Co84 2.091 . S
O86 C92 1.261 . S
C87 O96 1.247 . S
C87 O97 1.272 . S
O88 Co84 2.004 . S
O88 C93 1.259 . S
Co89 O90 2.061 . S
Co89 O95 2.052 . S
Co89 O97 2.135 1_565 S
O90 Co89 2.061 . S
O90 C93 1.235 1_565 S
C91 O94 1.238 1_565 S
C91 O95 1.241 . S
C92 O85 1.247 . S
C92 O86 1.261 . S
C93 O88 1.259 . S
C93 O90 1.235 1_545 S
O94 Co84 2.021 . S
O94 C91 1.238 1_545 S
O95 Co89 2.052 . S
O95 C91 1.241 . S
O96 Co84 2.137 . S
O96 C87 1.247 . S
O97 Co84 2.244 . S
O97 C87 1.272 . S
O97 Co89 2.135 1_545 S
Co98 O99 2.216 . S
Co98 O100 2.091 1_554 S
Co98 O102 2.004 1_554 S
Co98 O108 2.021 1_554 S
Co98 O110 2.137 . S
Co98 O111 2.244 . S
O99 Co98 2.216 . S
O99 C106 1.247 . S
O100 Co98 2.091 1_556 S
O100 C106 1.261 1_556 S
C101 O110 1.247 . S
C101 O111 1.272 . S
O102 Co98 2.004 1_556 S
O102 C107 1.259 . S
Co103 O104 2.061 1_554 S
Co103 O109 2.052 1_554 S
Co103 O111 2.135 . S
O104 Co103 2.061 1_556 S
O104 C107 1.235 . S
C105 O108 1.238 . S
C105 O109 1.241 . S
C106 O99 1.247 . S
C106 O100 1.261 1_554 S
C107 O102 1.259 . S
C107 O104 1.235 . S
O108 Co98 2.021 1_556 S
O108 C105 1.238 . S
O109 Co103 2.052 1_556 S
O109 C105 1.241 . S
O110 Co98 2.137 . S
O110 C101 1.247 . S
O111 Co98 2.244 . S
O111 C101 1.272 . S
O111 Co103 2.135 . S
Co112 O113 2.216 . S
Co112 O114 2.091 . S
Co112 O116 2.004 1_554 S
Co112 O122 2.021 1_554 S
Co112 O124 2.137 . S
Co112 O125 2.244 . S
O113 Co112 2.216 . S
O113 C120 1.247 . S
O114 Co112 2.091 . S
O114 C120 1.261 . S
C115 O124 1.247 . S
C115 O125 1.272 . S
O116 Co112 2.004 1_556 S
O116 C121 1.259 . S
Co117 O118 2.061 1_554 S
Co117 O123 2.052 . S
Co117 O125 2.135 . S
O118 Co117 2.061 1_556 S
O118 C121 1.235 . S
C119 O122 1.238 . S
C119 O123 1.241 1_556 S
C120 O113 1.247 . S
C120 O114 1.261 . S
C121 O116 1.259 . S
C121 O118 1.235 . S
O122 Co112 2.021 1_556 S
O122 C119 1.238 . S
O123 Co117 2.052 . S
O123 C119 1.241 1_554 S
O124 Co112 2.137 . S
O124 C115 1.247 . S
O125 Co112 2.244 . S
O125 C115 1.272 . S
O125 Co117 2.135 . S
Co126 O127 2.216 . S
Co126 O128 2.091 . S
Co126 O130 2.004 . S
Co126 O136 2.021 . S
Co126 O138 2.137 . S
Co126 O139 2.244 . S
O127 Co126 2.216 . S
O127 C134 1.247 . S
O128 Co126 2.091 . S
O128 C134 1.261 . S
C129 O138 1.247 . S
C129 O139 1.272 . S
O130 Co126 2.004 . S
O130 C135 1.259 . S
Co131 O132 2.061 . S
Co131 O137 2.052 . S
Co131 O139 2.135 . S
O132 Co131 2.061 . S
O132 C135 1.235 . S
C133 O136 1.238 . S
C133 O137 1.241 . S
C134 O127 1.247 . S
C134 O128 1.261 . S
C135 O130 1.259 . S
C135 O132 1.235 . S
O136 Co126 2.021 . S
O136 C133 1.238 . S
O137 Co131 2.052 . S
O137 C133 1.241 . S
O138 Co126 2.137 . S
O138 C129 1.247 . S
O139 Co126 2.244 . S
O139 C129 1.272 . S
O139 Co131 2.135 . S
Co140 O141 2.216 . S
Co140 O142 2.091 . S
Co140 O144 2.004 . S
Co140 O150 2.021 . S
Co140 O152 2.137 . S
Co140 O153 2.244 . S
O141 Co140 2.216 . S
O141 C148 1.247 . S
O142 Co140 2.091 . S
O142 C148 1.261 . S
C143 O152 1.247 . S
C143 O153 1.272 . S
O144 Co140 2.004 . S
O144 C149 1.259 . S
Co145 O146 2.061 . S
Co145 O151 2.052 . S
Co145 O153 2.135 . S
O146 Co145 2.061 . S
O146 C149 1.235 . S
C147 O150 1.238 . S
C147 O151 1.241 . S
C148 O141 1.247 . S
C148 O142 1.261 . S
C149 O144 1.259 . S
C149 O146 1.235 . S
O150 Co140 2.021 . S
O150 C147 1.238 . S
O151 Co145 2.052 . S
O151 C147 1.241 . S
O152 Co140 2.137 . S
O152 C143 1.247 . S
O153 Co140 2.244 . S
O153 C143 1.272 . S
O153 Co145 2.135 . S
Co154 O155 2.216 . S
Co154 O156 2.091 . S
Co154 O158 2.004 . S
Co154 O164 2.021 . S
Co154 O166 2.137 . S
Co154 O167 2.244 . S
O155 Co154 2.216 . S
O155 C162 1.247 . S
O156 Co154 2.091 . S
O156 C162 1.261 . S
C157 O166 1.247 . S
C157 O167 1.272 . S
O158 Co154 2.004 . S
O158 C163 1.259 . S
Co159 O160 2.061 . S
Co159 O165 2.052 . S
Co159 O167 2.135 . S
O160 Co159 2.061 . S
O160 C163 1.235 . S
C161 O164 1.238 . S
C161 O165 1.241 . S
C162 O155 1.247 . S
C162 O156 1.261 . S
C163 O158 1.259 . S
C163 O160 1.235 . S
O164 Co154 2.021 . S
O164 C161 1.238 . S
O165 Co159 2.052 . S
O165 C161 1.241 . S
O166 Co154 2.137 . S
O166 C157 1.247 . S
O167 Co154 2.244 . S
O167 C157 1.272 . S
O167 Co159 2.135 . S
H168 C176 0.930 . S
H169 C179 0.930 . S
H170 C181 0.930 . S
H171 C182 0.970 . S
H172 C182 0.970 . S
H173 C184 0.930 1_455 S
H174 C186 0.930 . S
H175 C188 0.930 1_455 S
C176 H168 0.930 . S
C176 C177 1.382 . S
C176 C178 1.426 . S
C177 C176 1.382 . S
C177 C181 1.389 . S
C178 C176 1.426 . S
C178 C179 1.375 . S
C178 C182 1.532 . S
C179 H169 0.930 . S
C179 C178 1.375 . S
C179 C180 1.416 . S
C180 C179 1.416 . S
C180 C181 1.371 . S
C181 H170 0.930 . S
C181 C177 1.389 . S
C181 C180 1.371 . S
C182 H171 0.970 . S
C182 H172 0.970 . S
C182 C178 1.532 . S
C182 C183 1.499 . S
C183 C182 1.499 . S
C183 C184 1.370 1_455 S
C183 C188 1.415 1_455 S
C184 H173 0.930 1_655 S
C184 C183 1.370 1_655 S
C184 C185 1.407 . S
C185 C184 1.407 . S
C185 C186 1.365 . S
C186 H174 0.930 . S
C186 C185 1.365 . S
C186 C187 1.393 . S
C187 C186 1.393 . S
C187 C188 1.387 . S
C188 H175 0.930 1_655 S
C188 C183 1.415 1_655 S
C188 C187 1.387 . S
H189 C197 0.930 . S
H190 C200 0.930 . S
H191 C202 0.930 . S
H192 C203 0.970 . S
H193 C203 0.970 . S
H194 C205 0.930 1_455 S
H195 C207 0.930 . S
H196 C209 0.914 1_455 S
C197 H189 0.930 . S
C197 C198 1.382 . S
C197 C199 1.426 . S
C198 C197 1.382 . S
C198 C202 1.389 . S
C199 C197 1.426 . S
C199 C200 1.375 . S
C199 C203 1.532 . S
C200 H190 0.930 . S
C200 C199 1.375 . S
C200 C201 1.416 . S
C201 C200 1.416 . S
C201 C202 1.371 . S
C202 H191 0.930 . S
C202 C198 1.389 . S
C202 C201 1.371 . S
C203 H192 0.970 . S
C203 H193 0.970 . S
C203 C199 1.532 . S
C203 C204 1.499 . S
C204 C203 1.499 . S
C204 C205 1.370 1_455 S
C204 C209 1.403 1_455 S
C205 H194 0.930 1_655 S
C205 C204 1.370 1_655 S
C205 C206 1.407 . S
C206 C205 1.407 . S
C206 C207 1.365 . S
C207 H195 0.930 . S
C207 C206 1.365 . S
C207 C208 1.393 . S
C208 C207 1.393 . S
C208 C209 1.416 . S
C209 H196 0.914 1_655 S
C209 C204 1.403 1_655 S
C209 C208 1.416 . S
H210 C218 0.930 . S
H211 C221 0.930 . S
H212 C223 0.930 . S
H213 C224 0.970 . S
H214 C224 0.970 . S
H215 C226 0.930 . S
H216 C228 0.930 . S
H217 C230 0.930 . S
C218 H210 0.930 . S
C218 C219 1.382 . S
C218 C220 1.426 . S
C219 C218 1.382 . S
C219 C223 1.389 . S
C220 C218 1.426 . S
C220 C221 1.375 . S
C220 C224 1.532 . S
C221 H211 0.930 . S
C221 C220 1.375 . S
C221 C222 1.416 . S
C222 C221 1.416 . S
C222 C223 1.371 . S
C223 H212 0.930 . S
C223 C219 1.389 . S
C223 C222 1.371 . S
C224 H213 0.970 . S
C224 H214 0.970 . S
C224 C220 1.532 . S
C224 C225 1.499 . S
C225 C224 1.499 . S
C225 C226 1.370 . S
C225 C230 1.415 . S
C226 H215 0.930 . S
C226 C225 1.370 . S
C226 C227 1.407 . S
C227 C226 1.407 . S
C227 C228 1.365 . S
C228 H216 0.930 . S
C228 C227 1.365 . S
C228 C229 1.393 . S
C229 C228 1.393 . S
C229 C230 1.387 . S
C230 H217 0.930 . S
C230 C225 1.415 . S
C230 C229 1.387 . S
H231 C239 0.930 . S
H232 C242 0.930 . S
H233 C244 0.930 . S
H234 C245 0.970 . S
H235 C245 0.970 . S
H236 C247 0.930 . S
H237 C249 0.930 . S
H238 C251 0.930 . S
C239 H231 0.930 . S
C239 C240 1.382 . S
C239 C241 1.426 . S
C240 C239 1.382 . S
C240 C244 1.389 . S
C241 C239 1.426 . S
C241 C242 1.375 . S
C241 C245 1.532 . S
C242 H232 0.930 . S
C242 C241 1.375 . S
C242 C243 1.416 . S
C243 C242 1.416 . S
C243 C244 1.371 . S
C244 H233 0.930 . S
C244 C240 1.389 . S
C244 C243 1.371 . S
C245 H234 0.970 . S
C245 H235 0.970 . S
C245 C241 1.532 . S
C245 C246 1.499 . S
C246 C245 1.499 . S
C246 C247 1.370 . S
C246 C251 1.415 . S
C247 H236 0.930 . S
C247 C246 1.370 . S
C247 C248 1.407 . S
C248 C247 1.407 . S
C248 C249 1.365 . S
C249 H237 0.930 . S
C249 C248 1.365 . S
C249 C250 1.393 . S
C250 C249 1.393 . S
C250 C251 1.387 . S
C251 H238 0.930 . S
C251 C246 1.415 . S
C251 C250 1.387 . S
H252 C260 0.930 . S
H253 C263 0.930 . S
H254 C265 0.930 . S
H255 C266 0.970 . S
H256 C266 0.970 . S
H257 C268 0.930 . S
H258 C270 0.930 . S
H259 C272 0.930 . S
C260 H252 0.930 . S
C260 C261 1.382 . S
C260 C262 1.426 . S
C261 C260 1.382 . S
C261 C265 1.389 . S
C262 C260 1.426 . S
C262 C263 1.375 . S
C262 C266 1.532 1_545 S
C263 H253 0.930 . S
C263 C262 1.375 . S
C263 C264 1.416 . S
C264 C263 1.416 . S
C264 C265 1.371 . S
C265 H254 0.930 . S
C265 C261 1.389 . S
C265 C264 1.371 . S
C266 H255 0.970 . S
C266 H256 0.970 . S
C266 C262 1.532 1_565 S
C266 C267 1.499 . S
C267 C266 1.499 . S
C267 C268 1.370 . S
C267 C272 1.415 . S
C268 H257 0.930 . S
C268 C267 1.370 . S
C268 C269 1.407 . S
C269 C268 1.407 . S
C269 C270 1.365 . S
C270 H258 0.930 . S
C270 C269 1.365 . S
C270 C271 1.393 . S
C271 C270 1.393 . S
C271 C272 1.387 . S
C272 H259 0.930 . S
C272 C267 1.415 . S
C272 C271 1.387 . S
H273 C281 0.930 . S
H274 C284 0.930 . S
H275 C286 0.930 . S
H276 C287 0.970 . S
H277 C287 0.970 . S
H278 C289 0.930 . S
H279 C291 0.930 . S
H280 C293 0.930 . S
C281 H273 0.930 . S
C281 C282 1.382 . S
C281 C283 1.426 . S
C282 C281 1.382 . S
C282 C286 1.389 . S
C283 C281 1.426 . S
C283 C284 1.375 . S
C283 C287 1.532 . S
C284 H274 0.930 . S
C284 C283 1.375 . S
C284 C285 1.416 . S
C285 C284 1.416 . S
C285 C286 1.371 . S
C286 H275 0.930 . S
C286 C282 1.389 . S
C286 C285 1.371 . S
C287 H276 0.970 . S
C287 H277 0.970 . S
C287 C283 1.532 . S
C287 C288 1.499 . S
C288 C287 1.499 . S
C288 C289 1.370 . S
C288 C293 1.415 . S
C289 H278 0.930 . S
C289 C288 1.370 . S
C289 C290 1.407 . S
C290 C289 1.407 . S
C290 C291 1.365 . S
C291 H279 0.930 . S
C291 C290 1.365 . S
C291 C292 1.393 . S
C292 C291 1.393 . S
C292 C293 1.387 . S
C293 H280 0.930 . S
C293 C288 1.415 . S
C293 C292 1.387 . S
H294 C302 0.930 . S
H295 C305 0.930 . S
H296 C307 0.930 . S
H297 C308 0.970 . S
H298 C308 0.970 . S
H299 C310 0.930 . S
H300 C312 0.930 . S
H301 C314 0.930 . S
C302 H294 0.930 . S
C302 C303 1.382 . S
C302 C304 1.426 1_565 S
C303 C302 1.382 . S
C303 C307 1.389 . S
C304 C302 1.426 1_545 S
C304 C305 1.375 1_545 S
C304 C308 1.532 . S
C305 H295 0.930 . S
C305 C304 1.375 1_565 S
C305 C306 1.416 . S
C306 C305 1.416 . S
C306 C307 1.371 . S
C307 H296 0.930 . S
C307 C303 1.389 . S
C307 C306 1.371 . S
C308 H297 0.970 . S
C308 H298 0.970 . S
C308 C304 1.532 . S
C308 C309 1.499 . S
C309 C308 1.499 . S
C309 C310 1.370 . S
C309 C314 1.415 . S
C310 H299 0.930 . S
C310 C309 1.370 . S
C310 C311 1.407 . S
C311 C310 1.407 . S
C311 C312 1.365 . S
C312 H300 0.930 . S
C312 C311 1.365 . S
C312 C313 1.393 . S
C313 C312 1.393 . S
C313 C314 1.387 . S
C314 H301 0.930 . S
C314 C309 1.415 . S
C314 C313 1.387 . S
H315 C323 0.930 . S
H316 C326 0.930 . S
H317 C328 0.930 . S
H318 C329 0.970 . S
H319 C329 0.970 . S
H320 C331 0.930 . S
H321 C333 0.930 . S
H322 C335 0.930 . S
C323 H315 0.930 . S
C323 C324 1.382 . S
C323 C325 1.426 . S
C324 C323 1.382 . S
C324 C328 1.389 . S
C325 C323 1.426 . S
C325 C326 1.375 . S
C325 C329 1.532 . S
C326 H316 0.930 . S
C326 C325 1.375 . S
C326 C327 1.416 . S
C327 C326 1.416 . S
C327 C328 1.371 . S
C328 H317 0.930 . S
C328 C324 1.389 . S
C328 C327 1.371 . S
C329 H318 0.970 . S
C329 H319 0.970 . S
C329 C325 1.532 . S
C329 C330 1.499 . S
C330 C329 1.499 . S
C330 C331 1.370 . S
C330 C335 1.415 . S
C331 H320 0.930 . S
C331 C330 1.370 . S
C331 C332 1.407 1_554 S
C332 C331 1.407 1_556 S
C332 C333 1.365 . S
C333 H321 0.930 . S
C333 C332 1.365 . S
C333 C334 1.393 . S
C334 C333 1.393 . S
C334 C335 1.387 1_556 S
C335 H322 0.930 . S
C335 C330 1.415 . S
C335 C334 1.387 1_554 S
H336 C344 0.930 . S
H337 C347 0.930 . S
H338 C349 0.930 . S
H339 C350 0.970 . S
H340 C350 0.970 . S
H341 C352 0.930 . S
H342 C354 0.930 . S
H343 C356 0.930 . S
C344 H336 0.930 . S
C344 C345 1.382 . S
C344 C346 1.426 . S
C345 C344 1.382 . S
C345 C349 1.389 . S
C346 C344 1.426 . S
C346 C347 1.375 . S
C346 C350 1.532 . S
C347 H337 0.930 . S
C347 C346 1.375 . S
C347 C348 1.416 . S
C348 C347 1.416 . S
C348 C349 1.371 . S
C349 H338 0.930 . S
C349 C345 1.389 . S
C349 C348 1.371 . S
C350 H339 0.970 . S
C350 H340 0.970 . S
C350 C346 1.532 . S
C350 C351 1.499 . S
C351 C350 1.499 . S
C351 C352 1.370 . S
C351 C356 1.415 . S
C352 H341 0.930 . S
C352 C351 1.370 . S
C352 C353 1.407 1_554 S
C353 C352 1.407 1_556 S
C353 C354 1.365 . S
C354 H342 0.930 . S
C354 C353 1.365 . S
C354 C355 1.393 . S
C355 C354 1.393 . S
C355 C356 1.387 1_556 S
C356 H343 0.930 . S
C356 C351 1.415 . S
C356 C355 1.387 1_554 S
H357 C365 0.930 . S
H358 C368 0.930 . S
H359 C370 0.930 . S
H360 C371 0.970 . S
H361 C371 0.970 . S
H362 C373 0.930 . S
H363 C375 0.930 . S
H364 C377 0.930 . S
C365 H357 0.930 . S
C365 C366 1.382 . S
C365 C367 1.426 . S
C366 C365 1.382 . S
C366 C370 1.389 . S
C367 C365 1.426 . S
C367 C368 1.375 . S
C367 C371 1.532 . S
C368 H358 0.930 . S
C368 C367 1.375 . S
C368 C369 1.416 . S
C369 C368 1.416 . S
C369 C370 1.371 . S
C370 H359 0.930 . S
C370 C366 1.389 . S
C370 C369 1.371 . S
C371 H360 0.970 . S
C371 H361 0.970 . S
C371 C367 1.532 . S
C371 C372 1.499 . S
C372 C371 1.499 . S
C372 C373 1.370 . S
C372 C377 1.415 . S
C373 H362 0.930 . S
C373 C372 1.370 . S
C373 C374 1.407 . S
C374 C373 1.407 . S
C374 C375 1.365 . S
C375 H363 0.930 . S
C375 C374 1.365 . S
C375 C376 1.393 . S
C376 C375 1.393 . S
C376 C377 1.387 . S
C377 H364 0.930 . S
C377 C372 1.415 . S
C377 C376 1.387 . S
H378 C386 0.930 . S
H379 C389 0.930 . S
H380 C391 0.930 . S
H381 C392 0.970 . S
H382 C392 0.970 . S
H383 C394 0.930 . S
H384 C396 0.930 . S
H385 C398 0.930 . S
C386 H378 0.930 . S
C386 C387 1.382 . S
C386 C388 1.426 . S
C387 C386 1.382 . S
C387 C391 1.389 . S
C388 C386 1.426 . S
C388 C389 1.375 . S
C388 C392 1.532 . S
C389 H379 0.930 . S
C389 C388 1.375 . S
C389 C390 1.416 . S
C390 C389 1.416 . S
C390 C391 1.371 . S
C391 H380 0.930 . S
C391 C387 1.389 . S
C391 C390 1.371 . S
C392 H381 0.970 . S
C392 H382 0.970 . S
C392 C388 1.532 . S
C392 C393 1.499 . S
C393 C392 1.499 . S
C393 C394 1.370 . S
C393 C398 1.415 . S
C394 H383 0.930 . S
C394 C393 1.370 . S
C394 C395 1.407 . S
C395 C394 1.407 . S
C395 C396 1.365 . S
C396 H384 0.930 . S
C396 C395 1.365 . S
C396 C397 1.393 . S
C397 C396 1.393 . S
C397 C398 1.387 . S
C398 H385 0.930 . S
C398 C393 1.415 . S
C398 C397 1.387 . S
H399 C407 0.930 . S
H400 C410 0.930 . S
H401 C412 0.930 . S
H402 C413 0.970 . S
H403 C413 0.970 . S
H404 C415 0.930 . S
H405 C417 0.930 . S
H406 C419 0.930 . S
C407 H399 0.930 . S
C407 C408 1.382 . S
C407 C409 1.426 . S
C408 C407 1.382 . S
C408 C412 1.389 . S
C409 C407 1.426 . S
C409 C410 1.375 . S
C409 C413 1.532 . S
C410 H400 0.930 . S
C410 C409 1.375 . S
C410 C411 1.416 . S
C411 C410 1.416 . S
C411 C412 1.371 . S
C412 H401 0.930 . S
C412 C408 1.389 . S
C412 C411 1.371 . S
C413 H402 0.970 . S
C413 H403 0.970 . S
C413 C409 1.532 . S
C413 C414 1.499 . S
C414 C413 1.499 . S
C414 C415 1.370 . S
C414 C419 1.415 . S
C415 H404 0.930 . S
C415 C414 1.370 . S
C415 C416 1.407 . S
C416 C415 1.407 . S
C416 C417 1.365 . S
C417 H405 0.930 . S
C417 C416 1.365 . S
C417 C418 1.393 . S
C418 C417 1.393 . S
C418 C419 1.387 . S
C419 H406 0.930 . S
C419 C414 1.415 . S
C419 C418 1.387 . S
C420 C421 1.349 . S
C420 C422 1.327 . S
C420 H445 0.950 . S
C421 C420 1.349 . S
C421 C437 1.349 . S
C422 C420 1.327 . S
C422 C441 1.429 . S
C422 H446 0.950 1_554 S
C423 C440 1.574 . S
C423 C442 1.368 . S
C423 H447 0.949 1_556 S
H424 C428 0.949 . S
C425 C426 1.349 . S
C425 C427 1.327 . S
C425 H448 0.950 . S
C426 C425 1.349 . S
C426 C438 1.349 . S
C427 C425 1.327 . S
C427 C443 1.429 . S
C427 H449 0.950 . S
C428 H424 0.949 . S
C428 C436 1.574 . S
C428 C444 1.368 . S
H429 C437 0.950 . S
H430 C435 0.950 . S
H431 C436 0.949 . S
H432 C438 0.950 . S
H433 C439 0.950 . S
H434 C440 0.949 . S
C435 H430 0.950 . S
C435 C437 1.327 . S
C435 C441 1.429 . S
C436 C428 1.574 . S
C436 H431 0.949 . S
C436 C442 1.368 . S
C437 C421 1.349 . S
C437 H429 0.950 . S
C437 C435 1.327 . S
C438 C426 1.349 . S
C438 H432 0.950 . S
C438 C439 1.327 . S
C439 H433 0.950 . S
C439 C438 1.327 . S
C439 C443 1.429 . S
C440 C423 1.574 . S
C440 H434 0.949 . S
C440 C444 1.368 . S
C441 C422 1.429 . S
C441 C435 1.429 . S
C441 C442 1.523 1_554 S
C442 C423 1.368 . S
C442 C436 1.368 . S
C442 C441 1.523 1_556 S
C443 C427 1.429 . S
C443 C439 1.429 . S
C443 C444 1.523 . S
C444 C428 1.368 . S
C444 C440 1.368 . S
C444 C443 1.523 . S
H445 C420 0.950 . S
H446 C422 0.950 1_556 S
H447 C423 0.949 1_554 S
H448 C425 0.950 . S
H449 C427 0.950 . S
C450 C451 1.349 . S
C450 C452 1.327 . S
C450 H475 0.950 . S
C451 C450 1.349 . S
C451 C467 1.349 . S
C452 C450 1.327 . S
C452 C471 1.429 . S
C452 H476 0.950 . S
C453 C470 1.574 . S
C453 C472 1.368 . S
C453 H477 0.949 . S
H454 C458 0.949 . S
C455 C456 1.349 . S
C455 C457 1.327 . S
C455 H478 0.950 . S
C456 C455 1.349 . S
C456 C468 1.349 . S
C457 C455 1.327 . S
C457 C473 1.429 . S
C457 H479 0.950 . S
C458 H454 0.949 . S
C458 C466 1.574 . S
C458 C474 1.368 . S
H459 C467 0.950 . S
H460 C465 0.950 . S
H461 C466 0.949 . S
H462 C468 0.950 . S
H463 C469 0.950 . S
H464 C470 0.949 . S
C465 H460 0.950 . S
C465 C467 1.327 . S
C465 C471 1.429 . S
C466 C458 1.574 . S
C466 H461 0.949 . S
C466 C472 1.368 . S
C467 C451 1.349 . S
C467 H459 0.950 . S
C467 C465 1.327 . S
C468 C456 1.349 . S
C468 H462 0.950 . S
C468 C469 1.327 . S
C469 H463 0.950 . S
C469 C468 1.327 . S
C469 C473 1.429 . S
C470 C453 1.574 . S
C470 H464 0.949 . S
C470 C474 1.368 . S
C471 C452 1.429 . S
C471 C465 1.429 . S
C471 C472 1.523 . S
C472 C453 1.368 . S
C472 C466 1.368 . S
C472 C471 1.523 . S
C473 C457 1.429 . S
C473 C469 1.429 . S
C473 C474 1.523 . S
C474 C458 1.368 . S
C474 C470 1.368 . S
C474 C473 1.523 . S
H475 C450 0.950 . S
H476 C452 0.950 . S
H477 C453 0.949 . S
H478 C455 0.950 . S
H479 C457 0.950 . S
C480 C481 1.349 . S
C480 C482 1.327 . S
C480 H505 0.950 . S
C481 C480 1.349 . S
C481 C497 1.349 . S
C482 C480 1.327 . S
C482 C501 1.429 . S
C482 H506 0.950 . S
C483 C500 1.574 . S
C483 C502 1.368 . S
C483 H507 0.949 . S
H484 C488 0.949 . S
C485 C486 1.349 . S
C485 C487 1.327 . S
C485 H508 0.950 . S
C486 C485 1.349 . S
C486 C498 1.349 . S
C487 C485 1.327 . S
C487 C503 1.429 . S
C487 H509 0.950 . S
C488 H484 0.949 . S
C488 C496 1.574 . S
C488 C504 1.368 . S
H489 C497 0.950 . S
H490 C495 0.950 . S
H491 C496 0.949 . S
H492 C498 0.950 . S
H493 C499 0.950 . S
H494 C500 0.949 . S
C495 H490 0.950 . S
C495 C497 1.327 . S
C495 C501 1.429 . S
C496 C488 1.574 . S
C496 H491 0.949 . S
C496 C502 1.368 . S
C497 C481 1.349 . S
C497 H489 0.950 . S
C497 C495 1.327 . S
C498 C486 1.349 . S
C498 H492 0.950 . S
C498 C499 1.327 . S
C499 H493 0.950 . S
C499 C498 1.327 . S
C499 C503 1.429 . S
C500 C483 1.574 . S
C500 H494 0.949 . S
C500 C504 1.368 . S
C501 C482 1.429 . S
C501 C495 1.429 . S
C501 C502 1.523 . S
C502 C483 1.368 . S
C502 C496 1.368 . S
C502 C501 1.523 . S
C503 C487 1.429 . S
C503 C499 1.429 . S
C503 C504 1.523 . S
C504 C488 1.368 . S
C504 C500 1.368 . S
C504 C503 1.523 . S
H505 C480 0.950 . S
H506 C482 0.950 . S
H507 C483 0.949 . S
H508 C485 0.950 . S
H509 C487 0.950 . S
C510 C511 1.349 . S
C510 C512 1.327 . S
C510 H535 0.950 . S
C511 C510 1.349 . S
C511 C527 1.349 . S
C512 C510 1.327 . S
C512 C531 1.429 . S
C512 H536 0.950 . S
C513 C530 1.574 . S
C513 C532 1.368 . S
C513 H537 0.949 . S
H514 C518 0.949 . S
C515 C516 1.349 . S
C515 C517 1.327 . S
C515 H538 0.950 . S
C516 C515 1.349 . S
C516 C528 1.349 . S
C517 C515 1.327 . S
C517 C533 1.429 . S
C517 H539 0.950 . S
C518 H514 0.949 . S
C518 C526 1.574 . S
C518 C534 1.368 . S
H519 C527 0.950 . S
H520 C525 0.950 . S
H521 C526 0.949 . S
H522 C528 0.950 . S
H523 C529 0.950 . S
H524 C530 0.949 . S
C525 H520 0.950 . S
C525 C527 1.327 . S
C525 C531 1.429 . S
C526 C518 1.574 . S
C526 H521 0.949 . S
C526 C532 1.368 . S
C527 C511 1.349 . S
C527 H519 0.950 . S
C527 C525 1.327 . S
C528 C516 1.349 . S
C528 H522 0.950 . S
C528 C529 1.327 . S
C529 H523 0.950 . S
C529 C528 1.327 . S
C529 C533 1.429 . S
C530 C513 1.574 . S
C530 H524 0.949 . S
C530 C534 1.368 . S
C531 C512 1.429 . S
C531 C525 1.429 . S
C531 C532 1.523 . S
C532 C513 1.368 . S
C532 C526 1.368 . S
C532 C531 1.523 . S
C533 C517 1.429 . S
C533 C529 1.429 . S
C533 C534 1.523 . S
C534 C518 1.368 . S
C534 C530 1.368 . S
C534 C533 1.523 . S
H535 C510 0.950 . S
H536 C512 0.950 . S
H537 C513 0.949 . S
H538 C515 0.950 . S
H539 C517 0.950 . S
C540 C541 1.349 . S
C540 C542 1.327 . S
C540 H565 0.950 . S
C541 C540 1.349 . S
C541 C557 1.349 . S
C542 C540 1.327 . S
C542 C561 1.429 . S
C542 H566 0.950 . S
C543 C560 1.574 . S
C543 C562 1.368 . S
C543 H567 0.949 . S
H544 C548 0.949 . S
C545 C546 1.349 . S
C545 C547 1.327 . S
C545 H568 0.950 . S
C546 C545 1.349 . S
C546 C558 1.349 . S
C547 C545 1.327 . S
C547 C563 1.429 . S
C547 H569 0.950 . S
C548 H544 0.949 . S
C548 C556 1.574 . S
C548 C564 1.368 . S
H549 C557 0.950 . S
H550 C555 0.950 . S
H551 C556 0.949 . S
H552 C558 0.950 . S
H553 C559 0.950 . S
H554 C560 0.949 . S
C555 H550 0.950 . S
C555 C557 1.327 . S
C555 C561 1.429 . S
C556 C548 1.574 . S
C556 H551 0.949 . S
C556 C562 1.368 . S
C557 C541 1.349 . S
C557 H549 0.950 . S
C557 C555 1.327 . S
C558 C546 1.349 . S
C558 H552 0.950 . S
C558 C559 1.327 . S
C559 H553 0.950 . S
C559 C558 1.327 . S
C559 C563 1.429 . S
C560 C543 1.574 . S
C560 H554 0.949 . S
C560 C564 1.368 . S
C561 C542 1.429 . S
C561 C555 1.429 . S
C561 C562 1.523 . S
C562 C543 1.368 . S
C562 C556 1.368 . S
C562 C561 1.523 . S
C563 C547 1.429 . S
C563 C559 1.429 . S
C563 C564 1.523 . S
C564 C548 1.368 . S
C564 C560 1.368 . S
C564 C563 1.523 . S
H565 C540 0.950 . S
H566 C542 0.950 . S
H567 C543 0.949 . S
H568 C545 0.950 . S
H569 C547 0.950 . S
C570 C571 1.349 . S
C570 C572 1.327 . S
C570 H595 0.950 . S
C571 C570 1.349 . S
C571 C587 1.349 . S
C572 C570 1.327 . S
C572 C591 1.429 . S
C572 H596 0.950 . S
C573 C590 1.574 . S
C573 C592 1.368 . S
C573 H597 0.949 . S
H574 C578 0.949 . S
C575 C576 1.349 . S
C575 C577 1.327 . S
C575 H598 0.950 . S
C576 C575 1.349 . S
C576 C588 1.349 . S
C577 C575 1.327 . S
C577 C593 1.429 . S
C577 H599 0.950 . S
C578 H574 0.949 . S
C578 C586 1.574 . S
C578 C594 1.368 . S
H579 C587 0.950 . S
H580 C585 0.950 . S
H581 C586 0.949 . S
H582 C588 0.950 . S
H583 C589 0.950 . S
H584 C590 0.949 . S
C585 H580 0.950 . S
C585 C587 1.327 . S
C585 C591 1.429 . S
C586 C578 1.574 . S
C586 H581 0.949 . S
C586 C592 1.368 . S
C587 C571 1.349 . S
C587 H579 0.950 . S
C587 C585 1.327 . S
C588 C576 1.349 . S
C588 H582 0.950 . S
C588 C589 1.327 . S
C589 H583 0.950 . S
C589 C588 1.327 . S
C589 C593 1.429 . S
C590 C573 1.574 . S
C590 H584 0.949 . S
C590 C594 1.368 . S
C591 C572 1.429 . S
C591 C585 1.429 . S
C591 C592 1.523 . S
C592 C573 1.368 . S
C592 C586 1.368 . S
C592 C591 1.523 . S
C593 C577 1.429 . S
C593 C589 1.429 . S
C593 C594 1.523 . S
C594 C578 1.368 . S
C594 C590 1.368 . S
C594 C593 1.523 . S
H595 C570 0.950 . S
H596 C572 0.950 . S
H597 C573 0.949 . S
H598 C575 0.950 . S
H599 C577 0.950 . S
C600 C601 1.349 . S
C600 C602 1.327 . S
C600 H625 0.950 . S
C601 C600 1.349 . S
C601 C617 1.381 . S
C602 C600 1.327 . S
C602 C621 1.429 1_556 S
C602 H626 0.950 . S
C603 C620 1.574 . S
C603 C622 1.368 . S
C603 H627 0.949 . S
H604 C608 0.949 . S
C605 C606 1.349 . S
C605 C607 1.327 . S
C605 H628 0.950 . S
C606 C605 1.349 . S
C606 C618 1.349 . S
C607 C605 1.327 . S
C607 C623 1.429 . S
C607 H629 0.950 . S
C608 H604 0.949 . S
C608 C616 1.574 . S
C608 C624 1.368 . S
H609 C617 0.948 1_554 S
H610 C615 0.950 . S
H611 C616 0.949 . S
H612 C618 0.950 . S
H613 C619 0.950 . S
H614 C620 0.949 . S
C615 H610 0.950 . S
C615 C617 1.297 1_554 S
C615 C621 1.429 . S
C616 C608 1.574 . S
C616 H611 0.949 . S
C616 C622 1.368 . S
C617 C601 1.381 . S
C617 H609 0.948 1_556 S
C617 C615 1.297 1_556 S
C618 C606 1.349 . S
C618 H612 0.950 . S
C618 C619 1.327 . S
C619 H613 0.950 . S
C619 C618 1.327 . S
C619 C623 1.429 . S
C620 C603 1.574 . S
C620 H614 0.949 . S
C620 C624 1.368 . S
C621 C602 1.429 1_554 S
C621 C615 1.429 . S
C621 C622 1.523 . S
C622 C603 1.368 . S
C622 C616 1.368 . S
C622 C621 1.523 . S
C623 C607 1.429 . S
C623 C619 1.429 . S
C623 C624 1.523 . S
C624 C608 1.368 . S
C624 C620 1.368 . S
C624 C623 1.523 . S
H625 C600 0.950 . S
H626 C602 0.950 . S
H627 C603 0.949 . S
H628 C605 0.950 . S
H629 C607 0.950 . S
C630 C631 1.349 . S
C630 C632 1.327 . S
C630 H655 0.950 . S
C631 C630 1.349 . S
C631 C647 1.349 . S
C632 C630 1.327 . S
C632 C651 1.429 . S
C632 H656 0.950 . S
C633 C650 1.574 . S
C633 C652 1.368 . S
C633 H657 0.949 . S
H634 C638 0.949 . S
C635 C636 1.349 . S
C635 C637 1.327 . S
C635 H658 0.950 . S
C636 C635 1.349 . S
C636 C648 1.349 . S
C637 C635 1.327 . S
C637 C653 1.429 . S
C637 H659 0.950 . S
C638 H634 0.949 . S
C638 C646 1.574 . S
C638 C654 1.368 . S
H639 C647 0.950 . S
H640 C645 0.950 . S
H641 C646 0.949 . S
H642 C648 0.950 . S
H643 C649 0.950 . S
H644 C650 0.949 . S
C645 H640 0.950 . S
C645 C647 1.327 . S
C645 C651 1.429 . S
C646 C638 1.574 . S
C646 H641 0.949 . S
C646 C652 1.368 . S
C647 C631 1.349 . S
C647 H639 0.950 . S
C647 C645 1.327 . S
C648 C636 1.349 . S
C648 H642 0.950 . S
C648 C649 1.327 . S
C649 H643 0.950 . S
C649 C648 1.327 . S
C649 C653 1.429 . S
C650 C633 1.574 . S
C650 H644 0.949 . S
C650 C654 1.368 . S
C651 C632 1.429 . S
C651 C645 1.429 . S
C651 C652 1.523 . S
C652 C633 1.368 . S
C652 C646 1.368 . S
C652 C651 1.523 . S
C653 C637 1.429 . S
C653 C649 1.429 . S
C653 C654 1.523 . S
C654 C638 1.368 . S
C654 C650 1.368 . S
C654 C653 1.523 . S
H655 C630 0.950 . S
H656 C632 0.950 . S
H657 C633 0.949 . S
H658 C635 0.950 . S
H659 C637 0.950 . S
C660 C661 1.349 . S
C660 C662 1.327 . S
C660 H685 0.950 . S
C661 C660 1.349 . S
C661 C677 1.349 . S
C662 C660 1.327 . S
C662 C681 1.429 . S
C662 H686 0.950 . S
C663 C680 1.574 . S
C663 C682 1.368 . S
C663 H687 0.949 . S
H664 C668 0.949 . S
C665 C666 1.349 . S
C665 C667 1.327 . S
C665 H688 0.950 . S
C666 C665 1.349 . S
C666 C678 1.349 . S
C667 C665 1.327 . S
C667 C683 1.429 . S
C667 H689 0.950 . S
C668 H664 0.949 . S
C668 C676 1.574 . S
C668 C684 1.368 . S
H669 C677 0.950 . S
H670 C675 0.950 . S
H671 C676 0.949 . S
H672 C678 0.950 . S
H673 C679 0.950 . S
H674 C680 0.949 . S
C675 H670 0.950 . S
C675 C677 1.327 . S
C675 C681 1.429 . S
C676 C668 1.574 . S
C676 H671 0.949 . S
C676 C682 1.368 . S
C677 C661 1.349 . S
C677 H669 0.950 . S
C677 C675 1.327 . S
C678 C666 1.349 . S
C678 H672 0.950 . S
C678 C679 1.327 . S
C679 H673 0.950 . S
C679 C678 1.327 . S
C679 C683 1.429 . S
C680 C663 1.574 . S
C680 H674 0.949 . S
C680 C684 1.368 . S
C681 C662 1.429 . S
C681 C675 1.429 . S
C681 C682 1.523 1_455 S
C682 C663 1.368 . S
C682 C676 1.368 . S
C682 C681 1.523 1_655 S
C683 C667 1.429 . S
C683 C679 1.429 . S
C683 C684 1.523 . S
C684 C668 1.368 . S
C684 C680 1.368 . S
C684 C683 1.523 . S
H685 C660 0.950 . S
H686 C662 0.950 . S
H687 C663 0.949 . S
H688 C665 0.950 . S
H689 C667 0.950 . S
C690 C691 1.349 . S
C690 C692 1.327 . S
C690 H715 0.950 . S
C691 C690 1.349 . S
C691 C707 1.349 . S
C692 C690 1.327 . S
C692 C711 1.429 . S
C692 H716 0.950 . S
C693 C710 1.574 . S
C693 C712 1.368 . S
C693 H717 0.949 . S
H694 C698 0.949 . S
C695 C696 1.349 . S
C695 C697 1.327 . S
C695 H718 0.950 . S
C696 C695 1.349 . S
C696 C708 1.349 . S
C697 C695 1.327 . S
C697 C713 1.429 . S
C697 H719 0.950 . S
C698 H694 0.949 . S
C698 C706 1.574 . S
C698 C714 1.368 . S
H699 C707 0.950 . S
H700 C705 0.950 . S
H701 C706 0.949 . S
H702 C708 0.950 . S
H703 C709 0.950 . S
H704 C710 0.949 . S
C705 H700 0.950 . S
C705 C707 1.327 . S
C705 C711 1.429 . S
C706 C698 1.574 . S
C706 H701 0.949 . S
C706 C712 1.368 . S
C707 C691 1.349 . S
C707 H699 0.950 . S
C707 C705 1.327 . S
C708 C696 1.349 . S
C708 H702 0.950 . S
C708 C709 1.327 . S
C709 H703 0.950 . S
C709 C708 1.327 . S
C709 C713 1.429 . S
C710 C693 1.574 . S
C710 H704 0.949 . S
C710 C714 1.368 . S
C711 C692 1.429 . S
C711 C705 1.429 . S
C711 C712 1.523 . S
C712 C693 1.368 . S
C712 C706 1.368 . S
C712 C711 1.523 . S
C713 C697 1.429 . S
C713 C709 1.429 . S
C713 C714 1.523 . S
C714 C698 1.368 . S
C714 C710 1.368 . S
C714 C713 1.523 . S
H715 C690 0.950 . S
H716 C692 0.950 . S
H717 C693 0.949 . S
H718 C695 0.950 . S
H719 C697 0.950 . S
C720 C721 1.345 1_565 S
C720 C722 1.342 . S
C720 H745 0.940 1_565 S
C721 C720 1.345 1_545 S
C721 C737 1.349 1_545 S
C722 C720 1.342 . S
C722 C741 1.429 . S
C722 H746 0.950 . S
C723 C740 1.574 . S
C723 C742 1.368 . S
C723 H747 0.949 . S
H724 C728 0.949 . S
C725 C726 1.349 . S
C725 C727 1.327 . S
C725 H748 0.950 . S
C726 C725 1.349 . S
C726 C738 1.349 . S
C727 C725 1.327 . S
C727 C743 1.429 . S
C727 H749 0.950 . S
C728 H724 0.949 . S
C728 C736 1.574 . S
C728 C744 1.368 . S
H729 C737 0.950 . S
H730 C735 0.950 . S
H731 C736 0.949 . S
H732 C738 0.950 1_554 S
H733 C739 0.950 . S
H734 C740 0.949 . S
C735 H730 0.950 . S
C735 C737 1.327 . S
C735 C741 1.429 . S
C736 C728 1.574 . S
C736 H731 0.949 . S
C736 C742 1.368 . S
C737 C721 1.349 1_565 S
C737 H729 0.950 . S
C737 C735 1.327 . S
C738 C726 1.349 . S
C738 H732 0.950 1_556 S
C738 C739 1.327 . S
C739 H733 0.950 . S
C739 C738 1.327 . S
C739 C743 1.429 . S
C740 C723 1.574 . S
C740 H734 0.949 . S
C740 C744 1.368 . S
C741 C722 1.429 . S
C741 C735 1.429 . S
C741 C742 1.523 . S
C742 C723 1.368 . S
C742 C736 1.368 . S
C742 C741 1.523 . S
C743 C727 1.429 . S
C743 C739 1.429 . S
C743 C744 1.523 . S
C744 C728 1.368 . S
C744 C740 1.368 . S
C744 C743 1.523 . S
H745 C720 0.940 1_545 S
H746 C722 0.950 . S
H747 C723 0.949 . S
H748 C725 0.950 . S
H749 C727 0.950 . S
C750 C751 1.349 . S
C750 C752 1.327 . S
C750 H775 0.950 . S
C751 C750 1.349 . S
C751 C767 1.349 . S
C752 C750 1.327 . S
C752 C771 1.429 . S
C752 H776 0.950 . S
C753 C770 1.574 . S
C753 C772 1.368 . S
C753 H777 0.949 . S
H754 C758 0.949 . S
C755 C756 1.349 . S
C755 C757 1.327 . S
C755 H778 0.950 . S
C756 C755 1.349 . S
C756 C768 1.349 . S
C757 C755 1.327 . S
C757 C773 1.429 . S
C757 H779 0.950 . S
C758 H754 0.949 . S
C758 C766 1.574 . S
C758 C774 1.368 . S
H759 C767 0.950 . S
H760 C765 0.950 . S
H761 C766 0.949 . S
H762 C768 0.950 . S
H763 C769 0.950 . S
H764 C770 0.949 . S
C765 H760 0.950 . S
C765 C767 1.327 . S
C765 C771 1.429 . S
C766 C758 1.574 . S
C766 H761 0.949 . S
C766 C772 1.368 . S
C767 C751 1.349 . S
C767 H759 0.950 . S
C767 C765 1.327 . S
C768 C756 1.349 . S
C768 H762 0.950 . S
C768 C769 1.327 . S
C769 H763 0.950 . S
C769 C768 1.327 . S
C769 C773 1.429 . S
C770 C753 1.574 . S
C770 H764 0.949 . S
C770 C774 1.368 . S
C771 C752 1.429 . S
C771 C765 1.429 . S
C771 C772 1.523 . S
C772 C753 1.368 . S
C772 C766 1.368 . S
C772 C771 1.523 . S
C773 C757 1.429 . S
C773 C769 1.429 . S
C773 C774 1.523 . S
C774 C758 1.368 . S
C774 C770 1.368 . S
C774 C773 1.523 . S
H775 C750 0.950 . S
H776 C752 0.950 . S
H777 C753 0.949 . S
H778 C755 0.950 . S
H779 C757 0.950 . S
C780 C781 1.349 . S
C780 C782 1.327 . S
C780 H805 0.950 . S
C781 C780 1.349 . S
C781 C797 1.349 . S
C782 C780 1.327 . S
C782 C801 1.429 . S
C782 H806 0.950 1_455 S
C783 C800 1.574 . S
C783 C802 1.368 . S
C783 H807 0.949 . S
H784 C788 0.949 . S
C785 C786 1.349 . S
C785 C787 1.327 . S
C785 H808 0.950 . S
C786 C785 1.349 . S
C786 C798 1.349 . S
C787 C785 1.327 . S
C787 C803 1.429 . S
C787 H809 0.950 . S
C788 H784 0.949 . S
C788 C796 1.574 . S
C788 C804 1.368 . S
H789 C797 0.950 1_545 S
H790 C795 0.950 . S
H791 C796 0.949 . S
H792 C798 0.950 . S
H793 C799 0.950 . S
H794 C800 0.949 . S
C795 H790 0.950 . S
C795 C797 1.327 . S
C795 C801 1.429 . S
C796 C788 1.574 . S
C796 H791 0.949 . S
C796 C802 1.368 . S
C797 C781 1.349 . S
C797 H789 0.950 1_565 S
C797 C795 1.327 . S
C798 C786 1.349 . S
C798 H792 0.950 . S
C798 C799 1.327 . S
C799 H793 0.950 . S
C799 C798 1.327 . S
C799 C803 1.429 . S
C800 C783 1.574 . S
C800 H794 0.949 . S
C800 C804 1.368 . S
C801 C782 1.429 . S
C801 C795 1.429 . S
C801 C802 1.523 1_455 S
C802 C783 1.368 . S
C802 C796 1.368 . S
C802 C801 1.523 1_655 S
C803 C787 1.429 . S
C803 C799 1.429 . S
C803 C804 1.523 . S
C804 C788 1.368 . S
C804 C800 1.368 . S
C804 C803 1.523 . S
H805 C780 0.950 . S
H806 C782 0.950 1_655 S
H807 C783 0.949 . S
H808 C785 0.950 . S
H809 C787 0.950 . S
C810 C811 1.349 . S
C810 C812 1.327 . S
C810 H835 0.950 . S
C811 C810 1.349 . S
C811 C827 1.349 . S
C812 C810 1.327 . S
C812 C831 1.429 . S
C812 H836 0.950 . S
C813 C830 1.574 . S
C813 C832 1.368 . S
C813 H837 0.949 . S
H814 C818 0.949 . S
C815 C816 1.349 . S
C815 C817 1.327 . S
C815 H838 0.950 . S
C816 C815 1.349 . S
C816 C828 1.349 . S
C817 C815 1.327 . S
C817 C833 1.429 . S
C817 H839 0.950 . S
C818 H814 0.949 . S
C818 C826 1.574 . S
C818 C834 1.368 . S
H819 C827 0.950 . S
H820 C825 0.950 . S
H821 C826 0.949 . S
H822 C828 0.950 . S
H823 C829 0.950 . S
H824 C830 0.949 . S
C825 H820 0.950 . S
C825 C827 1.327 . S
C825 C831 1.429 . S
C826 C818 1.574 . S
C826 H821 0.949 . S
C826 C832 1.368 . S
C827 C811 1.349 . S
C827 H819 0.950 . S
C827 C825 1.327 . S
C828 C816 1.349 . S
C828 H822 0.950 . S
C828 C829 1.327 . S
C829 H823 0.950 . S
C829 C828 1.327 . S
C829 C833 1.429 . S
C830 C813 1.574 . S
C830 H824 0.949 . S
C830 C834 1.368 . S
C831 C812 1.429 . S
C831 C825 1.429 . S
C831 C832 1.523 . S
C832 C813 1.368 . S
C832 C826 1.368 . S
C832 C831 1.523 . S
C833 C817 1.429 . S
C833 C829 1.429 . S
C833 C834 1.523 . S
C834 C818 1.368 . S
C834 C830 1.368 . S
C834 C833 1.523 . S
H835 C810 0.950 . S
H836 C812 0.950 . S
H837 C813 0.949 . S
H838 C815 0.950 . S
H839 C817 0.950 . S
C840 C841 1.349 . S
C840 C842 1.327 . S
C840 H865 0.950 . S
C841 C840 1.349 . S
C841 C857 1.349 . S
C842 C840 1.327 . S
C842 C861 1.429 . S
C842 H866 0.950 . S
C843 C860 1.574 . S
C843 C862 1.368 . S
C843 H867 0.949 . S
H844 C848 0.949 . S
C845 C846 1.349 . S
C845 C847 1.327 . S
C845 H868 0.950 . S
C846 C845 1.349 . S
C846 C858 1.349 . S
C847 C845 1.327 . S
C847 C863 1.429 . S
C847 H869 0.950 . S
C848 H844 0.949 . S
C848 C856 1.574 . S
C848 C864 1.368 . S
H849 C857 0.950 . S
H850 C855 0.950 . S
H851 C856 0.949 . S
H852 C858 0.950 . S
H853 C859 0.950 . S
H854 C860 0.949 . S
C855 H850 0.950 . S
C855 C857 1.327 . S
C855 C861 1.429 . S
C856 C848 1.574 . S
C856 H851 0.949 . S
C856 C862 1.368 . S
C857 C841 1.349 . S
C857 H849 0.950 . S
C857 C855 1.327 . S
C858 C846 1.349 . S
C858 H852 0.950 . S
C858 C859 1.327 . S
C859 H853 0.950 . S
C859 C858 1.327 . S
C859 C863 1.429 . S
C860 C843 1.574 . S
C860 H854 0.949 . S
C860 C864 1.368 . S
C861 C842 1.429 . S
C861 C855 1.429 . S
C861 C862 1.523 . S
C862 C843 1.368 . S
C862 C856 1.368 . S
C862 C861 1.523 . S
C863 C847 1.429 . S
C863 C859 1.429 . S
C863 C864 1.523 . S
C864 C848 1.368 . S
C864 C860 1.368 . S
C864 C863 1.523 . S
H865 C840 0.950 . S
H866 C842 0.950 . S
H867 C843 0.949 . S
H868 C845 0.950 . S
H869 C847 0.950 . S
C870 C871 1.349 . S
C870 C872 1.327 . S
C870 H895 0.950 . S
C871 C870 1.349 . S
C871 C887 1.349 . S
C872 C870 1.327 . S
C872 C891 1.429 . S
C872 H896 0.950 . S
C873 C890 1.574 . S
C873 C892 1.368 . S
C873 H897 0.949 . S
H874 C878 0.949 . S
C875 C876 1.349 . S
C875 C877 1.327 . S
C875 H898 0.950 . S
C876 C875 1.349 . S
C876 C888 1.349 . S
C877 C875 1.327 . S
C877 C893 1.429 . S
C877 H899 0.950 . S
C878 H874 0.949 . S
C878 C886 1.574 . S
C878 C894 1.368 . S
H879 C887 0.950 . S
H880 C885 0.950 . S
H881 C886 0.949 . S
H882 C888 0.950 . S
H883 C889 0.950 . S
H884 C890 0.949 . S
C885 H880 0.950 . S
C885 C887 1.327 . S
C885 C891 1.429 . S
C886 C878 1.574 . S
C886 H881 0.949 . S
C886 C892 1.368 . S
C887 C871 1.349 . S
C887 H879 0.950 . S
C887 C885 1.327 . S
C888 C876 1.349 . S
C888 H882 0.950 . S
C888 C889 1.327 . S
C889 H883 0.950 . S
C889 C888 1.327 . S
C889 C893 1.429 . S
C890 C873 1.574 . S
C890 H884 0.949 . S
C890 C894 1.368 . S
C891 C872 1.429 . S
C891 C885 1.429 . S
C891 C892 1.523 . S
C892 C873 1.368 . S
C892 C886 1.368 . S
C892 C891 1.523 . S
C893 C877 1.429 . S
C893 C889 1.429 . S
C893 C894 1.523 . S
C894 C878 1.368 . S
C894 C890 1.368 . S
C894 C893 1.523 . S
H895 C870 0.950 . S
H896 C872 0.950 . S
H897 C873 0.949 . S
H898 C875 0.950 . S
H899 C877 0.950 . S
C900 C901 1.349 . S
C900 C902 1.327 . S
C900 H925 0.950 1_554 S
C901 C900 1.349 . S
C901 C917 1.349 . S
C902 C900 1.327 . S
C902 C921 1.429 . S
C902 H926 0.951 1_545 S
C903 C920 1.574 . S
C903 C922 1.368 . S
C903 H927 0.949 . S
H904 C908 0.949 . S
C905 C906 1.349 . S
C905 C907 1.327 . S
C905 H928 0.950 . S
C906 C905 1.349 . S
C906 C918 1.349 . S
C907 C905 1.327 . S
C907 C923 1.429 . S
C907 H929 0.950 . S
C908 H904 0.949 . S
C908 C916 1.574 . S
C908 C924 1.368 . S
H909 C917 0.950 . S
H910 C915 0.950 . S
H911 C916 0.949 . S
H912 C918 0.950 . S
H913 C919 0.950 . S
H914 C920 0.949 . S
C915 H910 0.950 . S
C915 C917 1.327 . S
C915 C921 1.429 . S
C916 C908 1.574 . S
C916 H911 0.949 . S
C916 C922 1.368 . S
C917 C901 1.349 . S
C917 H909 0.950 . S
C917 C915 1.327 . S
C918 C906 1.349 . S
C918 H912 0.950 . S
C918 C919 1.327 . S
C919 H913 0.950 . S
C919 C918 1.327 . S
C919 C923 1.429 . S
C920 C903 1.574 . S
C920 H914 0.949 . S
C920 C924 1.368 . S
C921 C902 1.429 . S
C921 C915 1.429 . S
C921 C922 1.523 1_545 S
C922 C903 1.368 . S
C922 C916 1.368 . S
C922 C921 1.523 1_565 S
C923 C907 1.429 . S
C923 C919 1.429 . S
C923 C924 1.523 . S
C924 C908 1.368 . S
C924 C920 1.368 . S
C924 C923 1.523 . S
H925 C900 0.950 1_556 S
H926 C902 0.951 1_565 S
H927 C903 0.949 . S
H928 C905 0.950 . S
H929 C907 0.950 . S
C930 C931 1.349 . S
C930 C932 1.327 . S
C930 H955 0.950 . S
C931 C930 1.349 . S
C931 C947 1.349 1_556 S
C932 C930 1.327 . S
C932 C951 1.429 . S
C932 H956 0.950 . S
C933 C950 1.574 . S
C933 C952 1.368 . S
C933 H957 0.949 . S
H934 C938 0.949 . S
C935 C936 1.349 . S
C935 C937 1.327 . S
C935 H958 0.950 . S
C936 C935 1.349 . S
C936 C948 1.349 . S
C937 C935 1.327 . S
C937 C953 1.429 . S
C937 H959 0.950 . S
C938 H934 0.949 . S
C938 C946 1.574 . S
C938 C954 1.368 . S
H939 C947 0.950 . S
H940 C945 0.950 1_554 S
H941 C946 0.949 . S
H942 C948 0.950 . S
H943 C949 0.950 . S
H944 C950 0.949 . S
C945 H940 0.950 1_556 S
C945 C947 1.327 1_556 S
C945 C951 1.429 . S
C946 C938 1.574 . S
C946 H941 0.949 . S
C946 C952 1.368 . S
C947 C931 1.349 1_554 S
C947 H939 0.950 . S
C947 C945 1.327 1_554 S
C948 C936 1.349 . S
C948 H942 0.950 . S
C948 C949 1.327 . S
C949 H943 0.950 . S
C949 C948 1.327 . S
C949 C953 1.429 . S
C950 C933 1.574 . S
C950 H944 0.949 . S
C950 C954 1.368 . S
C951 C932 1.429 . S
C951 C945 1.429 . S
C951 C952 1.523 . S
C952 C933 1.368 . S
C952 C946 1.368 . S
C952 C951 1.523 . S
C953 C937 1.429 . S
C953 C949 1.429 . S
C953 C954 1.523 . S
C954 C938 1.368 . S
C954 C950 1.368 . S
C954 C953 1.523 . S
H955 C930 0.950 . S
H956 C932 0.950 . S
H957 C933 0.949 . S
H958 C935 0.950 . S
H959 C937 0.950 . S
C960 C961 1.349 . S
C960 C962 1.327 . S
C960 H985 0.950 . S
C961 C960 1.349 . S
C961 C977 1.349 . S
C962 C960 1.327 . S
C962 C981 1.429 . S
C962 H986 0.950 . S
C963 C980 1.574 . S
C963 C982 1.368 . S
C963 H987 0.949 . S
H964 C968 0.949 . S
C965 C966 1.349 . S
C965 C967 1.327 . S
C965 H988 0.950 . S
C966 C965 1.349 . S
C966 C978 1.349 . S
C967 C965 1.327 . S
C967 C983 1.429 . S
C967 H989 0.950 . S
C968 H964 0.949 . S
C968 C976 1.574 . S
C968 C984 1.368 . S
H969 C977 0.950 . S
H970 C975 0.950 . S
H971 C976 0.949 . S
H972 C978 0.950 . S
H973 C979 0.950 . S
H974 C980 0.949 . S
C975 H970 0.950 . S
C975 C977 1.327 . S
C975 C981 1.429 . S
C976 C968 1.574 . S
C976 H971 0.949 . S
C976 C982 1.368 . S
C977 C961 1.349 . S
C977 H969 0.950 . S
C977 C975 1.327 . S
C978 C966 1.349 . S
C978 H972 0.950 . S
C978 C979 1.327 . S
C979 H973 0.950 . S
C979 C978 1.327 . S
C979 C983 1.429 . S
C980 C963 1.574 . S
C980 H974 0.949 . S
C980 C984 1.368 . S
C981 C962 1.429 . S
C981 C975 1.429 . S
C981 C982 1.523 . S
C982 C963 1.368 . S
C982 C976 1.368 . S
C982 C981 1.523 . S
C983 C967 1.429 . S
C983 C979 1.429 . S
C983 C984 1.523 . S
C984 C968 1.368 . S
C984 C980 1.368 . S
C984 C983 1.523 . S
H985 C960 0.950 . S
H986 C962 0.950 . S
H987 C963 0.949 . S
H988 C965 0.950 . S
H989 C967 0.950 . S
C990 C991 1.349 . S
C990 C992 1.327 . S
C990 H1015 0.950 . S
C991 C990 1.349 . S
C991 C1007 1.349 . S
C992 C990 1.327 . S
C992 C1011 1.429 . S
C992 H1016 0.950 . S
C993 C1010 1.574 . S
C993 C1012 1.368 . S
C993 H1017 0.949 . S
H994 C998 0.949 . S
C995 C996 1.349 . S
C995 C997 1.327 . S
C995 H1018 0.950 . S
C996 C995 1.349 . S
C996 C1008 1.349 . S
C997 C995 1.327 . S
C997 C1013 1.429 . S
C997 H1019 0.950 . S
C998 H994 0.949 . S
C998 C1006 1.574 . S
C998 C1014 1.368 . S
H999 C1007 0.950 . S
H1000 C1005 0.950 . S
H1001 C1006 0.949 . S
H1002 C1008 0.950 . S
H1003 C1009 0.950 . S
H1004 C1010 0.949 . S
C1005 H1000 0.950 . S
C1005 C1007 1.327 . S
C1005 C1011 1.429 . S
C1006 C998 1.574 . S
C1006 H1001 0.949 . S
C1006 C1012 1.368 . S
C1007 C991 1.349 . S
C1007 H999 0.950 . S
C1007 C1005 1.327 . S
C1008 C996 1.349 . S
C1008 H1002 0.950 . S
C1008 C1009 1.327 . S
C1009 H1003 0.950 . S
C1009 C1008 1.327 . S
C1009 C1013 1.429 . S
C1010 C993 1.574 . S
C1010 H1004 0.949 . S
C1010 C1014 1.368 . S
C1011 C992 1.429 . S
C1011 C1005 1.429 . S
C1011 C1012 1.523 . S
C1012 C993 1.368 . S
C1012 C1006 1.368 . S
C1012 C1011 1.523 . S
C1013 C997 1.429 . S
C1013 C1009 1.429 . S
C1013 C1014 1.523 . S
C1014 C998 1.368 . S
C1014 C1010 1.368 . S
C1014 C1013 1.523 . S
H1015 C990 0.950 . S
H1016 C992 0.950 . S
H1017 C993 0.949 . S
H1018 C995 0.950 . S
H1019 C997 0.950 . S
C1020 C1021 1.349 . S
C1020 C1022 1.327 . S
C1020 H1045 0.950 . S
C1021 C1020 1.349 . S
C1021 C1037 1.349 . S
C1022 C1020 1.327 . S
C1022 C1041 1.429 . S
C1022 H1046 0.950 . S
C1023 C1040 1.574 . S
C1023 C1042 1.368 . S
C1023 H1047 0.949 . S
H1024 C1028 0.949 . S
C1025 C1026 1.349 . S
C1025 C1027 1.327 . S
C1025 H1048 0.950 . S
C1026 C1025 1.349 . S
C1026 C1038 1.349 . S
C1027 C1025 1.327 . S
C1027 C1043 1.429 . S
C1027 H1049 0.950 . S
C1028 H1024 0.949 . S
C1028 C1036 1.574 . S
C1028 C1044 1.368 . S
H1029 C1037 0.950 . S
H1030 C1035 0.950 . S
H1031 C1036 0.949 . S
H1032 C1038 0.950 . S
H1033 C1039 0.950 . S
H1034 C1040 0.949 . S
C1035 H1030 0.950 . S
C1035 C1037 1.327 . S
C1035 C1041 1.429 . S
C1036 C1028 1.574 . S
C1036 H1031 0.949 . S
C1036 C1042 1.368 . S
C1037 C1021 1.349 . S
C1037 H1029 0.950 . S
C1037 C1035 1.327 . S
C1038 C1026 1.349 . S
C1038 H1032 0.950 . S
C1038 C1039 1.327 . S
C1039 H1033 0.950 . S
C1039 C1038 1.327 . S
C1039 C1043 1.429 . S
C1040 C1023 1.574 . S
C1040 H1034 0.949 . S
C1040 C1044 1.368 . S
C1041 C1022 1.429 . S
C1041 C1035 1.429 . S
C1041 C1042 1.523 . S
C1042 C1023 1.368 . S
C1042 C1036 1.368 . S
C1042 C1041 1.523 . S
C1043 C1027 1.429 . S
C1043 C1039 1.429 . S
C1043 C1044 1.523 . S
C1044 C1028 1.368 . S
C1044 C1040 1.368 . S
C1044 C1043 1.523 . S
H1045 C1020 0.950 . S
H1046 C1022 0.950 . S
H1047 C1023 0.949 . S
H1048 C1025 0.950 . S
H1049 C1027 0.950 . S
C1050 C1051 1.349 . S
C1050 C1052 1.327 . S
C1050 H1075 0.950 . S
C1051 C1050 1.349 . S
C1051 C1067 1.349 . S
C1052 C1050 1.327 . S
C1052 C1071 1.429 1_565 S
C1052 H1076 0.950 1_565 S
C1053 C1070 1.574 . S
C1053 C1072 1.368 . S
C1053 H1077 0.949 . S
H1054 C1058 0.949 . S
C1055 C1056 1.349 . S
C1055 C1057 1.327 . S
C1055 H1078 0.950 . S
C1056 C1055 1.349 . S
C1056 C1068 1.349 . S
C1057 C1055 1.327 . S
C1057 C1073 1.429 . S
C1057 H1079 0.950 . S
C1058 H1054 0.949 . S
C1058 C1066 1.574 . S
C1058 C1074 1.368 . S
H1059 C1067 0.950 . S
H1060 C1065 0.950 . S
H1061 C1066 0.949 . S
H1062 C1068 0.950 . S
H1063 C1069 0.950 . S
H1064 C1070 0.949 . S
C1065 H1060 0.950 . S
C1065 C1067 1.327 1_545 S
C1065 C1071 1.429 . S
C1066 C1058 1.574 . S
C1066 H1061 0.949 . S
C1066 C1072 1.368 . S
C1067 C1051 1.349 . S
C1067 H1059 0.950 . S
C1067 C1065 1.327 1_565 S
C1068 C1056 1.349 . S
C1068 H1062 0.950 . S
C1068 C1069 1.327 . S
C1069 H1063 0.950 . S
C1069 C1068 1.327 . S
C1069 C1073 1.429 . S
C1070 C1053 1.574 . S
C1070 H1064 0.949 . S
C1070 C1074 1.368 . S
C1071 C1052 1.429 1_545 S
C1071 C1065 1.429 . S
C1071 C1072 1.523 . S
C1072 C1053 1.368 . S
C1072 C1066 1.368 . S
C1072 C1071 1.523 . S
C1073 C1057 1.429 . S
C1073 C1069 1.429 . S
C1073 C1074 1.523 . S
C1074 C1058 1.368 . S
C1074 C1070 1.368 . S
C1074 C1073 1.523 . S
H1075 C1050 0.950 . S
H1076 C1052 0.950 1_545 S
H1077 C1053 0.949 . S
H1078 C1055 0.950 . S
H1079 C1057 0.950 . S
C1080 C1081 1.349 . S
C1080 C1082 1.327 . S
C1080 H1105 0.950 . S
C1081 C1080 1.349 . S
C1081 C1097 1.349 . S
C1082 C1080 1.327 . S
C1082 C1101 1.429 . S
C1082 H1106 0.950 . S
C1083 C1100 1.574 . S
C1083 C1102 1.368 . S
C1083 H1107 0.949 . S
H1084 C1088 0.949 . S
C1085 C1086 1.349 . S
C1085 C1087 1.327 . S
C1085 H1108 0.950 . S
C1086 C1085 1.349 . S
C1086 C1098 1.349 . S
C1087 C1085 1.327 . S
C1087 C1103 1.429 . S
C1087 H1109 0.950 . S
C1088 H1084 0.949 . S
C1088 C1096 1.574 . S
C1088 C1104 1.368 . S
H1089 C1097 0.950 . S
H1090 C1095 0.950 . S
H1091 C1096 0.949 . S
H1092 C1098 0.950 . S
H1093 C1099 0.950 . S
H1094 C1100 0.949 . S
C1095 H1090 0.950 . S
C1095 C1097 1.327 . S
C1095 C1101 1.429 . S
C1096 C1088 1.574 . S
C1096 H1091 0.949 . S
C1096 C1102 1.368 . S
C1097 C1081 1.349 . S
C1097 H1089 0.950 . S
C1097 C1095 1.327 . S
C1098 C1086 1.349 . S
C1098 H1092 0.950 . S
C1098 C1099 1.327 . S
C1099 H1093 0.950 . S
C1099 C1098 1.327 . S
C1099 C1103 1.429 . S
C1100 C1083 1.574 . S
C1100 H1094 0.949 . S
C1100 C1104 1.368 . S
C1101 C1082 1.429 . S
C1101 C1095 1.429 . S
C1101 C1102 1.523 . S
C1102 C1083 1.368 . S
C1102 C1096 1.368 . S
C1102 C1101 1.523 . S
C1103 C1087 1.429 . S
C1103 C1099 1.429 . S
C1103 C1104 1.523 . S
C1104 C1088 1.368 . S
C1104 C1100 1.368 . S
C1104 C1103 1.523 . S
H1105 C1080 0.950 . S
H1106 C1082 0.950 . S
H1107 C1083 0.949 . S
H1108 C1085 0.950 . S
H1109 C1087 0.950 . S
C1110 C1111 1.349 . S
C1110 C1112 1.327 . S
C1110 H1135 0.950 . S
C1111 C1110 1.349 . S
C1111 C1127 1.349 . S
C1112 C1110 1.327 . S
C1112 C1131 1.429 . S
C1112 H1136 0.950 . S
C1113 C1130 1.574 . S
C1113 C1132 1.368 . S
C1113 H1137 0.949 . S
H1114 C1118 0.949 . S
C1115 C1116 1.349 . S
C1115 C1117 1.327 . S
C1115 H1138 0.950 . S
C1116 C1115 1.349 . S
C1116 C1128 1.349 . S
C1117 C1115 1.327 . S
C1117 C1133 1.429 . S
C1117 H1139 0.950 . S
C1118 H1114 0.949 . S
C1118 C1126 1.574 . S
C1118 C1134 1.368 . S
H1119 C1127 0.950 . S
H1120 C1125 0.950 . S
H1121 C1126 0.949 . S
H1122 C1128 0.950 . S
H1123 C1129 0.950 . S
H1124 C1130 0.949 . S
C1125 H1120 0.950 . S
C1125 C1127 1.327 . S
C1125 C1131 1.429 . S
C1126 C1118 1.574 . S
C1126 H1121 0.949 . S
C1126 C1132 1.368 . S
C1127 C1111 1.349 . S
C1127 H1119 0.950 . S
C1127 C1125 1.327 . S
C1128 C1116 1.349 . S
C1128 H1122 0.950 . S
C1128 C1129 1.327 . S
C1129 H1123 0.950 . S
C1129 C1128 1.327 . S
C1129 C1133 1.429 . S
C1130 C1113 1.574 . S
C1130 H1124 0.949 . S
C1130 C1134 1.368 . S
C1131 C1112 1.429 . S
C1131 C1125 1.429 . S
C1131 C1132 1.523 . S
C1132 C1113 1.368 . S
C1132 C1126 1.368 . S
C1132 C1131 1.523 . S
C1133 C1117 1.429 . S
C1133 C1129 1.429 . S
C1133 C1134 1.523 . S
C1134 C1118 1.368 . S
C1134 C1130 1.368 . S
C1134 C1133 1.523 . S
H1135 C1110 0.950 . S
H1136 C1112 0.950 . S
H1137 C1113 0.949 . S
H1138 C1115 0.950 . S
H1139 C1117 0.950 . S
C1140 C1141 1.349 . S
C1140 C1142 1.327 . S
C1140 H1165 0.950 . S
C1141 C1140 1.349 . S
C1141 C1157 1.349 . S
C1142 C1140 1.327 . S
C1142 C1161 1.429 . S
C1142 H1166 0.950 . S
C1143 C1160 1.574 . S
C1143 C1162 1.368 . S
C1143 H1167 0.949 . S
H1144 C1148 0.949 . S
C1145 C1146 1.349 . S
C1145 C1147 1.327 . S
C1145 H1168 0.950 1_565 S
C1146 C1145 1.349 . S
C1146 C1158 1.349 . S
C1147 C1145 1.327 . S
C1147 C1163 1.429 . S
C1147 H1169 0.950 . S
C1148 H1144 0.949 . S
C1148 C1156 1.574 . S
C1148 C1164 1.368 . S
H1149 C1157 0.950 . S
H1150 C1155 0.950 . S
H1151 C1156 0.949 . S
H1152 C1158 0.950 . S
H1153 C1159 0.950 . S
H1154 C1160 0.949 . S
C1155 H1150 0.950 . S
C1155 C1157 1.327 . S
C1155 C1161 1.429 . S
C1156 C1148 1.574 . S
C1156 H1151 0.949 . S
C1156 C1162 1.368 . S
C1157 C1141 1.349 . S
C1157 H1149 0.950 . S
C1157 C1155 1.327 . S
C1158 C1146 1.349 . S
C1158 H1152 0.950 . S
C1158 C1159 1.327 . S
C1159 H1153 0.950 . S
C1159 C1158 1.327 . S
C1159 C1163 1.429 . S
C1160 C1143 1.574 . S
C1160 H1154 0.949 . S
C1160 C1164 1.368 . S
C1161 C1142 1.429 . S
C1161 C1155 1.429 . S
C1161 C1162 1.523 . S
C1162 C1143 1.368 . S
C1162 C1156 1.368 . S
C1162 C1161 1.523 . S
C1163 C1147 1.429 . S
C1163 C1159 1.429 . S
C1163 C1164 1.523 . S
C1164 C1148 1.368 . S
C1164 C1160 1.368 . S
C1164 C1163 1.523 . S
H1165 C1140 0.950 . S
H1166 C1142 0.950 . S
H1167 C1143 0.949 . S
H1168 C1145 0.950 1_545 S
H1169 C1147 0.950 . S
C1170 C1171 1.349 . S
C1170 C1172 1.327 . S
C1170 H1195 0.950 . S
C1171 C1170 1.349 . S
C1171 C1187 1.349 . S
C1172 C1170 1.327 . S
C1172 C1191 1.429 . S
C1172 H1196 0.950 . S
C1173 C1190 1.574 . S
C1173 C1192 1.368 . S
C1173 H1197 0.949 . S
H1174 C1178 0.949 . S
C1175 C1176 1.349 . S
C1175 C1177 1.327 . S
C1175 H1198 0.950 . S
C1176 C1175 1.349 . S
C1176 C1188 1.349 . S
C1177 C1175 1.327 . S
C1177 C1193 1.429 . S
C1177 H1199 0.950 . S
C1178 H1174 0.949 . S
C1178 C1186 1.574 . S
C1178 C1194 1.368 . S
H1179 C1187 0.950 . S
H1180 C1185 0.950 . S
H1181 C1186 0.949 . S
H1182 C1188 0.950 . S
H1183 C1189 0.950 . S
H1184 C1190 0.949 . S
C1185 H1180 0.950 . S
C1185 C1187 1.327 . S
C1185 C1191 1.429 . S
C1186 C1178 1.574 . S
C1186 H1181 0.949 . S
C1186 C1192 1.368 . S
C1187 C1171 1.349 . S
C1187 H1179 0.950 . S
C1187 C1185 1.327 . S
C1188 C1176 1.349 . S
C1188 H1182 0.950 . S
C1188 C1189 1.327 . S
C1189 H1183 0.950 . S
C1189 C1188 1.327 . S
C1189 C1193 1.429 . S
C1190 C1173 1.574 . S
C1190 H1184 0.949 . S
C1190 C1194 1.368 . S
C1191 C1172 1.429 . S
C1191 C1185 1.429 . S
C1191 C1192 1.523 . S
C1192 C1173 1.368 . S
C1192 C1186 1.368 . S
C1192 C1191 1.523 . S
C1193 C1177 1.429 . S
C1193 C1189 1.429 . S
C1193 C1194 1.523 . S
C1194 C1178 1.368 . S
C1194 C1190 1.368 . S
C1194 C1193 1.523 . S
H1195 C1170 0.950 . S
H1196 C1172 0.950 . S
H1197 C1173 0.949 . S
H1198 C1175 0.950 . S
H1199 C1177 0.950 . S
C1200 C1201 1.349 . S
C1200 C1202 1.327 . S
C1200 H1225 0.950 . S
C1201 C1200 1.349 . S
C1201 C1217 1.349 . S
C1202 C1200 1.327 . S
C1202 C1221 1.429 . S
C1202 H1226 0.950 . S
C1203 C1220 1.574 . S
C1203 C1222 1.368 . S
C1203 H1227 0.949 . S
H1204 C1208 0.949 . S
C1205 C1206 1.349 . S
C1205 C1207 1.327 . S
C1205 H1228 0.950 . S
C1206 C1205 1.349 . S
C1206 C1218 1.349 . S
C1207 C1205 1.327 . S
C1207 C1223 1.429 . S
C1207 H1229 0.950 . S
C1208 H1204 0.949 . S
C1208 C1216 1.574 . S
C1208 C1224 1.368 . S
H1209 C1217 0.950 1_455 S
H1210 C1215 0.935 1_455 S
H1211 C1216 0.949 . S
H1212 C1218 0.950 . S
H1213 C1219 0.950 . S
H1214 C1220 0.949 . S
C1215 H1210 0.935 1_655 S
C1215 C1217 1.327 . S
C1215 C1221 1.429 . S
C1216 C1208 1.574 . S
C1216 H1211 0.949 . S
C1216 C1222 1.368 . S
C1217 C1201 1.349 . S
C1217 H1209 0.950 1_655 S
C1217 C1215 1.327 . S
C1218 C1206 1.349 . S
C1218 H1212 0.950 . S
C1218 C1219 1.327 . S
C1219 H1213 0.950 . S
C1219 C1218 1.327 . S
C1219 C1223 1.429 . S
C1220 C1203 1.574 . S
C1220 H1214 0.949 . S
C1220 C1224 1.368 . S
C1221 C1202 1.429 . S
C1221 C1215 1.429 . S
C1221 C1222 1.523 1_554 S
C1222 C1203 1.368 . S
C1222 C1216 1.368 . S
C1222 C1221 1.523 1_556 S
C1223 C1207 1.429 . S
C1223 C1219 1.429 . S
C1223 C1224 1.523 . S
C1224 C1208 1.368 . S
C1224 C1220 1.368 . S
C1224 C1223 1.523 . S
H1225 C1200 0.950 . S
H1226 C1202 0.950 . S
H1227 C1203 0.949 . S
H1228 C1205 0.950 . S
H1229 C1207 0.950 . S
C1230 C1231 1.349 . S
C1230 C1232 1.327 . S
C1230 H1255 0.950 . S
C1231 C1230 1.349 . S
C1231 C1247 1.349 . S
C1232 C1230 1.327 . S
C1232 C1251 1.429 . S
C1232 H1256 0.950 . S
C1233 C1250 1.574 . S
C1233 C1252 1.368 . S
C1233 H1257 0.949 . S
H1234 C1238 0.949 . S
C1235 C1236 1.349 . S
C1235 C1237 1.327 . S
C1235 H1258 0.950 . S
C1236 C1235 1.349 . S
C1236 C1248 1.349 . S
C1237 C1235 1.327 . S
C1237 C1253 1.429 . S
C1237 H1259 0.950 . S
C1238 H1234 0.949 . S
C1238 C1246 1.574 . S
C1238 C1254 1.368 . S
H1239 C1247 0.950 . S
H1240 C1245 0.950 . S
H1241 C1246 0.949 . S
H1242 C1248 0.950 . S
H1243 C1249 0.950 . S
H1244 C1250 0.949 . S
C1245 H1240 0.950 . S
C1245 C1247 1.327 . S
C1245 C1251 1.429 . S
C1246 C1238 1.574 . S
C1246 H1241 0.949 . S
C1246 C1252 1.368 . S
C1247 C1231 1.349 . S
C1247 H1239 0.950 . S
C1247 C1245 1.327 . S
C1248 C1236 1.349 . S
C1248 H1242 0.950 . S
C1248 C1249 1.327 . S
C1249 H1243 0.950 . S
C1249 C1248 1.327 . S
C1249 C1253 1.429 . S
C1250 C1233 1.574 . S
C1250 H1244 0.949 . S
C1250 C1254 1.368 . S
C1251 C1232 1.429 . S
C1251 C1245 1.429 . S
C1251 C1252 1.523 . S
C1252 C1233 1.368 . S
C1252 C1246 1.368 . S
C1252 C1251 1.523 . S
C1253 C1237 1.429 . S
C1253 C1249 1.429 . S
C1253 C1254 1.523 . S
C1254 C1238 1.368 . S
C1254 C1250 1.368 . S
C1254 C1253 1.523 . S
H1255 C1230 0.950 . S
H1256 C1232 0.950 . S
H1257 C1233 0.949 . S
H1258 C1235 0.950 . S
H1259 C1237 0.950 . S
C1260 C1261 1.349 1_554 S
C1260 C1262 1.327 . S
C1260 H1285 0.950 . S
C1261 C1260 1.349 1_556 S
C1261 C1277 1.349 . S
C1262 C1260 1.327 . S
C1262 C1281 1.429 . S
C1262 H1286 0.950 . S
C1263 C1280 1.574 . S
C1263 C1282 1.368 . S
C1263 H1287 0.949 . S
H1264 C1268 0.949 . S
C1265 C1266 1.349 . S
C1265 C1267 1.327 . S
C1265 H1288 0.950 . S
C1266 C1265 1.349 . S
C1266 C1278 1.349 . S
C1267 C1265 1.327 . S
C1267 C1283 1.429 . S
C1267 H1289 0.950 . S
C1268 H1264 0.949 . S
C1268 C1276 1.574 . S
C1268 C1284 1.368 . S
H1269 C1277 0.950 . S
H1270 C1275 0.950 1_556 S
H1271 C1276 0.949 . S
H1272 C1278 0.950 . S
H1273 C1279 0.950 . S
H1274 C1280 0.949 . S
C1275 H1270 0.950 1_554 S
C1275 C1277 1.307 1_554 S
C1275 C1281 1.450 . S
C1276 C1268 1.574 . S
C1276 H1271 0.949 . S
C1276 C1282 1.368 . S
C1277 C1261 1.349 . S
C1277 H1269 0.950 . S
C1277 C1275 1.307 1_556 S
C1278 C1266 1.349 . S
C1278 H1272 0.950 . S
C1278 C1279 1.327 . S
C1279 H1273 0.950 . S
C1279 C1278 1.327 . S
C1279 C1283 1.429 . S
C1280 C1263 1.574 . S
C1280 H1274 0.949 . S
C1280 C1284 1.368 . S
C1281 C1262 1.429 . S
C1281 C1275 1.450 . S
C1281 C1282 1.523 . S
C1282 C1263 1.368 . S
C1282 C1276 1.368 . S
C1282 C1281 1.523 . S
C1283 C1267 1.429 . S
C1283 C1279 1.429 . S
C1283 C1284 1.523 . S
C1284 C1268 1.368 . S
C1284 C1280 1.368 . S
C1284 C1283 1.523 . S
H1285 C1260 0.950 . S
H1286 C1262 0.950 . S
H1287 C1263 0.949 . S
H1288 C1265 0.950 . S
H1289 C1267 0.950 . S
C1290 C1291 1.349 . S
C1290 C1292 1.327 . S
C1290 H1315 0.950 . S
C1291 C1290 1.349 . S
C1291 C1307 1.349 . S
C1292 C1290 1.327 . S
C1292 C1311 1.429 . S
C1292 H1316 0.950 . S
C1293 C1310 1.574 . S
C1293 C1312 1.368 . S
C1293 H1317 0.949 . S
H1294 C1298 0.949 . S
C1295 C1296 1.349 . S
C1295 C1297 1.327 . S
C1295 H1318 0.950 . S
C1296 C1295 1.349 . S
C1296 C1308 1.349 . S
C1297 C1295 1.327 . S
C1297 C1313 1.429 . S
C1297 H1319 0.950 . S
C1298 H1294 0.949 . S
C1298 C1306 1.574 . S
C1298 C1314 1.368 . S
H1299 C1307 0.950 . S
H1300 C1305 0.950 . S
H1301 C1306 0.949 . S
H1302 C1308 0.950 . S
H1303 C1309 0.950 . S
H1304 C1310 0.949 . S
C1305 H1300 0.950 . S
C1305 C1307 1.327 . S
C1305 C1311 1.429 . S
C1306 C1298 1.574 . S
C1306 H1301 0.949 . S
C1306 C1312 1.368 . S
C1307 C1291 1.349 . S
C1307 H1299 0.950 . S
C1307 C1305 1.327 . S
C1308 C1296 1.349 . S
C1308 H1302 0.950 . S
C1308 C1309 1.327 . S
C1309 H1303 0.950 . S
C1309 C1308 1.327 . S
C1309 C1313 1.429 . S
C1310 C1293 1.574 . S
C1310 H1304 0.949 . S
C1310 C1314 1.368 . S
C1311 C1292 1.429 . S
C1311 C1305 1.429 . S
C1311 C1312 1.523 . S
C1312 C1293 1.368 . S
C1312 C1306 1.368 . S
C1312 C1311 1.523 . S
C1313 C1297 1.429 . S
C1313 C1309 1.429 . S
C1313 C1314 1.523 . S
C1314 C1298 1.368 . S
C1314 C1310 1.368 . S
C1314 C1313 1.523 . S
H1315 C1290 0.950 . S
H1316 C1292 0.950 . S
H1317 C1293 0.949 . S
H1318 C1295 0.950 . S
H1319 C1297 0.950 . S
C1320 C1321 1.349 . S
C1320 C1322 1.327 . S
C1320 H1345 0.950 . S
C1321 C1320 1.349 . S
C1321 C1337 1.349 . S
C1322 C1320 1.327 . S
C1322 C1341 1.429 . S
C1322 H1346 0.950 . S
C1323 C1340 1.574 . S
C1323 C1342 1.368 . S
C1323 H1347 0.949 . S
H1324 C1328 0.949 . S
C1325 C1326 1.349 . S
C1325 C1327 1.327 . S
C1325 H1348 0.950 . S
C1326 C1325 1.349 . S
C1326 C1338 1.349 . S
C1327 C1325 1.327 . S
C1327 C1343 1.429 . S
C1327 H1349 0.950 . S
C1328 H1324 0.949 . S
C1328 C1336 1.574 . S
C1328 C1344 1.368 . S
H1329 C1337 0.950 . S
H1330 C1335 0.950 . S
H1331 C1336 0.949 . S
H1332 C1338 0.950 . S
H1333 C1339 0.950 . S
H1334 C1340 0.949 . S
C1335 H1330 0.950 . S
C1335 C1337 1.327 . S
C1335 C1341 1.429 . S
C1336 C1328 1.574 . S
C1336 H1331 0.949 . S
C1336 C1342 1.368 . S
C1337 C1321 1.349 . S
C1337 H1329 0.950 . S
C1337 C1335 1.327 . S
C1338 C1326 1.349 . S
C1338 H1332 0.950 . S
C1338 C1339 1.327 . S
C1339 H1333 0.950 . S
C1339 C1338 1.327 . S
C1339 C1343 1.429 . S
C1340 C1323 1.574 . S
C1340 H1334 0.949 . S
C1340 C1344 1.368 . S
C1341 C1322 1.429 . S
C1341 C1335 1.429 . S
C1341 C1342 1.523 . S
C1342 C1323 1.368 . S
C1342 C1336 1.368 . S
C1342 C1341 1.523 . S
C1343 C1327 1.429 . S
C1343 C1339 1.429 . S
C1343 C1344 1.523 . S
C1344 C1328 1.368 . S
C1344 C1340 1.368 . S
C1344 C1343 1.523 . S
H1345 C1320 0.950 . S
H1346 C1322 0.950 . S
H1347 C1323 0.949 . S
H1348 C1325 0.950 . S
H1349 C1327 0.950 . S
C1350 C1351 1.349 . S
C1350 C1352 1.327 . S
C1350 H1375 0.950 . S
C1351 C1350 1.349 . S
C1351 C1367 1.349 . S
C1352 C1350 1.327 . S
C1352 C1371 1.429 . S
C1352 H1376 0.950 . S
C1353 C1370 1.574 . S
C1353 C1372 1.368 . S
C1353 H1377 0.949 . S
H1354 C1358 0.949 . S
C1355 C1356 1.349 . S
C1355 C1357 1.327 . S
C1355 H1378 0.950 . S
C1356 C1355 1.349 . S
C1356 C1368 1.349 . S
C1357 C1355 1.327 . S
C1357 C1373 1.429 . S
C1357 H1379 0.950 . S
C1358 H1354 0.949 . S
C1358 C1366 1.574 . S
C1358 C1374 1.368 . S
H1359 C1367 0.950 . S
H1360 C1365 0.950 . S
H1361 C1366 0.949 . S
H1362 C1368 0.950 . S
H1363 C1369 0.950 . S
H1364 C1370 0.949 . S
C1365 H1360 0.950 . S
C1365 C1367 1.327 . S
C1365 C1371 1.429 . S
C1366 C1358 1.574 . S
C1366 H1361 0.949 . S
C1366 C1372 1.368 . S
C1367 C1351 1.349 . S
C1367 H1359 0.950 . S
C1367 C1365 1.327 . S
C1368 C1356 1.349 . S
C1368 H1362 0.950 . S
C1368 C1369 1.327 . S
C1369 H1363 0.950 . S
C1369 C1368 1.327 . S
C1369 C1373 1.429 . S
C1370 C1353 1.574 . S
C1370 H1364 0.949 . S
C1370 C1374 1.368 . S
C1371 C1352 1.429 . S
C1371 C1365 1.429 . S
C1371 C1372 1.523 . S
C1372 C1353 1.368 . S
C1372 C1366 1.368 . S
C1372 C1371 1.523 . S
C1373 C1357 1.429 . S
C1373 C1369 1.429 . S
C1373 C1374 1.523 . S
C1374 C1358 1.368 . S
C1374 C1370 1.368 . S
C1374 C1373 1.523 . S
H1375 C1350 0.950 . S
H1376 C1352 0.950 . S
H1377 C1353 0.949 . S
H1378 C1355 0.950 . S
H1379 C1357 0.950 . S
C1380 C1381 1.349 . S
C1380 C1382 1.327 . S
C1380 H1405 0.950 . S
C1381 C1380 1.349 . S
C1381 C1397 1.349 . S
C1382 C1380 1.327 . S
C1382 C1401 1.429 . S
C1382 H1406 0.950 . S
C1383 C1400 1.574 . S
C1383 C1402 1.368 . S
C1383 H1407 0.949 . S
H1384 C1388 0.949 . S
C1385 C1386 1.349 . S
C1385 C1387 1.327 . S
C1385 H1408 0.950 1_556 S
C1386 C1385 1.349 . S
C1386 C1398 1.349 . S
C1387 C1385 1.327 . S
C1387 C1403 1.429 . S
C1387 H1409 0.950 . S
C1388 H1384 0.949 . S
C1388 C1396 1.574 . S
C1388 C1404 1.368 . S
H1389 C1397 0.950 . S
H1390 C1395 0.950 . S
H1391 C1396 0.949 . S
H1392 C1398 0.950 . S
H1393 C1399 0.950 . S
H1394 C1400 0.949 . S
C1395 H1390 0.950 . S
C1395 C1397 1.327 . S
C1395 C1401 1.429 . S
C1396 C1388 1.574 . S
C1396 H1391 0.949 . S
C1396 C1402 1.368 . S
C1397 C1381 1.349 . S
C1397 H1389 0.950 . S
C1397 C1395 1.327 . S
C1398 C1386 1.349 . S
C1398 H1392 0.950 . S
C1398 C1399 1.327 . S
C1399 H1393 0.950 . S
C1399 C1398 1.327 . S
C1399 C1403 1.429 . S
C1400 C1383 1.574 . S
C1400 H1394 0.949 . S
C1400 C1404 1.368 . S
C1401 C1382 1.429 . S
C1401 C1395 1.429 . S
C1401 C1402 1.523 . S
C1402 C1383 1.368 . S
C1402 C1396 1.368 . S
C1402 C1401 1.523 . S
C1403 C1387 1.429 . S
C1403 C1399 1.429 . S
C1403 C1404 1.523 . S
C1404 C1388 1.368 . S
C1404 C1400 1.368 . S
C1404 C1403 1.523 . S
H1405 C1380 0.950 . S
H1406 C1382 0.950 . S
H1407 C1383 0.949 . S
H1408 C1385 0.950 1_554 S
H1409 C1387 0.950 . S
C1410 C1411 1.349 . S
C1410 C1412 1.327 . S
C1410 H1435 0.950 . S
C1411 C1410 1.349 . S
C1411 C1427 1.349 . S
C1412 C1410 1.327 . S
C1412 C1431 1.429 . S
C1412 H1436 0.950 . S
C1413 C1430 1.574 . S
C1413 C1432 1.368 . S
C1413 H1437 0.949 . S
H1414 C1418 0.949 . S
C1415 C1416 1.349 . S
C1415 C1417 1.327 . S
C1415 H1438 0.950 . S
C1416 C1415 1.349 . S
C1416 C1428 1.349 . S
C1417 C1415 1.327 . S
C1417 C1433 1.429 . S
C1417 H1439 0.950 . S
C1418 H1414 0.949 . S
C1418 C1426 1.574 . S
C1418 C1434 1.368 . S
H1419 C1427 0.950 . S
H1420 C1425 0.950 . S
H1421 C1426 0.949 . S
H1422 C1428 0.950 . S
H1423 C1429 0.950 . S
H1424 C1430 0.949 . S
C1425 H1420 0.950 . S
C1425 C1427 1.327 . S
C1425 C1431 1.429 . S
C1426 C1418 1.574 . S
C1426 H1421 0.949 . S
C1426 C1432 1.368 . S
C1427 C1411 1.349 . S
C1427 H1419 0.950 . S
C1427 C1425 1.327 . S
C1428 C1416 1.349 . S
C1428 H1422 0.950 . S
C1428 C1429 1.327 . S
C1429 H1423 0.950 . S
C1429 C1428 1.327 . S
C1429 C1433 1.429 . S
C1430 C1413 1.574 . S
C1430 H1424 0.949 . S
C1430 C1434 1.368 . S
C1431 C1412 1.429 . S
C1431 C1425 1.429 . S
C1431 C1432 1.523 . S
C1432 C1413 1.368 . S
C1432 C1426 1.368 . S
C1432 C1431 1.523 . S
C1433 C1417 1.429 . S
C1433 C1429 1.429 . S
C1433 C1434 1.523 . S
C1434 C1418 1.368 . S
C1434 C1430 1.368 . S
C1434 C1433 1.523 . S
H1435 C1410 0.950 . S
H1436 C1412 0.950 . S
H1437 C1413 0.949 . S
H1438 C1415 0.950 . S
H1439 C1417 0.950 . S
C1440 C1441 1.349 . S
C1440 C1442 1.327 1_655 S
C1440 H1465 0.950 . S
C1441 C1440 1.349 . S
C1441 C1457 1.349 . S
C1442 C1440 1.327 1_455 S
C1442 C1461 1.429 . S
C1442 H1466 0.950 . S
C1443 C1460 1.574 . S
C1443 C1462 1.368 . S
C1443 H1467 0.949 . S
H1444 C1448 0.949 . S
C1445 C1446 1.349 . S
C1445 C1447 1.327 . S
C1445 H1468 0.950 . S
C1446 C1445 1.349 . S
C1446 C1458 1.349 . S
C1447 C1445 1.327 . S
C1447 C1463 1.429 . S
C1447 H1469 0.950 . S
C1448 H1444 0.949 . S
C1448 C1456 1.574 . S
C1448 C1464 1.368 . S
H1449 C1457 0.950 . S
H1450 C1455 0.950 1_455 S
H1451 C1456 0.949 . S
H1452 C1458 0.950 . S
H1453 C1459 0.950 . S
H1454 C1460 0.949 . S
C1455 H1450 0.950 1_655 S
C1455 C1457 1.327 . S
C1455 C1461 1.429 1_655 S
C1456 C1448 1.574 . S
C1456 H1451 0.949 . S
C1456 C1462 1.368 . S
C1457 C1441 1.349 . S
C1457 H1449 0.950 . S
C1457 C1455 1.327 . S
C1458 C1446 1.349 . S
C1458 H1452 0.950 . S
C1458 C1459 1.327 . S
C1459 H1453 0.950 . S
C1459 C1458 1.327 . S
C1459 C1463 1.429 . S
C1460 C1443 1.574 . S
C1460 H1454 0.949 . S
C1460 C1464 1.368 . S
C1461 C1442 1.429 . S
C1461 C1455 1.429 1_455 S
C1461 C1462 1.523 . S
C1462 C1443 1.368 . S
C1462 C1456 1.368 . S
C1462 C1461 1.523 . S
C1463 C1447 1.429 . S
C1463 C1459 1.429 . S
C1463 C1464 1.523 . S
C1464 C1448 1.368 . S
C1464 C1460 1.368 . S
C1464 C1463 1.523 . S
H1465 C1440 0.950 . S
H1466 C1442 0.950 . S
H1467 C1443 0.949 . S
H1468 C1445 0.950 . S
H1469 C1447 0.950 . S
C1470 C1471 1.349 . S
C1470 C1472 1.327 . S
C1470 H1495 0.950 . S
C1471 C1470 1.349 . S
C1471 C1487 1.349 . S
C1472 C1470 1.327 . S
C1472 C1491 1.429 . S
C1472 H1496 0.950 . S
C1473 C1490 1.574 . S
C1473 C1492 1.368 . S
C1473 H1497 0.949 . S
H1474 C1478 0.949 . S
C1475 C1476 1.349 . S
C1475 C1477 1.327 . S
C1475 H1498 0.950 . S
C1476 C1475 1.349 . S
C1476 C1488 1.349 . S
C1477 C1475 1.327 . S
C1477 C1493 1.429 . S
C1477 H1499 0.950 . S
C1478 H1474 0.949 . S
C1478 C1486 1.574 . S
C1478 C1494 1.368 . S
H1479 C1487 0.950 . S
H1480 C1485 0.950 . S
H1481 C1486 0.949 . S
H1482 C1488 0.950 . S
H1483 C1489 0.950 . S
H1484 C1490 0.949 . S
C1485 H1480 0.950 . S
C1485 C1487 1.327 . S
C1485 C1491 1.429 . S
C1486 C1478 1.574 . S
C1486 H1481 0.949 . S
C1486 C1492 1.368 . S
C1487 C1471 1.349 . S
C1487 H1479 0.950 . S
C1487 C1485 1.327 . S
C1488 C1476 1.349 . S
C1488 H1482 0.950 . S
C1488 C1489 1.327 . S
C1489 H1483 0.950 . S
C1489 C1488 1.327 . S
C1489 C1493 1.429 . S
C1490 C1473 1.574 . S
C1490 H1484 0.949 . S
C1490 C1494 1.368 . S
C1491 C1472 1.429 . S
C1491 C1485 1.429 . S
C1491 C1492 1.523 . S
C1492 C1473 1.368 . S
C1492 C1486 1.368 . S
C1492 C1491 1.523 . S
C1493 C1477 1.429 . S
C1493 C1489 1.429 . S
C1493 C1494 1.523 . S
C1494 C1478 1.368 . S
C1494 C1490 1.368 . S
C1494 C1493 1.523 . S
H1495 C1470 0.950 . S
H1496 C1472 0.950 . S
H1497 C1473 0.949 . S
H1498 C1475 0.950 . S
H1499 C1477 0.950 . S
C1500 C1501 1.349 . S
C1500 C1502 1.327 . S
C1500 H1525 0.950 . S
C1501 C1500 1.349 . S
C1501 C1517 1.349 . S
C1502 C1500 1.327 . S
C1502 C1521 1.429 . S
C1502 H1526 0.950 . S
C1503 C1520 1.574 . S
C1503 C1522 1.368 . S
C1503 H1527 0.949 . S
H1504 C1508 0.949 . S
C1505 C1506 1.349 . S
C1505 C1507 1.327 . S
C1505 H1528 0.950 . S
C1506 C1505 1.349 . S
C1506 C1518 1.349 . S
C1507 C1505 1.327 . S
C1507 C1523 1.429 . S
C1507 H1529 0.950 . S
C1508 H1504 0.949 . S
C1508 C1516 1.574 . S
C1508 C1524 1.368 . S
H1509 C1517 0.950 . S
H1510 C1515 0.950 . S
H1511 C1516 0.949 . S
H1512 C1518 0.950 . S
H1513 C1519 0.950 . S
H1514 C1520 0.949 . S
C1515 H1510 0.950 . S
C1515 C1517 1.327 . S
C1515 C1521 1.429 . S
C1516 C1508 1.574 . S
C1516 H1511 0.949 . S
C1516 C1522 1.368 . S
C1517 C1501 1.349 . S
C1517 H1509 0.950 . S
C1517 C1515 1.327 . S
C1518 C1506 1.349 . S
C1518 H1512 0.950 . S
C1518 C1519 1.327 . S
C1519 H1513 0.950 . S
C1519 C1518 1.327 . S
C1519 C1523 1.429 . S
C1520 C1503 1.574 . S
C1520 H1514 0.949 . S
C1520 C1524 1.368 . S
C1521 C1502 1.429 . S
C1521 C1515 1.429 . S
C1521 C1522 1.523 . S
C1522 C1503 1.368 . S
C1522 C1516 1.368 . S
C1522 C1521 1.523 . S
C1523 C1507 1.429 . S
C1523 C1519 1.429 . S
C1523 C1524 1.523 . S
C1524 C1508 1.368 . S
C1524 C1520 1.368 . S
C1524 C1523 1.523 . S
H1525 C1500 0.950 . S
H1526 C1502 0.950 . S
H1527 C1503 0.949 . S
H1528 C1505 0.950 . S
H1529 C1507 0.950 . S
C1530 C1531 1.349 . S
C1530 C1532 1.327 . S
C1530 H1555 0.950 . S
C1531 C1530 1.349 . S
C1531 C1547 1.349 . S
C1532 C1530 1.327 . S
C1532 C1551 1.429 . S
C1532 H1556 0.950 . S
C1533 C1550 1.574 . S
C1533 C1552 1.368 . S
C1533 H1557 0.949 . S
H1534 C1538 0.949 . S
C1535 C1536 1.349 . S
C1535 C1537 1.327 . S
C1535 H1558 0.950 . S
C1536 C1535 1.349 . S
C1536 C1548 1.349 . S
C1537 C1535 1.327 . S
C1537 C1553 1.429 . S
C1537 H1559 0.950 . S
C1538 H1534 0.949 . S
C1538 C1546 1.574 . S
C1538 C1554 1.368 . S
H1539 C1547 0.950 . S
H1540 C1545 0.950 . S
H1541 C1546 0.949 . S
H1542 C1548 0.950 . S
H1543 C1549 0.950 . S
H1544 C1550 0.949 . S
C1545 H1540 0.950 . S
C1545 C1547 1.327 . S
C1545 C1551 1.429 . S
C1546 C1538 1.574 . S
C1546 H1541 0.949 . S
C1546 C1552 1.368 . S
C1547 C1531 1.349 . S
C1547 H1539 0.950 . S
C1547 C1545 1.327 . S
C1548 C1536 1.349 . S
C1548 H1542 0.950 . S
C1548 C1549 1.327 . S
C1549 H1543 0.950 . S
C1549 C1548 1.327 . S
C1549 C1553 1.429 . S
C1550 C1533 1.574 . S
C1550 H1544 0.949 . S
C1550 C1554 1.368 . S
C1551 C1532 1.429 . S
C1551 C1545 1.429 . S
C1551 C1552 1.523 . S
C1552 C1533 1.368 . S
C1552 C1546 1.368 . S
C1552 C1551 1.523 . S
C1553 C1537 1.429 . S
C1553 C1549 1.429 . S
C1553 C1554 1.523 . S
C1554 C1538 1.368 . S
C1554 C1550 1.368 . S
C1554 C1553 1.523 . S
H1555 C1530 0.950 . S
H1556 C1532 0.950 . S
H1557 C1533 0.949 . S
H1558 C1535 0.950 . S
H1559 C1537 0.950 . S
C1560 C1561 1.349 . S
C1560 C1562 1.327 . S
C1560 H1585 0.950 . S
C1561 C1560 1.349 . S
C1561 C1577 1.349 . S
C1562 C1560 1.327 . S
C1562 C1581 1.429 1_655 S
C1562 H1586 0.949 . S
C1563 C1580 1.574 . S
C1563 C1582 1.368 . S
C1563 H1587 0.949 . S
H1564 C1568 0.949 . S
C1565 C1566 1.349 . S
C1565 C1567 1.327 . S
C1565 H1588 0.950 . S
C1566 C1565 1.349 . S
C1566 C1578 1.349 . S
C1567 C1565 1.327 . S
C1567 C1583 1.429 . S
C1567 H1589 0.950 . S
C1568 H1564 0.949 . S
C1568 C1576 1.574 . S
C1568 C1584 1.368 . S
H1569 C1577 0.950 . S
H1570 C1575 0.950 . S
H1571 C1576 0.949 . S
H1572 C1578 0.950 . S
H1573 C1579 0.950 . S
H1574 C1580 0.949 . S
C1575 H1570 0.950 . S
C1575 C1577 1.327 1_455 S
C1575 C1581 1.429 . S
C1576 C1568 1.574 . S
C1576 H1571 0.949 . S
C1576 C1582 1.368 . S
C1577 C1561 1.349 . S
C1577 H1569 0.950 . S
C1577 C1575 1.327 1_655 S
C1578 C1566 1.349 . S
C1578 H1572 0.950 . S
C1578 C1579 1.327 . S
C1579 H1573 0.950 . S
C1579 C1578 1.327 . S
C1579 C1583 1.429 . S
C1580 C1563 1.574 . S
C1580 H1574 0.949 . S
C1580 C1584 1.368 . S
C1581 C1562 1.429 1_455 S
C1581 C1575 1.429 . S
C1581 C1582 1.523 . S
C1582 C1563 1.368 . S
C1582 C1576 1.368 . S
C1582 C1581 1.523 . S
C1583 C1567 1.429 . S
C1583 C1579 1.429 . S
C1583 C1584 1.523 . S
C1584 C1568 1.368 . S
C1584 C1580 1.368 . S
C1584 C1583 1.523 . S
H1585 C1560 0.950 . S
H1586 C1562 0.949 . S
H1587 C1563 0.949 . S
H1588 C1565 0.950 . S
H1589 C1567 0.950 . S
C1590 C1591 1.349 . S
C1590 C1592 1.327 . S
C1590 H1615 0.950 . S
C1591 C1590 1.349 . S
C1591 C1607 1.349 . S
C1592 C1590 1.327 . S
C1592 C1611 1.429 . S
C1592 H1616 0.950 . S
C1593 C1610 1.574 . S
C1593 C1612 1.368 . S
C1593 H1617 0.949 . S
H1594 C1598 0.949 . S
C1595 C1596 1.349 . S
C1595 C1597 1.327 . S
C1595 H1618 0.950 . S
C1596 C1595 1.349 . S
C1596 C1608 1.349 . S
C1597 C1595 1.327 . S
C1597 C1613 1.429 . S
C1597 H1619 0.950 . S
C1598 H1594 0.949 . S
C1598 C1606 1.574 . S
C1598 C1614 1.368 . S
H1599 C1607 0.950 . S
H1600 C1605 0.950 . S
H1601 C1606 0.949 . S
H1602 C1608 0.950 . S
H1603 C1609 0.950 . S
H1604 C1610 0.949 . S
C1605 H1600 0.950 . S
C1605 C1607 1.327 . S
C1605 C1611 1.429 . S
C1606 C1598 1.574 . S
C1606 H1601 0.949 . S
C1606 C1612 1.368 . S
C1607 C1591 1.349 . S
C1607 H1599 0.950 . S
C1607 C1605 1.327 . S
C1608 C1596 1.349 . S
C1608 H1602 0.950 . S
C1608 C1609 1.327 . S
C1609 H1603 0.950 . S
C1609 C1608 1.327 . S
C1609 C1613 1.429 . S
C1610 C1593 1.574 . S
C1610 H1604 0.949 . S
C1610 C1614 1.368 . S
C1611 C1592 1.429 . S
C1611 C1605 1.429 . S
C1611 C1612 1.523 . S
C1612 C1593 1.368 . S
C1612 C1606 1.368 . S
C1612 C1611 1.523 . S
C1613 C1597 1.429 . S
C1613 C1609 1.429 . S
C1613 C1614 1.523 . S
C1614 C1598 1.368 . S
C1614 C1610 1.368 . S
C1614 C1613 1.523 . S
H1615 C1590 0.950 . S
H1616 C1592 0.950 . S
H1617 C1593 0.949 . S
H1618 C1595 0.950 . S
H1619 C1597 0.950 . S
C1620 C1621 1.349 . S
C1620 C1622 1.327 . S
C1620 H1645 0.950 . S
C1621 C1620 1.349 . S
C1621 C1637 1.349 . S
C1622 C1620 1.327 . S
C1622 C1641 1.429 . S
C1622 H1646 0.950 . S
C1623 C1640 1.574 . S
C1623 C1642 1.368 . S
C1623 H1647 0.949 . S
H1624 C1628 0.949 . S
C1625 C1626 1.349 . S
C1625 C1627 1.327 . S
C1625 H1648 0.950 . S
C1626 C1625 1.349 . S
C1626 C1638 1.349 . S
C1627 C1625 1.327 . S
C1627 C1643 1.429 . S
C1627 H1649 0.950 . S
C1628 H1624 0.949 . S
C1628 C1636 1.574 . S
C1628 C1644 1.368 . S
H1629 C1637 0.950 . S
H1630 C1635 0.950 . S
H1631 C1636 0.949 . S
H1632 C1638 0.950 . S
H1633 C1639 0.950 . S
H1634 C1640 0.949 . S
C1635 H1630 0.950 . S
C1635 C1637 1.327 . S
C1635 C1641 1.429 . S
C1636 C1628 1.574 . S
C1636 H1631 0.949 . S
C1636 C1642 1.368 . S
C1637 C1621 1.349 . S
C1637 H1629 0.950 . S
C1637 C1635 1.327 . S
C1638 C1626 1.349 . S
C1638 H1632 0.950 . S
C1638 C1639 1.327 . S
C1639 H1633 0.950 . S
C1639 C1638 1.327 . S
C1639 C1643 1.429 . S
C1640 C1623 1.574 . S
C1640 H1634 0.949 . S
C1640 C1644 1.368 . S
C1641 C1622 1.429 . S
C1641 C1635 1.429 . S
C1641 C1642 1.523 . S
C1642 C1623 1.368 . S
C1642 C1636 1.368 . S
C1642 C1641 1.523 . S
C1643 C1627 1.429 . S
C1643 C1639 1.429 . S
C1643 C1644 1.523 . S
C1644 C1628 1.368 . S
C1644 C1640 1.368 . S
C1644 C1643 1.523 . S
H1645 C1620 0.950 . S
H1646 C1622 0.950 . S
H1647 C1623 0.949 . S
H1648 C1625 0.950 . S
H1649 C1627 0.950 . S
C1650 C1651 1.349 . S
C1650 C1652 1.327 . S
C1650 H1675 0.950 . S
C1651 C1650 1.349 . S
C1651 C1667 1.349 . S
C1652 C1650 1.327 . S
C1652 C1671 1.429 1_565 S
C1652 H1676 0.950 1_565 S
C1653 C1670 1.574 . S
C1653 C1672 1.368 . S
C1653 H1677 0.949 . S
H1654 C1658 0.949 . S
C1655 C1656 1.349 . S
C1655 C1657 1.327 . S
C1655 H1678 0.950 . S
C1656 C1655 1.349 . S
C1656 C1668 1.349 . S
C1657 C1655 1.327 . S
C1657 C1673 1.429 . S
C1657 H1679 0.950 . S
C1658 H1654 0.949 . S
C1658 C1666 1.574 . S
C1658 C1674 1.368 . S
H1659 C1667 0.950 . S
H1660 C1665 0.950 . S
H1661 C1666 0.949 . S
H1662 C1668 0.950 . S
H1663 C1669 0.950 . S
H1664 C1670 0.949 . S
C1665 H1660 0.950 . S
C1665 C1667 1.327 1_545 S
C1665 C1671 1.429 . S
C1666 C1658 1.574 . S
C1666 H1661 0.949 . S
C1666 C1672 1.368 . S
C1667 C1651 1.349 . S
C1667 H1659 0.950 . S
C1667 C1665 1.327 1_565 S
C1668 C1656 1.349 . S
C1668 H1662 0.950 . S
C1668 C1669 1.327 . S
C1669 H1663 0.950 . S
C1669 C1668 1.327 . S
C1669 C1673 1.429 . S
C1670 C1653 1.574 . S
C1670 H1664 0.949 . S
C1670 C1674 1.368 . S
C1671 C1652 1.429 1_545 S
C1671 C1665 1.429 . S
C1671 C1672 1.523 . S
C1672 C1653 1.368 . S
C1672 C1666 1.368 . S
C1672 C1671 1.523 . S
C1673 C1657 1.429 . S
C1673 C1669 1.429 . S
C1673 C1674 1.523 . S
C1674 C1658 1.368 . S
C1674 C1670 1.368 . S
C1674 C1673 1.523 . S
H1675 C1650 0.950 . S
H1676 C1652 0.950 1_545 S
H1677 C1653 0.949 . S
H1678 C1655 0.950 . S
H1679 C1657 0.950 . S
C1680 C1681 1.349 . S
C1680 C1682 1.327 . S
C1680 H1705 0.950 . S
C1681 C1680 1.349 . S
C1681 C1697 1.349 . S
C1682 C1680 1.327 . S
C1682 C1701 1.429 . S
C1682 H1706 0.950 . S
C1683 C1700 1.574 . S
C1683 C1702 1.368 . S
C1683 H1707 0.949 . S
H1684 C1688 0.949 . S
C1685 C1686 1.349 . S
C1685 C1687 1.327 . S
C1685 H1708 0.950 . S
C1686 C1685 1.349 . S
C1686 C1698 1.349 . S
C1687 C1685 1.327 . S
C1687 C1703 1.429 . S
C1687 H1709 0.950 . S
C1688 H1684 0.949 . S
C1688 C1696 1.574 . S
C1688 C1704 1.368 . S
H1689 C1697 0.950 . S
H1690 C1695 0.950 . S
H1691 C1696 0.949 . S
H1692 C1698 0.950 . S
H1693 C1699 0.950 . S
H1694 C1700 0.949 . S
C1695 H1690 0.950 . S
C1695 C1697 1.327 . S
C1695 C1701 1.429 . S
C1696 C1688 1.574 . S
C1696 H1691 0.949 . S
C1696 C1702 1.368 . S
C1697 C1681 1.349 . S
C1697 H1689 0.950 . S
C1697 C1695 1.327 . S
C1698 C1686 1.349 . S
C1698 H1692 0.950 . S
C1698 C1699 1.327 . S
C1699 H1693 0.950 . S
C1699 C1698 1.327 . S
C1699 C1703 1.429 . S
C1700 C1683 1.574 . S
C1700 H1694 0.949 . S
C1700 C1704 1.368 . S
C1701 C1682 1.429 . S
C1701 C1695 1.429 . S
C1701 C1702 1.523 . S
C1702 C1683 1.368 . S
C1702 C1696 1.368 . S
C1702 C1701 1.523 . S
C1703 C1687 1.429 . S
C1703 C1699 1.429 . S
C1703 C1704 1.523 . S
C1704 C1688 1.368 . S
C1704 C1700 1.368 . S
C1704 C1703 1.523 . S
H1705 C1680 0.950 . S
H1706 C1682 0.950 . S
H1707 C1683 0.949 . S
H1708 C1685 0.950 . S
H1709 C1687 0.950 . S
C1710 C1711 1.349 . S
C1710 C1712 1.327 . S
C1710 H1735 0.950 . S
C1711 C1710 1.349 . S
C1711 C1727 1.349 . S
C1712 C1710 1.327 . S
C1712 C1731 1.429 . S
C1712 H1736 0.950 . S
C1713 C1730 1.574 . S
C1713 C1732 1.368 . S
C1713 H1737 0.949 . S
H1714 C1718 0.949 . S
C1715 C1716 1.349 . S
C1715 C1717 1.327 . S
C1715 H1738 0.950 . S
C1716 C1715 1.349 . S
C1716 C1728 1.349 . S
C1717 C1715 1.327 . S
C1717 C1733 1.429 . S
C1717 H1739 0.950 . S
C1718 H1714 0.949 . S
C1718 C1726 1.574 . S
C1718 C1734 1.368 . S
H1719 C1727 0.950 1_554 S
H1720 C1725 0.950 . S
H1721 C1726 0.949 . S
H1722 C1728 0.950 . S
H1723 C1729 0.950 . S
H1724 C1730 0.949 . S
C1725 H1720 0.950 . S
C1725 C1727 1.327 . S
C1725 C1731 1.429 . S
C1726 C1718 1.574 . S
C1726 H1721 0.949 . S
C1726 C1732 1.368 . S
C1727 C1711 1.349 . S
C1727 H1719 0.950 1_556 S
C1727 C1725 1.327 . S
C1728 C1716 1.349 . S
C1728 H1722 0.950 . S
C1728 C1729 1.327 . S
C1729 H1723 0.950 . S
C1729 C1728 1.327 . S
C1729 C1733 1.429 . S
C1730 C1713 1.574 . S
C1730 H1724 0.949 . S
C1730 C1734 1.368 . S
C1731 C1712 1.429 . S
C1731 C1725 1.429 . S
C1731 C1732 1.523 1_545 S
C1732 C1713 1.368 . S
C1732 C1726 1.368 . S
C1732 C1731 1.523 1_565 S
C1733 C1717 1.429 . S
C1733 C1729 1.429 . S
C1733 C1734 1.523 . S
C1734 C1718 1.368 . S
C1734 C1730 1.368 . S
C1734 C1733 1.523 . S
H1735 C1710 0.950 . S
H1736 C1712 0.950 . S
H1737 C1713 0.949 . S
H1738 C1715 0.950 . S
H1739 C1717 0.950 . S
C1740 C1741 1.349 . S
C1740 C1742 1.327 . S
C1740 H1765 0.950 . S
C1741 C1740 1.349 . S
C1741 C1757 1.349 . S
C1742 C1740 1.327 . S
C1742 C1761 1.429 . S
C1742 H1766 0.950 . S
C1743 C1760 1.574 . S
C1743 C1762 1.368 . S
C1743 H1767 0.949 . S
H1744 C1748 0.949 . S
C1745 C1746 1.349 . S
C1745 C1747 1.327 . S
C1745 H1768 0.950 . S
C1746 C1745 1.349 . S
C1746 C1758 1.349 . S
C1747 C1745 1.327 . S
C1747 C1763 1.429 . S
C1747 H1769 0.950 . S
C1748 H1744 0.949 . S
C1748 C1756 1.574 . S
C1748 C1764 1.368 . S
H1749 C1757 0.950 . S
H1750 C1755 0.950 . S
H1751 C1756 0.949 . S
H1752 C1758 0.950 . S
H1753 C1759 0.950 . S
H1754 C1760 0.949 . S
C1755 H1750 0.950 . S
C1755 C1757 1.327 . S
C1755 C1761 1.429 . S
C1756 C1748 1.574 . S
C1756 H1751 0.949 . S
C1756 C1762 1.368 . S
C1757 C1741 1.349 . S
C1757 H1749 0.950 . S
C1757 C1755 1.327 . S
C1758 C1746 1.349 . S
C1758 H1752 0.950 . S
C1758 C1759 1.327 . S
C1759 H1753 0.950 . S
C1759 C1758 1.327 . S
C1759 C1763 1.429 . S
C1760 C1743 1.574 . S
C1760 H1754 0.949 . S
C1760 C1764 1.368 . S
C1761 C1742 1.429 . S
C1761 C1755 1.429 . S
C1761 C1762 1.523 . S
C1762 C1743 1.368 . S
C1762 C1756 1.368 . S
C1762 C1761 1.523 . S
C1763 C1747 1.429 . S
C1763 C1759 1.429 . S
C1763 C1764 1.523 . S
C1764 C1748 1.368 . S
C1764 C1760 1.368 . S
C1764 C1763 1.523 . S
H1765 C1740 0.950 . S
H1766 C1742 0.950 . S
H1767 C1743 0.949 . S
H1768 C1745 0.950 . S
H1769 C1747 0.950 . S
C1770 C1771 1.349 . S
C1770 C1772 1.327 . S
C1770 H1795 0.950 . S
C1771 C1770 1.349 . S
C1771 C1787 1.349 . S
C1772 C1770 1.327 . S
C1772 C1791 1.429 . S
C1772 H1796 0.950 . S
C1773 C1790 1.574 . S
C1773 C1792 1.368 . S
C1773 H1797 0.949 . S
H1774 C1778 0.949 . S
C1775 C1776 1.349 . S
C1775 C1777 1.327 . S
C1775 H1798 0.950 . S
C1776 C1775 1.349 . S
C1776 C1788 1.349 . S
C1777 C1775 1.327 . S
C1777 C1793 1.429 . S
C1777 H1799 0.950 . S
C1778 H1774 0.949 . S
C1778 C1786 1.574 . S
C1778 C1794 1.368 . S
H1779 C1787 0.950 . S
H1780 C1785 0.950 . S
H1781 C1786 0.949 . S
H1782 C1788 0.950 . S
H1783 C1789 0.950 . S
H1784 C1790 0.949 . S
C1785 H1780 0.950 . S
C1785 C1787 1.327 . S
C1785 C1791 1.429 . S
C1786 C1778 1.574 . S
C1786 H1781 0.949 . S
C1786 C1792 1.368 . S
C1787 C1771 1.349 . S
C1787 H1779 0.950 . S
C1787 C1785 1.327 . S
C1788 C1776 1.349 . S
C1788 H1782 0.950 . S
C1788 C1789 1.327 . S
C1789 H1783 0.950 . S
C1789 C1788 1.327 . S
C1789 C1793 1.429 . S
C1790 C1773 1.574 . S
C1790 H1784 0.949 . S
C1790 C1794 1.368 . S
C1791 C1772 1.429 . S
C1791 C1785 1.429 . S
C1791 C1792 1.523 . S
C1792 C1773 1.368 . S
C1792 C1786 1.368 . S
C1792 C1791 1.523 . S
C1793 C1777 1.429 . S
C1793 C1789 1.429 . S
C1793 C1794 1.523 . S
C1794 C1778 1.368 . S
C1794 C1790 1.368 . S
C1794 C1793 1.523 . S
H1795 C1770 0.950 . S
H1796 C1772 0.950 . S
H1797 C1773 0.949 . S
H1798 C1775 0.950 . S
H1799 C1777 0.950 . S
C1800 C1801 1.349 . S
C1800 C1802 1.327 . S
C1800 H1825 0.950 . S
C1801 C1800 1.349 . S
C1801 C1817 1.349 . S
C1802 C1800 1.327 . S
C1802 C1821 1.429 . S
C1802 H1826 0.950 . S
C1803 C1820 1.574 . S
C1803 C1822 1.368 . S
C1803 H1827 0.949 . S
H1804 C1808 0.949 . S
C1805 C1806 1.349 . S
C1805 C1807 1.327 . S
C1805 H1828 0.950 . S
C1806 C1805 1.349 . S
C1806 C1818 1.349 . S
C1807 C1805 1.327 . S
C1807 C1823 1.429 . S
C1807 H1829 0.950 . S
C1808 H1804 0.949 . S
C1808 C1816 1.574 . S
C1808 C1824 1.368 . S
H1809 C1817 0.950 . S
H1810 C1815 0.950 . S
H1811 C1816 0.949 . S
H1812 C1818 0.950 . S
H1813 C1819 0.950 . S
H1814 C1820 0.949 . S
C1815 H1810 0.950 . S
C1815 C1817 1.327 . S
C1815 C1821 1.429 . S
C1816 C1808 1.574 . S
C1816 H1811 0.949 . S
C1816 C1822 1.368 . S
C1817 C1801 1.349 . S
C1817 H1809 0.950 . S
C1817 C1815 1.327 . S
C1818 C1806 1.349 . S
C1818 H1812 0.950 . S
C1818 C1819 1.327 . S
C1819 H1813 0.950 . S
C1819 C1818 1.327 . S
C1819 C1823 1.429 . S
C1820 C1803 1.574 . S
C1820 H1814 0.949 . S
C1820 C1824 1.368 . S
C1821 C1802 1.429 . S
C1821 C1815 1.429 . S
C1821 C1822 1.523 . S
C1822 C1803 1.368 . S
C1822 C1816 1.368 . S
C1822 C1821 1.523 . S
C1823 C1807 1.429 . S
C1823 C1819 1.429 . S
C1823 C1824 1.523 . S
C1824 C1808 1.368 . S
C1824 C1820 1.368 . S
C1824 C1823 1.523 . S
H1825 C1800 0.950 . S
H1826 C1802 0.950 . S
H1827 C1803 0.949 . S
H1828 C1805 0.950 . S
H1829 C1807 0.950 . S
C1830 C1831 1.349 . S
C1830 C1832 1.327 . S
C1830 H1855 0.950 . S
C1831 C1830 1.349 . S
C1831 C1847 1.349 . S
C1832 C1830 1.327 . S
C1832 C1851 1.429 . S
C1832 H1856 0.950 . S
C1833 C1850 1.574 . S
C1833 C1852 1.368 . S
C1833 H1857 0.949 . S
H1834 C1838 0.949 . S
C1835 C1836 1.349 . S
C1835 C1837 1.327 . S
C1835 H1858 0.950 . S
C1836 C1835 1.349 . S
C1836 C1848 1.349 . S
C1837 C1835 1.327 . S
C1837 C1853 1.429 . S
C1837 H1859 0.950 . S
C1838 H1834 0.949 . S
C1838 C1846 1.574 . S
C1838 C1854 1.368 . S
H1839 C1847 0.950 . S
H1840 C1845 0.950 . S
H1841 C1846 0.949 . S
H1842 C1848 0.950 . S
H1843 C1849 0.950 . S
H1844 C1850 0.949 . S
C1845 H1840 0.950 . S
C1845 C1847 1.327 . S
C1845 C1851 1.429 . S
C1846 C1838 1.574 . S
C1846 H1841 0.949 . S
C1846 C1852 1.368 . S
C1847 C1831 1.349 . S
C1847 H1839 0.950 . S
C1847 C1845 1.327 . S
C1848 C1836 1.349 . S
C1848 H1842 0.950 . S
C1848 C1849 1.327 . S
C1849 H1843 0.950 . S
C1849 C1848 1.327 . S
C1849 C1853 1.429 . S
C1850 C1833 1.574 . S
C1850 H1844 0.949 . S
C1850 C1854 1.368 . S
C1851 C1832 1.429 . S
C1851 C1845 1.429 . S
C1851 C1852 1.523 . S
C1852 C1833 1.368 . S
C1852 C1846 1.368 . S
C1852 C1851 1.523 . S
C1853 C1837 1.429 . S
C1853 C1849 1.429 . S
C1853 C1854 1.523 . S
C1854 C1838 1.368 . S
C1854 C1850 1.368 . S
C1854 C1853 1.523 . S
H1855 C1830 0.950 . S
H1856 C1832 0.950 . S
H1857 C1833 0.949 . S
H1858 C1835 0.950 . S
H1859 C1837 0.950 . S
C426 C416 1.180 . S
C421 C8 1.248 . S
C451 C23 1.033 . S
C456 C345 0.915 . S
C481 C35 1.269 . S
C486 C374 1.191 . S
C516 C387 0.867 . S
C511 C45 0.998 . S
C541 C22 1.240 . S
C546 C408 1.113 . S
C576 C353 0.890 . S
C571 C31 0.958 . S
C606 C366 1.107 . S
C601 C49 1.252 . S
C636 C395 0.926 . S
C631 C9 0.988 . S
C661 C65 1.219 . S
C666 C397 1.169 . S
C696 C411 0.916 . S
C691 C73 1.011 . S
C726 C355 1.192 . S
C721 C93 1.242 . S
C756 C369 0.867 . S
C751 C101 0.958 . S
C781 C59 1.205 . S
C786 C348 1.138 . S
C811 C79 0.996 . S
C816 C376 0.904 . S
C841 C87 1.199 . S
C846 C390 1.126 . S
C876 C418 0.983 . S
C871 C107 1.086 . S
C906 C227 1.248 . S
C901 C106 1.313 . S
C936 C208 1.114 . S
C931 C119 1.213 . S
C966 C222 0.957 . S
C961 C134 1.041 . S
C996 C243 1.107 . S
C991 C147 1.191 . S
C1021 C64 1.025 . S
C1026 C229 0.916 . S
C1051 C78 1.268 . S
C1056 C180 1.196 . S
C1081 C133 1.020 . S
C1086 C240 0.861 . S
C1111 C161 0.993 . S
C1116 C206 0.887 . S
C1146 C269 1.177 . S
C1141 C36 1.245 . S
C1176 C282 0.907 . S
C1171 C51 1.023 . S
C1201 C7 1.265 . S
C1206 C311 1.187 . S
C1231 C17 0.996 . S
C1236 C324 0.866 . S
C1266 C261 1.111 . S
C1261 C50 1.238 . S
C1296 C290 0.890 . S
C1291 C3 0.957 . S
C1321 C21 1.261 . S
C1326 C303 1.114 . S
C1356 C332 0.928 . S
C1351 C37 0.987 . S
C1381 C163 1.231 . S
C1386 C334 1.180 . S
C1411 C115 0.997 . S
C1416 C264 0.907 . S
C1446 C292 1.198 . S
C1441 C135 1.250 . S
C1471 C143 0.936 . S
C1476 C306 0.854 . S
C1506 C285 1.150 . S
C1501 C157 1.219 . S
C1531 C121 0.987 . S
C1536 C313 0.898 . S
C1566 C327 1.132 . S
C1561 C129 1.206 . S
C1596 C271 0.970 . S
C1591 C149 1.072 . S
C1626 C187 1.197 . S
C1621 C148 1.304 . S
C1656 C250 1.138 . S
C1651 C77 1.243 . S
C1681 C92 1.050 . S
C1686 C177 0.916 . S
C1716 C201 1.133 . S
C1711 C105 1.220 . S
C1746 C185 0.937 . S
C1741 C162 1.018 . S
C1771 C120 1.267 . S
C1776 C219 1.144 . S
C1801 C91 0.990 . S
C1806 C198 0.845 . S
C1831 C63 0.962 . S
C1836 C248 0.866 . S
