# Generated by pormake.
# Topology pyr, (3,6)-cn, num edge types: 1
# Building blocks:
#     Node 0, Type 0, BuildingBlock: CUQRIR_clean_linker_1, # of connection points: 3
#     Node 1, Type 0, BuildingBlock: CUQRIR_clean_linker_1, # of connection points: 3
#     Node 2, Type 0, BuildingBlock: CUQRIR_clean_linker_1, # of connection points: 3
#     Node 3, Type 0, BuildingBlock: CUQRIR_clean_linker_1, # of connection points: 3
#     Node 4, Type 0, BuildingBlock: CUQRIR_clean_linker_1, # of connection points: 3
#     Node 5, Type 0, BuildingBlock: CUQRIR_clean_linker_1, # of connection points: 3
#     Node 6, Type 0, BuildingBlock: CUQRIR_clean_linker_1, # of connection points: 3
#     Node 7, Type 0, BuildingBlock: CUQRIR_clean_linker_1, # of connection points: 3
#     Node 8, Type 1, BuildingBlock: JUFBIX_clean_sbu_0, # of connection points: 6
#     Node 9, Type 1, BuildingBlock: JUFBIX_clean_sbu_0, # of connection points: 6
#     Node 10, Type 1, BuildingBlock: JUFBIX_clean_sbu_0, # of connection points: 6
#     Node 11, Type 1, BuildingBlock: JUFBIX_clean_sbu_0, # of connection points: 6
#     Edge 12, Type (0, 1), BuildingBlock: MIFKUJ_clean_linker_0, # of connection points: 2
#     Edge 13, Type (0, 1), BuildingBlock: MIFKUJ_clean_linker_0, # of connection points: 2
#     Edge 14, Type (0, 1), BuildingBlock: MIFKUJ_clean_linker_0, # of connection points: 2
#     Edge 15, Type (0, 1), BuildingBlock: MIFKUJ_clean_linker_0, # of connection points: 2
#     Edge 16, Type (0, 1), BuildingBlock: MIFKUJ_clean_linker_0, # of connection points: 2
#     Edge 17, Type (0, 1), BuildingBlock: MIFKUJ_clean_linker_0, # of connection points: 2
#     Edge 18, Type (0, 1), BuildingBlock: MIFKUJ_clean_linker_0, # of connection points: 2
#     Edge 19, Type (0, 1), BuildingBlock: MIFKUJ_clean_linker_0, # of connection points: 2
#     Edge 20, Type (0, 1), BuildingBlock: MIFKUJ_clean_linker_0, # of connection points: 2
#     Edge 21, Type (0, 1), BuildingBlock: MIFKUJ_clean_linker_0, # of connection points: 2
#     Edge 22, Type (0, 1), BuildingBlock: MIFKUJ_clean_linker_0, # of connection points: 2
#     Edge 23, Type (0, 1), BuildingBlock: MIFKUJ_clean_linker_0, # of connection points: 2
#     Edge 24, Type (0, 1), BuildingBlock: MIFKUJ_clean_linker_0, # of connection points: 2
#     Edge 25, Type (0, 1), BuildingBlock: MIFKUJ_clean_linker_0, # of connection points: 2
#     Edge 26, Type (0, 1), BuildingBlock: MIFKUJ_clean_linker_0, # of connection points: 2
#     Edge 27, Type (0, 1), BuildingBlock: MIFKUJ_clean_linker_0, # of connection points: 2
#     Edge 28, Type (0, 1), BuildingBlock: MIFKUJ_clean_linker_0, # of connection points: 2
#     Edge 29, Type (0, 1), BuildingBlock: MIFKUJ_clean_linker_0, # of connection points: 2
#     Edge 30, Type (0, 1), BuildingBlock: MIFKUJ_clean_linker_0, # of connection points: 2
#     Edge 31, Type (0, 1), BuildingBlock: MIFKUJ_clean_linker_0, # of connection points: 2
#     Edge 32, Type (0, 1), BuildingBlock: MIFKUJ_clean_linker_0, # of connection points: 2
#     Edge 33, Type (0, 1), BuildingBlock: MIFKUJ_clean_linker_0, # of connection points: 2
#     Edge 34, Type (0, 1), BuildingBlock: MIFKUJ_clean_linker_0, # of connection points: 2
#     Edge 35, Type (0, 1), BuildingBlock: MIFKUJ_clean_linker_0, # of connection points: 2
# Relax obj value: 0.121
# Max RMSD: 0.216
# Mean RMSD: 0.151
data_MOF--net-pry--node1-JUFBIX_clean_sbu_0--node2-CUQRIR_clean_linker_1--edge1-MIFKUJ_clean_linker_0
_symmetry_space_group_name_H-M    P1
_symmetry_Int_Tables_number       1
_symmetry_cell_setting            triclinic
loop_
_symmetry_equiv_pos_as_xyz
'x, y, z'
_cell_length_a     45.826041
_cell_length_b     43.774065
_cell_length_c     44.960828
_cell_angle_alpha  83.823856
_cell_angle_beta   91.40396
_cell_angle_gamma 94.646398
loop_
_atom_site_label
_atom_site_type_symbol
_atom_site_fract_x
_atom_site_fract_y
_atom_site_fract_z
_atom_type_partial_charge
C0 C 0.1734 0.20406 0.18321 0.0
N1 N 0.19156 0.18108 0.19028 0.0
N2 N 0.18163 0.22196 0.15776 0.0
C3 C 0.14809 0.20981 0.20208 0.0
C4 C 0.20592 0.20902 0.14966 0.0
N5 N 0.21215 0.18411 0.16923 0.0
C6 C 0.22354 0.22083 0.12242 0.0
H7 H 0.12826 0.19592 0.19513 0.0
H8 H 0.14363 0.23449 0.19923 0.0
H9 H 0.15252 0.20279 0.22611 0.0
H10 H 0.2406 0.23856 0.12868 0.0
H11 H 0.20941 0.23166 0.10457 0.0
H12 H 0.23464 0.20228 0.1135 0.0
C13 C 0.38393 0.84446 0.6447 0.0
N14 N 0.3803 0.86773 0.66135 0.0
N15 N 0.41159 0.83584 0.64782 0.0
C16 C 0.36107 0.83134 0.62396 0.0
C17 C 0.42484 0.85494 0.66669 0.0
N18 N 0.40581 0.8746 0.67468 0.0
C19 C 0.45524 0.85227 0.67962 0.0
H20 H 0.3477 0.81215 0.63648 0.0
H21 H 0.37141 0.82224 0.60502 0.0
H22 H 0.34632 0.84914 0.61503 0.0
H23 H 0.47075 0.86844 0.66593 0.0
H24 H 0.46211 0.82858 0.67937 0.0
H25 H 0.45654 0.8585 0.70293 0.0
C26 C 0.66679 0.36055 0.8314 0.0
N27 N 0.68193 0.35209 0.85679 0.0
N28 N 0.67779 0.38834 0.81856 0.0
C29 C 0.6399 0.34282 0.82036 0.0
C30 C 0.70005 0.3966 0.83712 0.0
N31 N 0.70244 0.37464 0.86048 0.0
C32 C 0.71961 0.42594 0.83218 0.0
H33 H 0.6466 0.32639 0.80515 0.0
H34 H 0.62494 0.3585 0.80787 0.0
H35 H 0.62797 0.32947 0.83927 0.0
H36 H 0.7092 0.44443 0.84206 0.0
H37 H 0.72245 0.43305 0.80792 0.0
H38 H 0.74138 0.4235 0.84307 0.0
C39 C 0.94217 0.63189 0.3985 0.0
N40 N 0.96616 0.65145 0.39213 0.0
N41 N 0.92854 0.63921 0.42288 0.0
C42 C 0.93019 0.60786 0.37891 0.0
C43 C 0.94515 0.66398 0.43112 0.0
N44 N 0.96791 0.67145 0.41243 0.0
C45 C 0.93669 0.68335 0.45477 0.0
H46 H 0.92233 0.61944 0.35736 0.0
H47 H 0.91195 0.59284 0.38974 0.0
H48 H 0.94773 0.59326 0.37387 0.0
H49 H 0.92966 0.66838 0.47522 0.0
H50 H 0.91785 0.6964 0.44637 0.0
H51 H 0.95501 0.69985 0.4607 0.0
C52 C 0.82107 0.86832 0.87928 0.0
N53 N 0.84233 0.86295 0.86018 0.0
N54 N 0.80567 0.89244 0.86811 0.0
C55 C 0.81483 0.84936 0.90872 0.0
C56 C 0.81856 0.90152 0.84122 0.0
N57 N 0.84076 0.88366 0.83612 0.0
C58 C 0.81085 0.92944 0.82098 0.0
H59 H 0.82038 0.82523 0.90823 0.0
H60 H 0.79146 0.84936 0.91463 0.0
H61 H 0.82848 0.85948 0.92647 0.0
H62 H 0.80109 0.94626 0.83378 0.0
H63 H 0.79458 0.92216 0.80393 0.0
H64 H 0.8305 0.94087 0.80928 0.0
C65 C 0.6705 0.182 0.4459 0.0
N66 N 0.67176 0.16086 0.42619 0.0
N67 N 0.64461 0.19494 0.4433 0.0
C68 C 0.69412 0.18964 0.46836 0.0
C69 C 0.62992 0.18052 0.42161 0.0
N70 N 0.64627 0.15957 0.41152 0.0
C71 C 0.60168 0.19045 0.40721 0.0
H72 H 0.68443 0.19744 0.48835 0.0
H73 H 0.70947 0.20863 0.45833 0.0
H74 H 0.70664 0.1693 0.47523 0.0
H75 H 0.60385 0.21563 0.40042 0.0
H76 H 0.58389 0.18578 0.42376 0.0
H77 H 0.59529 0.17834 0.38735 0.0
C78 C 0.32748 0.66239 0.17489 0.0
N79 N 0.35048 0.67897 0.18636 0.0
N80 N 0.31403 0.67983 0.15287 0.0
C81 C 0.31666 0.63006 0.18662 0.0
C82 C 0.32935 0.70761 0.15145 0.0
N83 N 0.3514 0.70722 0.17205 0.0
C84 C 0.32396 0.73429 0.12849 0.0
H85 H 0.3283 0.61357 0.17509 0.0
H86 H 0.29282 0.62577 0.18223 0.0
H87 H 0.32108 0.62572 0.21102 0.0
H88 H 0.3104 0.75026 0.13853 0.0
H89 H 0.3121 0.72633 0.10857 0.0
H90 H 0.3449 0.74714 0.12133 0.0
C91 C 0.11308 0.35584 0.64484 0.0
N92 N 0.12551 0.35301 0.61839 0.0
N93 N 0.12516 0.38112 0.6567 0.0
C94 C 0.08865 0.33436 0.65866 0.0
C95 C 0.14539 0.39358 0.63652 0.0
N96 N 0.14535 0.3767 0.61294 0.0
C97 C 0.16761 0.4199 0.64172 0.0
H98 H 0.07531 0.34637 0.67332 0.0
H99 H 0.09818 0.3149 0.67239 0.0
H100 H 0.07435 0.32476 0.64109 0.0
H101 H 0.17065 0.4225 0.6659 0.0
H102 H 0.15989 0.44159 0.63031 0.0
H103 H 0.18914 0.41638 0.63242 0.0
Co104 Co 1.00926 0.01538 0.50205 0.0
C105 C 0.03775 0.96055 0.50047 0.0
Co106 Co 0.05158 0.01326 0.52585 0.0
C107 C 0.95867 0.0323 0.46492 0.0
C108 C 0.95484 0.98597 0.48605 0.0
N109 N 0.97306 0.01185 0.48321 0.0
N110 N 0.9322 0.02 0.45619 0.0
C111 C 0.92986 0.99086 0.46953 0.0
H112 H 0.96734 0.05575 0.45843 0.0
H113 H 0.95921 0.96495 0.4998 0.0
C114 C 0.02378 0.06836 0.5267 0.0
N115 N 0.08757 0.01665 0.54484 0.0
C116 C 0.10007 0.99669 0.56525 0.0
C117 C 0.10718 0.04133 0.54088 0.0
N118 N 0.12686 0.00794 0.57417 0.0
C119 C 0.1313 0.03606 0.55874 0.0
C120 C 0.05553 0.0373 0.46392 0.0
O121 O 1.00374 0.05636 0.51058 0.0
O122 O 0.04529 0.05303 0.53547 0.0
O123 O 0.06989 0.03109 0.4882 0.0
O124 O 0.02773 0.03193 0.46443 0.0
O125 O 0.05792 0.97302 0.51608 0.0
H126 H 0.10418 0.06184 0.52577 0.0
H127 H 0.08958 0.97443 0.57335 0.0
O128 O 0.01537 0.97507 0.49313 0.0
O129 O 0.99081 0.9986 0.54008 0.0
O130 O 0.03308 0.99561 0.56327 0.0
C131 C 1.00521 0.99137 0.56415 0.0
H132 H 0.91089 0.97456 0.46856 0.0
H133 H 0.15088 0.05152 0.55951 0.0
Co134 Co 0.50037 0.0301 0.01545 0.0
C135 C 0.50093 0.98346 0.06357 0.0
Co136 Co 0.52888 0.04071 0.05356 0.0
C137 C 0.47824 0.01834 0.95646 0.0
C138 C 0.44538 0.01062 0.99004 0.0
N139 N 0.47394 0.01966 0.98586 0.0
N140 N 0.45344 0.00871 0.94213 0.0
C141 C 0.43274 1.00404 0.9633 0.0
H142 H 0.49935 0.02355 0.94603 0.0
H143 H 0.43447 0.00851 0.01131 0.0
C144 C 0.52885 0.08731 1.00571 0.0
N145 N 0.5556 0.0515 0.08276 0.0
C146 C 0.55246 0.05233 0.11242 0.0
C147 C 0.58355 0.06242 0.07723 0.0
N148 N 0.57737 0.06358 0.12546 0.0
C149 C 0.59695 0.06979 0.10335 0.0
C150 C 0.55695 0.01168 1.0084 0.0
O151 O 0.51112 0.06872 0.99306 0.0
O152 O 0.5383 0.07945 0.03192 0.0
O153 O 0.56036 0.023 0.03337 0.0
O154 O 0.53157 0.01179 0.99609 0.0
O155 O 0.51943 1.00196 0.07531 0.0
H156 H 0.59341 0.06556 0.05539 0.0
H157 H 0.53206 0.04592 0.12396 0.0
O158 O 0.49006 0.99148 0.03788 0.0
O159 O 0.46924 0.04851 0.03495 0.0
O160 O 0.49699 0.05817 0.0735 0.0
C161 C 0.47192 0.05891 0.0604 0.0
H162 H 0.40999 0.99633 0.95986 0.0
H163 H 0.61931 0.07931 0.10578 0.0
Co164 Co 0.54413 0.54641 0.4897 0.0
C165 C 0.4988 0.548 0.44701 0.0
Co166 Co 0.50366 0.51804 0.50346 0.0
C167 C 0.60485 0.56854 0.48179 0.0
C168 C 0.57543 0.60077 0.46185 0.0
N169 N 0.57614 0.57276 0.47753 0.0
N170 N 0.62202 0.59271 0.46913 0.0
C171 C 0.60361 0.613 0.45649 0.0
H172 H 0.613 0.5479 0.49342 0.0
H173 H 0.55566 0.61156 0.4547 0.0
C174 C 0.54939 0.51722 0.54619 0.0
N175 N 0.4719 0.4908 0.51557 0.0
C176 C 0.44288 0.49155 0.50951 0.0
C177 C 0.47466 0.46295 0.53097 0.0
N178 N 0.42766 0.46505 0.5203 0.0
C179 C 0.44766 0.44721 0.53397 0.0
C180 C 0.54493 0.48785 0.47507 0.0
O181 O 0.56301 0.53562 0.52659 0.0
O182 O 0.52331 0.50698 0.54058 0.0
O183 O 0.51981 0.48578 0.48667 0.0
O184 O 0.56034 0.51341 0.47351 0.0
O185 O 0.48453 0.52964 0.4663 0.0
H186 H 0.49519 0.4542 0.53883 0.0
H187 H 0.43328 0.51062 0.49655 0.0
O188 O 0.52506 0.55723 0.45288 0.0
O189 O 0.52778 0.57897 0.50615 0.0
O190 O 0.48775 0.5506 0.5203 0.0
C191 C 0.50299 0.57631 0.51865 0.0
H192 H 0.6101 0.63517 0.44444 0.0
H193 H 0.44313 0.42428 0.54532 0.0
Co194 Co 1.01093 0.53352 0.98399 0.0
C195 C 0.95528 0.50374 0.99471 0.0
Co196 Co 0.99329 0.53841 0.02826 0.0
C197 C 0.04547 0.51661 0.93551 0.0
C198 C 1.00869 0.54157 0.9203 0.0
N199 N 0.0229 0.53063 0.94537 0.0
N200 N 0.04591 0.51872 0.90532 0.0
C201 C 0.02282 0.53445 0.89577 0.0
H202 H 0.061 0.50472 0.95012 0.0
H203 H 0.98867 0.55312 0.91976 0.0
C204 C 0.04896 0.56763 0.0174 0.0
N205 N 0.98099 0.54118 0.06682 0.0
C206 C 0.98698 0.56427 0.08427 0.0
C207 C 0.96773 0.51796 0.08505 0.0
N208 N 0.97848 0.55609 0.11276 0.0
C209 C 0.96623 0.52702 0.11327 0.0
C210 C 0.02711 0.48611 0.02634 0.0
O211 O 0.04635 0.55652 0.99242 0.0
O212 O 0.02813 0.56276 0.03586 0.0
O213 O 0.01273 0.50117 0.04302 0.0
O214 O 0.02869 0.49579 0.9986 0.0
O215 O 0.95842 0.51395 0.02009 0.0
H216 H 0.96092 0.49533 0.0786 0.0
H217 H 0.99896 0.58595 0.07673 0.0
O218 O 0.97549 0.51009 0.97567 0.0
O219 O 0.9933 0.57173 0.97004 0.0
O220 O 0.97418 0.57561 0.01337 0.0
C221 C 0.97792 0.58636 0.98607 0.0
H222 H 0.0158 0.5392 0.87268 0.0
H223 H 0.95756 0.513 0.13287 0.0
H224 H 0.21965 0.1766 0.24433 0.0
H225 H 0.19958 0.14895 0.29099 0.0
H226 H 0.12874 0.10744 0.24052 0.0
H227 H 0.14909 0.1348 0.19419 0.0
H228 H 0.10761 0.13431 0.2863 0.0
H229 H 0.18162 0.06442 0.2765 0.0
H230 H 0.23195 0.05011 0.27073 0.0
H231 H 0.25805 0.0869 0.35294 0.0
H232 H 0.20795 0.10187 0.35898 0.0
H233 H 0.03487 0.04012 0.40548 0.0
H234 H 0.0605 0.06029 0.35953 0.0
H235 H 0.13724 0.0857 0.41153 0.0
H236 H 0.11203 0.06409 0.45743 0.0
H237 H 0.15653 0.06752 0.36506 0.0
H238 H 0.08532 0.13942 0.3752 0.0
H239 H 0.03624 0.15685 0.38168 0.0
H240 H 1.00643 0.12084 0.30015 0.0
H241 H 0.05525 0.10284 0.29337 0.0
C242 C 0.20069 0.16031 0.24309 0.0
C243 C 0.18659 0.1572 0.21525 0.0
C244 C 0.18885 0.14478 0.26992 0.0
C245 C 0.1623 0.12595 0.26975 0.0
C246 C 0.14909 0.12171 0.24171 0.0
C247 C 0.16109 0.13692 0.21501 0.0
C248 C 0.14718 0.11243 0.2985 0.0
C249 C 0.11826 0.11934 0.30328 0.0
C250 C 0.16102 0.09369 0.32153 0.0
C251 C 0.19109 0.08455 0.31803 0.0
C252 C 0.19814 0.0697 0.29323 0.0
C253 C 0.22663 0.06142 0.28993 0.0
C254 C 0.24821 0.06766 0.31142 0.0
C255 C 0.24132 0.08212 0.33629 0.0
C256 C 0.21288 0.09048 0.33967 0.0
C257 C 0.05719 0.05005 0.40722 0.0
C258 C 0.07114 0.05043 0.4355 0.0
C259 C 0.07194 0.06191 0.38071 0.0
C260 C 0.101 0.07545 0.38142 0.0
C261 C 0.11499 0.0756 0.40975 0.0
C262 C 0.1004 0.06325 0.43623 0.0
C263 C 0.11672 0.08921 0.35291 0.0
C264 C 0.14578 0.08247 0.34816 0.0
C265 C 0.10319 0.10859 0.33003 0.0
C266 C 0.07386 0.11951 0.33394 0.0
C267 C 0.06824 0.13505 0.35875 0.0
C268 C 0.04048 0.14505 0.36247 0.0
C269 C 0.01821 0.13988 0.34138 0.0
C270 C 0.02369 0.12479 0.31649 0.0
C271 C 0.05141 0.1147 0.31268 0.0
H272 H 0.99673 0.14763 0.34431 0.0
H273 H 0.27024 0.06123 0.30883 0.0
H274 H 0.44766 0.9215 0.6743 0.0
H275 H 0.45802 0.95574 0.7139 0.0
H276 H 0.38526 0.90922 0.76411 0.0
H277 H 0.37522 0.87512 0.7247 0.0
H278 H 0.38804 0.97179 0.76561 0.0
H279 H 0.45382 0.88932 0.77819 0.0
H280 H 0.49226 0.85916 0.76131 0.0
H281 H 0.55132 0.94076 0.75046 0.0
H282 H 0.51299 0.97151 0.76679 0.0
H283 H 0.4112 0.97096 0.91864 0.0
H284 H 0.40545 0.96006 0.867 0.0
H285 H 0.48232 0.0204 0.84332 0.0
H286 H 0.488 0.0322 0.89531 0.0
H287 H 0.48233 0.96351 0.82148 0.0
H288 H 0.41826 0.04353 0.81941 0.0
H289 H 0.3793 0.07245 0.83709 0.0
H290 H 0.3167 0.99521 0.82899 0.0
H291 H 0.35536 0.96562 0.8117 0.0
C292 C 0.43392 0.91894 0.6938 0.0
C293 C 0.41073 0.8959 0.69675 0.0
C294 C 0.43973 0.93841 0.71625 0.0
C295 C 0.42246 0.93487 0.74195 0.0
C296 C 0.3987 0.91245 0.74436 0.0
C297 C 0.39297 0.89303 0.72197 0.0
C298 C 0.43003 0.95286 0.76744 0.0
C299 C 0.40865 0.97007 0.77784 0.0
C300 C 0.45732 0.95134 0.78274 0.0
C301 C 0.48044 0.93277 0.77333 0.0
C302 C 0.47493 0.90087 0.77198 0.0
C303 C 0.4967 0.88366 0.76253 0.0
C304 C 0.52419 0.89805 0.75472 0.0
C305 C 0.52999 0.92966 0.75644 0.0
C306 C 0.50825 0.94699 0.76578 0.0
C307 C 0.42664 0.98251 0.90254 0.0
C308 C 0.44997 1.0027 0.91127 0.0
C309 C 0.42332 0.97615 0.87293 0.0
C310 C 0.44319 0.9898 0.85129 0.0
C311 C 0.46666 0.0098 0.85974 0.0
C312 C 0.46994 0.01636 0.88948 0.0
C313 C 0.43988 0.98151 0.8203 0.0
C314 C 0.46204 0.96606 0.80883 0.0
C315 C 0.41324 0.98456 0.80407 0.0
C316 C 0.3898 1.0023 0.81435 0.0
C317 C 0.39623 0.03262 0.82158 0.0
C318 C 0.37418 0.04915 0.83152 0.0
C319 C 0.34555 0.03567 0.83419 0.0
C320 C 0.33889 0.00563 0.82689 0.0
C321 C 0.36087 0.98899 0.81697 0.0
H322 H 0.32851 0.0485 0.84189 0.0
H323 H 0.54102 0.88469 0.74742 0.0
H324 H 0.67121 0.36687 0.76484 0.0
H325 H 0.65194 0.39371 0.71881 0.0
H326 H 0.64405 0.47434 0.76465 0.0
H327 H 0.66212 0.44676 0.81106 0.0
H328 H 0.59659 0.46326 0.73316 0.0
H329 H 0.69854 0.47154 0.71341 0.0
H330 H 0.74779 0.45366 0.70931 0.0
H331 H 0.71594 0.39645 0.64182 0.0
H332 H 0.66637 0.41361 0.64583 0.0
H333 H 0.60343 0.53761 0.56645 0.0
H334 H 0.62759 0.52084 0.61378 0.0
H335 H 0.5529 0.4572 0.63765 0.0
H336 H 0.52833 0.47431 0.59073 0.0
H337 H 0.64515 0.46721 0.63524 0.0
H338 H 0.54369 0.44927 0.71217 0.0
H339 H 0.49653 0.47172 0.71667 0.0
H340 H 0.53178 0.55743 0.67092 0.0
H341 H 0.57926 0.53565 0.66653 0.0
C342 C 0.6653 0.39031 0.76493 0.0
C343 C 0.6681 0.40489 0.79125 0.0
C344 C 0.65459 0.40573 0.73865 0.0
C345 C 0.64692 0.43621 0.73816 0.0
C346 C 0.64995 0.45089 0.76448 0.0
C347 C 0.66046 0.43532 0.79084 0.0
C348 C 0.63462 0.45219 0.71047 0.0
C349 C 0.60728 0.46426 0.71178 0.0
C350 C 0.64884 0.45406 0.68265 0.0
C351 C 0.67866 0.44369 0.68011 0.0
C352 C 0.70197 0.45496 0.69786 0.0
C353 C 0.72996 0.44498 0.69553 0.0
C354 C 0.73498 0.42388 0.67536 0.0
C355 C 0.71202 0.41277 0.65745 0.0
C356 C 0.68398 0.42264 0.65972 0.0
C357 C 0.59206 0.52018 0.58187 0.0
C358 C 0.56388 0.50741 0.57494 0.0
C359 C 0.60595 0.51057 0.60886 0.0
C360 C 0.59192 0.48805 0.6294 0.0
C361 C 0.5639 0.47506 0.6224 0.0
C362 C 0.54993 0.48478 0.59551 0.0
C363 C 0.60682 0.47755 0.65786 0.0
C364 C 0.6346 0.46644 0.65667 0.0
C365 C 0.59333 0.47725 0.68588 0.0
C366 C 0.56496 0.49071 0.68881 0.0
C367 C 0.54142 0.47295 0.7032 0.0
C368 C 0.51462 0.48556 0.70571 0.0
C369 C 0.51114 0.51596 0.69402 0.0
C370 C 0.53448 0.53385 0.67988 0.0
C371 C 0.56133 0.52137 0.67735 0.0
H372 H 0.49037 0.52566 0.69595 0.0
H373 H 0.75666 0.41619 0.67359 0.0
H374 H 1.00249 0.61251 0.37392 0.0
H375 H 0.01527 0.60892 0.32202 0.0
H376 H 0.97546 0.69387 0.29499 0.0
H377 H 0.96143 0.69625 0.34688 0.0
H378 H 0.95265 0.65304 0.26402 0.0
H379 H 0.05086 0.68501 0.28446 0.0
H380 H 0.09834 0.68793 0.31134 0.0
H381 H 0.10898 0.59357 0.29907 0.0
H382 H 0.06132 0.58987 0.27254 0.0
H383 H 0.97686 0.6176 0.11426 0.0
H384 H 0.98453 0.64608 0.15849 0.0
H385 H 1.00163 0.56165 0.2124 0.0
H386 H 0.99373 0.53327 0.16856 0.0
H387 H 0.04099 0.61475 0.22373 0.0
H388 H 0.93649 0.58314 0.2132 0.0
H389 H 0.88932 0.58214 0.18555 0.0
H390 H 0.89289 0.681 0.17792 0.0
H391 H 0.94032 0.68256 0.20521 0.0
C392 C 0.99759 0.63095 0.35695 0.0
C393 C 0.98131 0.65476 0.36422 0.0
C394 C 1.00493 0.62901 0.32727 0.0
C395 C 0.99647 0.65121 0.30438 0.0
C396 C 0.98228 0.67647 0.31215 0.0
C397 C 0.97462 0.67812 0.34183 0.0
C398 C 0.99819 0.64526 0.27248 0.0
C399 C 0.97232 0.6456 0.25501 0.0
C400 C 0.02364 0.63516 0.26056 0.0
C401 C 0.05236 0.63713 0.2766 0.0
C402 C 0.06319 0.66479 0.28768 0.0
C403 C 0.09017 0.6666 0.30283 0.0
C404 C 0.10665 0.64094 0.30694 0.0
C405 C 0.09619 0.61343 0.29586 0.0
C406 C 0.0692 0.61148 0.28072 0.0
C407 C 0.98253 0.6053 0.13553 0.0
C408 C 0.98434 0.57322 0.13813 0.0
C409 C 0.98692 0.62152 0.16069 0.0
C410 C 0.99366 0.60592 0.18867 0.0
C411 C 0.99657 0.57411 0.191 0.0
C412 C 0.99172 0.55788 0.16604 0.0
C413 C 0.99541 0.6219 0.21616 0.0
C414 C 0.02178 0.62321 0.23268 0.0
C415 C 0.97061 0.63397 0.22712 0.0
C416 C 0.94209 0.63298 0.21086 0.0
C417 C 0.92733 0.60466 0.20538 0.0
C418 C 0.90053 0.60399 0.18983 0.0
C419 C 0.88816 0.6315 0.17989 0.0
C420 C 0.90253 0.65972 0.18557 0.0
C421 C 0.92936 0.66052 0.20107 0.0
H422 H 0.86741 0.63093 0.16786 0.0
H423 H 0.12754 0.64239 0.31867 0.0
H424 H 0.21483 0.14084 0.13092 0.0
H425 H 0.2586 0.11816 0.11586 0.0
H426 H 0.30934 0.16237 0.1835 0.0
H427 H 0.26536 0.18607 0.19751 0.0
H428 H 0.34156 0.16867 0.13834 0.0
H429 H 0.28982 0.07793 0.18412 0.0
H430 H 0.24819 0.03922 0.19454 0.0
H431 H 0.24701 0.01886 0.10318 0.0
H432 H 0.28839 0.05777 0.09209 0.0
H433 H 0.46901 0.08749 0.11273 0.0
H434 H 0.42607 0.10613 0.13479 0.0
H435 H 0.37186 0.07602 0.06223 0.0
H436 H 0.41451 0.05742 0.04022 0.0
H437 H 0.34278 0.06134 0.11313 0.0
H438 H 0.39502 0.1548 0.06874 0.0
H439 H 0.43804 0.19228 0.06101 0.0
H440 H 0.43984 0.2053 0.15436 0.0
H441 H 0.39701 0.16762 0.1627 0.0
C442 C 0.2351 0.14481 0.14329 0.0
C443 C 0.23617 0.1646 0.16611 0.0
C444 C 0.26045 0.13187 0.13456 0.0
C445 C 0.28801 0.13779 0.14857 0.0
C446 C 0.28882 0.157 0.17203 0.0
C447 C 0.26343 0.17023 0.18053 0.0
C448 C 0.31584 0.12528 0.13785 0.0
C449 C 0.3417 0.14498 0.13341 0.0
C450 C 0.31689 0.09445 0.13066 0.0
C451 C 0.29204 0.07098 0.13721 0.0
C452 C 0.28055 0.06535 0.16619 0.0
C453 C 0.25702 0.04335 0.17223 0.0
C454 C 0.24492 0.02664 0.14952 0.0
C455 C 0.25638 0.03185 0.12074 0.0
C456 C 0.2799 0.05386 0.11457 0.0
C457 C 0.448 0.08488 0.10134 0.0
C458 C 0.44572 0.07091 0.07439 0.0
C459 C 0.42324 0.09574 0.11401 0.0
C460 C 0.39515 0.093 0.1003 0.0
C461 C 0.39288 0.07869 0.0736 0.0
C462 C 0.41759 0.06807 0.06084 0.0
C463 C 0.36821 0.10479 0.11347 0.0
C464 C 0.34254 0.08495 0.11828 0.0
C465 C 0.36749 0.13531 0.12144 0.0
C466 C 0.393 0.15819 0.11639 0.0
C467 C 0.4047 0.16553 0.08764 0.0
C468 C 0.42903 0.18682 0.08315 0.0
C469 C 0.44171 0.2011 0.10719 0.0
C470 C 0.43001 0.19419 0.13577 0.0
C471 C 0.4057 0.1729 0.14038 0.0
H472 H 0.46055 0.21756 0.10367 0.0
H473 H 0.2267 0.00961 0.15424 0.0
H474 H 0.32821 0.83925 0.67782 0.0
H475 H 0.28105 0.86229 0.67494 0.0
H476 H 0.32541 0.95177 0.64999 0.0
H477 H 0.3726 0.92841 0.65203 0.0
H478 H 0.27264 0.94779 0.6917 0.0
H479 H 0.30462 0.92118 0.59508 0.0
H480 H 0.32322 0.88512 0.56287 0.0
H481 H 0.24978 0.82014 0.58542 0.0
H482 H 0.23088 0.85581 0.61796 0.0
H483 H 0.17402 0.03434 0.60235 0.0
H484 H 0.21302 0.00802 0.62889 0.0
H485 H 0.16536 0.92027 0.61987 0.0
H486 H 0.12706 0.94635 0.59141 0.0
H487 H 0.21716 0.91882 0.60138 0.0
H488 H 0.17933 0.94954 0.68973 0.0
H489 H 0.16033 0.9843 0.72298 0.0
H490 H 0.24236 0.03929 0.7192 0.0
H491 H 0.26175 0.00514 0.68556 0.0
C492 C 0.32776 0.86386 0.67207 0.0
C493 C 0.35363 0.88211 0.66447 0.0
C494 C 0.30102 0.877 0.67075 0.0
C495 C 0.29992 0.90862 0.66213 0.0
C496 C 0.32599 0.92733 0.65685 0.0
C497 C 0.35278 0.91407 0.6579 0.0
C498 C 0.27152 0.92108 0.6542 0.0
C499 C 0.26041 0.94174 0.67192 0.0
C500 C 0.25541 0.91223 0.62895 0.0
C501 C 0.26653 0.89097 0.60914 0.0
C502 C 0.29255 0.89912 0.59329 0.0
C503 C 0.3031 0.87881 0.57492 0.0
C504 C 0.28773 0.85032 0.57217 0.0
C505 C 0.26169 0.84218 0.58763 0.0
C506 C 0.25102 0.86246 0.60598 0.0
C507 C 0.17168 0.00945 0.60594 0.0
C508 C 0.14756 0.99254 0.59401 0.0
C509 C 0.19386 0.9944 0.62171 0.0
C510 C 0.19211 0.96212 0.62658 0.0
C511 C 0.1672 0.94522 0.61636 0.0
C512 C 0.14518 0.96025 0.60018 0.0
C513 C 0.21784 0.94613 0.63868 0.0
C514 C 0.22875 0.92471 0.62158 0.0
C515 C 0.23348 0.95418 0.66468 0.0
C516 C 0.22193 0.97485 0.68492 0.0
C517 C 0.19326 0.96918 0.69578 0.0
C518 C 0.18243 0.98876 0.71474 0.0
C519 C 0.20011 0.01402 0.72315 0.0
C520 C 0.22869 0.01972 0.71266 0.0
C521 C 0.23962 1.00023 0.69367 0.0
H522 H 0.19168 0.02914 0.73784 0.0
H523 H 0.29599 0.83458 0.55801 0.0
H524 H 0.69865 0.39418 0.91474 0.0
H525 H 0.74002 0.40691 0.94807 0.0
H526 H 0.79873 0.37241 0.8882 0.0
H527 H 0.75688 0.35796 0.85618 0.0
H528 H 0.8205 0.36408 0.94182 0.0
H529 H 0.78262 0.45062 0.88199 0.0
H530 H 0.74514 0.48547 0.86283 0.0
H531 H 0.7307 0.50692 0.95201 0.0
H532 H 0.76814 0.47218 0.97169 0.0
H533 H 0.94642 0.46965 0.9475 0.0
H534 H 0.90171 0.43968 0.93391 0.0
H535 H 0.85863 0.46507 0.01078 0.0
H536 H 0.90349 0.49499 0.02478 0.0
H537 H 0.82736 0.4753 0.95612 0.0
H538 H 0.8755 0.39377 0.01222 0.0
H539 H 0.91736 0.36273 0.02567 0.0
H540 H 0.91643 0.33461 0.93704 0.0
H541 H 0.87483 0.36586 0.9229 0.0
C542 C 0.72024 0.38801 0.90968 0.0
C543 C 0.72481 0.37477 0.88335 0.0
C544 C 0.74394 0.39571 0.92836 0.0
C545 C 0.77267 0.39143 0.92025 0.0
C546 C 0.77687 0.37604 0.895 0.0
C547 C 0.75305 0.3677 0.87674 0.0
C548 C 0.79839 0.406 0.93578 0.0
C549 C 0.82199 0.3884 0.94491 0.0
C550 C 0.80043 0.43775 0.94006 0.0
C551 C 0.77788 0.45855 0.92833 0.0
C552 C 0.77131 0.46263 0.89751 0.0
C553 C 0.75011 0.48237 0.88657 0.0
C554 C 0.73541 0.49824 0.90621 0.0
C555 C 0.74203 0.49454 0.93684 0.0
C556 C 0.76328 0.47488 0.94789 0.0
C557 C 0.92751 0.46873 0.96166 0.0
C558 C 0.92846 0.48478 0.98718 0.0
C559 C 0.90204 0.45142 0.95395 0.0
C560 C 0.87697 0.44995 0.9715 0.0
C561 C 0.87783 0.46581 0.99707 0.0
C562 C 0.90345 0.48286 1.00501 0.0
C563 C 0.84941 0.43346 0.9619 0.0
C564 C 0.82557 0.45082 0.95368 0.0
C565 C 0.84755 0.40176 0.95779 0.0
C566 C 0.87212 0.38233 0.96645 0.0
C567 C 0.88431 0.3811 0.99554 0.0
C568 C 0.90799 0.36345 1.0033 0.0
C569 C 0.91958 0.34676 0.98221 0.0
C570 C 0.90743 0.34756 0.95336 0.0
C571 C 0.88376 0.3652 0.94547 0.0
H572 H 0.93796 0.33317 0.98824 0.0
H573 H 0.71899 0.51349 0.89769 0.0
H574 H 0.88147 0.64728 0.38731 0.0
H575 H 0.83007 0.63709 0.40131 0.0
H576 H 0.85664 0.60405 0.49103 0.0
H577 H 0.90839 0.61334 0.47643 0.0
H578 H 0.80957 0.56878 0.47136 0.0
H579 H 0.83543 0.67523 0.47749 0.0
H580 H 0.85683 0.72743 0.4603 0.0
H581 H 0.79534 0.73312 0.38668 0.0
H582 H 0.7739 0.6807 0.4031 0.0
H583 H 0.65976 0.57469 0.51353 0.0
H584 H 0.71342 0.58183 0.51236 0.0
H585 H 0.70846 0.62429 0.42131 0.0
H586 H 0.65508 0.61826 0.423 0.0
H587 H 0.74675 0.65609 0.45122 0.0
H588 H 0.72563 0.54562 0.44318 0.0
H589 H 0.70464 0.49363 0.46209 0.0
H590 H 0.75753 0.4966 0.54205 0.0
H591 H 0.77856 0.54873 0.52377 0.0
C592 C 0.8762 0.63731 0.40982 0.0
C593 C 0.89857 0.63093 0.43085 0.0
C594 C 0.84696 0.63177 0.41791 0.0
C595 C 0.83957 0.62032 0.44736 0.0
C596 C 0.86192 0.61302 0.46823 0.0
C597 C 0.8913 0.61839 0.46001 0.0
C598 C 0.80845 0.61706 0.4562 0.0
C599 C 0.79587 0.58795 0.46741 0.0
C600 C 0.79066 0.64212 0.45114 0.0
C601 C 0.80315 0.67392 0.44146 0.0
C602 C 0.82657 0.68753 0.45754 0.0
C603 C 0.83871 0.71717 0.44793 0.0
C604 C 0.82747 0.73358 0.4224 0.0
C605 C 0.80402 0.72039 0.40646 0.0
C606 C 0.79184 0.69071 0.41592 0.0
C607 C 0.67029 0.58541 0.49331 0.0
C608 C 0.65343 0.59597 0.46835 0.0
C609 C 0.70088 0.58942 0.49261 0.0
C610 C 0.71505 0.6033 0.46661 0.0
C611 C 0.69808 0.61366 0.44167 0.0
C612 C 0.66761 0.61021 0.4426 0.0
C613 C 0.74747 0.60745 0.46499 0.0
C614 C 0.76042 0.63692 0.45539 0.0
C615 C 0.76555 0.58276 0.47174 0.0
C616 C 0.75343 0.55114 0.48224 0.0
C617 C 0.73269 0.53521 0.46483 0.0
C618 C 0.72079 0.50574 0.47544 0.0
C619 C 0.72969 0.4919 0.50329 0.0
C620 C 0.75063 0.50739 0.52051 0.0
C621 C 0.76256 0.53687 0.51003 0.0
H622 H 0.7204 0.46919 0.51153 0.0
H623 H 0.83691 0.75652 0.41499 0.0
H624 H 0.20537 0.28004 0.13941 0.0
H625 H 0.17993 0.324 0.11591 0.0
H626 H 0.0984 0.26728 0.11926 0.0
H627 H 0.12415 0.22318 0.14154 0.0
H628 H 0.09742 0.3022 0.06981 0.0
H629 H 0.11927 0.32378 0.17037 0.0
H630 H 0.15053 0.33154 0.21479 0.0
H631 H 0.19982 0.407 0.16517 0.0
H632 H 0.16907 0.39941 0.12033 0.0
H633 H 0.03067 0.46087 0.08526 0.0
H634 H 0.05641 0.41634 0.10635 0.0
H635 H 0.08517 0.4036 0.0183 0.0
H636 H 0.05922 0.44791 0.99708 0.0
H637 H 0.11106 0.40303 0.11112 0.0
H638 H 0.09426 0.32778 0.01273 0.0
H639 H 0.05804 0.31862 0.97247 0.0
H640 H 0.99032 0.34766 0.02486 0.0
H641 H 0.02604 0.35663 0.06555 0.0
C642 C 0.1821 0.27687 0.13478 0.0
C643 C 0.16689 0.24793 0.14259 0.0
C644 C 0.16735 0.30222 0.12159 0.0
C645 C 0.13679 0.29965 0.11602 0.0
C646 C 0.12181 0.27044 0.12319 0.0
C647 C 0.13656 0.24511 0.13622 0.0
C648 C 0.12039 0.32715 0.10319 0.0
C649 C 0.10066 0.32423 0.07887 0.0
C650 C 0.12361 0.35614 0.115 0.0
C651 C 0.14206 0.36083 0.14193 0.0
C652 C 0.1369 0.34189 0.16888 0.0
C653 C 0.15451 0.34627 0.19414 0.0
C654 C 0.1772 0.36969 0.19278 0.0
C655 C 0.18227 0.38883 0.16618 0.0
C656 C 0.16474 0.38452 0.14084 0.0
C657 C 0.04233 0.44856 0.07026 0.0
C658 C 0.04252 0.45822 0.03928 0.0
C659 C 0.05728 0.423 0.08246 0.0
C660 C 0.07281 0.40593 0.06414 0.0
C661 C 0.07314 0.41568 0.03317 0.0
C662 C 0.05825 0.44129 0.02097 0.0
C663 C 0.08861 0.37823 0.07741 0.0
C664 C 0.10809 0.38108 0.10188 0.0
C665 C 0.08465 0.34899 0.06618 0.0
C666 C 0.06292 0.34318 0.04203 0.0
C667 C 0.07162 0.33209 0.01569 0.0
C668 C 0.05118 0.32696 0.99279 0.0
C669 C 0.02192 0.33265 0.99607 0.0
C670 C 0.01301 0.34337 0.0223 0.0
C671 C 0.03335 0.34852 0.04527 0.0
H672 H 1.00614 0.32871 0.9783 0.0
H673 H 0.19081 0.37305 0.21236 0.0
H674 H 0.68273 0.29428 0.84265 0.0
H675 H 0.65886 0.24807 0.87056 0.0
H676 H 0.64205 0.30135 0.94267 0.0
H677 H 0.665 0.3478 0.91415 0.0
H678 H 0.66121 0.23216 0.95615 0.0
H679 H 0.58775 0.29783 0.90737 0.0
H680 H 0.56798 0.32951 0.86393 0.0
H681 H 0.56826 0.25337 0.81118 0.0
H682 H 0.58798 0.22125 0.8544 0.0
H683 H 0.54928 0.13878 0.03045 0.0
H684 H 0.57674 0.18423 1.00591 0.0
H685 H 0.5648 0.14698 0.92099 0.0
H686 H 0.53622 0.10175 0.94545 0.0
H687 H 0.56213 0.20745 0.9135 0.0
H688 H 0.6282 0.1391 0.96305 0.0
H689 H 0.64724 0.10583 1.00568 0.0
H690 H 0.66378 0.18421 0.05518 0.0
H691 H 0.64435 0.21789 0.01301 0.0
C692 C 0.67479 0.29574 0.8649 0.0
C693 C 0.67581 0.32433 0.87647 0.0
C694 C 0.66113 0.2695 0.88072 0.0
C695 C 0.64865 0.27146 0.90853 0.0
C696 C 0.65178 0.29945 0.92129 0.0
C697 C 0.66512 0.32585 0.9052 0.0
C698 C 0.62933 0.24539 0.92231 0.0
C699 C 0.63942 0.22688 0.94717 0.0
C700 C 0.60132 0.23811 0.9099 0.0
C701 C 0.58953 0.2573 0.88395 0.0
C702 C 0.58372 0.28794 0.88644 0.0
C703 C 0.57239 0.3059 0.86193 0.0
C704 C 0.56691 0.29347 0.83479 0.0
C705 C 0.57255 0.26297 0.83219 0.0
C706 C 0.58369 0.24485 0.85671 0.0
C707 C 0.55205 0.14054 1.00645 0.0
C708 C 0.54083 0.1167 0.98984 0.0
C709 C 0.56794 0.16641 0.99249 0.0
C710 C 0.57359 0.16858 0.96177 0.0
C711 C 0.56092 0.14565 0.94478 0.0
C712 C 0.54452 0.1199 0.95871 0.0
C713 C 0.5937 0.19413 0.94782 0.0
C714 C 0.58388 0.21254 0.9227 0.0
C715 C 0.62212 0.20101 0.95985 0.0
C716 C 0.6346 0.18099 0.98495 0.0
C717 C 0.63577 0.14923 0.98307 0.0
C718 C 0.64663 0.13029 1.00716 0.0
C719 C 0.65665 0.14289 0.03315 0.0
C720 C 0.65598 0.17448 0.03504 0.0
C721 C 0.64507 0.19352 0.01104 0.0
H722 H 0.66499 0.12818 0.0518 0.0
H723 H 0.5583 0.30747 0.81579 0.0
H724 H 0.9564 0.728 0.38896 0.0
H725 H 0.98346 0.7763 0.39941 0.0
H726 H 0.04872 0.72484 0.44877 0.0
H727 H 0.02136 0.67638 0.43785 0.0
H728 H 0.02569 0.76505 0.48177 0.0
H729 H 0.06851 0.77112 0.38631 0.0
H730 H 0.06982 0.76825 0.33191 0.0
H731 H 0.01383 0.84261 0.31678 0.0
H732 H 1.01174 0.84562 0.37111 0.0
H733 H 0.07753 0.91756 0.5173 0.0
H734 H 0.07961 0.86688 0.49877 0.0
H735 H 1.00552 0.88488 0.44031 0.0
H736 H 1.0032 0.93486 0.45853 0.0
H737 H 0.04854 0.85916 0.41194 0.0
H738 H 0.99529 0.84244 0.50545 0.0
H739 H 0.99013 0.84467 0.55962 0.0
H740 H 0.06349 0.78996 0.57758 0.0
H741 H 0.06928 0.78775 0.5234 0.0
C742 C 0.97725 0.72722 0.40078 0.0
C743 C 0.98736 0.69884 0.41203 0.0
C744 C 0.99264 0.7547 0.40692 0.0
C745 C 0.0183 0.75421 0.42467 0.0
C746 C 0.02913 0.72574 0.43483 0.0
C747 C 0.01376 0.6982 0.42842 0.0
C748 C 0.03123 0.78323 0.43557 0.0
C749 C 0.03162 0.78542 0.46652 0.0
C750 C 0.03846 0.80992 0.41568 0.0
C751 C 0.03992 0.80853 0.38287 0.0
C752 C 0.05633 0.78676 0.37141 0.0
C753 C 0.05722 0.78511 0.34057 0.0
C754 C 0.04191 0.80523 0.3209 0.0
C755 C 0.02571 0.82707 0.33204 0.0
C756 C 0.02471 0.82879 0.36287 0.0
C757 C 0.06181 0.91068 0.50042 0.0
C758 C 0.04008 0.93013 0.48957 0.0
C759 C 0.06305 0.8818 0.48984 0.0
C760 C 0.04274 0.87219 0.46811 0.0
C761 C 0.02154 0.89191 0.45689 0.0
C762 C 0.02011 0.92042 0.46757 0.0
C763 C 0.04196 0.84101 0.45793 0.0
C764 C 0.04373 0.83849 0.42716 0.0
C765 C 0.03647 0.81404 0.47791 0.0
C766 C 0.03298 0.8153 0.51042 0.0
C767 C 1.01047 0.83111 0.52095 0.0
C768 C 1.0074 0.83233 0.55165 0.0
C769 C 0.02654 0.81756 0.57204 0.0
C770 C 0.04873 0.80146 0.56176 0.0
C771 C 0.05192 0.80022 0.53106 0.0
H772 H 0.02412 0.81852 0.5958 0.0
H773 H 0.04261 0.8039 0.29704 0.0
H774 H 0.38837 0.77749 0.6561 0.0
H775 H 0.40501 0.7331 0.63443 0.0
H776 H 0.47699 0.79098 0.59334 0.0
H777 H 0.4596 0.83569 0.61453 0.0
H778 H 0.44888 0.75534 0.5543 0.0
H779 H 0.48883 0.74012 0.65358 0.0
H780 H 0.48792 0.73537 0.7087 0.0
H781 H 0.42558 0.65664 0.70894 0.0
H782 H 0.42577 0.66119 0.65377 0.0
H783 H 0.52867 0.63481 0.51435 0.0
H784 H 0.51278 0.67879 0.53675 0.0
H785 H 0.43823 0.62258 0.57438 0.0
H786 H 0.45411 0.57808 0.55212 0.0
H787 H 0.46807 0.65733 0.61517 0.0
H788 H 0.42797 0.67315 0.51561 0.0
H789 H 0.42941 0.67794 0.46051 0.0
H790 H 0.49289 0.75561 0.46095 0.0
H791 H 0.49213 0.75106 0.51611 0.0
C792 C 0.40773 0.78055 0.64243 0.0
C793 C 0.42275 0.8097 0.6367 0.0
C794 C 0.41734 0.75528 0.63028 0.0
C795 C 0.44237 0.75875 0.61252 0.0
C796 C 0.45765 0.78789 0.60705 0.0
C797 C 0.44792 0.81324 0.6192 0.0
C798 C 0.45186 0.73206 0.59888 0.0
C799 C 0.45354 0.73407 0.56762 0.0
C800 C 0.45714 0.70411 0.6163 0.0
C801 C 0.45713 0.70116 0.64951 0.0
C802 C 0.47475 0.72193 0.66537 0.0
C803 C 0.4744 0.71925 0.69662 0.0
C804 C 0.45666 0.69576 0.7123 0.0
C805 C 0.43929 0.67484 0.69676 0.0
C806 C 0.43954 0.67744 0.66549 0.0
C807 C 0.50882 0.63174 0.5273 0.0
C808 C 0.4926 0.60298 0.53148 0.0
C809 C 0.49974 0.65694 0.53998 0.0
C810 C 0.47425 0.65391 0.55695 0.0
C811 C 0.45797 0.62528 0.56126 0.0
C812 C 0.46699 0.59998 0.54846 0.0
C813 C 0.46504 0.68065 0.57065 0.0
C814 C 0.46342 0.67863 0.60189 0.0
C815 C 0.45988 0.70861 0.55322 0.0
C816 C 0.46018 0.71159 0.52002 0.0
C817 C 0.4424 0.69111 0.50398 0.0
C818 C 0.44307 0.6938 0.47273 0.0
C819 C 0.46129 0.717 0.45725 0.0
C820 C 0.47881 0.73763 0.47298 0.0
C821 C 0.47824 0.73503 0.50423 0.0
H822 H 0.46178 0.71903 0.43305 0.0
H823 H 0.45641 0.69372 0.7365 0.0
H824 H 0.90048 0.8925 0.83382 0.0
H825 H 0.93046 0.90733 0.78906 0.0
H826 H 0.85275 0.90093 0.73335 0.0
H827 H 0.82324 0.88515 0.77794 0.0
H828 H 0.89411 0.88192 0.70407 0.0
H829 H 0.88891 0.97229 0.75508 0.0
H830 H 0.89507 1.00344 0.7977 0.0
H831 H 0.98758 0.99348 0.79985 0.0
H832 H 0.9819 0.96191 0.75749 0.0
H833 H 0.94619 0.97493 0.57242 0.0
H834 H 0.92073 0.95422 0.61839 0.0
H835 H 1.0027 0.95738 0.66737 0.0
H836 H 0.02832 0.97825 0.62132 0.0
H837 H 0.96156 0.97663 0.70073 0.0
H838 H 0.96694 0.88797 0.64839 0.0
H839 H 0.96076 0.85716 0.60556 0.0
H840 H 0.86786 0.86429 0.60562 0.0
H841 H 0.87352 0.89546 0.64828 0.0
C842 C 0.88994 0.89352 0.81198 0.0
C843 C 0.85933 0.88753 0.80967 0.0
C844 C 0.90707 0.90256 0.78621 0.0
C845 C 0.89414 0.90618 0.75723 0.0
C846 C 0.8637 0.8987 0.755 0.0
C847 C 0.84668 0.88963 0.78067 0.0
C848 C 0.91178 0.91836 0.72942 0.0
C849 C 0.90856 0.90285 0.70344 0.0
C850 C 0.93145 0.94537 0.728 0.0
C851 C 0.93493 0.96447 0.75333 0.0
C852 C 0.91054 0.97658 0.76478 0.0
C853 C 0.91394 0.99433 0.78887 0.0
C854 C 0.94168 1.00037 0.80153 0.0
C855 C 0.96609 0.98874 0.79006 0.0
C856 C 0.9628 0.97093 0.766 0.0
C857 C 0.95895 0.97121 0.59289 0.0
C858 C 0.98957 0.97836 0.59271 0.0
C859 C 0.94425 0.95912 0.61939 0.0
C860 C 0.95952 0.95364 0.64687 0.0
C861 C 0.99007 0.96115 0.64681 0.0
C862 C 1.00483 0.97307 0.62024 0.0
C863 C 0.94365 0.94032 0.67541 0.0
C864 C 0.94718 0.95564 0.70145 0.0
C865 C 0.92423 0.91316 0.67688 0.0
C866 C 0.92069 0.89429 0.65135 0.0
C867 C 0.94521 0.88315 0.63914 0.0
C868 C 0.9418 0.86559 0.61491 0.0
C869 C 0.91395 0.85885 0.60281 0.0
C870 C 0.88943 0.86957 0.61499 0.0
C871 C 0.89272 0.88715 0.63922 0.0
H872 H 0.91135 0.84527 0.58404 0.0
H873 H 0.94428 0.01411 0.82018 0.0
H874 H 0.60908 0.11009 0.40524 0.0
H875 H 0.59499 0.08865 0.35796 0.0
H876 H 0.65537 0.1566 0.31058 0.0
H877 H 0.66958 0.17751 0.35796 0.0
H878 H 0.59675 0.15333 0.28704 0.0
H879 H 0.67336 0.08778 0.31998 0.0
H880 H 0.69765 0.05134 0.35617 0.0
H881 H 0.62283 0.98586 0.35379 0.0
H882 H 0.59781 0.02222 0.31801 0.0
H883 H 0.61311 0.10949 0.14497 0.0
H884 H 0.62149 0.12081 0.19642 0.0
H885 H 0.55989 0.04478 0.2269 0.0
H886 H 0.55173 0.03286 0.17495 0.0
H887 H 0.61287 0.04844 0.26167 0.0
H888 H 0.53755 0.11256 0.2259 0.0
H889 H 0.51302 0.14939 0.19027 0.0
H890 H 0.58472 0.21758 0.19855 0.0
H891 H 0.60991 0.18099 0.23389 0.0
C892 C 0.61955 0.11984 0.38465 0.0
C893 C 0.64042 0.14504 0.38473 0.0
C894 C 0.61155 0.10778 0.35785 0.0
C895 C 0.62417 0.12114 0.33093 0.0
C896 C 0.64543 0.14606 0.3312 0.0
C897 C 0.65365 0.15782 0.35803 0.0
C898 C 0.61436 0.11013 0.3022 0.0
C899 C 0.60043 0.13049 0.28136 0.0
C900 C 0.61834 0.07996 0.29545 0.0
C901 C 0.63355 0.05788 0.31658 0.0
C902 C 0.66195 0.06574 0.32738 0.0
C903 C 0.67588 0.04508 0.3478 0.0
C904 C 0.66176 0.01633 0.35735 0.0
C905 C 0.63372 0.00816 0.34642 0.0
C906 C 0.61965 0.02879 0.32607 0.0
C907 C 0.60155 0.09492 0.16257 0.0
C908 C 0.58183 0.0702 0.15595 0.0
C909 C 0.60619 0.10157 0.19194 0.0
C910 C 0.59114 0.08376 0.21534 0.0
C911 C 0.57165 0.05879 0.20903 0.0
C912 C 0.56684 0.05219 0.17944 0.0
C913 C 0.59587 0.09194 0.24621 0.0
C914 C 0.60879 0.07111 0.2675 0.0
C915 C 0.59089 0.1217 0.2535 0.0
C916 C 0.57571 0.14393 0.23242 0.0
C917 C 0.54819 0.13533 0.21996 0.0
C918 C 0.53415 0.15618 0.19984 0.0
C919 C 0.54733 0.18579 0.19212 0.0
C920 C 0.57454 0.19463 0.20455 0.0
C921 C 0.5887 0.17386 0.22467 0.0
H922 H 0.53642 0.2019 0.17653 0.0
H923 H 0.67258 1.00036 0.37315 0.0
H924 H 0.36083 0.70612 0.23691 0.0
H925 H 0.38899 0.68634 0.28106 0.0
H926 H 0.40839 0.60836 0.23585 0.0
H927 H 0.38118 0.62885 0.19154 0.0
H928 H 0.37913 0.63474 0.31679 0.0
H929 H 0.47428 0.58447 0.25882 0.0
H930 H 0.50368 0.59656 0.2132 0.0
H931 H 0.48619 0.69179 0.20978 0.0
H932 H 0.45717 0.6804 0.25564 0.0
H933 H 0.44564 0.5292 0.42268 0.0
H934 H 0.42215 0.55254 0.37717 0.0
H935 H 0.49649 0.61933 0.36338 0.0
H936 H 0.52041 0.59553 0.4078 0.0
H937 H 0.4801 0.60236 0.3127 0.0
H938 H 0.43128 0.63604 0.39472 0.0
H939 H 0.40407 0.62971 0.44192 0.0
H940 H 0.33294 0.57939 0.40014 0.0
H941 H 0.35995 0.58492 0.35281 0.0
C942 C 0.37168 0.68512 0.23639 0.0
C943 C 0.36899 0.66886 0.21112 0.0
C944 C 0.38745 0.67368 0.26158 0.0
C945 C 0.40083 0.6459 0.26172 0.0
C946 C 0.39854 0.63 0.23614 0.0
C947 C 0.38292 0.64153 0.21097 0.0
C948 C 0.41637 0.6329 0.28887 0.0
C949 C 0.40124 0.62773 0.31594 0.0
C950 C 0.44539 0.62431 0.28786 0.0
C951 C 0.4633 0.63148 0.26053 0.0
C952 C 0.47684 0.60802 0.24843 0.0
C953 C 0.49343 0.61475 0.22251 0.0
C954 C 0.49673 0.6449 0.20856 0.0
C955 C 0.48355 0.66842 0.22056 0.0
C956 C 0.46701 0.66183 0.2465 0.0
C957 C 0.45702 0.54868 0.40975 0.0
C958 C 0.48483 0.56053 0.41885 0.0
C959 C 0.44353 0.56212 0.38388 0.0
C960 C 0.45738 0.588 0.36709 0.0
C961 C 0.48538 0.59938 0.37589 0.0
C962 C 0.499 0.58574 0.40139 0.0
C963 C 0.44272 0.60372 0.3406 0.0
C964 C 0.458 0.60938 0.31361 0.0
C965 C 0.4142 0.61371 0.34195 0.0
C966 C 0.39776 0.61065 0.37029 0.0
C967 C 0.40992 0.62346 0.39564 0.0
C968 C 0.39452 0.62004 0.42241 0.0
C969 C 0.36682 0.60414 0.42403 0.0
C970 C 0.35442 0.59168 0.39886 0.0
C971 C 0.36976 0.59495 0.37205 0.0
H972 H 0.35494 0.60151 0.44478 0.0
H973 H 0.50954 0.65005 0.18848 0.0
H974 H 0.11124 0.43732 0.667 0.0
H975 H 0.10587 0.4561 0.71589 0.0
H976 H 0.12198 0.36625 0.75971 0.0
H977 H 0.12756 0.34762 0.71059 0.0
H978 H 0.0761 0.39168 0.78451 0.0
H979 H 0.17519 0.42114 0.75953 0.0
H980 H 0.21581 0.4433 0.72705 0.0
H981 H 0.1819 0.53233 0.72223 0.0
H982 H 0.14073 0.51061 0.75423 0.0
H983 H 0.06951 0.46381 0.91797 0.0
H984 H 0.09321 0.43555 0.8822 0.0
H985 H 0.08657 0.51238 0.81434 0.0
H986 H 0.06376 0.54077 0.85007 0.0
H987 H 0.13646 0.48537 0.8088 0.0
H988 H 0.03249 0.4527 0.82304 0.0
H989 H 0.99043 0.43107 0.8539 0.0
H990 H 0.03367 0.34834 0.87828 0.0
H991 H 0.07613 0.36968 0.84779 0.0
C992 C 0.1135 0.4217 0.68715 0.0
C993 C 0.11979 0.39118 0.6853 0.0
C994 C 0.11057 0.43236 0.71496 0.0
C995 C 0.11402 0.41266 0.74139 0.0
C996 C 0.11938 0.38181 0.73957 0.0
C997 C 0.1224 0.37117 0.71165 0.0
C998 C 0.11196 0.42464 0.77076 0.0
C999 C 0.08975 0.41171 0.79021 0.0
C1000 C 0.12974 0.45083 0.77807 0.0
C1001 C 0.15476 0.46418 0.7592 0.0
C1002 C 0.17628 0.44541 0.75141 0.0
C1003 C 0.19941 0.4579 0.73307 0.0
C1004 C 0.20142 0.4892 0.72256 0.0
C1005 C 0.18032 0.50809 0.7304 0.0
C1006 C 0.15709 0.4957 0.74867 0.0
C1007 C 0.07394 0.47493 0.89568 0.0
C1008 C 0.06442 0.50427 0.88657 0.0
C1009 C 0.08727 0.45871 0.87522 0.0
C1010 C 0.09114 0.47166 0.84546 0.0
C1011 C 0.08369 0.50187 0.83713 0.0
C1012 C 0.07043 0.51799 0.85747 0.0
C1013 C 0.09987 0.45315 0.82192 0.0
C1014 C 0.12337 0.46482 0.80353 0.0
C1015 C 0.08323 0.42586 0.81552 0.0
C1016 C 0.05757 0.41289 0.83345 0.0
C1017 C 0.03306 0.42996 0.83511 0.0
C1018 C 1.00916 0.41776 0.85252 0.0
C1019 C 1.00941 0.38838 0.86811 0.0
C1020 C 0.03353 0.37111 0.86624 0.0
C1021 C 0.05751 0.38323 0.8489 0.0
H1022 H 0.9909 0.37898 0.8816 0.0
H1023 H 0.21934 0.49882 0.70836 0.0
H1024 H 0.80361 0.91218 0.9235 0.0
H1025 H 0.76234 0.93253 0.94665 0.0
H1026 H 0.70993 0.92172 0.86697 0.0
H1027 H 0.75164 0.90203 0.84366 0.0
H1028 H 0.69634 0.97185 0.88577 0.0
H1029 H 0.70309 0.87127 0.93759 0.0
H1030 H 0.72731 0.82919 0.96674 0.0
H1031 H 0.74562 0.88605 0.03809 0.0
H1032 H 0.72189 0.92865 1.00916 0.0
H1033 H 0.5586 0.98861 0.95337 0.0
H1034 H 0.59985 0.96878 0.92975 0.0
H1035 H 0.65481 0.98611 1.00618 0.0
H1036 H 0.61356 0.00574 0.02997 0.0
H1037 H 0.6666 0.9324 0.98897 0.0
H1038 H 0.65932 0.03294 0.93644 0.0
H1039 H 0.63438 0.07434 0.90704 0.0
H1040 H 0.61585 0.01619 0.83675 0.0
H1041 H 0.64034 0.97427 0.86592 0.0
C1042 C 0.78325 0.91402 0.91095 0.0
C1043 C 0.7811 0.90518 0.88168 0.0
C1044 C 0.75938 0.9256 0.92431 0.0
C1045 C 0.73215 0.92835 0.90914 0.0
C1046 C 0.73026 0.92 0.8796 0.0
C1047 C 0.75425 0.90866 0.86614 0.0
C1048 C 0.70592 0.93985 0.92388 0.0
C1049 C 0.68974 0.96275 0.9082 0.0
C1050 C 0.69694 0.92889 0.95351 0.0
C1051 C 0.71096 0.90324 0.97108 0.0
C1052 C 0.71244 0.87486 0.95942 0.0
C1053 C 0.72607 0.85091 0.9759 0.0
C1054 C 0.73806 0.85497 1.00422 0.0
C1055 C 0.73636 0.88296 0.01614 0.0
C1056 C 0.72282 0.90701 0.99971 0.0
C1057 C 0.57942 0.98825 0.96527 0.0
C1058 C 0.58236 0.99901 0.99379 0.0
C1059 C 0.60328 0.97696 0.95155 0.0
C1060 C 0.63112 0.97603 0.96572 0.0
C1061 C 0.63392 0.98638 0.9944 0.0
C1062 C 0.61012 0.99778 1.00807 0.0
C1063 C 0.65712 0.96435 0.95086 0.0
C1064 C 0.67323 0.94143 0.96653 0.0
C1065 C 0.66591 0.97514 0.92118 0.0
C1066 C 0.65142 1.00038 0.90349 0.0
C1067 C 0.64976 0.02892 0.91479 0.0
C1068 C 0.63573 0.05248 0.89816 0.0
C1069 C 0.62348 0.04787 0.87008 0.0
C1070 C 0.62531 0.01971 0.85852 0.0
C1071 C 0.63929 0.99605 0.87508 0.0
H1072 H 0.61261 0.06613 0.85724 0.0
H1073 H 0.74861 0.83641 0.01695 0.0
H1074 H 0.67433 0.10081 0.4185 0.0
H1075 H 0.71821 0.07514 0.40883 0.0
H1076 H 0.77032 0.16189 0.40907 0.0
H1077 H 0.72609 0.18778 0.41558 0.0
H1078 H 0.79335 0.13101 0.37247 0.0
H1079 H 0.75993 0.10749 0.47384 0.0
H1080 H 0.7244 0.08834 0.5132 0.0
H1081 H 0.71864 0.9986 0.48216 0.0
H1082 H 0.7539 0.01736 0.44236 0.0
H1083 H 0.92349 0.08107 0.45078 0.0
H1084 H 0.87926 0.10435 0.43104 0.0
H1085 H 0.84409 0.01653 0.40526 0.0
H1086 H 0.88854 0.99332 0.42391 0.0
H1087 H 0.81124 0.0433 0.44834 0.0
H1088 H 0.85507 0.06918 0.35224 0.0
H1089 H 0.8938 0.09173 0.31755 0.0
H1090 H 0.88401 0.18144 0.34455 0.0
H1091 H 0.84551 0.15937 0.37975 0.0
C1092 C 0.69511 0.11434 0.41586 0.0
C1093 C 0.69714 0.146 0.41889 0.0
C1094 C 0.72018 0.09971 0.41056 0.0
C1095 C 0.74777 0.1164 0.40924 0.0
C1096 C 0.74941 0.1484 0.41039 0.0
C1097 C 0.72426 0.1631 0.41478 0.0
C1098 C 0.77516 0.10045 0.40944 0.0
C1099 C 0.79728 0.11187 0.3891 0.0
C1100 C 0.78029 0.07529 0.43096 0.0
C1101 C 0.75926 0.0639 0.45496 0.0
C1102 C 0.75095 0.08372 0.47533 0.0
C1103 C 0.73088 0.07294 0.49771 0.0
C1104 C 0.71921 0.04229 0.50012 0.0
C1105 C 0.72765 0.02234 0.48021 0.0
C1106 C 0.74768 0.03303 0.45775 0.0
C1107 C 0.90683 0.06694 0.43999 0.0
C1108 C 0.90925 0.03517 0.43954 0.0
C1109 C 0.88156 0.08027 0.42874 0.0
C1110 C 0.85845 0.06202 0.41693 0.0
C1111 C 0.86171 0.03089 0.41443 0.0
C1112 C 0.88701 0.01765 0.42536 0.0
C1113 C 0.82942 0.07411 0.41169 0.0
C1114 C 0.80706 0.06202 0.43129 0.0
C1115 C 0.82452 0.09916 0.39014 0.0
C1116 C 0.84753 0.11255 0.36882 0.0
C1117 C 0.86133 0.09368 0.35097 0.0
C1118 C 0.88322 0.10638 0.33118 0.0
C1119 C 0.89141 0.13798 0.32889 0.0
C1120 C 0.87766 0.15696 0.34635 0.0
C1121 C 0.85577 0.14437 0.3662 0.0
H1122 H 0.90837 0.14777 0.31356 0.0
H1123 H 0.70367 0.03399 0.51746 0.0
H1124 H 0.26232 0.70425 0.15278 0.0
H1125 H 0.21753 0.68794 0.12551 0.0
H1126 H 0.264 0.62008 0.08725 0.0
H1127 H 0.30863 0.63617 0.11508 0.0
H1128 H 0.22538 0.65824 0.0459 0.0
H1129 H 0.22645 0.59351 0.1401 0.0
H1130 H 0.2304 0.58417 0.19505 0.0
H1131 H 0.1556 0.63546 0.20363 0.0
H1132 H 0.15158 0.64565 0.14868 0.0
H1133 H 0.10372 0.56344 0.99651 0.0
H1134 H 0.14988 0.58611 0.01596 0.0
H1135 H 0.10211 0.63282 0.07671 0.0
H1136 H 0.05611 0.60905 0.05832 0.0
H1137 H 0.14273 0.60609 0.10595 0.0
H1138 H 0.13985 0.67108 0.01343 0.0
H1139 H 0.13562 0.68351 0.95876 0.0
H1140 H 0.21211 0.63592 0.94674 0.0
H1141 H 0.21657 0.62284 1.00133 0.0
C1142 C 0.26279 0.68605 0.13832 0.0
C1143 C 0.28845 0.67124 0.13585 0.0
C1144 C 0.23743 0.6768 0.12284 0.0
C1145 C 0.23764 0.65287 0.10447 0.0
C1146 C 0.26359 0.63868 0.10126 0.0
C1147 C 0.28884 0.64765 0.11715 0.0
C1148 C 0.21027 0.6415 0.09004 0.0
C1149 C 0.20732 0.64652 0.05884 0.0
C1150 C 0.18669 0.627 0.10723 0.0
C1151 C 0.18893 0.62065 0.14028 0.0
C1152 C 0.21103 0.60307 0.1537 0.0
C1153 C 0.21325 0.59758 0.18485 0.0
C1154 C 0.19331 0.60928 0.20283 0.0
C1155 C 0.17106 0.62646 0.18968 0.0
C1156 C 0.16881 0.6321 0.15853 0.0
C1157 C 0.10312 0.57895 0.01367 0.0
C1158 C 0.07644 0.58444 0.02602 0.0
C1159 C 0.12949 0.592 0.0247 0.0
C1160 C 0.1295 0.61137 0.04769 0.0
C1161 C 0.10269 0.61783 0.05909 0.0
C1162 C 0.07642 0.60432 0.04852 0.0
C1163 C 0.15735 0.62304 0.06149 0.0
C1164 C 0.16055 0.61794 0.09274 0.0
C1165 C 0.18096 0.63785 0.04431 0.0
C1166 C 0.17837 0.64573 0.01146 0.0
C1167 C 0.15563 0.66306 0.99912 0.0
C1168 C 0.15322 0.67026 0.96814 0.0
C1169 C 0.17354 0.66044 0.94929 0.0
C1170 C 0.19636 0.64347 0.96137 0.0
C1171 C 0.19887 0.63619 0.99233 0.0
H1172 H 0.17163 0.66604 0.92531 0.0
H1173 H 0.19505 0.60498 0.22694 0.0
H1174 H 0.1571 0.42753 0.5748 0.0
H1175 H 0.2022 0.44018 0.54659 0.0
H1176 H 0.22687 0.34742 0.57021 0.0
H1177 H 0.18249 0.33559 0.59986 0.0
H1178 H 0.26743 0.38546 0.58701 0.0
H1179 H 0.21423 0.37973 0.49521 0.0
H1180 H 0.17487 0.38999 0.45799 0.0
H1181 H 0.20162 0.48676 0.45088 0.0
H1182 H 0.24089 0.47716 0.4884 0.0
H1183 H 0.40196 0.40788 0.51659 0.0
H1184 H 0.34991 0.39178 0.52076 0.0
H1185 H 0.33066 0.4864 0.5221 0.0
H1186 H 0.3832 0.50277 0.5183 0.0
H1187 H 0.28752 0.44635 0.48906 0.0
H1188 H 0.33716 0.45096 0.5851 0.0
H1189 H 0.37693 0.43975 0.6216 0.0
H1190 H 0.35589 0.34262 0.61937 0.0
H1191 H 0.31627 0.3533 0.58245 0.0
C1192 C 0.17181 0.40967 0.57305 0.0
C1193 C 0.16659 0.38071 0.58952 0.0
C1194 C 0.1975 0.4168 0.55681 0.0
C1195 C 0.21811 0.39479 0.55626 0.0
C1196 C 0.2114 0.36485 0.57038 0.0
C1197 C 0.1859 0.35791 0.58701 0.0
C1198 C 0.24824 0.40432 0.5454 0.0
C1199 C 0.27168 0.39814 0.56526 0.0
C1200 C 0.25396 0.42185 0.51746 0.0
C1201 C 0.23039 0.42773 0.49483 0.0
C1202 C 0.21159 0.40324 0.4859 0.0
C1203 C 0.18931 0.40893 0.46471 0.0
C1204 C 0.18571 0.43901 0.45213 0.0
C1205 C 0.20443 0.46347 0.46066 0.0
C1206 C 0.22673 0.45791 0.48186 0.0
C1207 C 0.38668 0.42535 0.51752 0.0
C1208 C 0.39672 0.45654 0.51785 0.0
C1209 C 0.35693 0.41612 0.5196 0.0
C1210 C 0.33654 0.43786 0.52206 0.0
C1211 C 0.34613 0.4693 0.52015 0.0
C1212 C 0.37609 0.47861 0.51805 0.0
C1213 C 0.30613 0.42711 0.5306 0.0
C1214 C 0.2829 0.43328 0.51054 0.0
C1215 C 0.30041 0.40938 0.5583 0.0
C1216 C 0.32397 0.40293 0.58079 0.0
C1217 C 0.34118 0.42722 0.59221 0.0
C1218 C 0.36366 0.42097 0.613 0.0
C1219 C 0.36899 0.39049 0.62273 0.0
C1220 C 0.35177 0.36621 0.61177 0.0
C1221 C 0.32929 0.37235 0.59092 0.0
H1222 H 0.38641 0.38569 0.63883 0.0
H1223 H 0.16845 0.44337 0.43572 0.0
H1224 H 0.83039 0.80546 0.84415 0.0
H1225 H 0.85419 0.75895 0.86388 0.0
H1226 H 0.91914 0.81532 0.90875 0.0
H1227 H 0.89433 0.86145 0.88992 0.0
H1228 H 0.90108 0.73239 0.86283 0.0
H1229 H 0.94295 0.77867 0.97397 0.0
H1230 H 0.92981 0.81651 1.00729 0.0
H1231 H 0.84079 0.80852 0.97514 0.0
H1232 H 0.85327 0.77025 0.94206 0.0
H1233 H 0.9925 0.6221 0.9337 0.0
H1234 H 0.9717 0.66893 0.91125 0.0
H1235 H 0.91169 0.66345 0.98437 0.0
H1236 H 0.93372 0.61729 1.00777 0.0
H1237 H 0.92447 0.71964 0.97149 0.0
H1238 H 0.89287 0.64315 0.90784 0.0
H1239 H 0.89744 0.60158 0.87573 0.0
H1240 H 0.95139 0.66326 0.81537 0.0
H1241 H 0.94746 0.70511 0.84734 0.0
C1242 C 0.8503 0.8079 0.85744 0.0
C1243 C 0.86086 0.83728 0.86484 0.0
C1244 C 0.86386 0.7812 0.86904 0.0
C1245 C 0.8884 0.78297 0.88858 0.0
C1246 C 0.89993 0.81269 0.89447 0.0
C1247 C 0.8861 0.83931 0.88318 0.0
C1248 C 0.90093 0.75391 0.90366 0.0
C1249 C 0.9063 0.72984 0.88658 0.0
C1250 C 0.90701 0.74937 0.93496 0.0
C1251 C 0.89916 0.77184 0.95531 0.0
C1252 C 0.92055 0.78487 0.97414 0.0
C1253 C 0.91321 0.8064 0.99297 0.0
C1254 C 0.88451 0.81498 0.99326 0.0
C1255 C 0.86303 0.80191 0.97485 0.0
C1256 C 0.87023 0.78029 0.95606 0.0
C1257 C 0.97488 0.63079 0.94513 0.0
C1258 C 0.96483 0.61547 0.97264 0.0
C1259 C 0.96268 0.65769 0.93201 0.0
C1260 C 0.9393 0.66997 0.94538 0.0
C1261 C 0.92952 0.6549 0.97316 0.0
C1262 C 0.94214 0.62823 0.98662 0.0
C1263 C 0.92533 0.69836 0.93053 0.0
C1264 C 0.91952 0.72225 0.9477 0.0
C1265 C 0.91776 0.70221 0.8995 0.0
C1266 C 0.92009 0.67717 0.88014 0.0
C1267 C 0.90586 0.64779 0.88781 0.0
C1268 C 0.90832 0.62418 0.86963 0.0
C1269 C 0.92476 0.62975 0.84356 0.0
C1270 C 0.9387 0.65897 0.83559 0.0
C1271 C 0.93634 0.68265 0.85372 0.0
H1272 H 0.92665 0.61144 0.82952 0.0
H1273 H 0.8789 0.83171 1.0078 0.0
H1274 H 0.34303 0.7649 0.18307 0.0
H1275 H 0.37864 0.8096 0.17488 0.0
H1276 H 0.4459 0.74934 0.16069 0.0
H1277 H 0.40969 0.70472 0.16769 0.0
H1278 H 0.43031 0.83423 0.19266 0.0
H1279 H 0.48281 0.77978 0.09909 0.0
H1280 H 0.47235 0.73727 0.0675 0.0
H1281 H 0.38006 0.74591 0.07368 0.0
H1282 H 0.39004 0.78869 0.10495 0.0
H1283 H 0.52366 0.95584 0.11579 0.0
H1284 H 0.50722 0.90578 0.14232 0.0
H1285 H 0.44033 0.89311 0.07452 0.0
H1286 H 0.45703 0.94243 0.04762 0.0
H1287 H 0.46472 0.84168 0.08814 0.0
H1288 H 0.42608 0.91804 0.1435 0.0
H1289 H 0.42984 0.96295 0.17254 0.0
H1290 H 0.4837 0.91501 0.23854 0.0
H1291 H 0.48054 0.86994 0.20966 0.0
C1292 C 0.36561 0.76132 0.17891 0.0
C1293 C 0.37368 0.73175 0.17529 0.0
C1294 C 0.38599 0.78674 0.17447 0.0
C1295 C 0.41479 0.78287 0.1665 0.0
C1296 C 0.42366 0.75288 0.16633 0.0
C1297 C 0.40311 0.72743 0.17048 0.0
C1298 C 0.43345 0.81015 0.15368 0.0
C1299 C 0.43832 0.83573 0.17 0.0
C1300 C 0.4434 0.81234 0.12389 0.0
C1301 C 0.43718 0.78709 0.10462 0.0
C1302 C 0.46032 0.77262 0.09361 0.0
C1303 C 0.45446 0.7485 0.07577 0.0
C1304 C 0.42555 0.73881 0.06869 0.0
C1305 C 0.40243 0.75335 0.07927 0.0
C1306 C 0.40817 0.77753 0.09703 0.0
C1307 C 0.50552 0.94229 0.10651 0.0
C1308 C 0.4916 0.95311 0.07963 0.0
C1309 C 0.49612 0.91374 0.12174 0.0
C1310 C 0.47241 0.89577 0.11052 0.0
C1311 C 0.45877 0.90646 0.08354 0.0
C1312 C 0.46828 0.93476 0.06822 0.0
C1313 C 0.46107 0.86608 0.12687 0.0
C1314 C 0.4576 0.83999 0.11114 0.0
C1315 C 0.4516 0.86382 0.15684 0.0
C1316 C 0.45338 0.89081 0.17426 0.0
C1317 C 0.4389 0.91718 0.1641 0.0
C1318 C 0.44089 0.94264 0.18054 0.0
C1319 C 0.45709 0.94188 0.20732 0.0
C1320 C 0.47123 0.9156 0.21776 0.0
C1321 C 0.46934 0.89009 0.20138 0.0
H1322 H 0.45861 0.96161 0.22002 0.0
H1323 H 0.42107 0.7201 0.05493 0.0
H1324 H 0.10013 0.35597 0.5636 0.0
H1325 H 0.08088 0.3116 0.53749 0.0
H1326 H 0.11682 0.24983 0.60775 0.0
H1327 H 0.1357 0.29407 0.63355 0.0
H1328 H 0.12271 0.23039 0.55202 0.0
H1329 H 0.04799 0.26755 0.61101 0.0
H1330 H 0.01672 0.30699 0.62462 0.0
H1331 H 0.97967 0.31519 0.53573 0.0
H1332 H 1.01109 0.27607 0.52147 0.0
H1333 H 0.04617 0.0909 0.57656 0.0
H1334 H 0.05971 0.14474 0.58315 0.0
H1335 H 0.01845 0.17287 0.49849 0.0
H1336 H 1.00442 0.11842 0.49183 0.0
H1337 H 0.01421 0.21395 0.54823 0.0
H1338 H 0.08431 0.1684 0.49287 0.0
H1339 H 0.11386 0.12601 0.48311 0.0
H1340 H 0.15913 0.13227 0.56724 0.0
H1341 H 0.12946 0.17432 0.57778 0.0
C1342 C 0.10444 0.33286 0.57281 0.0
C1343 C 0.11923 0.32805 0.60037 0.0
C1344 C 0.09338 0.30763 0.55811 0.0
C1345 C 0.09721 0.27742 0.57085 0.0
C1346 C 0.11366 0.2729 0.59748 0.0
C1347 C 0.1244 0.29802 0.61221 0.0
C1348 C 0.08212 0.25026 0.55834 0.0
C1349 C 0.09901 0.22693 0.55092 0.0
C1350 C 0.05116 0.24593 0.55642 0.0
C1351 C 0.03214 0.26921 0.56506 0.0
C1352 C 0.03334 0.27795 0.5943 0.0
C1353 C 0.01557 0.30021 0.60215 0.0
C1354 C 0.99629 0.31367 0.58102 0.0
C1355 C 0.99467 0.3048 0.55204 0.0
C1356 C 1.01246 0.28259 0.54406 0.0
C1357 C 0.03918 0.10856 0.55974 0.0
C1358 C 0.02449 0.10057 0.53357 0.0
C1359 C 0.04697 0.13929 0.56351 0.0
C1360 C 0.04056 0.16264 0.54104 0.0
C1361 C 0.02363 0.15506 0.51601 0.0
C1362 C 0.01556 0.12405 0.5123 0.0
C1363 C 0.05485 0.19399 0.54264 0.0
C1364 C 0.03788 0.21792 0.54821 0.0
C1365 C 0.08577 0.19891 0.54293 0.0
C1366 C 0.10457 0.17449 0.53614 0.0
C1367 C 0.1005 0.16069 0.50933 0.0
C1368 C 0.11727 0.13671 0.50366 0.0
C1369 C 0.13838 0.12648 0.52453 0.0
C1370 C 0.14281 0.14027 0.55107 0.0
C1371 C 0.12605 0.16422 0.55688 0.0
H1372 H 0.15128 0.10786 0.52014 0.0
H1373 H 0.98254 0.33089 0.58714 0.0
H1374 H 0.5966 0.20837 0.47111 0.0
H1375 H 0.58238 0.2604 0.47671 0.0
H1376 H 0.66511 0.29944 0.44041 0.0
H1377 H 0.67879 0.24772 0.4339 0.0
H1378 H 0.64502 0.32873 0.4899 0.0
H1379 H 0.61253 0.29767 0.39361 0.0
H1380 H 0.58734 0.26231 0.36038 0.0
H1381 H 0.50632 0.26747 0.4049 0.0
H1382 H 0.53111 0.30276 0.43852 0.0
H1383 H 0.60028 0.48076 0.45609 0.0
H1384 H 0.62069 0.43204 0.44884 0.0
H1385 H 0.53672 0.38304 0.46885 0.0
H1386 H 0.51612 0.43121 0.47522 0.0
H1387 H 0.56073 0.35977 0.42536 0.0
H1388 H 0.59215 0.39151 0.52131 0.0
H1389 H 0.61706 0.42542 0.55604 0.0
H1390 H 0.69951 0.4167 0.51563 0.0
H1391 H 0.67495 0.38378 0.47995 0.0
C1392 C 0.61182 0.22813 0.46493 0.0
C1393 C 0.63874 0.22428 0.45224 0.0
C1394 C 0.60378 0.25767 0.4681 0.0
C1395 C 0.62269 0.28358 0.45873 0.0
C1396 C 0.65036 0.27964 0.44788 0.0
C1397 C 0.65823 0.25017 0.44441 0.0
C1398 C 0.61259 0.31478 0.45762 0.0
C1399 C 0.62682 0.33579 0.4756 0.0
C1400 C 0.58871 0.32357 0.43909 0.0
C1401 C 0.57372 0.30262 0.41872 0.0
C1402 C 0.58938 0.29112 0.39642 0.0
C1403 C 0.57516 0.27116 0.37747 0.0
C1404 C 0.54527 0.26257 0.38059 0.0
C1405 C 0.52949 0.2741 0.40254 0.0
C1406 C 0.54359 0.29414 0.4215 0.0
C1407 C 0.5861 0.45963 0.45837 0.0
C1408 C 0.55669 0.45977 0.46647 0.0
C1409 C 0.59782 0.43184 0.45444 0.0
C1410 C 0.58032 0.40391 0.45887 0.0
C1411 C 0.55064 0.4043 0.46542 0.0
C1412 C 0.53892 0.43192 0.46913 0.0
C1413 C 0.59279 0.3739 0.45811 0.0
C1414 C 0.57906 0.35299 0.43963 0.0
C1415 C 0.61699 0.3652 0.47643 0.0
C1416 C 0.63162 0.38554 0.49762 0.0
C1417 C 0.61552 0.39723 0.51952 0.0
C1418 C 0.62959 0.41631 0.53938 0.0
C1419 C 0.65983 0.42347 0.53789 0.0
C1420 C 0.67605 0.4115 0.51657 0.0
C1421 C 0.66206 0.39268 0.49647 0.0
H1422 H 0.67071 0.43813 0.55336 0.0
H1423 H 0.53433 0.24704 0.36596 0.0
loop_
_geom_bond_atom_site_label_1
_geom_bond_atom_site_label_2
_geom_bond_distance
_geom_bond_site_symmetry_2
_ccdc_geom_bond_type
C0 N1 1.317 . S
C0 N2 1.348 . S
C0 C3 1.485 . S
N1 C0 1.317 . S
N1 N5 1.370 . S
N2 C0 1.348 . S
N2 C4 1.346 . S
C3 C0 1.485 . S
C3 H7 0.960 . S
C3 H8 0.961 . S
C3 H9 0.960 . S
C4 N2 1.346 . S
C4 N5 1.307 . S
C4 C6 1.486 . S
N5 N1 1.370 . S
N5 C4 1.307 . S
C6 C4 1.486 . S
C6 H10 0.960 . S
C6 H11 0.960 . S
C6 H12 0.959 . S
H7 C3 0.960 . S
H8 C3 0.961 . S
H9 C3 0.960 . S
H10 C6 0.960 . S
H11 C6 0.960 . S
H12 C6 0.959 . S
C13 N14 1.317 . S
C13 N15 1.348 . S
C13 C16 1.485 . S
N14 C13 1.317 . S
N14 N18 1.370 . S
N15 C13 1.348 . S
N15 C17 1.346 . S
C16 C13 1.485 . S
C16 H20 0.960 . S
C16 H21 0.961 . S
C16 H22 0.960 . S
C17 N15 1.346 . S
C17 N18 1.307 . S
C17 C19 1.486 . S
N18 N14 1.370 . S
N18 C17 1.307 . S
C19 C17 1.486 . S
C19 H23 0.960 . S
C19 H24 0.960 . S
C19 H25 0.959 . S
H20 C16 0.960 . S
H21 C16 0.961 . S
H22 C16 0.960 . S
H23 C19 0.960 . S
H24 C19 0.960 . S
H25 C19 0.959 . S
C26 N27 1.317 . S
C26 N28 1.348 . S
C26 C29 1.485 . S
N27 C26 1.317 . S
N27 N31 1.370 . S
N28 C26 1.348 . S
N28 C30 1.346 . S
C29 C26 1.485 . S
C29 H33 0.960 . S
C29 H34 0.961 . S
C29 H35 0.960 . S
C30 N28 1.346 . S
C30 N31 1.307 . S
C30 C32 1.486 . S
N31 N27 1.370 . S
N31 C30 1.307 . S
C32 C30 1.486 . S
C32 H36 0.960 . S
C32 H37 0.960 . S
C32 H38 0.959 . S
H33 C29 0.960 . S
H34 C29 0.961 . S
H35 C29 0.960 . S
H36 C32 0.960 . S
H37 C32 0.960 . S
H38 C32 0.959 . S
C39 N40 1.317 . S
C39 N41 1.348 . S
C39 C42 1.485 . S
N40 C39 1.317 . S
N40 N44 1.370 . S
N41 C39 1.348 . S
N41 C43 1.346 . S
C42 C39 1.485 . S
C42 H46 0.960 . S
C42 H47 0.961 . S
C42 H48 0.960 . S
C43 N41 1.346 . S
C43 N44 1.307 . S
C43 C45 1.486 . S
N44 N40 1.370 . S
N44 C43 1.307 . S
C45 C43 1.486 . S
C45 H49 0.960 . S
C45 H50 0.960 . S
C45 H51 0.959 . S
H46 C42 0.960 . S
H47 C42 0.961 . S
H48 C42 0.960 . S
H49 C45 0.960 . S
H50 C45 0.960 . S
H51 C45 0.959 . S
C52 N53 1.317 . S
C52 N54 1.348 . S
C52 C55 1.485 . S
N53 C52 1.317 . S
N53 N57 1.370 . S
N54 C52 1.348 . S
N54 C56 1.346 . S
C55 C52 1.485 . S
C55 H59 0.960 . S
C55 H60 0.961 . S
C55 H61 0.960 . S
C56 N54 1.346 . S
C56 N57 1.307 . S
C56 C58 1.486 . S
N57 N53 1.370 . S
N57 C56 1.307 . S
C58 C56 1.486 . S
C58 H62 0.960 . S
C58 H63 0.960 . S
C58 H64 0.959 . S
H59 C55 0.960 . S
H60 C55 0.961 . S
H61 C55 0.960 . S
H62 C58 0.960 . S
H63 C58 0.960 . S
H64 C58 0.959 . S
C65 N66 1.317 . S
C65 N67 1.348 . S
C65 C68 1.485 . S
N66 C65 1.317 . S
N66 N70 1.370 . S
N67 C65 1.348 . S
N67 C69 1.346 . S
C68 C65 1.485 . S
C68 H72 0.960 . S
C68 H73 0.961 . S
C68 H74 0.960 . S
C69 N67 1.346 . S
C69 N70 1.307 . S
C69 C71 1.486 . S
N70 N66 1.370 . S
N70 C69 1.307 . S
C71 C69 1.486 . S
C71 H75 0.960 . S
C71 H76 0.960 . S
C71 H77 0.959 . S
H72 C68 0.960 . S
H73 C68 0.961 . S
H74 C68 0.960 . S
H75 C71 0.960 . S
H76 C71 0.960 . S
H77 C71 0.959 . S
C78 N79 1.317 . S
C78 N80 1.348 . S
C78 C81 1.485 . S
N79 C78 1.317 . S
N79 N83 1.370 . S
N80 C78 1.348 . S
N80 C82 1.346 . S
C81 C78 1.485 . S
C81 H85 0.960 . S
C81 H86 0.961 . S
C81 H87 0.960 . S
C82 N80 1.346 . S
C82 N83 1.307 . S
C82 C84 1.486 . S
N83 N79 1.370 . S
N83 C82 1.307 . S
C84 C82 1.486 . S
C84 H88 0.960 . S
C84 H89 0.960 . S
C84 H90 0.959 . S
H85 C81 0.960 . S
H86 C81 0.961 . S
H87 C81 0.960 . S
H88 C84 0.960 . S
H89 C84 0.960 . S
H90 C84 0.959 . S
C91 N92 1.317 . S
C91 N93 1.348 . S
C91 C94 1.485 . S
N92 C91 1.317 . S
N92 N96 1.370 . S
N93 C91 1.348 . S
N93 C95 1.346 . S
C94 C91 1.485 . S
C94 H98 0.960 . S
C94 H99 0.961 . S
C94 H100 0.960 . S
C95 N93 1.346 . S
C95 N96 1.307 . S
C95 C97 1.486 . S
N96 N92 1.370 . S
N96 C95 1.307 . S
C97 C95 1.486 . S
C97 H101 0.960 . S
C97 H102 0.960 . S
C97 H103 0.959 . S
H98 C94 0.960 . S
H99 C94 0.961 . S
H100 C94 0.960 . S
H101 C97 0.960 . S
H102 C97 0.960 . S
H103 C97 0.959 . S
Co104 N109 2.057 1_455 S
Co104 O121 2.021 . S
Co104 O124 2.062 . S
Co104 O128 2.117 1_545 S
Co104 O129 2.020 . S
C105 O125 1.259 . S
C105 O128 1.258 . S
Co106 N115 2.057 1_545 S
Co106 O122 2.117 . S
Co106 O123 2.020 . S
Co106 O125 2.021 1_545 S
Co106 O130 2.062 1_545 S
C107 N109 1.316 . S
C107 N110 1.347 . S
C107 H112 0.931 . S
C108 N109 1.375 . S
C108 C111 1.350 . S
C108 H113 0.930 1_545 S
N109 Co104 2.057 1_655 S
N109 C107 1.316 . S
N109 C108 1.375 . S
N110 C107 1.347 . S
N110 C111 1.373 . S
C111 C108 1.350 . S
C111 N110 1.373 . S
C111 H132 0.931 . S
H112 C107 0.931 . S
H113 C108 0.930 1_565 S
C114 O121 1.259 . S
C114 O122 1.258 . S
N115 Co106 2.057 1_565 S
N115 C116 1.316 . S
N115 C117 1.375 1_565 S
C116 N115 1.316 . S
C116 N118 1.347 . S
C116 H127 0.931 . S
C117 N115 1.375 1_545 S
C117 C119 1.350 . S
C117 H126 0.930 . S
N118 C116 1.347 . S
N118 C119 1.373 1_565 S
C119 C117 1.350 . S
C119 N118 1.373 1_545 S
C119 H133 0.931 . S
C120 O123 1.256 . S
C120 O124 1.255 . S
O121 Co104 2.021 . S
O121 C114 1.259 . S
O122 Co106 2.117 . S
O122 C114 1.258 . S
O123 Co106 2.020 . S
O123 C120 1.256 . S
O124 Co104 2.062 . S
O124 C120 1.255 . S
O125 C105 1.259 . S
O125 Co106 2.021 1_565 S
H126 C117 0.930 . S
H127 C116 0.931 . S
O128 Co104 2.117 1_565 S
O128 C105 1.258 . S
O129 Co104 2.020 . S
O129 C131 1.256 1_545 S
O130 Co106 2.062 1_565 S
O130 C131 1.255 . S
C131 O129 1.256 1_565 S
C131 O130 1.255 . S
H132 C111 0.931 . S
H133 C119 0.931 . S
Co134 N139 2.057 1_545 S
Co134 O151 2.021 . S
Co134 O154 2.062 . S
Co134 O158 2.117 1_546 S
Co134 O159 2.020 1_556 S
C135 O155 1.259 . S
C135 O158 1.258 . S
Co136 N145 2.057 . S
Co136 O152 2.117 . S
Co136 O153 2.020 . S
Co136 O155 2.021 1_545 S
Co136 O160 2.062 . S
C137 N139 1.316 1_545 S
C137 N140 1.347 1_545 S
C137 H142 0.931 . S
C138 N139 1.375 . S
C138 C141 1.350 . S
C138 H143 0.930 . S
N139 Co134 2.057 1_565 S
N139 C137 1.316 1_565 S
N139 C138 1.375 . S
N140 C137 1.347 1_565 S
N140 C141 1.373 . S
C141 C138 1.350 . S
C141 N140 1.373 . S
C141 H162 0.931 . S
H142 C137 0.931 . S
H143 C138 0.930 . S
C144 O151 1.259 1_554 S
C144 O152 1.258 . S
N145 Co136 2.057 . S
N145 C146 1.316 . S
N145 C147 1.375 . S
C146 N145 1.316 . S
C146 N148 1.347 . S
C146 H157 0.931 . S
C147 N145 1.375 . S
C147 C149 1.350 . S
C147 H156 0.930 . S
N148 C146 1.347 . S
N148 C149 1.373 . S
C149 C147 1.350 . S
C149 N148 1.373 . S
C149 H163 0.931 . S
C150 O153 1.256 . S
C150 O154 1.255 1_554 S
O151 Co134 2.021 . S
O151 C144 1.259 1_556 S
O152 Co136 2.117 . S
O152 C144 1.258 . S
O153 Co136 2.020 . S
O153 C150 1.256 . S
O154 Co134 2.062 . S
O154 C150 1.255 1_556 S
O155 C135 1.259 . S
O155 Co136 2.021 1_565 S
H156 C147 0.930 . S
H157 C146 0.931 . S
O158 Co134 2.117 1_564 S
O158 C135 1.258 . S
O159 Co134 2.020 1_554 S
O159 C161 1.256 . S
O160 Co136 2.062 . S
O160 C161 1.255 . S
C161 O159 1.256 . S
C161 O160 1.255 . S
H162 C141 0.931 . S
H163 C149 0.931 . S
Co164 N169 2.057 . S
Co164 O181 2.021 . S
Co164 O184 2.062 . S
Co164 O188 2.117 . S
Co164 O189 2.020 . S
C165 O185 1.259 . S
C165 O188 1.258 . S
Co166 N175 2.057 . S
Co166 O182 2.117 . S
Co166 O183 2.020 . S
Co166 O185 2.021 . S
Co166 O190 2.062 . S
C167 N169 1.316 . S
C167 N170 1.347 . S
C167 H172 0.931 . S
C168 N169 1.375 . S
C168 C171 1.350 . S
C168 H173 0.930 . S
N169 Co164 2.057 . S
N169 C167 1.316 . S
N169 C168 1.375 . S
N170 C167 1.347 . S
N170 C171 1.373 . S
C171 C168 1.350 . S
C171 N170 1.373 . S
C171 H192 0.931 . S
H172 C167 0.931 . S
H173 C168 0.930 . S
C174 O181 1.259 . S
C174 O182 1.258 . S
N175 Co166 2.057 . S
N175 C176 1.316 . S
N175 C177 1.375 . S
C176 N175 1.316 . S
C176 N178 1.347 . S
C176 H187 0.931 . S
C177 N175 1.375 . S
C177 C179 1.350 . S
C177 H186 0.930 . S
N178 C176 1.347 . S
N178 C179 1.373 . S
C179 C177 1.350 . S
C179 N178 1.373 . S
C179 H193 0.931 . S
C180 O183 1.256 . S
C180 O184 1.255 . S
O181 Co164 2.021 . S
O181 C174 1.259 . S
O182 Co166 2.117 . S
O182 C174 1.258 . S
O183 Co166 2.020 . S
O183 C180 1.256 . S
O184 Co164 2.062 . S
O184 C180 1.255 . S
O185 C165 1.259 . S
O185 Co166 2.021 . S
H186 C177 0.930 . S
H187 C176 0.931 . S
O188 Co164 2.117 . S
O188 C165 1.258 . S
O189 Co164 2.020 . S
O189 C191 1.256 . S
O190 Co166 2.062 . S
O190 C191 1.255 . S
C191 O189 1.256 . S
C191 O190 1.255 . S
H192 C171 0.931 . S
H193 C179 0.931 . S
Co194 N199 2.057 . S
Co194 O211 2.021 . S
Co194 O214 2.062 . S
Co194 O218 2.117 1_455 S
Co194 O219 2.020 1_455 S
C195 O215 1.259 1_556 S
C195 O218 1.258 . S
Co196 N205 2.057 . S
Co196 O212 2.117 1_655 S
Co196 O213 2.020 1_655 S
Co196 O215 2.021 . S
Co196 O220 2.062 . S
C197 N199 1.316 . S
C197 N200 1.347 . S
C197 H202 0.931 . S
C198 N199 1.375 1_655 S
C198 C201 1.350 1_655 S
C198 H203 0.930 . S
N199 Co194 2.057 . S
N199 C197 1.316 . S
N199 C198 1.375 1_455 S
N200 C197 1.347 . S
N200 C201 1.373 . S
C201 C198 1.350 1_455 S
C201 N200 1.373 . S
C201 H222 0.931 1_455 S
H202 C197 0.931 . S
H203 C198 0.930 . S
C204 O211 1.259 1_554 S
C204 O212 1.258 . S
N205 Co196 2.057 . S
N205 C206 1.316 . S
N205 C207 1.375 1_655 S
C206 N205 1.316 . S
C206 N208 1.347 . S
C206 H217 0.931 . S
C207 N205 1.375 1_455 S
C207 C209 1.350 1_455 S
C207 H216 0.930 . S
N208 C206 1.347 . S
N208 C209 1.373 . S
C209 C207 1.350 1_655 S
C209 N208 1.373 . S
C209 H223 0.931 1_655 S
C210 O213 1.256 . S
C210 O214 1.255 1_554 S
O211 Co194 2.021 . S
O211 C204 1.259 1_556 S
O212 Co196 2.117 1_455 S
O212 C204 1.258 . S
O213 Co196 2.020 1_455 S
O213 C210 1.256 . S
O214 Co194 2.062 . S
O214 C210 1.255 1_556 S
O215 C195 1.259 1_554 S
O215 Co196 2.021 . S
H216 C207 0.930 . S
H217 C206 0.931 . S
O218 Co194 2.117 1_655 S
O218 C195 1.258 . S
O219 Co194 2.020 1_655 S
O219 C221 1.256 . S
O220 Co196 2.062 . S
O220 C221 1.255 1_554 S
C221 O219 1.256 . S
C221 O220 1.255 1_556 S
H222 C201 0.931 1_655 S
H223 C209 0.931 1_455 S
H224 C242 0.951 . S
H225 C244 0.951 . S
H226 C246 0.950 . S
H227 C247 0.950 . S
H228 C249 0.950 . S
H229 C252 0.950 . S
H230 C253 0.950 . S
H231 C255 0.950 . S
H232 C256 0.950 . S
H233 C257 0.951 . S
H234 C259 0.951 . S
H235 C261 0.950 . S
H236 C262 0.950 . S
H237 C264 0.950 . S
H238 C267 0.950 . S
H239 C268 0.950 . S
H240 C270 0.950 . S
H241 C271 0.950 . S
C242 H224 0.951 . S
C242 C243 1.366 . S
C242 C244 1.388 . S
C243 C242 1.366 . S
C243 C247 1.385 . S
C244 H225 0.951 . S
C244 C242 1.388 . S
C244 C245 1.366 . S
C245 C244 1.366 . S
C245 C246 1.414 . S
C245 C248 1.499 . S
C246 H226 0.950 . S
C246 C245 1.414 . S
C246 C247 1.374 . S
C247 H227 0.950 . S
C247 C243 1.385 . S
C247 C246 1.374 . S
C248 C245 1.499 . S
C248 C249 1.373 . S
C248 C250 1.389 . S
C249 H228 0.950 . S
C249 C248 1.373 . S
C249 C265 1.377 . S
C250 C248 1.389 . S
C250 C251 1.524 . S
C250 C264 1.377 . S
C251 C250 1.524 . S
C251 C252 1.397 . S
C251 C256 1.363 . S
C252 H229 0.950 . S
C252 C251 1.397 . S
C252 C253 1.334 . S
C253 H230 0.950 . S
C253 C252 1.334 . S
C253 C254 1.287 . S
C254 C253 1.287 . S
C254 C255 1.524 . S
C254 H273 0.913 . S
C255 H231 0.950 . S
C255 C254 1.524 . S
C255 C256 1.415 . S
C256 H232 0.950 . S
C256 C251 1.363 . S
C256 C255 1.415 . S
C257 H233 0.951 . S
C257 C258 1.366 . S
C257 C259 1.388 . S
C258 C257 1.366 . S
C258 C262 1.385 . S
C259 H234 0.951 . S
C259 C257 1.388 . S
C259 C260 1.366 . S
C260 C259 1.366 . S
C260 C261 1.414 . S
C260 C263 1.499 . S
C261 H235 0.950 . S
C261 C260 1.414 . S
C261 C262 1.374 . S
C262 H236 0.950 . S
C262 C258 1.385 . S
C262 C261 1.374 . S
C263 C260 1.499 . S
C263 C264 1.373 . S
C263 C265 1.389 . S
C264 H237 0.950 . S
C264 C250 1.377 . S
C264 C263 1.373 . S
C265 C249 1.377 . S
C265 C263 1.389 . S
C265 C266 1.524 . S
C266 C265 1.524 . S
C266 C267 1.397 . S
C266 C271 1.363 . S
C267 H238 0.950 . S
C267 C266 1.397 . S
C267 C268 1.334 1_455 S
C268 H239 0.950 . S
C268 C267 1.334 1_655 S
C268 C269 1.287 . S
C269 C268 1.287 . S
C269 C270 1.524 . S
C269 H272 0.999 . S
C270 H240 0.950 . S
C270 C269 1.524 . S
C270 C271 1.415 1_655 S
C271 H241 0.950 . S
C271 C266 1.363 . S
C271 C270 1.415 1_455 S
H272 C269 0.999 . S
H273 C254 0.913 . S
H274 C292 0.951 . S
H275 C294 0.951 . S
H276 C296 0.950 . S
H277 C297 0.950 . S
H278 C299 0.950 . S
H279 C302 0.950 . S
H280 C303 0.950 . S
H281 C305 0.950 1_545 S
H282 C306 0.950 . S
H283 C307 0.951 . S
H284 C309 0.951 . S
H285 C311 0.950 1_545 S
H286 C312 0.950 1_545 S
H287 C314 0.950 . S
H288 C317 0.950 . S
H289 C318 0.950 . S
H290 C320 0.950 . S
H291 C321 0.950 . S
C292 H274 0.951 . S
C292 C293 1.366 . S
C292 C294 1.388 . S
C293 C292 1.366 . S
C293 C297 1.385 . S
C294 H275 0.951 . S
C294 C292 1.388 . S
C294 C295 1.366 . S
C295 C294 1.366 . S
C295 C296 1.414 . S
C295 C298 1.499 . S
C296 H276 0.950 . S
C296 C295 1.414 . S
C296 C297 1.374 . S
C297 H277 0.950 . S
C297 C293 1.385 . S
C297 C296 1.374 . S
C298 C295 1.499 . S
C298 C299 1.373 . S
C298 C300 1.389 . S
C299 H278 0.950 . S
C299 C298 1.373 . S
C299 C315 1.377 . S
C300 C298 1.389 . S
C300 C301 1.524 . S
C300 C314 1.377 . S
C301 C300 1.524 . S
C301 C302 1.397 . S
C301 C306 1.363 . S
C302 H279 0.950 . S
C302 C301 1.397 . S
C302 C303 1.334 . S
C303 H280 0.950 . S
C303 C302 1.334 . S
C303 C304 1.287 . S
C304 C303 1.287 . S
C304 C305 1.524 . S
C304 H323 0.913 . S
C305 H281 0.950 1_565 S
C305 C304 1.524 . S
C305 C306 1.415 . S
C306 H282 0.950 . S
C306 C301 1.363 . S
C306 C305 1.415 . S
C307 H283 0.951 . S
C307 C308 1.366 . S
C307 C309 1.388 . S
C308 C307 1.366 . S
C308 C312 1.385 . S
C309 H284 0.951 . S
C309 C307 1.388 . S
C309 C310 1.366 . S
C310 C309 1.366 . S
C310 C311 1.414 . S
C310 C313 1.499 . S
C311 H285 0.950 1_565 S
C311 C310 1.414 . S
C311 C312 1.374 . S
C312 H286 0.950 1_565 S
C312 C308 1.385 . S
C312 C311 1.374 . S
C313 C310 1.499 . S
C313 C314 1.373 . S
C313 C315 1.389 . S
C314 H287 0.950 . S
C314 C300 1.377 . S
C314 C313 1.373 . S
C315 C299 1.377 . S
C315 C313 1.389 . S
C315 C316 1.524 . S
C316 C315 1.524 . S
C316 C317 1.397 . S
C316 C321 1.363 . S
C317 H288 0.950 . S
C317 C316 1.397 . S
C317 C318 1.334 . S
C318 H289 0.950 . S
C318 C317 1.334 . S
C318 C319 1.287 . S
C319 C318 1.287 . S
C319 C320 1.524 . S
C319 H322 0.999 . S
C320 H290 0.950 . S
C320 C319 1.524 . S
C320 C321 1.415 . S
C321 H291 0.950 . S
C321 C316 1.363 . S
C321 C320 1.415 . S
H322 C319 0.999 . S
H323 C304 0.913 . S
H324 C342 0.951 . S
H325 C344 0.951 . S
H326 C346 0.950 . S
H327 C347 0.950 . S
H328 C349 0.950 . S
H329 C352 0.950 . S
H330 C353 0.950 . S
H331 C355 0.950 . S
H332 C356 0.950 . S
H333 C357 0.951 . S
H334 C359 0.951 . S
H335 C361 0.950 . S
H336 C362 0.950 . S
H337 C364 0.950 . S
H338 C367 0.950 . S
H339 C368 0.950 . S
H340 C370 0.950 . S
H341 C371 0.950 . S
C342 H324 0.951 . S
C342 C343 1.366 . S
C342 C344 1.388 . S
C343 C342 1.366 . S
C343 C347 1.385 . S
C344 H325 0.951 . S
C344 C342 1.388 . S
C344 C345 1.366 . S
C345 C344 1.366 . S
C345 C346 1.414 . S
C345 C348 1.499 . S
C346 H326 0.950 . S
C346 C345 1.414 . S
C346 C347 1.374 . S
C347 H327 0.950 . S
C347 C343 1.385 . S
C347 C346 1.374 . S
C348 C345 1.499 . S
C348 C349 1.373 . S
C348 C350 1.389 . S
C349 H328 0.950 . S
C349 C348 1.373 . S
C349 C365 1.377 . S
C350 C348 1.389 . S
C350 C351 1.524 . S
C350 C364 1.377 . S
C351 C350 1.524 . S
C351 C352 1.397 . S
C351 C356 1.363 . S
C352 H329 0.950 . S
C352 C351 1.397 . S
C352 C353 1.334 . S
C353 H330 0.950 . S
C353 C352 1.334 . S
C353 C354 1.287 . S
C354 C353 1.287 . S
C354 C355 1.524 . S
C354 H373 0.913 . S
C355 H331 0.950 . S
C355 C354 1.524 . S
C355 C356 1.415 . S
C356 H332 0.950 . S
C356 C351 1.363 . S
C356 C355 1.415 . S
C357 H333 0.951 . S
C357 C358 1.366 . S
C357 C359 1.388 . S
C358 C357 1.366 . S
C358 C362 1.385 . S
C359 H334 0.951 . S
C359 C357 1.388 . S
C359 C360 1.366 . S
C360 C359 1.366 . S
C360 C361 1.414 . S
C360 C363 1.499 . S
C361 H335 0.950 . S
C361 C360 1.414 . S
C361 C362 1.374 . S
C362 H336 0.950 . S
C362 C358 1.385 . S
C362 C361 1.374 . S
C363 C360 1.499 . S
C363 C364 1.373 . S
C363 C365 1.389 . S
C364 H337 0.950 . S
C364 C350 1.377 . S
C364 C363 1.373 . S
C365 C349 1.377 . S
C365 C363 1.389 . S
C365 C366 1.524 . S
C366 C365 1.524 . S
C366 C367 1.397 . S
C366 C371 1.363 . S
C367 H338 0.950 . S
C367 C366 1.397 . S
C367 C368 1.334 . S
C368 H339 0.950 . S
C368 C367 1.334 . S
C368 C369 1.287 . S
C369 C368 1.287 . S
C369 C370 1.524 . S
C369 H372 0.999 . S
C370 H340 0.950 . S
C370 C369 1.524 . S
C370 C371 1.415 . S
C371 H341 0.950 . S
C371 C366 1.363 . S
C371 C370 1.415 . S
H372 C369 0.999 . S
H373 C354 0.913 . S
H374 C392 0.951 . S
H375 C394 0.951 . S
H376 C396 0.950 . S
H377 C397 0.950 . S
H378 C399 0.950 . S
H379 C402 0.950 . S
H380 C403 0.950 . S
H381 C405 0.950 . S
H382 C406 0.950 . S
H383 C407 0.951 . S
H384 C409 0.951 . S
H385 C411 0.950 . S
H386 C412 0.950 . S
H387 C414 0.950 . S
H388 C417 0.950 . S
H389 C418 0.950 . S
H390 C420 0.950 . S
H391 C421 0.950 . S
C392 H374 0.951 . S
C392 C393 1.366 . S
C392 C394 1.388 . S
C393 C392 1.366 . S
C393 C397 1.385 . S
C394 H375 0.951 . S
C394 C392 1.388 . S
C394 C395 1.366 . S
C395 C394 1.366 . S
C395 C396 1.414 . S
C395 C398 1.499 . S
C396 H376 0.950 . S
C396 C395 1.414 . S
C396 C397 1.374 . S
C397 H377 0.950 . S
C397 C393 1.385 . S
C397 C396 1.374 . S
C398 C395 1.499 . S
C398 C399 1.373 . S
C398 C400 1.389 . S
C399 H378 0.950 . S
C399 C398 1.373 . S
C399 C415 1.377 . S
C400 C398 1.389 . S
C400 C401 1.524 . S
C400 C414 1.377 . S
C401 C400 1.524 . S
C401 C402 1.397 . S
C401 C406 1.363 . S
C402 H379 0.950 . S
C402 C401 1.397 . S
C402 C403 1.334 1_655 S
C403 H380 0.950 . S
C403 C402 1.334 1_455 S
C403 C404 1.287 . S
C404 C403 1.287 . S
C404 C405 1.524 1_455 S
C404 H423 0.913 . S
C405 H381 0.950 . S
C405 C404 1.524 1_655 S
C405 C406 1.415 . S
C406 H382 0.950 . S
C406 C401 1.363 . S
C406 C405 1.415 . S
C407 H383 0.951 . S
C407 C408 1.366 . S
C407 C409 1.388 . S
C408 C407 1.366 . S
C408 C412 1.385 . S
C409 H384 0.951 . S
C409 C407 1.388 . S
C409 C410 1.366 . S
C410 C409 1.366 . S
C410 C411 1.414 . S
C410 C413 1.499 . S
C411 H385 0.950 . S
C411 C410 1.414 . S
C411 C412 1.374 . S
C412 H386 0.950 . S
C412 C408 1.385 . S
C412 C411 1.374 . S
C413 C410 1.499 . S
C413 C414 1.373 . S
C413 C415 1.389 . S
C414 H387 0.950 . S
C414 C400 1.377 . S
C414 C413 1.373 . S
C415 C399 1.377 . S
C415 C413 1.389 . S
C415 C416 1.524 . S
C416 C415 1.524 . S
C416 C417 1.397 . S
C416 C421 1.363 . S
C417 H388 0.950 . S
C417 C416 1.397 . S
C417 C418 1.334 . S
C418 H389 0.950 . S
C418 C417 1.334 . S
C418 C419 1.287 . S
C419 C418 1.287 . S
C419 C420 1.524 . S
C419 H422 0.999 . S
C420 H390 0.950 . S
C420 C419 1.524 . S
C420 C421 1.415 . S
C421 H391 0.950 . S
C421 C416 1.363 . S
C421 C420 1.415 . S
H422 C419 0.999 . S
H423 C404 0.913 . S
H424 C442 0.951 . S
H425 C444 0.951 . S
H426 C446 0.950 . S
H427 C447 0.950 . S
H428 C449 0.950 . S
H429 C452 0.950 . S
H430 C453 0.950 . S
H431 C455 0.950 . S
H432 C456 0.950 . S
H433 C457 0.951 . S
H434 C459 0.951 . S
H435 C461 0.950 . S
H436 C462 0.950 . S
H437 C464 0.950 . S
H438 C467 0.950 . S
H439 C468 0.950 . S
H440 C470 0.950 . S
H441 C471 0.950 . S
C442 H424 0.951 . S
C442 C443 1.366 . S
C442 C444 1.388 . S
C443 C442 1.366 . S
C443 C447 1.385 . S
C444 H425 0.951 . S
C444 C442 1.388 . S
C444 C445 1.366 . S
C445 C444 1.366 . S
C445 C446 1.414 . S
C445 C448 1.499 . S
C446 H426 0.950 . S
C446 C445 1.414 . S
C446 C447 1.374 . S
C447 H427 0.950 . S
C447 C443 1.385 . S
C447 C446 1.374 . S
C448 C445 1.499 . S
C448 C449 1.373 . S
C448 C450 1.389 . S
C449 H428 0.950 . S
C449 C448 1.373 . S
C449 C465 1.377 . S
C450 C448 1.389 . S
C450 C451 1.524 . S
C450 C464 1.377 . S
C451 C450 1.524 . S
C451 C452 1.397 . S
C451 C456 1.363 . S
C452 H429 0.950 . S
C452 C451 1.397 . S
C452 C453 1.334 . S
C453 H430 0.950 . S
C453 C452 1.334 . S
C453 C454 1.287 . S
C454 C453 1.287 . S
C454 C455 1.524 . S
C454 H473 0.913 1_545 S
C455 H431 0.950 . S
C455 C454 1.524 . S
C455 C456 1.415 . S
C456 H432 0.950 . S
C456 C451 1.363 . S
C456 C455 1.415 . S
C457 H433 0.951 . S
C457 C458 1.366 . S
C457 C459 1.388 . S
C458 C457 1.366 . S
C458 C462 1.385 . S
C459 H434 0.951 . S
C459 C457 1.388 . S
C459 C460 1.366 . S
C460 C459 1.366 . S
C460 C461 1.414 . S
C460 C463 1.499 . S
C461 H435 0.950 . S
C461 C460 1.414 . S
C461 C462 1.374 . S
C462 H436 0.950 . S
C462 C458 1.385 . S
C462 C461 1.374 . S
C463 C460 1.499 . S
C463 C464 1.373 . S
C463 C465 1.389 . S
C464 H437 0.950 . S
C464 C450 1.377 . S
C464 C463 1.373 . S
C465 C449 1.377 . S
C465 C463 1.389 . S
C465 C466 1.524 . S
C466 C465 1.524 . S
C466 C467 1.397 . S
C466 C471 1.363 . S
C467 H438 0.950 . S
C467 C466 1.397 . S
C467 C468 1.334 . S
C468 H439 0.950 . S
C468 C467 1.334 . S
C468 C469 1.287 . S
C469 C468 1.287 . S
C469 C470 1.524 . S
C469 H472 0.999 . S
C470 H440 0.950 . S
C470 C469 1.524 . S
C470 C471 1.415 . S
C471 H441 0.950 . S
C471 C466 1.363 . S
C471 C470 1.415 . S
H472 C469 0.999 . S
H473 C454 0.913 1_565 S
H474 C492 0.951 . S
H475 C494 0.951 . S
H476 C496 0.950 . S
H477 C497 0.950 . S
H478 C499 0.950 . S
H479 C502 0.950 . S
H480 C503 0.950 . S
H481 C505 0.950 . S
H482 C506 0.950 . S
H483 C507 0.951 1_545 S
H484 C509 0.951 . S
H485 C511 0.950 . S
H486 C512 0.950 . S
H487 C514 0.950 . S
H488 C517 0.950 . S
H489 C518 0.950 . S
H490 C520 0.950 . S
H491 C521 0.950 . S
C492 H474 0.951 . S
C492 C493 1.366 . S
C492 C494 1.388 . S
C493 C492 1.366 . S
C493 C497 1.385 . S
C494 H475 0.951 . S
C494 C492 1.388 . S
C494 C495 1.366 . S
C495 C494 1.366 . S
C495 C496 1.414 . S
C495 C498 1.499 . S
C496 H476 0.950 . S
C496 C495 1.414 . S
C496 C497 1.374 . S
C497 H477 0.950 . S
C497 C493 1.385 . S
C497 C496 1.374 . S
C498 C495 1.499 . S
C498 C499 1.373 . S
C498 C500 1.389 . S
C499 H478 0.950 . S
C499 C498 1.373 . S
C499 C515 1.377 . S
C500 C498 1.389 . S
C500 C501 1.524 . S
C500 C514 1.377 . S
C501 C500 1.524 . S
C501 C502 1.397 . S
C501 C506 1.363 . S
C502 H479 0.950 . S
C502 C501 1.397 . S
C502 C503 1.334 . S
C503 H480 0.950 . S
C503 C502 1.334 . S
C503 C504 1.287 . S
C504 C503 1.287 . S
C504 C505 1.524 . S
C504 H523 0.913 . S
C505 H481 0.950 . S
C505 C504 1.524 . S
C505 C506 1.415 . S
C506 H482 0.950 . S
C506 C501 1.363 . S
C506 C505 1.415 . S
C507 H483 0.951 1_565 S
C507 C508 1.366 . S
C507 C509 1.388 . S
C508 C507 1.366 . S
C508 C512 1.385 . S
C509 H484 0.951 . S
C509 C507 1.388 . S
C509 C510 1.366 . S
C510 C509 1.366 . S
C510 C511 1.414 . S
C510 C513 1.499 . S
C511 H485 0.950 . S
C511 C510 1.414 . S
C511 C512 1.374 . S
C512 H486 0.950 . S
C512 C508 1.385 . S
C512 C511 1.374 . S
C513 C510 1.499 . S
C513 C514 1.373 . S
C513 C515 1.389 . S
C514 H487 0.950 . S
C514 C500 1.377 . S
C514 C513 1.373 . S
C515 C499 1.377 . S
C515 C513 1.389 . S
C515 C516 1.524 . S
C516 C515 1.524 . S
C516 C517 1.397 . S
C516 C521 1.363 . S
C517 H488 0.950 . S
C517 C516 1.397 . S
C517 C518 1.334 . S
C518 H489 0.950 . S
C518 C517 1.334 . S
C518 C519 1.287 . S
C519 C518 1.287 . S
C519 C520 1.524 . S
C519 H522 0.999 . S
C520 H490 0.950 . S
C520 C519 1.524 . S
C520 C521 1.415 . S
C521 H491 0.950 . S
C521 C516 1.363 . S
C521 C520 1.415 . S
H522 C519 0.999 . S
H523 C504 0.913 . S
H524 C542 0.951 . S
H525 C544 0.951 . S
H526 C546 0.950 . S
H527 C547 0.950 . S
H528 C549 0.950 . S
H529 C552 0.950 . S
H530 C553 0.950 . S
H531 C555 0.950 . S
H532 C556 0.950 . S
H533 C557 0.951 . S
H534 C559 0.951 . S
H535 C561 0.950 . S
H536 C562 0.950 1_554 S
H537 C564 0.950 . S
H538 C567 0.950 . S
H539 C568 0.950 . S
H540 C570 0.950 . S
H541 C571 0.950 . S
C542 H524 0.951 . S
C542 C543 1.366 . S
C542 C544 1.388 . S
C543 C542 1.366 . S
C543 C547 1.385 . S
C544 H525 0.951 . S
C544 C542 1.388 . S
C544 C545 1.366 . S
C545 C544 1.366 . S
C545 C546 1.414 . S
C545 C548 1.499 . S
C546 H526 0.950 . S
C546 C545 1.414 . S
C546 C547 1.374 . S
C547 H527 0.950 . S
C547 C543 1.385 . S
C547 C546 1.374 . S
C548 C545 1.499 . S
C548 C549 1.373 . S
C548 C550 1.389 . S
C549 H528 0.950 . S
C549 C548 1.373 . S
C549 C565 1.377 . S
C550 C548 1.389 . S
C550 C551 1.524 . S
C550 C564 1.377 . S
C551 C550 1.524 . S
C551 C552 1.397 . S
C551 C556 1.363 . S
C552 H529 0.950 . S
C552 C551 1.397 . S
C552 C553 1.334 . S
C553 H530 0.950 . S
C553 C552 1.334 . S
C553 C554 1.287 . S
C554 C553 1.287 . S
C554 C555 1.524 . S
C554 H573 0.913 . S
C555 H531 0.950 . S
C555 C554 1.524 . S
C555 C556 1.415 . S
C556 H532 0.950 . S
C556 C551 1.363 . S
C556 C555 1.415 . S
C557 H533 0.951 . S
C557 C558 1.366 . S
C557 C559 1.388 . S
C558 C557 1.366 . S
C558 C562 1.385 . S
C559 H534 0.951 . S
C559 C557 1.388 . S
C559 C560 1.366 . S
C560 C559 1.366 . S
C560 C561 1.414 . S
C560 C563 1.499 . S
C561 H535 0.950 . S
C561 C560 1.414 . S
C561 C562 1.374 . S
C562 H536 0.950 1_556 S
C562 C558 1.385 . S
C562 C561 1.374 . S
C563 C560 1.499 . S
C563 C564 1.373 . S
C563 C565 1.389 . S
C564 H537 0.950 . S
C564 C550 1.377 . S
C564 C563 1.373 . S
C565 C549 1.377 . S
C565 C563 1.389 . S
C565 C566 1.524 . S
C566 C565 1.524 . S
C566 C567 1.397 . S
C566 C571 1.363 . S
C567 H538 0.950 . S
C567 C566 1.397 . S
C567 C568 1.334 . S
C568 H539 0.950 . S
C568 C567 1.334 . S
C568 C569 1.287 . S
C569 C568 1.287 . S
C569 C570 1.524 . S
C569 H572 0.999 . S
C570 H540 0.950 . S
C570 C569 1.524 . S
C570 C571 1.415 . S
C571 H541 0.950 . S
C571 C566 1.363 . S
C571 C570 1.415 . S
H572 C569 0.999 . S
H573 C554 0.913 . S
H574 C592 0.951 . S
H575 C594 0.951 . S
H576 C596 0.950 . S
H577 C597 0.950 . S
H578 C599 0.950 . S
H579 C602 0.950 . S
H580 C603 0.950 . S
H581 C605 0.950 . S
H582 C606 0.950 . S
H583 C607 0.951 . S
H584 C609 0.951 . S
H585 C611 0.950 . S
H586 C612 0.950 . S
H587 C614 0.950 . S
H588 C617 0.950 . S
H589 C618 0.950 . S
H590 C620 0.950 . S
H591 C621 0.950 . S
C592 H574 0.951 . S
C592 C593 1.366 . S
C592 C594 1.388 . S
C593 C592 1.366 . S
C593 C597 1.385 . S
C594 H575 0.951 . S
C594 C592 1.388 . S
C594 C595 1.366 . S
C595 C594 1.366 . S
C595 C596 1.414 . S
C595 C598 1.499 . S
C596 H576 0.950 . S
C596 C595 1.414 . S
C596 C597 1.374 . S
C597 H577 0.950 . S
C597 C593 1.385 . S
C597 C596 1.374 . S
C598 C595 1.499 . S
C598 C599 1.373 . S
C598 C600 1.389 . S
C599 H578 0.950 . S
C599 C598 1.373 . S
C599 C615 1.377 . S
C600 C598 1.389 . S
C600 C601 1.524 . S
C600 C614 1.377 . S
C601 C600 1.524 . S
C601 C602 1.397 . S
C601 C606 1.363 . S
C602 H579 0.950 . S
C602 C601 1.397 . S
C602 C603 1.334 . S
C603 H580 0.950 . S
C603 C602 1.334 . S
C603 C604 1.287 . S
C604 C603 1.287 . S
C604 C605 1.524 . S
C604 H623 0.913 . S
C605 H581 0.950 . S
C605 C604 1.524 . S
C605 C606 1.415 . S
C606 H582 0.950 . S
C606 C601 1.363 . S
C606 C605 1.415 . S
C607 H583 0.951 . S
C607 C608 1.366 . S
C607 C609 1.388 . S
C608 C607 1.366 . S
C608 C612 1.385 . S
C609 H584 0.951 . S
C609 C607 1.388 . S
C609 C610 1.366 . S
C610 C609 1.366 . S
C610 C611 1.414 . S
C610 C613 1.499 . S
C611 H585 0.950 . S
C611 C610 1.414 . S
C611 C612 1.374 . S
C612 H586 0.950 . S
C612 C608 1.385 . S
C612 C611 1.374 . S
C613 C610 1.499 . S
C613 C614 1.373 . S
C613 C615 1.389 . S
C614 H587 0.950 . S
C614 C600 1.377 . S
C614 C613 1.373 . S
C615 C599 1.377 . S
C615 C613 1.389 . S
C615 C616 1.524 . S
C616 C615 1.524 . S
C616 C617 1.397 . S
C616 C621 1.363 . S
C617 H588 0.950 . S
C617 C616 1.397 . S
C617 C618 1.334 . S
C618 H589 0.950 . S
C618 C617 1.334 . S
C618 C619 1.287 . S
C619 C618 1.287 . S
C619 C620 1.524 . S
C619 H622 0.999 . S
C620 H590 0.950 . S
C620 C619 1.524 . S
C620 C621 1.415 . S
C621 H591 0.950 . S
C621 C616 1.363 . S
C621 C620 1.415 . S
H622 C619 0.999 . S
H623 C604 0.913 . S
H624 C642 0.951 . S
H625 C644 0.951 . S
H626 C646 0.950 . S
H627 C647 0.950 . S
H628 C649 0.950 . S
H629 C652 0.950 . S
H630 C653 0.950 . S
H631 C655 0.950 . S
H632 C656 0.950 . S
H633 C657 0.951 1_655 S
H634 C659 0.951 . S
H635 C661 0.950 . S
H636 C662 0.950 1_556 S
H637 C664 0.950 . S
H638 C667 0.950 1_556 S
H639 C668 0.950 . S
H640 C670 0.950 . S
H641 C671 0.950 . S
C642 H624 0.951 . S
C642 C643 1.366 . S
C642 C644 1.388 . S
C643 C642 1.366 . S
C643 C647 1.385 . S
C644 H625 0.951 . S
C644 C642 1.388 . S
C644 C645 1.366 . S
C645 C644 1.366 . S
C645 C646 1.414 . S
C645 C648 1.499 . S
C646 H626 0.950 . S
C646 C645 1.414 . S
C646 C647 1.374 . S
C647 H627 0.950 . S
C647 C643 1.385 . S
C647 C646 1.374 . S
C648 C645 1.499 . S
C648 C649 1.373 . S
C648 C650 1.389 . S
C649 H628 0.950 . S
C649 C648 1.373 . S
C649 C665 1.377 . S
C650 C648 1.389 . S
C650 C651 1.524 . S
C650 C664 1.377 . S
C651 C650 1.524 . S
C651 C652 1.397 . S
C651 C656 1.363 . S
C652 H629 0.950 . S
C652 C651 1.397 . S
C652 C653 1.334 . S
C653 H630 0.950 . S
C653 C652 1.334 . S
C653 C654 1.287 . S
C654 C653 1.287 . S
C654 C655 1.524 . S
C654 H673 0.913 . S
C655 H631 0.950 . S
C655 C654 1.524 . S
C655 C656 1.415 . S
C656 H632 0.950 . S
C656 C651 1.363 . S
C656 C655 1.415 . S
C657 H633 0.951 1_455 S
C657 C658 1.366 . S
C657 C659 1.388 . S
C658 C657 1.366 . S
C658 C662 1.385 . S
C659 H634 0.951 . S
C659 C657 1.388 . S
C659 C660 1.366 . S
C660 C659 1.366 . S
C660 C661 1.414 . S
C660 C663 1.499 . S
C661 H635 0.950 . S
C661 C660 1.414 . S
C661 C662 1.374 . S
C662 H636 0.950 1_554 S
C662 C658 1.385 . S
C662 C661 1.374 . S
C663 C660 1.499 . S
C663 C664 1.373 . S
C663 C665 1.389 . S
C664 H637 0.950 . S
C664 C650 1.377 . S
C664 C663 1.373 . S
C665 C649 1.377 . S
C665 C663 1.389 . S
C665 C666 1.524 . S
C666 C665 1.524 . S
C666 C667 1.397 . S
C666 C671 1.363 1_455 S
C667 H638 0.950 1_554 S
C667 C666 1.397 . S
C667 C668 1.334 1_454 S
C668 H639 0.950 . S
C668 C667 1.334 1_656 S
C668 C669 1.287 1_556 S
C669 C668 1.287 1_554 S
C669 C670 1.524 . S
C669 H672 0.999 . S
C670 H640 0.950 . S
C670 C669 1.524 . S
C670 C671 1.415 . S
C671 H641 0.950 . S
C671 C666 1.363 1_655 S
C671 C670 1.415 . S
H672 C669 0.999 . S
H673 C654 0.913 . S
H674 C692 0.951 . S
H675 C694 0.951 . S
H676 C696 0.950 . S
H677 C697 0.950 . S
H678 C699 0.950 . S
H679 C702 0.950 . S
H680 C703 0.950 . S
H681 C705 0.950 . S
H682 C706 0.950 . S
H683 C707 0.951 . S
H684 C709 0.951 1_554 S
H685 C711 0.950 . S
H686 C712 0.950 . S
H687 C714 0.950 . S
H688 C717 0.950 1_556 S
H689 C718 0.950 . S
H690 C720 0.950 . S
H691 C721 0.950 . S
C692 H674 0.951 . S
C692 C693 1.366 . S
C692 C694 1.388 . S
C693 C692 1.366 . S
C693 C697 1.385 . S
C694 H675 0.951 . S
C694 C692 1.388 . S
C694 C695 1.366 . S
C695 C694 1.366 . S
C695 C696 1.414 . S
C695 C698 1.499 . S
C696 H676 0.950 . S
C696 C695 1.414 . S
C696 C697 1.374 . S
C697 H677 0.950 . S
C697 C693 1.385 . S
C697 C696 1.374 . S
C698 C695 1.499 . S
C698 C699 1.373 . S
C698 C700 1.389 . S
C699 H678 0.950 . S
C699 C698 1.373 . S
C699 C715 1.377 . S
C700 C698 1.389 . S
C700 C701 1.524 . S
C700 C714 1.377 . S
C701 C700 1.524 . S
C701 C702 1.397 . S
C701 C706 1.363 . S
C702 H679 0.950 . S
C702 C701 1.397 . S
C702 C703 1.334 . S
C703 H680 0.950 . S
C703 C702 1.334 . S
C703 C704 1.287 . S
C704 C703 1.287 . S
C704 C705 1.524 . S
C704 H723 0.913 . S
C705 H681 0.950 . S
C705 C704 1.524 . S
C705 C706 1.415 . S
C706 H682 0.950 . S
C706 C701 1.363 . S
C706 C705 1.415 . S
C707 H683 0.951 . S
C707 C708 1.366 1_554 S
C707 C709 1.388 1_554 S
C708 C707 1.366 1_556 S
C708 C712 1.385 . S
C709 H684 0.951 1_556 S
C709 C707 1.388 1_556 S
C709 C710 1.366 . S
C710 C709 1.366 . S
C710 C711 1.414 . S
C710 C713 1.499 . S
C711 H685 0.950 . S
C711 C710 1.414 . S
C711 C712 1.374 . S
C712 H686 0.950 . S
C712 C708 1.385 . S
C712 C711 1.374 . S
C713 C710 1.499 . S
C713 C714 1.373 . S
C713 C715 1.389 . S
C714 H687 0.950 . S
C714 C700 1.377 . S
C714 C713 1.373 . S
C715 C699 1.377 . S
C715 C713 1.389 . S
C715 C716 1.524 1_556 S
C716 C715 1.524 1_554 S
C716 C717 1.397 . S
C716 C721 1.363 . S
C717 H688 0.950 1_554 S
C717 C716 1.397 . S
C717 C718 1.334 . S
C718 H689 0.950 . S
C718 C717 1.334 . S
C718 C719 1.287 . S
C719 C718 1.287 . S
C719 C720 1.524 . S
C719 H722 0.999 . S
C720 H690 0.950 . S
C720 C719 1.524 . S
C720 C721 1.415 . S
C721 H691 0.950 . S
C721 C716 1.363 . S
C721 C720 1.415 . S
H722 C719 0.999 . S
H723 C704 0.913 . S
H724 C742 0.951 . S
H725 C744 0.951 . S
H726 C746 0.950 . S
H727 C747 0.950 . S
H728 C749 0.950 . S
H729 C752 0.950 . S
H730 C753 0.950 . S
H731 C755 0.950 . S
H732 C756 0.950 . S
H733 C757 0.951 . S
H734 C759 0.951 . S
H735 C761 0.950 . S
H736 C762 0.950 . S
H737 C764 0.950 . S
H738 C767 0.950 1_655 S
H739 C768 0.950 . S
H740 C770 0.950 . S
H741 C771 0.950 . S
C742 H724 0.951 . S
C742 C743 1.366 . S
C742 C744 1.388 . S
C743 C742 1.366 . S
C743 C747 1.385 . S
C744 H725 0.951 . S
C744 C742 1.388 . S
C744 C745 1.366 . S
C745 C744 1.366 . S
C745 C746 1.414 . S
C745 C748 1.499 . S
C746 H726 0.950 . S
C746 C745 1.414 . S
C746 C747 1.374 . S
C747 H727 0.950 . S
C747 C743 1.385 . S
C747 C746 1.374 . S
C748 C745 1.499 . S
C748 C749 1.373 . S
C748 C750 1.389 . S
C749 H728 0.950 . S
C749 C748 1.373 . S
C749 C765 1.377 . S
C750 C748 1.389 . S
C750 C751 1.524 . S
C750 C764 1.377 . S
C751 C750 1.524 . S
C751 C752 1.397 . S
C751 C756 1.363 . S
C752 H729 0.950 . S
C752 C751 1.397 . S
C752 C753 1.334 . S
C753 H730 0.950 . S
C753 C752 1.334 . S
C753 C754 1.287 . S
C754 C753 1.287 . S
C754 C755 1.524 . S
C754 H773 0.913 . S
C755 H731 0.950 . S
C755 C754 1.524 . S
C755 C756 1.415 . S
C756 H732 0.950 . S
C756 C751 1.363 . S
C756 C755 1.415 . S
C757 H733 0.951 . S
C757 C758 1.366 . S
C757 C759 1.388 . S
C758 C757 1.366 . S
C758 C762 1.385 1_455 S
C759 H734 0.951 . S
C759 C757 1.388 . S
C759 C760 1.366 1_455 S
C760 C759 1.366 1_655 S
C760 C761 1.414 . S
C760 C763 1.499 . S
C761 H735 0.950 . S
C761 C760 1.414 . S
C761 C762 1.374 . S
C762 H736 0.950 . S
C762 C758 1.385 1_655 S
C762 C761 1.374 . S
C763 C760 1.499 . S
C763 C764 1.373 . S
C763 C765 1.389 . S
C764 H737 0.950 . S
C764 C750 1.377 . S
C764 C763 1.373 . S
C765 C749 1.377 . S
C765 C763 1.389 . S
C765 C766 1.524 1_655 S
C766 C765 1.524 1_455 S
C766 C767 1.397 . S
C766 C771 1.363 . S
C767 H738 0.950 1_455 S
C767 C766 1.397 . S
C767 C768 1.334 . S
C768 H739 0.950 . S
C768 C767 1.334 . S
C768 C769 1.287 . S
C769 C768 1.287 . S
C769 C770 1.524 . S
C769 H772 0.999 . S
C770 H740 0.950 . S
C770 C769 1.524 . S
C770 C771 1.415 . S
C771 H741 0.950 . S
C771 C766 1.363 . S
C771 C770 1.415 . S
H772 C769 0.999 . S
H773 C754 0.913 . S
H774 C792 0.951 . S
H775 C794 0.951 . S
H776 C796 0.950 . S
H777 C797 0.950 . S
H778 C799 0.950 . S
H779 C802 0.950 . S
H780 C803 0.950 . S
H781 C805 0.950 . S
H782 C806 0.950 . S
H783 C807 0.951 . S
H784 C809 0.951 . S
H785 C811 0.950 . S
H786 C812 0.950 . S
H787 C814 0.950 . S
H788 C817 0.950 . S
H789 C818 0.950 . S
H790 C820 0.950 . S
H791 C821 0.950 . S
C792 H774 0.951 . S
C792 C793 1.366 . S
C792 C794 1.388 . S
C793 C792 1.366 . S
C793 C797 1.385 . S
C794 H775 0.951 . S
C794 C792 1.388 . S
C794 C795 1.366 . S
C795 C794 1.366 . S
C795 C796 1.414 . S
C795 C798 1.499 . S
C796 H776 0.950 . S
C796 C795 1.414 . S
C796 C797 1.374 . S
C797 H777 0.950 . S
C797 C793 1.385 . S
C797 C796 1.374 . S
C798 C795 1.499 . S
C798 C799 1.373 . S
C798 C800 1.389 . S
C799 H778 0.950 . S
C799 C798 1.373 . S
C799 C815 1.377 . S
C800 C798 1.389 . S
C800 C801 1.524 . S
C800 C814 1.377 . S
C801 C800 1.524 . S
C801 C802 1.397 . S
C801 C806 1.363 . S
C802 H779 0.950 . S
C802 C801 1.397 . S
C802 C803 1.334 . S
C803 H780 0.950 . S
C803 C802 1.334 . S
C803 C804 1.287 . S
C804 C803 1.287 . S
C804 C805 1.524 . S
C804 H823 0.913 . S
C805 H781 0.950 . S
C805 C804 1.524 . S
C805 C806 1.415 . S
C806 H782 0.950 . S
C806 C801 1.363 . S
C806 C805 1.415 . S
C807 H783 0.951 . S
C807 C808 1.366 . S
C807 C809 1.388 . S
C808 C807 1.366 . S
C808 C812 1.385 . S
C809 H784 0.951 . S
C809 C807 1.388 . S
C809 C810 1.366 . S
C810 C809 1.366 . S
C810 C811 1.414 . S
C810 C813 1.499 . S
C811 H785 0.950 . S
C811 C810 1.414 . S
C811 C812 1.374 . S
C812 H786 0.950 . S
C812 C808 1.385 . S
C812 C811 1.374 . S
C813 C810 1.499 . S
C813 C814 1.373 . S
C813 C815 1.389 . S
C814 H787 0.950 . S
C814 C800 1.377 . S
C814 C813 1.373 . S
C815 C799 1.377 . S
C815 C813 1.389 . S
C815 C816 1.524 . S
C816 C815 1.524 . S
C816 C817 1.397 . S
C816 C821 1.363 . S
C817 H788 0.950 . S
C817 C816 1.397 . S
C817 C818 1.334 . S
C818 H789 0.950 . S
C818 C817 1.334 . S
C818 C819 1.287 . S
C819 C818 1.287 . S
C819 C820 1.524 . S
C819 H822 0.999 . S
C820 H790 0.950 . S
C820 C819 1.524 . S
C820 C821 1.415 . S
C821 H791 0.950 . S
C821 C816 1.363 . S
C821 C820 1.415 . S
H822 C819 0.999 . S
H823 C804 0.913 . S
H824 C842 0.951 . S
H825 C844 0.951 . S
H826 C846 0.950 . S
H827 C847 0.950 . S
H828 C849 0.950 . S
H829 C852 0.950 1_655 S
H830 C853 0.950 1_545 S
H831 C855 0.950 . S
H832 C856 0.950 . S
H833 C857 0.951 1_545 S
H834 C859 0.951 . S
H835 C861 0.950 . S
H836 C862 0.950 . S
H837 C864 0.950 1_455 S
H838 C867 0.950 . S
H839 C868 0.950 . S
H840 C870 0.950 . S
H841 C871 0.950 . S
C842 H824 0.951 . S
C842 C843 1.366 . S
C842 C844 1.388 . S
C843 C842 1.366 . S
C843 C847 1.385 . S
C844 H825 0.951 . S
C844 C842 1.388 . S
C844 C845 1.366 . S
C845 C844 1.366 . S
C845 C846 1.414 . S
C845 C848 1.499 . S
C846 H826 0.950 . S
C846 C845 1.414 . S
C846 C847 1.374 . S
C847 H827 0.950 . S
C847 C843 1.385 . S
C847 C846 1.374 . S
C848 C845 1.499 . S
C848 C849 1.373 . S
C848 C850 1.389 . S
C849 H828 0.950 . S
C849 C848 1.373 . S
C849 C865 1.377 . S
C850 C848 1.389 . S
C850 C851 1.524 1_655 S
C850 C864 1.377 . S
C851 C850 1.524 1_455 S
C851 C852 1.397 . S
C851 C856 1.363 . S
C852 H829 0.950 1_455 S
C852 C851 1.397 . S
C852 C853 1.334 . S
C853 H830 0.950 1_565 S
C853 C852 1.334 . S
C853 C854 1.287 . S
C854 C853 1.287 . S
C854 C855 1.524 . S
C854 H873 0.913 . S
C855 H831 0.950 . S
C855 C854 1.524 . S
C855 C856 1.415 . S
C856 H832 0.950 . S
C856 C851 1.363 . S
C856 C855 1.415 . S
C857 H833 0.951 1_565 S
C857 C858 1.366 1_655 S
C857 C859 1.388 . S
C858 C857 1.366 1_455 S
C858 C862 1.385 . S
C859 H834 0.951 . S
C859 C857 1.388 . S
C859 C860 1.366 . S
C860 C859 1.366 . S
C860 C861 1.414 1_655 S
C860 C863 1.499 . S
C861 H835 0.950 . S
C861 C860 1.414 1_455 S
C861 C862 1.374 . S
C862 H836 0.950 . S
C862 C858 1.385 . S
C862 C861 1.374 . S
C863 C860 1.499 . S
C863 C864 1.373 . S
C863 C865 1.389 . S
C864 H837 0.950 1_655 S
C864 C850 1.377 . S
C864 C863 1.373 . S
C865 C849 1.377 . S
C865 C863 1.389 . S
C865 C866 1.524 . S
C866 C865 1.524 . S
C866 C867 1.397 . S
C866 C871 1.363 . S
C867 H838 0.950 . S
C867 C866 1.397 . S
C867 C868 1.334 . S
C868 H839 0.950 . S
C868 C867 1.334 . S
C868 C869 1.287 . S
C869 C868 1.287 . S
C869 C870 1.524 . S
C869 H872 0.999 . S
C870 H840 0.950 . S
C870 C869 1.524 . S
C870 C871 1.415 . S
C871 H841 0.950 . S
C871 C866 1.363 . S
C871 C870 1.415 . S
H872 C869 0.999 . S
H873 C854 0.913 . S
H874 C892 0.951 . S
H875 C894 0.951 . S
H876 C896 0.950 . S
H877 C897 0.950 . S
H878 C899 0.950 . S
H879 C902 0.950 . S
H880 C903 0.950 . S
H881 C905 0.950 . S
H882 C906 0.950 . S
H883 C907 0.951 . S
H884 C909 0.951 . S
H885 C911 0.950 . S
H886 C912 0.950 . S
H887 C914 0.950 . S
H888 C917 0.950 . S
H889 C918 0.950 . S
H890 C920 0.950 . S
H891 C921 0.950 . S
C892 H874 0.951 . S
C892 C893 1.366 . S
C892 C894 1.388 . S
C893 C892 1.366 . S
C893 C897 1.385 . S
C894 H875 0.951 . S
C894 C892 1.388 . S
C894 C895 1.366 . S
C895 C894 1.366 . S
C895 C896 1.414 . S
C895 C898 1.499 . S
C896 H876 0.950 . S
C896 C895 1.414 . S
C896 C897 1.374 . S
C897 H877 0.950 . S
C897 C893 1.385 . S
C897 C896 1.374 . S
C898 C895 1.499 . S
C898 C899 1.373 . S
C898 C900 1.389 . S
C899 H878 0.950 . S
C899 C898 1.373 . S
C899 C915 1.377 . S
C900 C898 1.389 . S
C900 C901 1.524 . S
C900 C914 1.377 . S
C901 C900 1.524 . S
C901 C902 1.397 . S
C901 C906 1.363 . S
C902 H879 0.950 . S
C902 C901 1.397 . S
C902 C903 1.334 . S
C903 H880 0.950 . S
C903 C902 1.334 . S
C903 C904 1.287 . S
C904 C903 1.287 . S
C904 C905 1.524 . S
C904 H923 0.913 . S
C905 H881 0.950 . S
C905 C904 1.524 . S
C905 C906 1.415 . S
C906 H882 0.950 . S
C906 C901 1.363 . S
C906 C905 1.415 . S
C907 H883 0.951 . S
C907 C908 1.366 . S
C907 C909 1.388 . S
C908 C907 1.366 . S
C908 C912 1.385 . S
C909 H884 0.951 . S
C909 C907 1.388 . S
C909 C910 1.366 . S
C910 C909 1.366 . S
C910 C911 1.414 . S
C910 C913 1.499 . S
C911 H885 0.950 . S
C911 C910 1.414 . S
C911 C912 1.374 . S
C912 H886 0.950 . S
C912 C908 1.385 . S
C912 C911 1.374 . S
C913 C910 1.499 . S
C913 C914 1.373 . S
C913 C915 1.389 . S
C914 H887 0.950 . S
C914 C900 1.377 . S
C914 C913 1.373 . S
C915 C899 1.377 . S
C915 C913 1.389 . S
C915 C916 1.524 . S
C916 C915 1.524 . S
C916 C917 1.397 . S
C916 C921 1.363 . S
C917 H888 0.950 . S
C917 C916 1.397 . S
C917 C918 1.334 . S
C918 H889 0.950 . S
C918 C917 1.334 . S
C918 C919 1.287 . S
C919 C918 1.287 . S
C919 C920 1.524 . S
C919 H922 0.999 . S
C920 H890 0.950 . S
C920 C919 1.524 . S
C920 C921 1.415 . S
C921 H891 0.950 . S
C921 C916 1.363 . S
C921 C920 1.415 . S
H922 C919 0.999 . S
H923 C904 0.913 . S
H924 C942 0.951 . S
H925 C944 0.951 . S
H926 C946 0.950 . S
H927 C947 0.950 . S
H928 C949 0.950 . S
H929 C952 0.950 . S
H930 C953 0.950 . S
H931 C955 0.950 . S
H932 C956 0.950 . S
H933 C957 0.951 . S
H934 C959 0.951 . S
H935 C961 0.950 . S
H936 C962 0.950 . S
H937 C964 0.950 . S
H938 C967 0.950 . S
H939 C968 0.950 . S
H940 C970 0.950 . S
H941 C971 0.950 . S
C942 H924 0.951 . S
C942 C943 1.366 . S
C942 C944 1.388 . S
C943 C942 1.366 . S
C943 C947 1.385 . S
C944 H925 0.951 . S
C944 C942 1.388 . S
C944 C945 1.366 . S
C945 C944 1.366 . S
C945 C946 1.414 . S
C945 C948 1.499 . S
C946 H926 0.950 . S
C946 C945 1.414 . S
C946 C947 1.374 . S
C947 H927 0.950 . S
C947 C943 1.385 . S
C947 C946 1.374 . S
C948 C945 1.499 . S
C948 C949 1.373 . S
C948 C950 1.389 . S
C949 H928 0.950 . S
C949 C948 1.373 . S
C949 C965 1.377 . S
C950 C948 1.389 . S
C950 C951 1.524 . S
C950 C964 1.377 . S
C951 C950 1.524 . S
C951 C952 1.397 . S
C951 C956 1.363 . S
C952 H929 0.950 . S
C952 C951 1.397 . S
C952 C953 1.334 . S
C953 H930 0.950 . S
C953 C952 1.334 . S
C953 C954 1.287 . S
C954 C953 1.287 . S
C954 C955 1.524 . S
C954 H973 0.913 . S
C955 H931 0.950 . S
C955 C954 1.524 . S
C955 C956 1.415 . S
C956 H932 0.950 . S
C956 C951 1.363 . S
C956 C955 1.415 . S
C957 H933 0.951 . S
C957 C958 1.366 . S
C957 C959 1.388 . S
C958 C957 1.366 . S
C958 C962 1.385 . S
C959 H934 0.951 . S
C959 C957 1.388 . S
C959 C960 1.366 . S
C960 C959 1.366 . S
C960 C961 1.414 . S
C960 C963 1.499 . S
C961 H935 0.950 . S
C961 C960 1.414 . S
C961 C962 1.374 . S
C962 H936 0.950 . S
C962 C958 1.385 . S
C962 C961 1.374 . S
C963 C960 1.499 . S
C963 C964 1.373 . S
C963 C965 1.389 . S
C964 H937 0.950 . S
C964 C950 1.377 . S
C964 C963 1.373 . S
C965 C949 1.377 . S
C965 C963 1.389 . S
C965 C966 1.524 . S
C966 C965 1.524 . S
C966 C967 1.397 . S
C966 C971 1.363 . S
C967 H938 0.950 . S
C967 C966 1.397 . S
C967 C968 1.334 . S
C968 H939 0.950 . S
C968 C967 1.334 . S
C968 C969 1.287 . S
C969 C968 1.287 . S
C969 C970 1.524 . S
C969 H972 0.999 . S
C970 H940 0.950 . S
C970 C969 1.524 . S
C970 C971 1.415 . S
C971 H941 0.950 . S
C971 C966 1.363 . S
C971 C970 1.415 . S
H972 C969 0.999 . S
H973 C954 0.913 . S
H974 C992 0.951 . S
H975 C994 0.951 . S
H976 C996 0.950 . S
H977 C997 0.950 . S
H978 C999 0.950 . S
H979 C1002 0.950 . S
H980 C1003 0.950 . S
H981 C1005 0.950 . S
H982 C1006 0.950 . S
H983 C1007 0.951 . S
H984 C1009 0.951 . S
H985 C1011 0.950 . S
H986 C1012 0.950 . S
H987 C1014 0.950 . S
H988 C1017 0.950 1_455 S
H989 C1018 0.950 . S
H990 C1020 0.950 . S
H991 C1021 0.950 1_455 S
C992 H974 0.951 . S
C992 C993 1.366 . S
C992 C994 1.388 . S
C993 C992 1.366 . S
C993 C997 1.385 . S
C994 H975 0.951 . S
C994 C992 1.388 . S
C994 C995 1.366 . S
C995 C994 1.366 . S
C995 C996 1.414 . S
C995 C998 1.499 . S
C996 H976 0.950 . S
C996 C995 1.414 . S
C996 C997 1.374 . S
C997 H977 0.950 . S
C997 C993 1.385 . S
C997 C996 1.374 . S
C998 C995 1.499 . S
C998 C999 1.373 . S
C998 C1000 1.389 . S
C999 H978 0.950 . S
C999 C998 1.373 . S
C999 C1015 1.377 . S
C1000 C998 1.389 . S
C1000 C1001 1.524 . S
C1000 C1014 1.377 . S
C1001 C1000 1.524 . S
C1001 C1002 1.397 . S
C1001 C1006 1.363 . S
C1002 H979 0.950 . S
C1002 C1001 1.397 . S
C1002 C1003 1.334 . S
C1003 H980 0.950 . S
C1003 C1002 1.334 . S
C1003 C1004 1.287 . S
C1004 C1003 1.287 . S
C1004 C1005 1.524 . S
C1004 H1023 0.913 . S
C1005 H981 0.950 . S
C1005 C1004 1.524 . S
C1005 C1006 1.415 . S
C1006 H982 0.950 . S
C1006 C1001 1.363 . S
C1006 C1005 1.415 . S
C1007 H983 0.951 . S
C1007 C1008 1.366 . S
C1007 C1009 1.388 . S
C1008 C1007 1.366 . S
C1008 C1012 1.385 . S
C1009 H984 0.951 . S
C1009 C1007 1.388 . S
C1009 C1010 1.366 . S
C1010 C1009 1.366 . S
C1010 C1011 1.414 . S
C1010 C1013 1.499 . S
C1011 H985 0.950 . S
C1011 C1010 1.414 . S
C1011 C1012 1.374 . S
C1012 H986 0.950 . S
C1012 C1008 1.385 . S
C1012 C1011 1.374 . S
C1013 C1010 1.499 . S
C1013 C1014 1.373 . S
C1013 C1015 1.389 . S
C1014 H987 0.950 . S
C1014 C1000 1.377 . S
C1014 C1013 1.373 . S
C1015 C999 1.377 . S
C1015 C1013 1.389 . S
C1015 C1016 1.524 . S
C1016 C1015 1.524 . S
C1016 C1017 1.397 1_455 S
C1016 C1021 1.363 1_455 S
C1017 H988 0.950 1_655 S
C1017 C1016 1.397 1_655 S
C1017 C1018 1.334 . S
C1018 H989 0.950 . S
C1018 C1017 1.334 . S
C1018 C1019 1.287 . S
C1019 C1018 1.287 . S
C1019 C1020 1.524 . S
C1019 H1022 0.999 . S
C1020 H990 0.950 . S
C1020 C1019 1.524 . S
C1020 C1021 1.415 . S
C1021 H991 0.950 1_655 S
C1021 C1016 1.363 1_655 S
C1021 C1020 1.415 . S
H1022 C1019 0.999 . S
H1023 C1004 0.913 . S
H1024 C1042 0.951 . S
H1025 C1044 0.951 . S
H1026 C1046 0.950 . S
H1027 C1047 0.950 . S
H1028 C1049 0.950 . S
H1029 C1052 0.950 . S
H1030 C1053 0.950 . S
H1031 C1055 0.950 . S
H1032 C1056 0.949 1_545 S
H1033 C1057 0.951 . S
H1034 C1059 0.951 . S
H1035 C1061 0.950 . S
H1036 C1062 0.950 . S
H1037 C1064 0.950 1_554 S
H1038 C1067 0.950 1_545 S
H1039 C1068 0.950 1_545 S
H1040 C1070 0.950 . S
H1041 C1071 0.950 . S
C1042 H1024 0.951 . S
C1042 C1043 1.366 . S
C1042 C1044 1.388 . S
C1043 C1042 1.366 . S
C1043 C1047 1.385 . S
C1044 H1025 0.951 . S
C1044 C1042 1.388 . S
C1044 C1045 1.366 . S
C1045 C1044 1.366 . S
C1045 C1046 1.414 . S
C1045 C1048 1.499 . S
C1046 H1026 0.950 . S
C1046 C1045 1.414 . S
C1046 C1047 1.374 . S
C1047 H1027 0.950 . S
C1047 C1043 1.385 . S
C1047 C1046 1.374 . S
C1048 C1045 1.499 . S
C1048 C1049 1.373 . S
C1048 C1050 1.389 . S
C1049 H1028 0.950 . S
C1049 C1048 1.373 . S
C1049 C1065 1.377 . S
C1050 C1048 1.389 . S
C1050 C1051 1.524 1_556 S
C1050 C1064 1.377 . S
C1051 C1050 1.524 1_554 S
C1051 C1052 1.397 . S
C1051 C1056 1.364 . S
C1052 H1029 0.950 . S
C1052 C1051 1.397 . S
C1052 C1053 1.334 . S
C1053 H1030 0.950 . S
C1053 C1052 1.334 . S
C1053 C1054 1.287 . S
C1054 C1053 1.287 . S
C1054 C1055 1.524 1_565 S
C1054 H1073 0.913 . S
C1055 H1031 0.950 . S
C1055 C1054 1.524 1_545 S
C1055 C1056 1.415 1_545 S
C1056 H1032 0.949 1_565 S
C1056 C1051 1.364 . S
C1056 C1055 1.415 1_565 S
C1057 H1033 0.951 . S
C1057 C1058 1.351 1_556 S
C1057 C1059 1.388 . S
C1058 C1057 1.351 1_554 S
C1058 C1062 1.386 1_565 S
C1059 H1034 0.951 . S
C1059 C1057 1.388 . S
C1059 C1060 1.366 . S
C1060 C1059 1.366 . S
C1060 C1061 1.414 1_565 S
C1060 C1063 1.499 . S
C1061 H1035 0.950 . S
C1061 C1060 1.414 1_545 S
C1061 C1062 1.374 1_556 S
C1062 H1036 0.950 . S
C1062 C1058 1.386 1_545 S
C1062 C1061 1.374 1_554 S
C1063 C1060 1.499 . S
C1063 C1064 1.373 . S
C1063 C1065 1.389 . S
C1064 H1037 0.950 1_556 S
C1064 C1050 1.377 . S
C1064 C1063 1.373 . S
C1065 C1049 1.377 . S
C1065 C1063 1.389 . S
C1065 C1066 1.524 . S
C1066 C1065 1.524 . S
C1066 C1067 1.397 . S
C1066 C1071 1.363 . S
C1067 H1038 0.950 1_565 S
C1067 C1066 1.397 . S
C1067 C1068 1.334 . S
C1068 H1039 0.950 1_565 S
C1068 C1067 1.334 . S
C1068 C1069 1.287 . S
C1069 C1068 1.287 . S
C1069 C1070 1.524 . S
C1069 H1072 0.999 . S
C1070 H1040 0.950 . S
C1070 C1069 1.524 . S
C1070 C1071 1.415 . S
C1071 H1041 0.950 . S
C1071 C1066 1.363 . S
C1071 C1070 1.415 . S
H1072 C1069 0.999 . S
H1073 C1054 0.913 . S
H1074 C1092 0.951 . S
H1075 C1094 0.951 . S
H1076 C1096 0.950 . S
H1077 C1097 0.950 . S
H1078 C1099 0.950 . S
H1079 C1102 0.950 . S
H1080 C1103 0.950 . S
H1081 C1105 0.950 . S
H1082 C1106 0.950 . S
H1083 C1107 0.951 . S
H1084 C1109 0.951 . S
H1085 C1111 0.950 . S
H1086 C1112 0.950 . S
H1087 C1114 0.950 . S
H1088 C1117 0.950 . S
H1089 C1118 0.950 . S
H1090 C1120 0.950 . S
H1091 C1121 0.950 . S
C1092 H1074 0.951 . S
C1092 C1093 1.366 . S
C1092 C1094 1.388 . S
C1093 C1092 1.366 . S
C1093 C1097 1.385 . S
C1094 H1075 0.951 . S
C1094 C1092 1.388 . S
C1094 C1095 1.366 . S
C1095 C1094 1.366 . S
C1095 C1096 1.414 . S
C1095 C1098 1.499 . S
C1096 H1076 0.950 . S
C1096 C1095 1.414 . S
C1096 C1097 1.374 . S
C1097 H1077 0.950 . S
C1097 C1093 1.385 . S
C1097 C1096 1.374 . S
C1098 C1095 1.499 . S
C1098 C1099 1.373 . S
C1098 C1100 1.389 . S
C1099 H1078 0.950 . S
C1099 C1098 1.373 . S
C1099 C1115 1.377 . S
C1100 C1098 1.389 . S
C1100 C1101 1.524 . S
C1100 C1114 1.377 . S
C1101 C1100 1.524 . S
C1101 C1102 1.397 . S
C1101 C1106 1.363 . S
C1102 H1079 0.950 . S
C1102 C1101 1.397 . S
C1102 C1103 1.334 . S
C1103 H1080 0.950 . S
C1103 C1102 1.334 . S
C1103 C1104 1.287 . S
C1104 C1103 1.287 . S
C1104 C1105 1.524 . S
C1104 H1123 0.913 . S
C1105 H1081 0.950 . S
C1105 C1104 1.524 . S
C1105 C1106 1.415 . S
C1106 H1082 0.950 . S
C1106 C1101 1.363 . S
C1106 C1105 1.415 . S
C1107 H1083 0.951 . S
C1107 C1108 1.366 . S
C1107 C1109 1.388 . S
C1108 C1107 1.366 . S
C1108 C1112 1.385 . S
C1109 H1084 0.951 . S
C1109 C1107 1.388 . S
C1109 C1110 1.366 . S
C1110 C1109 1.366 . S
C1110 C1111 1.414 . S
C1110 C1113 1.499 . S
C1111 H1085 0.950 . S
C1111 C1110 1.414 . S
C1111 C1112 1.374 . S
C1112 H1086 0.950 . S
C1112 C1108 1.385 . S
C1112 C1111 1.374 . S
C1113 C1110 1.499 . S
C1113 C1114 1.373 . S
C1113 C1115 1.389 . S
C1114 H1087 0.950 . S
C1114 C1100 1.377 . S
C1114 C1113 1.373 . S
C1115 C1099 1.377 . S
C1115 C1113 1.389 . S
C1115 C1116 1.524 . S
C1116 C1115 1.524 . S
C1116 C1117 1.397 . S
C1116 C1121 1.363 . S
C1117 H1088 0.950 . S
C1117 C1116 1.397 . S
C1117 C1118 1.334 . S
C1118 H1089 0.950 . S
C1118 C1117 1.334 . S
C1118 C1119 1.287 . S
C1119 C1118 1.287 . S
C1119 C1120 1.524 . S
C1119 H1122 0.999 . S
C1120 H1090 0.950 . S
C1120 C1119 1.524 . S
C1120 C1121 1.415 . S
C1121 H1091 0.950 . S
C1121 C1116 1.363 . S
C1121 C1120 1.415 . S
H1122 C1119 0.999 . S
H1123 C1104 0.913 . S
H1124 C1142 0.951 . S
H1125 C1144 0.951 . S
H1126 C1146 0.950 . S
H1127 C1147 0.950 . S
H1128 C1149 0.950 . S
H1129 C1152 0.950 . S
H1130 C1153 0.950 . S
H1131 C1155 0.950 . S
H1132 C1156 0.950 . S
H1133 C1157 0.951 . S
H1134 C1159 0.951 . S
H1135 C1161 0.950 . S
H1136 C1162 0.950 . S
H1137 C1164 0.950 . S
H1138 C1167 0.950 . S
H1139 C1168 0.950 . S
H1140 C1170 0.950 . S
H1141 C1171 0.950 . S
C1142 H1124 0.951 . S
C1142 C1143 1.366 . S
C1142 C1144 1.388 . S
C1143 C1142 1.366 . S
C1143 C1147 1.385 . S
C1144 H1125 0.951 . S
C1144 C1142 1.388 . S
C1144 C1145 1.366 . S
C1145 C1144 1.366 . S
C1145 C1146 1.414 . S
C1145 C1148 1.499 . S
C1146 H1126 0.950 . S
C1146 C1145 1.414 . S
C1146 C1147 1.374 . S
C1147 H1127 0.950 . S
C1147 C1143 1.385 . S
C1147 C1146 1.374 . S
C1148 C1145 1.499 . S
C1148 C1149 1.373 . S
C1148 C1150 1.389 . S
C1149 H1128 0.950 . S
C1149 C1148 1.373 . S
C1149 C1165 1.377 . S
C1150 C1148 1.389 . S
C1150 C1151 1.524 . S
C1150 C1164 1.377 . S
C1151 C1150 1.524 . S
C1151 C1152 1.397 . S
C1151 C1156 1.363 . S
C1152 H1129 0.950 . S
C1152 C1151 1.397 . S
C1152 C1153 1.334 . S
C1153 H1130 0.950 . S
C1153 C1152 1.334 . S
C1153 C1154 1.287 . S
C1154 C1153 1.287 . S
C1154 C1155 1.524 . S
C1154 H1173 0.913 . S
C1155 H1131 0.950 . S
C1155 C1154 1.524 . S
C1155 C1156 1.415 . S
C1156 H1132 0.950 . S
C1156 C1151 1.363 . S
C1156 C1155 1.415 . S
C1157 H1133 0.951 . S
C1157 C1158 1.366 . S
C1157 C1159 1.388 . S
C1158 C1157 1.366 . S
C1158 C1162 1.385 . S
C1159 H1134 0.951 . S
C1159 C1157 1.388 . S
C1159 C1160 1.366 . S
C1160 C1159 1.366 . S
C1160 C1161 1.414 . S
C1160 C1163 1.499 . S
C1161 H1135 0.950 . S
C1161 C1160 1.414 . S
C1161 C1162 1.374 . S
C1162 H1136 0.950 . S
C1162 C1158 1.385 . S
C1162 C1161 1.374 . S
C1163 C1160 1.499 . S
C1163 C1164 1.373 . S
C1163 C1165 1.389 . S
C1164 H1137 0.950 . S
C1164 C1150 1.377 . S
C1164 C1163 1.373 . S
C1165 C1149 1.377 . S
C1165 C1163 1.389 . S
C1165 C1166 1.524 . S
C1166 C1165 1.524 . S
C1166 C1167 1.397 1_554 S
C1166 C1171 1.363 . S
C1167 H1138 0.950 . S
C1167 C1166 1.397 1_556 S
C1167 C1168 1.334 . S
C1168 H1139 0.950 . S
C1168 C1167 1.334 . S
C1168 C1169 1.287 . S
C1169 C1168 1.287 . S
C1169 C1170 1.524 . S
C1169 H1172 0.999 . S
C1170 H1140 0.950 . S
C1170 C1169 1.524 . S
C1170 C1171 1.415 1_556 S
C1171 H1141 0.950 . S
C1171 C1166 1.363 . S
C1171 C1170 1.415 1_554 S
H1172 C1169 0.999 . S
H1173 C1154 0.913 . S
H1174 C1192 0.951 . S
H1175 C1194 0.951 . S
H1176 C1196 0.950 . S
H1177 C1197 0.950 . S
H1178 C1199 0.950 . S
H1179 C1202 0.950 . S
H1180 C1203 0.950 . S
H1181 C1205 0.950 . S
H1182 C1206 0.950 . S
H1183 C1207 0.951 . S
H1184 C1209 0.951 . S
H1185 C1211 0.950 . S
H1186 C1212 0.950 . S
H1187 C1214 0.950 . S
H1188 C1217 0.950 . S
H1189 C1218 0.950 . S
H1190 C1220 0.950 . S
H1191 C1221 0.950 . S
C1192 H1174 0.951 . S
C1192 C1193 1.366 . S
C1192 C1194 1.388 . S
C1193 C1192 1.366 . S
C1193 C1197 1.385 . S
C1194 H1175 0.951 . S
C1194 C1192 1.388 . S
C1194 C1195 1.366 . S
C1195 C1194 1.366 . S
C1195 C1196 1.414 . S
C1195 C1198 1.499 . S
C1196 H1176 0.950 . S
C1196 C1195 1.414 . S
C1196 C1197 1.374 . S
C1197 H1177 0.950 . S
C1197 C1193 1.385 . S
C1197 C1196 1.374 . S
C1198 C1195 1.499 . S
C1198 C1199 1.373 . S
C1198 C1200 1.389 . S
C1199 H1178 0.950 . S
C1199 C1198 1.373 . S
C1199 C1215 1.377 . S
C1200 C1198 1.389 . S
C1200 C1201 1.524 . S
C1200 C1214 1.377 . S
C1201 C1200 1.524 . S
C1201 C1202 1.397 . S
C1201 C1206 1.363 . S
C1202 H1179 0.950 . S
C1202 C1201 1.397 . S
C1202 C1203 1.334 . S
C1203 H1180 0.950 . S
C1203 C1202 1.334 . S
C1203 C1204 1.287 . S
C1204 C1203 1.287 . S
C1204 C1205 1.524 . S
C1204 H1223 0.913 . S
C1205 H1181 0.950 . S
C1205 C1204 1.524 . S
C1205 C1206 1.415 . S
C1206 H1182 0.950 . S
C1206 C1201 1.363 . S
C1206 C1205 1.415 . S
C1207 H1183 0.951 . S
C1207 C1208 1.366 . S
C1207 C1209 1.388 . S
C1208 C1207 1.366 . S
C1208 C1212 1.385 . S
C1209 H1184 0.951 . S
C1209 C1207 1.388 . S
C1209 C1210 1.366 . S
C1210 C1209 1.366 . S
C1210 C1211 1.414 . S
C1210 C1213 1.499 . S
C1211 H1185 0.950 . S
C1211 C1210 1.414 . S
C1211 C1212 1.374 . S
C1212 H1186 0.950 . S
C1212 C1208 1.385 . S
C1212 C1211 1.374 . S
C1213 C1210 1.499 . S
C1213 C1214 1.373 . S
C1213 C1215 1.389 . S
C1214 H1187 0.950 . S
C1214 C1200 1.377 . S
C1214 C1213 1.373 . S
C1215 C1199 1.377 . S
C1215 C1213 1.389 . S
C1215 C1216 1.524 . S
C1216 C1215 1.524 . S
C1216 C1217 1.397 . S
C1216 C1221 1.363 . S
C1217 H1188 0.950 . S
C1217 C1216 1.397 . S
C1217 C1218 1.334 . S
C1218 H1189 0.950 . S
C1218 C1217 1.334 . S
C1218 C1219 1.287 . S
C1219 C1218 1.287 . S
C1219 C1220 1.524 . S
C1219 H1222 0.999 . S
C1220 H1190 0.950 . S
C1220 C1219 1.524 . S
C1220 C1221 1.415 . S
C1221 H1191 0.950 . S
C1221 C1216 1.363 . S
C1221 C1220 1.415 . S
H1222 C1219 0.999 . S
H1223 C1204 0.913 . S
H1224 C1242 0.951 . S
H1225 C1244 0.951 . S
H1226 C1246 0.950 . S
H1227 C1247 0.950 . S
H1228 C1249 0.950 . S
H1229 C1252 0.950 . S
H1230 C1253 0.950 . S
H1231 C1255 0.950 . S
H1232 C1256 0.950 . S
H1233 C1257 0.951 1_455 S
H1234 C1259 0.951 1_455 S
H1235 C1261 0.950 . S
H1236 C1262 0.950 . S
H1237 C1264 0.950 . S
H1238 C1267 0.950 . S
H1239 C1268 0.950 . S
H1240 C1270 0.950 . S
H1241 C1271 0.950 . S
C1242 H1224 0.951 . S
C1242 C1243 1.366 . S
C1242 C1244 1.388 . S
C1243 C1242 1.366 . S
C1243 C1247 1.385 . S
C1244 H1225 0.951 . S
C1244 C1242 1.388 . S
C1244 C1245 1.366 . S
C1245 C1244 1.366 . S
C1245 C1246 1.414 . S
C1245 C1248 1.499 . S
C1246 H1226 0.950 . S
C1246 C1245 1.414 . S
C1246 C1247 1.374 . S
C1247 H1227 0.950 . S
C1247 C1243 1.385 . S
C1247 C1246 1.374 . S
C1248 C1245 1.499 . S
C1248 C1249 1.373 . S
C1248 C1250 1.389 . S
C1249 H1228 0.950 . S
C1249 C1248 1.373 . S
C1249 C1265 1.377 . S
C1250 C1248 1.389 . S
C1250 C1251 1.524 . S
C1250 C1264 1.377 . S
C1251 C1250 1.524 . S
C1251 C1252 1.397 . S
C1251 C1256 1.363 . S
C1252 H1229 0.950 . S
C1252 C1251 1.397 . S
C1252 C1253 1.334 1_556 S
C1253 H1230 0.950 . S
C1253 C1252 1.334 1_554 S
C1253 C1254 1.287 . S
C1254 C1253 1.287 . S
C1254 C1255 1.524 . S
C1254 H1273 0.913 . S
C1255 H1231 0.950 . S
C1255 C1254 1.524 . S
C1255 C1256 1.415 1_554 S
C1256 H1232 0.950 . S
C1256 C1251 1.363 . S
C1256 C1255 1.415 1_556 S
C1257 H1233 0.951 1_655 S
C1257 C1258 1.366 . S
C1257 C1259 1.388 . S
C1258 C1257 1.366 . S
C1258 C1262 1.385 . S
C1259 H1234 0.951 1_655 S
C1259 C1257 1.388 . S
C1259 C1260 1.366 . S
C1260 C1259 1.366 . S
C1260 C1261 1.414 . S
C1260 C1263 1.499 . S
C1261 H1235 0.950 . S
C1261 C1260 1.414 . S
C1261 C1262 1.374 . S
C1262 H1236 0.950 . S
C1262 C1258 1.385 . S
C1262 C1261 1.374 . S
C1263 C1260 1.499 . S
C1263 C1264 1.373 . S
C1263 C1265 1.389 . S
C1264 H1237 0.950 . S
C1264 C1250 1.377 . S
C1264 C1263 1.373 . S
C1265 C1249 1.377 . S
C1265 C1263 1.389 . S
C1265 C1266 1.524 . S
C1266 C1265 1.524 . S
C1266 C1267 1.397 . S
C1266 C1271 1.363 1_655 S
C1267 H1238 0.950 . S
C1267 C1266 1.397 . S
C1267 C1268 1.334 . S
C1268 H1239 0.950 . S
C1268 C1267 1.334 . S
C1268 C1269 1.287 1_655 S
C1269 C1268 1.287 1_455 S
C1269 C1270 1.524 . S
C1269 H1272 0.999 . S
C1270 H1240 0.950 . S
C1270 C1269 1.524 . S
C1270 C1271 1.415 . S
C1271 H1241 0.950 . S
C1271 C1266 1.363 1_455 S
C1271 C1270 1.415 . S
H1272 C1269 0.999 . S
H1273 C1254 0.913 . S
H1274 C1292 0.951 . S
H1275 C1294 0.951 . S
H1276 C1296 0.950 . S
H1277 C1297 0.950 . S
H1278 C1299 0.950 . S
H1279 C1302 0.950 . S
H1280 C1303 0.950 . S
H1281 C1305 0.950 . S
H1282 C1306 0.950 . S
H1283 C1307 0.951 . S
H1284 C1309 0.951 . S
H1285 C1311 0.950 . S
H1286 C1312 0.950 . S
H1287 C1314 0.950 . S
H1288 C1317 0.950 . S
H1289 C1318 0.950 . S
H1290 C1320 0.950 . S
H1291 C1321 0.950 . S
C1292 H1274 0.951 . S
C1292 C1293 1.366 . S
C1292 C1294 1.388 . S
C1293 C1292 1.366 . S
C1293 C1297 1.385 . S
C1294 H1275 0.951 . S
C1294 C1292 1.388 . S
C1294 C1295 1.366 . S
C1295 C1294 1.366 . S
C1295 C1296 1.414 . S
C1295 C1298 1.499 . S
C1296 H1276 0.950 . S
C1296 C1295 1.414 . S
C1296 C1297 1.374 . S
C1297 H1277 0.950 . S
C1297 C1293 1.385 . S
C1297 C1296 1.374 . S
C1298 C1295 1.499 . S
C1298 C1299 1.373 . S
C1298 C1300 1.389 . S
C1299 H1278 0.950 . S
C1299 C1298 1.373 . S
C1299 C1315 1.377 . S
C1300 C1298 1.389 . S
C1300 C1301 1.524 . S
C1300 C1314 1.377 . S
C1301 C1300 1.524 . S
C1301 C1302 1.397 . S
C1301 C1306 1.363 . S
C1302 H1279 0.950 . S
C1302 C1301 1.397 . S
C1302 C1303 1.334 . S
C1303 H1280 0.950 . S
C1303 C1302 1.334 . S
C1303 C1304 1.287 1_554 S
C1304 C1303 1.287 1_556 S
C1304 C1305 1.524 . S
C1304 H1323 0.913 . S
C1305 H1281 0.950 . S
C1305 C1304 1.524 . S
C1305 C1306 1.415 1_556 S
C1306 H1282 0.950 . S
C1306 C1301 1.363 . S
C1306 C1305 1.415 1_554 S
C1307 H1283 0.951 . S
C1307 C1308 1.366 . S
C1307 C1309 1.388 . S
C1308 C1307 1.366 . S
C1308 C1312 1.385 . S
C1309 H1284 0.951 . S
C1309 C1307 1.388 . S
C1309 C1310 1.366 . S
C1310 C1309 1.366 . S
C1310 C1311 1.414 . S
C1310 C1313 1.499 . S
C1311 H1285 0.950 . S
C1311 C1310 1.414 . S
C1311 C1312 1.374 . S
C1312 H1286 0.950 . S
C1312 C1308 1.385 . S
C1312 C1311 1.374 . S
C1313 C1310 1.499 . S
C1313 C1314 1.373 . S
C1313 C1315 1.389 . S
C1314 H1287 0.950 . S
C1314 C1300 1.377 . S
C1314 C1313 1.373 . S
C1315 C1299 1.377 . S
C1315 C1313 1.389 . S
C1315 C1316 1.524 . S
C1316 C1315 1.524 . S
C1316 C1317 1.397 . S
C1316 C1321 1.363 . S
C1317 H1288 0.950 . S
C1317 C1316 1.397 . S
C1317 C1318 1.334 . S
C1318 H1289 0.950 . S
C1318 C1317 1.334 . S
C1318 C1319 1.287 . S
C1319 C1318 1.287 . S
C1319 C1320 1.524 . S
C1319 H1322 0.999 . S
C1320 H1290 0.950 . S
C1320 C1319 1.524 . S
C1320 C1321 1.415 . S
C1321 H1291 0.950 . S
C1321 C1316 1.363 . S
C1321 C1320 1.415 . S
H1322 C1319 0.999 . S
H1323 C1304 0.913 . S
H1324 C1342 0.951 . S
H1325 C1344 0.951 . S
H1326 C1346 0.950 . S
H1327 C1347 0.950 . S
H1328 C1349 0.950 . S
H1329 C1352 0.950 . S
H1330 C1353 0.950 1_655 S
H1331 C1355 0.950 . S
H1332 C1356 0.950 . S
H1333 C1357 0.951 . S
H1334 C1359 0.951 . S
H1335 C1361 0.950 . S
H1336 C1362 0.950 . S
H1337 C1364 0.950 . S
H1338 C1367 0.950 . S
H1339 C1368 0.950 . S
H1340 C1370 0.950 . S
H1341 C1371 0.950 . S
C1342 H1324 0.951 . S
C1342 C1343 1.366 . S
C1342 C1344 1.388 . S
C1343 C1342 1.366 . S
C1343 C1347 1.385 . S
C1344 H1325 0.951 . S
C1344 C1342 1.388 . S
C1344 C1345 1.366 . S
C1345 C1344 1.366 . S
C1345 C1346 1.414 . S
C1345 C1348 1.499 . S
C1346 H1326 0.950 . S
C1346 C1345 1.414 . S
C1346 C1347 1.374 . S
C1347 H1327 0.950 . S
C1347 C1343 1.385 . S
C1347 C1346 1.374 . S
C1348 C1345 1.499 . S
C1348 C1349 1.373 . S
C1348 C1350 1.389 . S
C1349 H1328 0.950 . S
C1349 C1348 1.373 . S
C1349 C1365 1.377 . S
C1350 C1348 1.389 . S
C1350 C1351 1.524 . S
C1350 C1364 1.377 . S
C1351 C1350 1.524 . S
C1351 C1352 1.397 . S
C1351 C1356 1.363 . S
C1352 H1329 0.950 . S
C1352 C1351 1.397 . S
C1352 C1353 1.334 . S
C1353 H1330 0.950 1_455 S
C1353 C1352 1.334 . S
C1353 C1354 1.287 . S
C1354 C1353 1.287 . S
C1354 C1355 1.524 . S
C1354 H1373 0.913 1_455 S
C1355 H1331 0.950 . S
C1355 C1354 1.524 . S
C1355 C1356 1.415 . S
C1356 H1332 0.950 . S
C1356 C1351 1.363 . S
C1356 C1355 1.415 . S
C1357 H1333 0.951 . S
C1357 C1358 1.366 . S
C1357 C1359 1.388 . S
C1358 C1357 1.366 . S
C1358 C1362 1.385 . S
C1359 H1334 0.951 . S
C1359 C1357 1.388 . S
C1359 C1360 1.366 . S
C1360 C1359 1.366 . S
C1360 C1361 1.414 . S
C1360 C1363 1.499 . S
C1361 H1335 0.950 . S
C1361 C1360 1.414 . S
C1361 C1362 1.374 . S
C1362 H1336 0.950 . S
C1362 C1358 1.385 . S
C1362 C1361 1.374 . S
C1363 C1360 1.499 . S
C1363 C1364 1.373 . S
C1363 C1365 1.389 . S
C1364 H1337 0.950 . S
C1364 C1350 1.377 . S
C1364 C1363 1.373 . S
C1365 C1349 1.377 . S
C1365 C1363 1.389 . S
C1365 C1366 1.524 . S
C1366 C1365 1.524 . S
C1366 C1367 1.397 . S
C1366 C1371 1.363 . S
C1367 H1338 0.950 . S
C1367 C1366 1.397 . S
C1367 C1368 1.334 . S
C1368 H1339 0.950 . S
C1368 C1367 1.334 . S
C1368 C1369 1.287 . S
C1369 C1368 1.287 . S
C1369 C1370 1.524 . S
C1369 H1372 0.999 . S
C1370 H1340 0.950 . S
C1370 C1369 1.524 . S
C1370 C1371 1.415 . S
C1371 H1341 0.950 . S
C1371 C1366 1.363 . S
C1371 C1370 1.415 . S
H1372 C1369 0.999 . S
H1373 C1354 0.913 1_655 S
H1374 C1392 0.951 . S
H1375 C1394 0.951 . S
H1376 C1396 0.950 . S
H1377 C1397 0.950 . S
H1378 C1399 0.950 . S
H1379 C1402 0.950 . S
H1380 C1403 0.950 . S
H1381 C1405 0.950 . S
H1382 C1406 0.950 . S
H1383 C1407 0.951 . S
H1384 C1409 0.951 . S
H1385 C1411 0.950 . S
H1386 C1412 0.950 . S
H1387 C1414 0.950 . S
H1388 C1417 0.950 . S
H1389 C1418 0.950 . S
H1390 C1420 0.950 . S
H1391 C1421 0.950 . S
C1392 H1374 0.951 . S
C1392 C1393 1.366 . S
C1392 C1394 1.388 . S
C1393 C1392 1.366 . S
C1393 C1397 1.385 . S
C1394 H1375 0.951 . S
C1394 C1392 1.388 . S
C1394 C1395 1.366 . S
C1395 C1394 1.366 . S
C1395 C1396 1.414 . S
C1395 C1398 1.499 . S
C1396 H1376 0.950 . S
C1396 C1395 1.414 . S
C1396 C1397 1.374 . S
C1397 H1377 0.950 . S
C1397 C1393 1.385 . S
C1397 C1396 1.374 . S
C1398 C1395 1.499 . S
C1398 C1399 1.373 . S
C1398 C1400 1.389 . S
C1399 H1378 0.950 . S
C1399 C1398 1.373 . S
C1399 C1415 1.377 . S
C1400 C1398 1.389 . S
C1400 C1401 1.524 . S
C1400 C1414 1.377 . S
C1401 C1400 1.524 . S
C1401 C1402 1.397 . S
C1401 C1406 1.363 . S
C1402 H1379 0.950 . S
C1402 C1401 1.397 . S
C1402 C1403 1.334 . S
C1403 H1380 0.950 . S
C1403 C1402 1.334 . S
C1403 C1404 1.287 . S
C1404 C1403 1.287 . S
C1404 C1405 1.524 . S
C1404 H1423 0.913 . S
C1405 H1381 0.950 . S
C1405 C1404 1.524 . S
C1405 C1406 1.415 . S
C1406 H1382 0.950 . S
C1406 C1401 1.363 . S
C1406 C1405 1.415 . S
C1407 H1383 0.951 . S
C1407 C1408 1.366 . S
C1407 C1409 1.388 . S
C1408 C1407 1.366 . S
C1408 C1412 1.385 . S
C1409 H1384 0.951 . S
C1409 C1407 1.388 . S
C1409 C1410 1.366 . S
C1410 C1409 1.366 . S
C1410 C1411 1.414 . S
C1410 C1413 1.499 . S
C1411 H1385 0.950 . S
C1411 C1410 1.414 . S
C1411 C1412 1.374 . S
C1412 H1386 0.950 . S
C1412 C1408 1.385 . S
C1412 C1411 1.374 . S
C1413 C1410 1.499 . S
C1413 C1414 1.373 . S
C1413 C1415 1.389 . S
C1414 H1387 0.950 . S
C1414 C1400 1.377 . S
C1414 C1413 1.373 . S
C1415 C1399 1.377 . S
C1415 C1413 1.389 . S
C1415 C1416 1.524 . S
C1416 C1415 1.524 . S
C1416 C1417 1.397 . S
C1416 C1421 1.363 . S
C1417 H1388 0.950 . S
C1417 C1416 1.397 . S
C1417 C1418 1.334 . S
C1418 H1389 0.950 . S
C1418 C1417 1.334 . S
C1418 C1419 1.287 . S
C1419 C1418 1.287 . S
C1419 C1420 1.524 . S
C1419 H1422 0.999 . S
C1420 H1390 0.950 . S
C1420 C1419 1.524 . S
C1420 C1421 1.415 . S
C1421 H1391 0.950 . S
C1421 C1416 1.363 . S
C1421 C1420 1.415 . S
H1422 C1419 0.999 . S
H1423 C1404 0.913 . S
C243 N1 2.049 . S
C258 C120 2.116 . S
C293 N18 1.452 . S
C308 N140 1.427 . S
C358 C174 1.383 . S
C343 N28 1.382 . S
C393 N40 1.408 . S
C408 N208 1.388 . S
C458 C161 2.756 . S
C443 N5 2.715 . S
C508 N118 1.199 . S
C493 N14 1.219 . S
C558 C195 1.879 . S
C543 N31 1.844 . S
C608 N170 0.584 . S
C593 N41 0.576 . S
C643 N2 1.699 . S
C658 C210 1.715 . S
C708 C144 1.742 1_556 S
C693 N27 1.714 . S
C743 N44 1.558 . S
C758 C105 1.602 . S
C793 N15 1.188 . S
C808 C191 1.193 . S
C858 C131 2.525 . S
C843 N57 2.508 . S
C893 N70 0.913 . S
C908 N148 0.904 . S
C943 N79 1.726 . S
C958 C165 1.774 . S
C993 N93 1.053 . S
C1008 N200 1.031 . S
C1043 N54 2.263 . S
C1058 C150 2.279 1_565 S
C1108 N110 1.642 . S
C1093 N66 1.673 . S
C1158 C204 1.283 . S
C1143 N80 1.275 . S
C1208 N178 0.940 . S
C1193 N96 0.940 . S
C1243 N53 1.753 . S
C1258 C221 1.780 . S
C1308 C135 1.593 . S
C1293 N83 1.559 . S
C1358 C114 1.611 . S
C1343 N92 1.589 . S
C1393 N67 1.210 . S
C1408 C180 1.219 . S
