# Generated by pormake.
# Topology pyr, (3,6)-cn, num edge types: 1
# Building blocks:
#     Node 0, Type 0, BuildingBlock: BETDIP_clean_linker_0, # of connection points: 3
#     Node 1, Type 0, BuildingBlock: BETDIP_clean_linker_0, # of connection points: 3
#     Node 2, Type 0, BuildingBlock: BETDIP_clean_linker_0, # of connection points: 3
#     Node 3, Type 0, BuildingBlock: BETDIP_clean_linker_0, # of connection points: 3
#     Node 4, Type 0, BuildingBlock: BETDIP_clean_linker_0, # of connection points: 3
#     Node 5, Type 0, BuildingBlock: BETDIP_clean_linker_0, # of connection points: 3
#     Node 6, Type 0, BuildingBlock: BETDIP_clean_linker_0, # of connection points: 3
#     Node 7, Type 0, BuildingBlock: BETDIP_clean_linker_0, # of connection points: 3
#     Node 8, Type 1, BuildingBlock: PAMTUU_clean_sbu_0, # of connection points: 6
#     Node 9, Type 1, BuildingBlock: PAMTUU_clean_sbu_0, # of connection points: 6
#     Node 10, Type 1, BuildingBlock: PAMTUU_clean_sbu_0, # of connection points: 6
#     Node 11, Type 1, BuildingBlock: PAMTUU_clean_sbu_0, # of connection points: 6
#     Edge 12, Type (0, 1), BuildingBlock: OJICUG_clean_linker_0, # of connection points: 2
#     Edge 13, Type (0, 1), BuildingBlock: OJICUG_clean_linker_0, # of connection points: 2
#     Edge 14, Type (0, 1), BuildingBlock: OJICUG_clean_linker_0, # of connection points: 2
#     Edge 15, Type (0, 1), BuildingBlock: OJICUG_clean_linker_0, # of connection points: 2
#     Edge 16, Type (0, 1), BuildingBlock: OJICUG_clean_linker_0, # of connection points: 2
#     Edge 17, Type (0, 1), BuildingBlock: OJICUG_clean_linker_0, # of connection points: 2
#     Edge 18, Type (0, 1), BuildingBlock: OJICUG_clean_linker_0, # of connection points: 2
#     Edge 19, Type (0, 1), BuildingBlock: OJICUG_clean_linker_0, # of connection points: 2
#     Edge 20, Type (0, 1), BuildingBlock: OJICUG_clean_linker_0, # of connection points: 2
#     Edge 21, Type (0, 1), BuildingBlock: OJICUG_clean_linker_0, # of connection points: 2
#     Edge 22, Type (0, 1), BuildingBlock: OJICUG_clean_linker_0, # of connection points: 2
#     Edge 23, Type (0, 1), BuildingBlock: OJICUG_clean_linker_0, # of connection points: 2
#     Edge 24, Type (0, 1), BuildingBlock: OJICUG_clean_linker_0, # of connection points: 2
#     Edge 25, Type (0, 1), BuildingBlock: OJICUG_clean_linker_0, # of connection points: 2
#     Edge 26, Type (0, 1), BuildingBlock: OJICUG_clean_linker_0, # of connection points: 2
#     Edge 27, Type (0, 1), BuildingBlock: OJICUG_clean_linker_0, # of connection points: 2
#     Edge 28, Type (0, 1), BuildingBlock: OJICUG_clean_linker_0, # of connection points: 2
#     Edge 29, Type (0, 1), BuildingBlock: OJICUG_clean_linker_0, # of connection points: 2
#     Edge 30, Type (0, 1), BuildingBlock: OJICUG_clean_linker_0, # of connection points: 2
#     Edge 31, Type (0, 1), BuildingBlock: OJICUG_clean_linker_0, # of connection points: 2
#     Edge 32, Type (0, 1), BuildingBlock: OJICUG_clean_linker_0, # of connection points: 2
#     Edge 33, Type (0, 1), BuildingBlock: OJICUG_clean_linker_0, # of connection points: 2
#     Edge 34, Type (0, 1), BuildingBlock: OJICUG_clean_linker_0, # of connection points: 2
#     Edge 35, Type (0, 1), BuildingBlock: OJICUG_clean_linker_0, # of connection points: 2
# Relax obj value: 0.192
# Max RMSD: 0.178
# Mean RMSD: 0.134
data_MOF--net-pyr--node1-PAMTUU_clean_sbu_0--node2-BETDIP_clean_linker_0--edge1-OJICUG_clean_linker_0
_symmetry_space_group_name_H-M    P1
_symmetry_Int_Tables_number       1
_symmetry_cell_setting            triclinic
loop_
_symmetry_equiv_pos_as_xyz
'x, y, z'
_cell_length_a     28.175915
_cell_length_b     28.169702
_cell_length_c     27.630093
_cell_angle_alpha  90.733444
_cell_angle_beta   88.527036
_cell_angle_gamma 108.48596
loop_
_atom_site_label
_atom_site_type_symbol
_atom_site_fract_x
_atom_site_fract_y
_atom_site_fract_z
_atom_type_partial_charge
H0 H 0.36329 0.32857 0.30039 0.0
H1 H 0.43078 0.29904 0.16916 0.0
H2 H 0.4809 0.26213 0.30551 0.0
H3 H 0.36662 0.40208 0.25748 0.0
C4 C 0.349 0.38065 0.22606 0.0
C5 C 0.39295 0.31747 0.2831 0.0
C6 C 0.41993 0.29282 0.30979 0.0
C7 C 0.39943 0.32267 0.23268 0.0
C8 C 0.43077 0.29991 0.20833 0.0
C9 C 0.45911 0.27593 0.23432 0.0
C10 C 0.45698 0.27753 0.2852 0.0
N11 N 0.36929 0.34443 0.20568 0.0
H12 H 0.10286 0.81411 0.7928 0.0
H13 H 0.16848 0.74796 0.67914 0.0
H14 H 0.23106 0.769 0.82108 0.0
H15 H 0.03132 0.78646 0.7392 0.0
C16 C 0.05635 0.80523 0.70982 0.0
C17 C 0.12932 0.79544 0.78088 0.0
C18 C 0.16559 0.79162 0.81305 0.0
C19 C 0.13008 0.77946 0.73251 0.0
C20 C 0.16696 0.75863 0.71682 0.0
C21 C 0.20293 0.7535 0.74897 0.0
C22 C 0.2013 0.76939 0.79714 0.0
N23 N 0.09892 0.79044 0.69764 0.0
H24 H 0.74568 0.47019 0.88583 0.0
H25 H 0.61837 0.33715 0.87339 0.0
H26 H 0.72302 0.34956 0.98678 0.0
H27 H 0.60783 0.37029 0.80276 0.0
C28 C 0.62519 0.4106 0.80278 0.0
C29 C 0.72427 0.43355 0.89925 0.0
C30 C 0.74193 0.41261 0.93862 0.0
C31 C 0.67943 0.40754 0.87569 0.0
C32 C 0.65221 0.35823 0.89137 0.0
C33 C 0.66893 0.3359 0.93053 0.0
C34 C 0.71247 0.36466 0.95453 0.0
N35 N 0.66344 0.43274 0.83708 0.0
H36 H 0.80158 0.63834 0.39208 0.0
H37 H 0.92535 0.77337 0.37006 0.0
H38 H 0.81595 0.76669 0.48333 0.0
H39 H 0.91669 0.73991 0.29075 0.0
C40 C 0.91108 0.70045 0.29683 0.0
C41 C 0.82156 0.67652 0.40252 0.0
C42 C 0.80231 0.69983 0.44013 0.0
C43 C 0.86551 0.70267 0.3766 0.0
C44 C 0.8912 0.75297 0.38936 0.0
C45 C 0.87295 0.77678 0.42754 0.0
C46 C 0.829 0.74944 0.45272 0.0
N47 N 0.88286 0.67698 0.33849 0.0
H48 H 0.60851 0.78801 0.9683 0.0
H49 H 0.67136 0.77242 0.82937 0.0
H50 H 0.56122 0.84863 0.84355 0.0
H51 H 0.68218 0.7023 0.86295 0.0
C52 C 0.69655 0.72019 0.897 0.0
C53 C 0.60831 0.79201 0.92934 0.0
C54 C 0.58145 0.82099 0.90909 0.0
C55 C 0.63847 0.77182 0.90013 0.0
C56 C 0.64307 0.78242 0.85032 0.0
C57 C 0.61654 0.81141 0.82916 0.0
C58 C 0.58244 0.82665 0.85867 0.0
N59 N 0.67026 0.74858 0.92262 0.0
H60 H 0.94261 0.29908 0.34906 0.0
H61 H 0.88877 0.37261 0.46568 0.0
H62 H 0.81201 0.34273 0.33058 0.0
H63 H 1.01728 0.32254 0.39473 0.0
C64 C 0.99499 0.30815 0.42717 0.0
C65 C 0.9173 0.31826 0.3629 0.0
C66 C 0.8779 0.3202 0.33401 0.0
C67 C 0.92162 0.33726 0.41044 0.0
C68 C 0.88643 0.3594 0.42854 0.0
C69 C 0.84738 0.36289 0.39935 0.0
C70 C 0.84396 0.34357 0.35203 0.0
N71 N 0.95694 0.32879 0.44233 0.0
H72 H 0.30121 0.64262 0.25662 0.0
H73 H 0.42959 0.77463 0.27256 0.0
H74 H 0.32103 0.76933 0.16403 0.0
H75 H 0.42174 0.74144 0.35375 0.0
C76 C 0.41314 0.70142 0.34792 0.0
C77 C 0.32254 0.68017 0.24532 0.0
C78 C 0.3044 0.70337 0.20805 0.0
C79 C 0.36722 0.70539 0.26961 0.0
C80 C 0.39495 0.75492 0.25497 0.0
C81 C 0.378 0.7788 0.21705 0.0
C82 C 0.3331 0.75217 0.1942 0.0
N83 N 0.38334 0.6791 0.30719 0.0
H84 H 0.10815 0.32903 0.767 0.0
H85 H 0.24063 0.45785 0.75963 0.0
H86 H 0.21702 0.34142 0.65223 0.0
H87 H 0.19403 0.49484 0.8042 0.0
C88 C 0.16758 0.46614 0.82595 0.0
C89 C 0.14333 0.34934 0.74923 0.0
C90 C 0.15936 0.32924 0.70735 0.0
C91 C 0.17141 0.39645 0.76761 0.0
C92 C 0.21753 0.42286 0.74448 0.0
C93 C 0.23479 0.40314 0.70268 0.0
C94 C 0.20484 0.35668 0.68458 0.0
N95 N 0.1523 0.41529 0.80966 0.0
Tb96 Tb 0.07101 0.05765 0.54113 0.0
Tb97 Tb 0.96378 0.04647 0.59711 0.0
C98 C 0.97237 0.97227 0.5122 0.0
C99 C 0.20015 0.10369 0.48544 0.0
C100 C 0.28837 0.17442 0.44947 0.0
C101 C 0.26962 0.1267 0.42797 0.0
C102 C 0.22618 0.0917 0.44596 0.0
C103 C 0.21801 0.15139 0.50693 0.0
C104 C 0.26194 0.18655 0.48906 0.0
C105 C 0.15563 0.06497 0.50423 0.0
O106 O 0.03744 0.10302 0.49807 0.0
O107 O 0.97955 0.11317 0.55414 0.0
O108 O 0.02266 0.10048 0.63884 0.0
O109 O 0.0824 0.12797 0.57872 0.0
O110 O 0.88996 0.04764 0.59393 0.0
O111 O 0.92238 1.03914 0.66233 0.0
O112 O 0.98249 0.98092 0.61786 0.0
O113 O 0.06701 1.01624 0.60793 0.0
O114 O 0.02111 0.98612 0.5167 0.0
O115 O 0.94486 0.99682 0.5338 0.0
C116 C 1.00548 0.12569 0.51364 0.0
O117 O 0.14657 0.06618 0.55065 0.0
O118 O 0.11506 0.05543 0.47904 0.0
C119 C 0.06235 0.1347 0.62049 0.0
C120 C 0.83509 1.00358 0.6561 0.0
C121 C 0.74445 0.93525 0.6902 0.0
C122 C 0.76703 0.98044 0.71507 0.0
C123 C 0.81162 1.01422 0.69803 0.0
C124 C 0.81318 0.95871 0.63075 0.0
C125 C 0.76801 0.92468 0.64773 0.0
C126 C 0.88233 1.04036 0.64039 0.0
C127 C 0.02807 0.98021 0.62438 0.0
H128 H 0.28789 0.1165 0.39639 0.0
H129 H 0.2128 0.05516 0.42888 0.0
H130 H 0.19822 0.16135 0.53754 0.0
H131 H 0.27523 0.22298 0.50627 0.0
H132 H 0.75116 0.98929 0.74877 0.0
H133 H 0.82824 0.04856 0.71813 0.0
H134 H 0.83107 0.94991 0.59821 0.0
H135 H 0.75175 0.89018 0.62787 0.0
Tb136 Tb 0.57926 0.05793 0.09184 0.0
Tb137 Tb 0.47117 0.0485 1.04485 0.0
C138 C 0.53544 0.98257 1.00851 0.0
C139 C 0.70479 0.10763 0.14371 0.0
C140 C 0.78137 0.18565 0.18561 0.0
C141 C 0.79 0.14097 0.17108 0.0
C142 C 0.75183 0.10215 0.15037 0.0
C143 C 0.69676 0.15301 0.15559 0.0
C144 C 0.73469 0.19168 0.17654 0.0
C145 C 0.66407 0.06588 0.12481 0.0
O146 O 0.59319 0.12811 1.0528 0.0
O147 O 0.52661 0.10629 1.00123 0.0
O148 O 0.49148 0.11703 0.08661 0.0
O149 O 0.54433 0.09957 0.14045 0.0
O150 O 0.42594 1.04237 0.98474 0.0
O151 O 0.39669 0.04656 1.05738 0.0
O152 O 0.45514 0.99954 0.10893 0.0
O153 O 0.53 0.98443 0.11485 0.0
O154 O 0.5745 1.01831 1.02369 0.0
O155 O 0.48995 0.98373 1.01739 0.0
C156 C 0.5704 0.13716 1.01463 0.0
O157 O 0.62271 0.05282 0.15085 0.0
O158 O 0.6556 0.06862 0.07903 0.0
C159 C 0.51627 0.12617 0.12684 0.0
C160 C 0.34159 0.9971 1.00043 0.0
C161 C 0.25914 0.92051 0.96479 0.0
C162 C 0.25464 0.96751 0.97736 0.0
C163 C 0.29573 1.00562 0.9948 0.0
C164 C 0.34515 0.94919 0.99192 0.0
C165 C 0.30432 0.91124 0.97408 0.0
C166 C 0.38623 1.0391 1.01165 0.0
C167 C 0.48178 0.97215 0.12491 0.0
H168 H 0.82572 0.13546 0.17707 0.0
H169 H 0.75867 0.06747 0.14061 0.0
H170 H 0.66064 0.15789 0.15007 0.0
H171 H 0.72644 0.2252 0.18792 0.0
H172 H 0.22016 0.97561 0.97143 0.0
H173 H 0.2923 1.04233 1.00187 0.0
H174 H 0.38026 0.94188 0.99661 0.0
H175 H 0.30952 0.87582 0.96436 0.0
Tb176 Tb 0.51839 0.50666 0.5397 0.0
Tb177 Tb 0.52324 0.60345 0.60846 0.0
C178 C 0.47696 0.59395 0.5031 0.0
C179 C 0.57426 0.42164 0.47843 0.0
C180 C 0.66666 0.40535 0.45811 0.0
C181 C 0.63004 0.39682 0.42243 0.0
C182 C 0.58427 0.40486 0.43253 0.0
C183 C 0.61028 0.42917 0.51452 0.0
C184 C 0.6559 0.42071 0.50456 0.0
C185 C 0.52948 0.43733 0.48651 0.0
O186 O 0.59666 0.55213 0.54419 0.0
O187 O 0.58661 0.62823 0.55812 0.0
O188 O 0.56832 0.56413 0.6459 0.0
O189 O 0.53258 0.4864 0.61288 0.0
O190 O 0.53707 0.68089 0.61707 0.0
O191 O 0.51468 0.6313 0.67802 0.0
O192 O 0.45216 0.54769 0.62705 0.0
O193 O 0.44112 0.48825 0.56631 0.0
O194 O 0.49514 0.55726 0.4921 0.0
O195 O 0.47698 0.61054 0.54795 0.0
C196 C 0.61338 0.60099 0.54122 0.0
O197 O 0.50865 0.42996 0.52961 0.0
O198 O 0.53411 0.48197 0.47089 0.0
C199 C 0.55905 0.51513 0.64697 0.0
C200 C 0.47615 0.69326 0.67164 0.0
C201 C 0.3859 0.71291 0.69417 0.0
C202 C 0.42136 0.71633 0.73015 0.0
C203 C 0.46614 0.70661 0.71894 0.0
C204 C 0.44129 0.69099 0.63546 0.0
C205 C 0.39677 0.70096 0.64656 0.0
C206 C 0.51939 0.67564 0.66142 0.0
C207 C 0.42479 0.50724 0.60471 0.0
H208 H 0.63701 0.38436 0.38647 0.0
H209 H 0.55727 0.3994 0.40406 0.0
H210 H 0.60379 0.44308 0.54999 0.0
H211 H 0.68345 0.42792 0.53264 0.0
H212 H 0.41428 0.7261 0.76707 0.0
H213 H 0.49228 0.7081 0.74746 0.0
H214 H 0.44764 0.68 0.59881 0.0
H215 H 0.37007 0.69757 0.61817 0.0
Tb216 Tb 0.03015 0.61287 1.03779 0.0
Tb217 Tb 0.02222 0.51124 0.09788 0.0
C218 C 0.0752 0.53287 0.99411 0.0
C219 C 0.98292 0.70313 0.9802 0.0
C220 C 0.8917 0.71635 0.95392 0.0
C221 C 0.93168 0.72458 0.92006 0.0
C222 C 0.97693 0.71809 0.93314 0.0
C223 C 0.9435 0.69632 1.01438 0.0
C224 C 0.89854 0.70315 1.00146 0.0
C225 C 0.02715 0.68835 0.9917 0.0
O226 O 0.96356 0.55557 1.0109 0.0
O227 O 0.94635 0.49631 0.07114 0.0
O228 O 0.99968 0.56065 0.14938 0.0
O229 O 0.97568 0.60933 0.0957 0.0
O230 O 1.01034 0.43365 0.09982 0.0
O231 O 0.02994 0.47885 0.16409 0.0
O232 O 0.10056 0.55801 0.10129 0.0
O233 O 0.09082 0.63474 0.09011 0.0
O234 O 0.08218 0.58095 1.0003 0.0
O235 O 0.04597 0.49959 1.02387 0.0
C236 C 0.93343 0.51522 1.03205 0.0
O237 O 0.03842 0.6897 1.03732 0.0
O238 O 0.02885 0.64715 0.97085 0.0
C239 C 0.97784 0.59435 0.14006 0.0
C240 C 0.06832 0.41709 0.15224 0.0
C241 C 0.1572 0.39647 0.17345 0.0
C242 C 0.11914 0.39051 0.20902 0.0
C243 C 0.07504 0.4006 0.19844 0.0
C244 C 0.10554 0.42142 0.11613 0.0
C245 C 0.14942 0.41079 0.12656 0.0
C246 C 0.0259 0.43577 0.14404 0.0
C247 C 0.11677 0.60695 0.10642 0.0
H248 H 0.92767 0.73522 0.88324 0.0
H249 H 1.0066 0.72306 0.90608 0.0
H250 H 0.94663 0.68387 1.05069 0.0
H251 H 0.86833 0.6959 1.02821 0.0
H252 H 0.12402 0.37914 0.24537 0.0
H253 H 0.04701 0.39744 0.22688 0.0
H254 H 0.10164 0.4349 0.08037 0.0
H255 H 0.17829 0.41616 0.09861 0.0
C256 C 0.40415 0.22488 0.37206 0.0
C257 C 0.40055 0.27175 0.35864 0.0
H258 H 0.37293 0.15838 0.41334 0.0
C259 C 0.36875 0.29157 0.38684 0.0
H260 H 0.42835 0.20767 0.35282 0.0
C261 C 0.33455 0.2614 0.42025 0.0
C262 C 0.33319 0.21171 0.42749 0.0
H263 H 0.36686 0.32869 0.38019 0.0
H264 H 0.30654 0.27561 0.43693 0.0
C265 C 0.37136 0.19565 0.40656 0.0
C266 C 0.18906 0.80087 0.9004 0.0
C267 C 0.17386 0.82027 0.8591 0.0
H268 H 0.22675 0.81746 0.96784 0.0
C269 C 0.17686 0.87098 0.85864 0.0
H270 H 0.18642 0.7617 0.90195 0.0
C271 C 0.20031 0.90291 0.89591 0.0
C272 C 0.22107 0.88471 0.9345 0.0
H273 H 0.16583 0.8872 0.8272 0.0
H274 H 0.20644 0.94259 0.89176 0.0
C275 C 0.21234 0.83283 0.93793 0.0
C276 C 0.57785 0.41287 0.72746 0.0
C277 C 0.61025 0.43959 0.76344 0.0
H278 H 0.53714 0.4148 0.66364 0.0
C279 C 0.6264 0.49238 0.76088 0.0
H280 H 0.56449 0.37233 0.72802 0.0
C281 C 0.61012 0.51734 0.72352 0.0
C282 C 0.57761 0.49022 0.68743 0.0
H283 H 0.65125 0.51441 0.7879 0.0
H284 H 0.62308 0.55786 0.7229 0.0
C285 C 0.56209 0.43752 0.69023 0.0
C286 C 0.92983 0.62309 0.26457 0.0
C287 C 0.92633 0.67126 0.25728 0.0
H288 H 0.94938 0.56099 0.23356 0.0
C289 C 0.93861 0.69282 0.21124 0.0
H290 H 0.92085 0.6055 0.29972 0.0
C291 C 0.95387 0.66712 0.17333 0.0
C292 C 0.95832 0.61933 0.18046 0.0
H293 H 0.93642 0.72986 0.20446 0.0
H294 H 0.96348 0.6855 0.13861 0.0
C295 C 0.94622 0.59762 0.22668 0.0
C296 C 0.48397 0.19728 0.23167 0.0
C297 C 0.48343 0.24195 0.20917 0.0
H298 H 0.49621 0.12617 0.2234 0.0
C299 C 0.50067 0.25024 0.16079 0.0
H300 H 0.47002 0.18832 0.26837 0.0
C301 C 0.51382 0.21329 0.13467 0.0
C302 C 0.51165 0.16801 0.15676 0.0
H303 H 0.50218 0.28438 0.14236 0.0
H304 H 0.52427 0.21944 0.09668 0.0
C305 C 0.49864 0.16108 0.20588 0.0
C306 C 1.00388 0.85995 0.69497 0.0
C307 C 0.04908 0.84968 0.68731 0.0
H308 H 0.96156 0.90933 0.68094 0.0
C309 C 0.08775 0.88325 0.66002 0.0
H310 H 0.97368 0.83476 0.7162 0.0
C311 C 0.0813 0.92635 0.64076 0.0
C312 C 0.03582 0.9364 0.6478 0.0
H313 H 0.12325 0.87661 0.65391 0.0
H314 H 0.11171 0.95131 0.61958 0.0
C315 C 0.99708 0.90268 0.67499 0.0
C316 C 0.81816 0.4127 0.9872 0.0
C317 C 0.79111 0.43968 0.96308 0.0
H318 H 0.88245 0.41486 1.0285 0.0
C319 C 0.81202 0.49241 0.96271 0.0
H320 H 0.80546 0.37224 0.98741 0.0
C321 C 0.85793 0.51678 0.98497 0.0
C322 C 0.8839 0.48951 1.00961 0.0
H323 H 0.79294 0.51533 0.94564 0.0
H324 H 0.87281 0.55725 0.98343 0.0
C325 C 0.86309 0.43718 1.01071 0.0
C326 C 0.72117 0.70036 0.48011 0.0
C327 C 0.75387 0.67358 0.46596 0.0
H328 H 0.65229 0.69899 0.5152 0.0
C329 C 0.73989 0.62229 0.4772 0.0
H330 H 0.72979 0.73955 0.47117 0.0
C331 C 0.69461 0.59866 0.50211 0.0
C332 C 0.66242 0.62585 0.51663 0.0
H333 H 0.76417 0.60049 0.46733 0.0
H334 H 0.6849 0.55911 0.51 0.0
C335 C 0.6764 0.67697 0.50533 0.0
C336 C 0.27713 0.41249 0.23988 0.0
C337 C 0.30052 0.3848 0.21088 0.0
H338 H 0.21345 0.43751 0.25091 0.0
C339 C 0.27659 0.36067 0.16915 0.0
H340 H 0.29481 0.43142 0.27224 0.0
C341 C 0.22996 0.36438 0.15674 0.0
C342 C 0.20625 0.39158 0.18628 0.0
H343 H 0.29382 0.33904 0.14614 0.0
H344 H 0.21213 0.34551 0.12443 0.0
C345 C 0.23041 0.41562 0.2279 0.0
C346 C 0.67033 0.25381 0.96668 0.0
C347 C 0.64246 0.28264 0.94733 0.0
H348 H 0.66994 0.18686 1.00295 0.0
C349 C 0.5899 0.26052 0.94657 0.0
H350 H 0.71081 0.26787 0.9666 0.0
C351 C 0.5663 0.21241 0.96635 0.0
C352 C 0.59449 0.18534 0.98802 0.0
H353 H 0.56673 0.28096 0.93227 0.0
H354 H 0.52584 0.19735 0.9665 0.0
C355 C 0.64683 0.20666 0.98725 0.0
C356 C 0.95175 0.84718 0.44735 0.0
C357 C 0.89946 0.82957 0.44305 0.0
H358 H 1.01566 0.90567 0.47228 0.0
C359 C 0.87193 0.86144 0.45788 0.0
H360 H 0.97418 0.82373 0.4367 0.0
C361 C 0.89558 0.90828 0.4789 0.0
C362 C 0.94758 0.92492 0.48528 0.0
H363 H 0.83167 0.84967 0.45427 0.0
H364 H 0.87284 0.93089 0.49116 0.0
C365 C 0.97549 0.89421 0.46814 0.0
C366 C 0.26514 0.70789 0.76095 0.0
C367 C 0.2463 0.73805 0.73177 0.0
H368 H 0.32383 0.67631 0.77193 0.0
C369 C 0.27249 0.7578 0.68877 0.0
H370 H 0.24553 0.69167 0.79402 0.0
C371 C 0.31742 0.74907 0.67618 0.0
C372 C 0.3372 0.72058 0.70641 0.0
H373 H 0.2595 0.78186 0.6659 0.0
H374 H 0.33754 0.76606 0.64361 0.0
C375 C 0.31013 0.69938 0.74849 0.0
C376 C 0.6618 0.81618 0.74794 0.0
C377 C 0.63416 0.83608 0.78123 0.0
H378 H 0.72018 0.83244 0.69362 0.0
C379 C 0.63302 0.88505 0.77307 0.0
H380 H 0.66146 0.77778 0.75055 0.0
C381 C 0.66443 0.91532 0.73827 0.0
C382 C 0.69919 0.89831 0.71202 0.0
H383 H 0.61213 0.90268 0.79638 0.0
H384 H 0.66496 0.95381 0.73546 0.0
C385 C 0.69494 0.84733 0.71436 0.0
C386 C 0.86436 0.23932 0.29042 0.0
C387 C 0.86591 0.28962 0.28934 0.0
H388 H 0.8361 0.1669 0.25845 0.0
C389 C 0.84765 0.30732 0.24884 0.0
H390 H 0.87763 0.22441 0.32139 0.0
C391 C 0.82382 0.27418 0.2124 0.0
C392 C 0.81768 0.22281 0.2161 0.0
H393 H 0.84904 0.34613 0.24688 0.0
H394 H 0.80761 0.28822 0.18285 0.0
C395 C 0.84044 0.20623 0.25418 0.0
C396 C 0.42867 0.62239 0.38023 0.0
C397 C 0.4269 0.6715 0.38731 0.0
H398 H 0.44627 0.55971 0.41027 0.0
C399 C 0.44033 0.69371 0.43306 0.0
H400 H 0.41893 0.60397 0.34556 0.0
C401 C 0.45495 0.66807 0.47045 0.0
C402 C 0.45791 0.61941 0.46337 0.0
H403 H 0.43962 0.73141 0.44007 0.0
H404 H 0.46521 0.68714 0.50474 0.0
C405 C 0.44451 0.59699 0.41748 0.0
C406 C 0.1107 0.44764 0.90078 0.0
C407 C 0.14428 0.48231 0.86974 0.0
H408 H 0.06302 0.43615 0.96428 0.0
C409 C 0.15569 0.5336 0.88051 0.0
H410 H 0.10115 0.40784 0.89375 0.0
C411 C 0.13367 0.54997 0.92085 0.0
C412 C 0.0998 0.51544 0.95186 0.0
H413 H 0.18148 0.56128 0.85738 0.0
H414 H 0.14317 0.58982 0.92758 0.0
C415 C 0.08888 0.46398 0.94137 0.0
C416 C 0.59824 0.88718 0.97239 0.0
C417 C 0.56441 0.85631 0.93987 0.0
H418 H 0.61584 0.95125 1.01858 0.0
C419 C 0.51909 0.86571 0.93164 0.0
H420 H 0.63392 0.88171 0.97881 0.0
C421 C 0.5086 0.90612 0.95465 0.0
C422 C 0.5439 0.93834 0.98518 0.0
H423 H 0.49254 0.84271 0.90642 0.0
H424 H 0.47383 0.91312 0.94731 0.0
C425 C 0.58826 0.92775 0.99449 0.0
C426 C 0.03317 0.23913 0.43137 0.0
C427 C 0.99792 0.26142 0.44895 0.0
H428 H 0.06332 0.17834 0.43761 0.0
C429 C 0.96426 0.23768 0.48605 0.0
H430 H 0.05931 0.25661 0.40244 0.0
C431 C 0.96604 0.19293 0.50556 0.0
C432 C 1.00174 0.17072 0.48876 0.0
H433 H 0.93632 0.25351 0.50015 0.0
H434 H 0.93952 0.17609 0.5344 0.0
C435 C 0.03518 0.19418 0.45116 0.0
C436 C 0.23978 0.62591 0.17271 0.0
C437 C 0.2556 0.67765 0.18311 0.0
H438 H 0.18453 0.56324 0.1404 0.0
C439 C 0.22475 0.70541 0.16813 0.0
H440 H 0.2623 0.60307 0.18307 0.0
C441 C 0.18048 0.68271 0.14298 0.0
C442 C 0.16494 0.6312 0.13216 0.0
H443 H 0.23452 0.74502 0.17618 0.0
H444 H 0.15817 0.7057 0.13239 0.0
C445 C 0.19517 0.60307 0.14771 0.0
C446 C 0.30214 0.48299 0.67598 0.0
C447 C 0.28368 0.4303 0.67723 0.0
H448 H 0.36081 0.54841 0.652 0.0
C449 C 0.31191 0.40355 0.65267 0.0
H450 H 0.28159 0.50526 0.69351 0.0
C451 C 0.3563 0.42843 0.62714 0.0
C452 C 0.37478 0.48084 0.62663 0.0
H453 H 0.30044 0.3631 0.65373 0.0
H454 H 0.37719 0.40657 0.60938 0.0
C455 C 0.34734 0.50785 0.65153 0.0
C456 C 0.77351 0.6962 0.8827 0.0
C457 C 0.74599 0.71899 0.9127 0.0
H458 H 0.84108 0.6776 0.8721 0.0
C459 C 0.76685 0.74164 0.95617 0.0
H460 H 0.75828 0.67856 0.84895 0.0
C461 C 0.81437 0.74127 0.96938 0.0
C462 C 0.84207 0.71859 0.93923 0.0
H463 H 0.74661 0.75972 0.97995 0.0
H464 H 0.82964 0.7591 1.00303 0.0
C465 C 0.82108 0.69611 0.89572 0.0
C466 C 0.38018 0.86409 0.18634 0.0
C467 C 0.40632 0.831 0.19929 0.0
H468 H 0.38264 0.93341 0.1533 0.0
C469 C 0.45845 0.84671 0.19054 0.0
H470 H 0.34017 0.85401 0.19302 0.0
C471 C 0.48307 0.89283 0.16762 0.0
C472 C 0.4564 0.92487 0.15289 0.0
H473 H 0.47998 0.82243 0.19952 0.0
H474 H 0.52296 0.90274 0.16032 0.0
C475 C 0.40467 0.91 0.16351 0.0
C476 C 0.10567 0.238 0.71569 0.0
C477 C 0.12935 0.27985 0.68632 0.0
H478 H 0.0655 0.15888 0.71811 0.0
C479 C 0.12698 0.27354 0.63574 0.0
H480 H 0.10672 0.24137 0.75475 0.0
C481 C 0.10473 0.22654 0.6151 0.0
C482 C 0.08297 0.18435 0.64423 0.0
H483 H 0.14309 0.30496 0.61178 0.0
H484 H 0.10467 0.22327 0.57597 0.0
C485 C 0.08233 0.1907 0.69478 0.0
C486 C 0.78602 0.40969 0.38925 0.0
C487 C 0.80625 0.38088 0.41869 0.0
H488 H 0.72632 0.43993 0.37866 0.0
C489 C 0.78254 0.36398 0.46353 0.0
H490 H 0.80377 0.42389 0.35482 0.0
C491 C 0.73802 0.37328 0.47725 0.0
C492 C 0.71625 0.39938 0.44624 0.0
H493 H 0.79682 0.34124 0.4868 0.0
H494 H 0.71943 0.35806 0.51105 0.0
C495 C 0.7415 0.41863 0.40274 0.0
loop_
_geom_bond_atom_site_label_1
_geom_bond_atom_site_label_2
_geom_bond_distance
_geom_bond_site_symmetry_2
_ccdc_geom_bond_type
H0 C5 0.930 . S
H1 C8 0.930 . S
H2 C10 0.930 . S
H3 C4 1.016 . S
C4 H3 1.016 . S
C4 N11 1.286 . S
C5 H0 0.930 . S
C5 C6 1.397 . S
C5 C7 1.361 . S
C6 C5 1.397 . S
C6 C10 1.390 . S
C7 C5 1.361 . S
C7 C8 1.393 . S
C7 N11 1.413 . S
C8 H1 0.930 . S
C8 C7 1.393 . S
C8 C9 1.399 . S
C9 C8 1.399 . S
C9 C10 1.381 . S
C10 H2 0.930 . S
C10 C6 1.390 . S
C10 C9 1.381 . S
N11 C4 1.286 . S
N11 C7 1.413 . S
H12 C17 0.930 . S
H13 C20 0.930 . S
H14 C22 0.930 . S
H15 C16 1.016 . S
C16 H15 1.016 . S
C16 N23 1.286 . S
C17 H12 0.930 . S
C17 C18 1.397 . S
C17 C19 1.361 . S
C18 C17 1.397 . S
C18 C22 1.390 . S
C19 C17 1.361 . S
C19 C20 1.393 . S
C19 N23 1.413 . S
C20 H13 0.930 . S
C20 C19 1.393 . S
C20 C21 1.399 . S
C21 C20 1.399 . S
C21 C22 1.381 . S
C22 H14 0.930 . S
C22 C18 1.390 . S
C22 C21 1.381 . S
N23 C16 1.286 . S
N23 C19 1.413 . S
H24 C29 0.930 . S
H25 C32 0.930 . S
H26 C34 0.930 . S
H27 C28 1.016 . S
C28 H27 1.016 . S
C28 N35 1.286 . S
C29 H24 0.930 . S
C29 C30 1.397 . S
C29 C31 1.361 . S
C30 C29 1.397 . S
C30 C34 1.390 . S
C31 C29 1.361 . S
C31 C32 1.393 . S
C31 N35 1.413 . S
C32 H25 0.930 . S
C32 C31 1.393 . S
C32 C33 1.399 . S
C33 C32 1.399 . S
C33 C34 1.381 . S
C34 H26 0.930 . S
C34 C30 1.390 . S
C34 C33 1.381 . S
N35 C28 1.286 . S
N35 C31 1.413 . S
H36 C41 0.930 . S
H37 C44 0.930 . S
H38 C46 0.930 . S
H39 C40 1.016 . S
C40 H39 1.016 . S
C40 N47 1.286 . S
C41 H36 0.930 . S
C41 C42 1.397 . S
C41 C43 1.361 . S
C42 C41 1.397 . S
C42 C46 1.390 . S
C43 C41 1.361 . S
C43 C44 1.393 . S
C43 N47 1.413 . S
C44 H37 0.930 . S
C44 C43 1.393 . S
C44 C45 1.399 . S
C45 C44 1.399 . S
C45 C46 1.381 . S
C46 H38 0.930 . S
C46 C42 1.390 . S
C46 C45 1.381 . S
N47 C40 1.286 . S
N47 C43 1.413 . S
H48 C53 0.930 . S
H49 C56 0.930 . S
H50 C58 0.930 . S
H51 C52 1.016 . S
C52 H51 1.016 . S
C52 N59 1.286 . S
C53 H48 0.930 . S
C53 C54 1.397 . S
C53 C55 1.361 . S
C54 C53 1.397 . S
C54 C58 1.390 . S
C55 C53 1.361 . S
C55 C56 1.393 . S
C55 N59 1.413 . S
C56 H49 0.930 . S
C56 C55 1.393 . S
C56 C57 1.399 . S
C57 C56 1.399 . S
C57 C58 1.381 . S
C58 H50 0.930 . S
C58 C54 1.390 . S
C58 C57 1.381 . S
N59 C52 1.286 . S
N59 C55 1.413 . S
H60 C65 0.930 . S
H61 C68 0.930 . S
H62 C70 0.930 . S
H63 C64 1.016 . S
C64 H63 1.016 . S
C64 N71 1.286 . S
C65 H60 0.930 . S
C65 C66 1.397 . S
C65 C67 1.361 . S
C66 C65 1.397 . S
C66 C70 1.390 . S
C67 C65 1.361 . S
C67 C68 1.393 . S
C67 N71 1.413 . S
C68 H61 0.930 . S
C68 C67 1.393 . S
C68 C69 1.399 . S
C69 C68 1.399 . S
C69 C70 1.381 . S
C70 H62 0.930 . S
C70 C66 1.390 . S
C70 C69 1.381 . S
N71 C64 1.286 . S
N71 C67 1.413 . S
H72 C77 0.930 . S
H73 C80 0.930 . S
H74 C82 0.930 . S
H75 C76 1.016 . S
C76 H75 1.016 . S
C76 N83 1.286 . S
C77 H72 0.930 . S
C77 C78 1.397 . S
C77 C79 1.361 . S
C78 C77 1.397 . S
C78 C82 1.390 . S
C79 C77 1.361 . S
C79 C80 1.393 . S
C79 N83 1.413 . S
C80 H73 0.930 . S
C80 C79 1.393 . S
C80 C81 1.399 . S
C81 C80 1.399 . S
C81 C82 1.381 . S
C82 H74 0.930 . S
C82 C78 1.390 . S
C82 C81 1.381 . S
N83 C76 1.286 . S
N83 C79 1.413 . S
H84 C89 0.930 . S
H85 C92 0.930 . S
H86 C94 0.930 . S
H87 C88 1.016 . S
C88 H87 1.016 . S
C88 N95 1.286 . S
C89 H84 0.930 . S
C89 C90 1.397 . S
C89 C91 1.361 . S
C90 C89 1.397 . S
C90 C94 1.390 . S
C91 C89 1.361 . S
C91 C92 1.393 . S
C91 N95 1.413 . S
C92 H85 0.930 . S
C92 C91 1.393 . S
C92 C93 1.399 . S
C93 C92 1.399 . S
C93 C94 1.381 . S
C94 H86 0.930 . S
C94 C90 1.390 . S
C94 C93 1.381 . S
N95 C88 1.286 . S
N95 C91 1.413 . S
Tb96 C105 2.764 . S
Tb96 O106 2.325 . S
Tb96 O109 2.303 . S
Tb96 O113 2.322 1_545 S
Tb96 O114 2.349 1_545 S
Tb96 O117 2.415 . S
Tb96 O118 2.399 . S
Tb97 O107 2.324 . S
Tb97 O108 2.351 . S
Tb97 O110 2.414 1_545 S
Tb97 O111 2.399 1_545 S
Tb97 O112 2.324 1_545 S
Tb97 O115 2.302 1_545 S
Tb97 C126 2.763 1_545 S
C98 O114 1.261 1_655 S
C98 O115 1.257 . S
C99 C102 1.358 . S
C99 C103 1.332 . S
C99 C105 1.504 . S
C100 C101 1.373 . S
C100 C104 1.308 . S
C101 C100 1.373 . S
C101 C102 1.429 . S
C101 H128 0.932 . S
C102 C99 1.358 . S
C102 C101 1.429 . S
C102 H129 0.930 . S
C103 C99 1.332 . S
C103 C104 1.394 . S
C103 H130 0.932 . S
C104 C100 1.308 . S
C104 C103 1.394 . S
C104 H131 0.929 . S
C105 Tb96 2.764 . S
C105 C99 1.504 . S
C105 O117 1.239 . S
C105 O118 1.263 . S
O106 Tb96 2.325 . S
O106 C116 1.236 1_455 S
O107 Tb97 2.324 . S
O107 C116 1.257 . S
O108 Tb97 2.351 . S
O108 C119 1.261 1_655 S
O109 Tb96 2.303 . S
O109 C119 1.257 . S
O110 Tb97 2.414 1_565 S
O110 C126 1.239 . S
O111 Tb97 2.399 1_565 S
O111 C126 1.263 . S
O112 Tb97 2.324 1_565 S
O112 C127 1.236 1_655 S
O113 Tb96 2.322 1_565 S
O113 C127 1.257 . S
O114 Tb96 2.349 1_565 S
O114 C98 1.261 1_455 S
O115 Tb97 2.302 1_565 S
O115 C98 1.257 . S
C116 O106 1.236 1_655 S
C116 O107 1.257 . S
O117 Tb96 2.415 . S
O117 C105 1.239 . S
O118 Tb96 2.399 . S
O118 C105 1.263 . S
C119 O108 1.261 1_455 S
C119 O109 1.257 . S
C120 C123 1.358 . S
C120 C124 1.332 . S
C120 C126 1.504 . S
C121 C122 1.373 . S
C121 C125 1.308 . S
C122 C121 1.373 . S
C122 C123 1.429 . S
C122 H132 0.932 . S
C123 C120 1.358 . S
C123 C122 1.429 . S
C123 H133 0.930 . S
C124 C120 1.332 . S
C124 C125 1.394 . S
C124 H134 0.932 . S
C125 C121 1.308 . S
C125 C124 1.394 . S
C125 H135 0.929 . S
C126 Tb97 2.763 1_565 S
C126 O110 1.239 . S
C126 O111 1.263 . S
C126 C120 1.504 . S
C127 O112 1.236 1_455 S
C127 O113 1.257 . S
H128 C101 0.932 . S
H129 C102 0.930 . S
H130 C103 0.932 . S
H131 C104 0.929 . S
H132 C122 0.932 . S
H133 C123 0.930 . S
H134 C124 0.932 . S
H135 C125 0.929 . S
Tb136 C145 2.764 . S
Tb136 O146 2.322 1_554 S
Tb136 O149 2.303 . S
Tb136 O153 2.322 1_545 S
Tb136 O154 2.358 1_545 S
Tb136 O157 2.415 . S
Tb136 O158 2.399 . S
Tb137 O147 2.322 . S
Tb137 O148 2.349 1_556 S
Tb137 O150 2.415 1_545 S
Tb137 O151 2.399 1_545 S
Tb137 O152 2.325 1_546 S
Tb137 O155 2.303 1_545 S
Tb137 C166 2.764 1_545 S
C138 O154 1.250 1_556 S
C138 O155 1.257 . S
C139 C142 1.358 . S
C139 C143 1.332 . S
C139 C145 1.504 . S
C140 C141 1.373 . S
C140 C144 1.308 . S
C141 C140 1.373 . S
C141 C142 1.429 . S
C141 H168 0.932 . S
C142 C139 1.358 . S
C142 C141 1.429 . S
C142 H169 0.930 . S
C143 C139 1.332 . S
C143 C144 1.394 . S
C143 H170 0.932 . S
C144 C140 1.308 . S
C144 C143 1.394 . S
C144 H171 0.929 . S
C145 Tb136 2.764 . S
C145 C139 1.504 . S
C145 O157 1.239 . S
C145 O158 1.263 . S
O146 Tb136 2.322 1_556 S
O146 C156 1.239 . S
O147 Tb137 2.322 . S
O147 C156 1.257 . S
O148 Tb137 2.349 1_554 S
O148 C159 1.261 . S
O149 Tb136 2.303 . S
O149 C159 1.257 . S
O150 Tb137 2.415 1_565 S
O150 C166 1.239 . S
O151 Tb137 2.399 1_565 S
O151 C166 1.263 . S
O152 Tb137 2.325 1_564 S
O152 C167 1.236 . S
O153 Tb136 2.322 1_565 S
O153 C167 1.257 . S
O154 Tb136 2.358 1_565 S
O154 C138 1.250 1_554 S
O155 Tb137 2.303 1_565 S
O155 C138 1.257 . S
C156 O146 1.239 . S
C156 O147 1.257 . S
O157 Tb136 2.415 . S
O157 C145 1.239 . S
O158 Tb136 2.399 . S
O158 C145 1.263 . S
C159 O148 1.261 . S
C159 O149 1.257 . S
C160 C163 1.358 . S
C160 C164 1.332 . S
C160 C166 1.504 . S
C161 C162 1.373 . S
C161 C165 1.308 . S
C162 C161 1.373 . S
C162 C163 1.429 . S
C162 H172 0.932 . S
C163 C160 1.358 . S
C163 C162 1.429 . S
C163 H173 0.930 . S
C164 C160 1.332 . S
C164 C165 1.394 . S
C164 H174 0.932 . S
C165 C161 1.308 . S
C165 C164 1.394 . S
C165 H175 0.929 . S
C166 Tb137 2.764 1_565 S
C166 O150 1.239 . S
C166 O151 1.263 . S
C166 C160 1.504 . S
C167 O152 1.236 . S
C167 O153 1.257 . S
H168 C141 0.932 . S
H169 C142 0.930 . S
H170 C143 0.932 . S
H171 C144 0.929 . S
H172 C162 0.932 . S
H173 C163 0.930 . S
H174 C164 0.932 . S
H175 C165 0.929 . S
Tb176 C185 2.764 . S
Tb176 O186 2.325 . S
Tb176 O189 2.303 . S
Tb176 O193 2.322 . S
Tb176 O194 2.349 . S
Tb176 O197 2.415 . S
Tb176 O198 2.399 . S
Tb177 O187 2.322 . S
Tb177 O188 2.349 . S
Tb177 O190 2.415 . S
Tb177 O191 2.399 . S
Tb177 O192 2.325 . S
Tb177 O195 2.303 . S
Tb177 C206 2.764 . S
C178 O194 1.261 . S
C178 O195 1.257 . S
C179 C182 1.358 . S
C179 C183 1.332 . S
C179 C185 1.504 . S
C180 C181 1.373 . S
C180 C184 1.308 . S
C181 C180 1.373 . S
C181 C182 1.429 . S
C181 H208 0.932 . S
C182 C179 1.358 . S
C182 C181 1.429 . S
C182 H209 0.930 . S
C183 C179 1.332 . S
C183 C184 1.394 . S
C183 H210 0.932 . S
C184 C180 1.308 . S
C184 C183 1.394 . S
C184 H211 0.929 . S
C185 Tb176 2.764 . S
C185 C179 1.504 . S
C185 O197 1.239 . S
C185 O198 1.263 . S
O186 Tb176 2.325 . S
O186 C196 1.236 . S
O187 Tb177 2.322 . S
O187 C196 1.257 . S
O188 Tb177 2.349 . S
O188 C199 1.261 . S
O189 Tb176 2.303 . S
O189 C199 1.257 . S
O190 Tb177 2.415 . S
O190 C206 1.239 . S
O191 Tb177 2.399 . S
O191 C206 1.263 . S
O192 Tb177 2.325 . S
O192 C207 1.236 . S
O193 Tb176 2.322 . S
O193 C207 1.257 . S
O194 Tb176 2.349 . S
O194 C178 1.261 . S
O195 Tb177 2.303 . S
O195 C178 1.257 . S
C196 O186 1.236 . S
C196 O187 1.257 . S
O197 Tb176 2.415 . S
O197 C185 1.239 . S
O198 Tb176 2.399 . S
O198 C185 1.263 . S
C199 O188 1.261 . S
C199 O189 1.257 . S
C200 C203 1.358 . S
C200 C204 1.332 . S
C200 C206 1.504 . S
C201 C202 1.373 . S
C201 C205 1.308 . S
C202 C201 1.373 . S
C202 C203 1.429 . S
C202 H212 0.932 . S
C203 C200 1.358 . S
C203 C202 1.429 . S
C203 H213 0.930 . S
C204 C200 1.332 . S
C204 C205 1.394 . S
C204 H214 0.932 . S
C205 C201 1.308 . S
C205 C204 1.394 . S
C205 H215 0.929 . S
C206 Tb177 2.764 . S
C206 O190 1.239 . S
C206 O191 1.263 . S
C206 C200 1.504 . S
C207 O192 1.236 . S
C207 O193 1.257 . S
H208 C181 0.932 . S
H209 C182 0.930 . S
H210 C183 0.932 . S
H211 C184 0.929 . S
H212 C202 0.932 . S
H213 C203 0.930 . S
H214 C204 0.932 . S
H215 C205 0.929 . S
Tb216 C225 2.764 1_455 S
Tb216 O226 2.325 1_455 S
Tb216 O229 2.303 1_456 S
Tb216 O233 2.322 1_556 S
Tb216 O234 2.349 . S
Tb216 O237 2.415 1_455 S
Tb216 O238 2.399 1_455 S
Tb217 O227 2.322 1_455 S
Tb217 O228 2.349 1_455 S
Tb217 O230 2.415 . S
Tb217 O231 2.399 . S
Tb217 O232 2.325 . S
Tb217 O235 2.303 1_554 S
Tb217 C246 2.764 . S
C218 O234 1.261 . S
C218 O235 1.257 . S
C219 C222 1.358 . S
C219 C223 1.332 . S
C219 C225 1.504 . S
C220 C221 1.373 . S
C220 C224 1.308 . S
C221 C220 1.373 . S
C221 C222 1.429 . S
C221 H248 0.932 . S
C222 C219 1.358 . S
C222 C221 1.429 . S
C222 H249 0.930 . S
C223 C219 1.332 . S
C223 C224 1.394 . S
C223 H250 0.932 . S
C224 C220 1.308 . S
C224 C223 1.394 . S
C224 H251 0.929 . S
C225 Tb216 2.764 1_655 S
C225 C219 1.504 . S
C225 O237 1.239 . S
C225 O238 1.263 . S
O226 Tb216 2.325 1_655 S
O226 C236 1.236 . S
O227 Tb217 2.322 1_655 S
O227 C236 1.257 1_554 S
O228 Tb217 2.349 1_655 S
O228 C239 1.261 . S
O229 Tb216 2.303 1_654 S
O229 C239 1.257 . S
O230 Tb217 2.415 . S
O230 C246 1.239 . S
O231 Tb217 2.399 . S
O231 C246 1.263 . S
O232 Tb217 2.325 . S
O232 C247 1.236 . S
O233 Tb216 2.322 1_554 S
O233 C247 1.257 . S
O234 Tb216 2.349 . S
O234 C218 1.261 . S
O235 Tb217 2.303 1_556 S
O235 C218 1.257 . S
C236 O226 1.236 . S
C236 O227 1.257 1_556 S
O237 Tb216 2.415 1_655 S
O237 C225 1.239 . S
O238 Tb216 2.399 1_655 S
O238 C225 1.263 . S
C239 O228 1.261 . S
C239 O229 1.257 . S
C240 C243 1.358 . S
C240 C244 1.332 . S
C240 C246 1.504 . S
C241 C242 1.373 . S
C241 C245 1.308 . S
C242 C241 1.373 . S
C242 C243 1.429 . S
C242 H252 0.932 . S
C243 C240 1.358 . S
C243 C242 1.429 . S
C243 H253 0.930 . S
C244 C240 1.332 . S
C244 C245 1.394 . S
C244 H254 0.932 . S
C245 C241 1.308 . S
C245 C244 1.394 . S
C245 H255 0.929 . S
C246 Tb217 2.764 . S
C246 O230 1.239 . S
C246 O231 1.263 . S
C246 C240 1.504 . S
C247 O232 1.236 . S
C247 O233 1.257 . S
H248 C221 0.932 . S
H249 C222 0.930 . S
H250 C223 0.932 . S
H251 C224 0.929 . S
H252 C242 0.932 . S
H253 C243 0.930 . S
H254 C244 0.932 . S
H255 C245 0.929 . S
C256 C257 1.387 . S
C256 H260 0.950 . S
C256 C265 1.390 . S
C257 C256 1.387 . S
C257 C259 1.387 . S
H258 C265 0.950 . S
C259 C257 1.387 . S
C259 C261 1.390 . S
C259 H263 0.950 . S
H260 C256 0.950 . S
C261 C259 1.390 . S
C261 C262 1.387 . S
C261 H264 0.950 . S
C262 C261 1.387 . S
C262 C265 1.387 . S
H263 C259 0.950 . S
H264 C261 0.950 . S
C265 C256 1.390 . S
C265 H258 0.950 . S
C265 C262 1.387 . S
C266 C267 1.387 . S
C266 H270 0.950 . S
C266 C275 1.390 . S
C267 C266 1.387 . S
C267 C269 1.387 . S
H268 C275 0.950 . S
C269 C267 1.387 . S
C269 C271 1.390 . S
C269 H273 0.950 . S
H270 C266 0.950 . S
C271 C269 1.390 . S
C271 C272 1.387 . S
C271 H274 0.950 . S
C272 C271 1.387 . S
C272 C275 1.387 . S
H273 C269 0.950 . S
H274 C271 0.950 . S
C275 C266 1.390 . S
C275 H268 0.950 . S
C275 C272 1.387 . S
C276 C277 1.387 . S
C276 H280 0.950 . S
C276 C285 1.390 . S
C277 C276 1.387 . S
C277 C279 1.387 . S
H278 C285 0.950 . S
C279 C277 1.387 . S
C279 C281 1.390 . S
C279 H283 0.950 . S
H280 C276 0.950 . S
C281 C279 1.390 . S
C281 C282 1.387 . S
C281 H284 0.950 . S
C282 C281 1.387 . S
C282 C285 1.387 . S
H283 C279 0.950 . S
H284 C281 0.950 . S
C285 C276 1.390 . S
C285 H278 0.950 . S
C285 C282 1.387 . S
C286 C287 1.387 . S
C286 H290 0.950 . S
C286 C295 1.390 . S
C287 C286 1.387 . S
C287 C289 1.387 . S
H288 C295 0.950 . S
C289 C287 1.387 . S
C289 C291 1.390 . S
C289 H293 0.950 . S
H290 C286 0.950 . S
C291 C289 1.390 . S
C291 C292 1.387 . S
C291 H294 0.950 . S
C292 C291 1.387 . S
C292 C295 1.387 . S
H293 C289 0.950 . S
H294 C291 0.950 . S
C295 C286 1.390 . S
C295 H288 0.950 . S
C295 C292 1.387 . S
C296 C297 1.387 . S
C296 H300 0.950 . S
C296 C305 1.390 . S
C297 C296 1.387 . S
C297 C299 1.387 . S
H298 C305 0.950 . S
C299 C297 1.387 . S
C299 C301 1.390 . S
C299 H303 0.950 . S
H300 C296 0.950 . S
C301 C299 1.390 . S
C301 C302 1.387 . S
C301 H304 0.950 . S
C302 C301 1.387 . S
C302 C305 1.387 . S
H303 C299 0.950 . S
H304 C301 0.950 . S
C305 C296 1.390 . S
C305 H298 0.950 . S
C305 C302 1.387 . S
C306 C307 1.387 1_655 S
C306 H310 0.950 . S
C306 C315 1.390 . S
C307 C306 1.387 1_455 S
C307 C309 1.387 . S
H308 C315 0.950 . S
C309 C307 1.387 . S
C309 C311 1.390 . S
C309 H313 0.950 . S
H310 C306 0.950 . S
C311 C309 1.390 . S
C311 C312 1.387 . S
C311 H314 0.950 . S
C312 C311 1.387 . S
C312 C315 1.387 1_455 S
H313 C309 0.950 . S
H314 C311 0.950 . S
C315 C306 1.390 . S
C315 H308 0.950 . S
C315 C312 1.387 1_655 S
C316 C317 1.387 . S
C316 H320 0.950 . S
C316 C325 1.390 . S
C317 C316 1.387 . S
C317 C319 1.387 . S
H318 C325 0.950 . S
C319 C317 1.387 . S
C319 C321 1.390 . S
C319 H323 0.950 . S
H320 C316 0.950 . S
C321 C319 1.390 . S
C321 C322 1.387 . S
C321 H324 0.950 . S
C322 C321 1.387 . S
C322 C325 1.387 . S
H323 C319 0.950 . S
H324 C321 0.950 . S
C325 C316 1.390 . S
C325 H318 0.950 . S
C325 C322 1.387 . S
C326 C327 1.387 . S
C326 H330 0.950 . S
C326 C335 1.390 . S
C327 C326 1.387 . S
C327 C329 1.387 . S
H328 C335 0.950 . S
C329 C327 1.387 . S
C329 C331 1.390 . S
C329 H333 0.950 . S
H330 C326 0.950 . S
C331 C329 1.390 . S
C331 C332 1.387 . S
C331 H334 0.950 . S
C332 C331 1.387 . S
C332 C335 1.387 . S
H333 C329 0.950 . S
H334 C331 0.950 . S
C335 C326 1.390 . S
C335 H328 0.950 . S
C335 C332 1.387 . S
C336 C337 1.387 . S
C336 H340 0.950 . S
C336 C345 1.390 . S
C337 C336 1.387 . S
C337 C339 1.387 . S
H338 C345 0.950 . S
C339 C337 1.387 . S
C339 C341 1.390 . S
C339 H343 0.950 . S
H340 C336 0.950 . S
C341 C339 1.390 . S
C341 C342 1.387 . S
C341 H344 0.950 . S
C342 C341 1.387 . S
C342 C345 1.387 . S
H343 C339 0.950 . S
H344 C341 0.950 . S
C345 C336 1.390 . S
C345 H338 0.950 . S
C345 C342 1.387 . S
C346 C347 1.387 . S
C346 H350 0.950 . S
C346 C355 1.390 . S
C347 C346 1.387 . S
C347 C349 1.387 . S
H348 C355 0.950 . S
C349 C347 1.387 . S
C349 C351 1.390 . S
C349 H353 0.950 . S
H350 C346 0.950 . S
C351 C349 1.390 . S
C351 C352 1.387 . S
C351 H354 0.950 . S
C352 C351 1.387 . S
C352 C355 1.387 . S
H353 C349 0.950 . S
H354 C351 0.950 . S
C355 C346 1.390 . S
C355 H348 0.950 . S
C355 C352 1.387 . S
C356 C357 1.387 . S
C356 H360 0.950 . S
C356 C365 1.390 . S
C357 C356 1.387 . S
C357 C359 1.387 . S
H358 C365 0.950 . S
C359 C357 1.387 . S
C359 C361 1.390 . S
C359 H363 0.950 . S
H360 C356 0.950 . S
C361 C359 1.390 . S
C361 C362 1.387 . S
C361 H364 0.950 . S
C362 C361 1.387 . S
C362 C365 1.387 . S
H363 C359 0.950 . S
H364 C361 0.950 . S
C365 C356 1.390 . S
C365 H358 0.950 . S
C365 C362 1.387 . S
C366 C367 1.387 . S
C366 H370 0.950 . S
C366 C375 1.390 . S
C367 C366 1.387 . S
C367 C369 1.387 . S
H368 C375 0.950 . S
C369 C367 1.387 . S
C369 C371 1.390 . S
C369 H373 0.950 . S
H370 C366 0.950 . S
C371 C369 1.390 . S
C371 C372 1.387 . S
C371 H374 0.950 . S
C372 C371 1.387 . S
C372 C375 1.387 . S
H373 C369 0.950 . S
H374 C371 0.950 . S
C375 C366 1.390 . S
C375 H368 0.950 . S
C375 C372 1.387 . S
C376 C377 1.387 . S
C376 H380 0.950 . S
C376 C385 1.390 . S
C377 C376 1.387 . S
C377 C379 1.387 . S
H378 C385 0.950 . S
C379 C377 1.387 . S
C379 C381 1.390 . S
C379 H383 0.950 . S
H380 C376 0.950 . S
C381 C379 1.390 . S
C381 C382 1.387 . S
C381 H384 0.950 . S
C382 C381 1.387 . S
C382 C385 1.387 . S
H383 C379 0.950 . S
H384 C381 0.950 . S
C385 C376 1.390 . S
C385 H378 0.950 . S
C385 C382 1.387 . S
C386 C387 1.387 . S
C386 H390 0.950 . S
C386 C395 1.390 . S
C387 C386 1.387 . S
C387 C389 1.387 . S
H388 C395 0.950 . S
C389 C387 1.387 . S
C389 C391 1.390 . S
C389 H393 0.950 . S
H390 C386 0.950 . S
C391 C389 1.390 . S
C391 C392 1.387 . S
C391 H394 0.950 . S
C392 C391 1.387 . S
C392 C395 1.387 . S
H393 C389 0.950 . S
H394 C391 0.950 . S
C395 C386 1.390 . S
C395 H388 0.950 . S
C395 C392 1.387 . S
C396 C397 1.387 . S
C396 H400 0.950 . S
C396 C405 1.390 . S
C397 C396 1.387 . S
C397 C399 1.387 . S
H398 C405 0.950 . S
C399 C397 1.387 . S
C399 C401 1.390 . S
C399 H403 0.950 . S
H400 C396 0.950 . S
C401 C399 1.390 . S
C401 C402 1.387 . S
C401 H404 0.950 . S
C402 C401 1.387 . S
C402 C405 1.387 . S
H403 C399 0.950 . S
H404 C401 0.950 . S
C405 C396 1.390 . S
C405 H398 0.950 . S
C405 C402 1.387 . S
C406 C407 1.387 . S
C406 H410 0.950 . S
C406 C415 1.390 . S
C407 C406 1.387 . S
C407 C409 1.387 . S
H408 C415 0.950 . S
C409 C407 1.387 . S
C409 C411 1.390 . S
C409 H413 0.950 . S
H410 C406 0.950 . S
C411 C409 1.390 . S
C411 C412 1.387 . S
C411 H414 0.950 . S
C412 C411 1.387 . S
C412 C415 1.387 . S
H413 C409 0.950 . S
H414 C411 0.950 . S
C415 C406 1.390 . S
C415 H408 0.950 . S
C415 C412 1.387 . S
C416 C417 1.387 . S
C416 H420 0.950 . S
C416 C425 1.390 . S
C417 C416 1.387 . S
C417 C419 1.387 . S
H418 C425 0.950 . S
C419 C417 1.387 . S
C419 C421 1.390 . S
C419 H423 0.950 . S
H420 C416 0.950 . S
C421 C419 1.390 . S
C421 C422 1.387 . S
C421 H424 0.950 . S
C422 C421 1.387 . S
C422 C425 1.387 . S
H423 C419 0.950 . S
H424 C421 0.950 . S
C425 C416 1.390 . S
C425 H418 0.950 . S
C425 C422 1.387 . S
C426 C427 1.387 1_455 S
C426 H430 0.950 . S
C426 C435 1.390 . S
C427 C426 1.387 1_655 S
C427 C429 1.387 . S
H428 C435 0.950 . S
C429 C427 1.387 . S
C429 C431 1.390 . S
C429 H433 0.950 . S
H430 C426 0.950 . S
C431 C429 1.390 . S
C431 C432 1.387 . S
C431 H434 0.950 . S
C432 C431 1.387 . S
C432 C435 1.387 1_655 S
H433 C429 0.950 . S
H434 C431 0.950 . S
C435 C426 1.390 . S
C435 H428 0.950 . S
C435 C432 1.387 1_455 S
C436 C437 1.387 . S
C436 H440 0.950 . S
C436 C445 1.390 . S
C437 C436 1.387 . S
C437 C439 1.387 . S
H438 C445 0.950 . S
C439 C437 1.387 . S
C439 C441 1.390 . S
C439 H443 0.950 . S
H440 C436 0.950 . S
C441 C439 1.390 . S
C441 C442 1.387 . S
C441 H444 0.950 . S
C442 C441 1.387 . S
C442 C445 1.387 . S
H443 C439 0.950 . S
H444 C441 0.950 . S
C445 C436 1.390 . S
C445 H438 0.950 . S
C445 C442 1.387 . S
C446 C447 1.387 . S
C446 H450 0.950 . S
C446 C455 1.390 . S
C447 C446 1.387 . S
C447 C449 1.387 . S
H448 C455 0.950 . S
C449 C447 1.387 . S
C449 C451 1.390 . S
C449 H453 0.950 . S
H450 C446 0.950 . S
C451 C449 1.390 . S
C451 C452 1.387 . S
C451 H454 0.950 . S
C452 C451 1.387 . S
C452 C455 1.387 . S
H453 C449 0.950 . S
H454 C451 0.950 . S
C455 C446 1.390 . S
C455 H448 0.950 . S
C455 C452 1.387 . S
C456 C457 1.387 . S
C456 H460 0.950 . S
C456 C465 1.390 . S
C457 C456 1.387 . S
C457 C459 1.387 . S
H458 C465 0.950 . S
C459 C457 1.387 . S
C459 C461 1.390 . S
C459 H463 0.950 . S
H460 C456 0.950 . S
C461 C459 1.390 . S
C461 C462 1.387 . S
C461 H464 0.950 . S
C462 C461 1.387 . S
C462 C465 1.387 . S
H463 C459 0.950 . S
H464 C461 0.950 . S
C465 C456 1.390 . S
C465 H458 0.950 . S
C465 C462 1.387 . S
C466 C467 1.387 . S
C466 H470 0.950 . S
C466 C475 1.390 . S
C467 C466 1.387 . S
C467 C469 1.387 . S
H468 C475 0.950 . S
C469 C467 1.387 . S
C469 C471 1.390 . S
C469 H473 0.950 . S
H470 C466 0.950 . S
C471 C469 1.390 . S
C471 C472 1.387 . S
C471 H474 0.950 . S
C472 C471 1.387 . S
C472 C475 1.387 . S
H473 C469 0.950 . S
H474 C471 0.950 . S
C475 C466 1.390 . S
C475 H468 0.950 . S
C475 C472 1.387 . S
C476 C477 1.387 . S
C476 H480 0.950 . S
C476 C485 1.390 . S
C477 C476 1.387 . S
C477 C479 1.387 . S
H478 C485 0.950 . S
C479 C477 1.387 . S
C479 C481 1.390 . S
C479 H483 0.950 . S
H480 C476 0.950 . S
C481 C479 1.390 . S
C481 C482 1.387 . S
C481 H484 0.950 . S
C482 C481 1.387 . S
C482 C485 1.387 . S
H483 C479 0.950 . S
H484 C481 0.950 . S
C485 C476 1.390 . S
C485 H478 0.950 . S
C485 C482 1.387 . S
C486 C487 1.387 . S
C486 H490 0.950 . S
C486 C495 1.390 . S
C487 C486 1.387 . S
C487 C489 1.387 . S
H488 C495 0.950 . S
C489 C487 1.387 . S
C489 C491 1.390 . S
C489 H493 0.950 . S
H490 C486 0.950 . S
C491 C489 1.390 . S
C491 C492 1.387 . S
C491 H494 0.950 . S
C492 C491 1.387 . S
C492 C495 1.387 . S
H493 C489 0.950 . S
H494 C491 0.950 . S
C495 C486 1.390 . S
C495 H488 0.950 . S
C495 C492 1.387 . S
C257 C6 0.957 . S
C262 C100 0.988 . S
C267 C18 1.264 . S
C272 C161 1.268 . S
C282 C199 2.658 . S
C277 C28 2.701 . S
C287 C40 1.948 . S
C292 C239 1.901 . S
C302 C159 1.392 . S
C297 C9 1.314 . S
C312 C127 1.974 . S
C307 C16 1.813 . S
C322 C236 1.871 . S
C317 C30 1.891 . S
C332 C196 1.662 . S
C327 C42 1.688 . S
C337 C4 1.279 . S
C342 C241 1.268 . S
C352 C156 2.603 . S
C347 C33 2.593 . S
C357 C45 2.026 . S
C362 C98 1.995 . S
C367 C21 1.492 . S
C372 C201 1.583 . S
C382 C121 1.002 . S
C377 C57 0.985 . S
C387 C66 1.277 . S
C392 C140 1.287 . S
C397 C76 2.749 . S
C402 C178 2.698 . S
C407 C88 1.861 . S
C412 C218 1.843 . S
C417 C54 1.321 . S
C422 C138 1.400 . S
C432 C116 2.052 . S
C427 C64 1.939 . S
C442 C247 1.772 . S
C437 C78 1.798 . S
C452 C207 1.729 . S
C447 C93 1.751 . S
C457 C52 1.249 . S
C462 C220 1.324 . S
C472 C167 2.605 . S
C467 C81 2.585 . S
C482 C119 1.987 . S
C477 C90 2.013 . S
C487 C69 1.476 . S
C492 C180 1.593 . S
