# Generated by pormake.
# Topology sit, (3,6)-cn, num edge types: 1
# Building blocks:
#     Node 0, Type 0, BuildingBlock: INOVEN_clean_linker_0, # of connection points: 3
#     Node 1, Type 0, BuildingBlock: INOVEN_clean_linker_0, # of connection points: 3
#     Node 2, Type 0, BuildingBlock: INOVEN_clean_linker_0, # of connection points: 3
#     Node 3, Type 0, BuildingBlock: INOVEN_clean_linker_0, # of connection points: 3
#     Node 4, Type 1, BuildingBlock: MIDCAF_clean_sbu_0, # of connection points: 6
#     Node 5, Type 1, BuildingBlock: MIDCAF_clean_sbu_0, # of connection points: 6
#     Edge 6, Type (0, 1), BuildingBlock: MIFKUJ_clean_linker_0, # of connection points: 2
#     Edge 7, Type (0, 1), BuildingBlock: MIFKUJ_clean_linker_0, # of connection points: 2
#     Edge 8, Type (0, 1), BuildingBlock: MIFKUJ_clean_linker_0, # of connection points: 2
#     Edge 9, Type (0, 1), BuildingBlock: MIFKUJ_clean_linker_0, # of connection points: 2
#     Edge 10, Type (0, 1), BuildingBlock: MIFKUJ_clean_linker_0, # of connection points: 2
#     Edge 11, Type (0, 1), BuildingBlock: MIFKUJ_clean_linker_0, # of connection points: 2
#     Edge 12, Type (0, 1), BuildingBlock: MIFKUJ_clean_linker_0, # of connection points: 2
#     Edge 13, Type (0, 1), BuildingBlock: MIFKUJ_clean_linker_0, # of connection points: 2
#     Edge 14, Type (0, 1), BuildingBlock: MIFKUJ_clean_linker_0, # of connection points: 2
#     Edge 15, Type (0, 1), BuildingBlock: MIFKUJ_clean_linker_0, # of connection points: 2
#     Edge 16, Type (0, 1), BuildingBlock: MIFKUJ_clean_linker_0, # of connection points: 2
#     Edge 17, Type (0, 1), BuildingBlock: MIFKUJ_clean_linker_0, # of connection points: 2
# Relax obj value: 0.072
# Max RMSD: 0.181
# Mean RMSD: 0.110
data_MOF--net-sit--node1-MIDCAF_clean_sbu_0--node2-INOVEN_clean_linker_0--edge1-MIFKUJ_clean_linker_0
_symmetry_space_group_name_H-M    P1
_symmetry_Int_Tables_number       1
_symmetry_cell_setting            triclinic
loop_
_symmetry_equiv_pos_as_xyz
'x, y, z'
_cell_length_a     27.241421
_cell_length_b     43.848922
_cell_length_c     48.054276
_cell_angle_alpha  90.116678
_cell_angle_beta   87.024119
_cell_angle_gamma 83.979292
loop_
_atom_site_label
_atom_site_type_symbol
_atom_site_fract_x
_atom_site_fract_y
_atom_site_fract_z
_atom_type_partial_charge
H0 H 0.001 0.29395 0.05183 0.0
H1 H 0.09183 0.35983 0.01605 0.0
H2 H 0.15943 0.27374 0.04509 0.0
N3 N 0.07315 0.25199 0.06296 0.0
N4 N 0.10812 0.2316 0.06566 0.0
C5 C 0.0371 0.30079 0.04574 0.0
C6 C 0.04116 0.32965 0.03372 0.0
C7 C 0.07938 0.28049 0.04996 0.0
C8 C 0.12646 0.28919 0.042 0.0
C9 C 0.13091 0.31822 0.03043 0.0
C10 C 0.08826 0.3381 0.02632 0.0
H11 H 0.95138 0.72765 0.05089 0.0
H12 H 0.02875 0.64792 0.0103 0.0
H13 H 0.11067 0.71545 0.04608 0.0
N14 N 0.0302 0.75292 0.06503 0.0
N15 N 0.0651 0.76922 0.06291 0.0
C16 C 0.98568 0.71417 0.04433 0.0
C17 C 0.98465 0.68641 0.02989 0.0
C18 C 0.03089 0.72488 0.05011 0.0
C19 C 0.07562 0.7074 0.04161 0.0
C20 C 0.0749 0.67951 0.02724 0.0
C21 C 0.02936 0.66928 0.02163 0.0
H22 H 0.52915 0.77905 0.53619 0.0
H23 H 0.60896 0.85348 0.50737 0.0
H24 H 0.68277 0.77992 0.5532 0.0
N25 N 0.60177 0.74826 0.5607 0.0
N26 N 0.63804 0.73232 0.56978 0.0
C27 C 0.56304 0.78996 0.53406 0.0
C28 C 0.56356 0.81814 0.5203 0.0
C29 C 0.60572 0.77587 0.54577 0.0
C30 C 0.64975 0.79026 0.54386 0.0
C31 C 0.65022 0.81879 0.53065 0.0
C32 C 0.6075 0.83212 0.51858 0.0
H33 H 0.43768 0.23642 0.53983 0.0
H34 H 0.52789 0.1611 0.49967 0.0
H35 H 0.59494 0.22492 0.54972 0.0
N36 N 0.51039 0.26132 0.56299 0.0
N37 N 0.54688 0.27491 0.56831 0.0
C38 C 0.47354 0.22358 0.5357 0.0
C39 C 0.47807 0.19747 0.51844 0.0
C40 C 0.51568 0.23401 0.54662 0.0
C41 C 0.56237 0.21733 0.54101 0.0
C42 C 0.56693 0.19056 0.52454 0.0
C43 C 0.52461 0.18113 0.51319 0.0
Zn44 Zn 0.07285 0.05568 0.34011 0.0
Zn45 Zn 0.06786 0.94162 0.34379 0.0
Zn46 Zn 0.07278 0.99894 0.34421 0.0
C47 C 0.08225 0.9539 0.28917 0.0
C48 C 0.98274 0.96374 0.37147 0.0
O49 O 0.13812 0.01253 0.36506 0.0
O50 O 0.14194 0.05939 0.34885 0.0
C51 C 0.06115 0.03905 0.28733 0.0
O52 O 0.07636 0.98111 0.30004 0.0
O53 O 0.08309 0.93071 0.30463 0.0
O54 O -0.00015 0.93922 0.35914 0.0
O55 O 0.00566 0.98796 0.36893 0.0
O56 O 0.05421 0.06327 0.30175 0.0
O57 O 0.07163 0.01293 0.29917 0.0
O58 O 0.00645 0.02009 0.36878 0.0
O59 O 0.02247 0.06836 0.37002 0.0
C60 C -0.0041 0.0478 0.37789 0.0
O61 O 0.13853 0.97971 0.3663 0.0
O62 O 0.12145 0.9317 0.36934 0.0
C63 C 0.15985 0.03724 0.36311 0.0
C64 C 0.14869 0.95215 0.37514 0.0
Zn65 Zn 0.53016 0.55926 0.84779 0.0
Zn66 Zn 0.61512 0.44542 0.84795 0.0
Zn67 Zn 0.57306 0.50235 0.85046 0.0
C68 C 0.60062 0.46097 0.79357 0.0
C69 C 0.52293 0.44573 0.87767 0.0
O70 O 0.62056 0.53061 0.87281 0.0
O71 O 0.58306 0.57741 0.86763 0.0
C72 C 0.55184 0.54227 0.79355 0.0
O73 O 0.5826 0.48605 0.80612 0.0
O74 O 0.61949 0.43873 0.80742 0.0
O75 O 0.56106 0.42803 0.87035 0.0
O76 O 0.5203 0.47445 0.87166 0.0
O77 O 0.5285 0.56423 0.80723 0.0
O78 O 0.57058 0.51819 0.80622 0.0
O79 O 0.50124 0.50556 0.87491 0.0
O80 O 0.46827 0.55334 0.86924 0.0
C81 C 0.46604 0.5272 0.87983 0.0
O82 O 0.64182 0.49932 0.87383 0.0
O83 O 0.67556 0.45155 0.86677 0.0
C84 C 0.61791 0.55979 0.8771 0.0
C85 C 0.67682 0.47773 0.87739 0.0
H86 H 0.02278 0.21539 0.09066 0.0
H87 H 0.01507 0.17091 0.1204 0.0
H88 H 0.16944 0.14048 0.10349 0.0
H89 H 0.17745 0.18544 0.07352 0.0
H90 H 0.09835 0.09075 0.10879 0.0
H91 H 0.15289 0.17715 0.15695 0.0
H92 H 0.14941 0.23185 0.16979 0.0
H93 H 0.00104 0.23006 0.20412 0.0
H94 H 0.0034 0.17543 0.19106 0.0
H95 H 0.1328 0.0203 0.24715 0.0
H96 H 0.13822 0.04126 0.19973 0.0
H97 H 0.99075 0.08708 0.21263 0.0
H98 H 0.98567 0.06666 0.25977 0.0
H99 H 0.06499 0.12586 0.2068 0.0
H100 H 0.01174 0.03836 0.16207 0.0
H101 H 0.01246 0.98445 0.14731 0.0
H102 H 0.15614 0.98703 0.10684 0.0
H103 H 0.15669 0.04088 0.12168 0.0
C104 C 0.05492 0.19898 0.09279 0.0
C105 C 0.10108 0.20394 0.08004 0.0
C106 C 0.05036 0.17346 0.10967 0.0
C107 C 0.09169 0.15247 0.11414 0.0
C108 C 0.13705 0.15631 0.10009 0.0
C109 C 0.14169 0.182 0.08321 0.0
C110 C 0.08869 0.12965 0.13669 0.0
C111 C 0.09176 0.09818 0.13032 0.0
C112 C 0.07952 0.13956 0.16463 0.0
C113 C 0.07816 0.17232 0.17277 0.0
C114 C 0.11938 0.1885 0.16701 0.0
C115 C 0.11764 0.21947 0.17437 0.0
C116 C 0.07498 0.23444 0.18769 0.0
C117 C 0.03403 0.21844 0.19376 0.0
C118 C 0.03556 0.18748 0.1864 0.0
C119 C 0.10089 0.03374 0.23928 0.0
C120 C 0.05892 0.04214 0.25696 0.0
C121 C 0.10396 0.04567 0.21224 0.0
C122 C 0.06503 0.06597 0.20282 0.0
C123 C 0.02119 0.07151 0.21953 0.0
C124 C 0.01829 0.05986 0.24643 0.0
C125 C 0.07332 0.08669 0.1791 0.0
C126 C 0.07174 0.11806 0.18535 0.0
C127 C 0.08389 0.07643 0.15127 0.0
C128 C 0.08449 0.04365 0.14328 0.0
C129 C 0.04385 0.02735 0.15038 0.0
C130 C 0.0439 0.99683 0.14187 0.0
C131 C 0.08426 0.98235 0.12611 0.0
C132 C 0.1248 0.99832 0.11895 0.0
C133 C 0.12497 0.02884 0.12744 0.0
H134 H 0.08416 0.95876 0.11948 0.0
H135 H 0.0737 0.25842 0.19338 0.0
H136 H 0.01222 0.78397 0.11129 0.0
H137 H 0.0161 0.82961 0.13967 0.0
H138 H 0.11957 0.86284 0.07873 0.0
H139 H 0.1179 0.81573 0.05113 0.0
H140 H 0.15044 0.87407 0.12397 0.0
H141 H 0.99394 0.89865 0.09131 0.0
H142 H 0.90963 0.89249 0.0775 0.0
H143 H 0.86497 0.87521 0.16251 0.0
H144 H 0.94916 0.8808 0.17682 0.0
H145 H 0.0308 0.98434 0.24814 0.0
H146 H 0.03222 0.96957 0.19881 0.0
H147 H 0.14158 0.89361 0.2141 0.0
H148 H 0.14268 0.90973 0.26234 0.0
H149 H 0.00314 0.92338 0.17793 0.0
H150 H 0.2103 0.86672 0.15927 0.0
H151 H 0.29358 0.88047 0.16772 0.0
H152 H 0.23679 0.97528 0.17642 0.0
H153 H 0.1533 0.96228 0.16777 0.0
C154 C 0.03535 0.80117 0.10381 0.0
C155 C 0.06457 0.79657 0.07889 0.0
C156 C 0.03723 0.82752 0.11992 0.0
C157 C 0.06714 0.85035 0.11113 0.0
C158 C 0.09595 0.84581 0.08602 0.0
C159 C 0.09498 0.81899 0.07022 0.0
C160 C 0.07106 0.87743 0.1295 0.0
C161 C 0.11821 0.88506 0.13558 0.0
C162 C 0.02896 0.89346 0.14348 0.0
C163 C 0.97803 0.89009 0.13512 0.0
C164 C 0.96623 0.89337 0.10705 0.0
C165 C 0.91843 0.88999 0.09913 0.0
C166 C 0.88197 0.88345 0.11911 0.0
C167 C 0.89323 0.88032 0.14706 0.0
C168 C 0.94098 0.88366 0.1551 0.0
C169 C 0.05698 0.96558 0.24047 0.0
C170 C 0.08757 0.94868 0.25881 0.0
C171 C 0.05723 0.95678 0.21239 0.0
C172 C 0.08762 0.93068 0.20239 0.0
C173 C 0.11894 0.91438 0.22078 0.0
C174 C 0.11918 0.92341 0.24854 0.0
C175 C 0.08273 0.91769 0.17412 0.0
C176 C 0.03538 0.91294 0.16594 0.0
C177 C 0.12461 0.9055 0.15738 0.0
C178 C 0.17521 0.91348 0.16258 0.0
C179 C 0.2155 0.89057 0.16264 0.0
C180 C 0.26284 0.89823 0.16761 0.0
C181 C 0.27051 0.92873 0.17254 0.0
C182 C 0.23085 0.95165 0.17256 0.0
C183 C 0.18346 0.94413 0.16761 0.0
H184 H 0.30719 0.93459 0.1764 0.0
H185 H 0.84499 0.88084 0.11293 0.0
H186 H 0.70982 0.69218 0.58764 0.0
H187 H 0.69995 0.64898 0.61955 0.0
H188 H 0.54168 0.67023 0.62087 0.0
H189 H 0.55121 0.71269 0.58903 0.0
H190 H 0.58605 0.66966 0.67398 0.0
H191 H 0.58511 0.60877 0.59019 0.0
H192 H 0.61923 0.58647 0.54525 0.0
H193 H 0.74416 0.54202 0.58554 0.0
H194 H 0.71114 0.56446 0.63069 0.0
H195 H 0.48568 0.56625 0.75749 0.0
H196 H 0.5049 0.58783 0.71194 0.0
H197 H 0.65754 0.55134 0.71659 0.0
H198 H 0.63786 0.52865 0.76206 0.0
H199 H 0.62514 0.55731 0.66017 0.0
H200 H 0.62939 0.61781 0.74301 0.0
H201 H 0.59723 0.63924 0.78865 0.0
H202 H 0.47118 0.68531 0.75052 0.0
H203 H 0.50218 0.66366 0.70471 0.0
C204 C 0.67304 0.68713 0.59444 0.0
C205 C 0.63151 0.70577 0.58599 0.0
C206 C 0.66741 0.66249 0.61249 0.0
C207 C 0.62006 0.65644 0.62245 0.0
C208 C 0.57849 0.67448 0.61331 0.0
C209 C 0.58405 0.69878 0.59513 0.0
C210 C 0.61346 0.6338 0.6448 0.0
C211 C 0.59422 0.64509 0.67084 0.0
C212 C 0.62586 0.60185 0.64095 0.0
C213 C 0.64599 0.58866 0.61376 0.0
C214 C 0.62018 0.59457 0.58943 0.0
C215 C 0.63923 0.58182 0.56392 0.0
C216 C 0.68393 0.56294 0.56252 0.0
C217 C 0.70961 0.55672 0.58664 0.0
C218 C 0.69072 0.56944 0.61219 0.0
C219 C 0.5229 0.56177 0.74827 0.0
C220 C 0.56049 0.54627 0.76334 0.0
C221 C 0.53388 0.5741 0.72228 0.0
C222 C 0.58287 0.57187 0.71128 0.0
C223 C 0.61954 0.55344 0.72481 0.0
C224 C 0.6083 0.54053 0.75075 0.0
C225 C 0.59639 0.59327 0.68898 0.0
C226 C 0.61726 0.58189 0.66322 0.0
C227 C 0.58622 0.62535 0.69306 0.0
C228 C 0.5679 0.6389 0.72048 0.0
C229 C 0.59465 0.63235 0.74439 0.0
C230 C 0.57664 0.64454 0.77029 0.0
C231 C 0.53214 0.66358 0.77249 0.0
C232 C 0.50563 0.67053 0.74879 0.0
C233 C 0.52341 0.65832 0.72285 0.0
H234 H 0.51825 0.673 0.79256 0.0
H235 H 0.69859 0.55305 0.54276 0.0
H236 H 0.46547 0.30125 0.59836 0.0
H237 H 0.4634 0.34508 0.63036 0.0
H238 H 0.61749 0.35252 0.60903 0.0
H239 H 0.61948 0.30867 0.57705 0.0
H240 H 0.5163 0.34619 0.67586 0.0
H241 H 0.64186 0.42716 0.61643 0.0
H242 H 0.65826 0.44449 0.56838 0.0
H243 H 0.51441 0.42381 0.54665 0.0
H244 H 0.49678 0.40683 0.59467 0.0
H245 H 0.66117 0.42375 0.75873 0.0
H246 H 0.64151 0.40424 0.71352 0.0
H247 H 0.50781 0.4663 0.71518 0.0
H248 H 0.52663 0.48552 0.76106 0.0
H249 H 0.58022 0.44638 0.65642 0.0
H250 H 0.46952 0.41454 0.73273 0.0
H251 H 0.45554 0.39816 0.78134 0.0
H252 H 0.56602 0.32152 0.76779 0.0
H253 H 0.58118 0.3378 0.71922 0.0
C254 C 0.49863 0.31255 0.60021 0.0
C255 C 0.54289 0.30169 0.58531 0.0
C256 C 0.49742 0.33758 0.61846 0.0
C257 C 0.54014 0.35232 0.62188 0.0
C258 C 0.58383 0.34193 0.60638 0.0
C259 C 0.58511 0.31683 0.5883 0.0
C260 C 0.54082 0.37625 0.64375 0.0
C261 C 0.52922 0.36834 0.67141 0.0
C262 C 0.55791 0.40519 0.6381 0.0
C263 C 0.56816 0.41548 0.60915 0.0
C264 C 0.61361 0.42643 0.60145 0.0
C265 C 0.62315 0.43618 0.5742 0.0
C266 C 0.58746 0.43517 0.55446 0.0
C267 C 0.5421 0.42447 0.56194 0.0
C268 C 0.53236 0.41473 0.58916 0.0
C269 C 0.62834 0.43398 0.74911 0.0
C270 C 0.59535 0.4561 0.76347 0.0
C271 C 0.6173 0.42288 0.72323 0.0
C272 C 0.57318 0.43375 0.71118 0.0
C273 C 0.54225 0.45785 0.72415 0.0
C274 C 0.55319 0.46891 0.75027 0.0
C275 C 0.55618 0.41591 0.68808 0.0
C276 C 0.56562 0.42465 0.66046 0.0
C277 C 0.53665 0.3878 0.69357 0.0
C278 C 0.52669 0.37751 0.72248 0.0
C279 C 0.49102 0.39432 0.7402 0.0
C280 C 0.48287 0.38504 0.76773 0.0
C281 C 0.50994 0.35884 0.77767 0.0
C282 C 0.5451 0.34181 0.76007 0.0
C283 C 0.55345 0.35104 0.73254 0.0
H284 H 0.50361 0.35171 0.79899 0.0
H285 H 0.59491 0.44273 0.53338 0.0
H286 H 0.16824 0.37116 0.04357 0.0
H287 H 0.23851 0.39265 0.02007 0.0
H288 H 0.27182 0.30945 0.97157 0.0
H289 H 0.20111 0.28793 0.99498 0.0
H290 H 0.33735 0.37859 0.01192 0.0
H291 H 0.29213 0.33119 0.90386 0.0
H292 H 0.21936 0.31664 0.88043 0.0
H293 H 0.12372 0.37674 0.93508 0.0
H294 H 0.19573 0.39169 0.95862 0.0
H295 H 0.53171 0.39785 0.91324 0.0
H296 H 0.46626 0.37675 0.94133 0.0
H297 H 0.35812 0.44394 0.90795 0.0
H298 H 0.42367 0.46455 0.87895 0.0
H299 H 0.3268 0.38669 0.90929 0.0
H300 H 0.39164 0.45446 0.97097 0.0
H301 H 0.45588 0.47805 0.99521 0.0
H302 H 0.49852 0.39243 0.03494 0.0
H303 H 0.43503 0.36814 0.01057 0.0
C304 C 0.19136 0.35722 0.02836 0.0
C305 C 0.17929 0.32799 0.02092 0.0
C306 C 0.23146 0.36947 0.01501 0.0
C307 C 0.25986 0.35281 0.99383 0.0
C308 C 0.24996 0.32277 0.9877 0.0
C309 C 0.20993 0.3104 0.0012 0.0
C310 C 0.29672 0.36791 0.97653 0.0
C311 C 0.33534 0.38014 0.98947 0.0
C312 C 0.29272 0.37115 0.94741 0.0
C313 C 0.24929 0.36224 0.9332 0.0
C314 C 0.25554 0.34127 0.91083 0.0
C315 C 0.2144 0.33293 0.89755 0.0
C316 C 0.16687 0.3456 0.90634 0.0
C317 C 0.16042 0.36671 0.92838 0.0
C318 C 0.20138 0.37507 0.94174 0.0
C319 C 0.49397 0.40808 0.9118 0.0
C320 C 0.48278 0.43323 0.89433 0.0
C321 C 0.45669 0.3961 0.92796 0.0
C322 C 0.40752 0.409 0.92692 0.0
C323 C 0.39596 0.43377 0.90911 0.0
C324 C 0.43341 0.44581 0.8929 0.0
C325 C 0.36847 0.39638 0.94456 0.0
C326 C 0.32927 0.38474 0.93168 0.0
C327 C 0.37081 0.39486 0.97389 0.0
C328 C 0.40884 0.4094 0.98875 0.0
C329 C 0.41493 0.44059 0.98472 0.0
C330 C 0.45118 0.4541 -0.0015 0.0
C331 C 0.4813 0.43674 0.01656 0.0
C332 C 0.47517 0.40584 0.02092 0.0
C333 C 0.43904 0.39218 0.00714 0.0
H334 H 0.50934 0.44725 0.02722 0.0
H335 H 0.13508 0.33913 0.89603 0.0
H336 H 0.90799 0.71929 0.00523 0.0
H337 H 0.83935 0.6987 0.98302 0.0
H338 H 0.88794 0.60835 0.01276 0.0
H339 H 0.95629 0.62881 0.03507 0.0
H340 H 0.87984 0.60901 0.95701 0.0
H341 H 0.78025 0.64533 0.03772 0.0
H342 H 0.74492 0.68326 0.07318 0.0
H343 H 0.67811 0.73944 0.00943 0.0
H344 H 0.71363 0.70203 0.97351 0.0
H345 H 0.67023 0.53317 0.91899 0.0
H346 H 0.73176 0.55503 0.94604 0.0
H347 H 0.70223 0.64107 0.9037 0.0
H348 H 0.64407 0.61816 0.87477 0.0
H349 H 0.70024 0.6431 0.96541 0.0
H350 H 0.79548 0.60223 0.88494 0.0
H351 H 0.82977 0.56253 0.85102 0.0
H352 H 0.9082 0.51374 0.91526 0.0
H353 H 0.8736 0.55285 0.94974 0.0
C354 C 0.90307 0.69524 0.00774 0.0
C355 C 0.93769 0.67558 0.02163 0.0
C356 C 0.86398 0.68347 0.99496 0.0
C357 C 0.85881 0.65195 0.99608 0.0
C358 C 0.89154 0.63269 0.01145 0.0
C359 C 0.93048 0.6444 0.02419 0.0
C360 C 0.8225 0.63849 0.97908 0.0
C361 C 0.84043 0.61604 0.95915 0.0
C362 C 0.7714 0.64846 0.98137 0.0
C363 C 0.75005 0.67103 0.0029 0.0
C364 C 0.75841 0.66591 0.03123 0.0
C365 C 0.73826 0.68729 0.05142 0.0
C366 C 0.70941 0.71379 0.04355 0.0
C367 C 0.70053 0.71893 0.01548 0.0
C368 C 0.72063 0.69763 0.9952 0.0
C369 C 0.67887 0.55609 0.91447 0.0
C370 C 0.65441 0.57326 0.8938 0.0
C371 C 0.71296 0.5689 0.93045 0.0
C372 C 0.72175 0.59959 0.92669 0.0
C373 C 0.69603 0.61727 0.90678 0.0
C374 C 0.66296 0.60414 0.89028 0.0
C375 C 0.75758 0.6133 0.94367 0.0
C376 C 0.73962 0.63591 0.96342 0.0
C377 C 0.80874 0.6033 0.9413 0.0
C378 C 0.83029 0.58 0.92027 0.0
C379 C 0.81909 0.58273 0.89205 0.0
C380 C 0.83893 0.56041 0.87263 0.0
C381 C 0.87081 0.53548 0.88101 0.0
C382 C 0.88327 0.53298 0.9088 0.0
C383 C 0.86341 0.55519 0.9283 0.0
H384 H 0.88607 0.5182 0.86595 0.0
H385 H 0.69382 0.7303 0.05922 0.0
H386 H 0.95708 0.31405 0.01104 0.0
H387 H 0.8927 0.34875 0.9907 0.0
H388 H 0.96231 0.4266 0.0183 0.0
H389 H 0.02553 0.39207 0.03983 0.0
H390 H 0.86358 0.43997 0.01945 0.0
H391 H 0.99159 0.39677 0.95439 0.0
H392 H 0.04546 0.35478 0.93077 0.0
H393 H 0.91853 0.31824 0.89986 0.0
H394 H 0.86373 0.35961 0.92379 0.0
H395 H 0.77363 0.48682 0.86819 0.0
H396 H 0.83862 0.47402 0.90097 0.0
H397 H 0.72755 0.4577 0.96504 0.0
H398 H 0.6631 0.47106 0.93249 0.0
H399 H 0.85608 0.42008 0.91819 0.0
H400 H 0.77063 0.45558 0.02955 0.0
H401 H 0.72436 0.5005 0.05324 0.0
H402 H 0.77714 0.55953 0.98976 0.0
H403 H 0.82302 0.51478 0.96553 0.0
C404 C 0.95777 0.33854 0.01363 0.0
C405 C -0.00308 0.35031 0.02659 0.0
C406 C 0.92121 0.35836 0.00177 0.0
C407 C 0.92355 0.39021 0.00236 0.0
C408 C 0.96009 0.40209 0.01736 0.0
C409 C -0.00359 0.38231 0.02943 0.0
C410 C 0.89139 0.41076 0.98489 0.0
C411 C 0.86165 0.4357 0.99732 0.0
C412 C 0.89056 0.40584 0.95582 0.0
C413 C 0.92353 0.38117 0.94107 0.0
C414 C 0.97514 0.37969 0.9427 0.0
C415 C 0.00584 0.35601 0.92925 0.0
C416 C 0.98546 0.33388 0.91384 0.0
C417 C 0.93428 0.33539 0.91182 0.0
C418 C 0.90337 0.35894 0.92533 0.0
C419 C 0.76331 0.48198 0.88968 0.0
C420 C 0.71368 0.48038 0.89812 0.0
C421 C 0.80032 0.47453 0.90837 0.0
C422 C 0.78813 0.465 0.93559 0.0
C423 C 0.73811 0.4656 0.94446 0.0
C424 C 0.70123 0.47317 0.92585 0.0
C425 C 0.82674 0.44912 0.95275 0.0
C426 C 0.85791 0.4248 0.94027 0.0
C427 C 0.82943 0.4551 0.9816 0.0
C428 C 0.80031 0.48186 0.99566 0.0
C429 C 0.77233 0.47813 0.02062 0.0
C430 C 0.74597 0.50353 0.03409 0.0
C431 C 0.74764 0.53284 0.02295 0.0
C432 C 0.77555 0.53679 -0.00174 0.0
C433 C 0.80153 0.51142 0.98458 0.0
H434 H 0.72742 0.55249 0.03347 0.0
H435 H 0.00932 0.31558 0.90343 0.0
H436 H 0.15573 0.66031 0.057 0.0
H437 H 0.22611 0.62318 0.04171 0.0
H438 H 0.16676 0.61873 0.96045 0.0
H439 H 0.0971 0.65556 0.9755 0.0
H440 H 0.19178 0.56165 0.9811 0.0
H441 H 0.26414 0.65872 0.97185 0.0
H442 H 0.28974 0.70704 0.98982 0.0
H443 H 0.38122 0.6566 0.04775 0.0
H444 H 0.35563 0.60798 0.03033 0.0
H445 H 0.3685 0.53825 0.87202 0.0
H446 H 0.3035 0.54944 0.90859 0.0
H447 H 0.40775 0.52317 0.97103 0.0
H448 H 0.47279 0.51075 0.93409 0.0
H449 H 0.36616 0.58505 0.97416 0.0
H450 H 0.30654 0.48769 0.97733 0.0
H451 H 0.28195 0.43925 0.95937 0.0
H452 H 0.16989 0.48901 0.91281 0.0
H453 H 0.19315 0.53789 0.93097 0.0
C454 C 0.15836 0.65174 0.03576 0.0
C455 C 0.1209 0.66061 0.01746 0.0
C456 C 0.19827 0.63041 0.02712 0.0
C457 C 0.2013 0.61792 4e-05 0.0
C458 C 0.16477 0.62768 0.98156 0.0
C459 C 0.12513 0.64883 0.99014 0.0
C460 C 0.24212 0.59465 0.99038 0.0
C461 C 0.22997 0.5667 0.97969 0.0
C462 C 0.2922 0.6006 0.98963 0.0
C463 C 0.30744 0.6298 9e-05 0.0
C464 C 0.28935 0.65797 0.9886 0.0
C465 C 0.30393 0.6854 -0.00135 0.0
C466 C 0.33693 0.6849 0.01999 0.0
C467 C 0.35555 0.65695 0.03128 0.0
C468 C 0.34103 0.62947 0.02133 0.0
C469 C 0.37685 0.53341 0.89347 0.0
C470 C 0.4253 0.52366 0.90037 0.0
C471 C 0.33979 0.53981 0.91438 0.0
C472 C 0.3509 0.53724 0.94254 0.0
C473 C 0.39847 0.52512 0.94942 0.0
C474 C 0.43541 0.51792 0.92836 0.0
C475 C 0.31542 0.55276 0.96375 0.0
C476 C 0.32834 0.57939 0.97655 0.0
C477 C 0.26612 0.5456 0.96652 0.0
C478 C 0.25178 0.51643 0.9554 0.0
C479 C 0.27683 0.48831 0.96313 0.0
C480 C 0.26308 0.46076 0.95295 0.0
C481 C 0.22476 0.461 0.93471 0.0
C482 C 0.19965 0.48884 0.9269 0.0
C483 C 0.21286 0.51649 0.93729 0.0
H484 H 0.21443 0.43964 0.92668 0.0
H485 H 0.3482 0.70615 0.02773 0.0
H486 H 0.74005 0.80038 0.50485 0.0
H487 H 0.80138 0.83449 0.48869 0.0
H488 H 0.71903 0.90987 0.53403 0.0
H489 H 0.65795 0.87587 0.55013 0.0
H490 H 0.72773 0.92027 0.47847 0.0
H491 H 0.83489 0.88821 0.55063 0.0
H492 H 0.88228 0.85099 0.58002 0.0
H493 H 0.96862 0.81462 0.50789 0.0
H494 H 0.92131 0.85131 0.478 0.0
H495 H 0.97544 0.98542 0.42458 0.0
H496 H 0.91717 0.97149 0.46182 0.0
H497 H 0.84003 0.92363 0.40203 0.0
H498 H 0.89876 0.937 0.36491 0.0
H499 H 0.91086 0.91051 0.47455 0.0
H500 H 0.71626 0.92428 0.42746 0.0
H501 H 0.66563 0.96041 0.39876 0.0
H502 H 0.7513 0.03281 0.42037 0.0
H503 H 0.80345 0.99695 0.44862 0.0
C504 C 0.73644 0.82387 0.51235 0.0
C505 C 0.69444 0.83563 0.5286 0.0
C506 C 0.7713 0.84338 0.50306 0.0
C507 C 0.76448 0.87477 0.51002 0.0
C508 C 0.72487 0.88578 0.52836 0.0
C509 C 0.69021 0.86634 0.53765 0.0
C510 C 0.79343 0.89673 0.49465 0.0
C511 C 0.7678 0.91837 0.47773 0.0
C512 C 0.84555 0.89443 0.49411 0.0
C513 C 0.87435 0.87245 0.51205 0.0
C514 C 0.86376 0.87214 0.541 0.0
C515 C 0.89066 0.85116 0.55776 0.0
C516 C 0.9284 0.83043 0.54583 0.0
C517 C 0.93939 0.83069 0.51711 0.0
C518 C 0.9126 0.85162 0.50026 0.0
C519 C 0.94495 0.97286 0.41932 0.0
C520 C 0.94112 0.96242 0.39196 0.0
C521 C 0.91187 0.96484 0.44059 0.0
C522 C 0.87418 0.94669 0.43466 0.0
C523 C 0.86846 0.93799 0.40699 0.0
C524 C 0.90195 0.94559 0.38583 0.0
C525 C 0.84517 0.93313 0.45744 0.0
C526 C 0.87076 0.91291 0.47566 0.0
C527 C 0.79291 0.93643 0.45885 0.0
C528 C 0.76361 0.95789 0.44053 0.0
C529 C 0.72445 0.94789 0.42614 0.0
C530 C 0.69566 0.96829 0.40976 0.0
C531 C 0.70538 0.99887 0.4077 0.0
C532 C 0.74417 0.00904 0.42183 0.0
C533 C 0.77347 0.98865 0.43796 0.0
H534 H 0.68282 0.01469 0.39518 0.0
H535 H 0.94916 0.81419 0.55883 0.0
H536 H 0.47082 0.18747 0.46337 0.0
H537 H 0.4086 0.16127 0.4411 0.0
H538 H 0.32695 0.15687 0.52017 0.0
H539 H 0.39044 0.18281 0.54277 0.0
H540 H 0.33964 0.10198 0.49529 0.0
H541 H 0.27884 0.20149 0.46792 0.0
H542 H 0.28132 0.25384 0.44968 0.0
H543 H 0.33772 0.21718 0.37005 0.0
H544 H 0.33629 0.16459 0.38791 0.0
H545 H 0.15584 0.03375 0.41926 0.0
H546 H 0.2042 0.06157 0.45024 0.0
H547 H 0.29875 0.08377 0.37984 0.0
H548 H 0.24793 0.05783 0.34875 0.0
H549 H 0.26656 0.13325 0.40604 0.0
H550 H 0.33475 0.03216 0.4385 0.0
H551 H 0.32556 0.98127 0.45843 0.0
H552 H 0.24655 0.02328 0.53068 0.0
H553 H 0.25531 0.07451 0.51111 0.0
C554 C 0.43908 0.18144 0.4759 0.0
C555 C 0.43534 0.18704 0.50475 0.0
C556 C 0.4034 0.16659 0.46315 0.0
C557 C 0.36288 0.15725 0.47891 0.0
C558 C 0.35789 0.16395 0.50761 0.0
C559 C 0.3938 0.17896 0.52045 0.0
C560 C 0.32857 0.13833 0.46543 0.0
C561 C 0.32291 0.10902 0.47601 0.0
C562 C 0.30682 0.14742 0.44026 0.0
C563 C 0.30771 0.17905 0.42934 0.0
C564 C 0.29212 0.20457 0.44658 0.0
C565 C 0.29328 0.2343 0.43629 0.0
C566 C 0.30973 0.23883 0.40874 0.0
C567 C 0.32498 0.21364 0.39139 0.0
C568 C 0.32393 0.18385 0.40158 0.0
C569 C 0.18819 0.04355 0.41066 0.0
C570 C 0.19866 0.04348 0.38175 0.0
C571 C 0.2158 0.05957 0.42837 0.0
C572 C 0.25531 0.0749 0.41747 0.0
C573 C 0.26825 0.0724 0.38878 0.0
C574 C 0.23974 0.05722 0.37103 0.0
C575 C 0.27993 0.0962 0.43503 0.0
C576 C 0.28323 0.12618 0.42533 0.0
C577 C 0.29883 0.08785 0.46116 0.0
C578 C 0.29524 0.05709 0.47322 0.0
C579 C 0.31531 0.03052 0.45859 0.0
C580 C 0.31009 1.00161 0.46983 0.0
C581 C 0.28498 0.99902 0.4957 0.0
C582 C 0.26574 0.02533 0.51059 0.0
C583 C 0.27096 0.0543 0.49948 0.0
H584 H 0.28046 0.97667 0.50433 0.0
H585 H 0.3106 0.26187 0.40082 0.0
H586 H 0.53176 0.87943 0.51995 0.0
H587 H 0.46351 0.90503 0.49542 0.0
H588 H 0.42319 0.81736 0.46889 0.0
H589 H 0.49405 0.7915 0.4918 0.0
H590 H 0.41894 0.85538 0.427 0.0
H591 H 0.34978 0.86183 0.52234 0.0
H592 H 0.35158 0.87342 0.57257 0.0
H593 H 0.37515 0.96667 0.55379 0.0
H594 H 0.3744 0.95537 0.50348 0.0
H595 H 0.16458 0.9002 0.40524 0.0
H596 H 0.23708 0.88207 0.43029 0.0
H597 H 0.30293 0.96479 0.40944 0.0
H598 H 0.2308 0.98273 0.38292 0.0
H599 H 0.29511 0.93188 0.47435 0.0
H600 H 0.35887 0.92385 0.37648 0.0
H601 H 0.35067 0.90921 0.32748 0.0
H602 H 0.3348 0.81656 0.35223 0.0
H603 H 0.34211 0.83082 0.40145 0.0
C604 C 0.50873 0.8655 0.50871 0.0
C605 C 0.51876 0.83335 0.50766 0.0
C606 C 0.46917 0.88022 0.49501 0.0
C607 C 0.43775 0.86315 0.4806 0.0
C608 C 0.44695 0.83101 0.47992 0.0
C609 C 0.48711 0.81623 0.4933 0.0
C610 C 0.39607 0.87894 0.46572 0.0
C611 C 0.39207 0.8722 0.4374 0.0
C612 C 0.36109 0.90108 0.4791 0.0
C613 C 0.36158 0.90787 0.50927 0.0
C614 C 0.35537 0.88478 0.52899 0.0
C615 C 0.35632 0.89127 0.55744 0.0
C616 C 0.36335 0.92078 0.56638 0.0
C617 C 0.36954 0.94385 0.54687 0.0
C618 C 0.36873 0.93744 0.5184 0.0
C619 C 0.19426 0.91476 0.40593 0.0
C620 C 0.19166 0.94315 0.39213 0.0
C621 C 0.23558 0.90432 0.42039 0.0
C622 C 0.27508 0.92208 0.42165 0.0
C623 C 0.27241 0.95088 0.40876 0.0
C624 C 0.23107 0.96124 0.39384 0.0
C625 C 0.3196 0.90937 0.43558 0.0
C626 C 0.32327 0.91602 0.46385 0.0
C627 C 0.35422 0.88716 0.4222 0.0
C628 C 0.35051 0.87848 0.39262 0.0
C629 C 0.35314 0.90044 0.37149 0.0
C630 C 0.34877 0.89219 0.34367 0.0
C631 C 0.34208 0.86199 0.33675 0.0
C632 C 0.33992 0.83995 0.35762 0.0
C633 C 0.34422 0.84809 0.38547 0.0
H634 H 0.33869 0.85565 0.31521 0.0
H635 H 0.36407 0.92577 0.58841 0.0
H636 H 0.6551 0.21296 0.5105 0.0
H637 H 0.73108 0.18397 0.49157 0.0
H638 H 0.66391 0.09962 0.50221 0.0
H639 H 0.58896 0.12826 0.52258 0.0
H640 H 0.75812 0.08896 0.51054 0.0
H641 H 0.66231 0.13716 0.43986 0.0
H642 H 0.61538 0.1796 0.41596 0.0
H643 H 0.74626 0.22598 0.4055 0.0
H644 H 0.79384 0.184 0.42974 0.0
H645 H 0.90701 0.02342 0.38336 0.0
H646 H 0.83628 0.0409 0.41527 0.0
H647 H 0.91762 0.11128 0.44718 0.0
H648 H 0.98913 0.09292 0.41673 0.0
H649 H 0.81364 0.12435 0.41724 0.0
H650 H 0.90868 0.06849 0.48832 0.0
H651 H 0.94831 0.02163 0.50933 0.0
H652 H 0.80916 0.98369 0.51525 0.0
H653 H 0.76875 0.03022 0.49393 0.0
C654 C 0.65701 0.18819 0.50959 0.0
C655 C 0.61567 0.17297 0.51755 0.0
C656 C 0.70027 0.17164 0.49847 0.0
C657 C 0.70265 0.13969 0.49473 0.0
C658 C 0.66278 0.12426 0.5046 0.0
C659 C 0.61979 0.14072 0.516 0.0
C660 C 0.74485 0.12276 0.47854 0.0
C661 C 0.77007 0.09656 0.49006 0.0
C662 C 0.75989 0.13233 0.45159 0.0
C663 C 0.73152 0.15758 0.43687 0.0
C664 C 0.68101 0.15652 0.43264 0.0
C665 C 0.6543 0.18047 0.41902 0.0
C666 C 0.6778 0.20551 0.40928 0.0
C667 C 0.7281 0.20659 0.41309 0.0
C668 C 0.75496 0.18272 0.42677 0.0
C669 C 0.91044 0.04171 0.39804 0.0
C670 C 0.95389 0.05633 0.398 0.0
C671 C 0.86993 0.05182 0.41607 0.0
C672 C 0.87218 0.077 0.43385 0.0
C673 C 0.91558 0.09148 0.43391 0.0
C674 C 0.95619 0.08109 0.41636 0.0
C675 C 0.82765 0.0912 0.44958 0.0
C676 C 0.80167 0.1168 0.43775 0.0
C677 C 0.81128 0.08047 0.47583 0.0
C678 C 0.83588 0.0526 0.48881 0.0
C679 C 0.88663 0.04999 0.4936 0.0
C680 C 0.90919 0.02356 0.50582 0.0
C681 C 0.88129 0.99968 0.51359 0.0
C682 C 0.83073 0.00224 0.5093 0.0
C683 C 0.80798 0.02868 0.49721 0.0
H684 H 0.89887 0.97917 0.52291 0.0
H685 H 0.65706 0.22403 0.39872 0.0
loop_
_geom_bond_atom_site_label_1
_geom_bond_atom_site_label_2
_geom_bond_distance
_geom_bond_site_symmetry_2
_ccdc_geom_bond_type
H0 C5 0.929 . S
H1 C10 0.931 . S
H2 C8 0.930 . S
N3 N4 1.234 . S
N3 C7 1.453 . S
N4 N3 1.234 . S
C5 H0 0.929 . S
C5 C6 1.373 . S
C5 C7 1.368 . S
C6 C5 1.373 . S
C6 C10 1.397 1_554 S
C7 N3 1.453 . S
C7 C5 1.368 . S
C7 C8 1.373 . S
C8 H2 0.930 . S
C8 C7 1.373 . S
C8 C9 1.371 . S
C9 C8 1.371 . S
C9 C10 1.383 1_554 S
C10 H1 0.931 . S
C10 C6 1.397 1_556 S
C10 C9 1.383 1_556 S
H11 C16 0.929 . S
H12 C21 0.931 1_556 S
H13 C19 0.930 . S
N14 N15 1.234 1_655 S
N14 C18 1.453 . S
N15 N14 1.234 1_455 S
C16 H11 0.929 . S
C16 C17 1.373 . S
C16 C18 1.368 . S
C17 C16 1.373 . S
C17 C21 1.397 1_655 S
C18 N14 1.453 . S
C18 C16 1.368 . S
C18 C19 1.373 1_655 S
C19 H13 0.930 . S
C19 C18 1.373 1_455 S
C19 C20 1.371 . S
C20 C19 1.371 . S
C20 C21 1.383 . S
C21 H12 0.931 1_554 S
C21 C17 1.397 1_455 S
C21 C20 1.383 . S
H22 C27 0.929 . S
H23 C32 0.931 . S
H24 C30 0.930 . S
N25 N26 1.234 . S
N25 C29 1.453 . S
N26 N25 1.234 . S
C27 H22 0.929 . S
C27 C28 1.373 . S
C27 C29 1.368 . S
C28 C27 1.373 . S
C28 C32 1.397 . S
C29 N25 1.453 . S
C29 C27 1.368 . S
C29 C30 1.373 . S
C30 H24 0.930 . S
C30 C29 1.373 . S
C30 C31 1.371 . S
C31 C30 1.371 . S
C31 C32 1.383 . S
C32 H23 0.931 . S
C32 C28 1.397 . S
C32 C31 1.383 . S
H33 C38 0.929 . S
H34 C43 0.931 . S
H35 C41 0.930 . S
N36 N37 1.234 . S
N36 C40 1.453 . S
N37 N36 1.234 . S
C38 H33 0.929 . S
C38 C39 1.373 . S
C38 C40 1.368 . S
C39 C38 1.373 . S
C39 C43 1.397 . S
C40 N36 1.453 . S
C40 C38 1.368 . S
C40 C41 1.373 . S
C41 H35 0.930 . S
C41 C40 1.373 . S
C41 C42 1.371 . S
C42 C41 1.371 . S
C42 C43 1.383 . S
C43 H34 0.931 . S
C43 C39 1.397 . S
C43 C42 1.383 . S
Zn44 O50 1.920 . S
Zn44 O56 1.898 . S
Zn44 O59 1.905 1_455 S
Zn45 O53 1.905 . S
Zn45 O54 1.898 . S
Zn45 O62 1.920 . S
Zn46 O49 2.080 . S
Zn46 O52 2.114 1_545 S
Zn46 O55 2.120 1_545 S
Zn46 O57 2.120 . S
Zn46 O58 2.114 . S
Zn46 O61 2.080 1_545 S
C47 O52 1.166 . S
C47 O53 1.182 . S
C48 O54 1.167 . S
C48 O55 1.299 . S
O49 Zn46 2.080 . S
O49 C63 1.305 . S
O50 Zn44 1.920 . S
O50 C63 1.234 . S
C51 O56 1.167 . S
C51 O57 1.299 . S
O52 Zn46 2.114 1_565 S
O52 C47 1.166 . S
O53 Zn45 1.905 . S
O53 C47 1.182 . S
O54 Zn45 1.898 . S
O54 C48 1.167 . S
O55 Zn46 2.120 1_565 S
O55 C48 1.299 . S
O56 Zn44 1.898 . S
O56 C51 1.167 . S
O57 Zn46 2.120 . S
O57 C51 1.299 . S
O58 Zn46 2.114 . S
O58 C60 1.166 1_455 S
O59 Zn44 1.905 1_655 S
O59 C60 1.182 . S
C60 O58 1.166 1_655 S
C60 O59 1.182 . S
O61 Zn46 2.080 1_565 S
O61 C64 1.305 . S
O62 Zn45 1.920 . S
O62 C64 1.234 . S
C63 O49 1.305 . S
C63 O50 1.234 . S
C64 O61 1.305 . S
C64 O62 1.234 . S
Zn65 O71 1.920 . S
Zn65 O77 1.898 . S
Zn65 O80 1.905 . S
Zn66 O74 1.905 . S
Zn66 O75 1.898 . S
Zn66 O83 1.920 . S
Zn67 O70 2.080 . S
Zn67 O73 2.114 . S
Zn67 O76 2.120 . S
Zn67 O78 2.120 . S
Zn67 O79 2.114 . S
Zn67 O82 2.080 . S
C68 O73 1.166 . S
C68 O74 1.182 . S
C69 O75 1.167 . S
C69 O76 1.299 . S
O70 Zn67 2.080 . S
O70 C84 1.305 . S
O71 Zn65 1.920 . S
O71 C84 1.234 . S
C72 O77 1.167 . S
C72 O78 1.299 . S
O73 Zn67 2.114 . S
O73 C68 1.166 . S
O74 Zn66 1.905 . S
O74 C68 1.182 . S
O75 Zn66 1.898 . S
O75 C69 1.167 . S
O76 Zn67 2.120 . S
O76 C69 1.299 . S
O77 Zn65 1.898 . S
O77 C72 1.167 . S
O78 Zn67 2.120 . S
O78 C72 1.299 . S
O79 Zn67 2.114 . S
O79 C81 1.166 . S
O80 Zn65 1.905 . S
O80 C81 1.182 . S
C81 O79 1.166 . S
C81 O80 1.182 . S
O82 Zn67 2.080 . S
O82 C85 1.305 . S
O83 Zn66 1.920 . S
O83 C85 1.234 . S
C84 O70 1.305 . S
C84 O71 1.234 . S
C85 O82 1.305 . S
C85 O83 1.234 . S
H86 C104 0.951 . S
H87 C106 0.951 . S
H88 C108 0.950 . S
H89 C109 0.950 . S
H90 C111 0.950 . S
H91 C114 0.950 . S
H92 C115 0.950 . S
H93 C117 0.950 . S
H94 C118 0.950 . S
H95 C119 0.951 . S
H96 C121 0.951 . S
H97 C123 0.950 . S
H98 C124 0.950 . S
H99 C126 0.950 . S
H100 C129 0.950 . S
H101 C130 0.950 . S
H102 C132 0.950 . S
H103 C133 0.950 . S
C104 H86 0.951 . S
C104 C105 1.366 . S
C104 C106 1.388 . S
C105 C104 1.366 . S
C105 C109 1.385 . S
C106 H87 0.951 . S
C106 C104 1.388 . S
C106 C107 1.366 . S
C107 C106 1.366 . S
C107 C108 1.414 . S
C107 C110 1.499 . S
C108 H88 0.950 . S
C108 C107 1.414 . S
C108 C109 1.374 . S
C109 H89 0.950 . S
C109 C105 1.385 . S
C109 C108 1.374 . S
C110 C107 1.499 . S
C110 C111 1.373 . S
C110 C112 1.389 . S
C111 H90 0.950 . S
C111 C110 1.373 . S
C111 C127 1.377 . S
C112 C110 1.389 . S
C112 C113 1.524 . S
C112 C126 1.377 . S
C113 C112 1.524 . S
C113 C114 1.397 . S
C113 C118 1.363 . S
C114 H91 0.950 . S
C114 C113 1.397 . S
C114 C115 1.334 . S
C115 H92 0.950 . S
C115 C114 1.334 . S
C115 C116 1.287 . S
C116 C115 1.287 . S
C116 C117 1.524 . S
C116 H135 0.913 . S
C117 H93 0.950 . S
C117 C116 1.524 . S
C117 C118 1.415 . S
C118 H94 0.950 . S
C118 C113 1.363 . S
C118 C117 1.415 . S
C119 H95 0.951 . S
C119 C120 1.366 . S
C119 C121 1.388 . S
C120 C119 1.366 . S
C120 C124 1.385 . S
C121 H96 0.951 . S
C121 C119 1.388 . S
C121 C122 1.366 . S
C122 C121 1.366 . S
C122 C123 1.414 . S
C122 C125 1.499 . S
C123 H97 0.950 . S
C123 C122 1.414 . S
C123 C124 1.374 . S
C124 H98 0.950 . S
C124 C120 1.385 . S
C124 C123 1.374 . S
C125 C122 1.499 . S
C125 C126 1.373 . S
C125 C127 1.389 . S
C126 H99 0.950 . S
C126 C112 1.377 . S
C126 C125 1.373 . S
C127 C111 1.377 . S
C127 C125 1.389 . S
C127 C128 1.524 . S
C128 C127 1.524 . S
C128 C129 1.397 . S
C128 C133 1.363 . S
C129 H100 0.950 . S
C129 C128 1.397 . S
C129 C130 1.334 . S
C130 H101 0.950 . S
C130 C129 1.334 . S
C130 C131 1.287 . S
C131 C130 1.287 . S
C131 C132 1.524 . S
C131 H134 0.999 1_545 S
C132 H102 0.950 . S
C132 C131 1.524 . S
C132 C133 1.415 . S
C133 H103 0.950 . S
C133 C128 1.363 . S
C133 C132 1.415 . S
H134 C131 0.999 1_565 S
H135 C116 0.913 . S
H136 C154 0.951 . S
H137 C156 0.951 . S
H138 C158 0.950 . S
H139 C159 0.950 . S
H140 C161 0.950 . S
H141 C164 0.950 . S
H142 C165 0.950 . S
H143 C167 0.950 . S
H144 C168 0.950 . S
H145 C169 0.951 . S
H146 C171 0.951 . S
H147 C173 0.950 . S
H148 C174 0.950 . S
H149 C176 0.950 . S
H150 C179 0.950 . S
H151 C180 0.950 . S
H152 C182 0.950 . S
H153 C183 0.950 . S
C154 H136 0.951 . S
C154 C155 1.366 . S
C154 C156 1.388 . S
C155 C154 1.366 . S
C155 C159 1.385 . S
C156 H137 0.951 . S
C156 C154 1.388 . S
C156 C157 1.366 . S
C157 C156 1.366 . S
C157 C158 1.414 . S
C157 C160 1.499 . S
C158 H138 0.950 . S
C158 C157 1.414 . S
C158 C159 1.374 . S
C159 H139 0.950 . S
C159 C155 1.385 . S
C159 C158 1.374 . S
C160 C157 1.499 . S
C160 C161 1.373 . S
C160 C162 1.389 1_455 S
C161 H140 0.950 . S
C161 C160 1.373 . S
C161 C177 1.377 . S
C162 C160 1.389 1_655 S
C162 C163 1.524 . S
C162 C176 1.377 . S
C163 C162 1.524 . S
C163 C164 1.397 . S
C163 C168 1.363 . S
C164 H141 0.950 . S
C164 C163 1.397 . S
C164 C165 1.334 . S
C165 H142 0.950 . S
C165 C164 1.334 . S
C165 C166 1.287 . S
C166 C165 1.287 . S
C166 C167 1.524 . S
C166 H185 0.913 . S
C167 H143 0.950 . S
C167 C166 1.524 . S
C167 C168 1.415 . S
C168 H144 0.950 . S
C168 C163 1.363 . S
C168 C167 1.415 . S
C169 H145 0.951 . S
C169 C170 1.366 . S
C169 C171 1.388 . S
C170 C169 1.366 . S
C170 C174 1.385 . S
C171 H146 0.951 . S
C171 C169 1.388 . S
C171 C172 1.366 . S
C172 C171 1.366 . S
C172 C173 1.414 . S
C172 C175 1.499 . S
C173 H147 0.950 . S
C173 C172 1.414 . S
C173 C174 1.374 . S
C174 H148 0.950 . S
C174 C170 1.385 . S
C174 C173 1.374 . S
C175 C172 1.499 . S
C175 C176 1.373 1_455 S
C175 C177 1.389 . S
C176 H149 0.950 . S
C176 C162 1.377 . S
C176 C175 1.373 1_655 S
C177 C161 1.377 . S
C177 C175 1.389 . S
C177 C178 1.524 . S
C178 C177 1.524 . S
C178 C179 1.397 . S
C178 C183 1.363 . S
C179 H150 0.950 . S
C179 C178 1.397 . S
C179 C180 1.334 . S
C180 H151 0.950 . S
C180 C179 1.334 . S
C180 C181 1.287 . S
C181 C180 1.287 . S
C181 C182 1.524 . S
C181 H184 0.999 . S
C182 H152 0.950 . S
C182 C181 1.524 . S
C182 C183 1.415 . S
C183 H153 0.950 . S
C183 C178 1.363 . S
C183 C182 1.415 . S
H184 C181 0.999 . S
H185 C166 0.913 . S
H186 C204 0.951 . S
H187 C206 0.951 . S
H188 C208 0.950 . S
H189 C209 0.950 . S
H190 C211 0.950 . S
H191 C214 0.950 . S
H192 C215 0.950 . S
H193 C217 0.950 . S
H194 C218 0.950 . S
H195 C219 0.951 . S
H196 C221 0.951 . S
H197 C223 0.950 . S
H198 C224 0.950 . S
H199 C226 0.950 . S
H200 C229 0.950 . S
H201 C230 0.950 . S
H202 C232 0.950 . S
H203 C233 0.950 . S
C204 H186 0.951 . S
C204 C205 1.366 . S
C204 C206 1.388 . S
C205 C204 1.366 . S
C205 C209 1.385 . S
C206 H187 0.951 . S
C206 C204 1.388 . S
C206 C207 1.366 . S
C207 C206 1.366 . S
C207 C208 1.414 . S
C207 C210 1.499 . S
C208 H188 0.950 . S
C208 C207 1.414 . S
C208 C209 1.374 . S
C209 H189 0.950 . S
C209 C205 1.385 . S
C209 C208 1.374 . S
C210 C207 1.499 . S
C210 C211 1.373 . S
C210 C212 1.389 . S
C211 H190 0.950 . S
C211 C210 1.373 . S
C211 C227 1.377 . S
C212 C210 1.389 . S
C212 C213 1.524 . S
C212 C226 1.377 . S
C213 C212 1.524 . S
C213 C214 1.397 . S
C213 C218 1.363 . S
C214 H191 0.950 . S
C214 C213 1.397 . S
C214 C215 1.334 . S
C215 H192 0.950 . S
C215 C214 1.334 . S
C215 C216 1.287 . S
C216 C215 1.287 . S
C216 C217 1.524 . S
C216 H235 0.913 . S
C217 H193 0.950 . S
C217 C216 1.524 . S
C217 C218 1.415 . S
C218 H194 0.950 . S
C218 C213 1.363 . S
C218 C217 1.415 . S
C219 H195 0.951 . S
C219 C220 1.366 . S
C219 C221 1.388 . S
C220 C219 1.366 . S
C220 C224 1.385 . S
C221 H196 0.951 . S
C221 C219 1.388 . S
C221 C222 1.366 . S
C222 C221 1.366 . S
C222 C223 1.414 . S
C222 C225 1.499 . S
C223 H197 0.950 . S
C223 C222 1.414 . S
C223 C224 1.374 . S
C224 H198 0.950 . S
C224 C220 1.385 . S
C224 C223 1.374 . S
C225 C222 1.499 . S
C225 C226 1.373 . S
C225 C227 1.389 . S
C226 H199 0.950 . S
C226 C212 1.377 . S
C226 C225 1.373 . S
C227 C211 1.377 . S
C227 C225 1.389 . S
C227 C228 1.524 . S
C228 C227 1.524 . S
C228 C229 1.397 . S
C228 C233 1.363 . S
C229 H200 0.950 . S
C229 C228 1.397 . S
C229 C230 1.334 . S
C230 H201 0.950 . S
C230 C229 1.334 . S
C230 C231 1.287 . S
C231 C230 1.287 . S
C231 C232 1.524 . S
C231 H234 0.999 . S
C232 H202 0.950 . S
C232 C231 1.524 . S
C232 C233 1.415 . S
C233 H203 0.950 . S
C233 C228 1.363 . S
C233 C232 1.415 . S
H234 C231 0.999 . S
H235 C216 0.913 . S
H236 C254 0.951 . S
H237 C256 0.951 . S
H238 C258 0.950 . S
H239 C259 0.950 . S
H240 C261 0.950 . S
H241 C264 0.950 . S
H242 C265 0.950 . S
H243 C267 0.950 . S
H244 C268 0.950 . S
H245 C269 0.951 . S
H246 C271 0.951 . S
H247 C273 0.950 . S
H248 C274 0.950 . S
H249 C276 0.950 . S
H250 C279 0.950 . S
H251 C280 0.950 . S
H252 C282 0.950 . S
H253 C283 0.950 . S
C254 H236 0.951 . S
C254 C255 1.366 . S
C254 C256 1.388 . S
C255 C254 1.366 . S
C255 C259 1.385 . S
C256 H237 0.951 . S
C256 C254 1.388 . S
C256 C257 1.366 . S
C257 C256 1.366 . S
C257 C258 1.414 . S
C257 C260 1.499 . S
C258 H238 0.950 . S
C258 C257 1.414 . S
C258 C259 1.374 . S
C259 H239 0.950 . S
C259 C255 1.385 . S
C259 C258 1.374 . S
C260 C257 1.499 . S
C260 C261 1.373 . S
C260 C262 1.389 . S
C261 H240 0.950 . S
C261 C260 1.373 . S
C261 C277 1.377 . S
C262 C260 1.389 . S
C262 C263 1.524 . S
C262 C276 1.377 . S
C263 C262 1.524 . S
C263 C264 1.397 . S
C263 C268 1.363 . S
C264 H241 0.950 . S
C264 C263 1.397 . S
C264 C265 1.334 . S
C265 H242 0.950 . S
C265 C264 1.334 . S
C265 C266 1.287 . S
C266 C265 1.287 . S
C266 C267 1.524 . S
C266 H285 0.913 . S
C267 H243 0.950 . S
C267 C266 1.524 . S
C267 C268 1.415 . S
C268 H244 0.950 . S
C268 C263 1.363 . S
C268 C267 1.415 . S
C269 H245 0.951 . S
C269 C270 1.366 . S
C269 C271 1.388 . S
C270 C269 1.366 . S
C270 C274 1.385 . S
C271 H246 0.951 . S
C271 C269 1.388 . S
C271 C272 1.366 . S
C272 C271 1.366 . S
C272 C273 1.414 . S
C272 C275 1.499 . S
C273 H247 0.950 . S
C273 C272 1.414 . S
C273 C274 1.374 . S
C274 H248 0.950 . S
C274 C270 1.385 . S
C274 C273 1.374 . S
C275 C272 1.499 . S
C275 C276 1.373 . S
C275 C277 1.389 . S
C276 H249 0.950 . S
C276 C262 1.377 . S
C276 C275 1.373 . S
C277 C261 1.377 . S
C277 C275 1.389 . S
C277 C278 1.524 . S
C278 C277 1.524 . S
C278 C279 1.397 . S
C278 C283 1.363 . S
C279 H250 0.950 . S
C279 C278 1.397 . S
C279 C280 1.334 . S
C280 H251 0.950 . S
C280 C279 1.334 . S
C280 C281 1.287 . S
C281 C280 1.287 . S
C281 C282 1.524 . S
C281 H284 0.999 . S
C282 H252 0.950 . S
C282 C281 1.524 . S
C282 C283 1.415 . S
C283 H253 0.950 . S
C283 C278 1.363 . S
C283 C282 1.415 . S
H284 C281 0.999 . S
H285 C266 0.913 . S
H286 C304 0.951 . S
H287 C306 0.951 . S
H288 C308 0.950 . S
H289 C309 0.950 . S
H290 C311 0.950 1_554 S
H291 C314 0.950 . S
H292 C315 0.950 . S
H293 C317 0.950 . S
H294 C318 0.950 . S
H295 C319 0.951 . S
H296 C321 0.951 . S
H297 C323 0.950 . S
H298 C324 0.950 . S
H299 C326 0.950 . S
H300 C329 0.931 1_556 S
H301 C330 0.950 . S
H302 C332 0.950 . S
H303 C333 0.950 . S
C304 H286 0.951 . S
C304 C305 1.380 . S
C304 C306 1.388 . S
C305 C304 1.380 . S
C305 C309 1.379 1_556 S
C306 H287 0.951 . S
C306 C304 1.388 . S
C306 C307 1.366 . S
C307 C306 1.366 . S
C307 C308 1.414 . S
C307 C310 1.499 . S
C308 H288 0.950 . S
C308 C307 1.414 . S
C308 C309 1.374 1_556 S
C309 H289 0.950 . S
C309 C305 1.379 1_554 S
C309 C308 1.374 1_554 S
C310 C307 1.499 . S
C310 C311 1.373 . S
C310 C312 1.389 . S
C311 H290 0.950 1_556 S
C311 C310 1.373 . S
C311 C327 1.377 . S
C312 C310 1.389 . S
C312 C313 1.524 . S
C312 C326 1.377 . S
C313 C312 1.524 . S
C313 C314 1.397 . S
C313 C318 1.363 . S
C314 H291 0.950 . S
C314 C313 1.397 . S
C314 C315 1.334 . S
C315 H292 0.950 . S
C315 C314 1.334 . S
C315 C316 1.287 . S
C316 C315 1.287 . S
C316 C317 1.524 . S
C316 H335 0.913 . S
C317 H293 0.950 . S
C317 C316 1.524 . S
C317 C318 1.415 . S
C318 H294 0.950 . S
C318 C313 1.363 . S
C318 C317 1.415 . S
C319 H295 0.951 . S
C319 C320 1.366 . S
C319 C321 1.388 . S
C320 C319 1.366 . S
C320 C324 1.385 . S
C321 H296 0.951 . S
C321 C319 1.388 . S
C321 C322 1.366 . S
C322 C321 1.366 . S
C322 C323 1.414 . S
C322 C325 1.499 . S
C323 H297 0.950 . S
C323 C322 1.414 . S
C323 C324 1.374 . S
C324 H298 0.950 . S
C324 C320 1.385 . S
C324 C323 1.374 . S
C325 C322 1.499 . S
C325 C326 1.373 . S
C325 C327 1.389 . S
C326 H299 0.950 . S
C326 C312 1.377 . S
C326 C325 1.373 . S
C327 C311 1.377 . S
C327 C325 1.389 . S
C327 C328 1.524 . S
C328 C327 1.524 . S
C328 C329 1.394 1_556 S
C328 C333 1.363 1_556 S
C329 H300 0.931 1_554 S
C329 C328 1.394 1_554 S
C329 C330 1.356 . S
C330 H301 0.950 . S
C330 C329 1.356 . S
C330 C331 1.287 . S
C331 C330 1.287 . S
C331 C332 1.524 . S
C331 H334 0.999 . S
C332 H302 0.950 . S
C332 C331 1.524 . S
C332 C333 1.415 . S
C333 H303 0.950 . S
C333 C328 1.363 1_554 S
C333 C332 1.415 . S
H334 C331 0.999 . S
H335 C316 0.913 . S
H336 C354 0.951 . S
H337 C356 0.951 . S
H338 C358 0.950 . S
H339 C359 0.950 1_554 S
H340 C361 0.950 . S
H341 C364 0.950 . S
H342 C365 0.950 . S
H343 C367 0.950 . S
H344 C368 0.950 1_556 S
H345 C369 0.951 . S
H346 C371 0.951 . S
H347 C373 0.950 . S
H348 C374 0.950 . S
H349 C376 0.950 . S
H350 C379 0.950 . S
H351 C380 0.950 . S
H352 C382 0.950 . S
H353 C383 0.950 . S
C354 H336 0.951 . S
C354 C355 1.361 1_556 S
C354 C356 1.388 . S
C355 C354 1.361 1_554 S
C355 C359 1.384 1_554 S
C356 H337 0.951 . S
C356 C354 1.388 . S
C356 C357 1.366 . S
C357 C356 1.366 . S
C357 C358 1.414 . S
C357 C360 1.499 . S
C358 H338 0.950 . S
C358 C357 1.414 . S
C358 C359 1.374 . S
C359 H339 0.950 1_556 S
C359 C355 1.384 1_556 S
C359 C358 1.374 . S
C360 C357 1.499 . S
C360 C361 1.373 . S
C360 C362 1.389 . S
C361 H340 0.950 . S
C361 C360 1.373 . S
C361 C377 1.377 . S
C362 C360 1.389 . S
C362 C363 1.524 1_556 S
C362 C376 1.377 . S
C363 C362 1.524 1_554 S
C363 C364 1.397 . S
C363 C368 1.363 . S
C364 H341 0.950 . S
C364 C363 1.397 . S
C364 C365 1.334 . S
C365 H342 0.950 . S
C365 C364 1.334 . S
C365 C366 1.287 . S
C366 C365 1.287 . S
C366 C367 1.524 . S
C366 H385 0.913 . S
C367 H343 0.950 . S
C367 C366 1.524 . S
C367 C368 1.415 . S
C368 H344 0.950 1_554 S
C368 C363 1.363 . S
C368 C367 1.415 . S
C369 H345 0.951 . S
C369 C370 1.366 . S
C369 C371 1.388 . S
C370 C369 1.366 . S
C370 C374 1.385 . S
C371 H346 0.951 . S
C371 C369 1.388 . S
C371 C372 1.366 . S
C372 C371 1.366 . S
C372 C373 1.414 . S
C372 C375 1.499 . S
C373 H347 0.950 . S
C373 C372 1.414 . S
C373 C374 1.374 . S
C374 H348 0.950 . S
C374 C370 1.385 . S
C374 C373 1.374 . S
C375 C372 1.499 . S
C375 C376 1.373 . S
C375 C377 1.389 . S
C376 H349 0.950 . S
C376 C362 1.377 . S
C376 C375 1.373 . S
C377 C361 1.377 . S
C377 C375 1.389 . S
C377 C378 1.524 . S
C378 C377 1.524 . S
C378 C379 1.397 . S
C378 C383 1.363 . S
C379 H350 0.950 . S
C379 C378 1.397 . S
C379 C380 1.334 . S
C380 H351 0.950 . S
C380 C379 1.334 . S
C380 C381 1.287 . S
C381 C380 1.287 . S
C381 C382 1.524 . S
C381 H384 0.999 . S
C382 H352 0.950 . S
C382 C381 1.524 . S
C382 C383 1.415 . S
C383 H353 0.950 . S
C383 C378 1.363 . S
C383 C382 1.415 . S
H384 C381 0.999 . S
H385 C366 0.913 . S
H386 C404 0.935 1_554 S
H387 C406 0.951 . S
H388 C408 0.950 . S
H389 C409 0.950 . S
H390 C411 0.950 . S
H391 C414 0.950 . S
H392 C415 0.950 . S
H393 C417 0.950 . S
H394 C418 0.950 . S
H395 C419 0.951 . S
H396 C421 0.951 . S
H397 C423 0.950 . S
H398 C424 0.950 . S
H399 C426 0.950 . S
H400 C429 0.950 . S
H401 C430 0.950 . S
H402 C432 0.950 . S
H403 C433 0.950 . S
C404 H386 0.935 1_556 S
C404 C405 1.366 1_655 S
C404 C406 1.388 . S
C405 C404 1.366 1_455 S
C405 C409 1.385 . S
C406 H387 0.951 . S
C406 C404 1.388 . S
C406 C407 1.366 . S
C407 C406 1.366 . S
C407 C408 1.414 1_655 S
C407 C410 1.499 . S
C408 H388 0.950 . S
C408 C407 1.414 1_455 S
C408 C409 1.374 . S
C409 H389 0.950 . S
C409 C405 1.385 . S
C409 C408 1.374 . S
C410 C407 1.499 . S
C410 C411 1.373 . S
C410 C412 1.389 . S
C411 H390 0.950 . S
C411 C410 1.373 . S
C411 C427 1.377 . S
C412 C410 1.389 . S
C412 C413 1.524 . S
C412 C426 1.377 . S
C413 C412 1.524 . S
C413 C414 1.397 . S
C413 C418 1.363 . S
C414 H391 0.950 . S
C414 C413 1.397 . S
C414 C415 1.334 . S
C415 H392 0.950 . S
C415 C414 1.334 . S
C415 C416 1.287 . S
C416 C415 1.287 . S
C416 C417 1.524 . S
C416 H435 0.913 . S
C417 H393 0.950 . S
C417 C416 1.524 . S
C417 C418 1.415 . S
C418 H394 0.950 . S
C418 C413 1.363 . S
C418 C417 1.415 . S
C419 H395 0.951 . S
C419 C420 1.366 . S
C419 C421 1.388 . S
C420 C419 1.366 . S
C420 C424 1.385 . S
C421 H396 0.951 . S
C421 C419 1.388 . S
C421 C422 1.366 . S
C422 C421 1.366 . S
C422 C423 1.414 . S
C422 C425 1.499 . S
C423 H397 0.950 . S
C423 C422 1.414 . S
C423 C424 1.374 . S
C424 H398 0.950 . S
C424 C420 1.385 . S
C424 C423 1.374 . S
C425 C422 1.499 . S
C425 C426 1.373 . S
C425 C427 1.389 . S
C426 H399 0.950 . S
C426 C412 1.377 . S
C426 C425 1.373 . S
C427 C411 1.377 . S
C427 C425 1.389 . S
C427 C428 1.524 . S
C428 C427 1.524 . S
C428 C429 1.397 . S
C428 C433 1.363 . S
C429 H400 0.950 . S
C429 C428 1.397 . S
C429 C430 1.334 . S
C430 H401 0.950 . S
C430 C429 1.334 . S
C430 C431 1.287 . S
C431 C430 1.287 . S
C431 C432 1.524 . S
C431 H434 0.999 . S
C432 H402 0.950 . S
C432 C431 1.524 . S
C432 C433 1.415 . S
C433 H403 0.950 . S
C433 C428 1.363 . S
C433 C432 1.415 . S
H434 C431 0.999 . S
H435 C416 0.913 . S
H436 C454 0.951 . S
H437 C456 0.951 1_554 S
H438 C458 0.950 . S
H439 C459 0.950 . S
H440 C461 0.950 . S
H441 C464 0.950 . S
H442 C465 0.950 . S
H443 C467 0.950 . S
H444 C468 0.947 1_554 S
H445 C469 0.951 . S
H446 C471 0.951 . S
H447 C473 0.950 . S
H448 C474 0.950 . S
H449 C476 0.950 . S
H450 C479 0.950 . S
H451 C480 0.950 . S
H452 C482 0.950 . S
H453 C483 0.950 . S
C454 H436 0.951 . S
C454 C455 1.366 1_554 S
C454 C456 1.388 1_554 S
C455 C454 1.366 1_556 S
C455 C459 1.385 . S
C456 H437 0.951 1_556 S
C456 C454 1.388 1_556 S
C456 C457 1.366 . S
C457 C456 1.366 . S
C457 C458 1.414 . S
C457 C460 1.499 . S
C458 H438 0.950 . S
C458 C457 1.414 . S
C458 C459 1.374 . S
C459 H439 0.950 . S
C459 C455 1.385 . S
C459 C458 1.374 . S
C460 C457 1.499 . S
C460 C461 1.373 . S
C460 C462 1.389 . S
C461 H440 0.950 . S
C461 C460 1.373 . S
C461 C477 1.377 . S
C462 C460 1.389 . S
C462 C463 1.524 . S
C462 C476 1.377 . S
C463 C462 1.524 . S
C463 C464 1.397 . S
C463 C468 1.373 . S
C464 H441 0.950 . S
C464 C463 1.397 . S
C464 C465 1.334 . S
C465 H442 0.950 . S
C465 C464 1.334 . S
C465 C466 1.287 1_556 S
C466 C465 1.287 1_554 S
C466 C467 1.524 . S
C466 H485 0.913 . S
C467 H443 0.950 . S
C467 C466 1.524 . S
C467 C468 1.407 1_554 S
C468 H444 0.947 1_556 S
C468 C463 1.373 . S
C468 C467 1.407 1_556 S
C469 H445 0.951 . S
C469 C470 1.366 . S
C469 C471 1.388 . S
C470 C469 1.366 . S
C470 C474 1.385 . S
C471 H446 0.951 . S
C471 C469 1.388 . S
C471 C472 1.366 . S
C472 C471 1.366 . S
C472 C473 1.414 . S
C472 C475 1.499 . S
C473 H447 0.950 . S
C473 C472 1.414 . S
C473 C474 1.374 . S
C474 H448 0.950 . S
C474 C470 1.385 . S
C474 C473 1.374 . S
C475 C472 1.499 . S
C475 C476 1.373 . S
C475 C477 1.389 . S
C476 H449 0.950 . S
C476 C462 1.377 . S
C476 C475 1.373 . S
C477 C461 1.377 . S
C477 C475 1.389 . S
C477 C478 1.524 . S
C478 C477 1.524 . S
C478 C479 1.397 . S
C478 C483 1.363 . S
C479 H450 0.950 . S
C479 C478 1.397 . S
C479 C480 1.334 . S
C480 H451 0.950 . S
C480 C479 1.334 . S
C480 C481 1.287 . S
C481 C480 1.287 . S
C481 C482 1.524 . S
C481 H484 0.999 . S
C482 H452 0.950 . S
C482 C481 1.524 . S
C482 C483 1.415 . S
C483 H453 0.950 . S
C483 C478 1.363 . S
C483 C482 1.415 . S
H484 C481 0.999 . S
H485 C466 0.913 . S
H486 C504 0.951 . S
H487 C506 0.951 . S
H488 C508 0.950 . S
H489 C509 0.950 . S
H490 C511 0.950 . S
H491 C514 0.950 . S
H492 C515 0.950 . S
H493 C517 0.950 . S
H494 C518 0.950 . S
H495 C519 0.951 . S
H496 C521 0.951 . S
H497 C523 0.950 . S
H498 C524 0.950 1_455 S
H499 C526 0.950 . S
H500 C529 0.950 . S
H501 C530 0.950 . S
H502 C532 0.950 . S
H503 C533 0.950 . S
C504 H486 0.951 . S
C504 C505 1.366 . S
C504 C506 1.388 . S
C505 C504 1.366 . S
C505 C509 1.385 . S
C506 H487 0.951 . S
C506 C504 1.388 . S
C506 C507 1.366 . S
C507 C506 1.366 . S
C507 C508 1.414 . S
C507 C510 1.499 . S
C508 H488 0.950 . S
C508 C507 1.414 . S
C508 C509 1.374 . S
C509 H489 0.950 . S
C509 C505 1.385 . S
C509 C508 1.374 . S
C510 C507 1.499 . S
C510 C511 1.373 . S
C510 C512 1.389 . S
C511 H490 0.950 . S
C511 C510 1.373 . S
C511 C527 1.377 . S
C512 C510 1.389 . S
C512 C513 1.524 . S
C512 C526 1.377 . S
C513 C512 1.524 . S
C513 C514 1.397 . S
C513 C518 1.363 . S
C514 H491 0.950 . S
C514 C513 1.397 . S
C514 C515 1.334 . S
C515 H492 0.950 . S
C515 C514 1.334 . S
C515 C516 1.287 . S
C516 C515 1.287 . S
C516 C517 1.524 . S
C516 H535 0.913 . S
C517 H493 0.950 . S
C517 C516 1.524 . S
C517 C518 1.415 . S
C518 H494 0.950 . S
C518 C513 1.363 . S
C518 C517 1.415 . S
C519 H495 0.951 . S
C519 C520 1.366 . S
C519 C521 1.388 . S
C520 C519 1.366 . S
C520 C524 1.385 . S
C521 H496 0.951 . S
C521 C519 1.388 . S
C521 C522 1.366 . S
C522 C521 1.366 . S
C522 C523 1.414 . S
C522 C525 1.499 . S
C523 H497 0.950 . S
C523 C522 1.414 . S
C523 C524 1.374 . S
C524 H498 0.950 1_655 S
C524 C520 1.385 . S
C524 C523 1.374 . S
C525 C522 1.499 . S
C525 C526 1.373 . S
C525 C527 1.389 . S
C526 H499 0.950 . S
C526 C512 1.377 . S
C526 C525 1.373 . S
C527 C511 1.377 . S
C527 C525 1.389 . S
C527 C528 1.524 . S
C528 C527 1.524 . S
C528 C529 1.397 . S
C528 C533 1.363 . S
C529 H500 0.950 . S
C529 C528 1.397 . S
C529 C530 1.334 . S
C530 H501 0.950 . S
C530 C529 1.334 . S
C530 C531 1.287 . S
C531 C530 1.287 . S
C531 C532 1.524 . S
C531 H534 0.999 . S
C532 H502 0.950 . S
C532 C531 1.524 . S
C532 C533 1.415 . S
C533 H503 0.950 . S
C533 C528 1.363 . S
C533 C532 1.415 . S
H534 C531 0.999 . S
H535 C516 0.913 . S
H536 C554 0.951 . S
H537 C556 0.951 . S
H538 C558 0.950 . S
H539 C559 0.950 . S
H540 C561 0.950 . S
H541 C564 0.950 . S
H542 C565 0.950 . S
H543 C567 0.950 . S
H544 C568 0.950 . S
H545 C569 0.951 . S
H546 C571 0.951 . S
H547 C573 0.950 . S
H548 C574 0.950 . S
H549 C576 0.950 . S
H550 C579 0.950 . S
H551 C580 0.950 . S
H552 C582 0.950 . S
H553 C583 0.950 . S
C554 H536 0.951 . S
C554 C555 1.366 . S
C554 C556 1.388 . S
C555 C554 1.366 . S
C555 C559 1.385 . S
C556 H537 0.951 . S
C556 C554 1.388 . S
C556 C557 1.366 . S
C557 C556 1.366 . S
C557 C558 1.414 . S
C557 C560 1.499 . S
C558 H538 0.950 . S
C558 C557 1.414 . S
C558 C559 1.374 . S
C559 H539 0.950 . S
C559 C555 1.385 . S
C559 C558 1.374 . S
C560 C557 1.499 . S
C560 C561 1.373 . S
C560 C562 1.389 . S
C561 H540 0.950 . S
C561 C560 1.373 . S
C561 C577 1.377 . S
C562 C560 1.389 . S
C562 C563 1.524 . S
C562 C576 1.377 . S
C563 C562 1.524 . S
C563 C564 1.397 . S
C563 C568 1.363 . S
C564 H541 0.950 . S
C564 C563 1.397 . S
C564 C565 1.334 . S
C565 H542 0.950 . S
C565 C564 1.334 . S
C565 C566 1.287 . S
C566 C565 1.287 . S
C566 C567 1.524 . S
C566 H585 0.913 . S
C567 H543 0.950 . S
C567 C566 1.524 . S
C567 C568 1.415 . S
C568 H544 0.950 . S
C568 C563 1.363 . S
C568 C567 1.415 . S
C569 H545 0.951 . S
C569 C570 1.366 . S
C569 C571 1.388 . S
C570 C569 1.366 . S
C570 C574 1.385 . S
C571 H546 0.951 . S
C571 C569 1.388 . S
C571 C572 1.366 . S
C572 C571 1.366 . S
C572 C573 1.414 . S
C572 C575 1.499 . S
C573 H547 0.950 . S
C573 C572 1.414 . S
C573 C574 1.374 . S
C574 H548 0.950 . S
C574 C570 1.385 . S
C574 C573 1.374 . S
C575 C572 1.499 . S
C575 C576 1.373 . S
C575 C577 1.389 . S
C576 H549 0.950 . S
C576 C562 1.377 . S
C576 C575 1.373 . S
C577 C561 1.377 . S
C577 C575 1.389 . S
C577 C578 1.524 . S
C578 C577 1.524 . S
C578 C579 1.397 . S
C578 C583 1.363 . S
C579 H550 0.950 . S
C579 C578 1.397 . S
C579 C580 1.334 . S
C580 H551 0.950 . S
C580 C579 1.334 . S
C580 C581 1.287 . S
C581 C580 1.287 . S
C581 C582 1.524 . S
C581 H584 0.999 1_545 S
C582 H552 0.950 . S
C582 C581 1.524 . S
C582 C583 1.415 . S
C583 H553 0.950 . S
C583 C578 1.363 . S
C583 C582 1.415 . S
H584 C581 0.999 1_565 S
H585 C566 0.913 . S
H586 C604 0.951 . S
H587 C606 0.951 . S
H588 C608 0.950 . S
H589 C609 0.950 . S
H590 C611 0.950 . S
H591 C614 0.950 . S
H592 C615 0.950 . S
H593 C617 0.950 . S
H594 C618 0.950 . S
H595 C619 0.951 . S
H596 C621 0.951 . S
H597 C623 0.950 . S
H598 C624 0.950 . S
H599 C626 0.950 . S
H600 C629 0.950 . S
H601 C630 0.950 . S
H602 C632 0.950 . S
H603 C633 0.950 . S
C604 H586 0.951 . S
C604 C605 1.366 . S
C604 C606 1.388 . S
C605 C604 1.366 . S
C605 C609 1.385 . S
C606 H587 0.951 . S
C606 C604 1.388 . S
C606 C607 1.366 . S
C607 C606 1.366 . S
C607 C608 1.414 . S
C607 C610 1.499 . S
C608 H588 0.950 . S
C608 C607 1.414 . S
C608 C609 1.374 . S
C609 H589 0.950 . S
C609 C605 1.385 . S
C609 C608 1.374 . S
C610 C607 1.499 . S
C610 C611 1.373 . S
C610 C612 1.389 . S
C611 H590 0.950 . S
C611 C610 1.373 . S
C611 C627 1.377 . S
C612 C610 1.389 . S
C612 C613 1.524 . S
C612 C626 1.377 . S
C613 C612 1.524 . S
C613 C614 1.397 . S
C613 C618 1.363 . S
C614 H591 0.950 . S
C614 C613 1.397 . S
C614 C615 1.334 . S
C615 H592 0.950 . S
C615 C614 1.334 . S
C615 C616 1.287 . S
C616 C615 1.287 . S
C616 C617 1.524 . S
C616 H635 0.913 . S
C617 H593 0.950 . S
C617 C616 1.524 . S
C617 C618 1.415 . S
C618 H594 0.950 . S
C618 C613 1.363 . S
C618 C617 1.415 . S
C619 H595 0.951 . S
C619 C620 1.366 . S
C619 C621 1.388 . S
C620 C619 1.366 . S
C620 C624 1.385 . S
C621 H596 0.951 . S
C621 C619 1.388 . S
C621 C622 1.366 . S
C622 C621 1.366 . S
C622 C623 1.414 . S
C622 C625 1.499 . S
C623 H597 0.950 . S
C623 C622 1.414 . S
C623 C624 1.374 . S
C624 H598 0.950 . S
C624 C620 1.385 . S
C624 C623 1.374 . S
C625 C622 1.499 . S
C625 C626 1.373 . S
C625 C627 1.389 . S
C626 H599 0.950 . S
C626 C612 1.377 . S
C626 C625 1.373 . S
C627 C611 1.377 . S
C627 C625 1.389 . S
C627 C628 1.524 . S
C628 C627 1.524 . S
C628 C629 1.397 . S
C628 C633 1.363 . S
C629 H600 0.950 . S
C629 C628 1.397 . S
C629 C630 1.334 . S
C630 H601 0.950 . S
C630 C629 1.334 . S
C630 C631 1.287 . S
C631 C630 1.287 . S
C631 C632 1.524 . S
C631 H634 0.999 . S
C632 H602 0.950 . S
C632 C631 1.524 . S
C632 C633 1.415 . S
C633 H603 0.950 . S
C633 C628 1.363 . S
C633 C632 1.415 . S
H634 C631 0.999 . S
H635 C616 0.913 . S
H636 C654 0.951 . S
H637 C656 0.951 . S
H638 C658 0.950 . S
H639 C659 0.950 . S
H640 C661 0.950 . S
H641 C664 0.950 . S
H642 C665 0.950 . S
H643 C667 0.950 . S
H644 C668 0.950 . S
H645 C669 0.951 . S
H646 C671 0.951 . S
H647 C673 0.950 . S
H648 C674 0.950 . S
H649 C676 0.950 . S
H650 C679 0.950 . S
H651 C680 0.950 . S
H652 C682 0.950 . S
H653 C683 0.950 . S
C654 H636 0.951 . S
C654 C655 1.366 . S
C654 C656 1.388 . S
C655 C654 1.366 . S
C655 C659 1.385 . S
C656 H637 0.951 . S
C656 C654 1.388 . S
C656 C657 1.366 . S
C657 C656 1.366 . S
C657 C658 1.414 . S
C657 C660 1.499 . S
C658 H638 0.950 . S
C658 C657 1.414 . S
C658 C659 1.374 . S
C659 H639 0.950 . S
C659 C655 1.385 . S
C659 C658 1.374 . S
C660 C657 1.499 . S
C660 C661 1.373 . S
C660 C662 1.389 . S
C661 H640 0.950 . S
C661 C660 1.373 . S
C661 C677 1.377 . S
C662 C660 1.389 . S
C662 C663 1.524 . S
C662 C676 1.377 . S
C663 C662 1.524 . S
C663 C664 1.397 . S
C663 C668 1.363 . S
C664 H641 0.950 . S
C664 C663 1.397 . S
C664 C665 1.334 . S
C665 H642 0.950 . S
C665 C664 1.334 . S
C665 C666 1.287 . S
C666 C665 1.287 . S
C666 C667 1.524 . S
C666 H685 0.913 . S
C667 H643 0.950 . S
C667 C666 1.524 . S
C667 C668 1.415 . S
C668 H644 0.950 . S
C668 C663 1.363 . S
C668 C667 1.415 . S
C669 H645 0.951 . S
C669 C670 1.366 . S
C669 C671 1.388 . S
C670 C669 1.366 . S
C670 C674 1.385 . S
C671 H646 0.951 . S
C671 C669 1.388 . S
C671 C672 1.366 . S
C672 C671 1.366 . S
C672 C673 1.414 . S
C672 C675 1.499 . S
C673 H647 0.950 . S
C673 C672 1.414 . S
C673 C674 1.374 . S
C674 H648 0.950 . S
C674 C670 1.385 . S
C674 C673 1.374 . S
C675 C672 1.499 . S
C675 C676 1.373 . S
C675 C677 1.389 . S
C676 H649 0.950 . S
C676 C662 1.377 . S
C676 C675 1.373 . S
C677 C661 1.377 . S
C677 C675 1.389 . S
C677 C678 1.524 . S
C678 C677 1.524 . S
C678 C679 1.397 . S
C678 C683 1.363 . S
C679 H650 0.950 . S
C679 C678 1.397 . S
C679 C680 1.334 . S
C680 H651 0.950 . S
C680 C679 1.334 . S
C680 C681 1.287 . S
C681 C680 1.287 . S
C681 C682 1.524 . S
C681 H684 0.999 . S
C682 H652 0.950 . S
C682 C681 1.524 . S
C682 C683 1.415 . S
C683 H653 0.950 . S
C683 C678 1.363 . S
C683 C682 1.415 . S
H684 C681 0.999 . S
H685 C666 0.913 . S
C120 C51 1.400 . S
C105 N4 1.529 . S
C170 C47 1.395 . S
C155 N15 1.495 . S
C220 C72 1.401 . S
C205 N26 1.529 . S
C255 N37 1.495 . S
C270 C68 1.395 . S
C305 C9 1.147 1_556 S
C320 C69 1.052 . S
C370 C84 1.061 . S
C355 C17 1.180 . S
C405 C6 1.773 1_556 S
C420 C85 1.630 . S
C470 C81 1.670 . S
C455 C20 1.799 1_556 S
C520 C48 1.053 1_655 S
C505 C31 1.154 . S
C555 C39 1.174 . S
C570 C63 1.059 . S
C620 C64 1.631 . S
C605 C28 1.773 . S
C670 C60 1.671 . S
C655 C42 1.800 . S
