# Generated by pormake.
# Topology eea, (3,6)-cn, num edge types: 1
# Building blocks:
#     Node 0, Type 0, BuildingBlock: BETDAH_clean_linker_0, # of connection points: 3
#     Node 1, Type 0, BuildingBlock: BETDAH_clean_linker_0, # of connection points: 3
#     Node 2, Type 0, BuildingBlock: BETDAH_clean_linker_0, # of connection points: 3
#     Node 3, Type 0, BuildingBlock: BETDAH_clean_linker_0, # of connection points: 3
#     Node 4, Type 0, BuildingBlock: BETDAH_clean_linker_0, # of connection points: 3
#     Node 5, Type 0, BuildingBlock: BETDAH_clean_linker_0, # of connection points: 3
#     Node 6, Type 0, BuildingBlock: BETDAH_clean_linker_0, # of connection points: 3
#     Node 7, Type 0, BuildingBlock: BETDAH_clean_linker_0, # of connection points: 3
#     Node 8, Type 0, BuildingBlock: BETDAH_clean_linker_0, # of connection points: 3
#     Node 9, Type 0, BuildingBlock: BETDAH_clean_linker_0, # of connection points: 3
#     Node 10, Type 0, BuildingBlock: BETDAH_clean_linker_0, # of connection points: 3
#     Node 11, Type 0, BuildingBlock: BETDAH_clean_linker_0, # of connection points: 3
#     Node 12, Type 0, BuildingBlock: BETDAH_clean_linker_0, # of connection points: 3
#     Node 13, Type 0, BuildingBlock: BETDAH_clean_linker_0, # of connection points: 3
#     Node 14, Type 0, BuildingBlock: BETDAH_clean_linker_0, # of connection points: 3
#     Node 15, Type 0, BuildingBlock: BETDAH_clean_linker_0, # of connection points: 3
#     Node 16, Type 0, BuildingBlock: BETDAH_clean_linker_0, # of connection points: 3
#     Node 17, Type 0, BuildingBlock: BETDAH_clean_linker_0, # of connection points: 3
#     Node 18, Type 1, BuildingBlock: HISSIN_clean_sbu_0, # of connection points: 6
#     Node 19, Type 1, BuildingBlock: HISSIN_clean_sbu_0, # of connection points: 6
#     Node 20, Type 1, BuildingBlock: HISSIN_clean_sbu_0, # of connection points: 6
#     Node 21, Type 1, BuildingBlock: HISSIN_clean_sbu_0, # of connection points: 6
#     Node 22, Type 1, BuildingBlock: HISSIN_clean_sbu_0, # of connection points: 6
#     Node 23, Type 1, BuildingBlock: HISSIN_clean_sbu_0, # of connection points: 6
#     Node 24, Type 1, BuildingBlock: HISSIN_clean_sbu_0, # of connection points: 6
#     Node 25, Type 1, BuildingBlock: HISSIN_clean_sbu_0, # of connection points: 6
#     Node 26, Type 1, BuildingBlock: HISSIN_clean_sbu_0, # of connection points: 6
#     Edge 27, Type (0, 1), BuildingBlock: ZUJKAS_clean_linker_0, # of connection points: 2
#     Edge 28, Type (0, 1), BuildingBlock: ZUJKAS_clean_linker_0, # of connection points: 2
#     Edge 29, Type (0, 1), BuildingBlock: ZUJKAS_clean_linker_0, # of connection points: 2
#     Edge 30, Type (0, 1), BuildingBlock: ZUJKAS_clean_linker_0, # of connection points: 2
#     Edge 31, Type (0, 1), BuildingBlock: ZUJKAS_clean_linker_0, # of connection points: 2
#     Edge 32, Type (0, 1), BuildingBlock: ZUJKAS_clean_linker_0, # of connection points: 2
#     Edge 33, Type (0, 1), BuildingBlock: ZUJKAS_clean_linker_0, # of connection points: 2
#     Edge 34, Type (0, 1), BuildingBlock: ZUJKAS_clean_linker_0, # of connection points: 2
#     Edge 35, Type (0, 1), BuildingBlock: ZUJKAS_clean_linker_0, # of connection points: 2
#     Edge 36, Type (0, 1), BuildingBlock: ZUJKAS_clean_linker_0, # of connection points: 2
#     Edge 37, Type (0, 1), BuildingBlock: ZUJKAS_clean_linker_0, # of connection points: 2
#     Edge 38, Type (0, 1), BuildingBlock: ZUJKAS_clean_linker_0, # of connection points: 2
#     Edge 39, Type (0, 1), BuildingBlock: ZUJKAS_clean_linker_0, # of connection points: 2
#     Edge 40, Type (0, 1), BuildingBlock: ZUJKAS_clean_linker_0, # of connection points: 2
#     Edge 41, Type (0, 1), BuildingBlock: ZUJKAS_clean_linker_0, # of connection points: 2
#     Edge 42, Type (0, 1), BuildingBlock: ZUJKAS_clean_linker_0, # of connection points: 2
#     Edge 43, Type (0, 1), BuildingBlock: ZUJKAS_clean_linker_0, # of connection points: 2
#     Edge 44, Type (0, 1), BuildingBlock: ZUJKAS_clean_linker_0, # of connection points: 2
#     Edge 45, Type (0, 1), BuildingBlock: ZUJKAS_clean_linker_0, # of connection points: 2
#     Edge 46, Type (0, 1), BuildingBlock: ZUJKAS_clean_linker_0, # of connection points: 2
#     Edge 47, Type (0, 1), BuildingBlock: ZUJKAS_clean_linker_0, # of connection points: 2
#     Edge 48, Type (0, 1), BuildingBlock: ZUJKAS_clean_linker_0, # of connection points: 2
#     Edge 49, Type (0, 1), BuildingBlock: ZUJKAS_clean_linker_0, # of connection points: 2
#     Edge 50, Type (0, 1), BuildingBlock: ZUJKAS_clean_linker_0, # of connection points: 2
#     Edge 51, Type (0, 1), BuildingBlock: ZUJKAS_clean_linker_0, # of connection points: 2
#     Edge 52, Type (0, 1), BuildingBlock: ZUJKAS_clean_linker_0, # of connection points: 2
#     Edge 53, Type (0, 1), BuildingBlock: ZUJKAS_clean_linker_0, # of connection points: 2
#     Edge 54, Type (0, 1), BuildingBlock: ZUJKAS_clean_linker_0, # of connection points: 2
#     Edge 55, Type (0, 1), BuildingBlock: ZUJKAS_clean_linker_0, # of connection points: 2
#     Edge 56, Type (0, 1), BuildingBlock: ZUJKAS_clean_linker_0, # of connection points: 2
#     Edge 57, Type (0, 1), BuildingBlock: ZUJKAS_clean_linker_0, # of connection points: 2
#     Edge 58, Type (0, 1), BuildingBlock: ZUJKAS_clean_linker_0, # of connection points: 2
#     Edge 59, Type (0, 1), BuildingBlock: ZUJKAS_clean_linker_0, # of connection points: 2
#     Edge 60, Type (0, 1), BuildingBlock: ZUJKAS_clean_linker_0, # of connection points: 2
#     Edge 61, Type (0, 1), BuildingBlock: ZUJKAS_clean_linker_0, # of connection points: 2
#     Edge 62, Type (0, 1), BuildingBlock: ZUJKAS_clean_linker_0, # of connection points: 2
#     Edge 63, Type (0, 1), BuildingBlock: ZUJKAS_clean_linker_0, # of connection points: 2
#     Edge 64, Type (0, 1), BuildingBlock: ZUJKAS_clean_linker_0, # of connection points: 2
#     Edge 65, Type (0, 1), BuildingBlock: ZUJKAS_clean_linker_0, # of connection points: 2
#     Edge 66, Type (0, 1), BuildingBlock: ZUJKAS_clean_linker_0, # of connection points: 2
#     Edge 67, Type (0, 1), BuildingBlock: ZUJKAS_clean_linker_0, # of connection points: 2
#     Edge 68, Type (0, 1), BuildingBlock: ZUJKAS_clean_linker_0, # of connection points: 2
#     Edge 69, Type (0, 1), BuildingBlock: ZUJKAS_clean_linker_0, # of connection points: 2
#     Edge 70, Type (0, 1), BuildingBlock: ZUJKAS_clean_linker_0, # of connection points: 2
#     Edge 71, Type (0, 1), BuildingBlock: ZUJKAS_clean_linker_0, # of connection points: 2
#     Edge 72, Type (0, 1), BuildingBlock: ZUJKAS_clean_linker_0, # of connection points: 2
#     Edge 73, Type (0, 1), BuildingBlock: ZUJKAS_clean_linker_0, # of connection points: 2
#     Edge 74, Type (0, 1), BuildingBlock: ZUJKAS_clean_linker_0, # of connection points: 2
#     Edge 75, Type (0, 1), BuildingBlock: ZUJKAS_clean_linker_0, # of connection points: 2
#     Edge 76, Type (0, 1), BuildingBlock: ZUJKAS_clean_linker_0, # of connection points: 2
#     Edge 77, Type (0, 1), BuildingBlock: ZUJKAS_clean_linker_0, # of connection points: 2
#     Edge 78, Type (0, 1), BuildingBlock: ZUJKAS_clean_linker_0, # of connection points: 2
#     Edge 79, Type (0, 1), BuildingBlock: ZUJKAS_clean_linker_0, # of connection points: 2
#     Edge 80, Type (0, 1), BuildingBlock: ZUJKAS_clean_linker_0, # of connection points: 2
# Relax obj value: 0.056
# Max RMSD: 0.194
# Mean RMSD: 0.136
data_MOF--net-eea--node1-HISSIN_clean_sbu_0--node2-BETDAH_clean_linker_0--edge1-ZUJKAS_clean_linker_0
_symmetry_space_group_name_H-M    P1
_symmetry_Int_Tables_number       1
_symmetry_cell_setting            triclinic
loop_
_symmetry_equiv_pos_as_xyz
'x, y, z'
_cell_length_a     71.556094
_cell_length_b     72.067353
_cell_length_c     84.865481
_cell_angle_alpha  93.163943
_cell_angle_beta   93.636827
_cell_angle_gamma 119.74543
loop_
_atom_site_label
_atom_site_type_symbol
_atom_site_fract_x
_atom_site_fract_y
_atom_site_fract_z
_atom_type_partial_charge
H0 H 0.26242 0.1065 0.43115 0.0
H1 H 0.2778 0.17029 0.42148 0.0
H2 H 0.26267 0.1223 0.38296 0.0
C3 C 0.26413 0.11786 0.42271 0.0
C4 C 0.26128 0.11152 0.40638 0.0
C5 C 0.27014 0.13901 0.42831 0.0
C6 C 0.2731 0.15392 0.41733 0.0
C7 C 0.2705 0.14778 0.40098 0.0
C8 C 0.26487 0.12679 0.39562 0.0
N9 N 0.274 0.16253 0.3896 0.0
C10 C 0.26694 0.17729 0.3907 0.0
H11 H 0.92042 0.17007 0.43827 0.0
H12 H 0.85963 0.11125 0.42595 0.0
H13 H 0.90221 0.14031 0.39028 0.0
C14 C 0.9091 0.157 0.42962 0.0
C15 C 0.9139 0.15707 0.41381 0.0
C16 C 0.88944 0.14065 0.43417 0.0
C17 C 0.87469 0.12405 0.42263 0.0
C18 C 0.87934 0.12414 0.40678 0.0
C19 C 0.89874 0.14066 0.4025 0.0
N20 N 0.86485 0.10817 0.39463 0.0
C21 C 0.8479 0.08813 0.39709 0.0
H22 H 0.86106 0.76759 0.44964 0.0
H23 H 0.91048 0.75266 0.4388 0.0
H24 H 0.87688 0.76635 0.4017 0.0
C25 C 0.87081 0.76567 0.44115 0.0
C26 C 0.86741 0.76829 0.42514 0.0
C27 C 0.88613 0.75982 0.44623 0.0
C28 C 0.89878 0.75738 0.43513 0.0
C29 C 0.89557 0.76008 0.41909 0.0
C30 C 0.87974 0.76516 0.4142 0.0
N31 N 0.90645 0.75581 0.40729 0.0
C32 C 0.92851 0.76308 0.40863 0.0
H33 H 0.08316 0.24093 0.59589 0.0
H34 H 0.1479 0.25247 0.60726 0.0
H35 H 0.10432 0.23556 0.64316 0.0
C36 C 0.09556 0.24178 0.6044 0.0
C37 C 0.09088 0.237 0.62002 0.0
C38 C 0.11615 0.24761 0.59965 0.0
C39 C 0.13187 0.24767 0.61058 0.0
C40 C 0.12739 0.24316 0.62625 0.0
C41 C 0.10718 0.23824 0.63089 0.0
N42 N 0.14343 0.24534 0.63807 0.0
C43 C 0.15807 0.23831 0.63588 0.0
H44 H 0.74945 0.84243 0.61276 0.0
H45 H 0.73596 0.89331 0.62417 0.0
H46 H 0.7493 0.86238 0.66145 0.0
C47 C 0.74794 0.85303 0.62149 0.0
C48 C 0.75052 0.85077 0.6377 0.0
C49 C 0.74257 0.86822 0.61643 0.0
C50 C 0.74002 0.88148 0.62787 0.0
C51 C 0.74229 0.87914 0.6441 0.0
C52 C 0.74727 0.86372 0.64887 0.0
N53 N 0.73928 0.89176 0.65595 0.0
C54 C 0.74468 0.91292 0.65474 0.0
H55 H 0.14949 0.89919 0.60023 0.0
H56 H 0.09864 0.83678 0.60926 0.0
H57 H 0.13556 0.88503 0.6481 0.0
C58 C 0.13992 0.88818 0.60851 0.0
C59 C 0.14437 0.89489 0.62483 0.0
C60 C 0.12362 0.86724 0.60276 0.0
C61 C 0.11113 0.85302 0.61352 0.0
C62 C 0.11532 0.85966 0.62989 0.0
C63 C 0.13208 0.88035 0.63543 0.0
N64 N 0.10391 0.84547 0.64117 0.0
C65 C 0.08157 0.8322 0.63963 0.0
H66 H 0.92894 0.43945 0.76433 0.0
H67 H 0.94451 0.5035 0.75538 0.0
H68 H 0.93133 0.45669 0.71643 0.0
C69 C 0.93102 0.45105 0.75601 0.0
C70 C 0.92893 0.44519 0.73966 0.0
C71 C 0.93667 0.47202 0.76183 0.0
C72 C 0.9401 0.48727 0.75105 0.0
C73 C 0.93828 0.48163 0.73468 0.0
C74 C 0.93297 0.4608 0.72911 0.0
N75 N 0.94217 0.49672 0.72353 0.0
C76 C 0.93451 0.51101 0.72444 0.0
H77 H 0.58765 0.50416 0.77098 0.0
H78 H 0.52647 0.44541 0.76009 0.0
H79 H 0.5674 0.4732 0.72329 0.0
C80 C 0.57598 0.49095 0.76256 0.0
C81 C 0.58012 0.49055 0.7466 0.0
C82 C 0.55654 0.47488 0.76758 0.0
C83 C 0.54138 0.45801 0.75641 0.0
C84 C 0.54535 0.45759 0.74042 0.0
C85 C 0.56447 0.47393 0.73563 0.0
N86 N 0.53033 0.44123 0.72871 0.0
C87 C 0.51548 0.42053 0.73178 0.0
H88 H 0.52197 0.09588 0.78068 0.0
H89 H 0.57379 0.08356 0.77223 0.0
H90 H 0.54556 0.10236 0.73479 0.0
C91 C 0.53293 0.09508 0.77279 0.0
C92 C 0.53205 0.10021 0.75714 0.0
C93 C 0.54762 0.08867 0.77837 0.0
C94 C 0.56261 0.0888 0.76829 0.0
C95 C 0.56193 0.094 0.75262 0.0
C96 C 0.54648 0.0993 0.7471 0.0
N97 N 0.57475 0.09158 0.74154 0.0
C98 C 0.59705 0.10049 0.74412 0.0
H99 H 0.7495 0.57371 0.92893 0.0
H100 H 0.81355 0.58312 0.93949 0.0
H101 H 0.77047 0.56658 0.97574 0.0
C102 C 0.76181 0.57407 0.93728 0.0
C103 C 0.75717 0.56903 0.95286 0.0
C104 C 0.78218 0.57943 0.93231 0.0
C105 C 0.7977 0.57876 0.943 0.0
C106 C 0.79328 0.57398 0.95863 0.0
C107 C 0.77331 0.56955 0.96349 0.0
N108 N 0.80909 0.57503 0.97014 0.0
C109 C 0.8232 0.56755 0.96722 0.0
H110 H 0.41146 0.17228 0.94433 0.0
H111 H 0.40368 0.22665 0.9568 0.0
H112 H 0.41691 0.19471 0.99334 0.0
C113 C 0.41153 0.1837 0.95323 0.0
C114 C 0.41521 0.18177 0.96935 0.0
C115 C 0.40724 0.19975 0.9485 0.0
C116 C 0.40679 0.2141 0.96022 0.0
C117 C 0.41006 0.21203 0.97639 0.0
C118 C 0.41399 0.19579 0.98083 0.0
N119 N 0.40931 0.22588 0.98852 0.0
C120 C 0.41605 0.24732 0.98707 0.0
H121 H 0.82273 0.23063 0.93617 0.0
H122 H 0.77013 0.16856 0.94403 0.0
H123 H 0.79943 0.21921 0.98214 0.0
C124 C 0.81148 0.2201 0.94394 0.0
C125 C 0.81271 0.22781 0.95975 0.0
C126 C 0.79635 0.19874 0.93813 0.0
C127 C 0.78164 0.18515 0.94823 0.0
C128 C 0.783 0.19263 0.96416 0.0
C129 C 0.7986 0.21374 0.96983 0.0
N130 N 0.7704 0.17872 0.97517 0.0
C131 C 0.74804 0.16586 0.97285 0.0
H132 H 0.6036 0.77535 0.09995 0.0
H133 H 0.6141 0.8376 0.08994 0.0
H134 H 0.59681 0.7885 0.05178 0.0
C135 C 0.60437 0.78638 0.09149 0.0
C136 C 0.59937 0.77926 0.07525 0.0
C137 C 0.60996 0.80747 0.09697 0.0
C138 C 0.60968 0.82126 0.08595 0.0
C139 C 0.60488 0.81429 0.06964 0.0
C140 C 0.6001 0.79353 0.0644 0.0
N141 N 0.60559 0.82801 0.05809 0.0
C142 C 0.59949 0.84339 0.06038 0.0
H143 H 0.2561 0.83386 0.10542 0.0
H144 H 0.19211 0.77947 0.09255 0.0
H145 H 0.23487 0.80708 0.05675 0.0
C146 C 0.2438 0.82198 0.09654 0.0
C147 C 0.24828 0.82199 0.08063 0.0
C148 C 0.22347 0.80686 0.101 0.0
C149 C 0.20772 0.79136 0.08931 0.0
C150 C 0.21197 0.79151 0.07337 0.0
C151 C 0.23201 0.80694 0.06915 0.0
N152 N 0.19631 0.77683 0.06113 0.0
C153 C 0.17982 0.7564 0.0633 0.0
H154 H 0.18948 0.42934 0.11361 0.0
H155 H 0.24067 0.41573 0.1059 0.0
H156 H 0.21409 0.43558 0.06811 0.0
C157 C 0.20078 0.42868 0.106 0.0
C158 C 0.20023 0.43368 0.09027 0.0
C159 C 0.21509 0.42192 0.1118 0.0
C160 C 0.22986 0.42134 0.10182 0.0
C161 C 0.22941 0.42631 0.08607 0.0
C162 C 0.21446 0.43214 0.08036 0.0
N163 N 0.2419 0.423 0.07517 0.0
C164 C 0.26433 0.43304 0.07722 0.0
H165 H 0.41581 0.90753 0.26253 0.0
H166 H 0.47881 0.91415 0.2724 0.0
H167 H 0.43591 0.89791 0.30876 0.0
C168 C 0.42786 0.90717 0.27071 0.0
C169 C 0.42309 0.90175 0.28619 0.0
C170 C 0.448 0.91192 0.26559 0.0
C171 C 0.46314 0.91029 0.27603 0.0
C172 C 0.45858 0.90509 0.29158 0.0
C173 C 0.43886 0.90125 0.29659 0.0
N174 N 0.47393 0.9049 0.30288 0.0
C175 C 0.48863 0.89837 0.2994 0.0
H176 H 0.07826 0.50618 0.28085 0.0
H177 H 0.0648 0.55722 0.2916 0.0
H178 H 0.08076 0.52867 0.32939 0.0
C179 C 0.07646 0.51671 0.28948 0.0
C180 C 0.08043 0.51569 0.30573 0.0
C181 C 0.07059 0.53146 0.28421 0.0
C182 C 0.06946 0.54588 0.29546 0.0
C183 C 0.07317 0.54479 0.31176 0.0
C184 C 0.07828 0.52955 0.31678 0.0
N185 N 0.07118 0.55831 0.32347 0.0
C186 C 0.07694 0.57944 0.32166 0.0
H187 H 0.48969 0.5639 0.26931 0.0
H188 H 0.43514 0.50268 0.27648 0.0
H189 H 0.46658 0.55223 0.31527 0.0
C190 C 0.47851 0.55326 0.27707 0.0
C191 C 0.48005 0.56076 0.29297 0.0
C192 C 0.46264 0.53225 0.27098 0.0
C193 C 0.44733 0.51897 0.2809 0.0
C194 C 0.4488 0.52635 0.29689 0.0
C195 C 0.46528 0.54699 0.30283 0.0
N196 N 0.43509 0.51303 0.30773 0.0
C197 C 0.4133 0.49792 0.30411 0.0
Eu198 Eu 0.48688 0.99172 1.00303 0.0
Eu199 Eu 0.50044 0.01304 0.04055 0.0
C200 C 0.4817 0.03218 0.01493 0.0
C201 C 0.48532 0.98645 0.95806 0.0
C202 C 0.49318 0.00847 0.95718 0.0
C203 C 0.49209 0.98299 0.93066 0.0
C204 C 0.50039 0.01767 0.94309 0.0
C205 C 0.48477 0.97379 0.94471 0.0
C206 C 0.50008 0.00506 0.92969 0.0
C207 C 0.47899 0.97681 0.97306 0.0
O208 O 0.46425 0.99132 0.03745 0.0
O209 O 0.46048 0.9678 0.01644 0.0
C210 C 0.45294 0.97279 0.02874 0.0
O211 O 0.50738 0.97987 0.01513 0.0
O212 O 0.49446 0.02663 0.06202 0.0
O213 O 0.52242 0.02247 0.06221 0.0
O214 O 0.4977 0.98061 0.04011 0.0
C215 C 0.50562 0.97349 0.02941 0.0
O216 O 0.51647 0.02405 1.00289 0.0
O217 O 0.53125 0.02764 0.0284 0.0
O218 O 0.49586 0.03693 0.0273 0.0
O219 O 0.4947 0.97815 0.98259 0.0
O220 O 0.46599 0.98102 0.98062 0.0
O221 O 0.47334 0.01389 1.00592 0.0
C222 C 0.50515 0.01703 0.08565 0.0
C223 C 0.49639 0.99478 0.08584 0.0
C224 C 0.50423 0.02038 0.11419 0.0
C225 C 0.49174 0.98541 0.10015 0.0
C226 C 0.50896 0.02974 0.09989 0.0
C227 C 0.49564 -0.00189 0.11451 0.0
C228 C 0.51042 0.0271 0.0707 0.0
C229 C 0.5332 0.03266 0.01368 0.0
H230 H 0.49402 0.01858 0.96745 0.0
H231 H 0.49138 0.97278 0.92051 0.0
H232 H 0.50665 0.03474 0.9428 0.0
H233 H 0.47889 0.9568 0.9452 0.0
H234 H 0.49319 0.98467 0.07493 0.0
H235 H 0.50766 0.03066 0.12504 0.0
H236 H 0.48489 0.96819 0.09994 0.0
H237 H 0.51571 0.04694 0.09996 0.0
Eu238 Eu 0.01278 0.4919 1.00395 0.0
Eu239 Eu 0.99525 0.48683 0.0395 0.0
C240 C 0.97363 0.44715 0.01265 0.0
C241 C 0.0168 0.49605 0.9592 0.0
C242 C 0.00151 0.47636 0.95071 0.0
C243 C 0.01543 0.51443 0.93632 0.0
C244 C 0.99331 0.47574 0.93515 0.0
C245 C 0.0237 0.51504 0.95182 0.0
C246 C 0.00019 0.49477 0.92776 0.0
C247 C 0.02594 0.4972 0.9756 0.0
O248 O 0.01857 0.47428 0.04006 0.0
O249 O 0.03876 0.49147 0.02002 0.0
C250 C 0.036 0.48084 0.03257 0.0
O251 O 0.02472 0.5249 0.01638 0.0
O252 O 0.98274 0.46827 0.05967 0.0
O253 O 0.98678 0.50014 0.05965 0.0
O254 O 0.02733 0.51741 0.0419 0.0
C255 C 0.03291 0.5312 0.03125 0.0
O256 O 0.98041 0.4897 1.00003 0.0
O257 O 0.97918 0.50176 0.02531 0.0
O258 O 0.96992 0.45769 0.02396 0.0
O259 O 0.02806 0.51275 0.98549 0.0
O260 O 0.01916 0.47932 0.98218 0.0
O261 O 0.99144 0.45637 1.00557 0.0
C262 C 0.99127 0.4888 0.08444 0.0
C263 C 0.01321 0.50383 0.08882 0.0
C264 C 0.98598 0.48373 0.11216 0.0
C265 C 0.02145 0.50893 0.10485 0.0
C266 C 0.97777 0.47872 0.09618 0.0
C267 C 0.00788 0.49897 0.11671 0.0
C268 C 0.98202 0.48378 0.06777 0.0
C269 C 0.97262 0.49798 0.01004 0.0
H270 H 0.99594 0.4614 0.95601 0.0
H271 H 0.02088 0.52942 0.93109 0.0
H272 H 0.98186 0.46028 0.92883 0.0
H273 H 0.03551 0.53043 0.95807 0.0
H274 H 0.02391 0.5117 0.07988 0.0
H275 H 0.97503 0.47599 0.12099 0.0
H276 H 0.03843 0.52055 0.10796 0.0
H277 H 0.96078 0.46713 0.09299 0.0
Eu278 Eu 0.52421 0.51476 0.03845 0.0
Eu279 Eu 0.50721 0.51749 1.00188 0.0
C280 C 0.53029 0.55855 0.02688 0.0
C281 C 0.52546 0.51075 0.08302 0.0
C282 C 0.51502 0.52238 0.08663 0.0
C283 C 0.51742 0.49556 0.10828 0.0
C284 C 0.5062 0.52089 0.10107 0.0
C285 C 0.52645 0.49723 0.0939 0.0
C286 C 0.5074 0.50754 0.11208 0.0
C287 C 0.53525 0.51249 0.06798 0.0
O288 O 0.54307 0.52991 1.0023 0.0
O289 O 0.54902 0.51435 0.02356 0.0
C290 C 0.55506 0.52398 0.01057 0.0
O291 O 0.50098 0.48114 0.02733 0.0
O292 O 0.51073 0.53556 0.98138 0.0
O293 O 0.48458 0.50266 0.98048 0.0
O294 O 0.50826 0.48687 1.00173 0.0
C295 C 0.50107 0.47385 0.01284 0.0
O296 O 0.49397 0.51647 0.04074 0.0
O297 O 0.47756 0.50383 0.01528 0.0
O298 O 0.51327 0.54729 0.01651 0.0
O299 O 0.52531 0.49585 0.05746 0.0
O300 O 0.54184 0.53046 0.06158 0.0
O301 O 0.54028 0.54954 0.03375 0.0
C302 C 0.50019 0.5145 0.95678 0.0
C303 C 0.51374 0.50574 0.95523 0.0
C304 C 0.49628 0.51453 0.92816 0.0
C305 C 0.51849 0.50135 0.9402 0.0
C306 C 0.49154 0.5189 0.94319 0.0
C307 C 0.50978 0.50565 0.92646 0.0
C308 C 0.49507 0.51915 0.97251 0.0
C309 C 0.47667 0.50796 0.03044 0.0
H310 H 0.51375 0.5327 0.07834 0.0
H311 H 0.51873 0.48527 0.11658 0.0
H312 H 0.49834 0.53011 0.10359 0.0
H313 H 0.53434 0.48806 0.09132 0.0
H314 H 0.52057 0.50225 0.96564 0.0
H315 H 0.48957 0.51837 0.91788 0.0
H316 H 0.52874 0.49432 0.93933 0.0
H317 H 0.48114 0.52576 0.94419 0.0
Eu318 Eu 0.15246 0.32627 0.33655 0.0
Eu319 Eu 0.16758 0.34705 0.37411 0.0
C320 C 0.148 0.36654 0.34965 0.0
C321 C 0.15048 0.32186 0.29155 0.0
C322 C 0.1602 0.34418 0.2911 0.0
C323 C 0.15639 0.31822 0.26395 0.0
C324 C 0.1679 0.35345 0.27713 0.0
C325 C 0.14858 0.30896 0.27789 0.0
C326 C 0.16622 0.34058 0.26342 0.0
C327 C 0.1435 0.31203 0.3064 0.0
O328 O 0.13138 0.32528 0.37188 0.0
O329 O 0.1262 0.30232 0.35 0.0
C330 C 0.11945 0.30709 0.36285 0.0
O331 O 0.17277 0.31359 0.34776 0.0
O332 O 0.16283 0.36112 0.39591 0.0
O333 O 0.19007 0.35586 0.39541 0.0
O334 O 0.16426 0.31438 0.37312 0.0
C335 C 0.17151 0.3071 0.36199 0.0
O336 O 0.1824 0.35835 0.33633 0.0
O337 O 0.19787 0.36078 0.36137 0.0
O338 O 0.16317 0.37134 0.36128 0.0
O339 O 0.15846 0.31166 0.3157 0.0
O340 O 0.13164 0.31757 0.31424 0.0
O341 O 0.13872 0.34801 0.34087 0.0
C342 C 0.17354 0.35085 0.41918 0.0
C343 C 0.16483 0.3286 0.41932 0.0
C344 C 0.17249 0.35406 0.44772 0.0
C345 C 0.16015 0.31916 0.4336 0.0
C346 C 0.17727 0.36349 0.43344 0.0
C347 C 0.16393 0.33178 0.44798 0.0
C348 C 0.17871 0.36097 0.40424 0.0
C349 C 0.19948 0.36622 0.34676 0.0
H350 H 0.16207 0.35445 0.30161 0.0
H351 H 0.15462 0.30784 0.25355 0.0
H352 H 0.17558 0.37073 0.27716 0.0
H353 H 0.14126 0.29173 0.27805 0.0
H354 H 0.16167 0.31853 0.40839 0.0
H355 H 0.17582 0.36427 0.45859 0.0
H356 H 0.15332 0.30194 0.43336 0.0
H357 H 0.18397 0.38068 0.43355 0.0
Eu358 Eu 0.67925 0.82411 0.33773 0.0
Eu359 Eu 0.66082 0.81919 0.37287 0.0
C360 C 0.64093 0.7795 0.34662 0.0
C361 C 0.68449 0.83015 0.2936 0.0
C362 C 0.66219 0.81967 0.28873 0.0
C363 C 0.69178 0.84443 0.26803 0.0
C364 C 0.65476 0.82127 0.27351 0.0
C365 C 0.6992 0.84265 0.2832 0.0
C366 C 0.66949 0.83359 0.26297 0.0
C367 C 0.69263 0.82827 0.30945 0.0
O368 O 0.68434 0.80683 0.37401 0.0
O369 O 0.70508 0.82409 0.35423 0.0
C370 C 0.70204 0.81352 0.36683 0.0
O371 O 0.69018 0.85721 0.34956 0.0
O372 O 0.6481 0.8006 0.39298 0.0
O373 O 0.65181 0.83232 0.3928 0.0
O374 O 0.69264 0.85005 0.37518 0.0
C375 C 0.69813 0.86374 0.36446 0.0
O376 O 0.64738 0.82285 0.33315 0.0
O377 O 0.64455 0.83368 0.35841 0.0
O378 O 0.63603 0.79029 0.35687 0.0
O379 O 0.69856 0.84441 0.32009 0.0
O380 O 0.68167 0.80986 0.31517 0.0
O381 O 0.65966 0.78875 0.34075 0.0
C382 C 0.65682 0.82145 0.41759 0.0
C383 C 0.67917 0.83504 0.42148 0.0
C384 C 0.65214 0.81877 0.4456 0.0
C385 C 0.68794 0.8406 0.43737 0.0
C386 C 0.6434 0.81326 0.42972 0.0
C387 C 0.6745 0.83264 0.44964 0.0
C388 C 0.64722 0.81607 0.40101 0.0
C389 C 0.63893 0.83057 0.34301 0.0
H390 H 0.65052 0.81015 0.29666 0.0
H391 H 0.7035 0.85387 0.26011 0.0
H392 H 0.63749 0.81293 0.26999 0.0
H393 H 0.71645 0.85092 0.28677 0.0
H394 H 0.68977 0.84151 0.41222 0.0
H395 H 0.64138 0.81204 0.45471 0.0
H396 H 0.70518 0.85146 0.44006 0.0
H397 H 0.62612 0.80267 0.4269 0.0
Eu398 Eu 0.19007 0.84752 0.37194 0.0
Eu399 Eu 0.17316 0.84952 0.33512 0.0
C400 C 0.19459 0.89081 0.36007 0.0
C401 C 0.19215 0.8443 0.41662 0.0
C402 C 0.178 0.85223 0.41877 0.0
C403 C 0.18893 0.8343 0.4436 0.0
C404 C 0.1696 0.85145 0.43332 0.0
C405 C 0.19742 0.83519 0.42907 0.0
C406 C 0.17505 0.84258 0.44597 0.0
C407 C 0.20141 0.84538 0.40146 0.0
O408 O 0.20925 0.86327 0.33594 0.0
O409 O 0.21536 0.84784 0.3572 0.0
C410 C 0.22146 0.85771 0.34432 0.0
O411 O 0.16743 0.81378 0.36078 0.0
O412 O 0.17627 0.86704 0.31435 0.0
O413 O 0.15068 0.83391 0.31373 0.0
O414 O 0.17539 0.81955 0.33533 0.0
C415 C 0.16809 0.80653 0.34643 0.0
O416 O 0.15942 0.84851 0.374 0.0
O417 O 0.14343 0.83555 0.34846 0.0
O418 O 0.17827 0.87926 0.34921 0.0
O419 O 0.19068 0.82865 0.39111 0.0
O420 O 0.20824 0.86328 0.39494 0.0
O421 O 0.20464 0.88236 0.36767 0.0
C422 C 0.16604 0.84565 0.28992 0.0
C423 C 0.17905 0.83627 0.28839 0.0
C424 C 0.16286 0.84636 0.26134 0.0
C425 C 0.18387 0.83188 0.27339 0.0
C426 C 0.15804 0.85071 0.27633 0.0
C427 C 0.17579 0.83683 0.25966 0.0
C428 C 0.16082 0.85032 0.3056 0.0
C429 C 0.14226 0.83975 0.36355 0.0
H430 H 0.17364 0.85924 0.40926 0.0
H431 H 0.1932 0.82701 0.45295 0.0
H432 H 0.15919 0.85823 0.43473 0.0
H433 H 0.20815 0.82881 0.42757 0.0
H434 H 0.18539 0.83229 0.2988 0.0
H435 H 0.15668 0.85072 0.25108 0.0
H436 H 0.19367 0.82434 0.27254 0.0
H437 H 0.14809 0.85807 0.27732 0.0
Eu438 Eu 0.81917 0.65856 0.66878 0.0
Eu439 Eu 0.83338 0.67898 0.70654 0.0
C440 C 0.81515 0.69938 0.68161 0.0
C441 C 0.81691 0.65469 0.62383 0.0
C442 C 0.82806 0.67714 0.62405 0.0
C443 C 0.81967 0.65167 0.59553 0.0
C444 C 0.83502 0.68681 0.61009 0.0
C445 C 0.81271 0.64203 0.6095 0.0
C446 C 0.83102 0.6742 0.59565 0.0
C447 C 0.81072 0.64444 0.63861 0.0
O448 O 0.79714 0.65759 0.70373 0.0
O449 O 0.79245 0.63467 0.68198 0.0
C450 C 0.78536 0.63945 0.69463 0.0
O451 O 0.83889 0.64546 0.68029 0.0
O452 O 0.82809 0.69263 0.72832 0.0
O453 O 0.85545 0.68754 0.72805 0.0
O454 O 0.82991 0.64623 0.70551 0.0
C455 C 0.83733 0.63895 0.69453 0.0
O456 O 0.8493 0.69057 0.66893 0.0
O457 O 0.86405 0.69313 0.69426 0.0
O458 O 0.8293 0.70356 0.69387 0.0
O459 O 0.82651 0.64544 0.64784 0.0
O460 O 0.79795 0.64855 0.64656 0.0
O461 O 0.80644 0.68129 0.67232 0.0
C462 C 0.83857 0.68232 0.75166 0.0
C463 C 0.8298 0.66005 0.75177 0.0
C464 C 0.8375 0.68547 0.7802 0.0
C465 C 0.82506 0.65058 0.76604 0.0
C466 C 0.84232 0.69493 0.76594 0.0
C467 C 0.82887 0.66318 0.78044 0.0
C468 C 0.8439 0.6925 0.73677 0.0
C469 C 0.86608 0.69855 0.67965 0.0
H470 H 0.83154 0.68719 0.63505 0.0
H471 H 0.81657 0.64145 0.5847 0.0
H472 H 0.84345 0.70417 0.6106 0.0
H473 H 0.80431 0.62468 0.60915 0.0
H474 H 0.82664 0.65001 0.74083 0.0
H475 H 0.84085 0.69567 0.79108 0.0
H476 H 0.81819 0.63335 0.76577 0.0
H477 H 0.84908 0.71214 0.76608 0.0
Eu478 Eu 0.34608 0.15973 0.66972 0.0
Eu479 Eu 0.32695 0.15195 0.70472 0.0
C480 C 0.30646 0.11394 0.67662 0.0
C481 C 0.35204 0.16456 0.62537 0.0
C482 C 0.3307 0.14872 0.61991 0.0
C483 C 0.35656 0.17804 0.59948 0.0
C484 C 0.3224 0.14748 0.60427 0.0
C485 C 0.36489 0.17915 0.61505 0.0
C486 C 0.33521 0.16225 0.59392 0.0
C487 C 0.36085 0.16697 0.64195 0.0
O488 O 0.35015 0.13925 0.70453 0.0
O489 O 0.37178 0.15933 0.68615 0.0
C490 C 0.36831 0.14721 0.69786 0.0
O491 O 0.35819 0.19214 0.68324 0.0
O492 O 0.31526 0.13239 0.72455 0.0
O493 O 0.3162 0.16293 0.72476 0.0
O494 O 0.3586 0.18299 0.70853 0.0
C495 C 0.36513 0.19747 0.69839 0.0
O496 O 0.31354 0.15712 0.66547 0.0
O497 O 0.3109 0.16721 0.69096 0.0
O498 O 0.30224 0.12365 0.68822 0.0
O499 O 0.35975 0.18123 0.65133 0.0
O500 O 0.35588 0.14944 0.64863 0.0
O501 O 0.32453 0.12386 0.6699 0.0
C502 C 0.32261 0.1524 0.74944 0.0
C503 C 0.3425 0.17121 0.7541 0.0
C504 C 0.31989 0.14418 0.77685 0.0
C505 C 0.35085 0.17662 0.77009 0.0
C506 C 0.31148 0.13887 0.76089 0.0
C507 C 0.33957 0.16322 0.78165 0.0
C508 C 0.31307 0.14689 0.7328 0.0
C509 C 0.30497 0.16431 0.67562 0.0
H510 H 0.32042 0.13748 0.62779 0.0
H511 H 0.3669 0.18946 0.59174 0.0
H512 H 0.30583 0.13526 0.60034 0.0
H513 H 0.38135 0.19156 0.6191 0.0
H514 H 0.35147 0.1818 0.74542 0.0
H515 H 0.31073 0.13364 0.78549 0.0
H516 H 0.36617 0.19125 0.7734 0.0
H517 H 0.29613 0.1243 0.75751 0.0
Eu518 Eu 0.85802 0.18203 0.70622 0.0
Eu519 Eu 0.84024 0.18278 0.66929 0.0
C520 C 0.86278 0.22476 0.69337 0.0
C521 C 0.86066 0.1779 0.75088 0.0
C522 C 0.84266 0.1804 0.75275 0.0
C523 C 0.86118 0.17007 0.77833 0.0
C524 C 0.83412 0.178 0.76737 0.0
C525 C 0.86972 0.1725 0.7637 0.0
C526 C 0.84342 0.17304 0.78041 0.0
C527 C 0.87056 0.18165 0.73583 0.0
O528 O 0.87623 0.19618 0.66959 0.0
O529 O 0.8831 0.18204 0.69139 0.0
C530 C 0.88874 0.19113 0.67815 0.0
O531 O 0.83464 0.14799 0.69601 0.0
O532 O 0.84296 0.19988 0.6483 0.0
O533 O 0.81778 0.16658 0.64798 0.0
O534 O 0.84216 0.1527 0.67037 0.0
C535 C 0.83483 0.14013 0.68173 0.0
O536 O 0.82675 0.18178 0.70837 0.0
O537 O 0.81062 0.16967 0.68273 0.0
O538 O 0.84582 0.21288 0.68309 0.0
O539 O 0.86311 0.16513 0.72524 0.0
O540 O 0.87346 0.19886 0.72955 0.0
O541 O 0.87316 0.21645 0.7007 0.0
C542 C 0.83304 0.17828 0.6239 0.0
C543 C 0.83673 0.16109 0.62063 0.0
C544 C 0.83985 0.18771 0.59696 0.0
C545 C 0.84174 0.15714 0.60558 0.0
C546 C 0.83468 0.19154 0.61196 0.0
C547 C 0.84339 0.17044 0.59358 0.0
C548 C 0.82778 0.18284 0.63966 0.0
C549 C 0.80958 0.17342 0.69792 0.0
H550 H 0.8355 0.18464 0.74299 0.0
H551 H 0.86854 0.16591 0.78802 0.0
H552 H 0.82062 0.18064 0.76856 0.0
H553 H 0.88357 0.17044 0.76246 0.0
H554 H 0.83579 0.15075 0.62971 0.0
H555 H 0.84078 0.19811 0.58794 0.0
H556 H 0.84462 0.14387 0.60339 0.0
H557 H 0.83194 0.2049 0.61424 0.0
H558 H 0.27167 0.8143 0.05963 0.0
H559 H 0.30628 0.84005 0.05079 0.0
H560 H 0.3085 0.89061 0.08191 0.0
H561 H 0.27361 0.86499 0.09066 0.0
H562 H 0.31606 0.87855 0.03635 0.0
H563 H 0.36788 0.89462 0.09279 0.0
H564 H 0.34104 0.87149 0.08874 0.0
H565 H 0.34447 0.89746 0.09441 0.0
C566 C 0.27944 0.83092 0.06456 0.0
C567 C 0.26982 0.83759 0.07584 0.0
C568 C 0.29926 0.84558 0.05953 0.0
C569 C 0.31001 0.86717 0.06579 0.0
C570 C 0.30061 0.87393 0.07712 0.0
H571 H 0.43096 0.97931 0.05153 0.0
H572 H 0.39596 0.95359 0.05967 0.0
C573 C 0.2807 0.85926 0.08214 0.0
C574 C 0.33084 0.88266 0.06013 0.0
H575 H 0.38456 0.91582 0.07211 0.0
C576 C 0.33108 0.88668 0.04413 0.0
C577 C 0.35034 0.8932 0.07034 0.0
C578 C 0.35109 0.88891 0.0875 0.0
C579 C 0.35029 0.90133 0.03811 0.0
C580 C 0.36984 0.91184 0.04831 0.0
C581 C 0.36957 0.90774 0.06431 0.0
C582 C 0.39075 0.92748 0.04276 0.0
C583 C 0.34934 0.90582 0.02101 0.0
C584 C 0.39953 0.92135 0.03053 0.0
C585 C 0.41958 0.9361 0.02575 0.0
C586 C 0.43132 0.95719 0.03324 0.0
C587 C 0.42242 0.96322 0.04548 0.0
C588 C 0.40239 0.94853 0.05018 0.0
H589 H 0.33263 0.90104 0.01611 0.0
H590 H 0.36011 0.92312 0.0197 0.0
H591 H 0.35482 0.89646 0.01378 0.0
H592 H 0.39105 0.90505 0.02486 0.0
H593 H 0.42602 0.93088 0.01637 0.0
H594 H 0.18822 0.4604 0.10495 0.0
H595 H 0.16031 0.46841 0.09518 0.0
H596 H 0.14819 0.42859 0.05164 0.0
H597 H 0.17553 0.41993 0.06151 0.0
H598 H 0.15717 0.4874 0.06816 0.0
H599 H 0.08795 0.40434 0.06677 0.0
H600 H 0.11421 0.41276 0.07701 0.0
H601 H 0.1095 0.40649 0.05582 0.0
C602 C 0.17949 0.4532 0.09335 0.0
C603 C 0.18403 0.43942 0.08405 0.0
C604 C 0.16365 0.4579 0.08774 0.0
C605 C 0.15195 0.44883 0.07279 0.0
C606 C 0.15675 0.43545 0.06334 0.0
H607 H 0.0729 0.48916 0.01919 0.0
H608 H 0.10105 0.48165 0.02902 0.0
C609 C 0.17258 0.43074 0.06892 0.0
C610 C 0.13478 0.45343 0.06708 0.0
H611 H 0.08071 0.42963 0.05512 0.0
C612 C 0.14044 0.4748 0.06534 0.0
C613 C 0.11292 0.43698 0.06361 0.0
C614 C 0.10567 0.41387 0.06602 0.0
C615 C 0.12488 0.48012 0.05999 0.0
C616 C 0.10313 0.46358 0.05604 0.0
C617 C 0.09742 0.44226 0.05802 0.0
C618 C 0.08599 0.46807 0.05001 0.0
C619 C 0.1318 0.50345 0.05888 0.0
C620 C 0.06784 0.4624 0.05831 0.0
C621 C 0.05159 0.46651 0.05265 0.0
C622 C 0.05313 0.47631 0.03853 0.0
C623 C 0.07124 0.48176 0.03016 0.0
C624 C 0.08744 0.47759 0.03581 0.0
H625 H 0.14734 0.5143 0.06626 0.0
H626 H 0.13413 0.50705 0.04638 0.0
H627 H 0.11929 0.50707 0.06271 0.0
H628 H 0.06634 0.45494 0.06926 0.0
H629 H 0.03788 0.46207 0.0594 0.0
H630 H 0.56676 0.75176 0.05265 0.0
H631 H 0.55609 0.71458 0.04391 0.0
H632 H 0.60736 0.71905 0.07636 0.0
H633 H 0.61822 0.75627 0.08511 0.0
H634 H 0.58044 0.69773 0.03058 0.0
H635 H 0.55301 0.66597 0.08806 0.0
H636 H 0.5578 0.69201 0.08339 0.0
H637 H 0.58016 0.68829 0.08941 0.0
C638 C 0.57588 0.74488 0.05783 0.0
C639 C 0.59325 0.7569 0.06964 0.0
C640 C 0.56971 0.72364 0.05287 0.0
C641 C 0.58073 0.714 0.05967 0.0
C642 C 0.59836 0.72607 0.07121 0.0
H643 H 0.56472 0.58659 0.04803 0.0
H644 H 0.57752 0.62459 0.05523 0.0
C645 C 0.60453 0.74731 0.0762 0.0
C646 C 0.57373 0.69131 0.05468 0.0
H647 H 0.5539 0.64198 0.06831 0.0
C648 C 0.57458 0.6855 0.0388 0.0
C649 C 0.56609 0.67545 0.06545 0.0
C650 C 0.56399 0.68063 0.0825 0.0
C651 C 0.56829 0.66423 0.03344 0.0
C652 C 0.56065 0.64838 0.04421 0.0
C653 C 0.55983 0.65421 0.0601 0.0
C654 C 0.55329 0.62558 0.03929 0.0
C655 C 0.57027 0.65899 0.01638 0.0
C656 C 0.53533 0.61353 0.02799 0.0
C657 C 0.52794 0.59178 0.02383 0.0
C658 C 0.53834 0.58168 0.03097 0.0
C659 C 0.55635 0.59385 0.04228 0.0
C660 C 0.5637 0.61557 0.04642 0.0
H661 H 0.58138 0.67362 0.01084 0.0
H662 H 0.57624 0.64743 0.01546 0.0
H663 H 0.5541 0.65152 0.0095 0.0
H664 H 0.52681 0.62087 0.02258 0.0
H665 H 0.51398 0.58287 0.01514 0.0
H666 H 0.8247 0.26407 0.94465 0.0
H667 H 0.85241 0.30095 0.95409 0.0
H668 H 0.86469 0.27975 0.99809 0.0
H669 H 0.83767 0.24266 0.98847 0.0
H670 H 0.85481 0.32666 0.97991 0.0
H671 H 0.92507 0.31359 0.98419 0.0
H672 H 0.89906 0.29399 0.97401 0.0
H673 H 0.90353 0.29633 0.9953 0.0
C674 C 0.83349 0.26719 0.95625 0.0
C675 C 0.82907 0.25036 0.96574 0.0
C676 C 0.84921 0.28831 0.96168 0.0
C677 C 0.86086 0.29305 0.97668 0.0
C678 C 0.85621 0.27639 0.98634 0.0
H679 H 0.93702 0.42144 0.02649 0.0
H680 H 0.90977 0.38407 0.01806 0.0
C681 C 0.84054 0.25523 0.9809 0.0
C682 C 0.87765 0.31552 0.98225 0.0
H683 H 0.93146 0.34771 0.99465 0.0
C684 C 0.87158 0.33128 0.98312 0.0
C685 C 0.89957 0.32154 0.98624 0.0
C686 C 0.9073 0.30554 0.98476 0.0
C687 C 0.88679 0.3529 0.98797 0.0
C688 C 0.90859 0.35883 0.99238 0.0
C689 C 0.9147 0.34309 0.99139 0.0
C690 C 0.92539 0.38135 0.99775 0.0
C691 C 0.87944 0.36924 0.98797 0.0
C692 C 0.9436 0.39205 0.98943 0.0
C693 C 0.95935 0.41337 0.99431 0.0
C694 C 0.9572 0.42441 1.00763 0.0
C695 C 0.93909 0.41352 0.01609 0.0
C696 C 0.92342 0.39217 0.01124 0.0
H697 H 0.86398 0.36319 0.98031 0.0
H698 H 0.87676 0.37282 1.00024 0.0
H699 H 0.89185 0.38446 0.98381 0.0
H700 H 0.94549 0.38396 0.97903 0.0
H701 H 0.97309 0.42124 0.98754 0.0
H702 H 0.73359 0.53868 0.97254 0.0
H703 H 0.69926 0.53089 0.98231 0.0
H704 H 0.69749 0.57872 0.95495 0.0
H705 H 0.73219 0.58717 0.94546 0.0
H706 H 0.69068 0.56313 0.99902 0.0
H707 H 0.63736 0.52141 0.94297 0.0
H708 H 0.66375 0.52407 0.9468 0.0
H709 H 0.66146 0.54669 0.94156 0.0
C710 C 0.72603 0.5477 0.96867 0.0
C711 C 0.73575 0.56361 0.95822 0.0
C712 C 0.70635 0.54311 0.97421 0.0
C713 C 0.69582 0.55412 0.96926 0.0
C714 C 0.70527 0.56986 0.95874 0.0
H715 H 0.57491 0.54755 0.98639 0.0
H716 H 0.60929 0.55497 0.97707 0.0
C717 C 0.72506 0.57459 0.95327 0.0
C718 C 0.67518 0.54948 0.97542 0.0
H719 H 0.62115 0.52773 0.96443 0.0
C720 C 0.67543 0.55534 0.99151 0.0
C721 C 0.65541 0.53938 0.96554 0.0
C722 C 0.65428 0.53235 0.94827 0.0
C723 C 0.65643 0.55175 0.99794 0.0
C724 C 0.63655 0.54149 0.98808 0.0
C725 C 0.63636 0.53556 0.97198 0.0
C726 C 0.61583 0.53711 0.9941 0.0
C727 C 0.65796 0.55956 0.0151 0.0
C728 C 0.60791 0.52442 1.00671 0.0
C729 C 0.58827 0.52026 0.01218 0.0
C730 C 0.57602 0.52848 1.005 0.0
C731 C 0.58389 0.54096 0.99224 0.0
C732 C 0.60357 0.54522 0.98686 0.0
H733 H 0.67472 0.5722 0.01961 0.0
H734 H 0.64698 0.56609 0.01674 0.0
H735 H 0.65319 0.54591 0.02242 0.0
H736 H 0.6168 0.51752 0.01222 0.0
H737 H 0.58261 0.51043 0.02193 0.0
H738 H 0.44204 0.17024 0.9557 0.0
H739 H 0.4522 0.14425 0.96399 0.0
H740 H 0.41274 0.1316 1.00279 0.0
H741 H 0.40167 0.15684 0.99415 0.0
H742 H 0.47357 0.14519 0.99202 0.0
H743 H 0.39265 0.07148 0.98262 0.0
H744 H 0.39802 0.09627 0.97484 0.0
H745 H 0.39366 0.09276 0.99536 0.0
C746 C 0.43516 0.16162 0.96581 0.0
C747 C 0.42092 0.16553 0.9742 0.0
C748 C 0.44115 0.14692 0.97062 0.0
C749 C 0.43303 0.13581 0.98389 0.0
C750 C 0.41889 0.1397 0.99234 0.0
H751 H 0.48946 0.0686 0.03286 0.0
H752 H 0.47766 0.09401 0.02602 0.0
C753 C 0.41278 0.15433 0.98749 0.0
C754 C 0.43992 0.12064 0.98908 0.0
H755 H 0.4211 0.06826 0.9956 0.0
C756 C 0.46211 0.12836 0.9928 0.0
C757 C 0.42494 0.09866 0.98994 0.0
C758 C 0.40101 0.08921 0.98534 0.0
C759 C 0.46977 0.11469 0.99733 0.0
C760 C 0.45475 0.0928 0.99852 0.0
C761 C 0.43256 0.08509 0.99481 0.0
C762 C 0.46176 0.0774 1.00289 0.0
C763 C 0.49388 0.12369 1.00037 0.0
C764 C 0.45625 0.05935 0.99234 0.0
C765 C 0.46273 0.0447 0.99628 0.0
C766 C 0.47489 0.04781 0.01086 0.0
C767 C 0.48029 0.06585 0.02147 0.0
C768 C 0.47364 0.08044 0.01756 0.0
H769 H 0.50313 0.13903 0.99502 0.0
H770 H 0.4987 0.12692 0.01335 0.0
H771 H 0.49855 0.11211 0.99553 0.0
H772 H 0.44705 0.05668 0.98098 0.0
H773 H 0.45832 0.03101 0.98781 0.0
H774 H 0.72026 0.12573 0.95882 0.0
H775 H 0.68202 0.1032 0.96336 0.0
H776 H 0.68674 0.1551 0.9945 0.0
H777 H 0.72463 0.1776 0.98968 0.0
H778 H 0.66692 0.09024 0.99156 0.0
H779 H 0.63061 0.13641 0.96756 0.0
H780 H 0.65703 0.14137 0.96332 0.0
H781 H 0.65372 0.15257 0.98172 0.0
C782 C 0.71285 0.13237 0.96631 0.0
C783 C 0.72504 0.15335 0.97376 0.0
C784 C 0.69113 0.11953 0.96896 0.0
C785 C 0.68139 0.12757 0.97909 0.0
C786 C 0.69366 0.14872 0.98632 0.0
H787 H 0.57226 0.05384 0.03214 0.0
H788 H 0.608 0.07689 0.02351 0.0
C789 C 0.7153 0.16153 0.98362 0.0
C790 C 0.65902 0.11341 0.98312 0.0
H791 H 0.60984 0.10999 0.98476 0.0
C792 C 0.65438 0.09446 0.98994 0.0
C793 C 0.6426 0.11882 0.98089 0.0
C794 C 0.64615 0.13829 0.97282 0.0
C795 C 0.63396 0.08106 0.99494 0.0
C796 C 0.61787 0.08699 0.99339 0.0
C797 C 0.6223 0.10563 0.98618 0.0
C798 C 0.59616 0.0738 0.99884 0.0
C799 C 0.62973 0.06053 1.00167 0.0
C800 C 0.57758 0.06506 0.98796 0.0
C801 C 0.55713 0.05206 0.99287 0.0
C802 C 0.55483 0.04758 1.00881 0.0
C803 C 0.57344 0.05684 0.01977 0.0
C804 C 0.59391 0.0699 0.01484 0.0
H805 H 0.6414 0.05552 0.99815 0.0
H806 H 0.63149 0.06306 0.01482 0.0
H807 H 0.61306 0.04726 0.99768 0.0
H808 H 0.57892 0.06796 0.97558 0.0
H809 H 0.54318 0.04526 0.98408 0.0
H810 H 0.86187 0.58366 0.95515 0.0
H811 H 0.88766 0.57058 0.95857 0.0
H812 H 0.84252 0.51951 0.98407 0.0
H813 H 0.81675 0.53228 0.98033 0.0
H814 H 0.90651 0.56863 0.98641 0.0
H815 H 0.8609 0.48698 0.95483 0.0
H816 H 0.85292 0.50688 0.95228 0.0
H817 H 0.84552 0.49124 0.969 0.0
C818 C 0.85738 0.56934 0.96112 0.0
C819 C 0.83739 0.55872 0.96732 0.0
C820 C 0.87207 0.56193 0.96313 0.0
C821 C 0.86689 0.54383 0.97135 0.0
C822 C 0.84667 0.5331 0.9773 0.0
H823 H 0.95193 0.51451 0.02694 0.0
H824 H 0.9269 0.5258 0.01657 0.0
C825 C 0.83201 0.54044 0.97524 0.0
C826 C 0.88322 0.53724 0.97503 0.0
H827 H 0.89041 0.49375 0.974 0.0
C828 C 0.90309 0.55233 0.9835 0.0
C829 C 0.8789 0.51603 0.9711 0.0
C830 C 0.85849 0.49943 0.96115 0.0
C831 C 0.91838 0.54658 0.9887 0.0
C832 C 0.91347 0.52505 0.98563 0.0
C833 C 0.89401 0.51017 0.97658 0.0
C834 C 0.92821 0.51762 0.9919 0.0
C835 C 0.93966 0.56366 0.99741 0.0
C836 C 0.93667 0.50854 0.98151 0.0
C837 C 0.95085 0.50187 0.9874 0.0
C838 C 0.95678 0.50408 1.00383 0.0
C839 C 0.94786 0.51273 0.01422 0.0
C840 C 0.93365 0.51933 1.00831 0.0
H841 H 0.94347 0.58001 0.99471 0.0
H842 H 0.9387 0.56293 0.01038 0.0
H843 H 0.95316 0.56116 0.99431 0.0
H844 H 0.93256 0.50692 0.96881 0.0
H845 H 0.95736 0.49525 0.97905 0.0
H846 H 0.4521 0.27767 1.00422 0.0
H847 H 0.46612 0.31652 1.00648 0.0
H848 H 0.4134 0.30697 0.97297 0.0
H849 H 0.39919 0.26791 0.97091 0.0
H850 H 0.47919 0.34547 0.98354 0.0
H851 H 0.40916 0.341 0.01167 0.0
H852 H 0.41382 0.3186 0.00976 0.0
H853 H 0.40246 0.32512 0.99292 0.0
C854 C 0.44362 0.28397 0.99731 0.0
C855 C 0.42464 0.27011 0.98745 0.0
C856 C 0.45161 0.30607 0.99858 0.0
C857 C 0.44064 0.31458 0.99005 0.0
C858 C 0.42188 0.30067 0.97985 0.0
H859 H 0.49546 0.45249 0.98368 0.0
H860 H 0.48061 0.41392 0.97728 0.0
C861 C 0.41387 0.27849 0.97861 0.0
C862 C 0.4488 0.33797 0.99215 0.0
H863 H 0.43638 0.37533 1.00639 0.0
C864 C 0.46982 0.35204 0.98845 0.0
C865 C 0.4366 0.34642 0.99877 0.0
C866 C 0.41432 0.33206 1.00365 0.0
C867 C 0.47905 0.37438 0.99129 0.0
C868 C 0.46676 0.38283 0.99775 0.0
C869 C 0.44569 0.36877 1.00134 0.0
C870 C 0.47576 0.40621 1.00151 0.0
C871 C 0.50211 0.38871 0.98784 0.0
C872 C 0.47752 0.41458 0.0172 0.0
C873 C 0.48582 0.43656 0.02089 0.0
C874 C 0.49248 0.4506 0.00893 0.0
C875 C 0.49062 0.44214 0.9932 0.0
C876 C 0.48223 0.42012 0.98951 0.0
H877 H 0.51088 0.37968 0.98658 0.0
H878 H 0.50209 0.39575 0.97654 0.0
H879 H 0.51111 0.40209 0.99739 0.0
H880 H 0.47255 0.40408 0.02662 0.0
H881 H 0.48702 0.44253 0.03313 0.0
H882 H 0.17716 0.72811 0.08396 0.0
H883 H 0.15139 0.68912 0.08085 0.0
H884 H 0.12013 0.69615 0.03829 0.0
H885 H 0.14575 0.73497 0.04141 0.0
H886 H 0.10085 0.66463 0.07519 0.0
H887 H 0.14415 0.65364 0.02654 0.0
H888 H 0.15685 0.67672 0.04118 0.0
H889 H 0.1379 0.67486 0.0254 0.0
C890 C 0.16447 0.72127 0.07416 0.0
C891 C 0.16317 0.73426 0.06294 0.0
C892 C 0.14985 0.69911 0.07238 0.0
C893 C 0.13403 0.68985 0.05928 0.0
C894 C 0.13231 0.70305 0.04842 0.0
H895 H 0.04361 0.5647 0.01332 0.0
H896 H 0.06807 0.60285 0.02131 0.0
C897 C 0.14683 0.72514 0.05024 0.0
C898 C 0.12012 0.66628 0.05629 0.0
H899 H 0.11101 0.62351 0.031 0.0
C900 C 0.1031 0.65553 0.06563 0.0
C901 C 0.12319 0.6546 0.0438 0.0
C902 C 0.14158 0.66543 0.03368 0.0
C903 C 0.08852 0.63336 0.06242 0.0
C904 C 0.09143 0.62169 0.04976 0.0
C905 C 0.10878 0.63247 0.04067 0.0
C906 C 0.07627 0.59846 0.04528 0.0
C907 C 0.06969 0.62283 0.0722 0.0
C908 C 0.07288 0.58326 0.05606 0.0
C909 C 0.05875 0.56137 0.05156 0.0
C910 C 0.04798 0.5543 0.03611 0.0
C911 C 0.05164 0.56957 0.0253 0.0
C912 C 0.06562 0.5914 0.02985 0.0
H913 H 0.06667 0.63481 0.07859 0.0
H914 H 0.05468 0.61106 0.06464 0.0
H915 H 0.07331 0.61411 0.08117 0.0
H916 H 0.08133 0.58829 0.06791 0.0
H917 H 0.0564 0.55001 0.06013 0.0
H918 H 0.29223 0.42115 0.08948 0.0
H919 H 0.33026 0.436 0.08429 0.0
H920 H 0.32532 0.48176 0.05614 0.0
H921 H 0.2876 0.46721 0.06161 0.0
H922 H 0.34441 0.43602 0.05547 0.0
H923 H 0.38234 0.51987 0.08274 0.0
H924 H 0.356 0.49917 0.08696 0.0
H925 H 0.35892 0.51251 0.06919 0.0
C926 C 0.29955 0.43474 0.08254 0.0
C927 C 0.28732 0.44334 0.0761 0.0
C928 C 0.32117 0.44314 0.07951 0.0
C929 C 0.33078 0.46023 0.07001 0.0
C930 C 0.31851 0.46899 0.06383 0.0
H931 H 0.43686 0.48987 0.01319 0.0
H932 H 0.40185 0.47856 0.02321 0.0
C933 C 0.29696 0.46065 0.06691 0.0
C934 C 0.35295 0.46771 0.06541 0.0
H935 H 0.4023 0.51253 0.06417 0.0
C936 C 0.35713 0.45272 0.05752 0.0
C937 C 0.36963 0.48947 0.06819 0.0
C938 C 0.36659 0.50614 0.07738 0.0
C939 C 0.37729 0.45896 0.05194 0.0
C940 C 0.3936 0.48088 0.05404 0.0
C941 C 0.38967 0.49578 0.06235 0.0
C942 C 0.41493 0.48858 0.04785 0.0
C943 C 0.38099 0.44197 0.04399 0.0
C944 C 0.434 0.49865 0.0583 0.0
C945 C 0.45406 0.50528 0.0526 0.0
C946 C 0.45549 0.50207 0.03629 0.0
C947 C 0.43638 0.49248 0.02581 0.0
C948 C 0.41632 0.48588 0.03153 0.0
H949 H 0.36935 0.42568 0.04712 0.0
H950 H 0.37874 0.44191 0.03092 0.0
H951 H 0.39769 0.44527 0.04733 0.0
H952 H 0.43333 0.50101 0.07092 0.0
H953 H 0.46841 0.51264 0.06104 0.0
H954 H 0.60584 0.87096 0.03876 0.0
H955 H 0.58873 0.89303 0.03604 0.0
H956 H 0.55748 0.87049 0.07839 0.0
H957 H 0.57468 0.8483 0.0811 0.0
H958 H 0.54075 0.8733 0.03391 0.0
H959 H 0.58544 0.93841 0.08333 0.0
H960 H 0.59699 0.92338 0.07472 0.0
H961 H 0.57591 0.91105 0.08744 0.0
C962 C 0.59565 0.8711 0.04763 0.0
C963 C 0.5916 0.85825 0.06019 0.0
C964 C 0.58586 0.88359 0.04605 0.0
C965 C 0.57198 0.88344 0.05706 0.0
C966 C 0.56837 0.87099 0.0699 0.0
H967 H 0.50226 0.95473 0.0571 0.0
H968 H 0.51643 0.93128 0.06432 0.0
C969 C 0.57814 0.85839 0.07144 0.0
C970 C 0.56017 0.89515 0.05432 0.0
H971 H 0.55828 0.93982 0.06716 0.0
C972 C 0.54447 0.88779 0.04122 0.0
C973 C 0.56493 0.91383 0.06401 0.0
C974 C 0.58179 0.92232 0.07815 0.0
C975 C 0.53358 0.89886 0.03735 0.0
C976 C 0.53901 0.91813 0.04661 0.0
C977 C 0.55424 0.92511 0.06004 0.0
C978 C 0.52984 0.93179 0.0421 0.0
C979 C 0.51633 0.88975 0.02342 0.0
C980 C 0.53284 0.93998 0.02727 0.0
C981 C 0.52465 0.95322 0.02306 0.0
C982 C 0.51355 0.9588 0.0337 0.0
C983 C 0.51068 0.95069 0.04861 0.0
C984 C 0.51879 0.93732 0.05277 0.0
H985 H 0.50933 0.87212 0.02097 0.0
H986 H 0.50303 0.89304 0.0255 0.0
H987 H 0.52361 0.89725 0.01267 0.0
H988 H 0.5418 0.93637 0.019 0.0
H989 H 0.52734 0.95934 0.01154 0.0
H990 H 0.92061 0.17838 0.38716 0.0
H991 H 0.95521 0.20376 0.37805 0.0
H992 H 0.98903 0.19991 0.42052 0.0
H993 H 0.95448 0.17396 0.42951 0.0
H994 H 0.98797 0.24352 0.39163 0.0
H995 H 0.01745 0.18563 0.38499 0.0
H996 H 0.98963 0.17735 0.38756 0.0
H997 H 0.00982 0.18829 0.40438 0.0
C998 C 0.93542 0.18284 0.39453 0.0
C999 C 0.9348 0.17396 0.40898 0.0
C1000 C 0.95516 0.19743 0.38934 0.0
C1001 C 0.9747 0.2034 0.39845 0.0
C1002 C 0.97415 0.19517 0.41315 0.0
H1003 H 0.1014 0.31075 0.38943 0.0
H1004 H 0.06603 0.28557 0.3973 0.0
C1005 C 0.95439 0.18056 0.41836 0.0
C1006 C 0.99561 0.2182 0.39253 0.0
H1007 H 0.0427 0.22212 0.38216 0.0
C1008 C 0.99992 0.23884 0.38952 0.0
C1009 C 0.01099 0.2119 0.38949 0.0
C1010 C 0.00672 0.18952 0.39161 0.0
C1011 C 0.01944 0.25355 0.38391 0.0
C1012 C 0.0352 0.24756 0.3815 0.0
C1013 C 0.03068 0.22674 0.38415 0.0
C1014 C 0.05667 0.26281 0.37656 0.0
C1015 C 0.02288 0.27528 0.38044 0.0
C1016 C 0.06344 0.25811 0.36246 0.0
C1017 C 0.08382 0.27245 0.35794 0.0
C1018 C 0.09783 0.2917 0.36748 0.0
C1019 C 0.09101 0.29619 0.38169 0.0
C1020 C 0.07071 0.28186 0.38619 0.0
H1021 H 0.00729 0.2751 0.37851 0.0
H1022 H 0.03268 0.2872 0.39071 0.0
H1023 H 0.0317 0.28068 0.36979 0.0
H1024 H 0.05289 0.2434 0.35492 0.0
H1025 H 0.08855 0.26845 0.34696 0.0
H1026 H 0.86967 0.79577 0.40327 0.0
H1027 H 0.84141 0.80342 0.39379 0.0
H1028 H 0.79868 0.76045 0.42517 0.0
H1029 H 0.82663 0.75233 0.43451 0.0
H1030 H 0.79828 0.77255 0.37949 0.0
H1031 H 0.79799 0.81731 0.43488 0.0
H1032 H 0.82021 0.81304 0.43114 0.0
H1033 H 0.79574 0.79164 0.43714 0.0
C1034 C 0.85423 0.78786 0.40812 0.0
C1035 C 0.85047 0.77348 0.41971 0.0
C1036 C 0.83815 0.79234 0.40274 0.0
C1037 C 0.81808 0.78271 0.40892 0.0
C1038 C 0.81423 0.76837 0.42047 0.0
H1039 H 0.70088 0.78991 0.39141 0.0
H1040 H 0.72877 0.78199 0.40129 0.0
C1041 C 0.83026 0.7638 0.42582 0.0
C1042 C 0.80094 0.78718 0.40295 0.0
H1043 H 0.77075 0.80944 0.41406 0.0
C1044 C 0.79229 0.78068 0.38701 0.0
C1045 C 0.79311 0.79766 0.41283 0.0
C1046 C 0.80231 0.8055 0.42993 0.0
C1047 C 0.77575 0.78413 0.38072 0.0
C1048 C 0.76804 0.79483 0.39057 0.0
C1049 C 0.77668 0.80125 0.40653 0.0
C1050 C 0.75115 0.79965 0.3845 0.0
C1051 C 0.76636 0.77584 0.36371 0.0
C1052 C 0.75459 0.81248 0.37193 0.0
C1053 C 0.73866 0.81697 0.3662 0.0
C1054 C 0.71901 0.8089 0.37304 0.0
C1055 C 0.71577 0.79635 0.38582 0.0
C1056 C 0.73171 0.7918 0.3915 0.0
H1057 H 0.76949 0.76292 0.35931 0.0
H1058 H 0.74863 0.76951 0.36232 0.0
H1059 H 0.77401 0.78918 0.3561 0.0
H1060 H 0.76968 0.81916 0.3666 0.0
H1061 H 0.74181 0.82684 0.35644 0.0
H1062 H 0.27508 0.09735 0.38138 0.0
H1063 H 0.26326 0.06025 0.37165 0.0
H1064 H 0.22168 0.0377 0.40917 0.0
H1065 H 0.23234 0.07459 0.41837 0.0
H1066 H 0.26746 0.03018 0.38558 0.0
H1067 H 0.18031 0.00151 0.37132 0.0
H1068 H 0.20017 0.02961 0.37574 0.0
H1069 H 0.1895 0.01279 0.39156 0.0
C1070 C 0.2631 0.0845 0.38739 0.0
C1071 C 0.25455 0.089 0.4006 0.0
C1072 C 0.25651 0.0633 0.38189 0.0
C1073 C 0.24129 0.04618 0.3895 0.0
C1074 C 0.23303 0.05061 0.40285 0.0
H1075 H 0.22082 0.91737 0.38594 0.0
H1076 H 0.23254 0.95528 0.39224 0.0
C1077 C 0.23942 0.07177 0.40826 0.0
C1078 C 0.23455 0.02371 0.38379 0.0
H1079 H 0.19021 0.97438 0.37278 0.0
C1080 C 0.25058 0.01801 0.38264 0.0
C1081 C 0.21256 0.00793 0.37967 0.0
C1082 C 0.19468 0.01331 0.37946 0.0
C1083 C 0.24517 0.99682 0.37793 0.0
C1084 C 0.2231 0.98078 0.37474 0.0
C1085 C 0.20712 0.98662 0.37544 0.0
C1086 C 0.21616 0.95782 0.37083 0.0
C1087 C 0.26321 0.99195 0.37622 0.0
C1088 C 0.20243 0.94641 0.35696 0.0
C1089 C 0.19534 0.92461 0.35347 0.0
C1090 C 0.20196 0.91384 0.36376 0.0
C1091 C 0.21564 0.92527 0.37767 0.0
C1092 C 0.2225 0.947 0.38124 0.0
H1093 H 0.27841 0.0065 0.37398 0.0
H1094 H 0.26653 0.98633 0.38741 0.0
H1095 H 0.25882 0.97923 0.36638 0.0
H1096 H 0.19723 0.95441 0.3488 0.0
H1097 H 0.18483 0.91625 0.34266 0.0
H1098 H 0.52257 0.58196 0.28704 0.0
H1099 H 0.55053 0.61865 0.29685 0.0
H1100 H 0.50462 0.62616 0.32306 0.0
H1101 H 0.47645 0.58958 0.31314 0.0
H1102 H 0.54926 0.65678 0.29258 0.0
H1103 H 0.55702 0.64543 0.35637 0.0
H1104 H 0.54419 0.62322 0.34102 0.0
H1105 H 0.52986 0.63619 0.34785 0.0
C1106 C 0.51838 0.59144 0.29483 0.0
C1107 C 0.49725 0.58284 0.29929 0.0
C1108 C 0.53441 0.61235 0.3005 0.0
C1109 C 0.52971 0.625 0.31083 0.0
C1110 C 0.50869 0.61649 0.31535 0.0
H1111 H 0.59979 0.75577 0.35492 0.0
H1112 H 0.5733 0.71829 0.34601 0.0
C1113 C 0.49262 0.59559 0.30967 0.0
C1114 C 0.54656 0.64741 0.31634 0.0
H1115 H 0.57533 0.6813 0.34954 0.0
C1116 C 0.55508 0.66215 0.30502 0.0
C1117 C 0.55403 0.65431 0.33258 0.0
C1118 C 0.54598 0.63896 0.34518 0.0
C1119 C 0.57056 0.68378 0.30952 0.0
C1120 C 0.57802 0.69072 0.32577 0.0
C1121 C 0.56957 0.67593 0.3371 0.0
C1122 C 0.59436 0.71335 0.33129 0.0
C1123 C 0.5783 0.69912 0.29688 0.0
C1124 C 0.61511 0.72291 0.32616 0.0
C1125 C 0.63028 0.74438 0.33116 0.0
C1126 C 0.62504 0.75663 0.34153 0.0
C1127 C 0.60437 0.74684 0.3469 0.0
C1128 C 0.58919 0.72541 0.34184 0.0
H1129 H 0.56702 0.69261 0.28581 0.0
H1130 H 0.58015 0.71486 0.30109 0.0
H1131 H 0.59431 0.70185 0.29395 0.0
H1132 H 0.61959 0.71375 0.31829 0.0
H1133 H 0.64611 0.75135 0.32689 0.0
H1134 H 0.39867 0.87103 0.30537 0.0
H1135 H 0.36467 0.86402 0.3153 0.0
H1136 H 0.36499 0.91382 0.28926 0.0
H1137 H 0.39941 0.92149 0.27961 0.0
H1138 H 0.35727 0.89678 0.33285 0.0
H1139 H 0.30397 0.85763 0.27638 0.0
H1140 H 0.32994 0.85931 0.28011 0.0
H1141 H 0.3286 0.88262 0.27542 0.0
C1142 C 0.39166 0.88066 0.30183 0.0
C1143 C 0.40188 0.89689 0.29169 0.0
C1144 C 0.37215 0.87652 0.30746 0.0
C1145 C 0.3623 0.88831 0.30293 0.0
C1146 C 0.37226 0.90439 0.29274 0.0
H1147 H 0.24171 0.88242 0.32074 0.0
H1148 H 0.27623 0.89028 0.31146 0.0
C1149 C 0.39187 0.90866 0.28717 0.0
C1150 C 0.34178 0.88402 0.30913 0.0
H1151 H 0.28792 0.86341 0.29814 0.0
C1152 C 0.34206 0.88945 0.32531 0.0
C1153 C 0.32207 0.87454 0.29921 0.0
C1154 C 0.32092 0.86801 0.28182 0.0
C1155 C 0.32313 0.88599 0.33181 0.0
C1156 C 0.3033 0.87627 0.32192 0.0
C1157 C 0.30309 0.87083 0.30572 0.0
C1158 C 0.2826 0.87182 0.32803 0.0
C1159 C 0.32471 0.89331 0.34909 0.0
C1160 C 0.27456 0.8587 0.3404 0.0
C1161 C 0.25485 0.8543 0.34586 0.0
C1162 C 0.24263 0.86269 0.33889 0.0
C1163 C 0.25066 0.87568 0.32641 0.0
C1164 C 0.27042 0.88019 0.32106 0.0
H1165 H 0.34151 0.90578 0.35368 0.0
H1166 H 0.31383 0.89989 0.351 0.0
H1167 H 0.31987 0.87941 0.35616 0.0
H1168 H 0.28338 0.8516 0.3457 0.0
H1169 H 0.24906 0.84408 0.35539 0.0
H1170 H 0.11171 0.52302 0.32947 0.0
H1171 H 0.12333 0.49803 0.33785 0.0
H1172 H 0.07596 0.4489 0.30264 0.0
H1173 H 0.06406 0.47368 0.29429 0.0
H1174 H 0.09871 0.45668 0.34894 0.0
H1175 H 0.13374 0.45305 0.29307 0.0
H1176 H 0.12731 0.4737 0.29838 0.0
H1177 H 0.10622 0.44733 0.29039 0.0
C1178 C 0.10361 0.50682 0.32362 0.0
C1179 C 0.08705 0.50036 0.31115 0.0
C1180 C 0.11034 0.49262 0.32838 0.0
C1181 C 0.10072 0.47177 0.3207 0.0
C1182 C 0.08387 0.46509 0.30849 0.0
H1183 H 0.11671 0.36168 0.3269 0.0
H1184 H 0.10551 0.38763 0.32086 0.0
C1185 C 0.07713 0.47927 0.30373 0.0
C1186 C 0.10835 0.457 0.32539 0.0
H1187 H 0.13121 0.42844 0.3114 0.0
C1188 C 0.10594 0.45057 0.3408 0.0
C1189 C 0.11781 0.44916 0.31472 0.0
C1190 C 0.12164 0.45628 0.29826 0.0
C1191 C 0.11219 0.43596 0.34567 0.0
C1192 C 0.12142 0.42793 0.33492 0.0
C1193 C 0.12407 0.43459 0.31959 0.0
C1194 C 0.12798 0.41217 0.33914 0.0
C1195 C 0.1083 0.42877 0.36211 0.0
C1196 C 0.14444 0.41744 0.35139 0.0
C1197 C 0.15091 0.40259 0.35492 0.0
C1198 C 0.14109 0.38229 0.34618 0.0
C1199 C 0.12463 0.37714 0.3339 0.0
C1200 C 0.11818 0.39195 0.33041 0.0
H1201 H 0.09657 0.43243 0.36745 0.0
H1202 H 0.10212 0.41124 0.36187 0.0
H1203 H 0.1238 0.43727 0.3699 0.0
H1204 H 0.15249 0.43313 0.35807 0.0
H1205 H 0.1637 0.40711 0.3644 0.0
H1206 H 0.3813 0.50703 0.29931 0.0
H1207 H 0.34338 0.48418 0.30429 0.0
H1208 H 0.35641 0.4335 0.31467 0.0
H1209 H 0.39425 0.45629 0.30952 0.0
H1210 H 0.31573 0.41878 0.29698 0.0
H1211 H 0.32882 0.47374 0.35034 0.0
H1212 H 0.33502 0.48629 0.3322 0.0
H1213 H 0.35085 0.47525 0.34016 0.0
C1214 C 0.37583 0.4908 0.30225 0.0
C1215 C 0.39042 0.48321 0.30394 0.0
C1216 C 0.3543 0.47787 0.30524 0.0
C1217 C 0.34719 0.4573 0.31012 0.0
C1218 C 0.36157 0.44934 0.31097 0.0
H1219 H 0.23933 0.38259 0.3636 0.0
H1220 H 0.27482 0.40458 0.35425 0.0
C1221 C 0.3831 0.46228 0.30797 0.0
C1222 C 0.32525 0.44458 0.3153 0.0
H1223 H 0.29331 0.44465 0.34355 0.0
C1224 C 0.31077 0.42443 0.30712 0.0
C1225 C 0.31899 0.45185 0.32872 0.0
C1226 C 0.33426 0.47287 0.33848 0.0
C1227 C 0.2901 0.41142 0.31192 0.0
C1228 C 0.28365 0.41892 0.32513 0.0
C1229 C 0.29821 0.439 0.33336 0.0
C1230 C 0.26205 0.40598 0.33082 0.0
C1231 C 0.27556 0.38953 0.30305 0.0
C1232 C 0.24309 0.39987 0.32087 0.0
C1233 C 0.2228 0.38726 0.32615 0.0
C1234 C 0.22103 0.38068 0.34157 0.0
C1235 C 0.24007 0.38735 0.35167 0.0
C1236 C 0.26038 0.3999 0.34634 0.0
H1237 H 0.28483 0.38399 0.2961 0.0
H1238 H 0.26664 0.37743 0.31133 0.0
H1239 H 0.26352 0.39033 0.29464 0.0
H1240 H 0.24398 0.40481 0.30899 0.0
H1241 H 0.20849 0.38256 0.31808 0.0
H1242 H 0.52933 0.91862 0.29062 0.0
H1243 H 0.55594 0.90655 0.29382 0.0
H1244 H 0.50799 0.84871 0.31175 0.0
H1245 H 0.48145 0.86055 0.30819 0.0
H1246 H 0.57108 0.90015 0.3213 0.0
H1247 H 0.53361 0.82427 0.28202 0.0
H1248 H 0.52451 0.8435 0.28075 0.0
H1249 H 0.51518 0.82442 0.29532 0.0
C1250 C 0.52444 0.90308 0.29481 0.0
C1251 C 0.50343 0.89029 0.29897 0.0
C1252 C 0.53961 0.89624 0.29671 0.0
C1253 C 0.53389 0.87654 0.3028 0.0
C1254 C 0.51265 0.86364 0.30661 0.0
H1255 H 0.61479 0.84325 0.35944 0.0
H1256 H 0.59009 0.85473 0.34872 0.0
C1257 C 0.49752 0.87043 0.30465 0.0
C1258 C 0.55052 0.8704 0.30669 0.0
H1259 H 0.56038 0.82867 0.30293 0.0
C1260 C 0.56887 0.88464 0.31709 0.0
C1261 C 0.54785 0.85028 0.30107 0.0
C1262 C 0.52933 0.83486 0.28904 0.0
C1263 C 0.58412 0.87896 0.32253 0.0
C1264 C 0.58066 0.85827 0.31776 0.0
C1265 C 0.56283 0.84439 0.30681 0.0
C1266 C 0.59517 0.85064 0.32419 0.0
C1267 C 0.60381 0.89524 0.33333 0.0
C1268 C 0.6056 0.84369 0.31394 0.0
C1269 C 0.61954 0.83683 0.32002 0.0
C1270 C 0.62331 0.83677 0.3365 0.0
C1271 C 0.61244 0.84328 0.34671 0.0
C1272 C 0.59842 0.85 0.3406 0.0
H1273 H 0.60746 0.9119 0.33185 0.0
H1274 H 0.60071 0.89233 0.34585 0.0
H1275 H 0.61827 0.89399 0.33104 0.0
H1276 H 0.60321 0.84388 0.30123 0.0
H1277 H 0.62761 0.83191 0.3118 0.0
H1278 H 0.07805 0.6049 0.34622 0.0
H1279 H 0.0941 0.64405 0.34802 0.0
H1280 H 0.10974 0.64398 0.29974 0.0
H1281 H 0.09354 0.60463 0.29795 0.0
H1282 H 0.13869 0.67308 0.34297 0.0
H1283 H 0.07963 0.68109 0.30206 0.0
H1284 H 0.07279 0.65647 0.31077 0.0
H1285 H 0.0896 0.66405 0.2948 0.0
C1286 C 0.08463 0.61328 0.33595 0.0
C1287 C 0.08453 0.60205 0.32192 0.0
C1288 C 0.09381 0.63555 0.33698 0.0
C1289 C 0.10294 0.64683 0.32398 0.0
C1290 C 0.10249 0.63549 0.30982 0.0
H1291 H 0.16598 0.78555 0.31787 0.0
H1292 H 0.15166 0.74699 0.31164 0.0
C1293 C 0.09332 0.61314 0.3088 0.0
C1294 C 0.11395 0.67055 0.32571 0.0
H1295 H 0.10983 0.7131 0.31416 0.0
C1296 C 0.13246 0.68187 0.33663 0.0
C1297 C 0.10585 0.68189 0.31729 0.0
C1298 C 0.0858 0.67035 0.30562 0.0
C1299 C 0.14295 0.70429 0.33956 0.0
C1300 C 0.1344 0.71559 0.33158 0.0
C1301 C 0.11627 0.70434 0.32029 0.0
C1302 C 0.14344 0.73896 0.33538 0.0
C1303 C 0.16312 0.71566 0.35114 0.0
C1304 C 0.14335 0.74714 0.35074 0.0
C1305 C 0.15154 0.76911 0.35436 0.0
C1306 C 0.15983 0.78332 0.34262 0.0
C1307 C 0.15978 0.77505 0.3272 0.0
C1308 C 0.15158 0.75304 0.3236 0.0
H1309 H 0.17102 0.70583 0.35253 0.0
H1310 H 0.17497 0.73139 0.34729 0.0
H1311 H 0.1587 0.71861 0.36294 0.0
H1312 H 0.13672 0.73647 0.35992 0.0
H1313 H 0.1512 0.7749 0.36633 0.0
H1314 H 0.84399 0.05941 0.41775 0.0
H1315 H 0.81725 0.02066 0.4145 0.0
H1316 H 0.78714 0.0291 0.37196 0.0
H1317 H 0.81371 0.06768 0.37522 0.0
H1318 H 0.76585 0.9975 0.40791 0.0
H1319 H 0.81068 0.98528 0.36093 0.0
H1320 H 0.82346 0.0079 0.37596 0.0
H1321 H 0.80572 0.00737 0.3598 0.0
C1322 C 0.83133 0.05295 0.40794 0.0
C1323 C 0.83063 0.06626 0.39676 0.0
C1324 C 0.81616 0.03093 0.40608 0.0
C1325 C 0.80037 0.02213 0.39295 0.0
C1326 C 0.79925 0.03566 0.38214 0.0
H1327 H 0.70973 0.89709 0.34618 0.0
H1328 H 0.73422 0.93529 0.35415 0.0
C1329 C 0.81432 0.05761 0.38403 0.0
C1330 C 0.78599 -0.00136 0.38979 0.0
H1331 H 0.77704 0.95558 0.36491 0.0
C1332 C 0.7683 0.98822 0.39861 0.0
C1333 C 0.78932 0.98675 0.37762 0.0
C1334 C 0.80838 0.99727 0.36805 0.0
C1335 C 0.75339 0.96615 0.39522 0.0
C1336 C 0.75662 0.95425 0.38292 0.0
C1337 C 0.77457 0.96472 0.37431 0.0
C1338 C 0.74133 0.93105 0.37842 0.0
C1339 C 0.73395 0.95596 0.40444 0.0
C1340 C 0.73734 0.91595 0.38938 0.0
C1341 C 0.72323 0.89406 0.38489 0.0
C1342 C 0.71306 0.88688 0.36928 0.0
C1343 C 0.71728 0.90205 0.35829 0.0
C1344 C 0.73128 0.92391 0.36283 0.0
H1345 H 0.73091 0.96817 0.41044 0.0
H1346 H 0.71919 0.94435 0.39658 0.0
H1347 H 0.73683 0.94714 0.41371 0.0
H1348 H 0.74532 0.92104 0.40137 0.0
H1349 H 0.72045 0.88279 0.39362 0.0
H1350 H 0.94287 0.75552 0.38219 0.0
H1351 H 0.98059 0.77028 0.37665 0.0
H1352 H 0.00221 0.80289 0.42398 0.0
H1353 H 0.9642 0.788 0.42954 0.0
H1354 H 0.01199 0.81584 0.37886 0.0
H1355 H 0.03732 0.77098 0.41801 0.0
H1356 H 0.00922 0.76178 0.41181 0.0
H1357 H 0.02401 0.78404 0.42673 0.0
C1358 C 0.95571 0.76561 0.39146 0.0
C1359 C 0.95086 0.77057 0.40629 0.0
C1360 C 0.9772 0.77408 0.38828 0.0
C1361 C 0.99419 0.78755 0.39993 0.0
C1362 C 0.98933 0.79229 0.41491 0.0
H1363 H 0.13358 0.84693 0.39358 0.0
H1364 H 0.09828 0.83603 0.40288 0.0
C1365 C 0.96772 0.78384 0.41807 0.0
C1366 C 0.01684 0.79727 0.39596 0.0
H1367 H 0.06352 0.79566 0.40301 0.0
C1368 C 0.02331 0.81153 0.38418 0.0
C1369 C 0.03159 0.79172 0.40302 0.0
C1370 C 0.02528 0.7762 0.41554 0.0
C1371 C 0.04409 0.82024 0.37913 0.0
C1372 C 0.05861 0.81409 0.38577 0.0
C1373 C 0.05234 0.80028 0.39787 0.0
C1374 C 0.08011 0.82128 0.37997 0.0
C1375 C 0.05031 0.83607 0.36683 0.0
C1376 C 0.08167 0.8165 0.364 0.0
C1377 C 0.10184 0.82281 0.3586 0.0
C1378 C 0.1209 0.83384 0.3691 0.0
C1379 C 0.11928 0.83853 0.38512 0.0
C1380 C 0.09909 0.83228 0.39049 0.0
H1381 H 0.04038 0.844 0.36666 0.0
H1382 H 0.06766 0.84865 0.36901 0.0
H1383 H 0.04751 0.82743 0.35491 0.0
H1384 H 0.06722 0.80758 0.35574 0.0
H1385 H 0.10243 0.81874 0.34624 0.0
H1386 H 0.24567 0.18595 0.41254 0.0
H1387 H 0.2279 0.20755 0.40931 0.0
H1388 H 0.2506 0.22127 0.36313 0.0
H1389 H 0.26823 0.19973 0.36634 0.0
H1390 H 0.24651 0.25241 0.40208 0.0
H1391 H 0.18354 0.19378 0.35543 0.0
H1392 H 0.19947 0.18682 0.36857 0.0
H1393 H 0.21083 0.20145 0.35192 0.0
C1394 C 0.24698 0.19383 0.40182 0.0
C1395 C 0.25821 0.1914 0.38967 0.0
C1396 C 0.23685 0.20606 0.39996 0.0
C1397 C 0.23772 0.2157 0.38588 0.0
C1398 C 0.2495 0.21368 0.37397 0.0
H1399 H 0.19114 0.29174 0.34288 0.0
H1400 H 0.20632 0.26909 0.34974 0.0
C1401 C 0.25964 0.20154 0.37584 0.0
C1402 C 0.22613 0.22768 0.38343 0.0
H1403 H 0.1864 0.22805 0.35922 0.0
C1404 C 0.23321 0.24703 0.39284 0.0
C1405 C 0.2088 0.22052 0.37136 0.0
C1406 C 0.20003 0.19941 0.36131 0.0
C1407 C 0.22397 0.25994 0.39006 0.0
C1408 C 0.20692 0.25299 0.37775 0.0
C1409 C 0.19951 0.23335 0.36861 0.0
C1410 C 0.19716 0.26627 0.37368 0.0
C1411 C 0.2331 0.28126 0.39989 0.0
C1412 C 0.1866 0.27184 0.38478 0.0
C1413 C 0.17797 0.28487 0.38093 0.0
C1414 C 0.17958 0.29239 0.36584 0.0
C1415 C 0.18965 0.28627 0.35461 0.0
C1416 C 0.19834 0.27333 0.35851 0.0
H1417 H 0.24928 0.28644 0.40617 0.0
H1418 H 0.23453 0.29395 0.39238 0.0
H1419 H 0.22206 0.27981 0.40896 0.0
H1420 H 0.18507 0.26614 0.39644 0.0
H1421 H 0.17018 0.28915 0.38982 0.0
H1422 H 0.5861 0.51098 0.71952 0.0
H1423 H 0.62037 0.53589 0.70974 0.0
H1424 H 0.65528 0.53307 0.75201 0.0
H1425 H 0.62107 0.50758 0.76165 0.0
H1426 H 0.65331 0.57581 0.72252 0.0
H1427 H 0.68295 0.51804 0.71643 0.0
H1428 H 0.65523 0.5098 0.71935 0.0
H1429 H 0.67583 0.52114 0.73592 0.0
C1430 C 0.60107 0.51554 0.7267 0.0
C1431 C 0.60085 0.50711 0.7413 0.0
C1432 C 0.62064 0.52987 0.72113 0.0
C1433 C 0.64038 0.536 0.73 0.0
C1434 C 0.64023 0.52819 0.74481 0.0
H1435 H 0.76659 0.64326 0.72073 0.0
H1436 H 0.73103 0.61807 0.72829 0.0
C1437 C 0.62066 0.51384 0.7504 0.0
C1438 C 0.66111 0.55062 0.72374 0.0
H1439 H 0.70825 0.55454 0.71348 0.0
C1440 C 0.66529 0.57114 0.72048 0.0
C1441 C 0.67653 0.54435 0.72079 0.0
C1442 C 0.67238 0.52206 0.72314 0.0
C1443 C 0.68476 0.58578 0.71477 0.0
C1444 C 0.70061 0.57986 0.71252 0.0
C1445 C 0.69616 0.55913 0.71535 0.0
C1446 C 0.72215 0.59517 0.7077 0.0
C1447 C 0.68807 0.60739 0.71106 0.0
C1448 C 0.72926 0.59041 0.6938 0.0
C1449 C 0.74976 0.60477 0.68946 0.0
C1450 C 0.76355 0.62409 0.699 0.0
C1451 C 0.75638 0.62865 0.713 0.0
C1452 C 0.73596 0.61431 0.71732 0.0
H1453 H 0.67241 0.60704 0.70889 0.0
H1454 H 0.69764 0.61944 0.72131 0.0
H1455 H 0.69705 0.61275 0.70048 0.0
H1456 H 0.71889 0.57564 0.68627 0.0
H1457 H 0.75477 0.60072 0.67864 0.0
H1458 H 0.53677 0.13068 0.73721 0.0
H1459 H 0.50922 0.13898 0.72705 0.0
H1460 H 0.46239 0.09043 0.75323 0.0
H1461 H 0.48959 0.08166 0.76317 0.0
H1462 H 0.46738 0.1094 0.7094 0.0
H1463 H 0.46026 0.14584 0.76651 0.0
H1464 H 0.48323 0.14263 0.76324 0.0
H1465 H 0.45813 0.11997 0.76712 0.0
C1466 C 0.52058 0.12167 0.74074 0.0
C1467 C 0.51547 0.10559 0.7511 0.0
C1468 C 0.5049 0.12651 0.73498 0.0
C1469 C 0.48388 0.11551 0.73957 0.0
C1470 C 0.47865 0.09938 0.7498 0.0
H1471 H 0.36612 0.12052 0.72035 0.0
H1472 H 0.39418 0.11268 0.72989 0.0
C1473 C 0.49426 0.09446 0.75551 0.0
C1474 C 0.46724 0.12057 0.73341 0.0
H1475 H 0.43471 0.13989 0.74488 0.0
C1476 C 0.46029 0.11617 0.71711 0.0
C1477 C 0.45799 0.1293 0.74354 0.0
C1478 C 0.46535 0.1349 0.76107 0.0
C1479 C 0.44397 0.11986 0.7107 0.0
C1480 C 0.43473 0.12866 0.72083 0.0
C1481 C 0.44178 0.13313 0.73713 0.0
C1482 C 0.41769 0.1333 0.7148 0.0
C1483 C 0.43636 0.11373 0.69323 0.0
C1484 C 0.42165 0.1477 0.70326 0.0
C1485 C 0.4056 0.15214 0.69771 0.0
C1486 C 0.38532 0.14245 0.70372 0.0
C1487 C 0.38151 0.12824 0.71543 0.0
C1488 C 0.39755 0.12374 0.72092 0.0
H1489 H 0.44055 0.10188 0.68816 0.0
H1490 H 0.41858 0.10684 0.69103 0.0
H1491 H 0.44437 0.12828 0.6868 0.0
H1492 H 0.43724 0.15567 0.69865 0.0
H1493 H 0.40918 0.1633 0.68879 0.0
H1494 H 0.94353 0.43169 0.71478 0.0
H1495 H 0.932 0.3948 0.70465 0.0
H1496 H 0.8893 0.37117 0.74142 0.0
H1497 H 0.8996 0.40782 0.75096 0.0
H1498 H 0.93586 0.36446 0.71803 0.0
H1499 H 0.84882 0.33557 0.70323 0.0
H1500 H 0.8685 0.36365 0.70808 0.0
H1501 H 0.85746 0.34636 0.7236 0.0
C1502 C 0.93136 0.41865 0.72053 0.0
C1503 C 0.9224 0.42279 0.73364 0.0
C1504 C 0.92493 0.39756 0.7148 0.0
C1505 C 0.90947 0.3802 0.72207 0.0
C1506 C 0.90082 0.38427 0.73534 0.0
H1507 H 0.88981 0.25189 0.7187 0.0
H1508 H 0.90168 0.28989 0.72461 0.0
C1509 C 0.90703 0.40531 0.74096 0.0
C1510 C 0.9029 0.35783 0.71616 0.0
H1511 H 0.85875 0.30843 0.70497 0.0
C1512 C 0.91901 0.35225 0.71502 0.0
C1513 C 0.88096 0.34199 0.7119 0.0
C1514 C 0.86298 0.34725 0.71159 0.0
C1515 C 0.91374 0.33111 0.71025 0.0
C1516 C 0.89169 0.31498 0.70704 0.0
C1517 C 0.87564 0.32072 0.70766 0.0
C1518 C 0.88485 0.292 0.70327 0.0
C1519 C 0.93188 0.32639 0.70855 0.0
C1520 C 0.87081 0.28031 0.68958 0.0
C1521 C 0.86361 0.25844 0.68635 0.0
C1522 C 0.87043 0.2479 0.6967 0.0
C1523 C 0.88449 0.25962 0.71039 0.0
C1524 C 0.89143 0.2814 0.71373 0.0
H1525 H 0.94695 0.34096 0.70614 0.0
H1526 H 0.93543 0.32107 0.71981 0.0
H1527 H 0.92749 0.31353 0.69882 0.0
H1528 H 0.86542 0.28812 0.68139 0.0
H1529 H 0.85281 0.24984 0.67569 0.0
H1530 H 0.1848 0.91731 0.61492 0.0
H1531 H 0.21327 0.95406 0.62406 0.0
H1532 H 0.17244 0.95912 0.65725 0.0
H1533 H 0.14378 0.92244 0.64809 0.0
H1534 H 0.21062 0.99156 0.62327 0.0
H1535 H 0.22958 0.97913 0.68489 0.0
H1536 H 0.21446 0.95716 0.66957 0.0
H1537 H 0.20141 0.96965 0.67941 0.0
C1538 C 0.18183 0.92626 0.62413 0.0
C1539 C 0.16199 0.91695 0.63076 0.0
C1540 C 0.19817 0.94721 0.6294 0.0
C1541 C 0.19507 0.9592 0.64147 0.0
C1542 C 0.17534 0.94997 0.64816 0.0
H1543 H 0.26693 0.08878 0.68707 0.0
H1544 H 0.24053 0.05136 0.67807 0.0
C1545 C 0.15898 0.92901 0.6429 0.0
C1546 C 0.21214 0.98169 0.64658 0.0
H1547 H 0.24512 0.01529 0.67872 0.0
C1548 C 0.2183 0.99675 0.63536 0.0
C1549 C 0.22207 0.98838 0.66236 0.0
C1550 C 0.21673 0.97272 0.67474 0.0
C1551 C 0.23374 0.01847 0.63961 0.0
C1552 C 0.24357 0.0252 0.65542 0.0
C1553 C 0.23754 0.01009 0.6666 0.0
C1554 C 0.25977 0.04795 0.66072 0.0
C1555 C 0.23892 0.03412 0.62723 0.0
C1556 C 0.27948 0.05841 0.65405 0.0
C1557 C 0.29464 0.07988 0.65912 0.0
C1558 C 0.29042 0.09123 0.67107 0.0
C1559 C 0.27073 0.08059 0.67783 0.0
C1560 C 0.2556 0.05916 0.67272 0.0
H1561 H 0.22626 0.0275 0.61695 0.0
H1562 H 0.24062 0.04947 0.63235 0.0
H1563 H 0.25449 0.03767 0.62277 0.0
H1564 H 0.28321 0.04992 0.64499 0.0
H1565 H 0.30968 0.08752 0.65374 0.0
H1566 H 0.06767 0.20701 0.64004 0.0
H1567 H 0.0333 0.19909 0.6498 0.0
H1568 H 0.0305 0.24564 0.62147 0.0
H1569 H 0.06523 0.2542 0.61197 0.0
H1570 H 0.02453 0.23127 0.66599 0.0
H1571 H 0.97057 0.18816 0.61044 0.0
H1572 H 0.99713 0.19119 0.61415 0.0
H1573 H 0.99442 0.21349 0.60866 0.0
C1574 C 0.05985 0.2157 0.63593 0.0
C1575 C 0.06931 0.23131 0.62523 0.0
C1576 C 0.04015 0.21104 0.64147 0.0
C1577 C 0.02933 0.22168 0.63627 0.0
C1578 C 0.0385 0.23706 0.62546 0.0
H1579 H 0.90815 0.21444 0.65374 0.0
H1580 H 0.94252 0.22208 0.64429 0.0
C1581 C 0.0583 0.24186 0.61999 0.0
C1582 C 0.00875 0.21708 0.64253 0.0
H1583 H 0.95458 0.19491 0.63188 0.0
C1584 C 0.00919 0.22326 0.65858 0.0
C1585 C 0.98886 0.20672 0.63279 0.0
C1586 C 0.98752 0.19933 0.61556 0.0
C1587 C 0.99026 0.21973 0.66511 0.0
C1588 C 0.97027 0.20919 0.65539 0.0
C1589 C 0.96988 0.20296 0.63933 0.0
C1590 C 0.94959 0.20478 0.66153 0.0
C1591 C 0.99199 0.22787 0.68221 0.0
C1592 C 0.94198 0.19236 0.67432 0.0
C1593 C 0.92235 0.1881 0.67987 0.0
C1594 C 0.90978 0.19591 0.67257 0.0
C1595 C 0.91737 0.20816 0.65966 0.0
C1596 C 0.93704 0.21254 0.65422 0.0
H1597 H 0.00876 0.24069 0.68654 0.0
H1598 H 0.98091 0.2343 0.68383 0.0
H1599 H 0.9875 0.21443 0.68971 0.0
H1600 H 0.95109 0.18574 0.67991 0.0
H1601 H 0.91691 0.17845 0.68973 0.0
H1602 H 0.73559 0.82476 0.66175 0.0
H1603 H 0.74717 0.80018 0.67103 0.0
H1604 H 0.79031 0.81583 0.63442 0.0
H1605 H 0.77968 0.84125 0.62557 0.0
H1606 H 0.74389 0.76473 0.65599 0.0
H1607 H 0.8303 0.82436 0.67333 0.0
H1608 H 0.81023 0.83206 0.66891 0.0
H1609 H 0.82187 0.82499 0.6531 0.0
C1610 C 0.74779 0.82324 0.65581 0.0
C1611 C 0.75683 0.83513 0.64298 0.0
C1612 C 0.75428 0.80906 0.66107 0.0
C1613 C 0.76991 0.80649 0.65362 0.0
C1614 C 0.77862 0.81796 0.6406 0.0
H1615 H 0.79238 0.69977 0.65471 0.0
H1616 H 0.78122 0.72582 0.64889 0.0
C1617 C 0.77226 0.83224 0.6354 0.0
C1618 C 0.77663 0.79131 0.65914 0.0
H1619 H 0.82085 0.78742 0.67129 0.0
C1620 C 0.7607 0.76972 0.65946 0.0
C1621 C 0.79851 0.79792 0.66397 0.0
C1622 C 0.81618 0.82114 0.66499 0.0
C1623 C 0.76613 0.75441 0.66397 0.0
C1624 C 0.78815 0.76079 0.66788 0.0
C1625 C 0.80401 0.7825 0.66808 0.0
C1626 C 0.79512 0.7451 0.67147 0.0
C1627 C 0.74817 0.73161 0.66463 0.0
C1628 C 0.80735 0.74772 0.68587 0.0
C1629 C 0.81405 0.73298 0.68917 0.0
C1630 C 0.8086 0.71536 0.6781 0.0
C1631 C 0.79662 0.71299 0.66359 0.0
C1632 C 0.79009 0.7278 0.66027 0.0
H1633 H 0.73255 0.73089 0.66626 0.0
H1634 H 0.746 0.72203 0.65328 0.0
H1635 H 0.752 0.72406 0.67444 0.0
H1636 H 0.81155 0.76107 0.69463 0.0
H1637 H 0.82327 0.73528 0.70045 0.0
H1638 H 0.05394 0.79207 0.62555 0.0
H1639 H 0.01574 0.76927 0.63009 0.0
H1640 H 0.02032 0.82053 0.66191 0.0
H1641 H 0.0582 0.8433 0.65712 0.0
H1642 H 0.00024 0.75565 0.65823 0.0
H1643 H 0.96455 0.80252 0.63452 0.0
H1644 H 0.99096 0.80741 0.63037 0.0
H1645 H 0.98756 0.81836 0.64883 0.0
C1646 C 0.04654 0.79849 0.63324 0.0
C1647 C 0.05868 0.81938 0.64086 0.0
C1648 C 0.02483 0.7855 0.63588 0.0
C1649 C 0.01505 0.7933 0.64616 0.0
C1650 C 0.02729 0.81433 0.65362 0.0
H1651 H 0.90507 0.71899 0.69818 0.0
H1652 H 0.94096 0.74184 0.68973 0.0
C1653 C 0.04892 0.82729 0.65095 0.0
C1654 C 0.99258 0.77907 0.64997 0.0
H1655 H 0.94338 0.77569 0.6513 0.0
C1656 C 0.98775 0.75994 0.65658 0.0
C1657 C 0.97622 0.78455 0.64768 0.0
C1658 C 0.97999 0.80422 0.63981 0.0
C1659 C 0.96719 0.74644 0.66134 0.0
C1660 C 0.95115 0.75245 0.65976 0.0
C1661 C 0.95578 0.77127 0.65274 0.0
C1662 C 0.92935 0.73924 0.66507 0.0
C1663 C 0.96278 0.72574 0.66787 0.0
C1664 C 0.91084 0.73082 0.65414 0.0
C1665 C 0.89029 0.71793 0.65896 0.0
C1666 C 0.88782 0.71324 0.67484 0.0
C1667 C 0.90637 0.72214 0.68585 0.0
C1668 C 0.92693 0.73509 0.68101 0.0
H1669 H 0.97441 0.72072 0.6643 0.0
H1670 H 0.96445 0.72806 0.68102 0.0
H1671 H 0.94609 0.71257 0.66377 0.0
H1672 H 0.91231 0.73391 0.6418 0.0
H1673 H 0.87639 0.7114 0.65014 0.0
H1674 H 0.17481 0.23307 0.663 0.0
H1675 H 0.19912 0.2185 0.66645 0.0
H1676 H 0.19875 0.21054 0.61563 0.0
H1677 H 0.17436 0.22539 0.61219 0.0
H1678 H 0.19074 0.17735 0.65427 0.0
H1679 H 0.26398 0.24345 0.63243 0.0
H1680 H 0.24183 0.2468 0.63805 0.0
H1681 H 0.2391 0.2319 0.61956 0.0
C1682 C 0.18008 0.22835 0.65259 0.0
C1683 C 0.17298 0.23037 0.63736 0.0
C1684 C 0.19388 0.21999 0.65456 0.0
C1685 C 0.20087 0.21359 0.64132 0.0
C1686 C 0.19378 0.21567 0.62601 0.0
H1687 H 0.29165 0.16468 0.64465 0.0
H1688 H 0.26533 0.1748 0.63489 0.0
C1689 C 0.17987 0.22405 0.62404 0.0
C1690 C 0.21516 0.20434 0.64381 0.0
H1691 H 0.26696 0.21477 0.64173 0.0
C1692 C 0.20736 0.18543 0.6514 0.0
C1693 C 0.23678 0.21485 0.63999 0.0
C1694 C 0.24609 0.23545 0.63215 0.0
C1695 C 0.22074 0.17702 0.65562 0.0
C1696 C 0.24261 0.188 0.65239 0.0
C1697 C 0.2502 0.20644 0.64424 0.0
C1698 C 0.25814 0.18132 0.65823 0.0
C1699 C 0.21141 0.15651 0.6636 0.0
C1700 C 0.26294 0.18182 0.6746 0.0
C1701 C 0.27798 0.17611 0.68023 0.0
C1702 C 0.28859 0.16983 0.6696 0.0
C1703 C 0.28372 0.16934 0.65318 0.0
C1704 C 0.26872 0.17515 0.64757 0.0
H1705 H 0.19349 0.14701 0.66116 0.0
H1706 H 0.21824 0.14639 0.65961 0.0
H1707 H 0.21549 0.16052 0.67663 0.0
H1708 H 0.25524 0.18691 0.68304 0.0
H1709 H 0.28137 0.17675 0.69293 0.0
H1710 H 0.74206 0.93637 0.67911 0.0
H1711 H 0.75724 0.97543 0.68206 0.0
H1712 H 0.77919 0.97922 0.63552 0.0
H1713 H 0.76386 0.93999 0.63256 0.0
H1714 H 0.80226 0.00572 0.68036 0.0
H1715 H 0.74796 0.0151 0.63564 0.0
H1716 H 0.74044 0.98985 0.64358 0.0
H1717 H 0.7594 -0.00089 0.62901 0.0
C1718 C 0.74982 0.94558 0.66944 0.0
C1719 C 0.75175 0.93546 0.65558 0.0
C1720 C 0.75851 0.9678 0.67114 0.0
C1721 C 0.76915 0.98014 0.65896 0.0
C1722 C 0.77073 0.96991 0.64494 0.0
H1723 H 0.83414 0.11856 0.65394 0.0
H1724 H 0.81929 0.07989 0.6482 0.0
C1725 C 0.76205 0.94762 0.64326 0.0
C1726 C 0.77969 0.00381 0.66144 0.0
H1727 H 0.77733 0.04687 0.64895 0.0
C1728 C 0.79685 0.01475 0.6735 0.0
C1729 C 0.77266 0.01547 0.65236 0.0
C1730 C 0.75401 0.00436 0.63947 0.0
C1731 C 0.80718 0.03713 0.67678 0.0
C1732 C 0.7998 0.04877 0.66798 0.0
C1733 C 0.78289 0.03787 0.65571 0.0
C1734 C 0.80909 0.07222 0.67158 0.0
C1735 C 0.82608 0.04809 0.6895 0.0
C1736 C 0.80808 0.08069 0.68659 0.0
C1737 C 0.81664 0.10278 0.68995 0.0
C1738 C 0.82616 0.11679 0.67829 0.0
C1739 C 0.82697 0.10823 0.66321 0.0
C1740 C 0.81847 0.08613 0.65988 0.0
H1741 H 0.83359 0.03807 0.69174 0.0
H1742 H 0.83866 0.06387 0.68621 0.0
H1743 H 0.82031 0.05086 0.70074 0.0
H1744 H 0.80047 0.07018 0.69567 0.0
H1745 H 0.81559 0.10881 0.70164 0.0
H1746 H 0.47743 0.4028 0.74474 0.0
H1747 H 0.45075 0.36419 0.7435 0.0
H1748 H 0.49328 0.34962 0.71844 0.0
H1749 H 0.51992 0.38798 0.71996 0.0
H1750 H 0.43005 0.33725 0.71689 0.0
H1751 H 0.4758 0.30686 0.75107 0.0
H1752 H 0.48431 0.33507 0.75189 0.0
H1753 H 0.49075 0.32246 0.73587 0.0
C1754 C 0.48112 0.39121 0.73928 0.0
C1755 C 0.50062 0.39805 0.73258 0.0
C1756 C 0.46594 0.36925 0.73854 0.0
C1757 C 0.47018 0.35398 0.73113 0.0
C1758 C 0.48989 0.36101 0.72461 0.0
H1759 H 0.38442 0.23134 0.68062 0.0
H1760 H 0.40871 0.26908 0.69002 0.0
C1761 C 0.50503 0.38288 0.72539 0.0
C1762 C 0.45341 0.33088 0.72891 0.0
H1763 H 0.44563 0.28069 0.73285 0.0
C1764 C 0.43333 0.32489 0.7206 0.0
C1765 C 0.45755 0.31474 0.73394 0.0
C1766 C 0.47819 0.32012 0.74384 0.0
C1767 C 0.41771 0.30321 0.7165 0.0
C1768 C 0.4225 0.28711 0.72053 0.0
C1769 C 0.44211 0.29305 0.72955 0.0
C1770 C 0.40775 0.26411 0.71495 0.0
C1771 C 0.39629 0.29778 0.70781 0.0
C1772 C 0.39971 0.24864 0.72582 0.0
C1773 C 0.38596 0.22695 0.72047 0.0
C1774 C 0.38007 0.22034 0.70413 0.0
C1775 C 0.38844 0.23587 0.69329 0.0
C1776 C 0.40223 0.2575 0.69864 0.0
H1777 H 0.39255 0.31087 0.7101 0.0
H1778 H 0.39702 0.29567 0.69486 0.0
H1779 H 0.38286 0.28266 0.71133 0.0
H1780 H 0.40393 0.25339 0.73846 0.0
H1781 H 0.37984 0.2154 0.72915 0.0
H1782 H 0.62259 0.08439 0.75346 0.0
H1783 H 0.66051 0.0983 0.74832 0.0
H1784 H 0.66029 0.15093 0.72655 0.0
H1785 H 0.6227 0.13729 0.73202 0.0
H1786 H 0.67522 0.10235 0.7196 0.0
H1787 H 0.71715 0.18219 0.75415 0.0
H1788 H 0.69003 0.1618 0.75708 0.0
H1789 H 0.69462 0.17845 0.74106 0.0
C1790 C 0.63094 0.09924 0.74798 0.0
C1791 C 0.62006 0.11004 0.74333 0.0
C1792 C 0.65249 0.10711 0.74496 0.0
C1793 C 0.6634 0.12586 0.73724 0.0
C1794 C 0.65249 0.1368 0.73289 0.0
H1795 H 0.77034 0.15815 0.6803 0.0
H1796 H 0.73517 0.14678 0.69007 0.0
C1797 C 0.63102 0.12898 0.73597 0.0
C1798 C 0.68546 0.13299 0.73252 0.0
H1799 H 0.73635 0.17651 0.73404 0.0
C1800 C 0.68864 0.11851 0.72289 0.0
C1801 C 0.70306 0.15401 0.73691 0.0
C1802 C 0.70113 0.16993 0.748 0.0
C1803 C 0.70873 0.1246 0.71723 0.0
C1804 C 0.72601 0.14594 0.72097 0.0
C1805 C 0.72302 0.16026 0.73095 0.0
C1806 C 0.74746 0.15359 0.71493 0.0
C1807 C 0.71129 0.108 0.70747 0.0
C1808 C 0.76622 0.16198 0.72561 0.0
C1809 C 0.78638 0.16876 0.72006 0.0
C1810 C 0.78826 0.1673 0.70368 0.0
C1811 C 0.7695 0.15934 0.69298 0.0
C1812 C 0.74933 0.15268 0.69856 0.0
H1813 H 0.69893 0.09141 0.70951 0.0
H1814 H 0.70921 0.10985 0.69469 0.0
H1815 H 0.7276 0.11001 0.71025 0.0
H1816 H 0.76522 0.16297 0.73828 0.0
H1817 H 0.80042 0.17483 0.72867 0.0
H1818 H 0.91333 0.5197 0.74635 0.0
H1819 H 0.89488 0.54065 0.74299 0.0
H1820 H 0.91625 0.55331 0.69635 0.0
H1821 H 0.93454 0.53241 0.69969 0.0
H1822 H 0.91258 0.58501 0.73527 0.0
H1823 H 0.84922 0.52533 0.68933 0.0
H1824 H 0.86564 0.51885 0.70238 0.0
H1825 H 0.87644 0.53318 0.6855 0.0
C1826 C 0.91417 0.52718 0.73549 0.0
C1827 C 0.92524 0.52465 0.72326 0.0
C1828 C 0.90366 0.53904 0.73356 0.0
C1829 C 0.90397 0.54821 0.71933 0.0
C1830 C 0.91556 0.54607 0.70731 0.0
H1831 H 0.85681 0.62316 0.67562 0.0
H1832 H 0.87191 0.60056 0.68277 0.0
C1833 C 0.92608 0.5343 0.70925 0.0
C1834 C 0.89211 0.55993 0.71685 0.0
H1835 H 0.85196 0.55962 0.69268 0.0
C1836 C 0.89916 0.5794 0.7261 0.0
C1837 C 0.87462 0.55247 0.70487 0.0
C1838 C 0.86586 0.53122 0.69502 0.0
C1839 C 0.88975 0.59214 0.72322 0.0
C1840 C 0.87257 0.58491 0.71097 0.0
C1841 C 0.86517 0.56514 0.70202 0.0
C1842 C 0.86275 0.59808 0.70672 0.0
C1843 C 0.89885 0.6136 0.73285 0.0
C1844 C 0.85221 0.60382 0.71772 0.0
C1845 C 0.84362 0.61683 0.71369 0.0
C1846 C 0.84527 0.62416 0.69853 0.0
C1847 C 0.8553 0.61785 0.68741 0.0
C1848 C 0.86394 0.60492 0.69147 0.0
H1849 H 0.91504 0.6189 0.73917 0.0
H1850 H 0.90024 0.62613 0.72518 0.0
H1851 H 0.8878 0.61229 0.74188 0.0
H1852 H 0.85069 0.5983 0.72943 0.0
H1853 H 0.83586 0.62127 0.72251 0.0
H1854 H 0.43977 0.94055 0.25136 0.0
H1855 H 0.44864 0.95351 0.22536 0.0
H1856 H 0.47827 0.91468 0.21795 0.0
H1857 H 0.46898 0.90117 0.24391 0.0
H1858 H 0.49042 0.97566 0.21483 0.0
H1859 H 0.43625 0.89905 0.1772 0.0
H1860 H 0.43298 0.90303 0.19782 0.0
H1861 H 0.45416 0.89811 0.19257 0.0
C1862 C 0.44789 0.93448 0.24412 0.0
C1863 C 0.45346 0.91963 0.24967 0.0
C1864 C 0.45309 0.94204 0.22931 0.0
C1865 C 0.46387 0.93487 0.21963 0.0
C1866 C 0.46963 0.92017 0.22512 0.0
H1867 H 0.50366 0.96703 0.12479 0.0
H1868 H 0.49669 0.95159 0.15024 0.0
C1869 C 0.46449 0.91262 0.24001 0.0
C1870 C 0.46951 0.94336 0.20402 0.0
H1871 H 0.45858 0.92916 0.164 0.0
C1872 C 0.4835 0.96549 0.20371 0.0
C1873 C 0.46055 0.93005 0.18954 0.0
C1874 C 0.44501 0.90625 0.18918 0.0
C1875 C 0.48874 0.9747 0.18932 0.0
C1876 C 0.47935 0.96149 0.17481 0.0
C1877 C 0.4657 0.93927 0.17512 0.0
C1878 C 0.48314 0.97053 0.15924 0.0
C1879 C 0.50452 -0.00153 0.18982 0.0
C1880 C 0.47743 0.98599 0.15569 0.0
C1881 C 0.48138 0.99484 0.14118 0.0
C1882 C 0.49093 0.98825 0.1298 0.0
C1883 C 0.49615 0.97237 0.13323 0.0
C1884 C 0.49226 0.96358 0.1478 0.0
H1885 H 0.5149 0.00489 0.20131 0.0
H1886 H 0.51509 0.00202 0.18007 0.0
H1887 H 0.49537 0.0071 0.18843 0.0
H1888 H 0.46983 0.99118 0.16415 0.0
H1889 H 0.47675 0.0067 0.1388 0.0
H1890 H 0.04559 0.49628 0.26318 0.0
H1891 H 0.03683 0.49503 0.23474 0.0
H1892 H 0.07313 0.56421 0.23779 0.0
H1893 H 0.0824 0.56561 0.26639 0.0
H1894 H 0.01505 0.51455 0.2195 0.0
H1895 H 0.09807 0.54432 0.20167 0.0
H1896 H 0.0906 0.53423 0.22065 0.0
H1897 H 0.09496 0.56035 0.21717 0.0
C1898 C 0.05192 0.51125 0.25779 0.0
C1899 C 0.0649 0.53104 0.267 0.0
C1900 C 0.04678 0.5105 0.24156 0.0
C1901 C 0.05456 0.5295 0.23414 0.0
C1902 C 0.06724 0.54936 0.24328 0.0
H1903 H 0.03532 0.53893 0.13224 0.0
H1904 H 0.04726 0.54813 0.16074 0.0
C1905 C 0.07236 0.55013 0.25961 0.0
C1906 C 0.04897 0.52819 0.21686 0.0
H1907 H 0.0701 0.53475 0.18125 0.0
C1908 C 0.02709 0.51912 0.21113 0.0
C1909 C 0.06475 0.53428 0.20601 0.0
C1910 C 0.08843 0.54373 0.21159 0.0
C1911 C 0.02049 0.51556 0.1948 0.0
C1912 C 0.03616 0.52082 0.18392 0.0
C1913 C 0.05813 0.53063 0.18964 0.0
C1914 C 0.02984 0.5153 0.16659 0.0
C1915 C 0.99677 0.50614 0.18935 0.0
C1916 C 0.01661 0.49377 0.16042 0.0
C1917 C 0.00984 0.48847 0.1442 0.0
C1918 C 0.01629 0.50459 0.13379 0.0
C1919 C 0.03017 0.52612 0.13993 0.0
C1920 C 0.03692 0.53142 0.1562 0.0
H1921 H 0.98803 0.50887 0.19875 0.0
H1922 H 0.99447 0.51312 0.17856 0.0
H1923 H 0.98931 0.48854 0.18644 0.0
H1924 H 0.01141 0.48104 0.16818 0.0
H1925 H 0.99953 0.47171 0.13981 0.0
H1926 H 0.498 0.53829 0.25676 0.0
H1927 H 0.49989 0.52888 0.22917 0.0
H1928 H 0.43038 0.49784 0.22029 0.0
H1929 H 0.42843 0.5081 0.24799 0.0
H1930 H 0.48345 0.49111 0.21126 0.0
H1931 H 0.44991 0.53979 0.18668 0.0
H1932 H 0.45783 0.54173 0.20758 0.0
H1933 H 0.43272 0.51933 0.19857 0.0
C1934 C 0.48307 0.5296 0.24894 0.0
C1935 C 0.46309 0.52436 0.2545 0.0
C1936 C 0.48418 0.52406 0.23318 0.0
C1937 C 0.46534 0.51301 0.22255 0.0
C1938 C 0.44519 0.50679 0.22819 0.0
H1939 H 0.48205 0.47191 0.12697 0.0
H1940 H 0.46885 0.47071 0.15308 0.0
C1941 C 0.44407 0.51245 0.24405 0.0
C1942 C 0.46733 0.50874 0.20557 0.0
H1943 H 0.46089 0.52227 0.16848 0.0
C1944 C 0.47831 0.49772 0.20185 0.0
C1945 C 0.46083 0.5176 0.19336 0.0
C1946 C 0.44982 0.53043 0.19668 0.0
C1947 C 0.48367 0.49594 0.18642 0.0
C1948 C 0.47731 0.50492 0.17421 0.0
C1949 C 0.46567 0.51532 0.17782 0.0
C1950 C 0.48404 0.50524 0.15795 0.0
C1951 C 0.4971 0.48547 0.18356 0.0
C1952 C 0.49625 0.52496 0.15171 0.0
C1953 C 0.50351 0.52565 0.13673 0.0
C1954 C 0.49879 0.50662 0.12769 0.0
C1955 C 0.48621 0.48684 0.13379 0.0
C1956 C 0.47872 0.48615 0.14872 0.0
H1957 H 0.50508 0.48429 0.19482 0.0
H1958 H 0.48646 0.46895 0.17772 0.0
H1959 H 0.50977 0.49456 0.1757 0.0
H1960 H 0.50057 0.5399 0.15859 0.0
H1961 H 0.51329 0.54113 0.1324 0.0
H1962 H 0.91015 0.45007 0.78396 0.0
H1963 H 0.91824 0.45661 0.81284 0.0
H1964 H 0.97924 0.51313 0.8078 0.0
H1965 H 0.97105 0.5068 0.7789 0.0
H1966 H 0.95194 0.45583 0.82824 0.0
H1967 H 0.95826 0.53457 0.8439 0.0
H1968 H 0.94579 0.51916 0.82492 0.0
H1969 H 0.97478 0.53522 0.82865 0.0
C1970 C 0.9251 0.46412 0.78905 0.0
C1971 C 0.94001 0.4779 0.77921 0.0
C1972 C 0.92969 0.46785 0.80553 0.0
C1973 C 0.94927 0.48543 0.8125 0.0
C1974 C 0.96381 0.49973 0.80272 0.0
H1975 H 0.02269 0.51858 0.90436 0.0
H1976 H 0.00916 0.51674 0.8768 0.0
C1977 C 0.95915 0.49608 0.7862 0.0
C1978 C 0.95545 0.48737 0.82979 0.0
H1979 H 0.97256 0.52143 0.86387 0.0
C1980 C 0.9562 0.47008 0.83606 0.0
C1981 C 0.96114 0.50603 0.83996 0.0
C1982 C 0.95977 0.52472 0.83406 0.0
C1983 C 0.9629 0.4711 0.85212 0.0
C1984 C 0.96882 0.48983 0.86224 0.0
C1985 C 0.96798 0.5071 0.85605 0.0
C1986 C 0.97645 0.49186 0.8792 0.0
C1987 C 0.96419 0.45238 0.85808 0.0
C1988 C 0.96239 0.4787 0.88971 0.0
C1989 C 0.97001 0.4798 0.90551 0.0
C1990 C 0.99184 0.4941 0.91109 0.0
C1991 C 0.00573 0.50756 0.90055 0.0
C1992 C 0.99808 0.5065 0.88477 0.0
H1993 H 0.96319 0.44103 0.8482 0.0
H1994 H 0.97951 0.45808 0.86582 0.0
H1995 H 0.95055 0.44345 0.86524 0.0
H1996 H 0.94556 0.46748 0.88565 0.0
H1997 H 0.95877 0.46949 0.91337 0.0
H1998 H 0.51817 0.46681 0.77838 0.0
H1999 H 0.51096 0.47065 0.80581 0.0
H2000 H 0.57692 0.48987 0.82212 0.0
H2001 H 0.58426 0.48591 0.79473 0.0
H2002 H 0.51516 0.45077 0.83258 0.0
H2003 H 0.56964 0.5393 0.84118 0.0
H2004 H 0.56112 0.52432 0.82183 0.0
H2005 H 0.58212 0.52432 0.83462 0.0
C2006 C 0.5311 0.47161 0.78781 0.0
C2007 C 0.55185 0.47618 0.78433 0.0
C2008 C 0.52696 0.4739 0.80347 0.0
C2009 C 0.54349 0.48089 0.81598 0.0
C2010 C 0.56406 0.48492 0.81262 0.0
H2011 H 0.54861 0.51211 0.91751 0.0
H2012 H 0.55671 0.50477 0.89107 0.0
C2013 C 0.56822 0.48265 0.79695 0.0
C2014 C 0.53919 0.48411 0.8325 0.0
H2015 H 0.55349 0.52236 0.86361 0.0
C2016 C 0.52351 0.46642 0.83938 0.0
C2017 C 0.55016 0.50453 0.84135 0.0
C2018 C 0.56658 0.52428 0.83437 0.0
C2019 C 0.51863 0.46856 0.85492 0.0
C2020 C 0.52943 0.48903 0.86371 0.0
C2021 C 0.54525 0.50668 0.85687 0.0
C2022 C 0.52423 0.49264 0.87986 0.0
C2023 C 0.50221 0.44881 0.86188 0.0
C2024 C 0.50332 0.48839 0.88235 0.0
C2025 C 0.4986 0.49242 0.89746 0.0
C2026 C 0.51474 0.50097 0.91042 0.0
C2027 C 0.5357 0.50524 0.90787 0.0
C2028 C 0.54041 0.50119 0.89274 0.0
H2029 H 0.50014 0.43387 0.85559 0.0
H2030 H 0.50696 0.44929 0.87467 0.0
H2031 H 0.4863 0.44804 0.86069 0.0
H2032 H 0.49068 0.4822 0.87254 0.0
H2033 H 0.48224 0.48875 0.899 0.0
H2034 H 0.51071 0.06197 0.79118 0.0
H2035 H 0.50697 0.04918 0.81738 0.0
H2036 H 0.57643 0.08238 0.82754 0.0
H2037 H 0.58033 0.09597 0.80129 0.0
H2038 H 0.52131 0.02405 0.83049 0.0
H2039 H 0.55739 0.10355 0.86585 0.0
H2040 H 0.54961 0.09991 0.84476 0.0
H2041 H 0.57413 0.10073 0.8521 0.0
C2042 C 0.52525 0.06685 0.79903 0.0
C2043 C 0.54584 0.08035 0.79422 0.0
C2044 C 0.52307 0.05935 0.81398 0.0
C2045 C 0.54138 0.06506 0.82454 0.0
C2046 C 0.56204 0.0781 0.8197 0.0
H2047 H 0.52585 -0.00182 0.9105 0.0
H2048 H 0.53795 0.01323 0.88548 0.0
C2049 C 0.56426 0.08568 0.80465 0.0
C2050 C 0.53843 0.05706 0.84049 0.0
H2051 H 0.54521 0.07313 0.8801 0.0
C2052 C 0.5267 0.03478 0.84136 0.0
C2053 C 0.54523 0.07108 0.85463 0.0
C2054 C 0.55714 0.09516 0.85439 0.0
C2055 C 0.52121 0.02612 0.85592 0.0
C2056 C 0.52805 0.04013 0.87008 0.0
C2057 C 0.5401 0.06242 0.86925 0.0
C2058 C 0.52189 0.03196 0.88575 0.0
C2059 C 0.50737 0.00208 0.85589 0.0
C2060 C 0.50946 0.03805 0.89453 0.0
C2061 C 0.50264 0.02958 0.90889 0.0
C2062 C 0.50808 0.01481 0.91476 0.0
C2063 C 0.521 0.00917 0.90614 0.0
C2064 C 0.52794 0.01776 0.89184 0.0
H2065 H 0.49912 0.99418 0.8439 0.0
H2066 H 0.51777 0.99539 0.85967 0.0
H2067 H 0.4949 0.99791 0.86429 0.0
H2068 H 0.50463 0.04901 0.89008 0.0
H2069 H 0.49262 0.03416 0.91519 0.0
H2070 H 0.13879 0.23807 0.57873 0.0
H2071 H 0.14821 0.25144 0.55269 0.0
H2072 H 0.11504 0.28717 0.55846 0.0
H2073 H 0.1059 0.27427 0.58444 0.0
H2074 H 0.11872 0.24764 0.52531 0.0
H2075 H 0.17688 0.3322 0.54858 0.0
H2076 H 0.16855 0.31017 0.56075 0.0
H2077 H 0.15105 0.32084 0.55632 0.0
C2078 C 0.1336 0.24885 0.57446 0.0
C2079 C 0.12155 0.25505 0.58366 0.0
C2080 C 0.1389 0.25639 0.55958 0.0
C2081 C 0.1325 0.27047 0.55374 0.0
C2082 C 0.12034 0.27651 0.56282 0.0
H2083 H 0.14469 0.34014 0.47213 0.0
H2084 H 0.13732 0.3243 0.49736 0.0
C2085 C 0.11495 0.26893 0.57761 0.0
C2086 C 0.13836 0.27888 0.53815 0.0
H2087 H 0.16599 0.32548 0.52087 0.0
C2088 C 0.12922 0.26462 0.52429 0.0
C2089 C 0.15201 0.30104 0.5369 0.0
C2090 C 0.16287 0.31698 0.55142 0.0
C2091 C 0.13277 0.27205 0.50917 0.0
C2092 C 0.14618 0.29429 0.50792 0.0
C2093 C 0.15565 0.30846 0.52182 0.0
C2094 C 0.15027 0.30336 0.49235 0.0
C2095 C 0.12147 0.25612 0.4947 0.0
C2096 C 0.16014 0.29698 0.48115 0.0
C2097 C 0.16436 0.30602 0.46669 0.0
C2098 C 0.15903 0.3218 0.46321 0.0
C2099 C 0.14922 0.32821 0.47449 0.0
C2100 C 0.14492 0.3191 0.4889 0.0
H2101 H 0.10758 0.24091 0.49768 0.0
H2102 H 0.1155 0.26291 0.48555 0.0
H2103 H 0.13308 0.25218 0.4895 0.0
H2104 H 0.16491 0.28527 0.4837 0.0
H2105 H 0.17225 0.30097 0.45838 0.0
H2106 H 0.76643 0.86702 0.59284 0.0
H2107 H 0.7577 0.86471 0.5642 0.0
H2108 H 0.70119 0.8693 0.57233 0.0
H2109 H 0.70974 0.87152 0.60098 0.0
H2110 H 0.71994 0.83224 0.54734 0.0
H2111 H 0.72845 0.91187 0.53936 0.0
H2112 H 0.73976 0.90662 0.55705 0.0
H2113 H 0.71143 0.89815 0.55437 0.0
C2114 C 0.75224 0.86773 0.58853 0.0
C2115 C 0.73872 0.86938 0.59918 0.0
C2116 C 0.74733 0.86649 0.57217 0.0
C2117 C 0.72892 0.86703 0.56613 0.0
C2118 C 0.71573 0.86931 0.57673 0.0
H2119 H 0.65736 0.84261 0.47447 0.0
H2120 H 0.6716 0.85133 0.50247 0.0
C2121 C 0.72064 0.87057 0.59311 0.0
C2122 C 0.72252 0.86337 0.54878 0.0
H2123 H 0.71084 0.88497 0.51744 0.0
C2124 C 0.71815 0.84385 0.54076 0.0
C2125 C 0.72011 0.8785 0.54027 0.0
C2126 C 0.72537 0.90005 0.54815 0.0
C2127 C 0.71087 0.83879 0.52452 0.0
C2128 C 0.70828 0.85384 0.51601 0.0
C2129 C 0.71286 0.87347 0.524 0.0
C2130 C 0.70017 0.8492 0.49892 0.0
C2131 C 0.70532 0.81708 0.51674 0.0
C2132 C 0.71169 0.84542 0.4876 0.0
C2133 C 0.70347 0.8402 0.47158 0.0
C2134 C 0.68364 0.8388 0.46658 0.0
C2135 C 0.67245 0.84314 0.47794 0.0
C2136 C 0.68066 0.84831 0.49394 0.0
H2137 H 0.70314 0.80557 0.52562 0.0
H2138 H 0.69028 0.81012 0.50846 0.0
H2139 H 0.71868 0.81888 0.50983 0.0
H2140 H 0.72697 0.84639 0.49116 0.0
H2141 H 0.71246 0.83687 0.46318 0.0
H2142 H 0.11915 0.88727 0.57768 0.0
H2143 H 0.12237 0.87973 0.54983 0.0
H2144 H 0.1274 0.82474 0.56149 0.0
H2145 H 0.12368 0.83199 0.58931 0.0
H2146 H 0.15785 0.88181 0.54016 0.0
H2147 H 0.08829 0.80089 0.52041 0.0
H2148 H 0.08936 0.81633 0.5383 0.0
H2149 H 0.1034 0.80139 0.53829 0.0
C2150 C 0.12036 0.87325 0.5742 0.0
C2151 C 0.12117 0.86021 0.58563 0.0
C2152 C 0.12224 0.86897 0.5583 0.0
C2153 C 0.12504 0.85161 0.55351 0.0
C2154 C 0.12478 0.83794 0.56479 0.0
H2155 H 0.19662 0.84988 0.47557 0.0
H2156 H 0.18352 0.85091 0.50127 0.0
C2157 C 0.12269 0.84211 0.5807 0.0
C2158 C 0.13079 0.84946 0.53724 0.0
H2159 H 0.11757 0.81447 0.50408 0.0
C2160 C 0.14889 0.86713 0.53223 0.0
C2161 C 0.11905 0.83037 0.52683 0.0
C2162 C 0.09881 0.81124 0.53115 0.0
C2163 C 0.15582 0.86615 0.51727 0.0
C2164 C 0.14468 0.84677 0.50714 0.0
C2165 C 0.12627 0.82923 0.51195 0.0
C2166 C 0.15199 0.84454 0.49151 0.0
C2167 C 0.17488 0.88603 0.51242 0.0
C2168 C 0.13831 0.83976 0.47746 0.0
C2169 C 0.14563 0.83878 0.46269 0.0
C2170 C 0.16678 0.84253 0.46168 0.0
C2171 C 0.1802 0.84674 0.47584 0.0
C2172 C 0.17283 0.8476 0.49057 0.0
H2173 H 0.1775 0.90082 0.51934 0.0
H2174 H 0.18974 0.88495 0.51467 0.0
H2175 H 0.1726 0.88761 0.49959 0.0
H2176 H 0.1221 0.83717 0.47791 0.0
H2177 H 0.1347 0.8351 0.45207 0.0
H2178 H 0.59894 0.83199 0.11599 0.0
H2179 H 0.60937 0.84286 0.14458 0.0
H2180 H 0.64598 0.81003 0.14518 0.0
H2181 H 0.63636 0.79986 0.11675 0.0
H2182 H 0.6006 0.81706 0.16876 0.0
H2183 H 0.68908 0.86759 0.16869 0.0
H2184 H 0.67064 0.8597 0.15086 0.0
H2185 H 0.67928 0.84178 0.15799 0.0
C2186 C 0.60952 0.82743 0.1222 0.0
C2187 C 0.61675 0.81499 0.11412 0.0
C2188 C 0.61537 0.83355 0.13852 0.0
C2189 C 0.62872 0.82753 0.14697 0.0
C2190 C 0.63605 0.81527 0.13887 0.0
H2191 H 0.63947 0.8003 0.24212 0.0
H2192 H 0.62848 0.80143 0.21452 0.0
C2193 C 0.63027 0.8092 0.12264 0.0
C2194 C 0.63414 0.83283 0.16439 0.0
H2195 H 0.67659 0.8526 0.19326 0.0
C2196 C 0.61722 0.82518 0.17415 0.0
C2197 C 0.65581 0.8438 0.17144 0.0
C2198 C 0.67472 0.85389 0.16168 0.0
C2199 C 0.6214 0.82703 0.19073 0.0
C2200 C 0.64304 0.83631 0.19767 0.0
C2201 C 0.65997 0.84515 0.18796 0.0
C2202 C 0.64852 0.83595 0.21479 0.0
C2203 C 0.60254 0.81884 0.20058 0.0
C2204 C 0.66383 0.85488 0.22409 0.0
C2205 C 0.6704 0.85421 0.23983 0.0
C2206 C 0.66172 0.83458 0.24657 0.0
C2207 C 0.64615 0.8157 0.23733 0.0
C2208 C 0.63977 0.81636 0.22156 0.0
H2209 H 0.58875 0.81959 0.19451 0.0
H2210 H 0.59687 0.80178 0.20232 0.0
H2211 H 0.60715 0.8282 0.21241 0.0
H2212 H 0.6709 0.87016 0.21911 0.0
H2213 H 0.68232 0.86902 0.24671 0.0
H2214 H 0.18583 0.80147 0.11155 0.0
H2215 H 0.17836 0.80486 0.13896 0.0
H2216 H 0.24232 0.8181 0.15575 0.0
H2217 H 0.24987 0.8144 0.12838 0.0
H2218 H 0.18022 0.78224 0.16539 0.0
H2219 H 0.23873 0.86997 0.17557 0.0
H2220 H 0.22945 0.8557 0.15597 0.0
H2221 H 0.24951 0.85366 0.16837 0.0
C2222 C 0.19823 0.8048 0.12106 0.0
C2223 C 0.21851 0.80778 0.11773 0.0
C2224 C 0.19396 0.80685 0.13672 0.0
C2225 C 0.20989 0.81206 0.14936 0.0
C2226 C 0.22995 0.8145 0.14614 0.0
H2227 H 0.21428 0.84192 0.25102 0.0
H2228 H 0.22244 0.8345 0.22462 0.0
C2229 C 0.23423 0.81241 0.13049 0.0
C2230 C 0.20557 0.81517 0.16588 0.0
H2231 H 0.22101 0.85299 0.19747 0.0
C2232 C 0.18913 0.79769 0.17242 0.0
C2233 C 0.21726 0.83533 0.17502 0.0
C2234 C 0.23462 0.85483 0.16839 0.0
C2235 C 0.18416 0.7998 0.18795 0.0
C2236 C 0.19564 0.82006 0.19702 0.0
C2237 C 0.21224 0.83747 0.19051 0.0
C2238 C 0.19037 0.8237 0.21314 0.0
C2239 C 0.1669 0.78022 0.19456 0.0
C2240 C 0.16968 0.82025 0.21546 0.0
C2241 C 0.1649 0.82431 0.23055 0.0
C2242 C 0.1808 0.83211 0.24365 0.0
C2243 C 0.20155 0.83562 0.24127 0.0
C2244 C 0.2063 0.83152 0.22616 0.0
H2245 H 0.16432 0.76514 0.18815 0.0
H2246 H 0.17116 0.78023 0.20737 0.0
H2247 H 0.15138 0.78022 0.19318 0.0
H2248 H 0.15725 0.81465 0.20555 0.0
H2249 H 0.1487 0.82123 0.23195 0.0
H2250 H 0.24761 0.4291 0.13477 0.0
H2251 H 0.24358 0.41558 0.16106 0.0
H2252 H 0.17416 0.38352 0.15112 0.0
H2253 H 0.17798 0.39622 0.12489 0.0
H2254 H 0.22317 0.42217 0.18605 0.0
H2255 H 0.18377 0.33569 0.16541 0.0
H2256 H 0.19757 0.35644 0.15253 0.0
H2257 H 0.17023 0.34833 0.15635 0.0
C2258 C 0.23151 0.41898 0.13816 0.0
C2259 C 0.21313 0.41386 0.12775 0.0
C2260 C 0.22923 0.41137 0.15319 0.0
C2261 C 0.20856 0.3983 0.15797 0.0
C2262 C 0.19026 0.39325 0.14761 0.0
H2263 H 0.16184 0.37192 0.2497 0.0
H2264 H 0.17466 0.38689 0.2248 0.0
C2265 C 0.1925 0.40079 0.13267 0.0
C2266 C 0.2058 0.39026 0.17389 0.0
H2267 H 0.1798 0.34436 0.19223 0.0
C2268 C 0.21393 0.40515 0.18744 0.0
C2269 C 0.19405 0.36805 0.17572 0.0
C2270 C 0.1861 0.3512 0.16173 0.0
C2271 C 0.20978 0.39843 0.20272 0.0
C2272 C 0.19679 0.37626 0.20445 0.0
C2273 C 0.18951 0.36137 0.19093 0.0
C2274 C 0.19007 0.3681 0.22004 0.0
C2275 C 0.2194 0.41516 0.21684 0.0
C2276 C 0.194 0.3522 0.22553 0.0
C2277 C 0.18646 0.34344 0.23967 0.0
C2278 C 0.17479 0.35038 0.24863 0.0
C2279 C 0.17104 0.36645 0.24319 0.0
C2280 C 0.17846 0.3751 0.22899 0.0
H2281 H 0.23411 0.42987 0.21413 0.0
H2282 H 0.20738 0.41983 0.22001 0.0
H2283 H 0.22372 0.40891 0.22729 0.0
H2284 H 0.20284 0.34647 0.21882 0.0
H2285 H 0.18983 0.33126 0.24361 0.0
H2286 H 0.80388 0.56919 0.91098 0.0
H2287 H 0.81313 0.58255 0.88493 0.0
H2288 H 0.78162 0.61977 0.89152 0.0
H2289 H 0.77271 0.6069 0.91754 0.0
H2290 H 0.78393 0.5794 0.858 0.0
H2291 H 0.84311 0.66379 0.88092 0.0
H2292 H 0.83451 0.64184 0.89319 0.0
H2293 H 0.81742 0.65299 0.88881 0.0
C2294 C 0.79905 0.58032 0.9069 0.0
C2295 C 0.78753 0.58695 0.91634 0.0
C2296 C 0.80425 0.58785 0.892 0.0
C2297 C 0.79827 0.60233 0.88639 0.0
C2298 C 0.78663 0.60881 0.89571 0.0
H2299 H 0.80983 0.67166 0.80466 0.0
H2300 H 0.80262 0.65591 0.82993 0.0
C2301 C 0.78135 0.60125 0.91052 0.0
C2302 C 0.80395 0.61066 0.87074 0.0
H2303 H 0.83166 0.65708 0.85328 0.0
C2304 C 0.79453 0.59634 0.85693 0.0
C2305 C 0.81774 0.63277 0.86941 0.0
C2306 C 0.82896 0.64876 0.88386 0.0
C2307 C 0.79794 0.60368 0.84177 0.0
C2308 C 0.81147 0.62588 0.84044 0.0
C2309 C 0.82121 0.6401 0.85429 0.0
C2310 C 0.81541 0.63485 0.82484 0.0
C2311 C 0.78638 0.58771 0.82736 0.0
C2312 C 0.82512 0.62836 0.81358 0.0
C2313 C 0.82925 0.63735 0.7991 0.0
C2314 C 0.82398 0.65319 0.79566 0.0
C2315 C 0.81431 0.65968 0.80699 0.0
C2316 C 0.8101 0.65063 0.82142 0.0
H2317 H 0.77251 0.57256 0.83043 0.0
H2318 H 0.78034 0.59452 0.81827 0.0
H2319 H 0.79785 0.58367 0.82203 0.0
H2320 H 0.82984 0.6166 0.81609 0.0
H2321 H 0.83704 0.63224 0.79075 0.0
H2322 H 0.42746 0.19464 0.92367 0.0
H2323 H 0.41703 0.19224 0.89537 0.0
H2324 H 0.36645 0.20554 0.90608 0.0
H2325 H 0.37618 0.20701 0.93447 0.0
H2326 H 0.35153 0.17099 0.88495 0.0
H2327 H 0.42615 0.23712 0.86574 0.0
H2328 H 0.4314 0.219 0.87626 0.0
H2329 H 0.42148 0.23448 0.88637 0.0
C2330 C 0.41416 0.19714 0.92002 0.0
C2331 C 0.40257 0.20088 0.93135 0.0
C2332 C 0.40841 0.19606 0.90382 0.0
C2333 C 0.39115 0.19901 0.89858 0.0
C2334 C 0.37993 0.20336 0.90985 0.0
H2335 H 0.3566 0.20261 0.79848 0.0
H2336 H 0.3689 0.21204 0.82688 0.0
C2337 C 0.38561 0.20435 0.92608 0.0
C2338 C 0.38369 0.19572 0.88141 0.0
H2339 H 0.40087 0.21064 0.84515 0.0
C2340 C 0.36226 0.17983 0.87627 0.0
C2341 C 0.39761 0.20742 0.87008 0.0
C2342 C 0.42037 0.22561 0.8749 0.0
C2343 C 0.35455 0.17485 0.8601 0.0
C2344 C 0.36882 0.18569 0.84872 0.0
C2345 C 0.39004 0.2021 0.85387 0.0
C2346 C 0.36203 0.18012 0.83143 0.0
C2347 C 0.33113 0.15811 0.8554 0.0
C2348 C 0.35455 0.15918 0.8245 0.0
C2349 C 0.34746 0.15374 0.80832 0.0
C2350 C 0.34799 0.16923 0.7987 0.0
C2351 C 0.35612 0.19036 0.80557 0.0
C2352 C 0.36308 0.19576 0.82179 0.0
H2353 H 0.32108 0.15617 0.86532 0.0
H2354 H 0.32429 0.16232 0.845 0.0
H2355 H 0.32994 0.1424 0.85221 0.0
H2356 H 0.35417 0.147 0.83162 0.0
H2357 H 0.34165 0.13742 0.80331 0.0
H2358 H 0.76275 0.17541 0.91472 0.0
H2359 H 0.76531 0.16479 0.8872 0.0
H2360 H 0.83446 0.19379 0.89748 0.0
H2361 H 0.83197 0.20407 0.92479 0.0
H2362 H 0.78981 0.19333 0.86516 0.0
H2363 H 0.81694 0.13479 0.87522 0.0
H2364 H 0.80447 0.14283 0.88992 0.0
H2365 H 0.83276 0.15955 0.88768 0.0
C2366 C 0.7784 0.17917 0.91112 0.0
C2367 C 0.79717 0.19067 0.92185 0.0
C2368 C 0.77987 0.17319 0.89542 0.0
C2369 C 0.80005 0.17829 0.89035 0.0
C2370 C 0.81868 0.18935 0.90118 0.0
H2371 H 0.86698 0.18808 0.80955 0.0
H2372 H 0.85364 0.18685 0.83547 0.0
C2373 C 0.81725 0.19541 0.91675 0.0
C2374 C 0.80222 0.1735 0.87355 0.0
H2375 H 0.82433 0.15065 0.8505 0.0
C2376 C 0.79694 0.18364 0.86185 0.0
C2377 C 0.81156 0.16088 0.86929 0.0
C2378 C 0.81656 0.14872 0.88117 0.0
C2379 C 0.80194 0.18255 0.84619 0.0
C2380 C 0.81219 0.17073 0.84211 0.0
C2381 C 0.81659 0.15981 0.85366 0.0
C2382 C 0.81985 0.17069 0.82627 0.0
C2383 C 0.79727 0.19497 0.83434 0.0
C2384 C 0.80524 0.16174 0.81248 0.0
C2385 C 0.81282 0.16229 0.7976 0.0
C2386 C 0.83516 0.17174 0.79624 0.0
C2387 C 0.84968 0.1804 0.81014 0.0
C2388 C 0.84209 0.17982 0.82498 0.0
H2389 H 0.79306 0.20643 0.84012 0.0
H2390 H 0.81145 0.20404 0.82766 0.0
H2391 H 0.78341 0.18358 0.82567 0.0
H2392 H 0.78799 0.15427 0.81324 0.0
H2393 H 0.80117 0.15518 0.78717 0.0
H2394 H 0.30521 0.17441 0.44424 0.0
H2395 H 0.31514 0.18177 0.47303 0.0
H2396 H 0.25536 0.12521 0.48021 0.0
H2397 H 0.24524 0.11786 0.45149 0.0
H2398 H 0.26992 0.16462 0.50287 0.0
H2399 H 0.33126 0.13955 0.49529 0.0
H2400 H 0.33218 0.15971 0.48324 0.0
H2401 H 0.30942 0.13292 0.48014 0.0
C2402 C 0.29396 0.16387 0.45198 0.0
C2403 C 0.27454 0.14546 0.44564 0.0
C2404 C 0.29971 0.168 0.46839 0.0
C2405 C 0.28608 0.15387 0.47867 0.0
C2406 C 0.2661 0.13625 0.47244 0.0
H2407 H 0.31195 0.12669 0.57265 0.0
H2408 H 0.29911 0.12532 0.5449 0.0
C2409 C 0.2604 0.13203 0.45606 0.0
C2410 C 0.29337 0.15628 0.49573 0.0
H2411 H 0.32827 0.15015 0.52131 0.0
C2412 C 0.28276 0.16161 0.50694 0.0
C2413 C 0.30992 0.15203 0.50093 0.0
C2414 C 0.32133 0.14558 0.48934 0.0
C2415 C 0.28842 0.16292 0.5233 0.0
C2416 C 0.30502 0.15874 0.52846 0.0
C2417 C 0.31557 0.15338 0.51725 0.0
C2418 C 0.31158 0.15955 0.54548 0.0
C2419 C 0.27636 0.1683 0.53497 0.0
C2420 C 0.3228 0.17925 0.55493 0.0
C2421 C 0.33022 0.18009 0.57073 0.0
C2422 C 0.32648 0.16122 0.57736 0.0
C2423 C 0.31489 0.14146 0.56792 0.0
C2424 C 0.30763 0.14066 0.55207 0.0
H2425 H 0.26167 0.16763 0.52911 0.0
H2426 H 0.27151 0.15705 0.54432 0.0
H2427 H 0.28715 0.18477 0.54087 0.0
H2428 H 0.32618 0.19401 0.54998 0.0
H2429 H 0.33894 0.19552 0.57777 0.0
H2430 H 0.85028 0.13104 0.44442 0.0
H2431 H 0.84215 0.13417 0.47164 0.0
H2432 H 0.90848 0.15599 0.48884 0.0
H2433 H 0.91656 0.152 0.46171 0.0
H2434 H 0.87992 0.12734 0.50743 0.0
H2435 H 0.86001 0.19111 0.49671 0.0
H2436 H 0.84406 0.1669 0.48367 0.0
H2437 H 0.87279 0.18252 0.48269 0.0
C2438 C 0.86309 0.13618 0.45399 0.0
C2439 C 0.88414 0.14143 0.45082 0.0
C2440 C 0.85846 0.13823 0.46955 0.0
C2441 C 0.87481 0.14577 0.48226 0.0
C2442 C 0.89565 0.15035 0.47921 0.0
H2443 H 0.87182 0.19974 0.57537 0.0
H2444 H 0.87982 0.19314 0.54872 0.0
C2445 C 0.90028 0.14822 0.46367 0.0
C2446 C 0.87032 0.14918 0.4987 0.0
H2447 H 0.85306 0.17701 0.52162 0.0
C2448 C 0.87407 0.13822 0.51056 0.0
C2449 C 0.86302 0.16365 0.50281 0.0
C2450 C 0.85993 0.17689 0.49085 0.0
C2451 C 0.87049 0.14113 0.52637 0.0
C2452 C 0.86252 0.15507 0.53037 0.0
C2453 C 0.85898 0.16619 0.51854 0.0
C2454 C 0.85811 0.15876 0.5468 0.0
C2455 C 0.87576 0.12964 0.53869 0.0
C2456 C 0.84317 0.14164 0.5546 0.0
C2457 C 0.83864 0.14537 0.56987 0.0
C2458 C 0.84872 0.16633 0.57756 0.0
C2459 C 0.86363 0.18344 0.56971 0.0
C2460 C 0.86826 0.17968 0.5545 0.0
H2461 H 0.88724 0.12464 0.53469 0.0
H2462 H 0.8829 0.13995 0.5501 0.0
H2463 H 0.86067 0.11495 0.54082 0.0
H2464 H 0.83471 0.12543 0.54876 0.0
H2465 H 0.82684 0.1319 0.57551 0.0
H2466 H 0.88779 0.78277 0.47357 0.0
H2467 H 0.88295 0.77086 0.50021 0.0
H2468 H 0.88077 0.71234 0.48289 0.0
H2469 H 0.88584 0.7243 0.45626 0.0
H2470 H 0.84735 0.73593 0.50754 0.0
H2471 H 0.91914 0.72829 0.52425 0.0
H2472 H 0.91789 0.74291 0.50798 0.0
H2473 H 0.90519 0.71409 0.50534 0.0
C2474 C 0.88672 0.76756 0.47552 0.0
C2475 C 0.88717 0.75446 0.46282 0.0
C2476 C 0.88395 0.76077 0.49075 0.0
C2477 C 0.88161 0.74076 0.49361 0.0
C2478 C 0.88299 0.72805 0.48109 0.0
H2479 H 0.81006 0.66141 0.56549 0.0
H2480 H 0.82303 0.67798 0.54116 0.0
C2481 C 0.88589 0.7349 0.46585 0.0
C2482 C 0.87552 0.7323 0.50921 0.0
H2483 H 0.88929 0.7109 0.53973 0.0
C2484 C 0.85665 0.73064 0.51464 0.0
C2485 C 0.88772 0.72556 0.51856 0.0
C2486 C 0.90873 0.72799 0.51383 0.0
C2487 C 0.84938 0.72199 0.52892 0.0
C2488 C 0.86103 0.71435 0.53791 0.0
C2489 C 0.88022 0.71652 0.53273 0.0
C2490 C 0.85346 0.70397 0.55267 0.0
C2491 C 0.82937 0.72132 0.53432 0.0
C2492 C 0.86649 0.7127 0.56718 0.0
C2493 C 0.85922 0.70309 0.58112 0.0
C2494 C 0.8388 0.68446 0.58081 0.0
C2495 C 0.82592 0.67563 0.56618 0.0
C2496 C 0.83322 0.68523 0.55227 0.0
H2497 H 0.82606 0.7331 0.52869 0.0
H2498 H 0.8152 0.70507 0.53088 0.0
H2499 H 0.83096 0.72471 0.54741 0.0
H2500 H 0.88223 0.72707 0.56775 0.0
H2501 H 0.86974 0.71013 0.59211 0.0
loop_
_geom_bond_atom_site_label_1
_geom_bond_atom_site_label_2
_geom_bond_distance
_geom_bond_site_symmetry_2
_ccdc_geom_bond_type
H0 C3 0.929 . S
H1 C6 0.929 . S
H2 C8 0.930 . S
C3 H0 0.929 . S
C3 C4 1.398 . S
C3 C5 1.396 . S
C4 C3 1.398 . S
C4 C8 1.407 . S
C5 C3 1.396 . S
C5 C6 1.394 . S
C6 H1 0.929 . S
C6 C5 1.394 . S
C6 C7 1.382 . S
C7 C6 1.382 . S
C7 C8 1.392 . S
C7 N9 1.420 . S
C8 H2 0.930 . S
C8 C4 1.407 . S
C8 C7 1.392 . S
N9 C7 1.420 . S
N9 C10 1.244 . S
C10 N9 1.244 . S
H11 C14 0.929 . S
H12 C17 0.929 . S
H13 C19 0.930 . S
C14 H11 0.929 . S
C14 C15 1.398 . S
C14 C16 1.396 . S
C15 C14 1.398 . S
C15 C19 1.407 . S
C16 C14 1.396 . S
C16 C17 1.394 . S
C17 H12 0.929 . S
C17 C16 1.394 . S
C17 C18 1.382 . S
C18 C17 1.382 . S
C18 C19 1.392 . S
C18 N20 1.420 . S
C19 H13 0.930 . S
C19 C15 1.407 . S
C19 C18 1.392 . S
N20 C18 1.420 . S
N20 C21 1.244 . S
C21 N20 1.244 . S
H22 C25 0.929 . S
H23 C28 0.929 . S
H24 C30 0.930 . S
C25 H22 0.929 . S
C25 C26 1.398 . S
C25 C27 1.396 . S
C26 C25 1.398 . S
C26 C30 1.407 . S
C27 C25 1.396 . S
C27 C28 1.394 . S
C28 H23 0.929 . S
C28 C27 1.394 . S
C28 C29 1.382 . S
C29 C28 1.382 . S
C29 C30 1.392 . S
C29 N31 1.420 . S
C30 H24 0.930 . S
C30 C26 1.407 . S
C30 C29 1.392 . S
N31 C29 1.420 . S
N31 C32 1.244 . S
C32 N31 1.244 . S
H33 C36 0.929 . S
H34 C39 0.929 . S
H35 C41 0.930 . S
C36 H33 0.929 . S
C36 C37 1.398 . S
C36 C38 1.396 . S
C37 C36 1.398 . S
C37 C41 1.407 . S
C38 C36 1.396 . S
C38 C39 1.394 . S
C39 H34 0.929 . S
C39 C38 1.394 . S
C39 C40 1.382 . S
C40 C39 1.382 . S
C40 C41 1.392 . S
C40 N42 1.420 . S
C41 H35 0.930 . S
C41 C37 1.407 . S
C41 C40 1.392 . S
N42 C40 1.420 . S
N42 C43 1.244 . S
C43 N42 1.244 . S
H44 C47 0.929 . S
H45 C50 0.929 . S
H46 C52 0.930 . S
C47 H44 0.929 . S
C47 C48 1.398 . S
C47 C49 1.396 . S
C48 C47 1.398 . S
C48 C52 1.407 . S
C49 C47 1.396 . S
C49 C50 1.394 . S
C50 H45 0.929 . S
C50 C49 1.394 . S
C50 C51 1.382 . S
C51 C50 1.382 . S
C51 C52 1.392 . S
C51 N53 1.420 . S
C52 H46 0.930 . S
C52 C48 1.407 . S
C52 C51 1.392 . S
N53 C51 1.420 . S
N53 C54 1.244 . S
C54 N53 1.244 . S
H55 C58 0.929 . S
H56 C61 0.929 . S
H57 C63 0.930 . S
C58 H55 0.929 . S
C58 C59 1.398 . S
C58 C60 1.396 . S
C59 C58 1.398 . S
C59 C63 1.407 . S
C60 C58 1.396 . S
C60 C61 1.394 . S
C61 H56 0.929 . S
C61 C60 1.394 . S
C61 C62 1.382 . S
C62 C61 1.382 . S
C62 C63 1.392 . S
C62 N64 1.420 . S
C63 H57 0.930 . S
C63 C59 1.407 . S
C63 C62 1.392 . S
N64 C62 1.420 . S
N64 C65 1.244 . S
C65 N64 1.244 . S
H66 C69 0.929 . S
H67 C72 0.929 . S
H68 C74 0.930 . S
C69 H66 0.929 . S
C69 C70 1.398 . S
C69 C71 1.396 . S
C70 C69 1.398 . S
C70 C74 1.407 . S
C71 C69 1.396 . S
C71 C72 1.394 . S
C72 H67 0.929 . S
C72 C71 1.394 . S
C72 C73 1.382 . S
C73 C72 1.382 . S
C73 C74 1.392 . S
C73 N75 1.420 . S
C74 H68 0.930 . S
C74 C70 1.407 . S
C74 C73 1.392 . S
N75 C73 1.420 . S
N75 C76 1.244 . S
C76 N75 1.244 . S
H77 C80 0.929 . S
H78 C83 0.929 . S
H79 C85 0.930 . S
C80 H77 0.929 . S
C80 C81 1.398 . S
C80 C82 1.396 . S
C81 C80 1.398 . S
C81 C85 1.407 . S
C82 C80 1.396 . S
C82 C83 1.394 . S
C83 H78 0.929 . S
C83 C82 1.394 . S
C83 C84 1.382 . S
C84 C83 1.382 . S
C84 C85 1.392 . S
C84 N86 1.420 . S
C85 H79 0.930 . S
C85 C81 1.407 . S
C85 C84 1.392 . S
N86 C84 1.420 . S
N86 C87 1.244 . S
C87 N86 1.244 . S
H88 C91 0.929 . S
H89 C94 0.929 . S
H90 C96 0.930 . S
C91 H88 0.929 . S
C91 C92 1.398 . S
C91 C93 1.396 . S
C92 C91 1.398 . S
C92 C96 1.407 . S
C93 C91 1.396 . S
C93 C94 1.394 . S
C94 H89 0.929 . S
C94 C93 1.394 . S
C94 C95 1.382 . S
C95 C94 1.382 . S
C95 C96 1.392 . S
C95 N97 1.420 . S
C96 H90 0.930 . S
C96 C92 1.407 . S
C96 C95 1.392 . S
N97 C95 1.420 . S
N97 C98 1.244 . S
C98 N97 1.244 . S
H99 C102 0.929 . S
H100 C105 0.929 . S
H101 C107 0.930 . S
C102 H99 0.929 . S
C102 C103 1.398 . S
C102 C104 1.396 . S
C103 C102 1.398 . S
C103 C107 1.407 . S
C104 C102 1.396 . S
C104 C105 1.394 . S
C105 H100 0.929 . S
C105 C104 1.394 . S
C105 C106 1.382 . S
C106 C105 1.382 . S
C106 C107 1.392 . S
C106 N108 1.420 . S
C107 H101 0.930 . S
C107 C103 1.407 . S
C107 C106 1.392 . S
N108 C106 1.420 . S
N108 C109 1.244 . S
C109 N108 1.244 . S
H110 C113 0.929 . S
H111 C116 0.929 . S
H112 C118 0.930 . S
C113 H110 0.929 . S
C113 C114 1.398 . S
C113 C115 1.396 . S
C114 C113 1.398 . S
C114 C118 1.407 . S
C115 C113 1.396 . S
C115 C116 1.394 . S
C116 H111 0.929 . S
C116 C115 1.394 . S
C116 C117 1.382 . S
C117 C116 1.382 . S
C117 C118 1.392 . S
C117 N119 1.420 . S
C118 H112 0.930 . S
C118 C114 1.407 . S
C118 C117 1.392 . S
N119 C117 1.420 . S
N119 C120 1.244 . S
C120 N119 1.244 . S
H121 C124 0.929 . S
H122 C127 0.929 . S
H123 C129 0.930 . S
C124 H121 0.929 . S
C124 C125 1.398 . S
C124 C126 1.396 . S
C125 C124 1.398 . S
C125 C129 1.407 . S
C126 C124 1.396 . S
C126 C127 1.394 . S
C127 H122 0.929 . S
C127 C126 1.394 . S
C127 C128 1.382 . S
C128 C127 1.382 . S
C128 C129 1.392 . S
C128 N130 1.420 . S
C129 H123 0.930 . S
C129 C125 1.407 . S
C129 C128 1.392 . S
N130 C128 1.420 . S
N130 C131 1.244 . S
C131 N130 1.244 . S
H132 C135 0.929 . S
H133 C138 0.929 . S
H134 C140 0.930 . S
C135 H132 0.929 . S
C135 C136 1.398 . S
C135 C137 1.396 . S
C136 C135 1.398 . S
C136 C140 1.407 . S
C137 C135 1.396 . S
C137 C138 1.394 . S
C138 H133 0.929 . S
C138 C137 1.394 . S
C138 C139 1.382 . S
C139 C138 1.382 . S
C139 C140 1.392 . S
C139 N141 1.420 . S
C140 H134 0.930 . S
C140 C136 1.407 . S
C140 C139 1.392 . S
N141 C139 1.420 . S
N141 C142 1.244 . S
C142 N141 1.244 . S
H143 C146 0.929 . S
H144 C149 0.929 . S
H145 C151 0.930 . S
C146 H143 0.929 . S
C146 C147 1.398 . S
C146 C148 1.396 . S
C147 C146 1.398 . S
C147 C151 1.407 . S
C148 C146 1.396 . S
C148 C149 1.394 . S
C149 H144 0.929 . S
C149 C148 1.394 . S
C149 C150 1.382 . S
C150 C149 1.382 . S
C150 C151 1.392 . S
C150 N152 1.420 . S
C151 H145 0.930 . S
C151 C147 1.407 . S
C151 C150 1.392 . S
N152 C150 1.420 . S
N152 C153 1.244 . S
C153 N152 1.244 . S
H154 C157 0.929 . S
H155 C160 0.929 . S
H156 C162 0.930 . S
C157 H154 0.929 . S
C157 C158 1.398 . S
C157 C159 1.396 . S
C158 C157 1.398 . S
C158 C162 1.407 . S
C159 C157 1.396 . S
C159 C160 1.394 . S
C160 H155 0.929 . S
C160 C159 1.394 . S
C160 C161 1.382 . S
C161 C160 1.382 . S
C161 C162 1.392 . S
C161 N163 1.420 . S
C162 H156 0.930 . S
C162 C158 1.407 . S
C162 C161 1.392 . S
N163 C161 1.420 . S
N163 C164 1.244 . S
C164 N163 1.244 . S
H165 C168 0.929 . S
H166 C171 0.929 . S
H167 C173 0.930 . S
C168 H165 0.929 . S
C168 C169 1.398 . S
C168 C170 1.396 . S
C169 C168 1.398 . S
C169 C173 1.407 . S
C170 C168 1.396 . S
C170 C171 1.394 . S
C171 H166 0.929 . S
C171 C170 1.394 . S
C171 C172 1.382 . S
C172 C171 1.382 . S
C172 C173 1.392 . S
C172 N174 1.420 . S
C173 H167 0.930 . S
C173 C169 1.407 . S
C173 C172 1.392 . S
N174 C172 1.420 . S
N174 C175 1.244 . S
C175 N174 1.244 . S
H176 C179 0.929 . S
H177 C182 0.929 . S
H178 C184 0.930 . S
C179 H176 0.929 . S
C179 C180 1.398 . S
C179 C181 1.396 . S
C180 C179 1.398 . S
C180 C184 1.407 . S
C181 C179 1.396 . S
C181 C182 1.394 . S
C182 H177 0.929 . S
C182 C181 1.394 . S
C182 C183 1.382 . S
C183 C182 1.382 . S
C183 C184 1.392 . S
C183 N185 1.420 . S
C184 H178 0.930 . S
C184 C180 1.407 . S
C184 C183 1.392 . S
N185 C183 1.420 . S
N185 C186 1.244 . S
C186 N185 1.244 . S
H187 C190 0.929 . S
H188 C193 0.929 . S
H189 C195 0.930 . S
C190 H187 0.929 . S
C190 C191 1.398 . S
C190 C192 1.396 . S
C191 C190 1.398 . S
C191 C195 1.407 . S
C192 C190 1.396 . S
C192 C193 1.394 . S
C193 H188 0.929 . S
C193 C192 1.394 . S
C193 C194 1.382 . S
C194 C193 1.382 . S
C194 C195 1.392 . S
C194 N196 1.420 . S
C195 H189 0.930 . S
C195 C191 1.407 . S
C195 C194 1.392 . S
N196 C194 1.420 . S
N196 C197 1.244 . S
C197 N196 1.244 . S
Eu198 C207 2.828 1_565 S
Eu198 O209 2.392 1_556 S
Eu198 O211 2.418 . S
Eu198 O216 2.373 1_565 S
Eu198 O219 2.488 . S
Eu198 O220 2.471 1_565 S
Eu198 O221 2.349 1_566 S
Eu199 O208 2.373 1_545 S
Eu199 O212 2.488 . S
Eu199 O213 2.471 1_545 S
Eu199 O214 2.349 1_545 S
Eu199 O217 2.392 . S
Eu199 O218 2.418 . S
Eu199 C228 2.828 . S
C200 O218 1.244 . S
C200 O221 1.265 . S
C201 C202 1.379 . S
C201 C205 1.410 . S
C201 C207 1.505 . S
C202 C201 1.379 . S
C202 C204 1.369 . S
C202 H230 0.930 . S
C203 C205 1.397 . S
C203 C206 1.382 . S
C203 H231 0.912 1_545 S
C204 C202 1.369 . S
C204 C206 1.392 . S
C204 H232 0.930 . S
C205 C201 1.410 . S
C205 C203 1.397 . S
C205 H233 0.881 1_545 S
C206 C203 1.382 . S
C206 C204 1.392 . S
C207 Eu198 2.828 1_545 S
C207 C201 1.505 . S
C207 O219 1.249 1_545 S
C207 O220 1.244 . S
O208 Eu199 2.373 1_565 S
O208 C210 1.258 . S
O209 Eu198 2.392 1_554 S
O209 C210 1.242 . S
C210 O208 1.258 . S
C210 O209 1.242 . S
O211 Eu198 2.418 . S
O211 C215 1.244 1_556 S
O212 Eu199 2.488 . S
O212 C228 1.249 . S
O213 Eu199 2.471 1_565 S
O213 C228 1.244 1_565 S
O214 Eu199 2.349 1_565 S
O214 C215 1.265 . S
C215 O211 1.244 1_554 S
C215 O214 1.265 . S
O216 Eu198 2.373 1_545 S
O216 C229 1.258 1_556 S
O217 Eu199 2.392 . S
O217 C229 1.242 . S
O218 Eu199 2.418 . S
O218 C200 1.244 . S
O219 Eu198 2.488 . S
O219 C207 1.249 1_565 S
O220 Eu198 2.471 1_545 S
O220 C207 1.244 . S
O221 Eu198 2.349 1_544 S
O221 C200 1.265 . S
C222 C223 1.379 . S
C222 C226 1.373 1_565 S
C222 C228 1.505 1_565 S
C223 C222 1.379 . S
C223 C225 1.369 . S
C223 H234 0.930 . S
C224 C226 1.383 . S
C224 C227 1.382 1_545 S
C224 H235 0.930 . S
C225 C223 1.369 . S
C225 C227 1.392 . S
C225 H236 0.930 . S
C226 C222 1.373 1_545 S
C226 C224 1.383 . S
C226 H237 0.931 . S
C227 C224 1.382 1_565 S
C227 C225 1.392 . S
C228 Eu199 2.828 . S
C228 O212 1.249 . S
C228 O213 1.244 1_545 S
C228 C222 1.505 1_545 S
C229 O216 1.258 1_554 S
C229 O217 1.242 . S
H230 C202 0.930 . S
H231 C203 0.912 1_565 S
H232 C204 0.930 . S
H233 C205 0.881 1_565 S
H234 C223 0.930 . S
H235 C224 0.930 . S
H236 C225 0.930 . S
H237 C226 0.931 . S
Eu238 C247 2.828 . S
Eu238 O249 2.392 1_556 S
Eu238 O251 2.421 . S
Eu238 O256 2.373 1_455 S
Eu238 O259 2.488 . S
Eu238 O260 2.471 1_455 S
Eu238 O261 2.349 1_456 S
Eu239 O248 2.373 1_655 S
Eu239 O252 2.488 . S
Eu239 O253 2.471 1_655 S
Eu239 O254 2.349 1_655 S
Eu239 O257 2.392 . S
Eu239 O258 2.418 . S
Eu239 C268 2.828 1_655 S
C240 O258 1.244 . S
C240 O261 1.265 . S
C241 C242 1.379 . S
C241 C245 1.373 1_655 S
C241 C247 1.505 1_655 S
C242 C241 1.379 . S
C242 C244 1.369 . S
C242 H270 0.930 . S
C243 C245 1.383 1_655 S
C243 C246 1.382 . S
C243 H271 0.930 1_655 S
C244 C242 1.369 . S
C244 C246 1.392 . S
C244 H272 0.930 . S
C245 C241 1.373 1_455 S
C245 C243 1.383 1_455 S
C245 H273 0.931 . S
C246 C243 1.382 . S
C246 C244 1.392 . S
C247 Eu238 2.828 . S
C247 C241 1.505 1_455 S
C247 O259 1.249 . S
C247 O260 1.244 1_455 S
O248 Eu239 2.373 1_455 S
O248 C250 1.258 . S
O249 Eu238 2.392 1_554 S
O249 C250 1.242 . S
C250 O248 1.258 . S
C250 O249 1.242 . S
O251 Eu238 2.421 . S
O251 C255 1.233 1_556 S
O252 Eu239 2.488 . S
O252 C268 1.249 1_655 S
O253 Eu239 2.471 1_455 S
O253 C268 1.244 . S
O254 Eu239 2.349 1_455 S
O254 C255 1.265 . S
C255 O251 1.233 1_554 S
C255 O254 1.265 . S
O256 Eu238 2.373 1_655 S
O256 C269 1.258 . S
O257 Eu239 2.392 . S
O257 C269 1.242 1_554 S
O258 Eu239 2.418 . S
O258 C240 1.244 . S
O259 Eu238 2.488 . S
O259 C247 1.249 . S
O260 Eu238 2.471 1_655 S
O260 C247 1.244 1_655 S
O261 Eu238 2.349 1_654 S
O261 C240 1.265 . S
C262 C263 1.379 . S
C262 C266 1.373 . S
C262 C268 1.505 . S
C263 C262 1.379 . S
C263 C265 1.369 . S
C263 H274 0.930 . S
C264 C266 1.383 . S
C264 C267 1.382 . S
C264 H275 0.930 . S
C265 C263 1.369 . S
C265 C267 1.392 . S
C265 H276 0.930 . S
C266 C262 1.373 . S
C266 C264 1.383 . S
C266 H277 0.931 1_455 S
C267 C264 1.382 . S
C267 C265 1.392 . S
C268 Eu239 2.828 1_455 S
C268 O252 1.249 1_455 S
C268 O253 1.244 . S
C268 C262 1.505 . S
C269 O256 1.258 . S
C269 O257 1.242 1_556 S
H270 C242 0.930 . S
H271 C243 0.930 1_455 S
H272 C244 0.930 . S
H273 C245 0.931 . S
H274 C263 0.930 . S
H275 C264 0.930 . S
H276 C265 0.930 . S
H277 C266 0.931 1_655 S
Eu278 C287 2.828 . S
Eu278 O289 2.392 . S
Eu278 O291 2.418 . S
Eu278 O296 2.373 . S
Eu278 O299 2.488 . S
Eu278 O300 2.471 . S
Eu278 O301 2.349 . S
Eu279 O288 2.373 . S
Eu279 O292 2.488 . S
Eu279 O293 2.471 . S
Eu279 O294 2.349 1_556 S
Eu279 O297 2.392 1_556 S
Eu279 O298 2.418 1_556 S
Eu279 C308 2.828 . S
C280 O298 1.244 . S
C280 O301 1.265 . S
C281 C282 1.379 . S
C281 C285 1.373 . S
C281 C287 1.505 . S
C282 C281 1.379 . S
C282 C284 1.369 . S
C282 H310 0.930 . S
C283 C285 1.383 . S
C283 C286 1.382 . S
C283 H311 0.930 . S
C284 C282 1.369 . S
C284 C286 1.392 . S
C284 H312 0.930 . S
C285 C281 1.373 . S
C285 C283 1.383 . S
C285 H313 0.931 . S
C286 C283 1.382 . S
C286 C284 1.392 . S
C287 Eu278 2.828 . S
C287 C281 1.505 . S
C287 O299 1.249 . S
C287 O300 1.244 . S
O288 Eu279 2.373 . S
O288 C290 1.258 1_556 S
O289 Eu278 2.392 . S
O289 C290 1.242 . S
C290 O288 1.258 1_554 S
C290 O289 1.242 . S
O291 Eu278 2.418 . S
O291 C295 1.244 . S
O292 Eu279 2.488 . S
O292 C308 1.249 . S
O293 Eu279 2.471 . S
O293 C308 1.244 . S
O294 Eu279 2.349 1_554 S
O294 C295 1.265 . S
C295 O291 1.244 . S
C295 O294 1.265 . S
O296 Eu278 2.373 . S
O296 C309 1.258 . S
O297 Eu279 2.392 1_554 S
O297 C309 1.242 . S
O298 Eu279 2.418 1_554 S
O298 C280 1.244 . S
O299 Eu278 2.488 . S
O299 C287 1.249 . S
O300 Eu278 2.471 . S
O300 C287 1.244 . S
O301 Eu278 2.349 . S
O301 C280 1.265 . S
C302 C303 1.379 . S
C302 C306 1.373 . S
C302 C308 1.505 . S
C303 C302 1.379 . S
C303 C305 1.369 . S
C303 H314 0.930 . S
C304 C306 1.383 . S
C304 C307 1.382 . S
C304 H315 0.930 . S
C305 C303 1.369 . S
C305 C307 1.392 . S
C305 H316 0.930 . S
C306 C302 1.373 . S
C306 C304 1.383 . S
C306 H317 0.931 . S
C307 C304 1.382 . S
C307 C305 1.392 . S
C308 Eu279 2.828 . S
C308 O292 1.249 . S
C308 O293 1.244 . S
C308 C302 1.505 . S
C309 O296 1.258 . S
C309 O297 1.242 . S
H310 C282 0.930 . S
H311 C283 0.930 . S
H312 C284 0.930 . S
H313 C285 0.931 . S
H314 C303 0.930 . S
H315 C304 0.930 . S
H316 C305 0.930 . S
H317 C306 0.931 . S
Eu318 C327 2.828 . S
Eu318 O329 2.392 . S
Eu318 O331 2.418 . S
Eu318 O336 2.373 . S
Eu318 O339 2.488 . S
Eu318 O340 2.471 . S
Eu318 O341 2.349 . S
Eu319 O328 2.373 . S
Eu319 O332 2.488 . S
Eu319 O333 2.471 . S
Eu319 O334 2.349 . S
Eu319 O337 2.392 . S
Eu319 O338 2.418 . S
Eu319 C348 2.828 . S
C320 O338 1.244 . S
C320 O341 1.265 . S
C321 C322 1.379 . S
C321 C325 1.373 . S
C321 C327 1.505 . S
C322 C321 1.379 . S
C322 C324 1.369 . S
C322 H350 0.930 . S
C323 C325 1.383 . S
C323 C326 1.382 . S
C323 H351 0.930 . S
C324 C322 1.369 . S
C324 C326 1.392 . S
C324 H352 0.930 . S
C325 C321 1.373 . S
C325 C323 1.383 . S
C325 H353 0.931 . S
C326 C323 1.382 . S
C326 C324 1.392 . S
C327 Eu318 2.828 . S
C327 C321 1.505 . S
C327 O339 1.249 . S
C327 O340 1.244 . S
O328 Eu319 2.373 . S
O328 C330 1.258 . S
O329 Eu318 2.392 . S
O329 C330 1.242 . S
C330 O328 1.258 . S
C330 O329 1.242 . S
O331 Eu318 2.418 . S
O331 C335 1.244 . S
O332 Eu319 2.488 . S
O332 C348 1.249 . S
O333 Eu319 2.471 . S
O333 C348 1.244 . S
O334 Eu319 2.349 . S
O334 C335 1.265 . S
C335 O331 1.244 . S
C335 O334 1.265 . S
O336 Eu318 2.373 . S
O336 C349 1.258 . S
O337 Eu319 2.392 . S
O337 C349 1.242 . S
O338 Eu319 2.418 . S
O338 C320 1.244 . S
O339 Eu318 2.488 . S
O339 C327 1.249 . S
O340 Eu318 2.471 . S
O340 C327 1.244 . S
O341 Eu318 2.349 . S
O341 C320 1.265 . S
C342 C343 1.379 . S
C342 C346 1.373 . S
C342 C348 1.505 . S
C343 C342 1.379 . S
C343 C345 1.369 . S
C343 H354 0.930 . S
C344 C346 1.383 . S
C344 C347 1.382 . S
C344 H355 0.930 . S
C345 C343 1.369 . S
C345 C347 1.392 . S
C345 H356 0.930 . S
C346 C342 1.373 . S
C346 C344 1.383 . S
C346 H357 0.931 . S
C347 C344 1.382 . S
C347 C345 1.392 . S
C348 Eu319 2.828 . S
C348 O332 1.249 . S
C348 O333 1.244 . S
C348 C342 1.505 . S
C349 O336 1.258 . S
C349 O337 1.242 . S
H350 C322 0.930 . S
H351 C323 0.930 . S
H352 C324 0.930 . S
H353 C325 0.931 . S
H354 C343 0.930 . S
H355 C344 0.930 . S
H356 C345 0.930 . S
H357 C346 0.931 . S
Eu358 C367 2.828 . S
Eu358 O369 2.392 . S
Eu358 O371 2.418 . S
Eu358 O376 2.373 . S
Eu358 O379 2.488 . S
Eu358 O380 2.471 . S
Eu358 O381 2.349 . S
Eu359 O368 2.373 . S
Eu359 O372 2.488 . S
Eu359 O373 2.471 . S
Eu359 O374 2.349 . S
Eu359 O377 2.392 . S
Eu359 O378 2.418 . S
Eu359 C388 2.828 . S
C360 O378 1.244 . S
C360 O381 1.265 . S
C361 C362 1.379 . S
C361 C365 1.373 . S
C361 C367 1.505 . S
C362 C361 1.379 . S
C362 C364 1.369 . S
C362 H390 0.930 . S
C363 C365 1.383 . S
C363 C366 1.382 . S
C363 H391 0.930 . S
C364 C362 1.369 . S
C364 C366 1.392 . S
C364 H392 0.930 . S
C365 C361 1.373 . S
C365 C363 1.383 . S
C365 H393 0.931 . S
C366 C363 1.382 . S
C366 C364 1.392 . S
C367 Eu358 2.828 . S
C367 C361 1.505 . S
C367 O379 1.249 . S
C367 O380 1.244 . S
O368 Eu359 2.373 . S
O368 C370 1.258 . S
O369 Eu358 2.392 . S
O369 C370 1.242 . S
C370 O368 1.258 . S
C370 O369 1.242 . S
O371 Eu358 2.418 . S
O371 C375 1.244 . S
O372 Eu359 2.488 . S
O372 C388 1.249 . S
O373 Eu359 2.471 . S
O373 C388 1.244 . S
O374 Eu359 2.349 . S
O374 C375 1.265 . S
C375 O371 1.244 . S
C375 O374 1.265 . S
O376 Eu358 2.373 . S
O376 C389 1.258 . S
O377 Eu359 2.392 . S
O377 C389 1.242 . S
O378 Eu359 2.418 . S
O378 C360 1.244 . S
O379 Eu358 2.488 . S
O379 C367 1.249 . S
O380 Eu358 2.471 . S
O380 C367 1.244 . S
O381 Eu358 2.349 . S
O381 C360 1.265 . S
C382 C383 1.379 . S
C382 C386 1.373 . S
C382 C388 1.505 . S
C383 C382 1.379 . S
C383 C385 1.369 . S
C383 H394 0.930 . S
C384 C386 1.383 . S
C384 C387 1.382 . S
C384 H395 0.930 . S
C385 C383 1.369 . S
C385 C387 1.392 . S
C385 H396 0.930 . S
C386 C382 1.373 . S
C386 C384 1.383 . S
C386 H397 0.931 . S
C387 C384 1.382 . S
C387 C385 1.392 . S
C388 Eu359 2.828 . S
C388 O372 1.249 . S
C388 O373 1.244 . S
C388 C382 1.505 . S
C389 O376 1.258 . S
C389 O377 1.242 . S
H390 C362 0.930 . S
H391 C363 0.930 . S
H392 C364 0.930 . S
H393 C365 0.931 . S
H394 C383 0.930 . S
H395 C384 0.930 . S
H396 C385 0.930 . S
H397 C386 0.931 . S
Eu398 C407 2.828 . S
Eu398 O409 2.392 . S
Eu398 O411 2.418 . S
Eu398 O416 2.373 . S
Eu398 O419 2.488 . S
Eu398 O420 2.471 . S
Eu398 O421 2.349 . S
Eu399 O408 2.373 . S
Eu399 O412 2.488 . S
Eu399 O413 2.471 . S
Eu399 O414 2.349 . S
Eu399 O417 2.392 . S
Eu399 O418 2.418 . S
Eu399 C428 2.828 . S
C400 O418 1.244 . S
C400 O421 1.265 . S
C401 C402 1.379 . S
C401 C405 1.373 . S
C401 C407 1.505 . S
C402 C401 1.379 . S
C402 C404 1.369 . S
C402 H430 0.930 . S
C403 C405 1.383 . S
C403 C406 1.382 . S
C403 H431 0.930 . S
C404 C402 1.369 . S
C404 C406 1.392 . S
C404 H432 0.930 . S
C405 C401 1.373 . S
C405 C403 1.383 . S
C405 H433 0.931 . S
C406 C403 1.382 . S
C406 C404 1.392 . S
C407 Eu398 2.828 . S
C407 C401 1.505 . S
C407 O419 1.249 . S
C407 O420 1.244 . S
O408 Eu399 2.373 . S
O408 C410 1.258 . S
O409 Eu398 2.392 . S
O409 C410 1.242 . S
C410 O408 1.258 . S
C410 O409 1.242 . S
O411 Eu398 2.418 . S
O411 C415 1.244 . S
O412 Eu399 2.488 . S
O412 C428 1.249 . S
O413 Eu399 2.471 . S
O413 C428 1.244 . S
O414 Eu399 2.349 . S
O414 C415 1.265 . S
C415 O411 1.244 . S
C415 O414 1.265 . S
O416 Eu398 2.373 . S
O416 C429 1.258 . S
O417 Eu399 2.392 . S
O417 C429 1.242 . S
O418 Eu399 2.418 . S
O418 C400 1.244 . S
O419 Eu398 2.488 . S
O419 C407 1.249 . S
O420 Eu398 2.471 . S
O420 C407 1.244 . S
O421 Eu398 2.349 . S
O421 C400 1.265 . S
C422 C423 1.379 . S
C422 C426 1.373 . S
C422 C428 1.505 . S
C423 C422 1.379 . S
C423 C425 1.369 . S
C423 H434 0.930 . S
C424 C426 1.383 . S
C424 C427 1.382 . S
C424 H435 0.930 . S
C425 C423 1.369 . S
C425 C427 1.392 . S
C425 H436 0.930 . S
C426 C422 1.373 . S
C426 C424 1.383 . S
C426 H437 0.931 . S
C427 C424 1.382 . S
C427 C425 1.392 . S
C428 Eu399 2.828 . S
C428 O412 1.249 . S
C428 O413 1.244 . S
C428 C422 1.505 . S
C429 O416 1.258 . S
C429 O417 1.242 . S
H430 C402 0.930 . S
H431 C403 0.930 . S
H432 C404 0.930 . S
H433 C405 0.931 . S
H434 C423 0.930 . S
H435 C424 0.930 . S
H436 C425 0.930 . S
H437 C426 0.931 . S
Eu438 C447 2.828 . S
Eu438 O449 2.392 . S
Eu438 O451 2.418 . S
Eu438 O456 2.373 . S
Eu438 O459 2.488 . S
Eu438 O460 2.471 . S
Eu438 O461 2.349 . S
Eu439 O448 2.373 . S
Eu439 O452 2.488 . S
Eu439 O453 2.471 . S
Eu439 O454 2.349 . S
Eu439 O457 2.392 . S
Eu439 O458 2.418 . S
Eu439 C468 2.828 . S
C440 O458 1.244 . S
C440 O461 1.265 . S
C441 C442 1.379 . S
C441 C445 1.373 . S
C441 C447 1.505 . S
C442 C441 1.379 . S
C442 C444 1.369 . S
C442 H470 0.930 . S
C443 C445 1.383 . S
C443 C446 1.382 . S
C443 H471 0.930 . S
C444 C442 1.369 . S
C444 C446 1.392 . S
C444 H472 0.930 . S
C445 C441 1.373 . S
C445 C443 1.383 . S
C445 H473 0.931 . S
C446 C443 1.382 . S
C446 C444 1.392 . S
C447 Eu438 2.828 . S
C447 C441 1.505 . S
C447 O459 1.249 . S
C447 O460 1.244 . S
O448 Eu439 2.373 . S
O448 C450 1.258 . S
O449 Eu438 2.392 . S
O449 C450 1.242 . S
C450 O448 1.258 . S
C450 O449 1.242 . S
O451 Eu438 2.418 . S
O451 C455 1.244 . S
O452 Eu439 2.488 . S
O452 C468 1.249 . S
O453 Eu439 2.471 . S
O453 C468 1.244 . S
O454 Eu439 2.349 . S
O454 C455 1.265 . S
C455 O451 1.244 . S
C455 O454 1.265 . S
O456 Eu438 2.373 . S
O456 C469 1.258 . S
O457 Eu439 2.392 . S
O457 C469 1.242 . S
O458 Eu439 2.418 . S
O458 C440 1.244 . S
O459 Eu438 2.488 . S
O459 C447 1.249 . S
O460 Eu438 2.471 . S
O460 C447 1.244 . S
O461 Eu438 2.349 . S
O461 C440 1.265 . S
C462 C463 1.379 . S
C462 C466 1.373 . S
C462 C468 1.505 . S
C463 C462 1.379 . S
C463 C465 1.369 . S
C463 H474 0.930 . S
C464 C466 1.383 . S
C464 C467 1.382 . S
C464 H475 0.930 . S
C465 C463 1.369 . S
C465 C467 1.392 . S
C465 H476 0.930 . S
C466 C462 1.373 . S
C466 C464 1.383 . S
C466 H477 0.931 . S
C467 C464 1.382 . S
C467 C465 1.392 . S
C468 Eu439 2.828 . S
C468 O452 1.249 . S
C468 O453 1.244 . S
C468 C462 1.505 . S
C469 O456 1.258 . S
C469 O457 1.242 . S
H470 C442 0.930 . S
H471 C443 0.930 . S
H472 C444 0.930 . S
H473 C445 0.931 . S
H474 C463 0.930 . S
H475 C464 0.930 . S
H476 C465 0.930 . S
H477 C466 0.931 . S
Eu478 C487 2.828 . S
Eu478 O489 2.392 . S
Eu478 O491 2.418 . S
Eu478 O496 2.373 . S
Eu478 O499 2.488 . S
Eu478 O500 2.471 . S
Eu478 O501 2.349 . S
Eu479 O488 2.373 . S
Eu479 O492 2.488 . S
Eu479 O493 2.471 . S
Eu479 O494 2.349 . S
Eu479 O497 2.392 . S
Eu479 O498 2.418 . S
Eu479 C508 2.828 . S
C480 O498 1.244 . S
C480 O501 1.265 . S
C481 C482 1.379 . S
C481 C485 1.373 . S
C481 C487 1.505 . S
C482 C481 1.379 . S
C482 C484 1.369 . S
C482 H510 0.930 . S
C483 C485 1.383 . S
C483 C486 1.382 . S
C483 H511 0.930 . S
C484 C482 1.369 . S
C484 C486 1.392 . S
C484 H512 0.930 . S
C485 C481 1.373 . S
C485 C483 1.383 . S
C485 H513 0.931 . S
C486 C483 1.382 . S
C486 C484 1.392 . S
C487 Eu478 2.828 . S
C487 C481 1.505 . S
C487 O499 1.249 . S
C487 O500 1.244 . S
O488 Eu479 2.373 . S
O488 C490 1.258 . S
O489 Eu478 2.392 . S
O489 C490 1.242 . S
C490 O488 1.258 . S
C490 O489 1.242 . S
O491 Eu478 2.418 . S
O491 C495 1.244 . S
O492 Eu479 2.488 . S
O492 C508 1.249 . S
O493 Eu479 2.471 . S
O493 C508 1.244 . S
O494 Eu479 2.349 . S
O494 C495 1.265 . S
C495 O491 1.244 . S
C495 O494 1.265 . S
O496 Eu478 2.373 . S
O496 C509 1.258 . S
O497 Eu479 2.392 . S
O497 C509 1.242 . S
O498 Eu479 2.418 . S
O498 C480 1.244 . S
O499 Eu478 2.488 . S
O499 C487 1.249 . S
O500 Eu478 2.471 . S
O500 C487 1.244 . S
O501 Eu478 2.349 . S
O501 C480 1.265 . S
C502 C503 1.379 . S
C502 C506 1.373 . S
C502 C508 1.505 . S
C503 C502 1.379 . S
C503 C505 1.369 . S
C503 H514 0.930 . S
C504 C506 1.383 . S
C504 C507 1.382 . S
C504 H515 0.930 . S
C505 C503 1.369 . S
C505 C507 1.392 . S
C505 H516 0.930 . S
C506 C502 1.373 . S
C506 C504 1.383 . S
C506 H517 0.931 . S
C507 C504 1.382 . S
C507 C505 1.392 . S
C508 Eu479 2.828 . S
C508 O492 1.249 . S
C508 O493 1.244 . S
C508 C502 1.505 . S
C509 O496 1.258 . S
C509 O497 1.242 . S
H510 C482 0.930 . S
H511 C483 0.930 . S
H512 C484 0.930 . S
H513 C485 0.931 . S
H514 C503 0.930 . S
H515 C504 0.930 . S
H516 C505 0.930 . S
H517 C506 0.931 . S
Eu518 C527 2.828 . S
Eu518 O529 2.392 . S
Eu518 O531 2.418 . S
Eu518 O536 2.373 . S
Eu518 O539 2.488 . S
Eu518 O540 2.471 . S
Eu518 O541 2.349 . S
Eu519 O528 2.373 . S
Eu519 O532 2.488 . S
Eu519 O533 2.471 . S
Eu519 O534 2.349 . S
Eu519 O537 2.392 . S
Eu519 O538 2.418 . S
Eu519 C548 2.828 . S
C520 O538 1.244 . S
C520 O541 1.265 . S
C521 C522 1.379 . S
C521 C525 1.373 . S
C521 C527 1.505 . S
C522 C521 1.379 . S
C522 C524 1.369 . S
C522 H550 0.930 . S
C523 C525 1.383 . S
C523 C526 1.382 . S
C523 H551 0.930 . S
C524 C522 1.369 . S
C524 C526 1.392 . S
C524 H552 0.930 . S
C525 C521 1.373 . S
C525 C523 1.383 . S
C525 H553 0.931 . S
C526 C523 1.382 . S
C526 C524 1.392 . S
C527 Eu518 2.828 . S
C527 C521 1.505 . S
C527 O539 1.249 . S
C527 O540 1.244 . S
O528 Eu519 2.373 . S
O528 C530 1.258 . S
O529 Eu518 2.392 . S
O529 C530 1.242 . S
C530 O528 1.258 . S
C530 O529 1.242 . S
O531 Eu518 2.418 . S
O531 C535 1.244 . S
O532 Eu519 2.488 . S
O532 C548 1.249 . S
O533 Eu519 2.471 . S
O533 C548 1.244 . S
O534 Eu519 2.349 . S
O534 C535 1.265 . S
C535 O531 1.244 . S
C535 O534 1.265 . S
O536 Eu518 2.373 . S
O536 C549 1.258 . S
O537 Eu519 2.392 . S
O537 C549 1.242 . S
O538 Eu519 2.418 . S
O538 C520 1.244 . S
O539 Eu518 2.488 . S
O539 C527 1.249 . S
O540 Eu518 2.471 . S
O540 C527 1.244 . S
O541 Eu518 2.349 . S
O541 C520 1.265 . S
C542 C543 1.379 . S
C542 C546 1.373 . S
C542 C548 1.505 . S
C543 C542 1.379 . S
C543 C545 1.369 . S
C543 H554 0.930 . S
C544 C546 1.383 . S
C544 C547 1.382 . S
C544 H555 0.930 . S
C545 C543 1.369 . S
C545 C547 1.392 . S
C545 H556 0.930 . S
C546 C542 1.373 . S
C546 C544 1.383 . S
C546 H557 0.931 . S
C547 C544 1.382 . S
C547 C545 1.392 . S
C548 Eu519 2.828 . S
C548 O532 1.249 . S
C548 O533 1.244 . S
C548 C542 1.505 . S
C549 O536 1.258 . S
C549 O537 1.242 . S
H550 C522 0.930 . S
H551 C523 0.930 . S
H552 C524 0.930 . S
H553 C525 0.931 . S
H554 C543 0.930 . S
H555 C544 0.930 . S
H556 C545 0.930 . S
H557 C546 0.931 . S
H558 C566 0.929 . S
H559 C568 0.930 . S
H560 C570 0.930 . S
H561 C573 0.929 . S
H562 C576 0.930 . S
H563 C578 0.960 . S
H564 C578 0.960 . S
H565 C578 0.960 . S
C566 H558 0.929 . S
C566 C567 1.377 . S
C566 C568 1.384 . S
C567 C566 1.377 . S
C567 C573 1.390 . S
C568 H559 0.930 . S
C568 C566 1.384 . S
C568 C569 1.372 . S
C569 C568 1.372 . S
C569 C570 1.400 . S
C569 C574 1.490 . S
C570 H560 0.930 . S
C570 C569 1.400 . S
C570 C573 1.386 . S
H571 C587 0.930 . S
H572 C588 0.931 . S
C573 H561 0.929 . S
C573 C567 1.390 . S
C573 C570 1.386 . S
C574 C569 1.490 . S
C574 C576 1.395 . S
C574 C577 1.403 . S
H575 C581 0.930 . S
C576 H562 0.930 . S
C576 C574 1.395 . S
C576 C579 1.403 . S
C577 C574 1.403 . S
C577 C578 1.524 . S
C577 C581 1.400 . S
C578 H563 0.960 . S
C578 H564 0.960 . S
C578 H565 0.960 . S
C578 C577 1.524 . S
C579 C576 1.403 . S
C579 C580 1.392 . S
C579 C583 1.495 . S
C580 C579 1.392 . S
C580 C581 1.385 . S
C580 C582 1.478 . S
C581 H575 0.930 . S
C581 C577 1.400 . S
C581 C580 1.385 . S
C582 C580 1.478 . S
C582 C584 1.381 . S
C582 C588 1.383 . S
C583 C579 1.495 . S
C583 H589 0.959 . S
C583 H590 0.961 . S
C583 H591 0.960 . S
C584 C582 1.381 . S
C584 C585 1.394 . S
C584 H592 0.930 . S
C585 C584 1.394 . S
C585 C586 1.383 . S
C585 H593 0.929 . S
C586 C585 1.383 . S
C586 C587 1.377 . S
C587 H571 0.930 . S
C587 C586 1.377 . S
C587 C588 1.379 . S
C588 H572 0.931 . S
C588 C582 1.383 . S
C588 C587 1.379 . S
H589 C583 0.959 . S
H590 C583 0.961 . S
H591 C583 0.960 . S
H592 C584 0.930 . S
H593 C585 0.929 . S
H594 C602 0.929 . S
H595 C604 0.930 . S
H596 C606 0.930 . S
H597 C609 0.929 . S
H598 C612 0.930 . S
H599 C614 0.960 . S
H600 C614 0.960 . S
H601 C614 0.960 . S
C602 H594 0.929 . S
C602 C603 1.377 . S
C602 C604 1.384 . S
C603 C602 1.377 . S
C603 C609 1.390 . S
C604 H595 0.930 . S
C604 C602 1.384 . S
C604 C605 1.372 . S
C605 C604 1.372 . S
C605 C606 1.400 . S
C605 C610 1.490 . S
C606 H596 0.930 . S
C606 C605 1.400 . S
C606 C609 1.386 . S
H607 C623 0.930 . S
H608 C624 0.931 . S
C609 H597 0.929 . S
C609 C603 1.390 . S
C609 C606 1.386 . S
C610 C605 1.490 . S
C610 C612 1.395 . S
C610 C613 1.403 . S
H611 C617 0.930 . S
C612 H598 0.930 . S
C612 C610 1.395 . S
C612 C615 1.403 . S
C613 C610 1.403 . S
C613 C614 1.524 . S
C613 C617 1.400 . S
C614 H599 0.960 . S
C614 H600 0.960 . S
C614 H601 0.960 . S
C614 C613 1.524 . S
C615 C612 1.403 . S
C615 C616 1.392 . S
C615 C619 1.495 . S
C616 C615 1.392 . S
C616 C617 1.385 . S
C616 C618 1.478 . S
C617 H611 0.930 . S
C617 C613 1.400 . S
C617 C616 1.385 . S
C618 C616 1.478 . S
C618 C620 1.381 . S
C618 C624 1.383 . S
C619 C615 1.495 . S
C619 H625 0.959 . S
C619 H626 0.961 . S
C619 H627 0.960 . S
C620 C618 1.381 . S
C620 C621 1.394 . S
C620 H628 0.930 . S
C621 C620 1.394 . S
C621 C622 1.383 . S
C621 H629 0.929 . S
C622 C621 1.383 . S
C622 C623 1.377 . S
C623 H607 0.930 . S
C623 C622 1.377 . S
C623 C624 1.379 . S
C624 H608 0.931 . S
C624 C618 1.383 . S
C624 C623 1.379 . S
H625 C619 0.959 . S
H626 C619 0.961 . S
H627 C619 0.960 . S
H628 C620 0.930 . S
H629 C621 0.929 . S
H630 C638 0.929 . S
H631 C640 0.930 . S
H632 C642 0.930 . S
H633 C645 0.929 . S
H634 C648 0.930 . S
H635 C650 0.960 . S
H636 C650 0.960 . S
H637 C650 0.960 . S
C638 H630 0.929 . S
C638 C639 1.377 . S
C638 C640 1.384 . S
C639 C638 1.377 . S
C639 C645 1.390 . S
C640 H631 0.930 . S
C640 C638 1.384 . S
C640 C641 1.372 . S
C641 C640 1.372 . S
C641 C642 1.400 . S
C641 C646 1.490 . S
C642 H632 0.930 . S
C642 C641 1.400 . S
C642 C645 1.386 . S
H643 C659 0.930 . S
H644 C660 0.931 . S
C645 H633 0.929 . S
C645 C639 1.390 . S
C645 C642 1.386 . S
C646 C641 1.490 . S
C646 C648 1.395 . S
C646 C649 1.403 . S
H647 C653 0.930 . S
C648 H634 0.930 . S
C648 C646 1.395 . S
C648 C651 1.403 . S
C649 C646 1.403 . S
C649 C650 1.524 . S
C649 C653 1.400 . S
C650 H635 0.960 . S
C650 H636 0.960 . S
C650 H637 0.960 . S
C650 C649 1.524 . S
C651 C648 1.403 . S
C651 C652 1.392 . S
C651 C655 1.495 . S
C652 C651 1.392 . S
C652 C653 1.385 . S
C652 C654 1.478 . S
C653 H647 0.930 . S
C653 C649 1.400 . S
C653 C652 1.385 . S
C654 C652 1.478 . S
C654 C656 1.381 . S
C654 C660 1.383 . S
C655 C651 1.495 . S
C655 H661 0.959 1_554 S
C655 H662 0.961 . S
C655 H663 0.960 1_554 S
C656 C654 1.381 . S
C656 C657 1.394 . S
C656 H664 0.930 . S
C657 C656 1.394 . S
C657 C658 1.383 . S
C657 H665 0.929 . S
C658 C657 1.383 . S
C658 C659 1.377 . S
C659 H643 0.930 . S
C659 C658 1.377 . S
C659 C660 1.379 . S
C660 H644 0.931 . S
C660 C654 1.383 . S
C660 C659 1.379 . S
H661 C655 0.959 1_556 S
H662 C655 0.961 . S
H663 C655 0.960 1_556 S
H664 C656 0.930 . S
H665 C657 0.929 . S
H666 C674 0.929 . S
H667 C676 0.930 . S
H668 C678 0.930 . S
H669 C681 0.929 . S
H670 C684 0.930 . S
H671 C686 0.960 . S
H672 C686 0.960 . S
H673 C686 0.960 . S
C674 H666 0.929 . S
C674 C675 1.377 . S
C674 C676 1.384 . S
C675 C674 1.377 . S
C675 C681 1.390 . S
C676 H667 0.930 . S
C676 C674 1.384 . S
C676 C677 1.372 . S
C677 C676 1.372 . S
C677 C678 1.400 . S
C677 C682 1.490 . S
C678 H668 0.930 . S
C678 C677 1.400 . S
C678 C681 1.386 . S
H679 C695 0.930 . S
H680 C696 0.931 . S
C681 H669 0.929 . S
C681 C675 1.390 . S
C681 C678 1.386 . S
C682 C677 1.490 . S
C682 C684 1.395 . S
C682 C685 1.403 . S
H683 C689 0.930 . S
C684 H670 0.930 . S
C684 C682 1.395 . S
C684 C687 1.403 . S
C685 C682 1.403 . S
C685 C686 1.524 . S
C685 C689 1.400 . S
C686 H671 0.960 . S
C686 H672 0.960 . S
C686 H673 0.960 . S
C686 C685 1.524 . S
C687 C684 1.403 . S
C687 C688 1.392 . S
C687 C691 1.495 . S
C688 C687 1.392 . S
C688 C689 1.385 . S
C688 C690 1.478 . S
C689 H683 0.930 . S
C689 C685 1.400 . S
C689 C688 1.385 . S
C690 C688 1.478 . S
C690 C692 1.381 . S
C690 C696 1.383 1_556 S
C691 C687 1.495 . S
C691 H697 0.959 . S
C691 H698 0.961 . S
C691 H699 0.960 . S
C692 C690 1.381 . S
C692 C693 1.394 . S
C692 H700 0.930 . S
C693 C692 1.394 . S
C693 C694 1.329 1_556 S
C693 H701 0.929 . S
C694 C693 1.329 1_554 S
C694 C695 1.423 . S
C695 H679 0.930 . S
C695 C694 1.423 . S
C695 C696 1.379 . S
C696 H680 0.931 . S
C696 C690 1.383 1_554 S
C696 C695 1.379 . S
H697 C691 0.959 . S
H698 C691 0.961 . S
H699 C691 0.960 . S
H700 C692 0.930 . S
H701 C693 0.929 . S
H702 C710 0.929 . S
H703 C712 0.930 . S
H704 C714 0.930 . S
H705 C717 0.929 . S
H706 C720 0.930 . S
H707 C722 0.960 . S
H708 C722 0.960 . S
H709 C722 0.960 . S
C710 H702 0.929 . S
C710 C711 1.377 . S
C710 C712 1.384 . S
C711 C710 1.377 . S
C711 C717 1.390 . S
C712 H703 0.930 . S
C712 C710 1.384 . S
C712 C713 1.372 . S
C713 C712 1.372 . S
C713 C714 1.400 . S
C713 C718 1.490 . S
C714 H704 0.930 . S
C714 C713 1.400 . S
C714 C717 1.386 . S
H715 C731 0.930 . S
H716 C732 0.931 . S
C717 H705 0.929 . S
C717 C711 1.390 . S
C717 C714 1.386 . S
C718 C713 1.490 . S
C718 C720 1.395 . S
C718 C721 1.403 . S
H719 C725 0.930 . S
C720 H706 0.930 . S
C720 C718 1.395 . S
C720 C723 1.403 . S
C721 C718 1.403 . S
C721 C722 1.524 . S
C721 C725 1.400 . S
C722 H707 0.960 . S
C722 H708 0.960 . S
C722 H709 0.960 . S
C722 C721 1.524 . S
C723 C720 1.403 . S
C723 C724 1.392 . S
C723 C727 1.495 1_556 S
C724 C723 1.392 . S
C724 C725 1.385 . S
C724 C726 1.478 . S
C725 H719 0.930 . S
C725 C721 1.400 . S
C725 C724 1.385 . S
C726 C724 1.478 . S
C726 C728 1.381 . S
C726 C732 1.383 . S
C727 C723 1.495 1_554 S
C727 H733 0.959 . S
C727 H734 0.961 . S
C727 H735 0.960 . S
C728 C726 1.381 . S
C728 C729 1.394 1_556 S
C728 H736 0.932 . S
C729 C728 1.394 1_554 S
C729 C730 1.370 1_554 S
C729 H737 0.929 . S
C730 C729 1.370 1_556 S
C730 C731 1.418 . S
C731 H715 0.930 . S
C731 C730 1.418 . S
C731 C732 1.379 . S
C732 H716 0.931 . S
C732 C726 1.383 . S
C732 C731 1.379 . S
H733 C727 0.959 . S
H734 C727 0.961 . S
H735 C727 0.960 . S
H736 C728 0.932 . S
H737 C729 0.929 . S
H738 C746 0.929 . S
H739 C748 0.930 . S
H740 C750 0.930 1_554 S
H741 C753 0.929 1_554 S
H742 C756 0.930 . S
H743 C758 0.960 . S
H744 C758 0.960 . S
H745 C758 0.960 1_554 S
C746 H738 0.929 . S
C746 C747 1.377 . S
C746 C748 1.384 . S
C747 C746 1.377 . S
C747 C753 1.390 . S
C748 H739 0.930 . S
C748 C746 1.384 . S
C748 C749 1.372 . S
C749 C748 1.372 . S
C749 C750 1.400 . S
C749 C754 1.490 . S
C750 H740 0.930 1_556 S
C750 C749 1.400 . S
C750 C753 1.386 . S
H751 C767 0.930 . S
H752 C768 0.931 . S
C753 H741 0.929 1_556 S
C753 C747 1.390 . S
C753 C750 1.386 . S
C754 C749 1.490 . S
C754 C756 1.395 . S
C754 C757 1.403 . S
H755 C761 0.935 . S
C756 H742 0.930 . S
C756 C754 1.395 . S
C756 C759 1.403 . S
C757 C754 1.403 . S
C757 C758 1.524 . S
C757 C761 1.400 . S
C758 H743 0.960 . S
C758 H744 0.960 . S
C758 H745 0.960 1_556 S
C758 C757 1.524 . S
C759 C756 1.403 . S
C759 C760 1.392 . S
C759 C763 1.495 . S
C760 C759 1.392 . S
C760 C761 1.385 . S
C760 C762 1.478 . S
C761 H755 0.935 . S
C761 C757 1.400 . S
C761 C760 1.385 . S
C762 C760 1.478 . S
C762 C764 1.381 . S
C762 C768 1.383 1_556 S
C763 C759 1.495 . S
C763 H769 0.959 . S
C763 H770 0.961 . S
C763 H771 0.960 . S
C764 C762 1.381 . S
C764 C765 1.394 . S
C764 H772 0.930 . S
C765 C764 1.394 . S
C765 C766 1.383 1_556 S
C765 H773 0.929 . S
C766 C765 1.383 1_554 S
C766 C767 1.377 . S
C767 H751 0.930 . S
C767 C766 1.377 . S
C767 C768 1.379 . S
C768 H752 0.931 . S
C768 C762 1.383 1_554 S
C768 C767 1.379 . S
H769 C763 0.959 . S
H770 C763 0.961 . S
H771 C763 0.960 . S
H772 C764 0.930 . S
H773 C765 0.929 . S
H774 C782 0.929 . S
H775 C784 0.930 . S
H776 C786 0.930 . S
H777 C789 0.929 . S
H778 C792 0.930 . S
H779 C794 0.960 . S
H780 C794 0.960 . S
H781 C794 0.960 . S
C782 H774 0.929 . S
C782 C783 1.377 . S
C782 C784 1.384 . S
C783 C782 1.377 . S
C783 C789 1.390 . S
C784 H775 0.930 . S
C784 C782 1.384 . S
C784 C785 1.372 . S
C785 C784 1.372 . S
C785 C786 1.400 . S
C785 C790 1.490 . S
C786 H776 0.930 . S
C786 C785 1.400 . S
C786 C789 1.386 . S
H787 C803 0.930 . S
H788 C804 0.931 . S
C789 H777 0.929 . S
C789 C783 1.390 . S
C789 C786 1.386 . S
C790 C785 1.490 . S
C790 C792 1.395 . S
C790 C793 1.403 . S
H791 C797 0.930 . S
C792 H778 0.930 . S
C792 C790 1.395 . S
C792 C795 1.403 . S
C793 C790 1.403 . S
C793 C794 1.524 . S
C793 C797 1.400 . S
C794 H779 0.960 . S
C794 H780 0.960 . S
C794 H781 0.960 . S
C794 C793 1.524 . S
C795 C792 1.403 . S
C795 C796 1.392 . S
C795 C799 1.495 . S
C796 C795 1.392 . S
C796 C797 1.385 . S
C796 C798 1.478 . S
C797 H791 0.930 . S
C797 C793 1.400 . S
C797 C796 1.385 . S
C798 C796 1.478 . S
C798 C800 1.381 . S
C798 C804 1.383 1_556 S
C799 C795 1.495 . S
C799 H805 0.959 . S
C799 H806 0.961 1_556 S
C799 H807 0.960 . S
C800 C798 1.381 . S
C800 C801 1.394 . S
C800 H808 0.930 . S
C801 C800 1.394 . S
C801 C802 1.383 . S
C801 H809 0.929 . S
C802 C801 1.383 . S
C802 C803 1.377 1_556 S
C803 H787 0.930 . S
C803 C802 1.377 1_554 S
C803 C804 1.379 . S
C804 H788 0.931 . S
C804 C798 1.383 1_554 S
C804 C803 1.379 . S
H805 C799 0.959 . S
H806 C799 0.961 1_554 S
H807 C799 0.960 . S
H808 C800 0.930 . S
H809 C801 0.929 . S
H810 C818 0.929 . S
H811 C820 0.930 . S
H812 C822 0.930 . S
H813 C825 0.929 . S
H814 C828 0.930 . S
H815 C830 0.960 . S
H816 C830 0.960 . S
H817 C830 0.960 . S
C818 H810 0.929 . S
C818 C819 1.377 . S
C818 C820 1.384 . S
C819 C818 1.377 . S
C819 C825 1.390 . S
C820 H811 0.930 . S
C820 C818 1.384 . S
C820 C821 1.372 . S
C821 C820 1.372 . S
C821 C822 1.400 . S
C821 C826 1.490 . S
C822 H812 0.930 . S
C822 C821 1.400 . S
C822 C825 1.386 . S
H823 C839 0.930 . S
H824 C840 0.931 1_554 S
C825 H813 0.929 . S
C825 C819 1.390 . S
C825 C822 1.386 . S
C826 C821 1.490 . S
C826 C828 1.395 . S
C826 C829 1.403 . S
H827 C833 0.930 . S
C828 H814 0.930 . S
C828 C826 1.395 . S
C828 C831 1.403 . S
C829 C826 1.403 . S
C829 C830 1.524 . S
C829 C833 1.400 . S
C830 H815 0.960 . S
C830 H816 0.960 . S
C830 H817 0.960 . S
C830 C829 1.524 . S
C831 C828 1.403 . S
C831 C832 1.392 . S
C831 C835 1.495 . S
C832 C831 1.392 . S
C832 C833 1.385 . S
C832 C834 1.478 . S
C833 H827 0.930 . S
C833 C829 1.400 . S
C833 C832 1.385 . S
C834 C832 1.478 . S
C834 C836 1.381 . S
C834 C840 1.383 . S
C835 C831 1.495 . S
C835 H841 0.959 . S
C835 H842 0.961 . S
C835 H843 0.960 . S
C836 C834 1.381 . S
C836 C837 1.394 . S
C836 H844 0.930 . S
C837 C836 1.394 . S
C837 C838 1.383 . S
C837 H845 0.929 . S
C838 C837 1.383 . S
C838 C839 1.377 1_556 S
C839 H823 0.930 . S
C839 C838 1.377 1_554 S
C839 C840 1.379 1_554 S
C840 H824 0.931 1_556 S
C840 C834 1.383 . S
C840 C839 1.379 1_556 S
H841 C835 0.959 . S
H842 C835 0.961 . S
H843 C835 0.960 . S
H844 C836 0.930 . S
H845 C837 0.929 . S
H846 C854 0.929 . S
H847 C856 0.930 1_554 S
H848 C858 0.930 . S
H849 C861 0.929 . S
H850 C864 0.930 . S
H851 C866 0.960 . S
H852 C866 0.960 . S
H853 C866 0.960 . S
C854 H846 0.929 . S
C854 C855 1.377 . S
C854 C856 1.384 . S
C855 C854 1.377 . S
C855 C861 1.390 . S
C856 H847 0.930 1_556 S
C856 C854 1.384 . S
C856 C857 1.372 . S
C857 C856 1.372 . S
C857 C858 1.400 . S
C857 C862 1.490 . S
C858 H848 0.930 . S
C858 C857 1.400 . S
C858 C861 1.386 . S
H859 C875 0.929 . S
H860 C876 0.931 . S
C861 H849 0.929 . S
C861 C855 1.390 . S
C861 C858 1.386 . S
C862 C857 1.490 . S
C862 C864 1.395 . S
C862 C865 1.403 1_556 S
H863 C869 0.930 . S
C864 H850 0.930 . S
C864 C862 1.395 . S
C864 C867 1.403 . S
C865 C862 1.403 1_554 S
C865 C866 1.524 . S
C865 C869 1.400 . S
C866 H851 0.960 . S
C866 H852 0.960 . S
C866 H853 0.960 . S
C866 C865 1.524 . S
C867 C864 1.403 . S
C867 C868 1.422 . S
C867 C871 1.495 . S
C868 C867 1.422 . S
C868 C869 1.356 1_556 S
C868 C870 1.477 1_556 S
C869 H863 0.930 . S
C869 C865 1.400 . S
C869 C868 1.356 1_554 S
C870 C868 1.477 1_554 S
C870 C872 1.381 . S
C870 C876 1.383 1_554 S
C871 C867 1.495 . S
C871 H877 0.959 . S
C871 H878 0.961 . S
C871 H879 0.960 . S
C872 C870 1.381 . S
C872 C873 1.394 . S
C872 H880 0.930 . S
C873 C872 1.394 . S
C873 C874 1.383 . S
C873 H881 0.929 . S
C874 C873 1.383 . S
C874 C875 1.378 1_554 S
C875 H859 0.929 . S
C875 C874 1.378 1_556 S
C875 C876 1.379 . S
C876 H860 0.931 . S
C876 C870 1.383 1_556 S
C876 C875 1.379 . S
H877 C871 0.959 . S
H878 C871 0.961 . S
H879 C871 0.960 . S
H880 C872 0.930 . S
H881 C873 0.929 . S
H882 C890 0.929 . S
H883 C892 0.930 . S
H884 C894 0.930 . S
H885 C897 0.929 . S
H886 C900 0.930 . S
H887 C902 0.960 . S
H888 C902 0.960 . S
H889 C902 0.960 . S
C890 H882 0.929 . S
C890 C891 1.377 . S
C890 C892 1.384 . S
C891 C890 1.377 . S
C891 C897 1.390 . S
C892 H883 0.930 . S
C892 C890 1.384 . S
C892 C893 1.372 . S
C893 C892 1.372 . S
C893 C894 1.400 . S
C893 C898 1.490 . S
C894 H884 0.930 . S
C894 C893 1.400 . S
C894 C897 1.386 . S
H895 C911 0.930 . S
H896 C912 0.931 . S
C897 H885 0.929 . S
C897 C891 1.390 . S
C897 C894 1.386 . S
C898 C893 1.490 . S
C898 C900 1.395 . S
C898 C901 1.403 . S
H899 C905 0.930 . S
C900 H886 0.930 . S
C900 C898 1.395 . S
C900 C903 1.403 . S
C901 C898 1.403 . S
C901 C902 1.524 . S
C901 C905 1.400 . S
C902 H887 0.960 . S
C902 H888 0.960 . S
C902 H889 0.960 . S
C902 C901 1.524 . S
C903 C900 1.403 . S
C903 C904 1.392 . S
C903 C907 1.495 . S
C904 C903 1.392 . S
C904 C905 1.385 . S
C904 C906 1.478 . S
C905 H899 0.930 . S
C905 C901 1.400 . S
C905 C904 1.385 . S
C906 C904 1.478 . S
C906 C908 1.381 . S
C906 C912 1.383 . S
C907 C903 1.495 . S
C907 H913 0.959 . S
C907 H914 0.961 . S
C907 H915 0.960 . S
C908 C906 1.381 . S
C908 C909 1.394 . S
C908 H916 0.930 . S
C909 C908 1.394 . S
C909 C910 1.383 . S
C909 H917 0.929 . S
C910 C909 1.383 . S
C910 C911 1.377 . S
C911 H895 0.930 . S
C911 C910 1.377 . S
C911 C912 1.379 . S
C912 H896 0.931 . S
C912 C906 1.383 . S
C912 C911 1.379 . S
H913 C907 0.959 . S
H914 C907 0.961 . S
H915 C907 0.960 . S
H916 C908 0.930 . S
H917 C909 0.929 . S
H918 C926 0.929 . S
H919 C928 0.930 . S
H920 C930 0.930 . S
H921 C933 0.929 . S
H922 C936 0.930 . S
H923 C938 0.960 . S
H924 C938 0.960 . S
H925 C938 0.960 . S
C926 H918 0.929 . S
C926 C927 1.377 . S
C926 C928 1.384 . S
C927 C926 1.377 . S
C927 C933 1.390 . S
C928 H919 0.930 . S
C928 C926 1.384 . S
C928 C929 1.372 . S
C929 C928 1.372 . S
C929 C930 1.400 . S
C929 C934 1.490 . S
C930 H920 0.930 . S
C930 C929 1.400 . S
C930 C933 1.386 . S
H931 C947 0.930 . S
H932 C948 0.931 . S
C933 H921 0.929 . S
C933 C927 1.390 . S
C933 C930 1.386 . S
C934 C929 1.490 . S
C934 C936 1.395 . S
C934 C937 1.403 . S
H935 C941 0.930 . S
C936 H922 0.930 . S
C936 C934 1.395 . S
C936 C939 1.403 . S
C937 C934 1.403 . S
C937 C938 1.524 . S
C937 C941 1.400 . S
C938 H923 0.960 . S
C938 H924 0.960 . S
C938 H925 0.960 . S
C938 C937 1.524 . S
C939 C936 1.403 . S
C939 C940 1.392 . S
C939 C943 1.495 . S
C940 C939 1.392 . S
C940 C941 1.385 . S
C940 C942 1.478 . S
C941 H935 0.930 . S
C941 C937 1.400 . S
C941 C940 1.385 . S
C942 C940 1.478 . S
C942 C944 1.381 . S
C942 C948 1.383 . S
C943 C939 1.495 . S
C943 H949 0.959 . S
C943 H950 0.961 . S
C943 H951 0.960 . S
C944 C942 1.381 . S
C944 C945 1.394 . S
C944 H952 0.930 . S
C945 C944 1.394 . S
C945 C946 1.383 . S
C945 H953 0.929 . S
C946 C945 1.383 . S
C946 C947 1.377 . S
C947 H931 0.930 . S
C947 C946 1.377 . S
C947 C948 1.379 . S
C948 H932 0.931 . S
C948 C942 1.383 . S
C948 C947 1.379 . S
H949 C943 0.959 . S
H950 C943 0.961 . S
H951 C943 0.960 . S
H952 C944 0.930 . S
H953 C945 0.929 . S
H954 C962 0.929 . S
H955 C964 0.930 . S
H956 C966 0.930 . S
H957 C969 0.929 . S
H958 C972 0.930 . S
H959 C974 0.960 . S
H960 C974 0.960 . S
H961 C974 0.960 . S
C962 H954 0.929 . S
C962 C963 1.377 . S
C962 C964 1.384 . S
C963 C962 1.377 . S
C963 C969 1.390 . S
C964 H955 0.930 . S
C964 C962 1.384 . S
C964 C965 1.372 . S
C965 C964 1.372 . S
C965 C966 1.400 . S
C965 C970 1.490 . S
C966 H956 0.930 . S
C966 C965 1.400 . S
C966 C969 1.386 . S
H967 C983 0.930 . S
H968 C984 0.931 . S
C969 H957 0.929 . S
C969 C963 1.390 . S
C969 C966 1.386 . S
C970 C965 1.490 . S
C970 C972 1.395 . S
C970 C973 1.403 . S
H971 C977 0.930 . S
C972 H958 0.930 . S
C972 C970 1.395 . S
C972 C975 1.403 . S
C973 C970 1.403 . S
C973 C974 1.524 . S
C973 C977 1.400 . S
C974 H959 0.960 . S
C974 H960 0.960 . S
C974 H961 0.960 . S
C974 C973 1.524 . S
C975 C972 1.403 . S
C975 C976 1.392 . S
C975 C979 1.495 1_554 S
C976 C975 1.392 . S
C976 C977 1.385 . S
C976 C978 1.478 . S
C977 H971 0.930 . S
C977 C973 1.400 . S
C977 C976 1.385 . S
C978 C976 1.478 . S
C978 C980 1.381 . S
C978 C984 1.383 . S
C979 C975 1.495 1_556 S
C979 H985 0.959 . S
C979 H986 0.961 . S
C979 H987 0.960 . S
C980 C978 1.381 . S
C980 C981 1.394 . S
C980 H988 0.930 . S
C981 C980 1.394 . S
C981 C982 1.383 . S
C981 H989 0.929 . S
C982 C981 1.383 . S
C982 C983 1.377 . S
C983 H967 0.930 . S
C983 C982 1.377 . S
C983 C984 1.379 . S
C984 H968 0.931 . S
C984 C978 1.383 . S
C984 C983 1.379 . S
H985 C979 0.959 . S
H986 C979 0.961 . S
H987 C979 0.960 . S
H988 C980 0.930 . S
H989 C981 0.929 . S
H990 C998 0.929 . S
H991 C1000 0.930 . S
H992 C1002 0.930 . S
H993 C1005 0.929 . S
H994 C1008 0.930 . S
H995 C1010 0.960 1_455 S
H996 C1010 0.960 . S
H997 C1010 0.960 . S
C998 H990 0.929 . S
C998 C999 1.377 . S
C998 C1000 1.384 . S
C999 C998 1.377 . S
C999 C1005 1.390 . S
C1000 H991 0.930 . S
C1000 C998 1.384 . S
C1000 C1001 1.372 . S
C1001 C1000 1.372 . S
C1001 C1002 1.400 . S
C1001 C1006 1.490 . S
C1002 H992 0.930 . S
C1002 C1001 1.400 . S
C1002 C1005 1.386 . S
H1003 C1019 0.930 . S
H1004 C1020 0.931 . S
C1005 H993 0.929 . S
C1005 C999 1.390 . S
C1005 C1002 1.386 . S
C1006 C1001 1.490 . S
C1006 C1008 1.395 . S
C1006 C1009 1.403 . S
H1007 C1013 0.930 . S
C1008 H994 0.930 . S
C1008 C1006 1.395 . S
C1008 C1011 1.403 . S
C1009 C1006 1.403 . S
C1009 C1010 1.524 . S
C1009 C1013 1.400 1_655 S
C1010 H995 0.960 1_655 S
C1010 H996 0.960 . S
C1010 H997 0.960 . S
C1010 C1009 1.524 . S
C1011 C1008 1.403 . S
C1011 C1012 1.392 1_655 S
C1011 C1015 1.493 1_655 S
C1012 C1011 1.392 1_455 S
C1012 C1013 1.385 . S
C1012 C1014 1.478 . S
C1013 H1007 0.930 . S
C1013 C1009 1.400 1_455 S
C1013 C1012 1.385 . S
C1014 C1012 1.478 . S
C1014 C1016 1.381 . S
C1014 C1020 1.383 . S
C1015 C1011 1.493 1_455 S
C1015 H1021 0.965 1_455 S
C1015 H1022 0.960 . S
C1015 H1023 0.958 . S
C1016 C1014 1.381 . S
C1016 C1017 1.394 . S
C1016 H1024 0.930 . S
C1017 C1016 1.394 . S
C1017 C1018 1.383 . S
C1017 H1025 0.929 . S
C1018 C1017 1.383 . S
C1018 C1019 1.377 . S
C1019 H1003 0.930 . S
C1019 C1018 1.377 . S
C1019 C1020 1.379 . S
C1020 H1004 0.931 . S
C1020 C1014 1.383 . S
C1020 C1019 1.379 . S
H1021 C1015 0.965 1_655 S
H1022 C1015 0.960 . S
H1023 C1015 0.958 . S
H1024 C1016 0.930 . S
H1025 C1017 0.929 . S
H1026 C1034 0.929 . S
H1027 C1036 0.930 . S
H1028 C1038 0.930 . S
H1029 C1041 0.929 . S
H1030 C1044 0.930 . S
H1031 C1046 0.960 . S
H1032 C1046 0.960 . S
H1033 C1046 0.960 . S
C1034 H1026 0.929 . S
C1034 C1035 1.377 . S
C1034 C1036 1.384 . S
C1035 C1034 1.377 . S
C1035 C1041 1.390 . S
C1036 H1027 0.930 . S
C1036 C1034 1.384 . S
C1036 C1037 1.372 . S
C1037 C1036 1.372 . S
C1037 C1038 1.400 . S
C1037 C1042 1.490 . S
C1038 H1028 0.930 . S
C1038 C1037 1.400 . S
C1038 C1041 1.386 . S
H1039 C1055 0.930 . S
H1040 C1056 0.931 . S
C1041 H1029 0.929 . S
C1041 C1035 1.390 . S
C1041 C1038 1.386 . S
C1042 C1037 1.490 . S
C1042 C1044 1.395 . S
C1042 C1045 1.403 . S
H1043 C1049 0.930 . S
C1044 H1030 0.930 . S
C1044 C1042 1.395 . S
C1044 C1047 1.403 . S
C1045 C1042 1.403 . S
C1045 C1046 1.524 . S
C1045 C1049 1.400 . S
C1046 H1031 0.960 . S
C1046 H1032 0.960 . S
C1046 H1033 0.960 . S
C1046 C1045 1.524 . S
C1047 C1044 1.403 . S
C1047 C1048 1.392 . S
C1047 C1051 1.495 . S
C1048 C1047 1.392 . S
C1048 C1049 1.385 . S
C1048 C1050 1.478 . S
C1049 H1043 0.930 . S
C1049 C1045 1.400 . S
C1049 C1048 1.385 . S
C1050 C1048 1.478 . S
C1050 C1052 1.381 . S
C1050 C1056 1.383 . S
C1051 C1047 1.495 . S
C1051 H1057 0.959 . S
C1051 H1058 0.961 . S
C1051 H1059 0.960 . S
C1052 C1050 1.381 . S
C1052 C1053 1.394 . S
C1052 H1060 0.930 . S
C1053 C1052 1.394 . S
C1053 C1054 1.383 . S
C1053 H1061 0.929 . S
C1054 C1053 1.383 . S
C1054 C1055 1.377 . S
C1055 H1039 0.930 . S
C1055 C1054 1.377 . S
C1055 C1056 1.379 . S
C1056 H1040 0.931 . S
C1056 C1050 1.383 . S
C1056 C1055 1.379 . S
H1057 C1051 0.959 . S
H1058 C1051 0.961 . S
H1059 C1051 0.960 . S
H1060 C1052 0.930 . S
H1061 C1053 0.929 . S
H1062 C1070 0.929 . S
H1063 C1072 0.930 . S
H1064 C1074 0.930 . S
H1065 C1077 0.929 . S
H1066 C1080 0.930 . S
H1067 C1082 0.960 . S
H1068 C1082 0.960 . S
H1069 C1082 0.960 . S
C1070 H1062 0.929 . S
C1070 C1071 1.377 . S
C1070 C1072 1.384 . S
C1071 C1070 1.377 . S
C1071 C1077 1.390 . S
C1072 H1063 0.930 . S
C1072 C1070 1.384 . S
C1072 C1073 1.372 . S
C1073 C1072 1.372 . S
C1073 C1074 1.400 . S
C1073 C1078 1.490 . S
C1074 H1064 0.930 . S
C1074 C1073 1.400 . S
C1074 C1077 1.386 . S
H1075 C1091 0.930 . S
H1076 C1092 0.931 . S
C1077 H1065 0.929 . S
C1077 C1071 1.390 . S
C1077 C1074 1.386 . S
C1078 C1073 1.490 . S
C1078 C1080 1.395 . S
C1078 C1081 1.403 . S
H1079 C1085 0.930 1_565 S
C1080 H1066 0.930 . S
C1080 C1078 1.395 . S
C1080 C1083 1.403 . S
C1081 C1078 1.403 . S
C1081 C1082 1.524 . S
C1081 C1085 1.400 . S
C1082 H1067 0.960 . S
C1082 H1068 0.960 . S
C1082 H1069 0.960 . S
C1082 C1081 1.524 . S
C1083 C1080 1.403 . S
C1083 C1084 1.392 1_545 S
C1083 C1087 1.495 . S
C1084 C1083 1.392 1_565 S
C1084 C1085 1.385 1_565 S
C1084 C1086 1.478 . S
C1085 H1079 0.930 1_545 S
C1085 C1081 1.400 . S
C1085 C1084 1.385 1_545 S
C1086 C1084 1.478 . S
C1086 C1088 1.381 . S
C1086 C1092 1.383 . S
C1087 C1083 1.495 . S
C1087 H1093 0.959 . S
C1087 H1094 0.961 . S
C1087 H1095 0.955 1_545 S
C1088 C1086 1.381 . S
C1088 C1089 1.394 . S
C1088 H1096 0.930 . S
C1089 C1088 1.394 . S
C1089 C1090 1.383 . S
C1089 H1097 0.929 . S
C1090 C1089 1.383 . S
C1090 C1091 1.377 . S
C1091 H1075 0.930 . S
C1091 C1090 1.377 . S
C1091 C1092 1.379 . S
C1092 H1076 0.931 . S
C1092 C1086 1.383 . S
C1092 C1091 1.379 . S
H1093 C1087 0.959 . S
H1094 C1087 0.961 . S
H1095 C1087 0.955 1_565 S
H1096 C1088 0.930 . S
H1097 C1089 0.929 . S
H1098 C1106 0.929 . S
H1099 C1108 0.930 . S
H1100 C1110 0.930 . S
H1101 C1113 0.929 . S
H1102 C1116 0.930 . S
H1103 C1118 0.960 . S
H1104 C1118 0.960 . S
H1105 C1118 0.960 . S
C1106 H1098 0.929 . S
C1106 C1107 1.377 . S
C1106 C1108 1.384 . S
C1107 C1106 1.377 . S
C1107 C1113 1.390 . S
C1108 H1099 0.930 . S
C1108 C1106 1.384 . S
C1108 C1109 1.372 . S
C1109 C1108 1.372 . S
C1109 C1110 1.400 . S
C1109 C1114 1.490 . S
C1110 H1100 0.930 . S
C1110 C1109 1.400 . S
C1110 C1113 1.386 . S
H1111 C1127 0.930 . S
H1112 C1128 0.931 . S
C1113 H1101 0.929 . S
C1113 C1107 1.390 . S
C1113 C1110 1.386 . S
C1114 C1109 1.490 . S
C1114 C1116 1.395 . S
C1114 C1117 1.403 . S
H1115 C1121 0.930 . S
C1116 H1102 0.930 . S
C1116 C1114 1.395 . S
C1116 C1119 1.403 . S
C1117 C1114 1.403 . S
C1117 C1118 1.524 . S
C1117 C1121 1.400 . S
C1118 H1103 0.960 . S
C1118 H1104 0.960 . S
C1118 H1105 0.960 . S
C1118 C1117 1.524 . S
C1119 C1116 1.403 . S
C1119 C1120 1.392 . S
C1119 C1123 1.495 . S
C1120 C1119 1.392 . S
C1120 C1121 1.385 . S
C1120 C1122 1.478 . S
C1121 H1115 0.930 . S
C1121 C1117 1.400 . S
C1121 C1120 1.385 . S
C1122 C1120 1.478 . S
C1122 C1124 1.381 . S
C1122 C1128 1.383 . S
C1123 C1119 1.495 . S
C1123 H1129 0.959 . S
C1123 H1130 0.961 . S
C1123 H1131 0.960 . S
C1124 C1122 1.381 . S
C1124 C1125 1.394 . S
C1124 H1132 0.930 . S
C1125 C1124 1.394 . S
C1125 C1126 1.383 . S
C1125 H1133 0.929 . S
C1126 C1125 1.383 . S
C1126 C1127 1.377 . S
C1127 H1111 0.930 . S
C1127 C1126 1.377 . S
C1127 C1128 1.379 . S
C1128 H1112 0.931 . S
C1128 C1122 1.383 . S
C1128 C1127 1.379 . S
H1129 C1123 0.959 . S
H1130 C1123 0.961 . S
H1131 C1123 0.960 . S
H1132 C1124 0.930 . S
H1133 C1125 0.929 . S
H1134 C1142 0.929 . S
H1135 C1144 0.930 . S
H1136 C1146 0.930 . S
H1137 C1149 0.929 . S
H1138 C1152 0.930 . S
H1139 C1154 0.960 . S
H1140 C1154 0.960 . S
H1141 C1154 0.960 . S
C1142 H1134 0.929 . S
C1142 C1143 1.377 . S
C1142 C1144 1.384 . S
C1143 C1142 1.377 . S
C1143 C1149 1.390 . S
C1144 H1135 0.930 . S
C1144 C1142 1.384 . S
C1144 C1145 1.372 . S
C1145 C1144 1.372 . S
C1145 C1146 1.400 . S
C1145 C1150 1.490 . S
C1146 H1136 0.930 . S
C1146 C1145 1.400 . S
C1146 C1149 1.386 . S
H1147 C1163 0.930 . S
H1148 C1164 0.931 . S
C1149 H1137 0.929 . S
C1149 C1143 1.390 . S
C1149 C1146 1.386 . S
C1150 C1145 1.490 . S
C1150 C1152 1.395 . S
C1150 C1153 1.403 . S
H1151 C1157 0.930 . S
C1152 H1138 0.930 . S
C1152 C1150 1.395 . S
C1152 C1155 1.403 . S
C1153 C1150 1.403 . S
C1153 C1154 1.524 . S
C1153 C1157 1.400 . S
C1154 H1139 0.960 . S
C1154 H1140 0.960 . S
C1154 H1141 0.960 . S
C1154 C1153 1.524 . S
C1155 C1152 1.403 . S
C1155 C1156 1.392 . S
C1155 C1159 1.495 . S
C1156 C1155 1.392 . S
C1156 C1157 1.385 . S
C1156 C1158 1.478 . S
C1157 H1151 0.930 . S
C1157 C1153 1.400 . S
C1157 C1156 1.385 . S
C1158 C1156 1.478 . S
C1158 C1160 1.381 . S
C1158 C1164 1.383 . S
C1159 C1155 1.495 . S
C1159 H1165 0.959 . S
C1159 H1166 0.961 . S
C1159 H1167 0.960 . S
C1160 C1158 1.381 . S
C1160 C1161 1.394 . S
C1160 H1168 0.930 . S
C1161 C1160 1.394 . S
C1161 C1162 1.383 . S
C1161 H1169 0.929 . S
C1162 C1161 1.383 . S
C1162 C1163 1.377 . S
C1163 H1147 0.930 . S
C1163 C1162 1.377 . S
C1163 C1164 1.379 . S
C1164 H1148 0.931 . S
C1164 C1158 1.383 . S
C1164 C1163 1.379 . S
H1165 C1159 0.959 . S
H1166 C1159 0.961 . S
H1167 C1159 0.960 . S
H1168 C1160 0.930 . S
H1169 C1161 0.929 . S
H1170 C1178 0.929 . S
H1171 C1180 0.930 . S
H1172 C1182 0.930 . S
H1173 C1185 0.929 . S
H1174 C1188 0.930 . S
H1175 C1190 0.960 . S
H1176 C1190 0.960 . S
H1177 C1190 0.960 . S
C1178 H1170 0.929 . S
C1178 C1179 1.377 . S
C1178 C1180 1.384 . S
C1179 C1178 1.377 . S
C1179 C1185 1.390 . S
C1180 H1171 0.930 . S
C1180 C1178 1.384 . S
C1180 C1181 1.372 . S
C1181 C1180 1.372 . S
C1181 C1182 1.400 . S
C1181 C1186 1.490 . S
C1182 H1172 0.930 . S
C1182 C1181 1.400 . S
C1182 C1185 1.386 . S
H1183 C1199 0.930 . S
H1184 C1200 0.931 . S
C1185 H1173 0.929 . S
C1185 C1179 1.390 . S
C1185 C1182 1.386 . S
C1186 C1181 1.490 . S
C1186 C1188 1.395 . S
C1186 C1189 1.403 . S
H1187 C1193 0.930 . S
C1188 H1174 0.930 . S
C1188 C1186 1.395 . S
C1188 C1191 1.403 . S
C1189 C1186 1.403 . S
C1189 C1190 1.524 . S
C1189 C1193 1.400 . S
C1190 H1175 0.960 . S
C1190 H1176 0.960 . S
C1190 H1177 0.960 . S
C1190 C1189 1.524 . S
C1191 C1188 1.403 . S
C1191 C1192 1.392 . S
C1191 C1195 1.495 . S
C1192 C1191 1.392 . S
C1192 C1193 1.385 . S
C1192 C1194 1.478 . S
C1193 H1187 0.930 . S
C1193 C1189 1.400 . S
C1193 C1192 1.385 . S
C1194 C1192 1.478 . S
C1194 C1196 1.381 . S
C1194 C1200 1.383 . S
C1195 C1191 1.495 . S
C1195 H1201 0.959 . S
C1195 H1202 0.961 . S
C1195 H1203 0.960 . S
C1196 C1194 1.381 . S
C1196 C1197 1.394 . S
C1196 H1204 0.930 . S
C1197 C1196 1.394 . S
C1197 C1198 1.383 . S
C1197 H1205 0.929 . S
C1198 C1197 1.383 . S
C1198 C1199 1.377 . S
C1199 H1183 0.930 . S
C1199 C1198 1.377 . S
C1199 C1200 1.379 . S
C1200 H1184 0.931 . S
C1200 C1194 1.383 . S
C1200 C1199 1.379 . S
H1201 C1195 0.959 . S
H1202 C1195 0.961 . S
H1203 C1195 0.960 . S
H1204 C1196 0.930 . S
H1205 C1197 0.929 . S
H1206 C1214 0.929 . S
H1207 C1216 0.930 . S
H1208 C1218 0.930 . S
H1209 C1221 0.929 . S
H1210 C1224 0.930 . S
H1211 C1226 0.960 . S
H1212 C1226 0.960 . S
H1213 C1226 0.960 . S
C1214 H1206 0.929 . S
C1214 C1215 1.377 . S
C1214 C1216 1.384 . S
C1215 C1214 1.377 . S
C1215 C1221 1.390 . S
C1216 H1207 0.930 . S
C1216 C1214 1.384 . S
C1216 C1217 1.372 . S
C1217 C1216 1.372 . S
C1217 C1218 1.400 . S
C1217 C1222 1.490 . S
C1218 H1208 0.930 . S
C1218 C1217 1.400 . S
C1218 C1221 1.386 . S
H1219 C1235 0.930 . S
H1220 C1236 0.931 . S
C1221 H1209 0.929 . S
C1221 C1215 1.390 . S
C1221 C1218 1.386 . S
C1222 C1217 1.490 . S
C1222 C1224 1.395 . S
C1222 C1225 1.403 . S
H1223 C1229 0.930 . S
C1224 H1210 0.930 . S
C1224 C1222 1.395 . S
C1224 C1227 1.403 . S
C1225 C1222 1.403 . S
C1225 C1226 1.524 . S
C1225 C1229 1.400 . S
C1226 H1211 0.960 . S
C1226 H1212 0.960 . S
C1226 H1213 0.960 . S
C1226 C1225 1.524 . S
C1227 C1224 1.403 . S
C1227 C1228 1.392 . S
C1227 C1231 1.495 . S
C1228 C1227 1.392 . S
C1228 C1229 1.385 . S
C1228 C1230 1.478 . S
C1229 H1223 0.930 . S
C1229 C1225 1.400 . S
C1229 C1228 1.385 . S
C1230 C1228 1.478 . S
C1230 C1232 1.381 . S
C1230 C1236 1.383 . S
C1231 C1227 1.495 . S
C1231 H1237 0.959 . S
C1231 H1238 0.961 . S
C1231 H1239 0.960 . S
C1232 C1230 1.381 . S
C1232 C1233 1.394 . S
C1232 H1240 0.930 . S
C1233 C1232 1.394 . S
C1233 C1234 1.383 . S
C1233 H1241 0.929 . S
C1234 C1233 1.383 . S
C1234 C1235 1.377 . S
C1235 H1219 0.930 . S
C1235 C1234 1.377 . S
C1235 C1236 1.379 . S
C1236 H1220 0.931 . S
C1236 C1230 1.383 . S
C1236 C1235 1.379 . S
H1237 C1231 0.959 . S
H1238 C1231 0.961 . S
H1239 C1231 0.960 . S
H1240 C1232 0.930 . S
H1241 C1233 0.929 . S
H1242 C1250 0.929 . S
H1243 C1252 0.930 . S
H1244 C1254 0.930 . S
H1245 C1257 0.929 . S
H1246 C1260 0.930 . S
H1247 C1262 0.960 . S
H1248 C1262 0.960 . S
H1249 C1262 0.960 . S
C1250 H1242 0.929 . S
C1250 C1251 1.377 . S
C1250 C1252 1.384 . S
C1251 C1250 1.377 . S
C1251 C1257 1.390 . S
C1252 H1243 0.930 . S
C1252 C1250 1.384 . S
C1252 C1253 1.372 . S
C1253 C1252 1.372 . S
C1253 C1254 1.400 . S
C1253 C1258 1.490 . S
C1254 H1244 0.930 . S
C1254 C1253 1.400 . S
C1254 C1257 1.386 . S
H1255 C1271 0.930 . S
H1256 C1272 0.931 . S
C1257 H1245 0.929 . S
C1257 C1251 1.390 . S
C1257 C1254 1.386 . S
C1258 C1253 1.490 . S
C1258 C1260 1.395 . S
C1258 C1261 1.403 . S
H1259 C1265 0.930 . S
C1260 H1246 0.930 . S
C1260 C1258 1.395 . S
C1260 C1263 1.403 . S
C1261 C1258 1.403 . S
C1261 C1262 1.524 . S
C1261 C1265 1.400 . S
C1262 H1247 0.960 . S
C1262 H1248 0.960 . S
C1262 H1249 0.960 . S
C1262 C1261 1.524 . S
C1263 C1260 1.403 . S
C1263 C1264 1.392 . S
C1263 C1267 1.495 . S
C1264 C1263 1.392 . S
C1264 C1265 1.385 . S
C1264 C1266 1.478 . S
C1265 H1259 0.930 . S
C1265 C1261 1.400 . S
C1265 C1264 1.385 . S
C1266 C1264 1.478 . S
C1266 C1268 1.381 . S
C1266 C1272 1.383 . S
C1267 C1263 1.495 . S
C1267 H1273 0.959 . S
C1267 H1274 0.961 . S
C1267 H1275 0.960 . S
C1268 C1266 1.381 . S
C1268 C1269 1.394 . S
C1268 H1276 0.930 . S
C1269 C1268 1.394 . S
C1269 C1270 1.383 . S
C1269 H1277 0.929 . S
C1270 C1269 1.383 . S
C1270 C1271 1.377 . S
C1271 H1255 0.930 . S
C1271 C1270 1.377 . S
C1271 C1272 1.379 . S
C1272 H1256 0.931 . S
C1272 C1266 1.383 . S
C1272 C1271 1.379 . S
H1273 C1267 0.959 . S
H1274 C1267 0.961 . S
H1275 C1267 0.960 . S
H1276 C1268 0.930 . S
H1277 C1269 0.929 . S
H1278 C1286 0.929 . S
H1279 C1288 0.930 . S
H1280 C1290 0.930 . S
H1281 C1293 0.929 . S
H1282 C1296 0.930 . S
H1283 C1298 0.960 . S
H1284 C1298 0.960 . S
H1285 C1298 0.960 . S
C1286 H1278 0.929 . S
C1286 C1287 1.377 . S
C1286 C1288 1.384 . S
C1287 C1286 1.377 . S
C1287 C1293 1.390 . S
C1288 H1279 0.930 . S
C1288 C1286 1.384 . S
C1288 C1289 1.372 . S
C1289 C1288 1.372 . S
C1289 C1290 1.400 . S
C1289 C1294 1.490 . S
C1290 H1280 0.930 . S
C1290 C1289 1.400 . S
C1290 C1293 1.386 . S
H1291 C1307 0.930 . S
H1292 C1308 0.931 . S
C1293 H1281 0.929 . S
C1293 C1287 1.390 . S
C1293 C1290 1.386 . S
C1294 C1289 1.490 . S
C1294 C1296 1.395 . S
C1294 C1297 1.403 . S
H1295 C1301 0.930 . S
C1296 H1282 0.930 . S
C1296 C1294 1.395 . S
C1296 C1299 1.403 . S
C1297 C1294 1.403 . S
C1297 C1298 1.524 . S
C1297 C1301 1.400 . S
C1298 H1283 0.960 . S
C1298 H1284 0.960 . S
C1298 H1285 0.960 . S
C1298 C1297 1.524 . S
C1299 C1296 1.403 . S
C1299 C1300 1.392 . S
C1299 C1303 1.495 . S
C1300 C1299 1.392 . S
C1300 C1301 1.385 . S
C1300 C1302 1.478 . S
C1301 H1295 0.930 . S
C1301 C1297 1.400 . S
C1301 C1300 1.385 . S
C1302 C1300 1.478 . S
C1302 C1304 1.381 . S
C1302 C1308 1.383 . S
C1303 C1299 1.495 . S
C1303 H1309 0.959 . S
C1303 H1310 0.961 . S
C1303 H1311 0.960 . S
C1304 C1302 1.381 . S
C1304 C1305 1.394 . S
C1304 H1312 0.930 . S
C1305 C1304 1.394 . S
C1305 C1306 1.383 . S
C1305 H1313 0.929 . S
C1306 C1305 1.383 . S
C1306 C1307 1.377 . S
C1307 H1291 0.930 . S
C1307 C1306 1.377 . S
C1307 C1308 1.379 . S
C1308 H1292 0.931 . S
C1308 C1302 1.383 . S
C1308 C1307 1.379 . S
H1309 C1303 0.959 . S
H1310 C1303 0.961 . S
H1311 C1303 0.960 . S
H1312 C1304 0.930 . S
H1313 C1305 0.929 . S
H1314 C1322 0.929 . S
H1315 C1324 0.930 . S
H1316 C1326 0.930 . S
H1317 C1329 0.929 . S
H1318 C1332 0.930 . S
H1319 C1334 0.960 . S
H1320 C1334 0.960 . S
H1321 C1334 0.960 . S
C1322 H1314 0.929 . S
C1322 C1323 1.377 . S
C1322 C1324 1.384 . S
C1323 C1322 1.377 . S
C1323 C1329 1.390 . S
C1324 H1315 0.930 . S
C1324 C1322 1.384 . S
C1324 C1325 1.372 . S
C1325 C1324 1.372 . S
C1325 C1326 1.400 . S
C1325 C1330 1.490 1_545 S
C1326 H1316 0.930 . S
C1326 C1325 1.400 . S
C1326 C1329 1.386 . S
H1327 C1343 0.930 . S
H1328 C1344 0.931 . S
C1329 H1317 0.929 . S
C1329 C1323 1.390 . S
C1329 C1326 1.386 . S
C1330 C1325 1.490 1_565 S
C1330 C1332 1.395 . S
C1330 C1333 1.403 . S
H1331 C1337 0.930 . S
C1332 H1318 0.930 . S
C1332 C1330 1.395 . S
C1332 C1335 1.403 . S
C1333 C1330 1.403 . S
C1333 C1334 1.524 . S
C1333 C1337 1.400 . S
C1334 H1319 0.960 . S
C1334 H1320 0.960 . S
C1334 H1321 0.960 . S
C1334 C1333 1.524 . S
C1335 C1332 1.403 . S
C1335 C1336 1.392 . S
C1335 C1339 1.495 . S
C1336 C1335 1.392 . S
C1336 C1337 1.385 . S
C1336 C1338 1.478 . S
C1337 H1331 0.930 . S
C1337 C1333 1.400 . S
C1337 C1336 1.385 . S
C1338 C1336 1.478 . S
C1338 C1340 1.381 . S
C1338 C1344 1.383 . S
C1339 C1335 1.495 . S
C1339 H1345 0.959 . S
C1339 H1346 0.961 . S
C1339 H1347 0.960 . S
C1340 C1338 1.381 . S
C1340 C1341 1.394 . S
C1340 H1348 0.930 . S
C1341 C1340 1.394 . S
C1341 C1342 1.383 . S
C1341 H1349 0.929 . S
C1342 C1341 1.383 . S
C1342 C1343 1.377 . S
C1343 H1327 0.930 . S
C1343 C1342 1.377 . S
C1343 C1344 1.379 . S
C1344 H1328 0.931 . S
C1344 C1338 1.383 . S
C1344 C1343 1.379 . S
H1345 C1339 0.959 . S
H1346 C1339 0.961 . S
H1347 C1339 0.960 . S
H1348 C1340 0.930 . S
H1349 C1341 0.929 . S
H1350 C1358 0.929 . S
H1351 C1360 0.930 . S
H1352 C1362 0.930 . S
H1353 C1365 0.929 . S
H1354 C1368 0.930 . S
H1355 C1370 0.960 . S
H1356 C1370 0.960 . S
H1357 C1370 0.960 . S
C1358 H1350 0.929 . S
C1358 C1359 1.377 . S
C1358 C1360 1.384 . S
C1359 C1358 1.377 . S
C1359 C1365 1.390 . S
C1360 H1351 0.930 . S
C1360 C1358 1.384 . S
C1360 C1361 1.372 1_655 S
C1361 C1360 1.372 1_455 S
C1361 C1362 1.400 . S
C1361 C1366 1.490 . S
C1362 H1352 0.930 . S
C1362 C1361 1.400 . S
C1362 C1365 1.386 1_455 S
H1363 C1379 0.930 . S
H1364 C1380 0.931 . S
C1365 H1353 0.929 . S
C1365 C1359 1.390 . S
C1365 C1362 1.386 1_655 S
C1366 C1361 1.490 . S
C1366 C1368 1.395 . S
C1366 C1369 1.403 . S
H1367 C1373 0.930 . S
C1368 H1354 0.930 . S
C1368 C1366 1.395 . S
C1368 C1371 1.403 . S
C1369 C1366 1.403 . S
C1369 C1370 1.524 . S
C1369 C1373 1.400 . S
C1370 H1355 0.960 . S
C1370 H1356 0.960 . S
C1370 H1357 0.960 . S
C1370 C1369 1.524 . S
C1371 C1368 1.403 . S
C1371 C1372 1.392 . S
C1371 C1375 1.495 . S
C1372 C1371 1.392 . S
C1372 C1373 1.385 . S
C1372 C1374 1.478 . S
C1373 H1367 0.930 . S
C1373 C1369 1.400 . S
C1373 C1372 1.385 . S
C1374 C1372 1.478 . S
C1374 C1376 1.381 . S
C1374 C1380 1.383 . S
C1375 C1371 1.495 . S
C1375 H1381 0.959 . S
C1375 H1382 0.961 . S
C1375 H1383 0.960 . S
C1376 C1374 1.381 . S
C1376 C1377 1.394 . S
C1376 H1384 0.930 . S
C1377 C1376 1.394 . S
C1377 C1378 1.383 . S
C1377 H1385 0.929 . S
C1378 C1377 1.383 . S
C1378 C1379 1.377 . S
C1379 H1363 0.930 . S
C1379 C1378 1.377 . S
C1379 C1380 1.379 . S
C1380 H1364 0.931 . S
C1380 C1374 1.383 . S
C1380 C1379 1.379 . S
H1381 C1375 0.959 . S
H1382 C1375 0.961 . S
H1383 C1375 0.960 . S
H1384 C1376 0.930 . S
H1385 C1377 0.929 . S
H1386 C1394 0.929 . S
H1387 C1396 0.930 . S
H1388 C1398 0.930 . S
H1389 C1401 0.929 . S
H1390 C1404 0.930 . S
H1391 C1406 0.960 . S
H1392 C1406 0.960 . S
H1393 C1406 0.960 . S
C1394 H1386 0.929 . S
C1394 C1395 1.377 . S
C1394 C1396 1.384 . S
C1395 C1394 1.377 . S
C1395 C1401 1.390 . S
C1396 H1387 0.930 . S
C1396 C1394 1.384 . S
C1396 C1397 1.372 . S
C1397 C1396 1.372 . S
C1397 C1398 1.400 . S
C1397 C1402 1.490 . S
C1398 H1388 0.930 . S
C1398 C1397 1.400 . S
C1398 C1401 1.386 . S
H1399 C1415 0.930 . S
H1400 C1416 0.931 . S
C1401 H1389 0.929 . S
C1401 C1395 1.390 . S
C1401 C1398 1.386 . S
C1402 C1397 1.490 . S
C1402 C1404 1.395 . S
C1402 C1405 1.403 . S
H1403 C1409 0.930 . S
C1404 H1390 0.930 . S
C1404 C1402 1.395 . S
C1404 C1407 1.403 . S
C1405 C1402 1.403 . S
C1405 C1406 1.524 . S
C1405 C1409 1.400 . S
C1406 H1391 0.960 . S
C1406 H1392 0.960 . S
C1406 H1393 0.960 . S
C1406 C1405 1.524 . S
C1407 C1404 1.403 . S
C1407 C1408 1.392 . S
C1407 C1411 1.495 . S
C1408 C1407 1.392 . S
C1408 C1409 1.385 . S
C1408 C1410 1.478 . S
C1409 H1403 0.930 . S
C1409 C1405 1.400 . S
C1409 C1408 1.385 . S
C1410 C1408 1.478 . S
C1410 C1412 1.381 . S
C1410 C1416 1.383 . S
C1411 C1407 1.495 . S
C1411 H1417 0.959 . S
C1411 H1418 0.961 . S
C1411 H1419 0.960 . S
C1412 C1410 1.381 . S
C1412 C1413 1.394 . S
C1412 H1420 0.930 . S
C1413 C1412 1.394 . S
C1413 C1414 1.383 . S
C1413 H1421 0.929 . S
C1414 C1413 1.383 . S
C1414 C1415 1.377 . S
C1415 H1399 0.930 . S
C1415 C1414 1.377 . S
C1415 C1416 1.379 . S
C1416 H1400 0.931 . S
C1416 C1410 1.383 . S
C1416 C1415 1.379 . S
H1417 C1411 0.959 . S
H1418 C1411 0.961 . S
H1419 C1411 0.960 . S
H1420 C1412 0.930 . S
H1421 C1413 0.929 . S
H1422 C1430 0.929 . S
H1423 C1432 0.930 . S
H1424 C1434 0.930 . S
H1425 C1437 0.929 . S
H1426 C1440 0.930 . S
H1427 C1442 0.960 . S
H1428 C1442 0.960 . S
H1429 C1442 0.960 . S
C1430 H1422 0.929 . S
C1430 C1431 1.377 . S
C1430 C1432 1.384 . S
C1431 C1430 1.377 . S
C1431 C1437 1.390 . S
C1432 H1423 0.930 . S
C1432 C1430 1.384 . S
C1432 C1433 1.372 . S
C1433 C1432 1.372 . S
C1433 C1434 1.400 . S
C1433 C1438 1.490 . S
C1434 H1424 0.930 . S
C1434 C1433 1.400 . S
C1434 C1437 1.386 . S
H1435 C1451 0.930 . S
H1436 C1452 0.931 . S
C1437 H1425 0.929 . S
C1437 C1431 1.390 . S
C1437 C1434 1.386 . S
C1438 C1433 1.490 . S
C1438 C1440 1.395 . S
C1438 C1441 1.403 . S
H1439 C1445 0.930 . S
C1440 H1426 0.930 . S
C1440 C1438 1.395 . S
C1440 C1443 1.403 . S
C1441 C1438 1.403 . S
C1441 C1442 1.524 . S
C1441 C1445 1.400 . S
C1442 H1427 0.960 . S
C1442 H1428 0.960 . S
C1442 H1429 0.960 . S
C1442 C1441 1.524 . S
C1443 C1440 1.403 . S
C1443 C1444 1.392 . S
C1443 C1447 1.495 . S
C1444 C1443 1.392 . S
C1444 C1445 1.385 . S
C1444 C1446 1.478 . S
C1445 H1439 0.930 . S
C1445 C1441 1.400 . S
C1445 C1444 1.385 . S
C1446 C1444 1.478 . S
C1446 C1448 1.381 . S
C1446 C1452 1.383 . S
C1447 C1443 1.495 . S
C1447 H1453 0.959 . S
C1447 H1454 0.961 . S
C1447 H1455 0.960 . S
C1448 C1446 1.381 . S
C1448 C1449 1.394 . S
C1448 H1456 0.930 . S
C1449 C1448 1.394 . S
C1449 C1450 1.383 . S
C1449 H1457 0.929 . S
C1450 C1449 1.383 . S
C1450 C1451 1.377 . S
C1451 H1435 0.930 . S
C1451 C1450 1.377 . S
C1451 C1452 1.379 . S
C1452 H1436 0.931 . S
C1452 C1446 1.383 . S
C1452 C1451 1.379 . S
H1453 C1447 0.959 . S
H1454 C1447 0.961 . S
H1455 C1447 0.960 . S
H1456 C1448 0.930 . S
H1457 C1449 0.929 . S
H1458 C1466 0.929 . S
H1459 C1468 0.930 . S
H1460 C1470 0.930 . S
H1461 C1473 0.929 . S
H1462 C1476 0.930 . S
H1463 C1478 0.960 . S
H1464 C1478 0.960 . S
H1465 C1478 0.960 . S
C1466 H1458 0.929 . S
C1466 C1467 1.377 . S
C1466 C1468 1.384 . S
C1467 C1466 1.377 . S
C1467 C1473 1.390 . S
C1468 H1459 0.930 . S
C1468 C1466 1.384 . S
C1468 C1469 1.372 . S
C1469 C1468 1.372 . S
C1469 C1470 1.400 . S
C1469 C1474 1.490 . S
C1470 H1460 0.930 . S
C1470 C1469 1.400 . S
C1470 C1473 1.386 . S
H1471 C1487 0.930 . S
H1472 C1488 0.931 . S
C1473 H1461 0.929 . S
C1473 C1467 1.390 . S
C1473 C1470 1.386 . S
C1474 C1469 1.490 . S
C1474 C1476 1.395 . S
C1474 C1477 1.403 . S
H1475 C1481 0.930 . S
C1476 H1462 0.930 . S
C1476 C1474 1.395 . S
C1476 C1479 1.403 . S
C1477 C1474 1.403 . S
C1477 C1478 1.524 . S
C1477 C1481 1.400 . S
C1478 H1463 0.960 . S
C1478 H1464 0.960 . S
C1478 H1465 0.960 . S
C1478 C1477 1.524 . S
C1479 C1476 1.403 . S
C1479 C1480 1.392 . S
C1479 C1483 1.495 . S
C1480 C1479 1.392 . S
C1480 C1481 1.385 . S
C1480 C1482 1.478 . S
C1481 H1475 0.930 . S
C1481 C1477 1.400 . S
C1481 C1480 1.385 . S
C1482 C1480 1.478 . S
C1482 C1484 1.381 . S
C1482 C1488 1.383 . S
C1483 C1479 1.495 . S
C1483 H1489 0.959 . S
C1483 H1490 0.961 . S
C1483 H1491 0.960 . S
C1484 C1482 1.381 . S
C1484 C1485 1.394 . S
C1484 H1492 0.930 . S
C1485 C1484 1.394 . S
C1485 C1486 1.383 . S
C1485 H1493 0.929 . S
C1486 C1485 1.383 . S
C1486 C1487 1.377 . S
C1487 H1471 0.930 . S
C1487 C1486 1.377 . S
C1487 C1488 1.379 . S
C1488 H1472 0.931 . S
C1488 C1482 1.383 . S
C1488 C1487 1.379 . S
H1489 C1483 0.959 . S
H1490 C1483 0.961 . S
H1491 C1483 0.960 . S
H1492 C1484 0.930 . S
H1493 C1485 0.929 . S
H1494 C1502 0.929 . S
H1495 C1504 0.930 . S
H1496 C1506 0.930 . S
H1497 C1509 0.929 . S
H1498 C1512 0.930 . S
H1499 C1514 0.960 . S
H1500 C1514 0.960 . S
H1501 C1514 0.960 . S
C1502 H1494 0.929 . S
C1502 C1503 1.377 . S
C1502 C1504 1.384 . S
C1503 C1502 1.377 . S
C1503 C1509 1.390 . S
C1504 H1495 0.930 . S
C1504 C1502 1.384 . S
C1504 C1505 1.372 . S
C1505 C1504 1.372 . S
C1505 C1506 1.400 . S
C1505 C1510 1.490 . S
C1506 H1496 0.930 . S
C1506 C1505 1.400 . S
C1506 C1509 1.386 . S
H1507 C1523 0.930 . S
H1508 C1524 0.931 . S
C1509 H1497 0.929 . S
C1509 C1503 1.390 . S
C1509 C1506 1.386 . S
C1510 C1505 1.490 . S
C1510 C1512 1.395 . S
C1510 C1513 1.403 . S
H1511 C1517 0.930 . S
C1512 H1498 0.930 . S
C1512 C1510 1.395 . S
C1512 C1515 1.403 . S
C1513 C1510 1.403 . S
C1513 C1514 1.524 . S
C1513 C1517 1.400 . S
C1514 H1499 0.960 . S
C1514 H1500 0.960 . S
C1514 H1501 0.960 . S
C1514 C1513 1.524 . S
C1515 C1512 1.403 . S
C1515 C1516 1.392 . S
C1515 C1519 1.495 . S
C1516 C1515 1.392 . S
C1516 C1517 1.385 . S
C1516 C1518 1.478 . S
C1517 H1511 0.930 . S
C1517 C1513 1.400 . S
C1517 C1516 1.385 . S
C1518 C1516 1.478 . S
C1518 C1520 1.381 . S
C1518 C1524 1.383 . S
C1519 C1515 1.495 . S
C1519 H1525 0.959 . S
C1519 H1526 0.961 . S
C1519 H1527 0.960 . S
C1520 C1518 1.381 . S
C1520 C1521 1.394 . S
C1520 H1528 0.930 . S
C1521 C1520 1.394 . S
C1521 C1522 1.383 . S
C1521 H1529 0.929 . S
C1522 C1521 1.383 . S
C1522 C1523 1.377 . S
C1523 H1507 0.930 . S
C1523 C1522 1.377 . S
C1523 C1524 1.379 . S
C1524 H1508 0.931 . S
C1524 C1518 1.383 . S
C1524 C1523 1.379 . S
H1525 C1519 0.959 . S
H1526 C1519 0.961 . S
H1527 C1519 0.960 . S
H1528 C1520 0.930 . S
H1529 C1521 0.929 . S
H1530 C1538 0.929 . S
H1531 C1540 0.930 . S
H1532 C1542 0.930 . S
H1533 C1545 0.929 . S
H1534 C1548 0.930 . S
H1535 C1550 0.960 . S
H1536 C1550 0.960 . S
H1537 C1550 0.960 . S
C1538 H1530 0.929 . S
C1538 C1539 1.377 . S
C1538 C1540 1.384 . S
C1539 C1538 1.377 . S
C1539 C1545 1.390 . S
C1540 H1531 0.930 . S
C1540 C1538 1.384 . S
C1540 C1541 1.372 . S
C1541 C1540 1.372 . S
C1541 C1542 1.400 . S
C1541 C1546 1.490 . S
C1542 H1532 0.930 . S
C1542 C1541 1.400 . S
C1542 C1545 1.386 . S
H1543 C1559 0.930 . S
H1544 C1560 0.931 . S
C1545 H1533 0.929 . S
C1545 C1539 1.390 . S
C1545 C1542 1.386 . S
C1546 C1541 1.490 . S
C1546 C1548 1.395 . S
C1546 C1549 1.403 . S
H1547 C1553 0.930 . S
C1548 H1534 0.930 . S
C1548 C1546 1.395 . S
C1548 C1551 1.403 1_565 S
C1549 C1546 1.403 . S
C1549 C1550 1.524 . S
C1549 C1553 1.400 1_565 S
C1550 H1535 0.960 . S
C1550 H1536 0.960 . S
C1550 H1537 0.960 . S
C1550 C1549 1.524 . S
C1551 C1548 1.403 1_545 S
C1551 C1552 1.392 . S
C1551 C1555 1.495 . S
C1552 C1551 1.392 . S
C1552 C1553 1.385 . S
C1552 C1554 1.478 . S
C1553 H1547 0.930 . S
C1553 C1549 1.400 1_545 S
C1553 C1552 1.385 . S
C1554 C1552 1.478 . S
C1554 C1556 1.381 . S
C1554 C1560 1.383 . S
C1555 C1551 1.495 . S
C1555 H1561 0.959 . S
C1555 H1562 0.961 . S
C1555 H1563 0.960 . S
C1556 C1554 1.381 . S
C1556 C1557 1.394 . S
C1556 H1564 0.930 . S
C1557 C1556 1.394 . S
C1557 C1558 1.383 . S
C1557 H1565 0.929 . S
C1558 C1557 1.383 . S
C1558 C1559 1.377 . S
C1559 H1543 0.930 . S
C1559 C1558 1.377 . S
C1559 C1560 1.379 . S
C1560 H1544 0.931 . S
C1560 C1554 1.383 . S
C1560 C1559 1.379 . S
H1561 C1555 0.959 . S
H1562 C1555 0.961 . S
H1563 C1555 0.960 . S
H1564 C1556 0.930 . S
H1565 C1557 0.929 . S
H1566 C1574 0.929 . S
H1567 C1576 0.930 . S
H1568 C1578 0.930 . S
H1569 C1581 0.929 . S
H1570 C1584 0.930 . S
H1571 C1586 0.960 1_655 S
H1572 C1586 0.960 . S
H1573 C1586 0.960 . S
C1574 H1566 0.929 . S
C1574 C1575 1.377 . S
C1574 C1576 1.384 . S
C1575 C1574 1.377 . S
C1575 C1581 1.390 . S
C1576 H1567 0.930 . S
C1576 C1574 1.384 . S
C1576 C1577 1.372 . S
C1577 C1576 1.372 . S
C1577 C1578 1.400 . S
C1577 C1582 1.490 . S
C1578 H1568 0.930 . S
C1578 C1577 1.400 . S
C1578 C1581 1.386 . S
H1579 C1595 0.930 . S
H1580 C1596 0.931 . S
C1581 H1569 0.929 . S
C1581 C1575 1.390 . S
C1581 C1578 1.386 . S
C1582 C1577 1.490 . S
C1582 C1584 1.395 . S
C1582 C1585 1.403 . S
H1583 C1589 0.930 . S
C1584 H1570 0.930 . S
C1584 C1582 1.395 . S
C1584 C1587 1.403 1_455 S
C1585 C1582 1.403 . S
C1585 C1586 1.524 . S
C1585 C1589 1.400 1_455 S
C1586 H1571 0.960 1_455 S
C1586 H1572 0.960 . S
C1586 H1573 0.960 . S
C1586 C1585 1.524 . S
C1587 C1584 1.403 1_655 S
C1587 C1588 1.392 . S
C1587 C1591 1.495 . S
C1588 C1587 1.392 . S
C1588 C1589 1.385 . S
C1588 C1590 1.478 . S
C1589 H1583 0.930 . S
C1589 C1585 1.400 1_655 S
C1589 C1588 1.385 . S
C1590 C1588 1.478 . S
C1590 C1592 1.381 . S
C1590 C1596 1.383 . S
C1591 C1587 1.495 . S
C1591 H1597 0.959 1_655 S
C1591 H1598 0.961 . S
C1591 H1599 0.960 . S
C1592 C1590 1.381 . S
C1592 C1593 1.394 . S
C1592 H1600 0.930 . S
C1593 C1592 1.394 . S
C1593 C1594 1.383 . S
C1593 H1601 0.929 . S
C1594 C1593 1.383 . S
C1594 C1595 1.377 . S
C1595 H1579 0.930 . S
C1595 C1594 1.377 . S
C1595 C1596 1.379 . S
C1596 H1580 0.931 . S
C1596 C1590 1.383 . S
C1596 C1595 1.379 . S
H1597 C1591 0.959 1_455 S
H1598 C1591 0.961 . S
H1599 C1591 0.960 . S
H1600 C1592 0.930 . S
H1601 C1593 0.929 . S
H1602 C1610 0.929 . S
H1603 C1612 0.930 . S
H1604 C1614 0.930 . S
H1605 C1617 0.929 . S
H1606 C1620 0.930 . S
H1607 C1622 0.960 . S
H1608 C1622 0.960 . S
H1609 C1622 0.960 . S
C1610 H1602 0.929 . S
C1610 C1611 1.377 . S
C1610 C1612 1.384 . S
C1611 C1610 1.377 . S
C1611 C1617 1.390 . S
C1612 H1603 0.930 . S
C1612 C1610 1.384 . S
C1612 C1613 1.372 . S
C1613 C1612 1.372 . S
C1613 C1614 1.400 . S
C1613 C1618 1.490 . S
C1614 H1604 0.930 . S
C1614 C1613 1.400 . S
C1614 C1617 1.386 . S
H1615 C1631 0.930 . S
H1616 C1632 0.931 . S
C1617 H1605 0.929 . S
C1617 C1611 1.390 . S
C1617 C1614 1.386 . S
C1618 C1613 1.490 . S
C1618 C1620 1.395 . S
C1618 C1621 1.403 . S
H1619 C1625 0.930 . S
C1620 H1606 0.930 . S
C1620 C1618 1.395 . S
C1620 C1623 1.403 . S
C1621 C1618 1.403 . S
C1621 C1622 1.524 . S
C1621 C1625 1.400 . S
C1622 H1607 0.960 . S
C1622 H1608 0.960 . S
C1622 H1609 0.960 . S
C1622 C1621 1.524 . S
C1623 C1620 1.403 . S
C1623 C1624 1.392 . S
C1623 C1627 1.495 . S
C1624 C1623 1.392 . S
C1624 C1625 1.385 . S
C1624 C1626 1.478 . S
C1625 H1619 0.930 . S
C1625 C1621 1.400 . S
C1625 C1624 1.385 . S
C1626 C1624 1.478 . S
C1626 C1628 1.381 . S
C1626 C1632 1.383 . S
C1627 C1623 1.495 . S
C1627 H1633 0.959 . S
C1627 H1634 0.961 . S
C1627 H1635 0.960 . S
C1628 C1626 1.381 . S
C1628 C1629 1.394 . S
C1628 H1636 0.930 . S
C1629 C1628 1.394 . S
C1629 C1630 1.383 . S
C1629 H1637 0.929 . S
C1630 C1629 1.383 . S
C1630 C1631 1.377 . S
C1631 H1615 0.930 . S
C1631 C1630 1.377 . S
C1631 C1632 1.379 . S
C1632 H1616 0.931 . S
C1632 C1626 1.383 . S
C1632 C1631 1.379 . S
H1633 C1627 0.959 . S
H1634 C1627 0.961 . S
H1635 C1627 0.960 . S
H1636 C1628 0.930 . S
H1637 C1629 0.929 . S
H1638 C1646 0.929 . S
H1639 C1648 0.930 . S
H1640 C1650 0.930 . S
H1641 C1653 0.929 . S
H1642 C1656 0.930 . S
H1643 C1658 0.960 . S
H1644 C1658 0.960 . S
H1645 C1658 0.960 . S
C1646 H1638 0.929 . S
C1646 C1647 1.377 . S
C1646 C1648 1.384 . S
C1647 C1646 1.377 . S
C1647 C1653 1.390 . S
C1648 H1639 0.930 . S
C1648 C1646 1.384 . S
C1648 C1649 1.372 . S
C1649 C1648 1.372 . S
C1649 C1650 1.400 . S
C1649 C1654 1.490 1_455 S
C1650 H1640 0.930 . S
C1650 C1649 1.400 . S
C1650 C1653 1.386 . S
H1651 C1667 0.930 . S
H1652 C1668 0.931 . S
C1653 H1641 0.929 . S
C1653 C1647 1.390 . S
C1653 C1650 1.386 . S
C1654 C1649 1.490 1_655 S
C1654 C1656 1.395 . S
C1654 C1657 1.403 . S
H1655 C1661 0.930 . S
C1656 H1642 0.930 . S
C1656 C1654 1.395 . S
C1656 C1659 1.403 . S
C1657 C1654 1.403 . S
C1657 C1658 1.524 . S
C1657 C1661 1.400 . S
C1658 H1643 0.960 . S
C1658 H1644 0.960 . S
C1658 H1645 0.960 . S
C1658 C1657 1.524 . S
C1659 C1656 1.403 . S
C1659 C1660 1.392 . S
C1659 C1663 1.495 . S
C1660 C1659 1.392 . S
C1660 C1661 1.385 . S
C1660 C1662 1.478 . S
C1661 H1655 0.930 . S
C1661 C1657 1.400 . S
C1661 C1660 1.385 . S
C1662 C1660 1.478 . S
C1662 C1664 1.381 . S
C1662 C1668 1.383 . S
C1663 C1659 1.495 . S
C1663 H1669 0.959 . S
C1663 H1670 0.961 . S
C1663 H1671 0.960 . S
C1664 C1662 1.381 . S
C1664 C1665 1.394 . S
C1664 H1672 0.930 . S
C1665 C1664 1.394 . S
C1665 C1666 1.383 . S
C1665 H1673 0.929 . S
C1666 C1665 1.383 . S
C1666 C1667 1.377 . S
C1667 H1651 0.930 . S
C1667 C1666 1.377 . S
C1667 C1668 1.379 . S
C1668 H1652 0.931 . S
C1668 C1662 1.383 . S
C1668 C1667 1.379 . S
H1669 C1663 0.959 . S
H1670 C1663 0.961 . S
H1671 C1663 0.960 . S
H1672 C1664 0.930 . S
H1673 C1665 0.929 . S
H1674 C1682 0.929 . S
H1675 C1684 0.930 . S
H1676 C1686 0.930 . S
H1677 C1689 0.929 . S
H1678 C1692 0.930 . S
H1679 C1694 0.960 . S
H1680 C1694 0.960 . S
H1681 C1694 0.960 . S
C1682 H1674 0.929 . S
C1682 C1683 1.377 . S
C1682 C1684 1.384 . S
C1683 C1682 1.377 . S
C1683 C1689 1.390 . S
C1684 H1675 0.930 . S
C1684 C1682 1.384 . S
C1684 C1685 1.372 . S
C1685 C1684 1.372 . S
C1685 C1686 1.400 . S
C1685 C1690 1.490 . S
C1686 H1676 0.930 . S
C1686 C1685 1.400 . S
C1686 C1689 1.386 . S
H1687 C1703 0.930 . S
H1688 C1704 0.931 . S
C1689 H1677 0.929 . S
C1689 C1683 1.390 . S
C1689 C1686 1.386 . S
C1690 C1685 1.490 . S
C1690 C1692 1.395 . S
C1690 C1693 1.403 . S
H1691 C1697 0.930 . S
C1692 H1678 0.930 . S
C1692 C1690 1.395 . S
C1692 C1695 1.403 . S
C1693 C1690 1.403 . S
C1693 C1694 1.524 . S
C1693 C1697 1.400 . S
C1694 H1679 0.960 . S
C1694 H1680 0.960 . S
C1694 H1681 0.960 . S
C1694 C1693 1.524 . S
C1695 C1692 1.403 . S
C1695 C1696 1.392 . S
C1695 C1699 1.495 . S
C1696 C1695 1.392 . S
C1696 C1697 1.385 . S
C1696 C1698 1.478 . S
C1697 H1691 0.930 . S
C1697 C1693 1.400 . S
C1697 C1696 1.385 . S
C1698 C1696 1.478 . S
C1698 C1700 1.381 . S
C1698 C1704 1.383 . S
C1699 C1695 1.495 . S
C1699 H1705 0.959 . S
C1699 H1706 0.961 . S
C1699 H1707 0.960 . S
C1700 C1698 1.381 . S
C1700 C1701 1.394 . S
C1700 H1708 0.930 . S
C1701 C1700 1.394 . S
C1701 C1702 1.383 . S
C1701 H1709 0.929 . S
C1702 C1701 1.383 . S
C1702 C1703 1.377 . S
C1703 H1687 0.930 . S
C1703 C1702 1.377 . S
C1703 C1704 1.379 . S
C1704 H1688 0.931 . S
C1704 C1698 1.383 . S
C1704 C1703 1.379 . S
H1705 C1699 0.959 . S
H1706 C1699 0.961 . S
H1707 C1699 0.960 . S
H1708 C1700 0.930 . S
H1709 C1701 0.929 . S
H1710 C1718 0.929 . S
H1711 C1720 0.930 . S
H1712 C1722 0.930 . S
H1713 C1725 0.929 . S
H1714 C1728 0.930 . S
H1715 C1730 0.960 . S
H1716 C1730 0.960 . S
H1717 C1730 0.960 . S
C1718 H1710 0.929 . S
C1718 C1719 1.377 . S
C1718 C1720 1.384 . S
C1719 C1718 1.377 . S
C1719 C1725 1.390 . S
C1720 H1711 0.930 . S
C1720 C1718 1.384 . S
C1720 C1721 1.372 . S
C1721 C1720 1.372 . S
C1721 C1722 1.400 . S
C1721 C1726 1.490 1_565 S
C1722 H1712 0.930 . S
C1722 C1721 1.400 . S
C1722 C1725 1.386 . S
H1723 C1739 0.930 . S
H1724 C1740 0.931 . S
C1725 H1713 0.929 . S
C1725 C1719 1.390 . S
C1725 C1722 1.386 . S
C1726 C1721 1.490 1_545 S
C1726 C1728 1.395 . S
C1726 C1729 1.403 . S
H1727 C1733 0.930 . S
C1728 H1714 0.930 . S
C1728 C1726 1.395 . S
C1728 C1731 1.403 . S
C1729 C1726 1.403 . S
C1729 C1730 1.524 . S
C1729 C1733 1.400 . S
C1730 H1715 0.960 . S
C1730 H1716 0.960 . S
C1730 H1717 0.960 . S
C1730 C1729 1.524 . S
C1731 C1728 1.403 . S
C1731 C1732 1.392 . S
C1731 C1735 1.495 . S
C1732 C1731 1.392 . S
C1732 C1733 1.385 . S
C1732 C1734 1.478 . S
C1733 H1727 0.930 . S
C1733 C1729 1.400 . S
C1733 C1732 1.385 . S
C1734 C1732 1.478 . S
C1734 C1736 1.381 . S
C1734 C1740 1.383 . S
C1735 C1731 1.495 . S
C1735 H1741 0.959 . S
C1735 H1742 0.961 . S
C1735 H1743 0.960 . S
C1736 C1734 1.381 . S
C1736 C1737 1.394 . S
C1736 H1744 0.930 . S
C1737 C1736 1.394 . S
C1737 C1738 1.383 . S
C1737 H1745 0.929 . S
C1738 C1737 1.383 . S
C1738 C1739 1.377 . S
C1739 H1723 0.930 . S
C1739 C1738 1.377 . S
C1739 C1740 1.379 . S
C1740 H1724 0.931 . S
C1740 C1734 1.383 . S
C1740 C1739 1.379 . S
H1741 C1735 0.959 . S
H1742 C1735 0.961 . S
H1743 C1735 0.960 . S
H1744 C1736 0.930 . S
H1745 C1737 0.929 . S
H1746 C1754 0.929 . S
H1747 C1756 0.930 . S
H1748 C1758 0.930 . S
H1749 C1761 0.929 . S
H1750 C1764 0.930 . S
H1751 C1766 0.960 . S
H1752 C1766 0.960 . S
H1753 C1766 0.960 . S
C1754 H1746 0.929 . S
C1754 C1755 1.377 . S
C1754 C1756 1.384 . S
C1755 C1754 1.377 . S
C1755 C1761 1.390 . S
C1756 H1747 0.930 . S
C1756 C1754 1.384 . S
C1756 C1757 1.372 . S
C1757 C1756 1.372 . S
C1757 C1758 1.400 . S
C1757 C1762 1.490 . S
C1758 H1748 0.930 . S
C1758 C1757 1.400 . S
C1758 C1761 1.386 . S
H1759 C1775 0.930 . S
H1760 C1776 0.931 . S
C1761 H1749 0.929 . S
C1761 C1755 1.390 . S
C1761 C1758 1.386 . S
C1762 C1757 1.490 . S
C1762 C1764 1.395 . S
C1762 C1765 1.403 . S
H1763 C1769 0.930 . S
C1764 H1750 0.930 . S
C1764 C1762 1.395 . S
C1764 C1767 1.403 . S
C1765 C1762 1.403 . S
C1765 C1766 1.524 . S
C1765 C1769 1.400 . S
C1766 H1751 0.960 . S
C1766 H1752 0.960 . S
C1766 H1753 0.960 . S
C1766 C1765 1.524 . S
C1767 C1764 1.403 . S
C1767 C1768 1.392 . S
C1767 C1771 1.495 . S
C1768 C1767 1.392 . S
C1768 C1769 1.385 . S
C1768 C1770 1.478 . S
C1769 H1763 0.930 . S
C1769 C1765 1.400 . S
C1769 C1768 1.385 . S
C1770 C1768 1.478 . S
C1770 C1772 1.381 . S
C1770 C1776 1.383 . S
C1771 C1767 1.495 . S
C1771 H1777 0.959 . S
C1771 H1778 0.961 . S
C1771 H1779 0.960 . S
C1772 C1770 1.381 . S
C1772 C1773 1.394 . S
C1772 H1780 0.930 . S
C1773 C1772 1.394 . S
C1773 C1774 1.383 . S
C1773 H1781 0.929 . S
C1774 C1773 1.383 . S
C1774 C1775 1.377 . S
C1775 H1759 0.930 . S
C1775 C1774 1.377 . S
C1775 C1776 1.379 . S
C1776 H1760 0.931 . S
C1776 C1770 1.383 . S
C1776 C1775 1.379 . S
H1777 C1771 0.959 . S
H1778 C1771 0.961 . S
H1779 C1771 0.960 . S
H1780 C1772 0.930 . S
H1781 C1773 0.929 . S
H1782 C1790 0.929 . S
H1783 C1792 0.930 . S
H1784 C1794 0.930 . S
H1785 C1797 0.929 . S
H1786 C1800 0.930 . S
H1787 C1802 0.960 . S
H1788 C1802 0.960 . S
H1789 C1802 0.960 . S
C1790 H1782 0.929 . S
C1790 C1791 1.377 . S
C1790 C1792 1.384 . S
C1791 C1790 1.377 . S
C1791 C1797 1.390 . S
C1792 H1783 0.930 . S
C1792 C1790 1.384 . S
C1792 C1793 1.372 . S
C1793 C1792 1.372 . S
C1793 C1794 1.400 . S
C1793 C1798 1.490 . S
C1794 H1784 0.930 . S
C1794 C1793 1.400 . S
C1794 C1797 1.386 . S
H1795 C1811 0.930 . S
H1796 C1812 0.931 . S
C1797 H1785 0.929 . S
C1797 C1791 1.390 . S
C1797 C1794 1.386 . S
C1798 C1793 1.490 . S
C1798 C1800 1.395 . S
C1798 C1801 1.403 . S
H1799 C1805 0.930 . S
C1800 H1786 0.930 . S
C1800 C1798 1.395 . S
C1800 C1803 1.403 . S
C1801 C1798 1.403 . S
C1801 C1802 1.524 . S
C1801 C1805 1.400 . S
C1802 H1787 0.960 . S
C1802 H1788 0.960 . S
C1802 H1789 0.960 . S
C1802 C1801 1.524 . S
C1803 C1800 1.403 . S
C1803 C1804 1.392 . S
C1803 C1807 1.495 . S
C1804 C1803 1.392 . S
C1804 C1805 1.385 . S
C1804 C1806 1.478 . S
C1805 H1799 0.930 . S
C1805 C1801 1.400 . S
C1805 C1804 1.385 . S
C1806 C1804 1.478 . S
C1806 C1808 1.381 . S
C1806 C1812 1.383 . S
C1807 C1803 1.495 . S
C1807 H1813 0.959 . S
C1807 H1814 0.961 . S
C1807 H1815 0.960 . S
C1808 C1806 1.381 . S
C1808 C1809 1.394 . S
C1808 H1816 0.930 . S
C1809 C1808 1.394 . S
C1809 C1810 1.383 . S
C1809 H1817 0.929 . S
C1810 C1809 1.383 . S
C1810 C1811 1.377 . S
C1811 H1795 0.930 . S
C1811 C1810 1.377 . S
C1811 C1812 1.379 . S
C1812 H1796 0.931 . S
C1812 C1806 1.383 . S
C1812 C1811 1.379 . S
H1813 C1807 0.959 . S
H1814 C1807 0.961 . S
H1815 C1807 0.960 . S
H1816 C1808 0.930 . S
H1817 C1809 0.929 . S
H1818 C1826 0.929 . S
H1819 C1828 0.930 . S
H1820 C1830 0.930 . S
H1821 C1833 0.929 . S
H1822 C1836 0.930 . S
H1823 C1838 0.960 . S
H1824 C1838 0.960 . S
H1825 C1838 0.960 . S
C1826 H1818 0.929 . S
C1826 C1827 1.377 . S
C1826 C1828 1.384 . S
C1827 C1826 1.377 . S
C1827 C1833 1.390 . S
C1828 H1819 0.930 . S
C1828 C1826 1.384 . S
C1828 C1829 1.372 . S
C1829 C1828 1.372 . S
C1829 C1830 1.400 . S
C1829 C1834 1.490 . S
C1830 H1820 0.930 . S
C1830 C1829 1.400 . S
C1830 C1833 1.386 . S
H1831 C1847 0.930 . S
H1832 C1848 0.931 . S
C1833 H1821 0.929 . S
C1833 C1827 1.390 . S
C1833 C1830 1.386 . S
C1834 C1829 1.490 . S
C1834 C1836 1.395 . S
C1834 C1837 1.403 . S
H1835 C1841 0.930 . S
C1836 H1822 0.930 . S
C1836 C1834 1.395 . S
C1836 C1839 1.403 . S
C1837 C1834 1.403 . S
C1837 C1838 1.524 . S
C1837 C1841 1.400 . S
C1838 H1823 0.960 . S
C1838 H1824 0.960 . S
C1838 H1825 0.960 . S
C1838 C1837 1.524 . S
C1839 C1836 1.403 . S
C1839 C1840 1.392 . S
C1839 C1843 1.495 . S
C1840 C1839 1.392 . S
C1840 C1841 1.385 . S
C1840 C1842 1.478 . S
C1841 H1835 0.930 . S
C1841 C1837 1.400 . S
C1841 C1840 1.385 . S
C1842 C1840 1.478 . S
C1842 C1844 1.381 . S
C1842 C1848 1.383 . S
C1843 C1839 1.495 . S
C1843 H1849 0.959 . S
C1843 H1850 0.961 . S
C1843 H1851 0.960 . S
C1844 C1842 1.381 . S
C1844 C1845 1.394 . S
C1844 H1852 0.930 . S
C1845 C1844 1.394 . S
C1845 C1846 1.383 . S
C1845 H1853 0.929 . S
C1846 C1845 1.383 . S
C1846 C1847 1.377 . S
C1847 H1831 0.930 . S
C1847 C1846 1.377 . S
C1847 C1848 1.379 . S
C1848 H1832 0.931 . S
C1848 C1842 1.383 . S
C1848 C1847 1.379 . S
H1849 C1843 0.959 . S
H1850 C1843 0.961 . S
H1851 C1843 0.960 . S
H1852 C1844 0.930 . S
H1853 C1845 0.929 . S
H1854 C1862 0.929 . S
H1855 C1864 0.930 . S
H1856 C1866 0.930 . S
H1857 C1869 0.929 . S
H1858 C1872 0.930 . S
H1859 C1874 0.960 . S
H1860 C1874 0.960 . S
H1861 C1874 0.960 . S
C1862 H1854 0.929 . S
C1862 C1863 1.377 . S
C1862 C1864 1.384 . S
C1863 C1862 1.377 . S
C1863 C1869 1.390 . S
C1864 H1855 0.930 . S
C1864 C1862 1.384 . S
C1864 C1865 1.372 . S
C1865 C1864 1.372 . S
C1865 C1866 1.400 . S
C1865 C1870 1.490 . S
C1866 H1856 0.930 . S
C1866 C1865 1.400 . S
C1866 C1869 1.386 . S
H1867 C1883 0.930 . S
H1868 C1884 0.931 . S
C1869 H1857 0.929 . S
C1869 C1863 1.390 . S
C1869 C1866 1.386 . S
C1870 C1865 1.490 . S
C1870 C1872 1.395 . S
C1870 C1873 1.403 . S
H1871 C1877 0.930 . S
C1872 H1858 0.930 . S
C1872 C1870 1.395 . S
C1872 C1875 1.403 . S
C1873 C1870 1.403 . S
C1873 C1874 1.524 . S
C1873 C1877 1.400 . S
C1874 H1859 0.960 . S
C1874 H1860 0.960 . S
C1874 H1861 0.960 . S
C1874 C1873 1.524 . S
C1875 C1872 1.403 . S
C1875 C1876 1.392 . S
C1875 C1879 1.495 . S
C1876 C1875 1.392 . S
C1876 C1877 1.385 . S
C1876 C1878 1.478 . S
C1877 H1871 0.930 . S
C1877 C1873 1.400 . S
C1877 C1876 1.385 . S
C1878 C1876 1.478 . S
C1878 C1880 1.381 . S
C1878 C1884 1.383 . S
C1879 C1875 1.495 . S
C1879 H1885 0.959 . S
C1879 H1886 0.961 1_565 S
C1879 H1887 0.960 . S
C1880 C1878 1.381 . S
C1880 C1881 1.394 . S
C1880 H1888 0.930 . S
C1881 C1880 1.394 . S
C1881 C1882 1.383 . S
C1881 H1889 0.929 . S
C1882 C1881 1.383 . S
C1882 C1883 1.377 . S
C1883 H1867 0.930 . S
C1883 C1882 1.377 . S
C1883 C1884 1.379 . S
C1884 H1868 0.931 . S
C1884 C1878 1.383 . S
C1884 C1883 1.379 . S
H1885 C1879 0.959 . S
H1886 C1879 0.961 1_545 S
H1887 C1879 0.960 . S
H1888 C1880 0.930 . S
H1889 C1881 0.929 . S
H1890 C1898 0.929 . S
H1891 C1900 0.930 . S
H1892 C1902 0.930 . S
H1893 C1905 0.929 . S
H1894 C1908 0.930 . S
H1895 C1910 0.960 . S
H1896 C1910 0.960 . S
H1897 C1910 0.960 . S
C1898 H1890 0.929 . S
C1898 C1899 1.377 . S
C1898 C1900 1.384 . S
C1899 C1898 1.377 . S
C1899 C1905 1.390 . S
C1900 H1891 0.930 . S
C1900 C1898 1.384 . S
C1900 C1901 1.372 . S
C1901 C1900 1.372 . S
C1901 C1902 1.400 . S
C1901 C1906 1.490 . S
C1902 H1892 0.930 . S
C1902 C1901 1.400 . S
C1902 C1905 1.386 . S
H1903 C1919 0.930 . S
H1904 C1920 0.931 . S
C1905 H1893 0.929 . S
C1905 C1899 1.390 . S
C1905 C1902 1.386 . S
C1906 C1901 1.490 . S
C1906 C1908 1.395 . S
C1906 C1909 1.403 . S
H1907 C1913 0.930 . S
C1908 H1894 0.930 . S
C1908 C1906 1.395 . S
C1908 C1911 1.403 . S
C1909 C1906 1.403 . S
C1909 C1910 1.524 . S
C1909 C1913 1.400 . S
C1910 H1895 0.960 . S
C1910 H1896 0.960 . S
C1910 H1897 0.960 . S
C1910 C1909 1.524 . S
C1911 C1908 1.403 . S
C1911 C1912 1.392 . S
C1911 C1915 1.495 . S
C1912 C1911 1.392 . S
C1912 C1913 1.385 . S
C1912 C1914 1.478 . S
C1913 H1907 0.930 . S
C1913 C1909 1.400 . S
C1913 C1912 1.385 . S
C1914 C1912 1.478 . S
C1914 C1916 1.381 . S
C1914 C1920 1.383 . S
C1915 C1911 1.495 . S
C1915 H1921 0.959 1_455 S
C1915 H1922 0.961 1_455 S
C1915 H1923 0.960 . S
C1916 C1914 1.381 . S
C1916 C1917 1.394 . S
C1916 H1924 0.930 . S
C1917 C1916 1.394 . S
C1917 C1918 1.383 . S
C1917 H1925 0.929 . S
C1918 C1917 1.383 . S
C1918 C1919 1.377 . S
C1919 H1903 0.930 . S
C1919 C1918 1.377 . S
C1919 C1920 1.379 . S
C1920 H1904 0.931 . S
C1920 C1914 1.383 . S
C1920 C1919 1.379 . S
H1921 C1915 0.959 1_655 S
H1922 C1915 0.961 1_655 S
H1923 C1915 0.960 . S
H1924 C1916 0.930 . S
H1925 C1917 0.929 . S
H1926 C1934 0.929 . S
H1927 C1936 0.930 . S
H1928 C1938 0.930 . S
H1929 C1941 0.929 . S
H1930 C1944 0.930 . S
H1931 C1946 0.960 . S
H1932 C1946 0.960 . S
H1933 C1946 0.960 . S
C1934 H1926 0.929 . S
C1934 C1935 1.377 . S
C1934 C1936 1.384 . S
C1935 C1934 1.377 . S
C1935 C1941 1.390 . S
C1936 H1927 0.930 . S
C1936 C1934 1.384 . S
C1936 C1937 1.372 . S
C1937 C1936 1.372 . S
C1937 C1938 1.400 . S
C1937 C1942 1.490 . S
C1938 H1928 0.930 . S
C1938 C1937 1.400 . S
C1938 C1941 1.386 . S
H1939 C1955 0.930 . S
H1940 C1956 0.931 . S
C1941 H1929 0.929 . S
C1941 C1935 1.390 . S
C1941 C1938 1.386 . S
C1942 C1937 1.490 . S
C1942 C1944 1.395 . S
C1942 C1945 1.403 . S
H1943 C1949 0.930 . S
C1944 H1930 0.930 . S
C1944 C1942 1.395 . S
C1944 C1947 1.403 . S
C1945 C1942 1.403 . S
C1945 C1946 1.524 . S
C1945 C1949 1.400 . S
C1946 H1931 0.960 . S
C1946 H1932 0.960 . S
C1946 H1933 0.960 . S
C1946 C1945 1.524 . S
C1947 C1944 1.403 . S
C1947 C1948 1.392 . S
C1947 C1951 1.495 . S
C1948 C1947 1.392 . S
C1948 C1949 1.385 . S
C1948 C1950 1.478 . S
C1949 H1943 0.930 . S
C1949 C1945 1.400 . S
C1949 C1948 1.385 . S
C1950 C1948 1.478 . S
C1950 C1952 1.381 . S
C1950 C1956 1.383 . S
C1951 C1947 1.495 . S
C1951 H1957 0.959 . S
C1951 H1958 0.961 . S
C1951 H1959 0.960 . S
C1952 C1950 1.381 . S
C1952 C1953 1.394 . S
C1952 H1960 0.930 . S
C1953 C1952 1.394 . S
C1953 C1954 1.383 . S
C1953 H1961 0.929 . S
C1954 C1953 1.383 . S
C1954 C1955 1.377 . S
C1955 H1939 0.930 . S
C1955 C1954 1.377 . S
C1955 C1956 1.379 . S
C1956 H1940 0.931 . S
C1956 C1950 1.383 . S
C1956 C1955 1.379 . S
H1957 C1951 0.959 . S
H1958 C1951 0.961 . S
H1959 C1951 0.960 . S
H1960 C1952 0.930 . S
H1961 C1953 0.929 . S
H1962 C1970 0.929 . S
H1963 C1972 0.930 . S
H1964 C1974 0.930 . S
H1965 C1977 0.929 . S
H1966 C1980 0.930 . S
H1967 C1982 0.960 . S
H1968 C1982 0.960 . S
H1969 C1982 0.960 . S
C1970 H1962 0.929 . S
C1970 C1971 1.377 . S
C1970 C1972 1.384 . S
C1971 C1970 1.377 . S
C1971 C1977 1.390 . S
C1972 H1963 0.930 . S
C1972 C1970 1.384 . S
C1972 C1973 1.372 . S
C1973 C1972 1.372 . S
C1973 C1974 1.400 . S
C1973 C1978 1.490 . S
C1974 H1964 0.930 . S
C1974 C1973 1.400 . S
C1974 C1977 1.386 . S
H1975 C1991 0.923 1_455 S
H1976 C1992 0.931 . S
C1977 H1965 0.929 . S
C1977 C1971 1.390 . S
C1977 C1974 1.386 . S
C1978 C1973 1.490 . S
C1978 C1980 1.395 . S
C1978 C1981 1.403 . S
H1979 C1985 0.930 . S
C1980 H1966 0.930 . S
C1980 C1978 1.395 . S
C1980 C1983 1.403 . S
C1981 C1978 1.403 . S
C1981 C1982 1.524 . S
C1981 C1985 1.400 . S
C1982 H1967 0.960 . S
C1982 H1968 0.960 . S
C1982 H1969 0.960 . S
C1982 C1981 1.524 . S
C1983 C1980 1.403 . S
C1983 C1984 1.392 . S
C1983 C1987 1.495 . S
C1984 C1983 1.392 . S
C1984 C1985 1.385 . S
C1984 C1986 1.478 . S
C1985 H1979 0.930 . S
C1985 C1981 1.400 . S
C1985 C1984 1.385 . S
C1986 C1984 1.478 . S
C1986 C1988 1.381 . S
C1986 C1992 1.383 . S
C1987 C1983 1.495 . S
C1987 H1993 0.959 . S
C1987 H1994 0.961 . S
C1987 H1995 0.960 . S
C1988 C1986 1.381 . S
C1988 C1989 1.394 . S
C1988 H1996 0.930 . S
C1989 C1988 1.394 . S
C1989 C1990 1.383 . S
C1989 H1997 0.929 . S
C1990 C1989 1.383 . S
C1990 C1991 1.377 . S
C1991 H1975 0.923 1_655 S
C1991 C1990 1.377 . S
C1991 C1992 1.379 . S
C1992 H1976 0.931 . S
C1992 C1986 1.383 . S
C1992 C1991 1.379 . S
H1993 C1987 0.959 . S
H1994 C1987 0.961 . S
H1995 C1987 0.960 . S
H1996 C1988 0.930 . S
H1997 C1989 0.929 . S
H1998 C2006 0.929 . S
H1999 C2008 0.930 . S
H2000 C2010 0.930 . S
H2001 C2013 0.929 . S
H2002 C2016 0.930 . S
H2003 C2018 0.960 . S
H2004 C2018 0.960 . S
H2005 C2018 0.960 . S
C2006 H1998 0.929 . S
C2006 C2007 1.377 . S
C2006 C2008 1.384 . S
C2007 C2006 1.377 . S
C2007 C2013 1.390 . S
C2008 H1999 0.930 . S
C2008 C2006 1.384 . S
C2008 C2009 1.372 . S
C2009 C2008 1.372 . S
C2009 C2010 1.400 . S
C2009 C2014 1.490 . S
C2010 H2000 0.930 . S
C2010 C2009 1.400 . S
C2010 C2013 1.386 . S
H2011 C2027 0.930 . S
H2012 C2028 0.931 . S
C2013 H2001 0.929 . S
C2013 C2007 1.390 . S
C2013 C2010 1.386 . S
C2014 C2009 1.490 . S
C2014 C2016 1.395 . S
C2014 C2017 1.403 . S
H2015 C2021 0.930 . S
C2016 H2002 0.930 . S
C2016 C2014 1.395 . S
C2016 C2019 1.403 . S
C2017 C2014 1.403 . S
C2017 C2018 1.524 . S
C2017 C2021 1.400 . S
C2018 H2003 0.960 . S
C2018 H2004 0.960 . S
C2018 H2005 0.960 . S
C2018 C2017 1.524 . S
C2019 C2016 1.403 . S
C2019 C2020 1.392 . S
C2019 C2023 1.495 . S
C2020 C2019 1.392 . S
C2020 C2021 1.385 . S
C2020 C2022 1.478 . S
C2021 H2015 0.930 . S
C2021 C2017 1.400 . S
C2021 C2020 1.385 . S
C2022 C2020 1.478 . S
C2022 C2024 1.381 . S
C2022 C2028 1.383 . S
C2023 C2019 1.495 . S
C2023 H2029 0.959 . S
C2023 H2030 0.961 . S
C2023 H2031 0.960 . S
C2024 C2022 1.381 . S
C2024 C2025 1.394 . S
C2024 H2032 0.930 . S
C2025 C2024 1.394 . S
C2025 C2026 1.383 . S
C2025 H2033 0.929 . S
C2026 C2025 1.383 . S
C2026 C2027 1.377 . S
C2027 H2011 0.930 . S
C2027 C2026 1.377 . S
C2027 C2028 1.379 . S
C2028 H2012 0.931 . S
C2028 C2022 1.383 . S
C2028 C2027 1.379 . S
H2029 C2023 0.959 . S
H2030 C2023 0.961 . S
H2031 C2023 0.960 . S
H2032 C2024 0.930 . S
H2033 C2025 0.929 . S
H2034 C2042 0.929 . S
H2035 C2044 0.930 . S
H2036 C2046 0.930 . S
H2037 C2049 0.929 . S
H2038 C2052 0.930 . S
H2039 C2054 0.960 . S
H2040 C2054 0.960 . S
H2041 C2054 0.960 . S
C2042 H2034 0.929 . S
C2042 C2043 1.377 . S
C2042 C2044 1.384 . S
C2043 C2042 1.377 . S
C2043 C2049 1.390 . S
C2044 H2035 0.930 . S
C2044 C2042 1.384 . S
C2044 C2045 1.372 . S
C2045 C2044 1.372 . S
C2045 C2046 1.400 . S
C2045 C2050 1.490 . S
C2046 H2036 0.930 . S
C2046 C2045 1.400 . S
C2046 C2049 1.386 . S
H2047 C2063 0.930 . S
H2048 C2064 0.931 . S
C2049 H2037 0.929 . S
C2049 C2043 1.390 . S
C2049 C2046 1.386 . S
C2050 C2045 1.490 . S
C2050 C2052 1.395 . S
C2050 C2053 1.403 . S
H2051 C2057 0.930 . S
C2052 H2038 0.930 . S
C2052 C2050 1.395 . S
C2052 C2055 1.403 . S
C2053 C2050 1.403 . S
C2053 C2054 1.524 . S
C2053 C2057 1.400 . S
C2054 H2039 0.960 . S
C2054 H2040 0.960 . S
C2054 H2041 0.960 . S
C2054 C2053 1.524 . S
C2055 C2052 1.403 . S
C2055 C2056 1.392 . S
C2055 C2059 1.495 . S
C2056 C2055 1.392 . S
C2056 C2057 1.385 . S
C2056 C2058 1.478 . S
C2057 H2051 0.930 . S
C2057 C2053 1.400 . S
C2057 C2056 1.385 . S
C2058 C2056 1.478 . S
C2058 C2060 1.381 . S
C2058 C2064 1.383 . S
C2059 C2055 1.495 . S
C2059 H2065 0.959 . S
C2059 H2066 0.961 . S
C2059 H2067 0.960 . S
C2060 C2058 1.381 . S
C2060 C2061 1.394 . S
C2060 H2068 0.930 . S
C2061 C2060 1.394 . S
C2061 C2062 1.383 . S
C2061 H2069 0.929 . S
C2062 C2061 1.383 . S
C2062 C2063 1.377 . S
C2063 H2047 0.930 . S
C2063 C2062 1.377 . S
C2063 C2064 1.379 . S
C2064 H2048 0.931 . S
C2064 C2058 1.383 . S
C2064 C2063 1.379 . S
H2065 C2059 0.959 . S
H2066 C2059 0.961 . S
H2067 C2059 0.960 . S
H2068 C2060 0.930 . S
H2069 C2061 0.929 . S
H2070 C2078 0.929 . S
H2071 C2080 0.930 . S
H2072 C2082 0.930 . S
H2073 C2085 0.929 . S
H2074 C2088 0.930 . S
H2075 C2090 0.960 . S
H2076 C2090 0.960 . S
H2077 C2090 0.960 . S
C2078 H2070 0.929 . S
C2078 C2079 1.377 . S
C2078 C2080 1.384 . S
C2079 C2078 1.377 . S
C2079 C2085 1.390 . S
C2080 H2071 0.930 . S
C2080 C2078 1.384 . S
C2080 C2081 1.372 . S
C2081 C2080 1.372 . S
C2081 C2082 1.400 . S
C2081 C2086 1.490 . S
C2082 H2072 0.930 . S
C2082 C2081 1.400 . S
C2082 C2085 1.386 . S
H2083 C2099 0.930 . S
H2084 C2100 0.931 . S
C2085 H2073 0.929 . S
C2085 C2079 1.390 . S
C2085 C2082 1.386 . S
C2086 C2081 1.490 . S
C2086 C2088 1.395 . S
C2086 C2089 1.403 . S
H2087 C2093 0.930 . S
C2088 H2074 0.930 . S
C2088 C2086 1.395 . S
C2088 C2091 1.403 . S
C2089 C2086 1.403 . S
C2089 C2090 1.524 . S
C2089 C2093 1.400 . S
C2090 H2075 0.960 . S
C2090 H2076 0.960 . S
C2090 H2077 0.960 . S
C2090 C2089 1.524 . S
C2091 C2088 1.403 . S
C2091 C2092 1.392 . S
C2091 C2095 1.495 . S
C2092 C2091 1.392 . S
C2092 C2093 1.385 . S
C2092 C2094 1.478 . S
C2093 H2087 0.930 . S
C2093 C2089 1.400 . S
C2093 C2092 1.385 . S
C2094 C2092 1.478 . S
C2094 C2096 1.381 . S
C2094 C2100 1.383 . S
C2095 C2091 1.495 . S
C2095 H2101 0.959 . S
C2095 H2102 0.961 . S
C2095 H2103 0.960 . S
C2096 C2094 1.381 . S
C2096 C2097 1.394 . S
C2096 H2104 0.930 . S
C2097 C2096 1.394 . S
C2097 C2098 1.383 . S
C2097 H2105 0.929 . S
C2098 C2097 1.383 . S
C2098 C2099 1.377 . S
C2099 H2083 0.930 . S
C2099 C2098 1.377 . S
C2099 C2100 1.379 . S
C2100 H2084 0.931 . S
C2100 C2094 1.383 . S
C2100 C2099 1.379 . S
H2101 C2095 0.959 . S
H2102 C2095 0.961 . S
H2103 C2095 0.960 . S
H2104 C2096 0.930 . S
H2105 C2097 0.929 . S
H2106 C2114 0.929 . S
H2107 C2116 0.930 . S
H2108 C2118 0.930 . S
H2109 C2121 0.929 . S
H2110 C2124 0.930 . S
H2111 C2126 0.960 . S
H2112 C2126 0.960 . S
H2113 C2126 0.960 . S
C2114 H2106 0.929 . S
C2114 C2115 1.377 . S
C2114 C2116 1.384 . S
C2115 C2114 1.377 . S
C2115 C2121 1.390 . S
C2116 H2107 0.930 . S
C2116 C2114 1.384 . S
C2116 C2117 1.372 . S
C2117 C2116 1.372 . S
C2117 C2118 1.400 . S
C2117 C2122 1.490 . S
C2118 H2108 0.930 . S
C2118 C2117 1.400 . S
C2118 C2121 1.386 . S
H2119 C2135 0.930 . S
H2120 C2136 0.931 . S
C2121 H2109 0.929 . S
C2121 C2115 1.390 . S
C2121 C2118 1.386 . S
C2122 C2117 1.490 . S
C2122 C2124 1.395 . S
C2122 C2125 1.403 . S
H2123 C2129 0.930 . S
C2124 H2110 0.930 . S
C2124 C2122 1.395 . S
C2124 C2127 1.403 . S
C2125 C2122 1.403 . S
C2125 C2126 1.524 . S
C2125 C2129 1.400 . S
C2126 H2111 0.960 . S
C2126 H2112 0.960 . S
C2126 H2113 0.960 . S
C2126 C2125 1.524 . S
C2127 C2124 1.403 . S
C2127 C2128 1.392 . S
C2127 C2131 1.495 . S
C2128 C2127 1.392 . S
C2128 C2129 1.385 . S
C2128 C2130 1.478 . S
C2129 H2123 0.930 . S
C2129 C2125 1.400 . S
C2129 C2128 1.385 . S
C2130 C2128 1.478 . S
C2130 C2132 1.381 . S
C2130 C2136 1.383 . S
C2131 C2127 1.495 . S
C2131 H2137 0.959 . S
C2131 H2138 0.961 . S
C2131 H2139 0.960 . S
C2132 C2130 1.381 . S
C2132 C2133 1.394 . S
C2132 H2140 0.930 . S
C2133 C2132 1.394 . S
C2133 C2134 1.383 . S
C2133 H2141 0.929 . S
C2134 C2133 1.383 . S
C2134 C2135 1.377 . S
C2135 H2119 0.930 . S
C2135 C2134 1.377 . S
C2135 C2136 1.379 . S
C2136 H2120 0.931 . S
C2136 C2130 1.383 . S
C2136 C2135 1.379 . S
H2137 C2131 0.959 . S
H2138 C2131 0.961 . S
H2139 C2131 0.960 . S
H2140 C2132 0.930 . S
H2141 C2133 0.929 . S
H2142 C2150 0.929 . S
H2143 C2152 0.930 . S
H2144 C2154 0.930 . S
H2145 C2157 0.929 . S
H2146 C2160 0.930 . S
H2147 C2162 0.960 . S
H2148 C2162 0.960 . S
H2149 C2162 0.960 . S
C2150 H2142 0.929 . S
C2150 C2151 1.377 . S
C2150 C2152 1.384 . S
C2151 C2150 1.377 . S
C2151 C2157 1.390 . S
C2152 H2143 0.930 . S
C2152 C2150 1.384 . S
C2152 C2153 1.372 . S
C2153 C2152 1.372 . S
C2153 C2154 1.400 . S
C2153 C2158 1.490 . S
C2154 H2144 0.930 . S
C2154 C2153 1.400 . S
C2154 C2157 1.386 . S
H2155 C2171 0.930 . S
H2156 C2172 0.931 . S
C2157 H2145 0.929 . S
C2157 C2151 1.390 . S
C2157 C2154 1.386 . S
C2158 C2153 1.490 . S
C2158 C2160 1.395 . S
C2158 C2161 1.403 . S
H2159 C2165 0.930 . S
C2160 H2146 0.930 . S
C2160 C2158 1.395 . S
C2160 C2163 1.403 . S
C2161 C2158 1.403 . S
C2161 C2162 1.524 . S
C2161 C2165 1.400 . S
C2162 H2147 0.960 . S
C2162 H2148 0.960 . S
C2162 H2149 0.960 . S
C2162 C2161 1.524 . S
C2163 C2160 1.403 . S
C2163 C2164 1.392 . S
C2163 C2167 1.495 . S
C2164 C2163 1.392 . S
C2164 C2165 1.385 . S
C2164 C2166 1.478 . S
C2165 H2159 0.930 . S
C2165 C2161 1.400 . S
C2165 C2164 1.385 . S
C2166 C2164 1.478 . S
C2166 C2168 1.381 . S
C2166 C2172 1.383 . S
C2167 C2163 1.495 . S
C2167 H2173 0.959 . S
C2167 H2174 0.961 . S
C2167 H2175 0.960 . S
C2168 C2166 1.381 . S
C2168 C2169 1.394 . S
C2168 H2176 0.930 . S
C2169 C2168 1.394 . S
C2169 C2170 1.383 . S
C2169 H2177 0.929 . S
C2170 C2169 1.383 . S
C2170 C2171 1.377 . S
C2171 H2155 0.930 . S
C2171 C2170 1.377 . S
C2171 C2172 1.379 . S
C2172 H2156 0.931 . S
C2172 C2166 1.383 . S
C2172 C2171 1.379 . S
H2173 C2167 0.959 . S
H2174 C2167 0.961 . S
H2175 C2167 0.960 . S
H2176 C2168 0.930 . S
H2177 C2169 0.929 . S
H2178 C2186 0.929 . S
H2179 C2188 0.930 . S
H2180 C2190 0.930 . S
H2181 C2193 0.929 . S
H2182 C2196 0.930 . S
H2183 C2198 0.960 . S
H2184 C2198 0.960 . S
H2185 C2198 0.960 . S
C2186 H2178 0.929 . S
C2186 C2187 1.377 . S
C2186 C2188 1.384 . S
C2187 C2186 1.377 . S
C2187 C2193 1.390 . S
C2188 H2179 0.930 . S
C2188 C2186 1.384 . S
C2188 C2189 1.372 . S
C2189 C2188 1.372 . S
C2189 C2190 1.400 . S
C2189 C2194 1.490 . S
C2190 H2180 0.930 . S
C2190 C2189 1.400 . S
C2190 C2193 1.386 . S
H2191 C2207 0.930 . S
H2192 C2208 0.931 . S
C2193 H2181 0.929 . S
C2193 C2187 1.390 . S
C2193 C2190 1.386 . S
C2194 C2189 1.490 . S
C2194 C2196 1.395 . S
C2194 C2197 1.403 . S
H2195 C2201 0.930 . S
C2196 H2182 0.930 . S
C2196 C2194 1.395 . S
C2196 C2199 1.403 . S
C2197 C2194 1.403 . S
C2197 C2198 1.524 . S
C2197 C2201 1.400 . S
C2198 H2183 0.960 . S
C2198 H2184 0.960 . S
C2198 H2185 0.960 . S
C2198 C2197 1.524 . S
C2199 C2196 1.403 . S
C2199 C2200 1.392 . S
C2199 C2203 1.495 . S
C2200 C2199 1.392 . S
C2200 C2201 1.385 . S
C2200 C2202 1.478 . S
C2201 H2195 0.930 . S
C2201 C2197 1.400 . S
C2201 C2200 1.385 . S
C2202 C2200 1.478 . S
C2202 C2204 1.381 . S
C2202 C2208 1.383 . S
C2203 C2199 1.495 . S
C2203 H2209 0.959 . S
C2203 H2210 0.961 . S
C2203 H2211 0.960 . S
C2204 C2202 1.381 . S
C2204 C2205 1.394 . S
C2204 H2212 0.930 . S
C2205 C2204 1.394 . S
C2205 C2206 1.383 . S
C2205 H2213 0.929 . S
C2206 C2205 1.383 . S
C2206 C2207 1.377 . S
C2207 H2191 0.930 . S
C2207 C2206 1.377 . S
C2207 C2208 1.379 . S
C2208 H2192 0.931 . S
C2208 C2202 1.383 . S
C2208 C2207 1.379 . S
H2209 C2203 0.959 . S
H2210 C2203 0.961 . S
H2211 C2203 0.960 . S
H2212 C2204 0.930 . S
H2213 C2205 0.929 . S
H2214 C2222 0.929 . S
H2215 C2224 0.930 . S
H2216 C2226 0.930 . S
H2217 C2229 0.929 . S
H2218 C2232 0.930 . S
H2219 C2234 0.960 . S
H2220 C2234 0.960 . S
H2221 C2234 0.960 . S
C2222 H2214 0.929 . S
C2222 C2223 1.377 . S
C2222 C2224 1.384 . S
C2223 C2222 1.377 . S
C2223 C2229 1.390 . S
C2224 H2215 0.930 . S
C2224 C2222 1.384 . S
C2224 C2225 1.372 . S
C2225 C2224 1.372 . S
C2225 C2226 1.400 . S
C2225 C2230 1.490 . S
C2226 H2216 0.930 . S
C2226 C2225 1.400 . S
C2226 C2229 1.386 . S
H2227 C2243 0.930 . S
H2228 C2244 0.931 . S
C2229 H2217 0.929 . S
C2229 C2223 1.390 . S
C2229 C2226 1.386 . S
C2230 C2225 1.490 . S
C2230 C2232 1.395 . S
C2230 C2233 1.403 . S
H2231 C2237 0.930 . S
C2232 H2218 0.930 . S
C2232 C2230 1.395 . S
C2232 C2235 1.403 . S
C2233 C2230 1.403 . S
C2233 C2234 1.524 . S
C2233 C2237 1.400 . S
C2234 H2219 0.960 . S
C2234 H2220 0.960 . S
C2234 H2221 0.960 . S
C2234 C2233 1.524 . S
C2235 C2232 1.403 . S
C2235 C2236 1.392 . S
C2235 C2239 1.495 . S
C2236 C2235 1.392 . S
C2236 C2237 1.385 . S
C2236 C2238 1.478 . S
C2237 H2231 0.930 . S
C2237 C2233 1.400 . S
C2237 C2236 1.385 . S
C2238 C2236 1.478 . S
C2238 C2240 1.381 . S
C2238 C2244 1.383 . S
C2239 C2235 1.495 . S
C2239 H2245 0.959 . S
C2239 H2246 0.961 . S
C2239 H2247 0.960 . S
C2240 C2238 1.381 . S
C2240 C2241 1.394 . S
C2240 H2248 0.930 . S
C2241 C2240 1.394 . S
C2241 C2242 1.383 . S
C2241 H2249 0.929 . S
C2242 C2241 1.383 . S
C2242 C2243 1.377 . S
C2243 H2227 0.930 . S
C2243 C2242 1.377 . S
C2243 C2244 1.379 . S
C2244 H2228 0.931 . S
C2244 C2238 1.383 . S
C2244 C2243 1.379 . S
H2245 C2239 0.959 . S
H2246 C2239 0.961 . S
H2247 C2239 0.960 . S
H2248 C2240 0.930 . S
H2249 C2241 0.929 . S
H2250 C2258 0.929 . S
H2251 C2260 0.930 . S
H2252 C2262 0.930 . S
H2253 C2265 0.929 . S
H2254 C2268 0.930 . S
H2255 C2270 0.960 . S
H2256 C2270 0.960 . S
H2257 C2270 0.960 . S
C2258 H2250 0.929 . S
C2258 C2259 1.377 . S
C2258 C2260 1.384 . S
C2259 C2258 1.377 . S
C2259 C2265 1.390 . S
C2260 H2251 0.930 . S
C2260 C2258 1.384 . S
C2260 C2261 1.372 . S
C2261 C2260 1.372 . S
C2261 C2262 1.400 . S
C2261 C2266 1.490 . S
C2262 H2252 0.930 . S
C2262 C2261 1.400 . S
C2262 C2265 1.386 . S
H2263 C2279 0.930 . S
H2264 C2280 0.931 . S
C2265 H2253 0.929 . S
C2265 C2259 1.390 . S
C2265 C2262 1.386 . S
C2266 C2261 1.490 . S
C2266 C2268 1.395 . S
C2266 C2269 1.403 . S
H2267 C2273 0.930 . S
C2268 H2254 0.930 . S
C2268 C2266 1.395 . S
C2268 C2271 1.403 . S
C2269 C2266 1.403 . S
C2269 C2270 1.524 . S
C2269 C2273 1.400 . S
C2270 H2255 0.960 . S
C2270 H2256 0.960 . S
C2270 H2257 0.960 . S
C2270 C2269 1.524 . S
C2271 C2268 1.403 . S
C2271 C2272 1.392 . S
C2271 C2275 1.495 . S
C2272 C2271 1.392 . S
C2272 C2273 1.385 . S
C2272 C2274 1.478 . S
C2273 H2267 0.930 . S
C2273 C2269 1.400 . S
C2273 C2272 1.385 . S
C2274 C2272 1.478 . S
C2274 C2276 1.381 . S
C2274 C2280 1.383 . S
C2275 C2271 1.495 . S
C2275 H2281 0.959 . S
C2275 H2282 0.961 . S
C2275 H2283 0.960 . S
C2276 C2274 1.381 . S
C2276 C2277 1.394 . S
C2276 H2284 0.930 . S
C2277 C2276 1.394 . S
C2277 C2278 1.383 . S
C2277 H2285 0.929 . S
C2278 C2277 1.383 . S
C2278 C2279 1.377 . S
C2279 H2263 0.930 . S
C2279 C2278 1.377 . S
C2279 C2280 1.379 . S
C2280 H2264 0.931 . S
C2280 C2274 1.383 . S
C2280 C2279 1.379 . S
H2281 C2275 0.959 . S
H2282 C2275 0.961 . S
H2283 C2275 0.960 . S
H2284 C2276 0.930 . S
H2285 C2277 0.929 . S
H2286 C2294 0.929 . S
H2287 C2296 0.930 . S
H2288 C2298 0.930 . S
H2289 C2301 0.929 . S
H2290 C2304 0.930 . S
H2291 C2306 0.960 . S
H2292 C2306 0.960 . S
H2293 C2306 0.960 . S
C2294 H2286 0.929 . S
C2294 C2295 1.377 . S
C2294 C2296 1.384 . S
C2295 C2294 1.377 . S
C2295 C2301 1.390 . S
C2296 H2287 0.930 . S
C2296 C2294 1.384 . S
C2296 C2297 1.372 . S
C2297 C2296 1.372 . S
C2297 C2298 1.400 . S
C2297 C2302 1.490 . S
C2298 H2288 0.930 . S
C2298 C2297 1.400 . S
C2298 C2301 1.386 . S
H2299 C2315 0.930 . S
H2300 C2316 0.931 . S
C2301 H2289 0.929 . S
C2301 C2295 1.390 . S
C2301 C2298 1.386 . S
C2302 C2297 1.490 . S
C2302 C2304 1.395 . S
C2302 C2305 1.403 . S
H2303 C2309 0.930 . S
C2304 H2290 0.930 . S
C2304 C2302 1.395 . S
C2304 C2307 1.403 . S
C2305 C2302 1.403 . S
C2305 C2306 1.524 . S
C2305 C2309 1.400 . S
C2306 H2291 0.960 . S
C2306 H2292 0.960 . S
C2306 H2293 0.960 . S
C2306 C2305 1.524 . S
C2307 C2304 1.403 . S
C2307 C2308 1.392 . S
C2307 C2311 1.495 . S
C2308 C2307 1.392 . S
C2308 C2309 1.385 . S
C2308 C2310 1.478 . S
C2309 H2303 0.930 . S
C2309 C2305 1.400 . S
C2309 C2308 1.385 . S
C2310 C2308 1.478 . S
C2310 C2312 1.381 . S
C2310 C2316 1.383 . S
C2311 C2307 1.495 . S
C2311 H2317 0.959 . S
C2311 H2318 0.961 . S
C2311 H2319 0.960 . S
C2312 C2310 1.381 . S
C2312 C2313 1.394 . S
C2312 H2320 0.930 . S
C2313 C2312 1.394 . S
C2313 C2314 1.383 . S
C2313 H2321 0.929 . S
C2314 C2313 1.383 . S
C2314 C2315 1.377 . S
C2315 H2299 0.930 . S
C2315 C2314 1.377 . S
C2315 C2316 1.379 . S
C2316 H2300 0.931 . S
C2316 C2310 1.383 . S
C2316 C2315 1.379 . S
H2317 C2311 0.959 . S
H2318 C2311 0.961 . S
H2319 C2311 0.960 . S
H2320 C2312 0.930 . S
H2321 C2313 0.929 . S
H2322 C2330 0.929 . S
H2323 C2332 0.930 . S
H2324 C2334 0.930 . S
H2325 C2337 0.929 . S
H2326 C2340 0.930 . S
H2327 C2342 0.960 . S
H2328 C2342 0.960 . S
H2329 C2342 0.960 . S
C2330 H2322 0.929 . S
C2330 C2331 1.377 . S
C2330 C2332 1.384 . S
C2331 C2330 1.377 . S
C2331 C2337 1.390 . S
C2332 H2323 0.930 . S
C2332 C2330 1.384 . S
C2332 C2333 1.372 . S
C2333 C2332 1.372 . S
C2333 C2334 1.400 . S
C2333 C2338 1.490 . S
C2334 H2324 0.930 . S
C2334 C2333 1.400 . S
C2334 C2337 1.386 . S
H2335 C2351 0.930 . S
H2336 C2352 0.931 . S
C2337 H2325 0.929 . S
C2337 C2331 1.390 . S
C2337 C2334 1.386 . S
C2338 C2333 1.490 . S
C2338 C2340 1.395 . S
C2338 C2341 1.403 . S
H2339 C2345 0.930 . S
C2340 H2326 0.930 . S
C2340 C2338 1.395 . S
C2340 C2343 1.403 . S
C2341 C2338 1.403 . S
C2341 C2342 1.524 . S
C2341 C2345 1.400 . S
C2342 H2327 0.960 . S
C2342 H2328 0.960 . S
C2342 H2329 0.960 . S
C2342 C2341 1.524 . S
C2343 C2340 1.403 . S
C2343 C2344 1.392 . S
C2343 C2347 1.495 . S
C2344 C2343 1.392 . S
C2344 C2345 1.385 . S
C2344 C2346 1.478 . S
C2345 H2339 0.930 . S
C2345 C2341 1.400 . S
C2345 C2344 1.385 . S
C2346 C2344 1.478 . S
C2346 C2348 1.381 . S
C2346 C2352 1.383 . S
C2347 C2343 1.495 . S
C2347 H2353 0.959 . S
C2347 H2354 0.961 . S
C2347 H2355 0.960 . S
C2348 C2346 1.381 . S
C2348 C2349 1.394 . S
C2348 H2356 0.930 . S
C2349 C2348 1.394 . S
C2349 C2350 1.383 . S
C2349 H2357 0.929 . S
C2350 C2349 1.383 . S
C2350 C2351 1.377 . S
C2351 H2335 0.930 . S
C2351 C2350 1.377 . S
C2351 C2352 1.379 . S
C2352 H2336 0.931 . S
C2352 C2346 1.383 . S
C2352 C2351 1.379 . S
H2353 C2347 0.959 . S
H2354 C2347 0.961 . S
H2355 C2347 0.960 . S
H2356 C2348 0.930 . S
H2357 C2349 0.929 . S
H2358 C2366 0.929 . S
H2359 C2368 0.930 . S
H2360 C2370 0.930 . S
H2361 C2373 0.929 . S
H2362 C2376 0.930 . S
H2363 C2378 0.960 . S
H2364 C2378 0.960 . S
H2365 C2378 0.960 . S
C2366 H2358 0.929 . S
C2366 C2367 1.377 . S
C2366 C2368 1.384 . S
C2367 C2366 1.377 . S
C2367 C2373 1.390 . S
C2368 H2359 0.930 . S
C2368 C2366 1.384 . S
C2368 C2369 1.372 . S
C2369 C2368 1.372 . S
C2369 C2370 1.400 . S
C2369 C2374 1.490 . S
C2370 H2360 0.930 . S
C2370 C2369 1.400 . S
C2370 C2373 1.386 . S
H2371 C2387 0.930 . S
H2372 C2388 0.931 . S
C2373 H2361 0.929 . S
C2373 C2367 1.390 . S
C2373 C2370 1.386 . S
C2374 C2369 1.490 . S
C2374 C2376 1.395 . S
C2374 C2377 1.403 . S
H2375 C2381 0.930 . S
C2376 H2362 0.930 . S
C2376 C2374 1.395 . S
C2376 C2379 1.403 . S
C2377 C2374 1.403 . S
C2377 C2378 1.524 . S
C2377 C2381 1.400 . S
C2378 H2363 0.960 . S
C2378 H2364 0.960 . S
C2378 H2365 0.960 . S
C2378 C2377 1.524 . S
C2379 C2376 1.403 . S
C2379 C2380 1.392 . S
C2379 C2383 1.495 . S
C2380 C2379 1.392 . S
C2380 C2381 1.385 . S
C2380 C2382 1.478 . S
C2381 H2375 0.930 . S
C2381 C2377 1.400 . S
C2381 C2380 1.385 . S
C2382 C2380 1.478 . S
C2382 C2384 1.381 . S
C2382 C2388 1.383 . S
C2383 C2379 1.495 . S
C2383 H2389 0.959 . S
C2383 H2390 0.961 . S
C2383 H2391 0.960 . S
C2384 C2382 1.381 . S
C2384 C2385 1.394 . S
C2384 H2392 0.930 . S
C2385 C2384 1.394 . S
C2385 C2386 1.383 . S
C2385 H2393 0.929 . S
C2386 C2385 1.383 . S
C2386 C2387 1.377 . S
C2387 H2371 0.930 . S
C2387 C2386 1.377 . S
C2387 C2388 1.379 . S
C2388 H2372 0.931 . S
C2388 C2382 1.383 . S
C2388 C2387 1.379 . S
H2389 C2383 0.959 . S
H2390 C2383 0.961 . S
H2391 C2383 0.960 . S
H2392 C2384 0.930 . S
H2393 C2385 0.929 . S
H2394 C2402 0.929 . S
H2395 C2404 0.930 . S
H2396 C2406 0.930 . S
H2397 C2409 0.929 . S
H2398 C2412 0.930 . S
H2399 C2414 0.960 . S
H2400 C2414 0.960 . S
H2401 C2414 0.960 . S
C2402 H2394 0.929 . S
C2402 C2403 1.377 . S
C2402 C2404 1.384 . S
C2403 C2402 1.377 . S
C2403 C2409 1.390 . S
C2404 H2395 0.930 . S
C2404 C2402 1.384 . S
C2404 C2405 1.372 . S
C2405 C2404 1.372 . S
C2405 C2406 1.400 . S
C2405 C2410 1.490 . S
C2406 H2396 0.930 . S
C2406 C2405 1.400 . S
C2406 C2409 1.386 . S
H2407 C2423 0.930 . S
H2408 C2424 0.931 . S
C2409 H2397 0.929 . S
C2409 C2403 1.390 . S
C2409 C2406 1.386 . S
C2410 C2405 1.490 . S
C2410 C2412 1.395 . S
C2410 C2413 1.403 . S
H2411 C2417 0.930 . S
C2412 H2398 0.930 . S
C2412 C2410 1.395 . S
C2412 C2415 1.403 . S
C2413 C2410 1.403 . S
C2413 C2414 1.524 . S
C2413 C2417 1.400 . S
C2414 H2399 0.960 . S
C2414 H2400 0.960 . S
C2414 H2401 0.960 . S
C2414 C2413 1.524 . S
C2415 C2412 1.403 . S
C2415 C2416 1.392 . S
C2415 C2419 1.495 . S
C2416 C2415 1.392 . S
C2416 C2417 1.385 . S
C2416 C2418 1.478 . S
C2417 H2411 0.930 . S
C2417 C2413 1.400 . S
C2417 C2416 1.385 . S
C2418 C2416 1.478 . S
C2418 C2420 1.381 . S
C2418 C2424 1.383 . S
C2419 C2415 1.495 . S
C2419 H2425 0.959 . S
C2419 H2426 0.961 . S
C2419 H2427 0.960 . S
C2420 C2418 1.381 . S
C2420 C2421 1.394 . S
C2420 H2428 0.930 . S
C2421 C2420 1.394 . S
C2421 C2422 1.383 . S
C2421 H2429 0.929 . S
C2422 C2421 1.383 . S
C2422 C2423 1.377 . S
C2423 H2407 0.930 . S
C2423 C2422 1.377 . S
C2423 C2424 1.379 . S
C2424 H2408 0.931 . S
C2424 C2418 1.383 . S
C2424 C2423 1.379 . S
H2425 C2419 0.959 . S
H2426 C2419 0.961 . S
H2427 C2419 0.960 . S
H2428 C2420 0.930 . S
H2429 C2421 0.929 . S
H2430 C2438 0.929 . S
H2431 C2440 0.930 . S
H2432 C2442 0.930 . S
H2433 C2445 0.929 . S
H2434 C2448 0.930 . S
H2435 C2450 0.960 . S
H2436 C2450 0.960 . S
H2437 C2450 0.960 . S
C2438 H2430 0.929 . S
C2438 C2439 1.377 . S
C2438 C2440 1.384 . S
C2439 C2438 1.377 . S
C2439 C2445 1.390 . S
C2440 H2431 0.930 . S
C2440 C2438 1.384 . S
C2440 C2441 1.372 . S
C2441 C2440 1.372 . S
C2441 C2442 1.400 . S
C2441 C2446 1.490 . S
C2442 H2432 0.930 . S
C2442 C2441 1.400 . S
C2442 C2445 1.386 . S
H2443 C2459 0.930 . S
H2444 C2460 0.931 . S
C2445 H2433 0.929 . S
C2445 C2439 1.390 . S
C2445 C2442 1.386 . S
C2446 C2441 1.490 . S
C2446 C2448 1.395 . S
C2446 C2449 1.403 . S
H2447 C2453 0.930 . S
C2448 H2434 0.930 . S
C2448 C2446 1.395 . S
C2448 C2451 1.403 . S
C2449 C2446 1.403 . S
C2449 C2450 1.524 . S
C2449 C2453 1.400 . S
C2450 H2435 0.960 . S
C2450 H2436 0.960 . S
C2450 H2437 0.960 . S
C2450 C2449 1.524 . S
C2451 C2448 1.403 . S
C2451 C2452 1.392 . S
C2451 C2455 1.495 . S
C2452 C2451 1.392 . S
C2452 C2453 1.385 . S
C2452 C2454 1.478 . S
C2453 H2447 0.930 . S
C2453 C2449 1.400 . S
C2453 C2452 1.385 . S
C2454 C2452 1.478 . S
C2454 C2456 1.381 . S
C2454 C2460 1.383 . S
C2455 C2451 1.495 . S
C2455 H2461 0.959 . S
C2455 H2462 0.961 . S
C2455 H2463 0.960 . S
C2456 C2454 1.381 . S
C2456 C2457 1.394 . S
C2456 H2464 0.930 . S
C2457 C2456 1.394 . S
C2457 C2458 1.383 . S
C2457 H2465 0.929 . S
C2458 C2457 1.383 . S
C2458 C2459 1.377 . S
C2459 H2443 0.930 . S
C2459 C2458 1.377 . S
C2459 C2460 1.379 . S
C2460 H2444 0.931 . S
C2460 C2454 1.383 . S
C2460 C2459 1.379 . S
H2461 C2455 0.959 . S
H2462 C2455 0.961 . S
H2463 C2455 0.960 . S
H2464 C2456 0.930 . S
H2465 C2457 0.929 . S
H2466 C2474 0.929 . S
H2467 C2476 0.930 . S
H2468 C2478 0.930 . S
H2469 C2481 0.929 . S
H2470 C2484 0.930 . S
H2471 C2486 0.960 . S
H2472 C2486 0.960 . S
H2473 C2486 0.960 . S
C2474 H2466 0.929 . S
C2474 C2475 1.377 . S
C2474 C2476 1.384 . S
C2475 C2474 1.377 . S
C2475 C2481 1.390 . S
C2476 H2467 0.930 . S
C2476 C2474 1.384 . S
C2476 C2477 1.372 . S
C2477 C2476 1.372 . S
C2477 C2478 1.400 . S
C2477 C2482 1.490 . S
C2478 H2468 0.930 . S
C2478 C2477 1.400 . S
C2478 C2481 1.386 . S
H2479 C2495 0.930 . S
H2480 C2496 0.931 . S
C2481 H2469 0.929 . S
C2481 C2475 1.390 . S
C2481 C2478 1.386 . S
C2482 C2477 1.490 . S
C2482 C2484 1.395 . S
C2482 C2485 1.403 . S
H2483 C2489 0.930 . S
C2484 H2470 0.930 . S
C2484 C2482 1.395 . S
C2484 C2487 1.403 . S
C2485 C2482 1.403 . S
C2485 C2486 1.524 . S
C2485 C2489 1.400 . S
C2486 H2471 0.960 . S
C2486 H2472 0.960 . S
C2486 H2473 0.960 . S
C2486 C2485 1.524 . S
C2487 C2484 1.403 . S
C2487 C2488 1.392 . S
C2487 C2491 1.495 . S
C2488 C2487 1.392 . S
C2488 C2489 1.385 . S
C2488 C2490 1.478 . S
C2489 H2483 0.930 . S
C2489 C2485 1.400 . S
C2489 C2488 1.385 . S
C2490 C2488 1.478 . S
C2490 C2492 1.381 . S
C2490 C2496 1.383 . S
C2491 C2487 1.495 . S
C2491 H2497 0.959 . S
C2491 H2498 0.961 . S
C2491 H2499 0.960 . S
C2492 C2490 1.381 . S
C2492 C2493 1.394 . S
C2492 H2500 0.930 . S
C2493 C2492 1.394 . S
C2493 C2494 1.383 . S
C2493 H2501 0.929 . S
C2494 C2493 1.383 . S
C2494 C2495 1.377 . S
C2495 H2479 0.930 . S
C2495 C2494 1.377 . S
C2495 C2496 1.379 . S
C2496 H2480 0.931 . S
C2496 C2490 1.383 . S
C2496 C2495 1.379 . S
H2497 C2491 0.959 . S
H2498 C2491 0.961 . S
H2499 C2491 0.960 . S
H2500 C2492 0.930 . S
H2501 C2493 0.929 . S
C567 C147 1.686 . S
C586 C210 1.689 . S
C603 C158 1.845 . S
C622 C250 1.835 . S
C639 C136 1.607 . S
C658 C280 1.579 . S
C675 C125 1.463 . S
C694 C240 1.450 . S
C730 C290 1.461 1_556 S
C711 C103 1.491 . S
C747 C114 1.310 . S
C766 C200 1.298 . S
C802 C229 1.669 1_556 S
C783 C131 1.661 . S
C838 C269 1.703 . S
C819 C109 1.699 . S
C855 C120 1.676 . S
C874 C295 1.699 . S
C891 C153 1.490 . S
C910 C255 1.510 . S
C927 C164 1.434 . S
C946 C309 1.430 . S
C982 C215 1.409 . S
C963 C142 1.414 . S
C1018 C330 1.691 . S
C999 C15 1.689 . S
C1035 C26 1.847 . S
C1054 C370 1.838 . S
C1071 C4 1.609 . S
C1090 C400 1.588 . S
C1107 C191 1.468 . S
C1126 C360 1.462 . S
C1143 C169 1.491 . S
C1162 C410 1.485 . S
C1179 C180 1.309 . S
C1198 C320 1.283 . S
C1215 C197 1.666 . S
C1234 C349 1.686 . S
C1251 C175 1.700 . S
C1270 C389 1.699 . S
C1306 C415 1.679 . S
C1287 C186 1.676 . S
C1323 C21 1.489 . S
C1342 C375 1.507 . S
C1378 C429 1.442 . S
C1359 C32 1.439 . S
C1395 C10 1.410 . S
C1414 C335 1.437 . S
C1450 C450 1.692 . S
C1431 C81 1.689 . S
C1467 C92 1.846 . S
C1486 C490 1.836 . S
C1522 C520 1.597 . S
C1503 C70 1.610 . S
C1558 C480 1.462 . S
C1539 C59 1.468 . S
C1594 C530 1.485 . S
C1575 C37 1.491 . S
C1611 C48 1.314 . S
C1630 C440 1.312 . S
C1647 C65 1.661 . S
C1666 C469 1.669 . S
C1683 C43 1.704 . S
C1702 C509 1.711 . S
C1738 C535 1.672 . S
C1719 C54 1.675 . S
C1755 C87 1.488 . S
C1774 C495 1.480 . S
C1791 C98 1.435 . S
C1810 C549 1.430 . S
C1827 C76 1.410 . S
C1846 C455 1.438 . S
C1863 C170 1.408 . S
C1882 C227 1.389 . S
C1918 C267 1.951 . S
C1899 C181 1.991 . S
C1935 C192 1.562 . S
C1954 C286 1.568 . S
C1971 C71 1.838 . S
C1990 C246 1.835 . S
C2007 C82 1.691 . S
C2026 C307 1.658 . S
C2062 C206 1.241 . S
C2043 C93 1.238 . S
C2079 C38 1.412 . S
C2098 C347 1.383 . S
C2115 C49 1.992 . S
C2134 C387 1.972 . S
C2151 C60 1.567 . S
C2170 C406 1.582 . S
C2187 C137 1.841 . S
C2206 C366 1.849 . S
C2242 C427 1.663 . S
C2223 C148 1.692 . S
C2259 C159 1.244 . S
C2278 C326 1.252 . S
C2295 C104 1.412 . S
C2314 C467 1.383 . S
C2331 C115 1.991 . S
C2350 C507 1.959 . S
C2386 C526 1.585 . S
C2367 C126 1.568 . S
C2403 C5 1.841 . S
C2422 C486 1.848 . S
C2439 C16 1.693 . S
C2458 C547 1.668 . S
C2475 C27 1.243 . S
C2494 C446 1.244 . S
