# Generated by pormake.
# Topology dag, (6,3)-cn, num edge types: 1
# Building blocks:
#     Node 0, Type 0, BuildingBlock: OJICUG_clean_sbu_0, # of connection points: 6
#     Node 1, Type 0, BuildingBlock: OJICUG_clean_sbu_0, # of connection points: 6
#     Node 2, Type 0, BuildingBlock: OJICUG_clean_sbu_0, # of connection points: 6
#     Node 3, Type 0, BuildingBlock: OJICUG_clean_sbu_0, # of connection points: 6
#     Node 4, Type 1, BuildingBlock: KAKCAD_clean_linker_0, # of connection points: 3
#     Node 5, Type 1, BuildingBlock: KAKCAD_clean_linker_0, # of connection points: 3
#     Node 6, Type 1, BuildingBlock: KAKCAD_clean_linker_0, # of connection points: 3
#     Node 7, Type 1, BuildingBlock: KAKCAD_clean_linker_0, # of connection points: 3
#     Node 8, Type 1, BuildingBlock: KAKCAD_clean_linker_0, # of connection points: 3
#     Node 9, Type 1, BuildingBlock: KAKCAD_clean_linker_0, # of connection points: 3
#     Node 10, Type 1, BuildingBlock: KAKCAD_clean_linker_0, # of connection points: 3
#     Node 11, Type 1, BuildingBlock: KAKCAD_clean_linker_0, # of connection points: 3
#     Edge 12, Type (0, 1), BuildingBlock: OJICUG_clean_linker_0, # of connection points: 2
#     Edge 13, Type (0, 1), BuildingBlock: OJICUG_clean_linker_0, # of connection points: 2
#     Edge 14, Type (0, 1), BuildingBlock: OJICUG_clean_linker_0, # of connection points: 2
#     Edge 15, Type (0, 1), BuildingBlock: OJICUG_clean_linker_0, # of connection points: 2
#     Edge 16, Type (0, 1), BuildingBlock: OJICUG_clean_linker_0, # of connection points: 2
#     Edge 17, Type (0, 1), BuildingBlock: OJICUG_clean_linker_0, # of connection points: 2
#     Edge 18, Type (0, 1), BuildingBlock: OJICUG_clean_linker_0, # of connection points: 2
#     Edge 19, Type (0, 1), BuildingBlock: OJICUG_clean_linker_0, # of connection points: 2
#     Edge 20, Type (0, 1), BuildingBlock: OJICUG_clean_linker_0, # of connection points: 2
#     Edge 21, Type (0, 1), BuildingBlock: OJICUG_clean_linker_0, # of connection points: 2
#     Edge 22, Type (0, 1), BuildingBlock: OJICUG_clean_linker_0, # of connection points: 2
#     Edge 23, Type (0, 1), BuildingBlock: OJICUG_clean_linker_0, # of connection points: 2
#     Edge 24, Type (0, 1), BuildingBlock: OJICUG_clean_linker_0, # of connection points: 2
#     Edge 25, Type (0, 1), BuildingBlock: OJICUG_clean_linker_0, # of connection points: 2
#     Edge 26, Type (0, 1), BuildingBlock: OJICUG_clean_linker_0, # of connection points: 2
#     Edge 27, Type (0, 1), BuildingBlock: OJICUG_clean_linker_0, # of connection points: 2
#     Edge 28, Type (0, 1), BuildingBlock: OJICUG_clean_linker_0, # of connection points: 2
#     Edge 29, Type (0, 1), BuildingBlock: OJICUG_clean_linker_0, # of connection points: 2
#     Edge 30, Type (0, 1), BuildingBlock: OJICUG_clean_linker_0, # of connection points: 2
#     Edge 31, Type (0, 1), BuildingBlock: OJICUG_clean_linker_0, # of connection points: 2
#     Edge 32, Type (0, 1), BuildingBlock: OJICUG_clean_linker_0, # of connection points: 2
#     Edge 33, Type (0, 1), BuildingBlock: OJICUG_clean_linker_0, # of connection points: 2
#     Edge 34, Type (0, 1), BuildingBlock: OJICUG_clean_linker_0, # of connection points: 2
#     Edge 35, Type (0, 1), BuildingBlock: OJICUG_clean_linker_0, # of connection points: 2
# Relax obj value: 0.252
# Max RMSD: 0.199
# Mean RMSD: 0.164
data_MOF--net-dag--node1-OJICUG_clean_sbu_0--node2-KAKCAD_clean_linker_0--edge1-OJICUG_clean_linker_0
_symmetry_space_group_name_H-M    P1
_symmetry_Int_Tables_number       1
_symmetry_cell_setting            triclinic
loop_
_symmetry_equiv_pos_as_xyz
'x, y, z'
_cell_length_a     34.507536
_cell_length_b     36.154779
_cell_length_c     35.427321
_cell_angle_alpha  95.241252
_cell_angle_beta   90.056368
_cell_angle_gamma 90.139599
loop_
_atom_site_label
_atom_site_type_symbol
_atom_site_fract_x
_atom_site_fract_y
_atom_site_fract_z
_atom_type_partial_charge
Sc0 Sc 0.11763 0.8602 0.04072 0.0
Sc1 Sc 0.13312 0.76434 0.04177 0.0
Sc2 Sc 0.19965 0.82946 0.08728 0.0
O3 O 0.15019 0.81793 0.05664 0.0
C4 C 0.20343 0.89055 0.02841 0.0
C5 C 0.11337 0.80316 0.96666 0.0
C6 C 0.22458 0.76106 0.02887 0.0
C7 C 0.05295 0.80311 0.06414 0.0
C8 C 0.14183 0.89103 0.12442 0.0
C9 C 0.16381 0.7613 0.12651 0.0
O10 O 0.16709 0.89001 0.02258 0.0
O11 O 0.11901 0.77439 0.98404 0.0
O12 O 0.23257 0.7883 0.05293 0.0
O13 O 0.06495 0.83509 0.0575 0.0
O14 O 0.17292 0.87235 0.12501 0.0
O15 O 0.14521 0.74751 0.09756 0.0
O16 O 0.11875 0.88901 0.09641 0.0
O17 O 0.07382 0.7741 0.05989 0.0
O18 O 0.18395 0.79079 0.12719 0.0
O19 O 0.11274 0.83573 0.98346 0.0
O20 O 0.22002 0.87016 0.05093 0.0
O21 O 0.19021 0.74973 0.02173 0.0
Sc22 Sc 0.69323 0.66419 0.45846 0.0
Sc23 Sc 0.63423 0.73569 0.50372 0.0
Sc24 Sc 0.61015 0.64146 0.50818 0.0
O25 O 0.64592 0.68054 0.49012 0.0
C26 C 0.62993 0.60572 0.42476 0.0
C27 C 0.66227 0.73358 0.41769 0.0
C28 C 0.55012 0.70268 0.4851 0.0
C29 C 0.72618 0.73251 0.51304 0.0
C30 C 0.69302 0.60493 0.51965 0.0
C31 C 0.61276 0.70093 0.58058 0.0
O32 O 0.66149 0.62347 0.42183 0.0
O33 O 0.6448 0.74934 0.44639 0.0
O34 O 0.55939 0.66958 0.4905 0.0
O35 O 0.73072 0.70266 0.49156 0.0
O36 O 0.65726 0.60917 0.52746 0.0
O37 O 0.62207 0.72867 0.56281 0.0
O38 O 0.71019 0.62257 0.49508 0.0
O39 O 0.69328 0.74744 0.51963 0.0
O40 O 0.60756 0.66859 0.56425 0.0
O41 O 0.68069 0.70326 0.41816 0.0
O42 O 0.60887 0.60962 0.45419 0.0
O43 O 0.57362 0.72985 0.48939 0.0
Sc44 Sc 0.86007 0.23191 0.00024 0.0
Sc45 Sc 0.79717 0.16221 0.95726 0.0
Sc46 Sc 0.87701 0.13716 0.01012 0.0
O47 O 0.84475 0.17722 0.98922 0.0
C48 C 0.94207 0.19314 0.98497 0.0
C49 C 0.8317 0.22895 0.91422 0.0
C50 C 0.85819 0.10108 0.92633 0.0
C51 C 0.76775 0.23287 0.01002 0.0
C52 C 0.87774 0.19983 0.07955 0.0
C53 C 0.79206 0.10473 0.02015 0.0
O54 O 0.9205 0.22174 0.98678 0.0
O55 O 0.81073 0.20041 0.91664 0.0
O56 O 0.87745 0.10369 0.95703 0.0
O57 O 0.80126 0.24732 0.01532 0.0
O58 O 0.8802 0.16645 0.0652 0.0
O59 O 0.77735 0.12157 0.9937 0.0
O60 O 0.87121 0.22692 0.0599 0.0
O61 O 0.76195 0.20232 0.98998 0.0
O62 O 0.8274 0.10836 0.02989 0.0
O63 O 0.85151 0.2438 0.94191 0.0
O64 O 0.93018 0.16134 0.99249 0.0
O65 O 0.82821 0.12054 0.92152 0.0
Sc66 Sc 0.38938 0.35292 0.53686 0.0
Sc67 Sc 0.30515 0.33326 0.58597 0.0
Sc68 Sc 0.36361 0.25954 0.54469 0.0
O69 O 0.3527 0.31511 0.55583 0.0
C70 C 0.38572 0.29098 0.46643 0.0
C71 C 0.30826 0.39096 0.52323 0.0
C72 C 0.27151 0.26483 0.53311 0.0
C73 C 0.36973 0.3897 0.62008 0.0
C74 C 0.44831 0.29233 0.56259 0.0
C75 C 0.33276 0.2641 0.62967 0.0
O76 O 0.39269 0.32338 0.48189 0.0
O77 O 0.2909 0.37608 0.5496 0.0
O78 O 0.30376 0.24776 0.52975 0.0
O79 O 0.38992 0.38673 0.58999 0.0
O80 O 0.42483 0.26509 0.55805 0.0
O81 O 0.31316 0.29326 0.62615 0.0
O82 O 0.43913 0.32535 0.55693 0.0
O83 O 0.33847 0.37158 0.62348 0.0
O84 O 0.35369 0.24876 0.60313 0.0
O85 O 0.34342 0.38437 0.51467 0.0
O86 O 0.37485 0.26426 0.48499 0.0
O87 O 0.26777 0.2965 0.55151 0.0
C88 C 0.9807 0.21881 0.22854 0.0
C89 C 0.94128 0.20872 0.22898 0.0
C90 C 0.00627 0.20694 0.25553 0.0
C91 C 0.99284 0.18493 0.28336 0.0
C92 C 0.95309 0.17771 0.28609 0.0
C93 C 0.92741 0.18987 0.25934 0.0
C94 C 0.02074 0.16312 0.30353 0.0
C95 C 0.03945 0.1781 0.3365 0.0
C96 C 0.06801 0.15747 0.35365 0.0
C97 C 0.07697 0.12141 0.33755 0.0
C98 C 0.05883 0.10634 0.30402 0.0
C99 C 0.03061 0.12763 0.28738 0.0
C100 C 0.07109 0.0698 0.28466 0.0
C101 C 0.11001 0.0583 0.28537 0.0
C102 C 0.04442 0.0472 0.26312 0.0
C103 C 0.05668 0.01548 0.24099 0.0
C104 C 0.09586 0.0046 0.24061 0.0
C105 C 0.0911 0.17445 0.38623 0.0
C106 C 0.10403 0.21141 0.38674 0.0
C107 C 0.10323 0.15305 0.41529 0.0
C108 C 0.12928 0.16764 0.44302 0.0
C109 C 0.14337 0.20406 0.44251 0.0
C110 C 0.12976 0.22608 0.41465 0.0
C111 C 0.12209 0.02591 0.26408 0.0
H112 H 0.99255 0.23293 0.20546 0.0
H113 H 0.037 0.21233 0.25279 0.0
H114 H 0.94233 0.16052 0.3073 0.0
H115 H 0.89713 0.1822 0.26087 0.0
H116 H 0.03211 0.20589 0.34836 0.0
H117 H 0.01719 0.11743 0.26076 0.0
H118 H 0.0991 0.10557 0.35049 0.0
H119 H 0.13168 0.07491 0.30123 0.0
H120 H 0.01402 0.05442 0.26251 0.0
H121 H 0.03539 0.00041 0.22315 0.0
H122 H 0.0958 0.22852 0.36452 0.0
H123 H 0.09325 0.12472 0.41615 0.0
H124 H 0.15228 0.01815 0.26554 0.0
H125 H 0.14048 0.25411 0.41331 0.0
H126 H 0.13892 0.15024 0.4645 0.0
C127 C 0.3927 0.518 0.76127 0.0
C128 C 0.42102 0.49502 0.74299 0.0
C129 C 0.40341 0.54887 0.78554 0.0
C130 C 0.44274 0.55756 0.79221 0.0
C131 C 0.47109 0.53348 0.77554 0.0
C132 C 0.46034 0.5025 0.7512 0.0
C133 C 0.45347 0.59391 0.81259 0.0
C134 C 0.43134 0.60876 0.84343 0.0
C135 C 0.43375 0.64667 0.85647 0.0
C136 C 0.46137 0.66911 0.84004 0.0
C137 C 0.48584 0.65375 0.81113 0.0
C138 C 0.48164 0.61629 0.7975 0.0
C139 C 0.51226 0.67706 0.79068 0.0
C140 C 0.49693 0.70151 0.76602 0.0
C141 C 0.55196 0.669 0.78938 0.0
C142 C 0.57535 0.68245 0.76151 0.0
C143 C 0.55915 0.70336 0.73381 0.0
C144 C 0.40461 0.66305 0.88416 0.0
C145 C 0.36645 0.64917 0.88317 0.0
C146 C 0.41389 0.69294 0.91093 0.0
C147 C 0.38554 0.70876 0.93565 0.0
C148 C 0.3474 0.69473 0.93444 0.0
C149 C 0.33857 0.66429 0.90831 0.0
C150 C 0.52018 0.71452 0.73769 0.0
H151 H 0.36221 0.51341 0.7552 0.0
H152 H 0.38077 0.56714 0.79728 0.0
H153 H 0.5016 0.5392 0.78044 0.0
H154 H 0.48284 0.48493 0.73803 0.0
H155 H 0.41078 0.59087 0.85606 0.0
H156 H 0.4984 0.6055 0.77306 0.0
H157 H 0.46298 0.69863 0.84852 0.0
H158 H 0.46622 0.70772 0.76636 0.0
H159 H 0.56428 0.65013 0.80819 0.0
H160 H 0.60545 0.67406 0.75987 0.0
H161 H 0.35756 0.62691 0.86245 0.0
H162 H 0.443 0.70422 0.91277 0.0
H163 H 0.50662 0.73037 0.71682 0.0
H164 H 0.30989 0.65205 0.90694 0.0
H165 H 0.39339 0.73241 0.95514 0.0
C166 C 0.86599 0.78236 0.10911 0.0
C167 C 0.89173 0.8114 0.10291 0.0
C168 C 0.82656 0.78972 0.11575 0.0
C169 C 0.81226 0.82618 0.11603 0.0
C170 C 0.83809 0.85489 0.10914 0.0
C171 C 0.87709 0.84756 0.10235 0.0
C172 C 0.77122 0.83537 0.12553 0.0
C173 C 0.75295 0.8205 0.15609 0.0
C174 C 0.71685 0.83416 0.16967 0.0
C175 C 0.69944 0.86361 0.15248 0.0
C176 C 0.71735 0.87847 0.12166 0.0
C177 C 0.75232 0.8632 0.10755 0.0
C178 C 0.70489 0.91426 0.10851 0.0
C179 C 0.7042 0.91876 0.06956 0.0
C180 C 0.70373 0.9459 0.13461 0.0
C181 C 0.70699 0.9813 0.12205 0.0
C182 C 0.71118 0.98554 0.08321 0.0
C183 C 0.69969 0.81968 0.20394 0.0
C184 C 0.70341 0.78194 0.20972 0.0
C185 C 0.68209 0.84367 0.23238 0.0
C186 C 0.66995 0.83043 0.26634 0.0
C187 C 0.6756 0.79301 0.2729 0.0
C188 C 0.69198 0.76888 0.24381 0.0
C189 C 0.70722 0.95415 0.05698 0.0
H190 H 0.87645 0.7542 0.10968 0.0
H191 H 0.80734 0.76698 0.12086 0.0
H192 H 0.82847 0.88344 0.10992 0.0
H193 H 0.89591 0.87049 0.09686 0.0
H194 H 0.76818 0.80008 0.17101 0.0
H195 H 0.76652 0.87522 0.08425 0.0
H196 H 0.67252 0.87561 0.16344 0.0
H197 H 0.70505 0.89474 0.04891 0.0
H198 H 0.70446 0.94319 0.16481 0.0
H199 H 0.70938 0.0051 0.14284 0.0
H200 H 0.71618 0.7625 0.18821 0.0
H201 H 0.67899 0.873 0.22913 0.0
H202 H 0.71038 0.95647 0.02687 0.0
H203 H 0.69749 0.74002 0.24771 0.0
H204 H 0.65681 0.84976 0.2877 0.0
C205 C 0.62334 0.28523 0.63882 0.0
C206 C 0.60932 0.28131 0.60147 0.0
C207 C 0.6622 0.29403 0.6461 0.0
C208 C 0.68764 0.29958 0.61616 0.0
C209 C 0.67418 0.29323 0.57866 0.0
C210 C 0.63534 0.28388 0.57136 0.0
C211 C 0.72586 0.31732 0.62457 0.0
C212 C 0.7495 0.30566 0.65339 0.0
C213 C 0.78143 0.32716 0.66695 0.0
C214 C 0.78986 0.36054 0.65125 0.0
C215 C 0.76709 0.37195 0.62156 0.0
C216 C 0.73554 0.34991 0.60807 0.0
C217 C 0.77212 0.40915 0.60794 0.0
C218 C 0.77249 0.44089 0.63394 0.0
C219 C 0.77047 0.41346 0.56898 0.0
C220 C 0.76629 0.4487 0.55635 0.0
C221 C 0.76331 0.4802 0.58251 0.0
C222 C 0.80263 0.31639 0.70046 0.0
C223 C 0.80424 0.34064 0.73374 0.0
C224 C 0.81654 0.28005 0.70102 0.0
C225 C 0.82917 0.26728 0.73489 0.0
C226 C 0.82744 0.29042 0.76901 0.0
C227 C 0.81645 0.32772 0.76783 0.0
C228 C 0.76792 0.47613 0.62134 0.0
H229 H 0.60375 0.28341 0.66246 0.0
H230 H 0.6716 0.29914 0.6753 0.0
H231 H 0.69323 0.29727 0.55509 0.0
H232 H 0.62508 0.28128 0.54232 0.0
H233 H 0.74173 0.28089 0.66679 0.0
H234 H 0.71643 0.3599 0.58692 0.0
H235 H 0.8136 0.37788 0.66256 0.0
H236 H 0.77345 0.4383 0.66416 0.0
H237 H 0.77025 0.38937 0.5484 0.0
H238 H 0.76257 0.45095 0.52628 0.0
H239 H 0.79342 0.36877 0.73397 0.0
H240 H 0.8159 0.26101 0.67556 0.0
H241 H 0.76602 0.50002 0.64206 0.0
H242 H 0.81459 0.3462 0.7936 0.0
H243 H 0.83839 0.23865 0.7347 0.0
C244 C 0.58989 0.48392 0.27518 0.0
C245 C 0.58736 0.4848 0.31484 0.0
C246 C 0.57929 0.45178 0.25228 0.0
C247 C 0.56628 0.42001 0.26875 0.0
C248 C 0.56507 0.4208 0.30848 0.0
C249 C 0.57528 0.45279 0.33118 0.0
C250 C 0.55415 0.38578 0.24518 0.0
C251 C 0.57571 0.37209 0.21337 0.0
C252 C 0.56681 0.33735 0.19385 0.0
C253 C 0.53603 0.31617 0.20686 0.0
C254 C 0.51404 0.32995 0.2382 0.0
C255 C 0.52264 0.36491 0.25657 0.0
C256 C 0.48533 0.30678 0.2559 0.0
C257 C 0.44628 0.31731 0.25702 0.0
C258 C 0.49841 0.28062 0.27984 0.0
C259 C 0.47395 0.26859 0.30771 0.0
C260 C 0.43597 0.28249 0.31185 0.0
C261 C 0.59163 0.32229 0.1618 0.0
C262 C 0.60649 0.34585 0.13578 0.0
C263 C 0.60232 0.28463 0.15814 0.0
C264 C 0.62799 0.27109 0.12977 0.0
C265 C 0.64379 0.29494 0.10462 0.0
C266 C 0.63247 0.33236 0.10762 0.0
C267 C 0.42159 0.30478 0.2844 0.0
H268 H 0.59916 0.50828 0.26193 0.0
H269 H 0.58055 0.45204 0.22176 0.0
H270 H 0.55646 0.39651 0.32221 0.0
H271 H 0.57393 0.45241 0.3617 0.0
H272 H 0.60081 0.38751 0.20513 0.0
H273 H 0.50564 0.37509 0.28107 0.0
H274 H 0.52928 0.28896 0.19298 0.0
H275 H 0.43574 0.33763 0.23884 0.0
H276 H 0.52864 0.27254 0.27966 0.0
H277 H 0.48616 0.25155 0.3283 0.0
H278 H 0.59834 0.37487 0.1374 0.0
H279 H 0.59204 0.26582 0.17804 0.0
H280 H 0.39221 0.31525 0.28617 0.0
H281 H 0.64392 0.35123 0.08832 0.0
H282 H 0.63665 0.24222 0.12847 0.0
C283 C 0.1163 0.19262 0.90737 0.0
C284 C 0.10368 0.1991 0.94502 0.0
C285 C 0.15541 0.18609 0.89935 0.0
C286 C 0.1825 0.18525 0.9289 0.0
C287 C 0.17013 0.19342 0.96652 0.0
C288 C 0.13102 0.20066 0.9745 0.0
C289 C 0.22207 0.17105 0.92041 0.0
C290 C 0.24375 0.18415 0.89096 0.0
C291 C 0.27781 0.16594 0.878 0.0
C292 C 0.29018 0.13429 0.89478 0.0
C293 C 0.26916 0.12136 0.9249 0.0
C294 C 0.23553 0.1403 0.93791 0.0
C295 C 0.27826 0.08521 0.93931 0.0
C296 C 0.28221 0.05335 0.9138 0.0
C297 C 0.2765 0.08125 0.97835 0.0
C298 C 0.2751 0.04598 0.99139 0.0
C299 C 0.2751 0.01409 0.96555 0.0
C300 C 0.2977 0.17819 0.84437 0.0
C301 C 0.30321 0.15332 0.81198 0.0
C302 C 0.30697 0.2158 0.84291 0.0
C303 C 0.31913 0.22881 0.809 0.0
C304 C 0.3216 0.20457 0.77568 0.0
C305 C 0.31497 0.16643 0.77783 0.0
C306 C 0.2805 0.01805 0.92681 0.0
H307 H 0.09562 0.19117 0.88424 0.0
H308 H 0.16407 0.17941 0.87014 0.0
H309 H 0.19049 0.19284 0.98976 0.0
H310 H 0.12179 0.2053 0.00377 0.0
H311 H 0.23301 0.20745 0.8768 0.0
H312 H 0.2179 0.12912 0.95953 0.0
H313 H 0.31567 0.11938 0.88399 0.0
H314 H 0.28342 0.05558 0.88354 0.0
H315 H 0.27368 0.10544 0.99858 0.0
H316 H 0.27073 0.0438 0.02138 0.0
H317 H 0.296 0.12418 0.81243 0.0
H318 H 0.30335 0.23538 0.86768 0.0
H319 H 0.28088 0.99388 0.90635 0.0
H320 H 0.31643 0.14708 0.75267 0.0
H321 H 0.32496 0.25821 0.80849 0.0
C322 C 0.36382 0.7204 0.47321 0.0
C323 C 0.39074 0.72127 0.44364 0.0
C324 C 0.32499 0.71183 0.46512 0.0
C325 C 0.3126 0.70462 0.42737 0.0
C326 C 0.33885 0.70927 0.39787 0.0
C327 C 0.37772 0.71722 0.40597 0.0
C328 C 0.27572 0.68478 0.41855 0.0
C329 C 0.25116 0.69526 0.38993 0.0
C330 C 0.22082 0.67174 0.37571 0.0
C331 C 0.21554 0.63722 0.39064 0.0
C332 C 0.24068 0.62627 0.41867 0.0
C333 C 0.2696 0.65074 0.43342 0.0
C334 C 0.2425 0.5872 0.42756 0.0
C335 C 0.21125 0.56961 0.44393 0.0
C336 C 0.27746 0.56796 0.42126 0.0
C337 C 0.28194 0.53248 0.43265 0.0
C338 C 0.25144 0.51508 0.45051 0.0
C339 C 0.19905 0.6813 0.34169 0.0
C340 C 0.18978 0.71847 0.33724 0.0
C341 C 0.19177 0.65422 0.31141 0.0
C342 C 0.17817 0.66448 0.27669 0.0
C343 C 0.1721 0.7021 0.27125 0.0
C344 C 0.17686 0.7288 0.30241 0.0
C345 C 0.21577 0.53378 0.45559 0.0
H346 H 0.37338 0.72315 0.50248 0.0
H347 H 0.30526 0.70826 0.48828 0.0
H348 H 0.33015 0.70341 0.36854 0.0
H349 H 0.39812 0.7177 0.38278 0.0
H350 H 0.25745 0.72068 0.37709 0.0
H351 H 0.28985 0.64159 0.45408 0.0
H352 H 0.19362 0.61796 0.3789 0.0
H353 H 0.18399 0.58402 0.4489 0.0
H354 H 0.30187 0.5809 0.40834 0.0
H355 H 0.31003 0.51939 0.42887 0.0
H356 H 0.19434 0.73995 0.36021 0.0
H357 H 0.19871 0.62532 0.31365 0.0
H358 H 0.19168 0.52099 0.46909 0.0
H359 H 0.17283 0.75809 0.29954 0.0
H360 H 0.17391 0.64301 0.25369 0.0
C361 C 0.07947 0.81797 0.78373 0.0
C362 C 0.06546 0.79435 0.81011 0.0
C363 C 0.05557 0.82815 0.75459 0.0
C364 C 0.01765 0.81424 0.75092 0.0
C365 C 0.0057 0.78658 0.7737 0.0
C366 C 0.02939 0.77676 0.80321 0.0
C367 C 0.9878 0.83608 0.73311 0.0
C368 C 0.96336 0.82025 0.70433 0.0
C369 C 0.93082 0.84 0.6931 0.0
C370 C 0.9227 0.87533 0.71148 0.0
C371 C 0.9463 0.89074 0.74107 0.0
C372 C 0.97961 0.87154 0.75055 0.0
C373 C 0.93369 0.92405 0.76556 0.0
C374 C 0.91746 0.95511 0.7503 0.0
C375 C 0.93659 0.92407 0.80513 0.0
C376 C 0.92445 0.95457 0.82888 0.0
C377 C 0.90887 0.98589 0.8138 0.0
C378 C 0.90313 0.82274 0.6647 0.0
C379 C 0.91603 0.80463 0.63021 0.0
C380 C 0.86317 0.825 0.67192 0.0
C381 C 0.83659 0.81057 0.64487 0.0
C382 C 0.84925 0.79347 0.60987 0.0
C383 C 0.88927 0.79011 0.60296 0.0
C384 C 0.90508 0.98581 0.77428 0.0
H385 H 0.10754 0.83125 0.78767 0.0
H386 H 0.06529 0.84961 0.73734 0.0
H387 H 0.97636 0.77581 0.77161 0.0
H388 H 0.01762 0.75847 0.82291 0.0
H389 H 0.96872 0.79219 0.69197 0.0
H390 H 0.99792 0.88311 0.77361 0.0
H391 H 0.89687 0.89002 0.70401 0.0
H392 H 0.91476 0.95582 0.71992 0.0
H393 H 0.94769 0.90015 0.81793 0.0
H394 H 0.92683 0.95342 0.85925 0.0
H395 H 0.94671 0.80253 0.62396 0.0
H396 H 0.85236 0.83789 0.69865 0.0
H397 H 0.89317 0.00965 0.76195 0.0
H398 H 0.89984 0.77704 0.57623 0.0
H399 H 0.80599 0.81265 0.65151 0.0
C400 C 0.15824 0.94509 0.17027 0.0
C401 C 0.1321 0.91712 0.15723 0.0
H402 H 0.16704 0.99541 0.20547 0.0
C403 C 0.09528 0.91603 0.1737 0.0
H404 H 0.18671 0.94653 0.15758 0.0
C405 C 0.08433 0.94312 0.20231 0.0
C406 C 0.10948 0.97277 0.21403 0.0
H407 H 0.07481 0.89438 0.16415 0.0
H408 H 0.05582 0.94105 0.21461 0.0
C409 C 0.1469 0.97295 0.198 0.0
C410 C 0.61295 0.67538 0.64319 0.0
C411 C 0.60613 0.70561 0.62192 0.0
H412 H 0.60372 0.65109 0.69487 0.0
C413 C 0.58878 0.73776 0.63962 0.0
H414 H 0.62659 0.65034 0.63037 0.0
C415 C 0.57556 0.73831 0.67714 0.0
C416 C 0.58 0.7069 0.69754 0.0
H417 H 0.58321 0.76146 0.62381 0.0
H418 H 0.56044 0.76264 0.68958 0.0
C419 C 0.60016 0.67602 0.68047 0.0
C420 C 0.77971 0.06552 0.07351 0.0
C421 C 0.76773 0.07813 0.03903 0.0
H422 H 0.77078 0.02676 0.11468 0.0
C423 C 0.73378 0.06315 0.02161 0.0
H424 H 0.80551 0.0767 0.08784 0.0
C425 C 0.71378 0.03439 0.03706 0.0
C426 C 0.727 0.02051 0.07052 0.0
H427 H 0.7237 0.07236 0.99506 0.0
H428 H 0.68879 0.02212 0.02217 0.0
C429 C 0.75949 0.03716 0.08914 0.0
C430 C 0.51047 0.25635 0.55923 0.0
C431 C 0.48819 0.28618 0.57538 0.0
H432 H 0.56714 0.23165 0.55442 0.0
C433 C 0.50529 0.31239 0.60199 0.0
H434 H 0.49788 0.23598 0.53841 0.0
C435 C 0.54421 0.30947 0.61167 0.0
C436 C 0.5671 0.28073 0.59432 0.0
H437 H 0.48865 0.33562 0.61484 0.0
H438 H 0.55689 0.3307 0.63153 0.0
C439 C 0.54992 0.25395 0.56823 0.0
C440 C 0.64202 0.56749 0.36269 0.0
C441 C 0.61766 0.57781 0.39372 0.0
H442 H 0.65143 0.52979 0.31307 0.0
C443 C 0.58185 0.55952 0.3962 0.0
H444 H 0.66971 0.58111 0.3598 0.0
C445 C 0.57156 0.53039 0.36963 0.0
C446 C 0.59668 0.5188 0.33978 0.0
H447 H 0.56201 0.56699 0.41931 0.0
H448 H 0.54418 0.51631 0.37291 0.0
C449 C 0.63155 0.53824 0.33586 0.0
C450 C 0.00037 0.16639 0.95158 0.0
C451 C 0.98283 0.19631 0.97312 0.0
H452 H 0.05227 0.14442 0.9253 0.0
C453 C 0.00498 0.22816 0.98424 0.0
H454 H 0.98391 0.14159 0.9425 0.0
C455 C 0.04443 0.22942 0.97501 0.0
C456 C 0.06181 0.19932 0.95361 0.0
H457 H 0.99212 0.25149 0.00103 0.0
H458 H 0.06137 0.25375 0.98462 0.0
C459 C 0.03935 0.16806 0.94158 0.0
C460 C 0.2977 0.42294 0.46483 0.0
C461 C 0.28767 0.41855 0.50253 0.0
H462 H 0.29231 0.45582 0.41803 0.0
C463 C 0.26057 0.44285 0.52098 0.0
H464 H 0.31792 0.40411 0.44969 0.0
C465 C 0.24645 0.47307 0.50309 0.0
C466 C 0.25884 0.47906 0.46631 0.0
H467 H 0.25231 0.43997 0.55006 0.0
H468 H 0.22795 0.49299 0.51901 0.0
C469 C 0.28306 0.45259 0.44676 0.0
C470 C 0.0952 0.7647 0.90624 0.0
C471 C 0.10605 0.79905 0.92525 0.0
H472 H 0.07442 0.73591 0.85444 0.0
C473 C 0.10789 0.83041 0.90466 0.0
H474 H 0.09374 0.73995 0.92125 0.0
C475 C 0.09705 0.82808 0.86664 0.0
C476 C 0.08403 0.79429 0.84803 0.0
H477 H 0.11655 0.85724 0.91822 0.0
H478 H 0.09679 0.85342 0.85255 0.0
C479 C 0.0841 0.76239 0.86801 0.0
C480 C 0.90857 0.05775 0.89794 0.0
C481 C 0.87177 0.07396 0.89534 0.0
H482 H 0.94929 0.01806 0.87378 0.0
C483 C 0.84837 0.06319 0.86366 0.0
H484 H 0.92776 0.06584 0.92149 0.0
C485 C 0.86088 0.03548 0.83614 0.0
C486 C 0.89696 0.01821 0.83991 0.0
H487 H 0.81998 0.07531 0.86072 0.0
H488 H 0.84177 0.02658 0.81277 0.0
C489 C 0.92099 0.03032 0.87057 0.0
C490 C 0.38593 0.31525 0.40322 0.0
C491 C 0.3913 0.28512 0.42498 0.0
H492 H 0.39547 0.33795 0.35078 0.0
C493 C 0.40581 0.2516 0.40739 0.0
H494 H 0.37432 0.34132 0.41589 0.0
C495 C 0.41789 0.24948 0.36942 0.0
C496 C 0.41521 0.28072 0.34849 0.0
H497 H 0.41008 0.22791 0.42354 0.0
H498 H 0.43096 0.22401 0.35703 0.0
C499 C 0.39764 0.31309 0.36553 0.0
C500 C 0.214 0.929 0.97457 0.0
C501 C 0.2266 0.91772 0.0094 0.0
H502 H 0.22008 0.96794 0.93316 0.0
C503 C 0.25896 0.93527 0.02735 0.0
H504 H 0.18931 0.91575 0.95998 0.0
C505 C 0.27651 0.96551 0.01206 0.0
C506 C 0.26244 0.97806 0.97824 0.0
H507 H 0.2692 0.92712 0.05428 0.0
H508 H 0.30005 0.97998 0.02738 0.0
C509 C 0.23189 0.95868 0.95902 0.0
C510 C 0.49022 0.74185 0.48589 0.0
C511 C 0.51022 0.70939 0.47269 0.0
H512 H 0.43583 0.77093 0.48744 0.0
C513 C 0.49135 0.68236 0.44829 0.0
H514 H 0.50421 0.76299 0.50489 0.0
C515 C 0.453 0.68736 0.43765 0.0
C516 C 0.43251 0.7191 0.45184 0.0
H517 H 0.50623 0.6572 0.43757 0.0
H518 H 0.43886 0.66572 0.41937 0.0
C519 C 0.45132 0.7464 0.476 0.0
C520 C 0.41756 0.4363 0.64893 0.0
C521 C 0.38359 0.41528 0.6524 0.0
H522 H 0.45578 0.47787 0.67455 0.0
C523 C 0.36325 0.41908 0.68691 0.0
H524 H 0.43411 0.43406 0.62286 0.0
C525 C 0.37608 0.44401 0.71685 0.0
C526 C 0.40949 0.46569 0.71295 0.0
H527 H 0.33721 0.40307 0.69074 0.0
H528 H 0.35962 0.44655 0.74297 0.0
C529 C 0.4303 0.4612 0.67879 0.0
C530 C -0.00062 0.82943 0.10419 0.0
C531 C 0.01307 0.80077 0.07835 0.0
H532 H 0.95069 0.85421 0.13344 0.0
C533 C 0.98747 0.77263 0.06405 0.0
H534 H 0.01876 0.85108 0.11613 0.0
C535 C 0.94797 0.77485 0.07335 0.0
C536 C 0.9339 0.80502 0.09735 0.0
H537 H 0.99752 0.75027 0.04405 0.0
H538 H 0.92826 0.75415 0.06022 0.0
C539 C 0.96037 0.8313 0.11391 0.0
C540 C 0.70069 0.56408 0.57234 0.0
C541 C 0.71472 0.57657 0.53851 0.0
H542 H 0.7055 0.52412 0.61295 0.0
C543 C 0.74784 0.55969 0.52152 0.0
H544 H 0.67543 0.57672 0.58629 0.0
C545 C 0.76502 0.52936 0.53678 0.0
C546 C 0.74979 0.51583 0.56963 0.0
H547 H 0.75935 0.56872 0.49544 0.0
H548 H 0.78948 0.51578 0.52229 0.0
C549 C 0.71816 0.53417 0.58783 0.0
C550 C 0.87949 0.17814 0.14408 0.0
C551 C 0.88594 0.20673 0.12053 0.0
H552 H 0.89163 0.15647 0.19666 0.0
C553 C 0.90511 0.23917 0.13544 0.0
H554 H 0.86444 0.15295 0.13349 0.0
C555 C 0.92076 0.24134 0.17211 0.0
C556 C 0.91713 0.21125 0.19449 0.0
H557 H 0.91041 0.26168 0.11791 0.0
H558 H 0.9374 0.26571 0.18219 0.0
C559 C 0.89481 0.18038 0.18059 0.0
C560 C 0.18082 0.70985 0.16537 0.0
C561 C 0.16117 0.74313 0.16167 0.0
H562 H 0.20047 0.67111 0.20308 0.0
C563 C 0.14174 0.76088 0.19292 0.0
H564 H 0.19621 0.696 0.14147 0.0
C565 C 0.14304 0.74619 0.22799 0.0
C566 C 0.16481 0.71403 0.2327 0.0
H567 H 0.12625 0.78658 0.19036 0.0
H568 H 0.12792 0.76072 0.25164 0.0
C569 C 0.18291 0.69555 0.20066 0.0
C570 C 0.79441 0.72941 0.53751 0.0
C571 C 0.76009 0.74964 0.5335 0.0
H572 H 0.84957 0.72731 0.56519 0.0
C573 C 0.7572 0.78566 0.55185 0.0
H574 H 0.79755 0.70158 0.52374 0.0
C575 C 0.78696 0.80036 0.57525 0.0
C576 C 0.82027 0.77936 0.58111 0.0
H577 H 0.73146 0.80225 0.54894 0.0
H578 H 0.78348 0.82795 0.58951 0.0
C579 C 0.82424 0.74414 0.56117 0.0
C580 C 0.73837 0.28607 0.0506 0.0
C581 C 0.73438 0.25087 0.03054 0.0
H582 H 0.71271 0.32763 0.08966 0.0
C583 C 0.699 0.23172 0.03265 0.0
H584 H 0.76514 0.30165 0.04953 0.0
C585 C 0.66908 0.24659 0.05575 0.0
C586 C 0.6737 0.28107 0.07693 0.0
H587 H 0.69483 0.20457 0.01756 0.0
H588 H 0.64254 0.23079 0.05761 0.0
C589 C 0.70827 0.30108 0.07344 0.0
C590 C 0.30843 0.2661 0.69609 0.0
C591 C 0.331 0.24829 0.66683 0.0
H592 H 0.28755 0.26612 0.75261 0.0
C593 C 0.35145 0.21598 0.67384 0.0
H594 H 0.29213 0.29097 0.69193 0.0
C595 C 0.34905 0.20179 0.70933 0.0
C596 C 0.32635 0.2198 0.73842 0.0
H597 H 0.36918 0.20163 0.65197 0.0
H598 H 0.36501 0.17688 0.71405 0.0
C599 C 0.30609 0.25204 0.73125 0.0
C600 C 0.66934 0.78807 0.37961 0.0
C601 C 0.66075 0.75039 0.3815 0.0
H602 H 0.68202 0.83098 0.3438 0.0
C603 C 0.65323 0.7278 0.348 0.0
H604 H 0.67536 0.80591 0.40521 0.0
C605 C 0.65563 0.74227 0.31294 0.0
C606 C 0.66694 0.7794 0.31048 0.0
H607 H 0.64595 0.69872 0.34893 0.0
H608 H 0.64952 0.72396 0.28772 0.0
C609 C 0.67287 0.80239 0.34437 0.0
C610 C 0.81505 0.22523 0.8455 0.0
C611 C 0.83284 0.24474 0.87705 0.0
H612 H 0.79921 0.22438 0.78736 0.0
C613 C 0.85083 0.27901 0.87244 0.0
H614 H 0.80101 0.19869 0.84775 0.0
C615 C 0.8501 0.29373 0.83715 0.0
C616 C 0.83168 0.27427 0.80586 0.0
H617 H 0.8649 0.29468 0.89614 0.0
H618 H 0.86371 0.32037 0.83439 0.0
C619 C 0.81443 0.23978 0.81052 0.0
C620 C 0.23834 0.21127 0.49617 0.0
C621 C 0.2372 0.24801 0.513 0.0
H622 H 0.2094 0.16857 0.46087 0.0
C623 C 0.2036 0.26923 0.50872 0.0
H624 H 0.26366 0.19409 0.49901 0.0
C625 C 0.17257 0.25458 0.4868 0.0
C626 C 0.17429 0.21829 0.46903 0.0
H627 H 0.20165 0.29761 0.52132 0.0
H628 H 0.14745 0.27184 0.48325 0.0
C629 C 0.20714 0.19653 0.47454 0.0
C630 C 0.29445 0.74317 0.01942 0.0
C631 C 0.25624 0.74354 0.00573 0.0
H632 H 0.35314 0.72646 0.00818 0.0
C633 C 0.24842 0.72842 0.96863 0.0
H634 H 0.30125 0.75476 0.04794 0.0
C635 C 0.2781 0.71338 0.94554 0.0
C636 C 0.31633 0.7121 0.95922 0.0
H637 H 0.21941 0.72907 0.95698 0.0
H638 H 0.27095 0.70319 0.91669 0.0
C639 C 0.32419 0.72726 0.9965 0.0
loop_
_geom_bond_atom_site_label_1
_geom_bond_atom_site_label_2
_geom_bond_distance
_geom_bond_site_symmetry_2
_ccdc_geom_bond_type
Sc0 O3 2.025 . S
Sc0 O10 2.105 . S
Sc0 O13 2.105 . S
Sc0 O16 2.105 . S
Sc0 O19 2.105 1_554 S
Sc1 O3 2.025 . S
Sc1 O11 2.105 1_554 S
Sc1 O15 2.105 . S
Sc1 O17 2.105 . S
Sc1 O21 2.105 . S
Sc2 O3 2.025 . S
Sc2 O12 2.105 . S
Sc2 O14 2.105 . S
Sc2 O18 2.105 . S
Sc2 O20 2.105 . S
O3 Sc0 2.025 . S
O3 Sc1 2.025 . S
O3 Sc2 2.025 . S
C4 O10 1.268 . S
C4 O20 1.268 . S
C5 O11 1.268 . S
C5 O19 1.268 . S
C6 O12 1.268 . S
C6 O21 1.268 . S
C7 O13 1.268 . S
C7 O17 1.268 . S
C8 O14 1.268 . S
C8 O16 1.268 . S
C9 O15 1.268 . S
C9 O18 1.268 . S
O10 Sc0 2.105 . S
O10 C4 1.268 . S
O11 Sc1 2.105 1_556 S
O11 C5 1.268 . S
O12 Sc2 2.105 . S
O12 C6 1.268 . S
O13 Sc0 2.105 . S
O13 C7 1.268 . S
O14 Sc2 2.105 . S
O14 C8 1.268 . S
O15 Sc1 2.105 . S
O15 C9 1.268 . S
O16 Sc0 2.105 . S
O16 C8 1.268 . S
O17 Sc1 2.105 . S
O17 C7 1.268 . S
O18 Sc2 2.105 . S
O18 C9 1.268 . S
O19 Sc0 2.105 1_556 S
O19 C5 1.268 . S
O20 Sc2 2.105 . S
O20 C4 1.268 . S
O21 Sc1 2.105 . S
O21 C6 1.268 . S
Sc22 O25 2.025 . S
Sc22 O32 2.105 . S
Sc22 O35 2.105 . S
Sc22 O38 2.105 . S
Sc22 O41 2.105 . S
Sc23 O25 2.025 . S
Sc23 O33 2.105 . S
Sc23 O37 2.105 . S
Sc23 O39 2.105 . S
Sc23 O43 2.105 . S
Sc24 O25 2.025 . S
Sc24 O34 2.105 . S
Sc24 O36 2.105 . S
Sc24 O40 2.105 . S
Sc24 O42 2.105 . S
O25 Sc22 2.025 . S
O25 Sc23 2.025 . S
O25 Sc24 2.025 . S
C26 O32 1.268 . S
C26 O42 1.268 . S
C27 O33 1.268 . S
C27 O41 1.268 . S
C28 O34 1.268 . S
C28 O43 1.268 . S
C29 O35 1.268 . S
C29 O39 1.268 . S
C30 O36 1.268 . S
C30 O38 1.268 . S
C31 O37 1.268 . S
C31 O40 1.268 . S
O32 Sc22 2.105 . S
O32 C26 1.268 . S
O33 Sc23 2.105 . S
O33 C27 1.268 . S
O34 Sc24 2.105 . S
O34 C28 1.268 . S
O35 Sc22 2.105 . S
O35 C29 1.268 . S
O36 Sc24 2.105 . S
O36 C30 1.268 . S
O37 Sc23 2.105 . S
O37 C31 1.268 . S
O38 Sc22 2.105 . S
O38 C30 1.268 . S
O39 Sc23 2.105 . S
O39 C29 1.268 . S
O40 Sc24 2.105 . S
O40 C31 1.268 . S
O41 Sc22 2.105 . S
O41 C27 1.268 . S
O42 Sc24 2.105 . S
O42 C26 1.268 . S
O43 Sc23 2.105 . S
O43 C28 1.268 . S
Sc44 O47 2.028 . S
Sc44 O54 2.105 1_554 S
Sc44 O57 2.105 . S
Sc44 O60 2.105 . S
Sc44 O63 2.105 1_554 S
Sc45 O47 2.018 1_556 S
Sc45 O55 2.105 . S
Sc45 O59 2.105 1_556 S
Sc45 O61 2.105 1_556 S
Sc45 O65 2.105 . S
Sc46 O47 2.030 . S
Sc46 O56 2.105 1_554 S
Sc46 O58 2.105 . S
Sc46 O62 2.105 . S
Sc46 O64 2.105 1_554 S
O47 Sc44 2.028 . S
O47 Sc45 2.018 1_554 S
O47 Sc46 2.030 . S
C48 O54 1.268 . S
C48 O64 1.268 . S
C49 O55 1.268 . S
C49 O63 1.268 . S
C50 O56 1.268 . S
C50 O65 1.268 . S
C51 O57 1.268 . S
C51 O61 1.268 . S
C52 O58 1.268 . S
C52 O60 1.268 . S
C53 O59 1.268 . S
C53 O62 1.268 . S
O54 Sc44 2.105 1_556 S
O54 C48 1.268 . S
O55 Sc45 2.105 . S
O55 C49 1.268 . S
O56 Sc46 2.105 1_556 S
O56 C50 1.268 . S
O57 Sc44 2.105 . S
O57 C51 1.268 . S
O58 Sc46 2.105 . S
O58 C52 1.268 . S
O59 Sc45 2.105 1_554 S
O59 C53 1.268 . S
O60 Sc44 2.105 . S
O60 C52 1.268 . S
O61 Sc45 2.105 1_554 S
O61 C51 1.268 . S
O62 Sc46 2.105 . S
O62 C53 1.268 . S
O63 Sc44 2.105 1_556 S
O63 C49 1.268 . S
O64 Sc46 2.105 1_556 S
O64 C48 1.268 . S
O65 Sc45 2.105 . S
O65 C50 1.268 . S
Sc66 O69 2.025 . S
Sc66 O76 2.105 . S
Sc66 O79 2.105 . S
Sc66 O82 2.105 . S
Sc66 O85 2.105 . S
Sc67 O69 2.025 . S
Sc67 O77 2.105 . S
Sc67 O81 2.105 . S
Sc67 O83 2.105 . S
Sc67 O87 2.105 . S
Sc68 O69 2.025 . S
Sc68 O78 2.105 . S
Sc68 O80 2.105 . S
Sc68 O84 2.105 . S
Sc68 O86 2.105 . S
O69 Sc66 2.025 . S
O69 Sc67 2.025 . S
O69 Sc68 2.025 . S
C70 O76 1.268 . S
C70 O86 1.268 . S
C71 O77 1.268 . S
C71 O85 1.268 . S
C72 O78 1.268 . S
C72 O87 1.268 . S
C73 O79 1.268 . S
C73 O83 1.268 . S
C74 O80 1.268 . S
C74 O82 1.268 . S
C75 O81 1.268 . S
C75 O84 1.268 . S
O76 Sc66 2.105 . S
O76 C70 1.268 . S
O77 Sc67 2.105 . S
O77 C71 1.268 . S
O78 Sc68 2.105 . S
O78 C72 1.268 . S
O79 Sc66 2.105 . S
O79 C73 1.268 . S
O80 Sc68 2.105 . S
O80 C74 1.268 . S
O81 Sc67 2.105 . S
O81 C75 1.268 . S
O82 Sc66 2.105 . S
O82 C74 1.268 . S
O83 Sc67 2.105 . S
O83 C73 1.268 . S
O84 Sc68 2.105 . S
O84 C75 1.268 . S
O85 Sc66 2.105 . S
O85 C71 1.268 . S
O86 Sc68 2.105 . S
O86 C70 1.268 . S
O87 Sc67 2.105 . S
O87 C72 1.268 . S
C88 C89 1.386 . S
C88 C90 1.397 . S
C88 H112 0.931 . S
C89 C88 1.386 . S
C89 C93 1.397 . S
C90 C88 1.397 . S
C90 C91 1.384 . S
C90 H113 0.930 1_655 S
C91 C90 1.384 . S
C91 C92 1.377 . S
C91 C94 1.481 1_655 S
C92 C91 1.377 . S
C92 C93 1.389 . S
C92 H114 0.929 . S
C93 C89 1.397 . S
C93 C92 1.389 . S
C93 H115 0.931 . S
C94 C91 1.481 1_455 S
C94 C95 1.387 . S
C94 C99 1.390 . S
C95 C94 1.387 . S
C95 C96 1.401 . S
C95 H116 0.930 . S
C96 C95 1.401 . S
C96 C97 1.376 . S
C96 C105 1.511 . S
C97 C96 1.376 . S
C97 C98 1.392 . S
C97 H118 0.931 . S
C98 C97 1.392 . S
C98 C99 1.361 . S
C98 C100 1.500 . S
C99 C94 1.390 . S
C99 C98 1.361 . S
C99 H117 0.931 . S
C100 C98 1.500 . S
C100 C101 1.371 . S
C100 C102 1.365 . S
C101 C100 1.371 . S
C101 C111 1.408 . S
C101 H119 0.931 . S
C102 C100 1.365 . S
C102 C103 1.409 1_545 S
C102 H120 0.929 . S
C103 C102 1.409 1_565 S
C103 C104 1.380 . S
C103 H121 0.930 . S
C104 C103 1.380 . S
C104 C111 1.342 1_565 S
C105 C96 1.511 . S
C105 C106 1.341 . S
C105 C107 1.371 . S
C106 C105 1.341 . S
C106 C110 1.394 . S
C106 H122 0.930 . S
C107 C105 1.371 . S
C107 C108 1.392 . S
C107 H123 0.931 . S
C108 C107 1.392 . S
C108 C109 1.331 . S
C108 H126 0.932 . S
C109 C108 1.331 . S
C109 C110 1.336 . S
C110 C106 1.394 . S
C110 C109 1.336 . S
C110 H125 0.929 . S
C111 C101 1.408 . S
C111 C104 1.342 1_545 S
C111 H124 0.921 1_545 S
H112 C88 0.931 . S
H113 C90 0.930 1_455 S
H114 C92 0.929 . S
H115 C93 0.931 . S
H116 C95 0.930 . S
H117 C99 0.931 . S
H118 C97 0.931 . S
H119 C101 0.931 . S
H120 C102 0.929 . S
H121 C103 0.930 . S
H122 C106 0.930 . S
H123 C107 0.931 . S
H124 C111 0.921 1_565 S
H125 C110 0.929 . S
H126 C108 0.932 . S
C127 C128 1.386 . S
C127 C129 1.397 . S
C127 H151 0.931 . S
C128 C127 1.386 . S
C128 C132 1.397 . S
C129 C127 1.397 . S
C129 C130 1.384 . S
C129 H152 0.930 . S
C130 C129 1.384 . S
C130 C131 1.377 . S
C130 C133 1.481 . S
C131 C130 1.377 . S
C131 C132 1.389 . S
C131 H153 0.929 . S
C132 C128 1.397 . S
C132 C131 1.389 . S
C132 H154 0.931 . S
C133 C130 1.481 . S
C133 C134 1.387 . S
C133 C138 1.390 . S
C134 C133 1.387 . S
C134 C135 1.401 . S
C134 H155 0.930 . S
C135 C134 1.401 . S
C135 C136 1.376 . S
C135 C144 1.511 . S
C136 C135 1.376 . S
C136 C137 1.392 . S
C136 H157 0.931 . S
C137 C136 1.392 . S
C137 C138 1.361 . S
C137 C139 1.500 . S
C138 C133 1.390 . S
C138 C137 1.361 . S
C138 H156 0.931 . S
C139 C137 1.500 . S
C139 C140 1.371 . S
C139 C141 1.365 . S
C140 C139 1.371 . S
C140 C150 1.386 . S
C140 H158 0.931 . S
C141 C139 1.365 . S
C141 C142 1.409 . S
C141 H159 0.929 . S
C142 C141 1.409 . S
C142 C143 1.380 . S
C142 H160 0.930 . S
C143 C142 1.380 . S
C143 C150 1.357 . S
C144 C135 1.511 . S
C144 C145 1.341 . S
C144 C146 1.371 . S
C145 C144 1.341 . S
C145 C149 1.394 . S
C145 H161 0.930 . S
C146 C144 1.371 . S
C146 C147 1.392 . S
C146 H162 0.931 . S
C147 C146 1.392 . S
C147 C148 1.331 . S
C147 H165 0.932 . S
C148 C147 1.331 . S
C148 C149 1.336 . S
C149 C145 1.394 . S
C149 C148 1.336 . S
C149 H164 0.929 . S
C150 C140 1.386 . S
C150 C143 1.357 . S
C150 H163 0.928 . S
H151 C127 0.931 . S
H152 C129 0.930 . S
H153 C131 0.929 . S
H154 C132 0.931 . S
H155 C134 0.930 . S
H156 C138 0.931 . S
H157 C136 0.931 . S
H158 C140 0.931 . S
H159 C141 0.929 . S
H160 C142 0.930 . S
H161 C145 0.930 . S
H162 C146 0.931 . S
H163 C150 0.928 . S
H164 C149 0.929 . S
H165 C147 0.932 . S
C166 C167 1.386 . S
C166 C168 1.397 . S
C166 H190 0.931 . S
C167 C166 1.386 . S
C167 C171 1.397 . S
C168 C166 1.397 . S
C168 C169 1.384 . S
C168 H191 0.930 . S
C169 C168 1.384 . S
C169 C170 1.377 . S
C169 C172 1.481 . S
C170 C169 1.377 . S
C170 C171 1.389 . S
C170 H192 0.929 . S
C171 C167 1.397 . S
C171 C170 1.389 . S
C171 H193 0.931 . S
C172 C169 1.481 . S
C172 C173 1.387 . S
C172 C177 1.390 . S
C173 C172 1.387 . S
C173 C174 1.401 . S
C173 H194 0.930 . S
C174 C173 1.401 . S
C174 C175 1.376 . S
C174 C183 1.511 . S
C175 C174 1.376 . S
C175 C176 1.392 . S
C175 H196 0.931 . S
C176 C175 1.392 . S
C176 C177 1.361 . S
C176 C178 1.500 . S
C177 C172 1.390 . S
C177 C176 1.361 . S
C177 H195 0.931 . S
C178 C176 1.500 . S
C178 C179 1.371 . S
C178 C180 1.365 . S
C179 C178 1.371 . S
C179 C189 1.386 . S
C179 H197 0.931 . S
C180 C178 1.365 . S
C180 C181 1.409 . S
C180 H198 0.929 . S
C181 C180 1.409 . S
C181 C182 1.380 . S
C181 H199 0.930 . S
C182 C181 1.380 . S
C182 C189 1.357 . S
C183 C174 1.511 . S
C183 C184 1.341 . S
C183 C185 1.371 . S
C184 C183 1.341 . S
C184 C188 1.394 . S
C184 H200 0.930 . S
C185 C183 1.371 . S
C185 C186 1.392 . S
C185 H201 0.931 . S
C186 C185 1.392 . S
C186 C187 1.331 . S
C186 H204 0.932 . S
C187 C186 1.331 . S
C187 C188 1.336 . S
C188 C184 1.394 . S
C188 C187 1.336 . S
C188 H203 0.929 . S
C189 C179 1.386 . S
C189 C182 1.357 . S
C189 H202 0.928 . S
H190 C166 0.931 . S
H191 C168 0.930 . S
H192 C170 0.929 . S
H193 C171 0.931 . S
H194 C173 0.930 . S
H195 C177 0.931 . S
H196 C175 0.931 . S
H197 C179 0.931 . S
H198 C180 0.929 . S
H199 C181 0.930 . S
H200 C184 0.930 . S
H201 C185 0.931 . S
H202 C189 0.928 . S
H203 C188 0.929 . S
H204 C186 0.932 . S
C205 C206 1.386 . S
C205 C207 1.397 . S
C205 H229 0.931 . S
C206 C205 1.386 . S
C206 C210 1.397 . S
C207 C205 1.397 . S
C207 C208 1.384 . S
C207 H230 0.930 . S
C208 C207 1.384 . S
C208 C209 1.377 . S
C208 C211 1.481 . S
C209 C208 1.377 . S
C209 C210 1.389 . S
C209 H231 0.929 . S
C210 C206 1.397 . S
C210 C209 1.389 . S
C210 H232 0.931 . S
C211 C208 1.481 . S
C211 C212 1.387 . S
C211 C216 1.390 . S
C212 C211 1.387 . S
C212 C213 1.401 . S
C212 H233 0.930 . S
C213 C212 1.401 . S
C213 C214 1.376 . S
C213 C222 1.511 . S
C214 C213 1.376 . S
C214 C215 1.392 . S
C214 H235 0.931 . S
C215 C214 1.392 . S
C215 C216 1.361 . S
C215 C217 1.500 . S
C216 C211 1.390 . S
C216 C215 1.361 . S
C216 H234 0.931 . S
C217 C215 1.500 . S
C217 C218 1.371 . S
C217 C219 1.365 . S
C218 C217 1.371 . S
C218 C228 1.386 . S
C218 H236 0.931 . S
C219 C217 1.365 . S
C219 C220 1.409 . S
C219 H237 0.929 . S
C220 C219 1.409 . S
C220 C221 1.380 . S
C220 H238 0.930 . S
C221 C220 1.380 . S
C221 C228 1.357 . S
C222 C213 1.511 . S
C222 C223 1.341 . S
C222 C224 1.371 . S
C223 C222 1.341 . S
C223 C227 1.394 . S
C223 H239 0.930 . S
C224 C222 1.371 . S
C224 C225 1.392 . S
C224 H240 0.931 . S
C225 C224 1.392 . S
C225 C226 1.331 . S
C225 H243 0.932 . S
C226 C225 1.331 . S
C226 C227 1.336 . S
C227 C223 1.394 . S
C227 C226 1.336 . S
C227 H242 0.929 . S
C228 C218 1.386 . S
C228 C221 1.357 . S
C228 H241 0.928 . S
H229 C205 0.931 . S
H230 C207 0.930 . S
H231 C209 0.929 . S
H232 C210 0.931 . S
H233 C212 0.930 . S
H234 C216 0.931 . S
H235 C214 0.931 . S
H236 C218 0.931 . S
H237 C219 0.929 . S
H238 C220 0.930 . S
H239 C223 0.930 . S
H240 C224 0.931 . S
H241 C228 0.928 . S
H242 C227 0.929 . S
H243 C225 0.932 . S
C244 C245 1.386 . S
C244 C246 1.397 . S
C244 H268 0.931 . S
C245 C244 1.386 . S
C245 C249 1.397 . S
C246 C244 1.397 . S
C246 C247 1.384 . S
C246 H269 0.930 . S
C247 C246 1.384 . S
C247 C248 1.377 . S
C247 C250 1.481 . S
C248 C247 1.377 . S
C248 C249 1.389 . S
C248 H270 0.929 . S
C249 C245 1.397 . S
C249 C248 1.389 . S
C249 H271 0.931 . S
C250 C247 1.481 . S
C250 C251 1.387 . S
C250 C255 1.390 . S
C251 C250 1.387 . S
C251 C252 1.401 . S
C251 H272 0.930 . S
C252 C251 1.401 . S
C252 C253 1.376 . S
C252 C261 1.511 . S
C253 C252 1.376 . S
C253 C254 1.392 . S
C253 H274 0.931 . S
C254 C253 1.392 . S
C254 C255 1.361 . S
C254 C256 1.500 . S
C255 C250 1.390 . S
C255 C254 1.361 . S
C255 H273 0.931 . S
C256 C254 1.500 . S
C256 C257 1.371 . S
C256 C258 1.365 . S
C257 C256 1.371 . S
C257 C267 1.386 . S
C257 H275 0.931 . S
C258 C256 1.365 . S
C258 C259 1.409 . S
C258 H276 0.929 . S
C259 C258 1.409 . S
C259 C260 1.380 . S
C259 H277 0.930 . S
C260 C259 1.380 . S
C260 C267 1.357 . S
C261 C252 1.511 . S
C261 C262 1.341 . S
C261 C263 1.371 . S
C262 C261 1.341 . S
C262 C266 1.394 . S
C262 H278 0.930 . S
C263 C261 1.371 . S
C263 C264 1.392 . S
C263 H279 0.931 . S
C264 C263 1.392 . S
C264 C265 1.331 . S
C264 H282 0.932 . S
C265 C264 1.331 . S
C265 C266 1.336 . S
C266 C262 1.394 . S
C266 C265 1.336 . S
C266 H281 0.929 . S
C267 C257 1.386 . S
C267 C260 1.357 . S
C267 H280 0.928 . S
H268 C244 0.931 . S
H269 C246 0.930 . S
H270 C248 0.929 . S
H271 C249 0.931 . S
H272 C251 0.930 . S
H273 C255 0.931 . S
H274 C253 0.931 . S
H275 C257 0.931 . S
H276 C258 0.929 . S
H277 C259 0.930 . S
H278 C262 0.930 . S
H279 C263 0.931 . S
H280 C267 0.928 . S
H281 C266 0.929 . S
H282 C264 0.932 . S
C283 C284 1.386 . S
C283 C285 1.397 . S
C283 H307 0.931 . S
C284 C283 1.386 . S
C284 C288 1.397 . S
C285 C283 1.397 . S
C285 C286 1.384 . S
C285 H308 0.930 . S
C286 C285 1.384 . S
C286 C287 1.377 . S
C286 C289 1.481 . S
C287 C286 1.377 . S
C287 C288 1.389 . S
C287 H309 0.929 . S
C288 C284 1.397 . S
C288 C287 1.389 . S
C288 H310 0.931 . S
C289 C286 1.481 . S
C289 C290 1.387 . S
C289 C294 1.390 . S
C290 C289 1.387 . S
C290 C291 1.401 . S
C290 H311 0.930 . S
C291 C290 1.401 . S
C291 C292 1.376 . S
C291 C300 1.511 . S
C292 C291 1.376 . S
C292 C293 1.392 . S
C292 H313 0.931 . S
C293 C292 1.392 . S
C293 C294 1.361 . S
C293 C295 1.500 . S
C294 C289 1.390 . S
C294 C293 1.361 . S
C294 H312 0.931 . S
C295 C293 1.500 . S
C295 C296 1.371 . S
C295 C297 1.365 . S
C296 C295 1.371 . S
C296 C306 1.386 . S
C296 H314 0.931 . S
C297 C295 1.365 . S
C297 C298 1.409 . S
C297 H315 0.929 . S
C298 C297 1.409 . S
C298 C299 1.380 . S
C298 H316 0.930 . S
C299 C298 1.380 . S
C299 C306 1.357 . S
C300 C291 1.511 . S
C300 C301 1.341 . S
C300 C302 1.371 . S
C301 C300 1.341 . S
C301 C305 1.394 . S
C301 H317 0.930 . S
C302 C300 1.371 . S
C302 C303 1.392 . S
C302 H318 0.931 . S
C303 C302 1.392 . S
C303 C304 1.331 . S
C303 H321 0.932 . S
C304 C303 1.331 . S
C304 C305 1.336 . S
C305 C301 1.394 . S
C305 C304 1.336 . S
C305 H320 0.929 . S
C306 C296 1.386 . S
C306 C299 1.357 . S
C306 H319 0.928 . S
H307 C283 0.931 . S
H308 C285 0.930 . S
H309 C287 0.929 . S
H310 C288 0.931 . S
H311 C290 0.930 . S
H312 C294 0.931 . S
H313 C292 0.931 . S
H314 C296 0.931 . S
H315 C297 0.929 . S
H316 C298 0.930 . S
H317 C301 0.930 . S
H318 C302 0.931 . S
H319 C306 0.928 . S
H320 C305 0.929 . S
H321 C303 0.932 . S
C322 C323 1.386 . S
C322 C324 1.397 . S
C322 H346 0.931 . S
C323 C322 1.386 . S
C323 C327 1.397 . S
C324 C322 1.397 . S
C324 C325 1.384 . S
C324 H347 0.930 . S
C325 C324 1.384 . S
C325 C326 1.377 . S
C325 C328 1.481 . S
C326 C325 1.377 . S
C326 C327 1.389 . S
C326 H348 0.929 . S
C327 C323 1.397 . S
C327 C326 1.389 . S
C327 H349 0.931 . S
C328 C325 1.481 . S
C328 C329 1.387 . S
C328 C333 1.390 . S
C329 C328 1.387 . S
C329 C330 1.401 . S
C329 H350 0.930 . S
C330 C329 1.401 . S
C330 C331 1.376 . S
C330 C339 1.511 . S
C331 C330 1.376 . S
C331 C332 1.392 . S
C331 H352 0.931 . S
C332 C331 1.392 . S
C332 C333 1.361 . S
C332 C334 1.500 . S
C333 C328 1.390 . S
C333 C332 1.361 . S
C333 H351 0.931 . S
C334 C332 1.500 . S
C334 C335 1.371 . S
C334 C336 1.365 . S
C335 C334 1.371 . S
C335 C345 1.386 . S
C335 H353 0.931 . S
C336 C334 1.365 . S
C336 C337 1.409 . S
C336 H354 0.929 . S
C337 C336 1.409 . S
C337 C338 1.380 . S
C337 H355 0.930 . S
C338 C337 1.380 . S
C338 C345 1.357 . S
C339 C330 1.511 . S
C339 C340 1.341 . S
C339 C341 1.371 . S
C340 C339 1.341 . S
C340 C344 1.394 . S
C340 H356 0.930 . S
C341 C339 1.371 . S
C341 C342 1.392 . S
C341 H357 0.931 . S
C342 C341 1.392 . S
C342 C343 1.331 . S
C342 H360 0.932 . S
C343 C342 1.331 . S
C343 C344 1.336 . S
C344 C340 1.394 . S
C344 C343 1.336 . S
C344 H359 0.929 . S
C345 C335 1.386 . S
C345 C338 1.357 . S
C345 H358 0.928 . S
H346 C322 0.931 . S
H347 C324 0.930 . S
H348 C326 0.929 . S
H349 C327 0.931 . S
H350 C329 0.930 . S
H351 C333 0.931 . S
H352 C331 0.931 . S
H353 C335 0.931 . S
H354 C336 0.929 . S
H355 C337 0.930 . S
H356 C340 0.930 . S
H357 C341 0.931 . S
H358 C345 0.928 . S
H359 C344 0.929 . S
H360 C342 0.932 . S
C361 C362 1.386 . S
C361 C363 1.397 . S
C361 H385 0.931 . S
C362 C361 1.386 . S
C362 C366 1.397 . S
C363 C361 1.397 . S
C363 C364 1.384 . S
C363 H386 0.930 . S
C364 C363 1.384 . S
C364 C365 1.377 . S
C364 C367 1.481 1_455 S
C365 C364 1.377 . S
C365 C366 1.389 . S
C365 H387 0.929 1_455 S
C366 C362 1.397 . S
C366 C365 1.389 . S
C366 H388 0.931 . S
C367 C364 1.481 1_655 S
C367 C368 1.387 . S
C367 C372 1.390 . S
C368 C367 1.387 . S
C368 C369 1.401 . S
C368 H389 0.930 . S
C369 C368 1.401 . S
C369 C370 1.376 . S
C369 C378 1.511 . S
C370 C369 1.376 . S
C370 C371 1.392 . S
C370 H391 0.931 . S
C371 C370 1.392 . S
C371 C372 1.361 . S
C371 C373 1.500 . S
C372 C367 1.390 . S
C372 C371 1.361 . S
C372 H390 0.931 . S
C373 C371 1.500 . S
C373 C374 1.371 . S
C373 C375 1.365 . S
C374 C373 1.371 . S
C374 C384 1.386 1_565 S
C374 H392 0.931 . S
C375 C373 1.365 . S
C375 C376 1.407 1_565 S
C375 H393 0.929 . S
C376 C375 1.407 1_545 S
C376 C377 1.382 . S
C376 H394 0.930 . S
C377 C376 1.382 . S
C377 C384 1.357 . S
C378 C369 1.511 . S
C378 C379 1.341 . S
C378 C380 1.371 . S
C379 C378 1.341 . S
C379 C383 1.394 . S
C379 H395 0.930 . S
C380 C378 1.371 . S
C380 C381 1.392 . S
C380 H396 0.931 . S
C381 C380 1.392 . S
C381 C382 1.331 . S
C381 H399 0.932 . S
C382 C381 1.331 . S
C382 C383 1.336 . S
C383 C379 1.394 . S
C383 C382 1.336 . S
C383 H398 0.929 . S
C384 C374 1.386 1_545 S
C384 C377 1.357 . S
C384 H397 0.928 . S
H385 C361 0.931 . S
H386 C363 0.930 . S
H387 C365 0.929 1_655 S
H388 C366 0.931 . S
H389 C368 0.930 . S
H390 C372 0.931 . S
H391 C370 0.931 . S
H392 C374 0.931 . S
H393 C375 0.929 . S
H394 C376 0.930 . S
H395 C379 0.930 . S
H396 C380 0.931 . S
H397 C384 0.928 . S
H398 C383 0.929 . S
H399 C381 0.932 . S
C400 C401 1.387 . S
C400 H404 0.950 . S
C400 C409 1.390 . S
C401 C400 1.387 . S
C401 C403 1.387 . S
H402 C409 0.950 . S
C403 C401 1.387 . S
C403 C405 1.390 . S
C403 H407 0.950 . S
H404 C400 0.950 . S
C405 C403 1.390 . S
C405 C406 1.387 . S
C405 H408 0.950 . S
C406 C405 1.387 . S
C406 C409 1.387 . S
H407 C403 0.950 . S
H408 C405 0.950 . S
C409 C400 1.390 . S
C409 H402 0.950 . S
C409 C406 1.387 . S
C410 C411 1.387 . S
C410 H414 0.950 . S
C410 C419 1.390 . S
C411 C410 1.387 . S
C411 C413 1.387 . S
H412 C419 0.950 . S
C413 C411 1.387 . S
C413 C415 1.390 . S
C413 H417 0.950 . S
H414 C410 0.950 . S
C415 C413 1.390 . S
C415 C416 1.387 . S
C415 H418 0.950 . S
C416 C415 1.387 . S
C416 C419 1.387 . S
H417 C413 0.950 . S
H418 C415 0.950 . S
C419 C410 1.390 . S
C419 H412 0.950 . S
C419 C416 1.387 . S
C420 C421 1.387 . S
C420 H424 0.950 . S
C420 C429 1.390 . S
C421 C420 1.387 . S
C421 C423 1.387 . S
H422 C429 0.950 . S
C423 C421 1.387 . S
C423 C425 1.390 . S
C423 H427 0.950 . S
H424 C420 0.950 . S
C425 C423 1.390 . S
C425 C426 1.387 . S
C425 H428 0.950 . S
C426 C425 1.387 . S
C426 C429 1.387 . S
H427 C423 0.950 . S
H428 C425 0.950 . S
C429 C420 1.390 . S
C429 H422 0.950 . S
C429 C426 1.387 . S
C430 C431 1.387 . S
C430 H434 0.950 . S
C430 C439 1.390 . S
C431 C430 1.387 . S
C431 C433 1.387 . S
H432 C439 0.950 . S
C433 C431 1.387 . S
C433 C435 1.390 . S
C433 H437 0.950 . S
H434 C430 0.950 . S
C435 C433 1.390 . S
C435 C436 1.387 . S
C435 H438 0.950 . S
C436 C435 1.387 . S
C436 C439 1.387 . S
H437 C433 0.950 . S
H438 C435 0.950 . S
C439 C430 1.390 . S
C439 H432 0.950 . S
C439 C436 1.387 . S
C440 C441 1.387 . S
C440 H444 0.950 . S
C440 C449 1.390 . S
C441 C440 1.387 . S
C441 C443 1.387 . S
H442 C449 0.950 . S
C443 C441 1.387 . S
C443 C445 1.390 . S
C443 H447 0.950 . S
H444 C440 0.950 . S
C445 C443 1.390 . S
C445 C446 1.387 . S
C445 H448 0.950 . S
C446 C445 1.387 . S
C446 C449 1.387 . S
H447 C443 0.950 . S
H448 C445 0.950 . S
C449 C440 1.390 . S
C449 H442 0.950 . S
C449 C446 1.387 . S
C450 C451 1.387 . S
C450 H454 0.950 . S
C450 C459 1.390 1_655 S
C451 C450 1.387 . S
C451 C453 1.387 1_655 S
H452 C459 0.950 . S
C453 C451 1.387 1_455 S
C453 C455 1.390 . S
C453 H457 0.950 1_456 S
H454 C450 0.950 . S
C455 C453 1.390 . S
C455 C456 1.387 . S
C455 H458 0.950 1_556 S
C456 C455 1.387 . S
C456 C459 1.387 . S
H457 C453 0.950 1_654 S
H458 C455 0.950 1_554 S
C459 C450 1.390 1_455 S
C459 H452 0.950 . S
C459 C456 1.387 . S
C460 C461 1.387 . S
C460 H464 0.950 . S
C460 C469 1.390 . S
C461 C460 1.387 . S
C461 C463 1.387 . S
H462 C469 0.950 . S
C463 C461 1.387 . S
C463 C465 1.390 . S
C463 H467 0.950 . S
H464 C460 0.950 . S
C465 C463 1.390 . S
C465 C466 1.387 . S
C465 H468 0.950 . S
C466 C465 1.387 . S
C466 C469 1.387 . S
H467 C463 0.950 . S
H468 C465 0.950 . S
C469 C460 1.390 . S
C469 H462 0.950 . S
C469 C466 1.387 . S
C470 C471 1.387 . S
C470 H474 0.950 . S
C470 C479 1.390 . S
C471 C470 1.387 . S
C471 C473 1.387 . S
H472 C479 0.950 . S
C473 C471 1.387 . S
C473 C475 1.390 . S
C473 H477 0.950 . S
H474 C470 0.950 . S
C475 C473 1.390 . S
C475 C476 1.387 . S
C475 H478 0.950 . S
C476 C475 1.387 . S
C476 C479 1.387 . S
H477 C473 0.950 . S
H478 C475 0.950 . S
C479 C470 1.390 . S
C479 H472 0.950 . S
C479 C476 1.387 . S
C480 C481 1.387 . S
C480 H484 0.950 . S
C480 C489 1.390 . S
C481 C480 1.387 . S
C481 C483 1.387 . S
H482 C489 0.950 . S
C483 C481 1.387 . S
C483 C485 1.390 . S
C483 H487 0.950 . S
H484 C480 0.950 . S
C485 C483 1.390 . S
C485 C486 1.387 . S
C485 H488 0.950 . S
C486 C485 1.387 . S
C486 C489 1.387 . S
H487 C483 0.950 . S
H488 C485 0.950 . S
C489 C480 1.390 . S
C489 H482 0.950 . S
C489 C486 1.387 . S
C490 C491 1.387 . S
C490 H494 0.950 . S
C490 C499 1.390 . S
C491 C490 1.387 . S
C491 C493 1.387 . S
H492 C499 0.950 . S
C493 C491 1.387 . S
C493 C495 1.390 . S
C493 H497 0.950 . S
H494 C490 0.950 . S
C495 C493 1.390 . S
C495 C496 1.387 . S
C495 H498 0.950 . S
C496 C495 1.387 . S
C496 C499 1.387 . S
H497 C493 0.950 . S
H498 C495 0.950 . S
C499 C490 1.390 . S
C499 H492 0.950 . S
C499 C496 1.387 . S
C500 C501 1.387 . S
C500 H504 0.950 . S
C500 C509 1.390 . S
C501 C500 1.387 . S
C501 C503 1.387 1_556 S
H502 C509 0.950 . S
C503 C501 1.387 1_554 S
C503 C505 1.390 . S
C503 H507 0.950 . S
H504 C500 0.950 . S
C505 C503 1.390 . S
C505 C506 1.387 1_554 S
C505 H508 0.950 . S
C506 C505 1.387 1_556 S
C506 C509 1.387 . S
H507 C503 0.950 . S
H508 C505 0.950 . S
C509 C500 1.390 . S
C509 H502 0.950 . S
C509 C506 1.387 . S
C510 C511 1.387 . S
C510 H514 0.950 . S
C510 C519 1.390 . S
C511 C510 1.387 . S
C511 C513 1.387 . S
H512 C519 0.950 . S
C513 C511 1.387 . S
C513 C515 1.390 . S
C513 H517 0.950 . S
H514 C510 0.950 . S
C515 C513 1.390 . S
C515 C516 1.387 . S
C515 H518 0.950 . S
C516 C515 1.387 . S
C516 C519 1.387 . S
H517 C513 0.950 . S
H518 C515 0.950 . S
C519 C510 1.390 . S
C519 H512 0.950 . S
C519 C516 1.387 . S
C520 C521 1.387 . S
C520 H524 0.950 . S
C520 C529 1.390 . S
C521 C520 1.387 . S
C521 C523 1.387 . S
H522 C529 0.950 . S
C523 C521 1.387 . S
C523 C525 1.390 . S
C523 H527 0.950 . S
H524 C520 0.950 . S
C525 C523 1.390 . S
C525 C526 1.387 . S
C525 H528 0.950 . S
C526 C525 1.387 . S
C526 C529 1.387 . S
H527 C523 0.950 . S
H528 C525 0.950 . S
C529 C520 1.390 . S
C529 H522 0.950 . S
C529 C526 1.387 . S
C530 C531 1.387 1_655 S
C530 H534 0.950 1_655 S
C530 C539 1.390 . S
C531 C530 1.387 1_455 S
C531 C533 1.387 . S
H532 C539 0.950 . S
C533 C531 1.387 . S
C533 C535 1.390 1_455 S
C533 H537 0.950 . S
H534 C530 0.950 1_455 S
C535 C533 1.390 1_655 S
C535 C536 1.387 . S
C535 H538 0.950 . S
C536 C535 1.387 . S
C536 C539 1.387 . S
H537 C533 0.950 . S
H538 C535 0.950 . S
C539 C530 1.390 . S
C539 H532 0.950 . S
C539 C536 1.387 . S
C540 C541 1.387 . S
C540 H544 0.950 . S
C540 C549 1.390 . S
C541 C540 1.387 . S
C541 C543 1.387 . S
H542 C549 0.950 . S
C543 C541 1.387 . S
C543 C545 1.390 . S
C543 H547 0.950 . S
H544 C540 0.950 . S
C545 C543 1.390 . S
C545 C546 1.387 . S
C545 H548 0.950 . S
C546 C545 1.387 . S
C546 C549 1.387 . S
H547 C543 0.950 . S
H548 C545 0.950 . S
C549 C540 1.390 . S
C549 H542 0.950 . S
C549 C546 1.387 . S
C550 C551 1.387 . S
C550 H554 0.950 . S
C550 C559 1.390 . S
C551 C550 1.387 . S
C551 C553 1.387 . S
H552 C559 0.950 . S
C553 C551 1.387 . S
C553 C555 1.390 . S
C553 H557 0.950 . S
H554 C550 0.950 . S
C555 C553 1.390 . S
C555 C556 1.387 . S
C555 H558 0.950 . S
C556 C555 1.387 . S
C556 C559 1.387 . S
H557 C553 0.950 . S
H558 C555 0.950 . S
C559 C550 1.390 . S
C559 H552 0.950 . S
C559 C556 1.387 . S
C560 C561 1.387 . S
C560 H564 0.950 . S
C560 C569 1.390 . S
C561 C560 1.387 . S
C561 C563 1.387 . S
H562 C569 0.950 . S
C563 C561 1.387 . S
C563 C565 1.390 . S
C563 H567 0.950 . S
H564 C560 0.950 . S
C565 C563 1.390 . S
C565 C566 1.387 . S
C565 H568 0.950 . S
C566 C565 1.387 . S
C566 C569 1.387 . S
H567 C563 0.950 . S
H568 C565 0.950 . S
C569 C560 1.390 . S
C569 H562 0.950 . S
C569 C566 1.387 . S
C570 C571 1.387 . S
C570 H574 0.950 . S
C570 C579 1.390 . S
C571 C570 1.387 . S
C571 C573 1.387 . S
H572 C579 0.950 . S
C573 C571 1.387 . S
C573 C575 1.390 . S
C573 H577 0.950 . S
H574 C570 0.950 . S
C575 C573 1.390 . S
C575 C576 1.387 . S
C575 H578 0.950 . S
C576 C575 1.387 . S
C576 C579 1.387 . S
H577 C573 0.950 . S
H578 C575 0.950 . S
C579 C570 1.390 . S
C579 H572 0.950 . S
C579 C576 1.387 . S
C580 C581 1.387 . S
C580 H584 0.950 . S
C580 C589 1.390 . S
C581 C580 1.387 . S
C581 C583 1.387 . S
H582 C589 0.950 . S
C583 C581 1.387 . S
C583 C585 1.390 . S
C583 H587 0.950 . S
H584 C580 0.950 . S
C585 C583 1.390 . S
C585 C586 1.387 . S
C585 H588 0.950 . S
C586 C585 1.387 . S
C586 C589 1.387 . S
H587 C583 0.950 . S
H588 C585 0.950 . S
C589 C580 1.390 . S
C589 H582 0.950 . S
C589 C586 1.387 . S
C590 C591 1.387 . S
C590 H594 0.950 . S
C590 C599 1.390 . S
C591 C590 1.387 . S
C591 C593 1.387 . S
H592 C599 0.950 . S
C593 C591 1.387 . S
C593 C595 1.390 . S
C593 H597 0.950 . S
H594 C590 0.950 . S
C595 C593 1.390 . S
C595 C596 1.387 . S
C595 H598 0.950 . S
C596 C595 1.387 . S
C596 C599 1.387 . S
H597 C593 0.950 . S
H598 C595 0.950 . S
C599 C590 1.390 . S
C599 H592 0.950 . S
C599 C596 1.387 . S
C600 C601 1.387 . S
C600 H604 0.950 . S
C600 C609 1.390 . S
C601 C600 1.387 . S
C601 C603 1.387 . S
H602 C609 0.950 . S
C603 C601 1.387 . S
C603 C605 1.390 . S
C603 H607 0.950 . S
H604 C600 0.950 . S
C605 C603 1.390 . S
C605 C606 1.387 . S
C605 H608 0.950 . S
C606 C605 1.387 . S
C606 C609 1.387 . S
H607 C603 0.950 . S
H608 C605 0.950 . S
C609 C600 1.390 . S
C609 H602 0.950 . S
C609 C606 1.387 . S
C610 C611 1.387 . S
C610 H614 0.950 . S
C610 C619 1.390 . S
C611 C610 1.387 . S
C611 C613 1.387 . S
H612 C619 0.950 . S
C613 C611 1.387 . S
C613 C615 1.390 . S
C613 H617 0.950 . S
H614 C610 0.950 . S
C615 C613 1.390 . S
C615 C616 1.387 . S
C615 H618 0.950 . S
C616 C615 1.387 . S
C616 C619 1.387 . S
H617 C613 0.950 . S
H618 C615 0.950 . S
C619 C610 1.390 . S
C619 H612 0.950 . S
C619 C616 1.387 . S
C620 C621 1.387 . S
C620 H624 0.950 . S
C620 C629 1.390 . S
C621 C620 1.387 . S
C621 C623 1.387 . S
H622 C629 0.950 . S
C623 C621 1.387 . S
C623 C625 1.390 . S
C623 H627 0.950 . S
H624 C620 0.950 . S
C625 C623 1.390 . S
C625 C626 1.387 . S
C625 H628 0.950 . S
C626 C625 1.387 . S
C626 C629 1.387 . S
H627 C623 0.950 . S
H628 C625 0.950 . S
C629 C620 1.390 . S
C629 H622 0.950 . S
C629 C626 1.387 . S
C630 C631 1.387 1_554 S
C630 H634 0.950 . S
C630 C639 1.394 . S
C631 C630 1.387 1_556 S
C631 C633 1.387 . S
H632 C639 0.961 . S
C633 C631 1.387 . S
C633 C635 1.390 . S
C633 H637 0.950 . S
H634 C630 0.950 . S
C635 C633 1.390 . S
C635 C636 1.387 . S
C635 H638 0.950 . S
C636 C635 1.387 . S
C636 C639 1.372 1_556 S
H637 C633 0.950 . S
H638 C635 0.950 . S
C639 C630 1.394 . S
C639 H632 0.961 . S
C639 C636 1.372 1_554 S
C401 C8 1.775 . S
C406 C104 1.638 . S
C411 C31 1.796 . S
C416 C143 1.599 . S
C421 C53 1.997 . S
C426 C182 1.806 1_545 S
C436 C206 1.530 . S
C431 C74 1.559 . S
C446 C245 1.639 . S
C441 C26 1.768 . S
C451 C48 1.563 . S
C456 C284 1.534 . S
C461 C71 1.992 . S
C466 C338 1.804 . S
C471 C5 1.795 . S
C476 C362 1.601 . S
C481 C50 1.774 . S
C486 C377 1.632 . S
C496 C260 1.588 . S
C491 C70 1.796 . S
C506 C299 1.812 1_565 S
C501 C4 1.997 1_556 S
C511 C28 1.556 . S
C516 C323 1.537 . S
C526 C128 1.630 . S
C521 C73 1.768 . S
C531 C7 1.565 . S
C536 C167 1.540 . S
C546 C221 1.806 . S
C541 C30 1.992 . S
C556 C89 1.589 . S
C551 C52 1.795 . S
C566 C343 1.640 . S
C561 C9 1.745 . S
C576 C382 1.481 . S
C571 C29 1.499 . S
C581 C51 1.494 . S
C586 C265 1.480 . S
C596 C304 1.624 . S
C591 C75 1.754 . S
C606 C187 1.646 . S
C601 C27 1.754 . S
C611 C49 1.746 . S
C616 C226 1.616 . S
C626 C109 1.458 . S
C621 C72 1.497 . S
C636 C148 1.461 . S
C631 C6 1.494 1_556 S
