# Generated by pormake.
# Topology ssb, (4,4)-cn, num edge types: 1
# Building blocks:
#     Node 0, Type 0, BuildingBlock: MUDLON_clean_linker_0, # of connection points: 4
#     Node 1, Type 0, BuildingBlock: MUDLON_clean_linker_0, # of connection points: 4
#     Node 2, Type 0, BuildingBlock: MUDLON_clean_linker_0, # of connection points: 4
#     Node 3, Type 0, BuildingBlock: MUDLON_clean_linker_0, # of connection points: 4
#     Node 4, Type 0, BuildingBlock: MUDLON_clean_linker_0, # of connection points: 4
#     Node 5, Type 0, BuildingBlock: MUDLON_clean_linker_0, # of connection points: 4
#     Node 6, Type 0, BuildingBlock: MUDLON_clean_linker_0, # of connection points: 4
#     Node 7, Type 0, BuildingBlock: MUDLON_clean_linker_0, # of connection points: 4
#     Node 8, Type 1, BuildingBlock: NAWXER_clean_sbu_0, # of connection points: 4
#     Node 9, Type 1, BuildingBlock: NAWXER_clean_sbu_0, # of connection points: 4
#     Node 10, Type 1, BuildingBlock: NAWXER_clean_sbu_0, # of connection points: 4
#     Node 11, Type 1, BuildingBlock: NAWXER_clean_sbu_0, # of connection points: 4
#     Node 12, Type 1, BuildingBlock: NAWXER_clean_sbu_0, # of connection points: 4
#     Node 13, Type 1, BuildingBlock: NAWXER_clean_sbu_0, # of connection points: 4
#     Node 14, Type 1, BuildingBlock: NAWXER_clean_sbu_0, # of connection points: 4
#     Node 15, Type 1, BuildingBlock: NAWXER_clean_sbu_0, # of connection points: 4
#     Edge 16, Type (0, 1), BuildingBlock: OJICUG_clean_linker_0, # of connection points: 2
#     Edge 17, Type (0, 1), BuildingBlock: OJICUG_clean_linker_0, # of connection points: 2
#     Edge 18, Type (0, 1), BuildingBlock: OJICUG_clean_linker_0, # of connection points: 2
#     Edge 19, Type (0, 1), BuildingBlock: OJICUG_clean_linker_0, # of connection points: 2
#     Edge 20, Type (0, 1), BuildingBlock: OJICUG_clean_linker_0, # of connection points: 2
#     Edge 21, Type (0, 1), BuildingBlock: OJICUG_clean_linker_0, # of connection points: 2
#     Edge 22, Type (0, 1), BuildingBlock: OJICUG_clean_linker_0, # of connection points: 2
#     Edge 23, Type (0, 1), BuildingBlock: OJICUG_clean_linker_0, # of connection points: 2
#     Edge 24, Type (0, 1), BuildingBlock: OJICUG_clean_linker_0, # of connection points: 2
#     Edge 25, Type (0, 1), BuildingBlock: OJICUG_clean_linker_0, # of connection points: 2
#     Edge 26, Type (0, 1), BuildingBlock: OJICUG_clean_linker_0, # of connection points: 2
#     Edge 27, Type (0, 1), BuildingBlock: OJICUG_clean_linker_0, # of connection points: 2
#     Edge 28, Type (0, 1), BuildingBlock: OJICUG_clean_linker_0, # of connection points: 2
#     Edge 29, Type (0, 1), BuildingBlock: OJICUG_clean_linker_0, # of connection points: 2
#     Edge 30, Type (0, 1), BuildingBlock: OJICUG_clean_linker_0, # of connection points: 2
#     Edge 31, Type (0, 1), BuildingBlock: OJICUG_clean_linker_0, # of connection points: 2
#     Edge 32, Type (0, 1), BuildingBlock: OJICUG_clean_linker_0, # of connection points: 2
#     Edge 33, Type (0, 1), BuildingBlock: OJICUG_clean_linker_0, # of connection points: 2
#     Edge 34, Type (0, 1), BuildingBlock: OJICUG_clean_linker_0, # of connection points: 2
#     Edge 35, Type (0, 1), BuildingBlock: OJICUG_clean_linker_0, # of connection points: 2
#     Edge 36, Type (0, 1), BuildingBlock: OJICUG_clean_linker_0, # of connection points: 2
#     Edge 37, Type (0, 1), BuildingBlock: OJICUG_clean_linker_0, # of connection points: 2
#     Edge 38, Type (0, 1), BuildingBlock: OJICUG_clean_linker_0, # of connection points: 2
#     Edge 39, Type (0, 1), BuildingBlock: OJICUG_clean_linker_0, # of connection points: 2
#     Edge 40, Type (0, 1), BuildingBlock: OJICUG_clean_linker_0, # of connection points: 2
#     Edge 41, Type (0, 1), BuildingBlock: OJICUG_clean_linker_0, # of connection points: 2
#     Edge 42, Type (0, 1), BuildingBlock: OJICUG_clean_linker_0, # of connection points: 2
#     Edge 43, Type (0, 1), BuildingBlock: OJICUG_clean_linker_0, # of connection points: 2
#     Edge 44, Type (0, 1), BuildingBlock: OJICUG_clean_linker_0, # of connection points: 2
#     Edge 45, Type (0, 1), BuildingBlock: OJICUG_clean_linker_0, # of connection points: 2
#     Edge 46, Type (0, 1), BuildingBlock: OJICUG_clean_linker_0, # of connection points: 2
#     Edge 47, Type (0, 1), BuildingBlock: OJICUG_clean_linker_0, # of connection points: 2
# Relax obj value: 0.004
# Max RMSD: 0.056
# Mean RMSD: 0.030
data_MOF--net-ssb--node1-NAWXER_clean_sbu_0--node2-MUDLON_clean_linker_0--edge1-OJICUG_clean_linker_0
_symmetry_space_group_name_H-M    P1
_symmetry_Int_Tables_number       1
_symmetry_cell_setting            triclinic
loop_
_symmetry_equiv_pos_as_xyz
'x, y, z'
_cell_length_a     48.221022
_cell_length_b     48.245149
_cell_length_c     42.169794
_cell_angle_alpha  89.950763
_cell_angle_beta   90.065317
_cell_angle_gamma 89.96349
loop_
_atom_site_label
_atom_site_type_symbol
_atom_site_fract_x
_atom_site_fract_y
_atom_site_fract_z
_atom_type_partial_charge
H0 H 0.26401 0.30338 0.08945 0.0
N1 N 0.28895 0.28761 0.14289 0.0
H2 H 0.25374 0.35082 0.07178 0.0
H3 H 0.29684 0.33571 0.17714 0.0
H4 H 0.28664 0.38259 0.15977 0.0
H5 H 0.33791 0.31624 0.15056 0.0
H6 H 0.38316 0.30253 0.13181 0.0
H7 H 0.30311 0.23967 0.11613 0.0
H8 H 0.34923 0.22461 0.09907 0.0
H9 H 0.24311 0.25906 0.15511 0.0
H10 H 0.31453 0.29528 0.2003 0.0
H11 H 0.22528 0.24465 0.20676 0.0
H12 H 0.29601 0.28331 0.25201 0.0
H13 H 0.16072 0.22754 0.35332 0.0
H14 H 0.12078 0.25116 0.37494 0.0
H15 H 0.17336 0.31887 0.40514 0.0
H16 H 0.21385 0.29377 0.38492 0.0
H17 H 0.24161 0.22954 0.41197 0.0
H18 H 0.24611 0.18329 0.43567 0.0
H19 H 0.19749 0.14877 0.35936 0.0
H20 H 0.19397 0.19505 0.33505 0.0
H21 H 0.18511 0.25099 0.30413 0.0
H22 H 0.20392 0.26037 0.25186 0.0
H23 H 0.28704 0.24988 0.28888 0.0
N24 N 0.21507 0.24336 0.35917 0.0
H25 H 0.2679 0.24294 0.34174 0.0
C26 C 0.28131 0.3157 0.13447 0.0
C27 C 0.26866 0.32059 0.10504 0.0
C28 C 0.26266 0.34765 0.09509 0.0
C29 C 0.26947 0.37041 0.11439 0.0
C30 C 0.28135 0.36547 0.14429 0.0
C31 C 0.28713 0.33848 0.15429 0.0
C32 C 0.31672 0.27922 0.13412 0.0
C33 C 0.33994 0.29629 0.13921 0.0
C34 C 0.36619 0.2881 0.12881 0.0
C35 C 0.3702 0.26231 0.11378 0.0
C36 C 0.34706 0.24482 0.10991 0.0
C37 C 0.32067 0.25329 0.11984 0.0
C38 C 0.27986 0.27852 0.17379 0.0
C39 C 0.25481 0.26406 0.17628 0.0
C40 C 0.24454 0.25613 0.20593 0.0
C41 C 0.25892 0.26301 0.23395 0.0
C42 C 0.28439 0.27716 0.23121 0.0
C43 C 0.29493 0.28445 0.2015 0.0
C44 C 0.19051 0.25857 0.36822 0.0
C45 C 0.1638 0.24741 0.36456 0.0
C46 C 0.14072 0.26135 0.37655 0.0
C47 C 0.14363 0.28708 0.39203 0.0
C48 C 0.17027 0.29892 0.39395 0.0
C49 C 0.19343 0.28472 0.38227 0.0
C50 C 0.21732 0.21575 0.37204 0.0
C51 C 0.23204 0.21196 0.40034 0.0
C52 C 0.23458 0.18563 0.41376 0.0
C53 C 0.22205 0.16258 0.39933 0.0
C54 C 0.20712 0.1663 0.37102 0.0
C55 C 0.20508 0.19266 0.3572 0.0
C56 C 0.22518 0.24687 0.3272 0.0
C57 C 0.20738 0.25095 0.30117 0.0
C58 C 0.21827 0.25597 0.27096 0.0
C59 C 0.24717 0.25622 0.26584 0.0
C60 C 0.26476 0.25077 0.29179 0.0
C61 C 0.25387 0.24648 0.32206 0.0
H62 H 0.69846 0.37054 0.20608 0.0
N63 N 0.71856 0.31941 0.18975 0.0
H64 H 0.70616 0.41351 0.17657 0.0
H65 H 0.75753 0.32835 0.14664 0.0
H66 H 0.76567 0.37131 0.11722 0.0
H67 H 0.70766 0.28788 0.14 0.0
H68 H 0.66237 0.27952 0.11555 0.0
H69 H 0.66847 0.33349 0.21542 0.0
H70 H 0.62294 0.32627 0.19025 0.0
H71 H 0.73356 0.34924 0.24302 0.0
H72 H 0.72406 0.26653 0.20579 0.0
H73 H 0.75186 0.33027 0.29221 0.0
H74 H 0.74048 0.24728 0.25569 0.0
H75 H 0.80733 0.26481 0.44662 0.0
H76 H 0.85522 0.2693 0.46545 0.0
H77 H 0.8843 0.2274 0.38139 0.0
H78 H 0.83665 0.22337 0.36252 0.0
H79 H 0.8065 0.18776 0.37751 0.0
H80 H 0.78861 0.14437 0.39766 0.0
H81 H 0.72559 0.18889 0.44994 0.0
H82 H 0.74498 0.23273 0.43074 0.0
H83 H 0.76089 0.28653 0.38796 0.0
H84 H 0.74228 0.30669 0.33915 0.0
H85 H 0.77996 0.24024 0.28541 0.0
N86 N 0.7895 0.2399 0.39446 0.0
H87 H 0.79642 0.2194 0.33436 0.0
C88 C 0.72743 0.34615 0.1784 0.0
C89 C 0.71355 0.37065 0.18714 0.0
C90 C 0.71784 0.39518 0.17015 0.0
C91 C 0.73628 0.3957 0.14437 0.0
C92 C 0.75147 0.37164 0.13711 0.0
C93 C 0.74698 0.34711 0.15393 0.0
C94 C 0.69136 0.31149 0.17914 0.0
C95 C 0.68916 0.29568 0.15147 0.0
C96 C 0.66335 0.29101 0.13759 0.0
C97 C 0.63927 0.30245 0.15097 0.0
C98 C 0.64129 0.31747 0.17942 0.0
C99 C 0.66718 0.32162 0.19371 0.0
C100 C 0.72742 0.30928 0.22037 0.0
C101 C 0.73496 0.32699 0.24544 0.0
C102 C 0.74534 0.31601 0.27387 0.0
C103 C 0.74797 0.28713 0.2781 0.0
C104 C 0.73957 0.26959 0.25325 0.0
C105 C 0.72976 0.28056 0.22474 0.0
C106 C 0.81818 0.24381 0.40327 0.0
C107 C 0.82408 0.25691 0.43211 0.0
C108 C 0.85141 0.25943 0.44279 0.0
C109 C 0.8735 0.2486 0.42491 0.0
C110 C 0.86767 0.23567 0.39582 0.0
C111 C 0.84031 0.23348 0.38495 0.0
C112 C 0.77739 0.21366 0.40313 0.0
C113 C 0.7888 0.18834 0.39315 0.0
C114 C 0.77818 0.16332 0.40447 0.0
C115 C 0.75556 0.16291 0.42562 0.0
C116 C 0.74329 0.18831 0.43418 0.0
C117 C 0.75421 0.21338 0.42312 0.0
C118 C 0.78034 0.25175 0.36488 0.0
C119 C 0.76511 0.27646 0.36553 0.0
C120 C 0.75466 0.28802 0.33752 0.0
C121 C 0.75954 0.27521 0.30806 0.0
C122 C 0.77525 0.25055 0.30754 0.0
C123 C 0.78522 0.23876 0.33563 0.0
H124 H 0.82778 0.7859 0.37647 0.0
N125 N 0.81574 0.82702 0.33691 0.0
H126 H 0.87164 0.77824 0.40444 0.0
H127 H 0.86505 0.85271 0.32374 0.0
H128 H 0.90885 0.84537 0.35167 0.0
H129 H 0.82483 0.87841 0.31166 0.0
H130 H 0.81662 0.92262 0.33916 0.0
H131 H 0.7849 0.83461 0.38798 0.0
H132 H 0.77586 0.87844 0.41508 0.0
H133 H 0.76466 0.81199 0.32118 0.0
H134 H 0.84683 0.82135 0.28247 0.0
H135 H 0.74861 0.79269 0.271 0.0
H136 H 0.83163 0.80029 0.23316 0.0
H137 H 0.76057 0.69204 0.17198 0.0
H138 H 0.77646 0.64634 0.15584 0.0
H139 H 0.79613 0.67838 0.06287 0.0
H140 H 0.78056 0.72442 0.07947 0.0
H141 H 0.7334 0.77583 0.09572 0.0
H142 H 0.68559 0.77806 0.07631 0.0
H143 H 0.66535 0.70519 0.13118 0.0
H144 H 0.71316 0.70316 0.15052 0.0
H145 H 0.73566 0.72917 0.1934 0.0
H146 H 0.75055 0.75236 0.24163 0.0
H147 H 0.8063 0.80357 0.18658 0.0
N148 N 0.75582 0.73793 0.13342 0.0
H149 H 0.79254 0.77859 0.13868 0.0
C150 C 0.84305 0.81981 0.34816 0.0
C151 C 0.84564 0.79842 0.37038 0.0
C152 C 0.87068 0.79414 0.38632 0.0
C153 C 0.89361 0.8114 0.38042 0.0
C154 C 0.89141 0.83201 0.35701 0.0
C155 C 0.86639 0.83613 0.34091 0.0
C156 C 0.80572 0.85331 0.34816 0.0
C157 C 0.81376 0.87841 0.33397 0.0
C158 C 0.80912 0.90357 0.34969 0.0
C159 C 0.79579 0.90392 0.37935 0.0
C160 C 0.78598 0.87888 0.39216 0.0
C161 C 0.79105 0.85385 0.37674 0.0
C162 C 0.80691 0.81793 0.30591 0.0
C163 C 0.77923 0.80988 0.30181 0.0
C164 C 0.77021 0.79848 0.27316 0.0
C165 C 0.78886 0.79435 0.24794 0.0
C166 C 0.8165 0.80329 0.25178 0.0
C167 C 0.82537 0.81522 0.2803 0.0
C168 C 0.76921 0.71182 0.12678 0.0
C169 C 0.7689 0.68959 0.14841 0.0
C170 C 0.77794 0.66331 0.13909 0.0
C171 C 0.78736 0.65865 0.10799 0.0
C172 C 0.78931 0.68129 0.08711 0.0
C173 C 0.78028 0.70757 0.09646 0.0
C174 C 0.72696 0.73943 0.12444 0.0
C175 C 0.71855 0.76054 0.10378 0.0
C176 C 0.69124 0.76177 0.0928 0.0
C177 C 0.67169 0.74175 0.10219 0.0
C178 C 0.68001 0.72073 0.12327 0.0
C179 C 0.70735 0.71967 0.13449 0.0
C180 C 0.76342 0.75182 0.16242 0.0
C181 C 0.75135 0.74509 0.19173 0.0
C182 C 0.75965 0.7588 0.21936 0.0
C183 C 0.77973 0.78002 0.21828 0.0
C184 C 0.79126 0.78703 0.18867 0.0
C185 C 0.78329 0.77293 0.16117 0.0
H186 H 0.33043 0.77661 0.13548 0.0
N187 N 0.32496 0.73348 0.17424 0.0
H188 H 0.3737 0.79651 0.1159 0.0
H189 H 0.37661 0.72407 0.19912 0.0
H190 H 0.41956 0.7456 0.18222 0.0
H191 H 0.34994 0.71367 0.12145 0.0
H192 H 0.34817 0.6673 0.10003 0.0
H193 H 0.29931 0.68741 0.20076 0.0
H194 H 0.29779 0.64092 0.17894 0.0
H195 H 0.27834 0.76168 0.18275 0.0
H196 H 0.34244 0.71826 0.23383 0.0
H197 H 0.25605 0.77392 0.23282 0.0
H198 H 0.32187 0.73222 0.2839 0.0
H199 H 0.21182 0.83607 0.36748 0.0
H200 H 0.22077 0.88346 0.38371 0.0
H201 H 0.29343 0.85623 0.43523 0.0
H202 H 0.28485 0.80861 0.4175 0.0
H203 H 0.22901 0.76571 0.4371 0.0
H204 H 0.1826 0.7526 0.45534 0.0
H205 H 0.14845 0.77864 0.36537 0.0
H206 H 0.19484 0.79167 0.34739 0.0
H207 H 0.24056 0.81812 0.32569 0.0
H208 H 0.26039 0.80328 0.27592 0.0
H209 H 0.28553 0.72594 0.3193 0.0
N210 N 0.24261 0.79002 0.38276 0.0
H211 H 0.26719 0.74204 0.37006 0.0
C212 C 0.35014 0.74897 0.16877 0.0
C213 C 0.34984 0.7703 0.14623 0.0
C214 C 0.37466 0.78179 0.13525 0.0
C215 C 0.40032 0.77239 0.14708 0.0
C216 C 0.4003 0.7529 0.17197 0.0
C217 C 0.37556 0.7409 0.18226 0.0
C218 C 0.32594 0.70463 0.16386 0.0
C219 C 0.3392 0.69796 0.13503 0.0
C220 C 0.3382 0.67121 0.12259 0.0
C221 C 0.32322 0.65026 0.138 0.0
C222 C 0.30969 0.65661 0.1666 0.0
C223 C 0.31086 0.68342 0.17929 0.0
C224 C 0.31228 0.73961 0.20444 0.0
C225 C 0.28775 0.75509 0.20484 0.0
C226 C 0.27523 0.76227 0.23355 0.0
C227 C 0.28728 0.75443 0.26265 0.0
C228 C 0.31177 0.7385 0.26212 0.0
C229 C 0.32399 0.73094 0.23335 0.0
C230 C 0.24769 0.81858 0.39139 0.0
C231 C 0.2298 0.84016 0.38206 0.0
C232 C 0.2349 0.86739 0.39154 0.0
C233 C 0.25771 0.87376 0.41106 0.0
C234 C 0.27586 0.85222 0.4199 0.0
C235 C 0.27088 0.82495 0.41005 0.0
C236 C 0.21543 0.77984 0.39111 0.0
C237 C 0.21153 0.76812 0.42119 0.0
C238 C 0.18505 0.76048 0.43145 0.0
C239 C 0.16183 0.76464 0.41182 0.0
C240 C 0.1659 0.77539 0.38113 0.0
C241 C 0.19244 0.78284 0.37081 0.0
C242 C 0.25289 0.7814 0.35212 0.0
C243 C 0.25054 0.79811 0.32487 0.0
C244 C 0.26165 0.78934 0.296 0.0
C245 C 0.27476 0.76337 0.29335 0.0
C246 C 0.27623 0.74633 0.32044 0.0
C247 C 0.26555 0.75537 0.34947 0.0
H248 H 0.19627 0.87893 0.70864 0.0
N249 N 0.21654 0.8283 0.69084 0.0
H250 H 0.20472 0.92268 0.68122 0.0
H251 H 0.25617 0.83827 0.64889 0.0
H252 H 0.26474 0.88194 0.62116 0.0
H253 H 0.20892 0.79542 0.64139 0.0
H254 H 0.16524 0.78642 0.6136 0.0
H255 H 0.16504 0.84204 0.7125 0.0
H256 H 0.12119 0.83403 0.68412 0.0
H257 H 0.2103 0.8499 0.75038 0.0
H258 H 0.24325 0.78081 0.698 0.0
H259 H 0.22778 0.82982 0.79972 0.0
H260 H 0.25942 0.75959 0.74721 0.0
H261 H 0.30853 0.78163 0.92947 0.0
H262 H 0.35695 0.7838 0.94672 0.0
H263 H 0.37507 0.71042 0.89182 0.0
H264 H 0.32669 0.70822 0.87511 0.0
H265 H 0.27898 0.69733 0.85589 0.0
H266 H 0.26413 0.6513 0.8732 0.0
H267 H 0.24794 0.6836 0.96691 0.0
H268 H 0.26255 0.72965 0.94923 0.0
H269 H 0.23901 0.77326 0.88581 0.0
H270 H 0.22145 0.79415 0.83691 0.0
H271 H 0.29305 0.76287 0.78662 0.0
N272 N 0.28459 0.74318 0.89371 0.0
H273 H 0.30937 0.74084 0.83492 0.0
C274 C 0.22568 0.85527 0.68074 0.0
C275 C 0.21182 0.87952 0.69024 0.0
C276 C 0.21648 0.90453 0.67432 0.0
C277 C 0.23516 0.90573 0.64879 0.0
C278 C 0.25039 0.88183 0.6409 0.0
C279 C 0.2456 0.85686 0.65672 0.0
C280 C 0.19017 0.81952 0.67867 0.0
C281 C 0.18971 0.80323 0.65126 0.0
C282 C 0.16482 0.79821 0.63545 0.0
C283 C 0.13993 0.80977 0.64662 0.0
C284 C 0.14018 0.82516 0.6749 0.0
C285 C 0.16514 0.82971 0.69109 0.0
C286 C 0.22594 0.81698 0.72048 0.0
C287 C 0.22126 0.83037 0.74951 0.0
C288 C 0.23105 0.81863 0.7778 0.0
C289 C 0.24526 0.79306 0.77763 0.0
C290 C 0.24926 0.77958 0.7484 0.0
C291 C 0.23984 0.79152 0.72022 0.0
C292 C 0.31383 0.74489 0.9011 0.0
C293 C 0.32306 0.76623 0.92093 0.0
C294 C 0.35076 0.76744 0.93065 0.0
C295 C 0.36995 0.74724 0.92067 0.0
C296 C 0.3608 0.72609 0.90027 0.0
C297 C 0.33307 0.72492 0.89054 0.0
C298 C 0.27205 0.7169 0.90147 0.0
C299 C 0.27165 0.69466 0.87994 0.0
C300 C 0.26321 0.66833 0.88989 0.0
C301 C 0.25501 0.66376 0.92149 0.0
C302 C 0.25379 0.68645 0.94234 0.0
C303 C 0.2623 0.71272 0.93238 0.0
C304 C 0.27557 0.75572 0.86433 0.0
C305 C 0.25083 0.77097 0.86415 0.0
C306 C 0.24097 0.78308 0.83618 0.0
C307 C 0.25582 0.78038 0.80764 0.0
C308 C 0.28075 0.7651 0.80792 0.0
C309 C 0.29037 0.75267 0.83581 0.0
H310 H 0.33298 0.28486 0.87175 0.0
N311 N 0.32344 0.32691 0.83264 0.0
H312 H 0.37549 0.27595 0.90186 0.0
H313 H 0.37392 0.35097 0.82151 0.0
H314 H 0.41636 0.34246 0.85169 0.0
H315 H 0.33523 0.3789 0.81078 0.0
H316 H 0.32721 0.4222 0.8402 0.0
H317 H 0.29067 0.3334 0.88231 0.0
H318 H 0.28166 0.37643 0.91113 0.0
H319 H 0.2721 0.31479 0.81499 0.0
H320 H 0.35549 0.32115 0.77896 0.0
H321 H 0.25627 0.2977 0.7637 0.0
H322 H 0.34035 0.3023 0.7284 0.0
H323 H 0.27438 0.20063 0.66553 0.0
H324 H 0.29045 0.15496 0.65005 0.0
H325 H 0.30032 0.18349 0.55358 0.0
H326 H 0.28502 0.22973 0.56956 0.0
H327 H 0.23913 0.28344 0.59111 0.0
H328 H 0.19069 0.28439 0.57367 0.0
H329 H 0.17564 0.20758 0.62342 0.0
H330 H 0.22403 0.20683 0.64087 0.0
H331 H 0.24296 0.23564 0.68458 0.0
H332 H 0.25757 0.25759 0.73363 0.0
H333 H 0.31578 0.3081 0.68116 0.0
N334 N 0.26445 0.24474 0.62529 0.0
H335 H 0.30204 0.2845 0.63227 0.0
C336 C 0.35019 0.31852 0.84453 0.0
C337 C 0.35139 0.29689 0.86661 0.0
C338 C 0.37565 0.29193 0.8838 0.0
C339 C 0.39915 0.30874 0.87933 0.0
C340 C 0.39843 0.32945 0.85592 0.0
C341 C 0.3742 0.33423 0.83854 0.0
C342 C 0.31381 0.353 0.84479 0.0
C343 C 0.32324 0.37836 0.83245 0.0
C344 C 0.31868 0.40298 0.84922 0.0
C345 C 0.30401 0.40256 0.87802 0.0
C346 C 0.29287 0.3774 0.88891 0.0
C347 C 0.2979 0.35285 0.87251 0.0
C348 C 0.31493 0.31905 0.80112 0.0
C349 C 0.28699 0.31251 0.79595 0.0
C350 C 0.27807 0.30239 0.76667 0.0
C351 C 0.29706 0.29805 0.74185 0.0
C352 C 0.325 0.30552 0.74673 0.0
C353 C 0.33381 0.31617 0.77594 0.0
C354 C 0.2783 0.21884 0.61856 0.0
C355 C 0.28071 0.19754 0.64125 0.0
C356 C 0.28984 0.17121 0.63232 0.0
C357 C 0.29639 0.16544 0.60051 0.0
C358 C 0.29577 0.18723 0.57835 0.0
C359 C 0.28683 0.21364 0.58736 0.0
C360 C 0.23533 0.24517 0.61713 0.0
C361 C 0.2253 0.26697 0.59845 0.0
C362 C 0.19763 0.26746 0.58859 0.0
C363 C 0.17935 0.24601 0.59715 0.0
C364 C 0.1893 0.22423 0.61618 0.0
C365 C 0.21697 0.22389 0.6263 0.0
C366 C 0.27169 0.25822 0.65469 0.0
C367 C 0.25894 0.25132 0.68359 0.0
C368 C 0.26717 0.26423 0.71171 0.0
C369 C 0.28792 0.2848 0.71159 0.0
C370 C 0.30015 0.29205 0.68244 0.0
C371 C 0.2922 0.27876 0.6544 0.0
H372 H 0.83431 0.28086 0.64509 0.0
N373 N 0.82531 0.23489 0.67816 0.0
H374 H 0.87882 0.29803 0.62572 0.0
H375 H 0.87632 0.21635 0.69698 0.0
H376 H 0.92091 0.23467 0.68025 0.0
H377 H 0.815 0.22442 0.61765 0.0
H378 H 0.81399 0.17925 0.59111 0.0
H379 H 0.83042 0.18387 0.70715 0.0
H380 H 0.82835 0.1386 0.68079 0.0
H381 H 0.77495 0.25551 0.68751 0.0
H382 H 0.8469 0.22555 0.7377 0.0
H383 H 0.75254 0.26637 0.73813 0.0
H384 H 0.82533 0.23715 0.78792 0.0
H385 H 0.71009 0.33196 0.88872 0.0
H386 H 0.72257 0.37832 0.90448 0.0
H387 H 0.80738 0.35175 0.91909 0.0
H388 H 0.79388 0.30437 0.90575 0.0
H389 H 0.73089 0.26152 0.94319 0.0
H390 H 0.68452 0.24915 0.96242 0.0
H391 H 0.64923 0.27689 0.87373 0.0
H392 H 0.69541 0.28929 0.85483 0.0
H393 H 0.73756 0.31315 0.83207 0.0
H394 H 0.75634 0.2991 0.7808 0.0
H395 H 0.78902 0.2244 0.82356 0.0
N396 N 0.74407 0.28583 0.88858 0.0
H397 H 0.77089 0.23922 0.87504 0.0
C398 C 0.85193 0.24754 0.67259 0.0
C399 C 0.85325 0.27113 0.65331 0.0
C400 C 0.87879 0.28102 0.64247 0.0
C401 C 0.90362 0.26759 0.65108 0.0
C402 C 0.90226 0.24521 0.67252 0.0
C403 C 0.87669 0.23496 0.68268 0.0
C404 C 0.82235 0.20766 0.66438 0.0
C405 C 0.81774 0.20576 0.63162 0.0
C406 C 0.81741 0.18005 0.61649 0.0
C407 C 0.82124 0.15557 0.63396 0.0
C408 C 0.82532 0.15726 0.66689 0.0
C409 C 0.82631 0.18313 0.68197 0.0
C410 C 0.81262 0.23994 0.70859 0.0
C411 C 0.78589 0.2513 0.70944 0.0
C412 C 0.77324 0.25766 0.73836 0.0
C413 C 0.78716 0.25277 0.76717 0.0
C414 C 0.81382 0.2409 0.76627 0.0
C415 C 0.82638 0.23447 0.73735 0.0
C416 C 0.75094 0.31418 0.89678 0.0
C417 C 0.7313 0.33577 0.89567 0.0
C418 C 0.73871 0.36274 0.90422 0.0
C419 C 0.76614 0.36922 0.91313 0.0
C420 C 0.78593 0.34772 0.91312 0.0
C421 C 0.77832 0.32057 0.9053 0.0
C422 C 0.71674 0.27641 0.89773 0.0
C423 C 0.71316 0.2645 0.92778 0.0
C424 C 0.6867 0.2573 0.93861 0.0
C425 C 0.66321 0.2621 0.9196 0.0
C426 C 0.66692 0.27311 0.889 0.0
C427 C 0.69339 0.28011 0.8781 0.0
C428 C 0.75313 0.27727 0.85749 0.0
C429 C 0.74869 0.29372 0.83038 0.0
C430 C 0.75929 0.28553 0.80099 0.0
C431 C 0.77438 0.26067 0.79802 0.0
C432 C 0.77798 0.24391 0.82505 0.0
C433 C 0.76749 0.25219 0.85443 0.0
H434 H 0.75103 0.80839 0.61265 0.0
N435 N 0.79335 0.78823 0.64609 0.0
H436 H 0.74389 0.85624 0.59482 0.0
H437 H 0.82625 0.83311 0.66018 0.0
H438 H 0.81883 0.88077 0.64358 0.0
H439 H 0.84157 0.78747 0.68106 0.0
H440 H 0.88728 0.77368 0.66218 0.0
H441 H 0.80581 0.76441 0.59114 0.0
H442 H 0.85175 0.75077 0.57188 0.0
H443 H 0.76155 0.7445 0.65819 0.0
H444 H 0.80184 0.81361 0.70375 0.0
H445 H 0.74298 0.72954 0.70954 0.0
H446 H 0.78285 0.79948 0.75446 0.0
H447 H 0.66339 0.71741 0.85314 0.0
H448 H 0.62228 0.73982 0.8735 0.0
H449 H 0.67149 0.81095 0.9008 0.0
H450 H 0.71318 0.787 0.88228 0.0
H451 H 0.74386 0.72251 0.91124 0.0
H452 H 0.74992 0.6762 0.93427 0.0
H453 H 0.7034 0.6408 0.85676 0.0
H454 H 0.69818 0.68712 0.83329 0.0
H455 H 0.69041 0.73091 0.80153 0.0
H456 H 0.70947 0.74289 0.7495 0.0
H457 H 0.78754 0.76411 0.7938 0.0
N458 N 0.71693 0.73604 0.85864 0.0
H459 H 0.7679 0.7529 0.84569 0.0
C460 C 0.78915 0.81696 0.63755 0.0
C461 C 0.7658 0.82419 0.61954 0.0
C462 C 0.76166 0.85159 0.60961 0.0
C463 C 0.78085 0.87241 0.61763 0.0
C464 C 0.80387 0.86523 0.63648 0.0
C465 C 0.80806 0.83786 0.6462 0.0
C466 C 0.82011 0.77711 0.63736 0.0
C467 C 0.84338 0.77903 0.65742 0.0
C468 C 0.86962 0.77119 0.64655 0.0
C469 C 0.8732 0.76125 0.61547 0.0
C470 C 0.84969 0.75802 0.59606 0.0
C471 C 0.82347 0.76596 0.60692 0.0
C472 C 0.78296 0.78017 0.67687 0.0
C473 C 0.76628 0.75648 0.67921 0.0
C474 C 0.75558 0.74809 0.70852 0.0
C475 C 0.76142 0.7633 0.73618 0.0
C476 C 0.77825 0.78702 0.73377 0.0
C477 C 0.78899 0.79531 0.70453 0.0
C478 C 0.69162 0.7502 0.86705 0.0
C479 C 0.66549 0.73774 0.86354 0.0
C480 C 0.64171 0.75098 0.87481 0.0
C481 C 0.64331 0.77733 0.88915 0.0
C482 C 0.66936 0.79046 0.89067 0.0
C483 C 0.69323 0.77691 0.87992 0.0
C484 C 0.72047 0.70832 0.87081 0.0
C485 C 0.73514 0.70473 0.89916 0.0
C486 C 0.73859 0.67834 0.9122 0.0
C487 C 0.72705 0.65499 0.89728 0.0
C488 C 0.7123 0.65851 0.86881 0.0
C489 C 0.70932 0.68495 0.85543 0.0
C490 C 0.72777 0.74136 0.82746 0.0
C491 C 0.71162 0.73809 0.79996 0.0
C492 C 0.72263 0.74479 0.77021 0.0
C493 C 0.74999 0.75471 0.76746 0.0
C494 C 0.76623 0.75711 0.79506 0.0
C495 C 0.75517 0.75055 0.82469 0.0
C496 C 0.99503 0.28686 0.56637 0.0
C497 C 0.05258 0.30361 0.4728 0.0
O498 O 0.00259 0.31052 0.55615 0.0
Zn499 Zn 0.0236 0.29693 0.5198 0.0
O500 O 0.00282 0.26492 0.5518 0.0
Zn501 Zn 0.02626 0.25285 0.51144 0.0
O502 O 0.057 0.23205 0.53013 0.0
O503 O 0.05803 0.27664 0.54155 0.0
O504 O 0.0474 0.27802 0.47806 0.0
O505 O 0.04299 0.32217 0.49119 0.0
O506 O 0.99101 0.27986 0.49133 0.0
O507 O 0.99799 0.23493 0.4856 0.0
C508 C 0.06883 0.25244 0.54371 0.0
C509 C 0.98326 0.25635 0.48027 0.0
C510 C 0.80789 0.0572 0.55854 0.0
C511 C 0.79441 0.99315 0.47004 0.0
O512 O 0.82601 0.04827 0.53922 0.0
Zn513 Zn 0.80202 0.02437 0.51457 0.0
O514 O 0.78286 0.04844 0.55648 0.0
Zn515 Zn 0.75912 0.02148 0.52653 0.0
O516 O 0.74667 0.99237 0.55502 0.0
O517 O 0.79165 0.99092 0.54577 0.0
O518 O 0.77208 0.99778 0.48574 0.0
O519 O 0.8169 0.00477 0.47854 0.0
O520 O 0.77564 0.05373 0.49186 0.0
O521 O 0.73258 0.04766 0.50848 0.0
C522 C 0.77007 0.9807 0.55911 0.0
C523 C 0.75003 0.06064 0.49145 0.0
C524 C 0.97754 0.75777 0.5494 0.0
C525 C 0.05678 0.75937 0.47631 0.0
O526 O 0.98619 0.78208 0.54232 0.0
Zn527 Zn 0.01683 0.80147 0.51368 0.0
O528 O 0.98935 0.73663 0.5374 0.0
Zn529 Zn 0.0171 0.7569 0.51273 0.0
O530 O 0.04251 0.7755 0.54847 0.0
O531 O 0.03883 0.82101 0.54496 0.0
O532 O 0.04509 0.73777 0.48735 0.0
O533 O 0.04787 0.78338 0.48433 0.0
O534 O 0.99439 0.8217 0.48337 0.0
O535 O 0.99151 0.77632 0.47772 0.0
C536 C 0.0492 0.79973 0.55832 0.0
C537 C 0.9844 0.80078 0.469 0.0
C538 C 0.28875 0.05988 0.54035 0.0
C539 C 0.27017 0.98183 0.46935 0.0
O540 O 0.3069 0.04648 0.5247 0.0
Zn541 Zn 0.28073 0.02182 0.50362 0.0
O542 O 0.26301 0.05385 0.53738 0.0
Zn543 Zn 0.23705 0.02584 0.51181 0.0
O544 O 0.21945 0.00603 0.54616 0.0
O545 O 0.2645 0.99825 0.5428 0.0
O546 O 0.24829 0.99267 0.48128 0.0
O547 O 0.29367 0.99265 0.47521 0.0
O548 O 0.26001 0.05099 0.47353 0.0
O549 O 0.21548 0.05077 0.48522 0.0
C550 C 0.24113 0.99394 0.55647 0.0
C551 C 0.23547 0.06044 0.46901 0.0
C552 C 0.49104 0.78796 0.06104 0.0
C553 C 0.5504 0.7967 0.9676 0.0
O554 O 0.49908 0.81066 0.0487 0.0
Zn555 Zn 0.52036 0.79399 0.0142 0.0
O556 O 0.49837 0.76489 0.04858 0.0
Zn557 Zn 0.52162 0.74946 0.00971 0.0
O558 O 0.55119 0.72879 0.03079 0.0
O559 O 0.55366 0.77392 0.03863 0.0
O560 O 0.54422 0.77166 0.97473 0.0
O561 O 0.54118 0.81664 0.98427 0.0
O562 O 0.4879 0.77628 0.98603 0.0
O563 O 0.49301 0.73083 0.98516 0.0
C564 C 0.56347 0.74953 0.04309 0.0
C565 C 0.47944 0.75234 0.97704 0.0
C566 C 0.30608 0.55263 0.0616 0.0
C567 C 0.29889 0.48924 0.97162 0.0
O568 O 0.32571 0.54225 0.04538 0.0
Zn569 Zn 0.30334 0.52003 0.01712 0.0
O570 O 0.28099 0.54558 0.05552 0.0
Zn571 Zn 0.25924 0.51971 0.02236 0.0
O572 O 0.24202 0.49116 0.04837 0.0
O573 O 0.28764 0.48779 0.04674 0.0
O574 O 0.27533 0.49535 0.98389 0.0
O575 O 0.32095 0.49928 0.98352 0.0
O576 O 0.28151 0.55077 0.99064 0.0
O577 O 0.23662 0.54714 1.00021 0.0
C578 C 0.26419 0.47871 0.05649 0.0
C579 C 0.2566 0.55912 0.98607 0.0
C580 C 0.55743 0.2556 0.98309 0.0
C581 C 0.47564 0.2512 0.0522 0.0
O582 O 0.54796 0.27928 0.99153 0.0
Zn583 Zn 0.51564 0.29626 0.02007 0.0
O584 O 0.54559 0.23359 0.9928 0.0
Zn585 Zn 0.5165 0.25178 0.01748 0.0
O586 O 0.49218 0.27186 0.98189 0.0
O587 O 0.49415 0.31707 0.98936 0.0
O588 O 0.48798 0.23058 0.03977 0.0
O589 O 0.48423 0.27583 0.04674 0.0
O590 O 0.53642 0.31523 0.0528 0.0
O591 O 0.54051 0.26968 0.05494 0.0
C592 C 0.48511 0.29645 0.97367 0.0
C593 C 0.54664 0.29373 0.06583 0.0
C594 C 0.78761 0.55414 0.04366 0.0
C595 C 0.78099 0.4771 0.96859 0.0
O596 O 0.8079 0.54211 0.03012 0.0
Zn597 Zn 0.78556 0.51625 0.0055 0.0
O598 O 0.76273 0.54652 0.03749 0.0
Zn599 Zn 0.74122 0.51728 0.00838 0.0
O600 O 0.72222 0.49511 0.04002 0.0
O601 O 0.76775 0.49075 0.04173 0.0
O602 O 0.75734 0.48628 0.97752 0.0
O603 O 0.80307 0.48844 0.97875 0.0
O604 O 0.76563 0.54459 0.97353 0.0
O605 O 0.72039 0.5415 0.98034 0.0
C606 C 0.74373 0.48434 0.05247 0.0
C607 C 0.74101 0.55263 0.96653 0.0
C608 C 0.12306 0.31212 0.43889 0.0
C609 C 0.11946 0.29955 0.409 0.0
H610 H 0.10379 0.32443 0.48248 0.0
C611 C 0.09225 0.29533 0.39784 0.0
H612 H 0.14357 0.31559 0.44855 0.0
C613 C 0.06953 0.29993 0.41769 0.0
C614 C 0.0735 0.30983 0.4486 0.0
H615 H 0.08852 0.28657 0.37459 0.0
H616 H 0.04907 0.29369 0.40979 0.0
C617 C 0.10021 0.31738 0.45842 0.0
C618 C 0.74934 0.11107 0.42432 0.0
C619 C 0.74685 0.13633 0.44079 0.0
H620 H 0.75208 0.06681 0.42786 0.0
C621 C 0.73939 0.13556 0.4731 0.0
H622 H 0.75427 0.11075 0.39928 0.0
C623 C 0.73705 0.11024 0.48909 0.0
C624 C 0.74238 0.08535 0.47315 0.0
H625 H 0.73754 0.15445 0.48676 0.0
H626 H 0.73364 0.11028 0.51449 0.0
C627 C 0.7476 0.08585 0.44048 0.0
C628 C 0.93135 0.83276 0.4134 0.0
C629 C 0.91895 0.809 0.40025 0.0
H630 H 0.9618 0.84891 0.44553 0.0
C631 C 0.92969 0.78283 0.40804 0.0
H632 H 0.92334 0.85322 0.40803 0.0
C633 C 0.95163 0.78036 0.42945 0.0
C634 C 0.96327 0.80401 0.44374 0.0
H635 H 0.92079 0.76419 0.39798 0.0
H636 H 0.95893 0.75978 0.43544 0.0
C637 C 0.95328 0.83029 0.435 0.0
C638 C 0.28792 0.91409 0.42786 0.0
C639 C 0.2614 0.90239 0.42369 0.0
H640 H 0.31165 0.94858 0.44523 0.0
C641 C 0.23809 0.91791 0.43286 0.0
H642 H 0.30633 0.90287 0.42072 0.0
C643 C 0.24112 0.94407 0.44639 0.0
C644 C 0.26757 0.95549 0.45146 0.0
H645 H 0.21736 0.9095 0.43061 0.0
H646 H 0.22257 0.95499 0.45373 0.0
C647 C 0.29098 0.9404 0.44162 0.0
C648 C 0.09913 0.83055 0.61839 0.0
C649 C 0.11437 0.80698 0.62745 0.0
H650 H 0.06656 0.84688 0.58912 0.0
C651 C 0.10663 0.78098 0.61554 0.0
H652 H 0.10487 0.85088 0.62708 0.0
C653 C 0.08475 0.77866 0.59407 0.0
C654 C 0.07029 0.80234 0.58369 0.0
H655 H 0.11797 0.7625 0.6223 0.0
H656 H 0.07982 0.75831 0.58481 0.0
C657 C 0.07735 0.82828 0.59654 0.0
C658 C 0.28071 0.11619 0.60071 0.0
C659 C 0.29935 0.13632 0.58952 0.0
H660 H 0.2632 0.07598 0.59403 0.0
C661 C 0.31788 0.12911 0.56507 0.0
H662 H 0.26591 0.12102 0.61921 0.0
C663 C 0.31633 0.10299 0.5506 0.0
C664 C 0.29601 0.08393 0.56019 0.0
H665 H 0.33265 0.14411 0.55614 0.0
H666 H 0.32956 0.09853 0.5305 0.0
C667 C 0.27901 0.09037 0.58615 0.0
C668 C 0.93618 0.3012 0.6237 0.0
C669 C 0.93003 0.27415 0.63426 0.0
H670 H 0.96188 0.32672 0.59403 0.0
C671 C 0.94791 0.25245 0.62549 0.0
H672 H 0.92316 0.31852 0.63041 0.0
C673 C 0.97016 0.25724 0.60525 0.0
C674 C 0.9751 0.2838 0.59281 0.0
H675 H 0.94384 0.23126 0.63254 0.0
H676 H 0.98265 0.23967 0.59804 0.0
C677 C 0.95852 0.30599 0.60312 0.0
C678 C 0.75169 0.91385 0.6021 0.0
C679 C 0.77787 0.90109 0.6049 0.0
H680 H 0.7286 0.94916 0.5858 0.0
C681 C 0.80136 0.91558 0.59423 0.0
H682 H 0.7332 0.90342 0.61042 0.0
C683 C 0.79876 0.94177 0.58049 0.0
C684 C 0.77258 0.95423 0.57685 0.0
H685 H 0.82179 0.90633 0.5955 0.0
H686 H 0.81734 0.95192 0.57194 0.0
C687 C 0.74907 0.94016 0.58824 0.0
C688 C 0.90782 0.73516 0.5818 0.0
C689 C 0.90149 0.75746 0.6021 0.0
H690 H 0.93738 0.71729 0.54958 0.0
C691 C 0.92173 0.77786 0.60739 0.0
H692 H 0.89268 0.71904 0.57743 0.0
C693 C 0.94702 0.77691 0.59146 0.0
C694 C 0.95289 0.75541 0.57004 0.0
H695 H 0.91748 0.79547 0.62255 0.0
H696 H 0.96165 0.79366 0.59507 0.0
C697 C 0.93345 0.73402 0.56608 0.0
C698 C 0.26265 0.93964 0.61649 0.0
C699 C 0.23697 0.93081 0.62844 0.0
H700 H 0.28411 0.96661 0.58473 0.0
C701 C 0.21272 0.94457 0.61848 0.0
H702 H 0.28171 0.92971 0.62401 0.0
C703 C 0.21404 0.96581 0.59592 0.0
C704 C 0.23964 0.97372 0.58288 0.0
H705 H 0.19256 0.93805 0.62698 0.0
H706 H 0.19493 0.97533 0.58791 0.0
C707 C 0.26398 0.96085 0.59401 0.0
C708 C 0.13497 0.27139 0.5869 0.0
C709 C 0.15008 0.24655 0.58597 0.0
H710 H 0.0976 0.29255 0.57487 0.0
C711 C 0.13742 0.22278 0.57309 0.0
H712 H 0.14394 0.28993 0.59715 0.0
C713 C 0.11062 0.22423 0.56017 0.0
C714 C 0.09595 0.24943 0.56011 0.0
H715 H 0.14862 0.20334 0.57195 0.0
H716 H 0.10174 0.20585 0.54948 0.0
C717 C 0.10829 0.27281 0.57422 0.0
C718 C 0.80078 0.10845 0.62594 0.0
C719 C 0.82052 0.12849 0.61751 0.0
H720 H 0.78125 0.07002 0.61369 0.0
C721 C 0.83808 0.12345 0.59158 0.0
H722 H 0.78696 0.11196 0.64577 0.0
C723 C 0.83526 0.09924 0.57362 0.0
C724 C 0.81437 0.07996 0.58085 0.0
H725 H 0.85351 0.13863 0.58472 0.0
H726 H 0.8484 0.0964 0.55306 0.0
C727 C 0.79753 0.08454 0.60756 0.0
C728 C 0.92023 0.22762 0.43691 0.0
C729 C 0.90243 0.25075 0.43687 0.0
H730 H 0.95978 0.21107 0.45081 0.0
C731 C 0.91207 0.27587 0.44945 0.0
H732 H 0.91328 0.20793 0.42748 0.0
C733 C 0.93861 0.27773 0.46251 0.0
C734 C 0.95617 0.25443 0.46362 0.0
H735 H 0.89897 0.29412 0.44939 0.0
H736 H 0.94506 0.2974 0.47244 0.0
C737 C 0.94681 0.22939 0.45034 0.0
C738 C 0.81819 0.94567 0.4037 0.0
C739 C 0.79431 0.92958 0.39861 0.0
H740 H 0.83709 0.9784 0.43042 0.0
C741 C 0.76989 0.9363 0.41499 0.0
H742 H 0.83739 0.94077 0.39161 0.0
C743 C 0.7697 0.95777 0.43716 0.0
C744 C 0.79399 0.97288 0.44366 0.0
H745 H 0.75113 0.92437 0.41135 0.0
H746 H 0.75069 0.9618 0.45005 0.0
C747 C 0.81808 0.96707 0.4261 0.0
C748 C 0.11339 0.7815 0.42019 0.0
C749 C 0.13338 0.76067 0.42461 0.0
H750 H 0.07349 0.79719 0.43293 0.0
C751 C 0.12665 0.7376 0.44358 0.0
H752 H 0.11797 0.79967 0.40603 0.0
C753 C 0.10088 0.73605 0.45891 0.0
C754 C 0.08166 0.7578 0.45592 0.0
H755 H 0.1416 0.72113 0.44724 0.0
H756 H 0.09664 0.71865 0.47441 0.0
C757 C 0.08794 0.78015 0.43579 0.0
C758 C 0.25162 0.12467 0.42108 0.0
C759 C 0.22509 0.13482 0.41393 0.0
H760 H 0.27564 0.09301 0.44335 0.0
C761 C 0.20174 0.11916 0.42266 0.0
H762 H 0.26992 0.13631 0.41441 0.0
C763 C 0.20493 0.09438 0.43973 0.0
C764 C 0.23154 0.08467 0.44779 0.0
H765 H 0.18106 0.12667 0.41745 0.0
H766 H 0.18659 0.08323 0.44726 0.0
C767 C 0.25483 0.09978 0.43755 0.0
C768 C 0.62132 0.8041 0.93395 0.0
C769 C 0.61846 0.78944 0.9052 0.0
H770 H 0.60121 0.81896 0.97598 0.0
C771 C 0.59151 0.78332 0.89434 0.0
H772 H 0.64158 0.80906 0.94343 0.0
C773 C 0.56848 0.78847 0.91353 0.0
C774 C 0.57179 0.80084 0.94335 0.0
H775 H 0.58826 0.77294 0.8719 0.0
H776 H 0.5483 0.78107 0.90602 0.0
C777 C 0.59813 0.80994 0.95271 0.0
C778 C 0.231 0.6286 0.9563 0.0
C779 C 0.25166 0.63513 0.93392 0.0
H780 H 0.21591 0.59886 0.99012 0.0
C781 C 0.27147 0.61491 0.92617 0.0
H782 H 0.21535 0.64373 0.96258 0.0
C783 C 0.27185 0.58953 0.94193 0.0
C784 C 0.25229 0.5836 0.96563 0.0
H785 H 0.28785 0.61931 0.90934 0.0
H786 H 0.28828 0.57495 0.9365 0.0
C787 C 0.23118 0.6029 0.97188 0.0
C788 C 0.43342 0.27958 0.90898 0.0
C789 C 0.42339 0.30591 0.90076 0.0
H790 H 0.46094 0.25599 0.93807 0.0
C791 C 0.43526 0.32944 0.91506 0.0
H792 H 0.42488 0.26112 0.89811 0.0
C793 C 0.45595 0.32657 0.93814 0.0
C794 C 0.46523 0.30012 0.94721 0.0
H795 H 0.42773 0.35002 0.90939 0.0
H796 H 0.46408 0.345 0.94946 0.0
C797 C 0.45416 0.27671 0.93185 0.0
C798 C 0.75897 0.42111 0.91187 0.0
C799 C 0.77351 0.39794 0.92369 0.0
H800 H 0.74992 0.4644 0.91702 0.0
C801 C 0.79373 0.4024 0.94737 0.0
H802 H 0.74397 0.41896 0.89292 0.0
C803 C 0.79801 0.42888 0.96007 0.0
C804 C 0.78177 0.45131 0.94991 0.0
H805 H 0.80522 0.38527 0.9575 0.0
H806 H 0.81255 0.43136 0.97948 0.0
C807 C 0.76267 0.44734 0.92525 0.0
C808 C 0.59769 0.3238 0.12505 0.0
C809 C 0.61268 0.29999 0.13375 0.0
H810 H 0.56492 0.34062 0.09646 0.0
C811 C 0.60393 0.27404 0.12266 0.0
H812 H 0.60421 0.34408 0.13317 0.0
C813 C 0.58149 0.27201 0.10194 0.0
C814 C 0.5675 0.29595 0.09149 0.0
H815 H 0.6151 0.25539 0.12919 0.0
H816 H 0.57593 0.2517 0.09304 0.0
C817 C 0.57534 0.32183 0.10393 0.0
C818 C 0.81255 0.62332 0.07451 0.0
C819 C 0.79118 0.62995 0.09596 0.0
H820 H 0.82864 0.59351 0.04144 0.0
C821 C 0.77118 0.60973 0.10307 0.0
H822 H 0.82836 0.63844 0.06875 0.0
C823 C 0.77132 0.58429 0.08747 0.0
C824 C 0.79158 0.57831 0.06459 0.0
H825 H 0.75426 0.61418 0.11916 0.0
H826 H 0.75471 0.56976 0.09225 0.0
C827 C 0.81286 0.59757 0.0591 0.0
C828 C 0.43057 0.80495 0.11494 0.0
C829 C 0.42659 0.77919 0.13011 0.0
H830 H 0.45452 0.82827 0.0812 0.0
C831 C 0.44654 0.75829 0.12563 0.0
H832 H 0.41588 0.82167 0.11821 0.0
C833 C 0.46865 0.76223 0.10497 0.0
C834 C 0.47141 0.78707 0.08791 0.0
H835 H 0.44422 0.73802 0.13632 0.0
H836 H 0.48276 0.74509 0.10104 0.0
C837 C 0.45285 0.80887 0.094 0.0
C838 C 0.24227 0.40794 0.08656 0.0
C839 C 0.26646 0.39922 0.10237 0.0
H840 H 0.2222 0.44043 0.06025 0.0
C841 C 0.28871 0.41782 0.10525 0.0
H842 H 0.22474 0.39407 0.08417 0.0
C843 C 0.28733 0.44409 0.09149 0.0
C844 C 0.26354 0.45257 0.07484 0.0
H845 H 0.30772 0.41165 0.11702 0.0
H846 H 0.30527 0.45753 0.09319 0.0
C847 C 0.24072 0.43452 0.07316 0.0
C848 C 0.40056 0.23957 0.07228 0.0
C849 C 0.39807 0.25467 0.10079 0.0
H850 H 0.42755 0.22589 0.03489 0.0
C851 C 0.42249 0.26447 0.11534 0.0
H852 H 0.38238 0.23189 0.06006 0.0
C853 C 0.44817 0.26158 0.1004 0.0
C854 C 0.45025 0.24794 0.07117 0.0
H855 H 0.42174 0.27537 0.13775 0.0
H856 H 0.4663 0.271 0.1111 0.0
C857 C 0.42647 0.23605 0.05776 0.0
C858 C 0.71408 0.43388 0.1127 0.0
C859 C 0.73822 0.42042 0.1235 0.0
H860 H 0.69677 0.4646 0.08165 0.0
C861 C 0.76408 0.42941 0.11229 0.0
H862 H 0.69381 0.42721 0.12069 0.0
C863 C 0.76577 0.45072 0.08998 0.0
C864 C 0.74161 0.46348 0.07818 0.0
H865 H 0.78304 0.41963 0.12041 0.0
H866 H 0.78609 0.4567 0.08144 0.0
C867 C 0.71575 0.45517 0.09019 0.0
C868 C 0.62898 0.76838 0.08762 0.0
C869 C 0.64288 0.74288 0.0896 0.0
H870 H 0.59312 0.79035 0.07192 0.0
C871 C 0.62956 0.71893 0.07813 0.0
H872 H 0.63845 0.78712 0.09671 0.0
C873 C 0.60334 0.72072 0.06378 0.0
C874 C 0.58992 0.74648 0.06082 0.0
H875 H 0.63983 0.69898 0.07921 0.0
H876 H 0.59396 0.7021 0.05429 0.0
C877 C 0.60287 0.77016 0.07349 0.0
C878 C 0.34226 0.61007 0.10684 0.0
C879 C 0.31986 0.62275 0.12254 0.0
H880 H 0.35563 0.57775 0.07559 0.0
C881 C 0.29359 0.61027 0.12078 0.0
H882 H 0.36284 0.61898 0.10811 0.0
C883 C 0.28947 0.58662 0.10224 0.0
C884 C 0.31153 0.57486 0.08507 0.0
H885 H 0.27585 0.6196 0.13234 0.0
H886 H 0.26869 0.57826 0.10037 0.0
C887 C 0.33815 0.58635 0.08834 0.0
C888 C 0.41286 0.72354 0.94175 0.0
C889 C 0.39914 0.74797 0.93229 0.0
H890 H 0.44908 0.70562 0.9632 0.0
C891 C 0.4131 0.77338 0.93535 0.0
H892 H 0.40264 0.70362 0.93993 0.0
C893 C 0.43956 0.77452 0.94876 0.0
C894 C 0.45286 0.75027 0.95943 0.0
H895 H 0.40342 0.79252 0.92772 0.0
H896 H 0.44934 0.7946 0.95137 0.0
C897 C 0.43946 0.72467 0.95516 0.0
C898 C 0.32619 0.44226 0.90661 0.0
C899 C 0.30213 0.42749 0.89833 0.0
H900 H 0.34417 0.47334 0.93656 0.0
C901 C 0.27681 0.43473 0.9124 0.0
H902 H 0.34604 0.43686 0.8963 0.0
C903 C 0.27571 0.45555 0.9353 0.0
C904 C 0.29997 0.46939 0.9449 0.0
H905 H 0.25796 0.42374 0.9063 0.0
H906 H 0.2559 0.46007 0.94625 0.0
C907 C 0.32516 0.46296 0.92982 0.0
C908 C 0.62791 0.23476 0.95092 0.0
C909 C 0.63487 0.25829 0.93281 0.0
H910 H 0.59749 0.21503 0.98057 0.0
C911 C 0.6151 0.27944 0.9292 0.0
H912 H 0.64271 0.21806 0.95397 0.0
C913 C 0.58953 0.27779 0.9445 0.0
C914 C 0.58288 0.2548 0.96351 0.0
H915 H 0.61988 0.29795 0.91572 0.0
H916 H 0.57519 0.29497 0.94211 0.0
C917 C 0.602 0.23291 0.96592 0.0
C918 C 0.75706 0.61815 0.92084 0.0
C919 C 0.73057 0.6272 0.91174 0.0
H920 H 0.78113 0.58733 0.94456 0.0
C921 C 0.70753 0.61033 0.91835 0.0
H922 H 0.77518 0.63068 0.91579 0.0
C923 C 0.71083 0.58549 0.93525 0.0
C924 C 0.7373 0.57691 0.94532 0.0
H925 H 0.68687 0.61693 0.91163 0.0
H926 H 0.69262 0.5734 0.9411 0.0
C927 C 0.76042 0.59322 0.9372 0.0
loop_
_geom_bond_atom_site_label_1
_geom_bond_atom_site_label_2
_geom_bond_distance
_geom_bond_site_symmetry_2
_ccdc_geom_bond_type
H0 C27 0.929 . S
N1 C26 1.433 . S
N1 C32 1.435 . S
N1 C38 1.423 . S
H2 C28 0.930 . S
H3 C31 0.931 . S
H4 C30 0.929 . S
H5 C33 0.930 . S
H6 C34 0.932 . S
H7 C37 0.929 . S
H8 C36 0.931 . S
H9 C39 0.929 . S
H10 C43 0.932 . S
H11 C40 0.931 . S
H12 C42 0.929 . S
H13 C45 0.929 . S
H14 C46 0.930 . S
H15 C48 0.929 . S
H16 C49 0.931 . S
H17 C51 0.930 . S
H18 C52 0.932 . S
H19 C54 0.931 . S
H20 C55 0.929 . S
H21 C57 0.929 . S
H22 C58 0.931 . S
H23 C60 0.929 . S
N24 C44 1.433 . S
N24 C50 1.435 . S
N24 C56 1.423 . S
H25 C61 0.932 . S
C26 N1 1.433 . S
C26 C27 1.363 . S
C26 C31 1.370 . S
C27 H0 0.929 . S
C27 C26 1.363 . S
C27 C28 1.385 . S
C28 H2 0.930 . S
C28 C27 1.385 . S
C28 C29 1.357 . S
C29 C28 1.357 . S
C29 C30 1.406 . S
C30 H4 0.929 . S
C30 C29 1.406 . S
C30 C31 1.391 . S
C31 H3 0.931 . S
C31 C26 1.370 . S
C31 C30 1.391 . S
C32 N1 1.435 . S
C32 C33 1.358 . S
C32 C37 1.371 . S
C33 H5 0.930 . S
C33 C32 1.358 . S
C33 C34 1.405 . S
C34 H6 0.932 . S
C34 C33 1.405 . S
C34 C35 1.383 . S
C35 C34 1.383 . S
C35 C36 1.393 . S
C36 H8 0.931 . S
C36 C35 1.393 . S
C36 C37 1.382 . S
C37 H7 0.929 . S
C37 C32 1.371 . S
C37 C36 1.382 . S
C38 N1 1.423 . S
C38 C39 1.362 . S
C38 C43 1.388 . S
C39 H9 0.929 . S
C39 C38 1.362 . S
C39 C40 1.376 . S
C40 H11 0.931 . S
C40 C39 1.376 . S
C40 C41 1.396 . S
C41 C40 1.396 . S
C41 C42 1.348 . S
C41 C59 1.472 . S
C42 H12 0.929 . S
C42 C41 1.348 . S
C42 C43 1.443 . S
C43 H10 0.932 . S
C43 C38 1.388 . S
C43 C42 1.443 . S
C44 N24 1.433 . S
C44 C45 1.363 . S
C44 C49 1.370 . S
C45 H13 0.929 . S
C45 C44 1.363 . S
C45 C46 1.385 . S
C46 H14 0.930 . S
C46 C45 1.385 . S
C46 C47 1.357 . S
C47 C46 1.357 . S
C47 C48 1.406 . S
C48 H15 0.929 . S
C48 C47 1.406 . S
C48 C49 1.391 . S
C49 H16 0.931 . S
C49 C44 1.370 . S
C49 C48 1.391 . S
C50 N24 1.435 . S
C50 C51 1.358 . S
C50 C55 1.371 . S
C51 H17 0.930 . S
C51 C50 1.358 . S
C51 C52 1.405 . S
C52 H18 0.932 . S
C52 C51 1.405 . S
C52 C53 1.383 . S
C53 C52 1.383 . S
C53 C54 1.393 . S
C54 H19 0.931 . S
C54 C53 1.393 . S
C54 C55 1.382 . S
C55 H20 0.929 . S
C55 C50 1.371 . S
C55 C54 1.382 . S
C56 N24 1.423 . S
C56 C57 1.362 . S
C56 C61 1.388 . S
C57 H21 0.929 . S
C57 C56 1.362 . S
C57 C58 1.376 . S
C58 H22 0.931 . S
C58 C57 1.376 . S
C58 C59 1.396 . S
C59 C41 1.472 . S
C59 C58 1.396 . S
C59 C60 1.348 . S
C60 H23 0.929 . S
C60 C59 1.348 . S
C60 C61 1.443 . S
C61 H25 0.932 . S
C61 C56 1.388 . S
C61 C60 1.443 . S
H62 C89 0.929 . S
N63 C88 1.433 . S
N63 C94 1.435 . S
N63 C100 1.423 . S
H64 C90 0.930 . S
H65 C93 0.931 . S
H66 C92 0.929 . S
H67 C95 0.930 . S
H68 C96 0.932 . S
H69 C99 0.929 . S
H70 C98 0.931 . S
H71 C101 0.929 . S
H72 C105 0.932 . S
H73 C102 0.931 . S
H74 C104 0.929 . S
H75 C107 0.929 . S
H76 C108 0.930 . S
H77 C110 0.929 . S
H78 C111 0.931 . S
H79 C113 0.930 . S
H80 C114 0.932 . S
H81 C116 0.931 . S
H82 C117 0.929 . S
H83 C119 0.929 . S
H84 C120 0.931 . S
H85 C122 0.929 . S
N86 C106 1.433 . S
N86 C112 1.435 . S
N86 C118 1.423 . S
H87 C123 0.932 . S
C88 N63 1.433 . S
C88 C89 1.363 . S
C88 C93 1.370 . S
C89 H62 0.929 . S
C89 C88 1.363 . S
C89 C90 1.385 . S
C90 H64 0.930 . S
C90 C89 1.385 . S
C90 C91 1.357 . S
C91 C90 1.357 . S
C91 C92 1.406 . S
C92 H66 0.929 . S
C92 C91 1.406 . S
C92 C93 1.391 . S
C93 H65 0.931 . S
C93 C88 1.370 . S
C93 C92 1.391 . S
C94 N63 1.435 . S
C94 C95 1.358 . S
C94 C99 1.371 . S
C95 H67 0.930 . S
C95 C94 1.358 . S
C95 C96 1.405 . S
C96 H68 0.932 . S
C96 C95 1.405 . S
C96 C97 1.383 . S
C97 C96 1.383 . S
C97 C98 1.393 . S
C98 H70 0.931 . S
C98 C97 1.393 . S
C98 C99 1.382 . S
C99 H69 0.929 . S
C99 C94 1.371 . S
C99 C98 1.382 . S
C100 N63 1.423 . S
C100 C101 1.362 . S
C100 C105 1.388 . S
C101 H71 0.929 . S
C101 C100 1.362 . S
C101 C102 1.376 . S
C102 H73 0.931 . S
C102 C101 1.376 . S
C102 C103 1.396 . S
C103 C102 1.396 . S
C103 C104 1.348 . S
C103 C121 1.472 . S
C104 H74 0.929 . S
C104 C103 1.348 . S
C104 C105 1.443 . S
C105 H72 0.932 . S
C105 C100 1.388 . S
C105 C104 1.443 . S
C106 N86 1.433 . S
C106 C107 1.363 . S
C106 C111 1.370 . S
C107 H75 0.929 . S
C107 C106 1.363 . S
C107 C108 1.385 . S
C108 H76 0.930 . S
C108 C107 1.385 . S
C108 C109 1.357 . S
C109 C108 1.357 . S
C109 C110 1.406 . S
C110 H77 0.929 . S
C110 C109 1.406 . S
C110 C111 1.391 . S
C111 H78 0.931 . S
C111 C106 1.370 . S
C111 C110 1.391 . S
C112 N86 1.435 . S
C112 C113 1.358 . S
C112 C117 1.371 . S
C113 H79 0.930 . S
C113 C112 1.358 . S
C113 C114 1.405 . S
C114 H80 0.932 . S
C114 C113 1.405 . S
C114 C115 1.383 . S
C115 C114 1.383 . S
C115 C116 1.393 . S
C116 H81 0.931 . S
C116 C115 1.393 . S
C116 C117 1.382 . S
C117 H82 0.929 . S
C117 C112 1.371 . S
C117 C116 1.382 . S
C118 N86 1.423 . S
C118 C119 1.362 . S
C118 C123 1.388 . S
C119 H83 0.929 . S
C119 C118 1.362 . S
C119 C120 1.376 . S
C120 H84 0.931 . S
C120 C119 1.376 . S
C120 C121 1.396 . S
C121 C103 1.472 . S
C121 C120 1.396 . S
C121 C122 1.348 . S
C122 H85 0.929 . S
C122 C121 1.348 . S
C122 C123 1.443 . S
C123 H87 0.932 . S
C123 C118 1.388 . S
C123 C122 1.443 . S
H124 C151 0.929 . S
N125 C150 1.433 . S
N125 C156 1.435 . S
N125 C162 1.423 . S
H126 C152 0.930 . S
H127 C155 0.931 . S
H128 C154 0.929 . S
H129 C157 0.930 . S
H130 C158 0.932 . S
H131 C161 0.929 . S
H132 C160 0.931 . S
H133 C163 0.929 . S
H134 C167 0.932 . S
H135 C164 0.931 . S
H136 C166 0.929 . S
H137 C169 0.929 . S
H138 C170 0.930 . S
H139 C172 0.929 . S
H140 C173 0.931 . S
H141 C175 0.930 . S
H142 C176 0.932 . S
H143 C178 0.931 . S
H144 C179 0.929 . S
H145 C181 0.929 . S
H146 C182 0.931 . S
H147 C184 0.929 . S
N148 C168 1.433 . S
N148 C174 1.435 . S
N148 C180 1.423 . S
H149 C185 0.932 . S
C150 N125 1.433 . S
C150 C151 1.363 . S
C150 C155 1.370 . S
C151 H124 0.929 . S
C151 C150 1.363 . S
C151 C152 1.385 . S
C152 H126 0.930 . S
C152 C151 1.385 . S
C152 C153 1.357 . S
C153 C152 1.357 . S
C153 C154 1.406 . S
C154 H128 0.929 . S
C154 C153 1.406 . S
C154 C155 1.391 . S
C155 H127 0.931 . S
C155 C150 1.370 . S
C155 C154 1.391 . S
C156 N125 1.435 . S
C156 C157 1.358 . S
C156 C161 1.371 . S
C157 H129 0.930 . S
C157 C156 1.358 . S
C157 C158 1.405 . S
C158 H130 0.932 . S
C158 C157 1.405 . S
C158 C159 1.383 . S
C159 C158 1.383 . S
C159 C160 1.393 . S
C160 H132 0.931 . S
C160 C159 1.393 . S
C160 C161 1.382 . S
C161 H131 0.929 . S
C161 C156 1.371 . S
C161 C160 1.382 . S
C162 N125 1.423 . S
C162 C163 1.362 . S
C162 C167 1.388 . S
C163 H133 0.929 . S
C163 C162 1.362 . S
C163 C164 1.376 . S
C164 H135 0.931 . S
C164 C163 1.376 . S
C164 C165 1.396 . S
C165 C164 1.396 . S
C165 C166 1.348 . S
C165 C183 1.472 . S
C166 H136 0.929 . S
C166 C165 1.348 . S
C166 C167 1.443 . S
C167 H134 0.932 . S
C167 C162 1.388 . S
C167 C166 1.443 . S
C168 N148 1.433 . S
C168 C169 1.363 . S
C168 C173 1.370 . S
C169 H137 0.929 . S
C169 C168 1.363 . S
C169 C170 1.385 . S
C170 H138 0.930 . S
C170 C169 1.385 . S
C170 C171 1.357 . S
C171 C170 1.357 . S
C171 C172 1.406 . S
C172 H139 0.929 . S
C172 C171 1.406 . S
C172 C173 1.391 . S
C173 H140 0.931 . S
C173 C168 1.370 . S
C173 C172 1.391 . S
C174 N148 1.435 . S
C174 C175 1.358 . S
C174 C179 1.371 . S
C175 H141 0.930 . S
C175 C174 1.358 . S
C175 C176 1.405 . S
C176 H142 0.932 . S
C176 C175 1.405 . S
C176 C177 1.383 . S
C177 C176 1.383 . S
C177 C178 1.393 . S
C178 H143 0.931 . S
C178 C177 1.393 . S
C178 C179 1.382 . S
C179 H144 0.929 . S
C179 C174 1.371 . S
C179 C178 1.382 . S
C180 N148 1.423 . S
C180 C181 1.362 . S
C180 C185 1.388 . S
C181 H145 0.929 . S
C181 C180 1.362 . S
C181 C182 1.376 . S
C182 H146 0.931 . S
C182 C181 1.376 . S
C182 C183 1.396 . S
C183 C165 1.472 . S
C183 C182 1.396 . S
C183 C184 1.348 . S
C184 H147 0.929 . S
C184 C183 1.348 . S
C184 C185 1.443 . S
C185 H149 0.932 . S
C185 C180 1.388 . S
C185 C184 1.443 . S
H186 C213 0.929 . S
N187 C212 1.433 . S
N187 C218 1.435 . S
N187 C224 1.423 . S
H188 C214 0.930 . S
H189 C217 0.931 . S
H190 C216 0.929 . S
H191 C219 0.930 . S
H192 C220 0.932 . S
H193 C223 0.929 . S
H194 C222 0.931 . S
H195 C225 0.929 . S
H196 C229 0.932 . S
H197 C226 0.931 . S
H198 C228 0.929 . S
H199 C231 0.929 . S
H200 C232 0.930 . S
H201 C234 0.929 . S
H202 C235 0.931 . S
H203 C237 0.930 . S
H204 C238 0.932 . S
H205 C240 0.931 . S
H206 C241 0.929 . S
H207 C243 0.929 . S
H208 C244 0.931 . S
H209 C246 0.929 . S
N210 C230 1.433 . S
N210 C236 1.435 . S
N210 C242 1.423 . S
H211 C247 0.932 . S
C212 N187 1.433 . S
C212 C213 1.363 . S
C212 C217 1.370 . S
C213 H186 0.929 . S
C213 C212 1.363 . S
C213 C214 1.385 . S
C214 H188 0.930 . S
C214 C213 1.385 . S
C214 C215 1.357 . S
C215 C214 1.357 . S
C215 C216 1.406 . S
C216 H190 0.929 . S
C216 C215 1.406 . S
C216 C217 1.391 . S
C217 H189 0.931 . S
C217 C212 1.370 . S
C217 C216 1.391 . S
C218 N187 1.435 . S
C218 C219 1.358 . S
C218 C223 1.371 . S
C219 H191 0.930 . S
C219 C218 1.358 . S
C219 C220 1.405 . S
C220 H192 0.932 . S
C220 C219 1.405 . S
C220 C221 1.383 . S
C221 C220 1.383 . S
C221 C222 1.393 . S
C222 H194 0.931 . S
C222 C221 1.393 . S
C222 C223 1.382 . S
C223 H193 0.929 . S
C223 C218 1.371 . S
C223 C222 1.382 . S
C224 N187 1.423 . S
C224 C225 1.362 . S
C224 C229 1.388 . S
C225 H195 0.929 . S
C225 C224 1.362 . S
C225 C226 1.376 . S
C226 H197 0.931 . S
C226 C225 1.376 . S
C226 C227 1.396 . S
C227 C226 1.396 . S
C227 C228 1.348 . S
C227 C245 1.472 . S
C228 H198 0.929 . S
C228 C227 1.348 . S
C228 C229 1.443 . S
C229 H196 0.932 . S
C229 C224 1.388 . S
C229 C228 1.443 . S
C230 N210 1.433 . S
C230 C231 1.363 . S
C230 C235 1.370 . S
C231 H199 0.929 . S
C231 C230 1.363 . S
C231 C232 1.385 . S
C232 H200 0.930 . S
C232 C231 1.385 . S
C232 C233 1.357 . S
C233 C232 1.357 . S
C233 C234 1.406 . S
C234 H201 0.929 . S
C234 C233 1.406 . S
C234 C235 1.391 . S
C235 H202 0.931 . S
C235 C230 1.370 . S
C235 C234 1.391 . S
C236 N210 1.435 . S
C236 C237 1.358 . S
C236 C241 1.371 . S
C237 H203 0.930 . S
C237 C236 1.358 . S
C237 C238 1.405 . S
C238 H204 0.932 . S
C238 C237 1.405 . S
C238 C239 1.383 . S
C239 C238 1.383 . S
C239 C240 1.393 . S
C240 H205 0.931 . S
C240 C239 1.393 . S
C240 C241 1.382 . S
C241 H206 0.929 . S
C241 C236 1.371 . S
C241 C240 1.382 . S
C242 N210 1.423 . S
C242 C243 1.362 . S
C242 C247 1.388 . S
C243 H207 0.929 . S
C243 C242 1.362 . S
C243 C244 1.376 . S
C244 H208 0.931 . S
C244 C243 1.376 . S
C244 C245 1.396 . S
C245 C227 1.472 . S
C245 C244 1.396 . S
C245 C246 1.348 . S
C246 H209 0.929 . S
C246 C245 1.348 . S
C246 C247 1.443 . S
C247 H211 0.932 . S
C247 C242 1.388 . S
C247 C246 1.443 . S
H248 C275 0.929 . S
N249 C274 1.433 . S
N249 C280 1.435 . S
N249 C286 1.423 . S
H250 C276 0.930 . S
H251 C279 0.931 . S
H252 C278 0.929 . S
H253 C281 0.930 . S
H254 C282 0.932 . S
H255 C285 0.929 . S
H256 C284 0.931 . S
H257 C287 0.929 . S
H258 C291 0.932 . S
H259 C288 0.931 . S
H260 C290 0.929 . S
H261 C293 0.929 . S
H262 C294 0.930 . S
H263 C296 0.929 . S
H264 C297 0.931 . S
H265 C299 0.930 . S
H266 C300 0.932 . S
H267 C302 0.931 . S
H268 C303 0.929 . S
H269 C305 0.929 . S
H270 C306 0.931 . S
H271 C308 0.929 . S
N272 C292 1.433 . S
N272 C298 1.435 . S
N272 C304 1.423 . S
H273 C309 0.932 . S
C274 N249 1.433 . S
C274 C275 1.363 . S
C274 C279 1.370 . S
C275 H248 0.929 . S
C275 C274 1.363 . S
C275 C276 1.385 . S
C276 H250 0.930 . S
C276 C275 1.385 . S
C276 C277 1.357 . S
C277 C276 1.357 . S
C277 C278 1.406 . S
C278 H252 0.929 . S
C278 C277 1.406 . S
C278 C279 1.391 . S
C279 H251 0.931 . S
C279 C274 1.370 . S
C279 C278 1.391 . S
C280 N249 1.435 . S
C280 C281 1.358 . S
C280 C285 1.371 . S
C281 H253 0.930 . S
C281 C280 1.358 . S
C281 C282 1.405 . S
C282 H254 0.932 . S
C282 C281 1.405 . S
C282 C283 1.383 . S
C283 C282 1.383 . S
C283 C284 1.393 . S
C284 H256 0.931 . S
C284 C283 1.393 . S
C284 C285 1.382 . S
C285 H255 0.929 . S
C285 C280 1.371 . S
C285 C284 1.382 . S
C286 N249 1.423 . S
C286 C287 1.362 . S
C286 C291 1.388 . S
C287 H257 0.929 . S
C287 C286 1.362 . S
C287 C288 1.376 . S
C288 H259 0.931 . S
C288 C287 1.376 . S
C288 C289 1.396 . S
C289 C288 1.396 . S
C289 C290 1.348 . S
C289 C307 1.472 . S
C290 H260 0.929 . S
C290 C289 1.348 . S
C290 C291 1.443 . S
C291 H258 0.932 . S
C291 C286 1.388 . S
C291 C290 1.443 . S
C292 N272 1.433 . S
C292 C293 1.363 . S
C292 C297 1.370 . S
C293 H261 0.929 . S
C293 C292 1.363 . S
C293 C294 1.385 . S
C294 H262 0.930 . S
C294 C293 1.385 . S
C294 C295 1.357 . S
C295 C294 1.357 . S
C295 C296 1.406 . S
C296 H263 0.929 . S
C296 C295 1.406 . S
C296 C297 1.391 . S
C297 H264 0.931 . S
C297 C292 1.370 . S
C297 C296 1.391 . S
C298 N272 1.435 . S
C298 C299 1.358 . S
C298 C303 1.371 . S
C299 H265 0.930 . S
C299 C298 1.358 . S
C299 C300 1.405 . S
C300 H266 0.932 . S
C300 C299 1.405 . S
C300 C301 1.383 . S
C301 C300 1.383 . S
C301 C302 1.393 . S
C302 H267 0.931 . S
C302 C301 1.393 . S
C302 C303 1.382 . S
C303 H268 0.929 . S
C303 C298 1.371 . S
C303 C302 1.382 . S
C304 N272 1.423 . S
C304 C305 1.362 . S
C304 C309 1.388 . S
C305 H269 0.929 . S
C305 C304 1.362 . S
C305 C306 1.376 . S
C306 H270 0.931 . S
C306 C305 1.376 . S
C306 C307 1.396 . S
C307 C289 1.472 . S
C307 C306 1.396 . S
C307 C308 1.348 . S
C308 H271 0.929 . S
C308 C307 1.348 . S
C308 C309 1.443 . S
C309 H273 0.932 . S
C309 C304 1.388 . S
C309 C308 1.443 . S
H310 C337 0.929 . S
N311 C336 1.433 . S
N311 C342 1.435 . S
N311 C348 1.423 . S
H312 C338 0.930 . S
H313 C341 0.931 . S
H314 C340 0.929 . S
H315 C343 0.930 . S
H316 C344 0.932 . S
H317 C347 0.929 . S
H318 C346 0.931 . S
H319 C349 0.929 . S
H320 C353 0.932 . S
H321 C350 0.931 . S
H322 C352 0.929 . S
H323 C355 0.929 . S
H324 C356 0.930 . S
H325 C358 0.929 . S
H326 C359 0.931 . S
H327 C361 0.930 . S
H328 C362 0.932 . S
H329 C364 0.931 . S
H330 C365 0.929 . S
H331 C367 0.929 . S
H332 C368 0.931 . S
H333 C370 0.929 . S
N334 C354 1.433 . S
N334 C360 1.435 . S
N334 C366 1.423 . S
H335 C371 0.932 . S
C336 N311 1.433 . S
C336 C337 1.363 . S
C336 C341 1.370 . S
C337 H310 0.929 . S
C337 C336 1.363 . S
C337 C338 1.385 . S
C338 H312 0.930 . S
C338 C337 1.385 . S
C338 C339 1.357 . S
C339 C338 1.357 . S
C339 C340 1.406 . S
C340 H314 0.929 . S
C340 C339 1.406 . S
C340 C341 1.391 . S
C341 H313 0.931 . S
C341 C336 1.370 . S
C341 C340 1.391 . S
C342 N311 1.435 . S
C342 C343 1.358 . S
C342 C347 1.371 . S
C343 H315 0.930 . S
C343 C342 1.358 . S
C343 C344 1.405 . S
C344 H316 0.932 . S
C344 C343 1.405 . S
C344 C345 1.383 . S
C345 C344 1.383 . S
C345 C346 1.393 . S
C346 H318 0.931 . S
C346 C345 1.393 . S
C346 C347 1.382 . S
C347 H317 0.929 . S
C347 C342 1.371 . S
C347 C346 1.382 . S
C348 N311 1.423 . S
C348 C349 1.362 . S
C348 C353 1.388 . S
C349 H319 0.929 . S
C349 C348 1.362 . S
C349 C350 1.376 . S
C350 H321 0.931 . S
C350 C349 1.376 . S
C350 C351 1.396 . S
C351 C350 1.396 . S
C351 C352 1.348 . S
C351 C369 1.472 . S
C352 H322 0.929 . S
C352 C351 1.348 . S
C352 C353 1.443 . S
C353 H320 0.932 . S
C353 C348 1.388 . S
C353 C352 1.443 . S
C354 N334 1.433 . S
C354 C355 1.363 . S
C354 C359 1.370 . S
C355 H323 0.929 . S
C355 C354 1.363 . S
C355 C356 1.385 . S
C356 H324 0.930 . S
C356 C355 1.385 . S
C356 C357 1.357 . S
C357 C356 1.357 . S
C357 C358 1.406 . S
C358 H325 0.929 . S
C358 C357 1.406 . S
C358 C359 1.391 . S
C359 H326 0.931 . S
C359 C354 1.370 . S
C359 C358 1.391 . S
C360 N334 1.435 . S
C360 C361 1.358 . S
C360 C365 1.371 . S
C361 H327 0.930 . S
C361 C360 1.358 . S
C361 C362 1.405 . S
C362 H328 0.932 . S
C362 C361 1.405 . S
C362 C363 1.383 . S
C363 C362 1.383 . S
C363 C364 1.393 . S
C364 H329 0.931 . S
C364 C363 1.393 . S
C364 C365 1.382 . S
C365 H330 0.929 . S
C365 C360 1.371 . S
C365 C364 1.382 . S
C366 N334 1.423 . S
C366 C367 1.362 . S
C366 C371 1.388 . S
C367 H331 0.929 . S
C367 C366 1.362 . S
C367 C368 1.376 . S
C368 H332 0.931 . S
C368 C367 1.376 . S
C368 C369 1.396 . S
C369 C351 1.472 . S
C369 C368 1.396 . S
C369 C370 1.348 . S
C370 H333 0.929 . S
C370 C369 1.348 . S
C370 C371 1.443 . S
C371 H335 0.932 . S
C371 C366 1.388 . S
C371 C370 1.443 . S
H372 C399 0.929 . S
N373 C398 1.433 . S
N373 C404 1.435 . S
N373 C410 1.423 . S
H374 C400 0.930 . S
H375 C403 0.931 . S
H376 C402 0.929 . S
H377 C405 0.930 . S
H378 C406 0.932 . S
H379 C409 0.929 . S
H380 C408 0.931 . S
H381 C411 0.929 . S
H382 C415 0.932 . S
H383 C412 0.931 . S
H384 C414 0.929 . S
H385 C417 0.929 . S
H386 C418 0.930 . S
H387 C420 0.929 . S
H388 C421 0.931 . S
H389 C423 0.930 . S
H390 C424 0.932 . S
H391 C426 0.931 . S
H392 C427 0.929 . S
H393 C429 0.929 . S
H394 C430 0.931 . S
H395 C432 0.929 . S
N396 C416 1.433 . S
N396 C422 1.435 . S
N396 C428 1.423 . S
H397 C433 0.932 . S
C398 N373 1.433 . S
C398 C399 1.363 . S
C398 C403 1.370 . S
C399 H372 0.929 . S
C399 C398 1.363 . S
C399 C400 1.385 . S
C400 H374 0.930 . S
C400 C399 1.385 . S
C400 C401 1.357 . S
C401 C400 1.357 . S
C401 C402 1.406 . S
C402 H376 0.929 . S
C402 C401 1.406 . S
C402 C403 1.391 . S
C403 H375 0.931 . S
C403 C398 1.370 . S
C403 C402 1.391 . S
C404 N373 1.435 . S
C404 C405 1.358 . S
C404 C409 1.371 . S
C405 H377 0.930 . S
C405 C404 1.358 . S
C405 C406 1.405 . S
C406 H378 0.932 . S
C406 C405 1.405 . S
C406 C407 1.383 . S
C407 C406 1.383 . S
C407 C408 1.393 . S
C408 H380 0.931 . S
C408 C407 1.393 . S
C408 C409 1.382 . S
C409 H379 0.929 . S
C409 C404 1.371 . S
C409 C408 1.382 . S
C410 N373 1.423 . S
C410 C411 1.362 . S
C410 C415 1.388 . S
C411 H381 0.929 . S
C411 C410 1.362 . S
C411 C412 1.376 . S
C412 H383 0.931 . S
C412 C411 1.376 . S
C412 C413 1.396 . S
C413 C412 1.396 . S
C413 C414 1.348 . S
C413 C431 1.472 . S
C414 H384 0.929 . S
C414 C413 1.348 . S
C414 C415 1.443 . S
C415 H382 0.932 . S
C415 C410 1.388 . S
C415 C414 1.443 . S
C416 N396 1.433 . S
C416 C417 1.363 . S
C416 C421 1.370 . S
C417 H385 0.929 . S
C417 C416 1.363 . S
C417 C418 1.385 . S
C418 H386 0.930 . S
C418 C417 1.385 . S
C418 C419 1.357 . S
C419 C418 1.357 . S
C419 C420 1.406 . S
C420 H387 0.929 . S
C420 C419 1.406 . S
C420 C421 1.391 . S
C421 H388 0.931 . S
C421 C416 1.370 . S
C421 C420 1.391 . S
C422 N396 1.435 . S
C422 C423 1.358 . S
C422 C427 1.371 . S
C423 H389 0.930 . S
C423 C422 1.358 . S
C423 C424 1.405 . S
C424 H390 0.932 . S
C424 C423 1.405 . S
C424 C425 1.383 . S
C425 C424 1.383 . S
C425 C426 1.393 . S
C426 H391 0.931 . S
C426 C425 1.393 . S
C426 C427 1.382 . S
C427 H392 0.929 . S
C427 C422 1.371 . S
C427 C426 1.382 . S
C428 N396 1.423 . S
C428 C429 1.362 . S
C428 C433 1.388 . S
C429 H393 0.929 . S
C429 C428 1.362 . S
C429 C430 1.376 . S
C430 H394 0.931 . S
C430 C429 1.376 . S
C430 C431 1.396 . S
C431 C413 1.472 . S
C431 C430 1.396 . S
C431 C432 1.348 . S
C432 H395 0.929 . S
C432 C431 1.348 . S
C432 C433 1.443 . S
C433 H397 0.932 . S
C433 C428 1.388 . S
C433 C432 1.443 . S
H434 C461 0.929 . S
N435 C460 1.433 . S
N435 C466 1.435 . S
N435 C472 1.423 . S
H436 C462 0.930 . S
H437 C465 0.931 . S
H438 C464 0.929 . S
H439 C467 0.930 . S
H440 C468 0.932 . S
H441 C471 0.929 . S
H442 C470 0.931 . S
H443 C473 0.929 . S
H444 C477 0.932 . S
H445 C474 0.931 . S
H446 C476 0.929 . S
H447 C479 0.929 . S
H448 C480 0.930 . S
H449 C482 0.929 . S
H450 C483 0.931 . S
H451 C485 0.930 . S
H452 C486 0.932 . S
H453 C488 0.931 . S
H454 C489 0.929 . S
H455 C491 0.929 . S
H456 C492 0.931 . S
H457 C494 0.929 . S
N458 C478 1.433 . S
N458 C484 1.435 . S
N458 C490 1.423 . S
H459 C495 0.932 . S
C460 N435 1.433 . S
C460 C461 1.363 . S
C460 C465 1.370 . S
C461 H434 0.929 . S
C461 C460 1.363 . S
C461 C462 1.385 . S
C462 H436 0.930 . S
C462 C461 1.385 . S
C462 C463 1.357 . S
C463 C462 1.357 . S
C463 C464 1.406 . S
C464 H438 0.929 . S
C464 C463 1.406 . S
C464 C465 1.391 . S
C465 H437 0.931 . S
C465 C460 1.370 . S
C465 C464 1.391 . S
C466 N435 1.435 . S
C466 C467 1.358 . S
C466 C471 1.371 . S
C467 H439 0.930 . S
C467 C466 1.358 . S
C467 C468 1.405 . S
C468 H440 0.932 . S
C468 C467 1.405 . S
C468 C469 1.383 . S
C469 C468 1.383 . S
C469 C470 1.393 . S
C470 H442 0.931 . S
C470 C469 1.393 . S
C470 C471 1.382 . S
C471 H441 0.929 . S
C471 C466 1.371 . S
C471 C470 1.382 . S
C472 N435 1.423 . S
C472 C473 1.362 . S
C472 C477 1.388 . S
C473 H443 0.929 . S
C473 C472 1.362 . S
C473 C474 1.376 . S
C474 H445 0.931 . S
C474 C473 1.376 . S
C474 C475 1.396 . S
C475 C474 1.396 . S
C475 C476 1.348 . S
C475 C493 1.472 . S
C476 H446 0.929 . S
C476 C475 1.348 . S
C476 C477 1.443 . S
C477 H444 0.932 . S
C477 C472 1.388 . S
C477 C476 1.443 . S
C478 N458 1.433 . S
C478 C479 1.363 . S
C478 C483 1.370 . S
C479 H447 0.929 . S
C479 C478 1.363 . S
C479 C480 1.385 . S
C480 H448 0.930 . S
C480 C479 1.385 . S
C480 C481 1.357 . S
C481 C480 1.357 . S
C481 C482 1.406 . S
C482 H449 0.929 . S
C482 C481 1.406 . S
C482 C483 1.391 . S
C483 H450 0.931 . S
C483 C478 1.370 . S
C483 C482 1.391 . S
C484 N458 1.435 . S
C484 C485 1.358 . S
C484 C489 1.371 . S
C485 H451 0.930 . S
C485 C484 1.358 . S
C485 C486 1.405 . S
C486 H452 0.932 . S
C486 C485 1.405 . S
C486 C487 1.383 . S
C487 C486 1.383 . S
C487 C488 1.393 . S
C488 H453 0.931 . S
C488 C487 1.393 . S
C488 C489 1.382 . S
C489 H454 0.929 . S
C489 C484 1.371 . S
C489 C488 1.382 . S
C490 N458 1.423 . S
C490 C491 1.362 . S
C490 C495 1.388 . S
C491 H455 0.929 . S
C491 C490 1.362 . S
C491 C492 1.376 . S
C492 H456 0.931 . S
C492 C491 1.376 . S
C492 C493 1.396 . S
C493 C475 1.472 . S
C493 C492 1.396 . S
C493 C494 1.348 . S
C494 H457 0.929 . S
C494 C493 1.348 . S
C494 C495 1.443 . S
C495 H459 0.932 . S
C495 C490 1.388 . S
C495 C494 1.443 . S
C496 O498 1.247 . S
C496 O500 1.258 . S
C497 O504 1.247 . S
C497 O505 1.258 . S
O498 C496 1.247 . S
O498 Zn499 2.028 1_655 S
Zn499 O498 2.028 1_455 S
Zn499 O503 2.035 . S
Zn499 O505 2.035 . S
Zn499 O506 2.028 1_455 S
O500 C496 1.258 . S
O500 Zn501 2.035 1_655 S
Zn501 O500 2.035 1_455 S
Zn501 O502 2.028 . S
Zn501 O504 2.028 . S
Zn501 O507 2.035 1_455 S
O502 Zn501 2.028 . S
O502 C508 1.247 . S
O503 Zn499 2.035 . S
O503 C508 1.258 . S
O504 C497 1.247 . S
O504 Zn501 2.028 . S
O505 C497 1.258 . S
O505 Zn499 2.035 . S
O506 Zn499 2.028 1_655 S
O506 C509 1.247 . S
O507 Zn501 2.035 1_655 S
O507 C509 1.258 . S
C508 O502 1.247 . S
C508 O503 1.258 . S
C509 O506 1.247 . S
C509 O507 1.258 . S
C510 O512 1.247 . S
C510 O514 1.258 . S
C511 O518 1.247 . S
C511 O519 1.258 . S
O512 C510 1.247 . S
O512 Zn513 2.028 . S
Zn513 O512 2.028 . S
Zn513 O517 2.035 1_545 S
Zn513 O519 2.035 1_545 S
Zn513 O520 2.028 . S
O514 C510 1.258 . S
O514 Zn515 2.035 . S
Zn515 O514 2.035 . S
Zn515 O516 2.028 1_545 S
Zn515 O518 2.028 1_545 S
Zn515 O521 2.035 . S
O516 Zn515 2.028 1_565 S
O516 C522 1.247 . S
O517 Zn513 2.035 1_565 S
O517 C522 1.258 . S
O518 C511 1.247 . S
O518 Zn515 2.028 1_565 S
O519 C511 1.258 . S
O519 Zn513 2.035 1_565 S
O520 Zn513 2.028 . S
O520 C523 1.247 . S
O521 Zn515 2.035 . S
O521 C523 1.258 . S
C522 O516 1.247 . S
C522 O517 1.258 . S
C523 O520 1.247 . S
C523 O521 1.258 . S
C524 O526 1.247 . S
C524 O528 1.258 . S
C525 O532 1.247 . S
C525 O533 1.258 . S
O526 C524 1.247 . S
O526 Zn527 2.028 1_655 S
Zn527 O526 2.028 1_455 S
Zn527 O531 2.035 . S
Zn527 O533 2.035 . S
Zn527 O534 2.028 1_455 S
O528 C524 1.258 . S
O528 Zn529 2.035 1_655 S
Zn529 O528 2.035 1_455 S
Zn529 O530 2.028 . S
Zn529 O532 2.028 . S
Zn529 O535 2.035 1_455 S
O530 Zn529 2.028 . S
O530 C536 1.247 . S
O531 Zn527 2.035 . S
O531 C536 1.258 . S
O532 C525 1.247 . S
O532 Zn529 2.028 . S
O533 C525 1.258 . S
O533 Zn527 2.035 . S
O534 Zn527 2.028 1_655 S
O534 C537 1.247 . S
O535 Zn529 2.035 1_655 S
O535 C537 1.258 . S
C536 O530 1.247 . S
C536 O531 1.258 . S
C537 O534 1.247 . S
C537 O535 1.258 . S
C538 O540 1.247 . S
C538 O542 1.258 . S
C539 O546 1.247 . S
C539 O547 1.258 . S
O540 C538 1.247 . S
O540 Zn541 2.028 . S
Zn541 O540 2.028 . S
Zn541 O545 2.035 1_545 S
Zn541 O547 2.035 1_545 S
Zn541 O548 2.028 . S
O542 C538 1.258 . S
O542 Zn543 2.035 . S
Zn543 O542 2.035 . S
Zn543 O544 2.028 1_545 S
Zn543 O546 2.028 1_545 S
Zn543 O549 2.035 . S
O544 Zn543 2.028 1_565 S
O544 C550 1.247 . S
O545 Zn541 2.035 1_565 S
O545 C550 1.258 . S
O546 C539 1.247 . S
O546 Zn543 2.028 1_565 S
O547 C539 1.258 . S
O547 Zn541 2.035 1_565 S
O548 Zn541 2.028 . S
O548 C551 1.247 . S
O549 Zn543 2.035 . S
O549 C551 1.258 . S
C550 O544 1.247 . S
C550 O545 1.258 . S
C551 O548 1.247 . S
C551 O549 1.258 . S
C552 O554 1.247 . S
C552 O556 1.258 . S
C553 O560 1.247 . S
C553 O561 1.258 . S
O554 C552 1.247 . S
O554 Zn555 2.028 . S
Zn555 O554 2.028 . S
Zn555 O559 2.035 . S
Zn555 O561 2.035 1_554 S
Zn555 O562 2.028 1_554 S
O556 C552 1.258 . S
O556 Zn557 2.035 . S
Zn557 O556 2.035 . S
Zn557 O558 2.028 . S
Zn557 O560 2.028 1_554 S
Zn557 O563 2.035 1_554 S
O558 Zn557 2.028 . S
O558 C564 1.247 . S
O559 Zn555 2.035 . S
O559 C564 1.258 . S
O560 C553 1.247 . S
O560 Zn557 2.028 1_556 S
O561 C553 1.258 . S
O561 Zn555 2.035 1_556 S
O562 Zn555 2.028 1_556 S
O562 C565 1.247 . S
O563 Zn557 2.035 1_556 S
O563 C565 1.258 . S
C564 O558 1.247 . S
C564 O559 1.258 . S
C565 O562 1.247 . S
C565 O563 1.258 . S
C566 O568 1.247 . S
C566 O570 1.258 . S
C567 O574 1.247 . S
C567 O575 1.258 . S
O568 C566 1.247 . S
O568 Zn569 2.028 . S
Zn569 O568 2.028 . S
Zn569 O573 2.035 . S
Zn569 O575 2.035 1_554 S
Zn569 O576 2.028 1_554 S
O570 C566 1.258 . S
O570 Zn571 2.035 . S
Zn571 O570 2.035 . S
Zn571 O572 2.028 . S
Zn571 O574 2.028 1_554 S
Zn571 O577 2.035 1_554 S
O572 Zn571 2.028 . S
O572 C578 1.247 . S
O573 Zn569 2.035 . S
O573 C578 1.258 . S
O574 C567 1.247 . S
O574 Zn571 2.028 1_556 S
O575 C567 1.258 . S
O575 Zn569 2.035 1_556 S
O576 Zn569 2.028 1_556 S
O576 C579 1.247 . S
O577 Zn571 2.035 1_556 S
O577 C579 1.258 . S
C578 O572 1.247 . S
C578 O573 1.258 . S
C579 O576 1.247 . S
C579 O577 1.258 . S
C580 O582 1.247 . S
C580 O584 1.258 . S
C581 O588 1.247 . S
C581 O589 1.258 . S
O582 C580 1.247 . S
O582 Zn583 2.028 1_556 S
Zn583 O582 2.028 1_554 S
Zn583 O587 2.035 1_554 S
Zn583 O589 2.035 . S
Zn583 O590 2.028 . S
O584 C580 1.258 . S
O584 Zn585 2.035 1_556 S
Zn585 O584 2.035 1_554 S
Zn585 O586 2.028 1_554 S
Zn585 O588 2.028 . S
Zn585 O591 2.035 . S
O586 Zn585 2.028 1_556 S
O586 C592 1.247 . S
O587 Zn583 2.035 1_556 S
O587 C592 1.258 . S
O588 C581 1.247 . S
O588 Zn585 2.028 . S
O589 C581 1.258 . S
O589 Zn583 2.035 . S
O590 Zn583 2.028 . S
O590 C593 1.247 . S
O591 Zn585 2.035 . S
O591 C593 1.258 . S
C592 O586 1.247 . S
C592 O587 1.258 . S
C593 O590 1.247 . S
C593 O591 1.258 . S
C594 O596 1.247 . S
C594 O598 1.258 . S
C595 O602 1.247 . S
C595 O603 1.258 . S
O596 C594 1.247 . S
O596 Zn597 2.028 . S
Zn597 O596 2.028 . S
Zn597 O601 2.035 . S
Zn597 O603 2.035 1_554 S
Zn597 O604 2.028 1_554 S
O598 C594 1.258 . S
O598 Zn599 2.035 . S
Zn599 O598 2.035 . S
Zn599 O600 2.028 . S
Zn599 O602 2.028 1_554 S
Zn599 O605 2.035 1_554 S
O600 Zn599 2.028 . S
O600 C606 1.247 . S
O601 Zn597 2.035 . S
O601 C606 1.258 . S
O602 C595 1.247 . S
O602 Zn599 2.028 1_556 S
O603 C595 1.258 . S
O603 Zn597 2.035 1_556 S
O604 Zn597 2.028 1_556 S
O604 C607 1.247 . S
O605 Zn599 2.035 1_556 S
O605 C607 1.258 . S
C606 O600 1.247 . S
C606 O601 1.258 . S
C607 O604 1.247 . S
C607 O605 1.258 . S
C608 C609 1.387 . S
C608 H612 0.950 . S
C608 C617 1.390 . S
C609 C608 1.387 . S
C609 C611 1.387 . S
H610 C617 0.950 . S
C611 C609 1.387 . S
C611 C613 1.390 . S
C611 H615 0.950 . S
H612 C608 0.950 . S
C613 C611 1.390 . S
C613 C614 1.387 . S
C613 H616 0.950 . S
C614 C613 1.387 . S
C614 C617 1.387 . S
H615 C611 0.950 . S
H616 C613 0.950 . S
C617 C608 1.390 . S
C617 H610 0.950 . S
C617 C614 1.387 . S
C618 C619 1.387 . S
C618 H622 0.950 . S
C618 C627 1.390 . S
C619 C618 1.387 . S
C619 C621 1.387 . S
H620 C627 0.950 . S
C621 C619 1.387 . S
C621 C623 1.390 . S
C621 H625 0.950 . S
H622 C618 0.950 . S
C623 C621 1.390 . S
C623 C624 1.387 . S
C623 H626 0.950 . S
C624 C623 1.387 . S
C624 C627 1.387 . S
H625 C621 0.950 . S
H626 C623 0.950 . S
C627 C618 1.390 . S
C627 H620 0.950 . S
C627 C624 1.387 . S
C628 C629 1.387 . S
C628 H632 0.950 . S
C628 C637 1.390 . S
C629 C628 1.387 . S
C629 C631 1.387 . S
H630 C637 0.950 . S
C631 C629 1.387 . S
C631 C633 1.390 . S
C631 H635 0.950 . S
H632 C628 0.950 . S
C633 C631 1.390 . S
C633 C634 1.387 . S
C633 H636 0.950 . S
C634 C633 1.387 . S
C634 C637 1.387 . S
H635 C631 0.950 . S
H636 C633 0.950 . S
C637 C628 1.390 . S
C637 H630 0.950 . S
C637 C634 1.387 . S
C638 C639 1.387 . S
C638 H642 0.950 . S
C638 C647 1.390 . S
C639 C638 1.387 . S
C639 C641 1.387 . S
H640 C647 0.950 . S
C641 C639 1.387 . S
C641 C643 1.390 . S
C641 H645 0.950 . S
H642 C638 0.950 . S
C643 C641 1.390 . S
C643 C644 1.387 . S
C643 H646 0.950 . S
C644 C643 1.387 . S
C644 C647 1.387 . S
H645 C641 0.950 . S
H646 C643 0.950 . S
C647 C638 1.390 . S
C647 H640 0.950 . S
C647 C644 1.387 . S
C648 C649 1.387 . S
C648 H652 0.950 . S
C648 C657 1.390 . S
C649 C648 1.387 . S
C649 C651 1.387 . S
H650 C657 0.950 . S
C651 C649 1.387 . S
C651 C653 1.390 . S
C651 H655 0.950 . S
H652 C648 0.950 . S
C653 C651 1.390 . S
C653 C654 1.387 . S
C653 H656 0.950 . S
C654 C653 1.387 . S
C654 C657 1.387 . S
H655 C651 0.950 . S
H656 C653 0.950 . S
C657 C648 1.390 . S
C657 H650 0.950 . S
C657 C654 1.387 . S
C658 C659 1.387 . S
C658 H662 0.950 . S
C658 C667 1.390 . S
C659 C658 1.387 . S
C659 C661 1.387 . S
H660 C667 0.950 . S
C661 C659 1.387 . S
C661 C663 1.390 . S
C661 H665 0.950 . S
H662 C658 0.950 . S
C663 C661 1.390 . S
C663 C664 1.387 . S
C663 H666 0.950 . S
C664 C663 1.387 . S
C664 C667 1.387 . S
H665 C661 0.950 . S
H666 C663 0.950 . S
C667 C658 1.390 . S
C667 H660 0.950 . S
C667 C664 1.387 . S
C668 C669 1.387 . S
C668 H672 0.950 . S
C668 C677 1.390 . S
C669 C668 1.387 . S
C669 C671 1.387 . S
H670 C677 0.950 . S
C671 C669 1.387 . S
C671 C673 1.390 . S
C671 H675 0.950 . S
H672 C668 0.950 . S
C673 C671 1.390 . S
C673 C674 1.387 . S
C673 H676 0.950 . S
C674 C673 1.387 . S
C674 C677 1.387 . S
H675 C671 0.950 . S
H676 C673 0.950 . S
C677 C668 1.390 . S
C677 H670 0.950 . S
C677 C674 1.387 . S
C678 C679 1.387 . S
C678 H682 0.950 . S
C678 C687 1.390 . S
C679 C678 1.387 . S
C679 C681 1.387 . S
H680 C687 0.950 . S
C681 C679 1.387 . S
C681 C683 1.390 . S
C681 H685 0.950 . S
H682 C678 0.950 . S
C683 C681 1.390 . S
C683 C684 1.387 . S
C683 H686 0.950 . S
C684 C683 1.387 . S
C684 C687 1.387 . S
H685 C681 0.950 . S
H686 C683 0.950 . S
C687 C678 1.390 . S
C687 H680 0.950 . S
C687 C684 1.387 . S
C688 C689 1.387 . S
C688 H692 0.950 . S
C688 C697 1.390 . S
C689 C688 1.387 . S
C689 C691 1.387 . S
H690 C697 0.950 . S
C691 C689 1.387 . S
C691 C693 1.390 . S
C691 H695 0.950 . S
H692 C688 0.950 . S
C693 C691 1.390 . S
C693 C694 1.387 . S
C693 H696 0.950 . S
C694 C693 1.387 . S
C694 C697 1.387 . S
H695 C691 0.950 . S
H696 C693 0.950 . S
C697 C688 1.390 . S
C697 H690 0.950 . S
C697 C694 1.387 . S
C698 C699 1.387 . S
C698 H702 0.950 . S
C698 C707 1.390 . S
C699 C698 1.387 . S
C699 C701 1.387 . S
H700 C707 0.950 . S
C701 C699 1.387 . S
C701 C703 1.390 . S
C701 H705 0.950 . S
H702 C698 0.950 . S
C703 C701 1.390 . S
C703 C704 1.387 . S
C703 H706 0.950 . S
C704 C703 1.387 . S
C704 C707 1.387 . S
H705 C701 0.950 . S
H706 C703 0.950 . S
C707 C698 1.390 . S
C707 H700 0.950 . S
C707 C704 1.387 . S
C708 C709 1.387 . S
C708 H712 0.950 . S
C708 C717 1.390 . S
C709 C708 1.387 . S
C709 C711 1.387 . S
H710 C717 0.950 . S
C711 C709 1.387 . S
C711 C713 1.390 . S
C711 H715 0.950 . S
H712 C708 0.950 . S
C713 C711 1.390 . S
C713 C714 1.387 . S
C713 H716 0.950 . S
C714 C713 1.387 . S
C714 C717 1.387 . S
H715 C711 0.950 . S
H716 C713 0.950 . S
C717 C708 1.390 . S
C717 H710 0.950 . S
C717 C714 1.387 . S
C718 C719 1.387 . S
C718 H722 0.950 . S
C718 C727 1.390 . S
C719 C718 1.387 . S
C719 C721 1.387 . S
H720 C727 0.950 . S
C721 C719 1.387 . S
C721 C723 1.390 . S
C721 H725 0.950 . S
H722 C718 0.950 . S
C723 C721 1.390 . S
C723 C724 1.387 . S
C723 H726 0.950 . S
C724 C723 1.387 . S
C724 C727 1.387 . S
H725 C721 0.950 . S
H726 C723 0.950 . S
C727 C718 1.390 . S
C727 H720 0.950 . S
C727 C724 1.387 . S
C728 C729 1.387 . S
C728 H732 0.950 . S
C728 C737 1.390 . S
C729 C728 1.387 . S
C729 C731 1.387 . S
H730 C737 0.950 . S
C731 C729 1.387 . S
C731 C733 1.390 . S
C731 H735 0.950 . S
H732 C728 0.950 . S
C733 C731 1.390 . S
C733 C734 1.387 . S
C733 H736 0.950 . S
C734 C733 1.387 . S
C734 C737 1.387 . S
H735 C731 0.950 . S
H736 C733 0.950 . S
C737 C728 1.390 . S
C737 H730 0.950 . S
C737 C734 1.387 . S
C738 C739 1.387 . S
C738 H742 0.950 . S
C738 C747 1.390 . S
C739 C738 1.387 . S
C739 C741 1.387 . S
H740 C747 0.950 . S
C741 C739 1.387 . S
C741 C743 1.390 . S
C741 H745 0.950 . S
H742 C738 0.950 . S
C743 C741 1.390 . S
C743 C744 1.387 . S
C743 H746 0.950 . S
C744 C743 1.387 . S
C744 C747 1.387 . S
H745 C741 0.950 . S
H746 C743 0.950 . S
C747 C738 1.390 . S
C747 H740 0.950 . S
C747 C744 1.387 . S
C748 C749 1.387 . S
C748 H752 0.950 . S
C748 C757 1.390 . S
C749 C748 1.387 . S
C749 C751 1.387 . S
H750 C757 0.950 . S
C751 C749 1.387 . S
C751 C753 1.390 . S
C751 H755 0.950 . S
H752 C748 0.950 . S
C753 C751 1.390 . S
C753 C754 1.387 . S
C753 H756 0.950 . S
C754 C753 1.387 . S
C754 C757 1.387 . S
H755 C751 0.950 . S
H756 C753 0.950 . S
C757 C748 1.390 . S
C757 H750 0.950 . S
C757 C754 1.387 . S
C758 C759 1.387 . S
C758 H762 0.950 . S
C758 C767 1.390 . S
C759 C758 1.387 . S
C759 C761 1.387 . S
H760 C767 0.950 . S
C761 C759 1.387 . S
C761 C763 1.390 . S
C761 H765 0.950 . S
H762 C758 0.950 . S
C763 C761 1.390 . S
C763 C764 1.387 . S
C763 H766 0.950 . S
C764 C763 1.387 . S
C764 C767 1.387 . S
H765 C761 0.950 . S
H766 C763 0.950 . S
C767 C758 1.390 . S
C767 H760 0.950 . S
C767 C764 1.387 . S
C768 C769 1.387 . S
C768 H772 0.950 . S
C768 C777 1.390 . S
C769 C768 1.387 . S
C769 C771 1.387 . S
H770 C777 0.950 . S
C771 C769 1.387 . S
C771 C773 1.390 . S
C771 H775 0.950 . S
H772 C768 0.950 . S
C773 C771 1.390 . S
C773 C774 1.387 . S
C773 H776 0.950 . S
C774 C773 1.387 . S
C774 C777 1.387 . S
H775 C771 0.950 . S
H776 C773 0.950 . S
C777 C768 1.390 . S
C777 H770 0.950 . S
C777 C774 1.387 . S
C778 C779 1.387 . S
C778 H782 0.950 . S
C778 C787 1.390 . S
C779 C778 1.387 . S
C779 C781 1.387 . S
H780 C787 0.950 . S
C781 C779 1.387 . S
C781 C783 1.390 . S
C781 H785 0.950 . S
H782 C778 0.950 . S
C783 C781 1.390 . S
C783 C784 1.387 . S
C783 H786 0.950 . S
C784 C783 1.387 . S
C784 C787 1.387 . S
H785 C781 0.950 . S
H786 C783 0.950 . S
C787 C778 1.390 . S
C787 H780 0.950 . S
C787 C784 1.387 . S
C788 C789 1.387 . S
C788 H792 0.950 . S
C788 C797 1.390 . S
C789 C788 1.387 . S
C789 C791 1.387 . S
H790 C797 0.950 . S
C791 C789 1.387 . S
C791 C793 1.390 . S
C791 H795 0.950 . S
H792 C788 0.950 . S
C793 C791 1.390 . S
C793 C794 1.387 . S
C793 H796 0.950 . S
C794 C793 1.387 . S
C794 C797 1.387 . S
H795 C791 0.950 . S
H796 C793 0.950 . S
C797 C788 1.390 . S
C797 H790 0.950 . S
C797 C794 1.387 . S
C798 C799 1.387 . S
C798 H802 0.950 . S
C798 C807 1.390 . S
C799 C798 1.387 . S
C799 C801 1.387 . S
H800 C807 0.950 . S
C801 C799 1.387 . S
C801 C803 1.390 . S
C801 H805 0.950 . S
H802 C798 0.950 . S
C803 C801 1.390 . S
C803 C804 1.387 . S
C803 H806 0.950 . S
C804 C803 1.387 . S
C804 C807 1.387 . S
H805 C801 0.950 . S
H806 C803 0.950 . S
C807 C798 1.390 . S
C807 H800 0.950 . S
C807 C804 1.387 . S
C808 C809 1.387 . S
C808 H812 0.950 . S
C808 C817 1.390 . S
C809 C808 1.387 . S
C809 C811 1.387 . S
H810 C817 0.950 . S
C811 C809 1.387 . S
C811 C813 1.390 . S
C811 H815 0.950 . S
H812 C808 0.950 . S
C813 C811 1.390 . S
C813 C814 1.387 . S
C813 H816 0.950 . S
C814 C813 1.387 . S
C814 C817 1.387 . S
H815 C811 0.950 . S
H816 C813 0.950 . S
C817 C808 1.390 . S
C817 H810 0.950 . S
C817 C814 1.387 . S
C818 C819 1.387 . S
C818 H822 0.950 . S
C818 C827 1.390 . S
C819 C818 1.387 . S
C819 C821 1.387 . S
H820 C827 0.950 . S
C821 C819 1.387 . S
C821 C823 1.390 . S
C821 H825 0.950 . S
H822 C818 0.950 . S
C823 C821 1.390 . S
C823 C824 1.387 . S
C823 H826 0.950 . S
C824 C823 1.387 . S
C824 C827 1.387 . S
H825 C821 0.950 . S
H826 C823 0.950 . S
C827 C818 1.390 . S
C827 H820 0.950 . S
C827 C824 1.387 . S
C828 C829 1.387 . S
C828 H832 0.950 . S
C828 C837 1.390 . S
C829 C828 1.387 . S
C829 C831 1.387 . S
H830 C837 0.950 . S
C831 C829 1.387 . S
C831 C833 1.390 . S
C831 H835 0.950 . S
H832 C828 0.950 . S
C833 C831 1.390 . S
C833 C834 1.387 . S
C833 H836 0.950 . S
C834 C833 1.387 . S
C834 C837 1.387 . S
H835 C831 0.950 . S
H836 C833 0.950 . S
C837 C828 1.390 . S
C837 H830 0.950 . S
C837 C834 1.387 . S
C838 C839 1.387 . S
C838 H842 0.950 . S
C838 C847 1.390 . S
C839 C838 1.387 . S
C839 C841 1.387 . S
H840 C847 0.950 . S
C841 C839 1.387 . S
C841 C843 1.390 . S
C841 H845 0.950 . S
H842 C838 0.950 . S
C843 C841 1.390 . S
C843 C844 1.387 . S
C843 H846 0.950 . S
C844 C843 1.387 . S
C844 C847 1.387 . S
H845 C841 0.950 . S
H846 C843 0.950 . S
C847 C838 1.390 . S
C847 H840 0.950 . S
C847 C844 1.387 . S
C848 C849 1.387 . S
C848 H852 0.950 . S
C848 C857 1.390 . S
C849 C848 1.387 . S
C849 C851 1.387 . S
H850 C857 0.950 . S
C851 C849 1.387 . S
C851 C853 1.390 . S
C851 H855 0.950 . S
H852 C848 0.950 . S
C853 C851 1.390 . S
C853 C854 1.387 . S
C853 H856 0.950 . S
C854 C853 1.387 . S
C854 C857 1.387 . S
H855 C851 0.950 . S
H856 C853 0.950 . S
C857 C848 1.390 . S
C857 H850 0.950 . S
C857 C854 1.387 . S
C858 C859 1.387 . S
C858 H862 0.950 . S
C858 C867 1.390 . S
C859 C858 1.387 . S
C859 C861 1.387 . S
H860 C867 0.950 . S
C861 C859 1.387 . S
C861 C863 1.390 . S
C861 H865 0.950 . S
H862 C858 0.950 . S
C863 C861 1.390 . S
C863 C864 1.387 . S
C863 H866 0.950 . S
C864 C863 1.387 . S
C864 C867 1.387 . S
H865 C861 0.950 . S
H866 C863 0.950 . S
C867 C858 1.390 . S
C867 H860 0.950 . S
C867 C864 1.387 . S
C868 C869 1.387 . S
C868 H872 0.950 . S
C868 C877 1.390 . S
C869 C868 1.387 . S
C869 C871 1.387 . S
H870 C877 0.950 . S
C871 C869 1.387 . S
C871 C873 1.390 . S
C871 H875 0.950 . S
H872 C868 0.950 . S
C873 C871 1.390 . S
C873 C874 1.387 . S
C873 H876 0.950 . S
C874 C873 1.387 . S
C874 C877 1.387 . S
H875 C871 0.950 . S
H876 C873 0.950 . S
C877 C868 1.390 . S
C877 H870 0.950 . S
C877 C874 1.387 . S
C878 C879 1.387 . S
C878 H882 0.950 . S
C878 C887 1.390 . S
C879 C878 1.387 . S
C879 C881 1.387 . S
H880 C887 0.950 . S
C881 C879 1.387 . S
C881 C883 1.390 . S
C881 H885 0.950 . S
H882 C878 0.950 . S
C883 C881 1.390 . S
C883 C884 1.387 . S
C883 H886 0.950 . S
C884 C883 1.387 . S
C884 C887 1.387 . S
H885 C881 0.950 . S
H886 C883 0.950 . S
C887 C878 1.390 . S
C887 H880 0.950 . S
C887 C884 1.387 . S
C888 C889 1.387 . S
C888 H892 0.950 . S
C888 C897 1.390 . S
C889 C888 1.387 . S
C889 C891 1.387 . S
H890 C897 0.950 . S
C891 C889 1.387 . S
C891 C893 1.390 . S
C891 H895 0.950 . S
H892 C888 0.950 . S
C893 C891 1.390 . S
C893 C894 1.387 . S
C893 H896 0.950 . S
C894 C893 1.387 . S
C894 C897 1.387 . S
H895 C891 0.950 . S
H896 C893 0.950 . S
C897 C888 1.390 . S
C897 H890 0.950 . S
C897 C894 1.387 . S
C898 C899 1.387 . S
C898 H902 0.950 . S
C898 C907 1.390 . S
C899 C898 1.387 . S
C899 C901 1.387 . S
H900 C907 0.950 . S
C901 C899 1.387 . S
C901 C903 1.390 . S
C901 H905 0.950 . S
H902 C898 0.950 . S
C903 C901 1.390 . S
C903 C904 1.387 . S
C903 H906 0.950 . S
C904 C903 1.387 . S
C904 C907 1.387 . S
H905 C901 0.950 . S
H906 C903 0.950 . S
C907 C898 1.390 . S
C907 H900 0.950 . S
C907 C904 1.387 . S
C908 C909 1.387 . S
C908 H912 0.950 . S
C908 C917 1.390 . S
C909 C908 1.387 . S
C909 C911 1.387 . S
H910 C917 0.950 . S
C911 C909 1.387 . S
C911 C913 1.390 . S
C911 H915 0.950 . S
H912 C908 0.950 . S
C913 C911 1.390 . S
C913 C914 1.387 . S
C913 H916 0.950 . S
C914 C913 1.387 . S
C914 C917 1.387 . S
H915 C911 0.950 . S
H916 C913 0.950 . S
C917 C908 1.390 . S
C917 H910 0.950 . S
C917 C914 1.387 . S
C918 C919 1.387 . S
C918 H922 0.950 . S
C918 C927 1.390 . S
C919 C918 1.387 . S
C919 C921 1.387 . S
H920 C927 0.950 . S
C921 C919 1.387 . S
C921 C923 1.390 . S
C921 H925 0.950 . S
H922 C918 0.950 . S
C923 C921 1.390 . S
C923 C924 1.387 . S
C923 H926 0.950 . S
C924 C923 1.387 . S
C924 C927 1.387 . S
H925 C921 0.950 . S
H926 C923 0.950 . S
C927 C918 1.390 . S
C927 H920 0.950 . S
C927 C924 1.387 . S
C614 C497 1.605 . S
C609 C47 1.491 . S
C624 C523 1.490 . S
C619 C115 1.453 . S
C634 C537 1.592 . S
C629 C153 1.415 . S
C644 C539 1.676 . S
C639 C233 1.540 . S
C649 C283 1.447 . S
C654 C536 1.490 . S
C664 C538 1.605 . S
C659 C357 1.492 . S
C674 C496 1.675 . S
C669 C401 1.516 . S
C684 C522 1.589 . S
C679 C463 1.410 . S
C694 C524 1.402 . S
C689 C469 1.367 . S
C704 C550 1.536 . S
C699 C277 1.436 . S
C714 C508 1.548 . S
C709 C363 1.552 . S
C724 C510 1.400 . S
C719 C407 1.385 . S
C734 C509 1.535 . S
C729 C109 1.428 . S
C744 C511 1.401 . S
C739 C159 1.365 . S
C754 C525 1.400 . S
C749 C239 1.372 . S
C764 C551 1.549 . S
C759 C53 1.552 . S
C774 C553 1.605 . S
C769 C481 1.491 . S
C779 C301 1.451 . S
C784 C579 1.490 . S
C789 C339 1.411 . S
C794 C592 1.590 . S
C799 C419 1.541 . S
C804 C595 1.677 . S
C809 C97 1.446 . S
C814 C593 1.490 . S
C819 C171 1.492 . S
C824 C594 1.605 . S
C829 C215 1.516 . S
C834 C552 1.675 . S
C844 C578 1.590 . S
C839 C29 1.413 . S
C854 C581 1.402 . S
C849 C35 1.367 . S
C859 C91 1.436 . S
C864 C606 1.535 . S
C869 C177 1.553 . S
C874 C564 1.548 . S
C879 C221 1.383 . S
C884 C566 1.400 . S
C894 C565 1.535 . S
C889 C295 1.428 . S
C904 C567 1.402 . S
C899 C345 1.367 . S
C909 C425 1.372 . S
C914 C580 1.399 . S
C924 C607 1.550 . S
C919 C487 1.552 . S
