# Generated by pormake.
# Topology hwx, (6,3)-cn, num edge types: 1
# Building blocks:
#     Node 0, Type 0, BuildingBlock: OJICUG_clean_sbu_0, # of connection points: 6
#     Node 1, Type 0, BuildingBlock: OJICUG_clean_sbu_0, # of connection points: 6
#     Node 2, Type 0, BuildingBlock: OJICUG_clean_sbu_0, # of connection points: 6
#     Node 3, Type 0, BuildingBlock: OJICUG_clean_sbu_0, # of connection points: 6
#     Node 4, Type 1, BuildingBlock: PAMTOO_clean_linker_0, # of connection points: 3
#     Node 5, Type 1, BuildingBlock: PAMTOO_clean_linker_0, # of connection points: 3
#     Node 6, Type 1, BuildingBlock: PAMTOO_clean_linker_0, # of connection points: 3
#     Node 7, Type 1, BuildingBlock: PAMTOO_clean_linker_0, # of connection points: 3
#     Node 8, Type 1, BuildingBlock: PAMTOO_clean_linker_0, # of connection points: 3
#     Node 9, Type 1, BuildingBlock: PAMTOO_clean_linker_0, # of connection points: 3
#     Node 10, Type 1, BuildingBlock: PAMTOO_clean_linker_0, # of connection points: 3
#     Node 11, Type 1, BuildingBlock: PAMTOO_clean_linker_0, # of connection points: 3
#     Edge 12, Type (0, 1), BuildingBlock: KIFKEQ_clean_linker_1, # of connection points: 2
#     Edge 13, Type (0, 1), BuildingBlock: KIFKEQ_clean_linker_1, # of connection points: 2
#     Edge 14, Type (0, 1), BuildingBlock: KIFKEQ_clean_linker_1, # of connection points: 2
#     Edge 15, Type (0, 1), BuildingBlock: KIFKEQ_clean_linker_1, # of connection points: 2
#     Edge 16, Type (0, 1), BuildingBlock: KIFKEQ_clean_linker_1, # of connection points: 2
#     Edge 17, Type (0, 1), BuildingBlock: KIFKEQ_clean_linker_1, # of connection points: 2
#     Edge 18, Type (0, 1), BuildingBlock: KIFKEQ_clean_linker_1, # of connection points: 2
#     Edge 19, Type (0, 1), BuildingBlock: KIFKEQ_clean_linker_1, # of connection points: 2
#     Edge 20, Type (0, 1), BuildingBlock: KIFKEQ_clean_linker_1, # of connection points: 2
#     Edge 21, Type (0, 1), BuildingBlock: KIFKEQ_clean_linker_1, # of connection points: 2
#     Edge 22, Type (0, 1), BuildingBlock: KIFKEQ_clean_linker_1, # of connection points: 2
#     Edge 23, Type (0, 1), BuildingBlock: KIFKEQ_clean_linker_1, # of connection points: 2
#     Edge 24, Type (0, 1), BuildingBlock: KIFKEQ_clean_linker_1, # of connection points: 2
#     Edge 25, Type (0, 1), BuildingBlock: KIFKEQ_clean_linker_1, # of connection points: 2
#     Edge 26, Type (0, 1), BuildingBlock: KIFKEQ_clean_linker_1, # of connection points: 2
#     Edge 27, Type (0, 1), BuildingBlock: KIFKEQ_clean_linker_1, # of connection points: 2
#     Edge 28, Type (0, 1), BuildingBlock: KIFKEQ_clean_linker_1, # of connection points: 2
#     Edge 29, Type (0, 1), BuildingBlock: KIFKEQ_clean_linker_1, # of connection points: 2
#     Edge 30, Type (0, 1), BuildingBlock: KIFKEQ_clean_linker_1, # of connection points: 2
#     Edge 31, Type (0, 1), BuildingBlock: KIFKEQ_clean_linker_1, # of connection points: 2
#     Edge 32, Type (0, 1), BuildingBlock: KIFKEQ_clean_linker_1, # of connection points: 2
#     Edge 33, Type (0, 1), BuildingBlock: KIFKEQ_clean_linker_1, # of connection points: 2
#     Edge 34, Type (0, 1), BuildingBlock: KIFKEQ_clean_linker_1, # of connection points: 2
#     Edge 35, Type (0, 1), BuildingBlock: KIFKEQ_clean_linker_1, # of connection points: 2
# Relax obj value: 0.008
# Max RMSD: 0.047
# Mean RMSD: 0.043
data_MOF--net-hwx--node1-OJICUG_clean_sbu_0--node2-PAMTOO_clean_linker_0--edge1-KIFKEQ_clean_linker_1
_symmetry_space_group_name_H-M    P1
_symmetry_Int_Tables_number       1
_symmetry_cell_setting            triclinic
loop_
_symmetry_equiv_pos_as_xyz
'x, y, z'
_cell_length_a     53.747078
_cell_length_b     53.721405
_cell_length_c     20.635843
_cell_angle_alpha  88.173973
_cell_angle_beta   91.782636
_cell_angle_gamma 89.956451
loop_
_atom_site_label
_atom_site_type_symbol
_atom_site_fract_x
_atom_site_fract_y
_atom_site_fract_z
_atom_type_partial_charge
Sc0 Sc 0.23173 0.22854 0.09754 0.0
Sc1 Sc 0.19001 0.18979 0.01223 0.0
Sc2 Sc 0.2297 0.23049 0.92673 0.0
O3 O 0.21715 0.21628 0.01218 0.0
C4 C 0.22843 0.27907 0.01249 0.0
C5 C 0.17367 0.22395 0.12711 0.0
C6 C 0.17143 0.22652 0.89567 0.0
C7 C 0.22622 0.17035 0.12888 0.0
C8 C 0.28018 0.22577 0.01148 0.0
C9 C 0.2236 0.17258 0.89718 0.0
O10 O 0.22883 0.26699 0.06647 0.0
O11 O 0.16879 0.20873 0.08254 0.0
O12 O 0.19273 0.23604 0.88656 0.0
O13 O 0.23625 0.19142 0.13793 0.0
O14 O 0.26803 0.22647 0.95764 0.0
O15 O 0.20836 0.16802 0.94193 0.0
O16 O 0.26973 0.22668 0.0659 0.0
O17 O 0.20907 0.16703 0.08621 0.0
O18 O 0.23227 0.19422 0.88536 0.0
O19 O 0.1955 0.23215 0.13888 0.0
O20 O 0.22893 0.26849 0.95822 0.0
O21 O 0.16772 0.20942 0.93827 0.0
Sc22 Sc 0.26921 0.72962 0.4356 0.0
Sc23 Sc 0.307 0.68612 0.52551 0.0
Sc24 Sc 0.26988 0.72855 0.60618 0.0
O25 O 0.282 0.71474 0.52232 0.0
C26 C 0.27537 0.77836 0.51886 0.0
C27 C 0.32696 0.72072 0.41003 0.0
C28 C 0.32759 0.72017 0.63913 0.0
C29 C 0.2704 0.67146 0.40778 0.0
C30 C 0.21994 0.7289 0.51918 0.0
C31 C 0.27154 0.66998 0.63981 0.0
O32 O 0.27483 0.76757 0.46485 0.0
O33 O 0.3302 0.70438 0.45543 0.0
O34 O 0.30711 0.73146 0.64589 0.0
O35 O 0.26217 0.69344 0.39644 0.0
O36 O 0.23155 0.72763 0.5738 0.0
O37 O 0.28646 0.66477 0.59566 0.0
O38 O 0.23099 0.73007 0.46546 0.0
O39 O 0.2868 0.66625 0.45185 0.0
O40 O 0.2647 0.69211 0.65019 0.0
O41 O 0.30598 0.73094 0.39664 0.0
O42 O 0.27334 0.76659 0.57277 0.0
O43 O 0.33016 0.70265 0.5999 0.0
Sc44 Sc 0.76661 0.77063 0.91347 0.0
Sc45 Sc 0.80913 0.80892 0.99722 0.0
Sc46 Sc 0.77135 0.76676 0.08417 0.0
O47 O 0.78235 0.78211 -0.00172 0.0
C48 C 0.71965 0.77212 0.00474 0.0
C49 C 0.77102 0.82918 0.88577 0.0
C50 C 0.77713 0.82434 0.11714 0.0
C51 C 0.82387 0.77637 0.87786 0.0
C52 C 0.77227 0.71928 0.99457 0.0
C53 C 0.83004 0.7711 0.1086 0.0
O54 O 0.72933 0.77213 0.94926 0.0
O55 O 0.78862 0.83231 0.92731 0.0
O56 O 0.76875 0.80253 0.12834 0.0
O57 O 0.80205 0.76784 0.86805 0.0
O58 O 0.77258 0.7292 0.04976 0.0
O59 O 0.83285 0.78865 0.06667 0.0
O60 O 0.77037 0.73193 0.94157 0.0
O61 O 0.82928 0.79124 0.92282 0.0
O62 O 0.80899 0.76143 0.12006 0.0
O63 O 0.76124 0.80806 0.8759 0.0
O64 O 0.73251 0.77045 0.05744 0.0
O65 O 0.79178 0.82945 0.07144 0.0
Sc66 Sc 0.72901 0.26799 0.58084 0.0
Sc67 Sc 0.68666 0.30704 0.49069 0.0
Sc68 Sc 0.73087 0.27211 0.41042 0.0
O69 O 0.7155 0.28234 0.49411 0.0
C70 C 0.77906 0.27649 0.50425 0.0
C71 C 0.71851 0.32485 0.6134 0.0
C72 C 0.72274 0.33038 0.38523 0.0
C73 C 0.67021 0.26764 0.60044 0.0
C74 C 0.73048 0.22053 0.49053 0.0
C75 C 0.67299 0.27423 0.36942 0.0
O76 O 0.76752 0.27478 0.55715 0.0
O77 O 0.70321 0.3288 0.56604 0.0
O78 O 0.73424 0.31015 0.3766 0.0
O79 O 0.69209 0.2595 0.61382 0.0
O80 O 0.72972 0.23314 0.43729 0.0
O81 O 0.66685 0.28807 0.415 0.0
O82 O 0.73078 0.23056 0.54565 0.0
O83 O 0.66568 0.28497 0.55837 0.0
O84 O 0.69535 0.26768 0.36091 0.0
O85 O 0.72877 0.3038 0.62574 0.0
O86 O 0.76811 0.27524 0.44907 0.0
O87 O 0.70442 0.33194 0.42238 0.0
H88 H 0.22138 0.57502 0.02582 0.0
H89 H 0.22444 0.50532 0.92939 0.0
H90 H 0.22647 0.50613 0.13764 0.0
H91 H 0.26063 0.47008 0.07855 0.0
C92 C 0.2491 0.46567 0.03466 0.0
O93 O 0.22653 0.4778 0.03636 0.0
H94 H 0.25934 0.47207 0.99113 0.0
C95 C 0.22154 0.55481 0.02805 0.0
C96 C 0.22322 0.54223 0.0886 0.0
C97 C 0.22227 0.54175 0.9704 0.0
C98 C 0.2237 0.51568 0.97351 0.0
C99 C 0.22489 0.50288 0.03379 0.0
C100 C 0.22491 0.51613 0.09126 0.0
H101 H 0.92412 0.73323 0.4817 0.0
H102 H 0.99828 0.72966 0.41109 0.0
H103 H 0.9873 0.73941 0.61408 0.0
H104 H 0.03069 0.76572 0.56969 0.0
C105 C 0.03387 0.75562 0.52448 0.0
O106 O 0.02037 0.73379 0.52524 0.0
H107 H 0.02766 0.76783 0.48238 0.0
C108 C 0.94408 0.73326 0.49135 0.0
C109 C 0.95353 0.73701 0.55446 0.0
C110 C 0.96 0.73082 0.43954 0.0
C111 C 0.98579 0.7311 0.45102 0.0
C112 C 0.9955 0.73359 0.5143 0.0
C113 C 0.97945 0.73653 0.56591 0.0
H114 H 0.75149 0.42529 0.0064 0.0
H115 H 0.76718 0.49622 0.08903 0.0
H116 H 0.75137 0.49169 0.88416 0.0
H117 H 0.79108 0.5275 0.91539 0.0
C118 C 0.78581 0.532 0.9654 0.0
O119 O 0.76306 0.52149 0.97857 0.0
H120 H 0.80042 0.52427 -0.00014 0.0
C121 C 0.75385 0.44527 0.00044 0.0
C122 C 0.75038 0.45664 0.93875 0.0
C123 C 0.75988 0.45924 0.0549 0.0
C124 C 0.7627 0.48509 0.04738 0.0
C125 C 0.76006 0.49663 0.9856 0.0
C126 C 0.75385 0.48247 0.93139 0.0
H127 H 0.07541 0.26872 0.50229 0.0
H128 H 0.00522 0.27026 0.59645 0.0
H129 H 0.00695 0.26981 0.38823 0.0
H130 H 0.96932 0.30489 0.4393 0.0
C131 C 0.96608 0.29508 0.48658 0.0
O132 O 0.97817 0.2724 0.48873 0.0
H133 H 0.97361 0.30695 0.52589 0.0
C134 C 0.05524 0.26973 0.49919 0.0
C135 C 0.04291 0.26939 0.43837 0.0
C136 C 0.04183 0.26976 0.5563 0.0
C137 C 0.01578 0.27017 0.55257 0.0
C138 C 0.00326 0.27086 0.49193 0.0
C139 C 0.01677 0.26993 0.43487 0.0
H140 H 0.73124 0.9245 0.49623 0.0
H141 H 0.73341 0.99627 0.58267 0.0
H142 H 0.73577 0.99109 0.3755 0.0
H143 H 0.76634 0.03112 0.42447 0.0
C144 C 0.75701 0.03448 0.47076 0.0
O145 O 0.73487 0.02157 0.47217 0.0
H146 H 0.76963 0.02787 0.51158 0.0
C147 C 0.73138 0.94466 0.49091 0.0
C148 C 0.7332 0.95595 0.42905 0.0
C149 C 0.73164 0.95899 0.54647 0.0
C150 C 0.73302 0.98499 0.54002 0.0
C151 C 0.73408 0.99651 0.47827 0.0
C152 C 0.73439 0.98203 0.42292 0.0
H153 H 0.57608 0.225 0.9608 0.0
H154 H 0.51148 0.23089 0.0777 0.0
H155 H 0.50286 0.22052 0.87252 0.0
H156 H 0.46989 0.25756 0.93324 0.0
C157 C 0.46614 0.24698 0.97917 0.0
O158 O 0.47943 0.22497 0.98152 0.0
H159 H 0.47213 0.25864 0.02041 0.0
C160 C 0.55603 0.2247 0.96552 0.0
C161 C 0.54081 0.22191 0.90999 0.0
C162 C 0.54581 0.22867 0.02603 0.0
C163 C 0.51984 0.22786 0.0315 0.0
C164 C 0.5044 0.22467 0.97627 0.0
C165 C 0.51487 0.2221 0.91533 0.0
H166 H 0.26587 0.07372 0.52183 0.0
H167 H 0.26883 0.00333 0.42886 0.0
H168 H 0.26955 0.00553 0.63715 0.0
H169 H 0.30668 0.97047 0.58074 0.0
C170 C 0.29564 0.96542 0.53657 0.0
O171 O 0.27254 0.97661 0.53721 0.0
H172 H 0.30585 0.97214 0.49329 0.0
C173 C 0.26733 0.05356 0.52525 0.0
C174 C 0.26769 0.04135 0.58628 0.0
C175 C 0.26747 0.04003 0.46841 0.0
C176 C 0.2686 0.01398 0.47257 0.0
C177 C 0.27003 0.00162 0.53346 0.0
C178 C 0.26904 0.01524 0.59029 0.0
H179 H 0.42513 0.7568 0.03791 0.0
H180 H 0.49229 0.76479 0.93038 0.0
H181 H 0.49588 0.76179 0.13894 0.0
H182 H 0.52907 0.79846 0.08128 0.0
C183 C 0.53287 0.78955 0.03466 0.0
O184 O 0.52177 0.76643 0.03339 0.0
H185 H 0.525 0.8017 0.99432 0.0
C186 C 0.44514 0.75919 0.03643 0.0
C187 C 0.45901 0.75953 0.09488 0.0
C188 C 0.45682 0.76092 0.97657 0.0
C189 C 0.48285 0.76319 0.97595 0.0
C190 C 0.49683 0.76376 0.03444 0.0
C191 C 0.48496 0.76155 0.09392 0.0
H192 H 0.177 0.2485 0.2411 0.0
H193 H 0.12347 0.219 0.10313 0.0
H194 H 0.14331 0.26173 0.30777 0.0
H195 H 0.0896 0.23309 0.16886 0.0
H196 H 0.03966 0.23303 0.34959 0.0
H197 H 0.07018 0.22357 0.26858 0.0
H198 H 0.11054 0.29059 0.31541 0.0
H199 H 0.08052 0.29927 0.39807 0.0
C200 C 0.15802 0.24507 0.22457 0.0
C201 C 0.153 0.23256 0.16687 0.0
C202 C 0.13862 0.25288 0.2626 0.0
C203 C 0.11363 0.24865 0.24364 0.0
C204 C 0.10859 0.23641 0.18544 0.0
C205 C 0.12804 0.22838 0.14764 0.0
C206 C 0.05475 0.24598 0.34121 0.0
C207 C 0.05788 0.26678 0.38004 0.0
C208 C 0.07228 0.2406 0.29487 0.0
C209 C 0.09314 0.25608 0.28613 0.0
C210 C 0.09514 0.27787 0.32201 0.0
C211 C 0.07782 0.28304 0.36881 0.0
H212 H 0.24616 0.6737 0.75165 0.0
H213 H 0.27431 0.61973 0.62112 0.0
H214 H 0.23103 0.64023 0.8214 0.0
H215 H 0.25836 0.58608 0.6902 0.0
H216 H 0.25815 0.53709 0.88168 0.0
H217 H 0.26766 0.56668 0.79392 0.0
H218 H 0.20097 0.60816 0.832 0.0
H219 H 0.19212 0.57896 0.92135 0.0
C220 C 0.24887 0.65468 0.73737 0.0
C221 C 0.26162 0.64943 0.68099 0.0
C222 C 0.23995 0.63543 0.77713 0.0
C223 C 0.24331 0.6104 0.76128 0.0
C224 C 0.25567 0.60513 0.70422 0.0
C225 C 0.26479 0.62443 0.66459 0.0
C226 C 0.2452 0.55215 0.86993 0.0
C227 C 0.22453 0.55593 0.90835 0.0
C228 C 0.25063 0.56915 0.81967 0.0
C229 C 0.23532 0.5901 0.80664 0.0
C230 C 0.21351 0.59262 0.84187 0.0
C231 C 0.20829 0.57581 0.89257 0.0
H232 H 0.87933 0.78055 0.08683 0.0
H233 H 0.83081 0.74005 0.21584 0.0
H234 H 0.91542 0.76606 0.15223 0.0
H235 H 0.86652 0.72639 0.28194 0.0
H236 H 0.93093 0.69526 0.38574 0.0
H237 H 0.90254 0.70122 0.29177 0.0
H238 H 0.93368 0.77442 0.25591 0.0
H239 H 0.96274 0.76768 0.34786 0.0
C240 C 0.87635 0.76856 0.12906 0.0
C241 C 0.85214 0.76164 0.14638 0.0
C242 C 0.89704 0.76026 0.16653 0.0
C243 C 0.89396 0.74498 0.22233 0.0
C244 C 0.86976 0.73764 0.23856 0.0
C245 C 0.84916 0.74574 0.20094 0.0
C246 C 0.93231 0.71211 0.3558 0.0
C247 C 0.94889 0.73101 0.37346 0.0
C248 C 0.91587 0.71573 0.30264 0.0
C249 C 0.91535 0.73858 0.26727 0.0
C250 C 0.93357 0.75655 0.2817 0.0
C251 C 0.95029 0.75273 0.3343 0.0
H252 H 0.71443 0.37478 0.58497 0.0
H253 H 0.73517 0.32192 0.73965 0.0
H254 H 0.7216 0.40909 0.6587 0.0
H255 H 0.74187 0.35622 0.81312 0.0
H256 H 0.71545 0.42005 0.93676 0.0
H257 H 0.70857 0.38918 0.85426 0.0
H258 H 0.76116 0.42692 0.73181 0.0
H259 H 0.76889 0.45762 0.81591 0.0
C260 C 0.72056 0.3705 0.63459 0.0
C261 C 0.7241 0.34564 0.65672 0.0
C262 C 0.72477 0.39012 0.67645 0.0
C263 C 0.7321 0.38517 0.74136 0.0
C264 C 0.73604 0.36041 0.76323 0.0
C265 C 0.7323 0.34083 0.72117 0.0
C266 C 0.72556 0.42185 0.89225 0.0
C267 C 0.74313 0.44095 0.88338 0.0
C268 C 0.72157 0.4042 0.84513 0.0
C269 C 0.73468 0.40551 0.78751 0.0
C270 C 0.75094 0.42555 0.7762 0.0
C271 C 0.75524 0.44313 0.82403 0.0
H272 H 0.62241 0.27522 0.38335 0.0
H273 H 0.6791 0.254 0.25135 0.0
H274 H 0.59012 0.26327 0.30401 0.0
H275 H 0.64686 0.24227 0.17265 0.0
H276 H 0.58474 0.26082 0.02231 0.0
H277 H 0.61461 0.27014 0.10876 0.0
H278 H 0.57421 0.2231 0.24225 0.0
H279 H 0.54431 0.21297 0.1544 0.0
C280 C 0.62799 0.26793 0.33766 0.0
C281 C 0.65334 0.26579 0.32338 0.0
C282 C 0.60951 0.26094 0.29262 0.0
C283 C 0.61609 0.25204 0.23231 0.0
C284 C 0.64136 0.24932 0.21871 0.0
C285 C 0.6598 0.25598 0.26386 0.0
C286 C 0.5823 0.25216 0.06981 0.0
C287 C 0.5625 0.23564 0.08112 0.0
C288 C 0.59937 0.2576 0.11931 0.0
C289 C 0.5969 0.24699 0.18167 0.0
C290 C 0.57649 0.23141 0.1943 0.0
C291 C 0.55942 0.22569 0.14423 0.0
H292 H 0.24759 0.17562 0.78247 0.0
H293 H 0.21817 0.12241 0.92158 0.0
H294 H 0.2604 0.14179 0.71585 0.0
H295 H 0.23186 0.08835 0.85584 0.0
H296 H 0.23148 0.03817 0.6754 0.0
H297 H 0.22219 0.06878 0.75637 0.0
H298 H 0.2892 0.10899 0.70848 0.0
H299 H 0.29765 0.07893 0.62579 0.0
C300 C 0.24409 0.15667 0.79924 0.0
C301 C 0.23175 0.15178 0.85729 0.0
C302 C 0.25166 0.13718 0.76125 0.0
C303 C 0.24738 0.11223 0.7806 0.0
C304 C 0.23524 0.10731 0.83903 0.0
C305 C 0.22743 0.12686 0.87682 0.0
C306 C 0.24446 0.05326 0.68355 0.0
C307 C 0.26519 0.05635 0.64447 0.0
C308 C 0.23918 0.07083 0.72986 0.0
C309 C 0.25471 0.09167 0.73826 0.0
C310 C 0.27644 0.09361 0.70213 0.0
C311 C 0.28149 0.07627 0.65532 0.0
H312 H 0.32682 0.75 0.29928 0.0
H313 H 0.37614 0.70853 0.4325 0.0
H314 H 0.36189 0.76142 0.23351 0.0
H315 H 0.4115 0.72063 0.36733 0.0
H316 H 0.45862 0.7198 0.1795 0.0
H317 H 0.42831 0.71187 0.26369 0.0
H318 H 0.39858 0.78615 0.22984 0.0
H319 H 0.42828 0.79343 0.14411 0.0
C320 C 0.34518 0.74353 0.315 0.0
C321 C 0.34858 0.72823 0.37106 0.0
C322 C 0.3654 0.75028 0.27752 0.0
C323 C 0.3896 0.74211 0.29534 0.0
C324 C 0.39309 0.72707 0.3519 0.0
C325 C 0.3728 0.72017 0.38929 0.0
C326 C 0.44605 0.73459 0.19174 0.0
C327 C 0.44565 0.75719 0.15592 0.0
C328 C 0.42866 0.7301 0.23978 0.0
C329 C 0.4107 0.74824 0.25276 0.0
C330 C 0.41173 0.77157 0.22 0.0
C331 C 0.42889 0.7759 0.1716 0.0
H332 H 0.74089 0.82863 0.77711 0.0
H333 H 0.78058 0.87879 0.90317 0.0
H334 H 0.72827 0.86343 0.70637 0.0
H335 H 0.76706 0.91403 0.83312 0.0
H336 H 0.69732 0.92768 0.59762 0.0
H337 H 0.70337 0.8992 0.69134 0.0
H338 H 0.77601 0.93126 0.72898 0.0
H339 H 0.76914 0.96049 0.63722 0.0
C340 C 0.74659 0.84717 0.7904 0.0
C341 C 0.76194 0.85085 0.84559 0.0
C342 C 0.73911 0.86725 0.75001 0.0
C343 C 0.74652 0.89166 0.76403 0.0
C344 C 0.76125 0.89547 0.82039 0.0
C345 C 0.76896 0.87527 0.86062 0.0
C346 C 0.71418 0.92906 0.62746 0.0
C347 C 0.73279 0.94611 0.6106 0.0
C348 C 0.71783 0.91261 0.68061 0.0
C349 C 0.74044 0.91249 0.71691 0.0
C350 C 0.75831 0.93086 0.70255 0.0
C351 C 0.75443 0.94761 0.64998 0.0
H352 H 0.87434 0.77993 0.8985 0.0
H353 H 0.81842 0.75603 0.75874 0.0
H354 H 0.90699 0.76948 0.82376 0.0
H355 H 0.85103 0.74585 0.68443 0.0
H356 H 0.91274 0.76713 0.54359 0.0
H357 H 0.88214 0.7749 0.62466 0.0
H358 H 0.92452 0.72981 0.76535 0.0
H359 H 0.95508 0.72109 0.68294 0.0
C360 C 0.86901 0.77239 0.85202 0.0
C361 C 0.84376 0.769 0.8343 0.0
C362 C 0.88771 0.76626 0.80961 0.0
C363 C 0.88145 0.75701 0.74843 0.0
C364 C 0.85629 0.75315 0.73124 0.0
C365 C 0.83765 0.75892 0.77387 0.0
C366 C 0.91546 0.7585 0.59144 0.0
C367 C 0.9361 0.74298 0.60631 0.0
C368 C 0.89796 0.76308 0.6379 0.0
C369 C 0.90083 0.75265 0.70078 0.0
C370 C 0.92193 0.738 0.71697 0.0
C371 C 0.9394 0.7331 0.66996 0.0
H372 H 0.69508 0.37073 0.34326 0.0
H373 H 0.76996 0.34143 0.35097 0.0
H374 H 0.70875 0.4062 0.27711 0.0
H375 H 0.78408 0.37755 0.28822 0.0
H376 H 0.78664 0.41769 0.0874 0.0
H377 H 0.78051 0.38968 0.17963 0.0
H378 H 0.73136 0.44343 0.26125 0.0
H379 H 0.73663 0.47099 0.16597 0.0
C380 C 0.71458 0.37219 0.33185 0.0
C381 C 0.73135 0.3531 0.35084 0.0
C382 C 0.72253 0.39267 0.29453 0.0
C383 C 0.74754 0.3947 0.27656 0.0
C384 C 0.76458 0.37633 0.29956 0.0
C385 C 0.75651 0.35562 0.33556 0.0
C386 C 0.77496 0.42372 0.1258 0.0
C387 C 0.76173 0.44623 0.1191 0.0
C388 C 0.77155 0.40773 0.17918 0.0
C389 C 0.75504 0.41402 0.22767 0.0
C390 C 0.74372 0.43772 0.22402 0.0
C391 C 0.747 0.45369 0.17002 0.0
H392 H 0.17333 0.25477 0.78389 0.0
H393 H 0.12154 0.21869 0.91249 0.0
H394 H 0.13912 0.26796 0.71185 0.0
H395 H 0.08693 0.23279 0.84107 0.0
H396 H 0.03948 0.2322 0.64696 0.0
H397 H 0.06906 0.22394 0.73734 0.0
H398 H 0.10463 0.29472 0.69688 0.0
H399 H 0.07575 0.30213 0.60466 0.0
C400 C 0.15458 0.24996 0.79735 0.0
C401 C 0.15022 0.23553 0.85381 0.0
C402 C 0.13485 0.25775 0.75621 0.0
C403 C 0.11016 0.25161 0.77074 0.0
C404 C 0.10572 0.23763 0.82801 0.0
C405 C 0.12555 0.22959 0.86901 0.0
C406 C 0.05327 0.24618 0.65874 0.0
C407 C 0.05558 0.26769 0.61911 0.0
C408 C 0.07021 0.24152 0.71049 0.0
C409 C 0.08956 0.25846 0.72373 0.0
C410 C 0.09042 0.28095 0.68697 0.0
C411 C 0.07377 0.28538 0.63469 0.0
H412 H 0.27483 0.62123 0.43213 0.0
H413 H 0.24388 0.6754 0.29265 0.0
H414 H 0.25988 0.58766 0.36457 0.0
H415 H 0.22977 0.64197 0.2241 0.0
H416 H 0.19277 0.57921 0.1264 0.0
H417 H 0.20131 0.60884 0.21145 0.0
H418 H 0.26928 0.56918 0.26539 0.0
H419 H 0.26005 0.53911 0.18194 0.0
C420 C 0.2649 0.62599 0.38695 0.0
C421 C 0.26067 0.65103 0.36764 0.0
C422 C 0.25638 0.60672 0.34811 0.0
C423 C 0.24361 0.61202 0.28876 0.0
C424 C 0.23909 0.63709 0.27003 0.0
C425 C 0.24738 0.65633 0.30915 0.0
C426 C 0.2092 0.57658 0.15765 0.0
C427 C 0.22579 0.55698 0.14772 0.0
C428 C 0.21426 0.59366 0.20589 0.0
C429 C 0.23624 0.59173 0.24458 0.0
C430 C 0.25207 0.57119 0.237 0.0
C431 C 0.24682 0.55391 0.18921 0.0
H432 H 0.36716 0.69192 0.68421 0.0
H433 H 0.33734 0.7666 0.68138 0.0
H434 H 0.40119 0.70465 0.75672 0.0
H435 H 0.372 0.7798 0.7505 0.0
H436 H 0.4123 0.78356 0.94806 0.0
H437 H 0.38341 0.77513 0.8593 0.0
H438 H 0.43805 0.72748 0.77594 0.0
H439 H 0.46647 0.73471 0.8681 0.0
C440 C 0.36817 0.71117 0.69823 0.0
C441 C 0.34939 0.72816 0.67833 0.0
C442 C 0.3878 0.71857 0.73931 0.0
C443 C 0.38928 0.74324 0.76023 0.0
C444 C 0.37115 0.7605 0.73702 0.0
C445 C 0.35129 0.75297 0.69722 0.0
C446 C 0.4182 0.77133 0.9107 0.0
C447 C 0.44147 0.75941 0.91581 0.0
C448 C 0.40173 0.76673 0.85908 0.0
C449 C 0.40823 0.7504 0.8104 0.0
C450 C 0.43221 0.73975 0.81322 0.0
C451 C 0.44865 0.74417 0.86552 0.0
H452 H 0.78171 0.87456 0.09377 0.0
H453 H 0.75433 0.82048 0.2337 0.0
H454 H 0.76825 0.90816 0.16106 0.0
H455 H 0.74172 0.85398 0.302 0.0
H456 H 0.70389 0.91718 0.39272 0.0
H457 H 0.71256 0.88661 0.31141 0.0
H458 H 0.77883 0.9274 0.2602 0.0
H459 H 0.7695 0.95835 0.33998 0.0
C460 C 0.77298 0.86982 0.13912 0.0
C461 C 0.76917 0.84479 0.15841 0.0
C462 C 0.76531 0.88912 0.1778 0.0
C463 C 0.75382 0.88386 0.23698 0.0
C464 C 0.75001 0.8588 0.25613 0.0
C465 C 0.75745 0.83953 0.21719 0.0
C466 C 0.72002 0.91978 0.36304 0.0
C467 C 0.73607 0.94003 0.37256 0.0
C468 C 0.72515 0.90218 0.31693 0.0
C469 C 0.74665 0.90425 0.27995 0.0
C470 C 0.762 0.92527 0.28732 0.0
C471 C 0.75668 0.94304 0.33299 0.0
H472 H 0.6205 0.27221 0.56924 0.0
H473 H 0.67184 0.23827 0.71129 0.0
H474 H 0.58557 0.25608 0.63008 0.0
H475 H 0.63703 0.22293 0.7732 0.0
H476 H 0.53631 0.25708 0.81342 0.0
H477 H 0.56601 0.26488 0.72827 0.0
H478 H 0.60295 0.19522 0.7805 0.0
H479 H 0.57373 0.18818 0.86748 0.0
C480 C 0.62436 0.26131 0.61348 0.0
C481 C 0.64901 0.25674 0.63573 0.0
C482 C 0.60429 0.25208 0.6484 0.0
C483 C 0.60838 0.23822 0.70669 0.0
C484 C 0.63307 0.2331 0.72791 0.0
C485 C 0.65312 0.24212 0.69269 0.0
C486 C 0.55021 0.24304 0.80484 0.0
C487 C 0.55284 0.22208 0.84671 0.0
C488 C 0.56734 0.2475 0.75618 0.0
C489 C 0.58727 0.23093 0.74835 0.0
C490 C 0.58827 0.2087 0.78631 0.0
C491 C 0.57134 0.20444 0.83543 0.0
H492 H 0.21639 0.12069 0.11347 0.0
H493 H 0.25523 0.1715 0.23947 0.0
H494 H 0.22964 0.08576 0.18499 0.0
H495 H 0.26762 0.13698 0.31155 0.0
H496 H 0.30053 0.07256 0.41737 0.0
H497 H 0.2933 0.10152 0.32514 0.0
H498 H 0.22092 0.06853 0.28995 0.0
H499 H 0.22896 0.03884 0.38039 0.0
C500 C 0.22772 0.12442 0.15639 0.0
C501 C 0.23468 0.14892 0.17082 0.0
C502 C 0.23526 0.1044 0.19744 0.0
C503 C 0.2498 0.10848 0.25396 0.0
C504 C 0.25695 0.13298 0.26775 0.0
C505 C 0.24962 0.15289 0.22659 0.0
C506 C 0.28344 0.07114 0.38845 0.0
C507 C 0.26527 0.05364 0.40547 0.0
C508 C 0.27913 0.08785 0.33619 0.0
C509 C 0.25629 0.08774 0.30093 0.0
C510 C 0.23878 0.06908 0.31564 0.0
C511 C 0.24331 0.05208 0.3674 0.0
H512 H 0.23734 0.31229 0.91219 0.0
H513 H 0.22001 0.30838 0.11545 0.0
H514 H 0.24127 0.3574 0.91712 0.0
H515 H 0.22327 0.35342 0.11983 0.0
H516 H 0.26206 0.42893 0.12489 0.0
H517 H 0.25553 0.38415 0.11785 0.0
H518 H 0.21896 0.39583 0.92971 0.0
H519 H 0.2263 0.44067 0.9364 0.0
C520 C 0.23402 0.32106 0.95768 0.0
C521 C 0.22858 0.30665 0.01354 0.0
C522 C 0.23619 0.34695 0.96045 0.0
C523 C 0.23282 0.35903 0.01905 0.0
C524 C 0.22653 0.34468 0.07427 0.0
C525 C 0.22451 0.31883 0.07161 0.0
C526 C 0.25266 0.42186 0.08212 0.0
C527 C 0.24475 0.43811 0.03104 0.0
C528 C 0.24872 0.39625 0.0782 0.0
C529 C 0.23663 0.38636 0.02327 0.0
C530 C 0.22859 0.40276 0.97233 0.0
C531 C 0.23264 0.42838 0.9762 0.0
H532 H 0.18994 0.7321 0.62319 0.0
H533 H 0.18738 0.72878 0.41396 0.0
H534 H 0.14508 0.73715 0.62245 0.0
H535 H 0.14221 0.73313 0.41353 0.0
H536 H 0.06706 0.77295 0.43519 0.0
H537 H 0.11169 0.76468 0.43274 0.0
H538 H 0.1064 0.71633 0.60332 0.0
H539 H 0.0619 0.72541 0.60667 0.0
C540 C 0.17981 0.73212 0.57699 0.0
C541 C 0.19237 0.73016 0.51857 0.0
C542 C 0.15399 0.73488 0.57665 0.0
C543 C 0.14 0.73559 0.51793 0.0
C544 C 0.15246 0.73305 0.45955 0.0
C545 C 0.17835 0.7304 0.45984 0.0
C546 C 0.0755 0.76049 0.47191 0.0
C547 C 0.06114 0.74973 0.52103 0.0
C548 C 0.101 0.75559 0.47029 0.0
C549 C 0.11265 0.7398 0.51777 0.0
C550 C 0.09811 0.72883 0.56648 0.0
C551 C 0.07265 0.73385 0.56826 0.0
H552 H 0.77819 0.69173 0.88697 0.0
H553 H 0.77112 0.68451 0.09489 0.0
H554 H 0.78171 0.6468 0.8811 0.0
H555 H 0.77399 0.63935 0.08862 0.0
H556 H 0.80613 0.56139 0.05983 0.0
H557 H 0.80303 0.6066 0.06753 0.0
H558 H 0.757 0.60986 0.89183 0.0
H559 H 0.76087 0.56473 0.88351 0.0
C560 C 0.77721 0.68058 0.93146 0.0
C561 C 0.77432 0.69181 0.99143 0.0
C562 C 0.7791 0.65474 0.92799 0.0
C563 C 0.77801 0.63942 0.98432 0.0
C564 C 0.77519 0.65062 0.04437 0.0
C565 C 0.77341 0.67652 0.04791 0.0
C566 C 0.79549 0.57188 0.0228 0.0
C567 C 0.78401 0.55978 0.97056 0.0
C568 C 0.79352 0.59771 0.02743 0.0
C569 C 0.77984 0.6119 0.98015 0.0
C570 C 0.76806 0.59959 0.92841 0.0
C571 C 0.77014 0.5738 0.9237 0.0
H572 H 0.80816 0.28885 0.40245 0.0
H573 H 0.81217 0.27174 0.60868 0.0
H574 H 0.85302 0.2927 0.40163 0.0
H575 H 0.85757 0.27514 0.60743 0.0
H576 H 0.93637 0.30967 0.58481 0.0
H577 H 0.89124 0.3051 0.59208 0.0
H578 H 0.88917 0.26635 0.41159 0.0
H579 H 0.93415 0.27162 0.40382 0.0
C580 C 0.81861 0.28577 0.44773 0.0
C581 C 0.80648 0.27978 0.50562 0.0
C582 C 0.84444 0.28784 0.4471 0.0
C583 C 0.85896 0.28388 0.50424 0.0
C584 C 0.8469 0.2784 0.56258 0.0
C585 C 0.8209 0.27639 0.56329 0.0
C586 C 0.92618 0.30013 0.54691 0.0
C587 C 0.93857 0.29115 0.49343 0.0
C588 C 0.90039 0.29737 0.55125 0.0
C589 C 0.88655 0.28554 0.50218 0.0
C590 C 0.89918 0.27598 0.44961 0.0
C591 C 0.92491 0.27883 0.44523 0.0
H592 H 0.7364 0.19242 0.38381 0.0
H593 H 0.72852 0.18621 0.5916 0.0
H594 H 0.74187 0.14762 0.38022 0.0
H595 H 0.7333 0.14118 0.5876 0.0
H596 H 0.77299 0.06632 0.56495 0.0
H597 H 0.76521 0.11099 0.57003 0.0
H598 H 0.72081 0.10861 0.39195 0.0
H599 H 0.72942 0.06405 0.38617 0.0
C600 C 0.73553 0.1815 0.4287 0.0
C601 C 0.73213 0.19301 0.48807 0.0
C602 C 0.73854 0.15572 0.42655 0.0
C603 C 0.73809 0.14075 0.48363 0.0
C604 C 0.73416 0.15219 0.54285 0.0
C605 C 0.73127 0.17801 0.54507 0.0
C606 C 0.76159 0.07543 0.527 0.0
C607 C 0.75185 0.06188 0.47502 0.0
C608 C 0.75694 0.10095 0.53011 0.0
C609 C 0.74235 0.11343 0.48142 0.0
C610 C 0.73241 0.0997 0.42978 0.0
C611 C 0.73719 0.07421 0.42655 0.0
H612 H 0.3088 0.21461 0.90926 0.0
H613 H 0.31401 0.23572 0.10962 0.0
H614 H 0.35378 0.21724 0.90272 0.0
H615 H 0.35911 0.23903 0.10245 0.0
H616 H 0.44232 0.22497 0.08097 0.0
H617 H 0.39771 0.21687 0.09073 0.0
H618 H 0.38418 0.24966 0.89877 0.0
H619 H 0.42868 0.25694 0.88879 0.0
C620 C 0.31954 0.21978 0.95203 0.0
C621 C 0.30773 0.22517 0.00983 0.0
C622 C 0.34537 0.22143 0.94813 0.0
C623 C 0.36008 0.22868 0.00175 0.0
C624 C 0.34838 0.2332 0.06032 0.0
C625 C 0.32249 0.23139 0.06439 0.0
C626 C 0.42968 0.23023 0.04092 0.0
C627 C 0.43881 0.24154 0.98419 0.0
C628 C 0.40419 0.22576 0.04655 0.0
C629 C 0.38733 0.23258 0.99552 0.0
C630 C 0.39663 0.24376 0.9386 0.0
C631 C 0.42209 0.24812 0.93296 0.0
H632 H 0.27257 0.80812 0.62321 0.0
H633 H 0.2848 0.81089 0.41696 0.0
H634 H 0.2772 0.85296 0.62604 0.0
H635 H 0.29009 0.85598 0.42031 0.0
H636 H 0.27201 0.93924 0.44165 0.0
H637 H 0.26699 0.89405 0.43576 0.0
H638 H 0.30871 0.8843 0.61736 0.0
H639 H 0.31296 0.92937 0.62375 0.0
C640 C 0.2764 0.81825 0.57841 0.0
C641 C 0.27834 0.8058 0.51981 0.0
C642 C 0.27921 0.84402 0.58018 0.0
C643 C 0.28417 0.85809 0.52351 0.0
C644 C 0.28602 0.84572 0.46474 0.0
C645 C 0.28312 0.81986 0.46289 0.0
C646 C 0.27996 0.9273 0.48025 0.0
C647 C 0.29266 0.93766 0.53336 0.0
C648 C 0.2773 0.90148 0.47671 0.0
C649 C 0.28739 0.88554 0.52618 0.0
C650 C 0.30033 0.89603 0.57897 0.0
C651 C 0.30289 0.92182 0.58257 0.0
H652 H 0.6847 0.77032 0.9053 0.0
H653 H 0.69244 0.77911 0.11253 0.0
H654 H 0.63967 0.77389 0.91194 0.0
H655 H 0.64757 0.78335 0.11874 0.0
H656 H 0.56502 0.76452 0.11798 0.0
H657 H 0.61002 0.7595 0.1099 0.0
H658 H 0.60773 0.80393 0.93134 0.0
H659 H 0.56266 0.80814 0.93877 0.0
C660 C 0.67684 0.77313 0.95222 0.0
C661 C 0.69224 0.77435 0.00839 0.0
C662 C 0.65101 0.77531 0.95596 0.0
C663 C 0.63998 0.77889 0.01589 0.0
C664 C 0.65539 0.78019 0.07196 0.0
C665 C 0.68118 0.77788 0.0683 0.0
C666 C 0.57426 0.77309 0.07704 0.0
C667 C 0.56052 0.78668 0.02905 0.0
C668 C 0.59999 0.77039 0.07252 0.0
C669 C 0.61252 0.78137 0.02002 0.0
C670 C 0.59865 0.79494 0.97192 0.0
C671 C 0.57289 0.79752 0.97634 0.0
loop_
_geom_bond_atom_site_label_1
_geom_bond_atom_site_label_2
_geom_bond_distance
_geom_bond_site_symmetry_2
_ccdc_geom_bond_type
Sc0 O3 2.025 . S
Sc0 O10 2.105 . S
Sc0 O13 2.105 . S
Sc0 O16 2.105 . S
Sc0 O19 2.105 . S
Sc1 O3 2.025 . S
Sc1 O11 2.105 . S
Sc1 O15 2.105 1_554 S
Sc1 O17 2.105 . S
Sc1 O21 2.105 1_554 S
Sc2 O3 2.025 1_556 S
Sc2 O12 2.105 . S
Sc2 O14 2.105 . S
Sc2 O18 2.105 . S
Sc2 O20 2.105 . S
O3 Sc0 2.025 . S
O3 Sc1 2.025 . S
O3 Sc2 2.025 1_554 S
C4 O10 1.268 . S
C4 O20 1.268 1_554 S
C5 O11 1.268 . S
C5 O19 1.268 . S
C6 O12 1.268 . S
C6 O21 1.268 . S
C7 O13 1.268 . S
C7 O17 1.268 . S
C8 O14 1.268 1_554 S
C8 O16 1.268 . S
C9 O15 1.268 . S
C9 O18 1.268 . S
O10 Sc0 2.105 . S
O10 C4 1.268 . S
O11 Sc1 2.105 . S
O11 C5 1.268 . S
O12 Sc2 2.105 . S
O12 C6 1.268 . S
O13 Sc0 2.105 . S
O13 C7 1.268 . S
O14 Sc2 2.105 . S
O14 C8 1.268 1_556 S
O15 Sc1 2.105 1_556 S
O15 C9 1.268 . S
O16 Sc0 2.105 . S
O16 C8 1.268 . S
O17 Sc1 2.105 . S
O17 C7 1.268 . S
O18 Sc2 2.105 . S
O18 C9 1.268 . S
O19 Sc0 2.105 . S
O19 C5 1.268 . S
O20 Sc2 2.105 . S
O20 C4 1.268 1_556 S
O21 Sc1 2.105 1_556 S
O21 C6 1.268 . S
Sc22 O25 2.025 . S
Sc22 O32 2.105 . S
Sc22 O35 2.105 . S
Sc22 O38 2.105 . S
Sc22 O41 2.105 . S
Sc23 O25 2.025 . S
Sc23 O33 2.105 . S
Sc23 O37 2.105 . S
Sc23 O39 2.105 . S
Sc23 O43 2.105 . S
Sc24 O25 2.025 . S
Sc24 O34 2.105 . S
Sc24 O36 2.105 . S
Sc24 O40 2.105 . S
Sc24 O42 2.105 . S
O25 Sc22 2.025 . S
O25 Sc23 2.025 . S
O25 Sc24 2.025 . S
C26 O32 1.268 . S
C26 O42 1.268 . S
C27 O33 1.268 . S
C27 O41 1.268 . S
C28 O34 1.268 . S
C28 O43 1.268 . S
C29 O35 1.268 . S
C29 O39 1.268 . S
C30 O36 1.268 . S
C30 O38 1.268 . S
C31 O37 1.268 . S
C31 O40 1.268 . S
O32 Sc22 2.105 . S
O32 C26 1.268 . S
O33 Sc23 2.105 . S
O33 C27 1.268 . S
O34 Sc24 2.105 . S
O34 C28 1.268 . S
O35 Sc22 2.105 . S
O35 C29 1.268 . S
O36 Sc24 2.105 . S
O36 C30 1.268 . S
O37 Sc23 2.105 . S
O37 C31 1.268 . S
O38 Sc22 2.105 . S
O38 C30 1.268 . S
O39 Sc23 2.105 . S
O39 C29 1.268 . S
O40 Sc24 2.105 . S
O40 C31 1.268 . S
O41 Sc22 2.105 . S
O41 C27 1.268 . S
O42 Sc24 2.105 . S
O42 C26 1.268 . S
O43 Sc23 2.105 . S
O43 C28 1.268 . S
Sc44 O47 2.025 1_556 S
Sc44 O54 2.105 . S
Sc44 O57 2.105 . S
Sc44 O60 2.105 . S
Sc44 O63 2.105 . S
Sc45 O47 2.025 . S
Sc45 O55 2.105 1_554 S
Sc45 O59 2.105 . S
Sc45 O61 2.105 1_554 S
Sc45 O65 2.105 . S
Sc46 O47 2.025 . S
Sc46 O56 2.105 . S
Sc46 O58 2.105 . S
Sc46 O62 2.105 . S
Sc46 O64 2.105 . S
O47 Sc44 2.025 1_554 S
O47 Sc45 2.025 . S
O47 Sc46 2.025 . S
C48 O54 1.268 1_554 S
C48 O64 1.268 . S
C49 O55 1.268 . S
C49 O63 1.268 . S
C50 O56 1.268 . S
C50 O65 1.268 . S
C51 O57 1.268 . S
C51 O61 1.268 . S
C52 O58 1.268 . S
C52 O60 1.268 1_554 S
C53 O59 1.268 . S
C53 O62 1.268 . S
O54 Sc44 2.105 . S
O54 C48 1.268 1_556 S
O55 Sc45 2.105 1_556 S
O55 C49 1.268 . S
O56 Sc46 2.105 . S
O56 C50 1.268 . S
O57 Sc44 2.105 . S
O57 C51 1.268 . S
O58 Sc46 2.105 . S
O58 C52 1.268 . S
O59 Sc45 2.105 . S
O59 C53 1.268 . S
O60 Sc44 2.105 . S
O60 C52 1.268 1_556 S
O61 Sc45 2.105 1_556 S
O61 C51 1.268 . S
O62 Sc46 2.105 . S
O62 C53 1.268 . S
O63 Sc44 2.105 . S
O63 C49 1.268 . S
O64 Sc46 2.105 . S
O64 C48 1.268 . S
O65 Sc45 2.105 . S
O65 C50 1.268 . S
Sc66 O69 2.025 . S
Sc66 O76 2.105 . S
Sc66 O79 2.105 . S
Sc66 O82 2.105 . S
Sc66 O85 2.105 . S
Sc67 O69 2.025 . S
Sc67 O77 2.105 . S
Sc67 O81 2.105 . S
Sc67 O83 2.105 . S
Sc67 O87 2.105 . S
Sc68 O69 2.025 . S
Sc68 O78 2.105 . S
Sc68 O80 2.105 . S
Sc68 O84 2.105 . S
Sc68 O86 2.105 . S
O69 Sc66 2.025 . S
O69 Sc67 2.025 . S
O69 Sc68 2.025 . S
C70 O76 1.268 . S
C70 O86 1.268 . S
C71 O77 1.268 . S
C71 O85 1.268 . S
C72 O78 1.268 . S
C72 O87 1.268 . S
C73 O79 1.268 . S
C73 O83 1.268 . S
C74 O80 1.268 . S
C74 O82 1.268 . S
C75 O81 1.268 . S
C75 O84 1.268 . S
O76 Sc66 2.105 . S
O76 C70 1.268 . S
O77 Sc67 2.105 . S
O77 C71 1.268 . S
O78 Sc68 2.105 . S
O78 C72 1.268 . S
O79 Sc66 2.105 . S
O79 C73 1.268 . S
O80 Sc68 2.105 . S
O80 C74 1.268 . S
O81 Sc67 2.105 . S
O81 C75 1.268 . S
O82 Sc66 2.105 . S
O82 C74 1.268 . S
O83 Sc67 2.105 . S
O83 C73 1.268 . S
O84 Sc68 2.105 . S
O84 C75 1.268 . S
O85 Sc66 2.105 . S
O85 C71 1.268 . S
O86 Sc68 2.105 . S
O86 C70 1.268 . S
O87 Sc67 2.105 . S
O87 C72 1.268 . S
H88 C95 0.929 . S
H89 C98 0.930 . S
H90 C100 0.929 . S
H91 C92 0.969 . S
C92 H91 0.969 . S
C92 O93 1.550 1_556 S
C92 H94 0.973 . S
O93 C92 1.550 1_554 S
O93 C99 1.412 . S
H94 C92 0.973 . S
C95 H88 0.929 . S
C95 C96 1.400 . S
C95 C97 1.364 1_554 S
C96 C95 1.400 . S
C96 C100 1.377 . S
C97 C95 1.364 1_556 S
C97 C98 1.374 . S
C98 H89 0.930 . S
C98 C97 1.374 . S
C98 C99 1.383 1_556 S
C99 O93 1.412 . S
C99 C98 1.383 1_554 S
C99 C100 1.394 . S
C100 H90 0.929 . S
C100 C96 1.377 . S
C100 C99 1.394 . S
H101 C108 0.929 . S
H102 C111 0.930 . S
H103 C113 0.929 . S
H104 C105 0.969 . S
C105 H104 0.969 . S
C105 O106 1.550 . S
C105 H107 0.973 . S
O106 C105 1.550 . S
O106 C112 1.412 1_455 S
H107 C105 0.973 . S
C108 H101 0.929 . S
C108 C109 1.400 . S
C108 C110 1.364 . S
C109 C108 1.400 . S
C109 C113 1.377 . S
C110 C108 1.364 . S
C110 C111 1.374 . S
C111 H102 0.930 . S
C111 C110 1.374 . S
C111 C112 1.383 . S
C112 O106 1.412 1_655 S
C112 C111 1.383 . S
C112 C113 1.394 . S
C113 H103 0.929 . S
C113 C109 1.377 . S
C113 C112 1.394 . S
H114 C121 0.929 . S
H115 C124 0.930 . S
H116 C126 0.929 . S
H117 C118 0.969 . S
C118 H117 0.969 . S
C118 O119 1.550 1_554 S
C118 H120 0.973 . S
O119 C118 1.550 1_556 S
O119 C125 1.412 . S
H120 C118 0.973 . S
C121 H114 0.929 . S
C121 C122 1.392 1_554 S
C121 C123 1.370 . S
C122 C121 1.392 1_556 S
C122 C126 1.377 . S
C123 C121 1.370 . S
C123 C124 1.374 . S
C124 H115 0.930 . S
C124 C123 1.374 . S
C124 C125 1.383 1_554 S
C125 O119 1.412 . S
C125 C124 1.383 1_556 S
C125 C126 1.394 . S
C126 H116 0.929 . S
C126 C122 1.377 . S
C126 C125 1.394 . S
H127 C134 0.929 . S
H128 C137 0.930 . S
H129 C139 0.929 . S
H130 C131 0.969 . S
C131 H130 0.969 . S
C131 O132 1.550 . S
C131 H133 0.973 . S
O132 C131 1.550 . S
O132 C138 1.412 1_655 S
H133 C131 0.973 . S
C134 H127 0.929 . S
C134 C135 1.400 . S
C134 C136 1.364 . S
C135 C134 1.400 . S
C135 C139 1.377 . S
C136 C134 1.364 . S
C136 C137 1.374 . S
C137 H128 0.930 . S
C137 C136 1.374 . S
C137 C138 1.383 . S
C138 O132 1.412 1_455 S
C138 C137 1.383 . S
C138 C139 1.394 . S
C139 H129 0.929 . S
C139 C135 1.377 . S
C139 C138 1.394 . S
H140 C147 0.929 . S
H141 C150 0.930 . S
H142 C152 0.929 . S
H143 C144 0.969 . S
C144 H143 0.969 . S
C144 O145 1.550 . S
C144 H146 0.973 . S
O145 C144 1.550 . S
O145 C151 1.412 1_545 S
H146 C144 0.973 . S
C147 H140 0.929 . S
C147 C148 1.400 . S
C147 C149 1.364 . S
C148 C147 1.400 . S
C148 C152 1.377 . S
C149 C147 1.364 . S
C149 C150 1.374 . S
C150 H141 0.930 . S
C150 C149 1.374 . S
C150 C151 1.383 . S
C151 O145 1.412 1_565 S
C151 C150 1.383 . S
C151 C152 1.394 . S
C152 H142 0.929 . S
C152 C148 1.377 . S
C152 C151 1.394 . S
H153 C160 0.929 . S
H154 C163 0.930 . S
H155 C165 0.929 . S
H156 C157 0.969 . S
C157 H156 0.969 . S
C157 O158 1.550 1_554 S
C157 H159 0.973 . S
O158 C157 1.550 1_556 S
O158 C164 1.412 . S
H159 C157 0.973 . S
C160 H153 0.929 . S
C160 C161 1.393 1_554 S
C160 C162 1.370 . S
C161 C160 1.393 1_556 S
C161 C165 1.377 . S
C162 C160 1.370 . S
C162 C163 1.374 . S
C163 H154 0.930 . S
C163 C162 1.374 . S
C163 C164 1.383 1_554 S
C164 O158 1.412 . S
C164 C163 1.383 1_556 S
C164 C165 1.394 . S
C165 H155 0.929 . S
C165 C161 1.377 . S
C165 C164 1.394 . S
H166 C173 0.929 . S
H167 C176 0.930 . S
H168 C178 0.929 . S
H169 C170 0.969 . S
C170 H169 0.969 . S
C170 O171 1.550 . S
C170 H172 0.973 . S
O171 C170 1.550 . S
O171 C177 1.412 1_565 S
H172 C170 0.973 . S
C173 H166 0.929 . S
C173 C174 1.400 . S
C173 C175 1.364 . S
C174 C173 1.400 . S
C174 C178 1.377 . S
C175 C173 1.364 . S
C175 C176 1.374 . S
C176 H167 0.930 . S
C176 C175 1.374 . S
C176 C177 1.383 . S
C177 O171 1.412 1_545 S
C177 C176 1.383 . S
C177 C178 1.394 . S
C178 H168 0.929 . S
C178 C174 1.377 . S
C178 C177 1.394 . S
H179 C186 0.929 . S
H180 C189 0.930 . S
H181 C191 0.929 . S
H182 C183 0.969 . S
C183 H182 0.969 . S
C183 O184 1.550 1_556 S
C183 H185 0.973 . S
O184 C183 1.550 1_554 S
O184 C190 1.412 . S
H185 C183 0.973 . S
C186 H179 0.929 . S
C186 C187 1.400 . S
C186 C188 1.364 1_554 S
C187 C186 1.400 . S
C187 C191 1.377 . S
C188 C186 1.364 1_556 S
C188 C189 1.374 . S
C189 H180 0.930 . S
C189 C188 1.374 . S
C189 C190 1.383 1_556 S
C190 O184 1.412 . S
C190 C189 1.383 1_554 S
C190 C191 1.394 . S
C191 H181 0.929 . S
C191 C187 1.377 . S
C191 C190 1.394 . S
H192 C200 0.950 . S
H193 C205 0.950 . S
H194 C202 0.950 . S
H195 C204 0.950 . S
H196 C206 0.950 . S
H197 C208 0.950 . S
H198 C210 0.950 . S
H199 C211 0.950 . S
C200 H192 0.950 . S
C200 C201 1.386 . S
C200 C202 1.391 . S
C201 C200 1.386 . S
C201 C205 1.393 . S
C202 H194 0.950 . S
C202 C200 1.391 . S
C202 C203 1.400 . S
C203 C202 1.400 . S
C203 C204 1.398 . S
C203 C209 1.491 . S
C204 H195 0.950 . S
C204 C203 1.398 . S
C204 C205 1.391 . S
C205 H193 0.950 . S
C205 C201 1.393 . S
C205 C204 1.391 . S
C206 H196 0.950 . S
C206 C207 1.386 . S
C206 C208 1.391 . S
C207 C206 1.386 . S
C207 C211 1.393 . S
C208 H197 0.950 . S
C208 C206 1.391 . S
C208 C209 1.400 . S
C209 C203 1.491 . S
C209 C208 1.400 . S
C209 C210 1.398 . S
C210 H198 0.950 . S
C210 C209 1.398 . S
C210 C211 1.391 . S
C211 H199 0.950 . S
C211 C207 1.393 . S
C211 C210 1.391 . S
H212 C220 0.950 . S
H213 C225 0.950 . S
H214 C222 0.950 . S
H215 C224 0.950 . S
H216 C226 0.950 . S
H217 C228 0.950 . S
H218 C230 0.950 . S
H219 C231 0.950 . S
C220 H212 0.950 . S
C220 C221 1.386 . S
C220 C222 1.391 . S
C221 C220 1.386 . S
C221 C225 1.393 . S
C222 H214 0.950 . S
C222 C220 1.391 . S
C222 C223 1.400 . S
C223 C222 1.400 . S
C223 C224 1.398 . S
C223 C229 1.491 . S
C224 H215 0.950 . S
C224 C223 1.398 . S
C224 C225 1.391 . S
C225 H213 0.950 . S
C225 C221 1.393 . S
C225 C224 1.391 . S
C226 H216 0.950 . S
C226 C227 1.386 . S
C226 C228 1.391 . S
C227 C226 1.386 . S
C227 C231 1.393 . S
C228 H217 0.950 . S
C228 C226 1.391 . S
C228 C229 1.400 . S
C229 C223 1.491 . S
C229 C228 1.400 . S
C229 C230 1.398 . S
C230 H218 0.950 . S
C230 C229 1.398 . S
C230 C231 1.391 . S
C231 H219 0.950 . S
C231 C227 1.393 . S
C231 C230 1.391 . S
H232 C240 0.950 . S
H233 C245 0.950 . S
H234 C242 0.950 . S
H235 C244 0.950 . S
H236 C246 0.950 . S
H237 C248 0.950 . S
H238 C250 0.950 . S
H239 C251 0.950 . S
C240 H232 0.950 . S
C240 C241 1.386 . S
C240 C242 1.391 . S
C241 C240 1.386 . S
C241 C245 1.393 . S
C242 H234 0.950 . S
C242 C240 1.391 . S
C242 C243 1.400 . S
C243 C242 1.400 . S
C243 C244 1.398 . S
C243 C249 1.491 . S
C244 H235 0.950 . S
C244 C243 1.398 . S
C244 C245 1.391 . S
C245 H233 0.950 . S
C245 C241 1.393 . S
C245 C244 1.391 . S
C246 H236 0.950 . S
C246 C247 1.386 . S
C246 C248 1.391 . S
C247 C246 1.386 . S
C247 C251 1.393 . S
C248 H237 0.950 . S
C248 C246 1.391 . S
C248 C249 1.400 . S
C249 C243 1.491 . S
C249 C248 1.400 . S
C249 C250 1.398 . S
C250 H238 0.950 . S
C250 C249 1.398 . S
C250 C251 1.391 . S
C251 H239 0.950 . S
C251 C247 1.393 . S
C251 C250 1.391 . S
H252 C260 0.950 . S
H253 C265 0.950 . S
H254 C262 0.950 . S
H255 C264 0.950 . S
H256 C266 0.950 . S
H257 C268 0.950 . S
H258 C270 0.950 . S
H259 C271 0.950 . S
C260 H252 0.950 . S
C260 C261 1.386 . S
C260 C262 1.391 . S
C261 C260 1.386 . S
C261 C265 1.393 . S
C262 H254 0.950 . S
C262 C260 1.391 . S
C262 C263 1.400 . S
C263 C262 1.400 . S
C263 C264 1.398 . S
C263 C269 1.491 . S
C264 H255 0.950 . S
C264 C263 1.398 . S
C264 C265 1.391 . S
C265 H253 0.950 . S
C265 C261 1.393 . S
C265 C264 1.391 . S
C266 H256 0.950 . S
C266 C267 1.386 . S
C266 C268 1.391 . S
C267 C266 1.386 . S
C267 C271 1.393 . S
C268 H257 0.950 . S
C268 C266 1.391 . S
C268 C269 1.400 . S
C269 C263 1.491 . S
C269 C268 1.400 . S
C269 C270 1.398 . S
C270 H258 0.950 . S
C270 C269 1.398 . S
C270 C271 1.391 . S
C271 H259 0.950 . S
C271 C267 1.393 . S
C271 C270 1.391 . S
H272 C280 0.950 . S
H273 C285 0.950 . S
H274 C282 0.950 . S
H275 C284 0.950 . S
H276 C286 0.950 . S
H277 C288 0.950 . S
H278 C290 0.950 . S
H279 C291 0.950 . S
C280 H272 0.950 . S
C280 C281 1.386 . S
C280 C282 1.391 . S
C281 C280 1.386 . S
C281 C285 1.393 . S
C282 H274 0.950 . S
C282 C280 1.391 . S
C282 C283 1.400 . S
C283 C282 1.400 . S
C283 C284 1.398 . S
C283 C289 1.491 . S
C284 H275 0.950 . S
C284 C283 1.398 . S
C284 C285 1.391 . S
C285 H273 0.950 . S
C285 C281 1.393 . S
C285 C284 1.391 . S
C286 H276 0.950 . S
C286 C287 1.386 . S
C286 C288 1.391 . S
C287 C286 1.386 . S
C287 C291 1.393 . S
C288 H277 0.950 . S
C288 C286 1.391 . S
C288 C289 1.400 . S
C289 C283 1.491 . S
C289 C288 1.400 . S
C289 C290 1.398 . S
C290 H278 0.950 . S
C290 C289 1.398 . S
C290 C291 1.391 . S
C291 H279 0.950 . S
C291 C287 1.393 . S
C291 C290 1.391 . S
H292 C300 0.950 . S
H293 C305 0.950 . S
H294 C302 0.950 . S
H295 C304 0.950 . S
H296 C306 0.950 . S
H297 C308 0.950 . S
H298 C310 0.950 . S
H299 C311 0.950 . S
C300 H292 0.950 . S
C300 C301 1.386 . S
C300 C302 1.391 . S
C301 C300 1.386 . S
C301 C305 1.393 . S
C302 H294 0.950 . S
C302 C300 1.391 . S
C302 C303 1.400 . S
C303 C302 1.400 . S
C303 C304 1.398 . S
C303 C309 1.491 . S
C304 H295 0.950 . S
C304 C303 1.398 . S
C304 C305 1.391 . S
C305 H293 0.950 . S
C305 C301 1.393 . S
C305 C304 1.391 . S
C306 H296 0.950 . S
C306 C307 1.386 . S
C306 C308 1.391 . S
C307 C306 1.386 . S
C307 C311 1.393 . S
C308 H297 0.950 . S
C308 C306 1.391 . S
C308 C309 1.400 . S
C309 C303 1.491 . S
C309 C308 1.400 . S
C309 C310 1.398 . S
C310 H298 0.950 . S
C310 C309 1.398 . S
C310 C311 1.391 . S
C311 H299 0.950 . S
C311 C307 1.393 . S
C311 C310 1.391 . S
H312 C320 0.950 . S
H313 C325 0.950 . S
H314 C322 0.950 . S
H315 C324 0.950 . S
H316 C326 0.950 . S
H317 C328 0.950 . S
H318 C330 0.950 . S
H319 C331 0.950 . S
C320 H312 0.950 . S
C320 C321 1.386 . S
C320 C322 1.391 . S
C321 C320 1.386 . S
C321 C325 1.393 . S
C322 H314 0.950 . S
C322 C320 1.391 . S
C322 C323 1.400 . S
C323 C322 1.400 . S
C323 C324 1.398 . S
C323 C329 1.491 . S
C324 H315 0.950 . S
C324 C323 1.398 . S
C324 C325 1.391 . S
C325 H313 0.950 . S
C325 C321 1.393 . S
C325 C324 1.391 . S
C326 H316 0.950 . S
C326 C327 1.386 . S
C326 C328 1.391 . S
C327 C326 1.386 . S
C327 C331 1.393 . S
C328 H317 0.950 . S
C328 C326 1.391 . S
C328 C329 1.400 . S
C329 C323 1.491 . S
C329 C328 1.400 . S
C329 C330 1.398 . S
C330 H318 0.950 . S
C330 C329 1.398 . S
C330 C331 1.391 . S
C331 H319 0.950 . S
C331 C327 1.393 . S
C331 C330 1.391 . S
H332 C340 0.950 . S
H333 C345 0.950 . S
H334 C342 0.950 . S
H335 C344 0.950 . S
H336 C346 0.950 . S
H337 C348 0.950 . S
H338 C350 0.950 . S
H339 C351 0.950 . S
C340 H332 0.950 . S
C340 C341 1.386 . S
C340 C342 1.391 . S
C341 C340 1.386 . S
C341 C345 1.393 . S
C342 H334 0.950 . S
C342 C340 1.391 . S
C342 C343 1.400 . S
C343 C342 1.400 . S
C343 C344 1.398 . S
C343 C349 1.491 . S
C344 H335 0.950 . S
C344 C343 1.398 . S
C344 C345 1.391 . S
C345 H333 0.950 . S
C345 C341 1.393 . S
C345 C344 1.391 . S
C346 H336 0.950 . S
C346 C347 1.386 . S
C346 C348 1.391 . S
C347 C346 1.386 . S
C347 C351 1.393 . S
C348 H337 0.950 . S
C348 C346 1.391 . S
C348 C349 1.400 . S
C349 C343 1.491 . S
C349 C348 1.400 . S
C349 C350 1.398 . S
C350 H338 0.950 . S
C350 C349 1.398 . S
C350 C351 1.391 . S
C351 H339 0.950 . S
C351 C347 1.393 . S
C351 C350 1.391 . S
H352 C360 0.950 . S
H353 C365 0.950 . S
H354 C362 0.950 . S
H355 C364 0.950 . S
H356 C366 0.950 . S
H357 C368 0.950 . S
H358 C370 0.950 . S
H359 C371 0.950 . S
C360 H352 0.950 . S
C360 C361 1.386 . S
C360 C362 1.391 . S
C361 C360 1.386 . S
C361 C365 1.393 . S
C362 H354 0.950 . S
C362 C360 1.391 . S
C362 C363 1.400 . S
C363 C362 1.400 . S
C363 C364 1.398 . S
C363 C369 1.491 . S
C364 H355 0.950 . S
C364 C363 1.398 . S
C364 C365 1.391 . S
C365 H353 0.950 . S
C365 C361 1.393 . S
C365 C364 1.391 . S
C366 H356 0.950 . S
C366 C367 1.386 . S
C366 C368 1.391 . S
C367 C366 1.386 . S
C367 C371 1.393 . S
C368 H357 0.950 . S
C368 C366 1.391 . S
C368 C369 1.400 . S
C369 C363 1.491 . S
C369 C368 1.400 . S
C369 C370 1.398 . S
C370 H358 0.950 . S
C370 C369 1.398 . S
C370 C371 1.391 . S
C371 H359 0.950 . S
C371 C367 1.393 . S
C371 C370 1.391 . S
H372 C380 0.950 . S
H373 C385 0.950 . S
H374 C382 0.950 . S
H375 C384 0.950 . S
H376 C386 0.950 . S
H377 C388 0.950 . S
H378 C390 0.950 . S
H379 C391 0.950 . S
C380 H372 0.950 . S
C380 C381 1.386 . S
C380 C382 1.391 . S
C381 C380 1.386 . S
C381 C385 1.393 . S
C382 H374 0.950 . S
C382 C380 1.391 . S
C382 C383 1.400 . S
C383 C382 1.400 . S
C383 C384 1.398 . S
C383 C389 1.491 . S
C384 H375 0.950 . S
C384 C383 1.398 . S
C384 C385 1.391 . S
C385 H373 0.950 . S
C385 C381 1.393 . S
C385 C384 1.391 . S
C386 H376 0.950 . S
C386 C387 1.386 . S
C386 C388 1.391 . S
C387 C386 1.386 . S
C387 C391 1.393 . S
C388 H377 0.950 . S
C388 C386 1.391 . S
C388 C389 1.400 . S
C389 C383 1.491 . S
C389 C388 1.400 . S
C389 C390 1.398 . S
C390 H378 0.950 . S
C390 C389 1.398 . S
C390 C391 1.391 . S
C391 H379 0.950 . S
C391 C387 1.393 . S
C391 C390 1.391 . S
H392 C400 0.950 . S
H393 C405 0.950 . S
H394 C402 0.950 . S
H395 C404 0.950 . S
H396 C406 0.950 . S
H397 C408 0.950 . S
H398 C410 0.950 . S
H399 C411 0.950 . S
C400 H392 0.950 . S
C400 C401 1.386 . S
C400 C402 1.391 . S
C401 C400 1.386 . S
C401 C405 1.393 . S
C402 H394 0.950 . S
C402 C400 1.391 . S
C402 C403 1.400 . S
C403 C402 1.400 . S
C403 C404 1.398 . S
C403 C409 1.491 . S
C404 H395 0.950 . S
C404 C403 1.398 . S
C404 C405 1.391 . S
C405 H393 0.950 . S
C405 C401 1.393 . S
C405 C404 1.391 . S
C406 H396 0.950 . S
C406 C407 1.386 . S
C406 C408 1.391 . S
C407 C406 1.386 . S
C407 C411 1.393 . S
C408 H397 0.950 . S
C408 C406 1.391 . S
C408 C409 1.400 . S
C409 C403 1.491 . S
C409 C408 1.400 . S
C409 C410 1.398 . S
C410 H398 0.950 . S
C410 C409 1.398 . S
C410 C411 1.391 . S
C411 H399 0.950 . S
C411 C407 1.393 . S
C411 C410 1.391 . S
H412 C420 0.950 . S
H413 C425 0.950 . S
H414 C422 0.950 . S
H415 C424 0.950 . S
H416 C426 0.950 . S
H417 C428 0.950 . S
H418 C430 0.950 . S
H419 C431 0.950 . S
C420 H412 0.950 . S
C420 C421 1.386 . S
C420 C422 1.391 . S
C421 C420 1.386 . S
C421 C425 1.393 . S
C422 H414 0.950 . S
C422 C420 1.391 . S
C422 C423 1.400 . S
C423 C422 1.400 . S
C423 C424 1.398 . S
C423 C429 1.491 . S
C424 H415 0.950 . S
C424 C423 1.398 . S
C424 C425 1.391 . S
C425 H413 0.950 . S
C425 C421 1.393 . S
C425 C424 1.391 . S
C426 H416 0.950 . S
C426 C427 1.386 . S
C426 C428 1.391 . S
C427 C426 1.386 . S
C427 C431 1.393 . S
C428 H417 0.950 . S
C428 C426 1.391 . S
C428 C429 1.400 . S
C429 C423 1.491 . S
C429 C428 1.400 . S
C429 C430 1.398 . S
C430 H418 0.950 . S
C430 C429 1.398 . S
C430 C431 1.391 . S
C431 H419 0.950 . S
C431 C427 1.393 . S
C431 C430 1.391 . S
H432 C440 0.950 . S
H433 C445 0.950 . S
H434 C442 0.950 . S
H435 C444 0.950 . S
H436 C446 0.950 . S
H437 C448 0.950 . S
H438 C450 0.950 . S
H439 C451 0.950 . S
C440 H432 0.950 . S
C440 C441 1.386 . S
C440 C442 1.391 . S
C441 C440 1.386 . S
C441 C445 1.393 . S
C442 H434 0.950 . S
C442 C440 1.391 . S
C442 C443 1.400 . S
C443 C442 1.400 . S
C443 C444 1.398 . S
C443 C449 1.491 . S
C444 H435 0.950 . S
C444 C443 1.398 . S
C444 C445 1.391 . S
C445 H433 0.950 . S
C445 C441 1.393 . S
C445 C444 1.391 . S
C446 H436 0.950 . S
C446 C447 1.386 . S
C446 C448 1.391 . S
C447 C446 1.386 . S
C447 C451 1.393 . S
C448 H437 0.950 . S
C448 C446 1.391 . S
C448 C449 1.400 . S
C449 C443 1.491 . S
C449 C448 1.400 . S
C449 C450 1.398 . S
C450 H438 0.950 . S
C450 C449 1.398 . S
C450 C451 1.391 . S
C451 H439 0.950 . S
C451 C447 1.393 . S
C451 C450 1.391 . S
H452 C460 0.950 . S
H453 C465 0.950 . S
H454 C462 0.950 . S
H455 C464 0.950 . S
H456 C466 0.950 . S
H457 C468 0.950 . S
H458 C470 0.950 . S
H459 C471 0.950 . S
C460 H452 0.950 . S
C460 C461 1.386 . S
C460 C462 1.391 . S
C461 C460 1.386 . S
C461 C465 1.393 . S
C462 H454 0.950 . S
C462 C460 1.391 . S
C462 C463 1.400 . S
C463 C462 1.400 . S
C463 C464 1.398 . S
C463 C469 1.491 . S
C464 H455 0.950 . S
C464 C463 1.398 . S
C464 C465 1.391 . S
C465 H453 0.950 . S
C465 C461 1.393 . S
C465 C464 1.391 . S
C466 H456 0.950 . S
C466 C467 1.386 . S
C466 C468 1.391 . S
C467 C466 1.386 . S
C467 C471 1.393 . S
C468 H457 0.950 . S
C468 C466 1.391 . S
C468 C469 1.400 . S
C469 C463 1.491 . S
C469 C468 1.400 . S
C469 C470 1.398 . S
C470 H458 0.950 . S
C470 C469 1.398 . S
C470 C471 1.391 . S
C471 H459 0.950 . S
C471 C467 1.393 . S
C471 C470 1.391 . S
H472 C480 0.950 . S
H473 C485 0.950 . S
H474 C482 0.950 . S
H475 C484 0.950 . S
H476 C486 0.950 . S
H477 C488 0.950 . S
H478 C490 0.950 . S
H479 C491 0.950 . S
C480 H472 0.950 . S
C480 C481 1.386 . S
C480 C482 1.391 . S
C481 C480 1.386 . S
C481 C485 1.393 . S
C482 H474 0.950 . S
C482 C480 1.391 . S
C482 C483 1.400 . S
C483 C482 1.400 . S
C483 C484 1.398 . S
C483 C489 1.491 . S
C484 H475 0.950 . S
C484 C483 1.398 . S
C484 C485 1.391 . S
C485 H473 0.950 . S
C485 C481 1.393 . S
C485 C484 1.391 . S
C486 H476 0.950 . S
C486 C487 1.386 . S
C486 C488 1.391 . S
C487 C486 1.386 . S
C487 C491 1.393 . S
C488 H477 0.950 . S
C488 C486 1.391 . S
C488 C489 1.400 . S
C489 C483 1.491 . S
C489 C488 1.400 . S
C489 C490 1.398 . S
C490 H478 0.950 . S
C490 C489 1.398 . S
C490 C491 1.391 . S
C491 H479 0.950 . S
C491 C487 1.393 . S
C491 C490 1.391 . S
H492 C500 0.950 . S
H493 C505 0.950 . S
H494 C502 0.950 . S
H495 C504 0.950 . S
H496 C506 0.950 . S
H497 C508 0.950 . S
H498 C510 0.950 . S
H499 C511 0.950 . S
C500 H492 0.950 . S
C500 C501 1.386 . S
C500 C502 1.391 . S
C501 C500 1.386 . S
C501 C505 1.393 . S
C502 H494 0.950 . S
C502 C500 1.391 . S
C502 C503 1.400 . S
C503 C502 1.400 . S
C503 C504 1.398 . S
C503 C509 1.491 . S
C504 H495 0.950 . S
C504 C503 1.398 . S
C504 C505 1.391 . S
C505 H493 0.950 . S
C505 C501 1.393 . S
C505 C504 1.391 . S
C506 H496 0.950 . S
C506 C507 1.386 . S
C506 C508 1.391 . S
C507 C506 1.386 . S
C507 C511 1.393 . S
C508 H497 0.950 . S
C508 C506 1.391 . S
C508 C509 1.400 . S
C509 C503 1.491 . S
C509 C508 1.400 . S
C509 C510 1.398 . S
C510 H498 0.950 . S
C510 C509 1.398 . S
C510 C511 1.391 . S
C511 H499 0.950 . S
C511 C507 1.393 . S
C511 C510 1.391 . S
H512 C520 0.950 . S
H513 C525 0.950 . S
H514 C522 0.950 . S
H515 C524 0.950 . S
H516 C526 0.950 . S
H517 C528 0.950 . S
H518 C530 0.950 . S
H519 C531 0.950 . S
C520 H512 0.950 . S
C520 C521 1.386 1_556 S
C520 C522 1.391 . S
C521 C520 1.386 1_554 S
C521 C525 1.393 . S
C522 H514 0.950 . S
C522 C520 1.391 . S
C522 C523 1.400 1_556 S
C523 C522 1.400 1_554 S
C523 C524 1.398 . S
C523 C529 1.491 . S
C524 H515 0.950 . S
C524 C523 1.398 . S
C524 C525 1.391 . S
C525 H513 0.950 . S
C525 C521 1.393 . S
C525 C524 1.391 . S
C526 H516 0.950 . S
C526 C527 1.386 . S
C526 C528 1.391 . S
C527 C526 1.386 . S
C527 C531 1.393 1_554 S
C528 H517 0.950 . S
C528 C526 1.391 . S
C528 C529 1.400 . S
C529 C523 1.491 . S
C529 C528 1.400 . S
C529 C530 1.398 1_554 S
C530 H518 0.950 . S
C530 C529 1.398 1_556 S
C530 C531 1.391 . S
C531 H519 0.950 . S
C531 C527 1.393 1_556 S
C531 C530 1.391 . S
H532 C540 0.950 . S
H533 C545 0.950 . S
H534 C542 0.950 . S
H535 C544 0.950 . S
H536 C546 0.950 . S
H537 C548 0.950 . S
H538 C550 0.950 . S
H539 C551 0.950 . S
C540 H532 0.950 . S
C540 C541 1.386 . S
C540 C542 1.391 . S
C541 C540 1.386 . S
C541 C545 1.393 . S
C542 H534 0.950 . S
C542 C540 1.391 . S
C542 C543 1.400 . S
C543 C542 1.400 . S
C543 C544 1.398 . S
C543 C549 1.491 . S
C544 H535 0.950 . S
C544 C543 1.398 . S
C544 C545 1.391 . S
C545 H533 0.950 . S
C545 C541 1.393 . S
C545 C544 1.391 . S
C546 H536 0.950 . S
C546 C547 1.386 . S
C546 C548 1.391 . S
C547 C546 1.386 . S
C547 C551 1.393 . S
C548 H537 0.950 . S
C548 C546 1.391 . S
C548 C549 1.400 . S
C549 C543 1.491 . S
C549 C548 1.400 . S
C549 C550 1.398 . S
C550 H538 0.950 . S
C550 C549 1.398 . S
C550 C551 1.391 . S
C551 H539 0.950 . S
C551 C547 1.393 . S
C551 C550 1.391 . S
H552 C560 0.950 . S
H553 C565 0.950 . S
H554 C562 0.950 . S
H555 C564 0.950 . S
H556 C566 0.950 . S
H557 C568 0.950 . S
H558 C570 0.950 . S
H559 C571 0.950 . S
C560 H552 0.950 . S
C560 C561 1.386 1_556 S
C560 C562 1.391 . S
C561 C560 1.386 1_554 S
C561 C565 1.393 . S
C562 H554 0.950 . S
C562 C560 1.391 . S
C562 C563 1.400 1_556 S
C563 C562 1.400 1_554 S
C563 C564 1.398 . S
C563 C569 1.491 . S
C564 H555 0.950 . S
C564 C563 1.398 . S
C564 C565 1.391 . S
C565 H553 0.950 . S
C565 C561 1.393 . S
C565 C564 1.391 . S
C566 H556 0.950 . S
C566 C567 1.386 . S
C566 C568 1.391 . S
C567 C566 1.386 . S
C567 C571 1.393 1_554 S
C568 H557 0.950 . S
C568 C566 1.391 . S
C568 C569 1.400 . S
C569 C563 1.491 . S
C569 C568 1.400 . S
C569 C570 1.398 1_554 S
C570 H558 0.950 . S
C570 C569 1.398 1_556 S
C570 C571 1.391 . S
C571 H559 0.950 . S
C571 C567 1.393 1_556 S
C571 C570 1.391 . S
H572 C580 0.950 . S
H573 C585 0.950 . S
H574 C582 0.950 . S
H575 C584 0.950 . S
H576 C586 0.950 . S
H577 C588 0.950 . S
H578 C590 0.950 . S
H579 C591 0.950 . S
C580 H572 0.950 . S
C580 C581 1.386 . S
C580 C582 1.391 . S
C581 C580 1.386 . S
C581 C585 1.393 . S
C582 H574 0.950 . S
C582 C580 1.391 . S
C582 C583 1.400 . S
C583 C582 1.400 . S
C583 C584 1.398 . S
C583 C589 1.491 . S
C584 H575 0.950 . S
C584 C583 1.398 . S
C584 C585 1.391 . S
C585 H573 0.950 . S
C585 C581 1.393 . S
C585 C584 1.391 . S
C586 H576 0.950 . S
C586 C587 1.386 . S
C586 C588 1.391 . S
C587 C586 1.386 . S
C587 C591 1.393 . S
C588 H577 0.950 . S
C588 C586 1.391 . S
C588 C589 1.400 . S
C589 C583 1.491 . S
C589 C588 1.400 . S
C589 C590 1.398 . S
C590 H578 0.950 . S
C590 C589 1.398 . S
C590 C591 1.391 . S
C591 H579 0.950 . S
C591 C587 1.393 . S
C591 C590 1.391 . S
H592 C600 0.950 . S
H593 C605 0.950 . S
H594 C602 0.950 . S
H595 C604 0.950 . S
H596 C606 0.950 . S
H597 C608 0.950 . S
H598 C610 0.950 . S
H599 C611 0.950 . S
C600 H592 0.950 . S
C600 C601 1.386 . S
C600 C602 1.391 . S
C601 C600 1.386 . S
C601 C605 1.393 . S
C602 H594 0.950 . S
C602 C600 1.391 . S
C602 C603 1.400 . S
C603 C602 1.400 . S
C603 C604 1.398 . S
C603 C609 1.491 . S
C604 H595 0.950 . S
C604 C603 1.398 . S
C604 C605 1.391 . S
C605 H593 0.950 . S
C605 C601 1.393 . S
C605 C604 1.391 . S
C606 H596 0.950 . S
C606 C607 1.386 . S
C606 C608 1.391 . S
C607 C606 1.386 . S
C607 C611 1.393 . S
C608 H597 0.950 . S
C608 C606 1.391 . S
C608 C609 1.400 . S
C609 C603 1.491 . S
C609 C608 1.400 . S
C609 C610 1.398 . S
C610 H598 0.950 . S
C610 C609 1.398 . S
C610 C611 1.391 . S
C611 H599 0.950 . S
C611 C607 1.393 . S
C611 C610 1.391 . S
H612 C620 0.950 . S
H613 C625 0.950 . S
H614 C622 0.950 . S
H615 C624 0.950 . S
H616 C626 0.950 . S
H617 C628 0.950 . S
H618 C630 0.950 . S
H619 C631 0.950 . S
C620 H612 0.950 . S
C620 C621 1.386 1_556 S
C620 C622 1.391 . S
C621 C620 1.386 1_554 S
C621 C625 1.393 . S
C622 H614 0.950 . S
C622 C620 1.391 . S
C622 C623 1.400 1_556 S
C623 C622 1.400 1_554 S
C623 C624 1.398 . S
C623 C629 1.491 . S
C624 H615 0.950 . S
C624 C623 1.398 . S
C624 C625 1.391 . S
C625 H613 0.950 . S
C625 C621 1.393 . S
C625 C624 1.391 . S
C626 H616 0.950 . S
C626 C627 1.386 . S
C626 C628 1.391 . S
C627 C626 1.386 . S
C627 C631 1.393 1_554 S
C628 H617 0.950 . S
C628 C626 1.391 . S
C628 C629 1.400 . S
C629 C623 1.491 . S
C629 C628 1.400 . S
C629 C630 1.398 1_554 S
C630 H618 0.950 . S
C630 C629 1.398 1_556 S
C630 C631 1.391 . S
C631 H619 0.950 . S
C631 C627 1.393 1_556 S
C631 C630 1.391 . S
H632 C640 0.950 . S
H633 C645 0.950 . S
H634 C642 0.950 . S
H635 C644 0.950 . S
H636 C646 0.950 . S
H637 C648 0.950 . S
H638 C650 0.950 . S
H639 C651 0.950 . S
C640 H632 0.950 . S
C640 C641 1.386 . S
C640 C642 1.391 . S
C641 C640 1.386 . S
C641 C645 1.393 . S
C642 H634 0.950 . S
C642 C640 1.391 . S
C642 C643 1.400 . S
C643 C642 1.400 . S
C643 C644 1.398 . S
C643 C649 1.491 . S
C644 H635 0.950 . S
C644 C643 1.398 . S
C644 C645 1.391 . S
C645 H633 0.950 . S
C645 C641 1.393 . S
C645 C644 1.391 . S
C646 H636 0.950 . S
C646 C647 1.386 . S
C646 C648 1.391 . S
C647 C646 1.386 . S
C647 C651 1.393 . S
C648 H637 0.950 . S
C648 C646 1.391 . S
C648 C649 1.400 . S
C649 C643 1.491 . S
C649 C648 1.400 . S
C649 C650 1.398 . S
C650 H638 0.950 . S
C650 C649 1.398 . S
C650 C651 1.391 . S
C651 H639 0.950 . S
C651 C647 1.393 . S
C651 C650 1.391 . S
H652 C660 0.950 . S
H653 C665 0.950 . S
H654 C662 0.950 . S
H655 C664 0.950 . S
H656 C666 0.950 . S
H657 C668 0.950 . S
H658 C670 0.950 . S
H659 C671 0.950 . S
C660 H652 0.950 . S
C660 C661 1.386 1_556 S
C660 C662 1.391 . S
C661 C660 1.386 1_554 S
C661 C665 1.393 . S
C662 H654 0.950 . S
C662 C660 1.391 . S
C662 C663 1.400 1_556 S
C663 C662 1.400 1_554 S
C663 C664 1.398 . S
C663 C669 1.491 . S
C664 H655 0.950 . S
C664 C663 1.398 . S
C664 C665 1.391 . S
C665 H653 0.950 . S
C665 C661 1.393 . S
C665 C664 1.391 . S
C666 H656 0.950 . S
C666 C667 1.386 . S
C666 C668 1.391 . S
C667 C666 1.386 . S
C667 C671 1.393 1_554 S
C668 H657 0.950 . S
C668 C666 1.391 . S
C668 C669 1.400 . S
C669 C663 1.491 . S
C669 C668 1.400 . S
C669 C670 1.398 1_554 S
C670 H658 0.950 . S
C670 C669 1.398 1_556 S
C670 C671 1.391 . S
C671 H659 0.950 . S
C671 C667 1.393 1_556 S
C671 C670 1.391 . S
C201 C5 1.466 . S
C207 C135 1.466 . S
C221 C31 1.492 . S
C227 C97 1.467 . S
C247 C110 1.470 . S
C241 C53 1.462 . S
C261 C71 1.442 . S
C267 C122 1.456 . S
C287 C162 1.478 . S
C281 C75 1.481 . S
C307 C174 1.466 . S
C301 C9 1.467 . S
C327 C187 1.453 . S
C321 C27 1.451 . S
C347 C149 1.459 . S
C341 C49 1.473 . S
C361 C51 1.458 . S
C367 C109 1.469 . S
C381 C72 1.490 . S
C387 C123 1.468 . S
C401 C6 1.462 . S
C407 C136 1.467 . S
C427 C96 1.448 . S
C421 C29 1.452 . S
C441 C28 1.491 . S
C447 C188 1.466 . S
C467 C148 1.463 . S
C461 C50 1.466 . S
C487 C161 1.453 . S
C481 C73 1.444 . S
C501 C7 1.476 . S
C507 C175 1.452 . S
C527 C92 1.434 1_554 S
C521 C4 1.506 . S
C547 C105 1.450 . S
C541 C30 1.496 . S
C561 C52 1.508 . S
C567 C118 1.477 . S
C581 C70 1.507 . S
C587 C131 1.476 . S
C607 C144 1.448 . S
C601 C74 1.496 . S
C621 C8 1.495 . S
C627 C157 1.456 . S
C641 C26 1.508 . S
C647 C170 1.486 . S
C661 C48 1.498 . S
C667 C183 1.484 1_554 S
