# Generated by pormake.
# Topology zzz, (3,6)-cn, num edge types: 1
# Building blocks:
#     Node 0, Type 0, BuildingBlock: MIDCAF_clean_linker_0, # of connection points: 3
#     Node 1, Type 0, BuildingBlock: MIDCAF_clean_linker_0, # of connection points: 3
#     Node 2, Type 0, BuildingBlock: MIDCAF_clean_linker_0, # of connection points: 3
#     Node 3, Type 0, BuildingBlock: MIDCAF_clean_linker_0, # of connection points: 3
#     Node 4, Type 0, BuildingBlock: MIDCAF_clean_linker_0, # of connection points: 3
#     Node 5, Type 0, BuildingBlock: MIDCAF_clean_linker_0, # of connection points: 3
#     Node 6, Type 0, BuildingBlock: MIDCAF_clean_linker_0, # of connection points: 3
#     Node 7, Type 0, BuildingBlock: MIDCAF_clean_linker_0, # of connection points: 3
#     Node 8, Type 1, BuildingBlock: JUFBIX_clean_sbu_0, # of connection points: 6
#     Node 9, Type 1, BuildingBlock: JUFBIX_clean_sbu_0, # of connection points: 6
#     Node 10, Type 1, BuildingBlock: JUFBIX_clean_sbu_0, # of connection points: 6
#     Node 11, Type 1, BuildingBlock: JUFBIX_clean_sbu_0, # of connection points: 6
#     Edge 12, Type (0, 1), BuildingBlock: OJICUG_clean_linker_0, # of connection points: 2
#     Edge 13, Type (0, 1), BuildingBlock: OJICUG_clean_linker_0, # of connection points: 2
#     Edge 14, Type (0, 1), BuildingBlock: OJICUG_clean_linker_0, # of connection points: 2
#     Edge 15, Type (0, 1), BuildingBlock: OJICUG_clean_linker_0, # of connection points: 2
#     Edge 16, Type (0, 1), BuildingBlock: OJICUG_clean_linker_0, # of connection points: 2
#     Edge 17, Type (0, 1), BuildingBlock: OJICUG_clean_linker_0, # of connection points: 2
#     Edge 18, Type (0, 1), BuildingBlock: OJICUG_clean_linker_0, # of connection points: 2
#     Edge 19, Type (0, 1), BuildingBlock: OJICUG_clean_linker_0, # of connection points: 2
#     Edge 20, Type (0, 1), BuildingBlock: OJICUG_clean_linker_0, # of connection points: 2
#     Edge 21, Type (0, 1), BuildingBlock: OJICUG_clean_linker_0, # of connection points: 2
#     Edge 22, Type (0, 1), BuildingBlock: OJICUG_clean_linker_0, # of connection points: 2
#     Edge 23, Type (0, 1), BuildingBlock: OJICUG_clean_linker_0, # of connection points: 2
#     Edge 24, Type (0, 1), BuildingBlock: OJICUG_clean_linker_0, # of connection points: 2
#     Edge 25, Type (0, 1), BuildingBlock: OJICUG_clean_linker_0, # of connection points: 2
#     Edge 26, Type (0, 1), BuildingBlock: OJICUG_clean_linker_0, # of connection points: 2
#     Edge 27, Type (0, 1), BuildingBlock: OJICUG_clean_linker_0, # of connection points: 2
#     Edge 28, Type (0, 1), BuildingBlock: OJICUG_clean_linker_0, # of connection points: 2
#     Edge 29, Type (0, 1), BuildingBlock: OJICUG_clean_linker_0, # of connection points: 2
#     Edge 30, Type (0, 1), BuildingBlock: OJICUG_clean_linker_0, # of connection points: 2
#     Edge 31, Type (0, 1), BuildingBlock: OJICUG_clean_linker_0, # of connection points: 2
#     Edge 32, Type (0, 1), BuildingBlock: OJICUG_clean_linker_0, # of connection points: 2
#     Edge 33, Type (0, 1), BuildingBlock: OJICUG_clean_linker_0, # of connection points: 2
#     Edge 34, Type (0, 1), BuildingBlock: OJICUG_clean_linker_0, # of connection points: 2
#     Edge 35, Type (0, 1), BuildingBlock: OJICUG_clean_linker_0, # of connection points: 2
# Relax obj value: 0.283
# Max RMSD: 0.231
# Mean RMSD: 0.187
data_MOF--net-zzz--node1-JUFBIX_clean_sbu_0--node2-MIDCAF_clean_linker_0--edge1-OJICUG_clean_linker_0
_symmetry_space_group_name_H-M    P1
_symmetry_Int_Tables_number       1
_symmetry_cell_setting            triclinic
loop_
_symmetry_equiv_pos_as_xyz
'x, y, z'
_cell_length_a     45.0861
_cell_length_b     46.289533
_cell_length_c     17.978095
_cell_angle_alpha  81.016842
_cell_angle_beta   90.427423
_cell_angle_gamma 86.095676
loop_
_atom_site_label
_atom_site_type_symbol
_atom_site_fract_x
_atom_site_fract_y
_atom_site_fract_z
_atom_type_partial_charge
C0 C 0.82786 0.57466 0.50753 0.0
C1 C 0.82631 0.55493 0.57502 0.0
C2 C 0.80339 0.53545 0.58235 0.0
C3 C 0.7855 0.53277 0.52002 0.0
H4 H 0.73914 0.47039 0.23664 0.0
H5 H 0.69796 0.46878 0.14948 0.0
H6 H 0.66442 0.55505 0.18552 0.0
H7 H 0.7056 0.55629 0.27474 0.0
H8 H 0.81813 0.46628 0.21485 0.0
H9 H 0.86186 0.45527 0.14231 0.0
H10 H 0.89801 0.53547 0.18609 0.0
H11 H 0.85576 0.54479 0.26276 0.0
H12 H 0.81435 0.58493 0.39159 0.0
H13 H 0.84514 0.58993 0.49955 0.0
H14 H 0.80117 0.52036 0.63416 0.0
H15 H 0.77068 0.51513 0.52461 0.0
N16 N 0.75736 0.53155 0.35708 0.0
N17 N 0.77962 0.50849 0.26134 0.0
N18 N 0.80932 0.52844 0.34422 0.0
C19 C 0.75476 0.51737 0.29628 0.0
C20 C 0.80689 0.51408 0.28493 0.0
C21 C 0.78496 0.53692 0.38108 0.0
C22 C 0.72567 0.51355 0.26198 0.0
C23 C 0.72247 0.48865 0.22769 0.0
C24 C 0.69903 0.48786 0.17718 0.0
C25 C 0.67836 0.51211 0.15893 0.0
C26 C 0.68001 0.53602 0.19827 0.0
C27 C 0.70349 0.53671 0.24963 0.0
C28 C 0.83363 0.5064 0.24391 0.0
C29 C 0.83578 0.48119 0.20947 0.0
C30 C 0.8608 0.47503 0.16764 0.0
C31 C 0.88369 0.49449 0.15751 0.0
C32 C 0.8815 0.51941 0.1937 0.0
C33 C 0.857 0.52504 0.23717 0.0
C34 C 0.79031 0.54954 0.44978 0.0
C35 C 0.81005 0.57192 0.44547 0.0
C36 C 0.99257 0.82636 0.46176 0.0
C37 C 0.01344 0.83659 0.50853 0.0
C38 C 0.0431 0.82487 0.50913 0.0
C39 C 0.05219 0.8058 0.45926 0.0
H40 H 0.08514 0.72067 0.18089 0.0
H41 H 0.07291 0.68382 0.10514 0.0
H42 H 0.98282 0.68752 0.18402 0.0
H43 H 0.99514 0.72502 0.26065 0.0
H44 H 0.06461 0.80399 0.07505 0.0
H45 H 0.06952 0.84779 0.98566 0.0
H46 H 0.10652 0.88963 0.16117 0.0
H47 H 0.09922 0.84599 0.2523 0.0
H48 H 0.98569 0.80146 0.37235 0.0
H49 H 0.96958 0.83496 0.45928 0.0
H50 H 0.05969 0.83158 0.54556 0.0
H51 H 0.07562 0.79914 0.45668 0.0
N52 N 0.03645 0.76104 0.31941 0.0
N53 N 0.06305 0.77286 0.20781 0.0
N54 N 0.05943 0.80569 0.29377 0.0
C55 C 0.04723 0.7536 0.25345 0.0
C56 C 0.06913 0.79891 0.22725 0.0
C57 C 0.04329 0.78705 0.34017 0.0
C58 C 0.04101 0.72598 0.2261 0.0
C59 C 0.06288 0.71314 0.18378 0.0
C60 C 0.05588 0.69209 0.14014 0.0
C61 C 0.02682 0.68321 0.13763 0.0
C62 C 0.00543 0.69402 0.18501 0.0
C63 C 0.01249 0.71534 0.22905 0.0
C64 C 0.0808 0.82185 0.17102 0.0
C65 C 0.07453 0.82224 0.09432 0.0
C66 C 0.07758 0.84756 0.04259 0.0
C67 C 0.08767 0.8729 0.06607 0.0
C68 C 0.09751 0.87106 0.14135 0.0
C69 C 0.09365 0.84594 0.19359 0.0
C70 C 0.0318 0.79744 0.40865 0.0
C71 C 0.00169 0.80694 0.41228 0.0
C72 C 0.71949 0.98241 0.45869 0.0
C73 C 0.70007 1.00373 0.48434 0.0
C74 C 0.70258 0.0334 0.45488 0.0
C75 C 0.7215 0.04126 0.39513 0.0
H76 H 0.83529 0.01708 0.25538 0.0
H77 H 0.88374 0.00906 0.19761 0.0
H78 H 0.83916 0.99897 0.99061 0.0
H79 H 0.79144 0.00641 0.04785 0.0
H80 H 0.72488 0.02616 0.01958 0.0
H81 H 0.67996 0.03099 0.9427 0.0
H82 H 0.63471 0.07974 0.10019 0.0
H83 H 0.6795 0.07342 0.17935 0.0
H84 H 0.75131 0.97329 0.37567 0.0
H85 H 0.71831 0.95939 0.48099 0.0
H86 H 0.6879 0.05039 0.4729 0.0
H87 H 0.7207 0.06397 0.36836 0.0
N88 N 0.7747 0.01762 0.26109 0.0
N89 N 0.75788 0.03221 0.13571 0.0
N90 N 0.72582 0.03789 0.23434 0.0
C91 C 0.78012 0.02109 0.18566 0.0
C92 C 0.73076 0.04077 0.15963 0.0
C93 C 0.74742 0.02637 0.28529 0.0
C94 C 0.80953 0.01265 0.15606 0.0
C95 C 0.83596 0.01259 0.19805 0.0
C96 C 0.86366 0.00821 0.1648 0.0
C97 C 0.86535 1.00343 0.08939 0.0
C98 C 0.83881 1.0022 0.04898 0.0
C99 C 0.81134 0.00678 0.08175 0.0
C100 C 0.7056 0.0491 0.10592 0.0
C101 C 0.70555 0.03844 0.03703 0.0
C102 C 0.67968 0.04135 0.99268 0.0
C103 C 0.65342 0.05549 0.0155 0.0
C104 C 0.65423 0.06805 0.08179 0.0
C105 C 0.67997 0.06466 0.12687 0.0
C106 C 0.73855 0.01968 0.36433 0.0
C107 C 0.73874 0.99037 0.39927 0.0
C108 C 0.44694 0.65273 0.09237 0.0
C109 C 0.45834 0.65519 0.01956 0.0
C110 C 0.46899 0.68191 0.98605 0.0
C111 C 0.47021 0.70516 0.02684 0.0
H112 H 0.44544 0.80418 0.06893 0.0
H113 H 0.45123 0.85435 0.00724 0.0
H114 H 0.53337 0.85538 0.13103 0.0
H115 H 0.52713 0.80519 0.19502 0.0
H116 H 0.45921 0.73188 0.39778 0.0
H117 H 0.46471 0.69452 0.51054 0.0
H118 H 0.54406 0.65681 0.41936 0.0
H119 H 0.53853 0.69433 0.30774 0.0
H120 H 0.44155 0.67261 0.19161 0.0
H121 H 0.43876 0.63227 0.11931 0.0
H122 H 0.47785 0.68421 0.92974 0.0
H123 H 0.48021 0.72487 0.00135 0.0
N124 N 0.47241 0.75135 0.12417 0.0
N125 N 0.49189 0.75871 0.24144 0.0
N126 N 0.47837 0.71214 0.22331 0.0
C127 C 0.48313 0.76961 0.16892 0.0
C128 C 0.4893 0.72981 0.26847 0.0
C129 C 0.46987 0.72261 0.1514 0.0
C130 C 0.48581 0.8008 0.13689 0.0
C131 C 0.46457 0.81521 0.08373 0.0
C132 C 0.46781 0.84393 0.04857 0.0
C133 C 0.49275 0.85865 0.06434 0.0
C134 C 0.51396 0.84443 0.11791 0.0
C135 C 0.5103 0.81586 0.15474 0.0
C136 C 0.49875 0.7162 0.34504 0.0
C137 C 0.47863 0.71652 0.40399 0.0
C138 C 0.48153 0.6948 0.46777 0.0
C139 C 0.50455 0.67234 0.47335 0.0
C140 C 0.52621 0.67381 0.41729 0.0
C141 C 0.52319 0.69543 0.35351 0.0
C142 C 0.4614 0.70172 0.10222 0.0
C143 C 0.44868 0.67575 0.13365 0.0
C144 C 0.15259 0.46682 0.08355 0.0
C145 C 0.15415 0.48679 0.01649 0.0
C146 C 0.17714 0.50618 0.00954 0.0
C147 C 0.19528 0.50839 0.0718 0.0
H148 H 0.24464 0.56858 0.35512 0.0
H149 H 0.28774 0.5704 0.43605 0.0
H150 H 0.3214 0.48543 0.39048 0.0
H151 H 0.2783 0.48406 0.30725 0.0
H152 H 0.16625 0.572 0.38344 0.0
H153 H 0.12264 0.58349 0.45599 0.0
H154 H 0.08553 0.50373 0.41232 0.0
H155 H 0.12772 0.4939 0.33583 0.0
H156 H 0.16642 0.45585 0.19917 0.0
H157 H 0.13522 0.45163 0.09121 0.0
H158 H 0.1793 0.52148 0.95809 0.0
H159 H 0.21029 0.52586 0.06753 0.0
N160 N 0.22487 0.50852 0.23272 0.0
N161 N 0.20408 0.53031 0.33237 0.0
N162 N 0.17321 0.51084 0.25107 0.0
C163 C 0.22838 0.52207 0.2943 0.0
C164 C 0.17651 0.52462 0.31113 0.0
C165 C 0.19697 0.50303 0.21113 0.0
C166 C 0.25802 0.52608 0.32545 0.0
C167 C 0.26168 0.55066 0.36065 0.0
C168 C 0.28625 0.55157 0.40757 0.0
C169 C 0.30762 0.52771 0.42142 0.0
C170 C 0.30533 0.50416 0.38109 0.0
C171 C 0.28071 0.5034 0.33322 0.0
C172 C 0.15028 0.53207 0.35437 0.0
C173 C 0.14848 0.55723 0.38908 0.0
C174 C 0.12351 0.56368 0.43084 0.0
C175 C 0.10027 0.54462 0.44049 0.0
C176 C 0.10228 0.51954 0.40486 0.0
C177 C 0.12675 0.5136 0.36155 0.0
C178 C 0.19062 0.49127 0.14166 0.0
C179 C 0.17061 0.46913 0.14559 0.0
C180 C 0.97403 0.20876 0.08613 0.0
C181 C 0.00462 0.20409 0.07383 0.0
C182 C 0.02453 0.2202 0.10901 0.0
C183 C 0.01431 0.23821 0.16086 0.0
H184 H 0.97181 0.33524 0.29197 0.0
H185 H 0.9796 0.37611 0.36101 0.0
H186 H 0.01411 0.31443 0.55216 0.0
H187 H 0.00567 0.27395 0.48421 0.0
H188 H 0.92983 0.23454 0.5087 0.0
H189 H 0.92055 0.19217 0.6021 0.0
H190 H 0.93811 0.13545 0.43534 0.0
H191 H 0.94536 0.17754 0.34194 0.0
H192 H 0.94045 0.22768 0.1507 0.0
H193 H 0.95795 0.19674 0.06078 0.0
H194 H 0.0482 0.21761 0.09975 0.0
H195 H 0.03036 0.24823 0.19203 0.0
N196 N 0.98445 0.27245 0.27806 0.0
N197 N 0.96188 0.25684 0.39399 0.0
N198 N 0.95846 0.22965 0.2959 0.0
C199 C 0.97765 0.27667 0.34976 0.0
C200 C 0.95206 0.23334 0.36725 0.0
C201 C 0.97448 0.24882 0.25093 0.0
C202 C 0.98815 0.30153 0.38288 0.0
C203 C 0.98184 0.33062 0.34787 0.0
C204 C 0.98614 0.35391 0.38751 0.0
C205 C 0.99747 0.34845 0.46203 0.0
C206 C 0.00567 0.3194 0.49467 0.0
C207 C 0.00074 0.29621 0.45588 0.0
C208 C 0.93928 0.20936 0.41854 0.0
C209 C 0.93081 0.21307 0.49164 0.0
C210 C 0.92565 0.18871 0.54526 0.0
C211 C 0.92962 0.16015 0.52728 0.0
C212 C 0.93482 0.15692 0.45191 0.0
C213 C 0.93933 0.18125 0.39806 0.0
C214 C 0.98404 0.2403 0.17848 0.0
C215 C 0.96391 0.2266 0.13781 0.0
C216 C 0.29734 0.06893 0.126 0.0
C217 C 0.30548 0.04731 0.08139 0.0
C218 C 0.29055 0.02126 0.09167 0.0
C219 C 0.27134 0.01525 0.15197 0.0
H220 H 0.17341 0.03031 0.32766 0.0
H221 H 0.12698 0.03627 0.39605 0.0
H222 H 0.17749 0.03079 0.60345 0.0
H223 H 0.22326 0.02516 0.53621 0.0
H224 H 0.28371 0.98249 0.55027 0.0
H225 H 0.32808 0.9739 0.63092 0.0
H226 H 0.38283 0.99409 0.43586 0.0
H227 H 0.33883 1.00158 0.35524 0.0
H228 H 0.27462 0.07868 0.22427 0.0
H229 H 0.30834 0.08921 0.1203 0.0
H230 H 0.29557 1.00446 0.05706 0.0
H231 H 0.263 0.99363 0.1642 0.0
N232 N 0.23335 0.02953 0.31252 0.0
N233 N 0.25423 0.00852 0.43066 0.0
N234 N 0.28353 0.01166 0.3239 0.0
C235 C 0.23034 0.02124 0.38824 0.0
C236 C 0.28087 1.00359 0.39893 0.0
C237 C 0.26008 0.02434 0.28047 0.0
C238 C 0.20203 0.02701 0.42649 0.0
C239 C 0.1745 0.03073 0.38768 0.0
C240 C 0.14796 0.034 0.42683 0.0
C241 C 0.14859 0.03407 0.50513 0.0
C242 C 0.17619 0.03124 0.54308 0.0
C243 C 0.20249 0.02769 0.50443 0.0
C244 C 0.30762 0.9933 0.44642 0.0
C245 C 0.30525 0.9845 0.52443 0.0
C246 C 0.33069 0.97969 0.5707 0.0
C247 C 0.35898 0.98385 0.54002 0.0
C248 C 0.36146 0.9905 0.46147 0.0
C249 C 0.33608 0.99503 0.41516 0.0
C250 C 0.26615 0.03547 0.20167 0.0
C251 C 0.27776 0.06304 0.1855 0.0
C252 C 0.5286 0.39544 0.43939 0.0
C253 C 0.53004 0.39054 0.51821 0.0
C254 C 0.5317 0.36162 0.55686 0.0
C255 C 0.53007 0.33803 0.51711 0.0
H256 H 0.52054 0.25012 0.54036 0.0
H257 H 0.518 0.20087 0.6079 0.0
H258 H 0.50216 0.1691 0.39887 0.0
H259 H 0.50486 0.21893 0.32987 0.0
H260 H 0.4536 0.33069 0.22819 0.0
H261 H 0.44772 0.3691 0.11884 0.0
H262 H 0.53603 0.34451 0.04834 0.0
H263 H 0.54193 0.30655 0.15934 0.0
H264 H 0.52533 0.37687 0.33896 0.0
H265 H 0.52765 0.41755 0.40841 0.0
H266 H 0.53273 0.35738 0.61784 0.0
H267 H 0.53008 0.31604 0.54837 0.0
N268 N 0.52082 0.29084 0.42916 0.0
N269 N 0.50641 0.27673 0.31435 0.0
N270 N 0.51391 0.32593 0.32135 0.0
C271 C 0.51366 0.26941 0.38934 0.0
C272 C 0.50661 0.30521 0.28066 0.0
C273 C 0.52113 0.31914 0.39527 0.0
C274 C 0.51276 0.23874 0.42928 0.0
C275 C 0.51657 0.23281 0.50813 0.0
C276 C 0.51495 0.20448 0.54724 0.0
C277 C 0.50959 0.18109 0.50893 0.0
C278 C 0.5064 0.18668 0.42995 0.0
C279 C 0.5078 0.21526 0.39052 0.0
C280 C 0.49806 0.31546 0.20153 0.0
C281 C 0.47101 0.33239 0.1868 0.0
C282 C 0.46781 0.35466 0.12442 0.0
C283 C 0.49171 0.36045 0.07581 0.0
C284 C 0.51743 0.34108 0.08571 0.0
C285 C 0.52062 0.31886 0.1483 0.0
C286 C 0.52695 0.34309 0.43814 0.0
C287 C 0.52724 0.37203 0.39978 0.0
Co288 Co 0.01832 0.03374 0.8356 0.0
C289 C 0.9691 0.00931 0.90266 0.0
Co290 Co 0.99915 1.00233 0.77026 0.0
C291 C 0.02004 0.08555 0.90738 0.0
C292 C 0.06294 0.06289 0.90561 0.0
N293 N 0.03421 0.06157 0.88592 0.0
N294 N 0.03878 0.1018 0.93959 0.0
C295 C 0.0658 0.08747 0.93881 0.0
H296 H 0.99636 0.09089 0.89974 0.0
H297 H 0.08076 0.04721 0.89545 0.0
C298 C 0.04822 0.02686 0.70305 0.0
N299 N 0.98357 0.97444 0.71929 0.0
C300 C 0.99874 0.95263 0.69042 0.0
C301 C 0.95473 0.97076 0.70597 0.0
N302 N 0.98054 0.93536 0.65985 0.0
C303 C 0.95279 0.94681 0.66961 0.0
C304 C 0.97487 0.05874 0.72956 0.0
O305 O 0.04813 0.03959 0.76091 0.0
O306 O 0.02822 0.00944 0.69529 0.0
O307 O 0.97314 0.03279 0.71539 0.0
O308 O 0.99345 0.06337 0.77895 0.0
O309 O 0.97008 0.99556 0.84653 0.0
H310 H 0.93627 0.98448 0.72218 0.0
H311 H 0.02273 0.94917 0.69332 0.0
O312 O 0.98838 0.02765 0.90903 0.0
O313 O 0.04304 1.00351 0.89249 0.0
O314 O 0.02535 0.97258 0.82529 0.0
C315 C 0.04274 0.97771 0.87689 0.0
H316 H 0.0863 0.09452 0.95935 0.0
H317 H 0.93247 0.9387 0.65117 0.0
Co318 Co 0.48873 0.02979 0.82367 0.0
C319 C 0.50355 0.97175 0.88068 0.0
Co320 Co 0.51964 0.00876 0.7502 0.0
C321 C 0.43469 0.0382 0.90381 0.0
C322 C 0.46072 0.07547 0.89645 0.0
N323 N 0.4609 0.04813 0.87924 0.0
N324 N 0.41796 0.05834 0.93484 0.0
C325 C 0.43432 0.08183 0.93053 0.0
H326 H 0.42754 0.01695 0.89639 0.0
H327 H 0.47831 0.09011 0.88319 0.0
C328 C 0.50443 0.06693 0.69357 0.0
N329 N 0.54757 0.99068 0.69425 0.0
C330 C 0.57341 1.00118 0.66849 0.0
C331 C 0.54808 0.96342 0.6766 0.0
N332 N 0.59027 0.9815 0.63602 0.0
C333 C 0.57424 0.95773 0.64072 0.0
C334 C 0.46161 1.00318 0.71403 0.0
O335 O 0.48987 0.06514 0.75421 0.0
O336 O 0.51926 0.04421 0.6787 0.0
O337 O 0.48797 0.99591 0.69605 0.0
O338 O 0.45761 0.01826 0.76677 0.0
O339 O 0.51976 0.97346 0.82266 0.0
H340 H 0.53091 0.94837 0.69077 0.0
H341 H 0.57973 0.02288 0.67413 0.0
O342 O 0.48764 0.99429 0.89239 0.0
O343 O 0.52037 0.04122 0.88057 0.0
O344 O 0.5508 0.02185 0.80421 0.0
C345 C 0.54668 0.03567 0.85929 0.0
H346 H 0.4277 0.10215 0.95047 0.0
H347 H 0.58117 0.93734 0.62156 0.0
Co348 Co 0.51989 0.51911 0.79827 0.0
C349 C 0.49172 0.47329 0.88179 0.0
Co350 Co 0.47235 0.51847 0.76824 0.0
C351 C 0.57018 0.51796 0.89869 0.0
C352 C 0.58318 0.52281 0.78334 0.0
N353 N 0.55926 0.52001 0.82768 0.0
N354 N 0.60001 0.51925 0.90058 0.0
C355 C 0.60824 0.52229 0.82792 0.0
H356 H 0.55649 0.51509 0.94814 0.0
H357 H 0.58241 0.5251 0.72254 0.0
C358 C 0.50069 0.56407 0.68414 0.0
N359 N 0.43284 0.5176 0.7397 0.0
C360 C 0.42094 0.52053 0.66941 0.0
C361 C 0.40958 0.5139 0.786 0.0
N362 N 0.39111 0.51897 0.67004 0.0
C363 C 0.38396 0.51477 0.74349 0.0
C364 C 0.48171 0.55348 0.87514 0.0
O365 O 0.52358 0.55242 0.72208 0.0
O366 O 0.47607 0.55234 0.69504 0.0
O367 O 0.46122 0.54348 0.8397 0.0
O368 O 0.50859 0.54485 0.86613 0.0
O369 O 0.46906 0.48427 0.842 0.0
H370 H 0.41118 0.51077 0.84683 0.0
H371 H 0.43389 0.52423 0.61878 0.0
O372 O 0.51588 0.48598 0.8735 0.0
O373 O 0.53093 0.49326 0.72962 0.0
O374 O 0.48381 0.49392 0.69709 0.0
C375 C 0.51071 0.48474 0.69025 0.0
H376 H 0.63073 0.52432 0.80817 0.0
H377 H 0.3618 0.5122 0.76517 0.0
Co378 Co 0.99055 0.54355 0.81001 0.0
C379 C 0.04233 0.50755 0.85193 0.0
Co380 Co 0.99008 0.49858 0.78077 0.0
C381 C 0.99868 0.58792 0.90548 0.0
C382 C 0.98578 0.60642 0.79224 0.0
N383 N 0.99175 0.5806 0.83769 0.0
N384 N 0.99751 0.61729 0.90371 0.0
C385 C 0.98944 0.62894 0.83241 0.0
H386 H 0.0051 0.57202 0.9547 0.0
H387 H 0.97929 0.60872 0.73344 0.0
C388 C 0.93826 0.53453 0.73884 0.0
N389 N 0.98744 0.46154 0.75186 0.0
C390 C 0.00067 0.44988 0.69466 0.0
C391 C 0.966 0.44331 0.77499 0.0
N392 N 0.98798 0.42552 0.68128 0.0
C393 C 0.96623 0.42135 0.73171 0.0
C394 C 0.96733 0.50325 0.92049 0.0
O395 O 0.95163 0.55405 0.76574 0.0
O396 O 0.95144 0.50934 0.73976 0.0
O397 O 0.97324 0.48529 0.87519 0.0
O398 O 0.97315 0.52986 0.90288 0.0
O399 O 0.02928 0.48819 0.8231 0.0
H400 H 0.94964 0.44687 0.81685 0.0
H401 H 0.01767 0.46017 0.65976 0.0
O402 O 0.0289 0.53261 0.85284 0.0
O403 O 0.00851 0.55681 0.71702 0.0
O404 O 0.00668 0.51273 0.68702 0.0
C405 C 0.01367 0.53905 0.67075 0.0
H406 H 0.98628 0.65214 0.81087 0.0
H407 H 0.95061 0.40448 0.73432 0.0
C408 C 0.09771 0.01755 0.53752 0.0
C409 C 0.12085 0.03532 0.54898 0.0
H410 H 0.05664 1.00082 0.57737 0.0
C411 C 0.1186 0.05212 0.60774 0.0
H412 H 0.09892 1.00416 0.49316 0.0
C413 C 0.09454 0.05008 0.6563 0.0
C414 C 0.07213 0.0312 0.64719 0.0
H415 H 0.13588 0.06634 0.61733 0.0
H416 H 0.09394 0.06273 0.70219 0.0
C417 C 0.07361 0.01548 0.58618 0.0
C418 C 0.49037 0.14794 0.61892 0.0
C419 C 0.50686 0.15127 0.55248 0.0
H420 H 0.47654 0.11901 0.7147 0.0
C421 C 0.52154 0.12624 0.53047 0.0
H422 H 0.47842 0.16669 0.63687 0.0
C423 C 0.52052 0.09865 0.57547 0.0
C424 C 0.50459 0.09556 0.64297 0.0
H425 H 0.53453 0.12813 0.47973 0.0
H426 H 0.53257 0.07987 0.55798 0.0
C427 C 0.48921 0.12051 0.66343 0.0
C428 C 0.32114 0.53486 0.55233 0.0
C429 C 0.32997 0.52622 0.48372 0.0
H430 H 0.33355 0.5397 0.66428 0.0
C431 C 0.35959 0.5154 0.477 0.0
H432 H 0.2984 0.5428 0.56016 0.0
C433 C 0.37987 0.51341 0.53759 0.0
C434 C 0.3708 0.52183 0.60636 0.0
H435 H 0.3671 0.50858 0.42494 0.0
H436 H 0.40244 0.50473 0.53112 0.0
C437 C 0.34123 0.5327 0.61263 0.0
C438 C 0.97089 0.38968 0.515 0.0
C439 C 0.9972 0.37209 0.50952 0.0
H440 H 0.94744 0.42042 0.57519 0.0
C441 C 0.02162 0.37482 0.5567 0.0
H442 H 0.95159 0.38782 0.48025 0.0
C443 C 0.0193 0.39389 0.61025 0.0
C444 C 0.99236 0.41 0.61848 0.0
H445 H 0.04214 0.36149 0.55378 0.0
H446 H 0.0379 0.39488 0.64798 0.0
C447 C 0.96842 0.40819 0.56945 0.0
C448 C 0.89921 0.9825 0.9978 0.0
C449 C 0.89424 1.00188 0.05013 0.0
H450 H 0.92667 0.96957 0.91049 0.0
C451 C 0.9157 0.02186 0.05849 0.0
H452 H 0.88338 0.9665 0.99084 0.0
C453 C 0.94068 0.02352 0.01261 0.0
C454 C 0.9447 1.00526 0.95732 0.0
H455 H 0.91246 0.03727 0.09775 0.0
H456 H 0.95621 0.03991 0.01851 0.0
C457 C 0.92408 0.98422 0.95183 0.0
C458 C 0.52225 0.89375 0.97921 0.0
C459 C 0.49683 0.88836 0.02254 0.0
H460 H 0.54416 0.92425 0.89933 0.0
C461 C 0.47435 0.91097 0.02155 0.0
H462 H 0.53977 0.87657 0.97857 0.0
C463 C 0.47705 0.93835 0.97742 0.0
C464 C 0.50198 0.94349 0.9319 0.0
H465 H 0.45453 0.90734 0.05443 0.0
H466 H 0.45914 0.95521 0.97714 0.0
C467 C 0.52466 0.92094 0.93364 0.0
C468 C 0.62778 0.52477 0.09586 0.0
C469 C 0.65746 0.51348 0.09366 0.0
H470 H 0.58613 0.53542 0.03604 0.0
C471 C 0.66771 0.50415 0.02698 0.0
H472 H 0.61921 0.53214 0.14632 0.0
C473 C 0.64888 0.50598 0.96422 0.0
C474 C 0.61921 0.51717 0.96617 0.0
H475 H 0.69058 0.49583 0.0227 0.0
H476 H 0.65758 0.49839 0.91421 0.0
C477 C 0.60879 0.52643 0.03289 0.0
C478 C 0.02573 0.67556 0.0034 0.0
C479 C 0.01858 0.66579 0.07868 0.0
H480 H 0.02472 0.6678 0.8893 0.0
C481 C 0.00421 0.63961 0.09594 0.0
H482 H 0.03661 0.69577 0.9883 0.0
C483 C 0.99767 0.62329 0.03884 0.0
C484 C 0.00476 0.63329 0.96345 0.0
H485 H 0.99849 0.63159 0.15353 0.0
H486 H 0.98667 0.60315 0.05329 0.0
C487 C 0.01876 0.65965 0.94659 0.0
C488 C 0.94971 0.13699 0.6541 0.0
C489 C 0.93425 0.13421 0.58766 0.0
H490 H 0.97414 0.11546 0.75111 0.0
C491 C 0.92816 0.1059 0.57479 0.0
H492 H 0.95522 0.15819 0.66623 0.0
C493 C 0.93989 0.08101 0.62319 0.0
C494 C 0.95758 0.08406 0.68572 0.0
H495 H 0.91567 0.1029 0.52524 0.0
H496 H 0.93639 0.05951 0.6095 0.0
C497 C 0.96104 0.11228 0.70263 0.0
C498 C 0.38199 0.99921 0.65306 0.0
C499 C 0.38519 0.98506 0.58962 0.0
H500 H 0.40344 0.01584 0.74184 0.0
C501 C 0.41385 0.97499 0.57031 0.0
H502 H 0.36039 0.00774 0.66892 0.0
C503 C 0.43882 0.98009 0.6118 0.0
C504 C 0.43554 0.99531 0.67331 0.0
H505 H 0.41703 0.96373 0.52222 0.0
H506 H 0.46068 0.97276 0.59459 0.0
C507 C 0.40681 1.00418 0.69448 0.0
C508 C 0.5027 0.43665 0.54163 0.0
C509 C 0.52676 0.41573 0.55947 0.0
H510 H 0.47883 0.47496 0.56922 0.0
C511 C 0.54669 0.41867 0.6177 0.0
H512 H 0.4869 0.4347 0.49729 0.0
C513 C 0.54237 0.44207 0.65808 0.0
C514 C 0.51768 0.46241 0.64178 0.0
H515 H 0.56542 0.40279 0.63217 0.0
H516 H 0.55766 0.44359 0.70386 0.0
C517 C 0.49806 0.45963 0.58279 0.0
C518 C 0.07999 0.56147 0.5579 0.0
C519 C 0.07528 0.54916 0.49225 0.0
H520 H 0.06338 0.56864 0.66529 0.0
C521 C 0.04742 0.53823 0.48109 0.0
H522 H 0.10108 0.56986 0.56941 0.0
C523 C 0.02631 0.53656 0.53766 0.0
C524 C 0.03207 0.54703 0.6049 0.0
H525 H 0.04237 0.52962 0.43019 0.0
H526 H 0.00599 0.52604 0.53013 0.0
C527 C 0.05839 0.56075 0.61324 0.0
C528 C 0.07463 0.92728 0.04668 0.0
C529 C 0.08314 0.9018 0.01592 0.0
H530 H 0.05567 0.97152 0.02612 0.0
C531 C 0.08257 0.9035 0.93696 0.0
H532 H 0.07428 0.92708 0.10692 0.0
C533 C 0.07062 0.92879 0.89098 0.0
C534 C 0.06016 0.95326 0.92276 0.0
H535 H 0.08991 0.88483 0.91065 0.0
H536 H 0.06862 0.92888 0.83083 0.0
C537 C 0.06363 0.95285 0.0004 0.0
C538 C 0.59812 0.05083 0.01294 0.0
C539 C 0.62492 0.05468 0.97384 0.0
H540 H 0.55209 0.04216 0.00693 0.0
C541 C 0.62466 0.05504 0.89549 0.0
H542 H 0.59744 0.05 0.07341 0.0
C543 C 0.5989 0.04966 0.85815 0.0
C544 C 0.57261 0.04454 0.89792 0.0
H545 H 0.64457 0.05874 0.86307 0.0
H546 H 0.59968 0.04903 0.79818 0.0
C547 C 0.57212 0.04611 0.97511 0.0
C548 C 0.49266 0.62006 0.96608 0.0
C549 C 0.46351 0.62879 0.98363 0.0
H550 H 0.52126 0.58903 0.92029 0.0
C551 C 0.44022 0.61156 0.96983 0.0
H552 H 0.51103 0.63273 0.9776 0.0
C553 C 0.44598 0.58647 0.93607 0.0
C554 C 0.47522 0.57796 0.91763 0.0
H555 H 0.4176 0.61782 0.98383 0.0
H556 H 0.42762 0.57394 0.92377 0.0
C557 C 0.4985 0.59482 0.93409 0.0
C558 C 0.90299 0.47863 0.03812 0.0
C559 C 0.90818 0.49071 0.10388 0.0
H560 H 0.91845 0.47247 0.92895 0.0
C561 C 0.93582 0.50239 0.11308 0.0
H562 H 0.88203 0.46971 0.028 0.0
C563 C 0.9561 0.50502 0.05462 0.0
C564 C 0.94978 0.49474 0.98747 0.0
H565 H 0.94127 0.51086 0.16391 0.0
H566 H 0.97621 0.51606 0.06074 0.0
C567 C 0.92382 0.48028 0.98089 0.0
C568 C 0.0405 0.16121 0.06008 0.0
C569 C 0.01552 0.17985 0.03272 0.0
H570 H 0.06718 0.12174 0.05281 0.0
C571 C 0.99932 0.17307 0.97116 0.0
H572 H 0.05323 0.16526 0.10826 0.0
C573 C 0.00714 0.14776 0.94 0.0
C574 C 0.03151 0.12867 0.96913 0.0
H575 H 0.98023 0.18709 0.94773 0.0
H576 H 0.99401 0.14309 0.8932 0.0
C577 C 0.04843 0.13604 0.02857 0.0
C578 C 0.35262 0.02513 0.0338 0.0
C579 C 0.33263 0.04985 0.03447 0.0
H580 H 0.39537 0.00855 0.00236 0.0
C581 C 0.34068 0.07722 0.99758 0.0
H582 H 0.34772 1.00378 0.06304 0.0
C583 C 0.36845 0.07997 0.96387 0.0
C584 C 0.38869 0.05537 0.9656 0.0
H585 H 0.32576 0.09667 0.99598 0.0
H586 H 0.37416 0.10138 0.93681 0.0
C587 C 0.38018 0.02785 0.99948 0.0
C588 C 0.51701 0.40492 0.01797 0.0
C589 C 0.49157 0.38877 0.02314 0.0
H590 H 0.53686 0.44412 0.97085 0.0
C591 C 0.46573 0.4011 0.98257 0.0
H592 H 0.53708 0.39657 0.0499 0.0
C593 C 0.46547 0.42877 0.93762 0.0
C594 C 0.49102 0.44479 0.93257 0.0
H595 H 0.44573 0.3893 0.98531 0.0
H596 H 0.44534 0.4375 0.90643 0.0
C597 C 0.51675 0.43248 0.97337 0.0
C598 C 0.11303 0.46783 0.9446 0.0
C599 C 0.12841 0.49146 0.96233 0.0
H600 H 0.07377 0.45427 0.89507 0.0
C601 C 0.11631 0.52016 0.93725 0.0
H602 H 0.12178 0.44545 0.9629 0.0
C603 C 0.08889 0.52513 0.89939 0.0
C604 C 0.07278 0.50159 0.885 0.0
H605 H 0.12711 0.53892 0.95082 0.0
H606 H 0.07989 0.54757 0.88338 0.0
C607 C 0.08555 0.47286 0.90583 0.0
C608 C 0.02488 0.88339 0.55475 0.0
C609 C 0.00515 0.86131 0.55079 0.0
H610 H 0.03253 0.92411 0.59129 0.0
C611 C 0.97722 0.86394 0.58446 0.0
H612 H 0.04629 0.88265 0.52797 0.0
C613 C 0.96924 0.88803 0.62058 0.0
C614 C 0.98896 0.91014 0.62406 0.0
H615 H 0.96154 0.84731 0.58326 0.0
H616 H 0.94766 0.88917 0.6463 0.0
C617 C 0.01695 0.90736 0.59098 0.0
C618 C 0.65677 0.97302 0.51429 0.0
C619 C 0.67422 0.99519 0.53178 0.0
H620 H 0.61631 0.9517 0.53223 0.0
C621 C 0.66453 0.01143 0.58795 0.0
H622 H 0.66327 0.96046 0.47029 0.0
C623 C 0.63745 0.00642 0.62359 0.0
C624 C 0.61929 0.98516 0.60355 0.0
H625 H 0.67758 0.02849 0.60314 0.0
H626 H 0.63066 0.0195 0.66618 0.0
C627 C 0.62966 0.9681 0.54963 0.0
C628 C 0.52995 0.6315 0.56664 0.0
C629 C 0.50375 0.64556 0.53113 0.0
H630 H 0.54963 0.59475 0.64281 0.0
C631 C 0.47674 0.63252 0.54652 0.0
H632 H 0.55112 0.64097 0.55603 0.0
C633 C 0.47592 0.60602 0.59551 0.0
C634 C 0.50207 0.59185 0.63077 0.0
H635 H 0.45623 0.64236 0.51898 0.0
H636 H 0.45468 0.59662 0.60554 0.0
C637 C 0.5291 0.60499 0.6162 0.0
C638 C 0.86405 0.52178 0.65516 0.0
C639 C 0.85206 0.55045 0.62913 0.0
H640 H 0.90041 0.49444 0.70958 0.0
C641 C 0.8676 0.57414 0.64573 0.0
H642 H 0.85313 0.50295 0.64247 0.0
C643 C 0.89515 0.56919 0.68421 0.0
C644 C 0.90778 0.54047 0.70597 0.0
H645 H 0.85896 0.5965 0.62672 0.0
H646 H 0.90707 0.58782 0.69405 0.0
C647 C 0.89151 0.51687 0.69282 0.0
loop_
_geom_bond_atom_site_label_1
_geom_bond_atom_site_label_2
_geom_bond_distance
_geom_bond_site_symmetry_2
_ccdc_geom_bond_type
C0 C1 1.384 . S
C0 H13 0.947 . S
C0 C35 1.382 . S
C1 C0 1.384 . S
C1 C2 1.378 . S
C2 C1 1.378 . S
C2 C3 1.378 . S
C2 H14 0.952 . S
C3 C2 1.378 . S
C3 H15 0.950 . S
C3 C34 1.383 . S
H4 C23 0.947 . S
H5 C24 0.946 . S
H6 C26 0.953 1_556 S
H7 C27 0.945 1_556 S
H8 C29 0.952 . S
H9 C30 0.949 . S
H10 C32 0.950 1_554 S
H11 C33 0.948 . S
H12 C35 0.951 . S
H13 C0 0.947 . S
H14 C2 0.952 . S
H15 C3 0.950 . S
N16 C19 1.382 . S
N16 C21 1.363 . S
N17 C19 1.371 . S
N17 C20 1.372 . S
N18 C20 1.361 . S
N18 C21 1.377 . S
C19 N16 1.382 . S
C19 N17 1.371 . S
C19 C22 1.480 . S
C20 N17 1.372 . S
C20 N18 1.361 . S
C20 C28 1.457 . S
C21 N16 1.363 . S
C21 N18 1.377 . S
C21 C34 1.479 . S
C22 C19 1.480 . S
C22 C23 1.383 . S
C22 C27 1.385 . S
C23 H4 0.947 . S
C23 C22 1.383 . S
C23 C24 1.388 . S
C24 H5 0.946 . S
C24 C23 1.388 . S
C24 C25 1.384 . S
C25 C24 1.384 . S
C25 C26 1.377 . S
C26 H6 0.953 1_554 S
C26 C25 1.377 . S
C26 C27 1.369 . S
C27 H7 0.945 1_554 S
C27 C22 1.385 . S
C27 C26 1.369 . S
C28 C20 1.457 . S
C28 C29 1.372 1_554 S
C28 C33 1.364 . S
C29 H8 0.952 . S
C29 C28 1.372 1_556 S
C29 C30 1.389 . S
C30 H9 0.949 . S
C30 C29 1.389 . S
C30 C31 1.387 . S
C31 C30 1.387 . S
C31 C32 1.372 . S
C32 H10 0.950 1_556 S
C32 C31 1.372 . S
C32 C33 1.379 1_556 S
C33 H11 0.948 . S
C33 C28 1.364 . S
C33 C32 1.379 1_554 S
C34 C3 1.383 . S
C34 C21 1.479 . S
C34 C35 1.398 . S
C35 C0 1.382 . S
C35 H12 0.951 . S
C35 C34 1.398 . S
C36 C37 1.384 1_655 S
C36 H49 0.947 . S
C36 C71 1.382 1_655 S
C37 C36 1.384 1_455 S
C37 C38 1.378 . S
C38 C37 1.378 . S
C38 C39 1.378 . S
C38 H50 0.952 . S
C39 C38 1.378 . S
C39 H51 0.950 . S
C39 C70 1.383 . S
H40 C59 0.947 . S
H41 C60 0.953 . S
H42 C62 0.953 1_556 S
H43 C63 0.945 1_556 S
H44 C65 0.947 1_655 S
H45 C66 0.949 . S
H46 C68 0.950 . S
H47 C69 0.948 . S
H48 C71 0.951 1_655 S
H49 C36 0.947 . S
H50 C38 0.952 . S
H51 C39 0.950 . S
N52 C55 1.382 . S
N52 C57 1.363 . S
N53 C55 1.371 . S
N53 C56 1.372 . S
N54 C56 1.361 . S
N54 C57 1.377 . S
C55 N52 1.382 . S
C55 N53 1.371 . S
C55 C58 1.480 . S
C56 N53 1.372 . S
C56 N54 1.361 . S
C56 C64 1.457 . S
C57 N52 1.363 . S
C57 N54 1.377 . S
C57 C70 1.479 . S
C58 C55 1.480 . S
C58 C59 1.383 . S
C58 C63 1.385 . S
C59 H40 0.947 . S
C59 C58 1.383 . S
C59 C60 1.384 1_455 S
C60 H41 0.953 . S
C60 C59 1.384 1_655 S
C60 C61 1.382 1_655 S
C61 C60 1.382 1_455 S
C61 C62 1.377 . S
C62 H42 0.953 1_554 S
C62 C61 1.377 . S
C62 C63 1.369 . S
C63 H43 0.945 1_554 S
C63 C58 1.385 . S
C63 C62 1.369 . S
C64 C56 1.457 . S
C64 C65 1.377 1_554 S
C64 C69 1.364 . S
C65 H44 0.947 1_455 S
C65 C64 1.377 1_556 S
C65 C66 1.389 1_455 S
C66 H45 0.949 . S
C66 C65 1.389 1_655 S
C66 C67 1.387 1_655 S
C67 C66 1.387 1_455 S
C67 C68 1.372 . S
C68 H46 0.950 . S
C68 C67 1.372 . S
C68 C69 1.379 1_556 S
C69 H47 0.948 . S
C69 C64 1.364 . S
C69 C68 1.379 1_554 S
C70 C39 1.383 . S
C70 C57 1.479 . S
C70 C71 1.398 . S
C71 C36 1.382 1_455 S
C71 H48 0.951 1_455 S
C71 C70 1.398 . S
C72 C73 1.384 . S
C72 H85 0.947 . S
C72 C107 1.382 . S
C73 C72 1.384 . S
C73 C74 1.378 . S
C74 C73 1.378 . S
C74 C75 1.378 . S
C74 H86 0.952 . S
C75 C74 1.378 . S
C75 H87 0.950 . S
C75 C106 1.383 . S
H76 C95 0.947 . S
H77 C96 0.946 . S
H78 C98 0.953 . S
H79 C99 0.945 . S
H80 C101 0.952 . S
H81 C102 0.949 . S
H82 C104 0.950 . S
H83 C105 0.948 . S
H84 C107 0.951 . S
H85 C72 0.947 . S
H86 C74 0.952 . S
H87 C75 0.950 . S
N88 C91 1.382 . S
N88 C93 1.363 . S
N89 C91 1.371 . S
N89 C92 1.372 . S
N90 C92 1.361 . S
N90 C93 1.377 . S
C91 N88 1.382 . S
C91 N89 1.371 . S
C91 C94 1.480 . S
C92 N89 1.372 . S
C92 N90 1.361 . S
C92 C100 1.457 1_554 S
C93 N88 1.363 . S
C93 N90 1.377 . S
C93 C106 1.479 . S
C94 C91 1.480 . S
C94 C95 1.383 . S
C94 C99 1.385 1_554 S
C95 H76 0.947 . S
C95 C94 1.383 . S
C95 C96 1.388 . S
C96 H77 0.946 . S
C96 C95 1.388 . S
C96 C97 1.384 . S
C97 C96 1.384 . S
C97 C98 1.377 1_554 S
C98 H78 0.953 . S
C98 C97 1.377 1_556 S
C98 C99 1.369 . S
C99 H79 0.945 . S
C99 C94 1.385 1_556 S
C99 C98 1.369 . S
C100 C92 1.457 1_556 S
C100 C101 1.372 . S
C100 C105 1.364 1_556 S
C101 H80 0.952 . S
C101 C100 1.372 . S
C101 C102 1.389 . S
C102 H81 0.949 . S
C102 C101 1.389 . S
C102 C103 1.387 . S
C103 C102 1.387 . S
C103 C104 1.372 . S
C104 H82 0.950 . S
C104 C103 1.372 . S
C104 C105 1.379 1_556 S
C105 H83 0.948 . S
C105 C100 1.364 1_554 S
C105 C104 1.379 1_554 S
C106 C75 1.383 . S
C106 C93 1.479 . S
C106 C107 1.398 . S
C107 C72 1.382 . S
C107 H84 0.951 . S
C107 C106 1.398 . S
C108 C109 1.396 . S
C108 H121 0.945 1_556 S
C108 C143 1.372 1_556 S
C109 C108 1.396 . S
C109 C110 1.378 . S
C110 C109 1.378 . S
C110 C111 1.378 . S
C110 H122 0.952 . S
C111 C110 1.378 . S
C111 H123 0.950 . S
C111 C142 1.383 1_556 S
H112 C131 0.947 1_556 S
H113 C132 0.946 . S
H114 C134 0.953 . S
H115 C135 0.945 . S
H116 C137 0.952 . S
H117 C138 0.949 . S
H118 C140 0.950 . S
H119 C141 0.948 . S
H120 C143 0.951 . S
H121 C108 0.945 1_554 S
H122 C110 0.952 . S
H123 C111 0.950 . S
N124 C127 1.382 . S
N124 C129 1.363 . S
N125 C127 1.371 . S
N125 C128 1.372 . S
N126 C128 1.361 . S
N126 C129 1.377 . S
C127 N124 1.382 . S
C127 N125 1.371 . S
C127 C130 1.480 . S
C128 N125 1.372 . S
C128 N126 1.361 . S
C128 C136 1.457 . S
C129 N124 1.363 . S
C129 N126 1.377 . S
C129 C142 1.479 . S
C130 C127 1.480 . S
C130 C131 1.383 . S
C130 C135 1.385 . S
C131 H112 0.947 1_554 S
C131 C130 1.383 . S
C131 C132 1.388 1_554 S
C132 H113 0.946 . S
C132 C131 1.388 1_556 S
C132 C133 1.384 1_556 S
C133 C132 1.384 1_554 S
C133 C134 1.377 . S
C134 H114 0.953 . S
C134 C133 1.377 . S
C134 C135 1.369 . S
C135 H115 0.945 . S
C135 C130 1.385 . S
C135 C134 1.369 . S
C136 C128 1.457 . S
C136 C137 1.372 . S
C136 C141 1.364 . S
C137 H116 0.952 . S
C137 C136 1.372 . S
C137 C138 1.389 . S
C138 H117 0.949 . S
C138 C137 1.389 . S
C138 C139 1.387 . S
C139 C138 1.387 . S
C139 C140 1.372 . S
C140 H118 0.950 . S
C140 C139 1.372 . S
C140 C141 1.379 . S
C141 H119 0.948 . S
C141 C136 1.364 . S
C141 C140 1.379 . S
C142 C111 1.383 1_554 S
C142 C129 1.479 . S
C142 C143 1.398 . S
C143 C108 1.372 1_554 S
C143 H120 0.951 . S
C143 C142 1.398 . S
C144 C145 1.384 . S
C144 H157 0.947 . S
C144 C179 1.382 . S
C145 C144 1.384 . S
C145 C146 1.378 . S
C146 C145 1.378 . S
C146 C147 1.378 . S
C146 H158 0.952 . S
C147 C146 1.378 . S
C147 H159 0.950 . S
C147 C178 1.383 . S
H148 C167 0.947 . S
H149 C168 0.946 . S
H150 C170 0.953 . S
H151 C171 0.945 . S
H152 C173 0.952 . S
H153 C174 0.949 . S
H154 C176 0.950 . S
H155 C177 0.948 . S
H156 C179 0.951 . S
H157 C144 0.947 . S
H158 C146 0.952 . S
H159 C147 0.950 . S
N160 C163 1.382 . S
N160 C165 1.363 . S
N161 C163 1.371 . S
N161 C164 1.372 . S
N162 C164 1.361 . S
N162 C165 1.377 . S
C163 N160 1.382 . S
C163 N161 1.371 . S
C163 C166 1.480 . S
C164 N161 1.372 . S
C164 N162 1.361 . S
C164 C172 1.457 . S
C165 N160 1.363 . S
C165 N162 1.377 . S
C165 C178 1.479 . S
C166 C163 1.480 . S
C166 C167 1.383 . S
C166 C171 1.385 . S
C167 H148 0.947 . S
C167 C166 1.383 . S
C167 C168 1.388 . S
C168 H149 0.946 . S
C168 C167 1.388 . S
C168 C169 1.384 . S
C169 C168 1.384 . S
C169 C170 1.377 . S
C170 H150 0.953 . S
C170 C169 1.377 . S
C170 C171 1.369 . S
C171 H151 0.945 . S
C171 C166 1.385 . S
C171 C170 1.369 . S
C172 C164 1.457 . S
C172 C173 1.372 . S
C172 C177 1.364 . S
C173 H152 0.952 . S
C173 C172 1.372 . S
C173 C174 1.389 . S
C174 H153 0.949 . S
C174 C173 1.389 . S
C174 C175 1.387 . S
C175 C174 1.387 . S
C175 C176 1.372 . S
C176 H154 0.950 . S
C176 C175 1.372 . S
C176 C177 1.379 . S
C177 H155 0.948 . S
C177 C172 1.364 . S
C177 C176 1.379 . S
C178 C147 1.383 . S
C178 C165 1.479 . S
C178 C179 1.398 . S
C179 C144 1.382 . S
C179 H156 0.951 . S
C179 C178 1.398 . S
C180 C181 1.384 1_655 S
C180 H193 0.947 . S
C180 C215 1.382 1_655 S
C181 C180 1.384 1_455 S
C181 C182 1.378 . S
C182 C181 1.378 . S
C182 C183 1.378 . S
C182 H194 0.952 . S
C183 C182 1.378 . S
C183 H195 0.950 . S
C183 C214 1.383 . S
H184 C203 0.947 . S
H185 C204 0.949 . S
H186 C206 0.953 . S
H187 C207 0.945 . S
H188 C209 0.950 1_655 S
H189 C210 0.954 . S
H190 C212 0.950 . S
H191 C213 0.948 . S
H192 C215 0.950 1_655 S
H193 C180 0.947 . S
H194 C182 0.952 . S
H195 C183 0.950 . S
N196 C199 1.382 . S
N196 C201 1.363 . S
N197 C199 1.371 . S
N197 C200 1.372 . S
N198 C200 1.361 . S
N198 C201 1.377 . S
C199 N196 1.382 . S
C199 N197 1.371 . S
C199 C202 1.480 . S
C200 N197 1.372 . S
C200 N198 1.361 . S
C200 C208 1.457 . S
C201 N196 1.363 . S
C201 N198 1.377 . S
C201 C214 1.479 . S
C202 C199 1.480 . S
C202 C203 1.383 . S
C202 C207 1.385 . S
C203 H184 0.947 . S
C203 C202 1.383 . S
C203 C204 1.388 1_455 S
C204 H185 0.949 . S
C204 C203 1.388 1_655 S
C204 C205 1.382 1_655 S
C205 C204 1.382 1_455 S
C205 C206 1.377 . S
C206 H186 0.953 . S
C206 C205 1.377 . S
C206 C207 1.369 . S
C207 H187 0.945 . S
C207 C202 1.385 . S
C207 C206 1.369 . S
C208 C200 1.457 . S
C208 C209 1.378 . S
C208 C213 1.364 . S
C209 H188 0.950 1_455 S
C209 C208 1.378 . S
C209 C210 1.383 1_455 S
C210 H189 0.954 . S
C210 C209 1.383 1_655 S
C210 C211 1.386 1_655 S
C211 C210 1.386 1_455 S
C211 C212 1.372 . S
C212 H190 0.950 . S
C212 C211 1.372 . S
C212 C213 1.379 . S
C213 H191 0.948 . S
C213 C208 1.364 . S
C213 C212 1.379 . S
C214 C183 1.383 . S
C214 C201 1.479 . S
C214 C215 1.400 . S
C215 C180 1.382 1_455 S
C215 H192 0.950 1_455 S
C215 C214 1.400 . S
C216 C217 1.384 . S
C216 H229 0.947 . S
C216 C251 1.382 . S
C217 C216 1.384 . S
C217 C218 1.378 . S
C218 C217 1.378 . S
C218 C219 1.378 . S
C218 H230 0.952 . S
C219 C218 1.378 . S
C219 H231 0.950 . S
C219 C250 1.383 . S
H220 C239 0.947 . S
H221 C240 0.946 . S
H222 C242 0.953 . S
H223 C243 0.945 . S
H224 C245 0.952 . S
H225 C246 0.949 . S
H226 C248 0.950 . S
H227 C249 0.948 . S
H228 C251 0.951 . S
H229 C216 0.947 . S
H230 C218 0.952 . S
H231 C219 0.950 . S
N232 C235 1.382 . S
N232 C237 1.363 . S
N233 C235 1.371 . S
N233 C236 1.372 . S
N234 C236 1.361 . S
N234 C237 1.377 . S
C235 N232 1.382 . S
C235 N233 1.371 . S
C235 C238 1.480 . S
C236 N233 1.372 . S
C236 N234 1.361 . S
C236 C244 1.457 . S
C237 N232 1.363 . S
C237 N234 1.377 . S
C237 C250 1.479 . S
C238 C235 1.480 . S
C238 C239 1.383 . S
C238 C243 1.385 . S
C239 H220 0.947 . S
C239 C238 1.383 . S
C239 C240 1.388 . S
C240 H221 0.946 . S
C240 C239 1.388 . S
C240 C241 1.384 . S
C241 C240 1.384 . S
C241 C242 1.377 . S
C242 H222 0.953 . S
C242 C241 1.377 . S
C242 C243 1.369 . S
C243 H223 0.945 . S
C243 C238 1.385 . S
C243 C242 1.369 . S
C244 C236 1.457 . S
C244 C245 1.372 . S
C244 C249 1.364 . S
C245 H224 0.952 . S
C245 C244 1.372 . S
C245 C246 1.389 . S
C246 H225 0.949 . S
C246 C245 1.389 . S
C246 C247 1.387 . S
C247 C246 1.387 . S
C247 C248 1.372 . S
C248 H226 0.950 . S
C248 C247 1.372 . S
C248 C249 1.379 . S
C249 H227 0.948 . S
C249 C244 1.364 . S
C249 C248 1.379 . S
C250 C219 1.383 . S
C250 C237 1.479 . S
C250 C251 1.398 . S
C251 C216 1.382 . S
C251 H228 0.951 . S
C251 C250 1.398 . S
C252 C253 1.384 . S
C252 H265 0.947 . S
C252 C287 1.382 . S
C253 C252 1.384 . S
C253 C254 1.378 . S
C254 C253 1.378 . S
C254 C255 1.378 . S
C254 H266 0.952 . S
C255 C254 1.378 . S
C255 H267 0.950 . S
C255 C286 1.383 . S
H256 C275 0.947 . S
H257 C276 0.946 . S
H258 C278 0.953 . S
H259 C279 0.945 . S
H260 C281 0.952 . S
H261 C282 0.949 . S
H262 C284 0.950 . S
H263 C285 0.948 . S
H264 C287 0.951 . S
H265 C252 0.947 . S
H266 C254 0.952 . S
H267 C255 0.950 . S
N268 C271 1.382 . S
N268 C273 1.363 . S
N269 C271 1.371 . S
N269 C272 1.372 . S
N270 C272 1.361 . S
N270 C273 1.377 . S
C271 N268 1.382 . S
C271 N269 1.371 . S
C271 C274 1.480 . S
C272 N269 1.372 . S
C272 N270 1.361 . S
C272 C280 1.457 . S
C273 N268 1.363 . S
C273 N270 1.377 . S
C273 C286 1.479 . S
C274 C271 1.480 . S
C274 C275 1.383 . S
C274 C279 1.385 . S
C275 H256 0.947 . S
C275 C274 1.383 . S
C275 C276 1.388 . S
C276 H257 0.946 . S
C276 C275 1.388 . S
C276 C277 1.384 . S
C277 C276 1.384 . S
C277 C278 1.377 . S
C278 H258 0.953 . S
C278 C277 1.377 . S
C278 C279 1.369 . S
C279 H259 0.945 . S
C279 C274 1.385 . S
C279 C278 1.369 . S
C280 C272 1.457 . S
C280 C281 1.372 . S
C280 C285 1.364 . S
C281 H260 0.952 . S
C281 C280 1.372 . S
C281 C282 1.389 . S
C282 H261 0.949 . S
C282 C281 1.389 . S
C282 C283 1.387 . S
C283 C282 1.387 . S
C283 C284 1.372 . S
C284 H262 0.950 . S
C284 C283 1.372 . S
C284 C285 1.379 . S
C285 H263 0.948 . S
C285 C280 1.364 . S
C285 C284 1.379 . S
C286 C255 1.383 . S
C286 C273 1.479 . S
C286 C287 1.398 . S
C287 C252 1.382 . S
C287 H264 0.951 . S
C287 C286 1.398 . S
Co288 N293 2.057 . S
Co288 O305 2.021 . S
Co288 O308 2.062 1_455 S
Co288 O312 2.117 1_455 S
Co288 O313 2.020 1_545 S
C289 O309 1.259 1_545 S
C289 O312 1.258 . S
Co290 N299 2.061 1_545 S
Co290 O306 2.117 1_655 S
Co290 O307 2.020 . S
Co290 O309 2.021 1_545 S
Co290 O314 2.062 1_645 S
C291 N293 1.316 . S
C291 N294 1.347 1_556 S
C291 H296 0.931 . S
C292 N293 1.375 1_655 S
C292 C295 1.350 1_556 S
C292 H297 0.930 . S
N293 Co288 2.057 . S
N293 C291 1.316 . S
N293 C292 1.375 1_455 S
N294 C291 1.347 1_554 S
N294 C295 1.373 1_455 S
C295 C292 1.350 1_554 S
C295 N294 1.373 1_655 S
C295 H316 0.931 . S
H296 C291 0.931 . S
H297 C292 0.930 . S
C298 O305 1.259 . S
C298 O306 1.258 . S
N299 Co290 2.061 1_565 S
N299 C300 1.342 . S
N299 C301 1.344 1_655 S
C300 N299 1.342 . S
C300 N302 1.347 . S
C300 H311 0.931 . S
C301 N299 1.344 1_455 S
C301 C303 1.350 . S
C301 H310 0.930 . S
N302 C300 1.347 . S
N302 C303 1.373 1_655 S
C303 C301 1.350 . S
C303 N302 1.373 1_455 S
C303 H317 0.931 . S
C304 O307 1.256 . S
C304 O308 1.255 . S
O305 Co288 2.021 . S
O305 C298 1.259 . S
O306 Co290 2.117 1_455 S
O306 C298 1.258 . S
O307 Co290 2.020 . S
O307 C304 1.256 . S
O308 Co288 2.062 1_655 S
O308 C304 1.255 . S
O309 C289 1.259 1_565 S
O309 Co290 2.021 1_565 S
H310 C301 0.930 . S
H311 C300 0.931 . S
O312 Co288 2.117 1_655 S
O312 C289 1.258 . S
O313 Co288 2.020 1_565 S
O313 C315 1.256 . S
O314 Co290 2.062 1_465 S
O314 C315 1.255 . S
C315 O313 1.256 . S
C315 O314 1.255 . S
H316 C295 0.931 . S
H317 C303 0.931 . S
Co318 N323 2.057 . S
Co318 O335 2.021 . S
Co318 O338 2.062 . S
Co318 O342 2.117 1_545 S
Co318 O343 2.020 . S
C319 O339 1.259 . S
C319 O342 1.258 . S
Co320 N329 2.057 . S
Co320 O336 2.117 . S
Co320 O337 2.020 . S
Co320 O339 2.021 1_545 S
Co320 O344 2.062 1_545 S
C321 N323 1.316 . S
C321 N324 1.347 1_556 S
C321 H326 0.931 . S
C322 N323 1.375 . S
C322 C325 1.350 1_556 S
C322 H327 0.930 1_545 S
N323 Co318 2.057 . S
N323 C321 1.316 . S
N323 C322 1.375 . S
N324 C321 1.347 1_554 S
N324 C325 1.373 . S
C325 C322 1.350 1_554 S
C325 N324 1.373 . S
C325 H346 0.931 . S
H326 C321 0.931 . S
H327 C322 0.930 1_565 S
C328 O335 1.259 . S
C328 O336 1.258 . S
N329 Co320 2.057 . S
N329 C330 1.316 1_545 S
N329 C331 1.375 . S
C330 N329 1.316 1_565 S
C330 N332 1.347 . S
C330 H341 0.931 . S
C331 N329 1.375 . S
C331 C333 1.350 . S
C331 H340 0.930 . S
N332 C330 1.347 . S
N332 C333 1.373 1_565 S
C333 C331 1.350 . S
C333 N332 1.373 1_545 S
C333 H347 0.931 . S
C334 O337 1.256 . S
C334 O338 1.255 . S
O335 Co318 2.021 . S
O335 C328 1.259 . S
O336 Co320 2.117 . S
O336 C328 1.258 . S
O337 Co320 2.020 . S
O337 C334 1.256 . S
O338 Co318 2.062 . S
O338 C334 1.255 . S
O339 C319 1.259 . S
O339 Co320 2.021 1_565 S
H340 C331 0.930 . S
H341 C330 0.931 . S
O342 Co318 2.117 1_565 S
O342 C319 1.258 . S
O343 Co318 2.020 . S
O343 C345 1.256 . S
O344 Co320 2.062 1_565 S
O344 C345 1.255 1_565 S
C345 O343 1.256 . S
C345 O344 1.255 1_545 S
H346 C325 0.931 . S
H347 C333 0.931 . S
Co348 N353 2.057 . S
Co348 O365 2.021 . S
Co348 O368 2.062 . S
Co348 O372 2.117 . S
Co348 O373 2.020 . S
C349 O369 1.259 . S
C349 O372 1.258 . S
Co350 N359 2.057 . S
Co350 O366 2.117 . S
Co350 O367 2.020 . S
Co350 O369 2.021 . S
Co350 O374 2.062 . S
C351 N353 1.316 . S
C351 N354 1.347 . S
C351 H356 0.931 . S
C352 N353 1.375 . S
C352 C355 1.350 . S
C352 H357 0.930 . S
N353 Co348 2.057 . S
N353 C351 1.316 . S
N353 C352 1.375 . S
N354 C351 1.347 . S
N354 C355 1.373 . S
C355 C352 1.350 . S
C355 N354 1.373 . S
C355 H376 0.931 . S
H356 C351 0.931 . S
H357 C352 0.930 . S
C358 O365 1.259 . S
C358 O366 1.258 . S
N359 Co350 2.057 . S
N359 C360 1.316 . S
N359 C361 1.375 . S
C360 N359 1.316 . S
C360 N362 1.347 . S
C360 H371 0.931 . S
C361 N359 1.375 . S
C361 C363 1.350 . S
C361 H370 0.930 . S
N362 C360 1.347 . S
N362 C363 1.373 . S
C363 C361 1.350 . S
C363 N362 1.373 . S
C363 H377 0.931 . S
C364 O367 1.256 . S
C364 O368 1.255 . S
O365 Co348 2.021 . S
O365 C358 1.259 . S
O366 Co350 2.117 . S
O366 C358 1.258 . S
O367 Co350 2.020 . S
O367 C364 1.256 . S
O368 Co348 2.062 . S
O368 C364 1.255 . S
O369 C349 1.259 . S
O369 Co350 2.021 . S
H370 C361 0.930 . S
H371 C360 0.931 . S
O372 Co348 2.117 . S
O372 C349 1.258 . S
O373 Co348 2.020 . S
O373 C375 1.256 . S
O374 Co350 2.062 . S
O374 C375 1.255 . S
C375 O373 1.256 . S
C375 O374 1.255 . S
H376 C355 0.931 . S
H377 C363 0.931 . S
Co378 N383 2.057 . S
Co378 O395 2.021 1_455 S
Co378 O398 2.062 1_455 S
Co378 O402 2.117 . S
Co378 O403 2.020 . S
C379 O399 1.259 . S
C379 O402 1.258 . S
Co380 N389 2.057 . S
Co380 O396 2.117 . S
Co380 O397 2.020 . S
Co380 O399 2.021 1_655 S
Co380 O404 2.062 1_655 S
C381 N383 1.316 . S
C381 N384 1.347 . S
C381 H386 0.931 1_455 S
C382 N383 1.375 . S
C382 C385 1.350 . S
C382 H387 0.930 . S
N383 Co378 2.057 . S
N383 C381 1.316 . S
N383 C382 1.375 . S
N384 C381 1.347 . S
N384 C385 1.373 . S
C385 C382 1.350 . S
C385 N384 1.373 . S
C385 H406 0.931 . S
H386 C381 0.931 1_655 S
H387 C382 0.930 . S
C388 O395 1.259 . S
C388 O396 1.258 . S
N389 Co380 2.057 . S
N389 C390 1.316 . S
N389 C391 1.375 . S
C390 N389 1.316 . S
C390 N392 1.347 . S
C390 H401 0.931 1_655 S
C391 N389 1.375 . S
C391 C393 1.350 . S
C391 H400 0.930 . S
N392 C390 1.347 . S
N392 C393 1.373 . S
C393 C391 1.350 . S
C393 N392 1.373 . S
C393 H407 0.931 . S
C394 O397 1.256 . S
C394 O398 1.255 . S
O395 Co378 2.021 1_655 S
O395 C388 1.259 . S
O396 Co380 2.117 . S
O396 C388 1.258 . S
O397 Co380 2.020 . S
O397 C394 1.256 . S
O398 Co378 2.062 1_655 S
O398 C394 1.255 . S
O399 C379 1.259 . S
O399 Co380 2.021 1_455 S
H400 C391 0.930 . S
H401 C390 0.931 1_455 S
O402 Co378 2.117 . S
O402 C379 1.258 . S
O403 Co378 2.020 . S
O403 C405 1.256 . S
O404 Co380 2.062 1_455 S
O404 C405 1.255 . S
C405 O403 1.256 . S
C405 O404 1.255 . S
H406 C385 0.931 . S
H407 C393 0.931 . S
C408 C409 1.387 . S
C408 H412 0.950 . S
C408 C417 1.390 . S
C409 C408 1.387 . S
C409 C411 1.387 . S
H410 C417 0.950 . S
C411 C409 1.387 . S
C411 C413 1.390 . S
C411 H415 0.950 . S
H412 C408 0.950 . S
C413 C411 1.390 . S
C413 C414 1.387 . S
C413 H416 0.950 . S
C414 C413 1.387 . S
C414 C417 1.387 . S
H415 C411 0.950 . S
H416 C413 0.950 . S
C417 C408 1.390 . S
C417 H410 0.950 . S
C417 C414 1.387 . S
C418 C419 1.387 . S
C418 H422 0.950 . S
C418 C427 1.390 . S
C419 C418 1.387 . S
C419 C421 1.387 . S
H420 C427 0.950 . S
C421 C419 1.387 . S
C421 C423 1.390 . S
C421 H425 0.950 . S
H422 C418 0.950 . S
C423 C421 1.390 . S
C423 C424 1.387 . S
C423 H426 0.950 . S
C424 C423 1.387 . S
C424 C427 1.387 . S
H425 C421 0.950 . S
H426 C423 0.950 . S
C427 C418 1.390 . S
C427 H420 0.950 . S
C427 C424 1.387 . S
C428 C429 1.387 . S
C428 H432 0.950 . S
C428 C437 1.390 . S
C429 C428 1.387 . S
C429 C431 1.387 . S
H430 C437 0.950 . S
C431 C429 1.387 . S
C431 C433 1.390 . S
C431 H435 0.950 . S
H432 C428 0.950 . S
C433 C431 1.390 . S
C433 C434 1.387 . S
C433 H436 0.950 . S
C434 C433 1.387 . S
C434 C437 1.387 . S
H435 C431 0.950 . S
H436 C433 0.950 . S
C437 C428 1.390 . S
C437 H430 0.950 . S
C437 C434 1.387 . S
C438 C439 1.387 . S
C438 H442 0.950 . S
C438 C447 1.390 . S
C439 C438 1.387 . S
C439 C441 1.387 1_655 S
H440 C447 0.950 . S
C441 C439 1.387 1_455 S
C441 C443 1.390 . S
C441 H445 0.950 . S
H442 C438 0.950 . S
C443 C441 1.390 . S
C443 C444 1.387 1_455 S
C443 H446 0.950 . S
C444 C443 1.387 1_655 S
C444 C447 1.387 . S
H445 C441 0.950 . S
H446 C443 0.950 . S
C447 C438 1.390 . S
C447 H440 0.950 . S
C447 C444 1.387 . S
C448 C449 1.387 . S
C448 H452 0.950 . S
C448 C457 1.390 . S
C449 C448 1.387 . S
C449 C451 1.387 . S
H450 C457 0.950 . S
C451 C449 1.387 . S
C451 C453 1.400 . S
C451 H455 0.950 1_556 S
H452 C448 0.950 . S
C453 C451 1.400 . S
C453 C454 1.396 . S
C453 H456 0.932 1_565 S
C454 C453 1.396 . S
C454 C457 1.387 . S
H455 C451 0.950 1_554 S
H456 C453 0.932 1_545 S
C457 C448 1.390 . S
C457 H450 0.950 . S
C457 C454 1.387 . S
C458 C459 1.387 . S
C458 H462 0.950 1_556 S
C458 C467 1.390 . S
C459 C458 1.387 . S
C459 C461 1.387 . S
H460 C467 0.950 . S
C461 C459 1.387 . S
C461 C463 1.390 . S
C461 H465 0.950 . S
H462 C458 0.950 1_554 S
C463 C461 1.390 . S
C463 C464 1.387 . S
C463 H466 0.950 . S
C464 C463 1.387 . S
C464 C467 1.387 . S
H465 C461 0.950 . S
H466 C463 0.950 . S
C467 C458 1.390 . S
C467 H460 0.950 . S
C467 C464 1.387 . S
C468 C469 1.387 1_556 S
C468 H472 0.950 . S
C468 C477 1.390 . S
C469 C468 1.387 1_554 S
C469 C471 1.387 . S
H470 C477 0.950 . S
C471 C469 1.387 . S
C471 C473 1.390 1_554 S
C471 H475 0.950 . S
H472 C468 0.950 . S
C473 C471 1.390 1_556 S
C473 C474 1.387 . S
C473 H476 0.950 1_556 S
C474 C473 1.387 . S
C474 C477 1.387 . S
H475 C471 0.950 . S
H476 C473 0.950 1_554 S
C477 C468 1.390 . S
C477 H470 0.950 . S
C477 C474 1.387 . S
C478 C479 1.387 1_556 S
C478 H482 0.950 . S
C478 C487 1.390 . S
C479 C478 1.387 1_554 S
C479 C481 1.387 1_455 S
H480 C487 0.950 . S
C481 C479 1.387 1_655 S
C481 C483 1.390 1_554 S
C481 H485 0.950 . S
H482 C478 0.950 . S
C483 C481 1.390 1_556 S
C483 C484 1.387 1_655 S
C483 H486 0.950 . S
C484 C483 1.387 1_455 S
C484 C487 1.387 . S
H485 C481 0.950 . S
H486 C483 0.950 . S
C487 C478 1.390 . S
C487 H480 0.950 . S
C487 C484 1.387 . S
C488 C489 1.387 1_655 S
C488 H492 0.950 1_655 S
C488 C497 1.390 . S
C489 C488 1.387 1_455 S
C489 C491 1.387 1_455 S
H490 C497 0.950 . S
C491 C489 1.387 1_655 S
C491 C493 1.390 . S
C491 H495 0.955 . S
H492 C488 0.950 1_455 S
C493 C491 1.390 . S
C493 C494 1.387 . S
C493 H496 0.950 . S
C494 C493 1.387 . S
C494 C497 1.387 . S
H495 C491 0.955 . S
H496 C493 0.950 . S
C497 C488 1.390 . S
C497 H490 0.950 . S
C497 C494 1.387 . S
C498 C499 1.387 . S
C498 H502 0.950 . S
C498 C507 1.390 . S
C499 C498 1.387 . S
C499 C501 1.387 . S
H500 C507 0.950 . S
C501 C499 1.387 . S
C501 C503 1.390 . S
C501 H505 0.950 . S
H502 C498 0.950 . S
C503 C501 1.390 . S
C503 C504 1.387 . S
C503 H506 0.950 . S
C504 C503 1.387 . S
C504 C507 1.387 . S
H505 C501 0.950 . S
H506 C503 0.950 . S
C507 C498 1.390 . S
C507 H500 0.950 . S
C507 C504 1.387 . S
C508 C509 1.387 . S
C508 H512 0.950 . S
C508 C517 1.390 . S
C509 C508 1.387 . S
C509 C511 1.387 . S
H510 C517 0.950 . S
C511 C509 1.387 . S
C511 C513 1.390 . S
C511 H515 0.950 . S
H512 C508 0.950 . S
C513 C511 1.390 . S
C513 C514 1.387 . S
C513 H516 0.950 . S
C514 C513 1.387 . S
C514 C517 1.387 . S
H515 C511 0.950 . S
H516 C513 0.950 . S
C517 C508 1.390 . S
C517 H510 0.950 . S
C517 C514 1.387 . S
C518 C519 1.387 . S
C518 H522 0.950 . S
C518 C527 1.390 . S
C519 C518 1.387 . S
C519 C521 1.387 . S
H520 C527 0.950 . S
C521 C519 1.387 . S
C521 C523 1.390 . S
C521 H525 0.950 . S
H522 C518 0.950 . S
C523 C521 1.390 . S
C523 C524 1.387 . S
C523 H526 0.950 . S
C524 C523 1.387 . S
C524 C527 1.387 . S
H525 C521 0.950 . S
H526 C523 0.950 . S
C527 C518 1.390 . S
C527 H520 0.950 . S
C527 C524 1.387 . S
C528 C529 1.388 1_455 S
C528 H532 0.950 1_455 S
C528 C537 1.390 . S
C529 C528 1.388 1_655 S
C529 C531 1.387 1_655 S
H530 C537 0.950 1_554 S
C531 C529 1.387 1_455 S
C531 C533 1.390 . S
C531 H535 0.950 . S
H532 C528 0.950 1_655 S
C533 C531 1.390 . S
C533 C534 1.387 . S
C533 H536 0.950 . S
C534 C533 1.387 . S
C534 C537 1.387 . S
H535 C531 0.950 . S
H536 C533 0.950 . S
C537 C528 1.390 . S
C537 H530 0.950 1_556 S
C537 C534 1.387 . S
C538 C539 1.387 . S
C538 H542 0.950 . S
C538 C547 1.390 . S
C539 C538 1.387 . S
C539 C541 1.387 . S
H540 C547 0.950 . S
C541 C539 1.387 . S
C541 C543 1.390 . S
C541 H545 0.950 . S
H542 C538 0.950 . S
C543 C541 1.390 . S
C543 C544 1.387 . S
C543 H546 0.950 . S
C544 C543 1.387 . S
C544 C547 1.387 . S
H545 C541 0.950 . S
H546 C543 0.950 . S
C547 C538 1.390 . S
C547 H540 0.950 . S
C547 C544 1.387 . S
C548 C549 1.387 . S
C548 H552 0.950 . S
C548 C557 1.390 . S
C549 C548 1.387 . S
C549 C551 1.387 . S
H550 C557 0.950 . S
C551 C549 1.387 . S
C551 C553 1.390 . S
C551 H555 0.950 . S
H552 C548 0.950 . S
C553 C551 1.390 . S
C553 C554 1.387 . S
C553 H556 0.950 . S
C554 C553 1.387 . S
C554 C557 1.387 . S
H555 C551 0.950 . S
H556 C553 0.950 . S
C557 C548 1.390 . S
C557 H550 0.950 . S
C557 C554 1.387 . S
C558 C559 1.387 . S
C558 H562 0.950 . S
C558 C567 1.390 . S
C559 C558 1.387 . S
C559 C561 1.387 . S
H560 C567 0.950 . S
C561 C559 1.387 . S
C561 C563 1.390 . S
C561 H565 0.950 1_556 S
H562 C558 0.950 . S
C563 C561 1.390 . S
C563 C564 1.387 . S
C563 H566 0.950 1_556 S
C564 C563 1.387 . S
C564 C567 1.387 . S
H565 C561 0.950 1_554 S
H566 C563 0.950 1_554 S
C567 C558 1.390 . S
C567 H560 0.950 . S
C567 C564 1.387 . S
C568 C569 1.387 . S
C568 H572 0.950 . S
C568 C577 1.390 . S
C569 C568 1.387 . S
C569 C571 1.387 1_455 S
H570 C577 0.950 . S
C571 C569 1.387 1_655 S
C571 C573 1.390 . S
C571 H575 0.950 . S
H572 C568 0.950 . S
C573 C571 1.390 . S
C573 C574 1.387 1_655 S
C573 H576 0.950 1_554 S
C574 C573 1.387 1_455 S
C574 C577 1.387 . S
H575 C571 0.950 . S
H576 C573 0.950 1_556 S
C577 C568 1.390 . S
C577 H570 0.950 . S
C577 C574 1.387 . S
C578 C579 1.387 . S
C578 H582 0.950 . S
C578 C587 1.390 . S
C579 C578 1.387 . S
C579 C581 1.387 . S
H580 C587 0.950 . S
C581 C579 1.387 . S
C581 C583 1.390 . S
C581 H585 0.950 . S
H582 C578 0.950 . S
C583 C581 1.390 . S
C583 C584 1.387 . S
C583 H586 0.950 1_554 S
C584 C583 1.387 . S
C584 C587 1.387 . S
H585 C581 0.950 . S
H586 C583 0.950 1_556 S
C587 C578 1.390 . S
C587 H580 0.950 . S
C587 C584 1.387 . S
C588 C589 1.387 . S
C588 H592 0.950 . S
C588 C597 1.390 . S
C589 C588 1.387 . S
C589 C591 1.387 1_554 S
H590 C597 0.950 . S
C591 C589 1.387 1_556 S
C591 C593 1.390 . S
C591 H595 0.950 . S
H592 C588 0.950 . S
C593 C591 1.390 . S
C593 C594 1.387 . S
C593 H596 0.950 . S
C594 C593 1.387 . S
C594 C597 1.387 1_556 S
H595 C591 0.950 . S
H596 C593 0.950 . S
C597 C588 1.390 . S
C597 H590 0.950 . S
C597 C594 1.387 1_554 S
C598 C599 1.398 . S
C598 H602 0.945 1_554 S
C598 C607 1.385 1_554 S
C599 C598 1.398 . S
C599 C601 1.387 . S
H600 C607 0.950 . S
C601 C599 1.387 . S
C601 C603 1.390 . S
C601 H605 0.950 . S
H602 C598 0.945 1_556 S
C603 C601 1.390 . S
C603 C604 1.387 1_554 S
C603 H606 0.950 . S
C604 C603 1.387 1_556 S
C604 C607 1.387 . S
H605 C601 0.950 . S
H606 C603 0.950 . S
C607 C598 1.385 1_556 S
C607 H600 0.950 . S
C607 C604 1.387 . S
C608 C609 1.387 1_455 S
C608 H612 0.950 . S
C608 C617 1.390 . S
C609 C608 1.387 1_655 S
C609 C611 1.387 . S
H610 C617 0.950 . S
C611 C609 1.387 . S
C611 C613 1.390 . S
C611 H615 0.950 . S
H612 C608 0.950 . S
C613 C611 1.390 . S
C613 C614 1.387 . S
C613 H616 0.950 . S
C614 C613 1.387 . S
C614 C617 1.387 1_655 S
H615 C611 0.950 . S
H616 C613 0.950 . S
C617 C608 1.390 . S
C617 H610 0.950 . S
C617 C614 1.387 1_455 S
C618 C619 1.387 . S
C618 H622 0.950 . S
C618 C627 1.390 . S
C619 C618 1.387 . S
C619 C621 1.387 . S
H620 C627 0.950 1_545 S
C621 C619 1.387 . S
C621 C623 1.390 . S
C621 H625 0.950 . S
H622 C618 0.950 . S
C623 C621 1.390 . S
C623 C624 1.387 . S
C623 H626 0.950 . S
C624 C623 1.387 . S
C624 C627 1.387 . S
H625 C621 0.950 . S
H626 C623 0.950 . S
C627 C618 1.390 . S
C627 H620 0.950 1_565 S
C627 C624 1.387 . S
C628 C629 1.387 . S
C628 H632 0.950 . S
C628 C637 1.390 . S
C629 C628 1.387 . S
C629 C631 1.387 . S
H630 C637 0.950 . S
C631 C629 1.387 . S
C631 C633 1.390 . S
C631 H635 0.950 . S
H632 C628 0.950 . S
C633 C631 1.390 . S
C633 C634 1.387 . S
C633 H636 0.950 . S
C634 C633 1.387 . S
C634 C637 1.387 . S
H635 C631 0.950 . S
H636 C633 0.950 . S
C637 C628 1.390 . S
C637 H630 0.950 . S
C637 C634 1.387 . S
C638 C639 1.387 . S
C638 H642 0.950 . S
C638 C647 1.390 . S
C639 C638 1.387 . S
C639 C641 1.387 . S
H640 C647 0.950 . S
C641 C639 1.387 . S
C641 C643 1.390 . S
C641 H645 0.950 . S
H642 C638 0.950 . S
C643 C641 1.390 . S
C643 C644 1.387 . S
C643 H646 0.950 . S
C644 C643 1.387 . S
C644 C647 1.387 . S
H645 C641 0.950 . S
H646 C643 0.950 . S
C647 C638 1.390 . S
C647 H640 0.950 . S
C647 C644 1.387 . S
C409 C241 1.944 . S
C414 C298 1.965 . S
C424 C328 1.817 . S
C419 C277 1.803 . S
C434 N362 1.881 . S
C429 C169 1.832 . S
C444 N392 1.496 . S
C439 C205 1.545 1_655 S
C454 C289 1.968 1_565 S
C449 C97 1.865 1_556 S
C459 C133 1.786 1_556 S
C464 C319 1.819 . S
C469 C25 1.757 . S
C474 N354 1.881 . S
C479 C61 1.518 . S
C484 N384 1.493 . S
C494 C304 0.665 . S
C489 C211 0.713 . S
C504 C334 1.220 . S
C499 C247 1.130 . S
C514 C375 0.954 . S
C509 C253 0.947 . S
C519 C175 1.096 . S
C524 C405 1.101 . S
C529 C67 0.748 1_655 S
C534 C315 0.662 . S
C544 C345 1.220 1_565 S
C539 C103 1.047 . S
C554 C364 0.958 . S
C549 C109 0.946 . S
C559 C31 0.991 . S
C564 C394 1.101 . S
C569 C181 1.707 . S
C574 N294 1.810 . S
C579 C217 1.852 . S
C584 N324 1.958 . S
C594 C349 2.012 . S
C589 C283 1.889 . S
C604 C379 2.210 . S
C599 C145 2.099 . S
C609 C37 1.721 1_655 S
C614 N302 1.812 . S
C624 N332 1.960 . S
C619 C73 1.823 . S
C634 C358 2.011 . S
C629 C139 1.854 . S
C639 C1 2.048 . S
C644 C388 2.214 . S
