# Generated by pormake.
# Topology nom, (4,4)-cn, num edge types: 1
# Building blocks:
#     Node 0, Type 0, BuildingBlock: GIZVER_clean_linker_0, # of connection points: 4
#     Node 1, Type 0, BuildingBlock: GIZVER_clean_linker_0, # of connection points: 4
#     Node 2, Type 0, BuildingBlock: GIZVER_clean_linker_0, # of connection points: 4
#     Node 3, Type 0, BuildingBlock: GIZVER_clean_linker_0, # of connection points: 4
#     Node 4, Type 0, BuildingBlock: GIZVER_clean_linker_0, # of connection points: 4
#     Node 5, Type 0, BuildingBlock: GIZVER_clean_linker_0, # of connection points: 4
#     Node 6, Type 1, BuildingBlock: QUQFOY_clean_sbu_1, # of connection points: 4
#     Node 7, Type 1, BuildingBlock: QUQFOY_clean_sbu_1, # of connection points: 4
#     Node 8, Type 1, BuildingBlock: QUQFOY_clean_sbu_1, # of connection points: 4
#     Node 9, Type 1, BuildingBlock: QUQFOY_clean_sbu_1, # of connection points: 4
#     Node 10, Type 1, BuildingBlock: QUQFOY_clean_sbu_1, # of connection points: 4
#     Node 11, Type 1, BuildingBlock: QUQFOY_clean_sbu_1, # of connection points: 4
#     Edge 12, Type (0, 1), BuildingBlock: MIFKUJ_clean_linker_0, # of connection points: 2
#     Edge 13, Type (0, 1), BuildingBlock: MIFKUJ_clean_linker_0, # of connection points: 2
#     Edge 14, Type (0, 1), BuildingBlock: MIFKUJ_clean_linker_0, # of connection points: 2
#     Edge 15, Type (0, 1), BuildingBlock: MIFKUJ_clean_linker_0, # of connection points: 2
#     Edge 16, Type (0, 1), BuildingBlock: MIFKUJ_clean_linker_0, # of connection points: 2
#     Edge 17, Type (0, 1), BuildingBlock: MIFKUJ_clean_linker_0, # of connection points: 2
#     Edge 18, Type (0, 1), BuildingBlock: MIFKUJ_clean_linker_0, # of connection points: 2
#     Edge 19, Type (0, 1), BuildingBlock: MIFKUJ_clean_linker_0, # of connection points: 2
#     Edge 20, Type (0, 1), BuildingBlock: MIFKUJ_clean_linker_0, # of connection points: 2
#     Edge 21, Type (0, 1), BuildingBlock: MIFKUJ_clean_linker_0, # of connection points: 2
#     Edge 22, Type (0, 1), BuildingBlock: MIFKUJ_clean_linker_0, # of connection points: 2
#     Edge 23, Type (0, 1), BuildingBlock: MIFKUJ_clean_linker_0, # of connection points: 2
#     Edge 24, Type (0, 1), BuildingBlock: MIFKUJ_clean_linker_0, # of connection points: 2
#     Edge 25, Type (0, 1), BuildingBlock: MIFKUJ_clean_linker_0, # of connection points: 2
#     Edge 26, Type (0, 1), BuildingBlock: MIFKUJ_clean_linker_0, # of connection points: 2
#     Edge 27, Type (0, 1), BuildingBlock: MIFKUJ_clean_linker_0, # of connection points: 2
#     Edge 28, Type (0, 1), BuildingBlock: MIFKUJ_clean_linker_0, # of connection points: 2
#     Edge 29, Type (0, 1), BuildingBlock: MIFKUJ_clean_linker_0, # of connection points: 2
#     Edge 30, Type (0, 1), BuildingBlock: MIFKUJ_clean_linker_0, # of connection points: 2
#     Edge 31, Type (0, 1), BuildingBlock: MIFKUJ_clean_linker_0, # of connection points: 2
#     Edge 32, Type (0, 1), BuildingBlock: MIFKUJ_clean_linker_0, # of connection points: 2
#     Edge 33, Type (0, 1), BuildingBlock: MIFKUJ_clean_linker_0, # of connection points: 2
#     Edge 34, Type (0, 1), BuildingBlock: MIFKUJ_clean_linker_0, # of connection points: 2
#     Edge 35, Type (0, 1), BuildingBlock: MIFKUJ_clean_linker_0, # of connection points: 2
# Relax obj value: 0.004
# Max RMSD: 0.089
# Mean RMSD: 0.076
data_MOF--net-nom--node1-QUQFOY_clean_sbu_1--node2-GIZVER_clean_linker_0--edge1-MIFKUJ_clean_linker_0
_symmetry_space_group_name_H-M    P1
_symmetry_Int_Tables_number       1
_symmetry_cell_setting            triclinic
loop_
_symmetry_equiv_pos_as_xyz
'x, y, z'
_cell_length_a     62.679454
_cell_length_b     62.792328
_cell_length_c     55.908491
_cell_angle_alpha  89.952273
_cell_angle_beta   90.031545
_cell_angle_gamma 120.03441
loop_
_atom_site_label
_atom_site_type_symbol
_atom_site_fract_x
_atom_site_fract_y
_atom_site_fract_z
_atom_type_partial_charge
H0 H 0.98203 0.55558 0.35361 0.0
H1 H 1.00326 0.54648 0.28268 0.0
H2 H 0.93578 0.49009 0.3135 0.0
H3 H 0.01568 0.58992 0.33419 0.0
H4 H 0.01821 0.58864 0.30254 0.0
H5 H 0.03842 0.57559 0.3611 0.0
H6 H 0.10688 0.58736 0.33202 0.0
H7 H 0.05206 0.58621 0.28514 0.0
C8 C 0.97892 0.54429 0.3379 0.0
C9 C 0.95726 0.52126 0.33619 0.0
C10 C 0.996 0.55325 0.31886 0.0
C11 C 0.99096 0.53911 0.2979 0.0
C12 C 0.9694 0.5161 0.29608 0.0
C13 C 0.95311 0.50717 0.31548 0.0
C14 C 0.01775 0.57913 0.3195 0.0
C15 C 0.0419 0.57951 0.32262 0.0
C16 C 0.04991 0.57781 0.34574 0.0
C17 C 0.07354 0.58108 0.34916 0.0
C18 C 0.08847 0.58447 0.32927 0.0
C19 C 0.08099 0.58639 0.30618 0.0
C20 C 0.05764 0.58394 0.30287 0.0
H21 H 0.43184 0.97064 0.518 0.0
H22 H 0.46744 0.99958 0.45014 0.0
H23 H 0.44892 0.92673 0.47163 0.0
H24 H 0.43985 0.01031 0.50631 0.0
H25 H 0.43894 0.01328 0.47468 0.0
H26 H 0.48191 0.02847 0.52694 0.0
H27 H 0.53749 0.09558 0.49475 0.0
H28 H 0.47302 0.0466 0.45453 0.0
C29 C 0.44051 0.96889 0.50194 0.0
C30 C 0.43917 0.94634 0.49681 0.0
C31 C 0.4513 0.98853 0.48541 0.0
C32 C 0.4606 0.98526 0.46364 0.0
C33 C 0.46012 0.9631 0.45888 0.0
C34 C 0.45005 0.94414 0.47579 0.0
C35 C 0.44988 0.01159 0.48947 0.0
C36 C 0.47509 0.03442 0.49031 0.0
C37 C 0.48909 0.04045 0.51149 0.0
C38 C 0.51182 0.0624 0.51305 0.0
C39 C 0.52062 0.078 0.49313 0.0
C40 C 0.50684 0.07261 0.47202 0.0
C41 C 0.48404 0.05068 0.47062 0.0
H42 H 0.43635 0.46241 0.60717 0.0
H43 H 0.4558 0.47949 0.68151 0.0
H44 H 0.44189 0.52752 0.63771 0.0
H45 H 0.43669 0.43193 0.63359 0.0
H46 H 0.44015 0.43739 0.66508 0.0
H47 H 0.47807 0.45903 0.60819 0.0
H48 H 0.53672 0.45118 0.63833 0.0
H49 H 0.47439 0.43666 0.68172 0.0
C50 C 0.4411 0.47491 0.62217 0.0
C51 C 0.43912 0.49611 0.61984 0.0
C52 C 0.44819 0.46935 0.64423 0.0
C53 C 0.45211 0.48466 0.66415 0.0
C54 C 0.44919 0.50537 0.66205 0.0
C55 C 0.44412 0.51156 0.63953 0.0
C56 C 0.44837 0.44552 0.64742 0.0
C57 C 0.47408 0.44918 0.64565 0.0
C58 C 0.48658 0.4558 0.62359 0.0
C59 C 0.50939 0.45691 0.62102 0.0
C60 C 0.51982 0.45172 0.64074 0.0
C61 C 0.5073 0.44414 0.6626 0.0
C62 C 0.48446 0.44308 0.66505 0.0
H63 H 0.97839 0.43475 0.79169 0.0
H64 H 0.99643 0.46152 0.86406 0.0
H65 H 0.92892 0.44938 0.83202 0.0
H66 H 0.01223 0.4344 0.81174 0.0
H67 H 0.01479 0.43824 0.84346 0.0
H68 H 0.0299 0.47355 0.78545 0.0
H69 H 0.09834 0.5321 0.81221 0.0
H70 H 0.05015 0.47346 0.85921 0.0
C71 C 0.97433 0.44172 0.80774 0.0
C72 C 0.95219 0.44218 0.80927 0.0
C73 C 0.99075 0.44933 0.8273 0.0
C74 C 0.98448 0.45685 0.84858 0.0
C75 C 0.96226 0.45711 0.85032 0.0
C76 C 0.94667 0.45043 0.83038 0.0
C77 C 0.01351 0.44685 0.82651 0.0
C78 C 0.0366 0.47149 0.82313 0.0
C79 C 0.04221 0.4826 0.80038 0.0
C80 C 0.06431 0.50469 0.79662 0.0
C81 C 0.08065 0.5158 0.81566 0.0
C82 C 0.07599 0.50459 0.83818 0.0
C83 C 0.05373 0.48249 0.84196 0.0
H84 H 0.58624 0.05026 0.01702 0.0
H85 H 0.55789 0.02789 0.94558 0.0
H86 H 0.56876 0.09609 0.97382 0.0
H87 H 0.58709 0.01601 -0.00097 0.0
H88 H 0.58327 0.01231 0.96735 0.0
H89 H 0.54406 1.00123 0.02277 0.0
H90 H 0.49253 0.92695 0.0024 0.0
H91 H 0.55337 0.97205 0.95625 0.0
C92 C 0.57865 0.05321 0.00075 0.0
C93 C 0.57762 0.07495 -0.002 0.0
C94 C 0.5709 0.03576 0.9821 0.0
C95 C 0.56248 0.04047 0.9605 0.0
C96 C 0.5613 0.06205 0.9577 0.0
C97 C 0.5683 0.07877 0.97665 0.0
C98 C 0.5744 0.01368 0.98406 0.0
C99 C 0.55031 0.99006 0.98808 0.0
C100 C 0.53725 0.98663 0.00958 0.0
C101 C 0.51619 0.96395 0.01462 0.0
C102 C 0.50827 0.94475 -0.00192 0.0
C103 C 0.52187 0.94718 0.97738 0.0
C104 C 0.54252 0.97014 0.97203 0.0
H105 H 0.59407 0.55596 0.12552 0.0
H106 H 0.56778 0.55288 0.1974 0.0
H107 H 0.5759 0.49353 0.17029 0.0
H108 H 0.59547 0.59166 0.14203 0.0
H109 H 0.59507 0.59343 0.1738 0.0
H110 H 0.55789 0.58023 0.11838 0.0
H111 H 0.50289 0.59116 0.15278 0.0
H112 H 0.55924 0.58957 0.19498 0.0
C113 C 0.58651 0.54593 0.14203 0.0
C114 C 0.58493 0.52295 0.14533 0.0
C115 C 0.57958 0.55655 0.16053 0.0
C116 C 0.5715 0.54415 0.18254 0.0
C117 C 0.56969 0.52117 0.18585 0.0
C118 C 0.57579 0.51052 0.16704 0.0
C119 C 0.58412 0.58248 0.15814 0.0
C120 C 0.5604 0.58323 0.15696 0.0
C121 C 0.54949 0.5821 0.13459 0.0
C122 C 0.52909 0.58557 0.13303 0.0
C123 C 0.51855 0.5883 0.15402 0.0
C124 C 0.52927 0.58987 0.17633 0.0
C125 C 0.55031 0.58741 0.17783 0.0
O126 O 0.61259 0.37601 0.42728 0.0
Cd127 Cd 0.61954 0.36162 0.39716 0.0
Cd128 Cd 0.66455 0.40759 0.40055 0.0
O129 O 0.64818 0.41046 0.43153 0.0
O130 O 0.5908 0.32736 0.39641 0.0
O131 O 0.62917 0.33533 0.39976 0.0
C132 C 0.60595 0.31929 0.39878 0.0
C133 C 0.70716 0.42207 0.40089 0.0
C134 C 0.62629 0.39584 0.43855 0.0
C135 C 0.6311 0.39823 0.3576 0.0
O136 O 0.65058 0.41279 0.36903 0.0
O137 O 0.6168 0.37655 0.36524 0.0
O138 O 0.69853 0.43684 0.40171 0.0
O139 O 0.69152 0.39876 0.40029 0.0
O140 O 0.25151 0.60631 0.60759 0.0
Cd141 Cd 0.26791 0.613 0.57416 0.0
Cd142 Cd 0.26974 0.65887 0.58319 0.0
O143 O 0.2568 0.643 0.61602 0.0
O144 O 0.27154 0.58343 0.56928 0.0
O145 O 0.30335 0.62118 0.56978 0.0
C146 C 0.29502 0.59782 0.56798 0.0
C147 C 0.29724 0.70158 0.58186 0.0
C148 C 0.24899 0.62072 0.62177 0.0
C149 C 0.23731 0.62621 0.54291 0.0
O150 O 0.2439 0.64488 0.55623 0.0
O151 O 0.24622 0.61211 0.54579 0.0
O152 O 0.27452 0.69254 0.58787 0.0
O153 O 0.3047 0.68631 0.57681 0.0
O154 O 0.64703 0.24637 0.76815 0.0
Cd155 Cd 0.66256 0.26464 0.73666 0.0
Cd156 Cd 0.61691 0.26445 0.73462 0.0
O157 O 0.6113 0.24528 0.7663 0.0
O158 O 0.69666 0.26975 0.73832 0.0
O159 O 0.68928 0.30054 0.73606 0.0
C160 C 0.70508 0.29311 0.73757 0.0
C161 C 0.60413 0.29381 0.73298 0.0
C162 C 0.62584 0.23967 0.77678 0.0
C163 C 0.6281 0.23826 0.6954 0.0
O164 O 0.61362 0.2452 0.70354 0.0
O165 O 0.64834 0.24425 0.70589 0.0
O166 O 0.58856 0.27056 0.73309 0.0
O167 O 0.62727 0.30061 0.73392 0.0
O168 O 0.4215 0.64627 0.92206 0.0
Cd169 Cd 0.41054 0.65902 0.89339 0.0
Cd170 Cd 0.36767 0.61384 0.90158 0.0
O171 O 0.38582 0.61432 0.93267 0.0
O172 O 0.43884 0.69315 0.88922 0.0
O173 O 0.40133 0.68543 0.89798 0.0
C174 C 0.42418 0.70135 0.89396 0.0
C175 C 0.32561 0.60143 0.9026 0.0
C176 C 0.40876 0.62847 0.93616 0.0
C177 C 0.39708 0.6201 0.85651 0.0
O178 O 0.38005 0.60555 0.87059 0.0
O179 O 0.40993 0.64287 0.86134 0.0
O180 O 0.33321 0.58593 0.90529 0.0
O181 O 0.34205 0.62434 0.89991 0.0
O182 O 0.78311 0.37794 0.04887 0.0
Cd183 Cd 0.76199 0.36281 0.07894 0.0
Cd184 Cd 0.76377 0.40893 0.07819 0.0
O185 O 0.78286 0.41295 0.04669 0.0
O186 O 0.75533 0.32819 0.07812 0.0
O187 O 0.72571 0.3374 0.07645 0.0
C188 C 0.73219 0.32084 0.07629 0.0
C189 C 0.73502 0.42255 0.07922 0.0
C190 C 0.78963 0.39834 0.03857 0.0
C191 C 0.78796 0.39759 0.11958 0.0
O192 O 0.78297 0.41275 0.10951 0.0
O193 O 0.78047 0.37637 0.11072 0.0
O194 O 0.75839 0.43774 0.07847 0.0
O195 O 0.72775 0.39933 0.07906 0.0
O196 O 0.42063 0.78284 0.20865 0.0
Cd197 Cd 0.41335 0.76232 0.23955 0.0
Cd198 Cd 0.36872 0.76243 0.23487 0.0
O199 O 0.38455 0.78039 0.2033 0.0
O200 O 0.44189 0.75652 0.24172 0.0
O201 O 0.40341 0.72624 0.23914 0.0
C202 C 0.42657 0.73325 0.24065 0.0
C203 C 0.32674 0.73228 0.23489 0.0
C204 C 0.40664 0.78814 0.1967 0.0
C205 C 0.40178 0.78927 0.277 0.0
O206 O 0.38235 0.78385 0.26522 0.0
O207 O 0.41587 0.78121 0.27052 0.0
O208 O 0.33393 0.75532 0.23271 0.0
O209 O 0.3435 0.72615 0.23686 0.0
H210 H 0.10699 0.5647 0.29167 0.0
H211 H 0.14666 0.58518 0.27089 0.0
H212 H 0.13817 0.64828 0.25816 0.0
H213 H 0.09829 0.62768 0.2788 0.0
H214 H 0.16481 0.64083 0.22141 0.0
H215 H 0.16719 0.64947 0.30734 0.0
H216 H 0.15716 0.63434 0.34881 0.0
H217 H 0.19045 0.5897 0.33806 0.0
H218 H 0.20092 0.6048 0.2965 0.0
H219 H 0.28807 0.74003 0.22794 0.0
H220 H 0.24421 0.71053 0.23218 0.0
H221 H 0.26085 0.65321 0.24827 0.0
H222 H 0.305 0.6828 0.24422 0.0
H223 H 0.22961 0.65452 0.28052 0.0
H224 H 0.23374 0.65344 0.19519 0.0
H225 H 0.2443 0.67125 0.15466 0.0
H226 H 0.19866 0.7036 0.16447 0.0
H227 H 0.18809 0.68628 0.2052 0.0
C228 C 0.11312 0.5825 0.28352 0.0
C229 C 0.09967 0.59467 0.28689 0.0
C230 C 0.13584 0.59425 0.27181 0.0
C231 C 0.1456 0.61846 0.26345 0.0
C232 C 0.13101 0.62962 0.26452 0.0
C233 C 0.10815 0.61779 0.27619 0.0
C234 C 0.17212 0.63322 0.25706 0.0
C235 C 0.17903 0.64394 0.2343 0.0
C236 C 0.19065 0.63705 0.27382 0.0
C237 C 0.18459 0.62804 0.29879 0.0
C238 C 0.17224 0.63632 0.31379 0.0
C239 C 0.16649 0.62776 0.33731 0.0
C240 C 0.17293 0.61088 0.34602 0.0
C241 C 0.18538 0.60271 0.33127 0.0
C242 C 0.19133 0.61134 0.30776 0.0
C243 C 0.28244 0.72109 0.23215 0.0
C244 C 0.30007 0.71379 0.23581 0.0
C245 C 0.25729 0.70419 0.2344 0.0
C246 C 0.24916 0.67956 0.24029 0.0
C247 C 0.26669 0.67209 0.24361 0.0
C248 C 0.29191 0.68902 0.24126 0.0
C249 C 0.22253 0.66219 0.24473 0.0
C250 C 0.21553 0.6511 0.26734 0.0
C251 C 0.20402 0.65831 0.22786 0.0
C252 C 0.21027 0.6687 0.20333 0.0
C253 C 0.2261 0.66451 0.18878 0.0
C254 C 0.23206 0.67449 0.16576 0.0
C255 C 0.22219 0.68859 0.15701 0.0
C256 C 0.2063 0.69269 0.17127 0.0
C257 C 0.20029 0.68276 0.19432 0.0
H258 H 0.22683 0.6963 0.13918 0.0
H259 H 0.16838 0.60423 0.36422 0.0
H260 H 0.48092 0.09206 0.45117 0.0
H261 H 0.49858 0.13182 0.43064 0.0
H262 H 0.57014 0.1377 0.43175 0.0
H263 H 0.55253 0.09793 0.45203 0.0
H264 H 0.56898 0.17561 0.45522 0.0
H265 H 0.54323 0.13478 0.37937 0.0
H266 H 0.51363 0.1052 0.35034 0.0
H267 H 0.46985 0.14012 0.35518 0.0
H268 H 0.49901 0.16971 0.38451 0.0
H269 H 0.63252 0.29583 0.40577 0.0
H270 H 0.61638 0.25171 0.41185 0.0
H271 H 0.54219 0.23828 0.40374 0.0
H272 H 0.55813 0.2821 0.39727 0.0
H273 H 0.54623 0.20357 0.38152 0.0
H274 H 0.56704 0.24071 0.45888 0.0
H275 H 0.5926 0.26851 0.49119 0.0
H276 H 0.64145 0.23927 0.48687 0.0
H277 H 0.61638 0.21155 0.45424 0.0
C278 C 0.50017 0.10132 0.44607 0.0
C279 C 0.5154 0.09201 0.45334 0.0
C280 C 0.51029 0.12412 0.43446 0.0
C281 C 0.53574 0.13784 0.42988 0.0
C282 C 0.5505 0.1275 0.43524 0.0
C283 C 0.54041 0.10474 0.44673 0.0
C284 C 0.54748 0.16415 0.42286 0.0
C285 C 0.56445 0.18173 0.43881 0.0
C286 C 0.54075 0.17209 0.40199 0.0
C287 C 0.52322 0.15435 0.3843 0.0
C288 C 0.52718 0.13603 0.3744 0.0
C289 C 0.5105 0.11928 0.35786 0.0
C290 C 0.48984 0.12074 0.35096 0.0
C291 C 0.48585 0.139 0.36055 0.0
C292 C 0.50247 0.15578 0.37712 0.0
C293 C 0.61279 0.28345 0.40511 0.0
C294 C 0.59663 0.29252 0.40115 0.0
C295 C 0.60357 0.25824 0.40869 0.0
C296 C 0.57802 0.24166 0.40853 0.0
C297 C 0.56195 0.25065 0.40393 0.0
C298 C 0.57113 0.27578 0.40032 0.0
C299 C 0.5679 0.21508 0.41384 0.0
C300 C 0.5511 0.19746 0.39771 0.0
C301 C 0.5744 0.20702 0.43484 0.0
C302 C 0.59003 0.22431 0.45386 0.0
C303 C 0.58342 0.24045 0.46458 0.0
C304 C 0.59778 0.25613 0.48301 0.0
C305 C 0.61868 0.25571 0.49103 0.0
C306 C 0.6253 0.23963 0.4806 0.0
C307 C 0.61103 0.22394 0.46212 0.0
H308 H 0.62971 0.26778 0.50538 0.0
H309 H 0.47695 0.10776 0.33815 0.0
H310 H 0.46018 0.53243 0.58635 0.0
H311 H 0.43825 0.54927 0.56411 0.0
H312 H 0.36887 0.48856 0.58789 0.0
H313 H 0.39077 0.47109 0.60888 0.0
H314 H 0.36278 0.5057 0.546 0.0
H315 H 0.40253 0.5445 0.62397 0.0
H316 H 0.44034 0.56508 0.64859 0.0
H317 H 0.47644 0.61956 0.59386 0.0
H318 H 0.4387 0.59966 0.5692 0.0
H319 H 0.28341 0.5502 0.57399 0.0
H320 H 0.31066 0.53313 0.5719 0.0
H321 H 0.37144 0.6046 0.55318 0.0
H322 H 0.34425 0.62209 0.55636 0.0
H323 H 0.38665 0.58589 0.58422 0.0
H324 H 0.34299 0.55428 0.51175 0.0
H325 H 0.30708 0.53381 0.48489 0.0
H326 H 0.28035 0.46648 0.5243 0.0
H327 H 0.31591 0.48662 0.55163 0.0
C328 C 0.44024 0.52201 0.5856 0.0
C329 C 0.42711 0.50041 0.59914 0.0
C330 C 0.42769 0.53184 0.57326 0.0
C331 C 0.40191 0.52069 0.57509 0.0
C332 C 0.38875 0.49764 0.58634 0.0
C333 C 0.40126 0.48753 0.5982 0.0
C334 C 0.38896 0.53442 0.5689 0.0
C335 C 0.36794 0.52323 0.5543 0.0
C336 C 0.39607 0.55768 0.57913 0.0
C337 C 0.41797 0.57054 0.59473 0.0
C338 C 0.41851 0.56097 0.61731 0.0
C339 C 0.43991 0.57245 0.63121 0.0
C340 C 0.46088 0.59332 0.62257 0.0
C341 C 0.46025 0.60326 0.6004 0.0
C342 C 0.43882 0.59202 0.58655 0.0
C343 C 0.30253 0.5623 0.56921 0.0
C344 C 0.31165 0.58753 0.5653 0.0
C345 C 0.31811 0.55243 0.5678 0.0
C346 C 0.34311 0.56738 0.56184 0.0
C347 C 0.35223 0.5926 0.55768 0.0
C348 C 0.33668 0.60259 0.55948 0.0
C349 C 0.35988 0.5569 0.56172 0.0
C350 C 0.3816 0.56864 0.57534 0.0
C351 C 0.3535 0.5343 0.55028 0.0
C352 C 0.33209 0.52203 0.53383 0.0
C353 C 0.32938 0.53515 0.51479 0.0
C354 C 0.30909 0.52359 0.49946 0.0
C355 C 0.29143 0.49887 0.5029 0.0
C356 C 0.29405 0.48563 0.52166 0.0
C357 C 0.31429 0.4971 0.53705 0.0
H358 H 0.27573 0.48996 0.49102 0.0
H359 H 0.4776 0.60188 0.63309 0.0
H360 H 0.93082 0.39529 0.79256 0.0
H361 H 0.89116 0.37289 0.77203 0.0
H362 H 0.88899 0.44024 0.76496 0.0
H363 H 0.92831 0.46246 0.78626 0.0
H364 H 0.84918 0.40742 0.78543 0.0
H365 H 0.89237 0.4067 0.71522 0.0
H366 H 0.92185 0.40016 0.69167 0.0
H367 H 0.88236 0.32331 0.7094 0.0
H368 H 0.85282 0.32943 0.73333 0.0
H369 H 0.7296 0.34351 0.73377 0.0
H370 H 0.77399 0.37192 0.73798 0.0
H371 H 0.78555 0.31047 0.74941 0.0
H372 H 0.74152 0.28209 0.74463 0.0
H373 H 0.82127 0.34356 0.72233 0.0
H374 H 0.78241 0.3451 0.79645 0.0
H375 H 0.75331 0.3508 0.82157 0.0
H376 H 0.78541 0.42559 0.79753 0.0
H377 H 0.81452 0.42022 0.77205 0.0
C378 C 0.92232 0.40545 0.78576 0.0
C379 C 0.93262 0.43059 0.79089 0.0
C380 C 0.89959 0.39263 0.77404 0.0
C381 C 0.88696 0.40483 0.76687 0.0
C382 C 0.89826 0.43037 0.77038 0.0
C383 C 0.9208 0.4431 0.78237 0.0
C384 C 0.86082 0.39058 0.75876 0.0
C385 C 0.84322 0.3939 0.77119 0.0
C386 C 0.8528 0.37235 0.74072 0.0
C387 C 0.87046 0.36857 0.72621 0.0
C388 C 0.89006 0.38843 0.71423 0.0
C389 C 0.90676 0.38479 0.70079 0.0
C390 C 0.904 0.36134 0.69907 0.0
C391 C 0.88448 0.34147 0.71075 0.0
C392 C 0.86772 0.345 0.72422 0.0
C393 C 0.74164 0.33607 0.73703 0.0
C394 C 0.73198 0.31054 0.73903 0.0
C395 C 0.76701 0.35233 0.73949 0.0
C396 C 0.78314 0.34337 0.74433 0.0
C397 C 0.77356 0.31786 0.74566 0.0
C398 C 0.7483 0.30164 0.74303 0.0
C399 C 0.8098 0.3604 0.7491 0.0
C400 C 0.82741 0.35748 0.73619 0.0
C401 C 0.8179 0.37893 0.76682 0.0
C402 C 0.80043 0.38217 0.78214 0.0
C403 C 0.78313 0.3627 0.79639 0.0
C404 C 0.76666 0.36588 0.81071 0.0
C405 C 0.76746 0.38852 0.81109 0.0
C406 C 0.78478 0.40805 0.79719 0.0
C407 C 0.80127 0.40495 0.78281 0.0
H408 H 0.75469 0.39095 0.82219 0.0
H409 H 0.91696 0.35857 0.68866 0.0
H410 H 0.51615 0.9389 0.92862 0.0
H411 H 0.50246 0.89946 0.90795 0.0
H412 H 0.50037 0.86528 0.97561 0.0
H413 H 0.5148 0.90431 0.99582 0.0
H414 H 0.51733 0.84825 0.94425 0.0
H415 H 0.44785 0.86165 0.94852 0.0
H416 H 0.42565 0.88413 0.94061 0.0
H417 H 0.43306 0.87781 0.86498 0.0
H418 H 0.45557 0.85554 0.87247 0.0
H419 H 0.4016 0.725 0.91362 0.0
H420 H 0.42022 0.76914 0.92166 0.0
H421 H 0.48707 0.78237 0.8866 0.0
H422 H 0.46887 0.73838 0.8791 0.0
H423 H 0.43976 0.81141 0.8973 0.0
H424 H 0.53628 0.82482 0.91766 0.0
H425 H 0.555 0.80043 0.93123 0.0
H426 H 0.48776 0.74993 0.967 0.0
H427 H 0.46877 0.77419 0.95391 0.0
C428 C 0.51311 0.92299 0.93888 0.0
C429 C 0.51608 0.92454 0.96385 0.0
C430 C 0.50511 0.90044 0.92715 0.0
C431 C 0.49997 0.87923 0.94027 0.0
C432 C 0.50411 0.88124 0.96503 0.0
C433 C 0.51215 0.90358 0.97662 0.0
C434 C 0.48938 0.85452 0.92893 0.0
C435 C 0.50053 0.84036 0.93372 0.0
C436 C 0.4672 0.84392 0.91557 0.0
C437 C 0.45363 0.85722 0.91105 0.0
C438 C 0.44489 0.86522 0.93021 0.0
C439 C 0.43223 0.87789 0.9258 0.0
C440 C 0.42802 0.88246 0.90231 0.0
C441 C 0.43639 0.8743 0.88317 0.0
C442 C 0.44909 0.86165 0.88748 0.0
C443 C 0.42014 0.73737 0.90735 0.0
C444 C 0.43387 0.72817 0.89602 0.0
C445 C 0.43074 0.76261 0.91189 0.0
C446 C 0.45521 0.77904 0.90509 0.0
C447 C 0.46835 0.77002 0.89242 0.0
C448 C 0.45788 0.74484 0.88812 0.0
C449 C 0.4676 0.80519 0.9129 0.0
C450 C 0.45682 0.81954 0.90741 0.0
C451 C 0.4897 0.81576 0.92639 0.0
C452 C 0.50103 0.80115 0.93453 0.0
C453 C 0.52552 0.80854 0.92846 0.0
C454 C 0.53617 0.79474 0.93607 0.0
C455 C 0.52254 0.77359 0.94988 0.0
C456 C 0.49826 0.76625 0.95621 0.0
C457 C 0.48754 0.78001 0.94868 0.0
H458 H 0.53081 0.76292 0.95574 0.0
H459 H 0.41821 0.89227 0.89893 0.0
H460 H 0.56593 0.47581 0.12919 0.0
H461 H 0.58921 0.4578 0.11205 0.0
H462 H 0.65369 0.52991 0.10724 0.0
H463 H 0.63056 0.54803 0.1247 0.0
H464 H 0.64971 0.49928 0.06897 0.0
H465 H 0.64678 0.49713 0.15477 0.0
H466 H 0.62752 0.48753 0.1947 0.0
H467 H 0.58993 0.41043 0.17816 0.0
H468 H 0.60862 0.4196 0.13792 0.0
H469 H 0.74539 0.47021 0.07714 0.0
H470 H 0.71709 0.4859 0.08232 0.0
H471 H 0.65649 0.41178 0.09053 0.0
H472 H 0.68485 0.39587 0.08554 0.0
H473 H 0.6566 0.44182 0.12522 0.0
H474 H 0.66249 0.44461 0.03977 0.0
H475 H 0.68375 0.45519 0.0008 0.0
H476 H 0.7177 0.53206 0.01766 0.0
H477 H 0.69691 0.52193 0.05689 0.0
C478 C 0.58488 0.48791 0.12386 0.0
C479 C 0.59647 0.51332 0.12851 0.0
C480 C 0.59819 0.47758 0.11418 0.0
C481 C 0.62332 0.49246 0.10888 0.0
C482 C 0.63433 0.51809 0.11132 0.0
C483 C 0.62103 0.52845 0.12113 0.0
C484 C 0.63857 0.48111 0.1031 0.0
C485 C 0.65137 0.48684 0.08131 0.0
C486 C 0.64044 0.4646 0.1191 0.0
C487 C 0.62884 0.45908 0.14318 0.0
C488 C 0.63417 0.47814 0.15952 0.0
C489 C 0.6234 0.47277 0.18224 0.0
C490 C 0.60744 0.44838 0.18893 0.0
C491 C 0.60224 0.42932 0.17292 0.0
C492 C 0.6129 0.43459 0.15015 0.0
C493 C 0.72601 0.45718 0.07985 0.0
C494 C 0.71739 0.43175 0.08094 0.0
C495 C 0.70981 0.4662 0.08268 0.0
C496 C 0.68459 0.45003 0.08657 0.0
C497 C 0.67586 0.4246 0.08746 0.0
C498 C 0.69208 0.41553 0.08455 0.0
C499 C 0.6677 0.45984 0.091 0.0
C500 C 0.65469 0.45396 0.11268 0.0
C501 C 0.66581 0.47633 0.07498 0.0
C502 C 0.67828 0.48249 0.05136 0.0
C503 C 0.67463 0.46377 0.03525 0.0
C504 C 0.68658 0.46969 0.01309 0.0
C505 C 0.70211 0.49428 0.00678 0.0
C506 C 0.70568 0.51301 0.02258 0.0
C507 C 0.6938 0.50719 0.04477 0.0
H508 H 0.71134 0.49883 0.98962 0.0
H509 H 0.59914 0.44422 0.20652 0.0
H510 H 0.4046 0.90181 0.48008 0.0
H511 H 0.38119 0.86356 0.50203 0.0
H512 H 0.41433 0.90113 0.56807 0.0
H513 H 0.43871 0.93989 0.54574 0.0
H514 H 0.41382 0.85749 0.56488 0.0
H515 H 0.35465 0.88307 0.5569 0.0
H516 H 0.33082 0.89914 0.53631 0.0
H517 H 0.29953 0.8367 0.48931 0.0
H518 H 0.32344 0.82042 0.50939 0.0
H519 H 0.28816 0.7373 0.59769 0.0
H520 H 0.31315 0.78162 0.59163 0.0
H521 H 0.36791 0.77142 0.55489 0.0
H522 H 0.34319 0.72697 0.5615 0.0
H523 H 0.32371 0.8053 0.55217 0.0
H524 H 0.42409 0.82269 0.55811 0.0
H525 H 0.4475 0.80786 0.58142 0.0
H526 H 0.39508 0.78642 0.63868 0.0
H527 H 0.37154 0.80143 0.61588 0.0
C528 C 0.40702 0.90201 0.49929 0.0
C529 C 0.42373 0.92382 0.51117 0.0
C530 C 0.39342 0.88013 0.51186 0.0
C531 C 0.39579 0.87946 0.53674 0.0
C532 C 0.41219 0.90125 0.54886 0.0
C533 C 0.42595 0.92337 0.53617 0.0
C534 C 0.38142 0.85562 0.54951 0.0
C535 C 0.39408 0.84613 0.56234 0.0
C536 C 0.35557 0.84099 0.54665 0.0
C537 C 0.34094 0.85058 0.53462 0.0
C538 C 0.34279 0.87283 0.54209 0.0
C539 C 0.32926 0.88197 0.53052 0.0
C540 C 0.31369 0.86896 0.5115 0.0
C541 C 0.31158 0.84675 0.50405 0.0
C542 C 0.32509 0.83754 0.51556 0.0
C543 C 0.30569 0.74449 0.5886 0.0
C544 C 0.31364 0.72858 0.57998 0.0
C545 C 0.31997 0.76988 0.58513 0.0
C546 C 0.34251 0.77999 0.57289 0.0
C547 C 0.35082 0.76419 0.56478 0.0
C548 C 0.3366 0.73874 0.56844 0.0
C549 C 0.35619 0.80669 0.56686 0.0
C550 C 0.34338 0.81671 0.55516 0.0
C551 C 0.38176 0.8219 0.57124 0.0
C552 C 0.39594 0.81302 0.58518 0.0
C553 C 0.41762 0.81492 0.57572 0.0
C554 C 0.4309 0.80646 0.58884 0.0
C555 C 0.42275 0.79615 0.61149 0.0
C556 C 0.40133 0.79433 0.6211 0.0
C557 C 0.38799 0.80278 0.60807 0.0
H558 H 0.43305 0.78959 0.62161 0.0
H559 H 0.30323 0.87607 0.50255 0.0
H560 H 0.48228 0.39923 0.6842 0.0
H561 H 0.50044 0.37748 0.70433 0.0
H562 H 0.57205 0.44298 0.70103 0.0
H563 H 0.55393 0.46469 0.68068 0.0
H564 H 0.57307 0.40565 0.68059 0.0
H565 H 0.54347 0.41771 0.75511 0.0
H566 H 0.51293 0.41704 0.78334 0.0
H567 H 0.46912 0.33856 0.7763 0.0
H568 H 0.49922 0.33878 0.74775 0.0
H569 H 0.63191 0.34423 0.73073 0.0
H570 H 0.61705 0.37345 0.72605 0.0
H571 H 0.54198 0.31334 0.72645 0.0
H572 H 0.55661 0.28418 0.73146 0.0
H573 H 0.54568 0.35126 0.75182 0.0
H574 H 0.57141 0.33958 0.67412 0.0
H575 H 0.60036 0.33924 0.64446 0.0
H576 H 0.64984 0.41625 0.65641 0.0
H577 H 0.62129 0.41697 0.68638 0.0
C578 C 0.5017 0.40928 0.68867 0.0
C579 C 0.5167 0.43364 0.68082 0.0
C580 C 0.51212 0.39679 0.70011 0.0
C581 C 0.53768 0.40854 0.70412 0.0
C582 C 0.55233 0.43348 0.69802 0.0
C583 C 0.54195 0.44591 0.68652 0.0
C584 C 0.54947 0.39406 0.7116 0.0
C585 C 0.56747 0.39422 0.69651 0.0
C586 C 0.54166 0.37852 0.73193 0.0
C587 C 0.52353 0.3783 0.74914 0.0
C588 C 0.52723 0.40033 0.75943 0.0
C589 C 0.51001 0.40002 0.77552 0.0
C590 C 0.48908 0.37778 0.78157 0.0
C591 C 0.48534 0.35578 0.77158 0.0
C592 C 0.50249 0.35598 0.75547 0.0
C593 C 0.61224 0.33727 0.72998 0.0
C594 C 0.59547 0.31185 0.73129 0.0
C595 C 0.60377 0.35398 0.72726 0.0
C596 C 0.57838 0.34558 0.72565 0.0
C597 C 0.56163 0.32029 0.72768 0.0
C598 C 0.57006 0.30361 0.73041 0.0
C599 C 0.56915 0.36288 0.72075 0.0
C600 C 0.55156 0.36309 0.73619 0.0
C601 C 0.57715 0.37867 0.70062 0.0
C602 C 0.59438 0.37825 0.6827 0.0
C603 C 0.58857 0.35639 0.67057 0.0
C604 C 0.60488 0.35614 0.65368 0.0
C605 C 0.62696 0.37769 0.64862 0.0
C606 C 0.63275 0.39956 0.66039 0.0
C607 C 0.61651 0.3999 0.67732 0.0
H608 H 0.63956 0.37747 0.63552 0.0
H609 H 0.47577 0.37759 0.79403 0.0
H610 H 0.09507 0.47951 0.86118 0.0
H611 H 0.13592 0.49753 0.87959 0.0
H612 H 0.14517 0.56999 0.87144 0.0
H613 H 0.10435 0.55204 0.8531 0.0
H614 H 0.18138 0.5658 0.84953 0.0
H615 H 0.14274 0.54646 0.92669 0.0
H616 H 0.11342 0.51967 0.9575 0.0
H617 H 0.14539 0.47311 0.95574 0.0
H618 H 0.1747 0.49944 0.92466 0.0
H619 H 0.3031 0.62883 0.89536 0.0
H620 H 0.25892 0.61371 0.89084 0.0
H621 H 0.24351 0.53939 0.90238 0.0
H622 H 0.28745 0.55435 0.90731 0.0
H623 H 0.21004 0.5462 0.92468 0.0
H624 H 0.24513 0.56144 0.84606 0.0
H625 H 0.27334 0.58544 0.81332 0.0
H626 H 0.24684 0.6366 0.81577 0.0
H627 H 0.2187 0.61308 0.84878 0.0
C628 C 0.10536 0.49917 0.86429 0.0
C629 C 0.09655 0.51438 0.8557 0.0
C630 C 0.1288 0.50949 0.87468 0.0
C631 C 0.14368 0.53515 0.87676 0.0
C632 C 0.13406 0.55017 0.86992 0.0
C633 C 0.11069 0.53989 0.85959 0.0
C634 C 0.17018 0.54643 0.88311 0.0
C635 C 0.18764 0.56195 0.86622 0.0
C636 C 0.17834 0.54064 0.90444 0.0
C637 C 0.16079 0.52483 0.9232 0.0
C638 C 0.1434 0.5304 0.93273 0.0
C639 C 0.1268 0.51532 0.95027 0.0
C640 C 0.1275 0.49467 0.95853 0.0
C641 C 0.14485 0.4891 0.94931 0.0
C642 C 0.16148 0.50412 0.93175 0.0
C643 C 0.29029 0.6093 0.89716 0.0
C644 C 0.29884 0.5928 0.90155 0.0
C645 C 0.26503 0.60066 0.89447 0.0
C646 C 0.24787 0.57535 0.89595 0.0
C647 C 0.25634 0.55898 0.90115 0.0
C648 C 0.28153 0.56758 0.90388 0.0
C649 C 0.22122 0.56573 0.89116 0.0
C650 C 0.20376 0.55037 0.90819 0.0
C651 C 0.21296 0.57136 0.86977 0.0
C652 C 0.23007 0.5857 0.85012 0.0
C653 C 0.24551 0.57796 0.83979 0.0
C654 C 0.26144 0.59144 0.82115 0.0
C655 C 0.26195 0.61258 0.81253 0.0
C656 C 0.24648 0.62026 0.82251 0.0
C657 C 0.23053 0.60686 0.84119 0.0
H658 H 0.27428 0.62298 0.79808 0.0
H659 H 0.11463 0.48301 0.97211 0.0
H660 H 0.62313 0.09407 0.01861 0.0
H661 H 0.64645 0.13403 0.03841 0.0
H662 H 0.58296 0.14351 0.03478 0.0
H663 H 0.55953 0.10351 0.01514 0.0
H664 H 0.62307 0.18145 0.01437 0.0
H665 H 0.60464 0.137 0.0884 0.0
H666 H 0.60248 0.10551 0.11623 0.0
H667 H 0.68111 0.13774 0.11291 0.0
H668 H 0.68372 0.16924 0.08478 0.0
H669 H 0.68213 0.29898 0.06975 0.0
H670 H 0.65299 0.25538 0.06214 0.0
H671 H 0.71217 0.23933 0.06771 0.0
H672 H 0.74121 0.28262 0.07567 0.0
H673 H 0.67212 0.20425 0.08921 0.0
H674 H 0.69095 0.24553 0.01335 0.0
H675 H 0.6946 0.27636 0.98379 0.0
H676 H 0.61683 0.24932 0.98876 0.0
H677 H 0.61277 0.21854 0.01862 0.0
C678 C 0.61385 0.10423 0.02287 0.0
C679 C 0.5895 0.09567 0.01527 0.0
C680 C 0.62726 0.12716 0.03407 0.0
C681 C 0.61649 0.14183 0.03799 0.0
C682 C 0.59168 0.13257 0.03183 0.0
C683 C 0.57829 0.10968 0.0207 0.0
C684 C 0.63171 0.16775 0.04608 0.0
C685 C 0.63337 0.18642 0.03101 0.0
C686 C 0.64585 0.17425 0.06734 0.0
C687 C 0.64434 0.15537 0.08432 0.0
C688 C 0.62145 0.13726 0.09345 0.0
C689 C 0.62015 0.11943 0.10931 0.0
C690 C 0.64164 0.11959 0.1163 0.0
C691 C 0.66448 0.13763 0.10747 0.0
C692 C 0.66588 0.15549 0.09159 0.0
C693 C 0.68889 0.28613 0.06955 0.0
C694 C 0.71403 0.29433 0.07318 0.0
C695 C 0.67223 0.26122 0.06511 0.0
C696 C 0.68043 0.24409 0.06406 0.0
C697 C 0.70538 0.25216 0.06843 0.0
C698 C 0.72199 0.27698 0.07289 0.0
C699 C 0.66334 0.21794 0.05755 0.0
C700 C 0.66149 0.19926 0.07278 0.0
C701 C 0.6492 0.21136 0.03627 0.0
C702 C 0.65162 0.22996 0.01845 0.0
C703 C 0.67467 0.24632 0.00832 0.0
C704 C 0.6768 0.26375 0.99147 0.0
C705 C 0.65598 0.26486 0.98447 0.0
C706 C 0.63296 0.24849 0.99425 0.0
C707 C 0.63073 0.23104 0.01113 0.0
H708 H 0.65766 0.27835 0.97141 0.0
H709 H 0.6406 0.10577 0.12858 0.0
H710 H 0.48415 0.566 0.19745 0.0
H711 H 0.46462 0.58597 0.21851 0.0
H712 H 0.53396 0.65424 0.21891 0.0
H713 H 0.55361 0.63401 0.19861 0.0
H714 H 0.50674 0.65191 0.25714 0.0
H715 H 0.49337 0.63913 0.17137 0.0
H716 H 0.47959 0.61412 0.13457 0.0
H717 H 0.40663 0.57171 0.16345 0.0
H718 H 0.41995 0.59651 0.20043 0.0
H719 H 0.47431 0.74356 0.241 0.0
H720 H 0.48965 0.71483 0.23885 0.0
H721 H 0.41501 0.65387 0.23835 0.0
H722 H 0.39943 0.68273 0.23994 0.0
H723 H 0.44102 0.64819 0.20474 0.0
H724 H 0.45376 0.66706 0.288 0.0
H725 H 0.4682 0.69378 0.3236 0.0
H726 H 0.54298 0.72581 0.29926 0.0
H727 H 0.52897 0.69952 0.26334 0.0
C728 C 0.49543 0.58491 0.2032 0.0
C729 C 0.52037 0.59848 0.19655 0.0
C730 C 0.48422 0.59643 0.21491 0.0
C731 C 0.49765 0.62181 0.21962 0.0
C732 C 0.52317 0.63469 0.21534 0.0
C733 C 0.53447 0.62308 0.20391 0.0
C734 C 0.48474 0.63557 0.22569 0.0
C735 C 0.49239 0.65115 0.24569 0.0
C736 C 0.46571 0.63431 0.21097 0.0
C737 C 0.4577 0.61948 0.18873 0.0
C738 C 0.47442 0.62439 0.16991 0.0
C739 C 0.46669 0.61028 0.14902 0.0
C740 C 0.44231 0.59125 0.14674 0.0
C741 C 0.42554 0.58641 0.16527 0.0
C742 C 0.43313 0.60052 0.18617 0.0
C743 C 0.46109 0.72404 0.24064 0.0
C744 C 0.43561 0.71546 0.24063 0.0
C745 C 0.46993 0.70758 0.2396 0.0
C746 C 0.45353 0.6821 0.23884 0.0
C747 C 0.42804 0.67344 0.23905 0.0
C748 C 0.41916 0.68994 0.23998 0.0
C749 C 0.4631 0.66477 0.23614 0.0
C750 C 0.45495 0.64862 0.21658 0.0
C751 C 0.48175 0.66567 0.2512 0.0
C752 C 0.49028 0.6814 0.27289 0.0
C753 C 0.47327 0.67991 0.29016 0.0
C754 C 0.48138 0.69496 0.31041 0.0
C755 C 0.50649 0.71151 0.31367 0.0
C756 C 0.52354 0.71298 0.29671 0.0
C757 C 0.51553 0.69798 0.27642 0.0
H758 H 0.51273 0.72315 0.32936 0.0
H759 H 0.43638 0.58032 0.13058 0.0
H760 H 0.93724 0.5477 0.35462 0.0
H761 H 0.89668 0.53082 0.37347 0.0
H762 H 0.88948 0.45883 0.37454 0.0
H763 H 0.93004 0.47564 0.35596 0.0
H764 H 0.8526 0.45994 0.34985 0.0
H765 H 0.89201 0.48793 0.42628 0.0
H766 H 0.92102 0.5185 0.455 0.0
H767 H 0.88596 0.56177 0.44602 0.0
H768 H 0.85694 0.53163 0.41697 0.0
H769 H 0.73178 0.39626 0.39758 0.0
H770 H 0.77627 0.41303 0.39321 0.0
H771 H 0.78792 0.48673 0.39687 0.0
H772 H 0.7437 0.47017 0.40163 0.0
H773 H 0.82306 0.4844 0.42114 0.0
H774 H 0.78601 0.45923 0.34382 0.0
H775 H 0.75835 0.43132 0.31264 0.0
H776 H 0.79052 0.38532 0.32059 0.0
H777 H 0.81807 0.4127 0.35216 0.0
C778 C 0.92748 0.5285 0.35983 0.0
C779 C 0.93677 0.51296 0.35371 0.0
C780 C 0.90422 0.51883 0.37049 0.0
C781 C 0.88996 0.49351 0.37527 0.0
C782 C 0.9001 0.47839 0.37093 0.0
C783 C 0.92331 0.48803 0.36038 0.0
C784 C 0.86345 0.48221 0.3816 0.0
C785 C 0.84616 0.46479 0.36578 0.0
C786 C 0.85505 0.4895 0.40176 0.0
C787 C 0.87243 0.50761 0.41928 0.0
C788 C 0.89061 0.50407 0.43027 0.0
C789 C 0.90703 0.5213 0.44665 0.0
C790 C 0.90537 0.54209 0.45229 0.0
C791 C 0.88724 0.54567 0.44162 0.0
C792 C 0.87078 0.52849 0.42522 0.0
C793 C 0.74384 0.41603 0.39766 0.0
C794 C 0.73415 0.43186 0.39978 0.0
C795 C 0.76927 0.42561 0.39509 0.0
C796 C 0.78546 0.45118 0.39441 0.0
C797 C 0.77586 0.46696 0.39734 0.0
C798 C 0.7505 0.45743 0.39995 0.0
C799 C 0.81223 0.46158 0.38962 0.0
C800 C 0.82953 0.47909 0.4055 0.0
C801 C 0.82075 0.45458 0.36931 0.0
C802 C 0.80381 0.4378 0.35067 0.0
C803 C 0.78696 0.44298 0.33917 0.0
C804 C 0.77134 0.42728 0.32137 0.0
C805 C 0.77259 0.40649 0.31472 0.0
C806 C 0.78949 0.40137 0.32583 0.0
C807 C 0.80509 0.41695 0.3437 0.0
H808 H 0.76052 0.3944 0.3009 0.0
H809 H 0.9181 0.55542 0.46498 0.0
H810 H 0.05569 0.55043 0.38836 0.0
H811 H 0.0772 0.55544 0.4267 0.0
H812 H 0.1381 0.62395 0.40134 0.0
H813 H 0.11628 0.61959 0.3641 0.0
H814 H 0.11907 0.55676 0.43587 0.0
H815 H 0.16658 0.66392 0.44353 0.0
H816 H 0.15612 0.69634 0.43615 0.0
H817 H 0.07915 0.64346 0.4435 0.0
H818 H 0.08914 0.61077 0.45128 0.0
H819 H 0.2307 0.60336 0.49961 0.0
H820 H 0.19739 0.59297 0.47087 0.0
H821 H 0.16475 0.62236 0.51913 0.0
H822 H 0.19884 0.63425 0.54693 0.0
H823 H 0.16151 0.63631 0.47917 0.0
H824 H 0.14052 0.55727 0.50821 0.0
H825 H 0.14661 0.52263 0.51917 0.0
H826 H 0.16229 0.51513 0.44591 0.0
H827 H 0.15661 0.54993 0.43454 0.0
C828 C 0.07343 0.56673 0.39134 0.0
C829 C 0.08454 0.5845 0.37327 0.0
C830 C 0.08578 0.5695 0.41308 0.0
C831 C 0.10921 0.59018 0.417 0.0
C832 C 0.1199 0.60808 0.39903 0.0
C833 C 0.10757 0.60543 0.3776 0.0
C834 C 0.12343 0.59289 0.43916 0.0
C835 C 0.12816 0.57403 0.44556 0.0
C836 C 0.13475 0.61516 0.45225 0.0
C837 C 0.12863 0.63485 0.44787 0.0
C838 C 0.14743 0.65922 0.44374 0.0
C839 C 0.14158 0.67765 0.43944 0.0
C840 C 0.11699 0.67196 0.43931 0.0
C841 C 0.09819 0.64783 0.44354 0.0
C842 C 0.10394 0.62934 0.44786 0.0
C843 C 0.21641 0.60764 0.50395 0.0
C844 C 0.21743 0.61979 0.52534 0.0
C845 C 0.19721 0.60145 0.48767 0.0
C846 C 0.17817 0.60645 0.49293 0.0
C847 C 0.17916 0.61835 0.51451 0.0
C848 C 0.19869 0.62518 0.5304 0.0
C849 C 0.15793 0.60046 0.47551 0.0
C850 C 0.15213 0.6188 0.46991 0.0
C851 C 0.14496 0.57736 0.46385 0.0
C852 C 0.14829 0.55633 0.47056 0.0
C853 C 0.14541 0.54833 0.49445 0.0
C854 C 0.14877 0.52865 0.50074 0.0
C855 C 0.15487 0.51671 0.48325 0.0
C856 C 0.15757 0.52439 0.45943 0.0
C857 C 0.15424 0.54408 0.45305 0.0
H858 H 0.15748 0.50149 0.48816 0.0
H859 H 0.1125 0.68624 0.43597 0.0
H860 H 0.56101 0.08202 0.52118 0.0
H861 H 0.58424 0.10873 0.55459 0.0
H862 H 0.51619 0.0912 0.58985 0.0
H863 H 0.49283 0.06472 0.55626 0.0
H864 H 0.57911 0.14946 0.5635 0.0
H865 H 0.52992 0.10127 0.65121 0.0
H866 H 0.50805 0.05952 0.6685 0.0
H867 H 0.54902 0.03768 0.62317 0.0
H868 H 0.57139 0.07937 0.60586 0.0
H869 H 0.59236 0.22913 0.66221 0.0
H870 H 0.57613 0.19692 0.63152 0.0
H871 H 0.62858 0.17512 0.65273 0.0
H872 H 0.64528 0.20753 0.68305 0.0
H873 H 0.57701 0.13596 0.65108 0.0
H874 H 0.63915 0.20223 0.60392 0.0
H875 H 0.66088 0.24348 0.58563 0.0
H876 H 0.59474 0.22871 0.54878 0.0
H877 H 0.57245 0.18754 0.56727 0.0
C878 C 0.55101 0.08325 0.53642 0.0
C879 C 0.52514 0.07153 0.53603 0.0
C880 C 0.56429 0.09857 0.55543 0.0
C881 C 0.55192 0.10214 0.57452 0.0
C882 C 0.52607 0.08859 0.57531 0.0
C883 C 0.51274 0.07334 0.55618 0.0
C884 C 0.56587 0.12241 0.59169 0.0
C885 C 0.57875 0.1465 0.58266 0.0
C886 C 0.56529 0.11848 0.61662 0.0
C887 C 0.55217 0.0934 0.62709 0.0
C888 C 0.53434 0.08759 0.645 0.0
C889 C 0.52184 0.06393 0.6548 0.0
C890 C 0.52709 0.04594 0.64689 0.0
C891 C 0.5449 0.0516 0.62922 0.0
C892 C 0.55746 0.07524 0.61938 0.0
C893 C 0.60068 0.21772 0.66009 0.0
C894 C 0.62011 0.22089 0.67504 0.0
C895 C 0.59139 0.19935 0.64258 0.0
C896 C 0.60113 0.18365 0.64 0.0
C897 C 0.62082 0.18707 0.65453 0.0
C898 C 0.63042 0.2057 0.67173 0.0
C899 C 0.59003 0.16296 0.62286 0.0
C900 C 0.57749 0.13885 0.63191 0.0
C901 C 0.5908 0.16686 0.59791 0.0
C902 C 0.60404 0.19188 0.58724 0.0
C903 C 0.62913 0.20789 0.5922 0.0
C904 C 0.64157 0.23125 0.58173 0.0
C905 C 0.62917 0.23874 0.56611 0.0
C906 C 0.6043 0.22291 0.56094 0.0
C907 C 0.59175 0.19956 0.57142 0.0
H908 H 0.63886 0.25679 0.55796 0.0
H909 H 0.51739 0.02763 0.65448 0.0
H910 H 0.41483 0.51859 0.67081 0.0
H911 H 0.41215 0.54143 0.70451 0.0
H912 H 0.47609 0.54403 0.73637 0.0
H913 H 0.47929 0.52128 0.70193 0.0
H914 H 0.4387 0.53176 0.76888 0.0
H915 H 0.48323 0.59676 0.71369 0.0
H916 H 0.49461 0.62077 0.67625 0.0
H917 H 0.42475 0.61795 0.67547 0.0
H918 H 0.41293 0.59392 0.71291 0.0
H919 H 0.43687 0.64453 0.82702 0.0
H920 H 0.45076 0.62709 0.79592 0.0
H921 H 0.38677 0.55569 0.80773 0.0
H922 H 0.37303 0.57288 0.83938 0.0
H923 H 0.43283 0.60678 0.75534 0.0
H924 H 0.40065 0.51074 0.79777 0.0
H925 H 0.39483 0.49234 0.83793 0.0
H926 H 0.44818 0.56245 0.86679 0.0
H927 H 0.45459 0.5812 0.82676 0.0
C928 C 0.42867 0.52434 0.68472 0.0
C929 C 0.44768 0.51863 0.6834 0.0
C930 C 0.42703 0.53737 0.70404 0.0
C931 C 0.44421 0.54489 0.72268 0.0
C932 C 0.4628 0.53858 0.72198 0.0
C933 C 0.46457 0.52556 0.7024 0.0
C934 C 0.44183 0.55863 0.74304 0.0
C935 C 0.43762 0.54828 0.76601 0.0
C936 C 0.44085 0.58042 0.73936 0.0
C937 C 0.44718 0.59348 0.71606 0.0
C938 C 0.47019 0.60103 0.7054 0.0
C939 C 0.47678 0.61478 0.68427 0.0
C940 C 0.46047 0.62102 0.67359 0.0
C941 C 0.43742 0.61324 0.68385 0.0
C942 C 0.43079 0.59961 0.70505 0.0
C943 C 0.42561 0.62514 0.82292 0.0
C944 C 0.40385 0.61008 0.83576 0.0
C945 C 0.43365 0.61518 0.80516 0.0
C946 C 0.42008 0.58999 0.79981 0.0
C947 C 0.39787 0.57507 0.81197 0.0
C948 C 0.3899 0.58498 0.82989 0.0
C949 C 0.42888 0.57951 0.78107 0.0
C950 C 0.43417 0.59042 0.75835 0.0
C951 C 0.4314 0.5586 0.78518 0.0
C952 C 0.42793 0.5474 0.80928 0.0
C953 C 0.41123 0.5222 0.81266 0.0
C954 C 0.40781 0.51172 0.83541 0.0
C955 C 0.42107 0.52623 0.85491 0.0
C956 C 0.43785 0.55125 0.85169 0.0
C957 C 0.44136 0.56182 0.82898 0.0
H958 H 0.41837 0.51808 0.87251 0.0
H959 H 0.46567 0.63181 0.65732 0.0
H960 H 0.94113 0.485 0.86076 0.0
H961 H 0.91498 0.47979 0.89537 0.0
H962 H 0.93444 0.42898 0.9266 0.0
H963 H 0.96044 0.43399 0.89205 0.0
H964 H 0.88412 0.4092 0.91849 0.0
H965 H 0.95122 0.48189 0.95399 0.0
H966 H 0.98377 0.52553 0.95487 0.0
H967 H 0.92958 0.54739 0.9443 0.0
H968 H 0.89671 0.50385 0.94302 0.0
H969 H 0.81715 0.37796 0.02505 0.0
H970 H 0.84874 0.39221 0.99434 0.0
H971 H 0.83382 0.45012 0.97525 0.0
H972 H 0.80264 0.43649 0.00695 0.0
H973 H 0.88134 0.46789 0.97595 0.0
H974 H 0.81457 0.39753 0.93963 0.0
H975 H 0.78078 0.35456 0.93637 0.0
H976 H 0.83237 0.32904 0.94488 0.0
H977 H 0.86645 0.37186 0.94851 0.0
C978 C 0.94045 0.47337 0.87541 0.0
C979 C 0.95271 0.45981 0.87369 0.0
C980 C 0.92554 0.47043 0.89516 0.0
C981 C 0.92267 0.45387 0.91343 0.0
C982 C 0.93642 0.44183 0.91264 0.0
C983 C 0.95146 0.44489 0.89299 0.0
C984 C 0.90288 0.44648 0.93145 0.0
C985 C 0.88371 0.42193 0.93135 0.0
C986 C 0.90178 0.46341 0.94733 0.0
C987 C 0.92152 0.48959 0.94817 0.0
C988 C 0.94626 0.49599 0.95163 0.0
C989 C 0.96477 0.52072 0.95226 0.0
C990 C 0.95876 0.53922 0.94958 0.0
C991 C 0.93421 0.53304 0.94634 0.0
C992 C 0.91563 0.50834 0.9457 0.0
C993 C 0.82032 0.39357 0.01419 0.0
C994 C 0.80719 0.40596 0.01833 0.0
C995 C 0.83841 0.40169 -0.00346 0.0
C996 C 0.84342 0.42199 0.98214 0.0
C997 C 0.83025 0.43437 0.98609 0.0
C998 C 0.81234 0.42647 0.0041 0.0
C999 C 0.86276 0.43039 0.96337 0.0
C1000 C 0.88173 0.45513 0.96314 0.0
C1001 C 0.86349 0.41373 0.94678 0.0
C1002 C 0.84304 0.38792 0.94454 0.0
C1003 C 0.81869 0.38275 0.94097 0.0
C1004 C 0.79949 0.35842 0.93903 0.0
C1005 C 0.80442 0.33908 0.94047 0.0
C1006 C 0.82858 0.34404 0.94379 0.0
C1007 C 0.84785 0.36834 0.94576 0.0
H1008 H 0.78953 0.32025 0.93897 0.0
H1009 H 0.97311 0.55836 0.95007 0.0
H1010 H 0.46766 0.94377 0.02645 0.0
H1011 H 0.4485 0.91876 0.06208 0.0
H1012 H 0.52045 0.94309 0.09217 0.0
H1013 H 0.53964 0.96809 0.05656 0.0
H1014 H 0.49335 0.89294 0.0832 0.0
H1015 H 0.48099 0.95429 0.12165 0.0
H1016 H 0.46675 0.98437 0.12448 0.0
H1017 H 0.39219 0.92694 0.11233 0.0
H1018 H 0.40602 0.89655 0.10909 0.0
H1019 H 0.45515 0.81708 0.18516 0.0
H1020 H 0.47307 0.85077 0.15655 0.0
H1021 H 0.40028 0.83405 0.13457 0.0
H1022 H 0.38213 0.80072 0.16401 0.0
H1023 H 0.42768 0.88138 0.14003 0.0
H1024 H 0.4381 0.8208 0.09878 0.0
H1025 H 0.45037 0.78947 0.09305 0.0
H1026 H 0.52592 0.84367 0.1065 0.0
H1027 H 0.51405 0.87527 0.11262 0.0
C1028 C 0.47931 0.94472 0.04123 0.0
C1029 C 0.50509 0.95773 0.03877 0.0
C1030 C 0.46836 0.93037 0.06153 0.0
C1031 C 0.48309 0.92887 0.07962 0.0
C1032 C 0.5088 0.94399 0.07835 0.0
C1033 C 0.51974 0.95847 0.05812 0.0
C1034 C 0.47208 0.90846 0.09716 0.0
C1035 C 0.47935 0.89068 0.09601 0.0
C1036 C 0.45296 0.90492 0.11293 0.0
C1037 C 0.44459 0.92317 0.11492 0.0
C1038 C 0.46159 0.9481 0.11937 0.0
C1039 C 0.45358 0.9652 0.12109 0.0
C1040 C 0.42859 0.95758 0.11853 0.0
C1041 C 0.41154 0.93282 0.1143 0.0
C1042 C 0.41946 0.91564 0.11254 0.0
C1043 C 0.44288 0.82025 0.174 0.0
C1044 C 0.41717 0.8061 0.17683 0.0
C1045 C 0.45319 0.83958 0.15759 0.0
C1046 C 0.43805 0.84487 0.1432 0.0
C1047 C 0.41235 0.83038 0.14552 0.0
C1048 C 0.40199 0.81121 0.16222 0.0
C1049 C 0.44919 0.86597 0.12629 0.0
C1050 C 0.44181 0.88374 0.12738 0.0
C1051 C 0.46793 0.86932 0.11003 0.0
C1052 C 0.47514 0.85035 0.10639 0.0
C1053 C 0.4573 0.826 0.10071 0.0
C1054 C 0.46419 0.8082 0.09735 0.0
C1055 C 0.4889 0.81456 0.09947 0.0
C1056 C 0.50678 0.83876 0.10489 0.0
C1057 C 0.49999 0.85663 0.10829 0.0
H1058 H 0.49419 0.80075 0.09686 0.0
H1059 H 0.42243 0.97085 0.11988 0.0
H1060 H 0.53593 0.47481 0.2002 0.0
H1061 H 0.54152 0.45275 0.23362 0.0
H1062 H 0.60452 0.52025 0.25742 0.0
H1063 H 0.59869 0.54243 0.22439 0.0
H1064 H 0.61062 0.478 0.23809 0.0
H1065 H 0.56644 0.499 0.29515 0.0
H1066 H 0.53047 0.50087 0.31022 0.0
H1067 H 0.48693 0.42205 0.30834 0.0
H1068 H 0.52257 0.41972 0.29289 0.0
H1069 H 0.65821 0.4422 0.33455 0.0
H1070 H 0.64346 0.46091 0.30557 0.0
H1071 H 0.57198 0.39513 0.30531 0.0
H1072 H 0.58654 0.37626 0.33452 0.0
H1073 H 0.56741 0.43455 0.31226 0.0
H1074 H 0.6079 0.41102 0.25622 0.0
H1075 H 0.64031 0.4058 0.23689 0.0
H1076 H 0.68652 0.48419 0.2316 0.0
H1077 H 0.65455 0.48991 0.25127 0.0
C1078 C 0.55011 0.48511 0.21335 0.0
C1079 C 0.56685 0.51027 0.20985 0.0
C1080 C 0.55335 0.47251 0.23233 0.0
C1081 C 0.57348 0.48493 0.24781 0.0
C1082 C 0.58879 0.51047 0.24568 0.0
C1083 C 0.58533 0.52314 0.22694 0.0
C1084 C 0.58143 0.47075 0.26271 0.0
C1085 C 0.60147 0.46875 0.25452 0.0
C1086 C 0.56856 0.45783 0.28337 0.0
C1087 C 0.5471 0.45921 0.29257 0.0
C1088 C 0.54913 0.48208 0.29767 0.0
C1089 C 0.52881 0.48322 0.30636 0.0
C1090 C 0.5064 0.4616 0.31016 0.0
C1091 C 0.50428 0.43878 0.30534 0.0
C1092 C 0.52454 0.43754 0.29664 0.0
C1093 C 0.63948 0.43149 0.32801 0.0
C1094 C 0.62353 0.40776 0.33698 0.0
C1095 C 0.63108 0.44221 0.31137 0.0
C1096 C 0.6066 0.42944 0.30329 0.0
C1097 C 0.59092 0.40535 0.31139 0.0
C1098 C 0.59934 0.39454 0.32797 0.0
C1099 C 0.59704 0.44203 0.28786 0.0
C1100 C 0.57662 0.44368 0.29581 0.0
C1101 C 0.60917 0.45416 0.26652 0.0
C1102 C 0.62893 0.45089 0.25558 0.0
C1103 C 0.62512 0.42716 0.25129 0.0
C1104 C 0.64338 0.42411 0.24016 0.0
C1105 C 0.6655 0.44465 0.2331 0.0
C1106 C 0.6694 0.46829 0.23715 0.0
C1107 C 0.65122 0.47145 0.24829 0.0
H1108 H 0.67958 0.44224 0.22443 0.0
H1109 H 0.4907 0.46252 0.31691 0.0
H1110 H 0.49378 0.94957 0.44721 0.0
H1111 H 0.49192 0.92574 0.41184 0.0
H1112 H 0.43413 0.93641 0.38269 0.0
H1113 H 0.43676 0.96097 0.41754 0.0
H1114 H 0.45357 0.88374 0.4046 0.0
H1115 H 0.42466 0.92314 0.3243 0.0
H1116 H 0.43584 0.96345 0.30677 0.0
H1117 H 0.50766 0.99524 0.33869 0.0
H1118 H 0.49706 0.95506 0.35613 0.0
H1119 H 0.38023 0.81582 0.29111 0.0
H1120 H 0.39617 0.84965 0.3198 0.0
H1121 H 0.45737 0.83866 0.33543 0.0
H1122 H 0.44158 0.80473 0.30678 0.0
H1123 H 0.44123 0.89307 0.31846 0.0
H1124 H 0.4723 0.85343 0.39497 0.0
H1125 H 0.46145 0.81328 0.41278 0.0
H1126 H 0.38679 0.78322 0.38865 0.0
H1127 H 0.39711 0.82325 0.37099 0.0
C1128 C 0.48165 0.94786 0.43261 0.0
C1129 C 0.46551 0.95715 0.43492 0.0
C1130 C 0.48038 0.93404 0.41254 0.0
C1131 C 0.46276 0.92906 0.39463 0.0
C1132 C 0.44818 0.94025 0.39599 0.0
C1133 C 0.44971 0.95438 0.41591 0.0
C1134 C 0.45675 0.90918 0.37693 0.0
C1135 C 0.45152 0.88605 0.38565 0.0
C1136 C 0.45333 0.91185 0.35231 0.0
C1137 C 0.45997 0.93608 0.34169 0.0
C1138 C 0.44288 0.93869 0.32749 0.0
C1139 C 0.44911 0.96153 0.31759 0.0
C1140 C 0.47242 0.98191 0.32167 0.0
C1141 C 0.48957 0.97946 0.33561 0.0
C1142 C 0.48345 0.95666 0.34555 0.0
C1143 C 0.3969 0.82032 0.30087 0.0
C1144 C 0.40962 0.80751 0.29663 0.0
C1145 C 0.40609 0.83982 0.31711 0.0
C1146 C 0.42799 0.84672 0.32964 0.0
C1147 C 0.44037 0.83356 0.326 0.0
C1148 C 0.43128 0.81413 0.30965 0.0
C1149 C 0.43797 0.8679 0.34629 0.0
C1150 C 0.44379 0.8911 0.33736 0.0
C1151 C 0.44209 0.86539 0.37071 0.0
C1152 C 0.43558 0.84125 0.3814 0.0
C1153 C 0.45356 0.83826 0.39351 0.0
C1154 C 0.4475 0.81552 0.40358 0.0
C1155 C 0.42347 0.79568 0.40176 0.0
C1156 C 0.40542 0.79856 0.38994 0.0
C1157 C 0.41138 0.82126 0.37987 0.0
H1158 H 0.41882 0.7781 0.40956 0.0
H1159 H 0.47719 0.99957 0.31399 0.0
H1160 H 0.55723 0.48694 0.60753 0.0
H1161 H 0.57762 0.4806 0.57314 0.0
H1162 H 0.50723 0.42335 0.54729 0.0
H1163 H 0.48681 0.42964 0.5816 0.0
H1164 H 0.54128 0.40797 0.55719 0.0
H1165 H 0.53848 0.47307 0.51449 0.0
H1166 H 0.54559 0.51508 0.5089 0.0
H1167 H 0.62351 0.54456 0.51701 0.0
H1168 H 0.61685 0.50273 0.523 0.0
H1169 H 0.5785 0.37233 0.45364 0.0
H1170 H 0.55978 0.38628 0.48318 0.0
H1171 H 0.63081 0.44949 0.49846 0.0
H1172 H 0.64972 0.43599 0.46817 0.0
H1173 H 0.59768 0.46329 0.49438 0.0
H1174 H 0.60223 0.40065 0.53817 0.0
H1175 H 0.59706 0.35969 0.5461 0.0
H1176 H 0.51859 0.32689 0.53921 0.0
H1177 H 0.52331 0.36763 0.53094 0.0
C1178 C 0.54606 0.47368 0.59399 0.0
C1179 C 0.52048 0.45874 0.5972 0.0
C1180 C 0.5577 0.47005 0.57439 0.0
C1181 C 0.54392 0.45138 0.55781 0.0
C1182 C 0.51816 0.43784 0.55994 0.0
C1183 C 0.50649 0.44161 0.57941 0.0
C1184 C 0.55655 0.44356 0.54052 0.0
C1185 C 0.55328 0.41989 0.54315 0.0
C1186 C 0.57309 0.4596 0.52306 0.0
C1187 C 0.57713 0.48476 0.51943 0.0
C1188 C 0.55711 0.48852 0.51531 0.0
C1189 C 0.56107 0.5123 0.51201 0.0
C1190 C 0.58498 0.53248 0.51266 0.0
C1191 C 0.605 0.52891 0.51654 0.0
C1192 C 0.60114 0.50517 0.51986 0.0
C1193 C 0.59029 0.38905 0.46345 0.0
C1194 C 0.61567 0.403 0.45855 0.0
C1195 C 0.57951 0.39699 0.48042 0.0
C1196 C 0.5939 0.41882 0.49325 0.0
C1197 C 0.61934 0.4326 0.48876 0.0
C1198 C 0.63014 0.42477 0.47156 0.0
C1199 C 0.58209 0.42747 0.51077 0.0
C1200 C 0.58564 0.45132 0.50835 0.0
C1201 C 0.56609 0.41175 0.52879 0.0
C1202 C 0.56315 0.38718 0.53371 0.0
C1203 C 0.58388 0.38468 0.53816 0.0
C1204 C 0.58103 0.3615 0.54275 0.0
C1205 C 0.55752 0.34069 0.5431 0.0
C1206 C 0.5368 0.34303 0.53891 0.0
C1207 C 0.53955 0.36616 0.5343 0.0
H1208 H 0.55534 0.32277 0.54667 0.0
H1209 H 0.58801 0.55088 0.5101 0.0
H1210 H 0.0752 0.48162 0.76221 0.0
H1211 H 0.10523 0.50223 0.73015 0.0
H1212 H 0.10616 0.56996 0.74551 0.0
H1213 H 0.07658 0.54951 0.77811 0.0
H1214 H 0.11195 0.55867 0.69309 0.0
H1215 H 0.14517 0.56897 0.7726 0.0
H1216 H 0.1488 0.55454 0.81261 0.0
H1217 H 0.17192 0.50715 0.78086 0.0
H1218 H 0.16793 0.52096 0.74058 0.0
H1219 H 0.23043 0.64307 0.65008 0.0
H1220 H 0.19757 0.62338 0.67965 0.0
H1221 H 0.19847 0.55558 0.67161 0.0
H1222 H 0.23125 0.575 0.6417 0.0
H1223 H 0.19153 0.5678 0.72061 0.0
H1224 H 0.1592 0.55996 0.64035 0.0
H1225 H 0.15596 0.57623 0.6012 0.0
H1226 H 0.13186 0.6216 0.6357 0.0
H1227 H 0.13536 0.60589 0.67512 0.0
C1228 C 0.08086 0.50056 0.75792 0.0
C1229 C 0.07357 0.51402 0.77242 0.0
C1230 C 0.09816 0.51235 0.7398 0.0
C1231 C 0.10804 0.53762 0.73578 0.0
C1232 C 0.09865 0.55043 0.7484 0.0
C1233 C 0.08169 0.53874 0.76685 0.0
C1234 C 0.13064 0.55123 0.72133 0.0
C1235 C 0.1294 0.56091 0.69915 0.0
C1236 C 0.15332 0.55401 0.72937 0.0
C1237 C 0.15592 0.54574 0.75355 0.0
C1238 C 0.15074 0.55525 0.77412 0.0
C1239 C 0.15292 0.54724 0.79686 0.0
C1240 C 0.16051 0.52988 0.79928 0.0
C1241 C 0.16599 0.52055 0.77896 0.0
C1242 C 0.16377 0.52847 0.75616 0.0
C1243 C 0.22412 0.62414 0.65497 0.0
C1244 C 0.2333 0.61052 0.6433 0.0
C1245 C 0.20526 0.61291 0.67182 0.0
C1246 C 0.19541 0.58798 0.67748 0.0
C1247 C 0.20582 0.57484 0.66735 0.0
C1248 C 0.22453 0.58597 0.65026 0.0
C1249 C 0.17284 0.5751 0.6922 0.0
C1250 C 0.17409 0.56557 0.7145 0.0
C1251 C 0.15025 0.57275 0.6844 0.0
C1252 C 0.1478 0.58195 0.66069 0.0
C1253 C 0.15341 0.57356 0.6396 0.0
C1254 C 0.15149 0.58266 0.61736 0.0
C1255 C 0.14377 0.59999 0.61596 0.0
C1256 C 0.13787 0.6082 0.63681 0.0
C1257 C 0.13981 0.5992 0.65911 0.0
H1258 H 0.14231 0.60702 0.59873 0.0
H1259 H 0.16221 0.52372 0.81691 0.0
H1260 H 0.58886 0.0693 0.91816 0.0
H1261 H 0.59374 0.09702 0.88518 0.0
H1262 H 0.53223 0.10279 0.91156 0.0
H1263 H 0.52765 0.07546 0.94501 0.0
H1264 H 0.5431 0.10376 0.85454 0.0
H1265 H 0.57339 0.1429 0.93231 0.0
H1266 H 0.5949 0.14714 0.97051 0.0
H1267 H 0.66074 0.16323 0.93236 0.0
H1268 H 0.63943 0.15863 0.8939 0.0
H1269 H 0.5806 0.21881 0.79867 0.0
H1270 H 0.56463 0.18676 0.8294 0.0
H1271 H 0.63489 0.18983 0.83233 0.0
H1272 H 0.65114 0.22211 0.80206 0.0
H1273 H 0.616 0.18405 0.87604 0.0
H1274 H 0.58685 0.14634 0.79862 0.0
H1275 H 0.56551 0.13993 0.75995 0.0
H1276 H 0.49783 0.11991 0.7966 0.0
H1277 H 0.51887 0.12653 0.8355 0.0
C1278 C 0.57561 0.07548 0.91624 0.0
C1279 C 0.55787 0.07029 0.93402 0.0
C1280 C 0.57852 0.09142 0.89751 0.0
C1281 C 0.56347 0.10202 0.89618 0.0
C1282 C 0.54392 0.09465 0.91233 0.0
C1283 C 0.54127 0.07903 0.93133 0.0
C1284 C 0.57106 0.12383 0.8809 0.0
C1285 C 0.55874 0.12145 0.85932 0.0
C1286 C 0.59167 0.14671 0.88718 0.0
C1287 C 0.60475 0.15017 0.91024 0.0
C1288 C 0.59239 0.14715 0.93207 0.0
C1289 C 0.60454 0.14965 0.95377 0.0
C1290 C 0.62914 0.15538 0.95386 0.0
C1291 C 0.64167 0.15875 0.93225 0.0
C1292 C 0.62957 0.15621 0.9105 0.0
C1293 C 0.59279 0.21296 0.80613 0.0
C1294 C 0.6171 0.22291 0.79771 0.0
C1295 C 0.58357 0.19452 0.82359 0.0
C1296 C 0.59842 0.18555 0.83281 0.0
C1297 C 0.62305 0.19637 0.82539 0.0
C1298 C 0.63231 0.21484 0.80803 0.0
C1299 C 0.58815 0.16416 0.84933 0.0
C1300 C 0.60009 0.16654 0.87125 0.0
C1301 C 0.56717 0.1413 0.8433 0.0
C1302 C 0.55449 0.13719 0.81995 0.0
C1303 C 0.56746 0.14074 0.79842 0.0
C1304 C 0.55541 0.13705 0.77647 0.0
C1305 C 0.53035 0.12959 0.77582 0.0
C1306 C 0.51726 0.12573 0.79713 0.0
C1307 C 0.52923 0.12944 0.81913 0.0
H1308 H 0.52105 0.12673 0.75881 0.0
H1309 H 0.63851 0.15728 0.97068 0.0
H1310 H 0.52416 0.62461 0.12165 0.0
H1311 H 0.50505 0.63041 0.08632 0.0
H1312 H 0.49661 0.56336 0.05606 0.0
H1313 H 0.51502 0.55694 0.09236 0.0
H1314 H 0.51467 0.63759 0.04201 0.0
H1315 H 0.44255 0.53545 0.02361 0.0
H1316 H 0.42016 0.49625 0.04573 0.0
H1317 H 0.42793 0.53576 0.11084 0.0
H1318 H 0.45006 0.57512 0.08904 0.0
H1319 H 0.45558 0.63704 0.93567 0.0
H1320 H 0.47687 0.62763 0.96672 0.0
H1321 H 0.41233 0.59917 0.01168 0.0
H1322 H 0.39032 0.60717 0.97977 0.0
H1323 H 0.43126 0.57198 0.01758 0.0
H1324 H 0.46485 0.65893 0.01878 0.0
H1325 H 0.48383 0.7009 0.00215 0.0
H1326 H 0.54762 0.69686 0.98123 0.0
H1327 H 0.52886 0.65471 -0.00255 0.0
C1328 C 0.51825 0.61108 0.10745 0.0
C1329 C 0.52055 0.59005 0.10989 0.0
C1330 C 0.50752 0.61453 0.08716 0.0
C1331 C 0.49907 0.59718 0.06863 0.0
C1332 C 0.50262 0.57678 0.07034 0.0
C1333 C 0.51328 0.57321 0.09091 0.0
C1334 C 0.48569 0.60031 0.04823 0.0
C1335 C 0.49652 0.62316 0.03654 0.0
C1336 C 0.46168 0.58179 0.04156 0.0
C1337 C 0.44822 0.5582 0.05475 0.0
C1338 C 0.43942 0.53574 0.04264 0.0
C1339 C 0.42678 0.5135 0.05512 0.0
C1340 C 0.42271 0.51352 0.07969 0.0
C1341 C 0.43118 0.53577 0.09183 0.0
C1342 C 0.44379 0.55803 0.07943 0.0
C1343 C 0.44594 0.62884 0.95222 0.0
C1344 C 0.42143 0.62316 0.95551 0.0
C1345 C 0.45816 0.6235 0.96999 0.0
C1346 C 0.44647 0.61323 0.99183 0.0
C1347 C 0.42179 0.60717 0.99502 0.0
C1348 C 0.40928 0.61187 0.97689 0.0
C1349 C 0.46022 0.60932 0.0114 0.0
C1350 C 0.44951 0.58633 0.02287 0.0
C1351 C 0.48389 0.62814 0.01872 0.0
C1352 C 0.49534 0.65357 0.00912 0.0
C1353 C 0.48286 0.66694 0.0105 0.0
C1354 C 0.49358 0.69076 0.00116 0.0
C1355 C 0.51689 0.70152 0.99058 0.0
C1356 C 0.52955 0.68849 0.9894 0.0
C1357 C 0.51889 0.66464 -0.00132 0.0
H1358 H 0.52515 0.71996 0.98335 0.0
H1359 H 0.41294 0.49629 0.08932 0.0
H1360 H 0.9661 0.53526 0.25354 0.0
H1361 H 0.93836 0.51191 0.22078 0.0
H1362 H 0.92408 0.4441 0.25418 0.0
H1363 H 0.95178 0.46739 0.28706 0.0
H1364 H 0.92851 0.47406 0.18753 0.0
H1365 H 0.86056 0.40775 0.2564 0.0
H1366 H 0.85471 0.40453 0.30017 0.0
H1367 H 0.889 0.4831 0.30541 0.0
H1368 H 0.89462 0.48676 0.26159 0.0
H1369 H 0.81737 0.37945 0.13386 0.0
H1370 H 0.85093 0.39753 0.16308 0.0
H1371 H 0.83168 0.45266 0.18049 0.0
H1372 H 0.79844 0.43513 0.15078 0.0
H1373 H 0.84403 0.42764 0.2215 0.0
H1374 H 0.8734 0.47256 0.14633 0.0
H1375 H 0.88006 0.4748 0.10272 0.0
H1376 H 0.92293 0.43914 0.11036 0.0
H1377 H 0.91617 0.43634 0.15403 0.0
C1378 C 0.95801 0.51544 0.25331 0.0
C1379 C 0.96082 0.50308 0.27294 0.0
C1380 C 0.94204 0.50211 0.23464 0.0
C1381 C 0.92873 0.4763 0.23543 0.0
C1382 C 0.93391 0.46401 0.25348 0.0
C1383 C 0.94981 0.47732 0.27216 0.0
C1384 C 0.9069 0.46264 0.21984 0.0
C1385 C 0.91008 0.46378 0.19496 0.0
C1386 C 0.8828 0.44941 0.22957 0.0
C1387 C 0.87827 0.44752 0.25575 0.0
C1388 C 0.86666 0.42432 0.26687 0.0
C1389 C 0.86341 0.42242 0.29167 0.0
C1390 C 0.87164 0.4436 0.30555 0.0
C1391 C 0.88274 0.46672 0.29462 0.0
C1392 C 0.88595 0.46872 0.2698 0.0
C1393 C 0.81993 0.39512 0.14423 0.0
C1394 C 0.8053 0.40592 0.13999 0.0
C1395 C 0.83917 0.40546 0.16083 0.0
C1396 C 0.84377 0.42645 0.17375 0.0
C1397 C 0.82833 0.43643 0.17062 0.0
C1398 C 0.8094 0.42642 0.15366 0.0
C1399 C 0.86571 0.43899 0.18928 0.0
C1400 C 0.8625 0.43771 0.21413 0.0
C1401 C 0.88974 0.45206 0.17955 0.0
C1402 C 0.89404 0.45398 0.15338 0.0
C1403 C 0.88404 0.46499 0.13868 0.0
C1404 C 0.88788 0.4664 0.11396 0.0
C1405 C 0.90185 0.45705 0.10376 0.0
C1406 C 0.91208 0.44633 0.11828 0.0
C1407 C 0.90826 0.44484 0.14301 0.0
H1408 H 0.9048 0.45816 0.08462 0.0
H1409 H 0.86946 0.44204 0.32476 0.0
loop_
_geom_bond_atom_site_label_1
_geom_bond_atom_site_label_2
_geom_bond_distance
_geom_bond_site_symmetry_2
_ccdc_geom_bond_type
H0 C8 0.930 . S
H1 C11 0.930 . S
H2 C13 0.930 . S
H3 C14 0.970 . S
H4 C14 0.970 . S
H5 C16 0.930 . S
H6 C18 0.930 . S
H7 C20 0.930 . S
C8 H0 0.930 . S
C8 C9 1.382 . S
C8 C10 1.426 . S
C9 C8 1.382 . S
C9 C13 1.389 . S
C10 C8 1.426 . S
C10 C11 1.375 . S
C10 C14 1.532 1_655 S
C11 H1 0.930 . S
C11 C10 1.375 . S
C11 C12 1.416 . S
C12 C11 1.416 . S
C12 C13 1.371 . S
C13 H2 0.930 . S
C13 C9 1.389 . S
C13 C12 1.371 . S
C14 H3 0.970 . S
C14 H4 0.970 . S
C14 C10 1.532 1_455 S
C14 C15 1.499 . S
C15 C14 1.499 . S
C15 C16 1.370 . S
C15 C20 1.415 . S
C16 H5 0.930 . S
C16 C15 1.370 . S
C16 C17 1.407 . S
C17 C16 1.407 . S
C17 C18 1.365 . S
C18 H6 0.930 . S
C18 C17 1.365 . S
C18 C19 1.393 . S
C19 C18 1.393 . S
C19 C20 1.387 . S
C20 H7 0.930 . S
C20 C15 1.415 . S
C20 C19 1.387 . S
H21 C29 0.930 . S
H22 C32 0.930 . S
H23 C34 0.930 . S
H24 C35 0.970 . S
H25 C35 0.970 . S
H26 C37 0.930 . S
H27 C39 0.930 . S
H28 C41 0.930 . S
C29 H21 0.930 . S
C29 C30 1.382 . S
C29 C31 1.426 . S
C30 C29 1.382 . S
C30 C34 1.389 . S
C31 C29 1.426 . S
C31 C32 1.375 . S
C31 C35 1.532 1_565 S
C32 H22 0.930 . S
C32 C31 1.375 . S
C32 C33 1.416 . S
C33 C32 1.416 . S
C33 C34 1.371 . S
C34 H23 0.930 . S
C34 C30 1.389 . S
C34 C33 1.371 . S
C35 H24 0.970 . S
C35 H25 0.970 . S
C35 C31 1.532 1_545 S
C35 C36 1.499 . S
C36 C35 1.499 . S
C36 C37 1.370 . S
C36 C41 1.415 . S
C37 H26 0.930 . S
C37 C36 1.370 . S
C37 C38 1.407 . S
C38 C37 1.407 . S
C38 C39 1.365 . S
C39 H27 0.930 . S
C39 C38 1.365 . S
C39 C40 1.393 . S
C40 C39 1.393 . S
C40 C41 1.387 . S
C41 H28 0.930 . S
C41 C36 1.415 . S
C41 C40 1.387 . S
H42 C50 0.930 . S
H43 C53 0.930 . S
H44 C55 0.930 . S
H45 C56 0.970 . S
H46 C56 0.970 . S
H47 C58 0.930 . S
H48 C60 0.930 . S
H49 C62 0.930 . S
C50 H42 0.930 . S
C50 C51 1.382 . S
C50 C52 1.426 . S
C51 C50 1.382 . S
C51 C55 1.389 . S
C52 C50 1.426 . S
C52 C53 1.375 . S
C52 C56 1.532 . S
C53 H43 0.930 . S
C53 C52 1.375 . S
C53 C54 1.416 . S
C54 C53 1.416 . S
C54 C55 1.371 . S
C55 H44 0.930 . S
C55 C51 1.389 . S
C55 C54 1.371 . S
C56 H45 0.970 . S
C56 H46 0.970 . S
C56 C52 1.532 . S
C56 C57 1.499 . S
C57 C56 1.499 . S
C57 C58 1.370 . S
C57 C62 1.415 . S
C58 H47 0.930 . S
C58 C57 1.370 . S
C58 C59 1.407 . S
C59 C58 1.407 . S
C59 C60 1.365 . S
C60 H48 0.930 . S
C60 C59 1.365 . S
C60 C61 1.393 . S
C61 C60 1.393 . S
C61 C62 1.387 . S
C62 H49 0.930 . S
C62 C57 1.415 . S
C62 C61 1.387 . S
H63 C71 0.930 . S
H64 C74 0.930 . S
H65 C76 0.930 . S
H66 C77 0.970 . S
H67 C77 0.970 . S
H68 C79 0.930 . S
H69 C81 0.930 . S
H70 C83 0.930 . S
C71 H63 0.930 . S
C71 C72 1.382 . S
C71 C73 1.426 . S
C72 C71 1.382 . S
C72 C76 1.389 . S
C73 C71 1.426 . S
C73 C74 1.375 . S
C73 C77 1.532 1_655 S
C74 H64 0.930 . S
C74 C73 1.375 . S
C74 C75 1.416 . S
C75 C74 1.416 . S
C75 C76 1.371 . S
C76 H65 0.930 . S
C76 C72 1.389 . S
C76 C75 1.371 . S
C77 H66 0.970 . S
C77 H67 0.970 . S
C77 C73 1.532 1_455 S
C77 C78 1.499 . S
C78 C77 1.499 . S
C78 C79 1.370 . S
C78 C83 1.415 . S
C79 H68 0.930 . S
C79 C78 1.370 . S
C79 C80 1.407 . S
C80 C79 1.407 . S
C80 C81 1.365 . S
C81 H69 0.930 . S
C81 C80 1.365 . S
C81 C82 1.393 . S
C82 C81 1.393 . S
C82 C83 1.387 . S
C83 H70 0.930 . S
C83 C78 1.415 . S
C83 C82 1.387 . S
H84 C92 0.930 . S
H85 C95 0.930 . S
H86 C97 0.930 . S
H87 C98 0.970 1_554 S
H88 C98 0.970 . S
H89 C100 0.930 . S
H90 C102 0.930 . S
H91 C104 0.930 . S
C92 H84 0.930 . S
C92 C93 1.382 1_554 S
C92 C94 1.426 1_554 S
C93 C92 1.382 1_556 S
C93 C97 1.389 . S
C94 C92 1.426 1_556 S
C94 C95 1.375 . S
C94 C98 1.532 . S
C95 H85 0.930 . S
C95 C94 1.375 . S
C95 C96 1.416 . S
C96 C95 1.416 . S
C96 C97 1.371 . S
C97 H86 0.930 . S
C97 C93 1.389 . S
C97 C96 1.371 . S
C98 H87 0.970 1_556 S
C98 H88 0.970 . S
C98 C94 1.532 . S
C98 C99 1.499 1_545 S
C99 C98 1.499 1_565 S
C99 C100 1.370 1_556 S
C99 C104 1.415 . S
C100 H89 0.930 . S
C100 C99 1.370 1_554 S
C100 C101 1.407 . S
C101 C100 1.407 . S
C101 C102 1.365 . S
C102 H90 0.930 . S
C102 C101 1.365 . S
C102 C103 1.393 1_554 S
C103 C102 1.393 1_556 S
C103 C104 1.387 . S
C104 H91 0.930 . S
C104 C99 1.415 . S
C104 C103 1.387 . S
H105 C113 0.930 . S
H106 C116 0.930 . S
H107 C118 0.930 . S
H108 C119 0.970 . S
H109 C119 0.970 . S
H110 C121 0.930 . S
H111 C123 0.930 . S
H112 C125 0.930 . S
C113 H105 0.930 . S
C113 C114 1.382 . S
C113 C115 1.426 . S
C114 C113 1.382 . S
C114 C118 1.389 . S
C115 C113 1.426 . S
C115 C116 1.375 . S
C115 C119 1.532 . S
C116 H106 0.930 . S
C116 C115 1.375 . S
C116 C117 1.416 . S
C117 C116 1.416 . S
C117 C118 1.371 . S
C118 H107 0.930 . S
C118 C114 1.389 . S
C118 C117 1.371 . S
C119 H108 0.970 . S
C119 H109 0.970 . S
C119 C115 1.532 . S
C119 C120 1.499 . S
C120 C119 1.499 . S
C120 C121 1.370 . S
C120 C125 1.415 . S
C121 H110 0.930 . S
C121 C120 1.370 . S
C121 C122 1.407 . S
C122 C121 1.407 . S
C122 C123 1.365 . S
C123 H111 0.930 . S
C123 C122 1.365 . S
C123 C124 1.393 . S
C124 C123 1.393 . S
C124 C125 1.387 . S
C125 H112 0.930 . S
C125 C120 1.415 . S
C125 C124 1.387 . S
O126 Cd127 2.223 . S
O126 C134 1.315 . S
Cd127 O126 2.223 . S
Cd127 O130 2.297 . S
Cd127 O131 2.439 . S
Cd127 O137 2.240 . S
Cd128 O129 2.240 . S
Cd128 O136 2.223 . S
Cd128 O138 2.297 . S
Cd128 O139 2.439 . S
O129 Cd128 2.240 . S
O129 C134 1.279 . S
O130 Cd127 2.297 . S
O130 C132 1.247 . S
O131 Cd127 2.439 . S
O131 C132 1.208 . S
C132 O130 1.247 . S
C132 O131 1.208 . S
C133 O138 1.247 . S
C133 O139 1.208 . S
C134 O126 1.315 . S
C134 O129 1.279 . S
C135 O136 1.315 . S
C135 O137 1.279 . S
O136 Cd128 2.223 . S
O136 C135 1.315 . S
O137 Cd127 2.240 . S
O137 C135 1.279 . S
O138 Cd128 2.297 . S
O138 C133 1.247 . S
O139 Cd128 2.439 . S
O139 C133 1.208 . S
O140 Cd141 2.223 . S
O140 C148 1.315 . S
Cd141 O140 2.223 . S
Cd141 O144 2.297 . S
Cd141 O145 2.439 . S
Cd141 O151 2.240 . S
Cd142 O143 2.240 . S
Cd142 O150 2.223 . S
Cd142 O152 2.297 . S
Cd142 O153 2.439 . S
O143 Cd142 2.240 . S
O143 C148 1.279 . S
O144 Cd141 2.297 . S
O144 C146 1.247 . S
O145 Cd141 2.439 . S
O145 C146 1.208 . S
C146 O144 1.247 . S
C146 O145 1.208 . S
C147 O152 1.247 . S
C147 O153 1.208 . S
C148 O140 1.315 . S
C148 O143 1.279 . S
C149 O150 1.315 . S
C149 O151 1.279 . S
O150 Cd142 2.223 . S
O150 C149 1.315 . S
O151 Cd141 2.240 . S
O151 C149 1.279 . S
O152 Cd142 2.297 . S
O152 C147 1.247 . S
O153 Cd142 2.439 . S
O153 C147 1.208 . S
O154 Cd155 2.223 . S
O154 C162 1.315 . S
Cd155 O154 2.223 . S
Cd155 O158 2.297 . S
Cd155 O159 2.439 . S
Cd155 O165 2.240 . S
Cd156 O157 2.240 . S
Cd156 O164 2.223 . S
Cd156 O166 2.297 . S
Cd156 O167 2.439 . S
O157 Cd156 2.240 . S
O157 C162 1.279 . S
O158 Cd155 2.297 . S
O158 C160 1.247 . S
O159 Cd155 2.439 . S
O159 C160 1.208 . S
C160 O158 1.247 . S
C160 O159 1.208 . S
C161 O166 1.247 . S
C161 O167 1.208 . S
C162 O154 1.315 . S
C162 O157 1.279 . S
C163 O164 1.315 . S
C163 O165 1.279 . S
O164 Cd156 2.223 . S
O164 C163 1.315 . S
O165 Cd155 2.240 . S
O165 C163 1.279 . S
O166 Cd156 2.297 . S
O166 C161 1.247 . S
O167 Cd156 2.439 . S
O167 C161 1.208 . S
O168 Cd169 2.223 . S
O168 C176 1.315 . S
Cd169 O168 2.223 . S
Cd169 O172 2.297 . S
Cd169 O173 2.439 . S
Cd169 O179 2.240 . S
Cd170 O171 2.240 . S
Cd170 O178 2.223 . S
Cd170 O180 2.297 . S
Cd170 O181 2.439 . S
O171 Cd170 2.240 . S
O171 C176 1.279 . S
O172 Cd169 2.297 . S
O172 C174 1.247 . S
O173 Cd169 2.439 . S
O173 C174 1.208 . S
C174 O172 1.247 . S
C174 O173 1.208 . S
C175 O180 1.247 . S
C175 O181 1.208 . S
C176 O168 1.315 . S
C176 O171 1.279 . S
C177 O178 1.315 . S
C177 O179 1.279 . S
O178 Cd170 2.223 . S
O178 C177 1.315 . S
O179 Cd169 2.240 . S
O179 C177 1.279 . S
O180 Cd170 2.297 . S
O180 C175 1.247 . S
O181 Cd170 2.439 . S
O181 C175 1.208 . S
O182 Cd183 2.223 . S
O182 C190 1.315 . S
Cd183 O182 2.223 . S
Cd183 O186 2.297 . S
Cd183 O187 2.439 . S
Cd183 O193 2.240 . S
Cd184 O185 2.240 . S
Cd184 O192 2.223 . S
Cd184 O194 2.297 . S
Cd184 O195 2.439 . S
O185 Cd184 2.240 . S
O185 C190 1.279 . S
O186 Cd183 2.297 . S
O186 C188 1.247 . S
O187 Cd183 2.439 . S
O187 C188 1.208 . S
C188 O186 1.247 . S
C188 O187 1.208 . S
C189 O194 1.247 . S
C189 O195 1.208 . S
C190 O182 1.315 . S
C190 O185 1.279 . S
C191 O192 1.315 . S
C191 O193 1.279 . S
O192 Cd184 2.223 . S
O192 C191 1.315 . S
O193 Cd183 2.240 . S
O193 C191 1.279 . S
O194 Cd184 2.297 . S
O194 C189 1.247 . S
O195 Cd184 2.439 . S
O195 C189 1.208 . S
O196 Cd197 2.223 . S
O196 C204 1.315 . S
Cd197 O196 2.223 . S
Cd197 O200 2.297 . S
Cd197 O201 2.439 . S
Cd197 O207 2.240 . S
Cd198 O199 2.240 . S
Cd198 O206 2.223 . S
Cd198 O208 2.297 . S
Cd198 O209 2.439 . S
O199 Cd198 2.240 . S
O199 C204 1.279 . S
O200 Cd197 2.297 . S
O200 C202 1.247 . S
O201 Cd197 2.439 . S
O201 C202 1.208 . S
C202 O200 1.247 . S
C202 O201 1.208 . S
C203 O208 1.247 . S
C203 O209 1.208 . S
C204 O196 1.315 . S
C204 O199 1.279 . S
C205 O206 1.315 . S
C205 O207 1.279 . S
O206 Cd198 2.223 . S
O206 C205 1.315 . S
O207 Cd197 2.240 . S
O207 C205 1.279 . S
O208 Cd198 2.297 . S
O208 C203 1.247 . S
O209 Cd198 2.439 . S
O209 C203 1.208 . S
H210 C228 0.951 . S
H211 C230 0.951 . S
H212 C232 0.950 . S
H213 C233 0.950 . S
H214 C235 0.950 . S
H215 C238 0.950 . S
H216 C239 0.950 . S
H217 C241 0.950 . S
H218 C242 0.950 . S
H219 C243 0.951 . S
H220 C245 0.951 . S
H221 C247 0.950 . S
H222 C248 0.950 . S
H223 C250 0.950 . S
H224 C253 0.950 . S
H225 C254 0.950 . S
H226 C256 0.950 . S
H227 C257 0.950 . S
C228 H210 0.951 . S
C228 C229 1.366 . S
C228 C230 1.388 . S
C229 C228 1.366 . S
C229 C233 1.385 . S
C230 H211 0.951 . S
C230 C228 1.388 . S
C230 C231 1.366 . S
C231 C230 1.366 . S
C231 C232 1.414 . S
C231 C234 1.499 . S
C232 H212 0.950 . S
C232 C231 1.414 . S
C232 C233 1.374 . S
C233 H213 0.950 . S
C233 C229 1.385 . S
C233 C232 1.374 . S
C234 C231 1.499 . S
C234 C235 1.373 . S
C234 C236 1.389 . S
C235 H214 0.950 . S
C235 C234 1.373 . S
C235 C251 1.377 . S
C236 C234 1.389 . S
C236 C237 1.524 . S
C236 C250 1.377 . S
C237 C236 1.524 . S
C237 C238 1.397 . S
C237 C242 1.363 . S
C238 H215 0.950 . S
C238 C237 1.397 . S
C238 C239 1.334 . S
C239 H216 0.950 . S
C239 C238 1.334 . S
C239 C240 1.287 . S
C240 C239 1.287 . S
C240 C241 1.524 . S
C240 H259 0.913 . S
C241 H217 0.950 . S
C241 C240 1.524 . S
C241 C242 1.415 . S
C242 H218 0.950 . S
C242 C237 1.363 . S
C242 C241 1.415 . S
C243 H219 0.951 . S
C243 C244 1.366 . S
C243 C245 1.388 . S
C244 C243 1.366 . S
C244 C248 1.385 . S
C245 H220 0.951 . S
C245 C243 1.388 . S
C245 C246 1.366 . S
C246 C245 1.366 . S
C246 C247 1.414 . S
C246 C249 1.499 . S
C247 H221 0.950 . S
C247 C246 1.414 . S
C247 C248 1.374 . S
C248 H222 0.950 . S
C248 C244 1.385 . S
C248 C247 1.374 . S
C249 C246 1.499 . S
C249 C250 1.373 . S
C249 C251 1.389 . S
C250 H223 0.950 . S
C250 C236 1.377 . S
C250 C249 1.373 . S
C251 C235 1.377 . S
C251 C249 1.389 . S
C251 C252 1.524 . S
C252 C251 1.524 . S
C252 C253 1.397 . S
C252 C257 1.363 . S
C253 H224 0.950 . S
C253 C252 1.397 . S
C253 C254 1.334 . S
C254 H225 0.950 . S
C254 C253 1.334 . S
C254 C255 1.287 . S
C255 C254 1.287 . S
C255 C256 1.524 . S
C255 H258 0.999 . S
C256 H226 0.950 . S
C256 C255 1.524 . S
C256 C257 1.415 . S
C257 H227 0.950 . S
C257 C252 1.363 . S
C257 C256 1.415 . S
H258 C255 0.999 . S
H259 C240 0.913 . S
H260 C278 0.951 . S
H261 C280 0.951 . S
H262 C282 0.950 . S
H263 C283 0.950 . S
H264 C285 0.950 . S
H265 C288 0.950 . S
H266 C289 0.950 . S
H267 C291 0.950 . S
H268 C292 0.950 . S
H269 C293 0.951 . S
H270 C295 0.951 . S
H271 C297 0.950 . S
H272 C298 0.950 . S
H273 C300 0.950 . S
H274 C303 0.950 . S
H275 C304 0.950 . S
H276 C306 0.950 . S
H277 C307 0.950 . S
C278 H260 0.951 . S
C278 C279 1.366 . S
C278 C280 1.388 . S
C279 C278 1.366 . S
C279 C283 1.385 . S
C280 H261 0.951 . S
C280 C278 1.388 . S
C280 C281 1.366 . S
C281 C280 1.366 . S
C281 C282 1.414 . S
C281 C284 1.499 . S
C282 H262 0.950 . S
C282 C281 1.414 . S
C282 C283 1.374 . S
C283 H263 0.950 . S
C283 C279 1.385 . S
C283 C282 1.374 . S
C284 C281 1.499 . S
C284 C285 1.373 . S
C284 C286 1.389 . S
C285 H264 0.950 . S
C285 C284 1.373 . S
C285 C301 1.377 . S
C286 C284 1.389 . S
C286 C287 1.524 . S
C286 C300 1.377 . S
C287 C286 1.524 . S
C287 C288 1.397 . S
C287 C292 1.363 . S
C288 H265 0.950 . S
C288 C287 1.397 . S
C288 C289 1.334 . S
C289 H266 0.950 . S
C289 C288 1.334 . S
C289 C290 1.287 . S
C290 C289 1.287 . S
C290 C291 1.524 . S
C290 H309 0.913 . S
C291 H267 0.950 . S
C291 C290 1.524 . S
C291 C292 1.415 . S
C292 H268 0.950 . S
C292 C287 1.363 . S
C292 C291 1.415 . S
C293 H269 0.951 . S
C293 C294 1.366 . S
C293 C295 1.388 . S
C294 C293 1.366 . S
C294 C298 1.385 . S
C295 H270 0.951 . S
C295 C293 1.388 . S
C295 C296 1.366 . S
C296 C295 1.366 . S
C296 C297 1.414 . S
C296 C299 1.499 . S
C297 H271 0.950 . S
C297 C296 1.414 . S
C297 C298 1.374 . S
C298 H272 0.950 . S
C298 C294 1.385 . S
C298 C297 1.374 . S
C299 C296 1.499 . S
C299 C300 1.373 . S
C299 C301 1.389 . S
C300 H273 0.950 . S
C300 C286 1.377 . S
C300 C299 1.373 . S
C301 C285 1.377 . S
C301 C299 1.389 . S
C301 C302 1.524 . S
C302 C301 1.524 . S
C302 C303 1.397 . S
C302 C307 1.363 . S
C303 H274 0.950 . S
C303 C302 1.397 . S
C303 C304 1.334 . S
C304 H275 0.950 . S
C304 C303 1.334 . S
C304 C305 1.287 . S
C305 C304 1.287 . S
C305 C306 1.524 . S
C305 H308 0.999 . S
C306 H276 0.950 . S
C306 C305 1.524 . S
C306 C307 1.415 . S
C307 H277 0.950 . S
C307 C302 1.363 . S
C307 C306 1.415 . S
H308 C305 0.999 . S
H309 C290 0.913 . S
H310 C328 0.951 . S
H311 C330 0.951 . S
H312 C332 0.950 . S
H313 C333 0.950 . S
H314 C335 0.950 . S
H315 C338 0.950 . S
H316 C339 0.950 . S
H317 C341 0.950 . S
H318 C342 0.950 . S
H319 C343 0.951 . S
H320 C345 0.951 . S
H321 C347 0.950 . S
H322 C348 0.950 . S
H323 C350 0.950 . S
H324 C353 0.950 . S
H325 C354 0.950 . S
H326 C356 0.950 . S
H327 C357 0.950 . S
C328 H310 0.951 . S
C328 C329 1.366 . S
C328 C330 1.388 . S
C329 C328 1.366 . S
C329 C333 1.385 . S
C330 H311 0.951 . S
C330 C328 1.388 . S
C330 C331 1.366 . S
C331 C330 1.366 . S
C331 C332 1.414 . S
C331 C334 1.499 . S
C332 H312 0.950 . S
C332 C331 1.414 . S
C332 C333 1.374 . S
C333 H313 0.950 . S
C333 C329 1.385 . S
C333 C332 1.374 . S
C334 C331 1.499 . S
C334 C335 1.373 . S
C334 C336 1.389 . S
C335 H314 0.950 . S
C335 C334 1.373 . S
C335 C351 1.377 . S
C336 C334 1.389 . S
C336 C337 1.524 . S
C336 C350 1.377 . S
C337 C336 1.524 . S
C337 C338 1.397 . S
C337 C342 1.363 . S
C338 H315 0.950 . S
C338 C337 1.397 . S
C338 C339 1.334 . S
C339 H316 0.950 . S
C339 C338 1.334 . S
C339 C340 1.287 . S
C340 C339 1.287 . S
C340 C341 1.524 . S
C340 H359 0.913 . S
C341 H317 0.950 . S
C341 C340 1.524 . S
C341 C342 1.415 . S
C342 H318 0.950 . S
C342 C337 1.363 . S
C342 C341 1.415 . S
C343 H319 0.951 . S
C343 C344 1.366 . S
C343 C345 1.388 . S
C344 C343 1.366 . S
C344 C348 1.385 . S
C345 H320 0.951 . S
C345 C343 1.388 . S
C345 C346 1.366 . S
C346 C345 1.366 . S
C346 C347 1.414 . S
C346 C349 1.499 . S
C347 H321 0.950 . S
C347 C346 1.414 . S
C347 C348 1.374 . S
C348 H322 0.950 . S
C348 C344 1.385 . S
C348 C347 1.374 . S
C349 C346 1.499 . S
C349 C350 1.373 . S
C349 C351 1.389 . S
C350 H323 0.950 . S
C350 C336 1.377 . S
C350 C349 1.373 . S
C351 C335 1.377 . S
C351 C349 1.389 . S
C351 C352 1.524 . S
C352 C351 1.524 . S
C352 C353 1.397 . S
C352 C357 1.363 . S
C353 H324 0.950 . S
C353 C352 1.397 . S
C353 C354 1.334 . S
C354 H325 0.950 . S
C354 C353 1.334 . S
C354 C355 1.287 . S
C355 C354 1.287 . S
C355 C356 1.524 . S
C355 H358 0.999 . S
C356 H326 0.950 . S
C356 C355 1.524 . S
C356 C357 1.415 . S
C357 H327 0.950 . S
C357 C352 1.363 . S
C357 C356 1.415 . S
H358 C355 0.999 . S
H359 C340 0.913 . S
H360 C378 0.951 . S
H361 C380 0.951 . S
H362 C382 0.950 . S
H363 C383 0.950 . S
H364 C385 0.950 . S
H365 C388 0.950 . S
H366 C389 0.950 . S
H367 C391 0.950 . S
H368 C392 0.950 . S
H369 C393 0.951 . S
H370 C395 0.951 . S
H371 C397 0.950 . S
H372 C398 0.950 . S
H373 C400 0.950 . S
H374 C403 0.950 . S
H375 C404 0.950 . S
H376 C406 0.950 . S
H377 C407 0.950 . S
C378 H360 0.951 . S
C378 C379 1.366 . S
C378 C380 1.388 . S
C379 C378 1.366 . S
C379 C383 1.385 . S
C380 H361 0.951 . S
C380 C378 1.388 . S
C380 C381 1.366 . S
C381 C380 1.366 . S
C381 C382 1.414 . S
C381 C384 1.499 . S
C382 H362 0.950 . S
C382 C381 1.414 . S
C382 C383 1.374 . S
C383 H363 0.950 . S
C383 C379 1.385 . S
C383 C382 1.374 . S
C384 C381 1.499 . S
C384 C385 1.373 . S
C384 C386 1.389 . S
C385 H364 0.950 . S
C385 C384 1.373 . S
C385 C401 1.377 . S
C386 C384 1.389 . S
C386 C387 1.524 . S
C386 C400 1.377 . S
C387 C386 1.524 . S
C387 C388 1.397 . S
C387 C392 1.363 . S
C388 H365 0.950 . S
C388 C387 1.397 . S
C388 C389 1.334 . S
C389 H366 0.950 . S
C389 C388 1.334 . S
C389 C390 1.287 . S
C390 C389 1.287 . S
C390 C391 1.524 . S
C390 H409 0.913 . S
C391 H367 0.950 . S
C391 C390 1.524 . S
C391 C392 1.415 . S
C392 H368 0.950 . S
C392 C387 1.363 . S
C392 C391 1.415 . S
C393 H369 0.951 . S
C393 C394 1.366 . S
C393 C395 1.388 . S
C394 C393 1.366 . S
C394 C398 1.385 . S
C395 H370 0.951 . S
C395 C393 1.388 . S
C395 C396 1.366 . S
C396 C395 1.366 . S
C396 C397 1.414 . S
C396 C399 1.499 . S
C397 H371 0.950 . S
C397 C396 1.414 . S
C397 C398 1.374 . S
C398 H372 0.950 . S
C398 C394 1.385 . S
C398 C397 1.374 . S
C399 C396 1.499 . S
C399 C400 1.373 . S
C399 C401 1.389 . S
C400 H373 0.950 . S
C400 C386 1.377 . S
C400 C399 1.373 . S
C401 C385 1.377 . S
C401 C399 1.389 . S
C401 C402 1.524 . S
C402 C401 1.524 . S
C402 C403 1.397 . S
C402 C407 1.363 . S
C403 H374 0.950 . S
C403 C402 1.397 . S
C403 C404 1.334 . S
C404 H375 0.950 . S
C404 C403 1.334 . S
C404 C405 1.287 . S
C405 C404 1.287 . S
C405 C406 1.524 . S
C405 H408 0.999 . S
C406 H376 0.950 . S
C406 C405 1.524 . S
C406 C407 1.415 . S
C407 H377 0.950 . S
C407 C402 1.363 . S
C407 C406 1.415 . S
H408 C405 0.999 . S
H409 C390 0.913 . S
H410 C428 0.951 . S
H411 C430 0.951 . S
H412 C432 0.950 . S
H413 C433 0.950 1_554 S
H414 C435 0.950 . S
H415 C438 0.950 . S
H416 C439 0.950 . S
H417 C441 0.950 . S
H418 C442 0.950 . S
H419 C443 0.951 . S
H420 C445 0.951 . S
H421 C447 0.950 . S
H422 C448 0.950 . S
H423 C450 0.950 . S
H424 C453 0.950 . S
H425 C454 0.950 . S
H426 C456 0.950 . S
H427 C457 0.950 . S
C428 H410 0.951 . S
C428 C429 1.366 . S
C428 C430 1.388 . S
C429 C428 1.366 . S
C429 C433 1.385 . S
C430 H411 0.951 . S
C430 C428 1.388 . S
C430 C431 1.366 . S
C431 C430 1.366 . S
C431 C432 1.414 . S
C431 C434 1.499 . S
C432 H412 0.950 . S
C432 C431 1.414 . S
C432 C433 1.374 . S
C433 H413 0.950 1_556 S
C433 C429 1.385 . S
C433 C432 1.374 . S
C434 C431 1.499 . S
C434 C435 1.373 . S
C434 C436 1.389 . S
C435 H414 0.950 . S
C435 C434 1.373 . S
C435 C451 1.377 . S
C436 C434 1.389 . S
C436 C437 1.524 . S
C436 C450 1.377 . S
C437 C436 1.524 . S
C437 C438 1.397 . S
C437 C442 1.363 . S
C438 H415 0.950 . S
C438 C437 1.397 . S
C438 C439 1.334 . S
C439 H416 0.950 . S
C439 C438 1.334 . S
C439 C440 1.287 . S
C440 C439 1.287 . S
C440 C441 1.524 . S
C440 H459 0.913 . S
C441 H417 0.950 . S
C441 C440 1.524 . S
C441 C442 1.415 . S
C442 H418 0.950 . S
C442 C437 1.363 . S
C442 C441 1.415 . S
C443 H419 0.951 . S
C443 C444 1.366 . S
C443 C445 1.388 . S
C444 C443 1.366 . S
C444 C448 1.385 . S
C445 H420 0.951 . S
C445 C443 1.388 . S
C445 C446 1.366 . S
C446 C445 1.366 . S
C446 C447 1.414 . S
C446 C449 1.499 . S
C447 H421 0.950 . S
C447 C446 1.414 . S
C447 C448 1.374 . S
C448 H422 0.950 . S
C448 C444 1.385 . S
C448 C447 1.374 . S
C449 C446 1.499 . S
C449 C450 1.373 . S
C449 C451 1.389 . S
C450 H423 0.950 . S
C450 C436 1.377 . S
C450 C449 1.373 . S
C451 C435 1.377 . S
C451 C449 1.389 . S
C451 C452 1.524 . S
C452 C451 1.524 . S
C452 C453 1.397 . S
C452 C457 1.363 1_556 S
C453 H424 0.950 . S
C453 C452 1.397 . S
C453 C454 1.334 . S
C454 H425 0.950 . S
C454 C453 1.334 . S
C454 C455 1.287 1_556 S
C455 C454 1.287 1_554 S
C455 C456 1.524 . S
C455 H458 0.999 . S
C456 H426 0.950 . S
C456 C455 1.524 . S
C456 C457 1.415 . S
C457 H427 0.950 . S
C457 C452 1.363 1_554 S
C457 C456 1.415 . S
H458 C455 0.999 . S
H459 C440 0.913 . S
H460 C478 0.951 . S
H461 C480 0.951 . S
H462 C482 0.950 . S
H463 C483 0.950 . S
H464 C485 0.950 . S
H465 C488 0.950 . S
H466 C489 0.950 . S
H467 C491 0.950 . S
H468 C492 0.950 . S
H469 C493 0.951 . S
H470 C495 0.951 . S
H471 C497 0.950 . S
H472 C498 0.950 . S
H473 C500 0.950 . S
H474 C503 0.950 . S
H475 C504 0.950 . S
H476 C506 0.950 . S
H477 C507 0.950 . S
C478 H460 0.951 . S
C478 C479 1.366 . S
C478 C480 1.388 . S
C479 C478 1.366 . S
C479 C483 1.385 . S
C480 H461 0.951 . S
C480 C478 1.388 . S
C480 C481 1.366 . S
C481 C480 1.366 . S
C481 C482 1.414 . S
C481 C484 1.499 . S
C482 H462 0.950 . S
C482 C481 1.414 . S
C482 C483 1.374 . S
C483 H463 0.950 . S
C483 C479 1.385 . S
C483 C482 1.374 . S
C484 C481 1.499 . S
C484 C485 1.373 . S
C484 C486 1.389 . S
C485 H464 0.950 . S
C485 C484 1.373 . S
C485 C501 1.377 . S
C486 C484 1.389 . S
C486 C487 1.524 . S
C486 C500 1.377 . S
C487 C486 1.524 . S
C487 C488 1.397 . S
C487 C492 1.363 . S
C488 H465 0.950 . S
C488 C487 1.397 . S
C488 C489 1.334 . S
C489 H466 0.950 . S
C489 C488 1.334 . S
C489 C490 1.287 . S
C490 C489 1.287 . S
C490 C491 1.524 . S
C490 H509 0.913 . S
C491 H467 0.950 . S
C491 C490 1.524 . S
C491 C492 1.415 . S
C492 H468 0.950 . S
C492 C487 1.363 . S
C492 C491 1.415 . S
C493 H469 0.951 . S
C493 C494 1.366 . S
C493 C495 1.388 . S
C494 C493 1.366 . S
C494 C498 1.385 . S
C495 H470 0.951 . S
C495 C493 1.388 . S
C495 C496 1.366 . S
C496 C495 1.366 . S
C496 C497 1.414 . S
C496 C499 1.499 . S
C497 H471 0.950 . S
C497 C496 1.414 . S
C497 C498 1.374 . S
C498 H472 0.950 . S
C498 C494 1.385 . S
C498 C497 1.374 . S
C499 C496 1.499 . S
C499 C500 1.373 . S
C499 C501 1.389 . S
C500 H473 0.950 . S
C500 C486 1.377 . S
C500 C499 1.373 . S
C501 C485 1.377 . S
C501 C499 1.389 . S
C501 C502 1.524 . S
C502 C501 1.524 . S
C502 C503 1.397 . S
C502 C507 1.363 . S
C503 H474 0.950 . S
C503 C502 1.397 . S
C503 C504 1.334 . S
C504 H475 0.950 . S
C504 C503 1.334 . S
C504 C505 1.287 . S
C505 C504 1.287 . S
C505 C506 1.524 . S
C505 H508 0.999 . S
C506 H476 0.950 . S
C506 C505 1.524 . S
C506 C507 1.415 . S
C507 H477 0.950 . S
C507 C502 1.363 . S
C507 C506 1.415 . S
H508 C505 0.999 . S
H509 C490 0.913 . S
H510 C528 0.951 . S
H511 C530 0.951 . S
H512 C532 0.950 . S
H513 C533 0.950 . S
H514 C535 0.950 . S
H515 C538 0.950 . S
H516 C539 0.950 . S
H517 C541 0.950 . S
H518 C542 0.950 . S
H519 C543 0.951 . S
H520 C545 0.951 . S
H521 C547 0.950 . S
H522 C548 0.950 . S
H523 C550 0.950 . S
H524 C553 0.950 . S
H525 C554 0.950 . S
H526 C556 0.950 . S
H527 C557 0.950 . S
C528 H510 0.951 . S
C528 C529 1.366 . S
C528 C530 1.388 . S
C529 C528 1.366 . S
C529 C533 1.385 . S
C530 H511 0.951 . S
C530 C528 1.388 . S
C530 C531 1.366 . S
C531 C530 1.366 . S
C531 C532 1.414 . S
C531 C534 1.499 . S
C532 H512 0.950 . S
C532 C531 1.414 . S
C532 C533 1.374 . S
C533 H513 0.950 . S
C533 C529 1.385 . S
C533 C532 1.374 . S
C534 C531 1.499 . S
C534 C535 1.373 . S
C534 C536 1.389 . S
C535 H514 0.950 . S
C535 C534 1.373 . S
C535 C551 1.377 . S
C536 C534 1.389 . S
C536 C537 1.524 . S
C536 C550 1.377 . S
C537 C536 1.524 . S
C537 C538 1.397 . S
C537 C542 1.363 . S
C538 H515 0.950 . S
C538 C537 1.397 . S
C538 C539 1.334 . S
C539 H516 0.950 . S
C539 C538 1.334 . S
C539 C540 1.287 . S
C540 C539 1.287 . S
C540 C541 1.524 . S
C540 H559 0.913 . S
C541 H517 0.950 . S
C541 C540 1.524 . S
C541 C542 1.415 . S
C542 H518 0.950 . S
C542 C537 1.363 . S
C542 C541 1.415 . S
C543 H519 0.951 . S
C543 C544 1.366 . S
C543 C545 1.388 . S
C544 C543 1.366 . S
C544 C548 1.385 . S
C545 H520 0.951 . S
C545 C543 1.388 . S
C545 C546 1.366 . S
C546 C545 1.366 . S
C546 C547 1.414 . S
C546 C549 1.499 . S
C547 H521 0.950 . S
C547 C546 1.414 . S
C547 C548 1.374 . S
C548 H522 0.950 . S
C548 C544 1.385 . S
C548 C547 1.374 . S
C549 C546 1.499 . S
C549 C550 1.373 . S
C549 C551 1.389 . S
C550 H523 0.950 . S
C550 C536 1.377 . S
C550 C549 1.373 . S
C551 C535 1.377 . S
C551 C549 1.389 . S
C551 C552 1.524 . S
C552 C551 1.524 . S
C552 C553 1.397 . S
C552 C557 1.363 . S
C553 H524 0.950 . S
C553 C552 1.397 . S
C553 C554 1.334 . S
C554 H525 0.950 . S
C554 C553 1.334 . S
C554 C555 1.287 . S
C555 C554 1.287 . S
C555 C556 1.524 . S
C555 H558 0.999 . S
C556 H526 0.950 . S
C556 C555 1.524 . S
C556 C557 1.415 . S
C557 H527 0.950 . S
C557 C552 1.363 . S
C557 C556 1.415 . S
H558 C555 0.999 . S
H559 C540 0.913 . S
H560 C578 0.951 . S
H561 C580 0.951 . S
H562 C582 0.950 . S
H563 C583 0.950 . S
H564 C585 0.950 . S
H565 C588 0.950 . S
H566 C589 0.950 . S
H567 C591 0.950 . S
H568 C592 0.950 . S
H569 C593 0.951 . S
H570 C595 0.951 . S
H571 C597 0.950 . S
H572 C598 0.950 . S
H573 C600 0.950 . S
H574 C603 0.950 . S
H575 C604 0.950 . S
H576 C606 0.950 . S
H577 C607 0.950 . S
C578 H560 0.951 . S
C578 C579 1.366 . S
C578 C580 1.388 . S
C579 C578 1.366 . S
C579 C583 1.385 . S
C580 H561 0.951 . S
C580 C578 1.388 . S
C580 C581 1.366 . S
C581 C580 1.366 . S
C581 C582 1.414 . S
C581 C584 1.499 . S
C582 H562 0.950 . S
C582 C581 1.414 . S
C582 C583 1.374 . S
C583 H563 0.950 . S
C583 C579 1.385 . S
C583 C582 1.374 . S
C584 C581 1.499 . S
C584 C585 1.373 . S
C584 C586 1.389 . S
C585 H564 0.950 . S
C585 C584 1.373 . S
C585 C601 1.377 . S
C586 C584 1.389 . S
C586 C587 1.524 . S
C586 C600 1.377 . S
C587 C586 1.524 . S
C587 C588 1.397 . S
C587 C592 1.363 . S
C588 H565 0.950 . S
C588 C587 1.397 . S
C588 C589 1.334 . S
C589 H566 0.950 . S
C589 C588 1.334 . S
C589 C590 1.287 . S
C590 C589 1.287 . S
C590 C591 1.524 . S
C590 H609 0.913 . S
C591 H567 0.950 . S
C591 C590 1.524 . S
C591 C592 1.415 . S
C592 H568 0.950 . S
C592 C587 1.363 . S
C592 C591 1.415 . S
C593 H569 0.951 . S
C593 C594 1.366 . S
C593 C595 1.388 . S
C594 C593 1.366 . S
C594 C598 1.385 . S
C595 H570 0.951 . S
C595 C593 1.388 . S
C595 C596 1.366 . S
C596 C595 1.366 . S
C596 C597 1.414 . S
C596 C599 1.499 . S
C597 H571 0.950 . S
C597 C596 1.414 . S
C597 C598 1.374 . S
C598 H572 0.950 . S
C598 C594 1.385 . S
C598 C597 1.374 . S
C599 C596 1.499 . S
C599 C600 1.373 . S
C599 C601 1.389 . S
C600 H573 0.950 . S
C600 C586 1.377 . S
C600 C599 1.373 . S
C601 C585 1.377 . S
C601 C599 1.389 . S
C601 C602 1.524 . S
C602 C601 1.524 . S
C602 C603 1.397 . S
C602 C607 1.363 . S
C603 H574 0.950 . S
C603 C602 1.397 . S
C603 C604 1.334 . S
C604 H575 0.950 . S
C604 C603 1.334 . S
C604 C605 1.287 . S
C605 C604 1.287 . S
C605 C606 1.524 . S
C605 H608 0.999 . S
C606 H576 0.950 . S
C606 C605 1.524 . S
C606 C607 1.415 . S
C607 H577 0.950 . S
C607 C602 1.363 . S
C607 C606 1.415 . S
H608 C605 0.999 . S
H609 C590 0.913 . S
H610 C628 0.951 . S
H611 C630 0.951 . S
H612 C632 0.950 . S
H613 C633 0.950 . S
H614 C635 0.950 . S
H615 C638 0.950 . S
H616 C639 0.950 . S
H617 C641 0.950 . S
H618 C642 0.950 . S
H619 C643 0.951 . S
H620 C645 0.951 . S
H621 C647 0.950 . S
H622 C648 0.950 . S
H623 C650 0.950 . S
H624 C653 0.950 . S
H625 C654 0.950 . S
H626 C656 0.950 . S
H627 C657 0.950 . S
C628 H610 0.951 . S
C628 C629 1.366 . S
C628 C630 1.388 . S
C629 C628 1.366 . S
C629 C633 1.385 . S
C630 H611 0.951 . S
C630 C628 1.388 . S
C630 C631 1.366 . S
C631 C630 1.366 . S
C631 C632 1.414 . S
C631 C634 1.499 . S
C632 H612 0.950 . S
C632 C631 1.414 . S
C632 C633 1.374 . S
C633 H613 0.950 . S
C633 C629 1.385 . S
C633 C632 1.374 . S
C634 C631 1.499 . S
C634 C635 1.373 . S
C634 C636 1.389 . S
C635 H614 0.950 . S
C635 C634 1.373 . S
C635 C651 1.377 . S
C636 C634 1.389 . S
C636 C637 1.524 . S
C636 C650 1.377 . S
C637 C636 1.524 . S
C637 C638 1.397 . S
C637 C642 1.363 . S
C638 H615 0.950 . S
C638 C637 1.397 . S
C638 C639 1.334 . S
C639 H616 0.950 . S
C639 C638 1.334 . S
C639 C640 1.287 . S
C640 C639 1.287 . S
C640 C641 1.524 . S
C640 H659 0.913 . S
C641 H617 0.950 . S
C641 C640 1.524 . S
C641 C642 1.415 . S
C642 H618 0.950 . S
C642 C637 1.363 . S
C642 C641 1.415 . S
C643 H619 0.951 . S
C643 C644 1.366 . S
C643 C645 1.388 . S
C644 C643 1.366 . S
C644 C648 1.385 . S
C645 H620 0.951 . S
C645 C643 1.388 . S
C645 C646 1.366 . S
C646 C645 1.366 . S
C646 C647 1.414 . S
C646 C649 1.499 . S
C647 H621 0.950 . S
C647 C646 1.414 . S
C647 C648 1.374 . S
C648 H622 0.950 . S
C648 C644 1.385 . S
C648 C647 1.374 . S
C649 C646 1.499 . S
C649 C650 1.373 . S
C649 C651 1.389 . S
C650 H623 0.950 . S
C650 C636 1.377 . S
C650 C649 1.373 . S
C651 C635 1.377 . S
C651 C649 1.389 . S
C651 C652 1.524 . S
C652 C651 1.524 . S
C652 C653 1.397 . S
C652 C657 1.363 . S
C653 H624 0.950 . S
C653 C652 1.397 . S
C653 C654 1.334 . S
C654 H625 0.950 . S
C654 C653 1.334 . S
C654 C655 1.287 . S
C655 C654 1.287 . S
C655 C656 1.524 . S
C655 H658 0.999 . S
C656 H626 0.950 . S
C656 C655 1.524 . S
C656 C657 1.415 . S
C657 H627 0.950 . S
C657 C652 1.363 . S
C657 C656 1.415 . S
H658 C655 0.999 . S
H659 C640 0.913 . S
H660 C678 0.951 . S
H661 C680 0.951 . S
H662 C682 0.950 . S
H663 C683 0.950 1_556 S
H664 C685 0.950 1_556 S
H665 C688 0.950 . S
H666 C689 0.950 . S
H667 C691 0.950 . S
H668 C692 0.950 . S
H669 C693 0.951 . S
H670 C695 0.951 . S
H671 C697 0.950 . S
H672 C698 0.950 . S
H673 C700 0.950 . S
H674 C703 0.950 . S
H675 C704 0.950 . S
H676 C706 0.950 . S
H677 C707 0.950 . S
C678 H660 0.951 . S
C678 C679 1.366 . S
C678 C680 1.388 . S
C679 C678 1.366 . S
C679 C683 1.385 . S
C680 H661 0.951 . S
C680 C678 1.388 . S
C680 C681 1.366 . S
C681 C680 1.366 . S
C681 C682 1.414 . S
C681 C684 1.499 . S
C682 H662 0.950 . S
C682 C681 1.414 . S
C682 C683 1.374 . S
C683 H663 0.950 1_554 S
C683 C679 1.385 . S
C683 C682 1.374 . S
C684 C681 1.499 . S
C684 C685 1.373 . S
C684 C686 1.389 . S
C685 H664 0.950 1_554 S
C685 C684 1.373 . S
C685 C701 1.377 . S
C686 C684 1.389 . S
C686 C687 1.524 . S
C686 C700 1.377 . S
C687 C686 1.524 . S
C687 C688 1.397 . S
C687 C692 1.363 . S
C688 H665 0.950 . S
C688 C687 1.397 . S
C688 C689 1.334 . S
C689 H666 0.950 . S
C689 C688 1.334 . S
C689 C690 1.287 . S
C690 C689 1.287 . S
C690 C691 1.524 . S
C690 H709 0.913 . S
C691 H667 0.950 . S
C691 C690 1.524 . S
C691 C692 1.415 . S
C692 H668 0.950 . S
C692 C687 1.363 . S
C692 C691 1.415 . S
C693 H669 0.951 . S
C693 C694 1.366 . S
C693 C695 1.388 . S
C694 C693 1.366 . S
C694 C698 1.385 . S
C695 H670 0.951 . S
C695 C693 1.388 . S
C695 C696 1.366 . S
C696 C695 1.366 . S
C696 C697 1.414 . S
C696 C699 1.499 . S
C697 H671 0.950 . S
C697 C696 1.414 . S
C697 C698 1.374 . S
C698 H672 0.950 . S
C698 C694 1.385 . S
C698 C697 1.374 . S
C699 C696 1.499 . S
C699 C700 1.373 . S
C699 C701 1.389 . S
C700 H673 0.950 . S
C700 C686 1.377 . S
C700 C699 1.373 . S
C701 C685 1.377 . S
C701 C699 1.389 . S
C701 C702 1.524 1_554 S
C702 C701 1.524 1_556 S
C702 C703 1.397 . S
C702 C707 1.363 . S
C703 H674 0.950 . S
C703 C702 1.397 . S
C703 C704 1.334 . S
C704 H675 0.950 . S
C704 C703 1.334 . S
C704 C705 1.287 . S
C705 C704 1.287 . S
C705 C706 1.524 . S
C705 H708 0.999 . S
C706 H676 0.950 . S
C706 C705 1.524 . S
C706 C707 1.415 . S
C707 H677 0.950 . S
C707 C702 1.363 . S
C707 C706 1.415 . S
H708 C705 0.999 . S
H709 C690 0.913 . S
H710 C728 0.951 . S
H711 C730 0.951 . S
H712 C732 0.950 . S
H713 C733 0.950 . S
H714 C735 0.950 . S
H715 C738 0.950 . S
H716 C739 0.950 . S
H717 C741 0.950 . S
H718 C742 0.950 . S
H719 C743 0.951 . S
H720 C745 0.951 . S
H721 C747 0.950 . S
H722 C748 0.950 . S
H723 C750 0.950 . S
H724 C753 0.950 . S
H725 C754 0.950 . S
H726 C756 0.950 . S
H727 C757 0.950 . S
C728 H710 0.951 . S
C728 C729 1.366 . S
C728 C730 1.388 . S
C729 C728 1.366 . S
C729 C733 1.385 . S
C730 H711 0.951 . S
C730 C728 1.388 . S
C730 C731 1.366 . S
C731 C730 1.366 . S
C731 C732 1.414 . S
C731 C734 1.499 . S
C732 H712 0.950 . S
C732 C731 1.414 . S
C732 C733 1.374 . S
C733 H713 0.950 . S
C733 C729 1.385 . S
C733 C732 1.374 . S
C734 C731 1.499 . S
C734 C735 1.373 . S
C734 C736 1.389 . S
C735 H714 0.950 . S
C735 C734 1.373 . S
C735 C751 1.377 . S
C736 C734 1.389 . S
C736 C737 1.524 . S
C736 C750 1.377 . S
C737 C736 1.524 . S
C737 C738 1.397 . S
C737 C742 1.363 . S
C738 H715 0.950 . S
C738 C737 1.397 . S
C738 C739 1.334 . S
C739 H716 0.950 . S
C739 C738 1.334 . S
C739 C740 1.287 . S
C740 C739 1.287 . S
C740 C741 1.524 . S
C740 H759 0.913 . S
C741 H717 0.950 . S
C741 C740 1.524 . S
C741 C742 1.415 . S
C742 H718 0.950 . S
C742 C737 1.363 . S
C742 C741 1.415 . S
C743 H719 0.951 . S
C743 C744 1.366 . S
C743 C745 1.388 . S
C744 C743 1.366 . S
C744 C748 1.385 . S
C745 H720 0.951 . S
C745 C743 1.388 . S
C745 C746 1.366 . S
C746 C745 1.366 . S
C746 C747 1.414 . S
C746 C749 1.499 . S
C747 H721 0.950 . S
C747 C746 1.414 . S
C747 C748 1.374 . S
C748 H722 0.950 . S
C748 C744 1.385 . S
C748 C747 1.374 . S
C749 C746 1.499 . S
C749 C750 1.373 . S
C749 C751 1.389 . S
C750 H723 0.950 . S
C750 C736 1.377 . S
C750 C749 1.373 . S
C751 C735 1.377 . S
C751 C749 1.389 . S
C751 C752 1.524 . S
C752 C751 1.524 . S
C752 C753 1.397 . S
C752 C757 1.363 . S
C753 H724 0.950 . S
C753 C752 1.397 . S
C753 C754 1.334 . S
C754 H725 0.950 . S
C754 C753 1.334 . S
C754 C755 1.287 . S
C755 C754 1.287 . S
C755 C756 1.524 . S
C755 H758 0.999 . S
C756 H726 0.950 . S
C756 C755 1.524 . S
C756 C757 1.415 . S
C757 H727 0.950 . S
C757 C752 1.363 . S
C757 C756 1.415 . S
H758 C755 0.999 . S
H759 C740 0.913 . S
H760 C778 0.951 . S
H761 C780 0.951 . S
H762 C782 0.950 . S
H763 C783 0.950 . S
H764 C785 0.950 . S
H765 C788 0.950 . S
H766 C789 0.950 . S
H767 C791 0.950 . S
H768 C792 0.950 . S
H769 C793 0.951 . S
H770 C795 0.951 . S
H771 C797 0.950 . S
H772 C798 0.950 . S
H773 C800 0.950 . S
H774 C803 0.950 . S
H775 C804 0.950 . S
H776 C806 0.950 . S
H777 C807 0.950 . S
C778 H760 0.951 . S
C778 C779 1.366 . S
C778 C780 1.388 . S
C779 C778 1.366 . S
C779 C783 1.385 . S
C780 H761 0.951 . S
C780 C778 1.388 . S
C780 C781 1.366 . S
C781 C780 1.366 . S
C781 C782 1.414 . S
C781 C784 1.499 . S
C782 H762 0.950 . S
C782 C781 1.414 . S
C782 C783 1.374 . S
C783 H763 0.950 . S
C783 C779 1.385 . S
C783 C782 1.374 . S
C784 C781 1.499 . S
C784 C785 1.373 . S
C784 C786 1.389 . S
C785 H764 0.950 . S
C785 C784 1.373 . S
C785 C801 1.377 . S
C786 C784 1.389 . S
C786 C787 1.524 . S
C786 C800 1.377 . S
C787 C786 1.524 . S
C787 C788 1.397 . S
C787 C792 1.363 . S
C788 H765 0.950 . S
C788 C787 1.397 . S
C788 C789 1.334 . S
C789 H766 0.950 . S
C789 C788 1.334 . S
C789 C790 1.287 . S
C790 C789 1.287 . S
C790 C791 1.524 . S
C790 H809 0.913 . S
C791 H767 0.950 . S
C791 C790 1.524 . S
C791 C792 1.415 . S
C792 H768 0.950 . S
C792 C787 1.363 . S
C792 C791 1.415 . S
C793 H769 0.951 . S
C793 C794 1.366 . S
C793 C795 1.388 . S
C794 C793 1.366 . S
C794 C798 1.385 . S
C795 H770 0.951 . S
C795 C793 1.388 . S
C795 C796 1.366 . S
C796 C795 1.366 . S
C796 C797 1.414 . S
C796 C799 1.499 . S
C797 H771 0.950 . S
C797 C796 1.414 . S
C797 C798 1.374 . S
C798 H772 0.950 . S
C798 C794 1.385 . S
C798 C797 1.374 . S
C799 C796 1.499 . S
C799 C800 1.373 . S
C799 C801 1.389 . S
C800 H773 0.950 . S
C800 C786 1.377 . S
C800 C799 1.373 . S
C801 C785 1.377 . S
C801 C799 1.389 . S
C801 C802 1.524 . S
C802 C801 1.524 . S
C802 C803 1.397 . S
C802 C807 1.363 . S
C803 H774 0.950 . S
C803 C802 1.397 . S
C803 C804 1.334 . S
C804 H775 0.950 . S
C804 C803 1.334 . S
C804 C805 1.287 . S
C805 C804 1.287 . S
C805 C806 1.524 . S
C805 H808 0.999 . S
C806 H776 0.950 . S
C806 C805 1.524 . S
C806 C807 1.415 . S
C807 H777 0.950 . S
C807 C802 1.363 . S
C807 C806 1.415 . S
H808 C805 0.999 . S
H809 C790 0.913 . S
H810 C828 0.951 . S
H811 C830 0.951 . S
H812 C832 0.950 . S
H813 C833 0.950 . S
H814 C835 0.950 . S
H815 C838 0.950 . S
H816 C839 0.950 . S
H817 C841 0.950 . S
H818 C842 0.950 . S
H819 C843 0.951 . S
H820 C845 0.951 . S
H821 C847 0.950 . S
H822 C848 0.950 . S
H823 C850 0.950 . S
H824 C853 0.950 . S
H825 C854 0.950 . S
H826 C856 0.950 . S
H827 C857 0.950 . S
C828 H810 0.951 . S
C828 C829 1.366 . S
C828 C830 1.388 . S
C829 C828 1.366 . S
C829 C833 1.385 . S
C830 H811 0.951 . S
C830 C828 1.388 . S
C830 C831 1.366 . S
C831 C830 1.366 . S
C831 C832 1.414 . S
C831 C834 1.499 . S
C832 H812 0.950 . S
C832 C831 1.414 . S
C832 C833 1.374 . S
C833 H813 0.950 . S
C833 C829 1.385 . S
C833 C832 1.374 . S
C834 C831 1.499 . S
C834 C835 1.373 . S
C834 C836 1.389 . S
C835 H814 0.950 . S
C835 C834 1.373 . S
C835 C851 1.377 . S
C836 C834 1.389 . S
C836 C837 1.524 . S
C836 C850 1.377 . S
C837 C836 1.524 . S
C837 C838 1.397 . S
C837 C842 1.363 . S
C838 H815 0.950 . S
C838 C837 1.397 . S
C838 C839 1.334 . S
C839 H816 0.950 . S
C839 C838 1.334 . S
C839 C840 1.287 . S
C840 C839 1.287 . S
C840 C841 1.524 . S
C840 H859 0.913 . S
C841 H817 0.950 . S
C841 C840 1.524 . S
C841 C842 1.415 . S
C842 H818 0.950 . S
C842 C837 1.363 . S
C842 C841 1.415 . S
C843 H819 0.951 . S
C843 C844 1.366 . S
C843 C845 1.388 . S
C844 C843 1.366 . S
C844 C848 1.385 . S
C845 H820 0.951 . S
C845 C843 1.388 . S
C845 C846 1.366 . S
C846 C845 1.366 . S
C846 C847 1.414 . S
C846 C849 1.499 . S
C847 H821 0.950 . S
C847 C846 1.414 . S
C847 C848 1.374 . S
C848 H822 0.950 . S
C848 C844 1.385 . S
C848 C847 1.374 . S
C849 C846 1.499 . S
C849 C850 1.373 . S
C849 C851 1.389 . S
C850 H823 0.950 . S
C850 C836 1.377 . S
C850 C849 1.373 . S
C851 C835 1.377 . S
C851 C849 1.389 . S
C851 C852 1.524 . S
C852 C851 1.524 . S
C852 C853 1.397 . S
C852 C857 1.363 . S
C853 H824 0.950 . S
C853 C852 1.397 . S
C853 C854 1.334 . S
C854 H825 0.950 . S
C854 C853 1.334 . S
C854 C855 1.287 . S
C855 C854 1.287 . S
C855 C856 1.524 . S
C855 H858 0.999 . S
C856 H826 0.950 . S
C856 C855 1.524 . S
C856 C857 1.415 . S
C857 H827 0.950 . S
C857 C852 1.363 . S
C857 C856 1.415 . S
H858 C855 0.999 . S
H859 C840 0.913 . S
H860 C878 0.951 . S
H861 C880 0.951 . S
H862 C882 0.950 . S
H863 C883 0.950 . S
H864 C885 0.950 . S
H865 C888 0.950 . S
H866 C889 0.950 . S
H867 C891 0.950 . S
H868 C892 0.950 . S
H869 C893 0.951 . S
H870 C895 0.951 . S
H871 C897 0.950 . S
H872 C898 0.950 . S
H873 C900 0.950 . S
H874 C903 0.950 . S
H875 C904 0.950 . S
H876 C906 0.950 . S
H877 C907 0.950 . S
C878 H860 0.951 . S
C878 C879 1.366 . S
C878 C880 1.388 . S
C879 C878 1.366 . S
C879 C883 1.385 . S
C880 H861 0.951 . S
C880 C878 1.388 . S
C880 C881 1.366 . S
C881 C880 1.366 . S
C881 C882 1.414 . S
C881 C884 1.499 . S
C882 H862 0.950 . S
C882 C881 1.414 . S
C882 C883 1.374 . S
C883 H863 0.950 . S
C883 C879 1.385 . S
C883 C882 1.374 . S
C884 C881 1.499 . S
C884 C885 1.373 . S
C884 C886 1.389 . S
C885 H864 0.950 . S
C885 C884 1.373 . S
C885 C901 1.377 . S
C886 C884 1.389 . S
C886 C887 1.524 . S
C886 C900 1.377 . S
C887 C886 1.524 . S
C887 C888 1.397 . S
C887 C892 1.363 . S
C888 H865 0.950 . S
C888 C887 1.397 . S
C888 C889 1.334 . S
C889 H866 0.950 . S
C889 C888 1.334 . S
C889 C890 1.287 . S
C890 C889 1.287 . S
C890 C891 1.524 . S
C890 H909 0.913 . S
C891 H867 0.950 . S
C891 C890 1.524 . S
C891 C892 1.415 . S
C892 H868 0.950 . S
C892 C887 1.363 . S
C892 C891 1.415 . S
C893 H869 0.951 . S
C893 C894 1.366 . S
C893 C895 1.388 . S
C894 C893 1.366 . S
C894 C898 1.385 . S
C895 H870 0.951 . S
C895 C893 1.388 . S
C895 C896 1.366 . S
C896 C895 1.366 . S
C896 C897 1.414 . S
C896 C899 1.499 . S
C897 H871 0.950 . S
C897 C896 1.414 . S
C897 C898 1.374 . S
C898 H872 0.950 . S
C898 C894 1.385 . S
C898 C897 1.374 . S
C899 C896 1.499 . S
C899 C900 1.373 . S
C899 C901 1.389 . S
C900 H873 0.950 . S
C900 C886 1.377 . S
C900 C899 1.373 . S
C901 C885 1.377 . S
C901 C899 1.389 . S
C901 C902 1.524 . S
C902 C901 1.524 . S
C902 C903 1.397 . S
C902 C907 1.363 . S
C903 H874 0.950 . S
C903 C902 1.397 . S
C903 C904 1.334 . S
C904 H875 0.950 . S
C904 C903 1.334 . S
C904 C905 1.287 . S
C905 C904 1.287 . S
C905 C906 1.524 . S
C905 H908 0.999 . S
C906 H876 0.950 . S
C906 C905 1.524 . S
C906 C907 1.415 . S
C907 H877 0.950 . S
C907 C902 1.363 . S
C907 C906 1.415 . S
H908 C905 0.999 . S
H909 C890 0.913 . S
H910 C928 0.951 . S
H911 C930 0.951 . S
H912 C932 0.950 . S
H913 C933 0.950 . S
H914 C935 0.950 . S
H915 C938 0.950 . S
H916 C939 0.950 . S
H917 C941 0.950 . S
H918 C942 0.950 . S
H919 C943 0.951 . S
H920 C945 0.951 . S
H921 C947 0.950 . S
H922 C948 0.950 . S
H923 C950 0.950 . S
H924 C953 0.950 . S
H925 C954 0.950 . S
H926 C956 0.950 . S
H927 C957 0.950 . S
C928 H910 0.951 . S
C928 C929 1.366 . S
C928 C930 1.388 . S
C929 C928 1.366 . S
C929 C933 1.385 . S
C930 H911 0.951 . S
C930 C928 1.388 . S
C930 C931 1.366 . S
C931 C930 1.366 . S
C931 C932 1.414 . S
C931 C934 1.499 . S
C932 H912 0.950 . S
C932 C931 1.414 . S
C932 C933 1.374 . S
C933 H913 0.950 . S
C933 C929 1.385 . S
C933 C932 1.374 . S
C934 C931 1.499 . S
C934 C935 1.373 . S
C934 C936 1.389 . S
C935 H914 0.950 . S
C935 C934 1.373 . S
C935 C951 1.377 . S
C936 C934 1.389 . S
C936 C937 1.524 . S
C936 C950 1.377 . S
C937 C936 1.524 . S
C937 C938 1.397 . S
C937 C942 1.363 . S
C938 H915 0.950 . S
C938 C937 1.397 . S
C938 C939 1.334 . S
C939 H916 0.950 . S
C939 C938 1.334 . S
C939 C940 1.287 . S
C940 C939 1.287 . S
C940 C941 1.524 . S
C940 H959 0.913 . S
C941 H917 0.950 . S
C941 C940 1.524 . S
C941 C942 1.415 . S
C942 H918 0.950 . S
C942 C937 1.363 . S
C942 C941 1.415 . S
C943 H919 0.951 . S
C943 C944 1.366 . S
C943 C945 1.388 . S
C944 C943 1.366 . S
C944 C948 1.385 . S
C945 H920 0.951 . S
C945 C943 1.388 . S
C945 C946 1.366 . S
C946 C945 1.366 . S
C946 C947 1.414 . S
C946 C949 1.499 . S
C947 H921 0.950 . S
C947 C946 1.414 . S
C947 C948 1.374 . S
C948 H922 0.950 . S
C948 C944 1.385 . S
C948 C947 1.374 . S
C949 C946 1.499 . S
C949 C950 1.373 . S
C949 C951 1.389 . S
C950 H923 0.950 . S
C950 C936 1.377 . S
C950 C949 1.373 . S
C951 C935 1.377 . S
C951 C949 1.389 . S
C951 C952 1.524 . S
C952 C951 1.524 . S
C952 C953 1.397 . S
C952 C957 1.363 . S
C953 H924 0.950 . S
C953 C952 1.397 . S
C953 C954 1.334 . S
C954 H925 0.950 . S
C954 C953 1.334 . S
C954 C955 1.287 . S
C955 C954 1.287 . S
C955 C956 1.524 . S
C955 H958 0.999 . S
C956 H926 0.950 . S
C956 C955 1.524 . S
C956 C957 1.415 . S
C957 H927 0.950 . S
C957 C952 1.363 . S
C957 C956 1.415 . S
H958 C955 0.999 . S
H959 C940 0.913 . S
H960 C978 0.951 . S
H961 C980 0.951 . S
H962 C982 0.950 . S
H963 C983 0.950 . S
H964 C985 0.950 . S
H965 C988 0.950 . S
H966 C989 0.950 . S
H967 C991 0.950 . S
H968 C992 0.950 . S
H969 C993 0.951 . S
H970 C995 0.951 . S
H971 C997 0.950 . S
H972 C998 0.945 1_556 S
H973 C1000 0.950 . S
H974 C1003 0.950 . S
H975 C1004 0.950 . S
H976 C1006 0.950 1_554 S
H977 C1007 0.950 . S
C978 H960 0.951 . S
C978 C979 1.366 . S
C978 C980 1.388 . S
C979 C978 1.366 . S
C979 C983 1.385 . S
C980 H961 0.951 . S
C980 C978 1.388 . S
C980 C981 1.366 . S
C981 C980 1.366 . S
C981 C982 1.414 . S
C981 C984 1.499 . S
C982 H962 0.950 . S
C982 C981 1.414 . S
C982 C983 1.374 . S
C983 H963 0.950 . S
C983 C979 1.385 . S
C983 C982 1.374 . S
C984 C981 1.499 . S
C984 C985 1.373 . S
C984 C986 1.389 . S
C985 H964 0.950 . S
C985 C984 1.373 . S
C985 C1001 1.377 . S
C986 C984 1.389 . S
C986 C987 1.524 . S
C986 C1000 1.377 . S
C987 C986 1.524 . S
C987 C988 1.397 . S
C987 C992 1.363 . S
C988 H965 0.950 . S
C988 C987 1.397 . S
C988 C989 1.334 . S
C989 H966 0.950 . S
C989 C988 1.334 . S
C989 C990 1.287 . S
C990 C989 1.287 . S
C990 C991 1.524 . S
C990 H1009 0.913 . S
C991 H967 0.950 . S
C991 C990 1.524 . S
C991 C992 1.415 . S
C992 H968 0.950 . S
C992 C987 1.363 . S
C992 C991 1.415 . S
C993 H969 0.951 . S
C993 C994 1.366 . S
C993 C995 1.388 . S
C994 C993 1.366 . S
C994 C998 1.385 . S
C995 H970 0.951 . S
C995 C993 1.388 . S
C995 C996 1.366 1_554 S
C996 C995 1.366 1_556 S
C996 C997 1.414 . S
C996 C999 1.499 . S
C997 H971 0.950 . S
C997 C996 1.414 . S
C997 C998 1.374 1_556 S
C998 H972 0.945 1_554 S
C998 C994 1.385 . S
C998 C997 1.374 1_554 S
C999 C996 1.499 . S
C999 C1000 1.373 . S
C999 C1001 1.389 . S
C1000 H973 0.950 . S
C1000 C986 1.377 . S
C1000 C999 1.373 . S
C1001 C985 1.377 . S
C1001 C999 1.389 . S
C1001 C1002 1.524 . S
C1002 C1001 1.524 . S
C1002 C1003 1.397 . S
C1002 C1007 1.363 . S
C1003 H974 0.950 . S
C1003 C1002 1.397 . S
C1003 C1004 1.334 . S
C1004 H975 0.950 . S
C1004 C1003 1.334 . S
C1004 C1005 1.287 . S
C1005 C1004 1.287 . S
C1005 C1006 1.524 . S
C1005 H1008 0.987 1_556 S
C1006 H976 0.950 1_556 S
C1006 C1005 1.524 . S
C1006 C1007 1.415 . S
C1007 H977 0.950 . S
C1007 C1002 1.363 . S
C1007 C1006 1.415 . S
H1008 C1005 0.987 1_554 S
H1009 C990 0.913 . S
H1010 C1028 0.951 . S
H1011 C1030 0.951 . S
H1012 C1032 0.950 . S
H1013 C1033 0.950 . S
H1014 C1035 0.950 . S
H1015 C1038 0.950 . S
H1016 C1039 0.950 . S
H1017 C1041 0.950 . S
H1018 C1042 0.950 . S
H1019 C1043 0.951 . S
H1020 C1045 0.951 . S
H1021 C1047 0.950 . S
H1022 C1048 0.950 . S
H1023 C1050 0.950 . S
H1024 C1053 0.950 . S
H1025 C1054 0.950 . S
H1026 C1056 0.950 . S
H1027 C1057 0.950 . S
C1028 H1010 0.951 . S
C1028 C1029 1.366 . S
C1028 C1030 1.388 . S
C1029 C1028 1.366 . S
C1029 C1033 1.385 . S
C1030 H1011 0.951 . S
C1030 C1028 1.388 . S
C1030 C1031 1.366 . S
C1031 C1030 1.366 . S
C1031 C1032 1.414 . S
C1031 C1034 1.499 . S
C1032 H1012 0.950 . S
C1032 C1031 1.414 . S
C1032 C1033 1.374 . S
C1033 H1013 0.950 . S
C1033 C1029 1.385 . S
C1033 C1032 1.374 . S
C1034 C1031 1.499 . S
C1034 C1035 1.373 . S
C1034 C1036 1.389 . S
C1035 H1014 0.950 . S
C1035 C1034 1.373 . S
C1035 C1051 1.377 . S
C1036 C1034 1.389 . S
C1036 C1037 1.524 . S
C1036 C1050 1.377 . S
C1037 C1036 1.524 . S
C1037 C1038 1.397 . S
C1037 C1042 1.363 . S
C1038 H1015 0.950 . S
C1038 C1037 1.397 . S
C1038 C1039 1.334 . S
C1039 H1016 0.950 . S
C1039 C1038 1.334 . S
C1039 C1040 1.287 . S
C1040 C1039 1.287 . S
C1040 C1041 1.524 . S
C1040 H1059 0.913 . S
C1041 H1017 0.950 . S
C1041 C1040 1.524 . S
C1041 C1042 1.415 . S
C1042 H1018 0.950 . S
C1042 C1037 1.363 . S
C1042 C1041 1.415 . S
C1043 H1019 0.951 . S
C1043 C1044 1.366 . S
C1043 C1045 1.388 . S
C1044 C1043 1.366 . S
C1044 C1048 1.385 . S
C1045 H1020 0.951 . S
C1045 C1043 1.388 . S
C1045 C1046 1.366 . S
C1046 C1045 1.366 . S
C1046 C1047 1.414 . S
C1046 C1049 1.499 . S
C1047 H1021 0.950 . S
C1047 C1046 1.414 . S
C1047 C1048 1.374 . S
C1048 H1022 0.950 . S
C1048 C1044 1.385 . S
C1048 C1047 1.374 . S
C1049 C1046 1.499 . S
C1049 C1050 1.373 . S
C1049 C1051 1.389 . S
C1050 H1023 0.950 . S
C1050 C1036 1.377 . S
C1050 C1049 1.373 . S
C1051 C1035 1.377 . S
C1051 C1049 1.389 . S
C1051 C1052 1.524 . S
C1052 C1051 1.524 . S
C1052 C1053 1.397 . S
C1052 C1057 1.363 . S
C1053 H1024 0.950 . S
C1053 C1052 1.397 . S
C1053 C1054 1.334 . S
C1054 H1025 0.950 . S
C1054 C1053 1.334 . S
C1054 C1055 1.287 . S
C1055 C1054 1.287 . S
C1055 C1056 1.524 . S
C1055 H1058 0.999 . S
C1056 H1026 0.950 . S
C1056 C1055 1.524 . S
C1056 C1057 1.415 . S
C1057 H1027 0.950 . S
C1057 C1052 1.363 . S
C1057 C1056 1.415 . S
H1058 C1055 0.999 . S
H1059 C1040 0.913 . S
H1060 C1078 0.951 . S
H1061 C1080 0.951 . S
H1062 C1082 0.950 . S
H1063 C1083 0.950 . S
H1064 C1085 0.950 . S
H1065 C1088 0.950 . S
H1066 C1089 0.950 . S
H1067 C1091 0.950 . S
H1068 C1092 0.950 . S
H1069 C1093 0.951 . S
H1070 C1095 0.951 . S
H1071 C1097 0.950 . S
H1072 C1098 0.950 . S
H1073 C1100 0.950 . S
H1074 C1103 0.950 . S
H1075 C1104 0.950 . S
H1076 C1106 0.950 . S
H1077 C1107 0.950 . S
C1078 H1060 0.951 . S
C1078 C1079 1.366 . S
C1078 C1080 1.388 . S
C1079 C1078 1.366 . S
C1079 C1083 1.385 . S
C1080 H1061 0.951 . S
C1080 C1078 1.388 . S
C1080 C1081 1.366 . S
C1081 C1080 1.366 . S
C1081 C1082 1.414 . S
C1081 C1084 1.499 . S
C1082 H1062 0.950 . S
C1082 C1081 1.414 . S
C1082 C1083 1.374 . S
C1083 H1063 0.950 . S
C1083 C1079 1.385 . S
C1083 C1082 1.374 . S
C1084 C1081 1.499 . S
C1084 C1085 1.373 . S
C1084 C1086 1.389 . S
C1085 H1064 0.950 . S
C1085 C1084 1.373 . S
C1085 C1101 1.377 . S
C1086 C1084 1.389 . S
C1086 C1087 1.524 . S
C1086 C1100 1.377 . S
C1087 C1086 1.524 . S
C1087 C1088 1.397 . S
C1087 C1092 1.363 . S
C1088 H1065 0.950 . S
C1088 C1087 1.397 . S
C1088 C1089 1.334 . S
C1089 H1066 0.950 . S
C1089 C1088 1.334 . S
C1089 C1090 1.287 . S
C1090 C1089 1.287 . S
C1090 C1091 1.524 . S
C1090 H1109 0.913 . S
C1091 H1067 0.950 . S
C1091 C1090 1.524 . S
C1091 C1092 1.415 . S
C1092 H1068 0.950 . S
C1092 C1087 1.363 . S
C1092 C1091 1.415 . S
C1093 H1069 0.951 . S
C1093 C1094 1.366 . S
C1093 C1095 1.388 . S
C1094 C1093 1.366 . S
C1094 C1098 1.385 . S
C1095 H1070 0.951 . S
C1095 C1093 1.388 . S
C1095 C1096 1.366 . S
C1096 C1095 1.366 . S
C1096 C1097 1.414 . S
C1096 C1099 1.499 . S
C1097 H1071 0.950 . S
C1097 C1096 1.414 . S
C1097 C1098 1.374 . S
C1098 H1072 0.950 . S
C1098 C1094 1.385 . S
C1098 C1097 1.374 . S
C1099 C1096 1.499 . S
C1099 C1100 1.373 . S
C1099 C1101 1.389 . S
C1100 H1073 0.950 . S
C1100 C1086 1.377 . S
C1100 C1099 1.373 . S
C1101 C1085 1.377 . S
C1101 C1099 1.389 . S
C1101 C1102 1.524 . S
C1102 C1101 1.524 . S
C1102 C1103 1.397 . S
C1102 C1107 1.363 . S
C1103 H1074 0.950 . S
C1103 C1102 1.397 . S
C1103 C1104 1.334 . S
C1104 H1075 0.950 . S
C1104 C1103 1.334 . S
C1104 C1105 1.287 . S
C1105 C1104 1.287 . S
C1105 C1106 1.524 . S
C1105 H1108 0.999 . S
C1106 H1076 0.950 . S
C1106 C1105 1.524 . S
C1106 C1107 1.415 . S
C1107 H1077 0.950 . S
C1107 C1102 1.363 . S
C1107 C1106 1.415 . S
H1108 C1105 0.999 . S
H1109 C1090 0.913 . S
H1110 C1128 0.951 . S
H1111 C1130 0.951 . S
H1112 C1132 0.950 . S
H1113 C1133 0.950 . S
H1114 C1135 0.950 . S
H1115 C1138 0.950 . S
H1116 C1139 0.950 . S
H1117 C1141 0.950 . S
H1118 C1142 0.950 . S
H1119 C1143 0.951 . S
H1120 C1145 0.951 . S
H1121 C1147 0.950 . S
H1122 C1148 0.950 . S
H1123 C1150 0.950 . S
H1124 C1153 0.950 . S
H1125 C1154 0.950 . S
H1126 C1156 0.950 . S
H1127 C1157 0.950 . S
C1128 H1110 0.951 . S
C1128 C1129 1.366 . S
C1128 C1130 1.388 . S
C1129 C1128 1.366 . S
C1129 C1133 1.385 . S
C1130 H1111 0.951 . S
C1130 C1128 1.388 . S
C1130 C1131 1.366 . S
C1131 C1130 1.366 . S
C1131 C1132 1.414 . S
C1131 C1134 1.499 . S
C1132 H1112 0.950 . S
C1132 C1131 1.414 . S
C1132 C1133 1.374 . S
C1133 H1113 0.950 . S
C1133 C1129 1.385 . S
C1133 C1132 1.374 . S
C1134 C1131 1.499 . S
C1134 C1135 1.373 . S
C1134 C1136 1.389 . S
C1135 H1114 0.950 . S
C1135 C1134 1.373 . S
C1135 C1151 1.377 . S
C1136 C1134 1.389 . S
C1136 C1137 1.524 . S
C1136 C1150 1.377 . S
C1137 C1136 1.524 . S
C1137 C1138 1.397 . S
C1137 C1142 1.363 . S
C1138 H1115 0.950 . S
C1138 C1137 1.397 . S
C1138 C1139 1.334 . S
C1139 H1116 0.950 . S
C1139 C1138 1.334 . S
C1139 C1140 1.287 . S
C1140 C1139 1.287 . S
C1140 C1141 1.524 . S
C1140 H1159 0.913 . S
C1141 H1117 0.950 . S
C1141 C1140 1.524 . S
C1141 C1142 1.415 . S
C1142 H1118 0.950 . S
C1142 C1137 1.363 . S
C1142 C1141 1.415 . S
C1143 H1119 0.951 . S
C1143 C1144 1.366 . S
C1143 C1145 1.388 . S
C1144 C1143 1.366 . S
C1144 C1148 1.385 . S
C1145 H1120 0.951 . S
C1145 C1143 1.388 . S
C1145 C1146 1.366 . S
C1146 C1145 1.366 . S
C1146 C1147 1.414 . S
C1146 C1149 1.499 . S
C1147 H1121 0.950 . S
C1147 C1146 1.414 . S
C1147 C1148 1.374 . S
C1148 H1122 0.950 . S
C1148 C1144 1.385 . S
C1148 C1147 1.374 . S
C1149 C1146 1.499 . S
C1149 C1150 1.373 . S
C1149 C1151 1.389 . S
C1150 H1123 0.950 . S
C1150 C1136 1.377 . S
C1150 C1149 1.373 . S
C1151 C1135 1.377 . S
C1151 C1149 1.389 . S
C1151 C1152 1.524 . S
C1152 C1151 1.524 . S
C1152 C1153 1.397 . S
C1152 C1157 1.363 . S
C1153 H1124 0.950 . S
C1153 C1152 1.397 . S
C1153 C1154 1.334 . S
C1154 H1125 0.950 . S
C1154 C1153 1.334 . S
C1154 C1155 1.287 . S
C1155 C1154 1.287 . S
C1155 C1156 1.524 . S
C1155 H1158 0.999 . S
C1156 H1126 0.950 . S
C1156 C1155 1.524 . S
C1156 C1157 1.415 . S
C1157 H1127 0.950 . S
C1157 C1152 1.363 . S
C1157 C1156 1.415 . S
H1158 C1155 0.999 . S
H1159 C1140 0.913 . S
H1160 C1178 0.951 . S
H1161 C1180 0.951 . S
H1162 C1182 0.950 . S
H1163 C1183 0.950 . S
H1164 C1185 0.950 . S
H1165 C1188 0.950 . S
H1166 C1189 0.950 . S
H1167 C1191 0.950 . S
H1168 C1192 0.950 . S
H1169 C1193 0.951 . S
H1170 C1195 0.951 . S
H1171 C1197 0.950 . S
H1172 C1198 0.950 . S
H1173 C1200 0.950 . S
H1174 C1203 0.950 . S
H1175 C1204 0.950 . S
H1176 C1206 0.950 . S
H1177 C1207 0.950 . S
C1178 H1160 0.951 . S
C1178 C1179 1.366 . S
C1178 C1180 1.388 . S
C1179 C1178 1.366 . S
C1179 C1183 1.385 . S
C1180 H1161 0.951 . S
C1180 C1178 1.388 . S
C1180 C1181 1.366 . S
C1181 C1180 1.366 . S
C1181 C1182 1.414 . S
C1181 C1184 1.499 . S
C1182 H1162 0.950 . S
C1182 C1181 1.414 . S
C1182 C1183 1.374 . S
C1183 H1163 0.950 . S
C1183 C1179 1.385 . S
C1183 C1182 1.374 . S
C1184 C1181 1.499 . S
C1184 C1185 1.373 . S
C1184 C1186 1.389 . S
C1185 H1164 0.950 . S
C1185 C1184 1.373 . S
C1185 C1201 1.377 . S
C1186 C1184 1.389 . S
C1186 C1187 1.524 . S
C1186 C1200 1.377 . S
C1187 C1186 1.524 . S
C1187 C1188 1.397 . S
C1187 C1192 1.363 . S
C1188 H1165 0.950 . S
C1188 C1187 1.397 . S
C1188 C1189 1.334 . S
C1189 H1166 0.950 . S
C1189 C1188 1.334 . S
C1189 C1190 1.287 . S
C1190 C1189 1.287 . S
C1190 C1191 1.524 . S
C1190 H1209 0.913 . S
C1191 H1167 0.950 . S
C1191 C1190 1.524 . S
C1191 C1192 1.415 . S
C1192 H1168 0.950 . S
C1192 C1187 1.363 . S
C1192 C1191 1.415 . S
C1193 H1169 0.951 . S
C1193 C1194 1.366 . S
C1193 C1195 1.388 . S
C1194 C1193 1.366 . S
C1194 C1198 1.385 . S
C1195 H1170 0.951 . S
C1195 C1193 1.388 . S
C1195 C1196 1.366 . S
C1196 C1195 1.366 . S
C1196 C1197 1.414 . S
C1196 C1199 1.499 . S
C1197 H1171 0.950 . S
C1197 C1196 1.414 . S
C1197 C1198 1.374 . S
C1198 H1172 0.950 . S
C1198 C1194 1.385 . S
C1198 C1197 1.374 . S
C1199 C1196 1.499 . S
C1199 C1200 1.373 . S
C1199 C1201 1.389 . S
C1200 H1173 0.950 . S
C1200 C1186 1.377 . S
C1200 C1199 1.373 . S
C1201 C1185 1.377 . S
C1201 C1199 1.389 . S
C1201 C1202 1.524 . S
C1202 C1201 1.524 . S
C1202 C1203 1.397 . S
C1202 C1207 1.363 . S
C1203 H1174 0.950 . S
C1203 C1202 1.397 . S
C1203 C1204 1.334 . S
C1204 H1175 0.950 . S
C1204 C1203 1.334 . S
C1204 C1205 1.287 . S
C1205 C1204 1.287 . S
C1205 C1206 1.524 . S
C1205 H1208 0.999 . S
C1206 H1176 0.950 . S
C1206 C1205 1.524 . S
C1206 C1207 1.415 . S
C1207 H1177 0.950 . S
C1207 C1202 1.363 . S
C1207 C1206 1.415 . S
H1208 C1205 0.999 . S
H1209 C1190 0.913 . S
H1210 C1228 0.951 . S
H1211 C1230 0.951 . S
H1212 C1232 0.950 . S
H1213 C1233 0.950 . S
H1214 C1235 0.950 . S
H1215 C1238 0.950 . S
H1216 C1239 0.950 . S
H1217 C1241 0.950 . S
H1218 C1242 0.950 . S
H1219 C1243 0.951 . S
H1220 C1245 0.951 . S
H1221 C1247 0.950 . S
H1222 C1248 0.950 . S
H1223 C1250 0.950 . S
H1224 C1253 0.950 . S
H1225 C1254 0.950 . S
H1226 C1256 0.950 . S
H1227 C1257 0.950 . S
C1228 H1210 0.951 . S
C1228 C1229 1.366 . S
C1228 C1230 1.388 . S
C1229 C1228 1.366 . S
C1229 C1233 1.385 . S
C1230 H1211 0.951 . S
C1230 C1228 1.388 . S
C1230 C1231 1.366 . S
C1231 C1230 1.366 . S
C1231 C1232 1.414 . S
C1231 C1234 1.499 . S
C1232 H1212 0.950 . S
C1232 C1231 1.414 . S
C1232 C1233 1.374 . S
C1233 H1213 0.950 . S
C1233 C1229 1.385 . S
C1233 C1232 1.374 . S
C1234 C1231 1.499 . S
C1234 C1235 1.373 . S
C1234 C1236 1.389 . S
C1235 H1214 0.950 . S
C1235 C1234 1.373 . S
C1235 C1251 1.377 . S
C1236 C1234 1.389 . S
C1236 C1237 1.524 . S
C1236 C1250 1.377 . S
C1237 C1236 1.524 . S
C1237 C1238 1.397 . S
C1237 C1242 1.363 . S
C1238 H1215 0.950 . S
C1238 C1237 1.397 . S
C1238 C1239 1.334 . S
C1239 H1216 0.950 . S
C1239 C1238 1.334 . S
C1239 C1240 1.287 . S
C1240 C1239 1.287 . S
C1240 C1241 1.524 . S
C1240 H1259 0.913 . S
C1241 H1217 0.950 . S
C1241 C1240 1.524 . S
C1241 C1242 1.415 . S
C1242 H1218 0.950 . S
C1242 C1237 1.363 . S
C1242 C1241 1.415 . S
C1243 H1219 0.951 . S
C1243 C1244 1.366 . S
C1243 C1245 1.388 . S
C1244 C1243 1.366 . S
C1244 C1248 1.385 . S
C1245 H1220 0.951 . S
C1245 C1243 1.388 . S
C1245 C1246 1.366 . S
C1246 C1245 1.366 . S
C1246 C1247 1.414 . S
C1246 C1249 1.499 . S
C1247 H1221 0.950 . S
C1247 C1246 1.414 . S
C1247 C1248 1.374 . S
C1248 H1222 0.950 . S
C1248 C1244 1.385 . S
C1248 C1247 1.374 . S
C1249 C1246 1.499 . S
C1249 C1250 1.373 . S
C1249 C1251 1.389 . S
C1250 H1223 0.950 . S
C1250 C1236 1.377 . S
C1250 C1249 1.373 . S
C1251 C1235 1.377 . S
C1251 C1249 1.389 . S
C1251 C1252 1.524 . S
C1252 C1251 1.524 . S
C1252 C1253 1.397 . S
C1252 C1257 1.363 . S
C1253 H1224 0.950 . S
C1253 C1252 1.397 . S
C1253 C1254 1.334 . S
C1254 H1225 0.950 . S
C1254 C1253 1.334 . S
C1254 C1255 1.287 . S
C1255 C1254 1.287 . S
C1255 C1256 1.524 . S
C1255 H1258 0.999 . S
C1256 H1226 0.950 . S
C1256 C1255 1.524 . S
C1256 C1257 1.415 . S
C1257 H1227 0.950 . S
C1257 C1252 1.363 . S
C1257 C1256 1.415 . S
H1258 C1255 0.999 . S
H1259 C1240 0.913 . S
H1260 C1278 0.951 . S
H1261 C1280 0.951 . S
H1262 C1282 0.950 . S
H1263 C1283 0.950 . S
H1264 C1285 0.950 . S
H1265 C1288 0.950 . S
H1266 C1289 0.950 . S
H1267 C1291 0.950 . S
H1268 C1292 0.950 . S
H1269 C1293 0.951 . S
H1270 C1295 0.951 . S
H1271 C1297 0.950 . S
H1272 C1298 0.950 . S
H1273 C1300 0.950 . S
H1274 C1303 0.950 . S
H1275 C1304 0.950 . S
H1276 C1306 0.950 . S
H1277 C1307 0.950 . S
C1278 H1260 0.951 . S
C1278 C1279 1.366 . S
C1278 C1280 1.388 . S
C1279 C1278 1.366 . S
C1279 C1283 1.385 . S
C1280 H1261 0.951 . S
C1280 C1278 1.388 . S
C1280 C1281 1.366 . S
C1281 C1280 1.366 . S
C1281 C1282 1.414 . S
C1281 C1284 1.499 . S
C1282 H1262 0.950 . S
C1282 C1281 1.414 . S
C1282 C1283 1.374 . S
C1283 H1263 0.950 . S
C1283 C1279 1.385 . S
C1283 C1282 1.374 . S
C1284 C1281 1.499 . S
C1284 C1285 1.373 . S
C1284 C1286 1.389 . S
C1285 H1264 0.950 . S
C1285 C1284 1.373 . S
C1285 C1301 1.377 . S
C1286 C1284 1.389 . S
C1286 C1287 1.524 . S
C1286 C1300 1.377 . S
C1287 C1286 1.524 . S
C1287 C1288 1.397 . S
C1287 C1292 1.363 . S
C1288 H1265 0.950 . S
C1288 C1287 1.397 . S
C1288 C1289 1.334 . S
C1289 H1266 0.950 . S
C1289 C1288 1.334 . S
C1289 C1290 1.287 . S
C1290 C1289 1.287 . S
C1290 C1291 1.524 . S
C1290 H1309 0.913 . S
C1291 H1267 0.950 . S
C1291 C1290 1.524 . S
C1291 C1292 1.415 . S
C1292 H1268 0.950 . S
C1292 C1287 1.363 . S
C1292 C1291 1.415 . S
C1293 H1269 0.951 . S
C1293 C1294 1.366 . S
C1293 C1295 1.388 . S
C1294 C1293 1.366 . S
C1294 C1298 1.385 . S
C1295 H1270 0.951 . S
C1295 C1293 1.388 . S
C1295 C1296 1.366 . S
C1296 C1295 1.366 . S
C1296 C1297 1.414 . S
C1296 C1299 1.499 . S
C1297 H1271 0.950 . S
C1297 C1296 1.414 . S
C1297 C1298 1.374 . S
C1298 H1272 0.950 . S
C1298 C1294 1.385 . S
C1298 C1297 1.374 . S
C1299 C1296 1.499 . S
C1299 C1300 1.373 . S
C1299 C1301 1.389 . S
C1300 H1273 0.950 . S
C1300 C1286 1.377 . S
C1300 C1299 1.373 . S
C1301 C1285 1.377 . S
C1301 C1299 1.389 . S
C1301 C1302 1.524 . S
C1302 C1301 1.524 . S
C1302 C1303 1.397 . S
C1302 C1307 1.363 . S
C1303 H1274 0.950 . S
C1303 C1302 1.397 . S
C1303 C1304 1.334 . S
C1304 H1275 0.950 . S
C1304 C1303 1.334 . S
C1304 C1305 1.287 . S
C1305 C1304 1.287 . S
C1305 C1306 1.524 . S
C1305 H1308 0.999 . S
C1306 H1276 0.950 . S
C1306 C1305 1.524 . S
C1306 C1307 1.415 . S
C1307 H1277 0.950 . S
C1307 C1302 1.363 . S
C1307 C1306 1.415 . S
H1308 C1305 0.999 . S
H1309 C1290 0.913 . S
H1310 C1328 0.951 . S
H1311 C1330 0.951 . S
H1312 C1332 0.950 . S
H1313 C1333 0.950 . S
H1314 C1335 0.950 . S
H1315 C1338 0.950 . S
H1316 C1339 0.950 . S
H1317 C1341 0.950 . S
H1318 C1342 0.950 . S
H1319 C1343 0.951 . S
H1320 C1345 0.951 . S
H1321 C1347 0.950 1_554 S
H1322 C1348 0.950 . S
H1323 C1350 0.950 . S
H1324 C1353 0.950 . S
H1325 C1354 0.950 . S
H1326 C1356 0.950 . S
H1327 C1357 0.950 . S
C1328 H1310 0.951 . S
C1328 C1329 1.366 . S
C1328 C1330 1.388 . S
C1329 C1328 1.366 . S
C1329 C1333 1.385 . S
C1330 H1311 0.951 . S
C1330 C1328 1.388 . S
C1330 C1331 1.366 . S
C1331 C1330 1.366 . S
C1331 C1332 1.414 . S
C1331 C1334 1.499 . S
C1332 H1312 0.950 . S
C1332 C1331 1.414 . S
C1332 C1333 1.374 . S
C1333 H1313 0.950 . S
C1333 C1329 1.385 . S
C1333 C1332 1.374 . S
C1334 C1331 1.499 . S
C1334 C1335 1.373 . S
C1334 C1336 1.389 . S
C1335 H1314 0.950 . S
C1335 C1334 1.373 . S
C1335 C1351 1.377 . S
C1336 C1334 1.389 . S
C1336 C1337 1.524 . S
C1336 C1350 1.377 . S
C1337 C1336 1.524 . S
C1337 C1338 1.397 . S
C1337 C1342 1.363 . S
C1338 H1315 0.950 . S
C1338 C1337 1.397 . S
C1338 C1339 1.334 . S
C1339 H1316 0.950 . S
C1339 C1338 1.334 . S
C1339 C1340 1.287 . S
C1340 C1339 1.287 . S
C1340 C1341 1.524 . S
C1340 H1359 0.913 . S
C1341 H1317 0.950 . S
C1341 C1340 1.524 . S
C1341 C1342 1.415 . S
C1342 H1318 0.950 . S
C1342 C1337 1.363 . S
C1342 C1341 1.415 . S
C1343 H1319 0.951 . S
C1343 C1344 1.366 . S
C1343 C1345 1.388 . S
C1344 C1343 1.366 . S
C1344 C1348 1.385 . S
C1345 H1320 0.951 . S
C1345 C1343 1.388 . S
C1345 C1346 1.366 . S
C1346 C1345 1.366 . S
C1346 C1347 1.414 . S
C1346 C1349 1.499 1_556 S
C1347 H1321 0.950 1_556 S
C1347 C1346 1.414 . S
C1347 C1348 1.374 . S
C1348 H1322 0.950 . S
C1348 C1344 1.385 . S
C1348 C1347 1.374 . S
C1349 C1346 1.499 1_554 S
C1349 C1350 1.373 . S
C1349 C1351 1.389 . S
C1350 H1323 0.950 . S
C1350 C1336 1.377 . S
C1350 C1349 1.373 . S
C1351 C1335 1.377 . S
C1351 C1349 1.389 . S
C1351 C1352 1.524 1_554 S
C1352 C1351 1.524 1_556 S
C1352 C1353 1.397 . S
C1352 C1357 1.363 . S
C1353 H1324 0.950 . S
C1353 C1352 1.397 . S
C1353 C1354 1.334 . S
C1354 H1325 0.950 . S
C1354 C1353 1.334 . S
C1354 C1355 1.287 . S
C1355 C1354 1.287 . S
C1355 C1356 1.524 . S
C1355 H1358 0.999 . S
C1356 H1326 0.950 . S
C1356 C1355 1.524 . S
C1356 C1357 1.415 . S
C1357 H1327 0.950 . S
C1357 C1352 1.363 . S
C1357 C1356 1.415 . S
H1358 C1355 0.999 . S
H1359 C1340 0.913 . S
H1360 C1378 0.951 . S
H1361 C1380 0.951 . S
H1362 C1382 0.950 . S
H1363 C1383 0.950 . S
H1364 C1385 0.950 . S
H1365 C1388 0.950 . S
H1366 C1389 0.950 . S
H1367 C1391 0.950 . S
H1368 C1392 0.950 . S
H1369 C1393 0.951 . S
H1370 C1395 0.951 . S
H1371 C1397 0.950 . S
H1372 C1398 0.950 . S
H1373 C1400 0.950 . S
H1374 C1403 0.950 . S
H1375 C1404 0.950 . S
H1376 C1406 0.950 . S
H1377 C1407 0.950 . S
C1378 H1360 0.951 . S
C1378 C1379 1.366 . S
C1378 C1380 1.388 . S
C1379 C1378 1.366 . S
C1379 C1383 1.385 . S
C1380 H1361 0.951 . S
C1380 C1378 1.388 . S
C1380 C1381 1.366 . S
C1381 C1380 1.366 . S
C1381 C1382 1.414 . S
C1381 C1384 1.499 . S
C1382 H1362 0.950 . S
C1382 C1381 1.414 . S
C1382 C1383 1.374 . S
C1383 H1363 0.950 . S
C1383 C1379 1.385 . S
C1383 C1382 1.374 . S
C1384 C1381 1.499 . S
C1384 C1385 1.373 . S
C1384 C1386 1.389 . S
C1385 H1364 0.950 . S
C1385 C1384 1.373 . S
C1385 C1401 1.377 . S
C1386 C1384 1.389 . S
C1386 C1387 1.524 . S
C1386 C1400 1.377 . S
C1387 C1386 1.524 . S
C1387 C1388 1.397 . S
C1387 C1392 1.363 . S
C1388 H1365 0.950 . S
C1388 C1387 1.397 . S
C1388 C1389 1.334 . S
C1389 H1366 0.950 . S
C1389 C1388 1.334 . S
C1389 C1390 1.287 . S
C1390 C1389 1.287 . S
C1390 C1391 1.524 . S
C1390 H1409 0.913 . S
C1391 H1367 0.950 . S
C1391 C1390 1.524 . S
C1391 C1392 1.415 . S
C1392 H1368 0.950 . S
C1392 C1387 1.363 . S
C1392 C1391 1.415 . S
C1393 H1369 0.951 . S
C1393 C1394 1.366 . S
C1393 C1395 1.388 . S
C1394 C1393 1.366 . S
C1394 C1398 1.385 . S
C1395 H1370 0.951 . S
C1395 C1393 1.388 . S
C1395 C1396 1.366 . S
C1396 C1395 1.366 . S
C1396 C1397 1.414 . S
C1396 C1399 1.499 . S
C1397 H1371 0.950 . S
C1397 C1396 1.414 . S
C1397 C1398 1.374 . S
C1398 H1372 0.950 . S
C1398 C1394 1.385 . S
C1398 C1397 1.374 . S
C1399 C1396 1.499 . S
C1399 C1400 1.373 . S
C1399 C1401 1.389 . S
C1400 H1373 0.950 . S
C1400 C1386 1.377 . S
C1400 C1399 1.373 . S
C1401 C1385 1.377 . S
C1401 C1399 1.389 . S
C1401 C1402 1.524 . S
C1402 C1401 1.524 . S
C1402 C1403 1.397 . S
C1402 C1407 1.363 . S
C1403 H1374 0.950 . S
C1403 C1402 1.397 . S
C1403 C1404 1.334 . S
C1404 H1375 0.950 . S
C1404 C1403 1.334 . S
C1404 C1405 1.287 . S
C1405 C1404 1.287 . S
C1405 C1406 1.524 . S
C1405 H1408 0.999 . S
C1406 H1376 0.950 . S
C1406 C1405 1.524 . S
C1406 C1407 1.415 . S
C1407 H1377 0.950 . S
C1407 C1402 1.363 . S
C1407 C1406 1.415 . S
H1408 C1405 0.999 . S
H1409 C1390 0.913 . S
C244 C203 1.498 . S
C229 C19 1.452 . S
C279 C40 1.454 . S
C294 C132 1.501 . S
C329 C51 1.452 . S
C344 C146 1.514 . S
C379 C72 1.443 . S
C394 C160 1.503 . S
C444 C174 1.499 . S
C429 C103 1.451 . S
C479 C114 1.445 . S
C494 C189 1.505 . S
C529 C30 1.453 . S
C544 C147 1.513 . S
C579 C61 1.453 . S
C594 C161 1.501 . S
C629 C82 1.450 . S
C644 C175 1.498 . S
C694 C188 1.505 . S
C679 C93 1.444 1_554 S
C744 C202 1.500 . S
C729 C124 1.452 . S
C794 C133 1.503 . S
C779 C9 1.442 . S
C829 C17 1.483 . S
C844 C149 1.548 . S
C879 C38 1.479 . S
C894 C163 1.544 . S
C944 C177 1.541 . S
C929 C54 1.473 . S
C979 C75 1.478 . S
C994 C190 1.548 . S
C1044 C204 1.543 . S
C1029 C101 1.477 . S
C1094 C135 1.542 . S
C1079 C117 1.473 . S
C1144 C205 1.540 . S
C1129 C33 1.472 . S
C1179 C59 1.478 . S
C1194 C134 1.545 . S
C1244 C148 1.548 . S
C1229 C80 1.483 . S
C1279 C96 1.474 . S
C1294 C162 1.542 . S
C1329 C122 1.478 . S
C1344 C176 1.544 . S
C1379 C12 1.479 . S
C1394 C191 1.548 . S
