# Generated by pormake.
# Topology apo, (3,6)-cn, num edge types: 1
# Building blocks:
#     Node 0, Type 0, BuildingBlock: BELTOD_clean_linker_0, # of connection points: 3
#     Node 1, Type 0, BuildingBlock: BELTOD_clean_linker_0, # of connection points: 3
#     Node 2, Type 0, BuildingBlock: BELTOD_clean_linker_0, # of connection points: 3
#     Node 3, Type 0, BuildingBlock: BELTOD_clean_linker_0, # of connection points: 3
#     Node 4, Type 0, BuildingBlock: BELTOD_clean_linker_0, # of connection points: 3
#     Node 5, Type 0, BuildingBlock: BELTOD_clean_linker_0, # of connection points: 3
#     Node 6, Type 0, BuildingBlock: BELTOD_clean_linker_0, # of connection points: 3
#     Node 7, Type 0, BuildingBlock: BELTOD_clean_linker_0, # of connection points: 3
#     Node 8, Type 1, BuildingBlock: MIDCAF_clean_sbu_0, # of connection points: 6
#     Node 9, Type 1, BuildingBlock: MIDCAF_clean_sbu_0, # of connection points: 6
#     Node 10, Type 1, BuildingBlock: MIDCAF_clean_sbu_0, # of connection points: 6
#     Node 11, Type 1, BuildingBlock: MIDCAF_clean_sbu_0, # of connection points: 6
#     Edge 12, Type (0, 1), BuildingBlock: OJICUG_clean_linker_0, # of connection points: 2
#     Edge 13, Type (0, 1), BuildingBlock: OJICUG_clean_linker_0, # of connection points: 2
#     Edge 14, Type (0, 1), BuildingBlock: OJICUG_clean_linker_0, # of connection points: 2
#     Edge 15, Type (0, 1), BuildingBlock: OJICUG_clean_linker_0, # of connection points: 2
#     Edge 16, Type (0, 1), BuildingBlock: OJICUG_clean_linker_0, # of connection points: 2
#     Edge 17, Type (0, 1), BuildingBlock: OJICUG_clean_linker_0, # of connection points: 2
#     Edge 18, Type (0, 1), BuildingBlock: OJICUG_clean_linker_0, # of connection points: 2
#     Edge 19, Type (0, 1), BuildingBlock: OJICUG_clean_linker_0, # of connection points: 2
#     Edge 20, Type (0, 1), BuildingBlock: OJICUG_clean_linker_0, # of connection points: 2
#     Edge 21, Type (0, 1), BuildingBlock: OJICUG_clean_linker_0, # of connection points: 2
#     Edge 22, Type (0, 1), BuildingBlock: OJICUG_clean_linker_0, # of connection points: 2
#     Edge 23, Type (0, 1), BuildingBlock: OJICUG_clean_linker_0, # of connection points: 2
#     Edge 24, Type (0, 1), BuildingBlock: OJICUG_clean_linker_0, # of connection points: 2
#     Edge 25, Type (0, 1), BuildingBlock: OJICUG_clean_linker_0, # of connection points: 2
#     Edge 26, Type (0, 1), BuildingBlock: OJICUG_clean_linker_0, # of connection points: 2
#     Edge 27, Type (0, 1), BuildingBlock: OJICUG_clean_linker_0, # of connection points: 2
#     Edge 28, Type (0, 1), BuildingBlock: OJICUG_clean_linker_0, # of connection points: 2
#     Edge 29, Type (0, 1), BuildingBlock: OJICUG_clean_linker_0, # of connection points: 2
#     Edge 30, Type (0, 1), BuildingBlock: OJICUG_clean_linker_0, # of connection points: 2
#     Edge 31, Type (0, 1), BuildingBlock: OJICUG_clean_linker_0, # of connection points: 2
#     Edge 32, Type (0, 1), BuildingBlock: OJICUG_clean_linker_0, # of connection points: 2
#     Edge 33, Type (0, 1), BuildingBlock: OJICUG_clean_linker_0, # of connection points: 2
#     Edge 34, Type (0, 1), BuildingBlock: OJICUG_clean_linker_0, # of connection points: 2
#     Edge 35, Type (0, 1), BuildingBlock: OJICUG_clean_linker_0, # of connection points: 2
# Relax obj value: 0.077
# Max RMSD: 0.096
# Mean RMSD: 0.084
data_MOF--net-apo--node1-MIDCAF_clean_sbu_0--node2-BELTOD_clean_linker_0--edge1-OJICUG_clean_linker_0
_symmetry_space_group_name_H-M    P1
_symmetry_Int_Tables_number       1
_symmetry_cell_setting            triclinic
loop_
_symmetry_equiv_pos_as_xyz
'x, y, z'
_cell_length_a     30.951603
_cell_length_b     36.635679
_cell_length_c     29.970373
_cell_angle_alpha  88.971138
_cell_angle_beta   90.019557
_cell_angle_gamma 90.066255
loop_
_atom_site_label
_atom_site_type_symbol
_atom_site_fract_x
_atom_site_fract_y
_atom_site_fract_z
_atom_type_partial_charge
P0 P 0.36759 0.26718 0.37418 0.0
H1 H 0.42919 0.2381 0.43942 0.0
H2 H 0.43357 0.24148 0.52009 0.0
H3 H 0.30678 0.29087 0.52313 0.0
H4 H 0.30371 0.28891 0.44195 0.0
H5 H 0.33452 0.201 0.33383 0.0
H6 H 0.26257 0.18176 0.31144 0.0
H7 H 0.21296 0.28857 0.34236 0.0
H8 H 0.28524 0.30745 0.36567 0.0
H9 H 0.44181 0.3074 0.40552 0.0
H10 H 0.34032 0.32517 0.30899 0.0
O11 O 0.40364 0.23745 0.35504 0.0
H12 H 0.47032 0.36803 0.38941 0.0
H13 H 0.36724 0.38701 0.29445 0.0
C14 C 0.36602 0.26297 0.43438 0.0
C15 C 0.40186 0.2489 0.45743 0.0
C16 C 0.40413 0.25061 0.50393 0.0
C17 C 0.37046 0.26643 0.52863 0.0
C18 C 0.33356 0.27886 0.50542 0.0
C19 C 0.33159 0.27748 0.45877 0.0
C20 C 0.31549 0.25582 0.35103 0.0
C21 C 0.30844 0.22062 0.33492 0.0
C22 C 0.26716 0.20966 0.32179 0.0
C23 C 0.23188 0.23362 0.32492 0.0
C24 C 0.23935 0.26935 0.33975 0.0
C25 C 0.28074 0.28026 0.35289 0.0
C26 C 0.38779 0.31218 0.35998 0.0
C27 C 0.42519 0.32456 0.38129 0.0
C28 C 0.44149 0.3594 0.37204 0.0
C29 C 0.4206 0.38291 0.34133 0.0
C30 C 0.3842 0.36976 0.31835 0.0
C31 C 0.36821 0.33452 0.32728 0.0
P32 P 0.20496 0.12514 0.92904 0.0
H33 H 0.19413 0.08443 0.84775 0.0
H34 H 0.13597 0.04581 0.82073 0.0
H35 H 0.05337 0.08374 0.92662 0.0
H36 H 0.11248 0.11901 0.95569 0.0
H37 H 0.29428 0.1323 0.89948 0.0
H38 H 0.33108 0.17612 0.85095 0.0
H39 H 0.2097 0.23056 0.82444 0.0
H40 H 0.17281 0.18619 0.87364 0.0
H41 H 0.24037 0.11643 1.01941 0.0
H42 H 0.14384 0.18278 0.95375 0.0
O43 O 0.2389 0.09071 0.93984 0.0
H44 H 0.21374 0.1351 0.09168 0.0
H45 H 0.11383 0.19872 1.02557 0.0
C46 C 0.15803 0.10484 0.90372 0.0
C47 C 0.16319 0.08491 0.86462 0.0
C48 C 0.12958 0.06307 0.8489 0.0
C49 C 0.08986 0.06114 0.87179 0.0
C50 C 0.08374 0.08376 0.90868 0.0
C51 C 0.11772 0.10466 0.92509 0.0
C52 C 0.23085 0.15614 0.89032 0.0
C53 C 0.27535 0.15326 0.88275 0.0
C54 C 0.29634 0.17814 0.85443 0.0
C55 C 0.27329 0.20668 0.8334 0.0
C56 C 0.22834 0.20886 0.84011 0.0
C57 C 0.20727 0.1837 0.86835 0.0
C58 C 0.1928 0.14693 0.98118 0.0
C59 C 0.21343 0.13521 1.0205 0.0
C60 C 0.19771 0.14566 0.06209 0.0
C61 C 0.16006 0.16709 0.06523 0.0
C62 C 0.14262 0.18203 1.02535 0.0
C63 C 0.15954 0.17266 0.9838 0.0
P64 P 0.86446 0.2007 0.68245 0.0
H65 H 0.91265 0.23688 0.60999 0.0
H66 H 0.9119 0.22965 0.52969 0.0
H67 H 0.79916 0.16033 0.5417 0.0
H68 H 0.80179 0.16613 0.62256 0.0
H69 H 0.84943 0.2676 0.73115 0.0
H70 H 0.78427 0.29717 0.75762 0.0
H71 H 0.70884 0.20346 0.71986 0.0
H72 H 0.77479 0.17326 0.69434 0.0
H73 H 0.93686 0.15823 0.65354 0.0
H74 H 0.83068 0.14299 0.74509 0.0
O75 O 0.90602 0.22775 0.695 0.0
H76 H 0.96214 0.09664 0.67031 0.0
H77 H 0.85503 0.08033 0.761 0.0
C78 C 0.85721 0.20214 0.62258 0.0
C79 C 0.88714 0.22075 0.59542 0.0
C80 C 0.88637 0.21685 0.54909 0.0
C81 C 0.85553 0.19423 0.52875 0.0
C82 C 0.82377 0.17758 0.55601 0.0
C83 C 0.82493 0.18118 0.60245 0.0
C84 C 0.81716 0.21823 0.71026 0.0
C85 C 0.81918 0.25284 0.72941 0.0
C86 C 0.78178 0.26989 0.74449 0.0
C87 C 0.74131 0.25287 0.74038 0.0
C88 C 0.73958 0.21721 0.72373 0.0
C89 C 0.77724 0.20006 0.70867 0.0
C90 C 0.88147 0.15502 0.69739 0.0
C91 C 0.9188 0.14148 0.67716 0.0
C92 C 0.93318 0.10615 0.68671 0.0
C93 C 0.91036 0.08327 0.7166 0.0
C94 C 0.8735 0.09727 0.73796 0.0
C95 C 0.8592 0.13297 0.72848 0.0
P96 P 0.71077 0.34713 0.12119 0.0
H97 H 0.69992 0.38638 0.20373 0.0
H98 H 0.64282 0.42579 0.23108 0.0
H99 H 0.56201 0.39495 0.12005 0.0
H100 H 0.62053 0.35925 0.09069 0.0
H101 H 0.79966 0.33949 0.15219 0.0
H102 H 0.83486 0.29637 0.2029 0.0
H103 H 0.71178 0.24488 0.23044 0.0
H104 H 0.67654 0.2885 0.17909 0.0
H105 H 0.74656 0.3491 1.03043 0.0
H106 H 0.64532 0.29184 0.10115 0.0
O107 O 0.74584 0.38022 0.10788 0.0
H108 H 0.71819 0.32791 0.95985 0.0
H109 H 0.6139 0.27354 1.03113 0.0
C110 C 0.66464 0.36932 0.14546 0.0
C111 C 0.6696 0.38772 0.18571 0.0
C112 C 0.63656 0.41002 0.20158 0.0
C113 C 0.59756 0.41398 0.17769 0.0
C114 C 0.59178 0.39337 0.13896 0.0
C115 C 0.62531 0.3721 0.12242 0.0
C116 C 0.73556 0.31698 0.16163 0.0
C117 C 0.78004 0.31934 0.16959 0.0
C118 C 0.8001 0.29488 0.19915 0.0
C119 C 0.7761 0.26732 0.22107 0.0
C120 C 0.73115 0.2658 0.21407 0.0
C121 C 0.71103 0.29052 0.18459 0.0
C122 C 0.69695 0.32327 0.07093 0.0
C123 C 0.71824 0.33173 1.0308 0.0
C124 C 0.70151 0.31986 0.99018 0.0
C125 C 0.66229 0.30027 0.98879 0.0
C126 C 0.64395 0.28858 1.02982 0.0
C127 C 0.66173 0.29934 0.07041 0.0
P128 P 0.70263 0.62753 0.63952 0.0
H129 H 0.71497 0.59885 0.55039 0.0
H130 H 0.68218 0.61506 0.47943 0.0
H131 H 0.63344 0.71475 0.5359 0.0
H132 H 0.66458 0.697 0.6079 0.0
H133 H 0.7911 0.63774 0.66949 0.0
H134 H 0.82546 0.68193 0.71745 0.0
H135 H 0.70177 0.73309 0.73997 0.0
H136 H 0.66742 0.6885 0.6911 0.0
H137 H 0.63116 0.59145 0.59561 0.0
H138 H 0.66576 0.61917 0.73024 0.0
O139 O 0.73677 0.59262 0.63442 0.0
H140 H 0.57101 0.5561 0.62296 0.0
H141 H 0.60317 0.58525 0.75835 0.0
C142 C 0.69223 0.64664 0.58463 0.0
C143 C 0.69849 0.62482 0.54724 0.0
C144 C 0.6797 0.63432 0.50627 0.0
C145 C 0.65433 0.66605 0.5017 0.0
C146 C 0.65179 0.68966 0.53828 0.0
C147 C 0.67007 0.67977 0.57952 0.0
C148 C 0.7267 0.65982 0.67672 0.0
C149 C 0.77116 0.65812 0.68513 0.0
C150 C 0.79074 0.6832 0.71316 0.0
C151 C 0.76631 0.71081 0.73317 0.0
C152 C 0.72149 0.71212 0.72518 0.0
C153 C 0.70186 0.68682 0.6971 0.0
C154 C 0.65278 0.60861 0.66066 0.0
C155 C 0.62486 0.59118 0.6311 0.0
C156 C 0.58979 0.57104 0.64702 0.0
C157 C 0.58157 0.56771 0.69315 0.0
C158 C 0.60852 0.58679 0.72268 0.0
C159 C 0.64419 0.6066 0.70659 0.0
P160 P 0.86562 0.77456 0.1937 0.0
H161 H 0.91978 0.80882 0.26129 0.0
H162 H 0.94211 0.87205 0.27254 0.0
H163 H 0.85607 0.90729 0.16675 0.0
H164 H 0.83434 0.84411 0.15534 0.0
H165 H 0.84922 0.70907 0.24773 0.0
H166 H 0.78386 0.68145 0.27789 0.0
H167 H 0.70917 0.77253 0.22648 0.0
H168 H 0.77565 0.80124 0.19852 0.0
H169 H 0.93212 0.75341 0.13078 0.0
H170 H 0.79859 0.78651 0.12384 0.0
O171 O 0.90726 0.75016 0.21334 0.0
H172 H 0.93597 0.75365 0.04994 0.0
H173 H 0.80236 0.7871 0.04211 0.0
C174 C 0.8761 0.8216 0.20676 0.0
C175 C 0.90541 0.83018 0.24075 0.0
C176 C 0.91807 0.86638 0.24732 0.0
C177 C 0.9015 0.89463 0.21999 0.0
C178 C 0.87027 0.88605 0.18763 0.0
C179 C 0.8576 0.84989 0.1812 0.0
C180 C 0.81732 0.75701 0.22018 0.0
C181 C 0.819 0.72356 0.24355 0.0
C182 C 0.78141 0.70763 0.26071 0.0
C183 C 0.741 0.72439 0.25407 0.0
C184 C 0.73969 0.7589 0.23254 0.0
C185 C 0.77762 0.77515 0.21593 0.0
C186 C 0.86497 0.76953 0.13372 0.0
C187 C 0.9032 0.75988 0.11194 0.0
C188 C 0.90529 0.75984 0.06542 0.0
C189 C 0.86929 0.77 0.03934 0.0
C190 C 0.8306 0.77899 0.06118 0.0
C191 C 0.82841 0.77858 0.10799 0.0
P192 P 0.2082 0.83678 0.43422 0.0
H193 H 0.23981 0.81908 0.52456 0.0
H194 H 0.20158 0.80154 0.59305 0.0
H195 H 0.08378 0.78957 0.51677 0.0
H196 H 0.12272 0.80511 0.44894 0.0
H197 H 0.29228 0.83357 0.39088 0.0
H198 H 0.326 0.78912 0.34312 0.0
H199 H 0.20676 0.72743 0.3406 0.0
H200 H 0.17367 0.77183 0.39036 0.0
H201 H 0.15457 0.89227 0.47204 0.0
H202 H 0.17302 0.84572 0.34225 0.0
O203 O 0.24748 0.86387 0.4527 0.0
H204 H 0.09999 0.93318 0.44151 0.0
H205 H 0.11745 0.88663 0.3112 0.0
C206 C 0.18384 0.81411 0.48184 0.0
C207 C 0.20602 0.8116 0.52258 0.0
C208 C 0.18395 0.80188 0.56185 0.0
C209 C 0.13919 0.7948 0.56103 0.0
C210 C 0.11818 0.79441 0.51925 0.0
C211 C 0.14041 0.80362 0.4801 0.0
C212 C 0.23089 0.8054 0.39516 0.0
C213 C 0.27324 0.8106 0.37994 0.0
C214 C 0.29233 0.78534 0.35183 0.0
C215 C 0.26925 0.75443 0.33791 0.0
C216 C 0.22575 0.75057 0.35116 0.0
C217 C 0.20678 0.77583 0.37969 0.0
C218 C 0.16769 0.86591 0.40956 0.0
C219 C 0.14647 0.89063 0.43696 0.0
C220 C 0.11482 0.91372 0.41948 0.0
C221 C 0.10372 0.91273 0.37399 0.0
C222 C 0.12513 0.88789 0.34639 0.0
C223 C 0.1569 0.86452 0.36412 0.0
P224 P 0.34734 0.68816 0.88727 0.0
H225 H 0.43073 0.65447 0.90175 0.0
H226 H 0.46008 0.59433 0.88519 0.0
H227 H 0.34033 0.56566 0.82052 0.0
H228 H 0.31108 0.62617 0.83723 0.0
H229 H 0.33336 0.73066 0.80528 0.0
H230 H 0.26846 0.75712 0.77119 0.0
H231 H 0.18984 0.70168 0.87037 0.0
H232 H 0.25499 0.67526 0.90426 0.0
H233 H 0.33923 0.62903 0.95493 0.0
H234 H 0.33751 0.74669 0.95131 0.0
O235 O 0.38514 0.71951 0.87597 0.0
H236 H 0.34466 0.6293 0.03585 0.0
H237 H 0.34129 0.7473 0.03287 0.0
C238 C 0.36893 0.64488 0.87035 0.0
C239 C 0.41098 0.63542 0.88345 0.0
C240 C 0.42764 0.60098 0.87419 0.0
C241 C 0.40253 0.57524 0.85156 0.0
C242 C 0.36063 0.58509 0.83753 0.0
C243 C 0.34382 0.6196 0.84717 0.0
C244 C 0.29897 0.70173 0.85791 0.0
C245 C 0.3021 0.72376 0.8193 0.0
C246 C 0.265 0.73886 0.79979 0.0
C247 C 0.22404 0.73178 0.81827 0.0
C248 C 0.22086 0.70748 0.8551 0.0
C249 C 0.25809 0.69257 0.87476 0.0
C250 C 0.33941 0.68789 0.94699 0.0
C251 C 0.33896 0.65499 0.9716 0.0
C252 C 0.34149 0.65521 1.01821 0.0
C253 C 0.34414 0.68838 0.04114 0.0
C254 C 0.34023 0.72126 1.01637 0.0
C255 C 0.33796 0.72097 0.9697 0.0
Zn256 Zn 0.01245 0.11314 0.36483 0.0
Zn257 Zn 0.95328 0.1183 0.20653 0.0
Zn258 Zn 0.98426 0.11779 0.28735 0.0
C259 C 0.03378 0.15194 0.20091 0.0
C260 C 0.95532 0.04564 0.23073 0.0
O261 O 0.93718 0.14508 0.33354 0.0
O262 O 0.95977 0.12258 0.3983 0.0
C263 C 0.06753 0.16087 0.32107 0.0
O264 O 0.03367 0.14352 0.24289 0.0
O265 O 0.0013 0.14515 0.17699 0.0
O266 O 0.94715 0.06533 0.1968 0.0
O267 O 0.9697 0.06048 0.26662 0.0
O268 O 0.05549 0.15303 0.3603 0.0
O269 O 0.04724 0.14734 0.28759 0.0
O270 O -0.00432 0.05944 0.30453 0.0
O271 O 0.03314 0.0626 0.36716 0.0
C272 C 0.01779 0.04397 0.33599 0.0
O273 O 0.92345 0.15002 0.28896 0.0
O274 O 0.89977 0.14477 0.21968 0.0
C275 C 0.9322 0.14038 0.37603 0.0
C276 C 0.89483 0.15659 0.25861 0.0
Zn277 Zn 0.51464 0.36522 0.69204 0.0
Zn278 Zn 0.45458 0.35241 0.85397 0.0
Zn279 Zn 0.4844 0.35494 0.77232 0.0
C280 C 0.45631 0.42508 0.83346 0.0
C281 C 0.39508 0.31643 0.79916 0.0
O282 O 0.5502 0.33051 0.77194 0.0
O283 O 0.57333 0.34586 0.70436 0.0
C284 C 0.49896 0.43357 0.72039 0.0
O285 O 0.46755 0.4107 0.7962 0.0
O286 O 0.45173 0.40514 0.86791 0.0
O287 O 0.39955 0.32882 0.83791 0.0
O288 O 0.42461 0.32179 0.76945 0.0
O289 O 0.50825 0.41848 0.68418 0.0
O290 O 0.49014 0.41402 0.75541 0.0
O291 O 0.44124 0.32457 0.72576 0.0
O292 O 0.47378 0.33387 0.66072 0.0
C293 C 0.44369 0.31957 0.68335 0.0
O294 O 0.53398 0.32868 0.81573 0.0
O295 O 0.50105 0.32178 0.88084 0.0
C296 C 0.58003 0.33076 0.74192 0.0
C297 C 0.53383 0.31706 0.85659 0.0
Zn298 Zn 0.01744 0.8521 0.86468 0.0
Zn299 Zn 0.94202 0.85809 0.71189 0.0
Zn300 Zn 0.97841 0.85427 0.789 0.0
C301 C 0.95218 0.9296 0.73457 0.0
C302 C 0.8841 0.82182 0.76785 0.0
O303 O 0.04124 0.82464 0.78128 0.0
O304 O 0.07231 0.82936 0.84744 0.0
C305 C 0.00645 0.92509 0.84548 0.0
O306 O 0.96577 0.91312 0.77038 0.0
O307 O 0.94228 0.91127 0.70083 0.0
O308 O 0.88629 0.83659 0.72957 0.0
O309 O 0.91618 0.82424 0.79511 0.0
O310 O 0.01854 0.90448 0.87722 0.0
O311 O -0.00908 0.9113 0.80958 0.0
O312 O 0.93546 0.82427 0.83778 0.0
O313 O 0.97644 0.8216 0.89827 0.0
C314 C 0.94166 0.81396 0.87868 0.0
O315 O 0.02151 0.82795 0.7394 0.0
O316 O 0.98242 0.82736 0.67768 0.0
C317 C 0.07333 0.81844 0.80784 0.0
C318 C 0.01678 0.8192 0.69818 0.0
Zn319 Zn 0.51809 0.62092 0.20065 0.0
Zn320 Zn 0.45087 0.60704 0.35394 0.0
Zn321 Zn 0.48522 0.61439 0.27739 0.0
C322 C 0.52557 0.64641 0.36866 0.0
C323 C 0.46206 0.53681 0.32821 0.0
O324 O 0.43926 0.64505 0.23188 0.0
O325 O 0.47807 0.65451 0.1709 0.0
C326 C 0.57946 0.64939 0.2559 0.0
O327 O 0.52994 0.63983 0.32673 0.0
O328 O 0.49162 0.63653 0.38882 0.0
O329 O 0.45217 0.55386 0.3629 0.0
O330 O 0.47456 0.55466 0.29295 0.0
O331 O 0.57491 0.6404 0.21582 0.0
O332 O 0.54896 0.64316 0.28442 0.0
O333 O 0.49799 0.55871 0.25266 0.0
O334 O 0.51731 0.5695 0.18275 0.0
C335 C 0.51 0.54707 0.21427 0.0
O336 O 0.42209 0.64377 0.27546 0.0
O337 O 0.39406 0.62832 0.34088 0.0
C338 C 0.44343 0.65887 0.19216 0.0
C339 C 0.39068 0.64474 0.30371 0.0
C340 C 0.08246 0.96015 0.31657 0.0
C341 C 0.07266 0.94002 0.35572 0.0
H342 H 0.07098 0.00952 0.27871 0.0
C343 C 0.03683 0.95042 0.38138 0.0
H344 H 0.10985 0.95289 0.2961 0.0
C345 C 0.01521 0.98297 0.37174 0.0
C346 C 0.02825 0.00504 0.33558 0.0
H347 H 0.02776 0.93494 0.41107 0.0
H348 H -0.00936 -0.00766 0.39459 0.0
C349 C 0.0602 -0.00749 0.3065 0.0
C350 C 0.43889 0.51875 0.88111 0.0
C351 C 0.4191 0.53759 0.84532 0.0
H352 H 0.46627 0.46852 0.90525 0.0
C353 C 0.41409 0.51974 0.80448 0.0
H354 H 0.44281 0.53159 0.91314 0.0
C355 C 0.42785 0.48356 0.79989 0.0
C356 C 0.44654 0.46451 0.83615 0.0
H357 H 0.39916 0.53363 0.77625 0.0
H358 H 0.42231 0.47008 0.76855 0.0
C359 C 0.45218 0.48258 0.87667 0.0
C360 C 0.51411 0.5303 0.68291 0.0
C361 C 0.54968 0.53998 0.70962 0.0
H362 H 0.46992 0.48786 0.66517 0.0
C363 C 0.55906 0.51813 0.74758 0.0
H364 H 0.5045 0.5472 0.65462 0.0
C365 C 0.53754 0.485 0.7548 0.0
C366 C 0.50715 0.47289 0.72369 0.0
H367 H 0.58593 0.52446 0.76922 0.0
H368 H 0.54834 0.46702 0.78166 0.0
C369 C 0.49375 0.49659 0.68924 0.0
C370 C 0.92487 0.94865 0.26534 0.0
C371 C 0.91796 0.93264 0.22359 0.0
H372 H 0.94153 -0.00284 0.30052 0.0
C373 C 0.92666 0.95334 0.18471 0.0
H374 H 0.9183 0.93346 0.29592 0.0
C375 C 0.94043 -0.0105 0.18736 0.0
C376 C 0.94594 0.006 0.22896 0.0
H377 H 0.92268 0.9416 0.15204 0.0
H378 H 0.94607 0.00475 0.1566 0.0
C379 C 0.93853 -0.01494 0.268 0.0
C380 C 0.92253 0.02675 0.76502 0.0
C381 C 0.92374 0.04441 0.72289 0.0
H382 H 0.93103 0.97643 0.80206 0.0
C383 C 0.93702 0.02435 0.68578 0.0
H384 H 0.91274 0.04148 0.79434 0.0
C385 C 0.94794 -0.01243 0.69034 0.0
C386 C 0.94598 0.96967 0.73211 0.0
H387 H 0.93772 0.03675 0.65271 0.0
H388 H 0.95707 0.97287 0.66074 0.0
C389 C 0.93359 -0.01032 0.76959 0.0
C390 C 0.54548 0.46326 0.15483 0.0
C391 C 0.5662 0.44325 0.1892 0.0
H392 H 0.5101 0.51113 0.13631 0.0
C393 C 0.56088 0.45469 0.23351 0.0
H394 H 0.54899 0.45596 0.1202 0.0
C395 C 0.53917 0.48725 0.24256 0.0
C396 C 0.52169 0.50853 0.20756 0.0
H397 H 0.57545 0.4396 0.261 0.0
H398 H 0.53886 0.49698 0.27645 0.0
C399 C 0.52332 0.4953 0.16398 0.0
C400 C 0.43348 0.44024 0.29442 0.0
C401 C 0.43511 0.42162 0.33597 0.0
H402 H 0.44087 0.4915 0.25912 0.0
C403 C 0.44896 0.44085 0.37356 0.0
H404 H 0.42334 0.42624 0.26468 0.0
C405 C 0.45974 0.47772 0.37012 0.0
C406 C 0.45687 0.49663 0.32907 0.0
H407 H 0.44992 0.42785 0.40628 0.0
H408 H 0.46917 0.49176 0.40012 0.0
C409 C 0.44416 0.47747 0.29104 0.0
C410 C 0.05345 0.01768 0.81885 0.0
C411 C 0.05839 0.03143 0.86218 0.0
H412 H 0.03256 0.97271 0.77927 0.0
C413 C 0.03789 0.01292 0.89791 0.0
H414 H 0.06798 0.03157 0.7904 0.0
C415 C 0.01682 0.9799 0.89125 0.0
C416 C 0.01588 0.96436 0.84887 0.0
H417 H 0.0411 0.02209 0.93187 0.0
H418 H 0.00414 0.96509 0.92003 0.0
C419 C 0.03255 0.98426 0.81228 0.0
C420 C 0.13665 0.13934 0.13908 0.0
C421 C 0.13547 0.16897 0.1083 0.0
H422 H 0.10574 0.11166 0.19396 0.0
C423 C 0.10562 0.19725 0.11601 0.0
H424 H 0.15835 0.11658 0.13466 0.0
C425 C 0.0745 0.19364 0.14973 0.0
C426 C 0.07377 0.16251 0.17762 0.0
H427 H 0.10434 0.22115 0.09434 0.0
H428 H 0.04931 0.21402 0.15215 0.0
C429 C 0.10632 0.13633 0.17344 0.0
C430 C 0.36367 0.30829 0.59391 0.0
C431 C 0.37696 0.27449 0.57693 0.0
H432 H 0.37358 0.3486 0.64376 0.0
C433 C 0.40268 0.25158 0.60431 0.0
H434 H 0.34411 0.32689 0.57405 0.0
C435 C 0.41972 0.26436 0.64443 0.0
C436 C 0.41061 0.29988 0.65825 0.0
H437 H 0.4126 0.22496 0.59303 0.0
H438 H 0.44358 0.24798 0.66207 0.0
C439 C 0.38031 0.32077 0.63424 0.0
C440 C 0.64091 0.32441 0.91226 0.0
C441 C 0.63721 0.29719 0.94608 0.0
H442 H 0.6114 0.35088 0.85565 0.0
C443 C 0.60429 0.27084 0.9417 0.0
H444 H 0.66534 0.34547 0.91369 0.0
C445 C 0.57231 0.27505 0.90905 0.0
C446 C 0.57375 0.30459 0.87871 0.0
H447 H 0.60121 0.24834 0.96536 0.0
H448 H 0.54484 0.25668 0.90946 0.0
C449 C 0.60978 0.32771 0.87859 0.0
C450 C 0.87975 0.20756 0.44934 0.0
C451 C 0.86128 0.1834 0.48122 0.0
H452 H 0.91602 0.21262 0.38838 0.0
C453 C 0.85556 0.14667 0.46956 0.0
H454 H 0.88372 0.23622 0.45661 0.0
C455 C 0.87315 0.13354 0.4301 0.0
C456 C 0.89677 0.15672 0.40144 0.0
H457 H 0.84176 0.12702 0.4929 0.0
H458 H 0.87267 0.10436 0.42466 0.0
C459 C 0.8975 0.19426 0.40973 0.0
C460 C 0.90058 0.75096 0.96603 0.0
C461 C 0.8746 0.77515 0.99016 0.0
H462 H 0.94153 0.74424 0.90917 0.0
C463 C 0.86074 0.80765 0.96889 0.0
H464 H 0.9111 0.72537 0.98107 0.0
C465 C 0.87745 0.81799 0.92704 0.0
C466 C 0.90818 0.79601 0.90604 0.0
H467 H 0.84079 0.82694 0.98647 0.0
H468 H 0.87052 0.84511 0.91392 0.0
C469 C 0.91744 0.76143 0.92447 0.0
C470 C 0.63607 0.65707 0.42013 0.0
C471 C 0.62493 0.67064 0.46237 0.0
H472 H 0.61311 0.63847 0.35691 0.0
C473 C 0.58244 0.6831 0.46883 0.0
H474 H 0.66866 0.64795 0.41345 0.0
C475 C 0.55109 0.67857 0.43597 0.0
C476 C 0.56118 0.6613 0.39584 0.0
H477 H 0.57211 0.69346 0.50069 0.0
H478 H 0.51805 0.68606 0.44345 0.0
C479 C 0.6044 0.65222 0.38725 0.0
C480 C 0.39155 0.71275 0.10144 0.0
C481 C 0.35877 0.68841 0.08866 0.0
H482 H 0.44375 0.72281 0.14635 0.0
C483 C 0.34665 0.66031 0.11892 0.0
H484 H 0.40204 0.73465 0.07925 0.0
C485 C 0.37063 0.65382 0.15802 0.0
C486 C 0.40714 0.67518 0.16709 0.0
H487 H 0.32097 0.64152 0.11061 0.0
H488 H 0.36373 0.62962 0.1781 0.0
C489 C 0.41553 0.70609 0.14017 0.0
C490 C 0.07419 0.77299 0.6047 0.0
C491 C 0.11321 0.79276 0.60311 0.0
H492 H 0.0127 0.76599 0.63655 0.0
C493 C 0.12361 0.81505 0.63953 0.0
H494 H 0.0656 0.75452 0.57833 0.0
C495 C 0.09377 0.82041 0.67394 0.0
C496 C 0.05279 0.80417 0.67209 0.0
H497 H 0.15313 0.83089 0.63979 0.0
H498 H 0.10118 0.84005 0.69946 0.0
C499 C 0.04402 0.77912 0.63839 0.0
C500 C 0.17765 0.19473 0.28423 0.0
C501 C 0.18713 0.21984 0.31797 0.0
H502 H 0.13197 0.15623 0.25865 0.0
C503 C 0.15456 0.2286 0.3486 0.0
H504 H 0.20193 0.1876 0.25989 0.0
C505 C 0.11465 0.21096 0.34745 0.0
C506 C 0.10611 0.18429 0.31551 0.0
H507 H 0.16073 0.24741 0.37534 0.0
H508 H 0.09105 0.21701 0.37297 0.0
C509 C 0.13741 0.17714 0.283 0.0
C510 C 0.28854 0.27301 0.82187 0.0
C511 C 0.29746 0.23674 0.81067 0.0
H512 H 0.31299 0.32744 0.82572 0.0
C513 C 0.33431 0.22946 0.78468 0.0
H514 H 0.26059 0.27964 0.84188 0.0
C515 C 0.36431 0.25716 0.77501 0.0
C516 C 0.35789 0.29226 0.79169 0.0
H517 H 0.34162 0.20182 0.77492 0.0
H518 H 0.39445 0.25019 0.75889 0.0
C519 C 0.31861 0.30047 0.81263 0.0
C520 C 0.66481 0.2592 0.76931 0.0
C521 C 0.70111 0.27425 0.74738 0.0
H522 H 0.59769 0.266 0.78619 0.0
C523 C 0.69799 0.30955 0.72858 0.0
H524 H 0.66636 0.2321 0.78428 0.0
C525 C 0.65907 0.32855 0.72938 0.0
C526 C 0.6223 0.31302 0.74946 0.0
H527 H 0.72509 0.32183 0.71101 0.0
H528 H 0.65731 0.355 0.7127 0.0
C529 C 0.62573 0.27866 0.77077 0.0
C530 C 0.78935 0.20098 0.23491 0.0
C531 C 0.79923 0.23733 0.24502 0.0
H532 H 0.81246 0.1461 0.23264 0.0
C533 C 0.83616 0.24451 0.27097 0.0
H534 H 0.7613 0.19443 0.21496 0.0
C535 C 0.8654 0.2165 0.28155 0.0
C536 C 0.85813 0.1812 0.26585 0.0
H537 H 0.8442 0.27222 0.27988 0.0
H538 H 0.89573 0.2233 0.29746 0.0
C539 C 0.81868 0.17321 0.24506 0.0
C540 C 0.82581 0.73352 0.78295 0.0
C541 C 0.78897 0.74074 0.75658 0.0
H542 H 0.88518 0.75472 0.809 0.0
C543 C 0.77869 0.77718 0.74584 0.0
H544 H 0.83404 0.70576 0.79262 0.0
C545 C 0.8077 0.80507 0.75559 0.0
C546 C 0.84738 0.79706 0.7763 0.0
H547 H 0.75063 0.78382 0.7257 0.0
H548 H 0.80115 0.83233 0.74267 0.0
C549 C 0.85482 0.7616 0.79292 0.0
C550 C 0.69815 0.66649 0.25425 0.0
C551 C 0.70046 0.70381 0.26423 0.0
H552 H 0.65764 0.61996 0.245 0.0
C553 C 0.66283 0.72136 0.2794 0.0
H554 H 0.72606 0.65205 0.24186 0.0
C555 C 0.62328 0.70253 0.28148 0.0
C556 C 0.62093 0.66607 0.26812 0.0
H557 H 0.66359 0.74998 0.28781 0.0
H558 H 0.59418 0.71714 0.29027 0.0
C559 C 0.65887 0.64796 0.25603 0.0
C560 C 0.32786 0.73121 0.28706 0.0
C561 C 0.29273 0.72412 0.31595 0.0
H562 H 0.38688 0.7108 0.25941 0.0
C563 C 0.28508 0.68793 0.33017 0.0
H564 H 0.33402 0.7586 0.27445 0.0
C565 C 0.31486 0.66062 0.32085 0.0
C566 C 0.35298 0.66887 0.29731 0.0
H567 H 0.25852 0.68119 0.35232 0.0
H568 H 0.31008 0.63378 0.33585 0.0
C569 C 0.35786 0.70373 0.27782 0.0
C570 C 0.14474 0.73682 0.79977 0.0
C571 C 0.1857 0.75323 0.80334 0.0
H572 H 0.07614 0.7453 0.79624 0.0
C573 C 0.18894 0.79141 0.79851 0.0
H574 H 0.14127 0.70747 0.80306 0.0
C575 C 0.1518 0.81287 0.79472 0.0
C576 C 0.11082 0.79658 0.79472 0.0
H577 H 0.2199 0.80497 0.80153 0.0
H578 H 0.15492 0.84233 0.79531 0.0
C579 C 0.10756 0.75837 0.79524 0.0
loop_
_geom_bond_atom_site_label_1
_geom_bond_atom_site_label_2
_geom_bond_distance
_geom_bond_site_symmetry_2
_ccdc_geom_bond_type
P0 O11 1.490 . S
P0 C14 1.812 . S
P0 C20 1.803 . S
P0 C26 1.819 . S
H1 C15 0.941 . S
H2 C16 0.939 . S
H3 C18 0.940 . S
H4 C19 0.940 . S
H5 C21 0.939 . S
H6 C22 0.942 . S
H7 C24 0.940 . S
H8 C25 0.939 . S
H9 C27 0.941 . S
H10 C31 0.939 . S
O11 P0 1.490 . S
H12 C28 0.939 . S
H13 C30 0.940 . S
C14 P0 1.812 . S
C14 C15 1.389 . S
C14 C19 1.391 . S
C15 H1 0.941 . S
C15 C14 1.389 . S
C15 C16 1.397 . S
C16 H2 0.939 . S
C16 C15 1.397 . S
C16 C17 1.378 . S
C17 C16 1.378 . S
C17 C18 1.378 . S
C18 H3 0.940 . S
C18 C17 1.378 . S
C18 C19 1.396 . S
C19 H4 0.940 . S
C19 C14 1.391 . S
C19 C18 1.396 . S
C20 P0 1.803 . S
C20 C21 1.378 . S
C20 C25 1.400 . S
C21 H5 0.939 . S
C21 C20 1.378 . S
C21 C22 1.361 . S
C22 H6 0.942 . S
C22 C21 1.361 . S
C22 C23 1.369 . S
C23 C22 1.369 . S
C23 C24 1.404 . S
C24 H7 0.940 . S
C24 C23 1.404 . S
C24 C25 1.389 . S
C25 H8 0.939 . S
C25 C20 1.400 . S
C25 C24 1.389 . S
C26 P0 1.819 . S
C26 C27 1.391 . S
C26 C31 1.391 . S
C27 H9 0.941 . S
C27 C26 1.391 . S
C27 C28 1.396 . S
C28 H12 0.939 . S
C28 C27 1.396 . S
C28 C29 1.397 . S
C29 C28 1.397 . S
C29 C30 1.385 . S
C30 H13 0.940 . S
C30 C29 1.385 . S
C30 C31 1.388 . S
C31 H10 0.939 . S
C31 C26 1.391 . S
C31 C30 1.388 . S
P32 O43 1.490 . S
P32 C46 1.812 . S
P32 C52 1.803 . S
P32 C58 1.819 . S
H33 C47 0.941 . S
H34 C48 0.939 . S
H35 C50 0.940 . S
H36 C51 0.940 . S
H37 C53 0.939 . S
H38 C54 0.942 . S
H39 C56 0.940 . S
H40 C57 0.939 . S
H41 C59 0.941 . S
H42 C63 0.939 . S
O43 P32 1.490 . S
H44 C60 0.939 . S
H45 C62 0.940 . S
C46 P32 1.812 . S
C46 C47 1.389 . S
C46 C51 1.391 . S
C47 H33 0.941 . S
C47 C46 1.389 . S
C47 C48 1.397 . S
C48 H34 0.939 . S
C48 C47 1.397 . S
C48 C49 1.378 . S
C49 C48 1.378 . S
C49 C50 1.378 . S
C50 H35 0.940 . S
C50 C49 1.378 . S
C50 C51 1.396 . S
C51 H36 0.940 . S
C51 C46 1.391 . S
C51 C50 1.396 . S
C52 P32 1.803 . S
C52 C53 1.378 . S
C52 C57 1.400 . S
C53 H37 0.939 . S
C53 C52 1.378 . S
C53 C54 1.361 . S
C54 H38 0.942 . S
C54 C53 1.361 . S
C54 C55 1.369 . S
C55 C54 1.369 . S
C55 C56 1.404 . S
C56 H39 0.940 . S
C56 C55 1.404 . S
C56 C57 1.389 . S
C57 H40 0.939 . S
C57 C52 1.400 . S
C57 C56 1.389 . S
C58 P32 1.819 . S
C58 C59 1.391 . S
C58 C63 1.391 . S
C59 H41 0.941 . S
C59 C58 1.391 . S
C59 C60 1.396 1_556 S
C60 H44 0.939 . S
C60 C59 1.396 1_554 S
C60 C61 1.397 . S
C61 C60 1.397 . S
C61 C62 1.385 1_554 S
C62 H45 0.940 . S
C62 C61 1.385 1_556 S
C62 C63 1.388 . S
C63 H42 0.939 . S
C63 C58 1.391 . S
C63 C62 1.388 . S
P64 O75 1.490 . S
P64 C78 1.812 . S
P64 C84 1.803 . S
P64 C90 1.819 . S
H65 C79 0.941 . S
H66 C80 0.939 . S
H67 C82 0.940 . S
H68 C83 0.940 . S
H69 C85 0.939 . S
H70 C86 0.942 . S
H71 C88 0.940 . S
H72 C89 0.939 . S
H73 C91 0.941 . S
H74 C95 0.939 . S
O75 P64 1.490 . S
H76 C92 0.939 . S
H77 C94 0.940 . S
C78 P64 1.812 . S
C78 C79 1.389 . S
C78 C83 1.391 . S
C79 H65 0.941 . S
C79 C78 1.389 . S
C79 C80 1.397 . S
C80 H66 0.939 . S
C80 C79 1.397 . S
C80 C81 1.378 . S
C81 C80 1.378 . S
C81 C82 1.378 . S
C82 H67 0.940 . S
C82 C81 1.378 . S
C82 C83 1.396 . S
C83 H68 0.940 . S
C83 C78 1.391 . S
C83 C82 1.396 . S
C84 P64 1.803 . S
C84 C85 1.378 . S
C84 C89 1.400 . S
C85 H69 0.939 . S
C85 C84 1.378 . S
C85 C86 1.361 . S
C86 H70 0.942 . S
C86 C85 1.361 . S
C86 C87 1.369 . S
C87 C86 1.369 . S
C87 C88 1.404 . S
C88 H71 0.940 . S
C88 C87 1.404 . S
C88 C89 1.389 . S
C89 H72 0.939 . S
C89 C84 1.400 . S
C89 C88 1.389 . S
C90 P64 1.819 . S
C90 C91 1.391 . S
C90 C95 1.391 . S
C91 H73 0.941 . S
C91 C90 1.391 . S
C91 C92 1.396 . S
C92 H76 0.939 . S
C92 C91 1.396 . S
C92 C93 1.397 . S
C93 C92 1.397 . S
C93 C94 1.385 . S
C94 H77 0.940 . S
C94 C93 1.385 . S
C94 C95 1.388 . S
C95 H74 0.939 . S
C95 C90 1.391 . S
C95 C94 1.388 . S
P96 O107 1.490 . S
P96 C110 1.812 . S
P96 C116 1.803 . S
P96 C122 1.819 . S
H97 C111 0.941 . S
H98 C112 0.939 . S
H99 C114 0.940 . S
H100 C115 0.940 . S
H101 C117 0.939 . S
H102 C118 0.942 . S
H103 C120 0.940 . S
H104 C121 0.939 . S
H105 C123 0.941 . S
H106 C127 0.939 . S
O107 P96 1.490 . S
H108 C124 0.939 . S
H109 C126 0.940 . S
C110 P96 1.812 . S
C110 C111 1.389 . S
C110 C115 1.391 . S
C111 H97 0.941 . S
C111 C110 1.389 . S
C111 C112 1.397 . S
C112 H98 0.939 . S
C112 C111 1.397 . S
C112 C113 1.378 . S
C113 C112 1.378 . S
C113 C114 1.378 . S
C114 H99 0.940 . S
C114 C113 1.378 . S
C114 C115 1.396 . S
C115 H100 0.940 . S
C115 C110 1.391 . S
C115 C114 1.396 . S
C116 P96 1.803 . S
C116 C117 1.378 . S
C116 C121 1.400 . S
C117 H101 0.939 . S
C117 C116 1.378 . S
C117 C118 1.361 . S
C118 H102 0.942 . S
C118 C117 1.361 . S
C118 C119 1.369 . S
C119 C118 1.369 . S
C119 C120 1.404 . S
C120 H103 0.940 . S
C120 C119 1.404 . S
C120 C121 1.389 . S
C121 H104 0.939 . S
C121 C116 1.400 . S
C121 C120 1.389 . S
C122 P96 1.819 . S
C122 C123 1.391 . S
C122 C127 1.391 . S
C123 H105 0.941 . S
C123 C122 1.391 . S
C123 C124 1.396 1_554 S
C124 H108 0.939 . S
C124 C123 1.396 1_556 S
C124 C125 1.397 . S
C125 C124 1.397 . S
C125 C126 1.385 1_556 S
C126 H109 0.940 . S
C126 C125 1.385 1_554 S
C126 C127 1.388 . S
C127 H106 0.939 . S
C127 C122 1.391 . S
C127 C126 1.388 . S
P128 O139 1.490 . S
P128 C142 1.812 . S
P128 C148 1.803 . S
P128 C154 1.819 . S
H129 C143 0.941 . S
H130 C144 0.939 . S
H131 C146 0.940 . S
H132 C147 0.940 . S
H133 C149 0.939 . S
H134 C150 0.942 . S
H135 C152 0.940 . S
H136 C153 0.939 . S
H137 C155 0.941 . S
H138 C159 0.939 . S
O139 P128 1.490 . S
H140 C156 0.939 . S
H141 C158 0.940 . S
C142 P128 1.812 . S
C142 C143 1.389 . S
C142 C147 1.391 . S
C143 H129 0.941 . S
C143 C142 1.389 . S
C143 C144 1.397 . S
C144 H130 0.939 . S
C144 C143 1.397 . S
C144 C145 1.378 . S
C145 C144 1.378 . S
C145 C146 1.378 . S
C146 H131 0.940 . S
C146 C145 1.378 . S
C146 C147 1.396 . S
C147 H132 0.940 . S
C147 C142 1.391 . S
C147 C146 1.396 . S
C148 P128 1.803 . S
C148 C149 1.378 . S
C148 C153 1.400 . S
C149 H133 0.939 . S
C149 C148 1.378 . S
C149 C150 1.361 . S
C150 H134 0.942 . S
C150 C149 1.361 . S
C150 C151 1.369 . S
C151 C150 1.369 . S
C151 C152 1.404 . S
C152 H135 0.940 . S
C152 C151 1.404 . S
C152 C153 1.389 . S
C153 H136 0.939 . S
C153 C148 1.400 . S
C153 C152 1.389 . S
C154 P128 1.819 . S
C154 C155 1.391 . S
C154 C159 1.391 . S
C155 H137 0.941 . S
C155 C154 1.391 . S
C155 C156 1.396 . S
C156 H140 0.939 . S
C156 C155 1.396 . S
C156 C157 1.397 . S
C157 C156 1.397 . S
C157 C158 1.385 . S
C158 H141 0.940 . S
C158 C157 1.385 . S
C158 C159 1.388 . S
C159 H138 0.939 . S
C159 C154 1.391 . S
C159 C158 1.388 . S
P160 O171 1.490 . S
P160 C174 1.812 . S
P160 C180 1.803 . S
P160 C186 1.819 . S
H161 C175 0.941 . S
H162 C176 0.939 . S
H163 C178 0.940 . S
H164 C179 0.940 . S
H165 C181 0.939 . S
H166 C182 0.942 . S
H167 C184 0.940 . S
H168 C185 0.939 . S
H169 C187 0.941 . S
H170 C191 0.939 . S
O171 P160 1.490 . S
H172 C188 0.939 . S
H173 C190 0.940 1_556 S
C174 P160 1.812 . S
C174 C175 1.389 . S
C174 C179 1.391 . S
C175 H161 0.941 . S
C175 C174 1.389 . S
C175 C176 1.397 . S
C176 H162 0.939 . S
C176 C175 1.397 . S
C176 C177 1.378 . S
C177 C176 1.378 . S
C177 C178 1.378 . S
C178 H163 0.940 . S
C178 C177 1.378 . S
C178 C179 1.396 . S
C179 H164 0.940 . S
C179 C174 1.391 . S
C179 C178 1.396 . S
C180 P160 1.803 . S
C180 C181 1.378 . S
C180 C185 1.400 . S
C181 H165 0.939 . S
C181 C180 1.378 . S
C181 C182 1.361 . S
C182 H166 0.942 . S
C182 C181 1.361 . S
C182 C183 1.369 . S
C183 C182 1.369 . S
C183 C184 1.404 . S
C184 H167 0.940 . S
C184 C183 1.404 . S
C184 C185 1.389 . S
C185 H168 0.939 . S
C185 C180 1.400 . S
C185 C184 1.389 . S
C186 P160 1.819 . S
C186 C187 1.391 . S
C186 C191 1.391 . S
C187 H169 0.941 . S
C187 C186 1.391 . S
C187 C188 1.396 . S
C188 H172 0.939 . S
C188 C187 1.396 . S
C188 C189 1.397 1_554 S
C189 C188 1.397 1_556 S
C189 C190 1.385 1_556 S
C190 H173 0.940 1_554 S
C190 C189 1.385 1_554 S
C190 C191 1.388 . S
C191 H170 0.939 . S
C191 C186 1.391 . S
C191 C190 1.388 . S
P192 O203 1.490 . S
P192 C206 1.812 . S
P192 C212 1.803 . S
P192 C218 1.819 . S
H193 C207 0.941 . S
H194 C208 0.939 . S
H195 C210 0.940 . S
H196 C211 0.940 . S
H197 C213 0.939 . S
H198 C214 0.942 . S
H199 C216 0.940 . S
H200 C217 0.939 . S
H201 C219 0.941 . S
H202 C223 0.939 . S
O203 P192 1.490 . S
H204 C220 0.939 . S
H205 C222 0.940 . S
C206 P192 1.812 . S
C206 C207 1.389 . S
C206 C211 1.391 . S
C207 H193 0.941 . S
C207 C206 1.389 . S
C207 C208 1.397 . S
C208 H194 0.939 . S
C208 C207 1.397 . S
C208 C209 1.378 . S
C209 C208 1.378 . S
C209 C210 1.378 . S
C210 H195 0.940 . S
C210 C209 1.378 . S
C210 C211 1.396 . S
C211 H196 0.940 . S
C211 C206 1.391 . S
C211 C210 1.396 . S
C212 P192 1.803 . S
C212 C213 1.378 . S
C212 C217 1.400 . S
C213 H197 0.939 . S
C213 C212 1.378 . S
C213 C214 1.361 . S
C214 H198 0.942 . S
C214 C213 1.361 . S
C214 C215 1.369 . S
C215 C214 1.369 . S
C215 C216 1.404 . S
C216 H199 0.940 . S
C216 C215 1.404 . S
C216 C217 1.389 . S
C217 H200 0.939 . S
C217 C212 1.400 . S
C217 C216 1.389 . S
C218 P192 1.819 . S
C218 C219 1.391 . S
C218 C223 1.391 . S
C219 H201 0.941 . S
C219 C218 1.391 . S
C219 C220 1.396 . S
C220 H204 0.939 . S
C220 C219 1.396 . S
C220 C221 1.397 . S
C221 C220 1.397 . S
C221 C222 1.385 . S
C222 H205 0.940 . S
C222 C221 1.385 . S
C222 C223 1.388 . S
C223 H202 0.939 . S
C223 C218 1.391 . S
C223 C222 1.388 . S
P224 O235 1.490 . S
P224 C238 1.812 . S
P224 C244 1.803 . S
P224 C250 1.819 . S
H225 C239 0.941 . S
H226 C240 0.939 . S
H227 C242 0.940 . S
H228 C243 0.940 . S
H229 C245 0.939 . S
H230 C246 0.942 . S
H231 C248 0.940 . S
H232 C249 0.939 . S
H233 C251 0.941 . S
H234 C255 0.939 . S
O235 P224 1.490 . S
H236 C252 0.939 . S
H237 C254 0.940 1_554 S
C238 P224 1.812 . S
C238 C239 1.389 . S
C238 C243 1.391 . S
C239 H225 0.941 . S
C239 C238 1.389 . S
C239 C240 1.397 . S
C240 H226 0.939 . S
C240 C239 1.397 . S
C240 C241 1.378 . S
C241 C240 1.378 . S
C241 C242 1.378 . S
C242 H227 0.940 . S
C242 C241 1.378 . S
C242 C243 1.396 . S
C243 H228 0.940 . S
C243 C238 1.391 . S
C243 C242 1.396 . S
C244 P224 1.803 . S
C244 C245 1.378 . S
C244 C249 1.400 . S
C245 H229 0.939 . S
C245 C244 1.378 . S
C245 C246 1.361 . S
C246 H230 0.942 . S
C246 C245 1.361 . S
C246 C247 1.369 . S
C247 C246 1.369 . S
C247 C248 1.404 . S
C248 H231 0.940 . S
C248 C247 1.404 . S
C248 C249 1.389 . S
C249 H232 0.939 . S
C249 C244 1.400 . S
C249 C248 1.389 . S
C250 P224 1.819 . S
C250 C251 1.391 . S
C250 C255 1.391 . S
C251 H233 0.941 . S
C251 C250 1.391 . S
C251 C252 1.396 . S
C252 H236 0.939 . S
C252 C251 1.396 . S
C252 C253 1.397 1_556 S
C253 C252 1.397 1_554 S
C253 C254 1.385 1_554 S
C254 H237 0.940 1_556 S
C254 C253 1.385 1_556 S
C254 C255 1.388 . S
C255 H234 0.939 . S
C255 C250 1.391 . S
C255 C254 1.388 . S
Zn256 O262 1.920 . S
Zn256 O268 1.898 . S
Zn256 O271 1.905 . S
Zn257 O265 1.905 1_655 S
Zn257 O266 1.898 . S
Zn257 O274 1.920 . S
Zn258 O261 2.080 1_455 S
Zn258 O264 2.114 . S
Zn258 O267 2.120 1_455 S
Zn258 O269 2.120 . S
Zn258 O270 2.114 . S
Zn258 O273 2.080 1_455 S
C259 O264 1.166 . S
C259 O265 1.182 . S
C260 O266 1.167 . S
C260 O267 1.299 . S
O261 Zn258 2.080 1_655 S
O261 C275 1.305 . S
O262 Zn256 1.920 . S
O262 C275 1.234 1_455 S
C263 O268 1.167 . S
C263 O269 1.299 . S
O264 Zn258 2.114 . S
O264 C259 1.166 . S
O265 Zn257 1.905 1_455 S
O265 C259 1.182 . S
O266 Zn257 1.898 . S
O266 C260 1.167 . S
O267 Zn258 2.120 1_655 S
O267 C260 1.299 . S
O268 Zn256 1.898 . S
O268 C263 1.167 . S
O269 Zn258 2.120 . S
O269 C263 1.299 . S
O270 Zn258 2.114 . S
O270 C272 1.166 . S
O271 Zn256 1.905 . S
O271 C272 1.182 . S
C272 O270 1.166 . S
C272 O271 1.182 . S
O273 Zn258 2.080 1_655 S
O273 C276 1.305 . S
O274 Zn257 1.920 . S
O274 C276 1.234 . S
C275 O261 1.305 . S
C275 O262 1.234 1_655 S
C276 O273 1.305 . S
C276 O274 1.234 . S
Zn277 O283 1.920 . S
Zn277 O289 1.898 . S
Zn277 O292 1.905 . S
Zn278 O286 1.905 . S
Zn278 O287 1.898 . S
Zn278 O295 1.920 . S
Zn279 O282 2.080 . S
Zn279 O285 2.114 . S
Zn279 O288 2.120 . S
Zn279 O290 2.120 . S
Zn279 O291 2.114 . S
Zn279 O294 2.080 . S
C280 O285 1.166 . S
C280 O286 1.182 . S
C281 O287 1.167 . S
C281 O288 1.299 . S
O282 Zn279 2.080 . S
O282 C296 1.305 . S
O283 Zn277 1.920 . S
O283 C296 1.234 . S
C284 O289 1.167 . S
C284 O290 1.299 . S
O285 Zn279 2.114 . S
O285 C280 1.166 . S
O286 Zn278 1.905 . S
O286 C280 1.182 . S
O287 Zn278 1.898 . S
O287 C281 1.167 . S
O288 Zn279 2.120 . S
O288 C281 1.299 . S
O289 Zn277 1.898 . S
O289 C284 1.167 . S
O290 Zn279 2.120 . S
O290 C284 1.299 . S
O291 Zn279 2.114 . S
O291 C293 1.166 . S
O292 Zn277 1.905 . S
O292 C293 1.182 . S
C293 O291 1.166 . S
C293 O292 1.182 . S
O294 Zn279 2.080 . S
O294 C297 1.305 . S
O295 Zn278 1.920 . S
O295 C297 1.234 . S
C296 O282 1.305 . S
C296 O283 1.234 . S
C297 O294 1.305 . S
C297 O295 1.234 . S
Zn298 O304 1.920 . S
Zn298 O310 1.898 . S
Zn298 O313 1.905 1_455 S
Zn299 O307 1.905 . S
Zn299 O308 1.898 . S
Zn299 O316 1.920 1_655 S
Zn300 O303 2.096 . S
Zn300 O306 2.097 1_455 S
Zn300 O309 2.105 1_455 S
Zn300 O311 2.138 . S
Zn300 O312 2.101 1_455 S
Zn300 O315 2.093 . S
C301 O306 1.166 . S
C301 O307 1.182 . S
C302 O308 1.167 . S
C302 O309 1.299 . S
O303 Zn300 2.096 . S
O303 C317 1.305 . S
O304 Zn298 1.920 . S
O304 C317 1.234 . S
C305 O310 1.167 . S
C305 O311 1.299 . S
O306 Zn300 2.097 1_655 S
O306 C301 1.166 . S
O307 Zn299 1.905 . S
O307 C301 1.182 . S
O308 Zn299 1.898 . S
O308 C302 1.167 . S
O309 Zn300 2.105 1_655 S
O309 C302 1.299 . S
O310 Zn298 1.898 . S
O310 C305 1.167 . S
O311 Zn300 2.138 . S
O311 C305 1.299 . S
O312 Zn300 2.101 1_655 S
O312 C314 1.166 . S
O313 Zn298 1.905 1_655 S
O313 C314 1.182 . S
C314 O312 1.166 . S
C314 O313 1.182 . S
O315 Zn300 2.093 . S
O315 C318 1.305 . S
O316 Zn299 1.920 1_455 S
O316 C318 1.234 . S
C317 O303 1.305 . S
C317 O304 1.234 . S
C318 O315 1.305 . S
C318 O316 1.234 . S
Zn319 O325 1.920 . S
Zn319 O331 1.898 . S
Zn319 O334 1.905 . S
Zn320 O328 1.905 . S
Zn320 O329 1.898 . S
Zn320 O337 1.920 . S
Zn321 O324 2.080 . S
Zn321 O327 2.114 . S
Zn321 O330 2.120 . S
Zn321 O332 2.120 . S
Zn321 O333 2.114 . S
Zn321 O336 2.080 . S
C322 O327 1.166 . S
C322 O328 1.182 . S
C323 O329 1.167 . S
C323 O330 1.299 . S
O324 Zn321 2.080 . S
O324 C338 1.305 . S
O325 Zn319 1.920 . S
O325 C338 1.234 . S
C326 O331 1.167 . S
C326 O332 1.299 . S
O327 Zn321 2.114 . S
O327 C322 1.166 . S
O328 Zn320 1.905 . S
O328 C322 1.182 . S
O329 Zn320 1.898 . S
O329 C323 1.167 . S
O330 Zn321 2.120 . S
O330 C323 1.299 . S
O331 Zn319 1.898 . S
O331 C326 1.167 . S
O332 Zn321 2.120 . S
O332 C326 1.299 . S
O333 Zn321 2.114 . S
O333 C335 1.166 . S
O334 Zn319 1.905 . S
O334 C335 1.182 . S
C335 O333 1.166 . S
C335 O334 1.182 . S
O336 Zn321 2.080 . S
O336 C339 1.305 . S
O337 Zn320 1.920 . S
O337 C339 1.234 . S
C338 O324 1.305 . S
C338 O325 1.234 . S
C339 O336 1.305 . S
C339 O337 1.234 . S
C340 C341 1.387 . S
C340 H344 0.950 . S
C340 C349 1.390 1_565 S
C341 C340 1.387 . S
C341 C343 1.387 . S
H342 C349 0.950 . S
C343 C341 1.387 . S
C343 C345 1.390 1_565 S
C343 H347 0.950 . S
H344 C340 0.950 . S
C345 C343 1.390 1_545 S
C345 C346 1.387 . S
C345 H348 0.950 . S
C346 C345 1.387 . S
C346 C349 1.387 . S
H347 C343 0.950 . S
H348 C345 0.950 . S
C349 C340 1.390 1_545 S
C349 H342 0.950 . S
C349 C346 1.387 . S
C350 C351 1.387 . S
C350 H354 0.950 . S
C350 C359 1.390 . S
C351 C350 1.387 . S
C351 C353 1.387 . S
H352 C359 0.950 . S
C353 C351 1.387 . S
C353 C355 1.390 . S
C353 H357 0.950 . S
H354 C350 0.950 . S
C355 C353 1.390 . S
C355 C356 1.387 . S
C355 H358 0.950 . S
C356 C355 1.387 . S
C356 C359 1.387 . S
H357 C353 0.950 . S
H358 C355 0.950 . S
C359 C350 1.390 . S
C359 H352 0.950 . S
C359 C356 1.387 . S
C360 C361 1.387 . S
C360 H364 0.950 . S
C360 C369 1.390 . S
C361 C360 1.387 . S
C361 C363 1.387 . S
H362 C369 0.950 . S
C363 C361 1.387 . S
C363 C365 1.390 . S
C363 H367 0.950 . S
H364 C360 0.950 . S
C365 C363 1.390 . S
C365 C366 1.387 . S
C365 H368 0.950 . S
C366 C365 1.387 . S
C366 C369 1.387 . S
H367 C363 0.950 . S
H368 C365 0.950 . S
C369 C360 1.390 . S
C369 H362 0.950 . S
C369 C366 1.387 . S
C370 C371 1.387 . S
C370 H374 0.950 . S
C370 C379 1.390 1_565 S
C371 C370 1.387 . S
C371 C373 1.387 . S
H372 C379 0.950 . S
C373 C371 1.387 . S
C373 C375 1.390 1_565 S
C373 H377 0.950 . S
H374 C370 0.950 . S
C375 C373 1.390 1_545 S
C375 C376 1.387 . S
C375 H378 0.950 . S
C376 C375 1.387 . S
C376 C379 1.387 . S
H377 C373 0.950 . S
H378 C375 0.950 . S
C379 C370 1.390 1_545 S
C379 H372 0.950 . S
C379 C376 1.387 . S
C380 C381 1.387 . S
C380 H384 0.950 . S
C380 C389 1.390 1_545 S
C381 C380 1.387 . S
C381 C383 1.387 . S
H382 C389 0.950 . S
C383 C381 1.387 . S
C383 C385 1.390 1_545 S
C383 H387 0.950 . S
H384 C380 0.950 . S
C385 C383 1.390 1_565 S
C385 C386 1.387 . S
C385 H388 0.950 . S
C386 C385 1.387 . S
C386 C389 1.387 . S
H387 C383 0.950 . S
H388 C385 0.950 . S
C389 C380 1.390 1_565 S
C389 H382 0.950 . S
C389 C386 1.387 . S
C390 C391 1.387 . S
C390 H394 0.950 . S
C390 C399 1.390 . S
C391 C390 1.387 . S
C391 C393 1.387 . S
H392 C399 0.950 . S
C393 C391 1.387 . S
C393 C395 1.390 . S
C393 H397 0.950 . S
H394 C390 0.950 . S
C395 C393 1.390 . S
C395 C396 1.387 . S
C395 H398 0.950 . S
C396 C395 1.387 . S
C396 C399 1.387 . S
H397 C393 0.950 . S
H398 C395 0.950 . S
C399 C390 1.390 . S
C399 H392 0.950 . S
C399 C396 1.387 . S
C400 C401 1.387 . S
C400 H404 0.950 . S
C400 C409 1.390 . S
C401 C400 1.387 . S
C401 C403 1.387 . S
H402 C409 0.950 . S
C403 C401 1.387 . S
C403 C405 1.390 . S
C403 H407 0.950 . S
H404 C400 0.950 . S
C405 C403 1.390 . S
C405 C406 1.387 . S
C405 H408 0.950 . S
C406 C405 1.387 . S
C406 C409 1.387 . S
H407 C403 0.950 . S
H408 C405 0.950 . S
C409 C400 1.390 . S
C409 H402 0.950 . S
C409 C406 1.387 . S
C410 C411 1.387 . S
C410 H414 0.950 . S
C410 C419 1.390 1_545 S
C411 C410 1.387 . S
C411 C413 1.387 . S
H412 C419 0.950 . S
C413 C411 1.387 . S
C413 C415 1.390 1_545 S
C413 H417 0.950 . S
H414 C410 0.950 . S
C415 C413 1.390 1_565 S
C415 C416 1.387 . S
C415 H418 0.950 . S
C416 C415 1.387 . S
C416 C419 1.387 . S
H417 C413 0.950 . S
H418 C415 0.950 . S
C419 C410 1.390 1_565 S
C419 H412 0.950 . S
C419 C416 1.387 . S
C420 C421 1.387 . S
C420 H424 0.950 . S
C420 C429 1.390 . S
C421 C420 1.387 . S
C421 C423 1.387 . S
H422 C429 0.950 . S
C423 C421 1.387 . S
C423 C425 1.390 . S
C423 H427 0.950 . S
H424 C420 0.950 . S
C425 C423 1.390 . S
C425 C426 1.387 . S
C425 H428 0.950 . S
C426 C425 1.387 . S
C426 C429 1.387 . S
H427 C423 0.950 . S
H428 C425 0.950 . S
C429 C420 1.390 . S
C429 H422 0.950 . S
C429 C426 1.387 . S
C430 C431 1.387 . S
C430 H434 0.950 . S
C430 C439 1.390 . S
C431 C430 1.387 . S
C431 C433 1.387 . S
H432 C439 0.950 . S
C433 C431 1.387 . S
C433 C435 1.390 . S
C433 H437 0.950 . S
H434 C430 0.950 . S
C435 C433 1.390 . S
C435 C436 1.387 . S
C435 H438 0.950 . S
C436 C435 1.387 . S
C436 C439 1.387 . S
H437 C433 0.950 . S
H438 C435 0.950 . S
C439 C430 1.390 . S
C439 H432 0.950 . S
C439 C436 1.387 . S
C440 C441 1.387 . S
C440 H444 0.950 . S
C440 C449 1.390 . S
C441 C440 1.387 . S
C441 C443 1.387 . S
H442 C449 0.950 . S
C443 C441 1.387 . S
C443 C445 1.390 . S
C443 H447 0.950 . S
H444 C440 0.950 . S
C445 C443 1.390 . S
C445 C446 1.387 . S
C445 H448 0.950 . S
C446 C445 1.387 . S
C446 C449 1.387 . S
H447 C443 0.950 . S
H448 C445 0.950 . S
C449 C440 1.390 . S
C449 H442 0.950 . S
C449 C446 1.387 . S
C450 C451 1.387 . S
C450 H454 0.950 . S
C450 C459 1.390 . S
C451 C450 1.387 . S
C451 C453 1.387 . S
H452 C459 0.950 . S
C453 C451 1.387 . S
C453 C455 1.390 . S
C453 H457 0.950 . S
H454 C450 0.950 . S
C455 C453 1.390 . S
C455 C456 1.387 . S
C455 H458 0.950 . S
C456 C455 1.387 . S
C456 C459 1.387 . S
H457 C453 0.950 . S
H458 C455 0.950 . S
C459 C450 1.390 . S
C459 H452 0.950 . S
C459 C456 1.387 . S
C460 C461 1.387 . S
C460 H464 0.950 . S
C460 C469 1.390 . S
C461 C460 1.387 . S
C461 C463 1.387 . S
H462 C469 0.950 . S
C463 C461 1.387 . S
C463 C465 1.390 . S
C463 H467 0.950 . S
H464 C460 0.950 . S
C465 C463 1.390 . S
C465 C466 1.387 . S
C465 H468 0.950 . S
C466 C465 1.387 . S
C466 C469 1.387 . S
H467 C463 0.950 . S
H468 C465 0.950 . S
C469 C460 1.390 . S
C469 H462 0.950 . S
C469 C466 1.387 . S
C470 C471 1.387 . S
C470 H474 0.950 . S
C470 C479 1.390 . S
C471 C470 1.387 . S
C471 C473 1.387 . S
H472 C479 0.950 . S
C473 C471 1.387 . S
C473 C475 1.390 . S
C473 H477 0.950 . S
H474 C470 0.950 . S
C475 C473 1.390 . S
C475 C476 1.387 . S
C475 H478 0.950 . S
C476 C475 1.387 . S
C476 C479 1.387 . S
H477 C473 0.950 . S
H478 C475 0.950 . S
C479 C470 1.390 . S
C479 H472 0.950 . S
C479 C476 1.387 . S
C480 C481 1.387 . S
C480 H484 0.950 . S
C480 C489 1.390 . S
C481 C480 1.387 . S
C481 C483 1.387 . S
H482 C489 0.950 . S
C483 C481 1.387 . S
C483 C485 1.390 . S
C483 H487 0.950 . S
H484 C480 0.950 . S
C485 C483 1.390 . S
C485 C486 1.387 . S
C485 H488 0.950 . S
C486 C485 1.387 . S
C486 C489 1.387 . S
H487 C483 0.950 . S
H488 C485 0.950 . S
C489 C480 1.390 . S
C489 H482 0.950 . S
C489 C486 1.387 . S
C490 C491 1.387 . S
C490 H494 0.950 . S
C490 C499 1.390 . S
C491 C490 1.387 . S
C491 C493 1.387 . S
H492 C499 0.950 . S
C493 C491 1.387 . S
C493 C495 1.390 . S
C493 H497 0.950 . S
H494 C490 0.950 . S
C495 C493 1.390 . S
C495 C496 1.387 . S
C495 H498 0.950 . S
C496 C495 1.387 . S
C496 C499 1.387 . S
H497 C493 0.950 . S
H498 C495 0.950 . S
C499 C490 1.390 . S
C499 H492 0.950 . S
C499 C496 1.387 . S
C500 C501 1.387 . S
C500 H504 0.950 . S
C500 C509 1.390 . S
C501 C500 1.387 . S
C501 C503 1.387 . S
H502 C509 0.950 . S
C503 C501 1.387 . S
C503 C505 1.390 . S
C503 H507 0.950 . S
H504 C500 0.950 . S
C505 C503 1.390 . S
C505 C506 1.387 . S
C505 H508 0.950 . S
C506 C505 1.387 . S
C506 C509 1.387 . S
H507 C503 0.950 . S
H508 C505 0.950 . S
C509 C500 1.390 . S
C509 H502 0.950 . S
C509 C506 1.387 . S
C510 C511 1.387 . S
C510 H514 0.950 . S
C510 C519 1.390 . S
C511 C510 1.387 . S
C511 C513 1.387 . S
H512 C519 0.950 . S
C513 C511 1.387 . S
C513 C515 1.390 . S
C513 H517 0.950 . S
H514 C510 0.950 . S
C515 C513 1.390 . S
C515 C516 1.387 . S
C515 H518 0.950 . S
C516 C515 1.387 . S
C516 C519 1.387 . S
H517 C513 0.950 . S
H518 C515 0.950 . S
C519 C510 1.390 . S
C519 H512 0.950 . S
C519 C516 1.387 . S
C520 C521 1.387 . S
C520 H524 0.950 . S
C520 C529 1.390 . S
C521 C520 1.387 . S
C521 C523 1.387 . S
H522 C529 0.950 . S
C523 C521 1.387 . S
C523 C525 1.390 . S
C523 H527 0.950 . S
H524 C520 0.950 . S
C525 C523 1.390 . S
C525 C526 1.387 . S
C525 H528 0.950 . S
C526 C525 1.387 . S
C526 C529 1.387 . S
H527 C523 0.950 . S
H528 C525 0.950 . S
C529 C520 1.390 . S
C529 H522 0.950 . S
C529 C526 1.387 . S
C530 C531 1.387 . S
C530 H534 0.950 . S
C530 C539 1.390 . S
C531 C530 1.387 . S
C531 C533 1.387 . S
H532 C539 0.950 . S
C533 C531 1.387 . S
C533 C535 1.390 . S
C533 H537 0.950 . S
H534 C530 0.950 . S
C535 C533 1.390 . S
C535 C536 1.387 . S
C535 H538 0.950 . S
C536 C535 1.387 . S
C536 C539 1.387 . S
H537 C533 0.950 . S
H538 C535 0.950 . S
C539 C530 1.390 . S
C539 H532 0.950 . S
C539 C536 1.387 . S
C540 C541 1.387 . S
C540 H544 0.950 . S
C540 C549 1.390 . S
C541 C540 1.387 . S
C541 C543 1.387 . S
H542 C549 0.950 . S
C543 C541 1.387 . S
C543 C545 1.390 . S
C543 H547 0.950 . S
H544 C540 0.950 . S
C545 C543 1.390 . S
C545 C546 1.387 . S
C545 H548 0.950 . S
C546 C545 1.387 . S
C546 C549 1.387 . S
H547 C543 0.950 . S
H548 C545 0.950 . S
C549 C540 1.390 . S
C549 H542 0.950 . S
C549 C546 1.387 . S
C550 C551 1.387 . S
C550 H554 0.950 . S
C550 C559 1.390 . S
C551 C550 1.387 . S
C551 C553 1.387 . S
H552 C559 0.950 . S
C553 C551 1.387 . S
C553 C555 1.390 . S
C553 H557 0.950 . S
H554 C550 0.950 . S
C555 C553 1.390 . S
C555 C556 1.387 . S
C555 H558 0.950 . S
C556 C555 1.387 . S
C556 C559 1.387 . S
H557 C553 0.950 . S
H558 C555 0.950 . S
C559 C550 1.390 . S
C559 H552 0.950 . S
C559 C556 1.387 . S
C560 C561 1.387 . S
C560 H564 0.950 . S
C560 C569 1.390 . S
C561 C560 1.387 . S
C561 C563 1.387 . S
H562 C569 0.950 . S
C563 C561 1.387 . S
C563 C565 1.390 . S
C563 H567 0.950 . S
H564 C560 0.950 . S
C565 C563 1.390 . S
C565 C566 1.387 . S
C565 H568 0.950 . S
C566 C565 1.387 . S
C566 C569 1.387 . S
H567 C563 0.950 . S
H568 C565 0.950 . S
C569 C560 1.390 . S
C569 H562 0.950 . S
C569 C566 1.387 . S
C570 C571 1.387 . S
C570 H574 0.950 . S
C570 C579 1.390 . S
C571 C570 1.387 . S
C571 C573 1.387 . S
H572 C579 0.950 . S
C573 C571 1.387 . S
C573 C575 1.390 . S
C573 H577 0.950 . S
H574 C570 0.950 . S
C575 C573 1.390 . S
C575 C576 1.387 . S
C575 H578 0.950 . S
C576 C575 1.387 . S
C576 C579 1.387 . S
H577 C573 0.950 . S
H578 C575 0.950 . S
C579 C570 1.390 . S
C579 H572 0.950 . S
C579 C576 1.387 . S
C341 C221 1.422 . S
C346 C272 1.458 . S
C356 C280 1.417 . S
C351 C241 1.451 . S
C366 C284 1.442 . S
C361 C157 1.415 . S
C371 C177 1.446 . S
C376 C260 1.404 . S
C386 C301 1.457 . S
C381 C93 1.486 . S
C396 C335 1.419 . S
C391 C113 1.411 . S
C401 C29 1.481 . S
C406 C323 1.443 . S
C411 C49 1.402 . S
C416 C305 1.402 . S
C426 C259 1.323 . S
C421 C61 1.429 . S
C436 C293 1.318 . S
C431 C17 1.475 . S
C446 C297 1.325 . S
C441 C125 1.436 . S
C456 C275 1.312 . S
C451 C81 1.474 . S
C466 C314 1.323 . S
C461 C189 1.457 . S
C471 C145 1.437 . S
C476 C322 1.317 . S
C486 C338 1.325 . S
C481 C253 1.457 . S
C491 C209 1.441 . S
C496 C318 1.317 . S
C506 C263 1.314 . S
C501 C23 1.509 . S
C516 C281 1.312 . S
C511 C55 1.469 . S
C521 C87 1.496 . S
C526 C296 1.316 . S
C536 C276 1.311 . S
C531 C119 1.463 . S
C546 C302 1.313 . S
C541 C151 1.471 . S
C551 C183 1.501 . S
C556 C326 1.312 . S
C561 C215 1.463 . S
C566 C339 1.312 . S
C571 C247 1.487 . S
C576 C317 1.309 . S
