# Generated by pormake.
# Topology nom, (4,4)-cn, num edge types: 1
# Building blocks:
#     Node 0, Type 0, BuildingBlock: KUFVIS_clean_linker_0, # of connection points: 4
#     Node 1, Type 0, BuildingBlock: KUFVIS_clean_linker_0, # of connection points: 4
#     Node 2, Type 0, BuildingBlock: KUFVIS_clean_linker_0, # of connection points: 4
#     Node 3, Type 0, BuildingBlock: KUFVIS_clean_linker_0, # of connection points: 4
#     Node 4, Type 0, BuildingBlock: KUFVIS_clean_linker_0, # of connection points: 4
#     Node 5, Type 0, BuildingBlock: KUFVIS_clean_linker_0, # of connection points: 4
#     Node 6, Type 1, BuildingBlock: TATPOV_clean_sbu_0, # of connection points: 4
#     Node 7, Type 1, BuildingBlock: TATPOV_clean_sbu_0, # of connection points: 4
#     Node 8, Type 1, BuildingBlock: TATPOV_clean_sbu_0, # of connection points: 4
#     Node 9, Type 1, BuildingBlock: TATPOV_clean_sbu_0, # of connection points: 4
#     Node 10, Type 1, BuildingBlock: TATPOV_clean_sbu_0, # of connection points: 4
#     Node 11, Type 1, BuildingBlock: TATPOV_clean_sbu_0, # of connection points: 4
#     Edge 12, Type (0, 1), BuildingBlock: XUDNAN_clean_linker_2, # of connection points: 2
#     Edge 13, Type (0, 1), BuildingBlock: XUDNAN_clean_linker_2, # of connection points: 2
#     Edge 14, Type (0, 1), BuildingBlock: XUDNAN_clean_linker_2, # of connection points: 2
#     Edge 15, Type (0, 1), BuildingBlock: XUDNAN_clean_linker_2, # of connection points: 2
#     Edge 16, Type (0, 1), BuildingBlock: XUDNAN_clean_linker_2, # of connection points: 2
#     Edge 17, Type (0, 1), BuildingBlock: XUDNAN_clean_linker_2, # of connection points: 2
#     Edge 18, Type (0, 1), BuildingBlock: XUDNAN_clean_linker_2, # of connection points: 2
#     Edge 19, Type (0, 1), BuildingBlock: XUDNAN_clean_linker_2, # of connection points: 2
#     Edge 20, Type (0, 1), BuildingBlock: XUDNAN_clean_linker_2, # of connection points: 2
#     Edge 21, Type (0, 1), BuildingBlock: XUDNAN_clean_linker_2, # of connection points: 2
#     Edge 22, Type (0, 1), BuildingBlock: XUDNAN_clean_linker_2, # of connection points: 2
#     Edge 23, Type (0, 1), BuildingBlock: XUDNAN_clean_linker_2, # of connection points: 2
#     Edge 24, Type (0, 1), BuildingBlock: XUDNAN_clean_linker_2, # of connection points: 2
#     Edge 25, Type (0, 1), BuildingBlock: XUDNAN_clean_linker_2, # of connection points: 2
#     Edge 26, Type (0, 1), BuildingBlock: XUDNAN_clean_linker_2, # of connection points: 2
#     Edge 27, Type (0, 1), BuildingBlock: XUDNAN_clean_linker_2, # of connection points: 2
#     Edge 28, Type (0, 1), BuildingBlock: XUDNAN_clean_linker_2, # of connection points: 2
#     Edge 29, Type (0, 1), BuildingBlock: XUDNAN_clean_linker_2, # of connection points: 2
#     Edge 30, Type (0, 1), BuildingBlock: XUDNAN_clean_linker_2, # of connection points: 2
#     Edge 31, Type (0, 1), BuildingBlock: XUDNAN_clean_linker_2, # of connection points: 2
#     Edge 32, Type (0, 1), BuildingBlock: XUDNAN_clean_linker_2, # of connection points: 2
#     Edge 33, Type (0, 1), BuildingBlock: XUDNAN_clean_linker_2, # of connection points: 2
#     Edge 34, Type (0, 1), BuildingBlock: XUDNAN_clean_linker_2, # of connection points: 2
#     Edge 35, Type (0, 1), BuildingBlock: XUDNAN_clean_linker_2, # of connection points: 2
# Relax obj value: 0.020
# Max RMSD: 0.118
# Mean RMSD: 0.080
data_MOF--net-nom--node1-TATPOV_clean_sbu_0--node2-KUFVIS_clean_linker_0--edge1-XUDNAN_clean_linker_2
_symmetry_space_group_name_H-M    P1
_symmetry_Int_Tables_number       1
_symmetry_cell_setting            triclinic
loop_
_symmetry_equiv_pos_as_xyz
'x, y, z'
_cell_length_a     44.80063
_cell_length_b     45.263811
_cell_length_c     47.496902
_cell_angle_alpha  90.628926
_cell_angle_beta   90.637488
_cell_angle_gamma 120.0205
loop_
_atom_site_label
_atom_site_type_symbol
_atom_site_fract_x
_atom_site_fract_y
_atom_site_fract_z
_atom_type_partial_charge
H0 H 0.15881 0.55303 0.31986 0.0
H1 H 0.07291 0.52893 0.26485 0.0
H2 H 0.05682 0.50176 0.35277 0.0
H3 H 1.01159 0.51023 0.34471 0.0
H4 H 0.92221 0.45339 0.29118 0.0
H5 H 1.02141 0.47848 0.26072 0.0
C6 C 0.13112 0.54078 0.31642 0.0
C7 C 0.1092 0.52749 0.33925 0.0
C8 C 0.11815 0.54119 0.28964 0.0
C9 C 0.08251 0.52737 0.28549 0.0
C10 C 0.05962 0.51217 0.30801 0.0
C11 C 0.07351 0.51275 0.33497 0.0
C12 C 1.02148 0.49599 0.30352 0.0
C13 C 1.00024 0.49681 0.325 0.0
C14 C 0.96425 0.48082 0.32102 0.0
C15 C 0.94966 0.46437 0.29518 0.0
C16 C 0.97025 0.46397 0.27351 0.0
C17 C 1.00597 0.47954 0.27766 0.0
H18 H 0.59934 0.1639 0.48299 0.0
H19 H 0.53391 0.08445 0.42419 0.0
H20 H 0.55456 0.06005 0.50752 0.0
H21 H 0.50254 1.01473 0.50139 0.0
H22 H 0.45807 0.9327 0.44083 0.0
H23 H 0.52869 0.03373 0.41332 0.0
C24 C 0.58444 0.13698 0.47733 0.0
C25 C 0.57866 0.11297 0.49784 0.0
C26 C 0.56877 0.12697 0.4506 0.0
C27 C 0.54704 0.09194 0.44448 0.0
C28 C 0.54179 0.06696 0.46466 0.0
C29 C 0.55799 0.07813 0.49139 0.0
C30 C 0.51888 0.02953 0.45821 0.0
C31 C 0.50088 1.00612 0.47979 0.0
C32 C 0.47943 0.97125 0.47349 0.0
C33 C 0.4754 0.95956 0.44562 0.0
C34 C 0.49275 0.98203 0.42389 0.0
C35 C 0.51468 1.01683 0.43027 0.0
H36 H 0.56399 0.45391 0.62753 0.0
H37 H 0.52829 0.50469 0.68265 0.0
H38 H 0.53778 0.52525 0.59327 0.0
H39 H 0.49119 0.53213 0.60226 0.0
H40 H 0.48067 0.60288 0.65597 0.0
H41 H 0.54064 0.55919 0.68486 0.0
C42 C 0.55528 0.47215 0.63078 0.0
C43 C 0.55087 0.48825 0.60753 0.0
C44 C 0.54818 0.4787 0.65796 0.0
C45 C 0.53534 0.50111 0.66169 0.0
C46 C 0.53152 0.51854 0.63852 0.0
C47 C 0.53994 0.51211 0.61141 0.0
C48 C 0.51856 0.54304 0.64266 0.0
C49 C 0.49811 0.54699 0.6217 0.0
C50 C 0.48489 0.56893 0.62647 0.0
C51 C 0.49213 0.58707 0.65196 0.0
C52 C 0.51166 0.58313 0.67311 0.0
C53 C 0.52527 0.56162 0.66829 0.0
H54 H 0.13102 0.56404 0.77283 0.0
H55 H 0.04997 0.51703 0.832 0.0
H56 H 0.02701 0.52547 0.74445 0.0
H57 H 0.97583 0.48128 0.75316 0.0
H58 H 0.89738 0.44974 0.81503 0.0
H59 H 1.00206 0.51397 0.84084 0.0
C60 C 0.10391 0.55244 0.77781 0.0
C61 C 0.08009 0.54553 0.756 0.0
C62 C 0.09325 0.54301 0.8054 0.0
C63 C 0.05775 0.52571 0.81085 0.0
C64 C 0.03282 0.51921 0.78932 0.0
C65 C 0.04475 0.52969 0.76169 0.0
C66 C 0.99483 0.50101 0.79581 0.0
C67 C 0.96903 0.4828 0.77468 0.0
C68 C 0.93382 0.46555 0.78149 0.0
C69 C 0.92433 0.46477 0.80945 0.0
C70 C 0.94911 0.48121 0.83063 0.0
C71 C 0.98391 0.50039 0.82382 0.0
H72 H 0.51333 0.90053 -0.00778 0.0
H73 H 0.56033 0.97522 0.92793 0.0
H74 H 0.55664 1.00578 0.01416 0.0
H75 H 0.60295 0.05431 0.00199 0.0
H76 H 0.61317 0.12741 0.94093 0.0
H77 H 0.55546 0.02108 0.91901 0.0
C78 C 0.52741 0.92694 -0.01422 0.0
C79 C 0.5356 0.9525 0.00598 0.0
C80 C 0.536 0.93475 0.95756 0.0
C81 C 0.55319 0.96928 0.94969 0.0
C82 C 0.56124 0.99579 0.96988 0.0
C83 C 0.55211 0.98669 -0.00183 0.0
C84 C 0.57744 0.03252 0.96147 0.0
C85 C 0.59738 0.05953 -0.01899 0.0
C86 C 0.60938 0.09366 0.97382 0.0
C87 C 0.60371 0.10103 0.94648 0.0
C88 C 0.58507 0.07512 0.92651 0.0
C89 C 0.57136 0.04093 0.93422 0.0
H90 H 0.49395 0.60684 0.12492 0.0
H91 H 0.54992 0.5815 0.18446 0.0
H92 H 0.52697 0.53664 0.10048 0.0
H93 H 0.5758 0.535 0.10815 0.0
H94 H 0.58616 0.46892 0.16616 0.0
H95 H 0.54261 0.52922 0.19436 0.0
C96 C 0.50788 0.59357 0.12974 0.0
C97 C 0.51011 0.5724 0.10929 0.0
C98 C 0.52158 0.59643 0.15691 0.0
C99 C 0.53915 0.57881 0.16345 0.0
C100 C 0.5415 0.55693 0.14312 0.0
C101 C 0.52667 0.55403 0.11614 0.0
C102 C 0.55659 0.53482 0.15018 0.0
C103 C 0.57182 0.52453 0.12905 0.0
C104 C 0.58152 0.5001 0.13467 0.0
C105 C 0.57759 0.487 0.16165 0.0
C106 C 0.56453 0.49817 0.18325 0.0
C107 C 0.55385 0.52187 0.17756 0.0
Zn108 Zn 0.71114 0.49458 0.39901 0.0
Zn109 Zn 0.68264 0.42566 0.39645 0.0
O110 O 0.73541 0.44458 0.3954 0.0
O111 O 0.75874 0.50041 0.39882 0.0
O112 O 0.66246 0.37423 0.39584 0.0
O113 O 0.6871 0.49064 0.43543 0.0
O114 O 0.66318 0.43469 0.43249 0.0
C115 C 0.76207 0.4743 0.39678 0.0
C116 C 0.66471 0.46234 0.35133 0.0
O117 O 0.66158 0.43507 0.36162 0.0
O118 O 0.68507 0.49103 0.36284 0.0
C119 C 0.6314 0.35362 0.3882 0.0
O120 O 0.61168 0.36593 0.38017 0.0
C121 C 0.66686 0.46141 0.44503 0.0
Zn122 Zn 0.24419 0.70007 0.55124 0.0
Zn123 Zn 0.2888 0.67633 0.55678 0.0
O124 O 0.31982 0.7289 0.55476 0.0
O125 O 0.28404 0.74821 0.54762 0.0
O126 O 0.3236 0.6602 0.55951 0.0
O127 O 0.22431 0.6801 0.58908 0.0
O128 O 0.25728 0.65677 0.59095 0.0
C129 C 0.31455 0.75372 0.55048 0.0
C130 C 0.23619 0.65107 0.50797 0.0
O131 O 0.26191 0.65225 0.52076 0.0
O132 O 0.22375 0.66915 0.5167 0.0
C133 C 0.31726 0.63191 0.56994 0.0
O134 O 0.2868 0.61184 0.58053 0.0
C135 C 0.23317 0.66069 0.60101 0.0
Zn136 Zn 0.55424 0.23064 0.72124 0.0
Zn137 Zn 0.62287 0.26744 0.73099 0.0
O138 O 0.60664 0.30331 0.73294 0.0
O139 O 0.55019 0.27241 0.72731 0.0
O140 O 0.67523 0.29431 0.73579 0.0
O141 O 0.54975 0.20119 0.75366 0.0
O142 O 0.60567 0.23127 0.76252 0.0
C143 C 0.57707 0.30105 0.73167 0.0
C144 C 0.59273 0.22526 0.67608 0.0
O145 O 0.61797 0.24493 0.69226 0.0
O146 O 0.56216 0.21614 0.68307 0.0
C147 C 0.69384 0.32624 0.73184 0.0
O148 O 0.67895 0.34413 0.7258 0.0
C149 C 0.57586 0.20635 0.76813 0.0
Zn150 Zn 0.35834 0.56461 0.88286 0.0
Zn151 Zn 0.38795 0.63058 0.89467 0.0
O152 O 0.3356 0.61541 0.89014 0.0
O153 O 0.31178 0.56001 0.88208 0.0
O154 O 0.41223 0.68183 0.90204 0.0
O155 O 0.37591 0.55651 0.91865 0.0
O156 O 0.40067 0.61125 0.92965 0.0
C157 C 0.30885 0.58613 0.88583 0.0
C158 C 0.40915 0.60349 0.84318 0.0
O159 O 0.41218 0.62798 0.85876 0.0
O160 O 0.38663 0.57307 0.84846 0.0
C161 C 0.41121 0.70147 0.88354 0.0
O162 O 0.39298 0.68794 0.86028 0.0
C163 C 0.39392 0.58105 0.93554 0.0
Zn164 Zn 0.81984 0.46763 0.06027 0.0
Zn165 Zn 0.78094 0.3981 0.05651 0.0
O166 O 0.74417 0.41295 0.06015 0.0
O167 O 0.77576 0.46891 0.06471 0.0
O168 O 0.75529 0.34633 0.05349 0.0
O169 O 0.83829 0.46864 0.02155 0.0
O170 O 0.80933 0.41237 0.02046 0.0
C171 C 0.74644 0.44206 0.06351 0.0
C172 C 0.83578 0.4332 0.10351 0.0
O173 O 0.81116 0.40673 0.09161 0.0
O174 O 0.84484 0.46254 0.09411 0.0
C175 C 0.72436 0.32731 0.04482 0.0
O176 O 0.70606 0.34134 0.03722 0.0
C177 C 0.83039 0.44062 0.00929 0.0
Zn178 Zn 0.35789 0.80224 0.20543 0.0
Zn179 Zn 0.40007 0.77823 0.22203 0.0
O180 O 0.35015 0.73719 0.22112 0.0
O181 O 0.31516 0.75601 0.20903 0.0
O182 O 0.42984 0.75661 0.22942 0.0
O183 O 0.38307 0.818 0.1688 0.0
O184 O 0.41989 0.80341 0.18533 0.0
C185 C 0.31976 0.73167 0.21604 0.0
C186 C 0.40022 0.83491 0.25638 0.0
O187 O 0.4105 0.81334 0.25384 0.0
O188 O 0.37852 0.83476 0.23891 0.0
C189 C 0.42008 0.72761 0.21784 0.0
O190 O 0.39148 0.7132 0.20258 0.0
C191 C 0.41092 0.81745 0.16652 0.0
H192 H 0.13119 0.60015 0.26475 0.0
H193 H 0.1636 0.52478 0.2674 0.0
H194 H 0.21624 0.5634 0.24161 0.0
H195 H 0.1721 0.6392 0.19414 0.0
H196 H 0.18406 0.6813 0.20721 0.0
H197 H 0.14525 0.6447 0.21919 0.0
H198 H 0.16685 0.66221 0.27076 0.0
H199 H 0.20594 0.69833 0.25907 0.0
H200 H 0.20801 0.66737 0.28133 0.0
H201 H 0.27005 0.61381 0.22561 0.0
H202 H 0.31944 0.67104 0.2167 0.0
H203 H 0.25245 0.71425 0.22379 0.0
C204 C 0.14849 0.59119 0.25841 0.0
C205 C 0.14316 0.55933 0.26732 0.0
C206 C 0.16705 0.54886 0.26008 0.0
C207 C 0.19702 0.57068 0.24555 0.0
C208 C 0.20258 0.60279 0.23833 0.0
C209 C 0.17868 0.61284 0.24403 0.0
C210 C 0.19287 0.65016 0.23742 0.0
C211 C 0.17235 0.65406 0.21303 0.0
C212 C 0.19345 0.6707 0.26371 0.0
C213 C 0.22901 0.65993 0.22859 0.0
C214 C 0.23395 0.63214 0.22891 0.0
C215 C 0.26625 0.63557 0.2245 0.0
C216 C 0.29422 0.66822 0.21967 0.0
C217 C 0.28973 0.69703 0.21927 0.0
C218 C 0.25653 0.6926 0.22336 0.0
H219 H 0.62837 0.18572 0.43893 0.0
H220 H 0.51883 0.13043 0.41898 0.0
H221 H 0.52456 0.18121 0.395 0.0
H222 H 0.63195 0.25971 0.45912 0.0
H223 H 0.674 0.2883 0.44548 0.0
H224 H 0.6631 0.24588 0.45528 0.0
H225 H 0.67774 0.23396 0.40532 0.0
H226 H 0.68922 0.27665 0.3954 0.0
H227 H 0.6574 0.24054 0.37496 0.0
H228 H 0.54063 0.24079 0.38023 0.0
H229 H 0.56569 0.30286 0.37444 0.0
H230 H 0.66436 0.31954 0.40596 0.0
C231 C 0.60575 0.18396 0.42879 0.0
C232 C 0.57316 0.15404 0.43073 0.0
C233 C 0.54415 0.15281 0.41735 0.0
C234 C 0.54715 0.18165 0.40384 0.0
C235 C 0.57938 0.21136 0.40371 0.0
C236 C 0.60826 0.21252 0.41555 0.0
C237 C 0.63909 0.24833 0.41548 0.0
C238 C 0.65281 0.2613 0.44563 0.0
C239 C 0.66754 0.24996 0.39666 0.0
C240 C 0.6228 0.26752 0.40275 0.0
C241 C 0.58849 0.24572 0.39567 0.0
C242 C 0.5676 0.25797 0.38525 0.0
C243 C 0.58207 0.29334 0.38215 0.0
C244 C 0.61705 0.31616 0.38968 0.0
C245 C 0.63764 0.30284 0.39976 0.0
H246 H 0.41638 0.54243 0.6325 0.0
H247 H 0.50088 0.60504 0.57799 0.0
H248 H 0.46414 0.62361 0.55328 0.0
H249 H 0.34378 0.5193 0.57912 0.0
H250 H 0.317 0.52185 0.60598 0.0
H251 H 0.34745 0.50824 0.61484 0.0
H252 H 0.37435 0.55568 0.65347 0.0
H253 H 0.34469 0.57 0.6444 0.0
H254 H 0.39046 0.59948 0.64397 0.0
H255 H 0.42211 0.64347 0.5412 0.0
H256 H 0.37649 0.65897 0.53939 0.0
H257 H 0.31898 0.58253 0.60163 0.0
C258 C 0.42641 0.55865 0.61438 0.0
C259 C 0.46098 0.5717 0.60651 0.0
C260 C 0.47408 0.59409 0.58364 0.0
C261 C 0.45346 0.60491 0.5697 0.0
C262 C 0.41984 0.59279 0.57884 0.0
C263 C 0.40617 0.56956 0.60031 0.0
C264 C 0.37076 0.56314 0.60822 0.0
C265 C 0.34311 0.52592 0.60163 0.0
C266 C 0.37006 0.57266 0.63935 0.0
C267 C 0.36715 0.58742 0.58871 0.0
C268 C 0.39558 0.60413 0.57178 0.0
C269 C 0.39939 0.62994 0.55386 0.0
C270 C 0.37345 0.63875 0.55314 0.0
C271 C 0.34403 0.62179 0.57022 0.0
C272 C 0.34085 0.59557 0.58797 0.0
H273 H 0.88366 0.47823 0.76419 0.0
H274 H 0.91876 0.40527 0.75622 0.0
H275 H 0.86128 0.36207 0.73727 0.0
H276 H 0.80686 0.42523 0.79067 0.0
H277 H 0.78201 0.44111 0.77305 0.0
H278 H 0.82748 0.46876 0.77911 0.0
H279 H 0.83686 0.48106 0.72587 0.0
H280 H 0.79113 0.45424 0.71959 0.0
H281 H 0.82105 0.446 0.70083 0.0
H282 H 0.79713 0.32393 0.72966 0.0
H283 H 0.7335 0.29592 0.72747 0.0
H284 H 0.74045 0.39433 0.73941 0.0
C285 C 0.87972 0.45378 0.7568 0.0
C286 C 0.90573 0.44522 0.76085 0.0
C287 C 0.89944 0.41254 0.75236 0.0
C288 C 0.86675 0.38779 0.74189 0.0
C289 C 0.8409 0.39639 0.73976 0.0
C290 C 0.84734 0.42895 0.74626 0.0
C291 C 0.81449 0.43082 0.74504 0.0
C292 C 0.80731 0.44213 0.77367 0.0
C293 C 0.81597 0.45442 0.72142 0.0
C294 C 0.7883 0.39393 0.73814 0.0
C295 C 0.804 0.37446 0.73504 0.0
C296 C 0.78469 0.3391 0.73129 0.0
C297 C 0.74854 0.32337 0.73034 0.0
C298 C 0.732 0.34296 0.73304 0.0
C299 C 0.75232 0.37872 0.73679 0.0
H300 H 0.53894 0.87621 0.9636 0.0
H301 H 0.50472 0.9271 0.90569 0.0
H302 H 0.47316 0.8736 0.87738 0.0
H303 H 0.54382 0.81593 0.91216 0.0
H304 H 0.52722 0.78213 0.93738 0.0
H305 H 0.55268 0.82595 0.94923 0.0
H306 H 0.5033 0.8176 -0.01801 0.0
H307 H 0.47743 0.77405 0.96992 0.0
H308 H 0.46085 0.80292 0.96716 0.0
H309 H 0.43882 0.8122 0.85932 0.0
H310 H 0.40663 0.74959 0.85216 0.0
H311 H 0.46043 0.73865 0.92427 0.0
C312 C 0.52554 0.87639 0.94454 0.0
C313 C 0.52434 0.90591 0.93685 0.0
C314 C 0.5065 0.90504 0.91177 0.0
C315 C 0.48826 0.87463 0.8957 0.0
C316 C 0.48828 0.84544 0.90494 0.0
C317 C 0.50682 0.84626 0.92866 0.0
C318 C 0.49991 0.81091 0.936 0.0
C319 C 0.53287 0.8086 0.93353 0.0
C320 C 0.48445 0.80079 0.96551 0.0
C321 C 0.47375 0.78978 0.9132 0.0
C322 C 0.46776 0.81015 0.8952 0.0
C323 C 0.44366 0.79613 0.87311 0.0
C324 C 0.4254 0.76048 0.86928 0.0
C325 C 0.43091 0.73913 0.88768 0.0
C326 C 0.45555 0.75418 0.90985 0.0
H327 H 0.64622 0.53552 0.11407 0.0
H328 H 0.55281 0.43705 0.11038 0.0
H329 H 0.5837 0.41232 0.0855 0.0
H330 H 0.68398 0.52636 0.0452 0.0
H331 H 0.72686 0.54777 0.0605 0.0
H332 H 0.69559 0.55912 0.0719 0.0
H333 H 0.70546 0.54741 0.12345 0.0
H334 H 0.73616 0.53541 0.11226 0.0
H335 H 0.69937 0.50611 0.13221 0.0
H336 H 0.62694 0.39627 0.06912 0.0
H337 H 0.67839 0.39094 0.06029 0.0
H338 H 0.74375 0.49998 0.07518 0.0
C339 C 0.63201 0.50924 0.10662 0.0
C340 C 0.59705 0.48831 0.11328 0.0
C341 C 0.57943 0.45355 0.10467 0.0
C342 C 0.59681 0.43932 0.09067 0.0
C343 C 0.63179 0.46025 0.08546 0.0
C344 C 0.64911 0.49463 0.0928 0.0
C345 C 0.68744 0.51057 0.08804 0.0
C346 C 0.69915 0.53755 0.06503 0.0
C347 C 0.7083 0.52574 0.11563 0.0
C348 C 0.68916 0.47956 0.0781 0.0
C349 C 0.65681 0.45086 0.07635 0.0
C350 C 0.65235 0.41873 0.06982 0.0
C351 C 0.68173 0.4159 0.06498 0.0
C352 C 0.71514 0.44502 0.0669 0.0
C353 C 0.71861 0.47723 0.0732 0.0
H354 H 0.41018 0.93503 0.47981 0.0
H355 H 0.50625 0.94883 0.51424 0.0
H356 H 0.47384 0.89666 0.54242 0.0
H357 H 0.35732 0.89775 0.5449 0.0
H358 H 0.31995 0.86906 0.52384 0.0
H359 H 0.35059 0.91035 0.51062 0.0
H360 H 0.35761 0.88117 0.46595 0.0
H361 H 0.32757 0.83985 0.47916 0.0
H362 H 0.37028 0.84934 0.46968 0.0
H363 H 0.43122 0.83749 0.55961 0.0
H364 H 0.38193 0.77979 0.56823 0.0
H365 H 0.31376 0.80651 0.52399 0.0
C366 C 0.42418 0.92777 0.49426 0.0
C367 C 0.46052 0.94604 0.49541 0.0
C368 C 0.47832 0.93545 0.51371 0.0
C369 C 0.46012 0.90578 0.5296 0.0
C370 C 0.42419 0.88746 0.52717 0.0
C371 C 0.4064 0.89853 0.51041 0.0
C372 C 0.36812 0.87307 0.50959 0.0
C373 C 0.3478 0.88848 0.52305 0.0
C374 C 0.35517 0.8601 0.47931 0.0
C375 C 0.3672 0.84525 0.52756 0.0
C376 C 0.39971 0.85395 0.53762 0.0
C377 C 0.40554 0.83079 0.55245 0.0
C378 C 0.37745 0.79802 0.55712 0.0
C379 C 0.34393 0.7888 0.54713 0.0
C380 C 0.3389 0.81301 0.53248 0.0
H381 H 0.60394 0.47144 0.6689 0.0
H382 H 0.50211 0.44243 0.69894 0.0
H383 H 0.50444 0.40017 0.73005 0.0
H384 H 0.59028 0.39289 0.65986 0.0
H385 H 0.6324 0.40067 0.67052 0.0
H386 H 0.62746 0.43495 0.65721 0.0
H387 H 0.65583 0.47069 0.70271 0.0
H388 H 0.66129 0.43653 0.71614 0.0
H389 H 0.6388 0.45287 0.73651 0.0
H390 H 0.51147 0.35265 0.74807 0.0
H391 H 0.5235 0.30544 0.75332 0.0
H392 H 0.62118 0.36474 0.71194 0.0
C393 C 0.58273 0.45709 0.68291 0.0
C394 C 0.55288 0.46021 0.68166 0.0
C395 C 0.52541 0.44081 0.69993 0.0
C396 C 0.52653 0.41669 0.7176 0.0
C397 C 0.55552 0.41273 0.71701 0.0
C398 C 0.58345 0.43287 0.70047 0.0
C399 C 0.60919 0.4204 0.70036 0.0
C400 C 0.61514 0.4117 0.67021 0.0
C401 C 0.6433 0.44669 0.7148 0.0
C402 C 0.59033 0.38869 0.71784 0.0
C403 C 0.55977 0.38514 0.72775 0.0
C404 C 0.53578 0.35569 0.7412 0.0
C405 C 0.54276 0.32893 0.74396 0.0
C406 C 0.57348 0.33173 0.73338 0.0
C407 C 0.59803 0.36243 0.72099 0.0
H408 H 0.15769 0.59947 0.81262 0.0
H409 H 0.0892 0.50032 0.84782 0.0
H410 H 0.13608 0.50716 0.87963 0.0
H411 H 0.22632 0.58746 0.8069 0.0
H412 H 0.25934 0.63071 0.81524 0.0
H413 H 0.21875 0.62236 0.80037 0.0
H414 H 0.21024 0.65394 0.84261 0.0
H415 H 0.25101 0.66251 0.85764 0.0
H416 H 0.21238 0.64099 0.87798 0.0
H417 H 0.19173 0.51892 0.90051 0.0
H418 H 0.25228 0.53447 0.90884 0.0
H419 H 0.28635 0.62555 0.85966 0.0
C420 C 0.15229 0.57949 0.82745 0.0
C421 C 0.11956 0.54939 0.82774 0.0
C422 C 0.11367 0.52392 0.8475 0.0
C423 C 0.14026 0.52755 0.86564 0.0
C424 C 0.17257 0.55686 0.86391 0.0
C425 C 0.17867 0.58254 0.84544 0.0
C426 C 0.21671 0.60919 0.84494 0.0
C427 C 0.2311 0.6126 0.8151 0.0
C428 C 0.22294 0.6437 0.85649 0.0
C429 C 0.23135 0.59351 0.86487 0.0
C430 C 0.20527 0.56371 0.87604 0.0
C431 C 0.2123 0.5426 0.8925 0.0
C432 C 0.24675 0.55158 0.89703 0.0
C433 C 0.27382 0.58141 0.88519 0.0
C434 C 0.26609 0.60319 0.86962 0.0
H435 H 0.59202 0.14182 -0.01449 0.0
H436 H 0.66696 0.11151 0.00698 0.0
H437 H 0.70221 0.1666 0.03284 0.0
H438 H 0.64996 0.22365 0.96886 0.0
H439 H 0.626 0.24278 -0.01758 0.0
H440 H 0.60365 0.19886 0.97084 0.0
H441 H 0.57536 0.1803 0.01958 0.0
H442 H 0.59726 0.22432 0.03128 0.0
H443 H 0.60219 0.19318 0.051 0.0
H444 H 0.73308 0.22858 0.0499 0.0
H445 H 0.75572 0.29023 0.05816 0.0
H446 H 0.66047 0.27962 0.0241 0.0
C447 C 0.61535 0.14638 -0.00358 0.0
C448 C 0.6268 0.12247 -0.00557 0.0
C449 C 0.65757 0.12934 0.00864 0.0
C450 C 0.67776 0.16061 0.02322 0.0
C451 C 0.66651 0.18439 0.02356 0.0
C452 C 0.63571 0.17733 0.01081 0.0
C453 C 0.63077 0.20806 0.0116 0.0
C454 C 0.62742 0.21897 -0.01834 0.0
C455 C 0.59954 0.20104 0.02944 0.0
C456 C 0.66418 0.23408 0.02591 0.0
C457 C 0.68431 0.21992 0.03301 0.0
C458 C 0.71725 0.23971 0.04484 0.0
C459 C 0.72994 0.27478 0.04936 0.0
C460 C 0.70986 0.28985 0.04186 0.0
C461 C 0.67639 0.26895 0.03032 0.0
H462 H 0.45881 0.58262 0.17362 0.0
H463 H 0.56742 0.65521 0.18577 0.0
H464 H 0.55276 0.69466 0.21079 0.0
H465 H 0.43614 0.63926 0.15383 0.0
H466 H 0.39453 0.61971 0.17009 0.0
H467 H 0.41312 0.59407 0.1603 0.0
H468 H 0.40814 0.57309 0.2115 0.0
H469 H 0.38889 0.5983 0.22147 0.0
H470 H 0.42664 0.60379 0.24014 0.0
H471 H 0.52553 0.72995 0.22659 0.0
H472 H 0.48932 0.75689 0.23131 0.0
H473 H 0.39906 0.66101 0.20656 0.0
C474 C 0.47944 0.60619 0.18273 0.0
C475 C 0.51417 0.6158 0.1783 0.0
C476 C 0.54066 0.64719 0.1896 0.0
C477 C 0.53249 0.66973 0.20369 0.0
C478 C 0.49777 0.66022 0.20639 0.0
C479 C 0.47168 0.62886 0.19648 0.0
C480 C 0.43675 0.62621 0.19817 0.0
C481 C 0.41914 0.61944 0.16887 0.0
C482 C 0.41375 0.59872 0.21907 0.0
C483 C 0.44719 0.66152 0.20931 0.0
C484 C 0.48232 0.68064 0.21459 0.0
C485 C 0.49793 0.71493 0.22303 0.0
C486 C 0.47719 0.73005 0.22565 0.0
C487 C 0.44139 0.71103 0.2193 0.0
C488 C 0.42632 0.67619 0.21167 0.0
H489 H 0.89976 0.4309 0.33612 0.0
H490 H 0.97666 0.53679 0.35314 0.0
H491 H 0.93457 0.54377 0.38131 0.0
H492 H 0.83384 0.44549 0.32216 0.0
H493 H 0.80016 0.40721 0.33754 0.0
H494 H 0.83803 0.40799 0.32449 0.0
H495 H 0.84933 0.38989 0.37321 0.0
H496 H 0.81117 0.38871 0.38641 0.0
H497 H 0.85214 0.41449 0.40426 0.0
H498 H 0.88194 0.54223 0.39997 0.0
H499 H 0.82348 0.53205 0.40888 0.0
H500 H 0.77997 0.42747 0.37856 0.0
C501 C 0.90804 0.45534 0.34638 0.0
C502 C 0.94159 0.48328 0.34247 0.0
C503 C 0.95137 0.51484 0.35621 0.0
C504 C 0.92754 0.51908 0.37216 0.0
C505 C 0.89415 0.49146 0.37437 0.0
C506 C 0.88451 0.46005 0.3621 0.0
C507 C 0.84613 0.43566 0.36468 0.0
C508 C 0.82853 0.4234 0.33549 0.0
C509 C 0.8393 0.4054 0.38325 0.0
C510 C 0.83536 0.45874 0.37914 0.0
C511 C 0.86354 0.49062 0.38498 0.0
C512 C 0.85978 0.51717 0.39604 0.0
C513 C 0.82641 0.51117 0.40088 0.0
C514 C 0.79711 0.47889 0.39454 0.0
C515 C 0.80183 0.45221 0.38408 0.0
H516 H 0.09966 0.56122 0.38253 0.0
H517 H 0.15584 0.51018 0.35885 0.0
H518 H 0.19198 0.53277 0.40217 0.0
H519 H 0.16979 0.63564 0.40429 0.0
H520 H 0.15004 0.64479 0.43341 0.0
H521 H 0.12388 0.61921 0.40403 0.0
H522 H 0.0855 0.57007 0.43729 0.0
H523 H 0.11102 0.59582 0.46698 0.0
H524 H 0.10521 0.55383 0.46115 0.0
H525 H 0.22695 0.56738 0.44412 0.0
H526 H 0.25617 0.60877 0.48328 0.0
H527 H 0.178 0.63862 0.47847 0.0
C528 C 0.11851 0.55356 0.38721 0.0
C529 C 0.12467 0.5335 0.36782 0.0
C530 C 0.15053 0.52512 0.37383 0.0
C531 C 0.17117 0.53789 0.39828 0.0
C532 C 0.16555 0.55899 0.41638 0.0
C533 C 0.13955 0.56643 0.41134 0.0
C534 C 0.1412 0.59257 0.43239 0.0
C535 C 0.14656 0.62495 0.41764 0.0
C536 C 0.10881 0.57714 0.45054 0.0
C537 C 0.17278 0.59947 0.4495 0.0
C538 C 0.18624 0.5796 0.44017 0.0
C539 C 0.21635 0.58271 0.4519 0.0
C540 C 0.23289 0.60646 0.474 0.0
C541 C 0.21942 0.62699 0.48395 0.0
C542 C 0.18897 0.62332 0.47142 0.0
H543 H 0.53771 0.10087 0.54252 0.0
H544 H 0.64435 0.15562 0.51735 0.0
H545 H 0.66082 0.18768 0.56282 0.0
H546 H 0.53694 0.17009 0.56965 0.0
H547 H 0.50869 0.1491 0.59852 0.0
H548 H 0.50613 0.12503 0.56732 0.0
H549 H 0.51642 0.08308 0.59692 0.0
H550 H 0.5181 0.10647 0.62842 0.0
H551 H 0.55337 0.0995 0.62044 0.0
H552 H 0.66408 0.21882 0.60805 0.0
H553 H 0.65433 0.24517 0.65025 0.0
H554 H 0.54473 0.17187 0.64382 0.0
C555 C 0.56473 0.1184 0.54727 0.0
C556 C 0.58999 0.12529 0.527 0.0
C557 C 0.62489 0.1496 0.53308 0.0
C558 C 0.63438 0.16795 0.55873 0.0
C559 C 0.60855 0.16173 0.57782 0.0
C560 C 0.57445 0.13728 0.57249 0.0
C561 C 0.55106 0.1383 0.59471 0.0
C562 C 0.52414 0.1461 0.58176 0.0
C563 C 0.53372 0.10485 0.6111 0.0
C564 C 0.57712 0.16772 0.61294 0.0
C565 C 0.61019 0.18062 0.60315 0.0
C566 C 0.63834 0.20866 0.61611 0.0
C567 C 0.63253 0.22358 0.63993 0.0
C568 C 0.59876 0.2107 0.65023 0.0
C569 C 0.57083 0.18246 0.63641 0.0
H570 H 0.48804 0.54683 0.72039 0.0
H571 H 0.53242 0.64922 0.68847 0.0
H572 H 0.51739 0.6681 0.73254 0.0
H573 H 0.41693 0.54344 0.74504 0.0
H574 H 0.41223 0.51876 0.77591 0.0
H575 H 0.43442 0.5152 0.74597 0.0
H576 H 0.48873 0.53165 0.77688 0.0
H577 H 0.46641 0.53442 0.80725 0.0
H578 H 0.50746 0.57024 0.79813 0.0
H579 H 0.48886 0.67313 0.77647 0.0
H580 H 0.45031 0.66401 0.81651 0.0
H581 H 0.42201 0.55726 0.81734 0.0
C582 C 0.49624 0.57361 0.7234 0.0
C583 C 0.51206 0.59682 0.70153 0.0
C584 C 0.5209 0.63133 0.70539 0.0
C585 C 0.51239 0.64219 0.73028 0.0
C586 C 0.49501 0.61815 0.75093 0.0
C587 C 0.48737 0.58461 0.74783 0.0
C588 C 0.4642 0.56259 0.77088 0.0
C589 C 0.42994 0.5333 0.75871 0.0
C590 C 0.48282 0.54893 0.78939 0.0
C591 C 0.45879 0.58858 0.78675 0.0
C592 C 0.47729 0.62065 0.77541 0.0
C593 C 0.47469 0.64823 0.7858 0.0
C594 C 0.45263 0.6428 0.8084 0.0
C595 C 0.43303 0.60991 0.81985 0.0
C596 C 0.43652 0.58269 0.80894 0.0
H597 H 0.93212 0.51759 0.86707 0.0
H598 H 0.93927 0.42597 0.85869 0.0
H599 H 0.91027 0.40578 0.90422 0.0
H600 H 0.94561 0.52726 0.94496 0.0
H601 H 0.9154 0.54223 0.94907 0.0
H602 H 0.93959 0.55073 0.91719 0.0
H603 H 0.88243 0.5224 0.88805 0.0
H604 H 0.85804 0.5132 0.91982 0.0
H605 H 0.84979 0.47915 0.89531 0.0
H606 H 0.87469 0.39253 0.94712 0.0
H607 H 0.84127 0.39032 -0.01117 0.0
H608 H 0.85923 0.49171 0.97084 0.0
C609 C 0.9285 0.49387 0.87543 0.0
C610 C 0.93825 0.47343 0.85996 0.0
C611 C 0.93237 0.44204 0.87078 0.0
C612 C 0.91579 0.43034 0.89642 0.0
C613 C 0.90552 0.45054 0.91094 0.0
C614 C 0.9122 0.48194 0.90119 0.0
C615 C 0.8974 0.498 0.92055 0.0
C616 C 0.92623 0.53154 0.93373 0.0
C617 C 0.87031 0.5035 0.905 0.0
C618 C 0.8809 0.47046 0.94234 0.0
C619 C 0.88565 0.44321 0.93624 0.0
C620 C 0.87123 0.41393 0.95242 0.0
C621 C 0.85205 0.41278 0.9759 0.0
C622 C 0.84786 0.4409 -0.0169 0.0
C623 C 0.86234 0.46999 0.96597 0.0
H624 H 0.472 0.92775 0.02751 0.0
H625 H 0.57579 0.95041 0.04808 0.0
H626 H 0.55516 0.91831 0.09233 0.0
H627 H 0.4454 0.93115 0.10135 0.0
H628 H 0.40226 0.8965 0.09427 0.0
H629 H 0.42647 0.92506 0.06656 0.0
H630 H 0.41662 0.87311 0.03592 0.0
H631 H 0.3933 0.84445 0.06379 0.0
H632 H 0.43034 0.84457 0.04922 0.0
H633 H 0.52174 0.87744 0.13051 0.0
H634 H 0.47954 0.83781 0.1642 0.0
H635 H 0.39748 0.84276 0.11886 0.0
C636 C 0.49047 0.9271 0.04204 0.0
C637 C 0.5255 0.94206 0.03509 0.0
C638 C 0.54902 0.93977 0.05372 0.0
C639 C 0.53745 0.92135 0.07863 0.0
C640 C 0.50239 0.90566 0.08442 0.0
C641 C 0.47936 0.90899 0.06699 0.0
C642 C 0.44281 0.88827 0.07724 0.0
C643 C 0.42839 0.91164 0.08535 0.0
C644 C 0.41941 0.86099 0.05523 0.0
C645 C 0.44874 0.87221 0.10286 0.0
C646 C 0.48322 0.88238 0.10655 0.0
C647 C 0.49474 0.86972 0.1281 0.0
C648 C 0.4705 0.84693 0.14695 0.0
C649 C 0.43522 0.83727 0.14421 0.0
C650 C 0.42428 0.84978 0.1216 0.0
H651 H 0.60209 0.53706 0.22804 0.0
H652 H 0.53131 0.43278 0.2014 0.0
H653 H 0.54569 0.41189 0.24447 0.0
H654 H 0.66603 0.52347 0.24976 0.0
H655 H 0.68078 0.55221 0.27985 0.0
H656 H 0.6595 0.55967 0.2508 0.0
H657 H 0.61385 0.55918 0.28409 0.0
H658 H 0.63555 0.55268 0.31351 0.0
H659 H 0.59034 0.52345 0.30683 0.0
H660 H 0.57504 0.40241 0.28561 0.0
H661 H 0.61337 0.40498 0.32452 0.0
H662 H 0.66608 0.51572 0.32361 0.0
C663 C 0.58835 0.50996 0.23213 0.0
C664 C 0.56508 0.48645 0.21195 0.0
C665 C 0.54867 0.45104 0.21709 0.0
C666 C 0.55682 0.43902 0.24136 0.0
C667 C 0.58137 0.4628 0.2602 0.0
C668 C 0.59648 0.49757 0.25613 0.0
C669 C 0.62484 0.51759 0.27778 0.0
C670 C 0.65984 0.53951 0.26369 0.0
C671 C 0.61558 0.53952 0.29668 0.0
C672 C 0.62418 0.48868 0.29395 0.0
C673 C 0.59874 0.45729 0.28369 0.0
C674 C 0.59463 0.42685 0.29419 0.0
C675 C 0.61673 0.42858 0.31611 0.0
C676 C 0.64271 0.46054 0.32716 0.0
C677 C 0.64637 0.49087 0.31578 0.0
H678 H 0.49081 0.92442 0.40299 0.0
H679 H 0.47722 1.00918 0.37889 0.0
H680 H 0.45541 0.98205 0.33204 0.0
H681 H 0.5155 0.90809 0.33223 0.0
H682 H 0.49238 0.86255 0.33687 0.0
H683 H 0.51123 0.89088 0.36695 0.0
H684 H 0.45164 0.86208 0.39065 0.0
H685 H 0.43246 0.83405 0.36052 0.0
H686 H 0.4153 0.86043 0.37243 0.0
H687 H 0.42758 0.94235 0.29111 0.0
H688 H 0.40117 0.89545 0.25599 0.0
H689 H 0.43375 0.83641 0.30592 0.0
C690 C 0.48395 0.93759 0.38758 0.0
C691 C 0.48574 0.96892 0.39444 0.0
C692 C 0.4765 0.98543 0.37387 0.0
C693 C 0.46389 0.9701 0.34731 0.0
C694 C 0.46115 0.93855 0.34163 0.0
C695 C 0.4715 0.92274 0.36096 0.0
C696 C 0.46415 0.88805 0.35014 0.0
C697 C 0.49782 0.88737 0.34631 0.0
C698 C 0.43941 0.85948 0.36959 0.0
C699 C 0.44702 0.88636 0.32204 0.0
C700 C 0.44562 0.91579 0.3176 0.0
C701 C 0.42906 0.91944 0.29409 0.0
C702 C 0.41387 0.89249 0.27439 0.0
C703 C 0.41548 0.86228 0.27819 0.0
C704 C 0.43242 0.85931 0.30232 0.0
H705 H 0.60014 0.53021 0.57092 0.0
H706 H 0.51943 0.42561 0.58255 0.0
H707 H 0.53945 0.40728 0.54116 0.0
H708 H 0.60007 0.5262 0.49213 0.0
H709 H 0.64627 0.55305 0.49121 0.0
H710 H 0.62246 0.55831 0.51926 0.0
H711 H 0.6612 0.55031 0.5557 0.0
H712 H 0.68457 0.5442 0.52782 0.0
H713 H 0.66422 0.51207 0.55416 0.0
H714 H 0.57231 0.39937 0.50252 0.0
H715 H 0.61215 0.40326 0.46534 0.0
H716 H 0.67172 0.51312 0.47887 0.0
C717 C 0.58599 0.50373 0.56398 0.0
C718 C 0.55805 0.47929 0.57947 0.0
C719 C 0.54067 0.44462 0.57056 0.0
C720 C 0.55194 0.434 0.54723 0.0
C721 C 0.58055 0.45844 0.53306 0.0
C722 C 0.59701 0.49267 0.54074 0.0
C723 C 0.62839 0.51333 0.52296 0.0
C724 C 0.62402 0.53925 0.50533 0.0
C725 C 0.66154 0.53101 0.54126 0.0
C726 C 0.62735 0.48527 0.50458 0.0
C727 C 0.59956 0.45382 0.51073 0.0
C728 C 0.59393 0.42392 0.49722 0.0
C729 C 0.61687 0.42635 0.47632 0.0
C730 C 0.64502 0.45848 0.46914 0.0
C731 C 0.65039 0.48818 0.48376 0.0
H732 H 0.09893 0.6034 0.72636 0.0
H733 H 0.09513 0.50596 0.72329 0.0
H734 H 0.13409 0.52491 0.68268 0.0
H735 H 0.10415 0.61661 0.64782 0.0
H736 H 0.13295 0.66188 0.6524 0.0
H737 H 0.10113 0.63865 0.67854 0.0
H738 H 0.14965 0.66146 0.71674 0.0
H739 H 0.18176 0.68386 0.69066 0.0
H740 H 0.18502 0.6535 0.71285 0.0
H741 H 0.1804 0.55755 0.64809 0.0
H742 H 0.22273 0.59793 0.61481 0.0
H743 H 0.19456 0.67357 0.63838 0.0
C744 C 0.10502 0.58561 0.71614 0.0
C745 C 0.09348 0.55295 0.72724 0.0
C746 C 0.10306 0.53069 0.71437 0.0
C747 C 0.12545 0.54139 0.69158 0.0
C748 C 0.1377 0.57433 0.68184 0.0
C749 C 0.1271 0.59581 0.69312 0.0
C750 C 0.14531 0.63043 0.67944 0.0
C751 C 0.11934 0.63729 0.6636 0.0
C752 C 0.1667 0.65898 0.70123 0.0
C753 C 0.16836 0.62529 0.65927 0.0
C754 C 0.16383 0.59288 0.66122 0.0
C755 C 0.18371 0.58279 0.64595 0.0
C756 C 0.20799 0.60605 0.62737 0.0
C757 C 0.21185 0.63881 0.62398 0.0
C758 C 0.19201 0.6486 0.64043 0.0
H759 H 0.63096 0.12591 0.89301 0.0
H760 H 0.52337 0.04723 0.89755 0.0
H761 H 0.51013 0.07067 0.85553 0.0
H762 H 0.61599 0.19193 0.87769 0.0
H763 H 0.65144 0.21368 0.85407 0.0
H764 H 0.6538 0.18776 0.88148 0.0
H765 H 0.665 0.15196 0.84463 0.0
H766 H 0.66333 0.17817 0.81707 0.0
H767 H 0.63547 0.13252 0.81516 0.0
H768 H 0.50744 0.10673 0.81731 0.0
H769 H 0.51574 0.1499 0.78258 0.0
H770 H 0.62527 0.20643 0.80352 0.0
C771 C 0.60473 0.11316 0.88477 0.0
C772 C 0.57816 0.08468 0.89845 0.0
C773 C 0.54418 0.06871 0.88713 0.0
C774 C 0.5364 0.08202 0.86343 0.0
C775 C 0.56296 0.11112 0.8513 0.0
C776 C 0.59654 0.12623 0.86133 0.0
C777 C 0.61987 0.15864 0.84577 0.0
C778 C 0.63622 0.18983 0.86596 0.0
C779 C 0.64755 0.15509 0.8297 0.0
C780 C 0.59399 0.15987 0.8258 0.0
C781 C 0.56138 0.13212 0.82929 0.0
C782 C 0.53292 0.12829 0.81411 0.0
C783 C 0.53796 0.15316 0.79452 0.0
C784 C 0.57124 0.18163 0.79021 0.0
C785 C 0.59957 0.18498 0.80622 0.0
H786 H 0.50989 0.62137 0.07573 0.0
H787 H 0.4693 0.51212 0.08097 0.0
H788 H 0.43578 0.50314 0.03704 0.0
H789 H 0.43196 0.61625 0.05139 0.0
H790 H 0.45263 0.6518 0.02803 0.0
H791 H 0.4753 0.65022 0.05902 0.0
H792 H 0.52533 0.65607 0.02826 0.0
H793 H 0.50296 0.65798 -0.00281 0.0
H794 H 0.51613 0.62639 -0.00063 0.0
H795 H 0.4047 0.50543 -0.00541 0.0
H796 H 0.37981 0.51868 0.95376 0.0
H797 H 0.43965 0.62679 0.97557 0.0
C798 C 0.49409 0.59558 0.06751 0.0
C799 C 0.49238 0.56743 0.08165 0.0
C800 C 0.47153 0.53409 0.07023 0.0
C801 C 0.45216 0.52872 0.04543 0.0
C802 C 0.45397 0.55693 0.03235 0.0
C803 C 0.47454 0.58974 0.04279 0.0
C804 C 0.47128 0.61548 0.02477 0.0
C805 C 0.45693 0.63456 0.04183 0.0
C806 C 0.50599 0.64045 0.01162 0.0
C807 C 0.44542 0.59191 0.00266 0.0
C808 C 0.43584 0.55828 0.00757 0.0
C809 C 0.41211 0.53165 -0.00962 0.0
C810 C 0.39809 0.53954 0.96723 0.0
C811 C 0.40782 0.57385 0.96133 0.0
C812 C 0.43165 0.60035 -0.0205 0.0
H813 H 0.9776 0.49987 0.22647 0.0
H814 H 0.92371 0.39791 0.25978 0.0
H815 H 0.88652 0.37725 0.21682 0.0
H816 H 0.90562 0.49944 0.20211 0.0
H817 H 0.92408 0.52375 0.17087 0.0
H818 H 0.9513 0.52916 0.20086 0.0
H819 H 0.9897 0.51445 0.17013 0.0
H820 H 0.96299 0.50966 0.1398 0.0
H821 H 0.97018 0.47532 0.14956 0.0
H822 H 0.85064 0.36967 0.17357 0.0
H823 H 0.81922 0.37524 0.13281 0.0
H824 H 0.89506 0.48316 0.12912 0.0
C825 C 0.959 0.47292 0.22398 0.0
C826 C 0.95393 0.45013 0.24578 0.0
C827 C 0.92831 0.41537 0.24278 0.0
C828 C 0.9071 0.40353 0.21857 0.0
C829 C 0.91181 0.42693 0.19779 0.0
C830 C 0.93731 0.46088 0.20016 0.0
C831 C 0.93435 0.48163 0.17666 0.0
C832 C 0.92848 0.51016 0.18834 0.0
C833 C 0.96619 0.49611 0.15792 0.0
C834 C 0.90262 0.45431 0.1612 0.0
C835 C 0.8903 0.42285 0.17343 0.0
C836 C 0.86032 0.39408 0.16357 0.0
C837 C 0.84256 0.39754 0.1405 0.0
C838 C 0.85462 0.42964 0.1278 0.0
C839 C 0.88514 0.45827 0.13833 0.0
loop_
_geom_bond_atom_site_label_1
_geom_bond_atom_site_label_2
_geom_bond_distance
_geom_bond_site_symmetry_2
_ccdc_geom_bond_type
H0 C6 0.930 . S
H1 C9 0.931 . S
H2 C11 0.931 . S
H3 C13 0.930 . S
H4 C15 0.930 . S
H5 C17 0.931 . S
C6 H0 0.930 . S
C6 C7 1.380 . S
C6 C8 1.394 . S
C7 C6 1.380 . S
C7 C11 1.382 . S
C8 C6 1.394 . S
C8 C9 1.400 . S
C9 H1 0.931 . S
C9 C8 1.400 . S
C9 C10 1.375 . S
C10 C9 1.375 . S
C10 C11 1.415 . S
C10 C12 1.501 1_455 S
C11 H2 0.931 . S
C11 C7 1.382 . S
C11 C10 1.415 . S
C12 C10 1.501 1_655 S
C12 C13 1.384 . S
C12 C17 1.408 . S
C13 H3 0.930 . S
C13 C12 1.384 . S
C13 C14 1.389 . S
C14 C13 1.389 . S
C14 C15 1.405 . S
C15 H4 0.930 . S
C15 C14 1.405 . S
C15 C16 1.364 . S
C16 C15 1.364 . S
C16 C17 1.400 . S
C17 H5 0.931 . S
C17 C12 1.408 . S
C17 C16 1.400 . S
H18 C24 0.930 . S
H19 C27 0.931 . S
H20 C29 0.931 . S
H21 C31 0.930 . S
H22 C33 0.930 . S
H23 C35 0.931 . S
C24 H18 0.930 . S
C24 C25 1.380 . S
C24 C26 1.394 . S
C25 C24 1.380 . S
C25 C29 1.382 . S
C26 C24 1.394 . S
C26 C27 1.400 . S
C27 H19 0.931 . S
C27 C26 1.400 . S
C27 C28 1.375 . S
C28 C27 1.375 . S
C28 C29 1.415 . S
C28 C30 1.501 1_545 S
C29 H20 0.931 . S
C29 C25 1.382 . S
C29 C28 1.415 . S
C30 C28 1.501 1_565 S
C30 C31 1.384 . S
C30 C35 1.408 . S
C31 H21 0.930 . S
C31 C30 1.384 . S
C31 C32 1.389 . S
C32 C31 1.389 . S
C32 C33 1.405 . S
C33 H22 0.930 . S
C33 C32 1.405 . S
C33 C34 1.364 . S
C34 C33 1.364 . S
C34 C35 1.400 . S
C35 H23 0.931 . S
C35 C30 1.408 . S
C35 C34 1.400 . S
H36 C42 0.930 . S
H37 C45 0.931 . S
H38 C47 0.931 . S
H39 C49 0.930 . S
H40 C51 0.930 . S
H41 C53 0.931 . S
C42 H36 0.930 . S
C42 C43 1.380 . S
C42 C44 1.394 . S
C43 C42 1.380 . S
C43 C47 1.382 . S
C44 C42 1.394 . S
C44 C45 1.400 . S
C45 H37 0.931 . S
C45 C44 1.400 . S
C45 C46 1.375 . S
C46 C45 1.375 . S
C46 C47 1.415 . S
C46 C48 1.501 . S
C47 H38 0.931 . S
C47 C43 1.382 . S
C47 C46 1.415 . S
C48 C46 1.501 . S
C48 C49 1.384 . S
C48 C53 1.408 . S
C49 H39 0.930 . S
C49 C48 1.384 . S
C49 C50 1.389 . S
C50 C49 1.389 . S
C50 C51 1.405 . S
C51 H40 0.930 . S
C51 C50 1.405 . S
C51 C52 1.364 . S
C52 C51 1.364 . S
C52 C53 1.400 . S
C53 H41 0.931 . S
C53 C48 1.408 . S
C53 C52 1.400 . S
H54 C60 0.930 . S
H55 C63 0.931 . S
H56 C65 0.931 . S
H57 C67 0.930 . S
H58 C69 0.930 . S
H59 C71 0.951 . S
C60 H54 0.930 . S
C60 C61 1.380 . S
C60 C62 1.394 . S
C61 C60 1.380 . S
C61 C65 1.382 . S
C62 C60 1.394 . S
C62 C63 1.400 . S
C63 H55 0.931 . S
C63 C62 1.400 . S
C63 C64 1.375 . S
C64 C63 1.375 . S
C64 C65 1.415 . S
C64 C66 1.501 1_455 S
C65 H56 0.931 . S
C65 C61 1.382 . S
C65 C64 1.415 . S
C66 C64 1.501 1_655 S
C66 C67 1.384 . S
C66 C71 1.408 . S
C67 H57 0.930 . S
C67 C66 1.384 . S
C67 C68 1.389 . S
C68 C67 1.389 . S
C68 C69 1.405 . S
C69 H58 0.930 . S
C69 C68 1.405 . S
C69 C70 1.364 . S
C70 C69 1.364 . S
C70 C71 1.400 . S
C71 H59 0.951 . S
C71 C66 1.408 . S
C71 C70 1.400 . S
H72 C78 0.930 . S
H73 C81 0.931 . S
H74 C83 0.924 1_545 S
H75 C85 0.930 . S
H76 C87 0.930 . S
H77 C89 0.931 . S
C78 H72 0.930 . S
C78 C79 1.380 . S
C78 C80 1.394 1_554 S
C79 C78 1.380 . S
C79 C83 1.382 . S
C80 C78 1.394 1_556 S
C80 C81 1.400 . S
C81 H73 0.931 . S
C81 C80 1.400 . S
C81 C82 1.375 . S
C82 C81 1.375 . S
C82 C83 1.415 1_556 S
C82 C84 1.501 1_565 S
C83 H74 0.924 1_565 S
C83 C79 1.382 . S
C83 C82 1.415 1_554 S
C84 C82 1.501 1_545 S
C84 C85 1.384 1_556 S
C84 C89 1.408 . S
C85 H75 0.930 . S
C85 C84 1.384 1_554 S
C85 C86 1.389 1_554 S
C86 C85 1.389 1_556 S
C86 C87 1.405 . S
C87 H76 0.930 . S
C87 C86 1.405 . S
C87 C88 1.364 . S
C88 C87 1.364 . S
C88 C89 1.400 . S
C89 H77 0.931 . S
C89 C84 1.408 . S
C89 C88 1.400 . S
H90 C96 0.930 . S
H91 C99 0.931 . S
H92 C101 0.931 . S
H93 C103 0.930 . S
H94 C105 0.930 . S
H95 C107 0.931 . S
C96 H90 0.930 . S
C96 C97 1.380 . S
C96 C98 1.394 . S
C97 C96 1.380 . S
C97 C101 1.382 . S
C98 C96 1.394 . S
C98 C99 1.400 . S
C99 H91 0.931 . S
C99 C98 1.400 . S
C99 C100 1.375 . S
C100 C99 1.375 . S
C100 C101 1.415 . S
C100 C102 1.501 . S
C101 H92 0.931 . S
C101 C97 1.382 . S
C101 C100 1.415 . S
C102 C100 1.501 . S
C102 C103 1.384 . S
C102 C107 1.408 . S
C103 H93 0.930 . S
C103 C102 1.384 . S
C103 C104 1.389 . S
C104 C103 1.389 . S
C104 C105 1.405 . S
C105 H94 0.930 . S
C105 C104 1.405 . S
C105 C106 1.364 . S
C106 C105 1.364 . S
C106 C107 1.400 . S
C107 H95 0.931 . S
C107 C102 1.408 . S
C107 C106 1.400 . S
Zn108 O111 2.031 . S
Zn108 O113 2.049 . S
Zn108 O118 2.067 . S
Zn109 O110 1.962 . S
Zn109 O112 1.986 . S
Zn109 O114 1.996 . S
Zn109 O117 1.943 . S
O110 Zn109 1.962 . S
O110 C115 1.254 . S
O111 Zn108 2.031 . S
O111 C115 1.269 . S
O112 Zn109 1.986 . S
O112 C119 1.262 . S
O113 Zn108 2.049 . S
O113 C121 1.260 . S
O114 Zn109 1.996 . S
O114 C121 1.257 . S
C115 O110 1.254 . S
C115 O111 1.269 . S
C116 O117 1.249 . S
C116 O118 1.270 . S
O117 Zn109 1.943 . S
O117 C116 1.249 . S
O118 Zn108 2.067 . S
O118 C116 1.270 . S
C119 O112 1.262 . S
C119 O120 1.232 . S
O120 C119 1.232 . S
C121 O113 1.260 . S
C121 O114 1.257 . S
Zn122 O125 2.031 . S
Zn122 O127 2.049 . S
Zn122 O132 2.067 . S
Zn123 O124 1.962 . S
Zn123 O126 1.986 . S
Zn123 O128 1.996 . S
Zn123 O131 1.943 . S
O124 Zn123 1.962 . S
O124 C129 1.254 . S
O125 Zn122 2.031 . S
O125 C129 1.269 . S
O126 Zn123 1.986 . S
O126 C133 1.262 . S
O127 Zn122 2.049 . S
O127 C135 1.260 . S
O128 Zn123 1.996 . S
O128 C135 1.257 . S
C129 O124 1.254 . S
C129 O125 1.269 . S
C130 O131 1.249 . S
C130 O132 1.270 . S
O131 Zn123 1.943 . S
O131 C130 1.249 . S
O132 Zn122 2.067 . S
O132 C130 1.270 . S
C133 O126 1.262 . S
C133 O134 1.232 . S
O134 C133 1.232 . S
C135 O127 1.260 . S
C135 O128 1.257 . S
Zn136 O139 2.031 . S
Zn136 O141 2.049 . S
Zn136 O146 2.067 . S
Zn137 O138 1.962 . S
Zn137 O140 1.986 . S
Zn137 O142 1.996 . S
Zn137 O145 1.943 . S
O138 Zn137 1.962 . S
O138 C143 1.254 . S
O139 Zn136 2.031 . S
O139 C143 1.269 . S
O140 Zn137 1.986 . S
O140 C147 1.262 . S
O141 Zn136 2.049 . S
O141 C149 1.260 . S
O142 Zn137 1.996 . S
O142 C149 1.257 . S
C143 O138 1.254 . S
C143 O139 1.269 . S
C144 O145 1.249 . S
C144 O146 1.270 . S
O145 Zn137 1.943 . S
O145 C144 1.249 . S
O146 Zn136 2.067 . S
O146 C144 1.270 . S
C147 O140 1.262 . S
C147 O148 1.232 . S
O148 C147 1.232 . S
C149 O141 1.260 . S
C149 O142 1.257 . S
Zn150 O153 2.031 . S
Zn150 O155 2.049 . S
Zn150 O160 2.067 . S
Zn151 O152 1.962 . S
Zn151 O154 1.986 . S
Zn151 O156 1.996 . S
Zn151 O159 1.943 . S
O152 Zn151 1.962 . S
O152 C157 1.254 . S
O153 Zn150 2.031 . S
O153 C157 1.269 . S
O154 Zn151 1.986 . S
O154 C161 1.262 . S
O155 Zn150 2.049 . S
O155 C163 1.260 . S
O156 Zn151 1.996 . S
O156 C163 1.257 . S
C157 O152 1.254 . S
C157 O153 1.269 . S
C158 O159 1.249 . S
C158 O160 1.270 . S
O159 Zn151 1.943 . S
O159 C158 1.249 . S
O160 Zn150 2.067 . S
O160 C158 1.270 . S
C161 O154 1.262 . S
C161 O162 1.232 . S
O162 C161 1.232 . S
C163 O155 1.260 . S
C163 O156 1.257 . S
Zn164 O167 2.031 . S
Zn164 O169 2.049 . S
Zn164 O174 2.067 . S
Zn165 O166 1.962 . S
Zn165 O168 1.986 . S
Zn165 O170 1.996 . S
Zn165 O173 1.943 . S
O166 Zn165 1.962 . S
O166 C171 1.254 . S
O167 Zn164 2.031 . S
O167 C171 1.269 . S
O168 Zn165 1.986 . S
O168 C175 1.262 . S
O169 Zn164 2.049 . S
O169 C177 1.260 . S
O170 Zn165 1.996 . S
O170 C177 1.257 . S
C171 O166 1.254 . S
C171 O167 1.269 . S
C172 O173 1.249 . S
C172 O174 1.270 . S
O173 Zn165 1.943 . S
O173 C172 1.249 . S
O174 Zn164 2.067 . S
O174 C172 1.270 . S
C175 O168 1.262 . S
C175 O176 1.232 . S
O176 C175 1.232 . S
C177 O169 1.260 . S
C177 O170 1.257 . S
Zn178 O181 2.031 . S
Zn178 O183 2.049 . S
Zn178 O188 2.067 . S
Zn179 O180 1.962 . S
Zn179 O182 1.986 . S
Zn179 O184 1.996 . S
Zn179 O187 1.943 . S
O180 Zn179 1.962 . S
O180 C185 1.254 . S
O181 Zn178 2.031 . S
O181 C185 1.269 . S
O182 Zn179 1.986 . S
O182 C189 1.262 . S
O183 Zn178 2.049 . S
O183 C191 1.260 . S
O184 Zn179 1.996 . S
O184 C191 1.257 . S
C185 O180 1.254 . S
C185 O181 1.269 . S
C186 O187 1.249 . S
C186 O188 1.270 . S
O187 Zn179 1.943 . S
O187 C186 1.249 . S
O188 Zn178 2.067 . S
O188 C186 1.270 . S
C189 O182 1.262 . S
C189 O190 1.232 . S
O190 C189 1.232 . S
C191 O183 1.260 . S
C191 O184 1.257 . S
H192 C204 0.930 . S
H193 C206 0.930 . S
H194 C207 0.930 . S
H195 C211 0.959 . S
H196 C211 0.959 . S
H197 C211 0.961 . S
H198 C212 0.960 . S
H199 C212 0.961 . S
H200 C212 0.959 . S
H201 C215 0.929 . S
H202 C216 0.931 . S
H203 C218 0.930 . S
C204 H192 0.930 . S
C204 C205 1.399 . S
C204 C209 1.399 . S
C205 C204 1.399 . S
C205 C206 1.376 . S
C206 H193 0.930 . S
C206 C205 1.376 . S
C206 C207 1.388 . S
C207 H194 0.930 . S
C207 C206 1.388 . S
C207 C208 1.390 . S
C208 C207 1.390 . S
C208 C209 1.394 . S
C208 C214 1.465 . S
C209 C204 1.399 . S
C209 C208 1.394 . S
C209 C210 1.516 . S
C210 C209 1.516 . S
C210 C211 1.502 . S
C210 C212 1.561 . S
C210 C213 1.526 . S
C211 H195 0.959 . S
C211 H196 0.959 . S
C211 H197 0.961 . S
C211 C210 1.502 . S
C212 H198 0.960 . S
C212 H199 0.961 . S
C212 H200 0.959 . S
C212 C210 1.561 . S
C213 C210 1.526 . S
C213 C214 1.396 . S
C213 C218 1.390 . S
C214 C208 1.465 . S
C214 C213 1.396 . S
C214 C215 1.399 . S
C215 H201 0.929 . S
C215 C214 1.399 . S
C215 C216 1.385 . S
C216 H202 0.931 . S
C216 C215 1.385 . S
C216 C217 1.389 . S
C217 C216 1.389 . S
C217 C218 1.387 . S
C218 H203 0.930 . S
C218 C213 1.390 . S
C218 C217 1.387 . S
H219 C231 0.930 . S
H220 C233 0.930 . S
H221 C234 0.930 . S
H222 C238 0.959 . S
H223 C238 0.959 . S
H224 C238 0.961 . S
H225 C239 0.960 . S
H226 C239 0.961 . S
H227 C239 0.959 . S
H228 C242 0.929 . S
H229 C243 0.931 . S
H230 C245 0.930 . S
C231 H219 0.930 . S
C231 C232 1.399 . S
C231 C236 1.399 . S
C232 C231 1.399 . S
C232 C233 1.376 . S
C233 H220 0.930 . S
C233 C232 1.376 . S
C233 C234 1.388 . S
C234 H221 0.930 . S
C234 C233 1.388 . S
C234 C235 1.390 . S
C235 C234 1.390 . S
C235 C236 1.394 . S
C235 C241 1.465 . S
C236 C231 1.399 . S
C236 C235 1.394 . S
C236 C237 1.516 . S
C237 C236 1.516 . S
C237 C238 1.502 . S
C237 C239 1.561 . S
C237 C240 1.526 . S
C238 H222 0.959 . S
C238 H223 0.959 . S
C238 H224 0.961 . S
C238 C237 1.502 . S
C239 H225 0.960 . S
C239 H226 0.961 . S
C239 H227 0.959 . S
C239 C237 1.561 . S
C240 C237 1.526 . S
C240 C241 1.396 . S
C240 C245 1.390 . S
C241 C235 1.465 . S
C241 C240 1.396 . S
C241 C242 1.399 . S
C242 H228 0.929 . S
C242 C241 1.399 . S
C242 C243 1.385 . S
C243 H229 0.931 . S
C243 C242 1.385 . S
C243 C244 1.389 . S
C244 C243 1.389 . S
C244 C245 1.387 . S
C245 H230 0.930 . S
C245 C240 1.390 . S
C245 C244 1.387 . S
H246 C258 0.930 . S
H247 C260 0.930 . S
H248 C261 0.930 . S
H249 C265 0.959 . S
H250 C265 0.959 . S
H251 C265 0.961 . S
H252 C266 0.960 . S
H253 C266 0.961 . S
H254 C266 0.959 . S
H255 C269 0.929 . S
H256 C270 0.931 . S
H257 C272 0.930 . S
C258 H246 0.930 . S
C258 C259 1.399 . S
C258 C263 1.399 . S
C259 C258 1.399 . S
C259 C260 1.376 . S
C260 H247 0.930 . S
C260 C259 1.376 . S
C260 C261 1.388 . S
C261 H248 0.930 . S
C261 C260 1.388 . S
C261 C262 1.390 . S
C262 C261 1.390 . S
C262 C263 1.394 . S
C262 C268 1.465 . S
C263 C258 1.399 . S
C263 C262 1.394 . S
C263 C264 1.516 . S
C264 C263 1.516 . S
C264 C265 1.502 . S
C264 C266 1.561 . S
C264 C267 1.526 . S
C265 H249 0.959 . S
C265 H250 0.959 . S
C265 H251 0.961 . S
C265 C264 1.502 . S
C266 H252 0.960 . S
C266 H253 0.961 . S
C266 H254 0.959 . S
C266 C264 1.561 . S
C267 C264 1.526 . S
C267 C268 1.396 . S
C267 C272 1.390 . S
C268 C262 1.465 . S
C268 C267 1.396 . S
C268 C269 1.399 . S
C269 H255 0.929 . S
C269 C268 1.399 . S
C269 C270 1.385 . S
C270 H256 0.931 . S
C270 C269 1.385 . S
C270 C271 1.389 . S
C271 C270 1.389 . S
C271 C272 1.387 . S
C272 H257 0.930 . S
C272 C267 1.390 . S
C272 C271 1.387 . S
H273 C285 0.930 . S
H274 C287 0.930 . S
H275 C288 0.930 . S
H276 C292 0.959 . S
H277 C292 0.959 . S
H278 C292 0.961 . S
H279 C293 0.960 . S
H280 C293 0.961 . S
H281 C293 0.959 . S
H282 C296 0.929 . S
H283 C297 0.931 . S
H284 C299 0.930 . S
C285 H273 0.930 . S
C285 C286 1.399 . S
C285 C290 1.399 . S
C286 C285 1.399 . S
C286 C287 1.376 . S
C287 H274 0.930 . S
C287 C286 1.376 . S
C287 C288 1.388 . S
C288 H275 0.930 . S
C288 C287 1.388 . S
C288 C289 1.390 . S
C289 C288 1.390 . S
C289 C290 1.394 . S
C289 C295 1.465 . S
C290 C285 1.399 . S
C290 C289 1.394 . S
C290 C291 1.516 . S
C291 C290 1.516 . S
C291 C292 1.502 . S
C291 C293 1.561 . S
C291 C294 1.526 . S
C292 H276 0.959 . S
C292 H277 0.959 . S
C292 H278 0.961 . S
C292 C291 1.502 . S
C293 H279 0.960 . S
C293 H280 0.961 . S
C293 H281 0.959 . S
C293 C291 1.561 . S
C294 C291 1.526 . S
C294 C295 1.396 . S
C294 C299 1.390 . S
C295 C289 1.465 . S
C295 C294 1.396 . S
C295 C296 1.399 . S
C296 H282 0.929 . S
C296 C295 1.399 . S
C296 C297 1.385 . S
C297 H283 0.931 . S
C297 C296 1.385 . S
C297 C298 1.389 . S
C298 C297 1.389 . S
C298 C299 1.387 . S
C299 H284 0.930 . S
C299 C294 1.390 . S
C299 C298 1.387 . S
H300 C312 0.903 1_554 S
H301 C314 0.930 . S
H302 C315 0.930 . S
H303 C319 0.959 . S
H304 C319 0.959 1_554 S
H305 C319 0.961 1_554 S
H306 C320 0.960 . S
H307 C320 0.961 . S
H308 C320 0.959 1_556 S
H309 C323 0.929 . S
H310 C324 0.931 . S
H311 C326 0.930 . S
C312 H300 0.903 1_556 S
C312 C313 1.399 . S
C312 C317 1.399 . S
C313 C312 1.399 . S
C313 C314 1.376 . S
C314 H301 0.930 . S
C314 C313 1.376 . S
C314 C315 1.388 . S
C315 H302 0.930 . S
C315 C314 1.388 . S
C315 C316 1.390 . S
C316 C315 1.390 . S
C316 C317 1.394 . S
C316 C322 1.465 . S
C317 C312 1.399 . S
C317 C316 1.394 . S
C317 C318 1.516 . S
C318 C317 1.516 . S
C318 C319 1.502 . S
C318 C320 1.561 1_556 S
C318 C321 1.526 . S
C319 H303 0.959 . S
C319 H304 0.959 1_556 S
C319 H305 0.961 1_556 S
C319 C318 1.502 . S
C320 H306 0.960 . S
C320 H307 0.961 . S
C320 H308 0.959 1_554 S
C320 C318 1.561 1_554 S
C321 C318 1.526 . S
C321 C322 1.396 . S
C321 C326 1.390 . S
C322 C316 1.465 . S
C322 C321 1.396 . S
C322 C323 1.399 . S
C323 H309 0.929 . S
C323 C322 1.399 . S
C323 C324 1.385 . S
C324 H310 0.931 . S
C324 C323 1.385 . S
C324 C325 1.389 . S
C325 C324 1.389 . S
C325 C326 1.387 . S
C326 H311 0.930 . S
C326 C321 1.390 . S
C326 C325 1.387 . S
H327 C339 0.930 . S
H328 C341 0.930 . S
H329 C342 0.930 . S
H330 C346 0.959 . S
H331 C346 0.959 . S
H332 C346 0.961 . S
H333 C347 0.960 . S
H334 C347 0.961 . S
H335 C347 0.959 . S
H336 C350 0.929 . S
H337 C351 0.931 . S
H338 C353 0.930 . S
C339 H327 0.930 . S
C339 C340 1.399 . S
C339 C344 1.399 . S
C340 C339 1.399 . S
C340 C341 1.376 . S
C341 H328 0.930 . S
C341 C340 1.376 . S
C341 C342 1.388 . S
C342 H329 0.930 . S
C342 C341 1.388 . S
C342 C343 1.390 . S
C343 C342 1.390 . S
C343 C344 1.394 . S
C343 C349 1.465 . S
C344 C339 1.399 . S
C344 C343 1.394 . S
C344 C345 1.516 . S
C345 C344 1.516 . S
C345 C346 1.502 . S
C345 C347 1.561 . S
C345 C348 1.526 . S
C346 H330 0.959 . S
C346 H331 0.959 . S
C346 H332 0.961 . S
C346 C345 1.502 . S
C347 H333 0.960 . S
C347 H334 0.961 . S
C347 H335 0.959 . S
C347 C345 1.561 . S
C348 C345 1.526 . S
C348 C349 1.396 . S
C348 C353 1.390 . S
C349 C343 1.465 . S
C349 C348 1.396 . S
C349 C350 1.399 . S
C350 H336 0.929 . S
C350 C349 1.399 . S
C350 C351 1.385 . S
C351 H337 0.931 . S
C351 C350 1.385 . S
C351 C352 1.389 . S
C352 C351 1.389 . S
C352 C353 1.387 . S
C353 H338 0.930 . S
C353 C348 1.390 . S
C353 C352 1.387 . S
H354 C366 0.930 . S
H355 C368 0.930 . S
H356 C369 0.930 . S
H357 C373 0.959 . S
H358 C373 0.959 . S
H359 C373 0.961 . S
H360 C374 0.960 . S
H361 C374 0.961 . S
H362 C374 0.959 . S
H363 C377 0.929 . S
H364 C378 0.931 . S
H365 C380 0.930 . S
C366 H354 0.930 . S
C366 C367 1.399 . S
C366 C371 1.399 . S
C367 C366 1.399 . S
C367 C368 1.376 . S
C368 H355 0.930 . S
C368 C367 1.376 . S
C368 C369 1.388 . S
C369 H356 0.930 . S
C369 C368 1.388 . S
C369 C370 1.390 . S
C370 C369 1.390 . S
C370 C371 1.394 . S
C370 C376 1.465 . S
C371 C366 1.399 . S
C371 C370 1.394 . S
C371 C372 1.516 . S
C372 C371 1.516 . S
C372 C373 1.502 . S
C372 C374 1.561 . S
C372 C375 1.526 . S
C373 H357 0.959 . S
C373 H358 0.959 . S
C373 H359 0.961 . S
C373 C372 1.502 . S
C374 H360 0.960 . S
C374 H361 0.961 . S
C374 H362 0.959 . S
C374 C372 1.561 . S
C375 C372 1.526 . S
C375 C376 1.396 . S
C375 C380 1.390 . S
C376 C370 1.465 . S
C376 C375 1.396 . S
C376 C377 1.399 . S
C377 H363 0.929 . S
C377 C376 1.399 . S
C377 C378 1.385 . S
C378 H364 0.931 . S
C378 C377 1.385 . S
C378 C379 1.389 . S
C379 C378 1.389 . S
C379 C380 1.387 . S
C380 H365 0.930 . S
C380 C375 1.390 . S
C380 C379 1.387 . S
H381 C393 0.930 . S
H382 C395 0.930 . S
H383 C396 0.930 . S
H384 C400 0.959 . S
H385 C400 0.959 . S
H386 C400 0.961 . S
H387 C401 0.960 . S
H388 C401 0.961 . S
H389 C401 0.959 . S
H390 C404 0.929 . S
H391 C405 0.931 . S
H392 C407 0.930 . S
C393 H381 0.930 . S
C393 C394 1.399 . S
C393 C398 1.399 . S
C394 C393 1.399 . S
C394 C395 1.376 . S
C395 H382 0.930 . S
C395 C394 1.376 . S
C395 C396 1.388 . S
C396 H383 0.930 . S
C396 C395 1.388 . S
C396 C397 1.390 . S
C397 C396 1.390 . S
C397 C398 1.394 . S
C397 C403 1.465 . S
C398 C393 1.399 . S
C398 C397 1.394 . S
C398 C399 1.516 . S
C399 C398 1.516 . S
C399 C400 1.502 . S
C399 C401 1.561 . S
C399 C402 1.526 . S
C400 H384 0.959 . S
C400 H385 0.959 . S
C400 H386 0.961 . S
C400 C399 1.502 . S
C401 H387 0.960 . S
C401 H388 0.961 . S
C401 H389 0.959 . S
C401 C399 1.561 . S
C402 C399 1.526 . S
C402 C403 1.396 . S
C402 C407 1.390 . S
C403 C397 1.465 . S
C403 C402 1.396 . S
C403 C404 1.399 . S
C404 H390 0.929 . S
C404 C403 1.399 . S
C404 C405 1.385 . S
C405 H391 0.931 . S
C405 C404 1.385 . S
C405 C406 1.389 . S
C406 C405 1.389 . S
C406 C407 1.387 . S
C407 H392 0.930 . S
C407 C402 1.390 . S
C407 C406 1.387 . S
H408 C420 0.930 . S
H409 C422 0.930 . S
H410 C423 0.930 . S
H411 C427 0.959 . S
H412 C427 0.959 . S
H413 C427 0.961 . S
H414 C428 0.960 . S
H415 C428 0.961 . S
H416 C428 0.959 . S
H417 C431 0.929 . S
H418 C432 0.931 . S
H419 C434 0.930 . S
C420 H408 0.930 . S
C420 C421 1.399 . S
C420 C425 1.399 . S
C421 C420 1.399 . S
C421 C422 1.376 . S
C422 H409 0.930 . S
C422 C421 1.376 . S
C422 C423 1.388 . S
C423 H410 0.930 . S
C423 C422 1.388 . S
C423 C424 1.390 . S
C424 C423 1.390 . S
C424 C425 1.394 . S
C424 C430 1.465 . S
C425 C420 1.399 . S
C425 C424 1.394 . S
C425 C426 1.516 . S
C426 C425 1.516 . S
C426 C427 1.502 . S
C426 C428 1.561 . S
C426 C429 1.526 . S
C427 H411 0.959 . S
C427 H412 0.959 . S
C427 H413 0.961 . S
C427 C426 1.502 . S
C428 H414 0.960 . S
C428 H415 0.961 . S
C428 H416 0.959 . S
C428 C426 1.561 . S
C429 C426 1.526 . S
C429 C430 1.396 . S
C429 C434 1.390 . S
C430 C424 1.465 . S
C430 C429 1.396 . S
C430 C431 1.399 . S
C431 H417 0.929 . S
C431 C430 1.399 . S
C431 C432 1.385 . S
C432 H418 0.931 . S
C432 C431 1.385 . S
C432 C433 1.389 . S
C433 C432 1.389 . S
C433 C434 1.387 . S
C434 H419 0.930 . S
C434 C429 1.390 . S
C434 C433 1.387 . S
H435 C447 0.930 . S
H436 C449 0.930 . S
H437 C450 0.930 . S
H438 C454 0.959 . S
H439 C454 0.959 . S
H440 C454 0.961 . S
H441 C455 0.960 . S
H442 C455 0.961 . S
H443 C455 0.959 . S
H444 C458 0.929 1_556 S
H445 C459 0.931 . S
H446 C461 0.930 . S
C447 H435 0.930 . S
C447 C448 1.399 . S
C447 C452 1.399 . S
C448 C447 1.399 . S
C448 C449 1.376 1_554 S
C449 H436 0.930 . S
C449 C448 1.376 1_556 S
C449 C450 1.388 . S
C450 H437 0.930 . S
C450 C449 1.388 . S
C450 C451 1.390 1_556 S
C451 C450 1.390 1_554 S
C451 C452 1.394 . S
C451 C457 1.465 . S
C452 C447 1.399 . S
C452 C451 1.394 . S
C452 C453 1.516 . S
C453 C452 1.516 . S
C453 C454 1.502 . S
C453 C455 1.561 . S
C453 C456 1.526 . S
C454 H438 0.959 . S
C454 H439 0.959 . S
C454 H440 0.961 . S
C454 C453 1.502 . S
C455 H441 0.960 . S
C455 H442 0.961 . S
C455 H443 0.959 . S
C455 C453 1.561 . S
C456 C453 1.526 . S
C456 C457 1.396 . S
C456 C461 1.390 . S
C457 C451 1.465 . S
C457 C456 1.396 . S
C457 C458 1.399 . S
C458 H444 0.929 1_554 S
C458 C457 1.399 . S
C458 C459 1.385 . S
C459 H445 0.931 . S
C459 C458 1.385 . S
C459 C460 1.389 . S
C460 C459 1.389 . S
C460 C461 1.387 . S
C461 H446 0.930 . S
C461 C456 1.390 . S
C461 C460 1.387 . S
H462 C474 0.930 . S
H463 C476 0.930 . S
H464 C477 0.930 . S
H465 C481 0.959 . S
H466 C481 0.959 . S
H467 C481 0.961 . S
H468 C482 0.960 . S
H469 C482 0.961 . S
H470 C482 0.959 . S
H471 C485 0.929 . S
H472 C486 0.931 . S
H473 C488 0.930 . S
C474 H462 0.930 . S
C474 C475 1.399 . S
C474 C479 1.399 . S
C475 C474 1.399 . S
C475 C476 1.376 . S
C476 H463 0.930 . S
C476 C475 1.376 . S
C476 C477 1.388 . S
C477 H464 0.930 . S
C477 C476 1.388 . S
C477 C478 1.390 . S
C478 C477 1.390 . S
C478 C479 1.394 . S
C478 C484 1.465 . S
C479 C474 1.399 . S
C479 C478 1.394 . S
C479 C480 1.516 . S
C480 C479 1.516 . S
C480 C481 1.502 . S
C480 C482 1.561 . S
C480 C483 1.526 . S
C481 H465 0.959 . S
C481 H466 0.959 . S
C481 H467 0.961 . S
C481 C480 1.502 . S
C482 H468 0.960 . S
C482 H469 0.961 . S
C482 H470 0.959 . S
C482 C480 1.561 . S
C483 C480 1.526 . S
C483 C484 1.396 . S
C483 C488 1.390 . S
C484 C478 1.465 . S
C484 C483 1.396 . S
C484 C485 1.399 . S
C485 H471 0.929 . S
C485 C484 1.399 . S
C485 C486 1.385 . S
C486 H472 0.931 . S
C486 C485 1.385 . S
C486 C487 1.389 . S
C487 C486 1.389 . S
C487 C488 1.387 . S
C488 H473 0.930 . S
C488 C483 1.390 . S
C488 C487 1.387 . S
H489 C501 0.930 . S
H490 C503 0.930 . S
H491 C504 0.930 . S
H492 C508 0.959 . S
H493 C508 0.959 . S
H494 C508 0.961 . S
H495 C509 0.960 . S
H496 C509 0.961 . S
H497 C509 0.959 . S
H498 C512 0.929 . S
H499 C513 0.931 . S
H500 C515 0.930 . S
C501 H489 0.930 . S
C501 C502 1.399 . S
C501 C506 1.399 . S
C502 C501 1.399 . S
C502 C503 1.376 . S
C503 H490 0.930 . S
C503 C502 1.376 . S
C503 C504 1.388 . S
C504 H491 0.930 . S
C504 C503 1.388 . S
C504 C505 1.390 . S
C505 C504 1.390 . S
C505 C506 1.394 . S
C505 C511 1.465 . S
C506 C501 1.399 . S
C506 C505 1.394 . S
C506 C507 1.516 . S
C507 C506 1.516 . S
C507 C508 1.502 . S
C507 C509 1.561 . S
C507 C510 1.526 . S
C508 H492 0.959 . S
C508 H493 0.959 . S
C508 H494 0.961 . S
C508 C507 1.502 . S
C509 H495 0.960 . S
C509 H496 0.961 . S
C509 H497 0.959 . S
C509 C507 1.561 . S
C510 C507 1.526 . S
C510 C511 1.396 . S
C510 C515 1.390 . S
C511 C505 1.465 . S
C511 C510 1.396 . S
C511 C512 1.399 . S
C512 H498 0.929 . S
C512 C511 1.399 . S
C512 C513 1.385 . S
C513 H499 0.931 . S
C513 C512 1.385 . S
C513 C514 1.389 . S
C514 C513 1.389 . S
C514 C515 1.387 . S
C515 H500 0.930 . S
C515 C510 1.390 . S
C515 C514 1.387 . S
H516 C528 0.930 . S
H517 C530 0.930 . S
H518 C531 0.930 . S
H519 C535 0.959 . S
H520 C535 0.959 . S
H521 C535 0.961 . S
H522 C536 0.960 . S
H523 C536 0.961 . S
H524 C536 0.959 . S
H525 C539 0.929 . S
H526 C540 0.931 . S
H527 C542 0.930 . S
C528 H516 0.930 . S
C528 C529 1.399 . S
C528 C533 1.399 . S
C529 C528 1.399 . S
C529 C530 1.376 . S
C530 H517 0.930 . S
C530 C529 1.376 . S
C530 C531 1.388 . S
C531 H518 0.930 . S
C531 C530 1.388 . S
C531 C532 1.390 . S
C532 C531 1.390 . S
C532 C533 1.394 . S
C532 C538 1.465 . S
C533 C528 1.399 . S
C533 C532 1.394 . S
C533 C534 1.516 . S
C534 C533 1.516 . S
C534 C535 1.502 . S
C534 C536 1.561 . S
C534 C537 1.526 . S
C535 H519 0.959 . S
C535 H520 0.959 . S
C535 H521 0.961 . S
C535 C534 1.502 . S
C536 H522 0.960 . S
C536 H523 0.961 . S
C536 H524 0.959 . S
C536 C534 1.561 . S
C537 C534 1.526 . S
C537 C538 1.396 . S
C537 C542 1.390 . S
C538 C532 1.465 . S
C538 C537 1.396 . S
C538 C539 1.399 . S
C539 H525 0.929 . S
C539 C538 1.399 . S
C539 C540 1.385 . S
C540 H526 0.931 . S
C540 C539 1.385 . S
C540 C541 1.389 . S
C541 C540 1.389 . S
C541 C542 1.387 . S
C542 H527 0.930 . S
C542 C537 1.390 . S
C542 C541 1.387 . S
H543 C555 0.930 . S
H544 C557 0.930 . S
H545 C558 0.930 . S
H546 C562 0.959 . S
H547 C562 0.959 . S
H548 C562 0.961 . S
H549 C563 0.960 . S
H550 C563 0.961 . S
H551 C563 0.959 . S
H552 C566 0.929 . S
H553 C567 0.931 . S
H554 C569 0.930 . S
C555 H543 0.930 . S
C555 C556 1.399 . S
C555 C560 1.399 . S
C556 C555 1.399 . S
C556 C557 1.376 . S
C557 H544 0.930 . S
C557 C556 1.376 . S
C557 C558 1.388 . S
C558 H545 0.930 . S
C558 C557 1.388 . S
C558 C559 1.390 . S
C559 C558 1.390 . S
C559 C560 1.394 . S
C559 C565 1.465 . S
C560 C555 1.399 . S
C560 C559 1.394 . S
C560 C561 1.516 . S
C561 C560 1.516 . S
C561 C562 1.502 . S
C561 C563 1.561 . S
C561 C564 1.526 . S
C562 H546 0.959 . S
C562 H547 0.959 . S
C562 H548 0.961 . S
C562 C561 1.502 . S
C563 H549 0.960 . S
C563 H550 0.961 . S
C563 H551 0.959 . S
C563 C561 1.561 . S
C564 C561 1.526 . S
C564 C565 1.396 . S
C564 C569 1.390 . S
C565 C559 1.465 . S
C565 C564 1.396 . S
C565 C566 1.399 . S
C566 H552 0.929 . S
C566 C565 1.399 . S
C566 C567 1.385 . S
C567 H553 0.931 . S
C567 C566 1.385 . S
C567 C568 1.389 . S
C568 C567 1.389 . S
C568 C569 1.387 . S
C569 H554 0.930 . S
C569 C564 1.390 . S
C569 C568 1.387 . S
H570 C582 0.930 . S
H571 C584 0.930 . S
H572 C585 0.930 . S
H573 C589 0.959 . S
H574 C589 0.959 . S
H575 C589 0.961 . S
H576 C590 0.960 . S
H577 C590 0.961 . S
H578 C590 0.959 . S
H579 C593 0.929 . S
H580 C594 0.931 . S
H581 C596 0.930 . S
C582 H570 0.930 . S
C582 C583 1.399 . S
C582 C587 1.399 . S
C583 C582 1.399 . S
C583 C584 1.376 . S
C584 H571 0.930 . S
C584 C583 1.376 . S
C584 C585 1.388 . S
C585 H572 0.930 . S
C585 C584 1.388 . S
C585 C586 1.390 . S
C586 C585 1.390 . S
C586 C587 1.394 . S
C586 C592 1.465 . S
C587 C582 1.399 . S
C587 C586 1.394 . S
C587 C588 1.516 . S
C588 C587 1.516 . S
C588 C589 1.502 . S
C588 C590 1.561 . S
C588 C591 1.526 . S
C589 H573 0.959 . S
C589 H574 0.959 . S
C589 H575 0.961 . S
C589 C588 1.502 . S
C590 H576 0.960 . S
C590 H577 0.961 . S
C590 H578 0.959 . S
C590 C588 1.561 . S
C591 C588 1.526 . S
C591 C592 1.396 . S
C591 C596 1.390 . S
C592 C586 1.465 . S
C592 C591 1.396 . S
C592 C593 1.399 . S
C593 H579 0.929 . S
C593 C592 1.399 . S
C593 C594 1.385 . S
C594 H580 0.931 . S
C594 C593 1.385 . S
C594 C595 1.389 . S
C595 C594 1.389 . S
C595 C596 1.387 . S
C596 H581 0.930 . S
C596 C591 1.390 . S
C596 C595 1.387 . S
H597 C609 0.930 . S
H598 C611 0.930 . S
H599 C612 0.930 . S
H600 C616 0.959 . S
H601 C616 0.959 1_554 S
H602 C616 0.961 . S
H603 C617 0.960 . S
H604 C617 0.961 . S
H605 C617 0.959 . S
H606 C620 0.929 . S
H607 C621 0.931 . S
H608 C623 0.930 1_554 S
C609 H597 0.930 . S
C609 C610 1.399 . S
C609 C614 1.399 . S
C610 C609 1.399 . S
C610 C611 1.376 . S
C611 H598 0.930 . S
C611 C610 1.376 . S
C611 C612 1.388 . S
C612 H599 0.930 . S
C612 C611 1.388 . S
C612 C613 1.390 . S
C613 C612 1.390 . S
C613 C614 1.394 . S
C613 C619 1.465 . S
C614 C609 1.399 . S
C614 C613 1.394 . S
C614 C615 1.516 . S
C615 C614 1.516 . S
C615 C616 1.502 . S
C615 C617 1.561 . S
C615 C618 1.526 . S
C616 H600 0.959 . S
C616 H601 0.959 1_556 S
C616 H602 0.961 . S
C616 C615 1.502 . S
C617 H603 0.960 . S
C617 H604 0.961 . S
C617 H605 0.959 . S
C617 C615 1.561 . S
C618 C615 1.526 . S
C618 C619 1.396 . S
C618 C623 1.390 . S
C619 C613 1.465 . S
C619 C618 1.396 . S
C619 C620 1.399 . S
C620 H606 0.929 . S
C620 C619 1.399 . S
C620 C621 1.385 . S
C621 H607 0.931 . S
C621 C620 1.385 . S
C621 C622 1.399 . S
C622 C621 1.399 . S
C622 C623 1.388 . S
C623 H608 0.930 1_556 S
C623 C618 1.390 . S
C623 C622 1.388 . S
H624 C636 0.930 . S
H625 C638 0.930 . S
H626 C639 0.930 . S
H627 C643 0.959 . S
H628 C643 0.959 . S
H629 C643 0.961 . S
H630 C644 0.960 . S
H631 C644 0.961 . S
H632 C644 0.959 . S
H633 C647 0.929 . S
H634 C648 0.931 . S
H635 C650 0.930 . S
C636 H624 0.930 . S
C636 C637 1.399 . S
C636 C641 1.399 . S
C637 C636 1.399 . S
C637 C638 1.376 . S
C638 H625 0.930 . S
C638 C637 1.376 . S
C638 C639 1.388 . S
C639 H626 0.930 . S
C639 C638 1.388 . S
C639 C640 1.390 . S
C640 C639 1.390 . S
C640 C641 1.394 . S
C640 C646 1.465 . S
C641 C636 1.399 . S
C641 C640 1.394 . S
C641 C642 1.516 . S
C642 C641 1.516 . S
C642 C643 1.502 . S
C642 C644 1.561 . S
C642 C645 1.526 . S
C643 H627 0.959 . S
C643 H628 0.959 . S
C643 H629 0.961 . S
C643 C642 1.502 . S
C644 H630 0.960 . S
C644 H631 0.961 . S
C644 H632 0.959 . S
C644 C642 1.561 . S
C645 C642 1.526 . S
C645 C646 1.396 . S
C645 C650 1.390 . S
C646 C640 1.465 . S
C646 C645 1.396 . S
C646 C647 1.399 . S
C647 H633 0.929 . S
C647 C646 1.399 . S
C647 C648 1.385 . S
C648 H634 0.931 . S
C648 C647 1.385 . S
C648 C649 1.389 . S
C649 C648 1.389 . S
C649 C650 1.387 . S
C650 H635 0.930 . S
C650 C645 1.390 . S
C650 C649 1.387 . S
H651 C663 0.930 . S
H652 C665 0.930 . S
H653 C666 0.930 . S
H654 C670 0.959 . S
H655 C670 0.959 . S
H656 C670 0.961 . S
H657 C671 0.960 . S
H658 C671 0.961 . S
H659 C671 0.959 . S
H660 C674 0.929 . S
H661 C675 0.931 . S
H662 C677 0.930 . S
C663 H651 0.930 . S
C663 C664 1.399 . S
C663 C668 1.399 . S
C664 C663 1.399 . S
C664 C665 1.376 . S
C665 H652 0.930 . S
C665 C664 1.376 . S
C665 C666 1.388 . S
C666 H653 0.930 . S
C666 C665 1.388 . S
C666 C667 1.390 . S
C667 C666 1.390 . S
C667 C668 1.394 . S
C667 C673 1.465 . S
C668 C663 1.399 . S
C668 C667 1.394 . S
C668 C669 1.516 . S
C669 C668 1.516 . S
C669 C670 1.502 . S
C669 C671 1.561 . S
C669 C672 1.526 . S
C670 H654 0.959 . S
C670 H655 0.959 . S
C670 H656 0.961 . S
C670 C669 1.502 . S
C671 H657 0.960 . S
C671 H658 0.961 . S
C671 H659 0.959 . S
C671 C669 1.561 . S
C672 C669 1.526 . S
C672 C673 1.396 . S
C672 C677 1.390 . S
C673 C667 1.465 . S
C673 C672 1.396 . S
C673 C674 1.399 . S
C674 H660 0.929 . S
C674 C673 1.399 . S
C674 C675 1.385 . S
C675 H661 0.931 . S
C675 C674 1.385 . S
C675 C676 1.389 . S
C676 C675 1.389 . S
C676 C677 1.387 . S
C677 H662 0.930 . S
C677 C672 1.390 . S
C677 C676 1.387 . S
H678 C690 0.930 . S
H679 C692 0.930 . S
H680 C693 0.930 . S
H681 C697 0.959 . S
H682 C697 0.959 . S
H683 C697 0.961 . S
H684 C698 0.960 . S
H685 C698 0.961 . S
H686 C698 0.959 . S
H687 C701 0.929 . S
H688 C702 0.931 . S
H689 C704 0.930 . S
C690 H678 0.930 . S
C690 C691 1.399 . S
C690 C695 1.399 . S
C691 C690 1.399 . S
C691 C692 1.376 . S
C692 H679 0.930 . S
C692 C691 1.376 . S
C692 C693 1.388 . S
C693 H680 0.930 . S
C693 C692 1.388 . S
C693 C694 1.390 . S
C694 C693 1.390 . S
C694 C695 1.394 . S
C694 C700 1.465 . S
C695 C690 1.399 . S
C695 C694 1.394 . S
C695 C696 1.516 . S
C696 C695 1.516 . S
C696 C697 1.502 . S
C696 C698 1.561 . S
C696 C699 1.526 . S
C697 H681 0.959 . S
C697 H682 0.959 . S
C697 H683 0.961 . S
C697 C696 1.502 . S
C698 H684 0.960 . S
C698 H685 0.961 . S
C698 H686 0.959 . S
C698 C696 1.561 . S
C699 C696 1.526 . S
C699 C700 1.396 . S
C699 C704 1.390 . S
C700 C694 1.465 . S
C700 C699 1.396 . S
C700 C701 1.399 . S
C701 H687 0.929 . S
C701 C700 1.399 . S
C701 C702 1.385 . S
C702 H688 0.931 . S
C702 C701 1.385 . S
C702 C703 1.389 . S
C703 C702 1.389 . S
C703 C704 1.387 . S
C704 H689 0.930 . S
C704 C699 1.390 . S
C704 C703 1.387 . S
H705 C717 0.930 . S
H706 C719 0.930 . S
H707 C720 0.930 . S
H708 C724 0.959 . S
H709 C724 0.959 . S
H710 C724 0.961 . S
H711 C725 0.960 . S
H712 C725 0.961 . S
H713 C725 0.959 . S
H714 C728 0.929 . S
H715 C729 0.931 . S
H716 C731 0.930 . S
C717 H705 0.930 . S
C717 C718 1.399 . S
C717 C722 1.399 . S
C718 C717 1.399 . S
C718 C719 1.376 . S
C719 H706 0.930 . S
C719 C718 1.376 . S
C719 C720 1.388 . S
C720 H707 0.930 . S
C720 C719 1.388 . S
C720 C721 1.390 . S
C721 C720 1.390 . S
C721 C722 1.394 . S
C721 C727 1.465 . S
C722 C717 1.399 . S
C722 C721 1.394 . S
C722 C723 1.516 . S
C723 C722 1.516 . S
C723 C724 1.502 . S
C723 C725 1.561 . S
C723 C726 1.526 . S
C724 H708 0.959 . S
C724 H709 0.959 . S
C724 H710 0.961 . S
C724 C723 1.502 . S
C725 H711 0.960 . S
C725 H712 0.961 . S
C725 H713 0.959 . S
C725 C723 1.561 . S
C726 C723 1.526 . S
C726 C727 1.396 . S
C726 C731 1.390 . S
C727 C721 1.465 . S
C727 C726 1.396 . S
C727 C728 1.399 . S
C728 H714 0.929 . S
C728 C727 1.399 . S
C728 C729 1.385 . S
C729 H715 0.931 . S
C729 C728 1.385 . S
C729 C730 1.389 . S
C730 C729 1.389 . S
C730 C731 1.387 . S
C731 H716 0.930 . S
C731 C726 1.390 . S
C731 C730 1.387 . S
H732 C744 0.930 . S
H733 C746 0.930 . S
H734 C747 0.930 . S
H735 C751 0.959 . S
H736 C751 0.959 . S
H737 C751 0.961 . S
H738 C752 0.960 . S
H739 C752 0.961 . S
H740 C752 0.959 . S
H741 C755 0.929 . S
H742 C756 0.931 . S
H743 C758 0.930 . S
C744 H732 0.930 . S
C744 C745 1.399 . S
C744 C749 1.399 . S
C745 C744 1.399 . S
C745 C746 1.376 . S
C746 H733 0.930 . S
C746 C745 1.376 . S
C746 C747 1.388 . S
C747 H734 0.930 . S
C747 C746 1.388 . S
C747 C748 1.390 . S
C748 C747 1.390 . S
C748 C749 1.394 . S
C748 C754 1.465 . S
C749 C744 1.399 . S
C749 C748 1.394 . S
C749 C750 1.516 . S
C750 C749 1.516 . S
C750 C751 1.502 . S
C750 C752 1.561 . S
C750 C753 1.526 . S
C751 H735 0.959 . S
C751 H736 0.959 . S
C751 H737 0.961 . S
C751 C750 1.502 . S
C752 H738 0.960 . S
C752 H739 0.961 . S
C752 H740 0.959 . S
C752 C750 1.561 . S
C753 C750 1.526 . S
C753 C754 1.396 . S
C753 C758 1.390 . S
C754 C748 1.465 . S
C754 C753 1.396 . S
C754 C755 1.399 . S
C755 H741 0.929 . S
C755 C754 1.399 . S
C755 C756 1.385 . S
C756 H742 0.931 . S
C756 C755 1.385 . S
C756 C757 1.389 . S
C757 C756 1.389 . S
C757 C758 1.387 . S
C758 H743 0.930 . S
C758 C753 1.390 . S
C758 C757 1.387 . S
H759 C771 0.930 . S
H760 C773 0.930 . S
H761 C774 0.930 . S
H762 C778 0.959 . S
H763 C778 0.959 . S
H764 C778 0.961 . S
H765 C779 0.960 . S
H766 C779 0.961 . S
H767 C779 0.959 . S
H768 C782 0.929 . S
H769 C783 0.931 . S
H770 C785 0.930 . S
C771 H759 0.930 . S
C771 C772 1.399 . S
C771 C776 1.399 . S
C772 C771 1.399 . S
C772 C773 1.376 . S
C773 H760 0.930 . S
C773 C772 1.376 . S
C773 C774 1.388 . S
C774 H761 0.930 . S
C774 C773 1.388 . S
C774 C775 1.390 . S
C775 C774 1.390 . S
C775 C776 1.394 . S
C775 C781 1.465 . S
C776 C771 1.399 . S
C776 C775 1.394 . S
C776 C777 1.516 . S
C777 C776 1.516 . S
C777 C778 1.502 . S
C777 C779 1.561 . S
C777 C780 1.526 . S
C778 H762 0.959 . S
C778 H763 0.959 . S
C778 H764 0.961 . S
C778 C777 1.502 . S
C779 H765 0.960 . S
C779 H766 0.961 . S
C779 H767 0.959 . S
C779 C777 1.561 . S
C780 C777 1.526 . S
C780 C781 1.396 . S
C780 C785 1.390 . S
C781 C775 1.465 . S
C781 C780 1.396 . S
C781 C782 1.399 . S
C782 H768 0.929 . S
C782 C781 1.399 . S
C782 C783 1.385 . S
C783 H769 0.931 . S
C783 C782 1.385 . S
C783 C784 1.389 . S
C784 C783 1.389 . S
C784 C785 1.387 . S
C785 H770 0.930 . S
C785 C780 1.390 . S
C785 C784 1.387 . S
H786 C798 0.930 . S
H787 C800 0.930 . S
H788 C801 0.930 . S
H789 C805 0.959 . S
H790 C805 0.959 . S
H791 C805 0.961 . S
H792 C806 0.960 . S
H793 C806 0.961 . S
H794 C806 0.959 . S
H795 C809 0.929 . S
H796 C810 0.931 . S
H797 C812 0.934 . S
C798 H786 0.930 . S
C798 C799 1.399 . S
C798 C803 1.399 . S
C799 C798 1.399 . S
C799 C800 1.376 . S
C800 H787 0.930 . S
C800 C799 1.376 . S
C800 C801 1.388 . S
C801 H788 0.930 . S
C801 C800 1.388 . S
C801 C802 1.390 . S
C802 C801 1.390 . S
C802 C803 1.394 . S
C802 C808 1.465 . S
C803 C798 1.399 . S
C803 C802 1.394 . S
C803 C804 1.516 . S
C804 C803 1.516 . S
C804 C805 1.502 . S
C804 C806 1.561 . S
C804 C807 1.526 . S
C805 H789 0.959 . S
C805 H790 0.959 . S
C805 H791 0.961 . S
C805 C804 1.502 . S
C806 H792 0.960 . S
C806 H793 0.961 . S
C806 H794 0.959 . S
C806 C804 1.561 . S
C807 C804 1.526 . S
C807 C808 1.396 . S
C807 C812 1.411 . S
C808 C802 1.465 . S
C808 C807 1.396 . S
C808 C809 1.399 1_554 S
C809 H795 0.929 . S
C809 C808 1.399 1_556 S
C809 C810 1.385 . S
C810 H796 0.931 . S
C810 C809 1.385 . S
C810 C811 1.389 . S
C811 C810 1.389 . S
C811 C812 1.362 1_556 S
C812 H797 0.934 . S
C812 C807 1.411 . S
C812 C811 1.362 1_554 S
H813 C825 0.930 . S
H814 C827 0.930 . S
H815 C828 0.930 . S
H816 C832 0.959 . S
H817 C832 0.959 . S
H818 C832 0.961 . S
H819 C833 0.960 . S
H820 C833 0.961 . S
H821 C833 0.959 . S
H822 C836 0.929 . S
H823 C837 0.931 . S
H824 C839 0.930 . S
C825 H813 0.930 . S
C825 C826 1.399 . S
C825 C830 1.399 . S
C826 C825 1.399 . S
C826 C827 1.376 . S
C827 H814 0.930 . S
C827 C826 1.376 . S
C827 C828 1.388 . S
C828 H815 0.930 . S
C828 C827 1.388 . S
C828 C829 1.390 . S
C829 C828 1.390 . S
C829 C830 1.394 . S
C829 C835 1.465 . S
C830 C825 1.399 . S
C830 C829 1.394 . S
C830 C831 1.516 . S
C831 C830 1.516 . S
C831 C832 1.502 . S
C831 C833 1.561 . S
C831 C834 1.526 . S
C832 H816 0.959 . S
C832 H817 0.959 . S
C832 H818 0.961 . S
C832 C831 1.502 . S
C833 H819 0.960 . S
C833 H820 0.961 . S
C833 H821 0.959 . S
C833 C831 1.561 . S
C834 C831 1.526 . S
C834 C835 1.396 . S
C834 C839 1.390 . S
C835 C829 1.465 . S
C835 C834 1.396 . S
C835 C836 1.399 . S
C836 H822 0.929 . S
C836 C835 1.399 . S
C836 C837 1.385 . S
C837 H823 0.931 . S
C837 C836 1.385 . S
C837 C838 1.389 . S
C838 C837 1.389 . S
C838 C839 1.387 . S
C839 H824 0.930 . S
C839 C834 1.390 . S
C839 C838 1.387 . S
C217 C185 1.559 . S
C205 C8 1.516 . S
C232 C26 1.463 . S
C244 C119 1.474 . S
C259 C50 1.339 . S
C271 C133 1.384 . S
C286 C68 1.374 . S
C298 C147 1.440 . S
C325 C161 1.459 . S
C313 C80 1.471 . S
C340 C104 1.442 . S
C352 C171 1.506 . S
C367 C32 1.497 . S
C379 C129 1.561 . S
C394 C44 1.535 . S
C406 C143 1.606 . S
C421 C62 1.475 . S
C433 C157 1.540 . S
C460 C175 1.455 . S
C448 C86 1.383 1_554 S
C487 C189 1.512 . S
C475 C98 1.458 . S
C514 C115 1.531 . S
C502 C14 1.473 . S
C529 C7 1.431 . S
C541 C130 1.490 . S
C556 C25 1.562 . S
C568 C144 1.482 . S
C595 C158 1.547 . S
C583 C52 1.539 . S
C610 C70 1.400 . S
C622 C177 1.444 1_556 S
C649 C191 1.399 . S
C637 C79 1.436 . S
C676 C116 1.429 . S
C664 C106 1.480 . S
C703 C186 1.385 . S
C691 C34 1.463 . S
C718 C43 1.356 . S
C730 C121 1.353 . S
C757 C135 1.375 . S
C745 C61 1.356 . S
C772 C88 1.454 . S
C784 C149 1.382 . S
C799 C97 1.468 . S
C811 C163 1.364 . S
C826 C16 1.452 . S
C838 C172 1.492 . S
