# Generated by pormake.
# Topology anh, (6,3)-cn, num edge types: 1
# Building blocks:
#     Node 0, Type 0, BuildingBlock: BETDAH_clean_sbu_0, # of connection points: 6
#     Node 1, Type 0, BuildingBlock: BETDAH_clean_sbu_0, # of connection points: 6
#     Node 2, Type 0, BuildingBlock: BETDAH_clean_sbu_0, # of connection points: 6
#     Node 3, Type 1, BuildingBlock: QEWDON_clean_linker_0, # of connection points: 3
#     Node 4, Type 1, BuildingBlock: QEWDON_clean_linker_0, # of connection points: 3
#     Node 5, Type 1, BuildingBlock: QEWDON_clean_linker_0, # of connection points: 3
#     Node 6, Type 1, BuildingBlock: QEWDON_clean_linker_0, # of connection points: 3
#     Node 7, Type 1, BuildingBlock: QEWDON_clean_linker_0, # of connection points: 3
#     Node 8, Type 1, BuildingBlock: QEWDON_clean_linker_0, # of connection points: 3
#     Edge 9, Type (0, 1), BuildingBlock: KIFKEQ_clean_linker_1, # of connection points: 2
#     Edge 10, Type (0, 1), BuildingBlock: KIFKEQ_clean_linker_1, # of connection points: 2
#     Edge 11, Type (0, 1), BuildingBlock: KIFKEQ_clean_linker_1, # of connection points: 2
#     Edge 12, Type (0, 1), BuildingBlock: KIFKEQ_clean_linker_1, # of connection points: 2
#     Edge 13, Type (0, 1), BuildingBlock: KIFKEQ_clean_linker_1, # of connection points: 2
#     Edge 14, Type (0, 1), BuildingBlock: KIFKEQ_clean_linker_1, # of connection points: 2
#     Edge 15, Type (0, 1), BuildingBlock: KIFKEQ_clean_linker_1, # of connection points: 2
#     Edge 16, Type (0, 1), BuildingBlock: KIFKEQ_clean_linker_1, # of connection points: 2
#     Edge 17, Type (0, 1), BuildingBlock: KIFKEQ_clean_linker_1, # of connection points: 2
#     Edge 18, Type (0, 1), BuildingBlock: KIFKEQ_clean_linker_1, # of connection points: 2
#     Edge 19, Type (0, 1), BuildingBlock: KIFKEQ_clean_linker_1, # of connection points: 2
#     Edge 20, Type (0, 1), BuildingBlock: KIFKEQ_clean_linker_1, # of connection points: 2
#     Edge 21, Type (0, 1), BuildingBlock: KIFKEQ_clean_linker_1, # of connection points: 2
#     Edge 22, Type (0, 1), BuildingBlock: KIFKEQ_clean_linker_1, # of connection points: 2
#     Edge 23, Type (0, 1), BuildingBlock: KIFKEQ_clean_linker_1, # of connection points: 2
#     Edge 24, Type (0, 1), BuildingBlock: KIFKEQ_clean_linker_1, # of connection points: 2
#     Edge 25, Type (0, 1), BuildingBlock: KIFKEQ_clean_linker_1, # of connection points: 2
#     Edge 26, Type (0, 1), BuildingBlock: KIFKEQ_clean_linker_1, # of connection points: 2
# Relax obj value: 0.133
# Max RMSD: 0.175
# Mean RMSD: 0.126
data_MOF--net-anh--node1-BETDAH_clean_sbu_0--node2-QEWDON_clean_linker_0--edge1-KIFKEQ_clean_linker_1
_symmetry_space_group_name_H-M    P1
_symmetry_Int_Tables_number       1
_symmetry_cell_setting            triclinic
loop_
_symmetry_equiv_pos_as_xyz
'x, y, z'
_cell_length_a     32.446597
_cell_length_b     39.943099
_cell_length_c     48.730348
_cell_angle_alpha  95.722963
_cell_angle_beta   91.953737
_cell_angle_gamma 129.65379
loop_
_atom_site_label
_atom_site_type_symbol
_atom_site_fract_x
_atom_site_fract_y
_atom_site_fract_z
_atom_type_partial_charge
Ho0 Ho 0.13609 0.52473 0.14147 0.0
Ho1 Ho 1.07642 0.55349 0.16626 0.0
C2 C 0.19808 0.63055 0.15858 0.0
C3 C 0.20019 0.52165 0.11423 0.0
C4 C 0.25919 0.55262 0.12007 0.0
C5 C 0.29138 0.55669 0.09999 0.0
C6 C 0.34767 0.58652 0.10632 0.0
C7 C 0.37206 0.61238 0.13283 0.0
C8 C 0.33955 0.60913 0.15248 0.0
C9 C 0.28365 0.57962 0.14613 0.0
C10 C 0.13861 0.53115 0.1972 0.0
C11 C 1.01424 0.44826 0.14815 0.0
C12 C 1.02119 0.56327 0.19772 0.0
C13 C 0.967 0.53366 0.20614 0.0
C14 C 0.94174 0.48962 0.20805 0.0
C15 C 0.88661 0.45966 0.21052 0.0
C16 C 0.85646 0.47371 0.21166 0.0
C17 C 0.88339 0.51881 0.21233 0.0
C18 C 0.93809 0.54842 0.20944 0.0
C19 C 1.07804 0.55065 0.11079 0.0
O20 O 0.1968 0.59951 0.1447 0.0
O21 O 0.15746 0.62065 0.17169 0.0
O22 O 0.17519 0.49744 0.13357 0.0
O23 O 0.17947 0.53873 0.10574 0.0
O24 O 0.13689 0.50172 0.18192 0.0
O25 O 0.14268 0.55695 0.18246 0.0
O26 O 1.01774 0.47901 0.16431 0.0
O27 O 1.05299 0.4588 0.13302 0.0
O28 O 1.02267 0.56758 0.17141 0.0
O29 O 1.05558 0.55897 0.2071 0.0
O30 O 1.08029 0.57995 0.12677 0.0
O31 O 1.07134 0.52288 0.12466 0.0
H32 H 0.27306 0.53647 0.07967 0.0
H33 H 0.372 0.58823 0.09092 0.0
H34 H 0.35739 0.62894 0.17294 0.0
H35 H 0.25938 0.57746 0.16175 0.0
H36 H 0.96404 0.47803 0.2063 0.0
H37 H 0.86703 0.42522 0.21006 0.0
H38 H 0.86137 0.53077 0.21271 0.0
H39 H 0.95704 0.58235 0.20815 0.0
Ho40 Ho 0.69353 0.06666 0.48498 0.0
Ho41 Ho 0.61959 0.08478 0.46716 0.0
C42 C 0.56379 0.98518 0.46855 0.0
C43 C 0.73799 0.04005 0.50932 0.0
C44 C 0.72111 0.99715 0.51386 0.0
C45 C 0.66747 0.96214 0.51724 0.0
C46 C 0.65145 0.92091 0.51992 0.0
C47 C 0.68885 0.91397 0.51946 0.0
C48 C 0.74282 0.94943 0.5167 0.0
C49 C 0.75872 0.9906 0.51384 0.0
C50 C 0.68258 0.06878 0.43017 0.0
C51 C 0.75025 0.16628 0.48109 0.0
C52 C 0.57448 0.11245 0.4453 0.0
C53 C 0.58092 0.15285 0.45056 0.0
C54 C 0.6256 0.19295 0.44324 0.0
C55 C 0.63151 0.23094 0.44921 0.0
C56 C 0.59295 0.22973 0.46266 0.0
C57 C 0.54806 0.18942 0.46966 0.0
C58 C 0.54197 0.15147 0.46352 0.0
C59 C 0.63002 0.08253 0.52197 0.0
O60 O 0.60932 1.00048 0.4833 0.0
O61 O 0.56074 1.01133 0.45573 0.0
O62 O 0.74241 0.04723 0.48358 0.0
O63 O 0.71464 0.053 0.52235 0.0
O64 O 0.72702 0.08263 0.44405 0.0
O65 O 0.6455 0.05182 0.44547 0.0
O66 O 0.70293 0.15107 0.46888 0.0
O67 O 0.75593 0.14045 0.49241 0.0
O68 O 0.55524 0.08754 0.4647 0.0
O69 O 0.61366 0.1159 0.43511 0.0
O70 O 0.5862 0.06919 0.50787 0.0
O71 O 0.6675 0.09978 0.50688 0.0
H72 H 0.63784 0.96654 0.51758 0.0
H73 H 0.60973 0.89444 0.52235 0.0
H74 H 0.77246 0.94504 0.51598 0.0
H75 H 0.80027 0.01719 0.51119 0.0
H76 H 0.6562 0.19514 0.43303 0.0
H77 H 0.66617 0.26119 0.44313 0.0
H78 H 0.51796 0.18722 0.48044 0.0
H79 H 0.507 0.12104 0.4693 0.0
Ho80 Ho 0.68127 0.61238 0.82977 0.0
Ho81 Ho 0.60457 0.51794 0.84021 0.0
C82 C 0.55458 0.56582 0.83923 0.0
C83 C 0.72502 0.68466 0.80997 0.0
C84 C 0.71359 0.71472 0.80819 0.0
C85 C 0.72485 0.73579 0.78483 0.0
C86 C 0.71448 0.76459 0.78284 0.0
C87 C 0.6928 0.77301 0.8043 0.0
C88 C 0.68153 0.75164 0.82769 0.0
C89 C 0.69149 0.72261 0.82953 0.0
C90 C 0.68162 0.60167 0.8833 0.0
C91 C 0.7328 0.56577 0.83407 0.0
C92 C 0.56367 0.44459 0.85742 0.0
C93 C 0.57319 0.41312 0.85123 0.0
C94 C 0.59282 0.4039 0.87275 0.0
C95 C 0.60563 0.37665 0.86687 0.0
C96 C 0.59894 0.35796 0.8393 0.0
C97 C 0.5784 0.3667 0.81787 0.0
C98 C 0.56592 0.39406 0.82372 0.0
C99 C 0.60516 0.52807 0.78631 0.0
O100 O 0.5992 0.59668 0.82861 0.0
O101 O 0.55015 0.534 0.84918 0.0
O102 O 0.73988 0.68334 0.83486 0.0
O103 O 0.69059 0.64558 0.79495 0.0
O104 O 0.72455 0.63201 0.8729 0.0
O105 O 0.64071 0.58086 0.86546 0.0
O106 O 0.68587 0.53301 0.8419 0.0
O107 O 0.73959 0.59928 0.82532 0.0
O108 O 0.53967 0.44781 0.83699 0.0
O109 O 0.60414 0.483 0.87166 0.0
O110 O 0.56249 0.49769 0.79679 0.0
O111 O 0.64591 0.54934 0.80439 0.0
H112 H 0.74156 0.72986 0.76805 0.0
H113 H 0.72285 0.77979 0.76433 0.0
H114 H 0.6656 0.75772 0.84482 0.0
H115 H 0.68218 0.70653 0.84773 0.0
H116 H 0.59918 0.41844 0.8941 0.0
H117 H 0.62182 0.37099 0.88387 0.0
H118 H 0.5717 0.35224 0.79647 0.0
H119 H 0.55111 0.40058 0.80657 0.0
H120 H 0.63794 0.08012 0.21245 0.0
C121 C 0.60841 0.04518 0.20462 0.0
C122 C 0.59259 0.01503 0.22301 0.0
C123 C 0.58546 0.03042 0.17651 0.0
H124 H 0.5395 0.94671 0.22792 0.0
C125 C 0.55301 0.96974 0.21338 0.0
C126 C 0.5282 0.95403 0.18576 0.0
C127 C 0.54515 0.9845 0.16737 0.0
C128 C 0.60157 0.06277 0.1571 0.0
H129 H 0.52689 0.97215 0.14588 0.0
C130 C 0.65503 0.10343 0.15926 0.0
C131 C 0.66923 0.13335 0.14068 0.0
C132 C 0.56274 0.05327 0.13631 0.0
H133 H 0.52106 0.02341 0.13444 0.0
C134 C 0.5767 0.0826 0.1179 0.0
H135 H 0.68586 0.11152 0.1749 0.0
C136 C 0.62938 0.12219 0.11997 0.0
H137 H 0.63867 0.14463 0.10567 0.0
H138 H 0.54628 0.07478 0.10209 0.0
H139 H 0.59071 0.5625 0.5743 0.0
C140 C 0.59942 0.54281 0.56376 0.0
C141 C 0.61167 0.52177 0.57936 0.0
C142 C 0.5939 0.53549 0.53454 0.0
H143 H 0.62756 0.47695 0.57756 0.0
C144 C 0.61969 0.49412 0.5655 0.0
C145 C 0.61524 0.48688 0.53634 0.0
C146 C 0.60312 0.50833 0.5211 0.0
C147 C 0.57261 0.55196 0.51792 0.0
H148 H 0.59981 0.50325 0.49861 0.0
C149 C 0.59118 0.59512 0.52468 0.0
C150 C 0.5684 0.60916 0.50943 0.0
C151 C 0.53135 0.52331 0.49561 0.0
H152 H 0.51548 0.48972 0.4902 0.0
C153 C 0.50904 0.53723 0.48041 0.0
H154 H 0.62288 0.61755 0.54182 0.0
C155 C 0.52725 0.57976 0.48727 0.0
H156 H 0.50949 0.58988 0.475 0.0
H157 H 0.47726 0.51485 0.46333 0.0
H158 H 0.16532 0.56875 0.89843 0.0
C159 C 0.13187 0.56534 0.88898 0.0
C160 C 0.09187 0.55631 0.90529 0.0
C161 C 0.13006 0.57158 0.86116 0.0
H162 H 1.02025 0.54832 0.90729 0.0
C163 C 1.04927 0.55351 0.89391 0.0
C164 C 1.04493 0.55955 0.86635 0.0
C165 C 1.08583 0.56859 0.85003 0.0
C166 C 0.177 0.58539 0.84502 0.0
H167 H 1.08274 0.57285 0.82869 0.0
C168 C 0.20956 0.57283 0.84926 0.0
C169 C 0.25476 0.58881 0.83423 0.0
C170 C 0.19181 0.61452 0.82599 0.0
H171 H 0.17037 0.62647 0.82264 0.0
C172 C 0.23597 0.63055 0.81169 0.0
H173 H 0.19938 0.5503 0.86362 0.0
C174 C 0.26695 0.61816 0.81577 0.0
H175 H 0.30152 0.63244 0.8045 0.0
H176 H 0.24679 0.65342 0.79746 0.0
H177 H 0.10584 0.53607 0.41857 0.0
C178 C 0.14307 0.56951 0.42496 0.0
C179 C 0.17451 0.59337 0.40451 0.0
C180 C 0.15854 0.58921 0.45315 0.0
H181 H 0.24454 0.65546 0.3956 0.0
C182 C 0.22104 0.63745 0.4118 0.0
C183 C 0.23697 0.65865 0.43946 0.0
C184 C 0.20641 0.63392 0.46015 0.0
C185 C 0.12311 0.56408 0.47482 0.0
H186 H 0.21943 0.65003 0.48155 0.0
C187 C 1.08969 0.51753 0.47208 0.0
C188 C 1.0551 0.49432 0.49212 0.0
C189 C 0.12084 0.58657 0.49811 0.0
H190 H 0.14375 0.62177 0.50072 0.0
C191 C 1.08758 0.56387 0.51817 0.0
H192 H 1.09078 0.49919 0.45464 0.0
C193 C 1.05499 0.51824 0.51526 0.0
H194 H 1.02846 0.50151 0.53081 0.0
H195 H 1.08629 0.58173 0.53586 0.0
H196 H 0.62829 0.04029 0.73235 0.0
C197 C 0.63636 0.06887 0.74404 0.0
C198 C 0.6514 0.10407 0.73048 0.0
C199 C 0.62646 0.06857 0.77193 0.0
H200 H 0.66924 0.16656 0.73498 0.0
C201 C 0.65884 0.13988 0.74551 0.0
C202 C 0.6492 0.14012 0.77335 0.0
C203 C 0.63372 0.10458 0.78646 0.0
C204 C 0.60139 0.02844 0.78494 0.0
H205 H 0.62565 0.10428 0.80789 0.0
C206 C 0.62295 1.00696 0.78474 0.0
C207 C 0.59878 0.96951 0.79795 0.0
C208 C 0.55477 1.01142 0.79776 0.0
H209 H 0.53684 0.02684 0.7978 0.0
C210 C 0.53023 0.97403 0.8103 0.0
H211 H 0.65916 0.0201 0.77514 0.0
C212 C 0.55196 0.95322 0.81045 0.0
H213 H 0.53166 0.92396 0.82017 0.0
H214 H 0.49414 0.96107 0.81992 0.0
H215 H 0.70526 0.61164 0.09436 0.0
C216 C 0.69404 0.58187 0.10081 0.0
C217 C 0.67792 0.54652 0.08073 0.0
C218 C 0.69684 0.5797 0.12924 0.0
H219 H 0.6507 0.48055 0.07422 0.0
C220 C 0.66243 0.50782 0.08948 0.0
C221 C 0.66425 0.50492 0.11798 0.0
C222 C 0.68187 0.54122 0.13771 0.0
C223 C 0.71523 0.61793 0.14986 0.0
H224 H 0.68507 0.53996 0.15974 0.0
C225 C 0.69167 0.63718 0.14715 0.0
C226 C 0.70854 0.67402 0.16596 0.0
C227 C 0.75619 0.63563 0.17188 0.0
H228 H 0.77517 0.62137 0.17432 0.0
C229 C 0.77353 0.67246 0.19066 0.0
H230 H 0.65851 0.62217 0.13078 0.0
C231 C 0.74983 0.69159 0.18781 0.0
H232 H 0.76356 0.71987 0.2027 0.0
H233 H 0.80531 0.68612 0.20753 0.0
H234 H 0.45527 0.6725 0.10504 0.0
H235 H 0.42035 0.61216 0.17902 0.0
H236 H 0.55094 0.70976 0.11653 0.0
H237 H 0.51422 0.64695 0.18987 0.0
H238 H 0.67565 0.69976 0.20796 0.0
H239 H 0.60521 0.70506 0.20289 0.0
H240 H 0.6004 0.68666 0.11345 0.0
H241 H 0.67378 0.6855 0.1188 0.0
C242 C 0.46829 0.66759 0.12386 0.0
C243 C 0.43061 0.63925 0.14102 0.0
C244 C 0.52297 0.68881 0.13048 0.0
C245 C 0.54066 0.68119 0.15402 0.0
C246 C 0.50291 0.65461 0.17188 0.0
C247 C 0.44869 0.63415 0.16553 0.0
C248 C 0.66122 0.6989 0.18732 0.0
C249 C 0.67876 0.69052 0.16371 0.0
C250 C 0.62018 0.70126 0.18434 0.0
C251 C 0.59521 0.69426 0.15771 0.0
C252 C 0.6179 0.69177 0.13434 0.0
C253 C 0.65966 0.69044 0.13736 0.0
H254 H 0.75468 0.22756 0.4572 0.0
H255 H 0.85387 0.21293 0.50671 0.0
H256 H 0.83161 0.30512 0.45845 0.0
H257 H 0.93128 0.29081 0.50768 0.0
H258 H 1.03336 0.44251 0.5316 0.0
H259 H 0.96226 0.36302 0.52804 0.0
H260 H 0.919 0.35496 0.44139 0.0
H261 H 0.98958 0.43485 0.44518 0.0
C262 C 0.79293 0.24076 0.4683 0.0
C263 C 0.7978 0.21377 0.48195 0.0
C264 C 0.8373 0.28533 0.4688 0.0
C265 C 0.88789 0.30437 0.48305 0.0
C266 C 0.89287 0.2774 0.49667 0.0
C267 C 0.84846 0.23265 0.49605 0.0
C268 C 1.00894 0.42374 0.51172 0.0
C269 C 1.01698 0.44517 0.48873 0.0
C270 C 0.96837 0.37804 0.50962 0.0
C271 C 0.93444 0.35246 0.48449 0.0
C272 C 0.94384 0.37367 0.46119 0.0
C273 C 0.98474 0.41942 0.46325 0.0
H274 H 0.75234 0.85048 0.78253 0.0
H275 H 0.60779 0.76516 0.82142 0.0
H276 H 0.73446 0.90116 0.78041 0.0
H277 H 0.59115 0.81635 0.81998 0.0
H278 H 0.61087 0.93875 0.84233 0.0
H279 H 0.63632 0.89322 0.84314 0.0
H280 H 0.6644 0.90366 0.75728 0.0
H281 H 0.63796 0.94902 0.75628 0.0
C282 C 0.71659 0.84229 0.79045 0.0
C283 C 0.68174 0.80375 0.80236 0.0
C284 C 0.70652 0.87145 0.78929 0.0
C285 C 0.66175 0.86295 0.80028 0.0
C286 C 0.6266 0.82424 0.81183 0.0
C287 C 0.6363 0.79495 0.81273 0.0
C288 C 0.62242 0.93137 0.82357 0.0
C289 C 0.6214 0.94685 0.79908 0.0
C290 C 0.63701 0.90529 0.82406 0.0
C291 C 0.65143 0.89424 0.80014 0.0
C292 C 0.65344 0.91166 0.77603 0.0
C293 C 0.63844 0.9377 0.77548 0.0
H294 H 0.78479 0.47653 0.23731 0.0
H295 H 0.79272 0.39899 0.173 0.0
H296 H 0.70155 0.4517 0.21285 0.0
H297 H 0.7074 0.3719 0.14907 0.0
H298 H 0.70258 0.46455 0.09847 0.0
H299 H 0.7161 0.42284 0.12375 0.0
H300 H 0.6194 0.41707 0.1852 0.0
H301 H 0.60677 0.46011 0.15967 0.0
C302 C 0.76705 0.45216 0.2187 0.0
C303 C 0.79671 0.44177 0.20621 0.0
C304 C 0.71874 0.43746 0.20461 0.0
C305 C 0.69951 0.41194 0.17794 0.0
C306 C 0.72266 0.39333 0.16891 0.0
C307 C 0.7715 0.40859 0.18282 0.0
C308 C 0.68211 0.45274 0.11666 0.0
C309 C 0.65537 0.46698 0.12767 0.0
C310 C 0.68958 0.42836 0.13128 0.0
C311 C 0.67058 0.4179 0.15728 0.0
C312 C 0.63617 0.42589 0.16578 0.0
C313 C 0.62903 0.45062 0.15121 0.0
H314 H 0.45924 0.94521 0.44993 0.0
H315 H 0.55882 0.91725 0.48132 0.0
H316 H 0.38005 0.86767 0.44554 0.0
H317 H 0.47974 0.83925 0.47617 0.0
H318 H 0.31827 0.70482 0.48391 0.0
H319 H 0.39606 0.78379 0.49275 0.0
H320 H 0.34015 0.80015 0.41758 0.0
H321 H 0.2618 0.7225 0.40969 0.0
C322 C 0.46436 0.92248 0.45574 0.0
C323 C 0.51558 0.93762 0.4659 0.0
C324 C 0.41883 0.8778 0.45312 0.0
C325 C 0.42318 0.84677 0.4603 0.0
C326 C 0.47445 0.86204 0.47077 0.0
C327 C 0.52 0.90688 0.47359 0.0
C328 C 0.32231 0.72546 0.46952 0.0
C329 C 0.28386 0.70703 0.44594 0.0
C330 C 0.36729 0.77072 0.47439 0.0
C331 C 0.37479 0.79867 0.45586 0.0
C332 C 0.33575 0.78012 0.43257 0.0
C333 C 0.29097 0.7352 0.4278 0.0
H334 H 0.64756 0.35549 0.7952 0.0
H335 H 0.58279 0.29583 0.86849 0.0
H336 H 0.66415 0.30504 0.78223 0.0
H337 H 0.6022 0.24685 0.8563 0.0
H338 H 0.57354 0.12899 0.80402 0.0
H339 H 0.56692 0.18399 0.82256 0.0
H340 H 0.7173 0.28486 0.7929 0.0
H341 H 0.72334 0.22936 0.7739 0.0
C342 C 0.63709 0.33175 0.80866 0.0
C343 C 0.61312 0.3294 0.83272 0.0
C344 C 0.64743 0.3032 0.80143 0.0
C345 C 0.63442 0.27168 0.81816 0.0
C346 C 0.61206 0.27027 0.84271 0.0
C347 C 0.60148 0.29874 0.84988 0.0
C348 C 0.6058 0.16305 0.80196 0.0
C349 C 0.64897 0.17479 0.78745 0.0
C350 C 0.60202 0.19468 0.81262 0.0
C351 C 0.64141 0.23895 0.80914 0.0
C352 C 0.68568 0.25096 0.79552 0.0
C353 C 0.68931 0.21923 0.78472 0.0
H354 H 0.74015 0.8926 0.54945 0.0
H355 H 0.59792 0.83491 0.49225 0.0
H356 H 0.71165 0.81951 0.55063 0.0
H357 H 0.56988 0.76224 0.49301 0.0
H358 H 0.50682 0.63294 0.51603 0.0
H359 H 0.53608 0.70684 0.52152 0.0
H360 H 0.70186 0.76149 0.52213 0.0
H361 H 0.67228 0.68726 0.51738 0.0
C362 C 0.70291 0.86431 0.53705 0.0
C363 C 0.67119 0.86953 0.52084 0.0
C364 C 0.68661 0.82243 0.53769 0.0
C365 C 0.63832 0.78484 0.52202 0.0
C366 C 0.60668 0.79022 0.50585 0.0
C367 C 0.6228 0.83196 0.50535 0.0
C368 C 0.54955 0.66083 0.51759 0.0
C369 C 0.58726 0.65439 0.51603 0.0
C370 C 0.56636 0.70318 0.52057 0.0
C371 C 0.6213 0.7402 0.52181 0.0
C372 C 0.65927 0.73383 0.52145 0.0
C373 C 0.64241 0.69133 0.5187 0.0
H374 H 0.8426 0.63277 0.83238 0.0
H375 H 0.72733 0.49482 0.83869 0.0
H376 H 0.91587 0.63027 0.83729 0.0
H377 H 0.79931 0.4914 0.84207 0.0
H378 H 0.93928 0.50203 0.8768 0.0
H379 H 0.86758 0.50445 0.86835 0.0
H380 H 0.96855 0.61294 0.82307 0.0
H381 H 1.04245 0.61211 0.83339 0.0
C382 C 0.8326 0.60166 0.83446 0.0
C383 C 0.77839 0.56412 0.83531 0.0
C384 C 0.875 0.60006 0.83714 0.0
C385 C 0.86503 0.56069 0.84047 0.0
C386 C 0.81031 0.52295 0.84045 0.0
C387 C 0.76824 0.52474 0.83821 0.0
C388 C 0.94673 0.52667 0.86505 0.0
C389 C 0.9979 0.55725 0.85622 0.0
C390 C 0.90462 0.52772 0.85977 0.0
C391 C 0.91077 0.55899 0.8449 0.0
C392 C 0.9614 0.58864 0.83503 0.0
C393 C 1.00403 0.58778 0.84057 0.0
H394 H 0.20888 0.70351 0.1755 0.0
H395 H 0.29831 0.66449 0.145 0.0
H396 H 0.28926 0.78077 0.17875 0.0
H397 H 0.37889 0.74199 0.1484 0.0
H398 H 0.52209 0.88462 0.19539 0.0
H399 H 0.44283 0.80622 0.18654 0.0
H400 H 0.35024 0.83638 0.14829 0.0
H401 H 0.42955 0.91486 0.15726 0.0
C402 C 0.24564 0.71135 0.16945 0.0
C403 C 0.24703 0.67765 0.16008 0.0
C404 C 0.29166 0.75571 0.17111 0.0
C405 C 0.34053 0.76763 0.16377 0.0
C406 C 0.34199 0.73396 0.15436 0.0
C407 C 0.2957 0.68951 0.15232 0.0
C408 C 0.48495 0.87443 0.18481 0.0
C409 C 0.48212 0.906 0.17708 0.0
C410 C 0.4396 0.82949 0.17961 0.0
C411 C 0.39004 0.81501 0.16689 0.0
C412 C 0.38764 0.84647 0.1584 0.0
C413 C 0.43322 0.89139 0.16327 0.0
H414 H 0.68662 0.31446 0.48081 0.0
H415 H 0.5145 0.23711 0.46104 0.0
H416 H 0.69661 0.3798 0.49474 0.0
H417 H 0.52395 0.30148 0.47677 0.0
H418 H 0.55434 0.42765 0.4886 0.0
H419 H 0.55396 0.3698 0.46744 0.0
H420 H 0.67966 0.41081 0.53164 0.0
H421 H 0.68289 0.47082 0.55159 0.0
C422 C 0.6509 0.31136 0.47925 0.0
C423 C 0.59967 0.27028 0.46992 0.0
C424 C 0.65656 0.3488 0.48764 0.0
C425 C 0.6111 0.34609 0.48711 0.0
C426 C 0.56007 0.30518 0.47719 0.0
C427 C 0.5545 0.26792 0.46857 0.0
C428 C 0.58301 0.42521 0.49782 0.0
C429 C 0.61848 0.45396 0.52197 0.0
C430 C 0.58214 0.39142 0.48591 0.0
C431 C 0.61619 0.38501 0.498 0.0
C432 C 0.65304 0.41475 0.52156 0.0
C433 C 0.65437 0.4489 0.53329 0.0
H434 H 0.46694 0.52166 0.86934 0.0
H435 H 0.5381 0.61409 0.81138 0.0
H436 H 0.39296 0.52389 0.86995 0.0
H437 H 0.464 0.61564 0.81161 0.0
H438 H 0.29461 0.5699 0.79219 0.0
H439 H 0.36523 0.56472 0.7949 0.0
H440 H 0.36946 0.57409 0.88395 0.0
H441 H 0.29906 0.58101 0.88135 0.0
C442 C 0.46702 0.54248 0.85668 0.0
C443 C 0.50911 0.56755 0.8402 0.0
C444 C 0.42445 0.54393 0.85716 0.0
C445 C 0.4216 0.56975 0.84072 0.0
C446 C 0.46388 0.5949 0.82438 0.0
C447 C 0.50686 0.59414 0.82432 0.0
C448 C 0.31031 0.57101 0.81254 0.0
C449 C 0.29095 0.5768 0.8366 0.0
C450 C 0.35135 0.56809 0.81405 0.0
C451 C 0.37459 0.56986 0.83967 0.0
C452 C 0.3531 0.57279 0.86375 0.0
C453 C 0.31221 0.57646 0.86227 0.0
H454 H 0.92548 0.41425 0.17531 0.0
H455 H 0.99201 0.37471 0.11877 0.0
H456 H 0.84671 0.33759 0.1747 0.0
H457 H 0.91265 0.2975 0.11813 0.0
H458 H 0.73062 0.1714 0.09876 0.0
H459 H 0.81558 0.24635 0.10107 0.0
H460 H 0.81856 0.26933 0.18987 0.0
H461 H 0.73285 0.19428 0.18744 0.0
C462 C 0.92366 0.38931 0.16288 0.0
C463 C 0.96557 0.40104 0.14721 0.0
C464 C 0.87838 0.34511 0.16265 0.0
C465 C 0.87334 0.31117 0.14655 0.0
C466 C 0.91502 0.32276 0.13068 0.0
C467 C 0.96062 0.3671 0.13108 0.0
C468 C 0.74966 0.19233 0.11883 0.0
C469 C 0.72473 0.17691 0.1429 0.0
C470 C 0.7986 0.23526 0.12018 0.0
C471 C 0.82384 0.26413 0.14561 0.0
C472 C 0.7999 0.24819 0.16987 0.0
C473 C 0.75109 0.20502 0.16855 0.0
H474 H 0.11318 0.61691 0.08124 0.0
H475 H 1.05658 0.48452 0.07287 0.0
H476 H 0.12171 0.61691 0.03156 0.0
H477 H 1.06441 0.48426 0.02297 0.0
H478 H 1.0149 0.48916 0.93157 0.0
H479 H 1.01553 0.48689 0.98158 0.0
H480 H 0.17654 0.61312 -0.00358 0.0
H481 H 0.17601 0.61511 0.94625 0.0
C482 C 0.10262 0.58784 0.06875 0.0
C483 C 1.08391 0.55062 0.08083 0.0
C484 C 0.1079 0.58796 0.04037 0.0
C485 C 0.09381 0.55061 0.02339 0.0
C486 C 1.07534 0.51343 0.03553 0.0
C487 C 1.07091 0.51359 0.06404 0.0
C488 C 1.05074 0.51602 0.94552 0.0
C489 C 0.09543 0.55228 0.93509 0.0
C490 C 1.05118 0.51467 0.97411 0.0
C491 C 0.09597 0.54994 0.99291 0.0
C492 C 0.14133 0.58563 0.9824 0.0
C493 C 0.14124 0.58661 0.95374 0.0
H494 H 0.75198 0.08615 0.39265 0.0
H495 H 0.59424 0.04619 0.39938 0.0
H496 H 0.73596 0.07855 0.34205 0.0
H497 H 0.57879 0.03959 0.34891 0.0
H498 H 0.59309 0.07161 0.2596 0.0
H499 H 0.61924 0.08958 0.31012 0.0
H500 H 0.66671 1.01006 0.30402 0.0
H501 H 0.63982 0.99163 0.25367 0.0
C502 C 0.71416 0.0762 0.38333 0.0
C503 C 0.67427 0.06665 0.39987 0.0
C504 C 0.705 0.0718 0.35443 0.0
C505 C 0.65622 0.05859 0.34163 0.0
C506 C 0.61697 0.05025 0.35829 0.0
C507 C 0.62572 0.05386 0.38712 0.0
C508 C 0.60997 0.05865 0.26908 0.0
C509 C 0.61456 0.03031 0.25286 0.0
C510 C 0.62453 0.06864 0.29791 0.0
C511 C 0.64487 0.05112 0.31091 0.0
C512 C 0.6515 0.02425 0.2945 0.0
C513 C 0.63601 0.01361 0.26577 0.0
H514 H 0.52054 0.4783 0.74534 0.0
H515 H 0.69302 0.5845 0.75981 0.0
H516 H 0.52239 0.47954 0.69547 0.0
H517 H 0.69491 0.58576 0.70963 0.0
H518 H 0.66208 0.59632 0.61794 0.0
H519 H 0.66108 0.60092 0.66853 0.0
H520 H 0.5593 0.45936 0.65987 0.0
H521 H 0.5598 0.45479 0.60971 0.0
C522 C 0.55884 0.50206 0.73783 0.0
C523 C 0.60668 0.53109 0.75638 0.0
C524 C 0.55991 0.50268 0.70928 0.0
C525 C 0.60884 0.53251 0.69863 0.0
C526 C 0.65658 0.56259 0.71727 0.0
C527 C 0.65553 0.56175 0.74592 0.0
C528 C 0.6394 0.56629 0.62695 0.0
C529 C 0.6113 0.52524 0.60995 0.0
C530 C 0.63912 0.56893 0.65584 0.0
C531 C 0.61001 0.53049 0.66811 0.0
C532 C 0.58166 0.48952 0.65101 0.0
C533 C 0.58238 0.48694 0.6223 0.0
H534 H 0.55055 0.04662 0.55477 0.0
H535 H 0.72197 0.11936 0.55739 0.0
H536 H 0.55825 0.0505 0.60501 0.0
H537 H 0.72975 0.12328 0.60823 0.0
H538 H 0.69967 0.08038 0.69811 0.0
H539 H 0.6972 0.07377 0.64719 0.0
H540 H 0.60163 0.1141 0.64347 0.0
H541 H 0.60342 0.12006 0.69366 0.0
C542 C 0.58993 0.06333 0.56612 0.0
C543 C 0.63576 0.08309 0.55224 0.0
C544 C 0.59433 0.0656 0.59491 0.0
C545 C 0.64468 0.08762 0.61057 0.0
C546 C 0.69042 0.106 0.59664 0.0
C547 C 0.68603 0.10391 0.56764 0.0
C548 C 0.67827 0.08784 0.68629 0.0
C549 C 0.65208 0.10104 0.69988 0.0
C550 C 0.67716 0.08434 0.65727 0.0
C551 C 0.64901 0.09324 0.6414 0.0
C552 C 0.62321 0.10663 0.6551 0.0
C553 C 0.62472 0.11047 0.68391 0.0
H554 H 0.76777 0.62983 0.91898 0.0
H555 H 0.59437 0.54853 0.91038 0.0
H556 H 0.76748 0.61213 0.96544 0.0
H557 H 0.59392 0.53232 0.95739 0.0
H558 H 0.60504 0.48521 0.03583 0.0
H559 H 0.60691 0.49522 0.98711 0.0
H560 H 0.75518 0.6297 0.01 0.0
H561 H 0.75517 0.61874 0.05795 0.0
C562 C 0.72964 0.60845 0.9272 0.0
C563 C 0.68118 0.59087 0.91133 0.0
C564 C 0.72939 0.59838 0.95385 0.0
C565 C 0.68071 0.57108 0.96535 0.0
C566 C 0.63209 0.55298 0.94914 0.0
C567 C 0.63233 0.56259 0.92232 0.0
C568 C 0.63846 0.51661 0.03031 0.0
C569 C 0.67959 0.55131 0.05084 0.0
C570 C 0.63922 0.52256 0.00244 0.0
C571 C 0.68103 0.56338 -0.00543 0.0
C572 C 0.72266 0.59764 0.01511 0.0
C573 C 0.72218 0.59157 0.04279 0.0
H574 H 0.15772 0.5988 0.23146 0.0
H575 H 0.12147 0.47435 0.23155 0.0
H576 H 0.15832 0.60704 0.28169 0.0
H577 H 0.12211 0.48258 0.28215 0.0
H578 H 0.20296 0.55115 0.37491 0.0
H579 H 0.18899 0.53124 0.3242 0.0
H580 H 0.09651 0.57418 0.31707 0.0
H581 H 0.11128 0.59441 0.3677 0.0
C582 C 0.14936 0.57298 0.24224 0.0
C583 C 0.13915 0.53579 0.22764 0.0
C584 C 0.14945 0.57759 0.27101 0.0
C585 C 0.13972 0.54524 0.28588 0.0
C586 C 0.12989 0.5081 0.27127 0.0
C587 C 0.12948 0.50338 0.24236 0.0
C588 C 0.17857 0.55517 0.36239 0.0
C589 C 0.15776 0.57386 0.37489 0.0
C590 C 0.17053 0.54384 0.33345 0.0
C591 C 0.14204 0.55151 0.31663 0.0
C592 C 0.11924 0.56843 0.32945 0.0
C593 C 0.12715 0.57959 0.35834 0.0
loop_
_geom_bond_atom_site_label_1
_geom_bond_atom_site_label_2
_geom_bond_distance
_geom_bond_site_symmetry_2
_ccdc_geom_bond_type
Ho0 C3 2.811 . S
Ho0 O20 2.322 . S
Ho0 O22 2.378 . S
Ho0 O23 2.524 . S
Ho0 O24 2.381 . S
Ho0 O25 2.669 . S
Ho0 O27 2.346 1_455 S
Ho0 O31 2.305 . S
Ho1 C12 2.811 1_455 S
Ho1 O21 2.346 . S
Ho1 O25 2.305 . S
Ho1 O26 2.322 1_455 S
Ho1 O28 2.378 1_455 S
Ho1 O29 2.524 1_455 S
Ho1 O30 2.381 . S
Ho1 O31 2.669 . S
C2 O20 1.259 . S
C2 O21 1.268 . S
C3 Ho0 2.811 . S
C3 C4 1.488 . S
C3 O22 1.215 . S
C3 O23 1.289 . S
C4 C3 1.488 . S
C4 C5 1.348 . S
C4 C9 1.413 . S
C5 C4 1.348 . S
C5 C6 1.442 . S
C5 H32 0.930 . S
C6 C5 1.442 . S
C6 C7 1.381 . S
C6 H33 0.931 . S
C7 C6 1.381 . S
C7 C8 1.321 . S
C8 C7 1.321 . S
C8 C9 1.403 . S
C8 H34 0.934 . S
C9 C4 1.413 . S
C9 C8 1.403 . S
C9 H35 0.930 . S
C10 O24 1.275 . S
C10 O25 1.256 . S
C11 O26 1.259 . S
C11 O27 1.268 . S
C12 Ho1 2.811 1_655 S
C12 C13 1.488 . S
C12 O28 1.215 . S
C12 O29 1.289 . S
C13 C12 1.488 . S
C13 C14 1.348 . S
C13 C18 1.413 . S
C14 C13 1.348 . S
C14 C15 1.442 . S
C14 H36 0.930 . S
C15 C14 1.442 . S
C15 C16 1.381 . S
C15 H37 0.931 . S
C16 C15 1.381 . S
C16 C17 1.321 . S
C17 C16 1.321 . S
C17 C18 1.403 . S
C17 H38 0.934 . S
C18 C13 1.413 . S
C18 C17 1.403 . S
C18 H39 0.930 . S
C19 O30 1.275 . S
C19 O31 1.256 . S
O20 Ho0 2.322 . S
O20 C2 1.259 . S
O21 Ho1 2.346 . S
O21 C2 1.268 . S
O22 Ho0 2.378 . S
O22 C3 1.215 . S
O23 Ho0 2.524 . S
O23 C3 1.289 . S
O24 Ho0 2.381 . S
O24 C10 1.275 . S
O25 Ho0 2.669 . S
O25 Ho1 2.305 . S
O25 C10 1.256 . S
O26 Ho1 2.322 1_655 S
O26 C11 1.259 . S
O27 Ho0 2.346 1_655 S
O27 C11 1.268 . S
O28 Ho1 2.378 1_655 S
O28 C12 1.215 . S
O29 Ho1 2.524 1_655 S
O29 C12 1.289 . S
O30 Ho1 2.381 . S
O30 C19 1.275 . S
O31 Ho0 2.305 . S
O31 Ho1 2.669 . S
O31 C19 1.256 . S
H32 C5 0.930 . S
H33 C6 0.931 . S
H34 C8 0.934 . S
H35 C9 0.930 . S
H36 C14 0.930 . S
H37 C15 0.931 . S
H38 C17 0.934 . S
H39 C18 0.930 . S
Ho40 C43 2.811 1_545 S
Ho40 O60 2.322 1_545 S
Ho40 O62 2.378 1_545 S
Ho40 O63 2.524 1_545 S
Ho40 O64 2.381 . S
Ho40 O65 2.669 . S
Ho40 O67 2.346 . S
Ho40 O71 2.305 . S
Ho41 C52 2.811 . S
Ho41 O61 2.346 1_545 S
Ho41 O65 2.305 . S
Ho41 O66 2.322 . S
Ho41 O68 2.378 . S
Ho41 O69 2.524 . S
Ho41 O70 2.381 . S
Ho41 O71 2.669 . S
C42 O60 1.259 . S
C42 O61 1.268 . S
C43 Ho40 2.811 1_565 S
C43 C44 1.488 . S
C43 O62 1.215 . S
C43 O63 1.289 . S
C44 C43 1.488 . S
C44 C45 1.348 . S
C44 C49 1.413 . S
C45 C44 1.348 . S
C45 C46 1.442 . S
C45 H72 0.930 . S
C46 C45 1.442 . S
C46 C47 1.381 . S
C46 H73 0.931 . S
C47 C46 1.381 . S
C47 C48 1.321 . S
C48 C47 1.321 . S
C48 C49 1.403 . S
C48 H74 0.934 . S
C49 C44 1.413 . S
C49 C48 1.403 . S
C49 H75 0.930 . S
C50 O64 1.275 . S
C50 O65 1.256 . S
C51 O66 1.259 . S
C51 O67 1.268 . S
C52 Ho41 2.811 . S
C52 C53 1.488 . S
C52 O68 1.215 . S
C52 O69 1.289 . S
C53 C52 1.488 . S
C53 C54 1.348 . S
C53 C58 1.413 . S
C54 C53 1.348 . S
C54 C55 1.442 . S
C54 H76 0.930 . S
C55 C54 1.442 . S
C55 C56 1.381 . S
C55 H77 0.931 . S
C56 C55 1.381 . S
C56 C57 1.321 . S
C57 C56 1.321 . S
C57 C58 1.403 . S
C57 H78 0.934 . S
C58 C53 1.413 . S
C58 C57 1.403 . S
C58 H79 0.930 . S
C59 O70 1.275 . S
C59 O71 1.256 . S
O60 Ho40 2.322 1_565 S
O60 C42 1.259 . S
O61 Ho41 2.346 1_565 S
O61 C42 1.268 . S
O62 Ho40 2.378 1_565 S
O62 C43 1.215 . S
O63 Ho40 2.524 1_565 S
O63 C43 1.289 . S
O64 Ho40 2.381 . S
O64 C50 1.275 . S
O65 Ho40 2.669 . S
O65 Ho41 2.305 . S
O65 C50 1.256 . S
O66 Ho41 2.322 . S
O66 C51 1.259 . S
O67 Ho40 2.346 . S
O67 C51 1.268 . S
O68 Ho41 2.378 . S
O68 C52 1.215 . S
O69 Ho41 2.524 . S
O69 C52 1.289 . S
O70 Ho41 2.381 . S
O70 C59 1.275 . S
O71 Ho40 2.305 . S
O71 Ho41 2.669 . S
O71 C59 1.256 . S
H72 C45 0.930 . S
H73 C46 0.931 . S
H74 C48 0.934 . S
H75 C49 0.930 . S
H76 C54 0.930 . S
H77 C55 0.931 . S
H78 C57 0.934 . S
H79 C58 0.930 . S
Ho80 C83 2.811 . S
Ho80 O100 2.322 . S
Ho80 O102 2.378 . S
Ho80 O103 2.524 . S
Ho80 O104 2.381 . S
Ho80 O105 2.669 . S
Ho80 O107 2.346 . S
Ho80 O111 2.305 . S
Ho81 C92 2.811 . S
Ho81 O101 2.346 . S
Ho81 O105 2.305 . S
Ho81 O106 2.322 . S
Ho81 O108 2.378 . S
Ho81 O109 2.524 . S
Ho81 O110 2.381 . S
Ho81 O111 2.669 . S
C82 O100 1.259 . S
C82 O101 1.268 . S
C83 Ho80 2.811 . S
C83 C84 1.488 . S
C83 O102 1.215 . S
C83 O103 1.289 . S
C84 C83 1.488 . S
C84 C85 1.348 . S
C84 C89 1.413 . S
C85 C84 1.348 . S
C85 C86 1.442 . S
C85 H112 0.930 . S
C86 C85 1.442 . S
C86 C87 1.381 . S
C86 H113 0.931 . S
C87 C86 1.381 . S
C87 C88 1.321 . S
C88 C87 1.321 . S
C88 C89 1.403 . S
C88 H114 0.934 . S
C89 C84 1.413 . S
C89 C88 1.403 . S
C89 H115 0.930 . S
C90 O104 1.275 . S
C90 O105 1.256 . S
C91 O106 1.259 . S
C91 O107 1.268 . S
C92 Ho81 2.811 . S
C92 C93 1.488 . S
C92 O108 1.215 . S
C92 O109 1.289 . S
C93 C92 1.488 . S
C93 C94 1.348 . S
C93 C98 1.413 . S
C94 C93 1.348 . S
C94 C95 1.442 . S
C94 H116 0.930 . S
C95 C94 1.442 . S
C95 C96 1.381 . S
C95 H117 0.931 . S
C96 C95 1.381 . S
C96 C97 1.321 . S
C97 C96 1.321 . S
C97 C98 1.403 . S
C97 H118 0.934 . S
C98 C93 1.413 . S
C98 C97 1.403 . S
C98 H119 0.930 . S
C99 O110 1.275 . S
C99 O111 1.256 . S
O100 Ho80 2.322 . S
O100 C82 1.259 . S
O101 Ho81 2.346 . S
O101 C82 1.268 . S
O102 Ho80 2.378 . S
O102 C83 1.215 . S
O103 Ho80 2.524 . S
O103 C83 1.289 . S
O104 Ho80 2.381 . S
O104 C90 1.275 . S
O105 Ho80 2.669 . S
O105 Ho81 2.305 . S
O105 C90 1.256 . S
O106 Ho81 2.322 . S
O106 C91 1.259 . S
O107 Ho80 2.346 . S
O107 C91 1.268 . S
O108 Ho81 2.378 . S
O108 C92 1.215 . S
O109 Ho81 2.524 . S
O109 C92 1.289 . S
O110 Ho81 2.381 . S
O110 C99 1.275 . S
O111 Ho80 2.305 . S
O111 Ho81 2.669 . S
O111 C99 1.256 . S
H112 C85 0.930 . S
H113 C86 0.931 . S
H114 C88 0.934 . S
H115 C89 0.930 . S
H116 C94 0.930 . S
H117 C95 0.931 . S
H118 C97 0.934 . S
H119 C98 0.930 . S
H120 C121 0.949 . S
C121 H120 0.949 . S
C121 C122 1.395 . S
C121 C123 1.391 . S
C122 C121 1.395 . S
C122 C125 1.400 . S
C123 C121 1.391 . S
C123 C127 1.387 . S
C123 C128 1.491 . S
H124 C125 0.940 1_565 S
C125 C122 1.400 . S
C125 H124 0.940 1_545 S
C125 C126 1.378 1_545 S
C126 C125 1.378 1_565 S
C126 C127 1.409 1_565 S
C127 C123 1.387 . S
C127 C126 1.409 1_545 S
C127 H129 0.951 . S
C128 C123 1.491 . S
C128 C130 1.382 . S
C128 C132 1.404 . S
H129 C127 0.951 . S
C130 C128 1.382 . S
C130 C131 1.390 . S
C130 H135 0.949 . S
C131 C130 1.390 . S
C131 C136 1.399 . S
C132 C128 1.404 . S
C132 H133 0.950 . S
C132 C134 1.375 . S
H133 C132 0.950 . S
C134 C132 1.375 . S
C134 C136 1.382 . S
C134 H138 0.950 . S
H135 C130 0.949 . S
C136 C131 1.399 . S
C136 C134 1.382 . S
C136 H137 0.952 . S
H137 C136 0.952 . S
H138 C134 0.950 . S
H139 C140 0.949 . S
C140 H139 0.949 . S
C140 C141 1.395 . S
C140 C142 1.391 . S
C141 C140 1.395 . S
C141 C144 1.390 . S
C142 C140 1.391 . S
C142 C146 1.387 . S
C142 C147 1.491 . S
H143 C144 0.950 . S
C144 C141 1.390 . S
C144 H143 0.950 . S
C144 C145 1.378 . S
C145 C144 1.378 . S
C145 C146 1.409 . S
C146 C142 1.387 . S
C146 C145 1.409 . S
C146 H148 0.951 . S
C147 C142 1.491 . S
C147 C149 1.382 . S
C147 C151 1.404 . S
H148 C146 0.951 . S
C149 C147 1.382 . S
C149 C150 1.390 . S
C149 H154 0.949 . S
C150 C149 1.390 . S
C150 C155 1.399 . S
C151 C147 1.404 . S
C151 H152 0.950 . S
C151 C153 1.375 . S
H152 C151 0.950 . S
C153 C151 1.375 . S
C153 C155 1.382 . S
C153 H157 0.950 . S
H154 C149 0.949 . S
C155 C150 1.399 . S
C155 C153 1.382 . S
C155 H156 0.952 . S
H156 C155 0.952 . S
H157 C153 0.950 . S
H158 C159 0.949 . S
C159 H158 0.949 . S
C159 C160 1.395 . S
C159 C161 1.391 . S
C160 C159 1.395 . S
C160 C163 1.390 . S
C161 C159 1.391 . S
C161 C165 1.387 . S
C161 C166 1.491 . S
H162 C163 0.950 1_655 S
C163 C160 1.390 . S
C163 H162 0.950 1_455 S
C163 C164 1.378 . S
C164 C163 1.378 . S
C164 C165 1.409 . S
C165 C161 1.387 . S
C165 C164 1.409 . S
C165 H167 0.951 . S
C166 C161 1.491 . S
C166 C168 1.382 . S
C166 C170 1.404 . S
H167 C165 0.951 . S
C168 C166 1.382 . S
C168 C169 1.390 . S
C168 H173 0.949 . S
C169 C168 1.390 . S
C169 C174 1.399 . S
C170 C166 1.404 . S
C170 H171 0.950 . S
C170 C172 1.375 . S
H171 C170 0.950 . S
C172 C170 1.375 . S
C172 C174 1.382 . S
C172 H176 0.950 . S
H173 C168 0.949 . S
C174 C169 1.399 . S
C174 C172 1.382 . S
C174 H175 0.952 . S
H175 C174 0.952 . S
H176 C172 0.950 . S
H177 C178 0.949 . S
C178 H177 0.949 . S
C178 C179 1.395 1_655 S
C178 C180 1.391 1_655 S
C179 C178 1.395 1_455 S
C179 C182 1.390 . S
C180 C178 1.391 1_455 S
C180 C184 1.387 . S
C180 C185 1.491 1_455 S
H181 C182 0.950 . S
C182 C179 1.390 . S
C182 H181 0.950 . S
C182 C183 1.378 . S
C183 C182 1.378 . S
C183 C184 1.409 . S
C184 C180 1.387 . S
C184 C183 1.409 . S
C184 H186 0.951 . S
C185 C180 1.491 1_655 S
C185 C187 1.382 . S
C185 C189 1.404 . S
H186 C184 0.951 . S
C187 C185 1.382 . S
C187 C188 1.390 . S
C187 H192 0.949 . S
C188 C187 1.390 . S
C188 C193 1.399 . S
C189 C185 1.404 . S
C189 H190 0.950 . S
C189 C191 1.375 . S
H190 C189 0.950 . S
C191 C189 1.375 . S
C191 C193 1.382 . S
C191 H195 0.950 . S
H192 C187 0.949 . S
C193 C188 1.399 . S
C193 C191 1.382 . S
C193 H194 0.952 . S
H194 C193 0.952 . S
H195 C191 0.950 . S
H196 C197 0.949 . S
C197 H196 0.949 . S
C197 C198 1.395 . S
C197 C199 1.391 . S
C198 C197 1.395 . S
C198 C201 1.390 . S
C199 C197 1.391 . S
C199 C203 1.387 . S
C199 C204 1.491 . S
H200 C201 0.950 . S
C201 C198 1.390 . S
C201 H200 0.950 . S
C201 C202 1.378 . S
C202 C201 1.378 . S
C202 C203 1.409 . S
C203 C199 1.387 . S
C203 C202 1.409 . S
C203 H205 0.951 . S
C204 C199 1.491 . S
C204 C206 1.382 1_545 S
C204 C208 1.404 1_545 S
H205 C203 0.951 . S
C206 C204 1.382 1_565 S
C206 C207 1.390 . S
C206 H211 0.949 . S
C207 C206 1.390 . S
C207 C212 1.399 . S
C208 C204 1.404 1_565 S
C208 H209 0.950 1_565 S
C208 C210 1.375 . S
H209 C208 0.950 1_545 S
C210 C208 1.375 . S
C210 C212 1.382 . S
C210 H214 0.950 . S
H211 C206 0.949 . S
C212 C207 1.399 . S
C212 C210 1.382 . S
C212 H213 0.952 . S
H213 C212 0.952 . S
H214 C210 0.950 . S
H215 C216 0.949 . S
C216 H215 0.949 . S
C216 C217 1.395 . S
C216 C218 1.391 . S
C217 C216 1.395 . S
C217 C220 1.390 . S
C218 C216 1.391 . S
C218 C222 1.387 . S
C218 C223 1.491 . S
H219 C220 0.950 . S
C220 C217 1.390 . S
C220 H219 0.950 . S
C220 C221 1.378 . S
C221 C220 1.378 . S
C221 C222 1.409 . S
C222 C218 1.387 . S
C222 C221 1.409 . S
C222 H224 0.951 . S
C223 C218 1.491 . S
C223 C225 1.382 . S
C223 C227 1.404 . S
H224 C222 0.951 . S
C225 C223 1.382 . S
C225 C226 1.390 . S
C225 H230 0.949 . S
C226 C225 1.390 . S
C226 C231 1.399 . S
C227 C223 1.404 . S
C227 H228 0.950 . S
C227 C229 1.375 . S
H228 C227 0.950 . S
C229 C227 1.375 . S
C229 C231 1.382 . S
C229 H233 0.950 . S
H230 C225 0.949 . S
C231 C226 1.399 . S
C231 C229 1.382 . S
C231 H232 0.952 . S
H232 C231 0.952 . S
H233 C229 0.950 . S
H234 C242 0.950 . S
H235 C247 0.950 . S
H236 C244 0.950 . S
H237 C246 0.950 . S
H238 C248 0.950 . S
H239 C250 0.950 . S
H240 C252 0.950 . S
H241 C253 0.950 . S
C242 H234 0.950 . S
C242 C243 1.386 . S
C242 C244 1.391 . S
C243 C242 1.386 . S
C243 C247 1.393 . S
C244 H236 0.950 . S
C244 C242 1.391 . S
C244 C245 1.400 . S
C245 C244 1.400 . S
C245 C246 1.398 . S
C245 C251 1.491 . S
C246 H237 0.950 . S
C246 C245 1.398 . S
C246 C247 1.391 . S
C247 H235 0.950 . S
C247 C243 1.393 . S
C247 C246 1.391 . S
C248 H238 0.950 . S
C248 C249 1.386 . S
C248 C250 1.391 . S
C249 C248 1.386 . S
C249 C253 1.393 . S
C250 H239 0.950 . S
C250 C248 1.391 . S
C250 C251 1.400 . S
C251 C245 1.491 . S
C251 C250 1.400 . S
C251 C252 1.398 . S
C252 H240 0.950 . S
C252 C251 1.398 . S
C252 C253 1.391 . S
C253 H241 0.950 . S
C253 C249 1.393 . S
C253 C252 1.391 . S
H254 C262 0.950 . S
H255 C267 0.950 . S
H256 C264 0.950 . S
H257 C266 0.950 . S
H258 C268 0.950 . S
H259 C270 0.950 . S
H260 C272 0.950 . S
H261 C273 0.950 . S
C262 H254 0.950 . S
C262 C263 1.386 . S
C262 C264 1.391 . S
C263 C262 1.386 . S
C263 C267 1.393 . S
C264 H256 0.950 . S
C264 C262 1.391 . S
C264 C265 1.400 . S
C265 C264 1.400 . S
C265 C266 1.398 . S
C265 C271 1.491 . S
C266 H257 0.950 . S
C266 C265 1.398 . S
C266 C267 1.391 . S
C267 H255 0.950 . S
C267 C263 1.393 . S
C267 C266 1.391 . S
C268 H258 0.950 . S
C268 C269 1.386 . S
C268 C270 1.391 . S
C269 C268 1.386 . S
C269 C273 1.393 . S
C270 H259 0.950 . S
C270 C268 1.391 . S
C270 C271 1.400 . S
C271 C265 1.491 . S
C271 C270 1.400 . S
C271 C272 1.398 . S
C272 H260 0.950 . S
C272 C271 1.398 . S
C272 C273 1.391 . S
C273 H261 0.950 . S
C273 C269 1.393 . S
C273 C272 1.391 . S
H274 C282 0.950 . S
H275 C287 0.950 . S
H276 C284 0.950 . S
H277 C286 0.950 . S
H278 C288 0.950 . S
H279 C290 0.950 . S
H280 C292 0.950 . S
H281 C293 0.950 . S
C282 H274 0.950 . S
C282 C283 1.386 . S
C282 C284 1.391 . S
C283 C282 1.386 . S
C283 C287 1.393 . S
C284 H276 0.950 . S
C284 C282 1.391 . S
C284 C285 1.400 . S
C285 C284 1.400 . S
C285 C286 1.398 . S
C285 C291 1.491 . S
C286 H277 0.950 . S
C286 C285 1.398 . S
C286 C287 1.391 . S
C287 H275 0.950 . S
C287 C283 1.393 . S
C287 C286 1.391 . S
C288 H278 0.950 . S
C288 C289 1.386 . S
C288 C290 1.391 . S
C289 C288 1.386 . S
C289 C293 1.393 . S
C290 H279 0.950 . S
C290 C288 1.391 . S
C290 C291 1.400 . S
C291 C285 1.491 . S
C291 C290 1.400 . S
C291 C292 1.398 . S
C292 H280 0.950 . S
C292 C291 1.398 . S
C292 C293 1.391 . S
C293 H281 0.950 . S
C293 C289 1.393 . S
C293 C292 1.391 . S
H294 C302 0.950 . S
H295 C307 0.950 . S
H296 C304 0.950 . S
H297 C306 0.950 . S
H298 C308 0.950 . S
H299 C310 0.950 . S
H300 C312 0.950 . S
H301 C313 0.950 . S
C302 H294 0.950 . S
C302 C303 1.386 . S
C302 C304 1.391 . S
C303 C302 1.386 . S
C303 C307 1.393 . S
C304 H296 0.950 . S
C304 C302 1.391 . S
C304 C305 1.400 . S
C305 C304 1.400 . S
C305 C306 1.398 . S
C305 C311 1.491 . S
C306 H297 0.950 . S
C306 C305 1.398 . S
C306 C307 1.391 . S
C307 H295 0.950 . S
C307 C303 1.393 . S
C307 C306 1.391 . S
C308 H298 0.950 . S
C308 C309 1.386 . S
C308 C310 1.391 . S
C309 C308 1.386 . S
C309 C313 1.393 . S
C310 H299 0.950 . S
C310 C308 1.391 . S
C310 C311 1.400 . S
C311 C305 1.491 . S
C311 C310 1.400 . S
C311 C312 1.398 . S
C312 H300 0.950 . S
C312 C311 1.398 . S
C312 C313 1.391 . S
C313 H301 0.950 . S
C313 C309 1.393 . S
C313 C312 1.391 . S
H314 C322 0.950 . S
H315 C327 0.950 . S
H316 C324 0.950 . S
H317 C326 0.950 . S
H318 C328 0.950 . S
H319 C330 0.950 . S
H320 C332 0.950 . S
H321 C333 0.950 . S
C322 H314 0.950 . S
C322 C323 1.386 . S
C322 C324 1.391 . S
C323 C322 1.386 . S
C323 C327 1.393 . S
C324 H316 0.950 . S
C324 C322 1.391 . S
C324 C325 1.400 . S
C325 C324 1.400 . S
C325 C326 1.398 . S
C325 C331 1.491 . S
C326 H317 0.950 . S
C326 C325 1.398 . S
C326 C327 1.391 . S
C327 H315 0.950 . S
C327 C323 1.393 . S
C327 C326 1.391 . S
C328 H318 0.950 . S
C328 C329 1.386 . S
C328 C330 1.391 . S
C329 C328 1.386 . S
C329 C333 1.393 . S
C330 H319 0.950 . S
C330 C328 1.391 . S
C330 C331 1.400 . S
C331 C325 1.491 . S
C331 C330 1.400 . S
C331 C332 1.398 . S
C332 H320 0.950 . S
C332 C331 1.398 . S
C332 C333 1.391 . S
C333 H321 0.950 . S
C333 C329 1.393 . S
C333 C332 1.391 . S
H334 C342 0.950 . S
H335 C347 0.950 . S
H336 C344 0.950 . S
H337 C346 0.950 . S
H338 C348 0.950 . S
H339 C350 0.950 . S
H340 C352 0.950 . S
H341 C353 0.950 . S
C342 H334 0.950 . S
C342 C343 1.386 . S
C342 C344 1.391 . S
C343 C342 1.386 . S
C343 C347 1.393 . S
C344 H336 0.950 . S
C344 C342 1.391 . S
C344 C345 1.400 . S
C345 C344 1.400 . S
C345 C346 1.398 . S
C345 C351 1.491 . S
C346 H337 0.950 . S
C346 C345 1.398 . S
C346 C347 1.391 . S
C347 H335 0.950 . S
C347 C343 1.393 . S
C347 C346 1.391 . S
C348 H338 0.950 . S
C348 C349 1.386 . S
C348 C350 1.391 . S
C349 C348 1.386 . S
C349 C353 1.393 . S
C350 H339 0.950 . S
C350 C348 1.391 . S
C350 C351 1.400 . S
C351 C345 1.491 . S
C351 C350 1.400 . S
C351 C352 1.398 . S
C352 H340 0.950 . S
C352 C351 1.398 . S
C352 C353 1.391 . S
C353 H341 0.950 . S
C353 C349 1.393 . S
C353 C352 1.391 . S
H354 C362 0.950 . S
H355 C367 0.950 . S
H356 C364 0.950 . S
H357 C366 0.950 . S
H358 C368 0.950 . S
H359 C370 0.950 . S
H360 C372 0.950 . S
H361 C373 0.950 . S
C362 H354 0.950 . S
C362 C363 1.386 . S
C362 C364 1.391 . S
C363 C362 1.386 . S
C363 C367 1.393 . S
C364 H356 0.950 . S
C364 C362 1.391 . S
C364 C365 1.400 . S
C365 C364 1.400 . S
C365 C366 1.398 . S
C365 C371 1.491 . S
C366 H357 0.950 . S
C366 C365 1.398 . S
C366 C367 1.391 . S
C367 H355 0.950 . S
C367 C363 1.393 . S
C367 C366 1.391 . S
C368 H358 0.950 . S
C368 C369 1.386 . S
C368 C370 1.391 . S
C369 C368 1.386 . S
C369 C373 1.393 . S
C370 H359 0.950 . S
C370 C368 1.391 . S
C370 C371 1.400 . S
C371 C365 1.491 . S
C371 C370 1.400 . S
C371 C372 1.398 . S
C372 H360 0.950 . S
C372 C371 1.398 . S
C372 C373 1.391 . S
C373 H361 0.950 . S
C373 C369 1.393 . S
C373 C372 1.391 . S
H374 C382 0.950 . S
H375 C387 0.950 . S
H376 C384 0.950 . S
H377 C386 0.950 . S
H378 C388 0.950 . S
H379 C390 0.950 . S
H380 C392 0.950 . S
H381 C393 0.950 . S
C382 H374 0.950 . S
C382 C383 1.386 . S
C382 C384 1.391 . S
C383 C382 1.386 . S
C383 C387 1.393 . S
C384 H376 0.950 . S
C384 C382 1.391 . S
C384 C385 1.400 . S
C385 C384 1.400 . S
C385 C386 1.398 . S
C385 C391 1.491 . S
C386 H377 0.950 . S
C386 C385 1.398 . S
C386 C387 1.391 . S
C387 H375 0.950 . S
C387 C383 1.393 . S
C387 C386 1.391 . S
C388 H378 0.950 . S
C388 C389 1.386 . S
C388 C390 1.391 . S
C389 C388 1.386 . S
C389 C393 1.393 . S
C390 H379 0.950 . S
C390 C388 1.391 . S
C390 C391 1.400 . S
C391 C385 1.491 . S
C391 C390 1.400 . S
C391 C392 1.398 . S
C392 H380 0.950 . S
C392 C391 1.398 . S
C392 C393 1.391 . S
C393 H381 0.950 . S
C393 C389 1.393 . S
C393 C392 1.391 . S
H394 C402 0.950 . S
H395 C407 0.950 . S
H396 C404 0.950 . S
H397 C406 0.950 . S
H398 C408 0.950 . S
H399 C410 0.950 . S
H400 C412 0.950 . S
H401 C413 0.950 . S
C402 H394 0.950 . S
C402 C403 1.386 . S
C402 C404 1.391 . S
C403 C402 1.386 . S
C403 C407 1.393 . S
C404 H396 0.950 . S
C404 C402 1.391 . S
C404 C405 1.400 . S
C405 C404 1.400 . S
C405 C406 1.398 . S
C405 C411 1.491 . S
C406 H397 0.950 . S
C406 C405 1.398 . S
C406 C407 1.391 . S
C407 H395 0.950 . S
C407 C403 1.393 . S
C407 C406 1.391 . S
C408 H398 0.950 . S
C408 C409 1.386 . S
C408 C410 1.391 . S
C409 C408 1.386 . S
C409 C413 1.393 . S
C410 H399 0.950 . S
C410 C408 1.391 . S
C410 C411 1.400 . S
C411 C405 1.491 . S
C411 C410 1.400 . S
C411 C412 1.398 . S
C412 H400 0.950 . S
C412 C411 1.398 . S
C412 C413 1.391 . S
C413 H401 0.950 . S
C413 C409 1.393 . S
C413 C412 1.391 . S
H414 C422 0.950 . S
H415 C427 0.950 . S
H416 C424 0.950 . S
H417 C426 0.950 . S
H418 C428 0.950 . S
H419 C430 0.950 . S
H420 C432 0.950 . S
H421 C433 0.950 . S
C422 H414 0.950 . S
C422 C423 1.386 . S
C422 C424 1.391 . S
C423 C422 1.386 . S
C423 C427 1.393 . S
C424 H416 0.950 . S
C424 C422 1.391 . S
C424 C425 1.400 . S
C425 C424 1.400 . S
C425 C426 1.398 . S
C425 C431 1.491 . S
C426 H417 0.950 . S
C426 C425 1.398 . S
C426 C427 1.391 . S
C427 H415 0.950 . S
C427 C423 1.393 . S
C427 C426 1.391 . S
C428 H418 0.950 . S
C428 C429 1.386 . S
C428 C430 1.391 . S
C429 C428 1.386 . S
C429 C433 1.393 . S
C430 H419 0.950 . S
C430 C428 1.391 . S
C430 C431 1.400 . S
C431 C425 1.491 . S
C431 C430 1.400 . S
C431 C432 1.398 . S
C432 H420 0.950 . S
C432 C431 1.398 . S
C432 C433 1.391 . S
C433 H421 0.950 . S
C433 C429 1.393 . S
C433 C432 1.391 . S
H434 C442 0.950 . S
H435 C447 0.950 . S
H436 C444 0.950 . S
H437 C446 0.950 . S
H438 C448 0.950 . S
H439 C450 0.950 . S
H440 C452 0.950 . S
H441 C453 0.950 . S
C442 H434 0.950 . S
C442 C443 1.386 . S
C442 C444 1.391 . S
C443 C442 1.386 . S
C443 C447 1.393 . S
C444 H436 0.950 . S
C444 C442 1.391 . S
C444 C445 1.400 . S
C445 C444 1.400 . S
C445 C446 1.398 . S
C445 C451 1.491 . S
C446 H437 0.950 . S
C446 C445 1.398 . S
C446 C447 1.391 . S
C447 H435 0.950 . S
C447 C443 1.393 . S
C447 C446 1.391 . S
C448 H438 0.950 . S
C448 C449 1.386 . S
C448 C450 1.391 . S
C449 C448 1.386 . S
C449 C453 1.393 . S
C450 H439 0.950 . S
C450 C448 1.391 . S
C450 C451 1.400 . S
C451 C445 1.491 . S
C451 C450 1.400 . S
C451 C452 1.398 . S
C452 H440 0.950 . S
C452 C451 1.398 . S
C452 C453 1.391 . S
C453 H441 0.950 . S
C453 C449 1.393 . S
C453 C452 1.391 . S
H454 C462 0.950 . S
H455 C467 0.950 . S
H456 C464 0.950 . S
H457 C466 0.950 . S
H458 C468 0.950 . S
H459 C470 0.950 . S
H460 C472 0.950 . S
H461 C473 0.950 . S
C462 H454 0.950 . S
C462 C463 1.386 . S
C462 C464 1.391 . S
C463 C462 1.386 . S
C463 C467 1.393 . S
C464 H456 0.950 . S
C464 C462 1.391 . S
C464 C465 1.400 . S
C465 C464 1.400 . S
C465 C466 1.398 . S
C465 C471 1.491 . S
C466 H457 0.950 . S
C466 C465 1.398 . S
C466 C467 1.391 . S
C467 H455 0.950 . S
C467 C463 1.393 . S
C467 C466 1.391 . S
C468 H458 0.950 . S
C468 C469 1.386 . S
C468 C470 1.391 . S
C469 C468 1.386 . S
C469 C473 1.393 . S
C470 H459 0.950 . S
C470 C468 1.391 . S
C470 C471 1.400 . S
C471 C465 1.491 . S
C471 C470 1.400 . S
C471 C472 1.398 . S
C472 H460 0.950 . S
C472 C471 1.398 . S
C472 C473 1.391 . S
C473 H461 0.950 . S
C473 C469 1.393 . S
C473 C472 1.391 . S
H474 C482 0.950 . S
H475 C487 0.950 1_655 S
H476 C484 0.950 . S
H477 C486 0.950 1_655 S
H478 C488 0.950 1_655 S
H479 C490 0.950 1_655 S
H480 C492 0.950 . S
H481 C493 0.950 . S
C482 H474 0.950 . S
C482 C483 1.386 . S
C482 C484 1.391 . S
C483 C482 1.386 . S
C483 C487 1.393 . S
C484 H476 0.950 . S
C484 C482 1.391 . S
C484 C485 1.400 . S
C485 C484 1.400 . S
C485 C486 1.398 . S
C485 C491 1.491 1_554 S
C486 H477 0.950 1_455 S
C486 C485 1.398 . S
C486 C487 1.391 . S
C487 H475 0.950 1_455 S
C487 C483 1.393 . S
C487 C486 1.391 . S
C488 H478 0.950 1_455 S
C488 C489 1.386 . S
C488 C490 1.391 . S
C489 C488 1.386 . S
C489 C493 1.393 . S
C490 H479 0.950 1_455 S
C490 C488 1.391 . S
C490 C491 1.400 . S
C491 C485 1.491 1_556 S
C491 C490 1.400 . S
C491 C492 1.398 . S
C492 H480 0.950 . S
C492 C491 1.398 . S
C492 C493 1.391 . S
C493 H481 0.950 . S
C493 C489 1.393 . S
C493 C492 1.391 . S
H494 C502 0.950 . S
H495 C507 0.950 1_565 S
H496 C504 0.950 . S
H497 C506 0.950 1_565 S
H498 C508 0.950 . S
H499 C510 0.950 . S
H500 C512 0.950 . S
H501 C513 0.950 . S
C502 H494 0.950 . S
C502 C503 1.386 . S
C502 C504 1.391 . S
C503 C502 1.386 . S
C503 C507 1.393 . S
C504 H496 0.950 . S
C504 C502 1.391 . S
C504 C505 1.400 . S
C505 C504 1.400 . S
C505 C506 1.398 . S
C505 C511 1.491 . S
C506 H497 0.950 1_545 S
C506 C505 1.398 . S
C506 C507 1.391 . S
C507 H495 0.950 1_545 S
C507 C503 1.393 . S
C507 C506 1.391 . S
C508 H498 0.950 . S
C508 C509 1.386 . S
C508 C510 1.391 . S
C509 C508 1.386 . S
C509 C513 1.393 . S
C510 H499 0.950 . S
C510 C508 1.391 . S
C510 C511 1.400 . S
C511 C505 1.491 . S
C511 C510 1.400 . S
C511 C512 1.398 . S
C512 H500 0.950 . S
C512 C511 1.398 . S
C512 C513 1.391 . S
C513 H501 0.950 . S
C513 C509 1.393 . S
C513 C512 1.391 . S
H514 C522 0.950 . S
H515 C527 0.950 . S
H516 C524 0.950 . S
H517 C526 0.950 . S
H518 C528 0.950 . S
H519 C530 0.950 . S
H520 C532 0.950 . S
H521 C533 0.950 . S
C522 H514 0.950 . S
C522 C523 1.386 . S
C522 C524 1.391 . S
C523 C522 1.386 . S
C523 C527 1.393 . S
C524 H516 0.950 . S
C524 C522 1.391 . S
C524 C525 1.400 . S
C525 C524 1.400 . S
C525 C526 1.398 . S
C525 C531 1.491 . S
C526 H517 0.950 . S
C526 C525 1.398 . S
C526 C527 1.391 . S
C527 H515 0.950 . S
C527 C523 1.393 . S
C527 C526 1.391 . S
C528 H518 0.950 . S
C528 C529 1.386 . S
C528 C530 1.391 . S
C529 C528 1.386 . S
C529 C533 1.393 . S
C530 H519 0.950 . S
C530 C528 1.391 . S
C530 C531 1.400 . S
C531 C525 1.491 . S
C531 C530 1.400 . S
C531 C532 1.398 . S
C532 H520 0.950 . S
C532 C531 1.398 . S
C532 C533 1.391 . S
C533 H521 0.950 . S
C533 C529 1.393 . S
C533 C532 1.391 . S
H534 C542 0.950 1_565 S
H535 C547 0.950 . S
H536 C544 0.950 1_565 S
H537 C546 0.950 . S
H538 C548 0.950 . S
H539 C550 0.950 . S
H540 C552 0.950 1_565 S
H541 C553 0.950 1_565 S
C542 H534 0.950 1_545 S
C542 C543 1.386 . S
C542 C544 1.391 . S
C543 C542 1.386 . S
C543 C547 1.393 . S
C544 H536 0.950 1_545 S
C544 C542 1.391 . S
C544 C545 1.400 . S
C545 C544 1.400 . S
C545 C546 1.398 . S
C545 C551 1.491 . S
C546 H537 0.950 . S
C546 C545 1.398 . S
C546 C547 1.391 . S
C547 H535 0.950 . S
C547 C543 1.393 . S
C547 C546 1.391 . S
C548 H538 0.950 . S
C548 C549 1.386 . S
C548 C550 1.391 . S
C549 C548 1.386 . S
C549 C553 1.393 . S
C550 H539 0.950 . S
C550 C548 1.391 . S
C550 C551 1.400 . S
C551 C545 1.491 . S
C551 C550 1.400 . S
C551 C552 1.398 . S
C552 H540 0.950 1_545 S
C552 C551 1.398 . S
C552 C553 1.391 . S
C553 H541 0.950 1_545 S
C553 C549 1.393 . S
C553 C552 1.391 . S
H554 C562 0.950 . S
H555 C567 0.950 . S
H556 C564 0.950 . S
H557 C566 0.950 . S
H558 C568 0.950 . S
H559 C570 0.950 1_556 S
H560 C572 0.950 . S
H561 C573 0.950 . S
C562 H554 0.950 . S
C562 C563 1.386 . S
C562 C564 1.391 . S
C563 C562 1.386 . S
C563 C567 1.393 . S
C564 H556 0.950 . S
C564 C562 1.391 . S
C564 C565 1.400 . S
C565 C564 1.400 . S
C565 C566 1.398 . S
C565 C571 1.491 . S
C566 H557 0.950 . S
C566 C565 1.398 . S
C566 C567 1.391 . S
C567 H555 0.950 . S
C567 C563 1.393 . S
C567 C566 1.391 . S
C568 H558 0.950 . S
C568 C569 1.386 . S
C568 C570 1.391 . S
C569 C568 1.386 . S
C569 C573 1.393 . S
C570 H559 0.950 1_554 S
C570 C568 1.391 . S
C570 C571 1.400 1_554 S
C571 C565 1.491 . S
C571 C570 1.400 1_556 S
C571 C572 1.398 1_556 S
C572 H560 0.950 . S
C572 C571 1.398 1_554 S
C572 C573 1.391 . S
C573 H561 0.950 . S
C573 C569 1.393 . S
C573 C572 1.391 . S
H574 C582 0.950 . S
H575 C587 0.950 . S
H576 C584 0.950 . S
H577 C586 0.950 . S
H578 C588 0.950 . S
H579 C590 0.950 . S
H580 C592 0.950 . S
H581 C593 0.950 . S
C582 H574 0.950 . S
C582 C583 1.386 . S
C582 C584 1.391 . S
C583 C582 1.386 . S
C583 C587 1.393 . S
C584 H576 0.950 . S
C584 C582 1.391 . S
C584 C585 1.400 . S
C585 C584 1.400 . S
C585 C586 1.398 . S
C585 C591 1.491 . S
C586 H577 0.950 . S
C586 C585 1.398 . S
C586 C587 1.391 . S
C587 H575 0.950 . S
C587 C583 1.393 . S
C587 C586 1.391 . S
C588 H578 0.950 . S
C588 C589 1.386 . S
C588 C590 1.391 . S
C589 C588 1.386 . S
C589 C593 1.393 . S
C590 H579 0.950 . S
C590 C588 1.391 . S
C590 C591 1.400 . S
C591 C585 1.491 . S
C591 C590 1.400 . S
C591 C592 1.398 . S
C592 H580 0.950 . S
C592 C591 1.398 . S
C592 C593 1.391 . S
C593 H581 0.950 . S
C593 C589 1.393 . S
C593 C592 1.391 . S
C243 C7 0.794 . S
C249 C226 0.799 . S
C263 C51 1.994 . S
C269 C188 1.935 . S
C283 C87 1.297 . S
C289 C207 1.256 . S
C303 C16 0.244 . S
C309 C221 0.189 . S
C329 C183 1.872 . S
C323 C42 1.895 . S
C349 C202 1.107 . S
C343 C96 1.130 . S
C363 C47 1.343 . S
C369 C150 1.261 . S
C383 C91 3.065 . S
C389 C164 3.033 1_655 S
C403 C2 1.912 . S
C409 C126 1.905 . S
C429 C145 1.100 . S
C423 C56 1.117 . S
C449 C169 3.050 . S
C443 C82 3.105 . S
C463 C11 2.005 . S
C469 C131 1.956 . S
C489 C160 1.712 . S
C483 C19 1.711 . S
C503 C50 1.462 . S
C509 C122 1.531 . S
C523 C99 1.564 . S
C529 C141 1.563 . S
C549 C198 1.552 . S
C543 C59 1.570 . S
C569 C217 1.363 . S
C563 C90 1.346 . S
C583 C10 1.447 . S
C589 C179 1.476 . S
